# Generated by pormake.
# Topology anh, (6,3)-cn, num edge types: 1
# Building blocks:
#     Node 0, Type 0, BuildingBlock: BETDAH_clean_sbu_0, # of connection points: 6
#     Node 1, Type 0, BuildingBlock: BETDAH_clean_sbu_0, # of connection points: 6
#     Node 2, Type 0, BuildingBlock: BETDAH_clean_sbu_0, # of connection points: 6
#     Node 3, Type 1, BuildingBlock: BETDAH_clean_linker_0, # of connection points: 3
#     Node 4, Type 1, BuildingBlock: BETDAH_clean_linker_0, # of connection points: 3
#     Node 5, Type 1, BuildingBlock: BETDAH_clean_linker_0, # of connection points: 3
#     Node 6, Type 1, BuildingBlock: BETDAH_clean_linker_0, # of connection points: 3
#     Node 7, Type 1, BuildingBlock: BETDAH_clean_linker_0, # of connection points: 3
#     Node 8, Type 1, BuildingBlock: BETDAH_clean_linker_0, # of connection points: 3
#     Edge 9, Type (0, 1), BuildingBlock: CIFDUS_clean_linker_0, # of connection points: 2
#     Edge 10, Type (0, 1), BuildingBlock: CIFDUS_clean_linker_0, # of connection points: 2
#     Edge 11, Type (0, 1), BuildingBlock: CIFDUS_clean_linker_0, # of connection points: 2
#     Edge 12, Type (0, 1), BuildingBlock: CIFDUS_clean_linker_0, # of connection points: 2
#     Edge 13, Type (0, 1), BuildingBlock: CIFDUS_clean_linker_0, # of connection points: 2
#     Edge 14, Type (0, 1), BuildingBlock: CIFDUS_clean_linker_0, # of connection points: 2
#     Edge 15, Type (0, 1), BuildingBlock: CIFDUS_clean_linker_0, # of connection points: 2
#     Edge 16, Type (0, 1), BuildingBlock: CIFDUS_clean_linker_0, # of connection points: 2
#     Edge 17, Type (0, 1), BuildingBlock: CIFDUS_clean_linker_0, # of connection points: 2
#     Edge 18, Type (0, 1), BuildingBlock: CIFDUS_clean_linker_0, # of connection points: 2
#     Edge 19, Type (0, 1), BuildingBlock: CIFDUS_clean_linker_0, # of connection points: 2
#     Edge 20, Type (0, 1), BuildingBlock: CIFDUS_clean_linker_0, # of connection points: 2
#     Edge 21, Type (0, 1), BuildingBlock: CIFDUS_clean_linker_0, # of connection points: 2
#     Edge 22, Type (0, 1), BuildingBlock: CIFDUS_clean_linker_0, # of connection points: 2
#     Edge 23, Type (0, 1), BuildingBlock: CIFDUS_clean_linker_0, # of connection points: 2
#     Edge 24, Type (0, 1), BuildingBlock: CIFDUS_clean_linker_0, # of connection points: 2
#     Edge 25, Type (0, 1), BuildingBlock: CIFDUS_clean_linker_0, # of connection points: 2
#     Edge 26, Type (0, 1), BuildingBlock: CIFDUS_clean_linker_0, # of connection points: 2
# Relax obj value: 0.172
# Max RMSD: 0.197
# Mean RMSD: 0.114
data_MOF--net-anh--node1-BETDAH_clean_sbu_0--node2-BETDAH_clean_linker_0--edge1-CIFDUS_clean_linker_0
_symmetry_space_group_name_H-M    P1
_symmetry_Int_Tables_number       1
_symmetry_cell_setting            triclinic
loop_
_symmetry_equiv_pos_as_xyz
'x, y, z'
_cell_length_a     27.482473
_cell_length_b     33.987363
_cell_length_c     43.080953
_cell_angle_alpha  94.434135
_cell_angle_beta   91.540314
_cell_angle_gamma 130.58377
loop_
_atom_site_label
_atom_site_type_symbol
_atom_site_fract_x
_atom_site_fract_y
_atom_site_fract_z
_atom_type_partial_charge
Ho0 Ho 0.2087 0.58598 0.15063 0.0
Ho1 Ho 0.11236 0.59715 0.16716 0.0
C2 C 0.25372 0.70236 0.16397 0.0
C3 C 0.29126 0.58434 0.1251 0.0
C4 C 0.29242 0.54254 0.11623 0.0
C5 C 0.35156 0.55454 0.11498 0.0
C6 C 0.35344 0.51458 0.10937 0.0
C7 C 0.2961 0.46202 0.105 0.0
C8 C 0.23677 0.45023 0.10553 0.0
C9 C 0.23496 0.49023 0.11122 0.0
C10 C 0.19365 0.58933 0.21202 0.0
C11 C 1.06853 0.4807 0.15834 0.0
C12 C 1.01864 0.5836 0.19133 0.0
C13 C 0.95067 0.53594 0.1863 0.0
C14 C 0.9074 0.52464 0.20805 0.0
C15 C 0.84297 0.47822 0.20276 0.0
C16 C 0.82137 0.44256 0.17571 0.0
C17 C 0.86601 0.4535 0.15476 0.0
C18 C 0.92981 0.4996 0.16001 0.0
C19 C 0.12362 0.59024 0.10509 0.0
O20 O 0.26311 0.67265 0.14866 0.0
O21 O 0.20047 0.68123 0.17761 0.0
O22 O 0.2481 0.5819 0.10902 0.0
O23 O 0.29432 0.59541 0.1552 0.0
O24 O 0.2033 0.56 0.19809 0.0
O25 O 0.19612 0.61701 0.19322 0.0
O26 O 1.05717 0.51117 0.16935 0.0
O27 O 0.12293 0.50017 0.14633 0.0
O28 O 1.04301 0.60793 0.16666 0.0
O29 O 1.05581 0.57837 0.20626 0.0
O30 O 0.11354 0.61929 0.11896 0.0
O31 O 0.12317 0.5641 0.12447 0.0
H32 H 0.39629 0.59474 0.11893 0.0
H33 H 0.3998 0.52477 0.10865 0.0
H34 H 0.19191 0.41009 0.1025 0.0
H35 H 0.18881 0.48025 0.11235 0.0
H36 H 0.92319 0.55184 0.22883 0.0
H37 H 0.80983 0.47076 0.21943 0.0
H38 H 0.8512 0.42772 0.13338 0.0
H39 H 0.96278 0.50727 0.14314 0.0
Ho40 Ho 0.72876 0.08564 0.48267 0.0
Ho41 Ho 0.63572 0.1022 0.46699 0.0
C42 C 0.57846 0.98554 0.46394 0.0
C43 C 0.80014 0.07167 0.51035 0.0
C44 C 0.79164 0.02442 0.51194 0.0
C45 C 0.74228 0.97813 0.49262 0.0
C46 C 0.73154 0.93234 0.49517 0.0
C47 C 0.76986 0.93178 0.51717 0.0
C48 C 0.8191 0.97826 0.53664 0.0
C49 C 0.82987 0.02421 0.53402 0.0
C50 C 0.69031 0.06622 0.42104 0.0
C51 C 0.78806 0.2039 0.48199 0.0
C52 C 0.57795 0.135 0.44896 0.0
C53 C 0.59062 0.18441 0.45516 0.0
C54 C 0.65357 0.23248 0.46231 0.0
C55 C 0.66406 0.27768 0.47302 0.0
C56 C 0.61175 0.27571 0.4764 0.0
C57 C 0.5489 0.22788 0.46796 0.0
C58 C 0.5385 0.18267 0.4576 0.0
C59 C 0.6384 0.0806 0.52553 0.0
O60 O 0.63147 1.00494 0.48173 0.0
O61 O 0.57243 0.01612 0.45046 0.0
O62 O 0.8098 0.08847 0.4829 0.0
O63 O 0.75818 0.0714 0.52426 0.0
O64 O 0.70139 0.04019 0.43539 0.0
O65 O 0.70302 0.10301 0.43975 0.0
O66 O 0.72804 0.18521 0.48077 0.0
O67 O 0.80137 0.17278 0.48138 0.0
O68 O 0.56492 0.1104 0.47333 0.0
O69 O 0.61666 0.13476 0.43209 0.0
O70 O 0.58619 0.06155 0.50859 0.0
O71 O 0.68677 0.1112 0.51099 0.0
H72 H 0.71154 0.97729 0.47577 0.0
H73 H 0.69254 0.89712 0.48017 0.0
H74 H 0.84978 0.97927 0.55362 0.0
H75 H 0.86777 0.05946 0.54935 0.0
H76 H 0.69456 0.23492 0.46035 0.0
H77 H 0.71306 0.31406 0.47892 0.0
H78 H 0.50757 0.22494 0.47052 0.0
H79 H 0.48953 0.14592 0.4525 0.0
Ho80 Ho 0.63079 0.5928 0.85496 0.0
Ho81 Ho 0.53729 0.47851 0.83469 0.0
C82 C 0.47597 0.53374 0.84343 0.0
C83 C 0.70057 0.69289 0.85795 0.0
C84 C 0.69452 0.72965 0.84694 0.0
C85 C 0.66127 0.7188 0.81781 0.0
C86 C 0.65972 0.75579 0.80699 0.0
C87 C 0.69101 0.80418 0.82518 0.0
C88 C 0.72283 0.81414 0.85469 0.0
C89 C 0.72473 0.77732 0.86537 0.0
C90 C 0.58502 0.53256 0.90193 0.0
C91 C 0.6944 0.53928 0.85065 0.0
C92 C 0.47213 0.37892 0.82928 0.0
C93 C 0.48503 0.34437 0.81923 0.0
C94 C 0.46188 0.3021 0.83564 0.0
C95 C 0.47619 0.27023 0.82764 0.0
C96 C 0.51373 0.27985 0.80289 0.0
C97 C 0.53684 0.3224 0.78646 0.0
C98 C 0.52294 0.35455 0.79467 0.0
C99 C 0.57798 0.53685 0.78696 0.0
O100 O 0.5368 0.57715 0.842 0.0
O101 O 0.46381 0.48898 0.84494 0.0
O102 O 0.66508 0.66597 0.87996 0.0
O103 O 0.70251 0.6649 0.83629 0.0
O104 O 0.64432 0.57584 0.90299 0.0
O105 O 0.55394 0.52558 0.8772 0.0
O106 O 0.63397 0.49437 0.84257 0.0
O107 O 0.7054 0.58359 0.85583 0.0
O108 O 0.46847 0.40225 0.80774 0.0
O109 O 0.50534 0.41003 0.85519 0.0
O110 O 0.51945 0.49396 0.788 0.0
O111 O 0.61293 0.5456 0.81084 0.0
H112 H 0.63736 0.68209 0.80319 0.0
H113 H 0.63515 0.74687 0.78409 0.0
H114 H 0.74618 0.85039 0.86967 0.0
H115 H 0.75036 0.78631 0.88796 0.0
H116 H 0.43339 0.29414 0.85498 0.0
H117 H 0.45863 0.23852 0.84122 0.0
H118 H 0.56523 0.33066 0.76706 0.0
H119 H 0.54206 0.38745 0.78193 0.0
H120 H 0.558 0.98797 0.23891 0.0
H121 H 0.72657 0.14485 0.22724 0.0
H122 H 0.6066 0.03141 0.14655 0.0
C123 C 0.5894 0.0173 0.22376 0.0
C124 C 0.57525 1.00353 0.19126 0.0
C125 C 0.64426 0.06769 0.23707 0.0
C126 C 0.68419 0.10592 0.21722 0.0
C127 C 0.67058 0.09293 0.18441 0.0
C128 C 0.61667 0.04152 0.17174 0.0
N129 N 0.7103 0.12963 0.16326 0.0
C130 C 0.76176 0.1831 0.1711 0.0
H131 H 0.68838 0.50961 0.61945 0.0
H132 H 0.70146 0.64106 0.60828 0.0
H133 H 0.69579 0.55448 0.5279 0.0
C134 C 0.6928 0.53584 0.60453 0.0
C135 C 0.69167 0.52682 0.57202 0.0
C136 C 0.69599 0.57676 0.61782 0.0
C137 C 0.69936 0.6097 0.59824 0.0
C138 C 0.69979 0.60168 0.56571 0.0
C139 C 0.69554 0.56027 0.55298 0.0
N140 N 0.70321 0.6333 0.54457 0.0
C141 C 0.71369 0.67895 0.55226 0.0
H142 H 0.9861 0.55352 0.92058 0.0
H143 H 0.13596 0.54711 0.90927 0.0
H144 H 1.00802 0.50921 0.82904 0.0
C145 C 1.01123 0.5469 0.90513 0.0
C146 C 0.98939 0.5315 0.87304 0.0
C147 C 1.06334 0.55249 0.91827 0.0
C148 C 0.09561 0.54219 0.89904 0.0
C149 C 1.07716 0.52693 0.86667 0.0
C150 C 1.02305 0.52106 0.85388 0.0
N151 N 0.11205 0.51818 0.84656 0.0
C152 C 0.16504 0.52025 0.85399 0.0
H153 H 0.28395 0.68917 0.39214 0.0
H154 H 0.1293 0.53222 0.411 0.0
H155 H 0.23638 0.65924 0.48639 0.0
C156 C 0.25456 0.66186 0.40865 0.0
C157 C 0.26654 0.6806 0.44042 0.0
C158 C 0.20465 0.60875 0.39775 0.0
C159 C 0.16756 0.57324 0.41934 0.0
C160 C 0.17883 0.59124 0.45151 0.0
C161 C 0.22786 0.64513 0.46174 0.0
N162 N 0.14178 0.55688 0.47421 0.0
C163 C 0.09333 0.50251 0.46854 0.0
H164 H 0.67218 0.162 0.7056 0.0
H165 H 0.65243 0.02807 0.71865 0.0
H166 H 0.60754 0.09192 0.79069 0.0
C167 C 0.6622 0.13357 0.72042 0.0
C168 C 0.64004 0.13187 0.74961 0.0
C169 C 0.66632 0.09607 0.70904 0.0
C170 C 0.65039 0.05757 0.72765 0.0
C171 C 0.63023 0.05679 0.7575 0.0
C172 C 0.62458 0.09354 0.76802 0.0
N173 N 0.61257 0.01874 0.77732 0.0
C174 C 0.62215 0.98338 0.77284 0.0
H175 H 0.58062 0.3758 0.05691 0.0
H176 H 0.38889 0.29268 0.01219 0.0
H177 H 0.41761 0.23635 0.08968 0.0
C178 C 0.52918 0.34364 0.05416 0.0
C179 C 0.5034 0.30743 0.07582 0.0
C180 C 0.4892 0.33995 0.03072 0.0
C181 C 0.42253 0.29639 0.02855 0.0
C182 C 0.39715 0.25783 0.04879 0.0
C183 C 0.43782 0.26361 0.07247 0.0
N184 N 0.32969 0.21819 0.0488 0.0
C185 C 0.29442 0.23367 0.05355 0.0
H186 H 0.22239 0.37427 0.06271 0.0
H187 H 0.37503 0.45499 0.13829 0.0
H188 H 0.3832 0.38771 0.13049 0.0
H189 H 0.35153 0.30899 0.10036 0.0
H190 H 0.20196 0.22884 0.02373 0.0
H191 H 0.18658 0.29217 0.03408 0.0
C192 C 0.25683 0.37668 0.07768 0.0
C193 C 0.29851 0.41973 0.10082 0.0
C194 C 0.2614 0.3379 0.07298 0.0
C195 C 0.3433 0.42271 0.11994 0.0
C196 C 0.3477 0.38413 0.11565 0.0
C197 C 0.31466 0.30497 0.08643 0.0
C198 C 0.27712 0.26454 0.06175 0.0
C199 C 0.30762 0.34201 0.09203 0.0
C200 C 0.23046 0.25963 0.04319 0.0
C201 C 0.22216 0.29595 0.04896 0.0
H202 H 0.90879 0.25715 0.46261 0.0
H203 H 0.78615 0.28061 0.50296 0.0
H204 H 0.86841 0.37443 0.50126 0.0
H205 H 0.97579 0.45076 0.48827 0.0
H206 H 0.09858 0.42834 0.44738 0.0
H207 H 1.01629 0.33378 0.44914 0.0
C208 C 0.90036 0.28286 0.47132 0.0
C209 C 0.84109 0.26153 0.48295 0.0
C210 C 0.94794 0.33718 0.46991 0.0
C211 C 0.8309 0.29561 0.49372 0.0
C212 C 0.87806 0.34945 0.49277 0.0
C213 C 0.98411 0.42496 0.47952 0.0
C214 C 1.04273 0.44616 0.46747 0.0
C215 C 0.93662 0.37072 0.48076 0.0
C216 C 1.05347 0.41267 0.4565 0.0
C217 C 1.00653 0.35867 0.45766 0.0
H218 H 0.59222 0.78881 0.79228 0.0
H219 H 0.78962 0.91012 0.83185 0.0
H220 H 0.78737 0.97656 0.81665 0.0
H221 H 0.72701 1.00065 0.79526 0.0
H222 H 0.53047 0.87998 0.75543 0.0
H223 H 0.53512 0.81275 0.76665 0.0
C224 C 0.63517 0.82969 0.79709 0.0
C225 C 0.69068 0.84426 0.81364 0.0
C226 C 0.63377 0.86785 0.78805 0.0
C227 C 0.74563 0.89764 0.81988 0.0
C228 C 0.74463 0.93577 0.81096 0.0
C229 C 0.68586 0.95959 0.78847 0.0
C230 C 0.62872 0.94481 0.77437 0.0
C231 C 0.68868 0.92139 0.79551 0.0
C232 C 0.57512 0.89183 0.76601 0.0
C233 C 0.57767 0.85353 0.77265 0.0
H234 H 0.72363 0.44257 0.1821 0.0
H235 H 0.7626 0.34383 0.14749 0.0
H236 H 0.65814 0.28544 0.11616 0.0
H237 H 0.56793 0.27465 0.0901 0.0
H238 H 0.53136 0.37463 0.12492 0.0
H239 H 0.62184 0.41965 0.16535 0.0
C240 C 0.70839 0.40717 0.1688 0.0
C241 C 0.75175 0.39858 0.16628 0.0
C242 C 0.64893 0.37439 0.15047 0.0
C243 C 0.73082 0.35225 0.14897 0.0
C244 C 0.67116 0.31887 0.131 0.0
C245 C 0.57863 0.30496 0.10737 0.0
C246 C 0.54411 0.32193 0.1047 0.0
C247 C 0.63163 0.33139 0.13013 0.0
C248 C 0.55791 0.36132 0.12682 0.0
C249 C 0.60974 0.3872 0.14974 0.0
H250 H 0.45124 0.92674 0.4733 0.0
H251 H 0.59042 0.91553 0.44305 0.0
H252 H 0.50713 0.82023 0.43418 0.0
H253 H 0.39388 0.73981 0.43388 0.0
H254 H 0.25561 0.7494 0.46792 0.0
H255 H 0.33887 0.84507 0.47699 0.0
C256 C 0.46293 0.90323 0.46462 0.0
C257 C 0.52653 0.92799 0.45828 0.0
C258 C 0.41503 0.84812 0.46062 0.0
C259 C 0.54166 0.89725 0.4478 0.0
C260 C 0.49409 0.84278 0.44281 0.0
C261 C 0.38235 0.76294 0.4437 0.0
C262 C 0.31881 0.73767 0.45033 0.0
C263 C 0.43061 0.81776 0.44908 0.0
C264 C 0.30434 0.76797 0.46299 0.0
C265 C 0.35184 0.82267 0.46789 0.0
H266 H 0.62622 0.30815 0.78458 0.0
H267 H 0.43381 0.1738 0.80163 0.0
H268 H 0.45738 0.11713 0.78832 0.0
H269 H 0.53129 0.10503 0.77054 0.0
H270 H 0.72145 0.23788 0.75055 0.0
H271 H 0.69969 0.29577 0.76573 0.0
C272 C 0.58914 0.26642 0.78506 0.0
C273 C 0.52837 0.24547 0.79427 0.0
C274 C 0.60256 0.23375 0.77678 0.0
C275 C 0.48138 0.19129 0.79521 0.0
C276 C 0.49462 0.1587 0.78738 0.0
C277 C 0.56816 0.14676 0.76984 0.0
C278 C 0.62803 0.16733 0.75973 0.0
C279 C 0.55496 0.17948 0.77812 0.0
C280 C 0.67499 0.22126 0.75827 0.0
C281 C 0.66257 0.25428 0.76696 0.0
H282 H 0.76973 0.89119 0.56985 0.0
H283 H 0.74536 0.86254 0.46892 0.0
H284 H 0.72465 0.78147 0.47131 0.0
H285 H 0.71382 0.71858 0.50176 0.0
H286 H 0.73893 0.74584 0.60242 0.0
H287 H 0.7595 0.82777 0.60063 0.0
C288 C 0.76042 0.8674 0.54841 0.0
C289 C 0.75882 0.88296 0.51923 0.0
C290 C 0.74865 0.8206 0.54993 0.0
C291 C 0.74593 0.85126 0.49167 0.0
C292 C 0.73439 0.80496 0.49299 0.0
C293 C 0.72371 0.74258 0.52327 0.0
C294 C 0.72487 0.72674 0.55215 0.0
C295 C 0.73548 0.78921 0.52193 0.0
C296 C 0.73777 0.75766 0.57995 0.0
C297 C 0.74956 0.80436 0.57887 0.0
H298 H 0.71615 0.47012 0.82773 0.0
H299 H 0.80836 0.61621 0.88549 0.0
H300 H 0.90429 0.62754 0.89554 0.0
H301 H 0.96489 0.59757 0.88955 0.0
H302 H 0.87928 0.4537 0.83147 0.0
H303 H 0.78139 0.44123 0.81981 0.0
C304 C 0.75705 0.50445 0.84257 0.0
C305 C 0.75281 0.54214 0.85578 0.0
C306 C 0.81489 0.51172 0.84818 0.0
C307 C 0.80813 0.58625 0.87466 0.0
C308 C 0.86398 0.59297 0.88057 0.0
C309 C 0.92519 0.56329 0.87417 0.0
C310 C 0.93131 0.52667 0.86167 0.0
C311 C 0.86835 0.55622 0.8676 0.0
C312 C 0.87805 0.48323 0.84145 0.0
C313 C 0.82113 0.4758 0.83497 0.0
H314 H 0.37003 0.7631 0.13878 0.0
H315 H 0.25495 0.77275 0.19972 0.0
H316 H 0.34194 0.86656 0.21147 0.0
H317 H 0.45314 0.94549 0.20745 0.0
H318 H 0.56975 0.93803 0.14682 0.0
H319 H 0.47976 0.84444 0.13156 0.0
C320 C 0.36377 0.78576 0.15442 0.0
C321 C 0.30582 0.76035 0.16851 0.0
C322 C 0.41442 0.84034 0.16118 0.0
C323 C 0.29875 0.79074 0.18856 0.0
C324 C 0.34866 0.84464 0.19538 0.0
C325 C 0.45868 0.92344 0.19069 0.0
C326 C 0.51824 0.94865 0.17848 0.0
C327 C 0.40702 0.86972 0.18228 0.0
C328 C 0.52435 0.91968 0.15645 0.0
C329 C 0.47301 0.86604 0.14792 0.0
H330 H 0.69186 0.34466 0.52762 0.0
H331 H 0.55412 0.31176 0.45528 0.0
H332 H 0.56675 0.38626 0.47841 0.0
H333 H 0.61512 0.45961 0.51972 0.0
H334 H 0.75267 0.49278 0.5923 0.0
H335 H 0.74157 0.41915 0.5687 0.0
C336 C 0.66521 0.35421 0.51672 0.0
C337 C 0.62218 0.32271 0.48971 0.0
C338 C 0.67229 0.3969 0.53033 0.0
C339 C 0.58717 0.3351 0.47619 0.0
C340 C 0.59447 0.37776 0.48937 0.0
C341 C 0.64322 0.4511 0.53022 0.0
C342 C 0.68485 0.48187 0.55772 0.0
C343 C 0.63661 0.40875 0.51652 0.0
C344 C 0.71985 0.46953 0.57132 0.0
C345 C 0.7138 0.42759 0.55772 0.0
H346 H 0.34638 0.4614 0.85855 0.0
H347 H 0.48317 0.61511 0.83018 0.0
H348 H 0.4034 0.62552 0.83153 0.0
H349 H 0.29276 0.59184 0.84027 0.0
H350 H 0.15588 0.43933 0.86965 0.0
H351 H 0.2358 0.42837 0.86853 0.0
C352 C 0.35903 0.49722 0.85252 0.0
C353 C 0.42248 0.53724 0.84405 0.0
C354 C 0.31196 0.50361 0.85371 0.0
C355 C 0.43605 0.58321 0.83675 0.0
C356 C 0.38985 0.58938 0.83755 0.0
C357 C 0.28034 0.5563 0.84677 0.0
C358 C 0.21719 0.51668 0.85542 0.0
C359 C 0.32742 0.55007 0.84602 0.0
C360 C 0.20332 0.47094 0.86324 0.0
C361 C 0.24947 0.46451 0.86244 0.0
H362 H 0.95305 0.4282 0.18286 0.0
H363 H 1.06988 0.40344 0.13626 0.0
H364 H 0.98647 0.30935 0.1375 0.0
H365 H 0.8785 0.23329 0.15061 0.0
H366 H 0.7618 0.25821 0.19659 0.0
H367 H 0.84675 0.35291 0.19684 0.0
C368 C 0.96052 0.40238 0.17295 0.0
C369 C 1.01798 0.42326 0.15935 0.0
C370 C 0.91224 0.34819 0.17375 0.0
C371 C 1.02638 0.38879 0.14681 0.0
C372 C 0.97861 0.33484 0.14753 0.0
C373 C 0.8723 0.25969 0.16105 0.0
C374 C 0.81458 0.2392 0.17393 0.0
C375 C 0.92125 0.31404 0.16084 0.0
C376 C 0.8063 0.27337 0.18694 0.0
C377 C 0.85473 0.32742 0.18693 0.0
H378 H 0.11821 0.64063 0.06125 0.0
H379 H 0.1203 0.51658 0.07154 0.0
H380 H 0.10662 0.49605 0.01451 0.0
H381 H 1.0871 0.51004 0.96147 0.0
H382 H 1.08452 0.63413 0.95212 0.0
H383 H 0.10553 0.65799 0.00874 0.0
C384 C 0.11605 0.60929 0.051 0.0
C385 C 0.1198 0.57996 0.07061 0.0
C386 C 0.10782 0.59755 0.01824 0.0
C387 C 0.11735 0.53968 0.05696 0.0
C388 C 0.10942 0.52788 0.02433 0.0
C389 C 0.09215 0.54278 0.97185 0.0
C390 C 1.0836 0.56992 0.95254 0.0
C391 C 0.10371 0.5561 0.00468 0.0
C392 C 1.08995 0.61211 0.96642 0.0
C393 C 0.10205 0.62585 -0.00117 0.0
H394 H 0.70029 0.13326 0.38429 0.0
H395 H 0.65483 0.98508 0.38062 0.0
H396 H 0.63981 0.97406 0.32366 0.0
H397 H 0.64018 1.00609 0.27502 0.0
H398 H 0.68364 0.15318 0.27696 0.0
H399 H 0.70076 0.16589 0.33438 0.0
C400 C 0.68678 0.09853 0.37093 0.0
C401 C 0.67863 0.05998 0.38662 0.0
C402 C 0.6787 0.09256 0.33793 0.0
C403 C 0.66151 0.01531 0.36909 0.0
C404 C 0.65303 1.009 0.33651 0.0
C405 C 0.65294 0.04083 0.28796 0.0
C406 C 0.65987 0.07834 0.27171 0.0
C407 C 0.66165 0.04736 0.32072 0.0
C408 C 0.6782 0.12378 0.28887 0.0
C409 C 0.68747 0.13082 0.3217 0.0
H410 H 0.68714 0.56675 0.76337 0.0
H411 H 0.51958 0.54969 0.74275 0.0
H412 H 0.54641 0.56786 0.6891 0.0
H413 H 0.60999 0.57781 0.64635 0.0
H414 H 0.77132 0.58614 0.66554 0.0
H415 H 0.75507 0.58247 0.72121 0.0
C416 C 0.65757 0.56834 0.74728 0.0
C417 C 0.6017 0.55724 0.7569 0.0
C418 C 0.67178 0.57652 0.71604 0.0
C419 C 0.56292 0.55831 0.73576 0.0
C420 C 0.57807 0.56843 0.70507 0.0
C421 C 0.64235 0.57999 0.6629 0.0
C422 C 0.69181 0.58234 0.65196 0.0
C423 C 0.63126 0.57601 0.69467 0.0
C424 C 0.73284 0.58423 0.67349 0.0
C425 C 0.72347 0.58204 0.70529 0.0
H426 H 0.7377 0.14218 0.57172 0.0
H427 H 0.54151 0.9974 0.55224 0.0
H428 H 0.53692 0.98483 0.60747 0.0
H429 H 0.58384 0.02038 0.66205 0.0
H430 H 0.77558 0.16935 0.68255 0.0
H431 H 0.7876 0.17483 0.62645 0.0
C432 C 0.69447 0.10755 0.57962 0.0
C433 C 0.63985 0.07095 0.55816 0.0
C434 C 0.69145 0.1015 0.61165 0.0
C435 C 0.5839 0.02632 0.56851 0.0
C436 C 0.58125 0.01909 0.60005 0.0
C437 C 0.62884 0.05319 0.6541 0.0
C438 C 0.67907 0.09409 0.67612 0.0
C439 C 0.63404 0.05712 0.62195 0.0
C440 C 0.73667 0.13722 0.6658 0.0
C441 C 0.74327 0.1405 0.6338 0.0
H442 H 0.64248 0.54028 0.9577 0.0
H443 H 0.46465 0.43828 0.89707 0.0
H444 H 0.42196 0.36863 0.92951 0.0
H445 H 0.43681 0.33564 0.97342 0.0
H446 H 0.60372 0.44402 0.04132 0.0
H447 H 0.64926 0.5109 0.00718 0.0
C448 C 0.5943 0.50288 0.95177 0.0
C449 C 0.55791 0.49367 0.92428 0.0
C450 C 0.56832 0.46362 0.97156 0.0
C451 C 0.49472 0.44569 0.91744 0.0
C452 C 0.47001 0.40583 0.93608 0.0
C453 C 0.48233 0.37386 0.98165 0.0
C454 C 0.51646 0.38277 0.01017 0.0
C455 C 0.50671 0.41416 0.96303 0.0
C456 C 0.57641 0.43355 0.01913 0.0
C457 C 0.6026 0.47288 -0.00025 0.0
H458 H 0.18708 0.53275 0.25602 0.0
H459 H 0.18795 0.65802 0.24369 0.0
H460 H 0.18565 0.67172 0.29982 0.0
H461 H 0.19019 0.65208 0.35263 0.0
H462 H 0.19074 0.52809 0.36627 0.0
H463 H 0.18421 0.50901 0.30941 0.0
C464 C 0.18643 0.56281 0.2657 0.0
C465 C 0.18839 0.59472 0.24583 0.0
C466 C 0.18518 0.57058 0.29816 0.0
C467 C 0.18689 0.6332 0.25853 0.0
C468 C 0.18555 0.64106 0.29062 0.0
C469 C 0.18853 0.62067 0.34311 0.0
C470 C 0.19173 0.59192 0.36352 0.0
C471 C 0.18573 0.61059 0.31067 0.0
C472 C 0.18826 0.55069 0.35096 0.0
C473 C 0.18504 0.54009 0.31851 0.0
loop_
_geom_bond_atom_site_label_1
_geom_bond_atom_site_label_2
_geom_bond_distance
_geom_bond_site_symmetry_2
_ccdc_geom_bond_type
Ho0 C3 2.811 . S
Ho0 O20 2.322 . S
Ho0 O22 2.378 . S
Ho0 O23 2.524 . S
Ho0 O24 2.381 . S
Ho0 O25 2.669 . S
Ho0 O27 2.346 1_455 S
Ho0 O31 2.305 . S
Ho1 C12 2.811 1_455 S
Ho1 O21 2.346 . S
Ho1 O25 2.305 . S
Ho1 O26 2.322 1_455 S
Ho1 O28 2.378 1_455 S
Ho1 O29 2.524 1_455 S
Ho1 O30 2.381 . S
Ho1 O31 2.669 . S
C2 O20 1.259 . S
C2 O21 1.268 . S
C3 Ho0 2.811 . S
C3 C4 1.488 . S
C3 O22 1.215 . S
C3 O23 1.289 . S
C4 C3 1.488 . S
C4 C5 1.348 . S
C4 C9 1.413 . S
C5 C4 1.348 . S
C5 C6 1.442 . S
C5 H32 0.930 . S
C6 C5 1.442 . S
C6 C7 1.381 . S
C6 H33 0.931 . S
C7 C6 1.381 . S
C7 C8 1.321 . S
C8 C7 1.321 . S
C8 C9 1.403 . S
C8 H34 0.934 . S
C9 C4 1.413 . S
C9 C8 1.403 . S
C9 H35 0.930 . S
C10 O24 1.275 . S
C10 O25 1.256 . S
C11 O26 1.259 . S
C11 O27 1.268 . S
C12 Ho1 2.811 1_655 S
C12 C13 1.488 . S
C12 O28 1.215 . S
C12 O29 1.289 . S
C13 C12 1.488 . S
C13 C14 1.348 . S
C13 C18 1.413 . S
C14 C13 1.348 . S
C14 C15 1.442 . S
C14 H36 0.930 . S
C15 C14 1.442 . S
C15 C16 1.381 . S
C15 H37 0.931 . S
C16 C15 1.381 . S
C16 C17 1.321 . S
C17 C16 1.321 . S
C17 C18 1.403 . S
C17 H38 0.934 . S
C18 C13 1.413 . S
C18 C17 1.403 . S
C18 H39 0.930 . S
C19 O30 1.275 . S
C19 O31 1.256 . S
O20 Ho0 2.322 . S
O20 C2 1.259 . S
O21 Ho1 2.346 . S
O21 C2 1.268 . S
O22 Ho0 2.378 . S
O22 C3 1.215 . S
O23 Ho0 2.524 . S
O23 C3 1.289 . S
O24 Ho0 2.381 . S
O24 C10 1.275 . S
O25 Ho0 2.669 . S
O25 Ho1 2.305 . S
O25 C10 1.256 . S
O26 Ho1 2.322 1_655 S
O26 C11 1.259 . S
O27 Ho0 2.346 1_655 S
O27 C11 1.268 . S
O28 Ho1 2.378 1_655 S
O28 C12 1.215 . S
O29 Ho1 2.524 1_655 S
O29 C12 1.289 . S
O30 Ho1 2.381 . S
O30 C19 1.275 . S
O31 Ho0 2.305 . S
O31 Ho1 2.669 . S
O31 C19 1.256 . S
H32 C5 0.930 . S
H33 C6 0.931 . S
H34 C8 0.934 . S
H35 C9 0.930 . S
H36 C14 0.930 . S
H37 C15 0.931 . S
H38 C17 0.934 . S
H39 C18 0.930 . S
Ho40 C43 2.811 1_545 S
Ho40 O60 2.322 1_545 S
Ho40 O62 2.378 1_545 S
Ho40 O63 2.524 1_545 S
Ho40 O64 2.381 . S
Ho40 O65 2.669 . S
Ho40 O67 2.346 . S
Ho40 O71 2.305 . S
Ho41 C52 2.811 . S
Ho41 O61 2.346 1_545 S
Ho41 O65 2.305 . S
Ho41 O66 2.322 . S
Ho41 O68 2.378 . S
Ho41 O69 2.524 . S
Ho41 O70 2.381 . S
Ho41 O71 2.669 . S
C42 O60 1.259 . S
C42 O61 1.268 . S
C43 Ho40 2.811 1_565 S
C43 C44 1.488 . S
C43 O62 1.215 . S
C43 O63 1.289 . S
C44 C43 1.488 . S
C44 C45 1.348 . S
C44 C49 1.413 . S
C45 C44 1.348 . S
C45 C46 1.442 . S
C45 H72 0.930 . S
C46 C45 1.442 . S
C46 C47 1.381 . S
C46 H73 0.931 . S
C47 C46 1.381 . S
C47 C48 1.321 . S
C48 C47 1.321 . S
C48 C49 1.403 . S
C48 H74 0.934 . S
C49 C44 1.413 . S
C49 C48 1.403 . S
C49 H75 0.930 . S
C50 O64 1.275 . S
C50 O65 1.256 . S
C51 O66 1.259 . S
C51 O67 1.268 . S
C52 Ho41 2.811 . S
C52 C53 1.488 . S
C52 O68 1.215 . S
C52 O69 1.289 . S
C53 C52 1.488 . S
C53 C54 1.348 . S
C53 C58 1.413 . S
C54 C53 1.348 . S
C54 C55 1.442 . S
C54 H76 0.930 . S
C55 C54 1.442 . S
C55 C56 1.381 . S
C55 H77 0.931 . S
C56 C55 1.381 . S
C56 C57 1.321 . S
C57 C56 1.321 . S
C57 C58 1.403 . S
C57 H78 0.934 . S
C58 C53 1.413 . S
C58 C57 1.403 . S
C58 H79 0.930 . S
C59 O70 1.275 . S
C59 O71 1.256 . S
O60 Ho40 2.322 1_565 S
O60 C42 1.259 . S
O61 Ho41 2.346 1_565 S
O61 C42 1.268 . S
O62 Ho40 2.378 1_565 S
O62 C43 1.215 . S
O63 Ho40 2.524 1_565 S
O63 C43 1.289 . S
O64 Ho40 2.381 . S
O64 C50 1.275 . S
O65 Ho40 2.669 . S
O65 Ho41 2.305 . S
O65 C50 1.256 . S
O66 Ho41 2.322 . S
O66 C51 1.259 . S
O67 Ho40 2.346 . S
O67 C51 1.268 . S
O68 Ho41 2.378 . S
O68 C52 1.215 . S
O69 Ho41 2.524 . S
O69 C52 1.289 . S
O70 Ho41 2.381 . S
O70 C59 1.275 . S
O71 Ho40 2.305 . S
O71 Ho41 2.669 . S
O71 C59 1.256 . S
H72 C45 0.930 . S
H73 C46 0.931 . S
H74 C48 0.934 . S
H75 C49 0.930 . S
H76 C54 0.930 . S
H77 C55 0.931 . S
H78 C57 0.934 . S
H79 C58 0.930 . S
Ho80 C83 2.811 . S
Ho80 O100 2.322 . S
Ho80 O102 2.378 . S
Ho80 O103 2.524 . S
Ho80 O104 2.381 . S
Ho80 O105 2.669 . S
Ho80 O107 2.346 . S
Ho80 O111 2.305 . S
Ho81 C92 2.811 . S
Ho81 O101 2.346 . S
Ho81 O105 2.305 . S
Ho81 O106 2.322 . S
Ho81 O108 2.378 . S
Ho81 O109 2.524 . S
Ho81 O110 2.381 . S
Ho81 O111 2.669 . S
C82 O100 1.259 . S
C82 O101 1.268 . S
C83 Ho80 2.811 . S
C83 C84 1.488 . S
C83 O102 1.215 . S
C83 O103 1.289 . S
C84 C83 1.488 . S
C84 C85 1.348 . S
C84 C89 1.413 . S
C85 C84 1.348 . S
C85 C86 1.442 . S
C85 H112 0.930 . S
C86 C85 1.442 . S
C86 C87 1.381 . S
C86 H113 0.931 . S
C87 C86 1.381 . S
C87 C88 1.321 . S
C88 C87 1.321 . S
C88 C89 1.403 . S
C88 H114 0.934 . S
C89 C84 1.413 . S
C89 C88 1.403 . S
C89 H115 0.930 . S
C90 O104 1.275 . S
C90 O105 1.256 . S
C91 O106 1.259 . S
C91 O107 1.268 . S
C92 Ho81 2.811 . S
C92 C93 1.488 . S
C92 O108 1.215 . S
C92 O109 1.289 . S
C93 C92 1.488 . S
C93 C94 1.348 . S
C93 C98 1.413 . S
C94 C93 1.348 . S
C94 C95 1.442 . S
C94 H116 0.930 . S
C95 C94 1.442 . S
C95 C96 1.381 . S
C95 H117 0.931 . S
C96 C95 1.381 . S
C96 C97 1.321 . S
C97 C96 1.321 . S
C97 C98 1.403 . S
C97 H118 0.934 . S
C98 C93 1.413 . S
C98 C97 1.403 . S
C98 H119 0.930 . S
C99 O110 1.275 . S
C99 O111 1.256 . S
O100 Ho80 2.322 . S
O100 C82 1.259 . S
O101 Ho81 2.346 . S
O101 C82 1.268 . S
O102 Ho80 2.378 . S
O102 C83 1.215 . S
O103 Ho80 2.524 . S
O103 C83 1.289 . S
O104 Ho80 2.381 . S
O104 C90 1.275 . S
O105 Ho80 2.669 . S
O105 Ho81 2.305 . S
O105 C90 1.256 . S
O106 Ho81 2.322 . S
O106 C91 1.259 . S
O107 Ho80 2.346 . S
O107 C91 1.268 . S
O108 Ho81 2.378 . S
O108 C92 1.215 . S
O109 Ho81 2.524 . S
O109 C92 1.289 . S
O110 Ho81 2.381 . S
O110 C99 1.275 . S
O111 Ho80 2.305 . S
O111 Ho81 2.669 . S
O111 C99 1.256 . S
H112 C85 0.930 . S
H113 C86 0.931 . S
H114 C88 0.934 . S
H115 C89 0.930 . S
H116 C94 0.930 . S
H117 C95 0.931 . S
H118 C97 0.934 . S
H119 C98 0.930 . S
H120 C123 0.929 . S
H121 C126 0.929 . S
H122 C128 0.930 . S
C123 H120 0.929 . S
C123 C124 1.398 . S
C123 C125 1.396 1_565 S
C124 C123 1.398 . S
C124 C128 1.407 1_565 S
C125 C123 1.396 1_545 S
C125 C126 1.394 . S
C126 H121 0.929 . S
C126 C125 1.394 . S
C126 C127 1.382 . S
C127 C126 1.382 . S
C127 C128 1.392 . S
C127 N129 1.420 . S
C128 H122 0.930 . S
C128 C124 1.407 1_545 S
C128 C127 1.392 . S
N129 C127 1.420 . S
N129 C130 1.244 . S
C130 N129 1.244 . S
H131 C134 0.929 . S
H132 C137 0.929 . S
H133 C139 0.930 . S
C134 H131 0.929 . S
C134 C135 1.398 . S
C134 C136 1.396 . S
C135 C134 1.398 . S
C135 C139 1.407 . S
C136 C134 1.396 . S
C136 C137 1.394 . S
C137 H132 0.929 . S
C137 C136 1.394 . S
C137 C138 1.382 . S
C138 C137 1.382 . S
C138 C139 1.392 . S
C138 N140 1.420 . S
C139 H133 0.930 . S
C139 C135 1.407 . S
C139 C138 1.392 . S
N140 C138 1.420 . S
N140 C141 1.244 . S
C141 N140 1.244 . S
H142 C145 0.929 1_655 S
H143 C148 0.929 . S
H144 C150 0.930 . S
C145 H142 0.929 1_455 S
C145 C146 1.398 . S
C145 C147 1.396 . S
C146 C145 1.398 . S
C146 C150 1.407 . S
C147 C145 1.396 . S
C147 C148 1.394 . S
C148 H143 0.929 . S
C148 C147 1.394 . S
C148 C149 1.382 . S
C149 C148 1.382 . S
C149 C150 1.392 . S
C149 N151 1.420 . S
C150 H144 0.930 . S
C150 C146 1.407 . S
C150 C149 1.392 . S
N151 C149 1.420 . S
N151 C152 1.244 . S
C152 N151 1.244 . S
H153 C156 0.929 . S
H154 C159 0.929 . S
H155 C161 0.930 . S
C156 H153 0.929 . S
C156 C157 1.398 . S
C156 C158 1.396 . S
C157 C156 1.398 . S
C157 C161 1.407 . S
C158 C156 1.396 . S
C158 C159 1.394 1_455 S
C159 H154 0.929 . S
C159 C158 1.394 1_655 S
C159 C160 1.382 . S
C160 C159 1.382 . S
C160 C161 1.392 1_655 S
C160 N162 1.420 . S
C161 H155 0.930 . S
C161 C157 1.407 . S
C161 C160 1.392 1_455 S
N162 C160 1.420 . S
N162 C163 1.244 . S
C163 N162 1.244 . S
H164 C167 0.929 . S
H165 C170 0.929 1_565 S
H166 C172 0.930 . S
C167 H164 0.929 . S
C167 C168 1.398 . S
C167 C169 1.396 . S
C168 C167 1.398 . S
C168 C172 1.407 . S
C169 C167 1.396 . S
C169 C170 1.394 . S
C170 H165 0.929 1_545 S
C170 C169 1.394 . S
C170 C171 1.382 . S
C171 C170 1.382 . S
C171 C172 1.392 . S
C171 N173 1.420 1_545 S
C172 H166 0.930 . S
C172 C168 1.407 . S
C172 C171 1.392 . S
N173 C171 1.420 1_565 S
N173 C174 1.244 . S
C174 N173 1.244 . S
H175 C178 0.929 . S
H176 C181 0.929 . S
H177 C183 0.930 . S
C178 H175 0.929 . S
C178 C179 1.398 . S
C178 C180 1.396 . S
C179 C178 1.398 . S
C179 C183 1.407 . S
C180 C178 1.396 . S
C180 C181 1.394 . S
C181 H176 0.929 . S
C181 C180 1.394 . S
C181 C182 1.382 . S
C182 C181 1.382 . S
C182 C183 1.392 . S
C182 N184 1.420 . S
C183 H177 0.930 . S
C183 C179 1.407 . S
C183 C182 1.392 . S
N184 C182 1.420 . S
N184 C185 1.244 . S
C185 N184 1.244 . S
H186 C192 0.930 . S
H187 C195 0.930 . S
H188 C196 0.930 . S
H189 C197 0.930 . S
H190 C200 0.930 . S
H191 C201 0.930 . S
C192 H186 0.930 . S
C192 C193 1.355 . S
C192 C194 1.415 . S
C193 C192 1.355 . S
C193 C195 1.419 . S
C194 C192 1.415 . S
C194 C199 1.425 . S
C194 C201 1.409 . S
C195 H187 0.930 . S
C195 C193 1.419 . S
C195 C196 1.362 . S
C196 H188 0.930 . S
C196 C195 1.362 . S
C196 C199 1.409 . S
C197 H189 0.930 . S
C197 C198 1.355 . S
C197 C199 1.415 . S
C198 C197 1.355 . S
C198 C200 1.419 . S
C199 C194 1.425 . S
C199 C196 1.409 . S
C199 C197 1.415 . S
C200 H190 0.930 . S
C200 C198 1.419 . S
C200 C201 1.362 . S
C201 H191 0.930 . S
C201 C194 1.409 . S
C201 C200 1.362 . S
H202 C208 0.930 . S
H203 C211 0.930 . S
H204 C212 0.930 . S
H205 C213 0.930 . S
H206 C216 0.930 . S
H207 C217 0.930 . S
C208 H202 0.930 . S
C208 C209 1.355 . S
C208 C210 1.415 . S
C209 C208 1.355 . S
C209 C211 1.419 . S
C210 C208 1.415 . S
C210 C215 1.425 . S
C210 C217 1.409 . S
C211 H203 0.930 . S
C211 C209 1.419 . S
C211 C212 1.362 . S
C212 H204 0.930 . S
C212 C211 1.362 . S
C212 C215 1.409 . S
C213 H205 0.930 . S
C213 C214 1.355 . S
C213 C215 1.415 . S
C214 C213 1.355 . S
C214 C216 1.419 . S
C215 C210 1.425 . S
C215 C212 1.409 . S
C215 C213 1.415 . S
C216 H206 0.930 . S
C216 C214 1.419 . S
C216 C217 1.362 . S
C217 H207 0.930 . S
C217 C210 1.409 . S
C217 C216 1.362 . S
H218 C224 0.930 . S
H219 C227 0.930 . S
H220 C228 0.930 . S
H221 C229 0.930 . S
H222 C232 0.930 . S
H223 C233 0.930 . S
C224 H218 0.930 . S
C224 C225 1.355 . S
C224 C226 1.415 . S
C225 C224 1.355 . S
C225 C227 1.419 . S
C226 C224 1.415 . S
C226 C231 1.425 . S
C226 C233 1.409 . S
C227 H219 0.930 . S
C227 C225 1.419 . S
C227 C228 1.362 . S
C228 H220 0.930 . S
C228 C227 1.362 . S
C228 C231 1.409 . S
C229 H221 0.930 . S
C229 C230 1.355 . S
C229 C231 1.415 . S
C230 C229 1.355 . S
C230 C232 1.419 . S
C231 C226 1.425 . S
C231 C228 1.409 . S
C231 C229 1.415 . S
C232 H222 0.930 . S
C232 C230 1.419 . S
C232 C233 1.362 . S
C233 H223 0.930 . S
C233 C226 1.409 . S
C233 C232 1.362 . S
H234 C240 0.930 . S
H235 C243 0.930 . S
H236 C244 0.930 . S
H237 C245 0.930 . S
H238 C248 0.930 . S
H239 C249 0.930 . S
C240 H234 0.930 . S
C240 C241 1.355 . S
C240 C242 1.415 . S
C241 C240 1.355 . S
C241 C243 1.419 . S
C242 C240 1.415 . S
C242 C247 1.425 . S
C242 C249 1.409 . S
C243 H235 0.930 . S
C243 C241 1.419 . S
C243 C244 1.362 . S
C244 H236 0.930 . S
C244 C243 1.362 . S
C244 C247 1.409 . S
C245 H237 0.930 . S
C245 C246 1.355 . S
C245 C247 1.415 . S
C246 C245 1.355 . S
C246 C248 1.419 . S
C247 C242 1.425 . S
C247 C244 1.409 . S
C247 C245 1.415 . S
C248 H238 0.930 . S
C248 C246 1.419 . S
C248 C249 1.362 . S
C249 H239 0.930 . S
C249 C242 1.409 . S
C249 C248 1.362 . S
H250 C256 0.930 . S
H251 C259 0.930 . S
H252 C260 0.930 . S
H253 C261 0.930 . S
H254 C264 0.930 . S
H255 C265 0.930 . S
C256 H250 0.930 . S
C256 C257 1.355 . S
C256 C258 1.415 . S
C257 C256 1.355 . S
C257 C259 1.419 . S
C258 C256 1.415 . S
C258 C263 1.425 . S
C258 C265 1.409 . S
C259 H251 0.930 . S
C259 C257 1.419 . S
C259 C260 1.362 . S
C260 H252 0.930 . S
C260 C259 1.362 . S
C260 C263 1.409 . S
C261 H253 0.930 . S
C261 C262 1.355 . S
C261 C263 1.415 . S
C262 C261 1.355 . S
C262 C264 1.419 . S
C263 C258 1.425 . S
C263 C260 1.409 . S
C263 C261 1.415 . S
C264 H254 0.930 . S
C264 C262 1.419 . S
C264 C265 1.362 . S
C265 H255 0.930 . S
C265 C258 1.409 . S
C265 C264 1.362 . S
H266 C272 0.930 . S
H267 C275 0.930 . S
H268 C276 0.930 . S
H269 C277 0.930 . S
H270 C280 0.930 . S
H271 C281 0.930 . S
C272 H266 0.930 . S
C272 C273 1.355 . S
C272 C274 1.415 . S
C273 C272 1.355 . S
C273 C275 1.419 . S
C274 C272 1.415 . S
C274 C279 1.425 . S
C274 C281 1.409 . S
C275 H267 0.930 . S
C275 C273 1.419 . S
C275 C276 1.362 . S
C276 H268 0.930 . S
C276 C275 1.362 . S
C276 C279 1.409 . S
C277 H269 0.930 . S
C277 C278 1.355 . S
C277 C279 1.415 . S
C278 C277 1.355 . S
C278 C280 1.419 . S
C279 C274 1.425 . S
C279 C276 1.409 . S
C279 C277 1.415 . S
C280 H270 0.930 . S
C280 C278 1.419 . S
C280 C281 1.362 . S
C281 H271 0.930 . S
C281 C274 1.409 . S
C281 C280 1.362 . S
H282 C288 0.930 . S
H283 C291 0.930 . S
H284 C292 0.930 . S
H285 C293 0.930 . S
H286 C296 0.930 . S
H287 C297 0.930 . S
C288 H282 0.930 . S
C288 C289 1.355 . S
C288 C290 1.415 . S
C289 C288 1.355 . S
C289 C291 1.419 . S
C290 C288 1.415 . S
C290 C295 1.425 . S
C290 C297 1.409 . S
C291 H283 0.930 . S
C291 C289 1.419 . S
C291 C292 1.362 . S
C292 H284 0.930 . S
C292 C291 1.362 . S
C292 C295 1.409 . S
C293 H285 0.930 . S
C293 C294 1.355 . S
C293 C295 1.415 . S
C294 C293 1.355 . S
C294 C296 1.419 . S
C295 C290 1.425 . S
C295 C292 1.409 . S
C295 C293 1.415 . S
C296 H286 0.930 . S
C296 C294 1.419 . S
C296 C297 1.362 . S
C297 H287 0.930 . S
C297 C290 1.409 . S
C297 C296 1.362 . S
H298 C304 0.930 . S
H299 C307 0.930 . S
H300 C308 0.930 . S
H301 C309 0.930 . S
H302 C312 0.930 . S
H303 C313 0.930 . S
C304 H298 0.930 . S
C304 C305 1.355 . S
C304 C306 1.415 . S
C305 C304 1.355 . S
C305 C307 1.419 . S
C306 C304 1.415 . S
C306 C311 1.425 . S
C306 C313 1.409 . S
C307 H299 0.930 . S
C307 C305 1.419 . S
C307 C308 1.362 . S
C308 H300 0.930 . S
C308 C307 1.362 . S
C308 C311 1.409 . S
C309 H301 0.930 . S
C309 C310 1.355 . S
C309 C311 1.415 . S
C310 C309 1.355 . S
C310 C312 1.419 . S
C311 C306 1.425 . S
C311 C308 1.409 . S
C311 C309 1.415 . S
C312 H302 0.930 . S
C312 C310 1.419 . S
C312 C313 1.362 . S
C313 H303 0.930 . S
C313 C306 1.409 . S
C313 C312 1.362 . S
H314 C320 0.930 . S
H315 C323 0.930 . S
H316 C324 0.930 . S
H317 C325 0.930 . S
H318 C328 0.930 . S
H319 C329 0.930 . S
C320 H314 0.930 . S
C320 C321 1.355 . S
C320 C322 1.415 . S
C321 C320 1.355 . S
C321 C323 1.419 . S
C322 C320 1.415 . S
C322 C327 1.425 . S
C322 C329 1.409 . S
C323 H315 0.930 . S
C323 C321 1.419 . S
C323 C324 1.362 . S
C324 H316 0.930 . S
C324 C323 1.362 . S
C324 C327 1.409 . S
C325 H317 0.930 . S
C325 C326 1.355 . S
C325 C327 1.415 . S
C326 C325 1.355 . S
C326 C328 1.419 . S
C327 C322 1.425 . S
C327 C324 1.409 . S
C327 C325 1.415 . S
C328 H318 0.930 . S
C328 C326 1.419 . S
C328 C329 1.362 . S
C329 H319 0.930 . S
C329 C322 1.409 . S
C329 C328 1.362 . S
H330 C336 0.930 . S
H331 C339 0.930 . S
H332 C340 0.930 . S
H333 C341 0.930 . S
H334 C344 0.930 . S
H335 C345 0.930 . S
C336 H330 0.930 . S
C336 C337 1.355 . S
C336 C338 1.415 . S
C337 C336 1.355 . S
C337 C339 1.419 . S
C338 C336 1.415 . S
C338 C343 1.425 . S
C338 C345 1.409 . S
C339 H331 0.930 . S
C339 C337 1.419 . S
C339 C340 1.362 . S
C340 H332 0.930 . S
C340 C339 1.362 . S
C340 C343 1.409 . S
C341 H333 0.930 . S
C341 C342 1.355 . S
C341 C343 1.415 . S
C342 C341 1.355 . S
C342 C344 1.419 . S
C343 C338 1.425 . S
C343 C340 1.409 . S
C343 C341 1.415 . S
C344 H334 0.930 . S
C344 C342 1.419 . S
C344 C345 1.362 . S
C345 H335 0.930 . S
C345 C338 1.409 . S
C345 C344 1.362 . S
H346 C352 0.930 . S
H347 C355 0.930 . S
H348 C356 0.930 . S
H349 C357 0.930 . S
H350 C360 0.930 . S
H351 C361 0.930 . S
C352 H346 0.930 . S
C352 C353 1.355 . S
C352 C354 1.415 . S
C353 C352 1.355 . S
C353 C355 1.419 . S
C354 C352 1.415 . S
C354 C359 1.425 . S
C354 C361 1.409 . S
C355 H347 0.930 . S
C355 C353 1.419 . S
C355 C356 1.362 . S
C356 H348 0.930 . S
C356 C355 1.362 . S
C356 C359 1.409 . S
C357 H349 0.930 . S
C357 C358 1.355 . S
C357 C359 1.415 . S
C358 C357 1.355 . S
C358 C360 1.419 . S
C359 C354 1.425 . S
C359 C356 1.409 . S
C359 C357 1.415 . S
C360 H350 0.930 . S
C360 C358 1.419 . S
C360 C361 1.362 . S
C361 H351 0.930 . S
C361 C354 1.409 . S
C361 C360 1.362 . S
H362 C368 0.930 . S
H363 C371 0.930 . S
H364 C372 0.930 . S
H365 C373 0.930 . S
H366 C376 0.930 . S
H367 C377 0.930 . S
C368 H362 0.930 . S
C368 C369 1.355 . S
C368 C370 1.415 . S
C369 C368 1.355 . S
C369 C371 1.419 . S
C370 C368 1.415 . S
C370 C375 1.425 . S
C370 C377 1.409 . S
C371 H363 0.930 . S
C371 C369 1.419 . S
C371 C372 1.362 . S
C372 H364 0.930 . S
C372 C371 1.362 . S
C372 C375 1.409 . S
C373 H365 0.930 . S
C373 C374 1.355 . S
C373 C375 1.415 . S
C374 C373 1.355 . S
C374 C376 1.419 . S
C375 C370 1.425 . S
C375 C372 1.409 . S
C375 C373 1.415 . S
C376 H366 0.930 . S
C376 C374 1.419 . S
C376 C377 1.362 . S
C377 H367 0.930 . S
C377 C370 1.409 . S
C377 C376 1.362 . S
H378 C384 0.930 . S
H379 C387 0.930 . S
H380 C388 0.930 . S
H381 C389 0.930 . S
H382 C392 0.930 . S
H383 C393 0.938 . S
C384 H378 0.930 . S
C384 C385 1.355 . S
C384 C386 1.415 . S
C385 C384 1.355 . S
C385 C387 1.419 . S
C386 C384 1.415 . S
C386 C391 1.425 . S
C386 C393 1.409 1_554 S
C387 H379 0.930 . S
C387 C385 1.419 . S
C387 C388 1.362 . S
C388 H380 0.930 . S
C388 C387 1.362 . S
C388 C391 1.409 . S
C389 H381 0.930 . S
C389 C390 1.355 . S
C389 C391 1.415 1_556 S
C390 C389 1.355 . S
C390 C392 1.419 . S
C391 C386 1.425 . S
C391 C388 1.409 . S
C391 C389 1.415 1_554 S
C392 H382 0.930 . S
C392 C390 1.419 . S
C392 C393 1.362 . S
C393 H383 0.938 . S
C393 C386 1.409 1_556 S
C393 C392 1.362 . S
H394 C400 0.930 . S
H395 C403 0.930 . S
H396 C404 0.930 . S
H397 C405 0.930 . S
H398 C408 0.930 . S
H399 C409 0.930 1_565 S
C400 H394 0.930 . S
C400 C401 1.355 . S
C400 C402 1.415 . S
C401 C400 1.355 . S
C401 C403 1.419 . S
C402 C400 1.415 . S
C402 C407 1.425 . S
C402 C409 1.409 . S
C403 H395 0.930 . S
C403 C401 1.419 . S
C403 C404 1.362 . S
C404 H396 0.930 . S
C404 C403 1.362 . S
C404 C407 1.409 . S
C405 H397 0.930 . S
C405 C406 1.355 . S
C405 C407 1.415 . S
C406 C405 1.355 . S
C406 C408 1.419 . S
C407 C402 1.425 . S
C407 C404 1.409 . S
C407 C405 1.415 . S
C408 H398 0.930 . S
C408 C406 1.419 . S
C408 C409 1.362 . S
C409 H399 0.930 1_545 S
C409 C402 1.409 . S
C409 C408 1.362 . S
H410 C416 0.930 . S
H411 C419 0.930 . S
H412 C420 0.930 . S
H413 C421 0.930 . S
H414 C424 0.930 . S
H415 C425 0.930 . S
C416 H410 0.930 . S
C416 C417 1.355 . S
C416 C418 1.415 . S
C417 C416 1.355 . S
C417 C419 1.419 . S
C418 C416 1.415 . S
C418 C423 1.425 . S
C418 C425 1.409 . S
C419 H411 0.930 . S
C419 C417 1.419 . S
C419 C420 1.362 . S
C420 H412 0.930 . S
C420 C419 1.362 . S
C420 C423 1.409 . S
C421 H413 0.930 . S
C421 C422 1.355 . S
C421 C423 1.415 . S
C422 C421 1.355 . S
C422 C424 1.419 . S
C423 C418 1.425 . S
C423 C420 1.409 . S
C423 C421 1.415 . S
C424 H414 0.930 . S
C424 C422 1.419 . S
C424 C425 1.362 . S
C425 H415 0.930 . S
C425 C418 1.409 . S
C425 C424 1.362 . S
H426 C432 0.930 . S
H427 C435 0.930 . S
H428 C436 0.930 . S
H429 C437 0.930 . S
H430 C440 0.930 . S
H431 C441 0.930 . S
C432 H426 0.930 . S
C432 C433 1.355 . S
C432 C434 1.415 . S
C433 C432 1.355 . S
C433 C435 1.419 1_545 S
C434 C432 1.415 . S
C434 C439 1.425 . S
C434 C441 1.409 . S
C435 H427 0.930 . S
C435 C433 1.419 1_565 S
C435 C436 1.362 . S
C436 H428 0.930 . S
C436 C435 1.362 . S
C436 C439 1.409 1_565 S
C437 H429 0.930 . S
C437 C438 1.355 1_565 S
C437 C439 1.415 1_565 S
C438 C437 1.355 1_545 S
C438 C440 1.419 . S
C439 C434 1.425 . S
C439 C436 1.409 1_545 S
C439 C437 1.415 1_545 S
C440 H430 0.930 . S
C440 C438 1.419 . S
C440 C441 1.362 . S
C441 H431 0.930 . S
C441 C434 1.409 . S
C441 C440 1.362 . S
H442 C448 0.930 . S
H443 C451 0.930 . S
H444 C452 0.930 . S
H445 C453 0.930 . S
H446 C456 0.930 . S
H447 C457 0.930 . S
C448 H442 0.930 . S
C448 C449 1.355 . S
C448 C450 1.415 . S
C449 C448 1.355 . S
C449 C451 1.419 . S
C450 C448 1.415 . S
C450 C455 1.425 . S
C450 C457 1.409 1_556 S
C451 H443 0.930 . S
C451 C449 1.419 . S
C451 C452 1.362 . S
C452 H444 0.930 . S
C452 C451 1.362 . S
C452 C455 1.409 . S
C453 H445 0.930 . S
C453 C454 1.355 . S
C453 C455 1.415 1_554 S
C454 C453 1.355 . S
C454 C456 1.419 . S
C455 C450 1.425 . S
C455 C452 1.409 . S
C455 C453 1.415 1_556 S
C456 H446 0.930 . S
C456 C454 1.419 . S
C456 C457 1.362 . S
C457 H447 0.930 . S
C457 C450 1.409 1_554 S
C457 C456 1.362 . S
H458 C464 0.934 1_655 S
H459 C467 0.930 . S
H460 C468 0.930 . S
H461 C469 0.930 . S
H462 C472 0.930 . S
H463 C473 0.930 . S
C464 H458 0.934 1_455 S
C464 C465 1.355 . S
C464 C466 1.415 . S
C465 C464 1.355 . S
C465 C467 1.419 . S
C466 C464 1.415 . S
C466 C471 1.425 . S
C466 C473 1.409 1_455 S
C467 H459 0.930 . S
C467 C465 1.419 . S
C467 C468 1.362 . S
C468 H460 0.930 . S
C468 C467 1.362 . S
C468 C471 1.409 . S
C469 H461 0.930 . S
C469 C470 1.355 . S
C469 C471 1.415 . S
C470 C469 1.355 . S
C470 C472 1.419 1_455 S
C471 C466 1.425 . S
C471 C468 1.409 . S
C471 C469 1.415 . S
C472 H462 0.930 . S
C472 C470 1.419 1_655 S
C472 C473 1.362 . S
C473 H463 0.930 . S
C473 C466 1.409 1_655 S
C473 C472 1.362 . S
C193 C7 0.971 . S
C198 C185 0.980 . S
C209 C51 1.944 . S
C214 C163 1.870 . S
C225 C87 1.320 . S
C230 C174 1.351 . S
C241 C16 0.517 . S
C246 C179 0.376 . S
C262 C157 1.871 . S
C257 C42 1.895 . S
C278 C168 1.180 . S
C273 C96 1.217 . S
C289 C47 1.352 . S
C294 C141 1.348 . S
C305 C91 3.053 . S
C310 C146 3.008 1_655 S
C321 C2 1.894 . S
C326 C124 1.908 . S
C342 C135 1.203 . S
C337 C56 1.169 . S
C358 C152 3.011 . S
C353 C82 3.060 . S
C369 C11 1.941 . S
C374 C130 1.904 . S
C390 C147 1.726 . S
C385 C19 1.726 . S
C401 C50 1.362 . S
C406 C125 1.451 . S
C417 C99 1.479 . S
C422 C136 1.537 . S
C438 C169 1.488 . S
C433 C59 1.516 . S
C454 C180 1.234 . S
C449 C90 1.256 . S
C465 C10 1.416 . S
C470 C158 1.427 . S
