# Generated by pormake.
# Topology zzz, (3,6)-cn, num edge types: 1
# Building blocks:
#     Node 0, Type 0, BuildingBlock: PAMTOO_clean_linker_0, # of connection points: 3
#     Node 1, Type 0, BuildingBlock: PAMTOO_clean_linker_0, # of connection points: 3
#     Node 2, Type 0, BuildingBlock: PAMTOO_clean_linker_0, # of connection points: 3
#     Node 3, Type 0, BuildingBlock: PAMTOO_clean_linker_0, # of connection points: 3
#     Node 4, Type 0, BuildingBlock: PAMTOO_clean_linker_0, # of connection points: 3
#     Node 5, Type 0, BuildingBlock: PAMTOO_clean_linker_0, # of connection points: 3
#     Node 6, Type 0, BuildingBlock: PAMTOO_clean_linker_0, # of connection points: 3
#     Node 7, Type 0, BuildingBlock: PAMTOO_clean_linker_0, # of connection points: 3
#     Node 8, Type 1, BuildingBlock: KUMBUR_clean_sbu_1, # of connection points: 6
#     Node 9, Type 1, BuildingBlock: KUMBUR_clean_sbu_1, # of connection points: 6
#     Node 10, Type 1, BuildingBlock: KUMBUR_clean_sbu_1, # of connection points: 6
#     Node 11, Type 1, BuildingBlock: KUMBUR_clean_sbu_1, # of connection points: 6
#     Edge 12, Type (0, 1), BuildingBlock: CIFDUS_clean_linker_0, # of connection points: 2
#     Edge 13, Type (0, 1), BuildingBlock: CIFDUS_clean_linker_0, # of connection points: 2
#     Edge 14, Type (0, 1), BuildingBlock: CIFDUS_clean_linker_0, # of connection points: 2
#     Edge 15, Type (0, 1), BuildingBlock: CIFDUS_clean_linker_0, # of connection points: 2
#     Edge 16, Type (0, 1), BuildingBlock: CIFDUS_clean_linker_0, # of connection points: 2
#     Edge 17, Type (0, 1), BuildingBlock: CIFDUS_clean_linker_0, # of connection points: 2
#     Edge 18, Type (0, 1), BuildingBlock: CIFDUS_clean_linker_0, # of connection points: 2
#     Edge 19, Type (0, 1), BuildingBlock: CIFDUS_clean_linker_0, # of connection points: 2
#     Edge 20, Type (0, 1), BuildingBlock: CIFDUS_clean_linker_0, # of connection points: 2
#     Edge 21, Type (0, 1), BuildingBlock: CIFDUS_clean_linker_0, # of connection points: 2
#     Edge 22, Type (0, 1), BuildingBlock: CIFDUS_clean_linker_0, # of connection points: 2
#     Edge 23, Type (0, 1), BuildingBlock: CIFDUS_clean_linker_0, # of connection points: 2
#     Edge 24, Type (0, 1), BuildingBlock: CIFDUS_clean_linker_0, # of connection points: 2
#     Edge 25, Type (0, 1), BuildingBlock: CIFDUS_clean_linker_0, # of connection points: 2
#     Edge 26, Type (0, 1), BuildingBlock: CIFDUS_clean_linker_0, # of connection points: 2
#     Edge 27, Type (0, 1), BuildingBlock: CIFDUS_clean_linker_0, # of connection points: 2
#     Edge 28, Type (0, 1), BuildingBlock: CIFDUS_clean_linker_0, # of connection points: 2
#     Edge 29, Type (0, 1), BuildingBlock: CIFDUS_clean_linker_0, # of connection points: 2
#     Edge 30, Type (0, 1), BuildingBlock: CIFDUS_clean_linker_0, # of connection points: 2
#     Edge 31, Type (0, 1), BuildingBlock: CIFDUS_clean_linker_0, # of connection points: 2
#     Edge 32, Type (0, 1), BuildingBlock: CIFDUS_clean_linker_0, # of connection points: 2
#     Edge 33, Type (0, 1), BuildingBlock: CIFDUS_clean_linker_0, # of connection points: 2
#     Edge 34, Type (0, 1), BuildingBlock: CIFDUS_clean_linker_0, # of connection points: 2
#     Edge 35, Type (0, 1), BuildingBlock: CIFDUS_clean_linker_0, # of connection points: 2
# Relax obj value: 0.200
# Max RMSD: 0.113
# Mean RMSD: 0.081
data_MOF--net-zzz--node1-KUMBUR_clean_sbu_1--node2-PAMTOO_clean_linker_0--edge1-CIFDUS_clean_linker_0
_symmetry_space_group_name_H-M    P1
_symmetry_Int_Tables_number       1
_symmetry_cell_setting            triclinic
loop_
_symmetry_equiv_pos_as_xyz
'x, y, z'
_cell_length_a     42.959313
_cell_length_b     43.142145
_cell_length_c     13.772119
_cell_angle_alpha  89.822483
_cell_angle_beta   90.173443
_cell_angle_gamma 90.078142
loop_
_atom_site_label
_atom_site_type_symbol
_atom_site_fract_x
_atom_site_fract_y
_atom_site_fract_z
_atom_type_partial_charge
H0 H 0.83581 0.6091 0.32579 0.0
H1 H 0.74589 0.60519 0.1901 0.0
H2 H 0.77237 0.53546 0.39941 0.0
H3 H 0.71977 0.51311 0.23006 0.0
C4 C 0.71896 0.53743 0.20339 0.0
O5 O 0.72615 0.55675 0.28154 0.0
H6 H 0.73698 0.53953 0.14577 0.0
C7 C 0.81324 0.59816 0.31867 0.0
C8 C 0.8076 0.57078 0.37121 0.0
C9 C 0.79192 0.61003 0.25032 0.0
C10 C 0.76246 0.59634 0.24272 0.0
C11 C 0.75496 0.56967 0.29591 0.0
C12 C 0.7777 0.55661 0.36035 0.0
H13 H 0.06978 0.84848 0.32242 0.0
H14 H 0.05738 0.7605 0.18294 0.0
H15 H 0.9895 0.79241 0.38963 0.0
H16 H 0.9921 0.75855 0.12827 0.0
C17 C 0.98907 0.7395 0.18215 0.0
O18 O 1.00599 0.74579 0.26683 0.0
H19 H 0.96398 0.73888 0.20138 0.0
C20 C 0.05679 0.82704 0.3151 0.0
C21 C 0.02931 0.82317 0.36879 0.0
C22 C 0.06677 0.80496 0.24738 0.0
C23 C 0.0496 0.77774 0.23452 0.0
C24 C 1.02159 0.773 0.2836 0.0
C25 C 1.01105 0.79601 0.35067 0.0
H26 H 0.72263 0.9809 0.24808 0.0
H27 H 0.81906 0.97505 0.16775 0.0
H28 H 0.79365 1.01484 0.44213 0.0
H29 H 0.86562 0.04062 0.34216 0.0
C30 C 0.85654 1.02656 0.28083 0.0
O31 O 0.84126 1.00086 0.32016 0.0
H32 H 0.83977 0.04156 0.24061 0.0
C33 C 0.74703 0.9834 0.26695 0.0
C34 C 0.75488 0.99683 0.35665 0.0
C35 C 0.76989 0.97659 0.1972 0.0
C36 C 0.80133 0.9806 0.22069 0.0
C37 C 0.81025 0.99491 0.30685 0.0
C38 C 0.78693 1.0034 0.37541 0.0
H39 H 0.4828 0.71809 0.27378 0.0
H40 H 0.49094 0.80922 0.15461 0.0
H41 H 0.55489 0.77954 0.3781 0.0
H42 H 0.56316 0.81426 0.12766 0.0
C43 C 0.55945 0.8343 0.17709 0.0
O44 O 0.53916 0.82615 0.25233 0.0
H45 H 0.58258 0.83936 0.20968 0.0
C46 C 0.49397 0.74062 0.27573 0.0
C47 C 0.5188 0.74581 0.34053 0.0
C48 C 0.48393 0.76319 0.2094 0.0
C49 C 0.49911 0.7917 0.20489 0.0
C50 C 0.52525 0.79767 0.26223 0.0
C51 C 0.53523 0.77467 0.33124 0.0
H52 H 0.19749 0.515 0.24057 0.0
H53 H 0.29152 0.51347 0.34652 0.0
H54 H 0.27387 0.52709 0.04165 0.0
H55 H 0.35381 0.49841 0.12973 0.0
C56 C 0.34116 0.50181 0.19911 0.0
O57 O 0.31803 0.52407 0.18347 0.0
H58 H 0.33054 0.47907 0.21851 0.0
C59 C 0.22229 0.5148 0.22588 0.0
C60 C 0.23249 0.52016 0.1304 0.0
C61 C 0.24326 0.51286 0.30398 0.0
C62 C 0.27523 0.51434 0.2863 0.0
C63 C 0.28675 0.51871 0.19271 0.0
C64 C 0.26527 0.52168 0.11355 0.0
H65 H 0.09704 0.22992 0.12825 0.0
H66 H 0.07961 0.3109 0.30398 0.0
H67 H 1.01605 0.286 0.07903 0.0
H68 H 1.02328 0.36756 0.14673 0.0
C69 C 0.03805 0.35834 0.20652 0.0
O70 O 0.03003 0.32725 0.22118 0.0
H71 H 0.06266 0.36024 0.18214 0.0
C72 C 0.08369 0.25025 0.14589 0.0
C73 C 0.05599 0.25517 0.0931 0.0
C74 C 0.09196 0.26859 0.22721 0.0
C75 C 0.07441 0.29564 0.24415 0.0
C76 C 0.04771 0.30266 0.1907 0.0
C77 C 0.03789 0.28188 0.11629 0.0
H78 H 0.35116 0.09558 0.1598 0.0
H79 H 0.26392 0.08709 0.30716 0.0
H80 H 0.28923 1.02053 0.08883 0.0
H81 H 0.20676 0.02847 0.15338 0.0
C82 C 0.21636 0.04411 0.20993 0.0
O83 O 0.24732 0.03578 0.22742 0.0
H84 H 0.21518 0.06815 0.18039 0.0
C85 C 0.3285 0.08474 0.16481 0.0
C86 C 0.32272 0.05807 0.10902 0.0
C87 C 0.30751 0.0958 0.235 0.0
C88 C 0.2797 0.07965 0.25061 0.0
C89 C 0.27274 0.05268 0.19875 0.0
C90 C 0.29424 0.04182 0.12721 0.0
H91 H 0.58394 0.34067 0.13494 0.0
H92 H 0.56961 0.25137 0.2648 0.0
H93 H 0.52051 0.27577 1.00152 0.0
H94 H 0.4881 0.21091 0.15214 0.0
C95 C 0.50648 0.22149 0.19799 0.0
O96 O 0.53096 0.2307 0.13796 0.0
H97 H 0.49535 0.24226 0.23086 0.0
C98 C 0.57277 0.3181 0.13284 0.0
C99 C 0.5519 0.31143 0.05719 0.0
C100 C 0.57924 0.29673 0.20691 0.0
C101 C 0.5645 0.26793 0.20756 0.0
C102 C 0.54311 0.26006 0.13529 0.0
C103 C 0.53648 0.28198 0.05925 0.0
Tb104 Tb 1.00201 0.05026 0.65952 0.0
C105 C 0.09188 0.0792 0.97446 0.0
N106 N 0.09928 0.06539 0.88905 0.0
C107 C 0.14266 0.10006 0.86954 0.0
C108 C 0.10885 0.10496 1.00877 0.0
C109 C 0.12486 0.07489 0.83752 0.0
C110 C 0.13438 0.11543 0.95482 0.0
C111 C 0.06072 0.07932 0.12064 0.0
C112 C 0.06789 0.06668 0.02895 0.0
C113 C 0.076 0.10634 0.15199 0.0
C114 C 0.10013 0.11905 0.09636 0.0
Tb115 Tb 0.06795 1.02488 0.84308 0.0
N116 N 0.05377 0.04041 0.99659 0.0
C117 C 0.03978 0.06344 0.18038 0.0
C118 C 0.03696 1.02275 0.06058 0.0
C119 C 0.02856 0.03456 0.15128 0.0
H120 H 0.13103 0.06329 0.77079 0.0
H121 H 1.01372 1.0212 0.19899 0.0
H122 H 0.93697 0.0615 0.78609 0.0
H123 H 1.02585 0.98351 0.33788 0.0
H124 H 0.02939 0.99963 0.04168 0.0
H125 H 0.03365 0.07232 0.25132 0.0
H126 H 0.03891 1.01725 0.47622 0.0
H127 H 0.16256 0.10779 0.82793 0.0
H128 H 0.0703 0.11675 0.22121 0.0
H129 H 0.11248 0.13923 0.12309 0.0
H130 H 0.88232 0.04442 0.77878 0.0
H131 H 0.14805 0.13509 0.97893 0.0
H132 H 0.97171 0.9652 0.31459 0.0
N133 N 0.95086 0.03535 0.66246 0.0
C134 C 0.94138 1.0167 0.58884 0.0
C135 C 0.89875 0.0363 0.72516 0.0
C136 C 0.91012 1.00711 0.58011 0.0
C137 C 0.92996 0.04554 0.72989 0.0
C138 C 0.88876 1.017 0.64996 0.0
N139 N 0.99303 1.0169 0.53396 0.0
C140 C 1.01534 1.00909 0.46794 0.0
C141 C 0.95447 0.98855 0.44259 0.0
C142 C 0.96315 1.00748 0.52142 0.0
C143 C 0.97738 0.97979 0.37607 0.0
C144 C 1.00797 0.99007 0.389 0.0
H145 H 0.86452 1.01013 0.64598 0.0
H146 H 0.87727 0.98069 0.49358 0.0
H147 H 0.91616 0.96445 0.37297 0.0
O148 O 1.01267 0.07866 0.54144 0.0
O149 O 1.00709 0.99905 0.67484 0.0
O150 O 0.05822 0.99247 0.7234 0.0
O151 O 0.97033 0.08577 0.62168 0.0
O152 O 0.05079 0.05564 0.60721 0.0
O153 O 0.08651 1.026 0.6944 0.0
O154 O 0.07667 0.98209 0.91315 0.0
O155 O 0.06406 0.07396 0.79259 0.0
O156 O 1.01226 0.08271 0.77974 0.0
O157 O 0.11396 1.01273 0.87835 0.0
O158 O 1.01852 1.01157 0.876 0.0
O159 O 0.99195 0.05277 0.8142 0.0
C160 C 0.03234 0.98173 0.68385 0.0
C161 C 1.00037 0.13006 0.58149 0.0
C162 C 0.04174 0.16914 0.57811 0.0
C163 C 1.01968 0.19159 0.6064 0.0
C164 C 0.97883 0.15278 0.60841 0.0
C165 C 0.98869 0.18324 0.62339 0.0
C166 C 0.03198 0.13814 0.57318 0.0
C167 C 0.07857 0.04255 0.61736 0.0
C168 C 0.99035 0.09792 0.56191 0.0
C169 C 0.90121 0.98821 0.50178 0.0
C170 C 0.92334 0.97899 0.43304 0.0
C171 C 0.04015 0.09268 0.80294 0.0
C172 C 0.12344 0.95951 0.85874 0.0
C173 C 0.13644 0.90468 0.85438 0.0
C174 C 0.15098 0.90874 0.76436 0.0
C175 C 0.13882 0.96358 0.76949 0.0
C176 C 0.12278 0.9301 0.90116 0.0
C177 C 0.15248 0.93829 0.72268 0.0
C178 C 0.99398 0.03005 0.87697 0.0
C179 C 0.10665 0.98511 0.90617 0.0
H180 H 1.02559 0.21592 0.61039 0.0
H181 H 0.95445 0.14701 0.61742 0.0
H182 H 0.97196 0.20077 0.64381 0.0
H183 H 0.04894 0.12033 0.55833 0.0
H184 H 0.16109 0.88918 0.72679 0.0
H185 H 0.13983 0.98612 0.73527 0.0
H186 H 0.11068 0.92675 0.96947 0.0
H187 H 0.16386 0.94155 0.65338 0.0
Tb188 Tb 0.55669 0.06365 0.78372 0.0
C189 C 0.53187 0.94587 0.49556 0.0
N190 N 0.53819 0.97665 0.49771 0.0
C191 C 0.57268 0.97069 0.36191 0.0
C192 C 0.54608 0.92607 0.42771 0.0
C193 C 0.55767 0.9894 0.42991 0.0
C194 C 0.56722 0.93883 0.36175 0.0
C195 C 0.50151 0.903 0.55792 0.0
C196 C 0.51017 0.93451 0.55962 0.0
C197 C 0.51606 0.88287 0.49209 0.0
C198 C 0.5384 0.89439 0.42718 0.0
Tb199 Tb 0.5153 1.00426 0.62067 0.0
N200 N 0.49658 0.95477 0.62104 0.0
C201 C 0.47815 0.89291 0.62127 0.0
C202 C 0.47308 0.94535 0.68084 0.0
C203 C 0.46369 0.91427 0.68245 0.0
H204 H 0.56275 1.01383 0.42909 0.0
H205 H 0.44534 0.9068 0.73089 0.0
H206 H 0.538 0.04115 1.00712 0.0
H207 H 0.57365 0.17913 0.637 0.0
H208 H 0.46177 0.96168 0.72828 0.0
H209 H 0.4708 0.86888 0.62244 0.0
H210 H 0.58217 0.1224 0.64577 0.0
H211 H 0.58868 0.98084 0.31019 0.0
H212 H 0.50991 0.85851 0.48987 0.0
H213 H 0.54919 0.87877 0.37587 0.0
H214 H 0.51149 0.06408 0.14766 0.0
H215 H 0.57922 0.92442 0.31006 0.0
H216 H 0.54023 0.20489 0.75865 0.0
N217 N 0.53469 0.08216 0.92146 0.0
C218 C 0.52687 0.11265 0.91899 0.0
C219 C 0.51463 0.07768 0.08259 0.0
C220 C 0.51065 0.12639 0.99618 0.0
C221 C 0.53014 0.06487 1.00334 0.0
C222 C 0.50386 0.10823 0.0778 0.0
N223 N 0.55381 0.11642 0.77082 0.0
C224 C 0.56802 0.13366 0.70006 0.0
C225 C 0.53101 0.16253 0.83845 0.0
C226 C 0.5367 0.1304 0.84083 0.0
C227 C 0.54406 0.18011 0.76315 0.0
C228 C 0.56307 0.16568 0.69461 0.0
H229 H 0.49172 0.11803 0.13924 0.0
H230 H 0.48962 0.16867 0.04826 0.0
H231 H 0.50812 0.20067 0.91144 0.0
O232 O 0.59709 0.04156 0.83463 0.0
O233 O 0.5349 0.08348 0.65182 0.0
O234 O 0.53544 0.04432 0.54033 0.0
O235 O 0.59206 0.09124 0.84495 0.0
O236 O 0.58332 0.05043 0.65352 0.0
O237 O 0.56672 1.00048 0.63311 0.0
O238 O 0.48275 0.04013 0.60806 0.0
O239 O 0.52404 0.9814 0.7605 0.0
O240 O 0.55283 1.01675 0.85198 0.0
O241 O 0.47905 0.99809 0.52066 0.0
O242 O 0.48814 1.01205 0.75573 0.0
O243 O 0.50665 0.05863 0.81617 0.0
C244 C 0.53388 0.07412 0.56124 0.0
C245 C 0.64169 0.07146 0.80315 0.0
C246 C 0.69354 0.05019 0.77416 0.0
C247 C 0.69924 0.0743 0.70751 0.0
C248 C 0.64804 0.09565 0.73762 0.0
C249 C 0.67667 0.09694 0.69001 0.0
C250 C 0.66454 0.0492 0.82159 0.0
C251 C 0.58874 1.02175 0.62605 0.0
C252 C 0.61114 0.06793 0.85041 0.0
C253 C 0.50286 0.15795 0.99085 0.0
C254 C 0.51326 0.17609 0.91262 0.0
C255 C 0.54067 0.98874 0.83794 0.0
C256 C 0.46521 0.04614 0.44702 0.0
C257 C 0.44728 0.09502 0.37618 0.0
C258 C 0.4521 0.08234 0.28306 0.0
C259 C 0.46968 0.03409 0.35359 0.0
C260 C 0.455 0.07687 0.45774 0.0
C261 C 0.46313 0.05218 0.27233 0.0
C262 C 0.48483 0.03715 0.80959 0.0
C263 C 0.46932 1.02659 0.53396 0.0
H264 H 0.72117 0.07589 0.66937 0.0
H265 H 0.63098 0.11338 0.72244 0.0
H266 H 0.68134 0.11549 0.63899 0.0
H267 H 0.65972 0.03163 0.8759 0.0
H268 H 0.44513 0.09468 0.21803 0.0
H269 H 0.47747 1.01047 0.34301 0.0
H270 H 0.45136 0.08601 0.53003 0.0
H271 H 0.46522 0.04224 0.2006 0.0
Tb272 Tb 0.55922 0.52067 0.62004 0.0
C273 C 0.46316 0.48975 0.93952 0.0
N274 N 0.45899 0.50384 0.85198 0.0
C275 C 0.4126 0.474 0.82467 0.0
C276 C 0.44231 0.46674 0.97243 0.0
C277 C 0.43401 0.49649 0.79459 0.0
C278 C 0.41679 0.45901 0.91382 0.0
C279 C 0.49366 0.48403 0.08682 0.0
C280 C 0.48856 0.49839 0.99584 0.0
C281 C 0.47352 0.46043 0.11852 0.0
C282 C 0.44779 0.45196 0.06182 0.0
Tb283 Tb 0.49498 0.5407 0.81194 0.0
N284 N 0.50713 0.52196 0.96424 0.0
C285 C 0.51825 0.49453 0.14471 0.0
C286 C 0.52769 0.53524 0.02795 0.0
C287 C 0.53509 0.52055 0.11553 0.0
H288 H 0.43031 0.50828 0.7263 0.0
H289 H 0.55315 0.52994 0.16183 0.0
H290 H 0.62001 0.55278 0.73266 0.0
H291 H 0.50237 0.54697 0.27624 0.0
H292 H 0.53866 0.55721 1.01262 0.0
H293 H 0.5233 0.48383 0.21428 0.0
H294 H 0.51453 0.51419 0.4159 0.0
H295 H 0.39286 0.46827 0.77912 0.0
H296 H 0.47726 0.44907 0.18785 0.0
H297 H 0.43219 0.43405 0.08793 0.0
H298 H 0.65734 0.59499 0.70039 0.0
H299 H 0.40024 0.44149 0.9366 0.0
H300 H 0.53533 0.59245 0.23938 0.0
N301 N 0.59464 0.55974 0.60134 0.0
C302 C 0.59255 0.57577 0.51618 0.0
C303 C 0.63912 0.58993 0.64833 0.0
C304 C 0.61348 0.60006 0.49491 0.0
C305 C 0.61767 0.56626 0.667 0.0
C306 C 0.63701 0.60692 0.56207 0.0
N307 N 0.54859 0.54491 0.47486 0.0
C308 C 0.52685 0.53568 0.40828 0.0
C309 C 0.56427 0.58643 0.36702 0.0
C310 C 0.56826 0.56878 0.45268 0.0
C311 C 0.53953 0.57915 0.305 0.0
C312 C 0.52083 0.55356 0.32567 0.0
H313 H 0.65352 0.62543 0.54834 0.0
H314 H 0.62543 0.63617 0.39181 0.0
H315 H 0.58224 0.62443 0.28036 0.0
O316 O 0.56715 0.47981 0.53898 0.0
O317 O 0.54996 0.57027 0.65753 0.0
O318 O 0.49797 0.57032 0.68267 0.0
O319 O 0.6047 0.51001 0.57656 0.0
O320 O 0.51122 0.50491 0.5819 0.0
O321 O 0.47643 0.53698 0.66235 0.0
O322 O 0.49056 0.58566 0.87061 0.0
O323 O 0.50061 0.49087 0.77633 0.0
O324 O 0.55209 0.4853 0.73606 0.0
O325 O 0.45146 0.55492 0.86436 0.0
O326 O 0.54472 0.55316 0.84607 0.0
O327 O 0.5745 0.51647 0.7699 0.0
C328 C 0.52292 0.58434 0.64999 0.0
C329 C 0.61331 0.45717 0.60162 0.0
C330 C 0.62571 0.40246 0.61747 0.0
C331 C 0.64014 0.40788 0.70699 0.0
C332 C 0.628 0.46247 0.69194 0.0
C333 C 0.64137 0.43795 0.74389 0.0
C334 C 0.61245 0.42708 0.56488 0.0
C335 C 0.48318 0.5175 0.59143 0.0
C336 C 0.59719 0.48244 0.54921 0.0
C337 C 0.6097 0.61731 0.4091 0.0
C338 C 0.58502 0.61069 0.34579 0.0
C339 C 0.52597 0.4738 0.77173 0.0
C340 C 0.44203 0.607 0.82574 0.0
C341 C 0.4258 0.66076 0.81135 0.0
C342 C 0.41023 0.65411 0.72444 0.0
C343 C 0.42581 0.60027 0.73931 0.0
C344 C 0.44166 0.63719 0.86151 0.0
C345 C 0.41003 0.62377 0.68907 0.0
C346 C 0.56985 0.53538 0.84254 0.0
C347 C 0.46043 0.58321 0.87701 0.0
H348 H 0.6503 0.38894 0.748 0.0
H349 H 0.62883 0.48544 0.72331 0.0
H350 H 0.65236 0.44225 0.8134 0.0
H351 H 0.60088 0.42265 0.49614 0.0
H352 H 0.39824 0.67223 0.68466 0.0
H353 H 0.42576 0.57706 0.70972 0.0
H354 H 0.45426 0.64256 0.92782 0.0
H355 H 0.39794 0.61849 0.62204 0.0
Tb356 Tb 0.04511 0.57311 0.64488 0.0
C357 C 1.02292 0.44553 0.87206 0.0
N358 N 1.00304 0.46273 0.81787 0.0
C359 C 0.97955 0.41633 0.75558 0.0
C360 C 1.02283 0.41292 0.86773 0.0
C361 C 0.98036 0.44867 0.76374 0.0
C362 C 1.00126 0.39837 0.80649 0.0
C363 C 0.06001 0.44401 1.00428 0.0
C364 C 0.04108 0.46075 0.93899 0.0
C365 C 0.06181 0.41159 0.99616 0.0
C366 C 0.04316 0.39603 0.92804 0.0
Tb367 Tb 1.00771 0.51541 0.82921 0.0
N368 N 0.03757 0.49181 0.94647 0.0
C369 C 0.07516 0.46021 0.07865 0.0
C370 C 0.05004 0.50727 0.0241 0.0
C371 C 0.06964 0.49191 0.08972 0.0
H372 H 0.96359 0.46256 0.72433 0.0
H373 H 0.0802 0.50444 0.14927 0.0
H374 H 0.99691 0.63211 0.61413 0.0
H375 H 0.1317 0.52619 0.40184 0.0
H376 H 0.04549 0.53172 0.03392 0.0
H377 H 0.08992 0.44824 0.13046 0.0
H378 H 0.10864 0.53774 0.56136 0.0
H379 H 0.96218 0.4053 0.71023 0.0
H380 H 0.07653 0.39829 0.04478 0.0
H381 H 0.04374 0.37093 0.92526 0.0
H382 H 0.97221 0.65956 0.47578 0.0
H383 H 1.00041 0.37334 0.80084 0.0
H384 H 0.10722 0.54648 0.25175 0.0
N385 N 1.02492 0.60355 0.52426 0.0
C386 C 0.0343 0.59717 0.43283 0.0
C387 C 0.98955 0.6419 0.46263 0.0
C388 C 1.02084 0.61192 0.35176 0.0
C389 C 1.00364 0.62641 0.54076 0.0
C390 C 0.99783 0.63427 0.36751 0.0
N391 N 0.07137 0.56455 0.50276 0.0
C392 C 0.09793 0.54718 0.49681 0.0
C393 C 0.07068 0.57061 0.3287 0.0
C394 C 0.05861 0.5769 0.42157 0.0
C395 C 0.09708 0.55179 0.32169 0.0
C396 C 0.11102 0.54039 0.40633 0.0
H397 H 0.98693 0.64627 0.30711 0.0
H398 H 1.02005 0.61388 0.1949 0.0
H399 H 0.06453 0.57854 0.17418 0.0
O400 O 0.07578 0.61121 0.62841 0.0
O401 O 0.99398 0.56944 0.62972 0.0
O402 O 0.97905 0.52194 0.69601 0.0
O403 O 0.06566 0.59237 0.76894 0.0
O404 O 0.04386 0.52603 0.58427 0.0
O405 O 1.0194 0.49136 0.6902 0.0
O406 O 0.96508 0.53823 0.84999 0.0
O407 O 0.05402 0.53591 0.8526 0.0
O408 O 0.07485 0.5356 0.70364 0.0
O409 O 0.97968 0.50164 0.94654 0.0
O410 O 1.02126 0.56254 0.87625 0.0
O411 O 1.00746 0.58939 0.74182 0.0
C412 C 0.97417 0.54599 0.63786 0.0
C413 C 0.1146 0.61343 0.75249 0.0
C414 C 0.16715 0.59251 0.74499 0.0
C415 C 0.17498 0.60894 0.82953 0.0
C416 C 0.12262 0.62959 0.83719 0.0
C417 C 0.15275 0.62744 0.8752 0.0
C418 C 0.1369 0.59515 0.70663 0.0
C419 C 0.03263 0.49827 0.60573 0.0
C420 C 0.08197 0.61238 0.72125 0.0
C421 C 0.03121 0.60417 0.25831 0.0
C422 C 0.05626 0.5837 0.24661 0.0
C423 C 0.07785 0.53011 0.79674 0.0
C424 C 0.95795 0.54675 1.01672 0.0
C425 C 0.93715 0.59528 0.08185 0.0
C426 C 0.95318 0.58918 0.16946 0.0
C427 C 0.97315 0.54109 0.10543 0.0
C428 C 0.94067 0.57413 1.00489 0.0
C429 C 0.97095 0.56237 0.18077 0.0
C430 C 1.00897 0.58757 0.83716 0.0
C431 C 0.96113 0.52518 0.93434 0.0
H432 H 0.1981 0.60726 0.86066 0.0
H433 H 0.10537 0.64325 0.8751 0.0
H434 H 0.15875 0.63977 0.94097 0.0
H435 H 0.1306 0.58298 0.6409 0.0
H436 H 0.9508 0.60408 0.23191 0.0
H437 H 0.98684 0.52034 0.11682 0.0
H438 H 0.92974 0.57858 0.93537 0.0
H439 H 0.98242 0.55765 0.24933 0.0
H440 H 0.15971 0.07152 0.23858 0.0
H441 H 0.22434 1.01033 0.38251 0.0
H442 H 0.18836 1.00501 0.51954 0.0
H443 H 0.1377 1.01706 0.59825 0.0
H444 H 0.07275 0.07717 0.45024 0.0
H445 H 0.10958 0.08378 0.31763 0.0
C446 C 0.16615 0.05732 0.30055 0.0
C447 C 0.19531 0.04199 0.3003 0.0
C448 C 0.14505 0.05406 0.37906 0.0
C449 C 0.20262 1.023 0.38058 0.0
C450 C 0.18185 1.01983 0.45916 0.0
C451 C 0.13147 0.03164 0.53731 0.0
C452 C 0.10203 0.04658 0.53615 0.0
C453 C 0.15287 0.03515 0.45929 0.0
C454 C 0.09489 0.06532 0.45501 0.0
C455 C 0.11605 0.0691 0.37822 0.0
H456 H 0.53231 0.16191 0.18318 0.0
H457 H 0.49934 0.22743 0.39456 0.0
H458 H 0.50411 0.18842 0.52236 0.0
H459 H 0.51452 0.13471 0.57449 0.0
H460 H 0.54806 0.0684 0.36638 0.0
H461 H 0.54632 0.10817 0.23913 0.0
C462 C 0.52653 0.16773 0.25733 0.0
C463 C 0.51553 0.19798 0.27815 0.0
C464 C 0.52893 0.14469 0.33163 0.0
C465 C 0.50812 0.20474 0.37543 0.0
C466 C 0.51057 0.18222 0.44893 0.0
C467 C 0.52177 0.12888 0.50153 0.0
C468 C 0.53183 0.0983 0.48149 0.0
C469 C 0.52045 0.15195 0.4279 0.0
C470 C 0.54019 0.09144 0.3851 0.0
C471 C 0.53905 0.11431 0.31168 0.0
H472 H 0.39391 0.47054 0.24956 0.0
H473 H 0.34211 0.55192 0.33011 0.0
H474 H 0.38054 0.5634 0.45707 0.0
H475 H 0.42961 0.55052 0.54598 0.0
H476 H 0.48025 0.46816 0.46646 0.0
H477 H 0.4419 0.45709 0.33998 0.0
C478 C 0.39103 0.49087 0.29479 0.0
C479 C 0.36501 0.51037 0.27876 0.0
C480 C 0.41322 0.49723 0.36863 0.0
C481 C 0.36175 0.53648 0.33915 0.0
C482 C 0.38383 0.54305 0.41238 0.0
C483 C 0.43221 0.53 0.50159 0.0
C484 C 0.45831 0.51036 0.51649 0.0
C485 C 0.40974 0.5236 0.42807 0.0
C486 C 0.46089 0.48396 0.45711 0.0
C487 C 0.43884 0.47756 0.38429 0.0
H488 H 0.03726 0.42119 0.21094 0.0
H489 H 0.03231 0.34318 0.40568 0.0
H490 H 0.02966 0.37865 0.5451 0.0
H491 H 0.02985 0.43294 0.61305 0.0
H492 H 0.03684 0.50969 0.4121 0.0
H493 H 0.03783 0.47408 0.27652 0.0
C494 C 0.03537 0.41187 0.28385 0.0
C495 C 0.03433 0.37935 0.29648 0.0
C496 C 0.03452 0.43247 0.36384 0.0
C497 C 0.03252 0.36793 0.39239 0.0
C498 C 0.03118 0.38835 0.4726 0.0
C499 C 0.03146 0.44189 0.53969 0.0
C500 C 0.03341 0.47448 0.52468 0.0
C501 C 0.03226 0.42083 0.45959 0.0
C502 C 0.03577 0.48512 0.42794 0.0
C503 C 0.03619 0.46462 0.34929 0.0
H504 H 0.89806 0.06702 0.20621 0.0
H505 H 0.87617 0.96969 0.19839 0.0
H506 H 0.91781 0.96141 0.0791 0.0
H507 H 0.95948 0.98289 0.96817 0.0
H508 H 0.97871 0.08096 0.97783 0.0
H509 H 0.93995 0.08767 0.10433 0.0
C510 C 0.90256 0.04387 0.17917 0.0
C511 C 0.88377 1.01913 0.21208 0.0
C512 C 0.92637 0.03939 0.10989 0.0
C513 C 0.88996 0.98934 0.17511 0.0
C514 C 0.91393 0.98459 0.1065 0.0
C515 C 0.95543 1.00559 0.99906 0.0
C516 C 0.97222 0.03144 0.96257 0.0
C517 C 0.93219 1.00953 0.07208 0.0
C518 C 0.96619 0.06071 1.00324 0.0
C519 C 0.94392 0.0646 0.07601 0.0
H520 H 0.582 0.89455 0.17518 0.0
H521 H 0.51487 0.83635 0.03194 0.0
H522 H 0.50228 0.87841 0.91908 0.0
H523 H 0.51247 0.93107 0.85369 0.0
H524 H 0.57933 0.98986 0.99822 0.0
H525 H 0.58931 0.94894 0.11761 0.0
C526 C 0.56374 0.89149 0.12183 0.0
C527 C 0.54856 0.86235 0.1157 0.0
C528 C 0.55685 0.91598 0.05566 0.0
C529 C 0.52614 0.85854 0.04186 0.0
C530 C 0.51924 0.88263 0.97594 0.0
C531 C 0.52911 0.93519 0.91148 0.0
C532 C 0.54518 0.96397 0.91527 0.0
C533 C 0.53473 0.91137 0.98107 0.0
C534 C 0.56651 0.96832 0.99209 0.0
C535 C 0.57232 0.94474 0.06082 0.0
H536 H 0.67693 0.49536 0.13408 0.0
H537 H 0.69053 0.59391 0.15641 0.0
H538 H 0.64423 0.60278 0.05466 0.0
H539 H 0.60174 0.58191 0.94568 0.0
H540 H 0.59122 0.48277 0.92243 0.0
H541 H 0.63357 0.47493 0.03743 0.0
C542 C 0.6694 0.51886 0.11885 0.0
C543 C 0.68713 0.54388 0.15542 0.0
C544 C 0.64307 0.52372 0.05851 0.0
C545 C 0.67724 0.57412 0.13162 0.0
C546 C 0.65074 0.57919 0.0725 0.0
C547 C 0.60834 0.55867 0.9675 0.0
C548 C 0.59296 0.53294 0.92489 0.0
C549 C 0.63366 0.55413 0.03365 0.0
C550 C 0.60243 0.50301 0.95328 0.0
C551 C 0.62682 0.49845 0.01931 0.0
H552 H 0.95661 0.70932 0.04081 0.0
H553 H 0.04186 0.70144 0.20433 0.0
H554 H 0.05533 0.65441 0.11411 0.0
H555 H 0.04202 0.61377 0.99031 0.0
H556 H 0.95904 0.62543 0.81748 0.0
H557 H 0.94508 0.67139 0.91138 0.0
C558 C 0.97796 0.69704 0.05786 0.0
C559 C 0.99766 0.70878 0.13177 0.0
C560 C 0.98573 0.67004 1.00467 0.0
C561 C 1.02574 0.69293 0.15 0.0
C562 C 0.03353 0.66593 0.09782 0.0
C563 C 1.02084 0.62635 0.97348 0.0
C564 C 1.00135 0.61569 0.89718 0.0
C565 C 1.01352 0.65388 0.02573 0.0
C566 C 0.97441 0.63285 0.87548 0.0
C567 C 0.96641 0.65924 0.92937 0.0
H568 H 0.12171 0.21031 0.24435 0.0
H569 H 0.11531 0.29599 0.40179 0.0
H570 H 0.10527 0.2675 0.55082 0.0
H571 H 0.07767 0.22121 0.61508 0.0
H572 H 0.07663 0.13792 0.43994 0.0
H573 H 0.11037 0.16181 0.32418 0.0
C574 C 0.11775 0.22323 0.3102 0.0
C575 C 0.11216 0.25543 0.30773 0.0
C576 C 0.10999 0.20662 0.39412 0.0
C577 C 0.11411 0.27101 0.39783 0.0
C578 C 0.10865 0.25469 0.4841 0.0
C579 C 0.08501 0.20806 0.5523 0.0
C580 C 0.07225 0.1785 0.53427 0.0
C581 C 0.10255 0.22283 0.47981 0.0
C582 C 0.08462 0.16104 0.45657 0.0
C583 C 0.10401 0.17487 0.3883 0.0
H584 H 0.33989 0.14956 0.20006 0.0
H585 H 0.30114 0.09543 0.43357 0.0
H586 H 0.34659 0.10561 0.53252 0.0
H587 H 0.40256 0.105 0.51294 0.0
H588 H 0.44475 0.14857 0.2638 0.0
H589 H 0.39401 0.16804 0.21245 0.0
C590 C 0.34083 0.14141 0.27464 0.0
C591 C 0.31883 0.11929 0.306 0.0
C592 C 0.36884 0.14413 0.32652 0.0
C593 C 0.31871 0.11093 0.4048 0.0
C594 C 0.34516 0.1163 0.46131 0.0
C595 C 0.40123 0.12014 0.45016 0.0
C596 C 0.42671 0.12265 0.38645 0.0
C597 C 0.37169 0.12893 0.4172 0.0
C598 C 0.42481 0.14432 0.31003 0.0
C599 C 0.39569 0.15528 0.28017 0.0
H600 H 0.56627 0.2946 0.39827 0.0
H601 H 0.63767 0.32061 0.19427 0.0
H602 H 0.6642 0.35077 0.31949 0.0
H603 H 0.65915 0.37958 0.47144 0.0
H604 H 0.58522 0.35739 0.67008 0.0
H605 H 0.56794 0.3151 0.56447 0.0
C606 C 0.58829 0.30589 0.38267 0.0
C607 C 0.59978 0.30613 0.28741 0.0
C608 C 0.60265 0.32412 0.4539 0.0
C609 C 0.62827 0.32073 0.2672 0.0
C610 C 0.64333 0.33801 0.33851 0.0
C611 C 0.64017 0.36446 0.49311 0.0
C612 C 0.62327 0.37125 0.57705 0.0
C613 C 0.62962 0.3414 0.42999 0.0
C614 C 0.59852 0.35212 0.60548 0.0
C615 C 0.58846 0.32829 0.54459 0.0
H616 H 0.26497 0.55108 0.44347 0.0
H617 H 0.19445 0.48192 0.38833 0.0
H618 H 0.1674 0.49689 0.53706 0.0
H619 H 0.15907 0.53609 0.6623 0.0
H620 H 0.22757 0.60787 0.70743 0.0
H621 H 0.26106 0.58441 0.58541 0.0
C622 C 0.24434 0.53842 0.46566 0.0
C623 C 0.23146 0.5157 0.40444 0.0
C624 C 0.22848 0.54782 0.549 0.0
C625 C 0.20449 0.49982 0.43374 0.0
C626 C 0.18904 0.50839 0.51851 0.0
C627 C 0.1816 0.54621 0.64678 0.0
C628 C 0.19051 0.57404 0.69197 0.0
C629 C 0.20001 0.53344 0.57359 0.0
C630 C 0.2201 0.58653 0.67324 0.0
C631 C 0.23911 0.57331 0.60274 0.0
H632 H 0.06727 0.79862 0.05213 0.0
H633 H 0.12346 0.83004 0.2927 0.0
H634 H 0.15679 0.85901 0.18126 0.0
H635 H 0.16072 0.88539 0.02369 0.0
H636 H 0.10222 0.85669 0.78597 0.0
H637 H 0.07964 0.81569 0.88688 0.0
C638 C 0.08759 0.8107 0.07978 0.0
C639 C 0.09247 0.81298 0.18052 0.0
C640 C 0.10596 0.82806 1.01566 0.0
C641 C 0.11889 0.82866 0.21542 0.0
C642 C 0.13787 0.84525 0.15183 0.0
C643 C 0.14404 0.86916 0.99324 0.0
C644 C 0.13275 0.87393 0.89877 0.0
C645 C 0.1303 0.84671 0.05288 0.0
C646 C 0.11116 0.85314 0.85883 0.0
C647 C 0.09801 0.83003 0.91689 0.0
H648 H 0.79547 1.00619 0.04494 0.0
H649 H 0.72303 0.94085 0.11808 0.0
H650 H 0.69712 0.95154 0.96304 0.0
H651 H 0.68833 0.98967 0.83347 0.0
H652 H 0.75632 0.06211 0.78692 0.0
H653 H 0.79188 0.03665 0.89773 0.0
C654 C 0.77477 0.99315 0.0255 0.0
C655 C 0.76071 0.97334 0.09391 0.0
C656 C 0.75907 1.00096 0.94001 0.0
C657 C 0.73387 0.95673 0.0673 0.0
C658 C 0.71904 0.96295 0.9789 0.0
C659 C 0.71107 0.99975 0.84686 0.0
C660 C 0.71872 0.02882 0.80628 0.0
C661 C 0.73021 0.98679 0.91871 0.0
C662 C 0.74917 0.04025 0.81852 0.0
C663 C 0.76951 1.0259 0.88343 0.0
H664 H 0.48773 0.76938 1.01474 0.0
H665 H 0.42695 0.73757 0.24291 0.0
H666 H 0.39625 0.70818 0.12533 0.0
H667 H 0.39631 0.68113 0.96928 0.0
H668 H 0.46028 0.70896 0.74542 0.0
H669 H 0.47956 0.75117 0.84785 0.0
C670 C 0.46698 0.75707 0.03781 0.0
C671 C 0.45991 0.75489 0.13712 0.0
C672 C 0.45032 0.73922 0.97047 0.0
C673 C 0.43302 0.73896 0.1667 0.0
C674 C 0.41559 0.7221 0.09966 0.0
C675 C 0.41338 0.69749 0.9417 0.0
C676 C 0.42715 0.69219 0.85122 0.0
C677 C 0.42537 0.72043 1.00285 0.0
C678 C 0.44939 0.713 0.81514 0.0
C679 C 0.46067 0.73677 0.87421 0.0
H680 H 0.83005 0.66148 0.26158 0.0
H681 H 0.78252 0.6035 0.05481 0.0
H682 H 0.82829 0.60257 0.95305 0.0
H683 H 0.88416 0.59725 0.96888 0.0
H684 H 0.93434 0.6511 0.18254 0.0
H685 H 0.88558 0.67404 0.23608 0.0
C686 C 0.82926 0.65009 0.19147 0.0
C687 C 0.80431 0.6299 0.1706 0.0
C688 C 0.85687 0.64708 0.13806 0.0
C689 C 0.80226 0.61755 0.07634 0.0
C690 C 0.82884 0.61641 0.0186 0.0
C691 C 0.88523 0.615 0.02409 0.0
C692 C 0.91274 0.62004 0.07801 0.0
C693 C 0.85708 0.62765 0.05575 0.0
C694 C 0.91308 0.64458 0.14539 0.0
C695 C 0.88517 0.65805 0.17555 0.0
H696 H 0.08924 0.22379 0.95277 0.0
H697 H 0.99867 0.22629 0.08586 0.0
H698 H 0.98487 0.17744 1.00549 0.0
H699 H 1.00038 0.13085 0.90837 0.0
H700 H 0.09067 0.12983 0.77338 0.0
H701 H 0.10257 0.18049 0.84297 0.0
C702 C 0.06622 0.21402 0.9631 0.0
C703 C 0.04509 0.22925 0.02609 0.0
C704 C 0.05855 0.1855 0.91734 0.0
C705 C 1.01539 0.2158 0.03736 0.0
C706 C 1.0076 0.18746 0.99205 0.0
C707 C 1.02257 0.1418 0.89353 0.0
C708 C 0.04507 0.12559 0.83802 0.0
C709 C 0.02924 0.17159 0.9336 0.0
C710 C 0.07337 0.14082 0.81861 0.0
C711 C 0.0801 0.17011 0.85788 0.0
H712 H 0.36329 0.0939 1.00176 0.0
H713 H 0.34186 0.99797 0.06002 0.0
H714 H 0.38864 0.98242 0.96982 0.0
H715 H 0.43871 0.99657 0.88273 0.0
H716 H 0.46076 0.09366 0.84759 0.0
H717 H 0.41202 0.10782 0.92374 0.0
C718 C 0.36874 0.06944 0.99669 0.0
C719 C 0.34861 0.04735 0.04058 0.0
C720 C 0.39663 0.06074 0.94959 0.0
C721 C 0.35624 1.01581 0.02766 0.0
C722 C 0.38345 1.00687 0.97674 0.0
C723 C 0.43281 1.02081 0.89165 0.0
C724 C 0.45404 0.04393 0.85878 0.0
C725 C 0.40432 0.02916 0.93874 0.0
C726 C 0.44559 0.07517 0.87221 0.0
C727 C 0.41738 0.08342 0.91557 0.0
H728 H 0.49995 0.34478 0.9905 0.0
H729 H 0.59889 0.33533 0.94965 0.0
H730 H 0.60032 0.38397 0.85959 0.0
H731 H 0.57462 0.43241 0.80425 0.0
H732 H 0.47496 0.43891 0.82317 0.0
H733 H 0.47276 0.38947 0.90934 0.0
C734 C 0.52163 0.35276 0.959 0.0
C735 C 0.54931 0.33592 0.97794 0.0
C736 C 0.5224 0.38118 0.90527 0.0
C737 C 0.57714 0.34738 0.93674 0.0
C738 C 0.57809 0.37556 0.88551 0.0
C739 C 0.55234 0.423 0.82627 0.0
C740 C 0.5251 0.44092 0.81192 0.0
C741 C 0.55106 0.39323 0.87139 0.0
C742 C 0.49656 0.42722 0.83893 0.0
C743 C 0.49522 0.39834 0.88675 0.0
H744 H 0.21124 0.48966 0.96321 0.0
H745 H 0.19567 0.57058 0.13913 0.0
H746 H 0.14671 0.58053 0.05481 0.0
H747 H 0.10572 0.5644 0.93947 0.0
H748 H 0.12175 0.48628 0.75291 0.0
H749 H 0.17246 0.47723 0.83136 0.0
C750 C 0.19766 0.51003 0.98079 0.0
C751 C 0.20761 0.52944 0.0578 0.0
C752 C 0.16904 0.51587 0.93087 0.0
C753 C 0.18903 0.55537 0.08009 0.0
C754 C 0.1607 0.56094 0.03241 0.0
C755 C 0.12041 0.5455 0.91551 0.0
C756 C 0.10968 0.5259 0.84062 0.0
C757 C 0.15002 0.541 0.95927 0.0
C758 C 0.12928 0.50172 0.81027 0.0
C759 C 0.15839 0.49655 0.85532 0.0
H760 H 0.06678 0.85008 0.50481 0.0
H761 H 0.97395 0.85606 0.38773 0.0
H762 H 0.96563 0.90474 0.47715 0.0
H763 H 0.98658 0.94807 0.58094 0.0
H764 H 0.08082 0.94108 0.68849 0.0
H765 H 0.08639 0.8909 0.61226 0.0
C766 C 0.04445 0.86168 0.49979 0.0
C767 C 1.02103 0.84896 0.43907 0.0
C768 C 0.04018 0.89007 0.54941 0.0
C769 C 0.99232 0.86469 0.43443 0.0
C770 C 0.98772 0.89287 0.48493 0.0
C771 C 1.0084 0.93574 0.58735 0.0
C772 C 0.03346 0.94944 0.63984 0.0
C773 C 1.01177 0.90628 0.5412 0.0
C774 C 0.06114 0.93207 0.64841 0.0
C775 C 0.06443 0.90301 0.60451 0.0
H776 H 0.7093 0.96011 0.43555 0.0
H777 H 0.73893 0.05527 0.41778 0.0
H778 H 0.69025 0.07183 0.49447 0.0
H779 H 0.63788 0.05929 0.56451 0.0
H780 H 0.60987 0.96347 0.58532 0.0
H781 H 0.65875 0.94744 0.51191 0.0
C782 C 0.70554 0.98444 0.45119 0.0
C783 C 0.72836 1.00631 0.42231 0.0
C784 C 0.67746 0.99379 0.49668 0.0
C785 C 0.72246 0.03778 0.44127 0.0
C786 C 0.69434 0.04728 0.48468 0.0
C787 C 0.64268 0.03488 0.55476 0.0
C788 C 0.61979 1.01278 0.58217 0.0
C789 C 0.6715 1.02554 0.51275 0.0
C790 C 0.62657 0.98125 0.56589 0.0
C791 C 0.65478 0.97193 0.52378 0.0
H792 H 0.4779 0.707 0.43414 0.0
H793 H 0.57638 0.72503 0.41297 0.0
H794 H 0.58683 0.67826 0.51101 0.0
H795 H 0.56742 0.62988 0.59693 0.0
H796 H 0.46898 0.6102 0.58827 0.0
H797 H 0.45934 0.65942 0.50898 0.0
C798 C 0.50188 0.70078 0.44906 0.0
C799 C 0.52626 0.71987 0.41304 0.0
C800 C 0.50776 0.673 0.50073 0.0
C801 C 0.55692 0.71136 0.43868 0.0
C802 C 0.56292 0.68421 0.49419 0.0
C803 C 0.54399 0.6359 0.57542 0.0
C804 C 0.51905 0.61547 0.59914 0.0
C805 C 0.53852 0.66432 0.52407 0.0
C806 C 0.48875 0.62498 0.57345 0.0
C807 C 0.48314 0.6533 0.52686 0.0
H808 H 0.86909 0.56736 0.31999 0.0
H809 H 0.80802 0.54508 0.55799 0.0
H810 H 0.85366 0.53298 0.6602 0.0
H811 H 0.91209 0.53343 0.68626 0.0
H812 H 0.97079 0.5619 0.44842 0.0
H813 H 0.92516 0.5675 0.34415 0.0
C814 C 0.86543 0.56 0.39447 0.0
C815 C 0.83461 0.55777 0.43079 0.0
C816 C 0.89177 0.55457 0.45397 0.0
C817 C 0.83107 0.54707 0.52694 0.0
C818 C 0.85736 0.54047 0.58597 0.0
C819 C 0.91487 0.54058 0.61127 0.0
C820 C 0.94522 0.54717 0.57563 0.0
C821 C 0.888 0.54483 0.5511 0.0
C822 C 0.94806 0.5568 0.47845 0.0
C823 C 0.92189 0.55998 0.41837 0.0
loop_
_geom_bond_atom_site_label_1
_geom_bond_atom_site_label_2
_geom_bond_distance
_geom_bond_site_symmetry_2
_ccdc_geom_bond_type
H0 C7 0.929 . S
H1 C10 0.930 . S
H2 C12 0.929 . S
H3 C4 0.969 . S
C4 H3 0.969 . S
C4 O5 1.550 . S
C4 H6 0.973 . S
O5 C4 1.550 . S
O5 C11 1.412 . S
H6 C4 0.973 . S
C7 H0 0.929 . S
C7 C8 1.400 . S
C7 C9 1.364 . S
C8 C7 1.400 . S
C8 C12 1.377 . S
C9 C7 1.364 . S
C9 C10 1.374 . S
C10 H1 0.930 . S
C10 C9 1.374 . S
C10 C11 1.383 . S
C11 O5 1.412 . S
C11 C10 1.383 . S
C11 C12 1.394 . S
C12 H2 0.929 . S
C12 C8 1.377 . S
C12 C11 1.394 . S
H13 C20 0.929 . S
H14 C23 0.930 . S
H15 C25 0.929 . S
H16 C17 0.969 1_455 S
C17 H16 0.969 1_655 S
C17 O18 1.550 . S
C17 H19 0.973 . S
O18 C17 1.550 . S
O18 C24 1.412 . S
H19 C17 0.973 . S
C20 H13 0.929 . S
C20 C21 1.400 . S
C20 C22 1.364 . S
C21 C20 1.400 . S
C21 C25 1.377 . S
C22 C20 1.364 . S
C22 C23 1.374 . S
C23 H14 0.930 . S
C23 C22 1.374 . S
C23 C24 1.383 . S
C24 O18 1.412 . S
C24 C23 1.383 . S
C24 C25 1.394 . S
C25 H15 0.929 . S
C25 C21 1.377 . S
C25 C24 1.394 . S
H26 C33 0.929 . S
H27 C36 0.930 . S
H28 C38 0.929 . S
H29 C30 0.969 1_545 S
C30 H29 0.969 1_565 S
C30 O31 1.550 . S
C30 H32 0.973 . S
O31 C30 1.550 . S
O31 C37 1.412 . S
H32 C30 0.973 . S
C33 H26 0.929 . S
C33 C34 1.400 . S
C33 C35 1.364 . S
C34 C33 1.400 . S
C34 C38 1.377 . S
C35 C33 1.364 . S
C35 C36 1.374 . S
C36 H27 0.930 . S
C36 C35 1.374 . S
C36 C37 1.383 . S
C37 O31 1.412 . S
C37 C36 1.383 . S
C37 C38 1.394 . S
C38 H28 0.929 . S
C38 C34 1.377 . S
C38 C37 1.394 . S
H39 C46 0.929 . S
H40 C49 0.930 . S
H41 C51 0.929 . S
H42 C43 0.969 . S
C43 H42 0.969 . S
C43 O44 1.550 . S
C43 H45 0.973 . S
O44 C43 1.550 . S
O44 C50 1.412 . S
H45 C43 0.973 . S
C46 H39 0.929 . S
C46 C47 1.400 . S
C46 C48 1.364 . S
C47 C46 1.400 . S
C47 C51 1.377 . S
C48 C46 1.364 . S
C48 C49 1.374 . S
C49 H40 0.930 . S
C49 C48 1.374 . S
C49 C50 1.383 . S
C50 O44 1.412 . S
C50 C49 1.383 . S
C50 C51 1.394 . S
C51 H41 0.929 . S
C51 C47 1.377 . S
C51 C50 1.394 . S
H52 C59 0.929 . S
H53 C62 0.930 . S
H54 C64 0.929 . S
H55 C56 0.969 . S
C56 H55 0.969 . S
C56 O57 1.550 . S
C56 H58 0.973 . S
O57 C56 1.550 . S
O57 C63 1.412 . S
H58 C56 0.973 . S
C59 H52 0.929 . S
C59 C60 1.400 1_554 S
C59 C61 1.364 . S
C60 C59 1.400 1_556 S
C60 C64 1.377 . S
C61 C59 1.364 . S
C61 C62 1.374 . S
C62 H53 0.930 . S
C62 C61 1.374 . S
C62 C63 1.383 . S
C63 O57 1.412 . S
C63 C62 1.383 . S
C63 C64 1.394 1_554 S
C64 H54 0.929 . S
C64 C60 1.377 . S
C64 C63 1.394 1_556 S
H65 C72 0.929 . S
H66 C75 0.930 . S
H67 C77 0.929 . S
H68 C69 0.969 . S
C69 H68 0.969 . S
C69 O70 1.550 . S
C69 H71 0.973 . S
O70 C69 1.550 . S
O70 C76 1.412 . S
H71 C69 0.973 . S
C72 H65 0.929 . S
C72 C73 1.400 1_554 S
C72 C74 1.364 . S
C73 C72 1.400 1_556 S
C73 C77 1.377 . S
C74 C72 1.364 . S
C74 C75 1.374 . S
C75 H66 0.930 . S
C75 C74 1.374 . S
C75 C76 1.383 . S
C76 O70 1.412 . S
C76 C75 1.383 . S
C76 C77 1.394 1_554 S
C77 H67 0.929 . S
C77 C73 1.377 . S
C77 C76 1.394 1_556 S
H78 C85 0.929 . S
H79 C88 0.930 . S
H80 C90 0.929 . S
H81 C82 0.969 . S
C82 H81 0.969 . S
C82 O83 1.550 . S
C82 H84 0.973 . S
O83 C82 1.550 . S
O83 C89 1.412 . S
H84 C82 0.973 . S
C85 H78 0.929 . S
C85 C86 1.400 1_554 S
C85 C87 1.364 . S
C86 C85 1.400 1_556 S
C86 C90 1.377 . S
C87 C85 1.364 . S
C87 C88 1.374 . S
C88 H79 0.930 . S
C88 C87 1.374 . S
C88 C89 1.383 . S
C89 O83 1.412 . S
C89 C88 1.383 . S
C89 C90 1.394 1_554 S
C90 H80 0.929 . S
C90 C86 1.377 . S
C90 C89 1.394 1_556 S
H91 C98 0.929 . S
H92 C101 0.930 . S
H93 C103 0.929 . S
H94 C95 0.969 . S
C95 H94 0.969 . S
C95 O96 1.550 . S
C95 H97 0.973 . S
O96 C95 1.550 . S
O96 C102 1.412 . S
H97 C95 0.973 . S
C98 H91 0.929 . S
C98 C99 1.400 1_554 S
C98 C100 1.364 . S
C99 C98 1.400 1_556 S
C99 C103 1.377 . S
C100 C98 1.364 . S
C100 C101 1.374 . S
C101 H92 0.930 . S
C101 C100 1.374 . S
C101 C102 1.383 . S
C102 O96 1.412 . S
C102 C101 1.383 . S
C102 C103 1.394 1_554 S
C103 H93 0.929 . S
C103 C99 1.377 . S
C103 C102 1.394 1_556 S
Tb104 N133 2.617 . S
Tb104 N139 2.572 . S
Tb104 O148 2.465 . S
Tb104 O149 2.387 1_545 S
Tb104 O151 2.428 . S
Tb104 O152 2.308 1_655 S
Tb104 O156 2.349 1_655 S
Tb104 O159 2.393 . S
Tb104 C168 2.802 . S
C105 N106 1.379 . S
C105 C108 1.416 . S
C105 C112 1.424 1_556 S
N106 C105 1.379 . S
N106 C109 1.334 . S
N106 Tb115 2.617 1_545 S
C107 C109 1.390 . S
C107 C110 1.339 . S
C107 H127 0.930 . S
C108 C105 1.416 . S
C108 C110 1.416 . S
C108 C114 1.448 1_556 S
C109 N106 1.334 . S
C109 C107 1.390 . S
C109 H120 0.930 1_545 S
C110 C107 1.339 . S
C110 C108 1.416 . S
C110 H131 0.930 . S
C111 C112 1.413 . S
C111 C113 1.427 . S
C111 C117 1.416 . S
C112 C105 1.424 1_554 S
C112 C111 1.413 . S
C112 N116 1.361 1_554 S
C113 C111 1.427 . S
C113 C114 1.328 . S
C113 H128 0.929 . S
C114 C108 1.448 1_554 S
C114 C113 1.328 . S
C114 H129 0.930 . S
Tb115 N106 2.617 1_565 S
Tb115 N116 2.572 1_565 S
Tb115 O150 2.349 . S
Tb115 O153 2.393 . S
Tb115 O154 2.465 . S
Tb115 O155 2.387 1_565 S
Tb115 O157 2.428 . S
Tb115 O158 2.308 1_465 S
Tb115 C179 2.802 . S
N116 C112 1.361 1_556 S
N116 Tb115 2.572 1_545 S
N116 C118 1.340 1_556 S
C117 C111 1.416 . S
C117 C119 1.332 . S
C117 H125 0.931 . S
C118 N116 1.340 1_554 S
C118 C119 1.407 . S
C118 H124 0.897 1_455 S
C119 C117 1.332 . S
C119 C118 1.407 . S
C119 H121 0.946 . S
H120 C109 0.930 1_565 S
H121 C119 0.946 . S
H122 C137 0.930 . S
H123 C144 0.920 1_455 S
H124 C118 0.897 1_655 S
H125 C117 0.931 . S
H126 C140 0.939 . S
H127 C107 0.930 . S
H128 C113 0.929 . S
H129 C114 0.930 . S
H130 C135 0.930 . S
H131 C110 0.930 . S
H132 C143 0.931 . S
N133 Tb104 2.617 . S
N133 C134 1.379 . S
N133 C137 1.334 . S
C134 N133 1.379 . S
C134 C136 1.416 1_545 S
C134 C142 1.424 1_545 S
C135 H130 0.930 . S
C135 C137 1.390 . S
C135 C138 1.339 1_545 S
C136 C134 1.416 1_565 S
C136 C138 1.416 . S
C136 C169 1.448 . S
C137 H122 0.930 . S
C137 N133 1.334 . S
C137 C135 1.390 . S
C138 C135 1.339 1_565 S
C138 C136 1.416 . S
C138 H145 0.930 . S
N139 Tb104 2.572 . S
N139 C140 1.332 1_655 S
N139 C142 1.361 1_545 S
C140 H126 0.939 . S
C140 N139 1.332 1_455 S
C140 C144 1.407 1_445 S
C141 C142 1.413 . S
C141 C143 1.416 . S
C141 C170 1.427 . S
C142 C134 1.424 1_565 S
C142 N139 1.361 1_565 S
C142 C141 1.413 . S
C143 H132 0.931 . S
C143 C141 1.416 . S
C143 C144 1.342 . S
C144 H123 0.920 1_655 S
C144 C140 1.407 1_665 S
C144 C143 1.342 . S
H145 C138 0.930 . S
H146 C169 0.930 . S
H147 C170 0.929 . S
O148 Tb104 2.465 . S
O148 C168 1.264 . S
O149 Tb104 2.387 1_565 S
O149 C160 1.264 . S
O150 Tb115 2.349 . S
O150 C160 1.243 1_455 S
O151 Tb104 2.428 . S
O151 C168 1.256 . S
O152 Tb104 2.308 1_455 S
O152 C167 1.266 . S
O153 Tb115 2.393 . S
O153 C167 1.248 1_565 S
O154 Tb115 2.465 . S
O154 C179 1.264 . S
O155 Tb115 2.387 1_545 S
O155 C171 1.264 . S
O156 Tb104 2.349 1_455 S
O156 C171 1.243 . S
O157 Tb115 2.428 . S
O157 C179 1.256 . S
O158 Tb115 2.308 1_645 S
O158 C178 1.266 . S
O159 Tb104 2.393 . S
O159 C178 1.248 . S
C160 O149 1.264 . S
C160 O150 1.243 1_655 S
C161 C164 1.399 . S
C161 C166 1.383 . S
C161 C168 1.496 . S
C162 C163 1.399 . S
C162 C166 1.389 . S
C163 C162 1.399 . S
C163 C165 1.380 . S
C163 H180 0.929 . S
C164 C161 1.399 . S
C164 C165 1.392 . S
C164 H181 0.929 . S
C165 C163 1.380 . S
C165 C164 1.392 . S
C165 H182 0.929 . S
C166 C161 1.383 . S
C166 C162 1.389 . S
C166 H183 0.931 1_655 S
C167 O152 1.266 . S
C167 O153 1.248 1_545 S
C168 Tb104 2.802 . S
C168 O148 1.264 . S
C168 O151 1.256 . S
C168 C161 1.496 . S
C169 C136 1.448 . S
C169 H146 0.930 . S
C169 C170 1.328 . S
C170 C141 1.427 . S
C170 H147 0.929 . S
C170 C169 1.328 . S
C171 O155 1.264 . S
C171 O156 1.243 . S
C172 C175 1.399 . S
C172 C176 1.383 1_556 S
C172 C179 1.496 . S
C173 C174 1.399 . S
C173 C176 1.389 . S
C174 C173 1.399 . S
C174 C177 1.380 1_554 S
C174 H184 0.929 . S
C175 C172 1.399 . S
C175 C177 1.392 . S
C175 H185 0.929 . S
C176 C172 1.383 1_554 S
C176 C173 1.389 . S
C176 H186 0.931 . S
C177 C174 1.380 1_556 S
C177 C175 1.392 . S
C177 H187 0.929 . S
C178 O158 1.266 . S
C178 O159 1.248 . S
C179 Tb115 2.802 . S
C179 O154 1.264 . S
C179 O157 1.256 . S
C179 C172 1.496 . S
H180 C163 0.929 . S
H181 C164 0.929 . S
H182 C165 0.929 . S
H183 C166 0.931 1_455 S
H184 C174 0.929 . S
H185 C175 0.929 . S
H186 C176 0.931 . S
H187 C177 0.929 . S
Tb188 N217 2.617 . S
Tb188 N223 2.572 . S
Tb188 O232 2.465 . S
Tb188 O233 2.387 . S
Tb188 O235 2.428 . S
Tb188 O236 2.308 . S
Tb188 O240 2.349 1_545 S
Tb188 O243 2.393 . S
Tb188 C252 2.802 . S
C189 N190 1.379 . S
C189 C192 1.416 . S
C189 C196 1.424 . S
N190 C189 1.379 . S
N190 C193 1.334 . S
N190 Tb199 2.617 . S
C191 C193 1.390 . S
C191 C194 1.339 . S
C191 H211 0.930 . S
C192 C189 1.416 . S
C192 C194 1.416 . S
C192 C198 1.448 . S
C193 N190 1.334 . S
C193 C191 1.390 . S
C193 H204 0.930 . S
C194 C191 1.339 . S
C194 C192 1.416 . S
C194 H215 0.930 . S
C195 C196 1.413 . S
C195 C197 1.427 . S
C195 C201 1.416 . S
C196 C189 1.424 . S
C196 C195 1.413 . S
C196 N200 1.361 . S
C197 C195 1.427 . S
C197 C198 1.328 . S
C197 H212 0.929 . S
C198 C192 1.448 . S
C198 C197 1.328 . S
C198 H213 0.930 . S
Tb199 N190 2.617 . S
Tb199 N200 2.572 . S
Tb199 O234 2.349 1_565 S
Tb199 O237 2.393 . S
Tb199 O238 2.465 . S
Tb199 O239 2.387 . S
Tb199 O241 2.428 . S
Tb199 O242 2.308 1_565 S
Tb199 C263 2.802 . S
N200 C196 1.361 . S
N200 Tb199 2.572 . S
N200 C202 1.340 . S
C201 C195 1.416 . S
C201 C203 1.332 . S
C201 H209 0.931 . S
C202 N200 1.340 . S
C202 C203 1.407 . S
C202 H208 0.930 . S
C203 C201 1.332 . S
C203 C202 1.407 . S
C203 H205 0.929 . S
H204 C193 0.930 . S
H205 C203 0.929 . S
H206 C221 0.930 . S
H207 C228 0.929 . S
H208 C202 0.930 . S
H209 C201 0.931 . S
H210 C224 0.930 . S
H211 C191 0.930 . S
H212 C197 0.929 . S
H213 C198 0.930 . S
H214 C219 0.930 1_554 S
H215 C194 0.930 . S
H216 C227 0.931 . S
N217 Tb188 2.617 . S
N217 C218 1.379 . S
N217 C221 1.334 . S
C218 N217 1.379 . S
C218 C220 1.416 . S
C218 C226 1.424 . S
C219 H214 0.930 1_556 S
C219 C221 1.390 . S
C219 C222 1.339 . S
C220 C218 1.416 . S
C220 C222 1.416 . S
C220 C253 1.448 . S
C221 H206 0.930 . S
C221 N217 1.334 . S
C221 C219 1.390 . S
C222 C219 1.339 . S
C222 C220 1.416 . S
C222 H229 0.930 . S
N223 Tb188 2.572 . S
N223 C224 1.340 . S
N223 C226 1.361 . S
C224 H210 0.930 . S
C224 N223 1.340 . S
C224 C228 1.407 . S
C225 C226 1.413 . S
C225 C227 1.416 . S
C225 C254 1.427 . S
C226 C218 1.424 . S
C226 N223 1.361 . S
C226 C225 1.413 . S
C227 H216 0.931 . S
C227 C225 1.416 . S
C227 C228 1.332 . S
C228 H207 0.929 . S
C228 C224 1.407 . S
C228 C227 1.332 . S
H229 C222 0.930 . S
H230 C253 0.930 . S
H231 C254 0.929 . S
O232 Tb188 2.465 . S
O232 C252 1.264 . S
O233 Tb188 2.387 . S
O233 C244 1.264 . S
O234 Tb199 2.349 1_545 S
O234 C244 1.243 . S
O235 Tb188 2.428 . S
O235 C252 1.256 . S
O236 Tb188 2.308 . S
O236 C251 1.266 . S
O237 Tb199 2.393 . S
O237 C251 1.248 1_565 S
O238 Tb199 2.465 . S
O238 C263 1.264 . S
O239 Tb199 2.387 . S
O239 C255 1.264 . S
O240 Tb188 2.349 1_565 S
O240 C255 1.243 . S
O241 Tb199 2.428 . S
O241 C263 1.256 . S
O242 Tb199 2.308 1_545 S
O242 C262 1.266 . S
O243 Tb188 2.393 . S
O243 C262 1.248 . S
C244 O233 1.264 . S
C244 O234 1.243 . S
C245 C248 1.399 . S
C245 C250 1.383 . S
C245 C252 1.496 1_554 S
C246 C247 1.399 . S
C246 C250 1.389 . S
C247 C246 1.399 . S
C247 C249 1.380 . S
C247 H264 0.929 . S
C248 C245 1.399 . S
C248 C249 1.392 . S
C248 H265 0.929 . S
C249 C247 1.380 . S
C249 C248 1.392 . S
C249 H266 0.929 . S
C250 C245 1.383 . S
C250 C246 1.389 . S
C250 H267 0.931 1_554 S
C251 O236 1.266 . S
C251 O237 1.248 1_545 S
C252 Tb188 2.802 . S
C252 O232 1.264 . S
C252 O235 1.256 . S
C252 C245 1.496 1_556 S
C253 C220 1.448 . S
C253 H230 0.930 . S
C253 C254 1.328 . S
C254 C225 1.427 . S
C254 H231 0.929 . S
C254 C253 1.328 . S
C255 O239 1.264 . S
C255 O240 1.243 . S
C256 C259 1.399 . S
C256 C260 1.383 1_565 S
C256 C263 1.496 . S
C257 C258 1.399 1_545 S
C257 C260 1.389 . S
C258 C257 1.399 1_565 S
C258 C261 1.380 . S
C258 H268 0.929 . S
C259 C256 1.399 . S
C259 C261 1.392 . S
C259 H269 0.929 . S
C260 C256 1.383 1_545 S
C260 C257 1.389 . S
C260 H270 0.931 . S
C261 C258 1.380 . S
C261 C259 1.392 . S
C261 H271 0.929 . S
C262 O242 1.266 . S
C262 O243 1.248 . S
C263 Tb199 2.802 . S
C263 O238 1.264 . S
C263 O241 1.256 . S
C263 C256 1.496 . S
H264 C247 0.929 . S
H265 C248 0.929 . S
H266 C249 0.929 . S
H267 C250 0.931 1_556 S
H268 C258 0.929 . S
H269 C259 0.929 . S
H270 C260 0.931 . S
H271 C261 0.929 . S
Tb272 N301 2.617 . S
Tb272 N307 2.572 . S
Tb272 O316 2.465 . S
Tb272 O317 2.387 . S
Tb272 O319 2.428 . S
Tb272 O320 2.308 . S
Tb272 O324 2.349 . S
Tb272 O327 2.393 . S
Tb272 C336 2.802 . S
C273 N274 1.379 . S
C273 C276 1.416 . S
C273 C280 1.424 1_556 S
N274 C273 1.379 . S
N274 C277 1.334 . S
N274 Tb283 2.617 . S
C275 C277 1.390 . S
C275 C278 1.339 . S
C275 H295 0.930 . S
C276 C273 1.416 . S
C276 C278 1.416 . S
C276 C282 1.448 1_556 S
C277 N274 1.334 . S
C277 C275 1.390 . S
C277 H288 0.930 . S
C278 C275 1.339 . S
C278 C276 1.416 . S
C278 H299 0.930 . S
C279 C280 1.413 . S
C279 C281 1.427 . S
C279 C285 1.416 . S
C280 C273 1.424 1_554 S
C280 C279 1.413 . S
C280 N284 1.361 1_554 S
C281 C279 1.427 . S
C281 C282 1.328 . S
C281 H296 0.929 . S
C282 C276 1.448 1_554 S
C282 C281 1.328 . S
C282 H297 0.930 . S
Tb283 N274 2.617 . S
Tb283 N284 2.572 . S
Tb283 O318 2.349 . S
Tb283 O321 2.393 . S
Tb283 O322 2.465 . S
Tb283 O323 2.387 . S
Tb283 O325 2.428 . S
Tb283 O326 2.308 . S
Tb283 C347 2.802 . S
N284 C280 1.361 1_556 S
N284 Tb283 2.572 . S
N284 C286 1.340 1_556 S
C285 C279 1.416 . S
C285 C287 1.332 . S
C285 H293 0.931 . S
C286 N284 1.340 1_554 S
C286 C287 1.407 . S
C286 H292 0.930 . S
C287 C285 1.332 . S
C287 C286 1.407 . S
C287 H289 0.929 . S
H288 C277 0.930 . S
H289 C287 0.929 . S
H290 C305 0.930 . S
H291 C312 0.929 . S
H292 C286 0.930 . S
H293 C285 0.931 . S
H294 C308 0.930 . S
H295 C275 0.930 . S
H296 C281 0.929 . S
H297 C282 0.930 . S
H298 C303 0.930 . S
H299 C278 0.930 . S
H300 C311 0.931 . S
N301 Tb272 2.617 . S
N301 C302 1.379 . S
N301 C305 1.334 . S
C302 N301 1.379 . S
C302 C304 1.416 . S
C302 C310 1.424 . S
C303 H298 0.930 . S
C303 C305 1.390 . S
C303 C306 1.339 . S
C304 C302 1.416 . S
C304 C306 1.416 . S
C304 C337 1.448 . S
C305 H290 0.930 . S
C305 N301 1.334 . S
C305 C303 1.390 . S
C306 C303 1.339 . S
C306 C304 1.416 . S
C306 H313 0.930 . S
N307 Tb272 2.572 . S
N307 C308 1.340 . S
N307 C310 1.361 . S
C308 H294 0.930 . S
C308 N307 1.340 . S
C308 C312 1.407 . S
C309 C310 1.413 . S
C309 C311 1.416 . S
C309 C338 1.427 . S
C310 C302 1.424 . S
C310 N307 1.361 . S
C310 C309 1.413 . S
C311 H300 0.931 . S
C311 C309 1.416 . S
C311 C312 1.332 . S
C312 H291 0.929 . S
C312 C308 1.407 . S
C312 C311 1.332 . S
H313 C306 0.930 . S
H314 C337 0.930 . S
H315 C338 0.929 . S
O316 Tb272 2.465 . S
O316 C336 1.264 . S
O317 Tb272 2.387 . S
O317 C328 1.264 . S
O318 Tb283 2.349 . S
O318 C328 1.243 . S
O319 Tb272 2.428 . S
O319 C336 1.256 . S
O320 Tb272 2.308 . S
O320 C335 1.266 . S
O321 Tb283 2.393 . S
O321 C335 1.248 . S
O322 Tb283 2.465 . S
O322 C347 1.264 . S
O323 Tb283 2.387 . S
O323 C339 1.264 . S
O324 Tb272 2.349 . S
O324 C339 1.243 . S
O325 Tb283 2.428 . S
O325 C347 1.256 . S
O326 Tb283 2.308 . S
O326 C346 1.266 . S
O327 Tb272 2.393 . S
O327 C346 1.248 . S
C328 O317 1.264 . S
C328 O318 1.243 . S
C329 C332 1.399 . S
C329 C334 1.383 . S
C329 C336 1.496 . S
C330 C331 1.399 . S
C330 C334 1.389 . S
C331 C330 1.399 . S
C331 C333 1.380 . S
C331 H348 0.929 . S
C332 C329 1.399 . S
C332 C333 1.392 . S
C332 H349 0.929 . S
C333 C331 1.380 . S
C333 C332 1.392 . S
C333 H350 0.929 . S
C334 C329 1.383 . S
C334 C330 1.389 . S
C334 H351 0.931 . S
C335 O320 1.266 . S
C335 O321 1.248 . S
C336 Tb272 2.802 . S
C336 O316 1.264 . S
C336 O319 1.256 . S
C336 C329 1.496 . S
C337 C304 1.448 . S
C337 H314 0.930 . S
C337 C338 1.328 . S
C338 C309 1.427 . S
C338 H315 0.929 . S
C338 C337 1.328 . S
C339 O323 1.264 . S
C339 O324 1.243 . S
C340 C343 1.399 . S
C340 C344 1.383 1_556 S
C340 C347 1.496 . S
C341 C342 1.399 . S
C341 C344 1.389 . S
C342 C341 1.399 . S
C342 C345 1.380 1_554 S
C342 H352 0.929 . S
C343 C340 1.399 . S
C343 C345 1.392 . S
C343 H353 0.929 . S
C344 C340 1.383 1_554 S
C344 C341 1.389 . S
C344 H354 0.931 . S
C345 C342 1.380 1_556 S
C345 C343 1.392 . S
C345 H355 0.929 . S
C346 O326 1.266 . S
C346 O327 1.248 . S
C347 Tb283 2.802 . S
C347 O322 1.264 . S
C347 O325 1.256 . S
C347 C340 1.496 . S
H348 C331 0.929 . S
H349 C332 0.929 . S
H350 C333 0.929 . S
H351 C334 0.931 . S
H352 C342 0.929 . S
H353 C343 0.929 . S
H354 C344 0.931 . S
H355 C345 0.929 . S
Tb356 N385 2.617 . S
Tb356 N391 2.572 . S
Tb356 O400 2.465 . S
Tb356 O401 2.387 1_455 S
Tb356 O403 2.428 . S
Tb356 O404 2.308 . S
Tb356 O408 2.349 . S
Tb356 O411 2.393 . S
Tb356 C420 2.802 . S
C357 N358 1.379 . S
C357 C360 1.416 . S
C357 C364 1.424 1_556 S
N358 C357 1.379 . S
N358 C361 1.331 1_455 S
N358 Tb367 2.617 1_455 S
C359 C361 1.379 1_455 S
C359 C362 1.339 . S
C359 H379 0.930 . S
C360 C357 1.416 . S
C360 C362 1.416 . S
C360 C366 1.448 1_556 S
C361 N358 1.331 1_655 S
C361 C359 1.379 1_655 S
C361 H372 0.946 . S
C362 C359 1.339 . S
C362 C360 1.416 . S
C362 H383 0.930 . S
C363 C364 1.413 . S
C363 C365 1.427 . S
C363 C369 1.416 . S
C364 C357 1.424 1_554 S
C364 C363 1.413 . S
C364 N368 1.361 1_554 S
C365 C363 1.427 . S
C365 C366 1.328 . S
C365 H380 0.929 . S
C366 C360 1.448 1_554 S
C366 C365 1.328 . S
C366 H381 0.930 . S
Tb367 N358 2.617 1_655 S
Tb367 N368 2.572 1_655 S
Tb367 O402 2.349 . S
Tb367 O405 2.393 . S
Tb367 O406 2.465 . S
Tb367 O407 2.387 1_655 S
Tb367 O409 2.428 . S
Tb367 O410 2.308 1_655 S
Tb367 C431 2.802 . S
N368 C364 1.361 1_556 S
N368 Tb367 2.572 1_455 S
N368 C370 1.340 1_556 S
C369 C363 1.416 . S
C369 C371 1.332 . S
C369 H377 0.931 . S
C370 N368 1.340 1_554 S
C370 C371 1.407 . S
C370 H376 0.930 . S
C371 C369 1.332 . S
C371 C370 1.407 . S
C371 H373 0.929 . S
H372 C361 0.946 . S
H373 C371 0.929 . S
H374 C389 0.930 . S
H375 C396 0.929 . S
H376 C370 0.930 . S
H377 C369 0.931 . S
H378 C392 0.930 . S
H379 C359 0.930 . S
H380 C365 0.929 . S
H381 C366 0.930 . S
H382 C387 0.930 . S
H383 C362 0.930 . S
H384 C395 0.931 . S
N385 Tb356 2.617 . S
N385 C386 1.391 . S
N385 C389 1.334 . S
C386 N385 1.391 . S
C386 C388 1.407 1_455 S
C386 C394 1.421 1_455 S
C387 H382 0.930 . S
C387 C389 1.390 . S
C387 C390 1.339 1_455 S
C388 C386 1.407 1_655 S
C388 C390 1.416 . S
C388 C421 1.448 . S
C389 H374 0.930 . S
C389 N385 1.334 . S
C389 C387 1.390 . S
C390 C387 1.339 1_655 S
C390 C388 1.416 . S
C390 H397 0.930 . S
N391 Tb356 2.572 . S
N391 C392 1.340 . S
N391 C394 1.361 1_455 S
C392 H378 0.930 . S
C392 N391 1.340 . S
C392 C396 1.407 1_455 S
C393 C394 1.413 . S
C393 C395 1.416 . S
C393 C422 1.427 . S
C394 C386 1.421 1_655 S
C394 N391 1.361 1_655 S
C394 C393 1.413 . S
C395 H384 0.931 . S
C395 C393 1.416 . S
C395 C396 1.332 . S
C396 H375 0.929 . S
C396 C392 1.407 1_655 S
C396 C395 1.332 . S
H397 C390 0.930 . S
H398 C421 0.930 . S
H399 C422 0.929 . S
O400 Tb356 2.465 . S
O400 C420 1.264 . S
O401 Tb356 2.387 1_655 S
O401 C412 1.264 . S
O402 Tb367 2.349 . S
O402 C412 1.243 . S
O403 Tb356 2.428 . S
O403 C420 1.256 . S
O404 Tb356 2.308 . S
O404 C419 1.266 . S
O405 Tb367 2.393 . S
O405 C419 1.248 1_655 S
O406 Tb367 2.465 . S
O406 C431 1.264 . S
O407 Tb367 2.387 1_455 S
O407 C423 1.264 . S
O408 Tb356 2.349 . S
O408 C423 1.243 . S
O409 Tb367 2.428 . S
O409 C431 1.256 . S
O410 Tb367 2.308 1_455 S
O410 C430 1.266 . S
O411 Tb356 2.393 . S
O411 C430 1.248 . S
C412 O401 1.264 . S
C412 O402 1.243 . S
C413 C416 1.399 . S
C413 C418 1.383 . S
C413 C420 1.496 . S
C414 C415 1.399 . S
C414 C418 1.389 . S
C415 C414 1.399 . S
C415 C417 1.380 . S
C415 H432 0.929 . S
C416 C413 1.399 . S
C416 C417 1.392 . S
C416 H433 0.929 . S
C417 C415 1.380 . S
C417 C416 1.392 . S
C417 H434 0.929 . S
C418 C413 1.383 . S
C418 C414 1.389 . S
C418 H435 0.931 . S
C419 O404 1.266 . S
C419 O405 1.248 1_455 S
C420 Tb356 2.802 . S
C420 O400 1.264 . S
C420 O403 1.256 . S
C420 C413 1.496 . S
C421 C388 1.448 . S
C421 H398 0.930 . S
C421 C422 1.328 . S
C422 C393 1.427 . S
C422 H399 0.929 . S
C422 C421 1.328 . S
C423 O407 1.264 . S
C423 O408 1.243 . S
C424 C427 1.399 . S
C424 C428 1.383 1_556 S
C424 C431 1.496 . S
C425 C426 1.399 . S
C425 C428 1.389 . S
C426 C425 1.399 . S
C426 C429 1.380 1_554 S
C426 H436 0.929 . S
C427 C424 1.399 . S
C427 C429 1.392 . S
C427 H437 0.929 . S
C428 C424 1.383 1_554 S
C428 C425 1.389 . S
C428 H438 0.931 . S
C429 C426 1.380 1_556 S
C429 C427 1.392 . S
C429 H439 0.929 . S
C430 O410 1.266 . S
C430 O411 1.248 . S
C431 Tb367 2.802 . S
C431 O406 1.264 . S
C431 O409 1.256 . S
C431 C424 1.496 . S
H432 C415 0.929 . S
H433 C416 0.929 . S
H434 C417 0.929 . S
H435 C418 0.931 . S
H436 C426 0.929 . S
H437 C427 0.929 . S
H438 C428 0.931 . S
H439 C429 0.929 . S
H440 C446 0.930 . S
H441 C449 0.930 . S
H442 C450 0.930 . S
H443 C451 0.930 . S
H444 C454 0.930 . S
H445 C455 0.930 . S
C446 H440 0.930 . S
C446 C447 1.355 . S
C446 C448 1.415 . S
C447 C446 1.355 . S
C447 C449 1.419 . S
C448 C446 1.415 . S
C448 C453 1.425 . S
C448 C455 1.409 . S
C449 H441 0.930 . S
C449 C447 1.419 . S
C449 C450 1.362 . S
C450 H442 0.930 . S
C450 C449 1.362 . S
C450 C453 1.409 . S
C451 H443 0.930 . S
C451 C452 1.355 . S
C451 C453 1.415 . S
C452 C451 1.355 . S
C452 C454 1.419 . S
C453 C448 1.425 . S
C453 C450 1.409 . S
C453 C451 1.415 . S
C454 H444 0.930 . S
C454 C452 1.419 . S
C454 C455 1.362 . S
C455 H445 0.930 . S
C455 C448 1.409 . S
C455 C454 1.362 . S
H456 C462 0.930 . S
H457 C465 0.930 . S
H458 C466 0.930 . S
H459 C467 0.930 . S
H460 C470 0.930 . S
H461 C471 0.930 . S
C462 H456 0.930 . S
C462 C463 1.355 . S
C462 C464 1.415 . S
C463 C462 1.355 . S
C463 C465 1.419 . S
C464 C462 1.415 . S
C464 C469 1.425 . S
C464 C471 1.409 . S
C465 H457 0.930 . S
C465 C463 1.419 . S
C465 C466 1.362 . S
C466 H458 0.930 . S
C466 C465 1.362 . S
C466 C469 1.409 . S
C467 H459 0.930 . S
C467 C468 1.355 . S
C467 C469 1.415 . S
C468 C467 1.355 . S
C468 C470 1.419 . S
C469 C464 1.425 . S
C469 C466 1.409 . S
C469 C467 1.415 . S
C470 H460 0.930 . S
C470 C468 1.419 . S
C470 C471 1.362 . S
C471 H461 0.930 . S
C471 C464 1.409 . S
C471 C470 1.362 . S
H472 C478 0.930 . S
H473 C481 0.930 . S
H474 C482 0.930 . S
H475 C483 0.930 . S
H476 C486 0.930 . S
H477 C487 0.930 . S
C478 H472 0.930 . S
C478 C479 1.355 . S
C478 C480 1.415 . S
C479 C478 1.355 . S
C479 C481 1.419 . S
C480 C478 1.415 . S
C480 C485 1.425 . S
C480 C487 1.409 . S
C481 H473 0.930 . S
C481 C479 1.419 . S
C481 C482 1.362 . S
C482 H474 0.930 . S
C482 C481 1.362 . S
C482 C485 1.409 . S
C483 H475 0.930 . S
C483 C484 1.355 . S
C483 C485 1.415 . S
C484 C483 1.355 . S
C484 C486 1.419 . S
C485 C480 1.425 . S
C485 C482 1.409 . S
C485 C483 1.415 . S
C486 H476 0.930 . S
C486 C484 1.419 . S
C486 C487 1.362 . S
C487 H477 0.930 . S
C487 C480 1.409 . S
C487 C486 1.362 . S
H488 C494 0.930 . S
H489 C497 0.924 1_655 S
H490 C498 0.930 1_655 S
H491 C499 0.930 1_655 S
H492 C502 0.930 . S
H493 C503 0.930 . S
C494 H488 0.930 . S
C494 C495 1.355 . S
C494 C496 1.415 . S
C495 C494 1.355 . S
C495 C497 1.419 . S
C496 C494 1.415 . S
C496 C501 1.425 . S
C496 C503 1.409 . S
C497 H489 0.924 1_455 S
C497 C495 1.419 . S
C497 C498 1.362 . S
C498 H490 0.930 1_455 S
C498 C497 1.362 . S
C498 C501 1.409 . S
C499 H491 0.930 1_455 S
C499 C500 1.355 . S
C499 C501 1.415 . S
C500 C499 1.355 . S
C500 C502 1.419 . S
C501 C496 1.425 . S
C501 C498 1.409 . S
C501 C499 1.415 . S
C502 H492 0.930 . S
C502 C500 1.419 . S
C502 C503 1.362 . S
C503 H493 0.930 . S
C503 C496 1.409 . S
C503 C502 1.362 . S
H504 C510 0.930 . S
H505 C513 0.930 . S
H506 C514 0.930 . S
H507 C515 0.930 . S
H508 C518 0.930 . S
H509 C519 0.930 . S
C510 H504 0.930 . S
C510 C511 1.355 1_545 S
C510 C512 1.415 . S
C511 C510 1.355 1_565 S
C511 C513 1.419 . S
C512 C510 1.415 . S
C512 C517 1.425 1_545 S
C512 C519 1.409 1_554 S
C513 H505 0.930 . S
C513 C511 1.419 . S
C513 C514 1.362 . S
C514 H506 0.930 . S
C514 C513 1.362 . S
C514 C517 1.409 . S
C515 H507 0.930 . S
C515 C516 1.355 1_565 S
C515 C517 1.415 1_556 S
C516 C515 1.355 1_545 S
C516 C518 1.419 . S
C517 C512 1.425 1_565 S
C517 C514 1.409 . S
C517 C515 1.415 1_554 S
C518 H508 0.930 . S
C518 C516 1.419 . S
C518 C519 1.362 . S
C519 H509 0.930 . S
C519 C512 1.409 1_556 S
C519 C518 1.362 . S
H520 C526 0.930 . S
H521 C529 0.930 . S
H522 C530 0.930 1_556 S
H523 C531 0.930 . S
H524 C534 0.930 . S
H525 C535 0.930 . S
C526 H520 0.930 . S
C526 C527 1.355 . S
C526 C528 1.415 . S
C527 C526 1.355 . S
C527 C529 1.419 . S
C528 C526 1.415 . S
C528 C533 1.425 . S
C528 C535 1.409 . S
C529 H521 0.930 . S
C529 C527 1.419 . S
C529 C530 1.362 . S
C530 H522 0.930 1_554 S
C530 C529 1.362 . S
C530 C533 1.409 . S
C531 H523 0.930 . S
C531 C532 1.355 . S
C531 C533 1.415 1_556 S
C532 C531 1.355 . S
C532 C534 1.419 1_556 S
C533 C528 1.425 . S
C533 C530 1.409 . S
C533 C531 1.415 1_554 S
C534 H524 0.930 . S
C534 C532 1.419 1_554 S
C534 C535 1.362 . S
C535 H525 0.930 . S
C535 C528 1.409 . S
C535 C534 1.362 . S
H536 C542 0.930 . S
H537 C545 0.930 . S
H538 C546 0.930 1_556 S
H539 C547 0.930 . S
H540 C550 0.930 1_556 S
H541 C551 0.930 . S
C542 H536 0.930 . S
C542 C543 1.355 . S
C542 C544 1.415 . S
C543 C542 1.355 . S
C543 C545 1.419 . S
C544 C542 1.415 . S
C544 C549 1.425 . S
C544 C551 1.409 . S
C545 H537 0.930 . S
C545 C543 1.419 . S
C545 C546 1.362 . S
C546 H538 0.930 1_554 S
C546 C545 1.362 . S
C546 C549 1.409 . S
C547 H539 0.930 . S
C547 C548 1.355 . S
C547 C549 1.415 1_556 S
C548 C547 1.355 . S
C548 C550 1.419 1_556 S
C549 C544 1.425 . S
C549 C546 1.409 . S
C549 C547 1.415 1_554 S
C550 H540 0.930 1_554 S
C550 C548 1.419 1_554 S
C550 C551 1.362 . S
C551 H541 0.930 . S
C551 C544 1.409 . S
C551 C550 1.362 . S
H552 C558 0.930 . S
H553 C561 0.930 . S
H554 C562 0.930 . S
H555 C563 0.929 . S
H556 C566 0.930 . S
H557 C567 0.930 . S
C558 H552 0.930 . S
C558 C559 1.355 . S
C558 C560 1.415 . S
C559 C558 1.355 . S
C559 C561 1.419 . S
C560 C558 1.415 . S
C560 C565 1.425 . S
C560 C567 1.409 1_554 S
C561 H553 0.930 . S
C561 C559 1.419 . S
C561 C562 1.362 . S
C562 H554 0.930 . S
C562 C561 1.362 . S
C562 C565 1.409 . S
C563 H555 0.929 . S
C563 C564 1.355 1_554 S
C563 C565 1.415 . S
C564 C563 1.355 1_556 S
C564 C566 1.419 . S
C565 C560 1.425 . S
C565 C562 1.409 . S
C565 C563 1.415 . S
C566 H556 0.930 . S
C566 C564 1.419 . S
C566 C567 1.362 . S
C567 H557 0.930 . S
C567 C560 1.409 1_556 S
C567 C566 1.362 . S
H568 C574 0.930 . S
H569 C577 0.930 . S
H570 C578 0.930 1_655 S
H571 C579 0.930 . S
H572 C582 0.930 . S
H573 C583 0.930 . S
C574 H568 0.930 . S
C574 C575 1.355 . S
C574 C576 1.415 . S
C575 C574 1.355 . S
C575 C577 1.419 . S
C576 C574 1.415 . S
C576 C581 1.425 . S
C576 C583 1.409 . S
C577 H569 0.930 . S
C577 C575 1.419 . S
C577 C578 1.362 . S
C578 H570 0.930 1_455 S
C578 C577 1.362 . S
C578 C581 1.409 . S
C579 H571 0.930 . S
C579 C580 1.355 1_655 S
C579 C581 1.415 1_655 S
C580 C579 1.355 1_455 S
C580 C582 1.419 . S
C581 C576 1.425 . S
C581 C578 1.409 . S
C581 C579 1.415 1_455 S
C582 H572 0.930 . S
C582 C580 1.419 . S
C582 C583 1.362 . S
C583 H573 0.930 . S
C583 C576 1.409 . S
C583 C582 1.362 . S
H584 C590 0.930 . S
H585 C593 0.930 . S
H586 C594 0.930 1_565 S
H587 C595 0.930 . S
H588 C598 0.930 . S
H589 C599 0.930 . S
C590 H584 0.930 . S
C590 C591 1.355 . S
C590 C592 1.415 . S
C591 C590 1.355 . S
C591 C593 1.419 . S
C592 C590 1.415 . S
C592 C597 1.425 . S
C592 C599 1.409 . S
C593 H585 0.930 . S
C593 C591 1.419 . S
C593 C594 1.362 . S
C594 H586 0.930 1_545 S
C594 C593 1.362 . S
C594 C597 1.409 . S
C595 H587 0.930 . S
C595 C596 1.355 1_565 S
C595 C597 1.415 1_565 S
C596 C595 1.355 1_545 S
C596 C598 1.419 . S
C597 C592 1.425 . S
C597 C594 1.409 . S
C597 C595 1.415 1_545 S
C598 H588 0.930 . S
C598 C596 1.419 . S
C598 C599 1.362 . S
C599 H589 0.930 . S
C599 C592 1.409 . S
C599 C598 1.362 . S
H600 C606 0.930 . S
H601 C609 0.930 . S
H602 C610 0.930 . S
H603 C611 0.930 . S
H604 C614 0.930 . S
H605 C615 0.930 . S
C606 H600 0.930 . S
C606 C607 1.355 . S
C606 C608 1.415 . S
C607 C606 1.355 . S
C607 C609 1.419 . S
C608 C606 1.415 . S
C608 C613 1.425 . S
C608 C615 1.409 . S
C609 H601 0.930 . S
C609 C607 1.419 . S
C609 C610 1.362 . S
C610 H602 0.930 . S
C610 C609 1.362 . S
C610 C613 1.409 . S
C611 H603 0.930 . S
C611 C612 1.355 . S
C611 C613 1.415 . S
C612 C611 1.355 . S
C612 C614 1.419 . S
C613 C608 1.425 . S
C613 C610 1.409 . S
C613 C611 1.415 . S
C614 H604 0.930 . S
C614 C612 1.419 . S
C614 C615 1.362 . S
C615 H605 0.930 . S
C615 C608 1.409 . S
C615 C614 1.362 . S
H616 C622 0.930 . S
H617 C625 0.930 . S
H618 C626 0.930 . S
H619 C627 0.930 . S
H620 C630 0.930 . S
H621 C631 0.930 . S
C622 H616 0.930 . S
C622 C623 1.355 . S
C622 C624 1.415 . S
C623 C622 1.355 . S
C623 C625 1.419 . S
C624 C622 1.415 . S
C624 C629 1.425 . S
C624 C631 1.409 . S
C625 H617 0.930 . S
C625 C623 1.419 . S
C625 C626 1.362 . S
C626 H618 0.930 . S
C626 C625 1.362 . S
C626 C629 1.409 . S
C627 H619 0.930 . S
C627 C628 1.355 . S
C627 C629 1.415 . S
C628 C627 1.355 . S
C628 C630 1.419 . S
C629 C624 1.425 . S
C629 C626 1.409 . S
C629 C627 1.415 . S
C630 H620 0.930 . S
C630 C628 1.419 . S
C630 C631 1.362 . S
C631 H621 0.930 . S
C631 C624 1.409 . S
C631 C630 1.362 . S
H632 C638 0.912 1_455 S
H633 C641 0.930 . S
H634 C642 0.930 . S
H635 C643 0.930 . S
H636 C646 0.930 . S
H637 C647 0.930 . S
C638 H632 0.912 1_655 S
C638 C639 1.382 . S
C638 C640 1.406 1_655 S
C639 C638 1.382 . S
C639 C641 1.419 . S
C640 C638 1.406 1_455 S
C640 C645 1.425 1_455 S
C640 C647 1.409 . S
C641 H633 0.930 . S
C641 C639 1.419 . S
C641 C642 1.362 . S
C642 H634 0.930 . S
C642 C641 1.362 . S
C642 C645 1.409 . S
C643 H635 0.930 . S
C643 C644 1.355 1_655 S
C643 C645 1.415 . S
C644 C643 1.355 1_455 S
C644 C646 1.419 . S
C645 C640 1.425 1_655 S
C645 C642 1.409 . S
C645 C643 1.415 . S
C646 H636 0.930 . S
C646 C644 1.419 . S
C646 C647 1.362 . S
C647 H637 0.930 . S
C647 C640 1.409 . S
C647 C646 1.362 . S
H648 C654 0.930 . S
H649 C657 0.930 . S
H650 C658 0.930 . S
H651 C659 0.930 . S
H652 C662 0.930 1_556 S
H653 C663 0.930 . S
C654 H648 0.930 . S
C654 C655 1.355 . S
C654 C656 1.415 . S
C655 C654 1.355 . S
C655 C657 1.419 . S
C656 C654 1.415 . S
C656 C661 1.425 1_565 S
C656 C663 1.409 1_565 S
C657 H649 0.930 . S
C657 C655 1.419 . S
C657 C658 1.362 . S
C658 H650 0.930 . S
C658 C657 1.362 . S
C658 C661 1.409 1_565 S
C659 H651 0.930 . S
C659 C660 1.355 . S
C659 C661 1.415 . S
C660 C659 1.355 . S
C660 C662 1.419 . S
C661 C656 1.425 1_545 S
C661 C658 1.409 1_545 S
C661 C659 1.415 . S
C662 H652 0.930 1_554 S
C662 C660 1.419 . S
C662 C663 1.362 . S
C663 H653 0.930 . S
C663 C656 1.409 1_545 S
C663 C662 1.362 . S
H664 C670 0.930 . S
H665 C673 0.930 . S
H666 C674 0.930 . S
H667 C675 0.930 . S
H668 C678 0.930 1_556 S
H669 C679 0.930 . S
C670 H664 0.930 . S
C670 C671 1.355 . S
C670 C672 1.415 . S
C671 C670 1.355 . S
C671 C673 1.419 . S
C672 C670 1.415 . S
C672 C677 1.425 . S
C672 C679 1.409 . S
C673 H665 0.930 . S
C673 C671 1.419 . S
C673 C674 1.362 . S
C674 H666 0.930 . S
C674 C673 1.362 . S
C674 C677 1.409 . S
C675 H667 0.930 . S
C675 C676 1.355 . S
C675 C677 1.415 . S
C676 C675 1.355 . S
C676 C678 1.419 . S
C677 C672 1.425 . S
C677 C674 1.409 . S
C677 C675 1.415 . S
C678 H668 0.930 1_554 S
C678 C676 1.419 . S
C678 C679 1.362 . S
C679 H669 0.930 . S
C679 C672 1.409 . S
C679 C678 1.362 . S
H680 C686 0.930 . S
H681 C689 0.930 . S
H682 C690 0.930 . S
H683 C691 0.930 . S
H684 C694 0.930 . S
H685 C695 0.930 . S
C686 H680 0.930 . S
C686 C687 1.355 . S
C686 C688 1.415 . S
C687 C686 1.355 . S
C687 C689 1.419 . S
C688 C686 1.415 . S
C688 C693 1.425 . S
C688 C695 1.409 . S
C689 H681 0.930 . S
C689 C687 1.419 . S
C689 C690 1.362 . S
C690 H682 0.930 . S
C690 C689 1.362 . S
C690 C693 1.409 . S
C691 H683 0.930 . S
C691 C692 1.355 . S
C691 C693 1.415 . S
C692 C691 1.355 . S
C692 C694 1.419 . S
C693 C688 1.425 . S
C693 C690 1.409 . S
C693 C691 1.415 . S
C694 H684 0.930 . S
C694 C692 1.419 . S
C694 C695 1.362 . S
C695 H685 0.930 . S
C695 C688 1.409 . S
C695 C694 1.362 . S
H696 C702 0.930 . S
H697 C705 0.911 1_655 S
H698 C706 0.930 . S
H699 C707 0.930 1_655 S
H700 C710 0.930 . S
H701 C711 0.930 . S
C702 H696 0.930 . S
C702 C703 1.355 . S
C702 C704 1.415 . S
C703 C702 1.355 . S
C703 C705 1.445 . S
C704 C702 1.415 . S
C704 C709 1.425 . S
C704 C711 1.409 . S
C705 H697 0.911 1_455 S
C705 C703 1.445 . S
C705 C706 1.356 1_455 S
C706 H698 0.930 . S
C706 C705 1.356 1_655 S
C706 C709 1.409 1_655 S
C707 H699 0.930 1_455 S
C707 C708 1.355 . S
C707 C709 1.415 . S
C708 C707 1.355 . S
C708 C710 1.419 . S
C709 C704 1.425 . S
C709 C706 1.409 1_455 S
C709 C707 1.415 . S
C710 H700 0.930 . S
C710 C708 1.419 . S
C710 C711 1.362 . S
C711 H701 0.930 . S
C711 C704 1.409 . S
C711 C710 1.362 . S
H712 C718 0.930 . S
H713 C721 0.930 1_554 S
H714 C722 0.930 1_554 S
H715 C723 0.930 . S
H716 C726 0.930 . S
H717 C727 0.930 . S
C718 H712 0.930 . S
C718 C719 1.355 . S
C718 C720 1.415 . S
C719 C718 1.355 . S
C719 C721 1.419 . S
C720 C718 1.415 . S
C720 C725 1.425 . S
C720 C727 1.409 . S
C721 H713 0.930 1_556 S
C721 C719 1.419 . S
C721 C722 1.362 . S
C722 H714 0.930 1_556 S
C722 C721 1.362 . S
C722 C725 1.409 . S
C723 H715 0.930 . S
C723 C724 1.355 . S
C723 C725 1.415 . S
C724 C723 1.355 . S
C724 C726 1.419 . S
C725 C720 1.425 . S
C725 C722 1.409 . S
C725 C723 1.415 . S
C726 H716 0.930 . S
C726 C724 1.419 . S
C726 C727 1.362 . S
C727 H717 0.930 . S
C727 C720 1.409 . S
C727 C726 1.362 . S
H728 C734 0.930 . S
H729 C737 0.930 . S
H730 C738 0.930 . S
H731 C739 0.930 . S
H732 C742 0.930 . S
H733 C743 0.930 . S
C734 H728 0.930 . S
C734 C735 1.355 . S
C734 C736 1.415 . S
C735 C734 1.355 . S
C735 C737 1.419 . S
C736 C734 1.415 . S
C736 C741 1.425 . S
C736 C743 1.409 . S
C737 H729 0.930 . S
C737 C735 1.419 . S
C737 C738 1.362 . S
C738 H730 0.930 . S
C738 C737 1.362 . S
C738 C741 1.409 . S
C739 H731 0.930 . S
C739 C740 1.355 . S
C739 C741 1.415 . S
C740 C739 1.355 . S
C740 C742 1.419 . S
C741 C736 1.425 . S
C741 C738 1.409 . S
C741 C739 1.415 . S
C742 H732 0.930 . S
C742 C740 1.419 . S
C742 C743 1.362 . S
C743 H733 0.930 . S
C743 C736 1.409 . S
C743 C742 1.362 . S
H744 C750 0.930 . S
H745 C753 0.930 1_554 S
H746 C754 0.930 1_554 S
H747 C755 0.930 . S
H748 C758 0.930 . S
H749 C759 0.930 . S
C750 H744 0.930 . S
C750 C751 1.355 . S
C750 C752 1.415 . S
C751 C750 1.355 . S
C751 C753 1.419 . S
C752 C750 1.415 . S
C752 C757 1.425 . S
C752 C759 1.409 . S
C753 H745 0.930 1_556 S
C753 C751 1.419 . S
C753 C754 1.362 . S
C754 H746 0.930 1_556 S
C754 C753 1.362 . S
C754 C757 1.409 . S
C755 H747 0.930 . S
C755 C756 1.355 . S
C755 C757 1.415 . S
C756 C755 1.355 . S
C756 C758 1.419 . S
C757 C752 1.425 . S
C757 C754 1.409 . S
C757 C755 1.415 . S
C758 H748 0.930 . S
C758 C756 1.419 . S
C758 C759 1.362 . S
C759 H749 0.930 . S
C759 C752 1.409 . S
C759 C758 1.362 . S
H760 C766 0.930 . S
H761 C769 0.930 . S
H762 C770 0.930 . S
H763 C771 0.930 . S
H764 C774 0.930 . S
H765 C775 0.930 . S
C766 H760 0.930 . S
C766 C767 1.355 1_455 S
C766 C768 1.415 . S
C767 C766 1.355 1_655 S
C767 C769 1.419 . S
C768 C766 1.415 . S
C768 C773 1.425 1_455 S
C768 C775 1.409 . S
C769 H761 0.930 . S
C769 C767 1.419 . S
C769 C770 1.362 . S
C770 H762 0.930 . S
C770 C769 1.362 . S
C770 C773 1.409 . S
C771 H763 0.930 . S
C771 C772 1.355 . S
C771 C773 1.415 . S
C772 C771 1.355 . S
C772 C774 1.419 1_655 S
C773 C768 1.425 1_655 S
C773 C770 1.409 . S
C773 C771 1.415 . S
C774 H764 0.930 . S
C774 C772 1.419 1_455 S
C774 C775 1.362 . S
C775 H765 0.930 . S
C775 C768 1.409 . S
C775 C774 1.362 . S
H776 C782 0.930 . S
H777 C785 0.930 . S
H778 C786 0.930 . S
H779 C787 0.930 . S
H780 C790 0.930 . S
H781 C791 0.930 . S
C782 H776 0.930 . S
C782 C783 1.355 . S
C782 C784 1.415 . S
C783 C782 1.355 . S
C783 C785 1.419 1_565 S
C784 C782 1.415 . S
C784 C789 1.425 1_565 S
C784 C791 1.409 . S
C785 H777 0.930 . S
C785 C783 1.419 1_545 S
C785 C786 1.362 . S
C786 H778 0.930 . S
C786 C785 1.362 . S
C786 C789 1.409 . S
C787 H779 0.930 . S
C787 C788 1.355 1_545 S
C787 C789 1.415 . S
C788 C787 1.355 1_565 S
C788 C790 1.419 . S
C789 C784 1.425 1_545 S
C789 C786 1.409 . S
C789 C787 1.415 . S
C790 H780 0.930 . S
C790 C788 1.419 . S
C790 C791 1.362 . S
C791 H781 0.930 . S
C791 C784 1.409 . S
C791 C790 1.362 . S
H792 C798 0.930 . S
H793 C801 0.930 . S
H794 C802 0.930 . S
H795 C803 0.930 . S
H796 C806 0.930 . S
H797 C807 0.930 . S
C798 H792 0.930 . S
C798 C799 1.355 . S
C798 C800 1.415 . S
C799 C798 1.355 . S
C799 C801 1.419 . S
C800 C798 1.415 . S
C800 C805 1.425 . S
C800 C807 1.409 . S
C801 H793 0.930 . S
C801 C799 1.419 . S
C801 C802 1.362 . S
C802 H794 0.930 . S
C802 C801 1.362 . S
C802 C805 1.409 . S
C803 H795 0.930 . S
C803 C804 1.355 . S
C803 C805 1.415 . S
C804 C803 1.355 . S
C804 C806 1.419 . S
C805 C800 1.425 . S
C805 C802 1.409 . S
C805 C803 1.415 . S
C806 H796 0.930 . S
C806 C804 1.419 . S
C806 C807 1.362 . S
C807 H797 0.930 . S
C807 C800 1.409 . S
C807 C806 1.362 . S
H808 C814 0.930 . S
H809 C817 0.930 . S
H810 C818 0.930 . S
H811 C819 0.930 . S
H812 C822 0.930 . S
H813 C823 0.930 . S
C814 H808 0.930 . S
C814 C815 1.355 . S
C814 C816 1.415 . S
C815 C814 1.355 . S
C815 C817 1.419 . S
C816 C814 1.415 . S
C816 C821 1.425 . S
C816 C823 1.409 . S
C817 H809 0.930 . S
C817 C815 1.419 . S
C817 C818 1.362 . S
C818 H810 0.930 . S
C818 C817 1.362 . S
C818 C821 1.409 . S
C819 H811 0.930 . S
C819 C820 1.355 . S
C819 C821 1.415 . S
C820 C819 1.355 . S
C820 C822 1.419 . S
C821 C816 1.425 . S
C821 C818 1.409 . S
C821 C819 1.415 . S
C822 H812 0.930 . S
C822 C820 1.419 . S
C822 C823 1.362 . S
C823 H813 0.930 . S
C823 C816 1.409 . S
C823 C822 1.362 . S
C447 C82 1.825 . S
C452 C167 2.078 . S
C468 C244 2.063 . S
C463 C95 1.721 . S
C484 C335 2.076 . S
C479 C56 1.792 . S
C500 C419 2.066 . S
C495 C69 1.795 . S
C516 C178 2.052 . S
C511 C30 1.770 . S
C527 C43 1.680 . S
C532 C255 2.057 . S
C543 C4 1.676 . S
C548 C346 2.049 . S
C559 C17 1.779 . S
C564 C430 2.055 1_655 S
C580 C162 0.752 1_455 S
C575 C74 0.661 . S
C596 C257 0.739 . S
C591 C87 0.570 . S
C612 C330 0.636 . S
C607 C100 0.608 . S
C623 C61 0.701 . S
C628 C414 0.701 . S
C639 C22 0.728 . S
C644 C173 0.627 . S
C660 C246 0.745 . S
C655 C35 0.573 . S
C676 C341 0.733 . S
C671 C48 0.608 . S
C687 C9 0.659 . S
C692 C425 0.737 . S
C703 C73 1.963 . S
C708 C171 2.170 . S
C719 C86 1.920 . S
C724 C262 2.199 . S
C740 C339 2.187 . S
C735 C99 1.977 . S
C756 C423 2.175 . S
C751 C60 1.939 . S
C767 C21 1.965 . S
C772 C160 2.171 . S
C788 C251 2.200 1_565 S
C783 C34 1.966 . S
C804 C328 2.183 . S
C799 C47 1.969 . S
C815 C8 1.940 . S
C820 C412 2.176 . S
