# Generated by pormake.
# Topology anh, (6,3)-cn, num edge types: 1
# Building blocks:
#     Node 0, Type 0, BuildingBlock: PAMTUU_clean_sbu_0, # of connection points: 6
#     Node 1, Type 0, BuildingBlock: PAMTUU_clean_sbu_0, # of connection points: 6
#     Node 2, Type 0, BuildingBlock: PAMTUU_clean_sbu_0, # of connection points: 6
#     Node 3, Type 1, BuildingBlock: ESEHIV_clean_linker_0, # of connection points: 3
#     Node 4, Type 1, BuildingBlock: ESEHIV_clean_linker_0, # of connection points: 3
#     Node 5, Type 1, BuildingBlock: ESEHIV_clean_linker_0, # of connection points: 3
#     Node 6, Type 1, BuildingBlock: ESEHIV_clean_linker_0, # of connection points: 3
#     Node 7, Type 1, BuildingBlock: ESEHIV_clean_linker_0, # of connection points: 3
#     Node 8, Type 1, BuildingBlock: ESEHIV_clean_linker_0, # of connection points: 3
#     Edge 9, Type (0, 1), BuildingBlock: OJICUG_clean_linker_0, # of connection points: 2
#     Edge 10, Type (0, 1), BuildingBlock: OJICUG_clean_linker_0, # of connection points: 2
#     Edge 11, Type (0, 1), BuildingBlock: OJICUG_clean_linker_0, # of connection points: 2
#     Edge 12, Type (0, 1), BuildingBlock: OJICUG_clean_linker_0, # of connection points: 2
#     Edge 13, Type (0, 1), BuildingBlock: OJICUG_clean_linker_0, # of connection points: 2
#     Edge 14, Type (0, 1), BuildingBlock: OJICUG_clean_linker_0, # of connection points: 2
#     Edge 15, Type (0, 1), BuildingBlock: OJICUG_clean_linker_0, # of connection points: 2
#     Edge 16, Type (0, 1), BuildingBlock: OJICUG_clean_linker_0, # of connection points: 2
#     Edge 17, Type (0, 1), BuildingBlock: OJICUG_clean_linker_0, # of connection points: 2
#     Edge 18, Type (0, 1), BuildingBlock: OJICUG_clean_linker_0, # of connection points: 2
#     Edge 19, Type (0, 1), BuildingBlock: OJICUG_clean_linker_0, # of connection points: 2
#     Edge 20, Type (0, 1), BuildingBlock: OJICUG_clean_linker_0, # of connection points: 2
#     Edge 21, Type (0, 1), BuildingBlock: OJICUG_clean_linker_0, # of connection points: 2
#     Edge 22, Type (0, 1), BuildingBlock: OJICUG_clean_linker_0, # of connection points: 2
#     Edge 23, Type (0, 1), BuildingBlock: OJICUG_clean_linker_0, # of connection points: 2
#     Edge 24, Type (0, 1), BuildingBlock: OJICUG_clean_linker_0, # of connection points: 2
#     Edge 25, Type (0, 1), BuildingBlock: OJICUG_clean_linker_0, # of connection points: 2
#     Edge 26, Type (0, 1), BuildingBlock: OJICUG_clean_linker_0, # of connection points: 2
# Relax obj value: 0.459
# Max RMSD: 0.223
# Mean RMSD: 0.181
data_MOF--net-anh--node1-PAMTUU_clean_sbu_0--node2-ESEHIV_clean_linker_0--edge1-OJICUG_clean_linker_0
_symmetry_space_group_name_H-M    P1
_symmetry_Int_Tables_number       1
_symmetry_cell_setting            triclinic
loop_
_symmetry_equiv_pos_as_xyz
'x, y, z'
_cell_length_a     19.763441
_cell_length_b     19.838932
_cell_length_c     37.846531
_cell_angle_alpha  91.874184
_cell_angle_beta   91.961408
_cell_angle_gamma 119.65307
loop_
_atom_site_label
_atom_site_type_symbol
_atom_site_fract_x
_atom_site_fract_y
_atom_site_fract_z
_atom_type_partial_charge
Tb0 Tb 0.26198 0.78307 0.17193 0.0
Tb1 Tb 0.34684 0.68946 0.1902 0.0
C2 C 0.30542 0.70357 0.10985 0.0
C3 C 1.08853 0.77014 0.14473 0.0
C4 C 0.96848 0.61626 0.12776 0.0
C5 C 1.01205 0.66411 0.101 0.0
C6 C 1.07137 0.74027 0.10937 0.0
C7 C 1.03782 0.72579 0.17057 0.0
C8 C 0.97948 0.64927 0.16233 0.0
C9 C 1.16962 0.82944 0.15614 0.0
O10 O 1.17025 0.66903 0.192 0.0
O11 O 0.22419 0.59547 0.17713 0.0
O12 O 0.30582 0.7142 0.23964 0.0
O13 O 0.31109 0.82599 0.22433 0.0
O14 O 0.34222 0.59658 0.21734 0.0
O15 O 0.44352 0.67259 0.18969 0.0
O16 O 0.44204 0.81327 0.20014 0.0
O17 O 0.38796 0.87688 0.17122 0.0
O18 O 0.25596 0.72332 0.12178 0.0
O19 O 0.35252 0.6943 0.13204 0.0
C20 C 1.16249 0.59883 0.18719 0.0
O21 O 1.18988 0.82621 0.18888 0.0
O22 O 0.22314 0.83568 0.13497 0.0
C23 C 0.30357 0.77772 0.24823 0.0
C24 C 0.40102 0.53898 0.18514 0.0
C25 C 0.40171 0.41505 0.14711 0.0
C26 C 0.40071 0.41661 0.18435 0.0
C27 C 0.40102 0.47856 0.20323 0.0
C28 C 0.39466 0.53396 0.14801 0.0
C29 C 0.3955 0.47296 0.12918 0.0
C30 C 0.40677 0.60675 0.20479 0.0
C31 C 0.44986 0.87847 0.18746 0.0
H32 H 1.00228 0.64199 0.07366 0.0
H33 H 1.10836 0.77304 0.08865 0.0
H34 H 1.04842 0.74704 0.19808 0.0
H35 H 0.94621 0.61494 0.18357 0.0
H36 H 0.40375 0.37212 0.199 0.0
H37 H 0.40363 0.48046 0.23191 0.0
H38 H 0.39246 0.57901 0.13346 0.0
H39 H 0.39696 0.4747 0.10065 0.0
Tb40 Tb 0.6993 0.14459 0.50191 0.0
Tb41 Tb 0.87946 0.22501 0.52193 0.0
C42 C 0.81459 0.20233 0.44147 0.0
C43 C 0.49453 1.10451 0.49695 0.0
C44 C 0.36216 1.12238 0.49167 0.0
C45 C 0.36064 1.06087 0.51003 0.0
C46 C 0.42606 1.05161 0.51219 0.0
C47 C 0.50042 0.17287 0.48413 0.0
C48 C 0.43464 0.18202 0.48177 0.0
C49 C 0.55427 1.08236 0.49076 0.0
O50 O 0.71925 1.04574 0.51688 0.0
O51 O 0.85135 1.10226 0.51254 0.0
O52 O 0.81228 0.16387 0.56685 0.0
O53 O 0.7222 0.19719 0.55444 0.0
O54 O 0.99624 0.26298 0.51104 0.0
O55 O 0.96479 0.27815 0.56349 0.0
O56 O 0.85535 0.32351 0.52985 0.0
O57 O 0.73306 0.27069 0.50259 0.0
O58 O 0.74945 0.14503 0.45175 0.0
O59 O 0.87072 0.24784 0.46528 0.0
C60 C 0.78347 1.03937 0.51696 0.0
O61 O 0.60431 1.11987 0.46719 0.0
O62 O 0.58683 1.07067 0.51866 0.0
C63 C 0.75583 0.1746 0.57728 0.0
C64 C 1.07448 0.38447 0.54193 0.0
C65 C 1.13685 0.54115 0.52684 0.0
C66 C 1.09429 0.51329 0.55702 0.0
C67 C 1.06358 0.43562 0.56463 0.0
C68 C 1.12539 0.41481 0.5145 0.0
C69 C 1.15619 0.49255 0.50692 0.0
C70 C 1.02137 0.29982 0.54213 0.0
C71 C 0.79589 0.33185 0.5181 0.0
H72 H 0.30651 1.01384 0.51848 0.0
H73 H 0.42088 0.9994 0.52296 0.0
H74 H 0.5537 0.21606 0.47323 0.0
H75 H 0.43826 0.2309 0.46825 0.0
H76 H 1.07993 0.55 0.57322 0.0
H77 H 1.02591 0.41458 0.58653 0.0
H78 H 1.13558 0.37696 0.49689 0.0
H79 H 1.18891 0.5123 0.48344 0.0
Tb80 Tb 0.7545 0.57303 0.84048 0.0
Tb81 Tb 0.83999 0.75684 0.85314 0.0
C82 C 0.79325 0.677 0.7747 0.0
C83 C 0.59919 0.36841 0.82376 0.0
C84 C 0.45743 0.24898 0.79241 0.0
C85 C 0.48468 0.32662 0.78414 0.0
C86 C 0.55539 0.38605 0.79968 0.0
C87 C 0.56818 0.29297 0.83501 0.0
C88 C 0.49773 0.23373 0.81964 0.0
C89 C 0.67824 0.42697 0.83654 0.0
O90 O 0.88028 0.60505 0.83898 0.0
O91 O 0.93755 0.73141 0.86171 0.0
O92 O 0.78153 0.70127 0.90071 0.0
O93 O 0.8113 0.60752 0.89255 0.0
O94 O 0.88383 0.86841 0.83463 0.0
O95 O 0.89688 0.85296 0.89001 0.0
O96 O 0.71554 0.72749 0.84651 0.0
O97 O 0.65809 0.59682 0.85392 0.0
O98 O 0.74439 0.61115 0.78812 0.0
O99 O 0.84362 0.73693 0.79558 0.0
C100 C 0.94335 0.6694 0.8522 0.0
O101 O 0.68241 0.4694 0.86436 0.0
O102 O 0.72534 0.46818 0.81261 0.0
C103 C 0.79124 0.64637 0.91369 0.0
C104 C 0.85703 0.94259 0.8739 0.0
C105 C 0.74217 0.98128 0.85719 0.0
C106 C 0.72633 0.92159 0.87995 0.0
C107 C 0.78367 0.90237 0.8884 0.0
C108 C 0.87637 1.01004 0.85602 0.0
C109 C 0.81895 1.02946 0.84771 0.0
C110 C 0.89929 0.90073 0.86657 0.0
C111 C 0.65257 0.6608 0.85245 0.0
H112 H 0.45475 0.34041 0.76357 0.0
H113 H 0.5779 0.44483 0.79146 0.0
H114 H 0.6007 0.27892 0.85416 0.0
H115 H 0.47946 0.17491 0.82665 0.0
H116 H 0.66731 0.88387 0.88744 0.0
H117 H 0.76718 0.84993 0.90222 0.0
H118 H 0.93239 1.04145 0.84444 0.0
H119 H 0.83193 1.07543 0.82987 0.0
H120 H 0.71835 0.127 0.27936 0.0
H121 H 0.92495 0.35217 0.28489 0.0
H122 H 0.80776 0.24199 0.18304 0.0
C123 C 0.76071 0.17689 0.26611 0.0
C124 C 0.75212 0.17514 0.2289 0.0
C125 C 0.82137 0.23981 0.28682 0.0
C126 C 0.87837 0.30384 0.26916 0.0
C127 C 0.87662 0.30715 0.23161 0.0
C128 C 0.81167 0.2415 0.21161 0.0
H129 H 0.78263 0.79404 0.6156 0.0
H130 H 0.79817 0.58533 0.61314 0.0
H131 H 0.78982 0.68736 0.51505 0.0
C132 C 0.78613 0.7487 0.60042 0.0
C133 C 0.78596 0.75057 0.56293 0.0
C134 C 0.79012 0.6895 0.61878 0.0
C135 C 0.7943 0.63009 0.59903 0.0
C136 C 0.79398 0.62648 0.56168 0.0
C137 C 0.7899 0.68805 0.54366 0.0
H138 H 0.19647 0.6729 0.94717 0.0
H139 H 0.41245 0.66875 0.95069 0.0
H140 H 0.29896 0.66268 0.84983 0.0
C141 C 0.24339 0.67193 0.93362 0.0
C142 C 0.23875 0.66885 0.89626 0.0
C143 C 0.30545 0.67275 0.95384 0.0
C144 C 0.36428 0.66748 0.93556 0.0
C145 C 0.36421 0.6636 0.89803 0.0
C146 C 0.30045 0.66481 0.87847 0.0
H147 H 1.16932 0.70733 0.40065 0.0
H148 H 1.18022 0.91618 0.36616 0.0
H149 H 1.14207 0.85603 0.47526 0.0
C150 C 1.16565 0.75941 0.40602 0.0
C151 C 1.15232 0.77609 0.44028 0.0
C152 C 1.17842 0.8108 0.37937 0.0
C153 C 1.17052 0.87661 0.3868 0.0
C154 C 1.1581 0.89543 0.42146 0.0
C155 C 1.14713 0.84267 0.44787 0.0
H156 H 0.46007 1.04251 0.66634 0.0
H157 H 0.62983 0.99616 0.71616 0.0
H158 H 0.45086 0.99293 0.77689 0.0
C159 C 0.48062 1.02521 0.68932 0.0
C160 C 0.44556 1.01884 0.72176 0.0
C161 C 0.54944 1.02102 0.68754 0.0
C162 C 0.57542 0.997 0.71678 0.0
C163 C 0.53795 0.9845 0.74858 0.0
C164 C 0.47361 0.99555 0.75105 0.0
H165 H 0.55787 0.41208 0.02574 0.0
H166 H 0.78513 0.43828 0.02123 0.0
H167 H 0.62997 0.28885 0.0956 0.0
C168 C 0.59835 0.39252 0.03338 0.0
C169 C 0.58176 0.34142 0.06109 0.0
C170 C 0.67172 0.42737 0.01889 0.0
C171 C 0.72746 0.40853 0.03136 0.0
C172 C 0.71536 0.36582 0.06154 0.0
C173 C 0.63942 0.32393 0.07299 0.0
C174 C 0.48607 0.35519 0.14261 0.0
C175 C 0.42576 0.36484 0.12757 0.0
H176 H 0.58203 0.33913 0.13376 0.0
C177 C 0.40296 0.34235 0.09152 0.0
H178 H 0.50536 0.37117 0.17025 0.0
C179 C 0.44822 0.32387 0.06992 0.0
C180 C 0.5168 0.32761 0.08411 0.0
H181 H 0.35462 0.34609 0.07934 0.0
H182 H 0.43365 0.31398 0.04168 0.0
C183 C 0.53093 0.33667 0.12118 0.0
C184 C 1.086 0.62922 0.50997 0.0
C185 C 1.14861 0.61417 0.51226 0.0
H186 H 1.03838 0.69351 0.48504 0.0
C187 C 0.21678 0.66172 0.49514 0.0
H188 H 1.03232 0.59302 0.52259 0.0
C189 C 0.2195 0.71818 0.47342 0.0
C190 C 1.15436 0.72826 0.4687 0.0
H191 H 0.26618 0.65215 0.49687 0.0
H192 H 0.27101 0.75128 0.45879 0.0
C193 C 1.08901 0.68621 0.48835 0.0
C194 C 0.64687 0.91682 0.80678 0.0
C195 C 0.67829 0.97559 0.83402 0.0
H196 H 0.57593 0.87285 0.75851 0.0
C197 C 0.65619 1.03262 0.8353 0.0
H198 H 0.66572 0.87411 0.80469 0.0
C199 C 0.60477 1.03198 0.80874 0.0
C200 C 0.57642 0.97507 0.78053 0.0
H201 H 0.68118 1.07914 0.85579 0.0
H202 H 0.59128 1.0787 0.80897 0.0
C203 C 0.59621 0.91641 0.78028 0.0
C204 C 0.92109 0.49021 0.09199 0.0
C205 C 0.90969 0.53342 0.11905 0.0
H206 H 0.86595 0.39533 0.05303 0.0
C207 C 0.83789 0.49949 0.13493 0.0
H208 H 0.97716 0.51258 0.0805 0.0
C209 C 0.7752 0.43105 0.11998 0.0
C210 C 0.78251 0.39707 0.08812 0.0
H211 H 0.82703 0.52971 0.15637 0.0
H212 H 0.71872 0.41297 0.13025 0.0
C213 C 0.85787 0.42184 0.0768 0.0
C214 C 0.29062 1.10609 0.43499 0.0
C215 C 0.289 1.10749 0.4721 0.0
H216 H 0.24859 1.03389 0.38804 0.0
C217 C 0.21708 1.05926 0.48655 0.0
H218 H 0.34238 0.14643 0.42214 0.0
C219 C 1.16062 0.99363 0.46643 0.0
C220 C 1.17767 0.97687 0.43242 0.0
H221 H 0.21111 1.06271 0.51481 0.0
H222 H 1.11112 0.95044 0.47961 0.0
C223 C 0.23588 1.03964 0.41513 0.0
C224 C 0.36081 1.10857 0.7785 0.0
C225 C 0.40492 0.18404 0.76675 0.0
H226 H 0.33366 0.99037 0.77097 0.0
C227 C 0.42405 0.19184 0.73116 0.0
H228 H 0.34091 1.10002 0.80516 0.0
C229 C 0.42206 0.12973 0.71198 0.0
C230 C 0.39999 1.05946 0.72831 0.0
H231 H 0.45461 0.24853 0.72032 0.0
H232 H 0.45089 0.14257 0.68734 0.0
C233 C 0.35755 1.04583 0.75897 0.0
C234 C 0.84265 0.9467 0.51796 0.0
C235 C 0.78078 0.96147 0.52519 0.0
H236 H 0.89242 0.87087 0.52231 0.0
C237 C 0.71845 0.902 0.5426 0.0
H238 H 0.89255 0.98977 0.50495 0.0
C239 C 0.71909 0.83363 0.55312 0.0
C240 C 0.78094 0.8189 0.54608 0.0
H241 H 0.6697 0.90947 0.54941 0.0
H242 H 0.67097 0.79233 0.56765 0.0
C243 C 0.8424 0.87724 0.52779 0.0
C244 C 1.03378 0.60749 0.85029 0.0
C245 C 1.02215 0.67106 0.85932 0.0
H246 H 1.10915 0.55672 0.85338 0.0
C247 C 1.08684 0.73597 0.87727 0.0
H248 H 0.98665 0.55574 0.83673 0.0
C249 C 1.15748 0.73643 0.88676 0.0
C250 C 1.16885 0.67264 0.87846 0.0
H251 H 1.08229 0.78645 0.88518 0.0
H252 H 0.20307 0.78668 0.90192 0.0
C253 C 1.10522 0.60829 0.85959 0.0
C254 C 0.5951 0.95606 0.21081 0.0
C255 C 0.52975 0.95559 0.19385 0.0
H256 H 0.71316 1.0213 0.23354 0.0
C257 C 0.54272 1.03006 0.18473 0.0
H258 H 0.59015 0.90185 0.21862 0.0
C259 C 0.61566 1.1005 0.19324 0.0
C260 C 0.68011 1.10057 0.21117 0.0
H261 H 0.49546 1.03449 0.17182 0.0
H262 H 0.62015 0.15547 0.18718 0.0
C263 C 0.6673 1.02582 0.21922 0.0
C264 C 0.73583 0.42379 0.51458 0.0
C265 C 0.79793 0.41069 0.52528 0.0
H266 H 0.68581 0.49983 0.51616 0.0
C267 C 0.8614 0.47388 0.54479 0.0
H268 H 0.68516 0.37792 0.49976 0.0
C269 C 0.8617 0.54432 0.55415 0.0
C270 C 0.79919 0.55712 0.54421 0.0
H271 H 0.9108 0.46829 0.55396 0.0
H272 H 0.91075 0.58864 0.57043 0.0
C273 C 0.73648 0.49499 0.52376 0.0
C274 C 0.51546 0.59646 0.87809 0.0
C275 C 0.57503 0.65865 0.86072 0.0
H276 H 0.40539 0.54912 0.90301 0.0
C277 C 0.56038 0.72014 0.8533 0.0
H278 H 0.52284 0.54781 0.88488 0.0
C279 C 0.49089 0.72002 0.86307 0.0
C280 C 0.43246 0.65868 0.88131 0.0
H281 H 0.6036 0.76943 0.84026 0.0
H282 H 0.48454 0.76988 0.85756 0.0
C283 C 0.44694 0.59703 0.88848 0.0
C284 C 1.06879 0.44717 0.18441 0.0
C285 C 1.08546 0.52345 0.1955 0.0
H286 H 0.99236 0.32212 0.18524 0.0
C287 C 1.02813 0.52591 0.21626 0.0
H288 H 1.10987 0.44041 0.16858 0.0
C289 C 0.96045 0.4571 0.2263 0.0
C290 C 0.94391 0.38081 0.21551 0.0
H291 H 1.03676 0.58171 0.22597 0.0
H292 H 0.9211 0.46387 0.24337 0.0
C293 C 0.99995 0.37814 0.19384 0.0
C294 C 0.34145 0.65449 0.0538 0.0
C295 C 0.3081 0.69509 0.07021 0.0
H296 H 0.3654 0.61355 0.00496 0.0
C297 C 0.27653 0.72956 0.04803 0.0
H298 H 0.36652 0.62719 0.06983 0.0
C299 C 0.27758 0.72357 0.01102 0.0
C300 C 0.30856 0.68114 0.99416 0.0
H301 H 0.25152 0.76262 0.0593 0.0
H302 H 0.25439 0.75343 -0.00431 0.0
C303 C 0.34119 0.64714 0.01638 0.0
C304 C 0.7508 0.18879 0.38087 0.0
C305 C 0.82001 0.21694 0.40239 0.0
H306 H 0.6967 0.17739 0.32958 0.0
C307 C 0.89123 0.25786 0.38587 0.0
H308 H 0.69458 0.15869 0.39235 0.0
C309 C 0.89259 0.26711 0.34876 0.0
C310 C 0.82274 0.23669 0.3271 0.0
H311 H 0.9459 0.28101 0.40142 0.0
H312 H 0.94846 0.29634 0.33697 0.0
C313 C 0.75211 0.19925 0.34434 0.0
C314 C 0.74602 0.6149 0.71253 0.0
C315 C 0.79179 0.68208 0.73488 0.0
H316 H 0.70896 0.56447 0.65952 0.0
C317 C 0.83562 0.75282 0.7185 0.0
H318 H 0.71109 0.55918 0.72371 0.0
C319 C 0.83399 0.75591 0.68117 0.0
C320 C 0.78928 0.68821 0.65889 0.0
H321 H 0.87148 0.80601 0.73454 0.0
H322 H 0.8693 0.81121 0.66973 0.0
C323 C 0.74504 0.61785 0.6754 0.0
C324 C 0.66932 0.17092 0.62343 0.0
C325 C 0.71302 0.14003 0.60876 0.0
H326 H 0.58394 0.15776 0.65955 0.0
C327 C 0.70356 1.06939 0.62018 0.0
H328 H 0.6754 0.22518 0.61489 0.0
C329 C 0.64906 1.02916 0.64523 0.0
C330 C 0.60352 1.05918 0.65913 0.0
H331 H 0.73542 1.04358 0.60859 0.0
H332 H 0.64163 0.97412 0.6533 0.0
C333 C 0.61558 0.13128 0.6484 0.0
C334 C 0.79992 0.61538 0.97557 0.0
C335 C 0.7535 0.60789 0.9454 0.0
H336 H 0.80906 0.56584 0.02343 0.0
C337 C 0.67589 0.54676 0.94189 0.0
H338 H 0.86021 0.66149 0.97849 0.0
C339 C 0.64733 0.48962 0.96669 0.0
C340 C 0.6961 0.4933 -0.00459 0.0
H341 H 0.63948 0.53943 0.91844 0.0
H342 H 0.58918 0.44016 0.96211 0.0
C343 C 0.77102 0.55936 0.00072 0.0
C344 C 0.22351 0.81798 0.28257 0.0
C345 C 0.27353 0.78648 0.28206 0.0
H346 H 1.15112 0.84651 0.31283 0.0
C347 C 0.29087 0.76129 0.31337 0.0
H348 H 0.20792 0.83665 0.25861 0.0
C349 C 0.26024 0.76947 0.34494 0.0
C350 C 0.20927 0.80035 0.3455 0.0
H351 H 0.32925 0.73686 0.31358 0.0
H352 H 0.27786 0.75272 0.36896 0.0
C353 C 1.19097 0.8239 0.31376 0.0
loop_
_geom_bond_atom_site_label_1
_geom_bond_atom_site_label_2
_geom_bond_distance
_geom_bond_site_symmetry_2
_ccdc_geom_bond_type
Tb0 C9 2.764 . S
Tb0 O10 2.325 . S
Tb0 O13 2.303 1_655 S
Tb0 O17 2.322 1_655 S
Tb0 O18 2.349 1_655 S
Tb0 O21 2.415 . S
Tb0 O22 2.399 . S
Tb1 O11 2.322 1_455 S
Tb1 O12 2.349 . S
Tb1 O14 2.415 . S
Tb1 O15 2.399 . S
Tb1 O16 2.325 . S
Tb1 O19 2.303 . S
Tb1 C30 2.764 . S
C2 O18 1.261 . S
C2 O19 1.257 . S
C3 C6 1.358 . S
C3 C7 1.332 . S
C3 C9 1.504 . S
C4 C5 1.373 . S
C4 C8 1.308 . S
C5 C4 1.373 . S
C5 C6 1.429 . S
C5 H32 0.932 . S
C6 C3 1.358 . S
C6 C5 1.429 . S
C6 H33 0.930 . S
C7 C3 1.332 . S
C7 C8 1.394 . S
C7 H34 0.932 . S
C8 C4 1.308 . S
C8 C7 1.394 . S
C8 H35 0.929 . S
C9 Tb0 2.764 . S
C9 C3 1.504 . S
C9 O21 1.239 . S
C9 O22 1.263 . S
O10 Tb0 2.325 . S
O10 C20 1.236 . S
O11 Tb1 2.322 1_655 S
O11 C20 1.257 . S
O12 Tb1 2.349 . S
O12 C23 1.261 . S
O13 Tb0 2.303 1_455 S
O13 C23 1.257 . S
O14 Tb1 2.415 . S
O14 C30 1.239 . S
O15 Tb1 2.399 . S
O15 C30 1.263 . S
O16 Tb1 2.325 . S
O16 C31 1.236 . S
O17 Tb0 2.322 1_455 S
O17 C31 1.257 . S
O18 Tb0 2.349 1_455 S
O18 C2 1.261 . S
O19 Tb1 2.303 . S
O19 C2 1.257 . S
C20 O10 1.236 . S
C20 O11 1.257 . S
O21 Tb0 2.415 . S
O21 C9 1.239 . S
O22 Tb0 2.399 . S
O22 C9 1.263 . S
C23 O12 1.261 . S
C23 O13 1.257 . S
C24 C27 1.358 . S
C24 C28 1.332 . S
C24 C30 1.504 . S
C25 C26 1.373 . S
C25 C29 1.308 . S
C26 C25 1.373 . S
C26 C27 1.429 . S
C26 H36 0.932 . S
C27 C24 1.358 . S
C27 C26 1.429 . S
C27 H37 0.930 . S
C28 C24 1.332 . S
C28 C29 1.394 . S
C28 H38 0.932 . S
C29 C25 1.308 . S
C29 C28 1.394 . S
C29 H39 0.929 . S
C30 Tb1 2.764 . S
C30 O14 1.239 . S
C30 O15 1.263 . S
C30 C24 1.504 . S
C31 O16 1.236 . S
C31 O17 1.257 . S
H32 C5 0.932 . S
H33 C6 0.930 . S
H34 C7 0.932 . S
H35 C8 0.929 . S
H36 C26 0.932 . S
H37 C27 0.930 . S
H38 C28 0.932 . S
H39 C29 0.929 . S
Tb40 C49 2.764 . S
Tb40 O50 2.325 . S
Tb40 O53 2.303 1_565 S
Tb40 O57 2.322 1_565 S
Tb40 O58 2.349 1_565 S
Tb40 O61 2.415 . S
Tb40 O62 2.399 . S
Tb41 O51 2.322 1_545 S
Tb41 O52 2.349 . S
Tb41 O54 2.415 . S
Tb41 O55 2.399 . S
Tb41 O56 2.325 . S
Tb41 O59 2.303 . S
Tb41 C70 2.764 . S
C42 O58 1.261 . S
C42 O59 1.257 . S
C43 C46 1.358 . S
C43 C47 1.332 . S
C43 C49 1.504 . S
C44 C45 1.373 . S
C44 C48 1.308 . S
C45 C44 1.373 . S
C45 C46 1.429 . S
C45 H72 0.932 . S
C46 C43 1.358 . S
C46 C45 1.429 . S
C46 H73 0.930 . S
C47 C43 1.332 . S
C47 C48 1.394 . S
C47 H74 0.932 . S
C48 C44 1.308 . S
C48 C47 1.394 . S
C48 H75 0.929 . S
C49 Tb40 2.764 . S
C49 C43 1.504 . S
C49 O61 1.239 . S
C49 O62 1.263 . S
O50 Tb40 2.325 . S
O50 C60 1.236 . S
O51 Tb41 2.322 1_565 S
O51 C60 1.257 . S
O52 Tb41 2.349 . S
O52 C63 1.261 . S
O53 Tb40 2.303 1_545 S
O53 C63 1.257 . S
O54 Tb41 2.415 . S
O54 C70 1.239 . S
O55 Tb41 2.399 . S
O55 C70 1.263 . S
O56 Tb41 2.325 . S
O56 C71 1.236 . S
O57 Tb40 2.322 1_545 S
O57 C71 1.257 . S
O58 Tb40 2.349 1_545 S
O58 C42 1.261 . S
O59 Tb41 2.303 . S
O59 C42 1.257 . S
C60 O50 1.236 . S
C60 O51 1.257 . S
O61 Tb40 2.415 . S
O61 C49 1.239 . S
O62 Tb40 2.399 . S
O62 C49 1.263 . S
C63 O52 1.261 . S
C63 O53 1.257 . S
C64 C67 1.358 . S
C64 C68 1.332 . S
C64 C70 1.504 . S
C65 C66 1.373 . S
C65 C69 1.308 . S
C66 C65 1.373 . S
C66 C67 1.429 . S
C66 H76 0.932 . S
C67 C64 1.358 . S
C67 C66 1.429 . S
C67 H77 0.930 . S
C68 C64 1.332 . S
C68 C69 1.394 . S
C68 H78 0.932 . S
C69 C65 1.308 . S
C69 C68 1.394 . S
C69 H79 0.929 . S
C70 Tb41 2.764 . S
C70 O54 1.239 . S
C70 O55 1.263 . S
C70 C64 1.504 . S
C71 O56 1.236 . S
C71 O57 1.257 . S
H72 C45 0.932 . S
H73 C46 0.930 . S
H74 C47 0.932 . S
H75 C48 0.929 . S
H76 C66 0.932 . S
H77 C67 0.930 . S
H78 C68 0.932 . S
H79 C69 0.929 . S
Tb80 C89 2.764 . S
Tb80 O90 2.325 . S
Tb80 O93 2.303 . S
Tb80 O97 2.322 . S
Tb80 O98 2.349 . S
Tb80 O101 2.415 . S
Tb80 O102 2.399 . S
Tb81 O91 2.322 . S
Tb81 O92 2.349 . S
Tb81 O94 2.415 . S
Tb81 O95 2.399 . S
Tb81 O96 2.325 . S
Tb81 O99 2.303 . S
Tb81 C110 2.764 . S
C82 O98 1.261 . S
C82 O99 1.257 . S
C83 C86 1.358 . S
C83 C87 1.332 . S
C83 C89 1.504 . S
C84 C85 1.373 . S
C84 C88 1.308 . S
C85 C84 1.373 . S
C85 C86 1.429 . S
C85 H112 0.932 . S
C86 C83 1.358 . S
C86 C85 1.429 . S
C86 H113 0.930 . S
C87 C83 1.332 . S
C87 C88 1.394 . S
C87 H114 0.932 . S
C88 C84 1.308 . S
C88 C87 1.394 . S
C88 H115 0.929 . S
C89 Tb80 2.764 . S
C89 C83 1.504 . S
C89 O101 1.239 . S
C89 O102 1.263 . S
O90 Tb80 2.325 . S
O90 C100 1.236 . S
O91 Tb81 2.322 . S
O91 C100 1.257 . S
O92 Tb81 2.349 . S
O92 C103 1.261 . S
O93 Tb80 2.303 . S
O93 C103 1.257 . S
O94 Tb81 2.415 . S
O94 C110 1.239 . S
O95 Tb81 2.399 . S
O95 C110 1.263 . S
O96 Tb81 2.325 . S
O96 C111 1.236 . S
O97 Tb80 2.322 . S
O97 C111 1.257 . S
O98 Tb80 2.349 . S
O98 C82 1.261 . S
O99 Tb81 2.303 . S
O99 C82 1.257 . S
C100 O90 1.236 . S
C100 O91 1.257 . S
O101 Tb80 2.415 . S
O101 C89 1.239 . S
O102 Tb80 2.399 . S
O102 C89 1.263 . S
C103 O92 1.261 . S
C103 O93 1.257 . S
C104 C107 1.358 . S
C104 C108 1.332 . S
C104 C110 1.504 . S
C105 C106 1.373 . S
C105 C109 1.308 . S
C106 C105 1.373 . S
C106 C107 1.429 . S
C106 H116 0.932 . S
C107 C104 1.358 . S
C107 C106 1.429 . S
C107 H117 0.930 . S
C108 C104 1.332 . S
C108 C109 1.394 . S
C108 H118 0.932 . S
C109 C105 1.308 . S
C109 C108 1.394 . S
C109 H119 0.929 . S
C110 Tb81 2.764 . S
C110 O94 1.239 . S
C110 O95 1.263 . S
C110 C104 1.504 . S
C111 O96 1.236 . S
C111 O97 1.257 . S
H112 C85 0.932 . S
H113 C86 0.930 . S
H114 C87 0.932 . S
H115 C88 0.929 . S
H116 C106 0.932 . S
H117 C107 0.930 . S
H118 C108 0.932 . S
H119 C109 0.929 . S
H120 C123 0.931 . S
H121 C126 0.928 . S
H122 C128 0.930 . S
C123 H120 0.931 . S
C123 C124 1.413 . S
C123 C125 1.360 1_565 S
C124 C123 1.413 . S
C124 C128 1.429 1_565 S
C125 C123 1.360 1_545 S
C125 C126 1.372 . S
C126 H121 0.928 . S
C126 C125 1.372 . S
C126 C127 1.404 . S
C127 C126 1.404 . S
C127 C128 1.391 . S
C128 H122 0.930 . S
C128 C124 1.429 1_545 S
C128 C127 1.391 . S
H129 C132 0.931 . S
H130 C135 0.928 . S
H131 C137 0.930 . S
C132 H129 0.931 . S
C132 C133 1.413 . S
C132 C134 1.360 . S
C133 C132 1.413 . S
C133 C137 1.429 . S
C134 C132 1.360 . S
C134 C135 1.372 . S
C135 H130 0.928 . S
C135 C134 1.372 . S
C135 C136 1.404 . S
C136 C135 1.404 . S
C136 C137 1.391 . S
C137 H131 0.930 . S
C137 C133 1.429 . S
C137 C136 1.391 . S
H138 C141 0.931 1_655 S
H139 C144 0.928 . S
H140 C146 0.930 . S
C141 H138 0.931 1_455 S
C141 C142 1.413 . S
C141 C143 1.360 . S
C142 C141 1.413 . S
C142 C146 1.429 . S
C143 C141 1.360 . S
C143 C144 1.372 . S
C144 H139 0.928 . S
C144 C143 1.372 . S
C144 C145 1.404 . S
C145 C144 1.404 . S
C145 C146 1.391 . S
C146 H140 0.930 . S
C146 C142 1.429 . S
C146 C145 1.391 . S
H147 C150 0.931 . S
H148 C153 0.928 . S
H149 C155 0.930 . S
C150 H147 0.931 . S
C150 C151 1.413 . S
C150 C152 1.360 1_655 S
C151 C150 1.413 . S
C151 C155 1.429 1_655 S
C152 C150 1.360 1_455 S
C152 C153 1.372 . S
C153 H148 0.928 . S
C153 C152 1.372 . S
C153 C154 1.404 . S
C154 C153 1.404 . S
C154 C155 1.391 . S
C155 H149 0.930 . S
C155 C151 1.429 1_455 S
C155 C154 1.391 . S
H156 C159 0.931 . S
H157 C162 0.928 . S
H158 C164 0.930 . S
C159 H156 0.931 . S
C159 C160 1.413 . S
C159 C161 1.365 . S
C160 C159 1.413 . S
C160 C164 1.429 . S
C161 C159 1.365 . S
C161 C162 1.366 1_545 S
C162 H157 0.928 . S
C162 C161 1.366 1_565 S
C162 C163 1.404 . S
C163 C162 1.404 . S
C163 C164 1.391 1_565 S
C164 H158 0.930 . S
C164 C160 1.429 . S
C164 C163 1.391 1_545 S
H165 C168 0.931 . S
H166 C171 0.928 . S
H167 C173 0.930 . S
C168 H165 0.931 . S
C168 C169 1.413 . S
C168 C170 1.360 . S
C169 C168 1.413 . S
C169 C173 1.429 . S
C170 C168 1.360 . S
C170 C171 1.372 . S
C171 H166 0.928 . S
C171 C170 1.372 . S
C171 C172 1.404 . S
C172 C171 1.404 . S
C172 C173 1.391 . S
C173 H167 0.930 . S
C173 C169 1.429 . S
C173 C172 1.391 . S
C174 C175 1.387 . S
C174 H178 0.950 . S
C174 C183 1.390 . S
C175 C174 1.387 . S
C175 C177 1.387 . S
H176 C183 0.950 . S
C177 C175 1.387 . S
C177 C179 1.390 . S
C177 H181 0.950 . S
H178 C174 0.950 . S
C179 C177 1.390 . S
C179 C180 1.387 . S
C179 H182 0.950 . S
C180 C179 1.387 . S
C180 C183 1.387 . S
H181 C177 0.950 . S
H182 C179 0.950 . S
C183 C174 1.390 . S
C183 H176 0.950 . S
C183 C180 1.387 . S
C184 C185 1.387 . S
C184 H188 0.950 . S
C184 C193 1.390 . S
C185 C184 1.387 . S
C185 C187 1.387 . S
H186 C193 0.950 . S
C187 C185 1.387 . S
C187 C189 1.390 . S
C187 H191 0.950 . S
H188 C184 0.950 . S
C189 C187 1.390 . S
C189 C190 1.387 . S
C189 H192 0.950 . S
C190 C189 1.387 . S
C190 C193 1.387 . S
H191 C187 0.950 . S
H192 C189 0.950 . S
C193 C184 1.390 . S
C193 H186 0.950 . S
C193 C190 1.387 . S
C194 C195 1.387 . S
C194 H198 0.950 . S
C194 C203 1.390 . S
C195 C194 1.387 . S
C195 C197 1.387 . S
H196 C203 0.950 . S
C197 C195 1.387 . S
C197 C199 1.390 . S
C197 H201 0.950 1_565 S
H198 C194 0.950 . S
C199 C197 1.390 . S
C199 C200 1.387 . S
C199 H202 0.950 1_565 S
C200 C199 1.387 . S
C200 C203 1.387 . S
H201 C197 0.950 1_545 S
H202 C199 0.950 1_545 S
C203 C194 1.390 . S
C203 H196 0.950 . S
C203 C200 1.387 . S
C204 C205 1.387 . S
C204 H208 0.950 . S
C204 C213 1.390 . S
C205 C204 1.387 . S
C205 C207 1.387 . S
H206 C213 0.950 . S
C207 C205 1.387 . S
C207 C209 1.390 . S
C207 H211 0.950 . S
H208 C204 0.950 . S
C209 C207 1.390 . S
C209 C210 1.387 . S
C209 H212 0.950 . S
C210 C209 1.387 . S
C210 C213 1.387 . S
H211 C207 0.950 . S
H212 C209 0.950 . S
C213 C204 1.390 . S
C213 H206 0.950 . S
C213 C210 1.387 . S
C214 C215 1.387 . S
C214 H218 0.950 . S
C214 C223 1.390 . S
C215 C214 1.387 . S
C215 C217 1.387 . S
H216 C223 0.950 . S
C217 C215 1.387 . S
C217 C219 1.390 . S
C217 H221 0.950 . S
H218 C214 0.950 . S
C219 C217 1.390 . S
C219 C220 1.387 . S
C219 H222 0.950 . S
C220 C219 1.387 . S
C220 C223 1.387 . S
H221 C217 0.950 . S
H222 C219 0.950 . S
C223 C214 1.390 . S
C223 H216 0.950 . S
C223 C220 1.387 . S
C224 C225 1.387 . S
C224 H228 0.950 . S
C224 C233 1.390 . S
C225 C224 1.387 . S
C225 C227 1.387 . S
H226 C233 0.950 . S
C227 C225 1.387 . S
C227 C229 1.390 . S
C227 H231 0.950 . S
H228 C224 0.950 . S
C229 C227 1.390 . S
C229 C230 1.387 . S
C229 H232 0.950 . S
C230 C229 1.387 . S
C230 C233 1.387 . S
H231 C227 0.950 . S
H232 C229 0.950 . S
C233 C224 1.390 . S
C233 H226 0.950 . S
C233 C230 1.387 . S
C234 C235 1.387 . S
C234 H238 0.950 . S
C234 C243 1.390 . S
C235 C234 1.387 . S
C235 C237 1.387 . S
H236 C243 0.950 . S
C237 C235 1.387 . S
C237 C239 1.390 . S
C237 H241 0.950 . S
H238 C234 0.950 . S
C239 C237 1.390 . S
C239 C240 1.387 . S
C239 H242 0.950 . S
C240 C239 1.387 . S
C240 C243 1.387 . S
H241 C237 0.950 . S
H242 C239 0.950 . S
C243 C234 1.390 . S
C243 H236 0.950 . S
C243 C240 1.387 . S
C244 C245 1.387 . S
C244 H248 0.950 . S
C244 C253 1.390 . S
C245 C244 1.387 . S
C245 C247 1.387 . S
H246 C253 0.950 . S
C247 C245 1.387 . S
C247 C249 1.390 . S
C247 H251 0.950 . S
H248 C244 0.950 . S
C249 C247 1.390 . S
C249 C250 1.387 . S
C249 H252 0.950 . S
C250 C249 1.387 . S
C250 C253 1.387 . S
H251 C247 0.950 . S
H252 C249 0.950 . S
C253 C244 1.390 . S
C253 H246 0.950 . S
C253 C250 1.387 . S
C254 C255 1.387 . S
C254 H258 0.950 . S
C254 C263 1.390 . S
C255 C254 1.387 . S
C255 C257 1.387 . S
H256 C263 0.950 . S
C257 C255 1.387 . S
C257 C259 1.390 . S
C257 H261 0.950 . S
H258 C254 0.950 . S
C259 C257 1.390 . S
C259 C260 1.387 . S
C259 H262 0.950 . S
C260 C259 1.387 . S
C260 C263 1.387 . S
H261 C257 0.950 . S
H262 C259 0.950 . S
C263 C254 1.390 . S
C263 H256 0.950 . S
C263 C260 1.387 . S
C264 C265 1.387 . S
C264 H268 0.950 . S
C264 C273 1.390 . S
C265 C264 1.387 . S
C265 C267 1.387 . S
H266 C273 0.950 . S
C267 C265 1.387 . S
C267 C269 1.390 . S
C267 H271 0.950 . S
H268 C264 0.950 . S
C269 C267 1.390 . S
C269 C270 1.387 . S
C269 H272 0.950 . S
C270 C269 1.387 . S
C270 C273 1.387 . S
H271 C267 0.950 . S
H272 C269 0.950 . S
C273 C264 1.390 . S
C273 H266 0.950 . S
C273 C270 1.387 . S
C274 C275 1.387 . S
C274 H278 0.950 . S
C274 C283 1.390 . S
C275 C274 1.387 . S
C275 C277 1.387 . S
H276 C283 0.950 . S
C277 C275 1.387 . S
C277 C279 1.390 . S
C277 H281 0.950 . S
H278 C274 0.950 . S
C279 C277 1.390 . S
C279 C280 1.387 . S
C279 H282 0.950 . S
C280 C279 1.387 . S
C280 C283 1.387 . S
H281 C277 0.950 . S
H282 C279 0.950 . S
C283 C274 1.390 . S
C283 H276 0.950 . S
C283 C280 1.387 . S
C284 C285 1.387 . S
C284 H288 0.950 . S
C284 C293 1.390 . S
C285 C284 1.387 . S
C285 C287 1.387 . S
H286 C293 0.950 . S
C287 C285 1.387 . S
C287 C289 1.390 . S
C287 H291 0.950 . S
H288 C284 0.950 . S
C289 C287 1.390 . S
C289 C290 1.387 . S
C289 H292 0.950 . S
C290 C289 1.387 . S
C290 C293 1.387 . S
H291 C287 0.950 . S
H292 C289 0.950 . S
C293 C284 1.390 . S
C293 H286 0.950 . S
C293 C290 1.387 . S
C294 C295 1.387 . S
C294 H298 0.950 . S
C294 C303 1.390 . S
C295 C294 1.387 . S
C295 C297 1.387 . S
H296 C303 0.950 . S
C297 C295 1.387 . S
C297 C299 1.390 . S
C297 H301 0.950 1_455 S
H298 C294 0.950 . S
C299 C297 1.390 . S
C299 C300 1.387 1_554 S
C299 H302 0.950 1_454 S
C300 C299 1.387 1_556 S
C300 C303 1.387 1_556 S
H301 C297 0.950 1_655 S
H302 C299 0.950 1_656 S
C303 C294 1.390 . S
C303 H296 0.950 . S
C303 C300 1.387 1_554 S
C304 C305 1.387 . S
C304 H308 0.950 . S
C304 C313 1.390 . S
C305 C304 1.387 . S
C305 C307 1.387 . S
H306 C313 0.950 . S
C307 C305 1.387 . S
C307 C309 1.390 . S
C307 H311 0.950 . S
H308 C304 0.950 . S
C309 C307 1.390 . S
C309 C310 1.387 . S
C309 H312 0.950 . S
C310 C309 1.387 . S
C310 C313 1.387 . S
H311 C307 0.950 . S
H312 C309 0.950 . S
C313 C304 1.390 . S
C313 H306 0.950 . S
C313 C310 1.387 . S
C314 C315 1.387 . S
C314 H318 0.950 . S
C314 C323 1.390 . S
C315 C314 1.387 . S
C315 C317 1.387 . S
H316 C323 0.950 . S
C317 C315 1.387 . S
C317 C319 1.390 . S
C317 H321 0.950 . S
H318 C314 0.950 . S
C319 C317 1.390 . S
C319 C320 1.387 . S
C319 H322 0.950 . S
C320 C319 1.387 . S
C320 C323 1.387 . S
H321 C317 0.950 . S
H322 C319 0.950 . S
C323 C314 1.390 . S
C323 H316 0.950 . S
C323 C320 1.387 . S
C324 C325 1.387 . S
C324 H328 0.950 . S
C324 C333 1.390 . S
C325 C324 1.387 . S
C325 C327 1.387 1_545 S
H326 C333 0.950 . S
C327 C325 1.387 1_565 S
C327 C329 1.390 . S
C327 H331 0.950 . S
H328 C324 0.950 . S
C329 C327 1.390 . S
C329 C330 1.387 1_565 S
C329 H332 0.950 . S
C330 C329 1.387 1_545 S
C330 C333 1.387 . S
H331 C327 0.950 . S
H332 C329 0.950 . S
C333 C324 1.390 . S
C333 H326 0.950 . S
C333 C330 1.387 . S
C334 C335 1.387 . S
C334 H338 0.950 . S
C334 C343 1.390 1_556 S
C335 C334 1.387 . S
C335 C337 1.387 . S
H336 C343 0.950 . S
C337 C335 1.387 . S
C337 C339 1.390 . S
C337 H341 0.950 . S
H338 C334 0.950 . S
C339 C337 1.390 . S
C339 C340 1.387 1_556 S
C339 H342 0.950 . S
C340 C339 1.387 1_554 S
C340 C343 1.387 . S
H341 C337 0.950 . S
H342 C339 0.950 . S
C343 C334 1.390 1_554 S
C343 H336 0.950 . S
C343 C340 1.387 . S
C344 C345 1.387 . S
C344 H348 0.950 . S
C344 C353 1.390 . S
C345 C344 1.387 . S
C345 C347 1.387 1_455 S
H346 C353 0.950 . S
C347 C345 1.387 1_655 S
C347 C349 1.390 . S
C347 H351 0.950 . S
H348 C344 0.950 . S
C349 C347 1.390 . S
C349 C350 1.391 1_655 S
C349 H352 0.950 . S
C350 C349 1.391 1_455 S
C350 C353 1.391 . S
H351 C347 0.950 . S
H352 C349 0.950 . S
C353 C344 1.390 . S
C353 H346 0.950 . S
C353 C350 1.391 . S
C175 C25 0.975 . S
C180 C169 1.076 . S
C185 C65 0.951 . S
C190 C151 1.094 . S
C195 C105 1.044 . S
C200 C163 1.239 . S
C205 C4 1.048 . S
C210 C172 1.217 . S
C220 C154 1.060 . S
C215 C44 0.963 . S
C230 C160 1.077 . S
C225 C84 0.989 . S
C235 C60 2.947 . S
C240 C133 2.917 . S
C245 C100 3.026 . S
C250 C142 2.985 1_655 S
C255 C31 3.023 . S
C260 C124 2.999 . S
C270 C136 3.015 . S
C265 C71 3.034 . S
C280 C145 2.954 . S
C275 C111 2.950 . S
C285 C20 2.960 . S
C290 C127 2.928 . S
C300 C143 1.845 . S
C295 C2 1.765 . S
C305 C42 1.780 . S
C310 C125 1.840 . S
C315 C82 1.772 . S
C320 C134 1.844 . S
C330 C161 0.889 . S
C325 C63 0.895 . S
C340 C170 0.970 . S
C335 C103 0.985 . S
C345 C23 0.858 . S
C350 C152 0.856 . S
