# Generated by pormake.
# Topology zzz, (3,6)-cn, num edge types: 1
# Building blocks:
#     Node 0, Type 0, BuildingBlock: BETDIP_clean_linker_0, # of connection points: 3
#     Node 1, Type 0, BuildingBlock: BETDIP_clean_linker_0, # of connection points: 3
#     Node 2, Type 0, BuildingBlock: BETDIP_clean_linker_0, # of connection points: 3
#     Node 3, Type 0, BuildingBlock: BETDIP_clean_linker_0, # of connection points: 3
#     Node 4, Type 0, BuildingBlock: BETDIP_clean_linker_0, # of connection points: 3
#     Node 5, Type 0, BuildingBlock: BETDIP_clean_linker_0, # of connection points: 3
#     Node 6, Type 0, BuildingBlock: BETDIP_clean_linker_0, # of connection points: 3
#     Node 7, Type 0, BuildingBlock: BETDIP_clean_linker_0, # of connection points: 3
#     Node 8, Type 1, BuildingBlock: MIFKUJ_clean_sbu_0, # of connection points: 6
#     Node 9, Type 1, BuildingBlock: MIFKUJ_clean_sbu_0, # of connection points: 6
#     Node 10, Type 1, BuildingBlock: MIFKUJ_clean_sbu_0, # of connection points: 6
#     Node 11, Type 1, BuildingBlock: MIFKUJ_clean_sbu_0, # of connection points: 6
#     Edge 12, Type (0, 1), BuildingBlock: KIFKEQ_clean_linker_1, # of connection points: 2
#     Edge 13, Type (0, 1), BuildingBlock: KIFKEQ_clean_linker_1, # of connection points: 2
#     Edge 14, Type (0, 1), BuildingBlock: KIFKEQ_clean_linker_1, # of connection points: 2
#     Edge 15, Type (0, 1), BuildingBlock: KIFKEQ_clean_linker_1, # of connection points: 2
#     Edge 16, Type (0, 1), BuildingBlock: KIFKEQ_clean_linker_1, # of connection points: 2
#     Edge 17, Type (0, 1), BuildingBlock: KIFKEQ_clean_linker_1, # of connection points: 2
#     Edge 18, Type (0, 1), BuildingBlock: KIFKEQ_clean_linker_1, # of connection points: 2
#     Edge 19, Type (0, 1), BuildingBlock: KIFKEQ_clean_linker_1, # of connection points: 2
#     Edge 20, Type (0, 1), BuildingBlock: KIFKEQ_clean_linker_1, # of connection points: 2
#     Edge 21, Type (0, 1), BuildingBlock: KIFKEQ_clean_linker_1, # of connection points: 2
#     Edge 22, Type (0, 1), BuildingBlock: KIFKEQ_clean_linker_1, # of connection points: 2
#     Edge 23, Type (0, 1), BuildingBlock: KIFKEQ_clean_linker_1, # of connection points: 2
#     Edge 24, Type (0, 1), BuildingBlock: KIFKEQ_clean_linker_1, # of connection points: 2
#     Edge 25, Type (0, 1), BuildingBlock: KIFKEQ_clean_linker_1, # of connection points: 2
#     Edge 26, Type (0, 1), BuildingBlock: KIFKEQ_clean_linker_1, # of connection points: 2
#     Edge 27, Type (0, 1), BuildingBlock: KIFKEQ_clean_linker_1, # of connection points: 2
#     Edge 28, Type (0, 1), BuildingBlock: KIFKEQ_clean_linker_1, # of connection points: 2
#     Edge 29, Type (0, 1), BuildingBlock: KIFKEQ_clean_linker_1, # of connection points: 2
#     Edge 30, Type (0, 1), BuildingBlock: KIFKEQ_clean_linker_1, # of connection points: 2
#     Edge 31, Type (0, 1), BuildingBlock: KIFKEQ_clean_linker_1, # of connection points: 2
#     Edge 32, Type (0, 1), BuildingBlock: KIFKEQ_clean_linker_1, # of connection points: 2
#     Edge 33, Type (0, 1), BuildingBlock: KIFKEQ_clean_linker_1, # of connection points: 2
#     Edge 34, Type (0, 1), BuildingBlock: KIFKEQ_clean_linker_1, # of connection points: 2
#     Edge 35, Type (0, 1), BuildingBlock: KIFKEQ_clean_linker_1, # of connection points: 2
# Relax obj value: 0.116
# Max RMSD: 0.118
# Mean RMSD: 0.085
data_MOF--net-zzz--node1-MIFKUJ_clean_sbu_0--node2-BETDIP_clean_linker_0--edge1-KIFKEQ_clean_linker_1
_symmetry_space_group_name_H-M    P1
_symmetry_Int_Tables_number       1
_symmetry_cell_setting            triclinic
loop_
_symmetry_equiv_pos_as_xyz
'x, y, z'
_cell_length_a     51.837882
_cell_length_b     51.384654
_cell_length_c     16.27951
_cell_angle_alpha  90.543982
_cell_angle_beta   89.885177
_cell_angle_gamma 89.834903
loop_
_atom_site_label
_atom_site_type_symbol
_atom_site_fract_x
_atom_site_fract_y
_atom_site_fract_z
_atom_type_partial_charge
H0 H 0.7408 0.49626 0.2217 0.0
H1 H 0.73524 0.48166 0.96103 0.0
H2 H 0.80717 0.46981 0.08549 0.0
H3 H 0.7097 0.5338 0.03463 0.0
C4 C 0.69889 0.51581 0.0402 0.0
C5 C 0.74947 0.48962 0.16461 0.0
C6 C 0.77577 0.48289 0.16179 0.0
C7 C 0.73475 0.489 0.09194 0.0
C8 C 0.74638 0.48154 0.01732 0.0
C9 C 0.77229 0.47391 0.01531 0.0
C10 C 0.78672 0.47442 0.08772 0.0
N11 N 0.70835 0.49615 0.09305 0.0
H12 H 0.99133 0.73693 0.25323 0.0
H13 H 0.01173 0.74294 -0.00308 0.0
H14 H 0.02243 0.8082 0.15961 0.0
H15 H 0.96522 0.71953 0.01193 0.0
C16 C 0.97744 0.70447 0.03791 0.0
C17 C 0.99927 0.74797 0.20281 0.0
C18 C 0.00718 0.77391 0.21552 0.0
C19 C 1.00085 0.7367 0.12346 0.0
C20 C 0.01062 0.75144 0.05802 0.0
C21 C 0.01889 0.77707 0.07095 0.0
C22 C 0.0172 0.78797 0.1498 0.0
N23 N 0.9924 0.71075 0.10864 0.0
H24 H 0.77354 0.02291 0.2321 0.0
H25 H 0.77252 0.03724 0.97156 0.0
H26 H 0.70737 0.05853 0.12012 0.0
H27 H 0.78997 0.99015 -0.00382 0.0
C28 C 0.80607 1.00052 0.0239 0.0
C29 C 0.76415 0.03096 0.17862 0.0
C30 C 0.73929 0.04195 0.18562 0.0
C31 C 0.77631 0.02938 0.10118 0.0
C32 C 0.76349 0.03885 0.03149 0.0
C33 C 0.73871 0.04956 0.03805 0.0
C34 C 0.72709 0.05153 0.11539 0.0
N35 N 0.80088 0.01728 0.09217 0.0
H36 H 0.55971 0.78037 0.23517 0.0
H37 H 0.53186 0.76562 0.98923 0.0
H38 H 0.52563 0.70667 0.17235 0.0
H39 H 0.57309 0.78854 0.97057 0.0
C40 C 0.56508 0.80513 0.004 0.0
C41 C 0.55019 0.76782 0.19091 0.0
C42 C 0.54265 0.74257 0.21312 0.0
C43 C 0.54657 0.77619 0.1095 0.0
C44 C 0.53474 0.75941 0.05197 0.0
C45 C 0.52694 0.73443 0.0745 0.0
C46 C 0.53068 0.72639 0.15524 0.0
N47 N 0.55535 0.80113 0.08472 0.0
H48 H 0.27574 0.49064 0.97917 0.0
H49 H 0.27366 0.53407 0.20731 0.0
H50 H 0.20349 0.51799 0.07735 0.0
H51 H 0.31465 0.54997 0.12371 0.0
C52 C 0.32074 0.52993 0.13289 0.0
C53 C 0.26496 0.50106 0.0262 0.0
C54 C 0.23799 0.50319 0.02048 0.0
C55 C 0.27799 0.51256 0.09307 0.0
C56 C 0.26384 0.52595 0.15431 0.0
C57 C 0.23696 0.52811 0.14871 0.0
C58 C 0.22434 0.51677 0.08152 0.0
N59 N 0.30511 0.50956 0.10099 0.0
H60 H 0.01598 0.27136 0.96087 0.0
H61 H 0.98272 0.26863 0.20423 0.0
H62 H 0.99415 0.19817 0.06589 0.0
H63 H 0.96215 0.30824 0.13233 0.0
C64 C 0.9817 0.31587 0.13135 0.0
C65 C 0.0079 0.26038 0.01119 0.0
C66 C 0.00603 0.23307 0.00525 0.0
C67 C 0.99904 0.27344 0.08269 0.0
C68 C 0.98876 0.25892 0.148 0.0
C69 C 0.98672 0.23184 0.14173 0.0
C70 C 0.99531 0.21922 0.07036 0.0
N71 N 1.00115 0.30098 0.09041 0.0
H72 H 0.24018 0.00557 0.97384 0.0
H73 H 0.24361 0.96725 0.2086 0.0
H74 H 0.31316 0.98228 0.07455 0.0
H75 H 0.20382 0.94922 0.14112 0.0
C76 C 0.19645 0.96906 0.13984 0.0
C77 C 0.25123 0.99646 0.0222 0.0
C78 C 0.27828 0.99496 0.01633 0.0
C79 C 0.2385 0.98606 0.0911 0.0
C80 C 0.25309 0.97447 0.15405 0.0
C81 C 0.27999 0.97282 0.14798 0.0
C82 C 0.29228 0.98304 0.07897 0.0
N83 N 0.21124 0.98832 0.09899 0.0
H84 H 0.48215 0.22226 0.94397 0.0
H85 H 0.48612 0.23038 0.20754 0.0
H86 H 0.46032 0.29429 0.06173 0.0
H87 H 0.52817 0.20504 0.15314 0.0
C88 C 0.51366 0.19048 0.13845 0.0
C89 C 0.47867 0.23361 -0.00065 0.0
C90 C 0.46976 0.25944 -0.00611 0.0
C91 C 0.48442 0.22296 0.07654 0.0
C92 C 0.48131 0.23828 0.148 0.0
C93 C 0.47207 0.26381 0.14282 0.0
C94 C 0.46594 0.27399 0.06599 0.0
N95 N 0.49376 0.19705 0.08232 0.0
Zn96 Zn 0.9978 0.03222 0.56241 0.0
Zn97 Zn 0.0176 0.97771 0.65082 0.0
C98 C 0.99323 0.07243 0.6772 0.0
O99 O 0.96942 0.0681 0.65322 0.0
C100 C 0.02003 0.93255 0.55643 0.0
O101 O 0.0435 0.93575 0.58502 0.0
O102 O 0.98393 0.05878 0.48461 0.0
O103 O 0.02678 0.0144 0.49944 0.0
O104 O 0.04826 0.99523 0.59901 0.0
C105 C 1.00108 0.07547 0.4671 0.0
O106 O 0.02492 0.07129 0.49106 0.0
O107 O 0.01084 0.05679 0.65272 0.0
C108 C 0.01212 0.93934 0.763 0.0
O109 O 0.98844 0.94517 0.74091 0.0
O110 O 0.03051 0.95344 0.73743 0.0
O111 O 0.99009 0.99877 0.71092 0.0
O112 O 0.96754 0.01146 0.60465 0.0
O113 O 0.00343 0.95058 0.56895 0.0
C114 C 0.04741 0.00423 0.5266 0.0
C115 C 0.96853 0.00479 0.67946 0.0
Zn116 Zn 0.47547 0.99045 0.57824 0.0
Zn117 Zn 0.54133 0.01765 0.62419 0.0
C118 C 0.43695 0.98775 0.69428 0.0
O119 O 0.44292 0.96343 0.67699 0.0
C120 C 0.57772 0.03702 0.51418 0.0
O121 O 0.57006 0.05796 0.55437 0.0
O122 O 0.44951 0.97297 0.50474 0.0
O123 O 0.49169 0.01798 0.50639 0.0
O124 O 0.51156 0.04159 0.59998 0.0
C125 C 0.43241 0.98935 0.48349 0.0
O126 O 0.43588 0.01403 0.50224 0.0
O127 O 0.45111 0.00562 0.66477 0.0
C128 C 0.58623 0.02135 0.70754 0.0
O129 O 0.5878 0.99926 0.66645 0.0
O130 O 0.56505 0.0339 0.70761 0.0
O131 O 0.53416 0.98182 0.66739 0.0
O132 O 0.49751 0.96277 0.63087 0.0
O133 O 0.56534 0.01592 0.52468 0.0
C134 C 0.50213 0.03925 0.52844 0.0
C135 C 0.51912 0.96235 0.66766 0.0
Zn136 Zn 0.50456 0.46065 0.58702 0.0
Zn137 Zn 0.51007 0.54244 0.61343 0.0
C138 C 0.50389 0.41575 0.67434 0.0
O139 O 0.52639 0.41627 0.63706 0.0
C140 C 0.51111 0.59126 0.54225 0.0
O141 O 0.48722 0.58896 0.56827 0.0
O142 O 0.50803 0.43558 0.49203 0.0
O143 O 0.47948 0.48806 0.5457 0.0
O144 O 0.47827 0.53112 0.55353 0.0
C145 C 0.48619 0.42489 0.48059 0.0
O146 O 0.46597 0.43448 0.51931 0.0
O147 O 0.48954 0.43593 0.67159 0.0
C148 C 0.51965 0.5703 0.75303 0.0
O149 O 0.5427 0.56324 0.72735 0.0
O150 O 0.50007 0.56069 0.71739 0.0
O151 O 0.53587 0.51464 0.64087 0.0
O152 O 0.53935 0.47187 0.63105 0.0
O153 O 0.52635 0.57195 0.54989 0.0
C154 C 0.46851 0.50965 0.53026 0.0
C155 C 0.54868 0.49385 0.6513 0.0
Zn156 Zn 0.04254 0.51266 0.58061 0.0
Zn157 Zn 0.97156 0.49551 0.608 0.0
C158 C 0.08284 0.51353 0.69017 0.0
O159 O 0.07769 0.53811 0.67557 0.0
C160 C 0.94063 0.48238 0.47397 0.0
O161 O 0.94591 0.45958 0.50574 0.0
O162 O 0.06767 0.53073 0.50604 0.0
O163 O 0.02561 0.48508 0.50797 0.0
O164 O 0.99805 0.46685 0.59257 0.0
C165 C 0.08438 0.51444 0.48019 0.0
O166 O 0.08077 0.48961 0.49501 0.0
O167 O 0.06772 0.4963 0.66089 0.0
C168 C 0.92199 0.49447 0.66971 0.0
O169 O 0.9224 0.51648 0.62937 0.0
O170 O 0.94265 0.48124 0.67609 0.0
O171 O 0.98147 0.52897 0.6657 0.0
O172 O 0.02227 0.53996 0.64468 0.0
O173 O 0.95267 0.50224 0.50108 0.0
C174 C 0.01103 0.46618 0.52636 0.0
C175 C 1.00022 0.54455 0.6761 0.0
H176 H 0.16932 0.93599 0.23352 0.0
H177 H 0.17288 0.01682 0.16475 0.0
H178 H 0.13379 0.94578 0.32727 0.0
H179 H 0.13728 0.02677 0.25952 0.0
H180 H 0.05453 0.02553 0.37455 0.0
H181 H 0.0904 0.01818 0.27958 0.0
H182 H 0.12749 0.96913 0.45827 0.0
H183 H 0.09159 0.9762 0.55288 0.0
C184 C 0.16239 0.95587 0.23833 0.0
C185 C 0.17385 0.97562 0.19198 0.0
C186 C 0.14219 0.96152 0.29254 0.0
C187 C 0.13287 0.9871 0.30159 0.0
C188 C 0.14396 0.00684 0.25372 0.0
C189 C 0.16436 1.00117 0.19958 0.0
C190 C 0.0704 0.01328 0.39381 0.0
C191 C 0.07008 1.00134 0.47129 0.0
C192 C 0.09103 0.00919 0.33947 0.0
C193 C 0.11171 0.99291 0.36106 0.0
C194 C 0.11166 0.98147 0.43925 0.0
C195 C 0.09115 0.98568 0.49376 0.0
H196 H 0.47576 0.15306 0.14314 0.0
H197 H 0.54934 0.17434 0.24712 0.0
H198 H 0.4732 0.1162 0.23641 0.0
H199 H 0.54727 0.13711 0.3387 0.0
H200 H 0.52081 0.08839 0.55566 0.0
H201 H 0.52383 0.12389 0.45808 0.0
H202 H 0.49144 0.07445 0.26869 0.0
H203 H 0.48779 0.03916 0.3668 0.0
C204 C 0.49157 0.1496 0.18505 0.0
C205 C 0.51276 0.16655 0.18811 0.0
C206 C 0.49016 0.12843 0.2384 0.0
C207 C 0.50995 0.12376 0.29563 0.0
C208 C 0.53145 0.14039 0.29667 0.0
C209 C 0.53278 0.16157 0.2437 0.0
C210 C 0.51433 0.08508 0.49323 0.0
C211 C 0.50407 0.06091 0.46918 0.0
C212 C 0.51622 0.1054 0.43702 0.0
C213 C 0.50797 0.10204 0.35527 0.0
C214 C 0.49769 0.07785 0.33131 0.0
C215 C 0.49573 0.05755 0.38757 0.0
H216 H 0.33639 0.48359 0.20123 0.0
H217 H 0.3551 0.5652 0.18765 0.0
H218 H 0.37105 0.47734 0.30096 0.0
H219 H 0.39025 0.55896 0.28445 0.0
H220 H 0.43242 0.54813 0.52126 0.0
H221 H 0.39653 0.55145 0.42592 0.0
H222 H 0.41688 0.47657 0.32085 0.0
H223 H 0.45242 0.473 0.41817 0.0
C224 C 0.34818 0.50009 0.21861 0.0
C225 C 0.34309 0.52492 0.18692 0.0
C226 C 0.36808 0.49653 0.27568 0.0
C227 C 0.38332 0.51771 0.30175 0.0
C228 C 0.37856 0.54232 0.26766 0.0
C229 C 0.3586 0.54588 0.21142 0.0
C230 C 0.42907 0.53224 0.47839 0.0
C231 C 0.44524 0.51027 0.47754 0.0
C232 C 0.4086 0.53423 0.42312 0.0
C233 C 0.40396 0.51445 0.36461 0.0
C234 C 0.41969 0.49208 0.3654 0.0
C235 C 0.44006 0.48999 0.42139 0.0
H236 H 0.94775 0.34323 0.22297 0.0
H237 H 0.02858 0.3401 0.15962 0.0
H238 H 0.956 0.3792 0.3178 0.0
H239 H 0.037 0.37622 0.25561 0.0
H240 H 0.03363 0.45958 0.37488 0.0
H241 H 0.02781 0.42358 0.27763 0.0
H242 H 0.97758 0.3855 0.45057 0.0
H243 H 0.98332 0.42137 0.54769 0.0
C244 C 0.96731 0.35035 0.22918 0.0
C245 C 0.98749 0.33884 0.18403 0.0
C246 C 0.97208 0.37083 0.28403 0.0
C247 C 0.9972 0.38043 0.2951 0.0
C248 C 0.0174 0.36934 0.24831 0.0
C249 C 0.01261 0.34864 0.19346 0.0
C250 C 0.02144 0.44346 0.39243 0.0
C251 C 0.00869 0.44358 0.46894 0.0
C252 C 0.01821 0.42277 0.3367 0.0
C253 C 1.00204 0.40176 0.35591 0.0
C254 C 0.98982 0.40159 0.43317 0.0
C255 C 0.99319 0.42215 0.48905 0.0
H256 H 0.81591 0.97742 0.8781 0.0
H257 H 0.85183 0.02468 0.06598 0.0
H258 H 0.85523 0.97916 0.79577 0.0
H259 H 0.89142 0.02644 0.98327 0.0
H260 H 0.96518 0.99707 0.8452 0.0
H261 H 0.92649 0.99655 0.93072 0.0
H262 H 0.87976 0.01249 0.71774 0.0
H263 H 0.91845 0.013 0.63185 0.0
C264 C 0.83232 0.98809 0.9019 0.0
C265 C 0.83083 1.00091 0.97832 0.0
C266 C 0.85475 0.98926 0.85446 0.0
C267 C 0.87637 1.00311 0.88263 0.0
C268 C 0.8751 0.01554 0.96005 0.0
C269 C 0.85246 0.01457 0.00733 0.0
C270 C 0.94668 1.00054 0.81647 0.0
C271 C 0.94494 0.00498 0.73143 0.0
C272 C 0.92452 1.00039 0.86572 0.0
C273 C 0.90007 0.00442 0.83104 0.0
C274 C 0.89832 0.00904 0.74615 0.0
C275 C 0.9205 0.00943 0.69697 0.0
H276 H 0.55042 0.8535 0.06241 0.0
H277 H 0.56647 0.81015 0.83959 0.0
H278 H 0.53963 0.89191 0.98034 0.0
H279 H 0.55516 0.8482 0.75795 0.0
H280 H 0.5003 0.9127 0.65395 0.0
H281 H 0.51187 0.87496 0.7371 0.0
H282 H 0.5654 0.92213 0.87554 0.0
H283 H 0.55436 0.95975 0.79172 0.0
C284 C 0.55164 0.85221 -0.00393 0.0
C285 C 0.55926 0.82893 0.95713 0.0
C286 C 0.54553 0.87413 0.94925 0.0
C287 C 0.54644 0.87288 0.86292 0.0
C288 C 0.55409 0.84958 0.82433 0.0
C289 C 0.56068 0.82791 0.87102 0.0
C290 C 0.51462 0.91499 0.70184 0.0
C291 C 0.52649 0.93918 0.71592 0.0
C292 C 0.52124 0.89342 0.74928 0.0
C293 C 0.53943 0.89575 0.8128 0.0
C294 C 0.55118 0.91991 0.82732 0.0
C295 C 0.54497 0.94135 0.77887 0.0
H296 H 0.66831 0.55241 0.97263 0.0
H297 H 0.67985 0.46939 0.98252 0.0
H298 H 0.63285 0.54627 0.87682 0.0
H299 H 0.64575 0.46299 0.88169 0.0
H300 H 0.56692 0.45799 0.75873 0.0
H301 H 0.60269 0.46276 0.85381 0.0
H302 H 0.62151 0.53689 0.74493 0.0
H303 H 0.58444 0.53273 0.65425 0.0
C304 C 0.66322 0.53281 0.9538 0.0
C305 C 0.67654 0.5114 0.98556 0.0
C306 C 0.64311 0.52922 0.89777 0.0
C307 C 0.63632 0.50408 0.86997 0.0
C308 C 0.64987 0.48263 0.90221 0.0
C309 C 0.66954 0.48625 0.96005 0.0
C310 C 0.57894 0.47515 0.75461 0.0
C311 C 0.57286 0.49503 0.69927 0.0
C312 C 0.5996 0.47791 0.80917 0.0
C313 C 0.61512 0.50039 0.80848 0.0
C314 C 0.60968 0.51966 0.74977 0.0
C315 C 0.5886 0.51717 0.69674 0.0
H316 H 0.94775 0.68786 0.91238 0.0
H317 H 0.01324 0.66508 0.05852 0.0
H318 H 0.953 0.64892 0.82704 0.0
H319 H 0.01856 0.62587 0.97285 0.0
H320 H 0.03724 0.57783 0.73573 0.0
H321 H 0.03139 0.61513 0.82802 0.0
H322 H 0.94933 0.60111 0.83295 0.0
H323 H 0.95507 0.56391 0.74048 0.0
C324 C 0.96311 0.67431 0.92678 0.0
C325 C 0.97999 0.67945 0.99224 0.0
C326 C 0.96608 0.65196 0.87801 0.0
C327 C 0.98622 0.63426 0.89293 0.0
C328 C 1.00299 0.63924 0.95926 0.0
C329 C 0.99983 0.66156 0.00875 0.0
C330 C 0.01792 0.58273 0.75615 0.0
C331 C 0.99662 0.56786 0.73011 0.0
C332 C 0.01461 0.60399 0.80977 0.0
C333 C 0.9899 0.61109 0.83812 0.0
C334 C 0.96861 0.59631 0.8118 0.0
C335 C 0.97192 0.57493 0.75882 0.0
H336 H 0.00399 0.23393 0.29942 0.0
H337 H 0.95133 0.19285 0.13969 0.0
H338 H 1.0017 0.19841 0.39768 0.0
H339 H 0.94976 0.15695 0.23589 0.0
H340 H 0.95299 0.09344 0.42466 0.0
H341 H 0.94224 0.13608 0.36797 0.0
H342 H 0.02297 0.15685 0.37238 0.0
H343 H 0.03357 0.11488 0.42947 0.0
C344 C 0.99113 0.21779 0.28693 0.0
C345 C 0.97829 0.21575 0.21143 0.0
C346 C 0.99005 0.19731 0.3426 0.0
C347 C 0.97622 0.17454 0.32314 0.0
C348 C 0.9607 0.17412 0.25258 0.0
C349 C 0.96168 0.19463 0.19723 0.0
C350 C 0.96837 0.10719 0.41352 0.0
C351 C 0.99416 0.1007 0.43064 0.0
C352 C 0.9622 0.13162 0.38163 0.0
C353 C 0.9817 0.14997 0.36674 0.0
C354 C 0.00738 0.14348 0.3851 0.0
C355 C 0.01352 0.11918 0.41664 0.0
H356 H 0.27593 0.98565 0.31034 0.0
H357 H 0.32087 0.93936 0.13948 0.0
H358 H 0.31046 0.98242 0.41125 0.0
H359 H 0.35583 0.93708 0.2387 0.0
H360 H 0.418 0.94031 0.43214 0.0
H361 H 0.37658 0.92766 0.3712 0.0
H362 H 0.35001 0.00722 0.39378 0.0
H363 H 0.39066 0.01963 0.45445 0.0
C364 C 0.29274 0.97393 0.29554 0.0
C365 C 0.29609 0.96335 0.21647 0.0
C366 C 0.31264 0.97231 0.35295 0.0
C367 C 0.33618 0.96026 0.33175 0.0
C368 C 0.33804 0.94665 0.25678 0.0
C369 C 0.31808 0.94812 0.19966 0.0
C370 C 0.40318 0.95497 0.42434 0.0
C371 C 0.40771 0.98102 0.44703 0.0
C372 C 0.37948 0.94771 0.38996 0.0
C373 C 0.35991 0.96636 0.37865 0.0
C374 C 0.36437 0.9922 0.40343 0.0
C375 C 0.38794 0.99943 0.43704 0.0
H376 H 0.43305 0.2955 0.19298 0.0
H377 H 0.51113 0.27291 0.25087 0.0
H378 H 0.43671 0.33298 0.28429 0.0
H379 H 0.51466 0.3101 0.34507 0.0
H380 H 0.52251 0.39948 0.38654 0.0
H381 H 0.51838 0.3567 0.32096 0.0
H382 H 0.4414 0.34953 0.4206 0.0
H383 H 0.44511 0.39236 0.48296 0.0
C384 C 0.4507 0.29815 0.22759 0.0
C385 C 0.47186 0.28153 0.21462 0.0
C386 C 0.45283 0.31958 0.28005 0.0
C387 C 0.47615 0.32474 0.32093 0.0
C388 C 0.49663 0.30688 0.31307 0.0
C389 C 0.49449 0.28539 0.26032 0.0
C390 C 0.5047 0.38877 0.39386 0.0
C391 C 0.484 0.39948 0.43853 0.0
C392 C 0.50244 0.36414 0.35737 0.0
C393 C 0.47954 0.34973 0.36567 0.0
C394 C 0.45913 0.36028 0.41199 0.0
C395 C 0.46127 0.38491 0.44754 0.0
H396 H 0.2412 0.51821 0.31228 0.0
H397 H 0.19647 0.56199 0.13762 0.0
H398 H 0.20653 0.52286 0.41276 0.0
H399 H 0.16136 0.56567 0.23663 0.0
H400 H 0.0984 0.56344 0.42957 0.0
H401 H 0.13995 0.57624 0.36964 0.0
H402 H 0.16732 0.49713 0.39288 0.0
H403 H 0.12656 0.48456 0.45206 0.0
C404 C 0.22443 0.52976 0.29652 0.0
C405 C 0.22114 0.53908 0.2165 0.0
C406 C 0.20446 0.5322 0.35375 0.0
C407 C 0.1809 0.54381 0.33141 0.0
C408 C 0.17917 0.55643 0.25552 0.0
C409 C 0.19921 0.55416 0.19856 0.0
C410 C 0.11344 0.54893 0.42211 0.0
C411 C 0.1091 0.52293 0.44438 0.0
C412 C 0.1372 0.55627 0.38836 0.0
C413 C 0.15704 0.53779 0.37765 0.0
C414 C 0.15275 0.51203 0.40212 0.0
C415 C 0.12912 0.5047 0.43482 0.0
H416 H 0.05921 0.81104 0.06249 0.0
H417 H 0.99391 0.78222 0.92502 0.0
H418 H 0.06134 0.84892 0.9738 0.0
H419 H 0.99669 0.81954 0.83426 0.0
H420 H 0.9767 0.9067 0.82733 0.0
H421 H 0.98359 0.8634 0.88058 0.0
H422 H 0.06556 0.87074 0.83851 0.0
H423 H 0.05865 0.91465 0.785 0.0
C424 C 0.04596 0.81234 0.01128 0.0
C425 C 0.02595 0.79413 0.00188 0.0
C426 C 0.04728 0.83394 0.96023 0.0
C427 C 0.02869 0.83751 0.89879 0.0
C428 C 0.01086 0.81753 0.88265 0.0
C429 C 0.00946 0.796 0.93397 0.0
C430 C 0.99624 0.89919 0.82945 0.0
C431 C 0.01714 0.91414 0.80237 0.0
C432 C 1.00014 0.87419 0.85885 0.0
C433 C 0.02506 0.86346 0.86197 0.0
C434 C 0.04613 0.87851 0.83624 0.0
C435 C 0.0422 0.90366 0.80638 0.0
H436 H 0.7335 0.01747 0.90619 0.0
H437 H 0.7069 0.09092 0.00625 0.0
H438 H 0.69812 0.01725 0.80982 0.0
H439 H 0.67135 0.09108 0.90784 0.0
H440 H 0.59197 0.0515 0.8455 0.0
H441 H 0.63269 0.06565 0.90657 0.0
H442 H 0.67419 0.0332 0.69851 0.0
H443 H 0.63371 0.01787 0.64069 0.0
C444 C 0.72074 0.0342 0.90499 0.0
C445 C 0.72272 0.05403 0.96441 0.0
C446 C 0.70031 0.0341 0.84961 0.0
C447 C 0.68153 0.05393 0.85214 0.0
C448 C 0.68513 0.0752 0.90575 0.0
C449 C 0.70556 0.07523 0.96157 0.0
C450 C 0.60985 0.04771 0.81288 0.0
C451 C 0.60994 0.033 0.74007 0.0
C452 C 0.63316 0.05604 0.84711 0.0
C453 C 0.6568 0.05021 0.80793 0.0
C454 C 0.65645 0.03739 0.73137 0.0
C455 C 0.63329 0.02858 0.69836 0.0
H456 H 0.54952 0.72378 0.9273 0.0
H457 H 0.48656 0.70047 0.08427 0.0
H458 H 0.54412 0.6842 0.84553 0.0
H459 H 0.48153 0.66051 0.00315 0.0
H460 H 0.4754 0.59699 0.79367 0.0
H461 H 0.47267 0.63968 0.86142 0.0
H462 H 0.55519 0.639 0.89701 0.0
H463 H 0.55803 0.59664 0.83017 0.0
C464 C 0.53394 0.71066 0.94255 0.0
C465 C 0.51867 0.71497 0.01264 0.0
C466 C 0.53108 0.68786 0.89647 0.0
C467 C 0.51286 0.6691 0.91957 0.0
C468 C 0.49581 0.67462 0.98448 0.0
C469 C 0.49873 0.69742 0.03082 0.0
C470 C 0.49288 0.60579 0.81725 0.0
C471 C 0.51697 0.59355 0.80611 0.0
C472 C 0.4913 0.63024 0.85542 0.0
C473 C 0.5138 0.64283 0.88225 0.0
C474 C 0.53764 0.63001 0.87464 0.0
C475 C 0.53921 0.60561 0.83724 0.0
H476 H 0.77629 0.50676 0.88749 0.0
H477 H 0.8002 0.43108 0.97111 0.0
H478 H 0.81024 0.50607 0.78474 0.0
H479 H 0.83366 0.42955 0.86532 0.0
H480 H 0.91446 0.46301 0.80141 0.0
H481 H 0.87336 0.45163 0.86391 0.0
H482 H 0.833 0.49137 0.66905 0.0
H483 H 0.87424 0.50386 0.60954 0.0
C484 C 0.78804 0.48939 0.88083 0.0
C485 C 0.78597 0.46912 0.93732 0.0
C486 C 0.80759 0.48892 0.8219 0.0
C487 C 0.82518 0.46799 0.81801 0.0
C488 C 0.82095 0.4463 0.8683 0.0
C489 C 0.80164 0.44698 0.92809 0.0
C490 C 0.89675 0.46902 0.77175 0.0
C491 C 0.8974 0.48483 0.70222 0.0
C492 C 0.87314 0.46227 0.80684 0.0
C493 C 0.84976 0.4708 0.77194 0.0
C494 C 0.85058 0.48501 0.69866 0.0
C495 C 0.87418 0.49219 0.66465 0.0
H496 H 0.98247 0.23115 0.85637 0.0
H497 H 0.04522 0.19818 -0.00581 0.0
H498 H 0.98313 0.19339 0.76379 0.0
H499 H 0.04561 0.16012 0.90349 0.0
H500 H 0.0409 0.09393 0.71144 0.0
H501 H 0.04958 0.13705 0.77133 0.0
H502 H 0.96765 0.15034 0.79737 0.0
H503 H 0.95907 0.10791 0.73775 0.0
C504 C 0.99726 0.21645 0.86427 0.0
C505 C 0.01386 0.21761 0.93206 0.0
C506 C 0.99733 0.19453 0.81237 0.0
C507 C 0.01392 0.17332 0.82768 0.0
C508 C 0.03256 0.17598 0.88977 0.0
C509 C 0.0325 0.19791 0.94147 0.0
C510 C 0.0248 0.10605 0.73054 0.0
C511 C 0.99929 0.09737 0.71995 0.0
C512 C 0.02976 0.13081 0.76437 0.0
C513 C 0.00931 0.14746 0.78771 0.0
C514 C 0.9839 0.13849 0.77793 0.0
C515 C 0.97898 0.11388 0.74467 0.0
H516 H 0.2796 0.97451 0.86209 0.0
H517 H 0.31236 0.03486 0.01457 0.0
H518 H 0.31659 0.97732 0.76908 0.0
H519 H 0.34955 0.03749 0.92288 0.0
H520 H 0.4146 0.0356 0.72849 0.0
H521 H 0.37154 0.04376 0.78698 0.0
H522 H 0.35964 0.96092 0.80703 0.0
H523 H 0.40202 0.95283 0.74971 0.0
C524 C 0.29405 0.98931 0.87325 0.0
C525 C 0.29318 0.00447 0.94521 0.0
C526 C 0.31545 0.99066 0.8209 0.0
C527 C 0.33634 0.00714 0.83992 0.0
C528 C 0.33387 0.02459 0.90643 0.0
C529 C 0.31248 0.02321 0.95874 0.0
C530 C 0.40277 0.0192 0.74584 0.0
C531 C 0.41186 0.99357 0.73472 0.0
C532 C 0.37808 0.02386 0.77877 0.0
C533 C 0.36193 1.00297 0.80004 0.0
C534 C 0.3712 0.97746 0.78918 0.0
C535 C 0.39577 0.97284 0.75728 0.0
H536 H 0.42979 0.28763 0.93151 0.0
H537 H 0.50879 0.26544 0.88518 0.0
H538 H 0.43419 0.32402 0.83703 0.0
H539 H 0.51363 0.30198 0.79293 0.0
H540 H 0.51766 0.36775 0.6207 0.0
H541 H 0.5045 0.32585 0.6739 0.0
H542 H 0.4557 0.36485 0.8525 0.0
H543 H 0.46817 0.40699 0.79609 0.0
C544 C 0.44777 0.28996 0.89836 0.0
C545 C 0.46898 0.27379 0.91557 0.0
C546 C 0.45047 0.31106 0.84546 0.0
C547 C 0.47445 0.31643 0.80898 0.0
C548 C 0.4948 0.29851 0.81952 0.0
C549 C 0.49204 0.27734 0.87203 0.0
C550 C 0.50404 0.36739 0.67126 0.0
C551 C 0.49436 0.39065 0.70566 0.0
C552 C 0.49647 0.34331 0.70168 0.0
C553 C 0.47929 0.34183 0.76826 0.0
C554 C 0.46875 0.36516 0.80054 0.0
C555 C 0.47606 0.38935 0.76897 0.0
H556 H 0.24023 0.51828 0.8612 0.0
H557 H 0.20053 0.46648 0.02502 0.0
H558 H 0.20441 0.5151 0.76403 0.0
H559 H 0.16451 0.46362 0.92923 0.0
H560 H 0.10122 0.46498 0.73308 0.0
H561 H 0.14342 0.45478 0.79366 0.0
H562 H 0.16275 0.53648 0.79261 0.0
H563 H 0.12127 0.54657 0.73314 0.0
C564 C 0.22444 0.50519 0.87441 0.0
C565 C 0.22298 0.49275 0.9505 0.0
C566 C 0.20375 0.50364 0.81949 0.0
C567 C 0.18132 0.48968 0.8401 0.0
C568 C 0.18143 0.47455 0.91149 0.0
C569 C 0.2021 0.47612 0.9663 0.0
C570 C 0.11456 0.48068 0.74588 0.0
C571 C 0.10776 0.5066 0.72893 0.0
C572 C 0.13873 0.47483 0.78006 0.0
C573 C 0.15663 0.49477 0.7966 0.0
C574 C 0.14977 0.52055 0.77872 0.0
C575 C 0.12571 0.52638 0.74567 0.0
H576 H 0.04443 0.78563 0.32521 0.0
H577 H 0.96377 0.79735 0.27458 0.0
H578 H 0.04398 0.82255 0.41947 0.0
H579 H 0.96278 0.8342 0.37123 0.0
H580 H 0.98506 0.92071 0.43392 0.0
H581 H 0.97822 0.87802 0.36885 0.0
H582 H 0.03134 0.84343 0.541 0.0
H583 H 0.03893 0.88595 0.60238 0.0
C584 C 0.02623 0.7953 0.33799 0.0
C585 C 0.00404 0.78829 0.29409 0.0
C586 C 0.02592 0.81671 0.39165 0.0
C587 C 0.00337 0.83176 0.4027 0.0
C588 C 0.98061 0.82342 0.3634 0.0
C589 C 0.98098 0.80194 0.30945 0.0
C590 C 0.99503 0.90387 0.45792 0.0
C591 C 0.01296 0.90675 0.52181 0.0
C592 C 0.99102 0.87932 0.42118 0.0
C593 C 0.00454 0.85714 0.44868 0.0
C594 C 0.02114 0.86002 0.51631 0.0
C595 C 0.02546 0.88447 0.55172 0.0
H596 H 0.72398 0.99881 0.26884 0.0
H597 H 0.71724 0.08241 0.26718 0.0
H598 H 0.68654 0.99628 0.36041 0.0
H599 H 0.67952 0.08015 0.35516 0.0
H600 H 0.61614 0.07213 0.53671 0.0
H601 H 0.65928 0.07164 0.47924 0.0
H602 H 0.64118 1.00133 0.34344 0.0
H603 H 0.59811 1.00115 0.40519 0.0
C604 C 0.7151 0.01668 0.2908 0.0
C605 C 0.72357 0.04082 0.26157 0.0
C606 C 0.69328 0.01525 0.34173 0.0
C607 C 0.67953 0.03796 0.36408 0.0
C608 C 0.68953 0.0622 0.3402 0.0
C609 C 0.7113 0.06359 0.28989 0.0
C610 C 0.62124 0.05661 0.49417 0.0
C611 C 0.60347 0.03692 0.47428 0.0
C612 C 0.64612 0.0563 0.46122 0.0
C613 C 0.65387 0.03658 0.40593 0.0
C614 C 0.63614 0.01666 0.38668 0.0
C615 C 0.61128 0.01672 0.42106 0.0
H616 H 0.58058 0.70837 0.24597 0.0
H617 H 0.51572 0.74811 0.3558 0.0
H618 H 0.57637 0.67341 0.34415 0.0
H619 H 0.5122 0.71389 0.45829 0.0
H620 H 0.48114 0.6313 0.49143 0.0
H621 H 0.49444 0.67277 0.43708 0.0
H622 H 0.57446 0.65095 0.46845 0.0
H623 H 0.56083 0.60856 0.52012 0.0
C624 C 0.56649 0.71041 0.29489 0.0
C625 C 0.54841 0.73082 0.29335 0.0
C626 C 0.56388 0.69021 0.3511 0.0
C627 C 0.54331 0.69024 0.40759 0.0
C628 C 0.52769 0.71271 0.41366 0.0
C629 C 0.53003 0.73271 0.35631 0.0
C630 C 0.5016 0.63532 0.48701 0.0
C631 C 0.51992 0.6165 0.50921 0.0
C632 C 0.5093 0.6594 0.4569 0.0
C633 C 0.53562 0.66559 0.44903 0.0
C634 C 0.55403 0.64689 0.47292 0.0
C635 C 0.54625 0.62255 0.50232 0.0
H636 H 0.80387 0.52585 0.19298 0.0
H637 H 0.7895 0.44824 0.27913 0.0
H638 H 0.84381 0.52751 0.27169 0.0
H639 H 0.82893 0.45002 0.36123 0.0
H640 H 0.91578 0.44484 0.38661 0.0
H641 H 0.87315 0.44718 0.32515 0.0
H642 H 0.8674 0.52824 0.39664 0.0
H643 H 0.91064 0.52603 0.45553 0.0
C644 C 0.80869 0.50966 0.23235 0.0
C645 C 0.79351 0.48708 0.2313 0.0
C646 C 0.83169 0.51049 0.27706 0.0
C647 C 0.83997 0.48869 0.32163 0.0
C648 C 0.82353 0.46692 0.3259 0.0
C649 C 0.80064 0.46604 0.28047 0.0
C650 C 0.90557 0.46327 0.38811 0.0
C651 C 0.91666 0.48526 0.42556 0.0
C652 C 0.8809 0.46453 0.35407 0.0
C653 C 0.86646 0.48776 0.35739 0.0
C654 C 0.87791 0.51003 0.39268 0.0
C655 C 0.90279 0.50882 0.42606 0.0
loop_
_geom_bond_atom_site_label_1
_geom_bond_atom_site_label_2
_geom_bond_distance
_geom_bond_site_symmetry_2
_ccdc_geom_bond_type
H0 C5 0.930 . S
H1 C8 0.930 . S
H2 C10 0.930 . S
H3 C4 1.016 . S
C4 H3 1.016 . S
C4 N11 1.286 1_556 S
C5 H0 0.930 . S
C5 C6 1.397 . S
C5 C7 1.361 . S
C6 C5 1.397 . S
C6 C10 1.390 . S
C7 C5 1.361 . S
C7 C8 1.393 1_554 S
C7 N11 1.413 . S
C8 H1 0.930 . S
C8 C7 1.393 1_556 S
C8 C9 1.399 . S
C9 C8 1.399 . S
C9 C10 1.381 1_556 S
C10 H2 0.930 . S
C10 C6 1.390 . S
C10 C9 1.381 1_554 S
N11 C4 1.286 1_554 S
N11 C7 1.413 . S
H12 C17 0.930 . S
H13 C20 0.930 . S
H14 C22 0.930 . S
H15 C16 1.016 . S
C16 H15 1.016 . S
C16 N23 1.286 1_556 S
C17 H12 0.930 . S
C17 C18 1.397 . S
C17 C19 1.361 . S
C18 C17 1.397 . S
C18 C22 1.390 . S
C19 C17 1.361 . S
C19 C20 1.393 1_554 S
C19 N23 1.413 . S
C20 H13 0.930 . S
C20 C19 1.393 1_556 S
C20 C21 1.399 . S
C21 C20 1.399 . S
C21 C22 1.381 1_556 S
C22 H14 0.930 . S
C22 C18 1.390 . S
C22 C21 1.381 1_554 S
N23 C16 1.286 1_554 S
N23 C19 1.413 . S
H24 C29 0.930 . S
H25 C32 0.930 . S
H26 C34 0.930 . S
H27 C28 1.029 . S
C28 H27 1.029 . S
C28 N35 1.268 1_566 S
C29 H24 0.930 . S
C29 C30 1.397 . S
C29 C31 1.361 . S
C30 C29 1.397 . S
C30 C34 1.390 1_545 S
C31 C29 1.361 . S
C31 C32 1.393 1_554 S
C31 N35 1.413 . S
C32 H25 0.930 . S
C32 C31 1.393 1_556 S
C32 C33 1.402 . S
C33 C32 1.402 . S
C33 C34 1.379 1_546 S
C34 H26 0.930 . S
C34 C30 1.390 1_565 S
C34 C33 1.379 1_564 S
N35 C28 1.268 1_544 S
N35 C31 1.413 . S
H36 C41 0.930 . S
H37 C44 0.930 . S
H38 C46 0.930 . S
H39 C40 1.016 . S
C40 H39 1.016 . S
C40 N47 1.286 1_556 S
C41 H36 0.930 . S
C41 C42 1.397 . S
C41 C43 1.361 . S
C42 C41 1.397 . S
C42 C46 1.390 . S
C43 C41 1.361 . S
C43 C44 1.393 1_554 S
C43 N47 1.413 . S
C44 H37 0.930 . S
C44 C43 1.393 1_556 S
C44 C45 1.399 . S
C45 C44 1.399 . S
C45 C46 1.381 1_556 S
C46 H38 0.930 . S
C46 C42 1.390 . S
C46 C45 1.381 1_554 S
N47 C40 1.286 1_554 S
N47 C43 1.413 . S
H48 C53 0.930 . S
H49 C56 0.930 . S
H50 C58 0.930 . S
H51 C52 1.016 . S
C52 H51 1.016 . S
C52 N59 1.286 . S
C53 H48 0.930 . S
C53 C54 1.397 . S
C53 C55 1.361 . S
C54 C53 1.397 . S
C54 C58 1.390 . S
C55 C53 1.361 . S
C55 C56 1.393 . S
C55 N59 1.413 . S
C56 H49 0.930 . S
C56 C55 1.393 . S
C56 C57 1.399 . S
C57 C56 1.399 . S
C57 C58 1.381 . S
C58 H50 0.930 . S
C58 C54 1.390 . S
C58 C57 1.381 . S
N59 C52 1.286 . S
N59 C55 1.413 . S
H60 C65 0.930 . S
H61 C68 0.930 . S
H62 C70 0.930 . S
H63 C64 1.016 . S
C64 H63 1.016 . S
C64 N71 1.286 . S
C65 H60 0.930 . S
C65 C66 1.397 . S
C65 C67 1.361 . S
C66 C65 1.397 . S
C66 C70 1.390 . S
C67 C65 1.361 . S
C67 C68 1.393 . S
C67 N71 1.413 . S
C68 H61 0.930 . S
C68 C67 1.393 . S
C68 C69 1.399 . S
C69 C68 1.399 . S
C69 C70 1.381 . S
C70 H62 0.930 . S
C70 C66 1.390 . S
C70 C69 1.381 . S
N71 C64 1.286 . S
N71 C67 1.413 . S
H72 C77 0.930 . S
H73 C80 0.930 . S
H74 C82 0.930 . S
H75 C76 1.026 . S
C76 H75 1.026 . S
C76 N83 1.273 1_565 S
C77 H72 0.930 . S
C77 C78 1.397 . S
C77 C79 1.361 . S
C78 C77 1.397 . S
C78 C82 1.390 1_545 S
C79 C77 1.361 . S
C79 C80 1.393 . S
C79 N83 1.413 . S
C80 H73 0.930 . S
C80 C79 1.393 . S
C80 C81 1.404 . S
C81 C80 1.404 . S
C81 C82 1.378 1_545 S
C82 H74 0.930 . S
C82 C78 1.390 1_565 S
C82 C81 1.378 1_565 S
N83 C76 1.273 1_545 S
N83 C79 1.413 . S
H84 C89 0.930 . S
H85 C92 0.930 . S
H86 C94 0.930 . S
H87 C88 1.016 . S
C88 H87 1.016 . S
C88 N95 1.286 . S
C89 H84 0.930 . S
C89 C90 1.397 . S
C89 C91 1.361 . S
C90 C89 1.397 . S
C90 C94 1.390 . S
C91 C89 1.361 . S
C91 C92 1.393 . S
C91 N95 1.413 . S
C92 H85 0.930 . S
C92 C91 1.393 . S
C92 C93 1.399 . S
C93 C92 1.399 . S
C93 C94 1.381 . S
C94 H86 0.930 . S
C94 C90 1.390 . S
C94 C93 1.381 . S
N95 C88 1.286 . S
N95 C91 1.413 . S
Zn96 O102 1.969 1_455 S
Zn96 O103 1.965 . S
Zn96 O107 2.024 . S
Zn96 O112 1.969 1_455 S
Zn97 O104 1.985 . S
Zn97 O110 1.976 . S
Zn97 O111 1.957 1_455 S
Zn97 O113 2.014 1_455 S
C98 O99 1.229 . S
C98 O107 1.058 . S
O99 C98 1.229 . S
C100 O101 1.229 1_655 S
C100 O113 1.058 . S
O101 C100 1.229 1_455 S
O102 Zn96 1.969 1_655 S
O102 C105 1.267 1_655 S
O103 Zn96 1.965 . S
O103 C114 1.260 1_545 S
O104 Zn97 1.985 . S
O104 C114 1.258 . S
C105 O102 1.267 1_455 S
C105 O106 1.228 . S
O106 C105 1.228 . S
O107 Zn96 2.024 . S
O107 C98 1.058 . S
C108 O109 1.228 . S
C108 O110 1.267 1_655 S
O109 C108 1.228 . S
O110 Zn97 1.976 . S
O110 C108 1.267 1_455 S
O111 Zn97 1.957 1_655 S
O111 C115 1.260 1_565 S
O112 Zn96 1.969 1_655 S
O112 C115 1.258 . S
O113 Zn97 2.014 1_655 S
O113 C100 1.058 . S
C114 O103 1.260 1_565 S
C114 O104 1.258 . S
C115 O111 1.260 1_545 S
C115 O112 1.258 . S
Zn116 O122 1.969 . S
Zn116 O123 1.965 1_565 S
Zn116 O127 2.024 1_565 S
Zn116 O132 1.969 . S
Zn117 O124 1.969 . S
Zn117 O130 1.969 . S
Zn117 O131 1.965 1_545 S
Zn117 O133 2.024 1_545 S
C118 O119 1.229 1_545 S
C118 O127 1.058 . S
O119 C118 1.229 1_565 S
C120 O121 1.229 1_565 S
C120 O133 1.058 . S
O121 C120 1.229 1_545 S
O122 Zn116 1.969 . S
O122 C125 1.267 . S
O123 Zn116 1.965 1_545 S
O123 C134 1.260 . S
O124 Zn117 1.969 . S
O124 C134 1.258 . S
C125 O122 1.267 . S
C125 O126 1.228 1_565 S
O126 C125 1.228 1_545 S
O127 Zn116 2.024 1_545 S
O127 C118 1.058 . S
C128 O129 1.228 1_545 S
C128 O130 1.267 . S
O129 C128 1.228 1_565 S
O130 Zn117 1.969 . S
O130 C128 1.267 . S
O131 Zn117 1.965 1_565 S
O131 C135 1.260 . S
O132 Zn116 1.969 . S
O132 C135 1.258 . S
O133 Zn117 2.024 1_565 S
O133 C120 1.058 . S
C134 O123 1.260 . S
C134 O124 1.258 . S
C135 O131 1.260 . S
C135 O132 1.258 . S
Zn136 O142 1.969 . S
Zn136 O143 1.965 . S
Zn136 O147 2.024 . S
Zn136 O152 1.969 . S
Zn137 O144 1.969 . S
Zn137 O150 1.969 . S
Zn137 O151 1.965 . S
Zn137 O153 2.024 . S
C138 O139 1.229 . S
C138 O147 1.058 . S
O139 C138 1.229 . S
C140 O141 1.229 . S
C140 O153 1.058 . S
O141 C140 1.229 . S
O142 Zn136 1.969 . S
O142 C145 1.267 . S
O143 Zn136 1.965 . S
O143 C154 1.260 . S
O144 Zn137 1.969 . S
O144 C154 1.258 . S
C145 O142 1.267 . S
C145 O146 1.228 . S
O146 C145 1.228 . S
O147 Zn136 2.024 . S
O147 C138 1.058 . S
C148 O149 1.228 . S
C148 O150 1.267 . S
O149 C148 1.228 . S
O150 Zn137 1.969 . S
O150 C148 1.267 . S
O151 Zn137 1.965 . S
O151 C155 1.260 . S
O152 Zn136 1.969 . S
O152 C155 1.258 . S
O153 Zn137 2.024 . S
O153 C140 1.058 . S
C154 O143 1.260 . S
C154 O144 1.258 . S
C155 O151 1.260 . S
C155 O152 1.258 . S
Zn156 O162 1.969 . S
Zn156 O163 1.965 . S
Zn156 O167 2.024 . S
Zn156 O172 1.969 . S
Zn157 O164 1.969 . S
Zn157 O170 1.969 . S
Zn157 O171 1.965 . S
Zn157 O173 2.024 . S
C158 O159 1.229 . S
C158 O167 1.058 . S
O159 C158 1.229 . S
C160 O161 1.229 . S
C160 O173 1.058 . S
O161 C160 1.229 . S
O162 Zn156 1.969 . S
O162 C165 1.267 . S
O163 Zn156 1.965 . S
O163 C174 1.260 . S
O164 Zn157 1.969 . S
O164 C174 1.258 1_655 S
C165 O162 1.267 . S
C165 O166 1.228 . S
O166 C165 1.228 . S
O167 Zn156 2.024 . S
O167 C158 1.058 . S
C168 O169 1.228 . S
C168 O170 1.267 . S
O169 C168 1.228 . S
O170 Zn157 1.969 . S
O170 C168 1.267 . S
O171 Zn157 1.965 . S
O171 C175 1.260 1_655 S
O172 Zn156 1.969 . S
O172 C175 1.258 . S
O173 Zn157 2.024 . S
O173 C160 1.058 . S
C174 O163 1.260 . S
C174 O164 1.258 1_455 S
C175 O171 1.260 1_455 S
C175 O172 1.258 . S
H176 C184 0.950 . S
H177 C189 0.950 . S
H178 C186 0.950 . S
H179 C188 0.950 . S
H180 C190 0.950 . S
H181 C192 0.950 . S
H182 C194 0.950 . S
H183 C195 0.950 . S
C184 H176 0.950 . S
C184 C185 1.400 . S
C184 C186 1.391 . S
C185 C184 1.400 . S
C185 C189 1.379 1_545 S
C186 H178 0.950 . S
C186 C184 1.391 . S
C186 C187 1.399 1_545 S
C187 C186 1.399 1_565 S
C187 C188 1.400 . S
C187 C193 1.491 . S
C188 H179 0.950 . S
C188 C187 1.400 . S
C188 C189 1.391 . S
C189 H177 0.950 . S
C189 C185 1.379 1_565 S
C189 C188 1.391 . S
C190 H180 0.950 . S
C190 C191 1.386 . S
C190 C192 1.391 . S
C191 C190 1.386 . S
C191 C195 1.393 1_565 S
C192 H181 0.950 . S
C192 C190 1.391 . S
C192 C193 1.400 . S
C193 C187 1.491 . S
C193 C192 1.400 . S
C193 C194 1.398 1_565 S
C194 H182 0.950 . S
C194 C193 1.398 1_545 S
C194 C195 1.391 . S
C195 H183 0.950 . S
C195 C191 1.393 1_545 S
C195 C194 1.391 . S
H196 C204 0.950 . S
H197 C209 0.950 . S
H198 C206 0.950 . S
H199 C208 0.950 . S
H200 C210 0.950 . S
H201 C212 0.950 . S
H202 C214 0.950 . S
H203 C215 0.950 . S
C204 H196 0.950 . S
C204 C205 1.386 . S
C204 C206 1.391 . S
C205 C204 1.386 . S
C205 C209 1.393 . S
C206 H198 0.950 . S
C206 C204 1.391 . S
C206 C207 1.400 . S
C207 C206 1.400 . S
C207 C208 1.398 . S
C207 C213 1.491 . S
C208 H199 0.950 . S
C208 C207 1.398 . S
C208 C209 1.391 . S
C209 H197 0.950 . S
C209 C205 1.393 . S
C209 C208 1.391 . S
C210 H200 0.950 . S
C210 C211 1.386 . S
C210 C212 1.391 . S
C211 C210 1.386 . S
C211 C215 1.393 . S
C212 H201 0.950 . S
C212 C210 1.391 . S
C212 C213 1.400 . S
C213 C207 1.491 . S
C213 C212 1.400 . S
C213 C214 1.398 . S
C214 H202 0.950 . S
C214 C213 1.398 . S
C214 C215 1.391 . S
C215 H203 0.950 . S
C215 C211 1.393 . S
C215 C214 1.391 . S
H216 C224 0.950 . S
H217 C229 0.950 . S
H218 C226 0.950 . S
H219 C228 0.950 . S
H220 C230 0.950 . S
H221 C232 0.950 . S
H222 C234 0.950 . S
H223 C235 0.950 . S
C224 H216 0.950 . S
C224 C225 1.386 . S
C224 C226 1.391 . S
C225 C224 1.386 . S
C225 C229 1.393 . S
C226 H218 0.950 . S
C226 C224 1.391 . S
C226 C227 1.400 . S
C227 C226 1.400 . S
C227 C228 1.398 . S
C227 C233 1.491 . S
C228 H219 0.950 . S
C228 C227 1.398 . S
C228 C229 1.391 . S
C229 H217 0.950 . S
C229 C225 1.393 . S
C229 C228 1.391 . S
C230 H220 0.950 . S
C230 C231 1.386 . S
C230 C232 1.391 . S
C231 C230 1.386 . S
C231 C235 1.393 . S
C232 H221 0.950 . S
C232 C230 1.391 . S
C232 C233 1.400 . S
C233 C227 1.491 . S
C233 C232 1.400 . S
C233 C234 1.398 . S
C234 H222 0.950 . S
C234 C233 1.398 . S
C234 C235 1.391 . S
C235 H223 0.950 . S
C235 C231 1.393 . S
C235 C234 1.391 . S
H236 C244 0.950 . S
H237 C249 0.950 . S
H238 C246 0.950 1_655 S
H239 C248 0.950 . S
H240 C250 0.950 . S
H241 C252 0.950 . S
H242 C254 0.950 1_655 S
H243 C255 0.950 . S
C244 H236 0.950 . S
C244 C245 1.386 . S
C244 C246 1.391 . S
C245 C244 1.386 . S
C245 C249 1.393 . S
C246 H238 0.950 1_455 S
C246 C244 1.391 . S
C246 C247 1.400 . S
C247 C246 1.400 . S
C247 C248 1.398 . S
C247 C253 1.491 . S
C248 H239 0.950 . S
C248 C247 1.398 . S
C248 C249 1.391 . S
C249 H237 0.950 . S
C249 C245 1.393 . S
C249 C248 1.391 . S
C250 H240 0.950 . S
C250 C251 1.386 . S
C250 C252 1.391 . S
C251 C250 1.386 . S
C251 C255 1.393 1_455 S
C252 H241 0.950 . S
C252 C250 1.391 . S
C252 C253 1.400 . S
C253 C247 1.491 . S
C253 C252 1.400 . S
C253 C254 1.398 . S
C254 H242 0.950 1_455 S
C254 C253 1.398 . S
C254 C255 1.391 1_455 S
C255 H243 0.950 . S
C255 C251 1.393 1_655 S
C255 C254 1.391 1_655 S
H256 C264 0.950 . S
H257 C269 0.950 1_554 S
H258 C266 0.950 . S
H259 C268 0.950 . S
H260 C270 0.950 . S
H261 C272 0.950 . S
H262 C274 0.950 . S
H263 C275 0.950 . S
C264 H256 0.950 . S
C264 C265 1.386 . S
C264 C266 1.391 . S
C265 C264 1.386 . S
C265 C269 1.393 1_545 S
C266 H258 0.950 . S
C266 C264 1.391 . S
C266 C267 1.400 . S
C267 C266 1.400 . S
C267 C268 1.398 1_545 S
C267 C273 1.491 . S
C268 H259 0.950 . S
C268 C267 1.398 1_565 S
C268 C269 1.391 . S
C269 H257 0.950 1_556 S
C269 C265 1.393 1_565 S
C269 C268 1.391 . S
C270 H260 0.950 . S
C270 C271 1.374 1_565 S
C270 C272 1.391 . S
C271 C270 1.374 1_545 S
C271 C275 1.404 . S
C272 H261 0.950 . S
C272 C270 1.391 . S
C272 C273 1.392 1_565 S
C273 C267 1.491 . S
C273 C272 1.392 1_545 S
C273 C274 1.407 . S
C274 H262 0.950 . S
C274 C273 1.407 . S
C274 C275 1.391 . S
C275 H263 0.950 . S
C275 C271 1.404 . S
C275 C274 1.391 . S
H276 C284 0.950 1_554 S
H277 C289 0.950 . S
H278 C286 0.950 . S
H279 C288 0.950 . S
H280 C290 0.950 . S
H281 C292 0.950 . S
H282 C294 0.950 . S
H283 C295 0.950 . S
C284 H276 0.950 1_556 S
C284 C285 1.386 . S
C284 C286 1.391 . S
C285 C284 1.386 . S
C285 C289 1.393 . S
C286 H278 0.950 . S
C286 C284 1.391 . S
C286 C287 1.400 . S
C287 C286 1.400 . S
C287 C288 1.398 . S
C287 C293 1.491 . S
C288 H279 0.950 . S
C288 C287 1.398 . S
C288 C289 1.391 . S
C289 H277 0.950 . S
C289 C285 1.393 . S
C289 C288 1.391 . S
C290 H280 0.950 . S
C290 C291 1.386 . S
C290 C292 1.391 . S
C291 C290 1.386 . S
C291 C295 1.393 . S
C292 H281 0.950 . S
C292 C290 1.391 . S
C292 C293 1.400 . S
C293 C287 1.491 . S
C293 C292 1.400 . S
C293 C294 1.398 . S
C294 H282 0.950 . S
C294 C293 1.398 . S
C294 C295 1.391 . S
C295 H283 0.950 . S
C295 C291 1.393 . S
C295 C294 1.391 . S
H296 C304 0.950 . S
H297 C309 0.950 . S
H298 C306 0.950 . S
H299 C308 0.950 . S
H300 C310 0.950 . S
H301 C312 0.950 . S
H302 C314 0.950 . S
H303 C315 0.950 . S
C304 H296 0.950 . S
C304 C305 1.386 . S
C304 C306 1.391 . S
C305 C304 1.386 . S
C305 C309 1.393 . S
C306 H298 0.950 . S
C306 C304 1.391 . S
C306 C307 1.400 . S
C307 C306 1.400 . S
C307 C308 1.398 . S
C307 C313 1.491 . S
C308 H299 0.950 . S
C308 C307 1.398 . S
C308 C309 1.391 . S
C309 H297 0.950 . S
C309 C305 1.393 . S
C309 C308 1.391 . S
C310 H300 0.950 . S
C310 C311 1.386 . S
C310 C312 1.391 . S
C311 C310 1.386 . S
C311 C315 1.393 . S
C312 H301 0.950 . S
C312 C310 1.391 . S
C312 C313 1.400 . S
C313 C307 1.491 . S
C313 C312 1.400 . S
C313 C314 1.398 . S
C314 H302 0.950 . S
C314 C313 1.398 . S
C314 C315 1.391 . S
C315 H303 0.950 . S
C315 C311 1.393 . S
C315 C314 1.391 . S
H316 C324 0.950 . S
H317 C329 0.950 . S
H318 C326 0.950 . S
H319 C328 0.950 1_455 S
H320 C330 0.950 . S
H321 C332 0.950 . S
H322 C334 0.950 . S
H323 C335 0.950 . S
C324 H316 0.950 . S
C324 C325 1.386 . S
C324 C326 1.391 . S
C325 C324 1.386 . S
C325 C329 1.393 . S
C326 H318 0.950 . S
C326 C324 1.391 . S
C326 C327 1.400 . S
C327 C326 1.400 . S
C327 C328 1.398 . S
C327 C333 1.491 . S
C328 H319 0.950 1_655 S
C328 C327 1.398 . S
C328 C329 1.391 . S
C329 H317 0.950 . S
C329 C325 1.393 . S
C329 C328 1.391 . S
C330 H320 0.950 . S
C330 C331 1.386 1_455 S
C330 C332 1.391 . S
C331 C330 1.386 1_655 S
C331 C335 1.393 . S
C332 H321 0.950 . S
C332 C330 1.391 . S
C332 C333 1.400 1_455 S
C333 C327 1.491 . S
C333 C332 1.400 1_655 S
C333 C334 1.398 . S
C334 H322 0.950 . S
C334 C333 1.398 . S
C334 C335 1.391 . S
C335 H323 0.950 . S
C335 C331 1.393 . S
C335 C334 1.391 . S
H336 C344 0.950 . S
H337 C349 0.950 . S
H338 C346 0.950 . S
H339 C348 0.950 1_655 S
H340 C350 0.950 . S
H341 C352 0.950 . S
H342 C354 0.950 . S
H343 C355 0.950 . S
C344 H336 0.950 . S
C344 C345 1.386 . S
C344 C346 1.391 . S
C345 C344 1.386 . S
C345 C349 1.393 . S
C346 H338 0.950 . S
C346 C344 1.391 . S
C346 C347 1.400 . S
C347 C346 1.400 . S
C347 C348 1.398 . S
C347 C353 1.491 . S
C348 H339 0.950 1_455 S
C348 C347 1.398 . S
C348 C349 1.391 . S
C349 H337 0.950 . S
C349 C345 1.393 . S
C349 C348 1.391 . S
C350 H340 0.950 . S
C350 C351 1.386 1_655 S
C350 C352 1.391 . S
C351 C350 1.386 1_455 S
C351 C355 1.393 . S
C352 H341 0.950 . S
C352 C350 1.391 . S
C352 C353 1.400 1_655 S
C353 C347 1.491 . S
C353 C352 1.400 1_455 S
C353 C354 1.398 . S
C354 H342 0.950 . S
C354 C353 1.398 . S
C354 C355 1.391 . S
C355 H343 0.950 . S
C355 C351 1.393 . S
C355 C354 1.391 . S
H356 C364 0.950 . S
H357 C369 0.950 . S
H358 C366 0.950 . S
H359 C368 0.950 . S
H360 C370 0.950 . S
H361 C372 0.950 . S
H362 C374 0.950 . S
H363 C375 0.950 . S
C364 H356 0.950 . S
C364 C365 1.398 . S
C364 C366 1.391 . S
C365 C364 1.398 . S
C365 C369 1.379 1_545 S
C366 H358 0.950 . S
C366 C364 1.391 . S
C366 C367 1.400 1_545 S
C367 C366 1.400 1_565 S
C367 C368 1.398 . S
C367 C373 1.491 . S
C368 H359 0.950 . S
C368 C367 1.398 . S
C368 C369 1.391 . S
C369 H357 0.950 . S
C369 C365 1.379 1_565 S
C369 C368 1.391 . S
C370 H360 0.950 . S
C370 C371 1.386 . S
C370 C372 1.391 . S
C371 C370 1.386 . S
C371 C375 1.393 1_565 S
C372 H361 0.950 . S
C372 C370 1.391 . S
C372 C373 1.400 . S
C373 C367 1.491 . S
C373 C372 1.400 . S
C373 C374 1.398 1_565 S
C374 H362 0.950 . S
C374 C373 1.398 1_545 S
C374 C375 1.391 . S
C375 H363 0.950 . S
C375 C371 1.393 1_545 S
C375 C374 1.391 . S
H376 C384 0.950 . S
H377 C389 0.950 . S
H378 C386 0.950 . S
H379 C388 0.950 . S
H380 C390 0.950 . S
H381 C392 0.950 . S
H382 C394 0.950 . S
H383 C395 0.950 . S
C384 H376 0.950 . S
C384 C385 1.386 . S
C384 C386 1.391 . S
C385 C384 1.386 . S
C385 C389 1.393 . S
C386 H378 0.950 . S
C386 C384 1.391 . S
C386 C387 1.400 . S
C387 C386 1.400 . S
C387 C388 1.398 . S
C387 C393 1.491 . S
C388 H379 0.950 . S
C388 C387 1.398 . S
C388 C389 1.391 . S
C389 H377 0.950 . S
C389 C385 1.393 . S
C389 C388 1.391 . S
C390 H380 0.950 . S
C390 C391 1.386 . S
C390 C392 1.391 . S
C391 C390 1.386 . S
C391 C395 1.393 . S
C392 H381 0.950 . S
C392 C390 1.391 . S
C392 C393 1.400 . S
C393 C387 1.491 . S
C393 C392 1.400 . S
C393 C394 1.398 . S
C394 H382 0.950 . S
C394 C393 1.398 . S
C394 C395 1.391 . S
C395 H383 0.950 . S
C395 C391 1.393 . S
C395 C394 1.391 . S
H396 C404 0.950 . S
H397 C409 0.950 . S
H398 C406 0.950 . S
H399 C408 0.950 . S
H400 C410 0.950 . S
H401 C412 0.950 . S
H402 C414 0.950 . S
H403 C415 0.950 . S
C404 H396 0.950 . S
C404 C405 1.386 . S
C404 C406 1.391 . S
C405 C404 1.386 . S
C405 C409 1.393 . S
C406 H398 0.950 . S
C406 C404 1.391 . S
C406 C407 1.400 . S
C407 C406 1.400 . S
C407 C408 1.398 . S
C407 C413 1.491 . S
C408 H399 0.950 . S
C408 C407 1.398 . S
C408 C409 1.391 . S
C409 H397 0.950 . S
C409 C405 1.393 . S
C409 C408 1.391 . S
C410 H400 0.950 . S
C410 C411 1.386 . S
C410 C412 1.391 . S
C411 C410 1.386 . S
C411 C415 1.393 . S
C412 H401 0.950 . S
C412 C410 1.391 . S
C412 C413 1.400 . S
C413 C407 1.491 . S
C413 C412 1.400 . S
C413 C414 1.398 . S
C414 H402 0.950 . S
C414 C413 1.398 . S
C414 C415 1.391 . S
C415 H403 0.950 . S
C415 C411 1.393 . S
C415 C414 1.391 . S
H416 C424 0.950 . S
H417 C429 0.950 . S
H418 C426 0.950 1_455 S
H419 C428 0.950 . S
H420 C430 0.950 . S
H421 C432 0.950 . S
H422 C434 0.950 . S
H423 C435 0.950 . S
C424 H416 0.950 . S
C424 C425 1.386 . S
C424 C426 1.391 . S
C425 C424 1.386 . S
C425 C429 1.393 . S
C426 H418 0.950 1_655 S
C426 C424 1.391 . S
C426 C427 1.400 . S
C427 C426 1.400 . S
C427 C428 1.398 . S
C427 C433 1.491 . S
C428 H419 0.950 . S
C428 C427 1.398 . S
C428 C429 1.391 . S
C429 H417 0.950 . S
C429 C425 1.393 . S
C429 C428 1.391 . S
C430 H420 0.950 . S
C430 C431 1.390 1_655 S
C430 C432 1.391 . S
C431 C430 1.390 1_455 S
C431 C435 1.390 . S
C432 H421 0.950 . S
C432 C430 1.391 . S
C432 C433 1.400 . S
C433 C427 1.491 . S
C433 C432 1.400 . S
C433 C434 1.398 1_655 S
C434 H422 0.950 . S
C434 C433 1.398 1_455 S
C434 C435 1.391 . S
C435 H423 0.950 . S
C435 C431 1.390 . S
C435 C434 1.391 . S
H436 C444 0.950 . S
H437 C449 0.950 1_554 S
H438 C446 0.950 . S
H439 C448 0.950 . S
H440 C450 0.950 . S
H441 C452 0.950 . S
H442 C454 0.950 1_565 S
H443 C455 0.941 1_565 S
C444 H436 0.950 . S
C444 C445 1.393 . S
C444 C446 1.391 . S
C445 C444 1.393 . S
C445 C449 1.385 1_565 S
C446 H438 0.950 . S
C446 C444 1.391 . S
C446 C447 1.400 1_565 S
C447 C446 1.400 1_545 S
C447 C448 1.398 . S
C447 C453 1.491 . S
C448 H439 0.950 . S
C448 C447 1.398 . S
C448 C449 1.391 . S
C449 H437 0.950 1_556 S
C449 C445 1.385 1_545 S
C449 C448 1.391 . S
C450 H440 0.950 . S
C450 C451 1.386 . S
C450 C452 1.391 . S
C451 C450 1.386 . S
C451 C455 1.393 . S
C452 H441 0.950 . S
C452 C450 1.391 . S
C452 C453 1.400 . S
C453 C447 1.491 . S
C453 C452 1.400 . S
C453 C454 1.398 . S
C454 H442 0.950 1_545 S
C454 C453 1.398 . S
C454 C455 1.391 . S
C455 H443 0.941 1_545 S
C455 C451 1.393 . S
C455 C454 1.391 . S
H456 C464 0.950 1_554 S
H457 C469 0.950 . S
H458 C466 0.950 . S
H459 C468 0.950 . S
H460 C470 0.950 . S
H461 C472 0.950 . S
H462 C474 0.950 . S
H463 C475 0.950 . S
C464 H456 0.950 1_556 S
C464 C465 1.386 . S
C464 C466 1.391 . S
C465 C464 1.386 . S
C465 C469 1.393 . S
C466 H458 0.950 . S
C466 C464 1.391 . S
C466 C467 1.400 . S
C467 C466 1.400 . S
C467 C468 1.398 . S
C467 C473 1.491 . S
C468 H459 0.950 . S
C468 C467 1.398 . S
C468 C469 1.391 . S
C469 H457 0.950 . S
C469 C465 1.393 . S
C469 C468 1.391 . S
C470 H460 0.950 . S
C470 C471 1.386 . S
C470 C472 1.391 . S
C471 C470 1.386 . S
C471 C475 1.393 . S
C472 H461 0.950 . S
C472 C470 1.391 . S
C472 C473 1.400 . S
C473 C467 1.491 . S
C473 C472 1.400 . S
C473 C474 1.398 . S
C474 H462 0.950 . S
C474 C473 1.398 . S
C474 C475 1.391 . S
C475 H463 0.950 . S
C475 C471 1.393 . S
C475 C474 1.391 . S
H476 C484 0.950 . S
H477 C489 0.950 1_554 S
H478 C486 0.950 . S
H479 C488 0.950 . S
H480 C490 0.950 . S
H481 C492 0.950 . S
H482 C494 0.950 . S
H483 C495 0.950 . S
C484 H476 0.950 . S
C484 C485 1.386 . S
C484 C486 1.391 . S
C485 C484 1.386 . S
C485 C489 1.393 . S
C486 H478 0.950 . S
C486 C484 1.391 . S
C486 C487 1.400 . S
C487 C486 1.400 . S
C487 C488 1.398 . S
C487 C493 1.491 . S
C488 H479 0.950 . S
C488 C487 1.398 . S
C488 C489 1.391 . S
C489 H477 0.950 1_556 S
C489 C485 1.393 . S
C489 C488 1.391 . S
C490 H480 0.950 . S
C490 C491 1.386 . S
C490 C492 1.391 . S
C491 C490 1.386 . S
C491 C495 1.393 . S
C492 H481 0.950 . S
C492 C490 1.391 . S
C492 C493 1.400 . S
C493 C487 1.491 . S
C493 C492 1.400 . S
C493 C494 1.398 . S
C494 H482 0.950 . S
C494 C493 1.398 . S
C494 C495 1.391 . S
C495 H483 0.950 . S
C495 C491 1.393 . S
C495 C494 1.391 . S
H496 C504 0.950 . S
H497 C509 0.950 . S
H498 C506 0.950 . S
H499 C508 0.950 . S
H500 C510 0.950 . S
H501 C512 0.950 . S
H502 C514 0.950 1_655 S
H503 C515 0.950 1_655 S
C504 H496 0.950 . S
C504 C505 1.386 . S
C504 C506 1.391 1_554 S
C505 C504 1.386 . S
C505 C509 1.393 1_554 S
C506 H498 0.950 . S
C506 C504 1.391 1_556 S
C506 C507 1.400 . S
C507 C506 1.400 . S
C507 C508 1.398 . S
C507 C513 1.491 . S
C508 H499 0.950 . S
C508 C507 1.398 . S
C508 C509 1.391 . S
C509 H497 0.950 . S
C509 C505 1.393 1_556 S
C509 C508 1.391 . S
C510 H500 0.950 . S
C510 C511 1.386 . S
C510 C512 1.391 . S
C511 C510 1.386 . S
C511 C515 1.393 . S
C512 H501 0.950 . S
C512 C510 1.391 . S
C512 C513 1.400 . S
C513 C507 1.491 . S
C513 C512 1.400 . S
C513 C514 1.398 . S
C514 H502 0.950 1_455 S
C514 C513 1.398 . S
C514 C515 1.391 . S
C515 H503 0.950 1_455 S
C515 C511 1.393 . S
C515 C514 1.391 . S
H516 C524 0.950 . S
H517 C529 0.950 . S
H518 C526 0.954 . S
H519 C528 0.950 . S
H520 C530 0.950 . S
H521 C532 0.950 . S
H522 C534 0.950 . S
H523 C535 0.950 . S
C524 H516 0.950 . S
C524 C525 1.377 1_564 S
C524 C526 1.391 1_554 S
C525 C524 1.377 1_546 S
C525 C529 1.402 . S
C526 H518 0.954 . S
C526 C524 1.391 1_556 S
C526 C527 1.400 1_565 S
C527 C526 1.400 1_545 S
C527 C528 1.398 . S
C527 C533 1.491 . S
C528 H519 0.950 . S
C528 C527 1.398 . S
C528 C529 1.391 . S
C529 H517 0.950 . S
C529 C525 1.402 . S
C529 C528 1.391 . S
C530 H520 0.950 . S
C530 C531 1.386 . S
C530 C532 1.391 . S
C531 C530 1.386 . S
C531 C535 1.393 1_545 S
C532 H521 0.950 . S
C532 C530 1.391 . S
C532 C533 1.400 . S
C533 C527 1.491 . S
C533 C532 1.400 . S
C533 C534 1.398 1_545 S
C534 H522 0.950 . S
C534 C533 1.398 1_565 S
C534 C535 1.391 . S
C535 H523 0.950 . S
C535 C531 1.393 1_565 S
C535 C534 1.391 . S
H536 C544 0.950 . S
H537 C549 0.950 . S
H538 C546 0.950 . S
H539 C548 0.950 . S
H540 C550 0.950 . S
H541 C552 0.950 . S
H542 C554 0.950 . S
H543 C555 0.950 . S
C544 H536 0.950 . S
C544 C545 1.386 . S
C544 C546 1.391 1_554 S
C545 C544 1.386 . S
C545 C549 1.393 1_554 S
C546 H538 0.950 . S
C546 C544 1.391 1_556 S
C546 C547 1.400 . S
C547 C546 1.400 . S
C547 C548 1.398 . S
C547 C553 1.491 . S
C548 H539 0.950 . S
C548 C547 1.398 . S
C548 C549 1.391 . S
C549 H537 0.950 . S
C549 C545 1.393 1_556 S
C549 C548 1.391 . S
C550 H540 0.950 . S
C550 C551 1.386 . S
C550 C552 1.391 . S
C551 C550 1.386 . S
C551 C555 1.393 . S
C552 H541 0.950 . S
C552 C550 1.391 . S
C552 C553 1.400 . S
C553 C547 1.491 . S
C553 C552 1.400 . S
C553 C554 1.398 . S
C554 H542 0.950 . S
C554 C553 1.398 . S
C554 C555 1.391 . S
C555 H543 0.950 . S
C555 C551 1.393 . S
C555 C554 1.391 . S
H556 C564 0.950 . S
H557 C569 0.950 . S
H558 C566 0.950 . S
H559 C568 0.950 . S
H560 C570 0.950 . S
H561 C572 0.950 . S
H562 C574 0.950 . S
H563 C575 0.950 . S
C564 H556 0.950 . S
C564 C565 1.390 . S
C564 C566 1.391 . S
C565 C564 1.390 . S
C565 C569 1.392 1_556 S
C566 H558 0.950 . S
C566 C564 1.391 . S
C566 C567 1.400 . S
C567 C566 1.400 . S
C567 C568 1.398 . S
C567 C573 1.491 . S
C568 H559 0.950 . S
C568 C567 1.398 . S
C568 C569 1.391 1_556 S
C569 H557 0.950 . S
C569 C565 1.392 1_554 S
C569 C568 1.391 1_554 S
C570 H560 0.950 . S
C570 C571 1.386 . S
C570 C572 1.391 . S
C571 C570 1.386 . S
C571 C575 1.393 . S
C572 H561 0.950 . S
C572 C570 1.391 . S
C572 C573 1.400 . S
C573 C567 1.491 . S
C573 C572 1.400 . S
C573 C574 1.398 . S
C574 H562 0.950 . S
C574 C573 1.398 . S
C574 C575 1.391 . S
C575 H563 0.950 . S
C575 C571 1.393 . S
C575 C574 1.391 . S
H576 C584 0.950 . S
H577 C589 0.950 . S
H578 C586 0.950 . S
H579 C588 0.950 . S
H580 C590 0.950 . S
H581 C592 0.950 . S
H582 C594 0.950 . S
H583 C595 0.950 1_455 S
C584 H576 0.950 . S
C584 C585 1.386 . S
C584 C586 1.391 . S
C585 C584 1.386 . S
C585 C589 1.393 . S
C586 H578 0.950 . S
C586 C584 1.391 . S
C586 C587 1.400 . S
C587 C586 1.400 . S
C587 C588 1.398 . S
C587 C593 1.491 . S
C588 H579 0.950 . S
C588 C587 1.398 . S
C588 C589 1.391 . S
C589 H577 0.950 . S
C589 C585 1.393 . S
C589 C588 1.391 . S
C590 H580 0.950 . S
C590 C591 1.386 . S
C590 C592 1.391 . S
C591 C590 1.386 . S
C591 C595 1.393 . S
C592 H581 0.950 . S
C592 C590 1.391 . S
C592 C593 1.400 . S
C593 C587 1.491 . S
C593 C592 1.400 . S
C593 C594 1.398 . S
C594 H582 0.950 . S
C594 C593 1.398 . S
C594 C595 1.391 . S
C595 H583 0.950 1_655 S
C595 C591 1.393 . S
C595 C594 1.391 . S
H596 C604 0.950 . S
H597 C609 0.950 . S
H598 C606 0.950 . S
H599 C608 0.950 . S
H600 C610 0.950 . S
H601 C612 0.950 . S
H602 C614 0.950 . S
H603 C615 0.950 . S
C604 H596 0.950 . S
C604 C605 1.386 . S
C604 C606 1.391 . S
C605 C604 1.386 . S
C605 C609 1.393 1_565 S
C606 H598 0.950 . S
C606 C604 1.391 . S
C606 C607 1.400 . S
C607 C606 1.400 . S
C607 C608 1.398 1_565 S
C607 C613 1.491 . S
C608 H599 0.950 . S
C608 C607 1.398 1_545 S
C608 C609 1.391 . S
C609 H597 0.950 . S
C609 C605 1.393 1_545 S
C609 C608 1.391 . S
C610 H600 0.950 . S
C610 C611 1.386 1_545 S
C610 C612 1.391 . S
C611 C610 1.386 1_565 S
C611 C615 1.393 . S
C612 H601 0.950 . S
C612 C610 1.391 . S
C612 C613 1.400 1_545 S
C613 C607 1.491 . S
C613 C612 1.400 1_565 S
C613 C614 1.398 . S
C614 H602 0.950 . S
C614 C613 1.398 . S
C614 C615 1.391 . S
C615 H603 0.950 . S
C615 C611 1.393 . S
C615 C614 1.391 . S
H616 C624 0.950 . S
H617 C629 0.950 . S
H618 C626 0.950 . S
H619 C628 0.950 . S
H620 C630 0.950 . S
H621 C632 0.950 . S
H622 C634 0.950 . S
H623 C635 0.950 . S
C624 H616 0.950 . S
C624 C625 1.386 . S
C624 C626 1.391 . S
C625 C624 1.386 . S
C625 C629 1.393 . S
C626 H618 0.950 . S
C626 C624 1.391 . S
C626 C627 1.400 . S
C627 C626 1.400 . S
C627 C628 1.398 . S
C627 C633 1.491 . S
C628 H619 0.950 . S
C628 C627 1.398 . S
C628 C629 1.391 . S
C629 H617 0.950 . S
C629 C625 1.393 . S
C629 C628 1.391 . S
C630 H620 0.950 . S
C630 C631 1.386 . S
C630 C632 1.391 . S
C631 C630 1.386 . S
C631 C635 1.393 . S
C632 H621 0.950 . S
C632 C630 1.391 . S
C632 C633 1.400 . S
C633 C627 1.491 . S
C633 C632 1.400 . S
C633 C634 1.398 . S
C634 H622 0.950 . S
C634 C633 1.398 . S
C634 C635 1.391 . S
C635 H623 0.950 . S
C635 C631 1.393 . S
C635 C634 1.391 . S
H636 C644 0.950 . S
H637 C649 0.950 . S
H638 C646 0.950 . S
H639 C648 0.950 . S
H640 C650 0.950 . S
H641 C652 0.950 . S
H642 C654 0.950 . S
H643 C655 0.950 . S
C644 H636 0.950 . S
C644 C645 1.386 . S
C644 C646 1.391 . S
C645 C644 1.386 . S
C645 C649 1.393 . S
C646 H638 0.950 . S
C646 C644 1.391 . S
C646 C647 1.400 . S
C647 C646 1.400 . S
C647 C648 1.398 . S
C647 C653 1.491 . S
C648 H639 0.950 . S
C648 C647 1.398 . S
C648 C649 1.391 . S
C649 H637 0.950 . S
C649 C645 1.393 . S
C649 C648 1.391 . S
C650 H640 0.950 . S
C650 C651 1.386 . S
C650 C652 1.391 . S
C651 C650 1.386 . S
C651 C655 1.393 . S
C652 H641 0.950 . S
C652 C650 1.391 . S
C652 C653 1.400 . S
C653 C647 1.491 . S
C653 C652 1.400 . S
C653 C654 1.398 . S
C654 H642 0.950 . S
C654 C653 1.398 . S
C654 C655 1.391 . S
C655 H643 0.950 . S
C655 C651 1.393 . S
C655 C654 1.391 . S
C185 C76 1.473 1_545 S
C191 C114 1.481 . S
C211 C134 1.569 . S
C205 C88 1.531 . S
C231 C154 1.482 . S
C225 C52 1.475 . S
C251 C174 1.547 . S
C245 C64 1.510 . S
C271 C115 1.493 . S
C265 C28 1.471 1_545 S
C285 C40 1.546 . S
C291 C135 1.567 . S
C305 C4 1.449 . S
C311 C155 1.466 . S
C325 C16 1.522 . S
C331 C175 1.546 1_655 S
C351 C105 0.853 . S
C345 C69 0.865 . S
C371 C125 0.850 . S
C365 C81 0.848 . S
C391 C145 0.826 . S
C385 C93 0.849 . S
C405 C57 0.852 . S
C411 C165 0.852 . S
C425 C21 0.870 . S
C431 C108 0.866 1_455 S
C451 C128 0.832 . S
C445 C33 0.824 1_565 S
C471 C148 0.818 . S
C465 C45 0.834 . S
C485 C9 0.828 . S
C491 C168 0.833 . S
C505 C66 1.569 . S
C511 C98 1.514 . S
C525 C78 1.520 1_556 S
C531 C118 1.472 . S
C551 C138 1.484 . S
C545 C90 1.537 . S
C571 C158 1.456 . S
C565 C54 1.506 1_556 S
C585 C18 1.531 . S
C591 C100 1.495 . S
C611 C120 1.461 . S
C605 C30 1.521 1_565 S
C631 C140 1.512 . S
C625 C42 1.554 . S
C645 C6 1.519 . S
C651 C160 1.461 . S
