# Generated by pormake.
# Topology tbo, (3,4)-cn, num edge types: 1
# Building blocks:
#     Node 0, Type 0, BuildingBlock: WUSLED_clean_sbu_0, # of connection points: 3
#     Node 1, Type 0, BuildingBlock: WUSLED_clean_sbu_0, # of connection points: 3
#     Node 2, Type 0, BuildingBlock: WUSLED_clean_sbu_0, # of connection points: 3
#     Node 3, Type 0, BuildingBlock: WUSLED_clean_sbu_0, # of connection points: 3
#     Node 4, Type 0, BuildingBlock: WUSLED_clean_sbu_0, # of connection points: 3
#     Node 5, Type 0, BuildingBlock: WUSLED_clean_sbu_0, # of connection points: 3
#     Node 6, Type 0, BuildingBlock: WUSLED_clean_sbu_0, # of connection points: 3
#     Node 7, Type 0, BuildingBlock: WUSLED_clean_sbu_0, # of connection points: 3
#     Node 8, Type 0, BuildingBlock: WUSLED_clean_sbu_0, # of connection points: 3
#     Node 9, Type 0, BuildingBlock: WUSLED_clean_sbu_0, # of connection points: 3
#     Node 10, Type 0, BuildingBlock: WUSLED_clean_sbu_0, # of connection points: 3
#     Node 11, Type 0, BuildingBlock: WUSLED_clean_sbu_0, # of connection points: 3
#     Node 12, Type 0, BuildingBlock: WUSLED_clean_sbu_0, # of connection points: 3
#     Node 13, Type 0, BuildingBlock: WUSLED_clean_sbu_0, # of connection points: 3
#     Node 14, Type 0, BuildingBlock: WUSLED_clean_sbu_0, # of connection points: 3
#     Node 15, Type 0, BuildingBlock: WUSLED_clean_sbu_0, # of connection points: 3
#     Node 16, Type 0, BuildingBlock: WUSLED_clean_sbu_0, # of connection points: 3
#     Node 17, Type 0, BuildingBlock: WUSLED_clean_sbu_0, # of connection points: 3
#     Node 18, Type 0, BuildingBlock: WUSLED_clean_sbu_0, # of connection points: 3
#     Node 19, Type 0, BuildingBlock: WUSLED_clean_sbu_0, # of connection points: 3
#     Node 20, Type 0, BuildingBlock: WUSLED_clean_sbu_0, # of connection points: 3
#     Node 21, Type 0, BuildingBlock: WUSLED_clean_sbu_0, # of connection points: 3
#     Node 22, Type 0, BuildingBlock: WUSLED_clean_sbu_0, # of connection points: 3
#     Node 23, Type 0, BuildingBlock: WUSLED_clean_sbu_0, # of connection points: 3
#     Node 24, Type 0, BuildingBlock: WUSLED_clean_sbu_0, # of connection points: 3
#     Node 25, Type 0, BuildingBlock: WUSLED_clean_sbu_0, # of connection points: 3
#     Node 26, Type 0, BuildingBlock: WUSLED_clean_sbu_0, # of connection points: 3
#     Node 27, Type 0, BuildingBlock: WUSLED_clean_sbu_0, # of connection points: 3
#     Node 28, Type 0, BuildingBlock: WUSLED_clean_sbu_0, # of connection points: 3
#     Node 29, Type 0, BuildingBlock: WUSLED_clean_sbu_0, # of connection points: 3
#     Node 30, Type 0, BuildingBlock: WUSLED_clean_sbu_0, # of connection points: 3
#     Node 31, Type 0, BuildingBlock: WUSLED_clean_sbu_0, # of connection points: 3
#     Node 32, Type 1, BuildingBlock: MIFKUJ_clean_linker_1, # of connection points: 4
#     Node 33, Type 1, BuildingBlock: MIFKUJ_clean_linker_1, # of connection points: 4
#     Node 34, Type 1, BuildingBlock: MIFKUJ_clean_linker_1, # of connection points: 4
#     Node 35, Type 1, BuildingBlock: MIFKUJ_clean_linker_1, # of connection points: 4
#     Node 36, Type 1, BuildingBlock: MIFKUJ_clean_linker_1, # of connection points: 4
#     Node 37, Type 1, BuildingBlock: MIFKUJ_clean_linker_1, # of connection points: 4
#     Node 38, Type 1, BuildingBlock: MIFKUJ_clean_linker_1, # of connection points: 4
#     Node 39, Type 1, BuildingBlock: MIFKUJ_clean_linker_1, # of connection points: 4
#     Node 40, Type 1, BuildingBlock: MIFKUJ_clean_linker_1, # of connection points: 4
#     Node 41, Type 1, BuildingBlock: MIFKUJ_clean_linker_1, # of connection points: 4
#     Node 42, Type 1, BuildingBlock: MIFKUJ_clean_linker_1, # of connection points: 4
#     Node 43, Type 1, BuildingBlock: MIFKUJ_clean_linker_1, # of connection points: 4
#     Node 44, Type 1, BuildingBlock: MIFKUJ_clean_linker_1, # of connection points: 4
#     Node 45, Type 1, BuildingBlock: MIFKUJ_clean_linker_1, # of connection points: 4
#     Node 46, Type 1, BuildingBlock: MIFKUJ_clean_linker_1, # of connection points: 4
#     Node 47, Type 1, BuildingBlock: MIFKUJ_clean_linker_1, # of connection points: 4
#     Node 48, Type 1, BuildingBlock: MIFKUJ_clean_linker_1, # of connection points: 4
#     Node 49, Type 1, BuildingBlock: MIFKUJ_clean_linker_1, # of connection points: 4
#     Node 50, Type 1, BuildingBlock: MIFKUJ_clean_linker_1, # of connection points: 4
#     Node 51, Type 1, BuildingBlock: MIFKUJ_clean_linker_1, # of connection points: 4
#     Node 52, Type 1, BuildingBlock: MIFKUJ_clean_linker_1, # of connection points: 4
#     Node 53, Type 1, BuildingBlock: MIFKUJ_clean_linker_1, # of connection points: 4
#     Node 54, Type 1, BuildingBlock: MIFKUJ_clean_linker_1, # of connection points: 4
#     Node 55, Type 1, BuildingBlock: MIFKUJ_clean_linker_1, # of connection points: 4
#     Edge 56, Type (0, 1), BuildingBlock: EZIPEK_clean_linker_0, # of connection points: 2
#     Edge 57, Type (0, 1), BuildingBlock: EZIPEK_clean_linker_0, # of connection points: 2
#     Edge 58, Type (0, 1), BuildingBlock: EZIPEK_clean_linker_0, # of connection points: 2
#     Edge 59, Type (0, 1), BuildingBlock: EZIPEK_clean_linker_0, # of connection points: 2
#     Edge 60, Type (0, 1), BuildingBlock: EZIPEK_clean_linker_0, # of connection points: 2
#     Edge 61, Type (0, 1), BuildingBlock: EZIPEK_clean_linker_0, # of connection points: 2
#     Edge 62, Type (0, 1), BuildingBlock: EZIPEK_clean_linker_0, # of connection points: 2
#     Edge 63, Type (0, 1), BuildingBlock: EZIPEK_clean_linker_0, # of connection points: 2
#     Edge 64, Type (0, 1), BuildingBlock: EZIPEK_clean_linker_0, # of connection points: 2
#     Edge 65, Type (0, 1), BuildingBlock: EZIPEK_clean_linker_0, # of connection points: 2
#     Edge 66, Type (0, 1), BuildingBlock: EZIPEK_clean_linker_0, # of connection points: 2
#     Edge 67, Type (0, 1), BuildingBlock: EZIPEK_clean_linker_0, # of connection points: 2
#     Edge 68, Type (0, 1), BuildingBlock: EZIPEK_clean_linker_0, # of connection points: 2
#     Edge 69, Type (0, 1), BuildingBlock: EZIPEK_clean_linker_0, # of connection points: 2
#     Edge 70, Type (0, 1), BuildingBlock: EZIPEK_clean_linker_0, # of connection points: 2
#     Edge 71, Type (0, 1), BuildingBlock: EZIPEK_clean_linker_0, # of connection points: 2
#     Edge 72, Type (0, 1), BuildingBlock: EZIPEK_clean_linker_0, # of connection points: 2
#     Edge 73, Type (0, 1), BuildingBlock: EZIPEK_clean_linker_0, # of connection points: 2
#     Edge 74, Type (0, 1), BuildingBlock: EZIPEK_clean_linker_0, # of connection points: 2
#     Edge 75, Type (0, 1), BuildingBlock: EZIPEK_clean_linker_0, # of connection points: 2
#     Edge 76, Type (0, 1), BuildingBlock: EZIPEK_clean_linker_0, # of connection points: 2
#     Edge 77, Type (0, 1), BuildingBlock: EZIPEK_clean_linker_0, # of connection points: 2
#     Edge 78, Type (0, 1), BuildingBlock: EZIPEK_clean_linker_0, # of connection points: 2
#     Edge 79, Type (0, 1), BuildingBlock: EZIPEK_clean_linker_0, # of connection points: 2
#     Edge 80, Type (0, 1), BuildingBlock: EZIPEK_clean_linker_0, # of connection points: 2
#     Edge 81, Type (0, 1), BuildingBlock: EZIPEK_clean_linker_0, # of connection points: 2
#     Edge 82, Type (0, 1), BuildingBlock: EZIPEK_clean_linker_0, # of connection points: 2
#     Edge 83, Type (0, 1), BuildingBlock: EZIPEK_clean_linker_0, # of connection points: 2
#     Edge 84, Type (0, 1), BuildingBlock: EZIPEK_clean_linker_0, # of connection points: 2
#     Edge 85, Type (0, 1), BuildingBlock: EZIPEK_clean_linker_0, # of connection points: 2
#     Edge 86, Type (0, 1), BuildingBlock: EZIPEK_clean_linker_0, # of connection points: 2
#     Edge 87, Type (0, 1), BuildingBlock: EZIPEK_clean_linker_0, # of connection points: 2
#     Edge 88, Type (0, 1), BuildingBlock: EZIPEK_clean_linker_0, # of connection points: 2
#     Edge 89, Type (0, 1), BuildingBlock: EZIPEK_clean_linker_0, # of connection points: 2
#     Edge 90, Type (0, 1), BuildingBlock: EZIPEK_clean_linker_0, # of connection points: 2
#     Edge 91, Type (0, 1), BuildingBlock: EZIPEK_clean_linker_0, # of connection points: 2
#     Edge 92, Type (0, 1), BuildingBlock: EZIPEK_clean_linker_0, # of connection points: 2
#     Edge 93, Type (0, 1), BuildingBlock: EZIPEK_clean_linker_0, # of connection points: 2
#     Edge 94, Type (0, 1), BuildingBlock: EZIPEK_clean_linker_0, # of connection points: 2
#     Edge 95, Type (0, 1), BuildingBlock: EZIPEK_clean_linker_0, # of connection points: 2
#     Edge 96, Type (0, 1), BuildingBlock: EZIPEK_clean_linker_0, # of connection points: 2
#     Edge 97, Type (0, 1), BuildingBlock: EZIPEK_clean_linker_0, # of connection points: 2
#     Edge 98, Type (0, 1), BuildingBlock: EZIPEK_clean_linker_0, # of connection points: 2
#     Edge 99, Type (0, 1), BuildingBlock: EZIPEK_clean_linker_0, # of connection points: 2
#     Edge 100, Type (0, 1), BuildingBlock: EZIPEK_clean_linker_0, # of connection points: 2
#     Edge 101, Type (0, 1), BuildingBlock: EZIPEK_clean_linker_0, # of connection points: 2
#     Edge 102, Type (0, 1), BuildingBlock: EZIPEK_clean_linker_0, # of connection points: 2
#     Edge 103, Type (0, 1), BuildingBlock: EZIPEK_clean_linker_0, # of connection points: 2
#     Edge 104, Type (0, 1), BuildingBlock: EZIPEK_clean_linker_0, # of connection points: 2
#     Edge 105, Type (0, 1), BuildingBlock: EZIPEK_clean_linker_0, # of connection points: 2
#     Edge 106, Type (0, 1), BuildingBlock: EZIPEK_clean_linker_0, # of connection points: 2
#     Edge 107, Type (0, 1), BuildingBlock: EZIPEK_clean_linker_0, # of connection points: 2
#     Edge 108, Type (0, 1), BuildingBlock: EZIPEK_clean_linker_0, # of connection points: 2
#     Edge 109, Type (0, 1), BuildingBlock: EZIPEK_clean_linker_0, # of connection points: 2
#     Edge 110, Type (0, 1), BuildingBlock: EZIPEK_clean_linker_0, # of connection points: 2
#     Edge 111, Type (0, 1), BuildingBlock: EZIPEK_clean_linker_0, # of connection points: 2
#     Edge 112, Type (0, 1), BuildingBlock: EZIPEK_clean_linker_0, # of connection points: 2
#     Edge 113, Type (0, 1), BuildingBlock: EZIPEK_clean_linker_0, # of connection points: 2
#     Edge 114, Type (0, 1), BuildingBlock: EZIPEK_clean_linker_0, # of connection points: 2
#     Edge 115, Type (0, 1), BuildingBlock: EZIPEK_clean_linker_0, # of connection points: 2
#     Edge 116, Type (0, 1), BuildingBlock: EZIPEK_clean_linker_0, # of connection points: 2
#     Edge 117, Type (0, 1), BuildingBlock: EZIPEK_clean_linker_0, # of connection points: 2
#     Edge 118, Type (0, 1), BuildingBlock: EZIPEK_clean_linker_0, # of connection points: 2
#     Edge 119, Type (0, 1), BuildingBlock: EZIPEK_clean_linker_0, # of connection points: 2
#     Edge 120, Type (0, 1), BuildingBlock: EZIPEK_clean_linker_0, # of connection points: 2
#     Edge 121, Type (0, 1), BuildingBlock: EZIPEK_clean_linker_0, # of connection points: 2
#     Edge 122, Type (0, 1), BuildingBlock: EZIPEK_clean_linker_0, # of connection points: 2
#     Edge 123, Type (0, 1), BuildingBlock: EZIPEK_clean_linker_0, # of connection points: 2
#     Edge 124, Type (0, 1), BuildingBlock: EZIPEK_clean_linker_0, # of connection points: 2
#     Edge 125, Type (0, 1), BuildingBlock: EZIPEK_clean_linker_0, # of connection points: 2
#     Edge 126, Type (0, 1), BuildingBlock: EZIPEK_clean_linker_0, # of connection points: 2
#     Edge 127, Type (0, 1), BuildingBlock: EZIPEK_clean_linker_0, # of connection points: 2
#     Edge 128, Type (0, 1), BuildingBlock: EZIPEK_clean_linker_0, # of connection points: 2
#     Edge 129, Type (0, 1), BuildingBlock: EZIPEK_clean_linker_0, # of connection points: 2
#     Edge 130, Type (0, 1), BuildingBlock: EZIPEK_clean_linker_0, # of connection points: 2
#     Edge 131, Type (0, 1), BuildingBlock: EZIPEK_clean_linker_0, # of connection points: 2
#     Edge 132, Type (0, 1), BuildingBlock: EZIPEK_clean_linker_0, # of connection points: 2
#     Edge 133, Type (0, 1), BuildingBlock: EZIPEK_clean_linker_0, # of connection points: 2
#     Edge 134, Type (0, 1), BuildingBlock: EZIPEK_clean_linker_0, # of connection points: 2
#     Edge 135, Type (0, 1), BuildingBlock: EZIPEK_clean_linker_0, # of connection points: 2
#     Edge 136, Type (0, 1), BuildingBlock: EZIPEK_clean_linker_0, # of connection points: 2
#     Edge 137, Type (0, 1), BuildingBlock: EZIPEK_clean_linker_0, # of connection points: 2
#     Edge 138, Type (0, 1), BuildingBlock: EZIPEK_clean_linker_0, # of connection points: 2
#     Edge 139, Type (0, 1), BuildingBlock: EZIPEK_clean_linker_0, # of connection points: 2
#     Edge 140, Type (0, 1), BuildingBlock: EZIPEK_clean_linker_0, # of connection points: 2
#     Edge 141, Type (0, 1), BuildingBlock: EZIPEK_clean_linker_0, # of connection points: 2
#     Edge 142, Type (0, 1), BuildingBlock: EZIPEK_clean_linker_0, # of connection points: 2
#     Edge 143, Type (0, 1), BuildingBlock: EZIPEK_clean_linker_0, # of connection points: 2
#     Edge 144, Type (0, 1), BuildingBlock: EZIPEK_clean_linker_0, # of connection points: 2
#     Edge 145, Type (0, 1), BuildingBlock: EZIPEK_clean_linker_0, # of connection points: 2
#     Edge 146, Type (0, 1), BuildingBlock: EZIPEK_clean_linker_0, # of connection points: 2
#     Edge 147, Type (0, 1), BuildingBlock: EZIPEK_clean_linker_0, # of connection points: 2
#     Edge 148, Type (0, 1), BuildingBlock: EZIPEK_clean_linker_0, # of connection points: 2
#     Edge 149, Type (0, 1), BuildingBlock: EZIPEK_clean_linker_0, # of connection points: 2
#     Edge 150, Type (0, 1), BuildingBlock: EZIPEK_clean_linker_0, # of connection points: 2
#     Edge 151, Type (0, 1), BuildingBlock: EZIPEK_clean_linker_0, # of connection points: 2
# Relax obj value: 0.000
# Max RMSD: 0.011
# Mean RMSD: 0.006
data_MOF--net-tbo--node1-WUSLED_clean_sbu_0--node2-MIFKUJ_clean_linker_1--edge1-EZIPEK_clean_linker_0
_symmetry_space_group_name_H-M    P1
_symmetry_Int_Tables_number       1
_symmetry_cell_setting            triclinic
loop_
_symmetry_equiv_pos_as_xyz
'x, y, z'
_cell_length_a     87.803529
_cell_length_b     88.122599
_cell_length_c     87.893379
_cell_angle_alpha  89.67473
_cell_angle_beta   90.228306
_cell_angle_gamma 90.651197
loop_
_atom_site_label
_atom_site_type_symbol
_atom_site_fract_x
_atom_site_fract_y
_atom_site_fract_z
_atom_type_partial_charge
C0 C 0.19431 0.15313 0.21638 0.0
C1 C 0.20651 0.14801 0.20756 0.0
C2 C 0.21064 0.1272 0.22542 0.0
C3 C 0.21463 0.13511 0.21205 0.0
C4 C 0.19849 0.13239 0.23423 0.0
C5 C 0.1904 0.14526 0.22974 0.0
U6 U 0.18641 0.18733 0.19025 0.0
O7 O 0.16453 0.19634 0.18216 0.0
O8 O 0.17952 0.21046 0.19637 0.0
C9 C 0.16617 0.20912 0.18966 0.0
C10 C 0.18554 0.16661 0.21191 0.0
C11 C 0.15291 0.21381 0.19867 0.0
C12 C 0.13451 0.20948 0.21893 0.0
C13 C 0.14739 0.20492 0.21082 0.0
C14 C 0.13267 0.23189 0.20294 0.0
C15 C 0.12702 0.22297 0.21498 0.0
C16 C 0.14551 0.22733 0.19485 0.0
C17 C 0.21302 0.19449 0.15564 0.0
C18 C 0.2204 0.21785 0.14259 0.0
C19 C 0.22521 0.1938 0.1309 0.0
C20 C 0.21834 0.18632 0.1432 0.0
C21 C 0.22796 0.20969 0.13102 0.0
C22 C 0.21347 0.21037 0.15494 0.0
C23 C 0.20763 0.18612 0.16927 0.0
O24 O 0.19268 0.17972 0.21331 0.0
O25 O 0.17773 0.1655 0.19917 0.0
O26 O 0.19447 0.17896 0.16809 0.0
O27 O 0.20957 0.19287 0.18245 0.0
H28 H 0.20971 0.15396 0.19721 0.0
H29 H 0.22398 0.13126 0.20511 0.0
H30 H 0.19525 0.12644 0.24456 0.0
H31 H 0.18103 0.14905 0.2367 0.0
H32 H 0.13031 0.20246 0.22819 0.0
H33 H 0.15297 0.19444 0.21393 0.0
H34 H 0.12704 0.24231 0.19972 0.0
H35 H 0.1496 0.23433 0.18551 0.0
H36 H 0.2195 0.23003 0.14233 0.0
H37 H 0.22827 0.18685 0.12135 0.0
H38 H 0.21734 0.17405 0.14306 0.0
H39 H 0.20856 0.21703 0.16397 0.0
C40 C 0.81794 0.19861 0.1572 0.0
C41 C 0.82713 0.21062 0.1518 0.0
C42 C 0.8093 0.21494 0.13099 0.0
C43 C 0.82282 0.21874 0.13875 0.0
C44 C 0.80006 0.20306 0.13653 0.0
C45 C 0.80436 0.19496 0.14955 0.0
U46 U 0.8445 0.18965 0.19085 0.0
O47 O 0.83869 0.18153 0.21391 0.0
O48 O 0.85275 0.16759 0.19898 0.0
C49 C 0.84529 0.16838 0.21189 0.0
C50 C 0.82244 0.18954 0.17055 0.0
C51 C 0.83631 0.15481 0.21634 0.0
C52 C 0.82636 0.1385 0.23648 0.0
C53 C 0.83408 0.15169 0.23186 0.0
C54 C 0.82277 0.13138 0.2101 0.0
C55 C 0.8208 0.12819 0.22564 0.0
C56 C 0.83043 0.14464 0.20547 0.0
C57 C 0.87978 0.21366 0.19937 0.0
C58 C 0.89931 0.20511 0.21701 0.0
C59 C 0.90054 0.23065 0.20666 0.0
C60 C 0.88713 0.22786 0.19842 0.0
C61 C 0.90678 0.21925 0.21591 0.0
C62 C 0.88587 0.20235 0.20884 0.0
C63 C 0.86597 0.21064 0.19027 0.0
O64 O 0.83503 0.18177 0.16905 0.0
O65 O 0.82141 0.1963 0.18379 0.0
O66 O 0.85299 0.21234 0.19741 0.0
O67 O 0.86631 0.19828 0.18197 0.0
H68 H 0.83766 0.21358 0.15758 0.0
H69 H 0.83008 0.22788 0.13461 0.0
H70 H 0.78961 0.19997 0.13068 0.0
H71 H 0.79715 0.18573 0.15356 0.0
H72 H 0.82494 0.13618 0.24851 0.0
H73 H 0.83853 0.15937 0.24042 0.0
H74 H 0.81853 0.12353 0.2016 0.0
H75 H 0.83193 0.14682 0.19342 0.0
H76 H 0.90398 0.19618 0.22409 0.0
H77 H 0.90618 0.24161 0.20568 0.0
H78 H 0.88256 0.23672 0.19119 0.0
H79 H 0.88033 0.19133 0.20977 0.0
C80 C 0.82045 0.8383 0.15441 0.0
C81 C 0.81594 0.84595 0.14111 0.0
C82 C 0.81108 0.82193 0.12843 0.0
C83 C 0.81133 0.83784 0.12822 0.0
C84 C 0.8157 0.8142 0.14165 0.0
C85 C 0.82041 0.82232 0.15455 0.0
U86 U 0.8457 0.84671 0.18943 0.0
O87 O 0.85411 0.86867 0.19808 0.0
O88 O 0.83921 0.85439 0.21227 0.0
C89 C 0.84632 0.86752 0.21078 0.0
C90 C 0.82472 0.84725 0.168 0.0
C91 C 0.83761 0.88102 0.2151 0.0
C92 C 0.8163 0.89817 0.21166 0.0
C93 C 0.8243 0.88521 0.20729 0.0
C94 C 0.83484 0.90283 0.23165 0.0
C95 C 0.82154 0.90707 0.22388 0.0
C96 C 0.84279 0.88991 0.22729 0.0
C97 C 0.8797 0.82062 0.19817 0.0
C98 C 0.89776 0.8244 0.21892 0.0
C99 C 0.90067 0.80318 0.20179 0.0
C100 C 0.88771 0.80771 0.19375 0.0
C101 C 0.90582 0.8115 0.2144 0.0
C102 C 0.88475 0.82894 0.21084 0.0
C103 C 0.86629 0.82526 0.1892 0.0
O104 O 0.82271 0.84063 0.18131 0.0
O105 O 0.83759 0.85496 0.16712 0.0
O106 O 0.86773 0.83808 0.18161 0.0
O107 O 0.85302 0.82373 0.19594 0.0
H108 H 0.81588 0.85825 0.14074 0.0
H109 H 0.80781 0.84398 0.11811 0.0
H110 H 0.8156 0.80191 0.14199 0.0
H111 H 0.82389 0.81613 0.16463 0.0
H112 H 0.80609 0.9013 0.2055 0.0
H113 H 0.82014 0.87849 0.19783 0.0
H114 H 0.83907 0.90957 0.24106 0.0
H115 H 0.85304 0.88687 0.23344 0.0
H116 H 0.90161 0.83097 0.22861 0.0
H117 H 0.90676 0.79323 0.19813 0.0
H118 H 0.88399 0.80117 0.18398 0.0
H119 H 0.87871 0.83896 0.2144 0.0
C120 C 0.15365 0.81937 0.19817 0.0
C121 C 0.15091 0.80391 0.20119 0.0
C122 C 0.12706 0.80989 0.21363 0.0
C123 C 0.13774 0.79921 0.20889 0.0
C124 C 0.12985 0.82538 0.21086 0.0
C125 C 0.14308 0.83011 0.20323 0.0
U126 U 0.18833 0.84526 0.18971 0.0
O127 O 0.21131 0.83911 0.18212 0.0
O128 O 0.19702 0.85357 0.16771 0.0
C129 C 0.20977 0.84598 0.1689 0.0
C130 C 0.16724 0.82386 0.18926 0.0
C131 C 0.21403 0.83709 0.15546 0.0
C132 C 0.20969 0.8162 0.13792 0.0
C133 C 0.20547 0.82435 0.15087 0.0
C134 C 0.23107 0.83344 0.13409 0.0
C135 C 0.22251 0.82074 0.12942 0.0
C136 C 0.22686 0.84155 0.14701 0.0
C137 C 0.1969 0.87948 0.21554 0.0
C138 C 0.21707 0.89808 0.21086 0.0
C139 C 0.20149 0.89996 0.23346 0.0
C140 C 0.19332 0.88698 0.22908 0.0
C141 C 0.21337 0.90565 0.22436 0.0
C142 C 0.20888 0.88506 0.20647 0.0
C143 C 0.18789 0.86601 0.2111 0.0
O144 O 0.16631 0.83654 0.18136 0.0
O145 O 0.18046 0.82224 0.19611 0.0
O146 O 0.19468 0.85289 0.21272 0.0
O147 O 0.18026 0.86716 0.19825 0.0
H148 H 0.15888 0.79545 0.1974 0.0
H149 H 0.13575 0.78722 0.21093 0.0
H150 H 0.12171 0.83377 0.21445 0.0
H151 H 0.14494 0.8421 0.20111 0.0
H152 H 0.20297 0.80642 0.13448 0.0
H153 H 0.19553 0.82075 0.15727 0.0
H154 H 0.24098 0.83709 0.12768 0.0
H155 H 0.23359 0.85135 0.15039 0.0
H156 H 0.22621 0.90233 0.20371 0.0
H157 H 0.19848 0.90565 0.24391 0.0
H158 H 0.18413 0.88283 0.23622 0.0
H159 H 0.21181 0.8794 0.19598 0.0
C160 C 0.15436 0.81881 0.83905 0.0
C161 C 0.14184 0.81229 0.84661 0.0
C162 C 0.12832 0.8095 0.82261 0.0
C163 C 0.1289 0.80769 0.83846 0.0
C164 C 0.1408 0.81607 0.81499 0.0
C165 C 0.15374 0.82076 0.82317 0.0
U166 U 0.18864 0.84511 0.84698 0.0
O167 O 0.19711 0.85393 0.8689 0.0
O168 O 0.21176 0.83971 0.85484 0.0
C169 C 0.20994 0.84646 0.86801 0.0
C170 C 0.16788 0.82344 0.84799 0.0
C171 C 0.21427 0.8377 0.8817 0.0
C172 C 0.22378 0.83753 0.90774 0.0
C173 C 0.21924 0.84551 0.89472 0.0
C174 C 0.21842 0.81375 0.89497 0.0
C175 C 0.22349 0.82162 0.90791 0.0
C176 C 0.21377 0.82174 0.88196 0.0
C177 C 0.19655 0.87912 0.82059 0.0
C178 C 0.21783 0.89668 0.82413 0.0
C179 C 0.19953 0.90099 0.80387 0.0
C180 C 0.19151 0.88789 0.80824 0.0
C181 C 0.21271 0.90549 0.81179 0.0
C182 C 0.20978 0.88355 0.82851 0.0
C183 C 0.18772 0.86555 0.82511 0.0
O184 O 0.18117 0.8219 0.84136 0.0
O185 O 0.16668 0.83625 0.85544 0.0
O186 O 0.18007 0.86671 0.83786 0.0
O187 O 0.19474 0.85253 0.82382 0.0
H188 H 0.14209 0.81072 0.85885 0.0
H189 H 0.11935 0.80266 0.8445 0.0
H190 H 0.14049 0.81758 0.80276 0.0
H191 H 0.16323 0.82587 0.8171 0.0
H192 H 0.22766 0.84376 0.91764 0.0
H193 H 0.2197 0.8578 0.89477 0.0
H194 H 0.21811 0.80146 0.89495 0.0
H195 H 0.2099 0.81544 0.8721 0.0
H196 H 0.22796 0.90004 0.83039 0.0
H197 H 0.19541 0.90768 0.79436 0.0
H198 H 0.18132 0.88464 0.80202 0.0
H199 H 0.2138 0.87692 0.83811 0.0
C200 C 0.15331 0.19557 0.82204 0.0
C201 C 0.1494 0.20891 0.82972 0.0
C202 C 0.12713 0.21177 0.81337 0.0
C203 C 0.13638 0.21697 0.82539 0.0
C204 C 0.13109 0.19846 0.80572 0.0
C205 C 0.14409 0.19044 0.81002 0.0
U206 U 0.18811 0.18715 0.84753 0.0
O207 O 0.19638 0.16501 0.85573 0.0
O208 O 0.21087 0.17929 0.84109 0.0
C209 C 0.20903 0.16603 0.84783 0.0
C210 C 0.1668 0.18671 0.82641 0.0
C211 C 0.21314 0.15244 0.83896 0.0
C212 C 0.22175 0.12627 0.83881 0.0
C213 C 0.21712 0.13911 0.84678 0.0
C214 C 0.21842 0.1398 0.81498 0.0
C215 C 0.22255 0.12656 0.82288 0.0
C216 C 0.2137 0.15265 0.82296 0.0
C217 C 0.19751 0.21283 0.88174 0.0
C218 C 0.21845 0.20854 0.89943 0.0
C219 C 0.20191 0.23008 0.90284 0.0
C220 C 0.19355 0.22579 0.88995 0.0
C221 C 0.21438 0.22147 0.90771 0.0
C222 C 0.21005 0.20423 0.88651 0.0
C223 C 0.1883 0.20848 0.86836 0.0
O224 O 0.18007 0.19352 0.82463 0.0
O225 O 0.16575 0.17912 0.83928 0.0
O226 O 0.18045 0.19575 0.86965 0.0
O227 O 0.19499 0.21002 0.85508 0.0
H228 H 0.15638 0.21302 0.83905 0.0
H229 H 0.13345 0.2272 0.83145 0.0
H230 H 0.12408 0.19426 0.79645 0.0
H231 H 0.14691 0.18016 0.80399 0.0
H232 H 0.22489 0.11615 0.84508 0.0
H233 H 0.2168 0.13869 0.8591 0.0
H234 H 0.21895 0.1402 0.80268 0.0
H235 H 0.21066 0.16275 0.81662 0.0
H236 H 0.22804 0.20176 0.90303 0.0
H237 H 0.19861 0.24008 0.90908 0.0
H238 H 0.18391 0.23256 0.88644 0.0
H239 H 0.21327 0.19419 0.8803 0.0
C240 C 0.81848 0.15386 0.84071 0.0
C241 C 0.82611 0.14984 0.82733 0.0
C242 C 0.80957 0.12765 0.8246 0.0
C243 C 0.82167 0.1368 0.81931 0.0
C244 C 0.80195 0.13172 0.83794 0.0
C245 C 0.80637 0.14474 0.84593 0.0
U246 U 0.84476 0.18814 0.84846 0.0
O247 O 0.83897 0.21117 0.85591 0.0
O248 O 0.85344 0.19685 0.8703 0.0
C249 C 0.846 0.20965 0.86906 0.0
C250 C 0.82303 0.16738 0.84948 0.0
C251 C 0.83733 0.21418 0.88258 0.0
C252 C 0.8158 0.2112 0.89974 0.0
C253 C 0.82373 0.20672 0.88672 0.0
C254 C 0.83499 0.23061 0.90455 0.0
C255 C 0.82141 0.22317 0.90874 0.0
C256 C 0.84288 0.22614 0.89156 0.0
C257 C 0.87906 0.19606 0.82244 0.0
C258 C 0.89656 0.21742 0.82572 0.0
C259 C 0.90106 0.19897 0.80593 0.0
C260 C 0.88794 0.19095 0.81031 0.0
C261 C 0.90547 0.21224 0.8136 0.0
C262 C 0.88342 0.20936 0.83013 0.0
C263 C 0.86544 0.18724 0.82694 0.0
O264 O 0.83588 0.16629 0.8571 0.0
O265 O 0.82155 0.18049 0.84246 0.0
O266 O 0.85234 0.19416 0.82534 0.0
O267 O 0.86656 0.17969 0.83982 0.0
H268 H 0.83551 0.15674 0.82315 0.0
H269 H 0.8277 0.13378 0.80905 0.0
H270 H 0.79262 0.12478 0.8422 0.0
H271 H 0.80037 0.14766 0.85624 0.0
H272 H 0.80536 0.20532 0.90284 0.0
H273 H 0.8193 0.19743 0.87992 0.0
H274 H 0.83949 0.23983 0.91138 0.0
H275 H 0.85336 0.23201 0.88855 0.0
H276 H 0.89985 0.22761 0.8318 0.0
H277 H 0.90781 0.1948 0.79659 0.0
H278 H 0.88476 0.1807 0.80427 0.0
H279 H 0.87671 0.21345 0.83954 0.0
C280 C 0.83721 0.8797 0.82 0.0
C281 C 0.82513 0.88482 0.82899 0.0
C282 C 0.82104 0.90588 0.81142 0.0
C283 C 0.81709 0.89784 0.82472 0.0
C284 C 0.83303 0.90066 0.80241 0.0
C285 C 0.84105 0.88767 0.80668 0.0
U286 U 0.84539 0.8452 0.84571 0.0
O287 O 0.85284 0.8223 0.83937 0.0
O288 O 0.86738 0.83656 0.8539 0.0
C289 C 0.86607 0.82383 0.84627 0.0
C290 C 0.84606 0.86622 0.82433 0.0
C291 C 0.87953 0.8194 0.83742 0.0
C292 C 0.89835 0.82423 0.81766 0.0
C293 C 0.88531 0.8286 0.82564 0.0
C294 C 0.89982 0.80139 0.83307 0.0
C295 C 0.90572 0.81061 0.82138 0.0
C296 C 0.88683 0.80576 0.84102 0.0
C297 C 0.81953 0.83667 0.88011 0.0
C298 C 0.82409 0.81666 0.89873 0.0
C299 C 0.80163 0.83224 0.90075 0.0
C300 C 0.80605 0.8403 0.88771 0.0
C301 C 0.81064 0.82041 0.9064 0.0
C302 C 0.82852 0.82475 0.88565 0.0
C303 C 0.82403 0.84562 0.86661 0.0
O304 O 0.85379 0.86725 0.83713 0.0
O305 O 0.83906 0.85306 0.82273 0.0
O306 O 0.82233 0.83884 0.85342 0.0
O307 O 0.83694 0.85323 0.86775 0.0
H308 H 0.822 0.8788 0.83932 0.0
H309 H 0.80786 0.90171 0.8318 0.0
H310 H 0.83624 0.90671 0.79213 0.0
H311 H 0.85033 0.88389 0.7996 0.0
H312 H 0.90275 0.83148 0.80867 0.0
H313 H 0.87981 0.83917 0.82269 0.0
H314 H 0.90535 0.79087 0.8361 0.0
H315 H 0.88253 0.79851 0.85007 0.0
H316 H 0.83118 0.80756 0.90293 0.0
H317 H 0.79123 0.83529 0.90652 0.0
H318 H 0.79897 0.84946 0.88361 0.0
H319 H 0.83896 0.82178 0.87992 0.0
C320 C 0.1959 0.65397 0.71692 0.0
C321 C 0.2081 0.64889 0.70807 0.0
C322 C 0.21214 0.62793 0.72578 0.0
C323 C 0.21618 0.63593 0.71248 0.0
C324 C 0.20003 0.63311 0.73464 0.0
C325 C 0.19197 0.64604 0.73024 0.0
U326 U 0.18776 0.68815 0.69082 0.0
O327 O 0.16579 0.69664 0.6824 0.0
O328 O 0.18023 0.7111 0.69683 0.0
C329 C 0.16702 0.70946 0.68991 0.0
C330 C 0.18702 0.66738 0.71243 0.0
C331 C 0.15353 0.7139 0.69869 0.0
C332 C 0.13489 0.70927 0.71866 0.0
C333 C 0.14792 0.70488 0.7107 0.0
C334 C 0.13303 0.73174 0.70276 0.0
C335 C 0.12732 0.72271 0.71469 0.0
C336 C 0.14602 0.72735 0.69482 0.0
C337 C 0.21392 0.69617 0.65647 0.0
C338 C 0.2101 0.71648 0.638 0.0
C339 C 0.2316 0.69968 0.63548 0.0
C340 C 0.227 0.69182 0.64858 0.0
C341 C 0.22317 0.71203 0.63007 0.0
C342 C 0.20549 0.70859 0.65114 0.0
C343 C 0.20926 0.68746 0.67007 0.0
O344 O 0.19398 0.68057 0.71392 0.0
O345 O 0.17934 0.66619 0.69962 0.0
O346 O 0.19634 0.67986 0.66892 0.0
O347 O 0.21085 0.69444 0.68316 0.0
H348 H 0.21129 0.65488 0.69775 0.0
H349 H 0.22549 0.63208 0.7055 0.0
H350 H 0.19675 0.62709 0.74492 0.0
H351 H 0.1826 0.64979 0.73721 0.0
H352 H 0.13064 0.70217 0.72785 0.0
H353 H 0.15358 0.69446 0.71385 0.0
H354 H 0.12735 0.74213 0.69954 0.0
H355 H 0.15018 0.73445 0.68559 0.0
H356 H 0.20344 0.72597 0.63395 0.0
H357 H 0.24168 0.69607 0.6295 0.0
H358 H 0.23364 0.68226 0.65252 0.0
H359 H 0.19535 0.7121 0.65708 0.0
C360 C 0.81696 0.69749 0.65699 0.0
C361 C 0.82595 0.70964 0.65159 0.0
C362 C 0.80813 0.71356 0.6307 0.0
C363 C 0.82155 0.71764 0.63849 0.0
C364 C 0.79911 0.70151 0.63621 0.0
C365 C 0.80351 0.69352 0.64927 0.0
U366 U 0.84324 0.69023 0.69111 0.0
O367 O 0.83746 0.68261 0.71435 0.0
O368 O 0.85228 0.66879 0.70005 0.0
C369 C 0.84455 0.66965 0.7128 0.0
C370 C 0.8215 0.68871 0.67053 0.0
C371 C 0.83591 0.65591 0.71739 0.0
C372 C 0.82594 0.63976 0.73766 0.0
C373 C 0.8335 0.65302 0.73292 0.0
C374 C 0.82293 0.63212 0.71137 0.0
C375 C 0.82074 0.62918 0.72692 0.0
C376 C 0.83041 0.64543 0.70661 0.0
C377 C 0.87722 0.7168 0.69872 0.0
C378 C 0.89579 0.71217 0.71877 0.0
C379 C 0.8982 0.73455 0.70275 0.0
C380 C 0.88504 0.73021 0.69481 0.0
C381 C 0.90371 0.72552 0.71472 0.0
C382 C 0.88261 0.70782 0.71081 0.0
C383 C 0.86367 0.71223 0.6899 0.0
O384 O 0.83441 0.68141 0.66941 0.0
O385 O 0.81996 0.69563 0.68363 0.0
O386 O 0.85056 0.71348 0.69692 0.0
O387 O 0.86487 0.69949 0.68233 0.0
H388 H 0.83637 0.71286 0.65744 0.0
H389 H 0.82864 0.72692 0.63438 0.0
H390 H 0.78874 0.69822 0.63032 0.0
H391 H 0.79645 0.68418 0.65329 0.0
H392 H 0.82435 0.63764 0.7497 0.0
H393 H 0.83765 0.66094 0.74141 0.0
H394 H 0.81896 0.62405 0.70294 0.0
H395 H 0.83204 0.64744 0.69456 0.0
H396 H 0.89991 0.70508 0.72798 0.0
H397 H 0.90418 0.74488 0.69948 0.0
H398 H 0.88104 0.73726 0.68551 0.0
H399 H 0.87669 0.69742 0.71398 0.0
C400 C 0.82064 0.33852 0.65567 0.0
C401 C 0.81568 0.34617 0.64254 0.0
C402 C 0.81133 0.32214 0.62967 0.0
C403 C 0.8111 0.33806 0.62963 0.0
C404 C 0.8164 0.31443 0.64274 0.0
C405 C 0.82108 0.32256 0.65565 0.0
U406 U 0.84572 0.34678 0.69086 0.0
O407 O 0.85429 0.3687 0.69948 0.0
O408 O 0.83913 0.35464 0.71361 0.0
C409 C 0.84641 0.36768 0.71213 0.0
C410 C 0.82491 0.34745 0.66927 0.0
C411 C 0.83786 0.3813 0.71639 0.0
C412 C 0.81677 0.3987 0.71288 0.0
C413 C 0.82461 0.38564 0.70855 0.0
C414 C 0.83532 0.40318 0.73289 0.0
C415 C 0.82209 0.40756 0.72509 0.0
C416 C 0.84313 0.39016 0.72857 0.0
C417 C 0.8794 0.32053 0.70012 0.0
C418 C 0.89778 0.32492 0.72048 0.0
C419 C 0.89984 0.30264 0.70459 0.0
C420 C 0.88694 0.30711 0.69641 0.0
C421 C 0.90542 0.31154 0.71663 0.0
C422 C 0.88484 0.3294 0.71226 0.0
C423 C 0.86613 0.32515 0.69096 0.0
O424 O 0.82274 0.34088 0.68257 0.0
O425 O 0.83787 0.35502 0.66845 0.0
O426 O 0.86772 0.3379 0.68327 0.0
O427 O 0.85278 0.32377 0.69756 0.0
H428 H 0.81526 0.35845 0.6423 0.0
H429 H 0.80724 0.34418 0.61964 0.0
H430 H 0.81669 0.30215 0.64294 0.0
H431 H 0.82492 0.31638 0.66561 0.0
H432 H 0.8066 0.40194 0.70671 0.0
H433 H 0.82039 0.37894 0.69909 0.0
H434 H 0.83962 0.40988 0.74231 0.0
H435 H 0.85333 0.387 0.73475 0.0
H436 H 0.90193 0.33192 0.72974 0.0
H437 H 0.90558 0.29231 0.70146 0.0
H438 H 0.88291 0.30014 0.68708 0.0
H439 H 0.87916 0.3398 0.71528 0.0
C440 C 0.15381 0.31994 0.69796 0.0
C441 C 0.14057 0.31515 0.69029 0.0
C442 C 0.12773 0.31069 0.71438 0.0
C443 C 0.12762 0.31059 0.69842 0.0
C444 C 0.1409 0.31559 0.72212 0.0
C445 C 0.15385 0.32024 0.71397 0.0
U446 U 0.18892 0.3452 0.68961 0.0
O447 O 0.21181 0.3388 0.68201 0.0
O448 O 0.19771 0.35349 0.66763 0.0
C449 C 0.21037 0.34575 0.66881 0.0
C450 C 0.16744 0.32419 0.68901 0.0
C451 C 0.21458 0.33687 0.65535 0.0
C452 C 0.20988 0.31632 0.63748 0.0
C453 C 0.20567 0.32447 0.65044 0.0
C454 C 0.23193 0.33282 0.63431 0.0
C455 C 0.22302 0.32049 0.62932 0.0
C456 C 0.22773 0.34094 0.64723 0.0
C457 C 0.19783 0.37925 0.71558 0.0
C458 C 0.21844 0.39743 0.71117 0.0
C459 C 0.20208 0.40011 0.73312 0.0
C460 C 0.19388 0.38714 0.72877 0.0
C461 C 0.21435 0.4054 0.72432 0.0
C462 C 0.21021 0.38442 0.70681 0.0
C463 C 0.18871 0.36587 0.71109 0.0
O464 O 0.16661 0.33697 0.68128 0.0
O465 O 0.18073 0.32229 0.69567 0.0
O466 O 0.19536 0.35266 0.71266 0.0
O467 O 0.18111 0.36716 0.69824 0.0
H468 H 0.14028 0.31483 0.67797 0.0
H469 H 0.11755 0.30686 0.69228 0.0
H470 H 0.14115 0.31575 0.73444 0.0
H471 H 0.16388 0.32395 0.72017 0.0
H472 H 0.20288 0.30683 0.63378 0.0
H473 H 0.19548 0.32116 0.65658 0.0
H474 H 0.24209 0.33619 0.62815 0.0
H475 H 0.23474 0.35047 0.65086 0.0
H476 H 0.22789 0.40137 0.70425 0.0
H477 H 0.19877 0.40612 0.74329 0.0
H478 H 0.18436 0.38331 0.73566 0.0
H479 H 0.21342 0.37846 0.69658 0.0
C480 C 0.155 0.31786 0.33808 0.0
C481 C 0.1502 0.32668 0.32563 0.0
C482 C 0.12877 0.30944 0.32151 0.0
C483 C 0.13715 0.32249 0.31738 0.0
C484 C 0.13369 0.30056 0.33385 0.0
C485 C 0.14672 0.30475 0.34208 0.0
U486 U 0.1888 0.34435 0.34637 0.0
O487 O 0.19719 0.35315 0.36831 0.0
O488 O 0.212 0.33918 0.35416 0.0
C489 C 0.21015 0.3459 0.36734 0.0
C490 C 0.1684 0.32232 0.34719 0.0
C491 C 0.21465 0.33718 0.38098 0.0
C492 C 0.22543 0.33699 0.40651 0.0
C493 C 0.22086 0.34494 0.39349 0.0
C494 C 0.21763 0.31333 0.39472 0.0
C495 C 0.22391 0.32114 0.40718 0.0
C496 C 0.21296 0.3213 0.38171 0.0
C497 C 0.19616 0.37866 0.32025 0.0
C498 C 0.21733 0.39634 0.32378 0.0
C499 C 0.19891 0.40063 0.30363 0.0
C500 C 0.191 0.38746 0.30797 0.0
C501 C 0.21211 0.40516 0.3115 0.0
C502 C 0.20939 0.38315 0.32814 0.0
C503 C 0.18751 0.36495 0.32468 0.0
O504 O 0.18164 0.32109 0.34041 0.0
O505 O 0.16707 0.33502 0.35481 0.0
O506 O 0.17987 0.36588 0.33745 0.0
O507 O 0.19472 0.35205 0.32326 0.0
H508 H 0.15647 0.33685 0.3224 0.0
H509 H 0.13349 0.32946 0.30789 0.0
H510 H 0.12734 0.29047 0.33718 0.0
H511 H 0.15026 0.29783 0.35166 0.0
H512 H 0.23023 0.34317 0.41604 0.0
H513 H 0.22222 0.35718 0.39316 0.0
H514 H 0.21635 0.30109 0.3951 0.0
H515 H 0.20811 0.31508 0.37224 0.0
H516 H 0.22748 0.39973 0.33 0.0
H517 H 0.19472 0.40733 0.29416 0.0
H518 H 0.1808 0.38416 0.30178 0.0
H519 H 0.21351 0.37648 0.33767 0.0
C520 C 0.15253 0.69577 0.32303 0.0
C521 C 0.13878 0.68814 0.31975 0.0
C522 C 0.12664 0.71204 0.3135 0.0
C523 C 0.12594 0.69621 0.31507 0.0
C524 C 0.1403 0.71976 0.31691 0.0
C525 C 0.15316 0.71169 0.32169 0.0
U526 U 0.18775 0.68703 0.34797 0.0
O527 O 0.19595 0.66486 0.35618 0.0
O528 O 0.21037 0.67898 0.34132 0.0
C529 C 0.20852 0.66578 0.34815 0.0
C530 C 0.16607 0.68677 0.32725 0.0
C531 C 0.21246 0.65214 0.33929 0.0
C532 C 0.21675 0.63923 0.31526 0.0
C533 C 0.21218 0.6521 0.32328 0.0
C534 C 0.2216 0.62616 0.33908 0.0
C535 C 0.22157 0.62621 0.32312 0.0
C536 C 0.21711 0.63903 0.34709 0.0
C537 C 0.19753 0.71298 0.38195 0.0
C538 C 0.21823 0.70863 0.3999 0.0
C539 C 0.2021 0.73057 0.40272 0.0
C540 C 0.19377 0.72619 0.38986 0.0
C541 C 0.21434 0.72181 0.40789 0.0
C542 C 0.20985 0.70423 0.387 0.0
C543 C 0.18826 0.7085 0.36866 0.0
O544 O 0.17949 0.69322 0.32513 0.0
O545 O 0.16516 0.67912 0.3401 0.0
O546 O 0.18039 0.69581 0.37012 0.0
O547 O 0.19486 0.70991 0.35532 0.0
H548 H 0.13803 0.67589 0.32067 0.0
H549 H 0.11549 0.69008 0.31249 0.0
H550 H 0.14102 0.73199 0.31578 0.0
H551 H 0.16359 0.71789 0.32417 0.0
H552 H 0.21663 0.63944 0.30293 0.0
H553 H 0.20859 0.66204 0.31697 0.0
H554 H 0.22527 0.61621 0.34532 0.0
H555 H 0.21744 0.6388 0.35941 0.0
H556 H 0.22764 0.70174 0.40373 0.0
H557 H 0.19894 0.74075 0.40873 0.0
H558 H 0.18429 0.73307 0.38613 0.0
H559 H 0.21292 0.69399 0.38102 0.0
C560 C 0.81802 0.65445 0.33922 0.0
C561 C 0.82582 0.65044 0.32594 0.0
C562 C 0.8093 0.62826 0.32297 0.0
C563 C 0.82147 0.63741 0.31785 0.0
C564 C 0.80149 0.63235 0.3362 0.0
C565 C 0.80582 0.64535 0.34425 0.0
U566 U 0.84444 0.68845 0.34823 0.0
O567 O 0.83856 0.7113 0.35616 0.0
O568 O 0.85257 0.69651 0.37053 0.0
C569 C 0.8453 0.70942 0.36941 0.0
C570 C 0.82254 0.66784 0.3482 0.0
C571 C 0.83644 0.7138 0.38285 0.0
C572 C 0.81467 0.7107 0.39969 0.0
C573 C 0.82276 0.70633 0.38673 0.0
C574 C 0.83383 0.73001 0.40495 0.0
C575 C 0.82018 0.72257 0.40888 0.0
C576 C 0.84189 0.72565 0.39203 0.0
C577 C 0.8797 0.69739 0.32431 0.0
C578 C 0.89997 0.71443 0.33276 0.0
C579 C 0.89986 0.70509 0.30688 0.0
C580 C 0.88641 0.69692 0.30985 0.0
C581 C 0.9068 0.71379 0.31836 0.0
C582 C 0.88648 0.70633 0.33571 0.0
C583 C 0.86589 0.68824 0.32747 0.0
O584 O 0.83517 0.6665 0.35614 0.0
O585 O 0.8214 0.68106 0.3413 0.0
O586 O 0.85287 0.69522 0.32556 0.0
O587 O 0.86633 0.67998 0.33996 0.0
H588 H 0.83531 0.65731 0.32192 0.0
H589 H 0.82765 0.63437 0.30768 0.0
H590 H 0.79211 0.6254 0.34034 0.0
H591 H 0.79969 0.64825 0.35449 0.0
H592 H 0.80417 0.70482 0.4026 0.0
H593 H 0.81841 0.69713 0.37978 0.0
H594 H 0.83826 0.73916 0.41193 0.0
H595 H 0.85242 0.73153 0.38922 0.0
H596 H 0.90518 0.72107 0.34176 0.0
H597 H 0.90499 0.70445 0.29571 0.0
H598 H 0.88132 0.6901 0.30092 0.0
H599 H 0.88146 0.70689 0.34693 0.0
C600 C 0.83743 0.38051 0.32087 0.0
C601 C 0.82498 0.38535 0.32952 0.0
C602 C 0.82111 0.40652 0.31203 0.0
C603 C 0.81686 0.39829 0.32511 0.0
C604 C 0.83349 0.40159 0.30337 0.0
C605 C 0.84158 0.38869 0.30777 0.0
U606 U 0.84578 0.34619 0.34681 0.0
O607 O 0.85341 0.32334 0.3406 0.0
O608 O 0.86786 0.33777 0.35504 0.0
C609 C 0.86664 0.32499 0.34748 0.0
C610 C 0.84634 0.36711 0.32534 0.0
C611 C 0.88012 0.32063 0.33863 0.0
C612 C 0.89752 0.32431 0.3174 0.0
C613 C 0.88461 0.32872 0.32554 0.0
C614 C 0.90154 0.30373 0.33532 0.0
C615 C 0.90608 0.31179 0.32226 0.0
C616 C 0.88866 0.30812 0.34344 0.0
C617 C 0.81991 0.33757 0.3812 0.0
C618 C 0.82457 0.31762 0.39986 0.0
C619 C 0.80197 0.33303 0.40178 0.0
C620 C 0.80637 0.34111 0.38874 0.0
C621 C 0.81105 0.32128 0.40748 0.0
C622 C 0.82898 0.32573 0.38679 0.0
C623 C 0.82438 0.34651 0.36767 0.0
O624 O 0.85402 0.36827 0.33815 0.0
O625 O 0.83943 0.3539 0.32378 0.0
O626 O 0.82275 0.33968 0.3545 0.0
O627 O 0.83723 0.35422 0.36881 0.0
H628 H 0.82161 0.37917 0.33967 0.0
H629 H 0.80734 0.40193 0.33192 0.0
H630 H 0.83694 0.4078 0.29326 0.0
H631 H 0.85115 0.38514 0.30097 0.0
H632 H 0.90086 0.33065 0.30733 0.0
H633 H 0.87814 0.33841 0.32167 0.0
H634 H 0.90799 0.29405 0.33924 0.0
H635 H 0.88537 0.30175 0.3535 0.0
H636 H 0.83171 0.30858 0.4041 0.0
H637 H 0.79152 0.33601 0.4075 0.0
H638 H 0.79924 0.3502 0.38459 0.0
H639 H 0.83947 0.32283 0.3811 0.0
C640 C 0.69606 0.1538 0.71685 0.0
C641 C 0.70839 0.14884 0.70811 0.0
C642 C 0.71231 0.12775 0.72569 0.0
C643 C 0.71647 0.13588 0.71251 0.0
C644 C 0.70005 0.1328 0.73444 0.0
C645 C 0.692 0.14572 0.73005 0.0
U646 U 0.68787 0.18813 0.6909 0.0
O647 O 0.66587 0.19669 0.68265 0.0
O648 O 0.68038 0.21104 0.6971 0.0
C649 C 0.66715 0.20946 0.69022 0.0
C650 C 0.6872 0.16723 0.7124 0.0
C651 C 0.65369 0.21388 0.69907 0.0
C652 C 0.63519 0.20926 0.71918 0.0
C653 C 0.64819 0.20489 0.71116 0.0
C654 C 0.63316 0.23166 0.70321 0.0
C655 C 0.62756 0.22266 0.71521 0.0
C656 C 0.64612 0.2273 0.69521 0.0
C657 C 0.71384 0.19649 0.65651 0.0
C658 C 0.7094 0.21641 0.63776 0.0
C659 C 0.73191 0.20086 0.636 0.0
C660 C 0.72739 0.19284 0.64904 0.0
C661 C 0.72293 0.21266 0.63023 0.0
C662 C 0.70487 0.20837 0.65084 0.0
C663 C 0.70928 0.18762 0.67005 0.0
O664 O 0.69417 0.18042 0.71394 0.0
O665 O 0.6795 0.16611 0.6996 0.0
O666 O 0.69637 0.18001 0.66891 0.0
O667 O 0.71094 0.19447 0.6832 0.0
H668 H 0.7117 0.15494 0.69789 0.0
H669 H 0.7259 0.13214 0.70563 0.0
H670 H 0.69667 0.12667 0.74462 0.0
H671 H 0.68252 0.14938 0.73693 0.0
H672 H 0.63102 0.20218 0.72842 0.0
H673 H 0.6539 0.19449 0.71431 0.0
H674 H 0.62742 0.24202 0.69999 0.0
H675 H 0.65019 0.23437 0.68593 0.0
H676 H 0.70234 0.22549 0.63347 0.0
H677 H 0.74237 0.19781 0.63035 0.0
H678 H 0.73445 0.18372 0.65325 0.0
H679 H 0.69438 0.21134 0.65647 0.0
C680 C 0.31785 0.19664 0.65655 0.0
C681 C 0.32666 0.20899 0.6513 0.0
C682 C 0.30888 0.21284 0.63037 0.0
C683 C 0.32219 0.21705 0.63827 0.0
C684 C 0.30003 0.20059 0.63573 0.0
C685 C 0.30449 0.19254 0.64873 0.0
U686 U 0.34453 0.18928 0.69028 0.0
O687 O 0.33923 0.18159 0.71355 0.0
O688 O 0.35367 0.16774 0.69895 0.0
C689 C 0.34638 0.16868 0.71194 0.0
C690 C 0.32251 0.18779 0.66999 0.0
C691 C 0.33786 0.15497 0.71659 0.0
C692 C 0.31691 0.13699 0.71328 0.0
C693 C 0.3247 0.15021 0.70874 0.0
C694 C 0.33532 0.13323 0.73355 0.0
C695 C 0.32221 0.12841 0.7257 0.0
C696 C 0.34309 0.14643 0.72902 0.0
C697 C 0.37851 0.21583 0.69763 0.0
C698 C 0.39664 0.21156 0.71815 0.0
C699 C 0.39975 0.23332 0.70139 0.0
C700 C 0.38666 0.22893 0.69336 0.0
C701 C 0.40486 0.22464 0.7138 0.0
C702 C 0.38353 0.20717 0.7101 0.0
C703 C 0.3649 0.2113 0.68887 0.0
O704 O 0.33541 0.18049 0.66867 0.0
O705 O 0.32112 0.19463 0.68315 0.0
O706 O 0.35185 0.21253 0.696 0.0
O707 O 0.36604 0.19858 0.68125 0.0
H708 H 0.33701 0.21231 0.65722 0.0
H709 H 0.32915 0.22648 0.63428 0.0
H710 H 0.28973 0.19719 0.62975 0.0
H711 H 0.29757 0.18304 0.65262 0.0
H712 H 0.30682 0.13338 0.70708 0.0
H713 H 0.32053 0.15668 0.6991 0.0
H714 H 0.33957 0.12673 0.74313 0.0
H715 H 0.35323 0.14994 0.73519 0.0
H716 H 0.40044 0.20474 0.7277 0.0
H717 H 0.40597 0.24343 0.69789 0.0
H718 H 0.38294 0.23574 0.68377 0.0
H719 H 0.37735 0.19701 0.71354 0.0
C720 C 0.31982 0.83897 0.65583 0.0
C721 C 0.32823 0.8264 0.65105 0.0
C722 C 0.31096 0.82285 0.62957 0.0
C723 C 0.32381 0.81838 0.63798 0.0
C724 C 0.30255 0.83536 0.63443 0.0
C725 C 0.30695 0.84335 0.64747 0.0
U726 U 0.34584 0.84704 0.69025 0.0
O727 O 0.3544 0.86895 0.69887 0.0
O728 O 0.33977 0.85459 0.71326 0.0
C729 C 0.34681 0.86774 0.71169 0.0
C730 C 0.32432 0.84778 0.66936 0.0
C731 C 0.3381 0.8812 0.71613 0.0
C732 C 0.31681 0.89838 0.71276 0.0
C733 C 0.32476 0.8854 0.70837 0.0
C734 C 0.33543 0.90302 0.73268 0.0
C735 C 0.32212 0.90727 0.72494 0.0
C736 C 0.34335 0.89008 0.7283 0.0
C737 C 0.38007 0.82119 0.69836 0.0
C738 C 0.39727 0.82413 0.71996 0.0
C739 C 0.40205 0.80486 0.70105 0.0
C740 C 0.38905 0.8093 0.69302 0.0
C741 C 0.40627 0.81223 0.71456 0.0
C742 C 0.38423 0.82859 0.71189 0.0
C743 C 0.36652 0.82569 0.68954 0.0
O744 O 0.32272 0.84082 0.68253 0.0
O745 O 0.33721 0.85543 0.66825 0.0
O746 O 0.36775 0.83852 0.68194 0.0
O747 O 0.35336 0.82407 0.69646 0.0
H748 H 0.33821 0.82287 0.65737 0.0
H749 H 0.33045 0.80878 0.63436 0.0
H750 H 0.29263 0.83898 0.62807 0.0
H751 H 0.30034 0.85302 0.65098 0.0
H752 H 0.30659 0.90153 0.70663 0.0
H753 H 0.32056 0.87869 0.69892 0.0
H754 H 0.33971 0.90976 0.74207 0.0
H755 H 0.35362 0.88702 0.73441 0.0
H756 H 0.40039 0.82997 0.73034 0.0
H757 H 0.40888 0.79569 0.69671 0.0
H758 H 0.38602 0.80348 0.6826 0.0
H759 H 0.37744 0.83782 0.71616 0.0
C760 C 0.65415 0.81924 0.69784 0.0
C761 C 0.65018 0.82679 0.71127 0.0
C762 C 0.62777 0.81047 0.71396 0.0
C763 C 0.63706 0.82242 0.71929 0.0
C764 C 0.63179 0.80296 0.70055 0.0
C765 C 0.64489 0.80731 0.69257 0.0
U766 U 0.68892 0.84503 0.69009 0.0
O767 O 0.71197 0.83886 0.68269 0.0
O768 O 0.69787 0.85348 0.66824 0.0
C769 C 0.71058 0.84582 0.6695 0.0
C770 C 0.66779 0.82366 0.6891 0.0
C771 C 0.71491 0.83699 0.65605 0.0
C772 C 0.70988 0.81711 0.63753 0.0
C773 C 0.70564 0.82512 0.65056 0.0
C774 C 0.73274 0.83266 0.63548 0.0
C775 C 0.72344 0.82089 0.62988 0.0
C776 C 0.7285 0.84065 0.64847 0.0
C777 C 0.69735 0.87912 0.71602 0.0
C778 C 0.71796 0.8973 0.71164 0.0
C779 C 0.70151 0.90004 0.73352 0.0
C780 C 0.69333 0.88705 0.72917 0.0
C781 C 0.71383 0.9053 0.72476 0.0
C782 C 0.70976 0.88427 0.70729 0.0
C783 C 0.6883 0.86568 0.71155 0.0
O784 O 0.66688 0.83649 0.68148 0.0
O785 O 0.68091 0.82203 0.69615 0.0
O786 O 0.69504 0.85253 0.7132 0.0
O787 O 0.68077 0.86689 0.69866 0.0
H788 H 0.6572 0.83606 0.71549 0.0
H789 H 0.63409 0.82837 0.72959 0.0
H790 H 0.62474 0.79375 0.69626 0.0
H791 H 0.64777 0.80138 0.68222 0.0
H792 H 0.70257 0.80805 0.63336 0.0
H793 H 0.69511 0.82214 0.65628 0.0
H794 H 0.74323 0.83572 0.62972 0.0
H795 H 0.73579 0.84977 0.65255 0.0
H796 H 0.72745 0.90121 0.70476 0.0
H797 H 0.69817 0.90608 0.74365 0.0
H798 H 0.68379 0.88325 0.73604 0.0
H799 H 0.71302 0.87828 0.6971 0.0
C800 C 0.6551 0.81734 0.33851 0.0
C801 C 0.64998 0.82605 0.32612 0.0
C802 C 0.62877 0.80845 0.32235 0.0
C803 C 0.63687 0.82162 0.31808 0.0
C804 C 0.63402 0.79968 0.33463 0.0
C805 C 0.6471 0.8041 0.34266 0.0
U806 U 0.68882 0.84415 0.34623 0.0
O807 O 0.69732 0.8532 0.36803 0.0
O808 O 0.71209 0.83914 0.35394 0.0
C809 C 0.71029 0.84598 0.36706 0.0
C810 C 0.66855 0.82202 0.34743 0.0
C811 C 0.71481 0.83734 0.38073 0.0
C812 C 0.71652 0.81372 0.39508 0.0
C813 C 0.71194 0.82166 0.38202 0.0
C814 C 0.72662 0.83706 0.40579 0.0
C815 C 0.72389 0.82139 0.40703 0.0
C816 C 0.72214 0.84497 0.39272 0.0
C817 C 0.69598 0.87826 0.31986 0.0
C818 C 0.71713 0.89599 0.32332 0.0
C819 C 0.69869 0.90017 0.30316 0.0
C820 C 0.6908 0.88701 0.30756 0.0
C821 C 0.71188 0.90476 0.31101 0.0
C822 C 0.70921 0.8828 0.32773 0.0
C823 C 0.68736 0.86457 0.32438 0.0
O824 O 0.68173 0.82081 0.34054 0.0
O825 O 0.66719 0.83481 0.3549 0.0
O826 O 0.67975 0.86557 0.33717 0.0
O827 O 0.69459 0.85167 0.32302 0.0
H828 H 0.65603 0.83631 0.32278 0.0
H829 H 0.63296 0.82852 0.30863 0.0
H830 H 0.62789 0.7895 0.33807 0.0
H831 H 0.65089 0.79726 0.35219 0.0
H832 H 0.7143 0.80163 0.39591 0.0
H833 H 0.70621 0.81557 0.37294 0.0
H834 H 0.73228 0.84314 0.41493 0.0
H835 H 0.7244 0.85706 0.39195 0.0
H836 H 0.72727 0.89942 0.32952 0.0
H837 H 0.69448 0.90684 0.29367 0.0
H838 H 0.6806 0.88367 0.30138 0.0
H839 H 0.71334 0.87619 0.33728 0.0
C840 C 0.65223 0.19531 0.32322 0.0
C841 C 0.65252 0.21128 0.32337 0.0
C842 C 0.62641 0.21183 0.31395 0.0
C843 C 0.63971 0.21948 0.31872 0.0
C844 C 0.62605 0.19592 0.31402 0.0
C845 C 0.63886 0.18773 0.31859 0.0
U846 U 0.68724 0.1863 0.34831 0.0
O847 O 0.69537 0.16405 0.35636 0.0
O848 O 0.70992 0.17831 0.34175 0.0
C849 C 0.708 0.16503 0.34842 0.0
C850 C 0.66572 0.18625 0.32741 0.0
C851 C 0.71205 0.15143 0.33951 0.0
C852 C 0.71979 0.12497 0.33931 0.0
C853 C 0.71511 0.13781 0.34726 0.0
C854 C 0.71837 0.13908 0.31563 0.0
C855 C 0.72159 0.12555 0.32347 0.0
C856 C 0.7136 0.15192 0.32358 0.0
C857 C 0.69658 0.212 0.38267 0.0
C858 C 0.71846 0.20914 0.39951 0.0
C859 C 0.69957 0.22823 0.40478 0.0
C860 C 0.69136 0.2238 0.39186 0.0
C861 C 0.71317 0.22095 0.40871 0.0
C862 C 0.7102 0.20468 0.38654 0.0
C863 C 0.68752 0.20755 0.36923 0.0
O864 O 0.67914 0.19275 0.32548 0.0
O865 O 0.66472 0.17846 0.34017 0.0
O866 O 0.67967 0.19483 0.3705 0.0
O867 O 0.69427 0.20909 0.35597 0.0
H868 H 0.66267 0.21741 0.32695 0.0
H869 H 0.64016 0.23177 0.31876 0.0
H870 H 0.61588 0.18984 0.3104 0.0
H871 H 0.63837 0.17544 0.31838 0.0
H872 H 0.72223 0.11463 0.34554 0.0
H873 H 0.71406 0.13716 0.35953 0.0
H874 H 0.71968 0.13971 0.30339 0.0
H875 H 0.71131 0.16225 0.31728 0.0
H876 H 0.72891 0.20336 0.40241 0.0
H877 H 0.6953 0.23732 0.41177 0.0
H878 H 0.68087 0.22956 0.38906 0.0
H879 H 0.71439 0.19552 0.37959 0.0
C880 C 0.31876 0.15383 0.3406 0.0
C881 C 0.32621 0.14997 0.32707 0.0
C882 C 0.30981 0.12767 0.32442 0.0
C883 C 0.32175 0.13695 0.31902 0.0
C884 C 0.30238 0.13157 0.33792 0.0
C885 C 0.30682 0.14456 0.34594 0.0
U886 U 0.34488 0.18826 0.34826 0.0
O887 O 0.33897 0.21123 0.35577 0.0
O888 O 0.35362 0.197 0.37006 0.0
C889 C 0.34607 0.20975 0.36888 0.0
C890 C 0.3233 0.16734 0.34939 0.0
C891 C 0.33743 0.21418 0.38245 0.0
C892 C 0.31595 0.21105 0.39965 0.0
C893 C 0.32389 0.20663 0.38661 0.0
C894 C 0.33503 0.23056 0.40446 0.0
C895 C 0.3215 0.22304 0.40866 0.0
C896 C 0.34292 0.22616 0.39145 0.0
C897 C 0.37889 0.19646 0.3219 0.0
C898 C 0.3968 0.21743 0.3255 0.0
C899 C 0.40005 0.20012 0.30445 0.0
C900 C 0.38708 0.19198 0.30905 0.0
C901 C 0.40503 0.21287 0.31266 0.0
C902 C 0.3838 0.20926 0.33011 0.0
C903 C 0.36539 0.18754 0.32656 0.0
O904 O 0.33622 0.16632 0.3569 0.0
O905 O 0.32168 0.18047 0.34242 0.0
O906 O 0.35223 0.19436 0.32507 0.0
O907 O 0.36668 0.18002 0.33944 0.0
H908 H 0.33548 0.15698 0.3228 0.0
H909 H 0.32764 0.13407 0.30864 0.0
H910 H 0.29317 0.12452 0.34227 0.0
H911 H 0.30096 0.14735 0.35637 0.0
H912 H 0.30555 0.2051 0.40276 0.0
H913 H 0.3195 0.19733 0.37981 0.0
H914 H 0.33948 0.2398 0.41129 0.0
H915 H 0.35336 0.2321 0.38842 0.0
H916 H 0.40048 0.22725 0.33196 0.0
H917 H 0.40625 0.19644 0.29453 0.0
H918 H 0.38346 0.18214 0.30258 0.0
H919 H 0.37761 0.21287 0.34007 0.0
C920 C 0.33698 0.88002 0.32037 0.0
C921 C 0.32519 0.8855 0.32952 0.0
C922 C 0.32094 0.90621 0.31157 0.0
C923 C 0.31721 0.89853 0.32514 0.0
C924 C 0.33264 0.90062 0.3024 0.0
C925 C 0.34059 0.88763 0.30677 0.0
U926 U 0.34524 0.84581 0.34646 0.0
O927 O 0.35258 0.82281 0.34034 0.0
O928 O 0.36728 0.83721 0.35458 0.0
C929 C 0.36588 0.82439 0.3471 0.0
C930 C 0.34579 0.86655 0.32482 0.0
C931 C 0.37925 0.81985 0.33818 0.0
C932 C 0.39791 0.82448 0.31823 0.0
C933 C 0.38494 0.82893 0.32626 0.0
C934 C 0.39951 0.80181 0.33387 0.0
C935 C 0.40533 0.81091 0.32205 0.0
C936 C 0.38658 0.80625 0.34187 0.0
C937 C 0.31968 0.83785 0.38123 0.0
C938 C 0.32311 0.81676 0.39889 0.0
C939 C 0.30309 0.83494 0.40317 0.0
C940 C 0.30745 0.84287 0.39003 0.0
C941 C 0.31089 0.82185 0.40771 0.0
C942 C 0.32749 0.82472 0.38571 0.0
C943 C 0.32409 0.84658 0.36756 0.0
O944 O 0.35365 0.86771 0.33752 0.0
O945 O 0.33872 0.8534 0.32345 0.0
O946 O 0.32226 0.83963 0.35448 0.0
O947 O 0.33704 0.85416 0.36849 0.0
H948 H 0.32224 0.87976 0.34005 0.0
H949 H 0.30821 0.90268 0.33235 0.0
H950 H 0.33567 0.9064 0.29191 0.0
H951 H 0.34965 0.88357 0.29957 0.0
H952 H 0.40225 0.83165 0.30914 0.0
H953 H 0.37942 0.83947 0.32325 0.0
H954 H 0.40508 0.79132 0.33697 0.0
H955 H 0.38235 0.7991 0.35103 0.0
H956 H 0.32929 0.80671 0.40226 0.0
H957 H 0.29366 0.83905 0.40985 0.0
H958 H 0.3013 0.85297 0.38676 0.0
H959 H 0.33698 0.8207 0.37906 0.0
C960 C 0.69528 0.65346 0.21611 0.0
C961 C 0.70745 0.64844 0.20719 0.0
C962 C 0.71166 0.62746 0.22484 0.0
C963 C 0.7156 0.6355 0.21154 0.0
C964 C 0.69955 0.63257 0.23376 0.0
C965 C 0.69143 0.64547 0.22942 0.0
U966 U 0.68652 0.68767 0.19015 0.0
O967 O 0.66432 0.69623 0.18246 0.0
O968 O 0.67923 0.71063 0.19647 0.0
C969 C 0.66582 0.70904 0.18993 0.0
C970 C 0.68638 0.6669 0.21177 0.0
C971 C 0.65259 0.71354 0.19906 0.0
C972 C 0.6343 0.70889 0.21935 0.0
C973 C 0.64719 0.70451 0.21116 0.0
C974 C 0.63221 0.73141 0.20354 0.0
C975 C 0.62667 0.72234 0.21553 0.0
C976 C 0.64506 0.72703 0.19538 0.0
C977 C 0.71142 0.69589 0.15479 0.0
C978 C 0.72003 0.69593 0.12849 0.0
C979 C 0.71717 0.71975 0.14174 0.0
C980 C 0.71229 0.71185 0.15477 0.0
C981 C 0.72116 0.71182 0.12856 0.0
C982 C 0.71524 0.68804 0.14151 0.0
C983 C 0.70718 0.68711 0.16858 0.0
O984 O 0.69344 0.68006 0.21304 0.0
O985 O 0.67835 0.66571 0.19917 0.0
O986 O 0.69428 0.67942 0.16787 0.0
O987 O 0.70936 0.6938 0.18177 0.0
H988 H 0.71059 0.65448 0.19688 0.0
H989 H 0.72492 0.63171 0.20453 0.0
H990 H 0.69634 0.62651 0.24404 0.0
H991 H 0.68208 0.64918 0.23644 0.0
H992 H 0.63018 0.70177 0.22857 0.0
H993 H 0.65287 0.69405 0.21416 0.0
H994 H 0.62648 0.7418 0.20043 0.0
H995 H 0.64906 0.73413 0.18608 0.0
H996 H 0.72306 0.68964 0.11841 0.0
H997 H 0.71795 0.73202 0.14197 0.0
H998 H 0.70937 0.71821 0.16484 0.0
H999 H 0.71468 0.67575 0.14126 0.0
C1000 C 0.31917 0.69778 0.15545 0.0
C1001 C 0.33049 0.70728 0.1492 0.0
C1002 C 0.31342 0.71427 0.12853 0.0
C1003 C 0.32766 0.71542 0.1358 0.0
C1004 C 0.302 0.705 0.13493 0.0
C1005 C 0.30487 0.69677 0.1483 0.0
U1006 U 0.3432 0.68982 0.19064 0.0
O1007 O 0.33663 0.68252 0.21372 0.0
O1008 O 0.35161 0.6683 0.20004 0.0
C1009 C 0.34377 0.66954 0.21266 0.0
C1010 C 0.32227 0.68872 0.16923 0.0
C1011 C 0.33504 0.65593 0.21724 0.0
C1012 C 0.3143 0.6378 0.21341 0.0
C1013 C 0.32213 0.65106 0.20904 0.0
C1014 C 0.33216 0.63425 0.23421 0.0
C1015 C 0.31933 0.62929 0.22599 0.0
C1016 C 0.33995 0.64748 0.22986 0.0
C1017 C 0.3775 0.71592 0.19873 0.0
C1018 C 0.39559 0.71139 0.21924 0.0
C1019 C 0.39853 0.73356 0.20299 0.0
C1020 C 0.38551 0.72922 0.19482 0.0
C1021 C 0.4037 0.72463 0.21519 0.0
C1022 C 0.38254 0.70705 0.21104 0.0
C1023 C 0.36409 0.7114 0.18968 0.0
O1024 O 0.33484 0.68076 0.16888 0.0
O1025 O 0.32033 0.69575 0.18221 0.0
O1026 O 0.35084 0.71299 0.19635 0.0
O1027 O 0.36525 0.69851 0.18236 0.0
H1028 H 0.34158 0.70826 0.1546 0.0
H1029 H 0.3366 0.72252 0.13101 0.0
H1030 H 0.29096 0.70398 0.12945 0.0
H1031 H 0.296 0.68952 0.15299 0.0
H1032 H 0.30444 0.63408 0.20693 0.0
H1033 H 0.31822 0.65744 0.19923 0.0
H1034 H 0.3362 0.62779 0.24391 0.0
H1035 H 0.34991 0.65106 0.23628 0.0
H1036 H 0.39944 0.70438 0.22862 0.0
H1037 H 0.40466 0.74379 0.19972 0.0
H1038 H 0.38177 0.73619 0.18535 0.0
H1039 H 0.37647 0.69675 0.21422 0.0
C1040 C 0.31913 0.34022 0.15495 0.0
C1041 C 0.31922 0.32433 0.1545 0.0
C1042 C 0.30451 0.32439 0.13057 0.0
C1043 C 0.31244 0.31656 0.14229 0.0
C1044 C 0.30667 0.34036 0.13023 0.0
C1045 C 0.31338 0.34813 0.1424 0.0
U1046 U 0.34691 0.34872 0.18837 0.0
O1047 O 0.35515 0.37094 0.1965 0.0
O1048 O 0.34157 0.35627 0.21157 0.0
C1049 C 0.34811 0.36962 0.20962 0.0
C1050 C 0.32459 0.34884 0.16834 0.0
C1051 C 0.33912 0.38283 0.21428 0.0
C1052 C 0.31738 0.39951 0.21128 0.0
C1053 C 0.3256 0.38677 0.20669 0.0
C1054 C 0.33608 0.40442 0.23105 0.0
C1055 C 0.3226 0.40843 0.22348 0.0
C1056 C 0.34427 0.39172 0.22648 0.0
C1057 C 0.38259 0.32384 0.19474 0.0
C1058 C 0.39694 0.31605 0.21726 0.0
C1059 C 0.4093 0.31707 0.19269 0.0
C1060 C 0.39574 0.32191 0.18596 0.0
C1061 C 0.40999 0.314 0.20835 0.0
C1062 C 0.38332 0.32097 0.21051 0.0
C1063 C 0.36825 0.32809 0.18692 0.0
O1064 O 0.32367 0.34197 0.18163 0.0
O1065 O 0.33724 0.35676 0.1666 0.0
O1066 O 0.36866 0.34082 0.17906 0.0
O1067 O 0.35544 0.32606 0.1944 0.0
H1068 H 0.32447 0.31789 0.16361 0.0
H1069 H 0.31377 0.30442 0.14221 0.0
H1070 H 0.3033 0.34716 0.12057 0.0
H1071 H 0.31396 0.36042 0.14205 0.0
H1072 H 0.30702 0.40246 0.20528 0.0
H1073 H 0.32146 0.38004 0.19723 0.0
H1074 H 0.34029 0.41119 0.24046 0.0
H1075 H 0.35468 0.38886 0.23245 0.0
H1076 H 0.39728 0.31372 0.22937 0.0
H1077 H 0.41925 0.31553 0.18563 0.0
H1078 H 0.39547 0.32395 0.17379 0.0
H1079 H 0.37337 0.32233 0.21759 0.0
C1080 C 0.65464 0.31875 0.19784 0.0
C1081 C 0.65016 0.32685 0.21076 0.0
C1082 C 0.62825 0.30995 0.21393 0.0
C1083 C 0.63703 0.32247 0.21877 0.0
C1084 C 0.63279 0.30186 0.20104 0.0
C1085 C 0.64589 0.30623 0.19306 0.0
U1086 U 0.68928 0.34467 0.19007 0.0
O1087 O 0.71236 0.33862 0.18267 0.0
O1088 O 0.69819 0.35319 0.16824 0.0
C1089 C 0.71094 0.3456 0.16949 0.0
C1090 C 0.66826 0.3232 0.18908 0.0
C1091 C 0.71533 0.33682 0.15603 0.0
C1092 C 0.71046 0.31691 0.1375 0.0
C1093 C 0.70616 0.32487 0.15054 0.0
C1094 C 0.73317 0.33267 0.13542 0.0
C1095 C 0.72397 0.32082 0.12983 0.0
C1096 C 0.72887 0.34061 0.14843 0.0
C1097 C 0.69756 0.37878 0.21602 0.0
C1098 C 0.71785 0.39726 0.21141 0.0
C1099 C 0.70187 0.39951 0.2337 0.0
C1100 C 0.69376 0.38648 0.22937 0.0
C1101 C 0.71392 0.40505 0.22472 0.0
C1102 C 0.70971 0.38419 0.20708 0.0
C1103 C 0.68857 0.3653 0.21155 0.0
O1104 O 0.66729 0.33603 0.18146 0.0
O1105 O 0.68138 0.32163 0.19613 0.0
O1106 O 0.69537 0.35218 0.21319 0.0
O1107 O 0.68102 0.36647 0.19867 0.0
H1108 H 0.65678 0.33656 0.2146 0.0
H1109 H 0.63366 0.32886 0.22867 0.0
H1110 H 0.62614 0.29221 0.19713 0.0
H1111 H 0.64917 0.29986 0.18311 0.0
H1112 H 0.70323 0.30779 0.13333 0.0
H1113 H 0.69566 0.32178 0.15628 0.0
H1114 H 0.74362 0.33584 0.12964 0.0
H1115 H 0.73609 0.34979 0.1525 0.0
H1116 H 0.72712 0.40138 0.20436 0.0
H1117 H 0.69868 0.40538 0.24399 0.0
H1118 H 0.68442 0.38246 0.2364 0.0
H1119 H 0.71281 0.37838 0.19673 0.0
C1120 C 0.6559 0.31721 0.83815 0.0
C1121 C 0.65062 0.32605 0.82592 0.0
C1122 C 0.62954 0.30832 0.82203 0.0
C1123 C 0.6375 0.32162 0.81789 0.0
C1124 C 0.63495 0.29942 0.83415 0.0
C1125 C 0.64804 0.30385 0.84215 0.0
U1126 U 0.6896 0.34406 0.84592 0.0
O1127 O 0.69803 0.35311 0.86774 0.0
O1128 O 0.71286 0.33907 0.85369 0.0
C1129 C 0.71101 0.3459 0.86681 0.0
C1130 C 0.66934 0.32191 0.84708 0.0
C1131 C 0.71554 0.33729 0.8805 0.0
C1132 C 0.7267 0.33721 0.90587 0.0
C1133 C 0.72217 0.34508 0.89278 0.0
C1134 C 0.71803 0.31358 0.8946 0.0
C1135 C 0.72472 0.32142 0.90683 0.0
C1136 C 0.71341 0.32148 0.88153 0.0
C1137 C 0.69676 0.37817 0.81954 0.0
C1138 C 0.71764 0.39617 0.82321 0.0
C1139 C 0.69959 0.3999 0.80261 0.0
C1140 C 0.69175 0.3867 0.80701 0.0
C1141 C 0.71256 0.40474 0.81069 0.0
C1142 C 0.70977 0.38295 0.82762 0.0
C1143 C 0.68816 0.36446 0.82406 0.0
O1144 O 0.68254 0.32071 0.84021 0.0
O1145 O 0.66797 0.33469 0.85455 0.0
O1146 O 0.68053 0.36546 0.83683 0.0
O1147 O 0.69542 0.35158 0.82273 0.0
H1148 H 0.65656 0.33641 0.82268 0.0
H1149 H 0.63347 0.32861 0.80857 0.0
H1150 H 0.62893 0.28914 0.83749 0.0
H1151 H 0.65196 0.29691 0.85157 0.0
H1152 H 0.73182 0.34341 0.91522 0.0
H1153 H 0.72387 0.35727 0.89223 0.0
H1154 H 0.71639 0.30139 0.89521 0.0
H1155 H 0.70822 0.31525 0.87223 0.0
H1156 H 0.7276 0.39979 0.82959 0.0
H1157 H 0.69551 0.4064 0.79296 0.0
H1158 H 0.68172 0.38319 0.80066 0.0
H1159 H 0.71377 0.37649 0.83734 0.0
C1160 C 0.65309 0.69567 0.82112 0.0
C1161 C 0.64867 0.70827 0.8297 0.0
C1162 C 0.62726 0.71243 0.81252 0.0
C1163 C 0.63581 0.71661 0.82541 0.0
C1164 C 0.63178 0.6999 0.80392 0.0
C1165 C 0.64459 0.69159 0.8082 0.0
U1166 U 0.68771 0.68668 0.84656 0.0
O1167 O 0.69568 0.66461 0.85501 0.0
O1168 O 0.71026 0.67822 0.83986 0.0
C1169 C 0.7082 0.66513 0.84686 0.0
C1170 C 0.66638 0.68652 0.82545 0.0
C1171 C 0.71134 0.65147 0.8378 0.0
C1172 C 0.70279 0.63095 0.82132 0.0
C1173 C 0.6998 0.64432 0.82925 0.0
C1174 C 0.72901 0.6319 0.83003 0.0
C1175 C 0.71739 0.62459 0.82174 0.0
C1176 C 0.72598 0.64524 0.83802 0.0
C1177 C 0.69711 0.71257 0.88074 0.0
C1178 C 0.7187 0.70944 0.8979 0.0
C1179 C 0.7 0.72879 0.90287 0.0
C1180 C 0.69192 0.72445 0.88984 0.0
C1181 C 0.71343 0.72132 0.90702 0.0
C1182 C 0.71058 0.70507 0.88482 0.0
C1183 C 0.68814 0.70815 0.86724 0.0
O1184 O 0.67977 0.69308 0.82363 0.0
O1185 O 0.66522 0.67898 0.83835 0.0
O1186 O 0.68007 0.69556 0.86857 0.0
O1187 O 0.69504 0.70943 0.85405 0.0
H1188 H 0.6551 0.71158 0.83971 0.0
H1189 H 0.63248 0.72625 0.83217 0.0
H1190 H 0.62531 0.69652 0.79396 0.0
H1191 H 0.64783 0.68191 0.80145 0.0
H1192 H 0.69369 0.62545 0.815 0.0
H1193 H 0.68843 0.64897 0.82887 0.0
H1194 H 0.74033 0.62715 0.83049 0.0
H1195 H 0.73504 0.6506 0.84454 0.0
H1196 H 0.72902 0.70351 0.90097 0.0
H1197 H 0.69574 0.73794 0.90979 0.0
H1198 H 0.68154 0.73034 0.88688 0.0
H1199 H 0.71473 0.69583 0.87795 0.0
C1200 C 0.31849 0.65418 0.8403 0.0
C1201 C 0.32593 0.65039 0.82674 0.0
C1202 C 0.30949 0.62813 0.82396 0.0
C1203 C 0.32145 0.63743 0.81861 0.0
C1204 C 0.30202 0.63201 0.83745 0.0
C1205 C 0.30648 0.64494 0.84555 0.0
U1206 U 0.34459 0.68861 0.84807 0.0
O1207 O 0.33893 0.71113 0.857 0.0
O1208 O 0.3545 0.69641 0.86977 0.0
C1209 C 0.34673 0.70907 0.86965 0.0
C1210 C 0.32324 0.66746 0.84932 0.0
C1211 C 0.33927 0.71312 0.88412 0.0
C1212 C 0.31694 0.71967 0.89905 0.0
C1213 C 0.32341 0.71499 0.8853 0.0
C1214 C 0.342 0.7204 0.91066 0.0
C1215 C 0.32624 0.72248 0.91179 0.0
C1216 C 0.34845 0.7158 0.89696 0.0
C1217 C 0.37763 0.69802 0.82096 0.0
C1218 C 0.39631 0.71808 0.82566 0.0
C1219 C 0.39824 0.70258 0.80307 0.0
C1220 C 0.38518 0.69447 0.80743 0.0
C1221 C 0.40396 0.71438 0.81219 0.0
C1222 C 0.38322 0.70994 0.83004 0.0
C1223 C 0.36423 0.68892 0.82556 0.0
O1224 O 0.33647 0.66632 0.85626 0.0
O1225 O 0.32123 0.68079 0.84288 0.0
O1226 O 0.35105 0.69583 0.82492 0.0
O1227 O 0.36594 0.68072 0.83797 0.0
H1228 H 0.33526 0.65737 0.82255 0.0
H1229 H 0.32737 0.63456 0.80825 0.0
H1230 H 0.29281 0.62494 0.84176 0.0
H1231 H 0.30064 0.64767 0.856 0.0
H1232 H 0.30474 0.72121 0.89974 0.0
H1233 H 0.31604 0.713 0.87558 0.0
H1234 H 0.34935 0.72251 0.92037 0.0
H1235 H 0.36069 0.71451 0.89633 0.0
H1236 H 0.40057 0.72715 0.83283 0.0
H1237 H 0.404 0.69957 0.79266 0.0
H1238 H 0.38104 0.6853 0.80031 0.0
H1239 H 0.37754 0.71282 0.84053 0.0
C1240 C 0.33704 0.38016 0.82088 0.0
C1241 C 0.32507 0.38544 0.82993 0.0
C1242 C 0.32074 0.40619 0.81204 0.0
C1243 C 0.31696 0.39838 0.82553 0.0
C1244 C 0.3326 0.40079 0.80296 0.0
C1245 C 0.34068 0.38788 0.80736 0.0
U1246 U 0.34591 0.3461 0.84704 0.0
O1247 O 0.35394 0.32334 0.84108 0.0
O1248 O 0.36822 0.33819 0.8553 0.0
C1249 C 0.36726 0.32541 0.84769 0.0
C1250 C 0.34609 0.36688 0.82542 0.0
C1251 C 0.38089 0.32124 0.83884 0.0
C1252 C 0.40718 0.31267 0.83871 0.0
C1253 C 0.39429 0.31734 0.84666 0.0
C1254 C 0.39358 0.31579 0.81488 0.0
C1255 C 0.40688 0.31175 0.82278 0.0
C1256 C 0.38068 0.32055 0.82284 0.0
C1257 C 0.31999 0.33769 0.88162 0.0
C1258 C 0.32305 0.31658 0.89932 0.0
C1259 C 0.30317 0.33495 0.90341 0.0
C1260 C 0.30773 0.34283 0.89031 0.0
C1261 C 0.31078 0.32178 0.90803 0.0
C1262 C 0.32763 0.32449 0.88618 0.0
C1263 C 0.32453 0.34637 0.86795 0.0
O1264 O 0.35379 0.36822 0.8382 0.0
O1265 O 0.33933 0.35357 0.82399 0.0
O1266 O 0.32302 0.33931 0.85489 0.0
O1267 O 0.33731 0.35421 0.86902 0.0
H1268 H 0.3221 0.37962 0.84042 0.0
H1269 H 0.30784 0.40239 0.83267 0.0
H1270 H 0.33568 0.40666 0.79254 0.0
H1271 H 0.34988 0.38399 0.80024 0.0
H1272 H 0.41734 0.30961 0.84498 0.0
H1273 H 0.39472 0.31776 0.85897 0.0
H1274 H 0.39318 0.31517 0.80258 0.0
H1275 H 0.37054 0.32352 0.8165 0.0
H1276 H 0.32909 0.30646 0.90275 0.0
H1277 H 0.29372 0.33916 0.90999 0.0
H1278 H 0.30171 0.35299 0.88698 0.0
H1279 H 0.33713 0.32037 0.87962 0.0
H1280 H 0.23214 0.25825 0.99638 0.0
H1281 H 0.22179 0.24819 0.97243 0.0
H1282 H 0.26718 0.23759 0.95765 0.0
H1283 H 0.2776 0.24763 0.98165 0.0
H1284 H 0.24897 0.24462 0.01909 0.0
H1285 H 0.25605 0.28601 0.98243 0.0
H1286 H 0.26569 0.29737 0.95869 0.0
H1287 H 0.31156 0.28619 0.97193 0.0
H1288 H 0.30195 0.27482 0.99568 0.0
H1289 H 0.30099 0.27979 0.0435 0.0
H1290 H 0.30796 0.29223 0.06763 0.0
H1291 H 0.26045 0.29539 0.07917 0.0
H1292 H 0.25342 0.28342 0.05503 0.0
H1293 H 0.2854 0.28809 0.01913 0.0
H1294 H 0.2806 0.24915 0.05562 0.0
H1295 H 0.27314 0.23742 0.07984 0.0
H1296 H 0.22583 0.24092 0.06721 0.0
H1297 H 0.23324 0.25306 0.04298 0.0
C1298 C 0.25565 0.25381 0.99078 0.0
C1299 C 0.23988 0.2537 0.98803 0.0
C1300 C 0.23398 0.24802 0.97437 0.0
C1301 C 0.24373 0.24223 0.96326 0.0
C1302 C 0.25949 0.24209 0.96606 0.0
C1303 C 0.26541 0.24783 0.97972 0.0
C1304 C 0.2618 0.26035 1.00516 0.0
C1305 C 0.2568 0.25423 0.01912 0.0
C1306 C 0.27254 0.27248 1.00517 0.0
C1307 C 0.27827 0.27947 0.99081 0.0
C1308 C 0.26817 0.28592 0.9802 0.0
C1309 C 0.27365 0.29241 0.96669 0.0
C1310 C 0.28933 0.29258 0.96355 0.0
C1311 C 0.29943 0.28615 0.97414 0.0
C1312 C 0.29396 0.27973 0.98769 0.0
C1313 C 0.27667 0.28046 0.04749 0.0
C1314 C 0.29206 0.28325 0.05117 0.0
C1315 C 0.29606 0.29027 0.06493 0.0
C1316 C 0.28471 0.29462 0.07519 0.0
C1317 C 0.26936 0.29203 0.07144 0.0
C1318 C 0.26537 0.28514 0.05769 0.0
C1319 C 0.27228 0.27261 0.0331 0.0
C1320 C 0.27763 0.27843 0.01915 0.0
C1321 C 0.26212 0.25997 0.03309 0.0
C1322 C 0.25749 0.2522 0.04751 0.0
C1323 C 0.2686 0.24752 0.05804 0.0
C1324 C 0.26437 0.24078 0.07184 0.0
C1325 C 0.24894 0.23838 0.07531 0.0
C1326 C 0.23778 0.24273 0.06472 0.0
C1327 C 0.24202 0.24958 0.0509 0.0
H1328 H 0.77219 0.23262 0.99478 0.0
H1329 H 0.78339 0.22269 0.97129 0.0
H1330 H 0.79946 0.26762 0.95949 0.0
H1331 H 0.7884 0.27757 0.98297 0.0
H1332 H 0.78544 0.2466 0.01905 0.0
H1333 H 0.74721 0.25914 0.98177 0.0
H1334 H 0.73783 0.26982 0.95763 0.0
H1335 H 0.75434 0.31409 0.97086 0.0
H1336 H 0.76375 0.30347 0.995 0.0
H1337 H 0.76299 0.30334 0.04191 0.0
H1338 H 0.75322 0.31389 0.06573 0.0
H1339 H 0.73664 0.26955 0.07903 0.0
H1340 H 0.7463 0.25897 0.05517 0.0
H1341 H 0.74896 0.28921 0.01831 0.0
H1342 H 0.78737 0.27676 0.0554 0.0
H1343 H 0.79684 0.26624 0.07956 0.0
H1344 H 0.78029 0.22188 0.06664 0.0
H1345 H 0.77073 0.23237 0.04251 0.0
C1346 C 0.77934 0.25586 0.9906 0.0
C1347 C 0.77813 0.24034 0.98716 0.0
C1348 C 0.78445 0.23468 0.97376 0.0
C1349 C 0.7922 0.24444 0.96367 0.0
C1350 C 0.79347 0.25994 0.96711 0.0
C1351 C 0.78712 0.26559 0.98047 0.0
C1352 C 0.77262 0.26188 1.00483 0.0
C1353 C 0.77728 0.25576 0.01888 0.0
C1354 C 0.76223 0.27406 1.00464 0.0
C1355 C 0.75628 0.2805 0.99015 0.0
C1356 C 0.74886 0.27114 0.97947 0.0
C1357 C 0.74349 0.2772 0.96574 0.0
C1358 C 0.74546 0.2927 0.96251 0.0
C1359 C 0.75276 0.30209 0.97319 0.0
C1360 C 0.75806 0.29605 0.98695 0.0
C1361 C 0.7555 0.28034 0.04679 0.0
C1362 C 0.75719 0.29589 0.0499 0.0
C1363 C 0.75168 0.3019 0.06349 0.0
C1364 C 0.7443 0.29247 0.07414 0.0
C1365 C 0.74238 0.27697 0.07097 0.0
C1366 C 0.74792 0.27095 0.0574 0.0
C1367 C 0.76179 0.27394 0.03253 0.0
C1368 C 0.75706 0.28 0.01848 0.0
C1369 C 0.77215 0.26173 0.03272 0.0
C1370 C 0.77821 0.25537 0.0472 0.0
C1371 C 0.78571 0.26478 0.05778 0.0
C1372 C 0.79113 0.25881 0.07152 0.0
C1373 C 0.78918 0.24332 0.07486 0.0
C1374 C 0.78185 0.23387 0.06425 0.0
C1375 C 0.77646 0.23983 0.05049 0.0
H1376 H 0.77091 0.80199 0.04105 0.0
H1377 H 0.78062 0.81313 0.0648 0.0
H1378 H 0.79687 0.76932 0.0791 0.0
H1379 H 0.78729 0.75813 0.0553 0.0
H1380 H 0.7853 0.78802 0.01807 0.0
H1381 H 0.74656 0.77457 0.05464 0.0
H1382 H 0.73654 0.7636 0.07841 0.0
H1383 H 0.75284 0.71963 0.06534 0.0
H1384 H 0.76299 0.73055 0.04162 0.0
H1385 H 0.76225 0.73091 0.99395 0.0
H1386 H 0.75127 0.72085 0.97022 0.0
H1387 H 0.73553 0.76554 0.95826 0.0
H1388 H 0.7464 0.77561 0.98197 0.0
H1389 H 0.74887 0.74457 0.01803 0.0
H1390 H 0.78713 0.75783 0.98125 0.0
H1391 H 0.79685 0.76866 0.95731 0.0
H1392 H 0.78142 0.81286 0.97071 0.0
H1393 H 0.7716 0.80207 0.99462 0.0
C1394 C 0.77825 0.77919 0.04641 0.0
C1395 C 0.77661 0.79477 0.04925 0.0
C1396 C 0.78209 0.80112 0.06279 0.0
C1397 C 0.78942 0.79202 0.07367 0.0
C1398 C 0.79121 0.77649 0.07083 0.0
C1399 C 0.7857 0.77012 0.0573 0.0
C1400 C 0.77223 0.7725 0.03204 0.0
C1401 C 0.7772 0.77863 0.01807 0.0
C1402 C 0.76193 0.76 0.03202 0.0
C1403 C 0.75568 0.75342 0.04638 0.0
C1404 C 0.74808 0.76259 0.0569 0.0
C1405 C 0.74231 0.75635 0.07042 0.0
C1406 C 0.74399 0.74083 0.07359 0.0
C1407 C 0.75146 0.73163 0.06307 0.0
C1408 C 0.7572 0.73785 0.04955 0.0
C1409 C 0.75527 0.75404 0.98971 0.0
C1410 C 0.75643 0.73855 0.98624 0.0
C1411 C 0.75023 0.73282 0.9727 0.0
C1412 C 0.74263 0.74247 0.9625 0.0
C1413 C 0.7414 0.75793 0.96597 0.0
C1414 C 0.74764 0.76366 0.97946 0.0
C1415 C 0.76187 0.76015 1.00409 0.0
C1416 C 0.75702 0.75392 0.01804 0.0
C1417 C 0.77229 0.77255 1.0041 0.0
C1418 C 0.7785 0.77911 0.98971 0.0
C1419 C 0.78575 0.76983 0.97903 0.0
C1420 C 0.79133 0.77599 0.9654 0.0
C1421 C 0.78978 0.79153 0.96224 0.0
C1422 C 0.78268 0.80084 0.97295 0.0
C1423 C 0.77714 0.79469 0.98659 0.0
H1424 H 0.27377 0.73207 0.99505 0.0
H1425 H 0.28747 0.72257 0.97348 0.0
H1426 H 0.30037 0.76843 0.96121 0.0
H1427 H 0.28687 0.77772 0.98293 0.0
H1428 H 0.28597 0.74676 0.01952 0.0
H1429 H 0.24817 0.7579 0.98094 0.0
H1430 H 0.23875 0.76896 0.95697 0.0
H1431 H 0.25189 0.81357 0.97244 0.0
H1432 H 0.26137 0.8026 0.99636 0.0
H1433 H 0.25984 0.80247 0.04112 0.0
H1434 H 0.24983 0.81316 0.06474 0.0
H1435 H 0.23715 0.76828 0.0802 0.0
H1436 H 0.24705 0.75752 0.0565 0.0
H1437 H 0.24723 0.78723 0.01851 0.0
H1438 H 0.2846 0.77776 0.05627 0.0
H1439 H 0.29662 0.76881 0.07887 0.0
H1440 H 0.28742 0.72244 0.06527 0.0
H1441 H 0.27438 0.73184 0.04291 0.0
C1442 C 0.27988 0.75557 0.99118 0.0
C1443 C 0.28014 0.74002 0.98803 0.0
C1444 C 0.28861 0.73453 0.97581 0.0
C1445 C 0.29803 0.74428 0.96693 0.0
C1446 C 0.29577 0.76005 0.96897 0.0
C1447 C 0.28734 0.76558 0.98118 0.0
C1448 C 0.27236 0.76119 1.0052 0.0
C1449 C 0.27723 0.75537 0.0193 0.0
C1450 C 0.26141 0.77287 1.00492 0.0
C1451 C 0.25558 0.77941 0.99042 0.0
C1452 C 0.2491 0.77005 0.97916 0.0
C1453 C 0.24368 0.77633 0.96554 0.0
C1454 C 0.24467 0.79204 0.963 0.0
C1455 C 0.25106 0.80141 0.97424 0.0
C1456 C 0.25641 0.79516 0.98787 0.0
C1457 C 0.25432 0.77917 0.04705 0.0
C1458 C 0.25482 0.79491 0.04952 0.0
C1459 C 0.24917 0.80101 0.063 0.0
C1460 C 0.24283 0.79149 0.07421 0.0
C1461 C 0.24207 0.77578 0.07169 0.0
C1462 C 0.24776 0.76967 0.05821 0.0
C1463 C 0.26081 0.77275 0.03286 0.0
C1464 C 0.25579 0.77845 0.01874 0.0
C1465 C 0.27184 0.76113 0.03315 0.0
C1466 C 0.27889 0.75552 0.04754 0.0
C1467 C 0.28533 0.76562 0.05807 0.0
C1468 C 0.29299 0.76026 0.07098 0.0
C1469 C 0.29548 0.74455 0.07328 0.0
C1470 C 0.28759 0.73457 0.06332 0.0
C1471 C 0.27975 0.73993 0.05053 0.0
H1472 H 0.03949 0.26248 0.23243 0.0
H1473 H 0.06323 0.25247 0.22194 0.0
H1474 H 0.0768 0.23756 0.26673 0.0
H1475 H 0.05303 0.24749 0.27726 0.0
H1476 H 0.01612 0.24818 0.24754 0.0
H1477 H 0.05346 0.28764 0.25866 0.0
H1478 H 0.07771 0.29703 0.2693 0.0
H1479 H 0.06383 0.28197 0.31395 0.0
H1480 H 0.03964 0.27246 0.30335 0.0
H1481 H 0.99415 0.27402 0.30393 0.0
H1482 H 0.97059 0.28411 0.31467 0.0
H1483 H 0.95481 0.29558 0.2696 0.0
H1484 H 0.97845 0.28563 0.25878 0.0
H1485 H 0.01657 0.28657 0.28858 0.0
H1486 H 0.97951 0.24841 0.27924 0.0
H1487 H 0.95696 0.23594 0.27053 0.0
H1488 H 0.96992 0.24534 0.22388 0.0
H1489 H 0.99226 0.25876 0.23308 0.0
C1490 C 0.04452 0.25588 0.25565 0.0
C1491 C 0.04754 0.25703 0.24 0.0
C1492 C 0.06108 0.25137 0.23403 0.0
C1493 C 0.07178 0.24436 0.24358 0.0
C1494 C 0.06872 0.24301 0.2592 0.0
C1495 C 0.05519 0.24871 0.26519 0.0
C1496 C 0.0302 0.26217 0.26196 0.0
C1497 C 0.01617 0.25678 0.25632 0.0
C1498 C 0.03033 0.27299 0.27381 0.0
C1499 C 0.04478 0.27923 0.2802 0.0
C1500 C 0.05564 0.28631 0.27073 0.0
C1501 C 0.06943 0.29169 0.27677 0.0
C1502 C 0.07254 0.2901 0.29237 0.0
C1503 C 0.06162 0.28324 0.30187 0.0
C1504 C 0.04783 0.27789 0.29584 0.0
C1505 C 0.98806 0.27893 0.28052 0.0
C1506 C 0.98568 0.27876 0.29633 0.0
C1507 C 0.97223 0.28446 0.30247 0.0
C1508 C 0.96096 0.29052 0.29292 0.0
C1509 C 0.96336 0.29088 0.27713 0.0
C1510 C 0.97681 0.28516 0.27098 0.0
C1511 C 1.00236 0.27267 0.27408 0.0
C1512 C 0.01642 0.27807 0.2797 0.0
C1513 C 1.00223 0.26166 0.26236 0.0
C1514 C 0.98792 0.25423 0.25686 0.0
C1515 C 0.97758 0.24762 0.26709 0.0
C1516 C 0.96468 0.23974 0.26186 0.0
C1517 C 0.96218 0.23726 0.24612 0.0
C1518 C 0.972 0.24524 0.23602 0.0
C1519 C 0.98478 0.25328 0.24126 0.0
H1520 H 0.77307 0.0411 0.23415 0.0
H1521 H 0.78445 0.06498 0.22472 0.0
H1522 H 0.79899 0.07609 0.27025 0.0
H1523 H 0.78772 0.05221 0.27972 0.0
H1524 H 0.78638 0.01698 0.24842 0.0
H1525 H 0.74771 0.0536 0.26018 0.0
H1526 H 0.73785 0.07711 0.27118 0.0
H1527 H 0.75139 0.06196 0.31588 0.0
H1528 H 0.76138 0.03849 0.30494 0.0
H1529 H 0.76038 0.9918 0.3037 0.0
H1530 H 0.74896 0.9679 0.31299 0.0
H1531 H 0.73554 0.95646 0.26719 0.0
H1532 H 0.74687 0.98034 0.25787 0.0
H1533 H 0.74768 0.01578 0.2894 0.0
H1534 H 0.78672 0.98009 0.27862 0.0
H1535 H 0.79786 0.95678 0.26857 0.0
H1536 H 0.78475 0.97005 0.22313 0.0
H1537 H 0.77353 0.99339 0.23316 0.0
C1538 C 0.77943 0.04492 0.25765 0.0
C1539 C 0.77871 0.04866 0.24211 0.0
C1540 C 0.78513 0.06227 0.23674 0.0
C1541 C 0.79248 0.07225 0.24683 0.0
C1542 C 0.7933 0.06852 0.26234 0.0
C1543 C 0.78684 0.05495 0.26772 0.0
C1544 C 0.77262 0.03046 0.26332 0.0
C1545 C 0.77774 0.01671 0.25721 0.0
C1546 C 0.76167 0.03014 0.27512 0.0
C1547 C 0.75542 0.0443 0.28172 0.0
C1548 C 0.74864 0.05534 0.27234 0.0
C1549 C 0.74297 0.06872 0.27859 0.0
C1550 C 0.74393 0.07123 0.29432 0.0
C1551 C 0.75057 0.06019 0.30372 0.0
C1552 C 0.75621 0.04681 0.29748 0.0
C1553 C 0.75458 0.98782 0.28008 0.0
C1554 C 0.75498 0.98416 0.29565 0.0
C1555 C 0.74853 0.97054 0.30094 0.0
C1556 C 0.74146 0.96045 0.29075 0.0
C1557 C 0.74101 0.96409 0.2752 0.0
C1558 C 0.74749 0.97768 0.2699 0.0
C1559 C 0.7614 1.00231 0.27446 0.0
C1560 C 0.75628 0.01605 0.28058 0.0
C1561 C 0.77244 1.00263 0.26275 0.0
C1562 C 0.77916 0.98846 0.25666 0.0
C1563 C 0.78612 0.97796 0.26651 0.0
C1564 C 0.7925 0.96469 0.26079 0.0
C1565 C 0.79209 0.96169 0.24513 0.0
C1566 C 0.78515 0.97216 0.23526 0.0
C1567 C 0.77882 0.98547 0.24097 0.0
H1568 H 0.03846 0.73032 0.2747 0.0
H1569 H 0.06231 0.71961 0.2845 0.0
H1570 H 0.07794 0.76438 0.29701 0.0
H1571 H 0.05405 0.77516 0.28732 0.0
H1572 H 0.01626 0.74589 0.28874 0.0
H1573 H 0.05152 0.75535 0.24784 0.0
H1574 H 0.07519 0.76493 0.23623 0.0
H1575 H 0.0641 0.81037 0.24987 0.0
H1576 H 0.04044 0.80084 0.26161 0.0
H1577 H 0.99336 0.80159 0.26161 0.0
H1578 H 0.9699 0.81171 0.25029 0.0
H1579 H 0.95488 0.76627 0.23955 0.0
H1580 H 0.97835 0.7561 0.25075 0.0
H1581 H 0.01591 0.78618 0.24913 0.0
H1582 H 0.97895 0.77687 0.28754 0.0
H1583 H 0.9565 0.76767 0.29987 0.0
H1584 H 0.97046 0.72148 0.29183 0.0
H1585 H 0.9926 0.73106 0.27852 0.0
C1586 C 0.04448 0.75356 0.28015 0.0
C1587 C 0.04697 0.73785 0.27959 0.0
C1588 C 0.06057 0.73174 0.28513 0.0
C1589 C 0.07184 0.74123 0.29143 0.0
C1590 C 0.06936 0.75691 0.29215 0.0
C1591 C 0.05577 0.76303 0.28657 0.0
C1592 C 0.03005 0.75999 0.27407 0.0
C1593 C 0.01612 0.75454 0.27991 0.0
C1594 C 0.02996 0.77161 0.26288 0.0
C1595 C 0.04425 0.77736 0.25572 0.0
C1596 C 0.0542 0.76736 0.24844 0.0
C1597 C 0.06766 0.7728 0.24178 0.0
C1598 C 0.07136 0.78832 0.24226 0.0
C1599 C 0.06142 0.79835 0.24945 0.0
C1600 C 0.04793 0.79292 0.25607 0.0
C1601 C 0.9876 0.77807 0.25715 0.0
C1602 C 0.98503 0.79379 0.25684 0.0
C1603 C 0.97165 0.79956 0.25044 0.0
C1604 C 0.96067 0.78972 0.24413 0.0
C1605 C 0.9632 0.77402 0.24443 0.0
C1606 C 0.97656 0.76824 0.25086 0.0
C1607 C 1.002 0.77199 0.2637 0.0
C1608 C 0.01596 0.77752 0.25795 0.0
C1609 C 1.00208 0.76044 0.275 0.0
C1610 C 0.98788 0.75471 0.28247 0.0
C1611 C 0.97731 0.76472 0.28866 0.0
C1612 C 0.96452 0.75924 0.29652 0.0
C1613 C 0.96238 0.74352 0.29948 0.0
C1614 C 0.97234 0.73363 0.29178 0.0
C1615 C 0.98501 0.7391 0.28376 0.0
H1616 H 0.23019 0.03929 0.26423 0.0
H1617 H 0.21901 0.06289 0.25451 0.0
H1618 H 0.26337 0.07834 0.23986 0.0
H1619 H 0.2746 0.05472 0.24949 0.0
H1620 H 0.245 0.01687 0.25031 0.0
H1621 H 0.25614 0.05233 0.28987 0.0
H1622 H 0.26573 0.07595 0.30129 0.0
H1623 H 0.31105 0.06574 0.286 0.0
H1624 H 0.30147 0.0421 0.27446 0.0
H1625 H 0.30251 0.99447 0.27279 0.0
H1626 H 0.31345 0.97071 0.28243 0.0
H1627 H 0.26919 0.95631 0.29834 0.0
H1628 H 0.25821 0.98008 0.28879 0.0
H1629 H 0.28786 0.0174 0.28727 0.0
H1630 H 0.27572 0.98095 0.24804 0.0
H1631 H 0.26521 0.95699 0.23809 0.0
H1632 H 0.22067 0.96913 0.25415 0.0
H1633 H 0.23114 0.99303 0.2642 0.0
C1634 C 0.25326 0.04526 0.25772 0.0
C1635 C 0.23752 0.04772 0.2589 0.0
C1636 C 0.23115 0.06118 0.2534 0.0
C1637 C 0.24038 0.07236 0.24654 0.0
C1638 C 0.25608 0.06987 0.24519 0.0
C1639 C 0.26247 0.05643 0.25073 0.0
C1640 C 0.26001 0.03098 0.26375 0.0
C1641 C 0.25426 0.01698 0.25852 0.0
C1642 C 0.27226 0.03113 0.2743 0.0
C1643 C 0.27806 0.04549 0.28118 0.0
C1644 C 0.26812 0.05521 0.28884 0.0
C1645 C 0.27357 0.06865 0.29539 0.0
C1646 C 0.28908 0.07258 0.29444 0.0
C1647 C 0.29905 0.06289 0.28681 0.0
C1648 C 0.29359 0.04942 0.28029 0.0
C1649 C 0.27951 0.98902 0.27992 0.0
C1650 C 0.29515 0.98624 0.27839 0.0
C1651 C 0.30138 0.97269 0.28384 0.0
C1652 C 0.2921 0.96175 0.29102 0.0
C1653 C 0.27651 0.96458 0.29276 0.0
C1654 C 0.27027 0.97811 0.28728 0.0
C1655 C 0.27287 1.00329 0.2738 0.0
C1656 C 0.27865 0.0173 0.27901 0.0
C1657 C 0.26055 1.00315 0.26333 0.0
C1658 C 0.25425 0.98875 0.257 0.0
C1659 C 0.26371 0.97844 0.2495 0.0
C1660 C 0.25774 0.96481 0.24379 0.0
C1661 C 0.24219 0.96129 0.24546 0.0
C1662 C 0.2327 0.97164 0.2528 0.0
C1663 C 0.23866 0.98527 0.25847 0.0
H1664 H 0.0405 0.76968 0.80383 0.0
H1665 H 0.06466 0.77922 0.81454 0.0
H1666 H 0.07767 0.79643 0.77041 0.0
H1667 H 0.0535 0.78697 0.75965 0.0
H1668 H 0.01712 0.78457 0.78992 0.0
H1669 H 0.05298 0.74587 0.77691 0.0
H1670 H 0.0767 0.73605 0.7662 0.0
H1671 H 0.06356 0.75253 0.72183 0.0
H1672 H 0.03988 0.76248 0.73252 0.0
H1673 H 0.99289 0.76345 0.73254 0.0
H1674 H 0.96865 0.75417 0.72183 0.0
H1675 H 0.95525 0.73751 0.76606 0.0
H1676 H 0.97952 0.74667 0.77681 0.0
H1677 H 0.01611 0.74877 0.74654 0.0
H1678 H 0.98042 0.78766 0.75949 0.0
H1679 H 0.95666 0.79749 0.77011 0.0
H1680 H 0.96946 0.7807 0.81445 0.0
H1681 H 0.99318 0.77075 0.80386 0.0
C1682 C 0.04524 0.77751 0.78093 0.0
C1683 C 0.04852 0.77554 0.79646 0.0
C1684 C 0.06228 0.78091 0.80255 0.0
C1685 C 0.07289 0.78845 0.79323 0.0
C1686 C 0.0696 0.79059 0.77774 0.0
C1687 C 0.05586 0.78516 0.77163 0.0
C1688 C 0.03071 0.77155 0.77445 0.0
C1689 C 0.01688 0.77659 0.78056 0.0
C1690 C 0.03045 0.76137 0.76203 0.0
C1691 C 0.04469 0.75507 0.75555 0.0
C1692 C 0.05521 0.74747 0.7649 0.0
C1693 C 0.06871 0.74182 0.7588 0.0
C1694 C 0.07189 0.74364 0.74325 0.0
C1695 C 0.06131 0.75106 0.73387 0.0
C1696 C 0.04781 0.75668 0.73995 0.0
C1697 C 0.98797 0.75588 0.7555 0.0
C1698 C 0.98478 0.75775 0.73993 0.0
C1699 C 0.97096 0.75252 0.73384 0.0
C1700 C 0.96018 0.74525 0.74319 0.0
C1701 C 0.96342 0.74317 0.75871 0.0
C1702 C 0.97722 0.74843 0.76481 0.0
C1703 C 1.00251 0.76179 0.762 0.0
C1704 C 0.01634 0.75675 0.75589 0.0
C1705 C 1.00278 0.77198 0.77441 0.0
C1706 C 0.98854 0.77832 0.78085 0.0
C1707 C 0.9781 0.78601 0.77148 0.0
C1708 C 0.96458 0.79166 0.77752 0.0
C1709 C 0.96129 0.78974 0.79304 0.0
C1710 C 0.97178 0.78224 0.80245 0.0
C1711 C 0.98532 0.77663 0.79642 0.0
H1712 H 0.27405 0.04128 0.73413 0.0
H1713 H 0.2854 0.06509 0.72454 0.0
H1714 H 0.29931 0.07688 0.7701 0.0
H1715 H 0.28811 0.05306 0.77972 0.0
H1716 H 0.28712 0.01741 0.74868 0.0
H1717 H 0.24821 0.05395 0.76003 0.0
H1718 H 0.23835 0.07759 0.77076 0.0
H1719 H 0.25219 0.06309 0.81559 0.0
H1720 H 0.26214 0.03947 0.80492 0.0
H1721 H 0.26118 0.99262 0.80412 0.0
H1722 H 0.24985 0.96874 0.8136 0.0
H1723 H 0.23636 0.95696 0.76791 0.0
H1724 H 0.2476 0.98081 0.7584 0.0
H1725 H 0.24835 0.0165 0.78961 0.0
H1726 H 0.28753 0.98082 0.77918 0.0
H1727 H 0.29866 0.95742 0.76934 0.0
H1728 H 0.28543 0.97022 0.7238 0.0
H1729 H 0.27421 0.99366 0.73362 0.0
C1730 C 0.28011 0.04543 0.75766 0.0
C1731 C 0.27955 0.04897 0.74206 0.0
C1732 C 0.28595 0.06254 0.73659 0.0
C1733 C 0.29313 0.07271 0.74663 0.0
C1734 C 0.29376 0.06918 0.76221 0.0
C1735 C 0.28733 0.05563 0.76768 0.0
C1736 C 0.27331 0.031 0.76344 0.0
C1737 C 0.27847 0.01721 0.75746 0.0
C1738 C 0.26233 0.03075 0.77522 0.0
C1739 C 0.25604 0.04496 0.78165 0.0
C1740 C 0.24919 0.05586 0.77216 0.0
C1741 C 0.24353 0.0693 0.77825 0.0
C1742 C 0.24459 0.07205 0.79393 0.0
C1743 C 0.2513 0.06115 0.80345 0.0
C1744 C 0.25691 0.04768 0.79737 0.0
C1745 C 0.25533 0.98847 0.78054 0.0
C1746 C 0.25577 0.98491 0.79614 0.0
C1747 C 0.24938 0.9713 0.80154 0.0
C1748 C 0.24232 0.96112 0.79143 0.0
C1749 C 0.24182 0.96466 0.77585 0.0
C1750 C 0.24826 0.97824 0.77045 0.0
C1751 C 0.26212 1.00292 0.77481 0.0
C1752 C 0.25696 0.0167 0.78079 0.0
C1753 C 0.27317 1.00317 0.76312 0.0
C1754 C 0.27992 0.98896 0.75715 0.0
C1755 C 0.2869 0.97857 0.76709 0.0
C1756 C 0.29328 0.96525 0.76149 0.0
C1757 C 0.29283 0.9621 0.74586 0.0
C1758 C 0.28586 0.97246 0.7359 0.0
C1759 C 0.27953 0.98582 0.74149 0.0
H1760 H 0.99333 0.27265 0.73407 0.0
H1761 H 0.96947 0.28269 0.72363 0.0
H1762 H 0.9561 0.29671 0.7685 0.0
H1763 H 0.98 0.28675 0.77899 0.0
H1764 H 0.01687 0.28592 0.74859 0.0
H1765 H 0.98045 0.24676 0.75965 0.0
H1766 H 0.95669 0.23557 0.76945 0.0
H1767 H 0.9689 0.24978 0.81478 0.0
H1768 H 0.9927 0.26108 0.805 0.0
H1769 H 0.04108 0.26092 0.80479 0.0
H1770 H 0.06465 0.2495 0.81454 0.0
H1771 H 0.07594 0.23505 0.76923 0.0
H1772 H 0.05238 0.24635 0.75946 0.0
H1773 H 0.01662 0.24798 0.79052 0.0
H1774 H 0.05443 0.28638 0.77822 0.0
H1775 H 0.07841 0.29593 0.76718 0.0
H1776 H 0.06342 0.28149 0.72275 0.0
H1777 H 0.03948 0.27185 0.73373 0.0
C1778 C 0.98844 0.27882 0.75733 0.0
C1779 C 0.98532 0.27793 0.74167 0.0
C1780 C 0.9717 0.2836 0.73572 0.0
C1781 C 0.96101 0.29036 0.74531 0.0
C1782 C 0.96417 0.29146 0.76094 0.0
C1783 C 0.97778 0.28574 0.7669 0.0
C1784 C 1.0028 0.27246 0.76364 0.0
C1785 C 0.01681 0.27752 0.75766 0.0
C1786 C 1.00274 0.26164 0.77564 0.0
C1787 C 0.98832 0.25489 0.78157 0.0
C1788 C 0.97799 0.2476 0.77168 0.0
C1789 C 0.96446 0.24118 0.77726 0.0
C1790 C 0.96106 0.24189 0.79282 0.0
C1791 C 0.97135 0.24915 0.80274 0.0
C1792 C 0.98491 0.25553 0.79717 0.0
C1793 C 0.045 0.25462 0.78137 0.0
C1794 C 0.04861 0.25529 0.79695 0.0
C1795 C 0.06205 0.24884 0.8025 0.0
C1796 C 0.07203 0.24148 0.79259 0.0
C1797 C 0.06841 0.24074 0.77704 0.0
C1798 C 0.05501 0.24722 0.77148 0.0
C1799 C 0.03069 0.26146 0.77548 0.0
C1800 C 0.01668 0.25647 0.78153 0.0
C1801 C 0.03075 0.27222 0.76343 0.0
C1802 C 0.04518 0.27829 0.75682 0.0
C1803 C 0.05631 0.2852 0.76611 0.0
C1804 C 0.06994 0.29069 0.75984 0.0
C1805 C 0.07264 0.28936 0.74418 0.0
C1806 C 0.06152 0.28258 0.73486 0.0
C1807 C 0.04787 0.27714 0.74112 0.0
H1808 H 0.73072 0.03928 0.76364 0.0
H1809 H 0.71984 0.06303 0.75394 0.0
H1810 H 0.76452 0.07829 0.74008 0.0
H1811 H 0.77544 0.05451 0.74967 0.0
H1812 H 0.74567 0.01676 0.74999 0.0
H1813 H 0.75624 0.05216 0.78972 0.0
H1814 H 0.76568 0.07582 0.80119 0.0
H1815 H 0.81122 0.06551 0.78665 0.0
H1816 H 0.8018 0.04185 0.77505 0.0
H1817 H 0.80278 0.99432 0.77333 0.0
H1818 H 0.8136 0.97051 0.78297 0.0
H1819 H 0.76912 0.95596 0.79814 0.0
H1820 H 0.75826 0.97979 0.7886 0.0
H1821 H 0.78793 0.01716 0.78762 0.0
H1822 H 0.77626 0.98059 0.74836 0.0
H1823 H 0.76579 0.95657 0.73851 0.0
H1824 H 0.72104 0.96914 0.75362 0.0
H1825 H 0.73147 0.99308 0.76362 0.0
C1826 C 0.75392 0.04513 0.75752 0.0
C1827 C 0.73818 0.04769 0.75847 0.0
C1828 C 0.73199 0.06123 0.75299 0.0
C1829 C 0.7414 0.07242 0.74637 0.0
C1830 C 0.7571 0.06982 0.74522 0.0
C1831 C 0.76331 0.05629 0.75073 0.0
C1832 C 0.76051 0.03083 0.76365 0.0
C1833 C 0.75479 0.01684 0.75834 0.0
C1834 C 0.77257 0.03093 0.77441 0.0
C1835 C 0.77829 0.04527 0.78139 0.0
C1836 C 0.76824 0.05502 0.78887 0.0
C1837 C 0.7736 0.06849 0.79545 0.0
C1838 C 0.78912 0.0724 0.79472 0.0
C1839 C 0.7992 0.06268 0.78729 0.0
C1840 C 0.79384 0.04918 0.78074 0.0
C1841 C 0.77968 0.98881 0.7801 0.0
C1842 C 0.79535 0.98605 0.77878 0.0
C1843 C 0.80151 0.97248 0.78423 0.0
C1844 C 0.79213 0.96147 0.79118 0.0
C1845 C 0.77651 0.96428 0.79273 0.0
C1846 C 0.77034 0.97785 0.78726 0.0
C1847 C 0.77312 1.0031 0.77392 0.0
C1848 C 0.77885 0.01708 0.77922 0.0
C1849 C 0.76097 1.00298 0.76326 0.0
C1850 C 0.75467 0.9886 0.75687 0.0
C1851 C 0.76421 0.97816 0.74963 0.0
C1852 C 0.75826 0.9645 0.74398 0.0
C1853 C 0.74267 0.96109 0.74542 0.0
C1854 C 0.73311 0.97157 0.75246 0.0
C1855 C 0.73905 0.98523 0.75809 0.0
H1856 H 0.30281 0.77395 0.4951 0.0
H1857 H 0.31238 0.78533 0.47132 0.0
H1858 H 0.26668 0.798 0.45896 0.0
H1859 H 0.25709 0.78673 0.48272 0.0
H1860 H 0.28788 0.78671 0.51896 0.0
H1861 H 0.27728 0.74748 0.48203 0.0
H1862 H 0.26678 0.73737 0.45813 0.0
H1863 H 0.22168 0.75 0.47211 0.0
H1864 H 0.23213 0.76018 0.49598 0.0
H1865 H 0.23237 0.75878 0.54231 0.0
H1866 H 0.22255 0.74739 0.56596 0.0
H1867 H 0.26833 0.73665 0.57985 0.0
H1868 H 0.27819 0.74784 0.55615 0.0
H1869 H 0.24748 0.74689 0.51914 0.0
H1870 H 0.25706 0.78607 0.5554 0.0
H1871 H 0.26665 0.7976 0.57899 0.0
H1872 H 0.31257 0.78661 0.56631 0.0
H1873 H 0.30302 0.77489 0.54274 0.0
C1874 C 0.27921 0.77937 0.49067 0.0
C1875 C 0.29484 0.77919 0.48729 0.0
C1876 C 0.30029 0.78561 0.47373 0.0
C1877 C 0.29022 0.79246 0.46339 0.0
C1878 C 0.27461 0.79272 0.46677 0.0
C1879 C 0.26916 0.78626 0.4803 0.0
C1880 C 0.27343 0.77247 0.50507 0.0
C1881 C 0.27922 0.77783 0.51901 0.0
C1882 C 0.2618 0.76119 0.50512 0.0
C1883 C 0.25551 0.75472 0.49077 0.0
C1884 C 0.26514 0.74814 0.47995 0.0
C1885 C 0.25917 0.74234 0.46634 0.0
C1886 C 0.24347 0.74302 0.46335 0.0
C1887 C 0.23382 0.74942 0.47421 0.0
C1888 C 0.23978 0.75517 0.48783 0.0
C1889 C 0.25604 0.75429 0.54746 0.0
C1890 C 0.24031 0.75396 0.55041 0.0
C1891 C 0.23471 0.74753 0.56391 0.0
C1892 C 0.24473 0.74124 0.57464 0.0
C1893 C 0.26044 0.74151 0.57172 0.0
C1894 C 0.26604 0.74794 0.55823 0.0
C1895 C 0.26196 0.7611 0.53306 0.0
C1896 C 0.25619 0.75573 0.51911 0.0
C1897 C 0.27352 0.77247 0.53301 0.0
C1898 C 0.2793 0.77946 0.54734 0.0
C1899 C 0.26918 0.78599 0.55773 0.0
C1900 C 0.27463 0.79261 0.57115 0.0
C1901 C 0.2903 0.79291 0.57438 0.0
C1902 C 0.30044 0.78645 0.56401 0.0
C1903 C 0.295 0.77983 0.55057 0.0
H1904 H 0.77054 0.73208 0.49475 0.0
H1905 H 0.78166 0.72208 0.47125 0.0
H1906 H 0.79826 0.76686 0.45958 0.0
H1907 H 0.78728 0.77687 0.48307 0.0
H1908 H 0.78397 0.74582 0.51905 0.0
H1909 H 0.7457 0.75894 0.48201 0.0
H1910 H 0.73636 0.76973 0.45791 0.0
H1911 H 0.7538 0.81372 0.47092 0.0
H1912 H 0.76315 0.80299 0.49504 0.0
H1913 H 0.76236 0.80285 0.54204 0.0
H1914 H 0.75273 0.81353 0.56585 0.0
H1915 H 0.73558 0.76941 0.57916 0.0
H1916 H 0.7451 0.75869 0.5553 0.0
H1917 H 0.7481 0.78894 0.51847 0.0
H1918 H 0.78633 0.77585 0.55553 0.0
H1919 H 0.79574 0.76507 0.5796 0.0
H1920 H 0.7787 0.72096 0.56645 0.0
H1921 H 0.76917 0.73171 0.54242 0.0
C1922 C 0.77796 0.75525 0.49063 0.0
C1923 C 0.77658 0.73975 0.48715 0.0
C1924 C 0.78285 0.73405 0.47375 0.0
C1925 C 0.79073 0.74375 0.4637 0.0
C1926 C 0.79217 0.75922 0.46717 0.0
C1927 C 0.78587 0.76492 0.48054 0.0
C1928 C 0.77134 0.76131 0.50489 0.0
C1929 C 0.77595 0.75509 0.51891 0.0
C1930 C 0.76112 0.77363 0.50475 0.0
C1931 C 0.75521 0.78015 0.49029 0.0
C1932 C 0.74756 0.77089 0.47967 0.0
C1933 C 0.74221 0.77702 0.46597 0.0
C1934 C 0.74446 0.79248 0.46268 0.0
C1935 C 0.75201 0.80176 0.47329 0.0
C1936 C 0.75727 0.79566 0.48703 0.0
C1937 C 0.75458 0.77994 0.54692 0.0
C1938 C 0.75647 0.79547 0.55003 0.0
C1939 C 0.75104 0.80155 0.56361 0.0
C1940 C 0.74353 0.79223 0.57426 0.0
C1941 C 0.74142 0.77675 0.5711 0.0
C1942 C 0.74688 0.77066 0.55753 0.0
C1943 C 0.76075 0.77347 0.53264 0.0
C1944 C 0.75607 0.77962 0.51861 0.0
C1945 C 0.77092 0.7611 0.53278 0.0
C1946 C 0.7769 0.7546 0.54723 0.0
C1947 C 0.78453 0.76387 0.55785 0.0
C1948 C 0.78993 0.75775 0.57154 0.0
C1949 C 0.78783 0.74226 0.57478 0.0
C1950 C 0.78037 0.73295 0.56413 0.0
C1951 C 0.775 0.73907 0.55044 0.0
H1952 H 0.77127 0.30255 0.5422 0.0
H1953 H 0.78095 0.31355 0.56604 0.0
H1954 H 0.79745 0.26973 0.57997 0.0
H1955 H 0.78788 0.25867 0.5561 0.0
H1956 H 0.78569 0.28866 0.51903 0.0
H1957 H 0.74702 0.27527 0.55558 0.0
H1958 H 0.73704 0.2644 0.5794 0.0
H1959 H 0.75326 0.22035 0.56645 0.0
H1960 H 0.76337 0.23119 0.54267 0.0
H1961 H 0.76282 0.23143 0.49508 0.0
H1962 H 0.75173 0.22116 0.47149 0.0
H1963 H 0.7358 0.26571 0.45929 0.0
H1964 H 0.7468 0.276 0.48285 0.0
H1965 H 0.74934 0.24514 0.51904 0.0
H1966 H 0.78759 0.2585 0.4822 0.0
H1967 H 0.79731 0.26939 0.45829 0.0
H1968 H 0.78168 0.31352 0.47171 0.0
H1969 H 0.77186 0.30267 0.49559 0.0
C1970 C 0.77873 0.27976 0.54738 0.0
C1971 C 0.77702 0.2953 0.55034 0.0
C1972 C 0.78248 0.30157 0.56393 0.0
C1973 C 0.78986 0.29243 0.57473 0.0
C1974 C 0.79175 0.27693 0.57177 0.0
C1975 C 0.78624 0.27065 0.55819 0.0
C1976 C 0.77267 0.27312 0.533 0.0
C1977 C 0.7776 0.27926 0.51903 0.0
C1978 C 0.76237 0.26061 0.53301 0.0
C1979 C 0.7561 0.25407 0.54738 0.0
C1980 C 0.74854 0.26329 0.55789 0.0
C1981 C 0.7428 0.25711 0.57144 0.0
C1982 C 0.74448 0.2416 0.57469 0.0
C1983 C 0.75189 0.23235 0.56415 0.0
C1984 C 0.7576 0.23852 0.55059 0.0
C1985 C 0.75576 0.25451 0.49071 0.0
C1986 C 0.75695 0.239 0.48734 0.0
C1987 C 0.75069 0.23315 0.47388 0.0
C1988 C 0.74299 0.2427 0.46366 0.0
C1989 C 0.74176 0.25819 0.46701 0.0
C1990 C 0.74806 0.26404 0.48042 0.0
C1991 C 0.76232 0.26071 0.50507 0.0
C1992 C 0.75747 0.2545 0.51904 0.0
C1993 C 0.77269 0.27315 0.50506 0.0
C1994 C 0.77886 0.27974 0.49066 0.0
C1995 C 0.78617 0.2705 0.47999 0.0
C1996 C 0.79175 0.2767 0.46638 0.0
C1997 C 0.79015 0.29224 0.46323 0.0
C1998 C 0.78299 0.3015 0.47393 0.0
C1999 C 0.77745 0.29532 0.48756 0.0
H2000 H 0.27198 0.23185 0.49458 0.0
H2001 H 0.28336 0.22212 0.47109 0.0
H2002 H 0.29911 0.26723 0.45954 0.0
H2003 H 0.28787 0.27698 0.48303 0.0
H2004 H 0.28491 0.24572 0.51893 0.0
H2005 H 0.24692 0.25837 0.48154 0.0
H2006 H 0.23751 0.26918 0.45747 0.0
H2007 H 0.25354 0.31347 0.47116 0.0
H2008 H 0.263 0.30272 0.49523 0.0
H2009 H 0.26206 0.30237 0.54178 0.0
H2010 H 0.25212 0.31294 0.56551 0.0
H2011 H 0.23611 0.26849 0.57909 0.0
H2012 H 0.24587 0.25789 0.55528 0.0
H2013 H 0.24835 0.28825 0.51833 0.0
H2014 H 0.28654 0.27552 0.55565 0.0
H2015 H 0.29597 0.26469 0.57969 0.0
H2016 H 0.27973 0.22044 0.56605 0.0
H2017 H 0.27018 0.23124 0.54206 0.0
C2018 C 0.27895 0.25517 0.49052 0.0
C2019 C 0.27789 0.23965 0.48701 0.0
C2020 C 0.28432 0.23411 0.47362 0.0
C2021 C 0.29202 0.24397 0.4636 0.0
C2022 C 0.29315 0.25946 0.46711 0.0
C2023 C 0.2867 0.26501 0.48047 0.0
C2024 C 0.27213 0.26107 0.50477 0.0
C2025 C 0.27674 0.25486 0.51879 0.0
C2026 C 0.2617 0.27322 0.50461 0.0
C2027 C 0.25577 0.27972 0.49015 0.0
C2028 C 0.24847 0.27039 0.47935 0.0
C2029 C 0.24308 0.27653 0.46567 0.0
C2030 C 0.2449 0.29208 0.46259 0.0
C2031 C 0.25208 0.30144 0.47337 0.0
C2032 C 0.25741 0.29532 0.48709 0.0
C2033 C 0.25485 0.27931 0.54679 0.0
C2034 C 0.25635 0.29489 0.54981 0.0
C2035 C 0.25074 0.30092 0.56335 0.0
C2036 C 0.24347 0.29147 0.57405 0.0
C2037 C 0.24176 0.27593 0.57099 0.0
C2038 C 0.24737 0.2699 0.55744 0.0
C2039 C 0.26117 0.27293 0.53251 0.0
C2040 C 0.25648 0.27906 0.51848 0.0
C2041 C 0.27153 0.26071 0.53266 0.0
C2042 C 0.27751 0.25421 0.54711 0.0
C2043 C 0.28492 0.2635 0.55786 0.0
C2044 C 0.29033 0.25735 0.57153 0.0
C2045 C 0.28846 0.2418 0.57463 0.0
C2046 C 0.28122 0.23247 0.56385 0.0
C2047 C 0.27583 0.23862 0.55018 0.0
H2048 H 0.75708 0.53879 0.80484 0.0
H2049 H 0.74399 0.56052 0.8147 0.0
H2050 H 0.73693 0.57664 0.76869 0.0
H2051 H 0.74908 0.55456 0.75911 0.0
H2052 H 0.7467 0.51591 0.78886 0.0
H2053 H 0.78589 0.55366 0.78095 0.0
H2054 H 0.79726 0.57761 0.77174 0.0
H2055 H 0.78613 0.56527 0.7256 0.0
H2056 H 0.7747 0.54132 0.73474 0.0
H2057 H 0.7748 0.49426 0.73394 0.0
H2058 H 0.78614 0.4709 0.72407 0.0
H2059 H 0.79849 0.45756 0.7697 0.0
H2060 H 0.78721 0.48087 0.77959 0.0
H2061 H 0.7873 0.51793 0.74981 0.0
H2062 H 0.7479 0.48048 0.75783 0.0
H2063 H 0.73671 0.45645 0.76695 0.0
H2064 H 0.7486 0.46832 0.81304 0.0
H2065 H 0.75988 0.49236 0.80396 0.0
C2066 C 0.75359 0.54457 0.78118 0.0
C2067 C 0.75206 0.54673 0.79687 0.0
C2068 C 0.74411 0.55916 0.8025 0.0
C2069 C 0.73667 0.56956 0.79267 0.0
C2070 C 0.73995 0.56816 0.77696 0.0
C2071 C 0.74774 0.55562 0.7713 0.0
C2072 C 0.761 0.53064 0.77524 0.0
C2073 C 0.75576 0.51641 0.78051 0.0
C2074 C 0.77257 0.53117 0.76401 0.0
C2075 C 0.77934 0.54574 0.75854 0.0
C2076 C 0.78578 0.55614 0.76886 0.0
C2077 C 0.79229 0.56975 0.76364 0.0
C2078 C 0.79246 0.57315 0.74803 0.0
C2079 C 0.78605 0.56281 0.73769 0.0
C2080 C 0.7796 0.54916 0.7429 0.0
C2081 C 0.78006 0.48929 0.75752 0.0
C2082 C 0.77998 0.48633 0.74182 0.0
C2083 C 0.78638 0.47301 0.7362 0.0
C2084 C 0.7931 0.46251 0.74617 0.0
C2085 C 0.7933 0.4655 0.76184 0.0
C2086 C 0.78685 0.47877 0.76747 0.0
C2087 C 0.77301 0.50333 0.76351 0.0
C2088 C 0.77829 0.51752 0.75822 0.0
C2089 C 0.76151 0.50279 0.77475 0.0
C2090 C 0.75483 0.48818 0.7802 0.0
C2091 C 0.74823 0.47788 0.76988 0.0
C2092 C 0.74183 0.4642 0.77506 0.0
C2093 C 0.74188 0.46064 0.79064 0.0
C2094 C 0.74849 0.47089 0.80097 0.0
C2095 C 0.75485 0.48459 0.7958 0.0
H2096 H 0.30181 0.54218 0.77457 0.0
H2097 H 0.31123 0.56593 0.78599 0.0
H2098 H 0.26577 0.57609 0.8009 0.0
H2099 H 0.25634 0.55235 0.78959 0.0
H2100 H 0.28799 0.51743 0.78746 0.0
H2101 H 0.27536 0.55466 0.74931 0.0
H2102 H 0.26436 0.57843 0.73978 0.0
H2103 H 0.21981 0.56319 0.75406 0.0
H2104 H 0.23076 0.53944 0.76368 0.0
H2105 H 0.23158 0.49318 0.76332 0.0
H2106 H 0.22128 0.46921 0.75325 0.0
H2107 H 0.26614 0.45678 0.73836 0.0
H2108 H 0.27649 0.48082 0.74829 0.0
H2109 H 0.24573 0.5169 0.74981 0.0
H2110 H 0.25822 0.48014 0.78855 0.0
H2111 H 0.26898 0.45633 0.79826 0.0
H2112 H 0.31355 0.47066 0.78314 0.0
H2113 H 0.30283 0.49445 0.77333 0.0
C2114 C 0.27835 0.54552 0.78111 0.0
C2115 C 0.29387 0.5495 0.78031 0.0
C2116 C 0.29923 0.56305 0.78675 0.0
C2117 C 0.28917 0.57275 0.79424 0.0
C2118 C 0.27368 0.56877 0.79512 0.0
C2119 C 0.26832 0.55526 0.78863 0.0
C2120 C 0.27263 0.53115 0.7742 0.0
C2121 C 0.27891 0.51732 0.77906 0.0
C2122 C 0.26055 0.53101 0.76346 0.0
C2123 C 0.25391 0.54529 0.75735 0.0
C2124 C 0.26323 0.55644 0.75047 0.0
C2125 C 0.25698 0.56997 0.745 0.0
C2126 C 0.2413 0.57257 0.74629 0.0
C2127 C 0.23194 0.56139 0.753 0.0
C2128 C 0.23818 0.54784 0.75843 0.0
C2129 C 0.25483 0.48876 0.75669 0.0
C2130 C 0.23921 0.48535 0.75783 0.0
C2131 C 0.23334 0.47168 0.75215 0.0
C2132 C 0.24297 0.46123 0.74516 0.0
C2133 C 0.25856 0.46469 0.7438 0.0
C2134 C 0.26444 0.47836 0.7495 0.0
C2135 C 0.26106 0.50317 0.7631 0.0
C2136 C 0.25486 0.51701 0.75816 0.0
C2137 C 0.27318 0.50332 0.77379 0.0
C2138 C 0.27969 0.48904 0.78006 0.0
C2139 C 0.2703 0.47815 0.78725 0.0
C2140 C 0.27642 0.4646 0.79283 0.0
C2141 C 0.29203 0.46172 0.79134 0.0
C2142 C 0.30146 0.47266 0.78435 0.0
C2143 C 0.29536 0.48623 0.77881 0.0
H2144 H 0.27227 0.54143 0.23381 0.0
H2145 H 0.28319 0.56547 0.22429 0.0
H2146 H 0.29737 0.57712 0.26981 0.0
H2147 H 0.28662 0.55306 0.27935 0.0
H2148 H 0.28575 0.51758 0.24814 0.0
H2149 H 0.24643 0.55359 0.25995 0.0
H2150 H 0.23657 0.57717 0.27082 0.0
H2151 H 0.25121 0.5628 0.31544 0.0
H2152 H 0.26115 0.53924 0.30462 0.0
H2153 H 0.26035 0.49237 0.30369 0.0
H2154 H 0.24913 0.46846 0.31319 0.0
H2155 H 0.23557 0.45664 0.26753 0.0
H2156 H 0.24671 0.48053 0.258 0.0
H2157 H 0.24729 0.51612 0.28935 0.0
H2158 H 0.28668 0.48081 0.27849 0.0
H2159 H 0.29815 0.45767 0.26845 0.0
H2160 H 0.28466 0.47063 0.22303 0.0
H2161 H 0.27311 0.49381 0.23305 0.0
C2162 C 0.27851 0.54549 0.25731 0.0
C2163 C 0.27775 0.54914 0.24174 0.0
C2164 C 0.2839 0.56284 0.23632 0.0
C2165 C 0.29102 0.57304 0.24637 0.0
C2166 C 0.29186 0.5694 0.26191 0.0
C2167 C 0.28569 0.55571 0.26733 0.0
C2168 C 0.27191 0.53096 0.26306 0.0
C2169 C 0.27717 0.51725 0.25698 0.0
C2170 C 0.26102 0.53055 0.27491 0.0
C2171 C 0.25465 0.54467 0.28146 0.0
C2172 C 0.24757 0.55551 0.27206 0.0
C2173 C 0.24191 0.56892 0.27824 0.0
C2174 C 0.24322 0.57169 0.2939 0.0
C2175 C 0.25013 0.56084 0.30332 0.0
C2176 C 0.25574 0.5474 0.29716 0.0
C2177 C 0.25446 0.4882 0.28012 0.0
C2178 C 0.25497 0.48464 0.29572 0.0
C2179 C 0.24864 0.47101 0.30113 0.0
C2180 C 0.24157 0.46082 0.29103 0.0
C2181 C 0.24104 0.46435 0.27546 0.0
C2182 C 0.24741 0.47795 0.27004 0.0
C2183 C 0.26109 0.50273 0.27439 0.0
C2184 C 0.25584 0.51644 0.28047 0.0
C2185 C 0.27206 0.50313 0.26262 0.0
C2186 C 0.27891 0.48902 0.25654 0.0
C2187 C 0.28606 0.47864 0.26639 0.0
C2188 C 0.29263 0.46547 0.26067 0.0
C2189 C 0.29222 0.46244 0.24501 0.0
C2190 C 0.28507 0.47277 0.23515 0.0
C2191 C 0.27855 0.48599 0.24086 0.0
H2192 H 0.73048 0.53929 0.2632 0.0
H2193 H 0.71952 0.56296 0.2534 0.0
H2194 H 0.76408 0.57811 0.23905 0.0
H2195 H 0.77508 0.55441 0.24875 0.0
H2196 H 0.74539 0.51666 0.24955 0.0
H2197 H 0.75612 0.55241 0.28897 0.0
H2198 H 0.76561 0.5762 0.30014 0.0
H2199 H 0.81106 0.5658 0.28537 0.0
H2200 H 0.80159 0.54201 0.27408 0.0
H2201 H 0.80264 0.49456 0.27323 0.0
H2202 H 0.8135 0.47088 0.28314 0.0
H2203 H 0.76895 0.45617 0.29793 0.0
H2204 H 0.75806 0.4799 0.28819 0.0
H2205 H 0.78778 0.51742 0.28705 0.0
H2206 H 0.77606 0.48064 0.24797 0.0
H2207 H 0.76563 0.45657 0.23821 0.0
H2208 H 0.72093 0.46897 0.25359 0.0
H2209 H 0.73131 0.49298 0.26346 0.0
C2210 C 0.75363 0.5451 0.25684 0.0
C2211 C 0.7379 0.54766 0.25789 0.0
C2212 C 0.73166 0.56116 0.25236 0.0
C2213 C 0.74101 0.57229 0.24558 0.0
C2214 C 0.7567 0.56969 0.24432 0.0
C2215 C 0.76295 0.5562 0.24989 0.0
C2216 C 0.76026 0.53085 0.26305 0.0
C2217 C 0.75455 0.51682 0.25787 0.0
C2218 C 0.77237 0.53106 0.27376 0.0
C2219 C 0.77812 0.54547 0.28056 0.0
C2220 C 0.76811 0.55528 0.28801 0.0
C2221 C 0.77351 0.56882 0.29441 0.0
C2222 C 0.78901 0.57275 0.29353 0.0
C2223 C 0.79905 0.56296 0.28613 0.0
C2224 C 0.79366 0.54939 0.27976 0.0
C2225 C 0.77951 0.48898 0.27981 0.0
C2226 C 0.79521 0.48629 0.27866 0.0
C2227 C 0.80139 0.47279 0.28426 0.0
C2228 C 0.792 0.46177 0.29118 0.0
C2229 C 0.77635 0.4645 0.29255 0.0
C2230 C 0.77016 0.47801 0.28695 0.0
C2231 C 0.77293 0.50322 0.27351 0.0
C2232 C 0.77867 0.51725 0.27868 0.0
C2233 C 0.76076 0.50301 0.26288 0.0
C2234 C 0.75449 0.48858 0.25658 0.0
C2235 C 0.76403 0.47817 0.24932 0.0
C2236 C 0.7581 0.46447 0.24372 0.0
C2237 C 0.74254 0.461 0.24526 0.0
C2238 C 0.73297 0.47145 0.25234 0.0
C2239 C 0.73889 0.48515 0.25791 0.0
H2240 H 0.54009 0.26228 0.733 0.0
H2241 H 0.56379 0.25233 0.72237 0.0
H2242 H 0.57695 0.23604 0.7668 0.0
H2243 H 0.55319 0.24585 0.77746 0.0
H2244 H 0.51635 0.24864 0.74702 0.0
H2245 H 0.5538 0.2866 0.76 0.0
H2246 H 0.57806 0.29591 0.77066 0.0
H2247 H 0.56476 0.27947 0.815 0.0
H2248 H 0.54055 0.27003 0.80437 0.0
H2249 H 0.4935 0.27056 0.80439 0.0
H2250 H 0.46987 0.28055 0.81516 0.0
H2251 H 0.45671 0.29725 0.77089 0.0
H2252 H 0.48038 0.28739 0.76008 0.0
H2253 H 0.51725 0.28445 0.79038 0.0
H2254 H 0.47943 0.24675 0.77709 0.0
H2255 H 0.45535 0.23741 0.76605 0.0
H2256 H 0.46945 0.25358 0.72186 0.0
H2257 H 0.49346 0.26309 0.73287 0.0
C2258 C 0.54489 0.25495 0.75607 0.0
C2259 C 0.54802 0.25651 0.74046 0.0
C2260 C 0.56154 0.2509 0.7344 0.0
C2261 C 0.57213 0.24354 0.74382 0.0
C2262 C 0.56895 0.24176 0.75937 0.0
C2263 C 0.55543 0.2474 0.76544 0.0
C2264 C 0.53064 0.26126 0.76252 0.0
C2265 C 0.51655 0.25662 0.75637 0.0
C2266 C 0.53088 0.27148 0.77491 0.0
C2267 C 0.54541 0.27748 0.78136 0.0
C2268 C 0.55612 0.28492 0.772 0.0
C2269 C 0.56992 0.29026 0.77805 0.0
C2270 C 0.57318 0.28829 0.79357 0.0
C2271 C 0.56243 0.28103 0.80298 0.0
C2272 C 0.54863 0.27571 0.79694 0.0
C2273 C 0.48869 0.2781 0.7814 0.0
C2274 C 0.48558 0.27642 0.79699 0.0
C2275 C 0.47211 0.28206 0.80313 0.0
C2276 C 0.46157 0.28959 0.7938 0.0
C2277 C 0.4647 0.29144 0.77825 0.0
C2278 C 0.47817 0.28577 0.7721 0.0
C2279 C 0.50294 0.27182 0.77488 0.0
C2280 C 0.51704 0.27647 0.78102 0.0
C2281 C 0.5027 0.26166 0.76244 0.0
C2282 C 0.4882 0.25577 0.75583 0.0
C2283 C 0.47732 0.24839 0.76505 0.0
C2284 C 0.46363 0.24302 0.75877 0.0
C2285 C 0.46066 0.24488 0.74318 0.0
C2286 C 0.47156 0.25209 0.73393 0.0
C2287 C 0.48525 0.25746 0.74019 0.0
H2288 H 0.5388 0.73157 0.77493 0.0
H2289 H 0.56257 0.72067 0.78469 0.0
H2290 H 0.57809 0.76518 0.79826 0.0
H2291 H 0.55426 0.77613 0.78865 0.0
H2292 H 0.51624 0.74646 0.78833 0.0
H2293 H 0.55211 0.7571 0.74874 0.0
H2294 H 0.57587 0.76662 0.73735 0.0
H2295 H 0.56526 0.81192 0.75187 0.0
H2296 H 0.54147 0.80241 0.76337 0.0
H2297 H 0.49292 0.80282 0.7637 0.0
H2298 H 0.46934 0.81277 0.75242 0.0
H2299 H 0.45687 0.76778 0.73752 0.0
H2300 H 0.48042 0.75781 0.74871 0.0
H2301 H 0.51687 0.78833 0.75035 0.0
H2302 H 0.47962 0.77663 0.7891 0.0
H2303 H 0.45543 0.76605 0.79865 0.0
H2304 H 0.46865 0.7215 0.78401 0.0
H2305 H 0.49281 0.73203 0.77439 0.0
C2306 C 0.54477 0.75469 0.78092 0.0
C2307 C 0.54726 0.739 0.78007 0.0
C2308 C 0.56082 0.73279 0.78557 0.0
C2309 C 0.57208 0.74214 0.79211 0.0
C2310 C 0.56955 0.7578 0.79317 0.0
C2311 C 0.55599 0.76402 0.78765 0.0
C2312 C 0.53045 0.76127 0.77472 0.0
C2313 C 0.51638 0.75552 0.77992 0.0
C2314 C 0.53062 0.77326 0.76391 0.0
C2315 C 0.54505 0.77902 0.75704 0.0
C2316 C 0.55493 0.76906 0.7496 0.0
C2317 C 0.56845 0.77448 0.74307 0.0
C2318 C 0.57231 0.78995 0.74381 0.0
C2319 C 0.56247 0.79994 0.75122 0.0
C2320 C 0.54891 0.79452 0.75771 0.0
C2321 C 0.48839 0.77955 0.75717 0.0
C2322 C 0.48512 0.79509 0.75801 0.0
C2323 C 0.47168 0.80076 0.75163 0.0
C2324 C 0.46138 0.79099 0.74418 0.0
C2325 C 0.46465 0.77547 0.74328 0.0
C2326 C 0.47806 0.7698 0.74969 0.0
C2327 C 0.50268 0.77351 0.76395 0.0
C2328 C 0.51674 0.77936 0.75885 0.0
C2329 C 0.5025 0.7615 0.77474 0.0
C2330 C 0.488 0.75514 0.78091 0.0
C2331 C 0.47731 0.76459 0.78788 0.0
C2332 C 0.46354 0.75858 0.79335 0.0
C2333 C 0.46026 0.74302 0.79195 0.0
C2334 C 0.47098 0.73354 0.78515 0.0
C2335 C 0.48476 0.73954 0.77973 0.0
H2336 H 0.53936 0.762 0.23336 0.0
H2337 H 0.56304 0.75196 0.22279 0.0
H2338 H 0.57618 0.73591 0.26731 0.0
H2339 H 0.55245 0.74583 0.27792 0.0
H2340 H 0.51559 0.7484 0.24754 0.0
H2341 H 0.55322 0.78641 0.26015 0.0
H2342 H 0.57748 0.79574 0.2708 0.0
H2343 H 0.56397 0.77982 0.31527 0.0
H2344 H 0.53977 0.77034 0.30465 0.0
H2345 H 0.49274 0.77101 0.30461 0.0
H2346 H 0.46903 0.78104 0.31515 0.0
H2347 H 0.45607 0.79731 0.27066 0.0
H2348 H 0.47982 0.7874 0.26008 0.0
H2349 H 0.51659 0.78473 0.29047 0.0
H2350 H 0.47898 0.74666 0.27779 0.0
H2351 H 0.45477 0.73728 0.26708 0.0
H2352 H 0.46828 0.75339 0.22268 0.0
H2353 H 0.49244 0.7629 0.23335 0.0
C2354 C 0.54416 0.75481 0.25647 0.0
C2355 C 0.54728 0.75627 0.24086 0.0
C2356 C 0.5608 0.7506 0.23483 0.0
C2357 C 0.57137 0.74328 0.24429 0.0
C2358 C 0.56819 0.7416 0.25985 0.0
C2359 C 0.55469 0.7473 0.26589 0.0
C2360 C 0.52993 0.76119 0.26288 0.0
C2361 C 0.51583 0.75649 0.2568 0.0
C2362 C 0.53019 0.77153 0.27516 0.0
C2363 C 0.54473 0.77754 0.28159 0.0
C2364 C 0.5555 0.78484 0.27218 0.0
C2365 C 0.56929 0.7902 0.27823 0.0
C2366 C 0.57249 0.78838 0.29378 0.0
C2367 C 0.56169 0.78126 0.30323 0.0
C2368 C 0.54789 0.77592 0.29719 0.0
C2369 C 0.48802 0.77832 0.28152 0.0
C2370 C 0.48485 0.77679 0.29712 0.0
C2371 C 0.47132 0.78245 0.30312 0.0
C2372 C 0.46079 0.78983 0.29366 0.0
C2373 C 0.46403 0.79158 0.27811 0.0
C2374 C 0.47754 0.78589 0.2721 0.0
C2375 C 0.50226 0.77194 0.27513 0.0
C2376 C 0.51637 0.77664 0.28121 0.0
C2377 C 0.502 0.76161 0.26283 0.0
C2378 C 0.48747 0.75562 0.25639 0.0
C2379 C 0.47671 0.74826 0.26576 0.0
C2380 C 0.46294 0.74288 0.25968 0.0
C2381 C 0.45976 0.74473 0.24413 0.0
C2382 C 0.47055 0.75192 0.23472 0.0
C2383 C 0.48432 0.75728 0.24079 0.0
H2384 H 0.53884 0.23107 0.27434 0.0
H2385 H 0.56249 0.22013 0.28437 0.0
H2386 H 0.57753 0.26449 0.29888 0.0
H2387 H 0.55385 0.27549 0.28893 0.0
H2388 H 0.51588 0.24606 0.2876 0.0
H2389 H 0.55291 0.2564 0.2491 0.0
H2390 H 0.57676 0.26593 0.23792 0.0
H2391 H 0.5654 0.31142 0.2512 0.0
H2392 H 0.54157 0.30191 0.26258 0.0
H2393 H 0.49335 0.30229 0.26144 0.0
H2394 H 0.47185 0.3124 0.24782 0.0
H2395 H 0.45857 0.26704 0.2346 0.0
H2396 H 0.4802 0.25712 0.2481 0.0
H2397 H 0.51755 0.28766 0.24939 0.0
H2398 H 0.47875 0.27623 0.28649 0.0
H2399 H 0.45477 0.26543 0.29633 0.0
H2400 H 0.46945 0.22062 0.28413 0.0
H2401 H 0.49335 0.23135 0.27416 0.0
C2402 C 0.54458 0.25413 0.28078 0.0
C2403 C 0.54716 0.23845 0.27975 0.0
C2404 C 0.56065 0.23222 0.28541 0.0
C2405 C 0.57172 0.24153 0.2923 0.0
C2406 C 0.56911 0.25715 0.29356 0.0
C2407 C 0.55564 0.2634 0.28785 0.0
C2408 C 0.53043 0.26076 0.27426 0.0
C2409 C 0.51622 0.25507 0.27914 0.0
C2410 C 0.5309 0.2727 0.26341 0.0
C2411 C 0.54549 0.27841 0.25684 0.0
C2412 C 0.5556 0.2684 0.24979 0.0
C2413 C 0.56917 0.27382 0.24336 0.0
C2414 C 0.57282 0.28936 0.24377 0.0
C2415 C 0.56277 0.29939 0.2508 0.0
C2416 C 0.54918 0.29397 0.25724 0.0
C2417 C 0.48897 0.27899 0.25519 0.0
C2418 C 0.48612 0.29459 0.25501 0.0
C2419 C 0.47394 0.30045 0.24658 0.0
C2420 C 0.4648 0.29105 0.2371 0.0
C2421 C 0.46653 0.27519 0.23927 0.0
C2422 C 0.4787 0.26929 0.24768 0.0
C2423 C 0.50293 0.27298 0.26271 0.0
C2424 C 0.51716 0.27877 0.25798 0.0
C2425 C 0.50245 0.26101 0.27355 0.0
C2426 C 0.48783 0.25462 0.27945 0.0
C2427 C 0.47677 0.2641 0.2858 0.0
C2428 C 0.46314 0.25796 0.29147 0.0
C2429 C 0.46036 0.24225 0.29091 0.0
C2430 C 0.4714 0.23277 0.28464 0.0
C2431 C 0.48503 0.2389 0.279 0.0
C2432 C 0.24476 0.20905 0.10702 0.0
C2433 C 0.23723 0.21752 0.1184 0.0
C2434 C 0.24087 0.24043 0.1027 0.0
C2435 C 0.24472 0.23122 0.09012 0.0
N2436 N 0.25031 0.20637 0.08028 0.0
N2437 N 0.24146 0.24187 0.13006 0.0
C2438 C 0.24672 0.21541 0.09228 0.0
C2439 C 0.23882 0.23356 0.11726 0.0
N2440 N 0.25234 0.19617 0.11096 0.0
N2441 N 0.23931 0.25573 0.10088 0.0
H2442 H 0.24359 0.23664 0.14053 0.0
H2443 H 0.24404 0.25345 0.12986 0.0
H2444 H 0.24134 0.26131 0.09057 0.0
H2445 H 0.23501 0.26265 0.10939 0.0
H2446 H 0.2592 0.19028 0.10342 0.0
H2447 H 0.2535 0.1928 0.12231 0.0
H2448 H 0.25045 0.19457 0.08113 0.0
H2449 H 0.2519 0.21058 0.06928 0.0
C2450 C 0.81215 0.21958 0.10288 0.0
C2451 C 0.80488 0.22308 0.1168 0.0
C2452 C 0.78709 0.23973 0.10323 0.0
C2453 C 0.79492 0.23687 0.08945 0.0
N2454 N 0.81667 0.22664 0.07656 0.0
N2455 N 0.78738 0.23849 0.13083 0.0
C2456 C 0.80799 0.22755 0.0894 0.0
C2457 C 0.79293 0.23378 0.11715 0.0
N2458 N 0.82262 0.20822 0.10242 0.0
N2459 N 0.77377 0.24762 0.10294 0.0
H2460 H 0.79136 0.23432 0.14123 0.0
H2461 H 0.77981 0.24742 0.13196 0.0
H2462 H 0.76915 0.25218 0.09299 0.0
H2463 H 0.76666 0.24867 0.11231 0.0
H2464 H 0.827 0.20394 0.09234 0.0
H2465 H 0.82609 0.2022 0.11205 0.0
H2466 H 0.82721 0.22135 0.07626 0.0
H2467 H 0.81399 0.23234 0.06648 0.0
C2468 C 0.79018 0.80901 0.11349 0.0
C2469 C 0.80574 0.81341 0.11478 0.0
C2470 C 0.81062 0.80386 0.08907 0.0
C2471 C 0.79522 0.79887 0.08805 0.0
N2472 N 0.77092 0.79431 0.09996 0.0
N2473 N 0.83135 0.81301 0.10509 0.0
C2474 C 0.78516 0.80074 0.10049 0.0
C2475 C 0.81614 0.81021 0.10294 0.0
N2476 N 0.7801 0.81317 0.12449 0.0
N2477 N 0.81983 0.80295 0.0766 0.0
H2478 H 0.83574 0.81791 0.11497 0.0
H2479 H 0.83975 0.80946 0.09763 0.0
H2480 H 0.8163 0.79803 0.06639 0.0
H2481 H 0.83061 0.80794 0.07597 0.0
H2482 H 0.76835 0.81192 0.12343 0.0
H2483 H 0.78341 0.81885 0.13437 0.0
H2484 H 0.76359 0.79381 0.10923 0.0
H2485 H 0.76679 0.78838 0.09053 0.0
C2486 C 0.23992 0.80275 0.11602 0.0
C2487 C 0.22703 0.81232 0.11552 0.0
C2488 C 0.2232 0.80622 0.08853 0.0
C2489 C 0.23706 0.79809 0.08863 0.0
N2490 N 0.25971 0.79007 0.10189 0.0
N2491 N 0.20738 0.82476 0.10099 0.0
C2492 C 0.2457 0.79668 0.10224 0.0
C2493 C 0.21888 0.81444 0.1017 0.0
N2494 N 0.24644 0.79921 0.12972 0.0
N2495 N 0.21398 0.80578 0.07596 0.0
H2496 H 0.20379 0.83091 0.1104 0.0
H2497 H 0.20219 0.82812 0.09087 0.0
H2498 H 0.21679 0.79988 0.06612 0.0
H2499 H 0.203 0.81011 0.07573 0.0
H2500 H 0.25483 0.79106 0.13105 0.0
H2501 H 0.24252 0.80348 0.14002 0.0
H2502 H 0.2673 0.79023 0.11102 0.0
H2503 H 0.26432 0.78542 0.09207 0.0
C2504 C 0.24437 0.80955 0.92326 0.0
C2505 C 0.22874 0.81323 0.92166 0.0
C2506 C 0.22352 0.80304 0.9472 0.0
C2507 C 0.23902 0.7988 0.94853 0.0
N2508 N 0.26376 0.79576 0.93726 0.0
N2509 N 0.20295 0.81164 0.93084 0.0
C2510 C 0.24932 0.80139 0.93637 0.0
C2511 C 0.21816 0.8094 0.93327 0.0
N2512 N 0.25454 0.81425 0.91241 0.0
N2513 N 0.21406 0.80141 0.95944 0.0
H2514 H 0.19867 0.81663 0.92095 0.0
H2515 H 0.19445 0.8076 0.93808 0.0
H2516 H 0.21747 0.7964 0.96967 0.0
H2517 H 0.20314 0.80584 0.95988 0.0
H2518 H 0.2663 0.81356 0.91368 0.0
H2519 H 0.25127 0.81977 0.90241 0.0
H2520 H 0.27134 0.79578 0.92819 0.0
H2521 H 0.26786 0.78999 0.9468 0.0
C2522 C 0.22056 0.21803 0.93555 0.0
C2523 C 0.22297 0.22601 0.92167 0.0
C2524 C 0.23907 0.24471 0.935 0.0
C2525 C 0.2373 0.23627 0.94871 0.0
N2526 N 0.22908 0.2133 0.96141 0.0
N2527 N 0.23678 0.24512 0.90747 0.0
C2528 C 0.22885 0.22243 0.94878 0.0
C2529 C 0.23294 0.23881 0.92119 0.0
N2530 N 0.20988 0.20663 0.93624 0.0
N2531 N 0.24605 0.25866 0.93529 0.0
H2532 H 0.23247 0.2411 0.89715 0.0
H2533 H 0.2452 0.25343 0.90617 0.0
H2534 H 0.2507 0.26338 0.94514 0.0
H2535 H 0.24622 0.26609 0.92604 0.0
H2536 H 0.20633 0.20158 0.94638 0.0
H2537 H 0.20366 0.20298 0.92679 0.0
H2538 H 0.22449 0.20236 0.96166 0.0
H2539 H 0.23509 0.21612 0.97128 0.0
C2540 C 0.80035 0.23734 0.92168 0.0
C2541 C 0.81328 0.22787 0.92277 0.0
C2542 C 0.81278 0.22978 0.95061 0.0
C2543 C 0.79926 0.23842 0.94958 0.0
N2544 N 0.77866 0.24835 0.93444 0.0
N2545 N 0.83022 0.21276 0.93811 0.0
C2546 C 0.79259 0.2416 0.93518 0.0
C2547 C 0.81901 0.22339 0.93721 0.0
N2548 N 0.79579 0.24269 0.90777 0.0
N2549 N 0.82002 0.2282 0.96433 0.0
H2550 H 0.83511 0.2079 0.92853 0.0
H2551 H 0.83374 0.20779 0.94829 0.0
H2552 H 0.81586 0.23272 0.97441 0.0
H2553 H 0.83079 0.22351 0.96554 0.0
H2554 H 0.78757 0.251 0.90634 0.0
H2555 H 0.80103 0.23962 0.89763 0.0
H2556 H 0.77245 0.24957 0.9244 0.0
H2557 H 0.77267 0.25166 0.94407 0.0
C2558 C 0.79381 0.80146 0.92002 0.0
C2559 C 0.80599 0.81218 0.92054 0.0
C2560 C 0.80893 0.80754 0.94797 0.0
C2561 C 0.79567 0.79817 0.94774 0.0
N2562 N 0.77432 0.7875 0.93395 0.0
N2563 N 0.824 0.82697 0.93521 0.0
C2564 C 0.78782 0.79541 0.93385 0.0
C2565 C 0.81329 0.8156 0.93457 0.0
N2566 N 0.7882 0.79682 0.90625 0.0
N2567 N 0.81759 0.80839 0.9609 0.0
H2568 H 0.82763 0.83304 0.92565 0.0
H2569 H 0.82844 0.8312 0.94536 0.0
H2570 H 0.81478 0.80262 0.97092 0.0
H2571 H 0.82823 0.81371 0.96135 0.0
H2572 H 0.78045 0.78788 0.905 0.0
H2573 H 0.79229 0.80106 0.89592 0.0
H2574 H 0.76721 0.78652 0.92449 0.0
H2575 H 0.76958 0.78286 0.94382 0.0
C2576 C 0.09885 0.22055 0.21998 0.0
C2577 C 0.11305 0.22774 0.2232 0.0
C2578 C 0.10021 0.24602 0.23966 0.0
C2579 C 0.08615 0.2383 0.23711 0.0
N2580 N 0.07253 0.21648 0.22742 0.0
N2581 N 0.1278 0.24541 0.23818 0.0
C2582 C 0.08561 0.22503 0.22802 0.0
C2583 C 0.11389 0.23991 0.23369 0.0
N2584 N 0.09789 0.20983 0.20882 0.0
N2585 N 0.10041 0.25951 0.24729 0.0
H2586 H 0.13803 0.24124 0.234 0.0
H2587 H 0.12929 0.25316 0.24698 0.0
H2588 H 0.09066 0.26434 0.25186 0.0
H2589 H 0.11 0.26652 0.2481 0.0
H2590 H 0.08761 0.20546 0.20471 0.0
H2591 H 0.10733 0.20613 0.20276 0.0
H2592 H 0.07188 0.20584 0.22233 0.0
H2593 H 0.06264 0.21937 0.23319 0.0
C2594 C 0.8224 0.1006 0.2327 0.0
C2595 C 0.81341 0.11375 0.23065 0.0
C2596 C 0.79083 0.0999 0.23992 0.0
C2597 C 0.79963 0.08653 0.24109 0.0
N2598 N 0.82311 0.07335 0.23678 0.0
N2599 N 0.78886 0.12569 0.23026 0.0
C2600 C 0.81523 0.08665 0.23695 0.0
C2601 C 0.79754 0.11333 0.23367 0.0
N2602 N 0.83786 0.10158 0.23099 0.0
N2603 N 0.77618 0.09984 0.24517 0.0
H2604 H 0.79346 0.13581 0.22598 0.0
H2605 H 0.77701 0.12563 0.2306 0.0
H2606 H 0.77079 0.09012 0.24948 0.0
H2607 H 0.76968 0.10957 0.24625 0.0
H2608 H 0.84528 0.09294 0.23404 0.0
H2609 H 0.84347 0.11147 0.22746 0.0
H2610 H 0.83398 0.07232 0.23224 0.0
H2611 H 0.81836 0.06298 0.24019 0.0
C2612 C 0.93434 0.80964 0.21587 0.0
C2613 C 0.91991 0.80676 0.22259 0.0
C2614 C 0.93242 0.79443 0.24437 0.0
C2615 C 0.94665 0.79589 0.23686 0.0
N2616 N 0.961 0.80294 0.21452 0.0
N2617 N 0.90485 0.79485 0.24228 0.0
C2618 C 0.94758 0.80302 0.22236 0.0
C2619 C 0.91885 0.79876 0.23662 0.0
N2620 N 0.9354 0.81901 0.20346 0.0
N2621 N 0.93193 0.78926 0.25906 0.0
H2622 H 0.89467 0.798 0.23705 0.0
H2623 H 0.90329 0.78755 0.25151 0.0
H2624 H 0.94163 0.78593 0.26506 0.0
H2625 H 0.92217 0.78944 0.26574 0.0
H2626 H 0.94572 0.82289 0.19901 0.0
H2627 H 0.92594 0.82403 0.19837 0.0
H2628 H 0.96199 0.80641 0.20322 0.0
H2629 H 0.97096 0.79822 0.21887 0.0
C2630 C 0.21821 0.93377 0.22185 0.0
C2631 C 0.22169 0.91973 0.22898 0.0
C2632 C 0.23859 0.9329 0.24706 0.0
C2633 C 0.23572 0.94683 0.2394 0.0
N2634 N 0.22537 0.96014 0.21775 0.0
N2635 N 0.23722 0.90538 0.24641 0.0
C2636 C 0.22629 0.94714 0.22625 0.0
C2637 C 0.23252 0.91914 0.241 0.0
N2638 N 0.20677 0.93444 0.21127 0.0
N2639 N 0.2466 0.93291 0.26043 0.0
H2640 H 0.23296 0.89509 0.24227 0.0
H2641 H 0.24623 0.9041 0.25402 0.0
H2642 H 0.25127 0.94273 0.26521 0.0
H2643 H 0.24767 0.9234 0.26742 0.0
H2644 H 0.20249 0.94457 0.20698 0.0
H2645 H 0.20069 0.92489 0.20761 0.0
H2646 H 0.22 0.96067 0.20718 0.0
H2647 H 0.23115 0.97014 0.22061 0.0
C2648 C 0.10213 0.81453 0.81232 0.0
C2649 C 0.11453 0.80447 0.81406 0.0
C2650 C 0.10036 0.7847 0.80019 0.0
C2651 C 0.08745 0.79423 0.7998 0.0
N2652 N 0.07532 0.81769 0.80634 0.0
N2653 N 0.12534 0.77967 0.81093 0.0
C2654 C 0.08815 0.80904 0.80605 0.0
C2655 C 0.11365 0.78947 0.80827 0.0
N2656 N 0.10384 0.8294 0.81644 0.0
N2657 N 0.09998 0.77118 0.7926 0.0
H2658 H 0.13543 0.7829 0.81638 0.0
H2659 H 0.12472 0.76811 0.80862 0.0
H2660 H 0.09033 0.76717 0.78687 0.0
H2661 H 0.10949 0.76444 0.79099 0.0
H2662 H 0.09589 0.83774 0.81399 0.0
H2663 H 0.11381 0.83372 0.82135 0.0
H2664 H 0.07452 0.82783 0.81228 0.0
H2665 H 0.06504 0.81428 0.80138 0.0
C2666 C 0.21763 0.10098 0.81116 0.0
C2667 C 0.22799 0.11299 0.81454 0.0
C2668 C 0.24871 0.09896 0.80249 0.0
C2669 C 0.2387 0.08637 0.80048 0.0
N2670 N 0.21403 0.07461 0.80395 0.0
N2671 N 0.25363 0.12307 0.81492 0.0
C2672 C 0.22324 0.08718 0.80506 0.0
C2673 C 0.2436 0.11191 0.81055 0.0
N2674 N 0.20239 0.10292 0.8135 0.0
N2675 N 0.26303 0.09861 0.79644 0.0
H2676 H 0.25026 0.13289 0.82049 0.0
H2677 H 0.26539 0.12218 0.81397 0.0
H2678 H 0.26725 0.08921 0.79073 0.0
H2679 H 0.27033 0.10799 0.79601 0.0
H2680 H 0.19404 0.09532 0.80979 0.0
H2681 H 0.19794 0.11278 0.81817 0.0
H2682 H 0.2032 0.07384 0.80867 0.0
H2683 H 0.21761 0.06447 0.79913 0.0
C2684 C 0.93401 0.21453 0.81343 0.0
C2685 C 0.91968 0.22045 0.80905 0.0
C2686 C 0.93252 0.24152 0.79569 0.0
C2687 C 0.94681 0.23471 0.79875 0.0
N2688 N 0.96114 0.21359 0.80856 0.0
N2689 N 0.90503 0.23848 0.79455 0.0
C2690 C 0.94756 0.22092 0.80714 0.0
C2691 C 0.91885 0.23369 0.79981 0.0
N2692 N 0.93468 0.20299 0.82387 0.0
N2693 N 0.93206 0.25565 0.7892 0.0
H2694 H 0.89477 0.23318 0.79751 0.0
H2695 H 0.90377 0.24698 0.78638 0.0
H2696 H 0.94183 0.26171 0.78602 0.0
H2697 H 0.92214 0.26192 0.78808 0.0
H2698 H 0.94479 0.19928 0.82878 0.0
H2699 H 0.92499 0.19797 0.82865 0.0
H2700 H 0.96213 0.20268 0.81304 0.0
H2701 H 0.97132 0.21785 0.8041 0.0
C2702 C 0.81613 0.93382 0.81439 0.0
C2703 C 0.81281 0.91993 0.80691 0.0
C2704 C 0.79613 0.93328 0.78887 0.0
C2705 C 0.79877 0.94701 0.79691 0.0
N2706 N 0.80878 0.95985 0.81899 0.0
N2707 N 0.79763 0.90578 0.7889 0.0
C2708 C 0.80804 0.94713 0.81018 0.0
C2709 C 0.80218 0.91947 0.7947 0.0
N2710 N 0.82741 0.93444 0.82515 0.0
N2711 N 0.78834 0.93353 0.77537 0.0
H2712 H 0.80187 0.89547 0.79285 0.0
H2713 H 0.78874 0.90453 0.78111 0.0
H2714 H 0.7837 0.94339 0.77075 0.0
H2715 H 0.78745 0.92424 0.76814 0.0
H2716 H 0.83158 0.94454 0.82974 0.0
H2717 H 0.83349 0.92493 0.82867 0.0
H2718 H 0.814 0.96016 0.82965 0.0
H2719 H 0.80299 0.96979 0.81629 0.0
C2720 C 0.22952 0.11411 0.24253 0.0
C2721 C 0.21903 0.11333 0.23021 0.0
C2722 C 0.22436 0.08621 0.22726 0.0
C2723 C 0.23349 0.08663 0.24063 0.0
N2724 N 0.24341 0.1005 0.26215 0.0
N2725 N 0.20488 0.09837 0.212 0.0
C2726 C 0.23577 0.10048 0.24856 0.0
C2727 C 0.21605 0.09931 0.22284 0.0
N2728 N 0.23376 0.12793 0.24824 0.0
N2729 N 0.22397 0.0734 0.21856 0.0
H2730 H 0.19865 0.10771 0.20833 0.0
H2731 H 0.20095 0.08814 0.20747 0.0
H2732 H 0.22994 0.06361 0.2214 0.0
H2733 H 0.21886 0.0729 0.20786 0.0
H2734 H 0.24254 0.12942 0.2561 0.0
H2735 H 0.22937 0.13813 0.24413 0.0
H2736 H 0.24402 0.10987 0.2693 0.0
H2737 H 0.24818 0.09078 0.26692 0.0
C2738 C 0.21477 0.93392 0.81147 0.0
C2739 C 0.22088 0.9197 0.8073 0.0
C2740 C 0.24209 0.93269 0.79434 0.0
C2741 C 0.23511 0.94685 0.79718 0.0
N2742 N 0.21368 0.96095 0.80642 0.0
N2743 N 0.23924 0.90528 0.79329 0.0
C2744 C 0.22116 0.94748 0.80525 0.0
C2745 C 0.23428 0.919 0.79836 0.0
N2746 N 0.20306 0.93446 0.82165 0.0
N2747 N 0.25636 0.93236 0.78817 0.0
H2748 H 0.23396 0.89502 0.7962 0.0
H2749 H 0.24788 0.90412 0.78532 0.0
H2750 H 0.2624 0.94215 0.78506 0.0
H2751 H 0.26273 0.92252 0.78725 0.0
H2752 H 0.1992 0.94449 0.82642 0.0
H2753 H 0.19803 0.92475 0.82639 0.0
H2754 H 0.20266 0.96184 0.81064 0.0
H2755 H 0.21794 0.97113 0.80198 0.0
C2756 C 0.11411 0.23323 0.79957 0.0
C2757 C 0.11307 0.22001 0.80885 0.0
C2758 C 0.08516 0.22051 0.80694 0.0
C2759 C 0.08617 0.23428 0.79851 0.0
N2760 N 0.10133 0.25519 0.78894 0.0
N2761 N 0.09777 0.2026 0.8237 0.0
C2762 C 0.10059 0.24107 0.79545 0.0
C2763 C 0.09862 0.21412 0.81323 0.0
N2764 N 0.128 0.238 0.79429 0.0
N2765 N 0.07142 0.2132 0.8084 0.0
H2766 H 0.10738 0.19759 0.8285 0.0
H2767 H 0.08761 0.19889 0.82861 0.0
H2768 H 0.0613 0.21747 0.80394 0.0
H2769 H 0.0702 0.2023 0.81291 0.0
H2770 H 0.12938 0.24647 0.78609 0.0
H2771 H 0.13816 0.2327 0.79725 0.0
H2772 H 0.1114 0.26145 0.78785 0.0
H2773 H 0.09168 0.26124 0.78573 0.0
C2774 C 0.79567 0.11444 0.80319 0.0
C2775 C 0.80498 0.11355 0.8164 0.0
C2776 C 0.80327 0.08574 0.81582 0.0
C2777 C 0.79484 0.08659 0.80202 0.0
N2778 N 0.78506 0.10152 0.78116 0.0
N2779 N 0.81993 0.09856 0.83381 0.0
C2780 C 0.79163 0.1009 0.79529 0.0
C2781 C 0.80946 0.09924 0.82227 0.0
N2782 N 0.79028 0.12819 0.79848 0.0
N2783 N 0.80482 0.07208 0.8231 0.0
H2784 H 0.82464 0.10822 0.83889 0.0
H2785 H 0.82492 0.08852 0.83748 0.0
H2786 H 0.80043 0.06193 0.81877 0.0
H2787 H 0.80933 0.07095 0.83401 0.0
H2788 H 0.78206 0.12945 0.79001 0.0
H2789 H 0.79319 0.13837 0.80382 0.0
H2790 H 0.78384 0.11151 0.77494 0.0
H2791 H 0.78192 0.09184 0.77507 0.0
C2792 C 0.91907 0.79417 0.8024 0.0
C2793 C 0.91981 0.806 0.81328 0.0
C2794 C 0.94736 0.80862 0.80906 0.0
C2795 C 0.94688 0.79566 0.79953 0.0
N2796 N 0.93265 0.7749 0.78842 0.0
N2797 N 0.93482 0.82331 0.8285 0.0
C2798 C 0.93281 0.78814 0.79648 0.0
C2799 C 0.934 0.81296 0.81699 0.0
N2800 N 0.9052 0.78892 0.79748 0.0
N2801 N 0.9605 0.81701 0.81021 0.0
H2802 H 0.92529 0.82692 0.83448 0.0
H2803 H 0.94505 0.82746 0.83294 0.0
H2804 H 0.97049 0.81421 0.80455 0.0
H2805 H 0.96115 0.82747 0.81565 0.0
H2806 H 0.90382 0.78147 0.78842 0.0
H2807 H 0.89493 0.79304 0.80161 0.0
H2808 H 0.92302 0.768 0.78721 0.0
H2809 H 0.94244 0.77014 0.78389 0.0
C2810 C 0.79997 0.91987 0.23746 0.0
C2811 C 0.81335 0.92103 0.22849 0.0
C2812 C 0.81314 0.94878 0.23094 0.0
C2813 C 0.79921 0.94769 0.23905 0.0
N2814 N 0.77793 0.93254 0.24784 0.0
N2815 N 0.83113 0.93651 0.21426 0.0
C2816 C 0.7922 0.93332 0.24168 0.0
C2817 C 0.81946 0.93548 0.22449 0.0
N2818 N 0.79499 0.90595 0.2424 0.0
N2819 N 0.82069 0.96241 0.22995 0.0
H2820 H 0.83608 0.92702 0.20935 0.0
H2821 H 0.835 0.94674 0.20962 0.0
H2822 H 0.8165 0.9724 0.23456 0.0
H2823 H 0.83169 0.96361 0.22569 0.0
H2824 H 0.78637 0.90444 0.25039 0.0
H2825 H 0.80024 0.89585 0.23937 0.0
H2826 H 0.77153 0.92255 0.24861 0.0
H2827 H 0.77191 0.94214 0.25107 0.0
C2828 C 0.11239 0.80218 0.23703 0.0
C2829 C 0.11268 0.80475 0.22107 0.0
C2830 C 0.08556 0.7978 0.21926 0.0
C2831 C 0.08558 0.79412 0.23501 0.0
N2832 N 0.09918 0.79096 0.25865 0.0
N2833 N 0.10032 0.80336 0.19657 0.0
C2834 C 0.09905 0.79582 0.24385 0.0
C2835 C 0.09946 0.80212 0.21207 0.0
N2836 N 0.12476 0.80614 0.24569 0.0
N2837 N 0.07215 0.7975 0.21128 0.0
H2838 H 0.11018 0.80689 0.19091 0.0
H2839 H 0.09165 0.7999 0.18922 0.0
H2840 H 0.06182 0.79405 0.21608 0.0
H2841 H 0.071 0.80169 0.20025 0.0
H2842 H 0.12476 0.80615 0.25753 0.0
H2843 H 0.13481 0.81054 0.24103 0.0
H2844 H 0.10902 0.79028 0.26526 0.0
H2845 H 0.08955 0.78655 0.26411 0.0
C2846 C 0.92143 0.2239 0.24011 0.0
C2847 C 0.92141 0.22182 0.22413 0.0
C2848 C 0.94936 0.22258 0.22444 0.0
C2849 C 0.94904 0.22769 0.23974 0.0
N2850 N 0.93632 0.21907 0.26248 0.0
N2851 N 0.9355 0.21809 0.20093 0.0
C2852 C 0.93551 0.22461 0.24801 0.0
C2853 C 0.93545 0.22068 0.21625 0.0
N2854 N 0.90806 0.22518 0.24785 0.0
N2855 N 0.96284 0.21795 0.21843 0.0
H2856 H 0.92561 0.21591 0.19468 0.0
H2857 H 0.94528 0.21897 0.1943 0.0
H2858 H 0.97279 0.21762 0.22497 0.0
H2859 H 0.9638 0.2128 0.20785 0.0
H2860 H 0.90775 0.22799 0.25936 0.0
H2861 H 0.89742 0.22463 0.24254 0.0
H2862 H 0.92673 0.21575 0.26868 0.0
H2863 H 0.94653 0.21489 0.26684 0.0
C2864 C 0.23603 0.73405 0.61665 0.0
C2865 C 0.22797 0.72002 0.61584 0.0
C2866 C 0.23159 0.71953 0.58816 0.0
C2867 C 0.23875 0.73404 0.58883 0.0
N2868 N 0.24571 0.75629 0.60322 0.0
N2869 N 0.21569 0.70065 0.60076 0.0
C2870 C 0.24038 0.74165 0.60296 0.0
C2871 C 0.22504 0.71313 0.60155 0.0
N2872 N 0.23998 0.73986 0.63053 0.0
N2873 N 0.23158 0.7116 0.57483 0.0
H2874 H 0.21074 0.6956 0.61033 0.0
H2875 H 0.21176 0.69606 0.59056 0.0
H2876 H 0.23623 0.71589 0.56477 0.0
H2877 H 0.2281 0.7003 0.574 0.0
H2878 H 0.24733 0.74911 0.63193 0.0
H2879 H 0.2368 0.73475 0.64079 0.0
H2880 H 0.24567 0.76304 0.6129 0.0
H2881 H 0.2491 0.76217 0.59344 0.0
C2882 C 0.81082 0.71827 0.60258 0.0
C2883 C 0.80357 0.72169 0.61654 0.0
C2884 C 0.78577 0.73843 0.60312 0.0
C2885 C 0.79357 0.73567 0.5893 0.0
N2886 N 0.81525 0.72545 0.57627 0.0
N2887 N 0.78606 0.73696 0.63071 0.0
C2888 C 0.80662 0.72631 0.58916 0.0
C2889 C 0.79161 0.73237 0.61698 0.0
N2890 N 0.82132 0.70695 0.60204 0.0
N2891 N 0.77246 0.74636 0.6029 0.0
H2892 H 0.79002 0.73268 0.64107 0.0
H2893 H 0.7785 0.74588 0.63192 0.0
H2894 H 0.76786 0.75103 0.59299 0.0
H2895 H 0.76536 0.74736 0.61229 0.0
H2896 H 0.82569 0.70272 0.59194 0.0
H2897 H 0.82483 0.7009 0.61165 0.0
H2898 H 0.82577 0.72015 0.5759 0.0
H2899 H 0.81254 0.7312 0.56623 0.0
C2900 C 0.81637 0.31117 0.60384 0.0
C2901 C 0.8061 0.31362 0.61598 0.0
C2902 C 0.78582 0.30029 0.60186 0.0
C2903 C 0.79566 0.29918 0.58916 0.0
N2904 N 0.81983 0.3046 0.57728 0.0
N2905 N 0.78072 0.31194 0.62626 0.0
C2906 C 0.81084 0.30486 0.58996 0.0
C2907 C 0.79073 0.3085 0.61494 0.0
N2908 N 0.83149 0.31462 0.60573 0.0
N2909 N 0.77187 0.29322 0.6015 0.0
H2910 H 0.78397 0.31758 0.63617 0.0
H2911 H 0.76901 0.31013 0.62543 0.0
H2912 H 0.76779 0.28736 0.592 0.0
H2913 H 0.7648 0.29214 0.61092 0.0
H2914 H 0.83988 0.31164 0.59801 0.0
H2915 H 0.83587 0.31948 0.61564 0.0
H2916 H 0.83035 0.3101 0.57652 0.0
H2917 H 0.81634 0.29966 0.56707 0.0
C2918 C 0.21994 0.31501 0.60137 0.0
C2919 C 0.22749 0.31211 0.61538 0.0
C2920 C 0.24563 0.29567 0.60232 0.0
C2921 C 0.2376 0.29798 0.58846 0.0
N2922 N 0.21546 0.3073 0.57526 0.0
N2923 N 0.24565 0.29761 0.62987 0.0
C2924 C 0.22424 0.3069 0.58814 0.0
C2925 C 0.23978 0.30179 0.61605 0.0
N2926 N 0.20903 0.32595 0.60059 0.0
N2927 N 0.25915 0.28811 0.60227 0.0
H2928 H 0.24168 0.30194 0.64013 0.0
H2929 H 0.25351 0.28896 0.63129 0.0
H2930 H 0.26374 0.28335 0.59248 0.0
H2931 H 0.2664 0.28749 0.61164 0.0
H2932 H 0.20437 0.32985 0.5904 0.0
H2933 H 0.20542 0.33201 0.61005 0.0
H2934 H 0.20475 0.31225 0.57478 0.0
H2935 H 0.21826 0.30151 0.56536 0.0
C2936 C 0.21877 0.31074 0.43335 0.0
C2937 C 0.22898 0.31277 0.42101 0.0
C2938 C 0.24894 0.2994 0.43524 0.0
C2939 C 0.2392 0.29867 0.44807 0.0
N2940 N 0.21536 0.30453 0.46008 0.0
N2941 N 0.25409 0.31039 0.41036 0.0
C2942 C 0.22422 0.30454 0.44731 0.0
C2943 C 0.24415 0.30741 0.42197 0.0
N2944 N 0.20379 0.31449 0.43158 0.0
N2945 N 0.26266 0.29221 0.43568 0.0
H2946 H 0.25087 0.3158 0.40028 0.0
H2947 H 0.26573 0.3084 0.41104 0.0
H2948 H 0.2667 0.28657 0.44533 0.0
H2949 H 0.26959 0.29084 0.42622 0.0
H2950 H 0.19536 0.3118 0.43947 0.0
H2951 H 0.19949 0.31935 0.42162 0.0
H2952 H 0.20506 0.31019 0.46085 0.0
H2953 H 0.21876 0.2996 0.47035 0.0
C2954 C 0.2331 0.739 0.42125 0.0
C2955 C 0.22285 0.72643 0.42186 0.0
C2956 C 0.22824 0.72331 0.44913 0.0
C2957 C 0.23701 0.73694 0.44887 0.0
N2958 N 0.24651 0.75882 0.43511 0.0
N2959 N 0.20912 0.70765 0.43663 0.0
C2960 C 0.23918 0.74505 0.43502 0.0
C2961 C 0.22005 0.71881 0.43586 0.0
N2962 N 0.23727 0.74493 0.40746 0.0
N2963 N 0.22806 0.71447 0.46196 0.0
H2964 H 0.20297 0.70392 0.42716 0.0
H2965 H 0.20531 0.7029 0.44681 0.0
H2966 H 0.23396 0.71738 0.47186 0.0
H2967 H 0.22322 0.70363 0.46237 0.0
H2968 H 0.24589 0.75303 0.40611 0.0
H2969 H 0.23301 0.74079 0.39716 0.0
H2970 H 0.247 0.76606 0.42572 0.0
H2971 H 0.25115 0.76363 0.44493 0.0
C2972 C 0.81749 0.72253 0.43732 0.0
C2973 C 0.81191 0.72715 0.42286 0.0
C2974 C 0.79124 0.74097 0.4352 0.0
C2975 C 0.79779 0.73768 0.44963 0.0
N2976 N 0.81836 0.7272 0.46446 0.0
N2977 N 0.79462 0.74216 0.40782 0.0
C2978 C 0.81122 0.7289 0.45071 0.0
C2979 C 0.79905 0.73672 0.42173 0.0
N2980 N 0.82859 0.7118 0.43823 0.0
N2981 N 0.77737 0.74785 0.4344 0.0
H2982 H 0.7999 0.7391 0.3977 0.0
H2983 H 0.78648 0.75054 0.40638 0.0
H2984 H 0.77135 0.75115 0.44402 0.0
H2985 H 0.77123 0.74917 0.42433 0.0
H2986 H 0.832 0.70675 0.44841 0.0
H2987 H 0.83351 0.70695 0.42866 0.0
H2988 H 0.82908 0.72241 0.46572 0.0
H2989 H 0.81417 0.7317 0.47454 0.0
C2990 C 0.81362 0.31647 0.43566 0.0
C2991 C 0.8064 0.31301 0.4216 0.0
C2992 C 0.78827 0.29612 0.43483 0.0
C2993 C 0.79605 0.29891 0.44875 0.0
N2994 N 0.81787 0.30926 0.462 0.0
N2995 N 0.78876 0.29754 0.40724 0.0
C2996 C 0.80925 0.30837 0.44903 0.0
C2997 C 0.79429 0.30221 0.42102 0.0
N2998 N 0.82425 0.32791 0.43635 0.0
N2999 N 0.77482 0.28814 0.43487 0.0
H3000 H 0.79287 0.3018 0.39692 0.0
H3001 H 0.78108 0.28855 0.40595 0.0
H3002 H 0.77006 0.28347 0.44472 0.0
H3003 H 0.76775 0.28712 0.42538 0.0
H3004 H 0.82862 0.33216 0.44652 0.0
H3005 H 0.82787 0.33401 0.4268 0.0
H3006 H 0.82847 0.31465 0.46248 0.0
H3007 H 0.81505 0.30346 0.472 0.0
C3008 C 0.11403 0.73939 0.73351 0.0
C3009 C 0.11327 0.72736 0.72284 0.0
C3010 C 0.08579 0.72462 0.72737 0.0
C3011 C 0.08627 0.73772 0.7367 0.0
N3012 N 0.10046 0.75874 0.74735 0.0
N3013 N 0.09826 0.70967 0.70808 0.0
C3014 C 0.10031 0.74539 0.73949 0.0
C3015 C 0.0991 0.72024 0.71939 0.0
N3016 N 0.12792 0.74483 0.73819 0.0
N3017 N 0.07269 0.71613 0.72647 0.0
H3018 H 0.10776 0.70602 0.70209 0.0
H3019 H 0.08802 0.70535 0.70381 0.0
H3020 H 0.06273 0.71897 0.73216 0.0
H3021 H 0.07204 0.70559 0.7212 0.0
H3022 H 0.12934 0.75244 0.74711 0.0
H3023 H 0.13818 0.74073 0.734 0.0
H3024 H 0.11003 0.76575 0.74833 0.0
H3025 H 0.09068 0.76347 0.75197 0.0
C3026 C 0.79739 0.61402 0.73412 0.0
C3027 C 0.81341 0.61474 0.73205 0.0
C3028 C 0.81549 0.5879 0.73932 0.0
C3029 C 0.79965 0.58748 0.74245 0.0
N3030 N 0.77565 0.60028 0.74459 0.0
N3031 N 0.83809 0.60318 0.73419 0.0
C3032 C 0.79062 0.60059 0.74032 0.0
C3033 C 0.82257 0.60189 0.73506 0.0
N3034 N 0.78865 0.62609 0.72988 0.0
N3035 N 0.82369 0.5748 0.74008 0.0
H3036 H 0.84366 0.61308 0.73061 0.0
H3037 H 0.84553 0.59484 0.73794 0.0
H3038 H 0.81899 0.56443 0.74354 0.0
H3039 H 0.83485 0.57391 0.73629 0.0
H3040 H 0.77681 0.62575 0.72949 0.0
H3041 H 0.79327 0.63623 0.72569 0.0
H3042 H 0.76883 0.60985 0.74495 0.0
H3043 H 0.77023 0.59054 0.74881 0.0
C3044 C 0.9188 0.29454 0.73538 0.0
C3045 C 0.91946 0.30687 0.72493 0.0
C3046 C 0.94689 0.3098 0.72985 0.0
C3047 C 0.94654 0.29639 0.73886 0.0
N3048 N 0.93256 0.27487 0.74892 0.0
N3049 N 0.93436 0.32515 0.71065 0.0
C3050 C 0.93258 0.28848 0.74136 0.0
C3051 C 0.93357 0.31426 0.72178 0.0
N3052 N 0.90497 0.28883 0.73982 0.0
N3053 N 0.95987 0.3185 0.72931 0.0
H3054 H 0.92485 0.32883 0.70458 0.0
H3055 H 0.94457 0.32969 0.7066 0.0
H3056 H 0.96983 0.31562 0.73511 0.0
H3057 H 0.96039 0.32922 0.72428 0.0
H3058 H 0.90361 0.28094 0.74858 0.0
H3059 H 0.89467 0.29298 0.73564 0.0
H3060 H 0.92305 0.26775 0.74967 0.0
H3061 H 0.94238 0.27007 0.7535 0.0
C3062 C 0.21964 0.4334 0.72128 0.0
C3063 C 0.22269 0.41949 0.72887 0.0
C3064 C 0.23907 0.43291 0.74723 0.0
C3065 C 0.23662 0.44669 0.73917 0.0
N3066 N 0.22718 0.45963 0.71688 0.0
N3067 N 0.2374 0.40539 0.7472 0.0
C3068 C 0.22767 0.4468 0.72568 0.0
C3069 C 0.23307 0.41907 0.74129 0.0
N3070 N 0.20863 0.43393 0.71024 0.0
N3071 N 0.24664 0.43315 0.76087 0.0
H3072 H 0.23318 0.39505 0.74315 0.0
H3073 H 0.24611 0.40419 0.75517 0.0
H3074 H 0.25128 0.44302 0.76555 0.0
H3075 H 0.24736 0.42379 0.76811 0.0
H3076 H 0.20463 0.444 0.70554 0.0
H3077 H 0.20261 0.42435 0.70656 0.0
H3078 H 0.22221 0.45998 0.70611 0.0
H3079 H 0.23292 0.46965 0.71975 0.0
C3080 C 0.11476 0.29291 0.30275 0.0
C3081 C 0.11459 0.30516 0.31317 0.0
C3082 C 0.08743 0.30898 0.30792 0.0
C3083 C 0.08722 0.29567 0.2989 0.0
N3084 N 0.10016 0.27387 0.28895 0.0
N3085 N 0.10054 0.32379 0.3272 0.0
C3086 C 0.10077 0.28736 0.29657 0.0
C3087 C 0.10087 0.31296 0.31612 0.0
N3088 N 0.12834 0.2868 0.29854 0.0
N3089 N 0.07488 0.31801 0.30832 0.0
H3090 H 0.11017 0.32715 0.33337 0.0
H3091 H 0.09054 0.32862 0.33111 0.0
H3092 H 0.06485 0.31546 0.30243 0.0
H3093 H 0.07484 0.32868 0.31335 0.0
H3094 H 0.12941 0.27895 0.28981 0.0
H3095 H 0.13878 0.29054 0.30292 0.0
H3096 H 0.10928 0.26646 0.28831 0.0
H3097 H 0.09016 0.26948 0.28418 0.0
C3098 C 0.24226 0.61178 0.30997 0.0
C3099 C 0.22685 0.61262 0.31471 0.0
C3100 C 0.22214 0.58659 0.30582 0.0
C3101 C 0.23737 0.586 0.30052 0.0
N3102 N 0.26127 0.59861 0.29517 0.0
N3103 N 0.20144 0.60205 0.3151 0.0
C3104 C 0.24724 0.5988 0.30187 0.0
C3105 C 0.21658 0.60037 0.31202 0.0
N3106 N 0.25226 0.6232 0.31367 0.0
N3107 N 0.21312 0.57385 0.30529 0.0
H3108 H 0.19703 0.61189 0.31985 0.0
H3109 H 0.19305 0.59424 0.31193 0.0
H3110 H 0.21663 0.56373 0.30038 0.0
H3111 H 0.20254 0.57294 0.31053 0.0
H3112 H 0.26399 0.62254 0.31215 0.0
H3113 H 0.24897 0.63305 0.31925 0.0
H3114 H 0.26836 0.60811 0.29424 0.0
H3115 H 0.26542 0.58917 0.28946 0.0
C3116 C 0.92196 0.73784 0.31394 0.0
C3117 C 0.92155 0.72182 0.31558 0.0
C3118 C 0.94945 0.72161 0.31403 0.0
C3119 C 0.94936 0.737 0.30913 0.0
N3120 N 0.93778 0.7597 0.3186 0.0
N3121 N 0.93517 0.69828 0.31824 0.0
C3122 C 0.93624 0.74544 0.31287 0.0
C3123 C 0.9354 0.71364 0.31607 0.0
N3124 N 0.90878 0.74589 0.31336 0.0
N3125 N 0.96286 0.71531 0.31861 0.0
H3126 H 0.92521 0.69213 0.32054 0.0
H3127 H 0.94474 0.69155 0.31688 0.0
H3128 H 0.97294 0.7217 0.3191 0.0
H3129 H 0.96363 0.70463 0.32365 0.0
H3130 H 0.90866 0.75747 0.31086 0.0
H3131 H 0.89803 0.7408 0.3142 0.0
H3132 H 0.92858 0.76594 0.32252 0.0
H3133 H 0.94838 0.76387 0.32213 0.0
C3134 C 0.80252 0.41991 0.29485 0.0
C3135 C 0.81279 0.42046 0.30736 0.0
C3136 C 0.80755 0.44758 0.31058 0.0
C3137 C 0.79866 0.44738 0.29706 0.0
N3138 N 0.78894 0.43385 0.27524 0.0
N3139 N 0.82661 0.43507 0.3261 0.0
C3140 C 0.79642 0.43365 0.28892 0.0
C3141 C 0.81568 0.43437 0.315 0.0
N3142 N 0.79836 0.40619 0.28886 0.0
N3143 N 0.8079 0.4603 0.31942 0.0
H3144 H 0.83269 0.42563 0.32979 0.0
H3145 H 0.8305 0.4452 0.33086 0.0
H3146 H 0.80209 0.47018 0.31655 0.0
H3147 H 0.81281 0.46065 0.33022 0.0
H3148 H 0.78972 0.40483 0.28082 0.0
H3149 H 0.80265 0.39592 0.29288 0.0
H3150 H 0.78838 0.42459 0.26794 0.0
H3151 H 0.78424 0.44364 0.27056 0.0
C3152 C 0.2173 0.60002 0.72287 0.0
C3153 C 0.2204 0.61393 0.73041 0.0
C3154 C 0.23695 0.6007 0.74864 0.0
C3155 C 0.23457 0.58697 0.74054 0.0
N3156 N 0.22498 0.5741 0.71828 0.0
N3157 N 0.23522 0.62818 0.74864 0.0
C3158 C 0.22547 0.5868 0.72715 0.0
C3159 C 0.23086 0.61446 0.74276 0.0
N3160 N 0.20614 0.59932 0.71199 0.0
N3161 N 0.24455 0.60049 0.76226 0.0
H3162 H 0.23095 0.63846 0.74464 0.0
H3163 H 0.24399 0.62949 0.75654 0.0
H3164 H 0.2492 0.59066 0.76694 0.0
H3165 H 0.24524 0.60977 0.76952 0.0
H3166 H 0.20213 0.58919 0.70734 0.0
H3167 H 0.2 0.60876 0.70843 0.0
H3168 H 0.2199 0.57378 0.70756 0.0
H3169 H 0.23085 0.56422 0.72102 0.0
C3170 C 0.21409 0.43359 0.31113 0.0
C3171 C 0.22023 0.41938 0.30698 0.0
C3172 C 0.2414 0.4324 0.29399 0.0
C3173 C 0.2344 0.44654 0.29681 0.0
N3174 N 0.21294 0.46061 0.30604 0.0
N3175 N 0.2386 0.40499 0.29294 0.0
C3176 C 0.22045 0.44716 0.30488 0.0
C3177 C 0.23362 0.4187 0.29802 0.0
N3178 N 0.20239 0.43412 0.32132 0.0
N3179 N 0.25567 0.43209 0.28781 0.0
H3180 H 0.23333 0.39472 0.29585 0.0
H3181 H 0.24724 0.40384 0.28497 0.0
H3182 H 0.26169 0.44188 0.28469 0.0
H3183 H 0.26206 0.42226 0.28691 0.0
H3184 H 0.19851 0.44415 0.32608 0.0
H3185 H 0.19739 0.42441 0.32608 0.0
H3186 H 0.20193 0.46149 0.31028 0.0
H3187 H 0.21718 0.4708 0.30159 0.0
C3188 C 0.11139 0.72376 0.29225 0.0
C3189 C 0.11304 0.72046 0.308 0.0
C3190 C 0.08765 0.73074 0.31292 0.0
C3191 C 0.08628 0.73464 0.29728 0.0
N3192 N 0.0976 0.7373 0.27248 0.0
N3193 N 0.10411 0.72287 0.33374 0.0
C3194 C 0.0984 0.73188 0.28707 0.0
C3195 C 0.10156 0.72458 0.31847 0.0
N3196 N 0.122 0.7187 0.28219 0.0
N3197 N 0.07547 0.7325 0.32237 0.0
H3198 H 0.11406 0.71818 0.33816 0.0
H3199 H 0.09696 0.72712 0.34207 0.0
H3200 H 0.06525 0.73733 0.31881 0.0
H3201 H 0.07505 0.72829 0.33345 0.0
H3202 H 0.12062 0.71913 0.27043 0.0
H3203 H 0.13185 0.71307 0.28558 0.0
H3204 H 0.10668 0.73715 0.26491 0.0
H3205 H 0.08816 0.74307 0.26823 0.0
C3206 C 0.80944 0.59986 0.32075 0.0
C3207 C 0.80486 0.61411 0.3148 0.0
C3208 C 0.79148 0.60125 0.29383 0.0
C3209 C 0.79477 0.58701 0.30067 0.0
N3210 N 0.80492 0.57269 0.32179 0.0
N3211 N 0.7901 0.62858 0.29679 0.0
C3212 C 0.80327 0.58628 0.31442 0.0
C3213 C 0.79552 0.61487 0.3016 0.0
N3214 N 0.81994 0.59932 0.33226 0.0
N3215 N 0.78485 0.60173 0.27973 0.0
H3216 H 0.79303 0.6388 0.30202 0.0
H3217 H 0.78185 0.62975 0.28834 0.0
H3218 H 0.78171 0.592 0.27373 0.0
H3219 H 0.78356 0.61168 0.27343 0.0
H3220 H 0.825 0.58932 0.33599 0.0
H3221 H 0.82463 0.60903 0.33726 0.0
H3222 H 0.80948 0.57165 0.33269 0.0
H3223 H 0.80055 0.56248 0.31757 0.0
C3224 C 0.93379 0.31522 0.31547 0.0
C3225 C 0.91989 0.307 0.31379 0.0
C3226 C 0.93293 0.28781 0.29858 0.0
C3227 C 0.94663 0.29648 0.29955 0.0
N3228 N 0.95951 0.31977 0.30637 0.0
N3229 N 0.90545 0.28712 0.30148 0.0
C3230 C 0.94688 0.31061 0.30724 0.0
C3231 C 0.91924 0.29377 0.30464 0.0
N3232 N 0.93466 0.32709 0.3254 0.0
N3233 N 0.93314 0.27361 0.29238 0.0
H3234 H 0.89521 0.29117 0.30575 0.0
H3235 H 0.90399 0.27843 0.29361 0.0
H3236 H 0.9429 0.26889 0.28772 0.0
H3237 H 0.92396 0.26604 0.29288 0.0
H3238 H 0.94485 0.33243 0.32847 0.0
H3239 H 0.92531 0.33092 0.33152 0.0
H3240 H 0.95986 0.33088 0.31034 0.0
H3241 H 0.9693 0.31675 0.30048 0.0
C3242 C 0.82034 0.436 0.72574 0.0
C3243 C 0.81405 0.42161 0.72969 0.0
C3244 C 0.79296 0.43412 0.74277 0.0
C3245 C 0.80015 0.44843 0.7402 0.0
N3246 N 0.82184 0.4629 0.73123 0.0
N3247 N 0.79546 0.40672 0.74353 0.0
C3248 C 0.81414 0.44936 0.73217 0.0
C3249 C 0.80061 0.42059 0.7386 0.0
N3250 N 0.83206 0.43691 0.71557 0.0
N3251 N 0.77865 0.4335 0.74884 0.0
H3252 H 0.80063 0.39657 0.74054 0.0
H3253 H 0.7868 0.40531 0.75148 0.0
H3254 H 0.7727 0.44315 0.75201 0.0
H3255 H 0.77214 0.42357 0.74956 0.0
H3256 H 0.83607 0.4471 0.71096 0.0
H3257 H 0.83693 0.42737 0.71067 0.0
H3258 H 0.83287 0.46399 0.72704 0.0
H3259 H 0.81774 0.47293 0.73585 0.0
C3260 C 0.10218 0.31583 0.72595 0.0
C3261 C 0.11402 0.30546 0.72293 0.0
C3262 C 0.09955 0.2851 0.73575 0.0
C3263 C 0.08713 0.2951 0.73743 0.0
N3264 N 0.07581 0.31955 0.73315 0.0
N3265 N 0.12369 0.27997 0.72354 0.0
C3266 C 0.08824 0.31038 0.73231 0.0
C3267 C 0.11266 0.29002 0.7275 0.0
N3268 N 0.1044 0.33095 0.72299 0.0
N3269 N 0.09891 0.27099 0.7423 0.0
H3270 H 0.13364 0.28323 0.71788 0.0
H3271 H 0.1226 0.26827 0.72492 0.0
H3272 H 0.08938 0.26691 0.74816 0.0
H3273 H 0.10816 0.26374 0.74296 0.0
H3274 H 0.09695 0.33936 0.7264 0.0
H3275 H 0.11434 0.33528 0.71806 0.0
H3276 H 0.07523 0.33022 0.72805 0.0
H3277 H 0.06558 0.3161 0.73816 0.0
C3278 C 0.91783 0.74193 0.73351 0.0
C3279 C 0.91801 0.72998 0.72275 0.0
C3280 C 0.94538 0.72667 0.72719 0.0
C3281 C 0.94552 0.73969 0.73662 0.0
N3282 N 0.93235 0.7609 0.74749 0.0
N3283 N 0.93214 0.71216 0.70777 0.0
C3284 C 0.93185 0.74762 0.7395 0.0
C3285 C 0.93184 0.72263 0.71919 0.0
N3286 N 0.90422 0.7476 0.73823 0.0
N3287 N 0.95811 0.71794 0.7262 0.0
H3288 H 0.92244 0.70877 0.70174 0.0
H3289 H 0.94215 0.70771 0.70344 0.0
H3290 H 0.96824 0.72053 0.73192 0.0
H3291 H 0.95826 0.70744 0.72084 0.0
H3292 H 0.9032 0.75517 0.74721 0.0
H3293 H 0.89376 0.74375 0.73401 0.0
H3294 H 0.92308 0.76807 0.74857 0.0
H3295 H 0.94237 0.76541 0.7521 0.0
C3296 C 0.72066 0.21744 0.60202 0.0
C3297 C 0.72774 0.2209 0.61615 0.0
C3298 C 0.74604 0.23773 0.6031 0.0
C3299 C 0.7384 0.23494 0.5891 0.0
N3300 N 0.71675 0.22458 0.5756 0.0
N3301 N 0.74526 0.23633 0.63068 0.0
C3302 C 0.7252 0.2255 0.58868 0.0
C3303 C 0.73987 0.23167 0.61684 0.0
N3304 N 0.70999 0.20604 0.60124 0.0
N3305 N 0.7595 0.2457 0.60319 0.0
H3306 H 0.74105 0.23209 0.64096 0.0
H3307 H 0.75296 0.2453 0.63204 0.0
H3308 H 0.76435 0.25038 0.59339 0.0
H3309 H 0.76648 0.2467 0.61274 0.0
H3310 H 0.70571 0.20178 0.59104 0.0
H3311 H 0.70624 0.19998 0.61077 0.0
H3312 H 0.70614 0.21921 0.575 0.0
H3313 H 0.71971 0.23033 0.56562 0.0
C3314 C 0.31167 0.21791 0.60232 0.0
C3315 C 0.30426 0.22103 0.61627 0.0
C3316 C 0.28627 0.23762 0.60291 0.0
C3317 C 0.29422 0.23516 0.58912 0.0
N3318 N 0.31617 0.22548 0.57614 0.0
N3319 N 0.28637 0.23582 0.63048 0.0
C3320 C 0.30744 0.22604 0.58896 0.0
C3321 C 0.2921 0.2315 0.61675 0.0
N3322 N 0.32237 0.20677 0.60173 0.0
N3323 N 0.27283 0.24534 0.60268 0.0
H3324 H 0.29032 0.23149 0.64082 0.0
H3325 H 0.27864 0.24459 0.63174 0.0
H3326 H 0.26823 0.25007 0.5928 0.0
H3327 H 0.26564 0.24609 0.61203 0.0
H3328 H 0.32689 0.20275 0.59162 0.0
H3329 H 0.32591 0.20067 0.61129 0.0
H3330 H 0.3268 0.22036 0.57578 0.0
H3331 H 0.31344 0.2313 0.56614 0.0
C3332 C 0.29822 0.80071 0.6164 0.0
C3333 C 0.30637 0.81469 0.61544 0.0
C3334 C 0.30333 0.81475 0.58765 0.0
C3335 C 0.29609 0.80028 0.58852 0.0
N3336 N 0.28876 0.77828 0.60331 0.0
N3337 N 0.31907 0.83376 0.60017 0.0
C3338 C 0.29415 0.7929 0.6028 0.0
C3339 C 0.30963 0.82133 0.60105 0.0
N3340 N 0.29394 0.79515 0.63031 0.0
N3341 N 0.30365 0.82247 0.57411 0.0
H3342 H 0.32384 0.83894 0.60974 0.0
H3343 H 0.32323 0.83815 0.58997 0.0
H3344 H 0.29918 0.81804 0.56404 0.0
H3345 H 0.30719 0.83374 0.57307 0.0
H3346 H 0.28652 0.78596 0.63175 0.0
H3347 H 0.29691 0.80042 0.64052 0.0
H3348 H 0.28857 0.7717 0.61318 0.0
H3349 H 0.28558 0.77225 0.5936 0.0
C3350 C 0.7397 0.80188 0.61641 0.0
C3351 C 0.72789 0.81274 0.6158 0.0
C3352 C 0.72487 0.80831 0.58839 0.0
C3353 C 0.7378 0.79879 0.58871 0.0
N3354 N 0.75874 0.78779 0.6026 0.0
N3355 N 0.71041 0.82781 0.60102 0.0
C3356 C 0.74552 0.79585 0.60263 0.0
C3357 C 0.72074 0.81633 0.60173 0.0
N3358 N 0.74512 0.79711 0.63022 0.0
N3359 N 0.71629 0.80936 0.57542 0.0
H3360 H 0.70696 0.83385 0.61055 0.0
H3361 H 0.70614 0.83216 0.59084 0.0
H3362 H 0.71894 0.80362 0.56544 0.0
H3363 H 0.70583 0.8148 0.57491 0.0
H3364 H 0.75257 0.78808 0.63154 0.0
H3365 H 0.74117 0.80134 0.64052 0.0
H3366 H 0.76579 0.78665 0.61208 0.0
H3367 H 0.76335 0.78315 0.59277 0.0
C3368 C 0.71887 0.81216 0.43365 0.0
C3369 C 0.72879 0.81308 0.42096 0.0
C3370 C 0.74817 0.79872 0.43501 0.0
C3371 C 0.73881 0.79906 0.44814 0.0
N3372 N 0.71583 0.80689 0.46062 0.0
N3373 N 0.75324 0.8085 0.40962 0.0
C3374 C 0.72428 0.80596 0.44762 0.0
C3375 C 0.74353 0.80663 0.42163 0.0
N3376 N 0.70418 0.81699 0.43221 0.0
N3377 N 0.76138 0.79064 0.43531 0.0
H3378 H 0.75008 0.8138 0.39946 0.0
H3379 H 0.76472 0.80568 0.40999 0.0
H3380 H 0.76537 0.78511 0.44504 0.0
H3381 H 0.76788 0.78848 0.4257 0.0
H3382 H 0.69584 0.81517 0.44042 0.0
H3383 H 0.69994 0.82189 0.42225 0.0
H3384 H 0.706 0.8133 0.46153 0.0
H3385 H 0.71913 0.80193 0.47091 0.0
C3386 C 0.71603 0.22093 0.43717 0.0
C3387 C 0.72159 0.22561 0.42272 0.0
C3388 C 0.7424 0.23978 0.43515 0.0
C3389 C 0.73587 0.23644 0.44956 0.0
N3390 N 0.71524 0.22568 0.46429 0.0
N3391 N 0.73896 0.24084 0.40774 0.0
C3392 C 0.72238 0.22745 0.45058 0.0
C3393 C 0.73453 0.23537 0.42164 0.0
N3394 N 0.70488 0.21002 0.43805 0.0
N3395 N 0.75633 0.24685 0.43441 0.0
H3396 H 0.73365 0.23765 0.3976 0.0
H3397 H 0.74717 0.24934 0.40632 0.0
H3398 H 0.76241 0.25026 0.44405 0.0
H3399 H 0.76245 0.24824 0.42436 0.0
H3400 H 0.70148 0.20493 0.44823 0.0
H3401 H 0.69991 0.20505 0.42847 0.0
H3402 H 0.70449 0.22072 0.46549 0.0
H3403 H 0.71946 0.2303 0.47438 0.0
C3404 C 0.30032 0.23704 0.4216 0.0
C3405 C 0.31335 0.22768 0.42269 0.0
C3406 C 0.31279 0.22956 0.45054 0.0
C3407 C 0.29918 0.23807 0.4495 0.0
N3408 N 0.27851 0.24783 0.43434 0.0
N3409 N 0.33042 0.21274 0.43804 0.0
C3410 C 0.29251 0.24121 0.4351 0.0
C3411 C 0.31911 0.22325 0.43714 0.0
N3412 N 0.29574 0.24236 0.4077 0.0
N3413 N 0.32002 0.22803 0.46427 0.0
H3414 H 0.33538 0.20794 0.42846 0.0
H3415 H 0.33398 0.2078 0.44822 0.0
H3416 H 0.31579 0.23249 0.47435 0.0
H3417 H 0.33084 0.22346 0.46549 0.0
H3418 H 0.28744 0.25061 0.40627 0.0
H3419 H 0.30102 0.23937 0.39756 0.0
H3420 H 0.2723 0.249 0.4243 0.0
H3421 H 0.27248 0.25108 0.44397 0.0
C3422 C 0.31048 0.81997 0.43625 0.0
C3423 C 0.30633 0.81374 0.42195 0.0
C3424 C 0.2932 0.79256 0.43488 0.0
C3425 C 0.29603 0.79963 0.44911 0.0
N3426 N 0.30535 0.8212 0.4633 0.0
N3427 N 0.29222 0.79519 0.40738 0.0
C3428 C 0.30417 0.81363 0.4498 0.0
C3429 C 0.2973 0.80029 0.42118 0.0
N3430 N 0.32072 0.83175 0.43691 0.0
N3431 N 0.28696 0.77828 0.43448 0.0
H3432 H 0.29517 0.80041 0.39711 0.0
H3433 H 0.28419 0.7865 0.40614 0.0
H3434 H 0.28379 0.77229 0.44427 0.0
H3435 H 0.28604 0.77185 0.42462 0.0
H3436 H 0.32548 0.83572 0.44702 0.0
H3437 H 0.32553 0.83673 0.42723 0.0
H3438 H 0.30962 0.83222 0.46423 0.0
H3439 H 0.30085 0.81698 0.47346 0.0
C3440 C 0.61428 0.23935 0.73403 0.0
C3441 C 0.61352 0.22728 0.72341 0.0
C3442 C 0.58606 0.22447 0.72802 0.0
C3443 C 0.58653 0.23761 0.73729 0.0
N3444 N 0.60068 0.25871 0.74785 0.0
N3445 N 0.59852 0.20947 0.70877 0.0
C3446 C 0.60055 0.24534 0.74002 0.0
C3447 C 0.59936 0.22009 0.72003 0.0
N3448 N 0.62816 0.24485 0.73864 0.0
N3449 N 0.57298 0.21594 0.7272 0.0
H3450 H 0.60802 0.20582 0.70277 0.0
H3451 H 0.58829 0.20511 0.70455 0.0
H3452 H 0.56303 0.21878 0.7329 0.0
H3453 H 0.57235 0.20537 0.72197 0.0
H3454 H 0.62958 0.2525 0.74752 0.0
H3455 H 0.63842 0.24077 0.73444 0.0
H3456 H 0.61023 0.26574 0.74881 0.0
H3457 H 0.59089 0.26343 0.75247 0.0
C3458 C 0.32055 0.09996 0.72649 0.0
C3459 C 0.31425 0.11416 0.73041 0.0
C3460 C 0.29312 0.10111 0.74344 0.0
C3461 C 0.30025 0.08699 0.7408 0.0
N3462 N 0.32186 0.07299 0.73182 0.0
N3463 N 0.29566 0.12854 0.74417 0.0
C3464 C 0.31426 0.08641 0.73283 0.0
C3465 C 0.3008 0.11482 0.73929 0.0
N3466 N 0.33235 0.09942 0.7164 0.0
N3467 N 0.27882 0.10136 0.74955 0.0
H3468 H 0.30085 0.13883 0.74117 0.0
H3469 H 0.28696 0.12971 0.75208 0.0
H3470 H 0.27288 0.09155 0.75279 0.0
H3471 H 0.27233 0.11114 0.75028 0.0
H3472 H 0.33637 0.08938 0.71179 0.0
H3473 H 0.33731 0.10913 0.71159 0.0
H3474 H 0.3329 0.07214 0.72767 0.0
H3475 H 0.31763 0.0628 0.73631 0.0
C3476 C 0.4193 0.79807 0.73587 0.0
C3477 C 0.42034 0.80757 0.72281 0.0
C3478 C 0.44822 0.8057 0.72339 0.0
C3479 C 0.44724 0.79703 0.73703 0.0
N3480 N 0.43216 0.78707 0.75775 0.0
N3481 N 0.43567 0.82277 0.70573 0.0
C3482 C 0.43285 0.79382 0.74371 0.0
C3483 C 0.43479 0.81209 0.71706 0.0
N3484 N 0.40539 0.79268 0.74047 0.0
N3485 N 0.46189 0.80729 0.71613 0.0
H3486 H 0.42607 0.82764 0.70076 0.0
H3487 H 0.44586 0.82776 0.70217 0.0
H3488 H 0.47199 0.80274 0.72034 0.0
H3489 H 0.46305 0.81199 0.7053 0.0
H3490 H 0.40399 0.78434 0.74881 0.0
H3491 H 0.39522 0.79572 0.73517 0.0
H3492 H 0.42215 0.78581 0.76395 0.0
H3493 H 0.44184 0.7838 0.76381 0.0
C3494 C 0.71916 0.93329 0.72169 0.0
C3495 C 0.72218 0.91939 0.7293 0.0
C3496 C 0.73867 0.93279 0.74758 0.0
C3497 C 0.73624 0.94656 0.7395 0.0
N3498 N 0.72676 0.95949 0.71722 0.0
N3499 N 0.73688 0.90527 0.74763 0.0
C3500 C 0.72725 0.94667 0.72604 0.0
C3501 C 0.73259 0.91896 0.7417 0.0
N3502 N 0.70813 0.93382 0.71068 0.0
N3503 N 0.74629 0.93303 0.76119 0.0
H3504 H 0.73259 0.89494 0.74363 0.0
H3505 H 0.74561 0.90405 0.75558 0.0
H3506 H 0.751 0.9429 0.76582 0.0
H3507 H 0.747 0.92369 0.76845 0.0
H3508 H 0.70414 0.9439 0.70596 0.0
H3509 H 0.70207 0.92426 0.70703 0.0
H3510 H 0.72176 0.95984 0.70647 0.0
H3511 H 0.73255 0.96949 0.72005 0.0
C3512 C 0.61476 0.79171 0.30378 0.0
C3513 C 0.61454 0.80392 0.31423 0.0
C3514 C 0.58724 0.80731 0.30939 0.0
C3515 C 0.58713 0.79405 0.3003 0.0
N3516 N 0.60028 0.77252 0.29007 0.0
N3517 N 0.60038 0.82225 0.32855 0.0
C3518 C 0.60078 0.78597 0.29776 0.0
C3519 C 0.60073 0.81147 0.31743 0.0
N3520 N 0.62838 0.78582 0.29938 0.0
N3521 N 0.57455 0.81613 0.31002 0.0
H3522 H 0.61004 0.82574 0.33459 0.0
H3523 H 0.59036 0.8269 0.33264 0.0
H3524 H 0.56447 0.81344 0.30427 0.0
H3525 H 0.57441 0.82677 0.3151 0.0
H3526 H 0.62946 0.77802 0.29061 0.0
H3527 H 0.63882 0.7897 0.30363 0.0
H3528 H 0.6095 0.76525 0.28926 0.0
H3529 H 0.59028 0.76799 0.2854 0.0
C3530 C 0.71675 0.10031 0.31098 0.0
C3531 C 0.72717 0.112 0.31519 0.0
C3532 C 0.74819 0.09778 0.3039 0.0
C3533 C 0.73802 0.08548 0.30103 0.0
N3534 N 0.71299 0.07417 0.30305 0.0
N3535 N 0.75298 0.12142 0.31723 0.0
C3536 C 0.72237 0.08653 0.30486 0.0
C3537 C 0.74295 0.11064 0.31202 0.0
N3538 N 0.70146 0.10254 0.31257 0.0
N3539 N 0.76278 0.09728 0.29854 0.0
H3540 H 0.74954 0.13116 0.3229 0.0
H3541 H 0.76475 0.12026 0.31689 0.0
H3542 H 0.76707 0.08796 0.29276 0.0
H3543 H 0.77029 0.1065 0.29876 0.0
H3544 H 0.69315 0.09521 0.30824 0.0
H3545 H 0.69697 0.11239 0.31723 0.0
H3546 H 0.70192 0.07355 0.30721 0.0
H3547 H 0.71661 0.06403 0.29827 0.0
C3548 C 0.41841 0.23083 0.29467 0.0
C3549 C 0.41898 0.22131 0.30774 0.0
C3550 C 0.44613 0.22752 0.31102 0.0
C3551 C 0.44593 0.2356 0.297 0.0
N3552 N 0.43241 0.24352 0.27443 0.0
N3553 N 0.43367 0.20898 0.32739 0.0
C3554 C 0.43219 0.23693 0.28856 0.0
C3555 C 0.43291 0.21926 0.31571 0.0
N3556 N 0.40464 0.23429 0.2883 0.0
N3557 N 0.45885 0.22805 0.32003 0.0
H3558 H 0.42423 0.20281 0.33125 0.0
H3559 H 0.44384 0.20568 0.33248 0.0
H3560 H 0.46874 0.23396 0.31695 0.0
H3561 H 0.4592 0.22376 0.33108 0.0
H3562 H 0.40329 0.24241 0.27976 0.0
H3563 H 0.39434 0.23 0.29246 0.0
H3564 H 0.42315 0.2433 0.26699 0.0
H3565 H 0.44223 0.24821 0.26961 0.0
C3566 C 0.30192 0.91973 0.29496 0.0
C3567 C 0.3128 0.92028 0.30695 0.0
C3568 C 0.30836 0.94758 0.30986 0.0
C3569 C 0.29881 0.94733 0.29678 0.0
N3570 N 0.28788 0.93361 0.27565 0.0
N3571 N 0.32795 0.93497 0.3246 0.0
C3572 C 0.2959 0.9335 0.28902 0.0
C3573 C 0.31641 0.93427 0.31411 0.0
N3574 N 0.2971 0.90599 0.28949 0.0
N3575 N 0.30938 0.96043 0.31847 0.0
H3576 H 0.33403 0.92547 0.32813 0.0
H3577 H 0.33231 0.94511 0.32891 0.0
H3578 H 0.30361 0.97037 0.31574 0.0
H3579 H 0.31483 0.96085 0.329 0.0
H3580 H 0.28805 0.9047 0.2819 0.0
H3581 H 0.30131 0.89569 0.29353 0.0
H3582 H 0.28677 0.9242 0.26859 0.0
H3583 H 0.28328 0.94344 0.27093 0.0
C3584 C 0.73088 0.11429 0.74283 0.0
C3585 C 0.72059 0.11377 0.73034 0.0
C3586 C 0.72581 0.08667 0.72704 0.0
C3587 C 0.73472 0.08682 0.74056 0.0
N3588 N 0.74438 0.10029 0.76245 0.0
N3589 N 0.70667 0.09919 0.71165 0.0
C3590 C 0.73695 0.10053 0.74874 0.0
C3591 C 0.71766 0.09989 0.72269 0.0
N3592 N 0.73511 0.128 0.74883 0.0
N3593 N 0.72548 0.074 0.71814 0.0
H3594 H 0.70055 0.10863 0.70803 0.0
H3595 H 0.70276 0.08907 0.70689 0.0
H3596 H 0.73134 0.06412 0.72094 0.0
H3597 H 0.72055 0.07369 0.70735 0.0
H3598 H 0.74376 0.12931 0.75685 0.0
H3599 H 0.73084 0.13828 0.74481 0.0
H3600 H 0.74494 0.10954 0.76976 0.0
H3601 H 0.74902 0.09047 0.76714 0.0
C3602 C 0.73337 0.91832 0.29752 0.0
C3603 C 0.71997 0.91899 0.30646 0.0
C3604 C 0.72023 0.94677 0.30442 0.0
C3605 C 0.73421 0.94616 0.2964 0.0
N3606 N 0.75547 0.93169 0.28739 0.0
N3607 N 0.70209 0.93372 0.32076 0.0
C3608 C 0.74119 0.93201 0.29354 0.0
C3609 C 0.71383 0.9332 0.31061 0.0
N3610 N 0.73835 0.90461 0.29242 0.0
N3611 N 0.71274 0.96024 0.3056 0.0
H3612 H 0.69705 0.92401 0.32547 0.0
H3613 H 0.6982 0.94374 0.32553 0.0
H3614 H 0.71702 0.97043 0.30119 0.0
H3615 H 0.70172 0.96112 0.30979 0.0
H3616 H 0.747 0.90347 0.28446 0.0
H3617 H 0.73305 0.89434 0.29528 0.0
H3618 H 0.76185 0.92185 0.28647 0.0
H3619 H 0.76152 0.94149 0.28431 0.0
C3620 C 0.61175 0.22514 0.29323 0.0
C3621 C 0.61283 0.22042 0.30867 0.0
C3622 C 0.58696 0.22957 0.31343 0.0
C3623 C 0.58612 0.23483 0.29815 0.0
N3624 N 0.59835 0.24001 0.27416 0.0
N3625 N 0.60277 0.2202 0.33412 0.0
C3626 C 0.59874 0.23334 0.28825 0.0
C3627 C 0.6008 0.22326 0.31897 0.0
N3628 N 0.62294 0.22134 0.28322 0.0
N3629 N 0.57437 0.23024 0.3225 0.0
H3630 H 0.61265 0.21536 0.33852 0.0
H3631 H 0.59516 0.22346 0.34251 0.0
H3632 H 0.56421 0.23522 0.31899 0.0
H3633 H 0.5736 0.22504 0.33314 0.0
H3634 H 0.62206 0.22283 0.2715 0.0
H3635 H 0.63281 0.2157 0.28652 0.0
H3636 H 0.60775 0.24082 0.26701 0.0
H3637 H 0.5889 0.24581 0.27001 0.0
C3638 C 0.29566 0.11457 0.3031 0.0
C3639 C 0.30518 0.11362 0.31617 0.0
C3640 C 0.30356 0.08581 0.3154 0.0
C3641 C 0.2949 0.08673 0.30174 0.0
N3642 N 0.28477 0.10177 0.28114 0.0
N3643 N 0.32047 0.09856 0.33321 0.0
C3644 C 0.29155 0.10107 0.29517 0.0
C3645 C 0.30981 0.09928 0.32185 0.0
N3646 N 0.29015 0.12834 0.29858 0.0
N3647 N 0.30527 0.0721 0.32255 0.0
H3648 H 0.32524 0.10819 0.33827 0.0
H3649 H 0.32556 0.08851 0.33672 0.0
H3650 H 0.30084 0.06197 0.31823 0.0
H3651 H 0.30996 0.07091 0.33338 0.0
H3652 H 0.2818 0.12962 0.29025 0.0
H3653 H 0.2931 0.13848 0.30396 0.0
H3654 H 0.28344 0.11181 0.27501 0.0
H3655 H 0.28157 0.09213 0.27502 0.0
C3656 C 0.4186 0.79429 0.30316 0.0
C3657 C 0.41938 0.80624 0.31391 0.0
C3658 C 0.44689 0.80887 0.30952 0.0
C3659 C 0.44639 0.79581 0.30013 0.0
N3660 N 0.43214 0.77491 0.28931 0.0
N3661 N 0.43444 0.82375 0.32887 0.0
C3662 C 0.43232 0.78823 0.29723 0.0
C3663 C 0.43357 0.81327 0.31747 0.0
N3664 N 0.40471 0.78897 0.29838 0.0
N3665 N 0.46002 0.8173 0.3105 0.0
H3666 H 0.42494 0.8274 0.33486 0.0
H3667 H 0.44468 0.82797 0.3332 0.0
H3668 H 0.46999 0.81445 0.30481 0.0
H3669 H 0.46069 0.82782 0.31583 0.0
H3670 H 0.40329 0.78142 0.2894 0.0
H3671 H 0.39446 0.79311 0.30252 0.0
H3672 H 0.42252 0.76798 0.28823 0.0
H3673 H 0.44192 0.77012 0.28476 0.0
C3674 C 0.32013 0.9357 0.7254 0.0
C3675 C 0.31401 0.92129 0.72952 0.0
C3676 C 0.29291 0.93369 0.74268 0.0
C3677 C 0.29993 0.94804 0.73991 0.0
N3678 N 0.32139 0.96266 0.73063 0.0
N3679 N 0.29568 0.90633 0.74362 0.0
C3680 C 0.31384 0.94904 0.73176 0.0
C3681 C 0.30066 0.92021 0.73855 0.0
N3682 N 0.33176 0.93663 0.71513 0.0
N3683 N 0.27867 0.93299 0.7489 0.0
H3684 H 0.30091 0.8962 0.74065 0.0
H3685 H 0.28708 0.90489 0.75164 0.0
H3686 H 0.27266 0.94261 0.75207 0.0
H3687 H 0.27226 0.92301 0.74978 0.0
H3688 H 0.33563 0.94682 0.7104 0.0
H3689 H 0.3367 0.9271 0.71029 0.0
H3690 H 0.33238 0.96382 0.72634 0.0
H3691 H 0.31722 0.97269 0.73518 0.0
C3692 C 0.59927 0.81043 0.71635 0.0
C3693 C 0.61363 0.80591 0.72218 0.0
C3694 C 0.6009 0.7925 0.74325 0.0
C3695 C 0.58655 0.79573 0.73654 0.0
N3696 N 0.57201 0.8058 0.71551 0.0
N3697 N 0.6283 0.79114 0.74002 0.0
C3698 C 0.58571 0.80421 0.72278 0.0
C3699 C 0.6145 0.79656 0.73536 0.0
N3700 N 0.59861 0.82094 0.70487 0.0
N3701 N 0.60151 0.78589 0.75736 0.0
H3702 H 0.63851 0.79406 0.73468 0.0
H3703 H 0.62954 0.7829 0.74846 0.0
H3704 H 0.5918 0.78274 0.76346 0.0
H3705 H 0.61154 0.78465 0.76357 0.0
H3706 H 0.58853 0.82594 0.70124 0.0
H3707 H 0.6083 0.82568 0.69983 0.0
H3708 H 0.5709 0.81036 0.70462 0.0
H3709 H 0.56182 0.80138 0.71981 0.0
C3710 C 0.41859 0.24157 0.73239 0.0
C3711 C 0.41897 0.22924 0.72208 0.0
C3712 C 0.44617 0.22586 0.72743 0.0
C3713 C 0.44614 0.23919 0.73642 0.0
N3714 N 0.43286 0.26086 0.74617 0.0
N3715 N 0.43333 0.21073 0.70821 0.0
C3716 C 0.43247 0.24733 0.73861 0.0
C3717 C 0.43282 0.22163 0.71921 0.0
N3718 N 0.40491 0.24753 0.73649 0.0
N3719 N 0.45887 0.21703 0.72709 0.0
H3720 H 0.42377 0.2072 0.70204 0.0
H3721 H 0.44341 0.20601 0.70435 0.0
H3722 H 0.46887 0.21978 0.73296 0.0
H3723 H 0.45911 0.20635 0.7221 0.0
H3724 H 0.40369 0.25542 0.74516 0.0
H3725 H 0.39453 0.24363 0.73209 0.0
H3726 H 0.42366 0.26817 0.74669 0.0
H3727 H 0.44277 0.26538 0.75101 0.0
C3728 C 0.71661 0.72343 0.10274 0.0
C3729 C 0.72682 0.72007 0.11482 0.0
C3730 C 0.74782 0.73211 0.10061 0.0
C3731 C 0.73792 0.73414 0.08798 0.0
N3732 N 0.71334 0.73049 0.07618 0.0
N3733 N 0.7524 0.71964 0.12487 0.0
C3734 C 0.7224 0.72951 0.08883 0.0
C3735 C 0.7425 0.72404 0.11367 0.0
N3736 N 0.70132 0.72109 0.1047 0.0
N3737 N 0.7622 0.73822 0.10023 0.0
H3738 H 0.74889 0.71404 0.13477 0.0
H3739 H 0.76419 0.72058 0.12395 0.0
H3740 H 0.76654 0.74401 0.09078 0.0
H3741 H 0.76944 0.73862 0.10963 0.0
H3742 H 0.69308 0.72479 0.09704 0.0
H3743 H 0.69672 0.71644 0.11464 0.0
H3744 H 0.70245 0.72575 0.07548 0.0
H3745 H 0.71708 0.73518 0.06592 0.0
C3746 C 0.31178 0.71461 0.09991 0.0
C3747 C 0.31078 0.72247 0.11394 0.0
C3748 C 0.3082 0.74631 0.09985 0.0
C3749 C 0.30496 0.73808 0.08638 0.0
N3750 N 0.31464 0.71683 0.07255 0.0
N3751 N 0.30773 0.74615 0.12727 0.0
C3752 C 0.30995 0.7228 0.08603 0.0
C3753 C 0.30888 0.73843 0.11392 0.0
N3754 N 0.3142 0.69932 0.09984 0.0
N3755 N 0.31391 0.76072 0.09895 0.0
H3756 H 0.30825 0.74085 0.1379 0.0
H3757 H 0.30505 0.75765 0.1276 0.0
H3758 H 0.31802 0.76507 0.08867 0.0
H3759 H 0.31738 0.76687 0.10847 0.0
H3760 H 0.3132 0.69272 0.09009 0.0
H3761 H 0.31635 0.69305 0.1097 0.0
H3762 H 0.31972 0.70627 0.07159 0.0
H3763 H 0.31511 0.72338 0.06262 0.0
C3764 C 0.28778 0.32428 0.10638 0.0
C3765 C 0.29553 0.31616 0.11802 0.0
C3766 C 0.29271 0.29303 0.10273 0.0
C3767 C 0.28865 0.30201 0.08991 0.0
N3768 N 0.28238 0.3266 0.07952 0.0
N3769 N 0.29211 0.29179 0.13012 0.0
C3770 C 0.28614 0.31776 0.09174 0.0
C3771 C 0.29449 0.30007 0.11717 0.0
N3772 N 0.27971 0.33689 0.10998 0.0
N3773 N 0.29472 0.27777 0.10123 0.0
H3774 H 0.28984 0.29703 0.14047 0.0
H3775 H 0.28991 0.28014 0.13013 0.0
H3776 H 0.29287 0.27204 0.09102 0.0
H3777 H 0.2992 0.27105 0.10993 0.0
H3778 H 0.27269 0.34248 0.10223 0.0
H3779 H 0.27835 0.34029 0.12125 0.0
H3780 H 0.28185 0.3384 0.08016 0.0
H3781 H 0.28105 0.32229 0.06856 0.0
C3782 C 0.72126 0.31625 0.10168 0.0
C3783 C 0.72847 0.31272 0.11573 0.0
C3784 C 0.74629 0.29608 0.10251 0.0
C3785 C 0.73851 0.29894 0.08861 0.0
N3786 N 0.71685 0.30926 0.07537 0.0
N3787 N 0.74591 0.29727 0.1301 0.0
C3788 C 0.72546 0.3083 0.08832 0.0
C3789 C 0.74042 0.30201 0.11631 0.0
N3790 N 0.71079 0.32761 0.101 0.0
N3791 N 0.75961 0.28818 0.10245 0.0
H3792 H 0.74191 0.30143 0.14041 0.0
H3793 H 0.75346 0.28833 0.13139 0.0
H3794 H 0.76427 0.28363 0.0926 0.0
H3795 H 0.76669 0.28711 0.11192 0.0
H3796 H 0.70645 0.33192 0.09084 0.0
H3797 H 0.70728 0.3336 0.11054 0.0
H3798 H 0.70632 0.31457 0.07489 0.0
H3799 H 0.71955 0.30358 0.06537 0.0
C3800 C 0.74472 0.30739 0.92165 0.0
C3801 C 0.7297 0.31315 0.92075 0.0
C3802 C 0.72498 0.30546 0.94722 0.0
C3803 C 0.7398 0.29921 0.94794 0.0
N3804 N 0.76297 0.29195 0.93545 0.0
N3805 N 0.70469 0.31573 0.93152 0.0
C3806 C 0.74943 0.29948 0.93501 0.0
C3807 C 0.71957 0.31159 0.93321 0.0
N3808 N 0.75461 0.30989 0.9099 0.0
N3809 N 0.71625 0.30586 0.96006 0.0
H3810 H 0.70042 0.32056 0.92154 0.0
H3811 H 0.69627 0.3134 0.93953 0.0
H3812 H 0.71959 0.30097 0.97037 0.0
H3813 H 0.70611 0.3118 0.96084 0.0
H3814 H 0.7662 0.3076 0.91049 0.0
H3815 H 0.75143 0.31521 0.89975 0.0
H3816 H 0.76976 0.29024 0.92595 0.0
H3817 H 0.76697 0.2864 0.94517 0.0
C3818 C 0.71589 0.72109 0.9355 0.0
C3819 C 0.72167 0.72584 0.92117 0.0
C3820 C 0.7424 0.73979 0.93397 0.0
C3821 C 0.73566 0.73637 0.94826 0.0
N3822 N 0.7148 0.7256 0.96265 0.0
N3823 N 0.73933 0.74105 0.90653 0.0
C3824 C 0.72211 0.72745 0.94905 0.0
C3825 C 0.73468 0.73552 0.92033 0.0
N3826 N 0.70463 0.71026 0.93616 0.0
N3827 N 0.75637 0.7468 0.93346 0.0
H3828 H 0.73415 0.73796 0.89629 0.0
H3829 H 0.74761 0.74952 0.90526 0.0
H3830 H 0.76234 0.7501 0.9432 0.0
H3831 H 0.76263 0.74824 0.92351 0.0
H3832 H 0.70106 0.70511 0.94624 0.0
H3833 H 0.69974 0.70542 0.92647 0.0
H3834 H 0.704 0.72071 0.96369 0.0
H3835 H 0.71893 0.7301 0.97283 0.0
C3836 C 0.32144 0.74338 0.93042 0.0
C3837 C 0.31977 0.72789 0.9264 0.0
C3838 C 0.31048 0.72238 0.95212 0.0
C3839 C 0.30878 0.73818 0.95476 0.0
N3840 N 0.32485 0.7603 0.95158 0.0
N3841 N 0.3128 0.70228 0.93367 0.0
C3842 C 0.31766 0.748 0.94537 0.0
C3843 C 0.31429 0.71727 0.93732 0.0
N3844 N 0.32655 0.75378 0.92 0.0
N3845 N 0.3114 0.71262 0.96419 0.0
H3846 H 0.31592 0.69799 0.9231 0.0
H3847 H 0.30742 0.69441 0.9408 0.0
H3848 H 0.31196 0.71657 0.97535 0.0
H3849 H 0.31401 0.70117 0.96308 0.0
H3850 H 0.32658 0.76542 0.92208 0.0
H3851 H 0.32954 0.75087 0.90892 0.0
H3852 H 0.33258 0.7671 0.94558 0.0
H3853 H 0.32485 0.76215 0.9633 0.0
C3854 C 0.30988 0.32003 0.93657 0.0
C3855 C 0.30599 0.31373 0.92223 0.0
C3856 C 0.29264 0.29261 0.93505 0.0
C3857 C 0.29521 0.29977 0.94929 0.0
N3858 N 0.30417 0.32149 0.96347 0.0
N3859 N 0.29206 0.29514 0.90754 0.0
C3860 C 0.3033 0.31379 0.95002 0.0
C3861 C 0.29695 0.30029 0.92138 0.0
N3862 N 0.32015 0.33178 0.93735 0.0
N3863 N 0.28647 0.2783 0.93462 0.0
H3864 H 0.29516 0.30032 0.89729 0.0
H3865 H 0.28404 0.28645 0.90623 0.0
H3866 H 0.28319 0.27233 0.94438 0.0
H3867 H 0.28575 0.27183 0.92477 0.0
H3868 H 0.32472 0.3358 0.94753 0.0
H3869 H 0.32517 0.33667 0.92773 0.0
H3870 H 0.30843 0.33252 0.96439 0.0
H3871 H 0.29941 0.31738 0.97356 0.0
C3872 C 0.6135 0.73899 0.23446 0.0
C3873 C 0.61269 0.72693 0.22382 0.0
C3874 C 0.58525 0.72414 0.22855 0.0
C3875 C 0.58576 0.7373 0.23779 0.0
N3876 N 0.59997 0.75838 0.2483 0.0
N3877 N 0.59761 0.70914 0.20924 0.0
C3878 C 0.5998 0.745 0.24048 0.0
C3879 C 0.59851 0.71975 0.2205 0.0
N3880 N 0.6274 0.74447 0.23902 0.0
N3881 N 0.57216 0.71562 0.22778 0.0
H3882 H 0.60708 0.70549 0.20319 0.0
H3883 H 0.58736 0.70479 0.20506 0.0
H3884 H 0.56223 0.71847 0.23353 0.0
H3885 H 0.57151 0.70504 0.22257 0.0
H3886 H 0.62886 0.75212 0.24791 0.0
H3887 H 0.63764 0.74036 0.2348 0.0
H3888 H 0.60954 0.7654 0.24922 0.0
H3889 H 0.59021 0.76312 0.25294 0.0
C3890 C 0.318 0.60084 0.22639 0.0
C3891 C 0.31148 0.6149 0.23044 0.0
C3892 C 0.29053 0.60143 0.24334 0.0
C3893 C 0.29789 0.58745 0.2406 0.0
N3894 N 0.31967 0.57384 0.23145 0.0
N3895 N 0.2926 0.62891 0.24419 0.0
C3896 C 0.31189 0.58714 0.23259 0.0
C3897 C 0.29799 0.6153 0.23928 0.0
N3898 N 0.32984 0.60057 0.21634 0.0
N3899 N 0.27624 0.60141 0.2495 0.0
H3900 H 0.2976 0.63929 0.2412 0.0
H3901 H 0.28387 0.6299 0.25209 0.0
H3902 H 0.27048 0.59148 0.25269 0.0
H3903 H 0.26959 0.61107 0.25033 0.0
H3904 H 0.33402 0.59064 0.21164 0.0
H3905 H 0.33468 0.61039 0.21165 0.0
H3906 H 0.33073 0.57318 0.2273 0.0
H3907 H 0.31559 0.56355 0.23583 0.0
C3908 C 0.43541 0.31868 0.22093 0.0
C3909 C 0.42445 0.30829 0.21507 0.0
C3910 C 0.44323 0.28803 0.2172 0.0
C3911 C 0.45267 0.29754 0.22634 0.0
N3912 N 0.46232 0.32316 0.22416 0.0
N3913 N 0.41787 0.28267 0.20773 0.0
C3914 C 0.45017 0.3134 0.22485 0.0
C3915 C 0.42835 0.29284 0.21323 0.0
N3916 N 0.43184 0.3336 0.22268 0.0
N3917 N 0.44937 0.27589 0.20999 0.0
H3918 H 0.40687 0.28574 0.20455 0.0
H3919 H 0.41982 0.27102 0.20756 0.0
H3920 H 0.46108 0.27396 0.21018 0.0
H3921 H 0.44338 0.26934 0.20209 0.0
H3922 H 0.43902 0.34126 0.2283 0.0
H3923 H 0.4213 0.33801 0.21956 0.0
H3924 H 0.46129 0.3347 0.22173 0.0
H3925 H 0.47346 0.31921 0.22357 0.0
C3926 C 0.71883 0.43312 0.2218 0.0
C3927 C 0.72217 0.41919 0.22924 0.0
C3928 C 0.73885 0.43265 0.24731 0.0
C3929 C 0.73613 0.44644 0.23937 0.0
N3930 N 0.7261 0.4594 0.21735 0.0
N3931 N 0.7374 0.40512 0.24715 0.0
C3932 C 0.72687 0.44654 0.22609 0.0
C3933 C 0.73282 0.41879 0.24142 0.0
N3934 N 0.70755 0.43362 0.21105 0.0
N3935 N 0.74669 0.43287 0.26079 0.0
H3936 H 0.73317 0.39477 0.24315 0.0
H3937 H 0.7463 0.40395 0.25492 0.0
H3938 H 0.75134 0.44276 0.26544 0.0
H3939 H 0.74762 0.42349 0.26797 0.0
H3940 H 0.70336 0.44369 0.2065 0.0
H3941 H 0.7015 0.42402 0.20747 0.0
H3942 H 0.72088 0.45976 0.2067 0.0
H3943 H 0.73186 0.46944 0.22011 0.0
C3944 C 0.60144 0.3112 0.81738 0.0
C3945 C 0.61528 0.3038 0.81397 0.0
C3946 C 0.60151 0.28599 0.79734 0.0
C3947 C 0.58783 0.29394 0.8001 0.0
N3948 N 0.57519 0.3158 0.81022 0.0
N3949 N 0.62913 0.28601 0.79874 0.0
C3950 C 0.58792 0.30706 0.80938 0.0
C3951 C 0.6155 0.29173 0.80334 0.0
N3952 N 0.6011 0.3218 0.82867 0.0
N3953 N 0.60104 0.27264 0.78947 0.0
H3954 H 0.63957 0.2899 0.80297 0.0
H3955 H 0.63019 0.27834 0.78985 0.0
H3956 H 0.59104 0.2681 0.78484 0.0
H3957 H 0.61031 0.26545 0.78849 0.0
H3958 H 0.59107 0.32632 0.8329 0.0
H3959 H 0.61078 0.32527 0.83469 0.0
H3960 H 0.57501 0.32637 0.81546 0.0
H3961 H 0.56508 0.31313 0.80451 0.0
C3962 C 0.72039 0.59617 0.82243 0.0
C3963 C 0.72027 0.60993 0.81394 0.0
C3964 C 0.72268 0.59524 0.79053 0.0
C3965 C 0.72702 0.58235 0.7992 0.0
N3966 N 0.71794 0.56882 0.82127 0.0
N3967 N 0.72131 0.62256 0.78947 0.0
C3968 C 0.72244 0.58219 0.8147 0.0
C3969 C 0.72139 0.60947 0.79785 0.0
N3970 N 0.71872 0.5964 0.83787 0.0
N3971 N 0.71673 0.59342 0.77631 0.0
H3972 H 0.7203 0.63327 0.79435 0.0
H3973 H 0.72345 0.6227 0.77781 0.0
H3974 H 0.71374 0.58267 0.77225 0.0
H3975 H 0.71228 0.60236 0.76994 0.0
H3976 H 0.72052 0.58691 0.84475 0.0
H3977 H 0.71643 0.60627 0.8439 0.0
H3978 H 0.71311 0.56805 0.83205 0.0
H3979 H 0.7172 0.55879 0.81501 0.0
C3980 C 0.43214 0.7192 0.81516 0.0
C3981 C 0.41821 0.72257 0.80769 0.0
C3982 C 0.43183 0.73921 0.78968 0.0
C3983 C 0.44562 0.73653 0.79771 0.0
N3984 N 0.45845 0.72652 0.81983 0.0
N3985 N 0.4042 0.73783 0.78975 0.0
C3986 C 0.44563 0.72727 0.81098 0.0
C3987 C 0.41788 0.73322 0.79551 0.0
N3988 N 0.43261 0.70788 0.82584 0.0
N3989 N 0.43214 0.747 0.77617 0.0
H3990 H 0.39378 0.73364 0.79372 0.0
H3991 H 0.40309 0.74672 0.78198 0.0
H3992 H 0.44211 0.75158 0.77153 0.0
H3993 H 0.42277 0.74792 0.76895 0.0
H3994 H 0.44271 0.7037 0.8304 0.0
H3995 H 0.42298 0.70176 0.82931 0.0
H3996 H 0.45872 0.72129 0.83048 0.0
H3997 H 0.46852 0.73232 0.81716 0.0
C3998 C 0.30185 0.4197 0.79528 0.0
C3999 C 0.31254 0.42023 0.80744 0.0
C4000 C 0.30792 0.44749 0.81044 0.0
C4001 C 0.29861 0.44728 0.79719 0.0
N4002 N 0.28805 0.43363 0.77583 0.0
N4003 N 0.32731 0.43488 0.82543 0.0
C4004 C 0.29587 0.43348 0.78932 0.0
C4005 C 0.31596 0.43419 0.81475 0.0
N4006 N 0.29718 0.40597 0.78966 0.0
N4007 N 0.30874 0.46029 0.81913 0.0
H4008 H 0.33338 0.42539 0.82901 0.0
H4009 H 0.33155 0.44501 0.82988 0.0
H4010 H 0.30298 0.47022 0.81636 0.0
H4011 H 0.314 0.46067 0.82977 0.0
H4012 H 0.28826 0.40469 0.78192 0.0
H4013 H 0.30137 0.39568 0.79373 0.0
H4014 H 0.28709 0.42426 0.76871 0.0
H4015 H 0.28348 0.44346 0.7711 0.0
C4016 C 0.71701 0.59958 0.22197 0.0
C4017 C 0.72003 0.61353 0.22947 0.0
C4018 C 0.73662 0.60043 0.24777 0.0
C4019 C 0.73428 0.58666 0.23973 0.0
N4020 N 0.72478 0.57366 0.21751 0.0
N4021 N 0.7348 0.6279 0.24764 0.0
C4022 C 0.72521 0.5864 0.22632 0.0
C4023 C 0.73049 0.61415 0.24182 0.0
N4024 N 0.70587 0.5988 0.21107 0.0
N4025 N 0.74421 0.6003 0.26139 0.0
H4026 H 0.7305 0.63815 0.24359 0.0
H4027 H 0.74356 0.62928 0.25555 0.0
H4028 H 0.7489 0.59052 0.26611 0.0
H4029 H 0.74486 0.60962 0.26861 0.0
H4030 H 0.70191 0.58863 0.20645 0.0
H4031 H 0.69971 0.60821 0.20745 0.0
H4032 H 0.71972 0.57327 0.20679 0.0
H4033 H 0.73067 0.56381 0.22031 0.0
C4034 C 0.73418 0.41845 0.79756 0.0
C4035 C 0.72055 0.41903 0.80616 0.0
C4036 C 0.72046 0.44678 0.80382 0.0
C4037 C 0.73466 0.44629 0.79618 0.0
N4038 N 0.75634 0.43204 0.78784 0.0
N4039 N 0.70211 0.43365 0.81985 0.0
C4040 C 0.74191 0.43221 0.79364 0.0
C4041 C 0.71411 0.43319 0.81 0.0
N4042 N 0.73947 0.40477 0.79274 0.0
N4043 N 0.71275 0.46015 0.80465 0.0
H4044 H 0.69709 0.42392 0.82455 0.0
H4045 H 0.69796 0.44367 0.82441 0.0
H4046 H 0.71698 0.47035 0.80022 0.0
H4047 H 0.7016 0.46091 0.80855 0.0
H4048 H 0.74834 0.40367 0.78501 0.0
H4049 H 0.73425 0.39445 0.79558 0.0
H4050 H 0.76287 0.42228 0.78718 0.0
H4051 H 0.76232 0.44188 0.7848 0.0
C4052 C 0.59951 0.7185 0.81592 0.0
C4053 C 0.61338 0.72099 0.808 0.0
C4054 C 0.6002 0.73728 0.78951 0.0
C4055 C 0.5865 0.73543 0.79791 0.0
N4056 N 0.57373 0.72685 0.82065 0.0
N4057 N 0.62771 0.73483 0.78904 0.0
C4058 C 0.58635 0.7268 0.81159 0.0
C4059 C 0.61395 0.73103 0.79532 0.0
N4060 N 0.59875 0.70778 0.82721 0.0
N4061 N 0.59993 0.74453 0.77571 0.0
H4062 H 0.63798 0.73041 0.79297 0.0
H4063 H 0.62911 0.74329 0.78083 0.0
H4064 H 0.59013 0.74934 0.77111 0.0
H4065 H 0.60912 0.7448 0.76826 0.0
H4066 H 0.58859 0.70418 0.8322 0.0
H4067 H 0.60816 0.70159 0.83084 0.0
H4068 H 0.57344 0.72213 0.83154 0.0
H4069 H 0.56389 0.73279 0.81785 0.0
C4070 C 0.29549 0.61484 0.80266 0.0
C4071 C 0.30498 0.61402 0.81575 0.0
C4072 C 0.30351 0.58619 0.81514 0.0
C4073 C 0.29489 0.58699 0.80146 0.0
N4074 N 0.28473 0.60185 0.78074 0.0
N4075 N 0.32033 0.59914 0.8329 0.0
C4076 C 0.29147 0.60127 0.79479 0.0
C4077 C 0.30968 0.59974 0.82152 0.0
N4078 N 0.28993 0.62855 0.79804 0.0
N4079 N 0.30527 0.57255 0.82239 0.0
H4080 H 0.32504 0.60883 0.83792 0.0
H4081 H 0.32547 0.58914 0.83648 0.0
H4082 H 0.3009 0.56236 0.81814 0.0
H4083 H 0.30994 0.57145 0.83325 0.0
H4084 H 0.28159 0.62974 0.78967 0.0
H4085 H 0.29282 0.63874 0.80336 0.0
H4086 H 0.28334 0.61184 0.77455 0.0
H4087 H 0.28162 0.59216 0.77467 0.0
C4088 C 0.42149 0.29076 0.81035 0.0
C4089 C 0.42052 0.30629 0.81446 0.0
C4090 C 0.44652 0.31088 0.80514 0.0
C4091 C 0.44723 0.29552 0.8004 0.0
N4092 N 0.43469 0.27147 0.79601 0.0
N4093 N 0.43085 0.33171 0.81363 0.0
C4094 C 0.43448 0.28565 0.80227 0.0
C4095 C 0.43268 0.31653 0.8112 0.0
N4096 N 0.41022 0.28081 0.81464 0.0
N4097 N 0.45925 0.31992 0.80426 0.0
H4098 H 0.42095 0.3362 0.81825 0.0
H4099 H 0.43858 0.34 0.81 0.0
H4100 H 0.46946 0.31629 0.79955 0.0
H4101 H 0.46008 0.33065 0.80909 0.0
H4102 H 0.41104 0.26909 0.8136 0.0
H4103 H 0.40039 0.28418 0.82026 0.0
H4104 H 0.42521 0.2643 0.79549 0.0
H4105 H 0.44409 0.26728 0.79021 0.0
C4106 C 0.3009 0.42079 0.23729 0.0
C4107 C 0.3142 0.42223 0.22824 0.0
C4108 C 0.31348 0.44995 0.23076 0.0
C4109 C 0.2996 0.44859 0.23893 0.0
N4110 N 0.27867 0.43302 0.24781 0.0
N4111 N 0.33159 0.43807 0.21394 0.0
C4112 C 0.29289 0.43407 0.24157 0.0
C4113 C 0.32002 0.4368 0.22424 0.0
N4114 N 0.29622 0.40677 0.24224 0.0
N4115 N 0.32076 0.46371 0.22976 0.0
H4116 H 0.3367 0.4287 0.20897 0.0
H4117 H 0.33523 0.44838 0.2093 0.0
H4118 H 0.31641 0.47361 0.23443 0.0
H4119 H 0.33172 0.46513 0.22546 0.0
H4120 H 0.28767 0.40508 0.25027 0.0
H4121 H 0.30166 0.39678 0.23917 0.0
H4122 H 0.27247 0.4229 0.2486 0.0
H4123 H 0.27247 0.44248 0.25108 0.0
C4124 C 0.59971 0.30914 0.21576 0.0
C4125 C 0.61408 0.30539 0.2221 0.0
C4126 C 0.60134 0.2927 0.2436 0.0
C4127 C 0.58704 0.29516 0.23647 0.0
N4128 N 0.57259 0.30374 0.21473 0.0
N4129 N 0.62884 0.29207 0.241 0.0
C4130 C 0.58621 0.30289 0.22228 0.0
C4131 C 0.61498 0.29678 0.23578 0.0
N4132 N 0.59897 0.31899 0.20371 0.0
N4133 N 0.60186 0.2868 0.25802 0.0
H4134 H 0.63907 0.29503 0.23571 0.0
H4135 H 0.63017 0.28434 0.24989 0.0
H4136 H 0.59211 0.2836 0.26405 0.0
H4137 H 0.61179 0.2862 0.2645 0.0
H4138 H 0.58882 0.32348 0.19961 0.0
H4139 H 0.60862 0.32373 0.19858 0.0
H4140 H 0.57153 0.30769 0.20359 0.0
H4141 H 0.56243 0.29933 0.21912 0.0
C4142 C 0.43172 0.72166 0.22023 0.0
C4143 C 0.41786 0.72909 0.22346 0.0
C4144 C 0.43145 0.74696 0.24016 0.0
C4145 C 0.44516 0.739 0.23756 0.0
N4146 N 0.4579 0.71709 0.22768 0.0
N4147 N 0.40385 0.74692 0.23849 0.0
C4148 C 0.44516 0.72583 0.22834 0.0
C4149 C 0.41752 0.74119 0.23405 0.0
N4150 N 0.43217 0.71101 0.20899 0.0
N4151 N 0.43184 0.76034 0.24798 0.0
H4152 H 0.39345 0.74301 0.23417 0.0
H4153 H 0.40269 0.75462 0.24734 0.0
H4154 H 0.4418 0.7649 0.25269 0.0
H4155 H 0.42256 0.76753 0.24884 0.0
H4156 H 0.44224 0.70647 0.20488 0.0
H4157 H 0.42255 0.7075 0.2029 0.0
H4158 H 0.45813 0.7065 0.22249 0.0
H4159 H 0.46795 0.71978 0.23348 0.0
loop_
_geom_bond_atom_site_label_1
_geom_bond_atom_site_label_2
_geom_bond_distance
_geom_bond_site_symmetry_2
_ccdc_geom_bond_type
C0 C1 1.264 . S
C0 C5 1.479 . S
C0 C10 1.465 . S
C1 C0 1.264 . S
C1 C3 1.339 . S
C1 H28 0.931 . S
C2 C3 1.395 . S
C2 C4 1.320 . S
C3 C1 1.339 . S
C3 C2 1.395 . S
C3 H29 0.929 . S
C4 C2 1.320 . S
C4 C5 1.405 . S
C4 H30 0.930 . S
C5 C0 1.479 . S
C5 C4 1.405 . S
C5 H31 0.931 . S
U6 O7 2.454 . S
U6 O8 2.458 . S
U6 C9 2.984 . S
U6 C10 2.847 . S
U6 C23 2.882 . S
U6 O24 2.441 . S
U6 O25 2.420 . S
U6 O26 2.455 . S
U6 O27 2.449 . S
O7 U6 2.454 . S
O7 C9 1.353 . S
O8 U6 2.458 . S
O8 C9 1.286 . S
C9 U6 2.984 . S
C9 O7 1.353 . S
C9 O8 1.286 . S
C9 C11 1.363 . S
C10 C0 1.465 . S
C10 U6 2.847 . S
C10 O24 1.249 . S
C10 O25 1.202 . S
C11 C9 1.363 . S
C11 C13 1.408 . S
C11 C16 1.342 . S
C12 C13 1.310 . S
C12 C15 1.461 . S
C12 H32 0.932 . S
C13 C11 1.408 . S
C13 C12 1.310 . S
C13 H33 0.930 . S
C14 C15 1.474 . S
C14 C16 1.285 . S
C14 H34 0.929 . S
C15 C12 1.461 . S
C15 C14 1.474 . S
C16 C11 1.342 . S
C16 C14 1.285 . S
C16 H35 0.930 . S
C17 C20 1.424 . S
C17 C22 1.245 . S
C17 C23 1.428 . S
C18 C21 1.260 . S
C18 C22 1.477 . S
C18 H36 0.932 . S
C19 C20 1.384 . S
C19 C21 1.479 . S
C19 H37 0.929 . S
C20 C17 1.424 . S
C20 C19 1.384 . S
C20 H38 0.928 . S
C21 C18 1.260 . S
C21 C19 1.479 . S
C22 C17 1.245 . S
C22 C18 1.477 . S
C22 H39 0.932 . S
C23 U6 2.882 . S
C23 C17 1.428 . S
C23 O26 1.301 . S
C23 O27 1.282 . S
O24 U6 2.441 . S
O24 C10 1.249 . S
O25 U6 2.420 . S
O25 C10 1.202 . S
O26 U6 2.455 . S
O26 C23 1.301 . S
O27 U6 2.449 . S
O27 C23 1.282 . S
H28 C1 0.931 . S
H29 C3 0.929 . S
H30 C4 0.930 . S
H31 C5 0.931 . S
H32 C12 0.932 . S
H33 C13 0.930 . S
H34 C14 0.929 . S
H35 C16 0.930 . S
H36 C18 0.932 . S
H37 C19 0.929 . S
H38 C20 0.928 . S
H39 C22 0.932 . S
C40 C41 1.264 . S
C40 C45 1.479 . S
C40 C50 1.465 . S
C41 C40 1.264 . S
C41 C43 1.339 . S
C41 H68 0.931 . S
C42 C43 1.395 . S
C42 C44 1.320 . S
C43 C41 1.339 . S
C43 C42 1.395 . S
C43 H69 0.929 . S
C44 C42 1.320 . S
C44 C45 1.405 . S
C44 H70 0.930 . S
C45 C40 1.479 . S
C45 C44 1.405 . S
C45 H71 0.931 . S
U46 O47 2.454 . S
U46 O48 2.458 . S
U46 C49 2.984 . S
U46 C50 2.847 . S
U46 C63 2.882 . S
U46 O64 2.441 . S
U46 O65 2.420 . S
U46 O66 2.455 . S
U46 O67 2.449 . S
O47 U46 2.454 . S
O47 C49 1.353 . S
O48 U46 2.458 . S
O48 C49 1.286 . S
C49 U46 2.984 . S
C49 O47 1.353 . S
C49 O48 1.286 . S
C49 C51 1.363 . S
C50 C40 1.465 . S
C50 U46 2.847 . S
C50 O64 1.249 . S
C50 O65 1.202 . S
C51 C49 1.363 . S
C51 C53 1.408 . S
C51 C56 1.342 . S
C52 C53 1.310 . S
C52 C55 1.461 . S
C52 H72 0.932 . S
C53 C51 1.408 . S
C53 C52 1.310 . S
C53 H73 0.930 . S
C54 C55 1.474 . S
C54 C56 1.285 . S
C54 H74 0.929 . S
C55 C52 1.461 . S
C55 C54 1.474 . S
C56 C51 1.342 . S
C56 C54 1.285 . S
C56 H75 0.930 . S
C57 C60 1.424 . S
C57 C62 1.245 . S
C57 C63 1.428 . S
C58 C61 1.260 . S
C58 C62 1.477 . S
C58 H76 0.932 . S
C59 C60 1.384 . S
C59 C61 1.479 . S
C59 H77 0.929 . S
C60 C57 1.424 . S
C60 C59 1.384 . S
C60 H78 0.928 . S
C61 C58 1.260 . S
C61 C59 1.479 . S
C62 C57 1.245 . S
C62 C58 1.477 . S
C62 H79 0.932 . S
C63 U46 2.882 . S
C63 C57 1.428 . S
C63 O66 1.301 . S
C63 O67 1.282 . S
O64 U46 2.441 . S
O64 C50 1.249 . S
O65 U46 2.420 . S
O65 C50 1.202 . S
O66 U46 2.455 . S
O66 C63 1.301 . S
O67 U46 2.449 . S
O67 C63 1.282 . S
H68 C41 0.931 . S
H69 C43 0.929 . S
H70 C44 0.930 . S
H71 C45 0.931 . S
H72 C52 0.932 . S
H73 C53 0.930 . S
H74 C54 0.929 . S
H75 C56 0.930 . S
H76 C58 0.932 . S
H77 C59 0.929 . S
H78 C60 0.928 . S
H79 C62 0.932 . S
C80 C81 1.264 . S
C80 C85 1.479 . S
C80 C90 1.465 . S
C81 C80 1.264 . S
C81 C83 1.339 . S
C81 H108 0.931 . S
C82 C83 1.395 . S
C82 C84 1.320 . S
C83 C81 1.339 . S
C83 C82 1.395 . S
C83 H109 0.929 . S
C84 C82 1.320 . S
C84 C85 1.405 . S
C84 H110 0.930 . S
C85 C80 1.479 . S
C85 C84 1.405 . S
C85 H111 0.931 . S
U86 O87 2.454 . S
U86 O88 2.458 . S
U86 C89 2.984 . S
U86 C90 2.847 . S
U86 C103 2.882 . S
U86 O104 2.441 . S
U86 O105 2.420 . S
U86 O106 2.455 . S
U86 O107 2.449 . S
O87 U86 2.454 . S
O87 C89 1.353 . S
O88 U86 2.458 . S
O88 C89 1.286 . S
C89 U86 2.984 . S
C89 O87 1.353 . S
C89 O88 1.286 . S
C89 C91 1.363 . S
C90 C80 1.465 . S
C90 U86 2.847 . S
C90 O104 1.249 . S
C90 O105 1.202 . S
C91 C89 1.363 . S
C91 C93 1.408 . S
C91 C96 1.342 . S
C92 C93 1.310 . S
C92 C95 1.461 . S
C92 H112 0.932 . S
C93 C91 1.408 . S
C93 C92 1.310 . S
C93 H113 0.930 . S
C94 C95 1.474 . S
C94 C96 1.285 . S
C94 H114 0.929 . S
C95 C92 1.461 . S
C95 C94 1.474 . S
C96 C91 1.342 . S
C96 C94 1.285 . S
C96 H115 0.930 . S
C97 C100 1.424 . S
C97 C102 1.245 . S
C97 C103 1.428 . S
C98 C101 1.260 . S
C98 C102 1.477 . S
C98 H116 0.932 . S
C99 C100 1.384 . S
C99 C101 1.479 . S
C99 H117 0.929 . S
C100 C97 1.424 . S
C100 C99 1.384 . S
C100 H118 0.928 . S
C101 C98 1.260 . S
C101 C99 1.479 . S
C102 C97 1.245 . S
C102 C98 1.477 . S
C102 H119 0.932 . S
C103 U86 2.882 . S
C103 C97 1.428 . S
C103 O106 1.301 . S
C103 O107 1.282 . S
O104 U86 2.441 . S
O104 C90 1.249 . S
O105 U86 2.420 . S
O105 C90 1.202 . S
O106 U86 2.455 . S
O106 C103 1.301 . S
O107 U86 2.449 . S
O107 C103 1.282 . S
H108 C81 0.931 . S
H109 C83 0.929 . S
H110 C84 0.930 . S
H111 C85 0.931 . S
H112 C92 0.932 . S
H113 C93 0.930 . S
H114 C94 0.929 . S
H115 C96 0.930 . S
H116 C98 0.932 . S
H117 C99 0.929 . S
H118 C100 0.928 . S
H119 C102 0.932 . S
C120 C121 1.264 . S
C120 C125 1.479 . S
C120 C130 1.465 . S
C121 C120 1.264 . S
C121 C123 1.339 . S
C121 H148 0.931 . S
C122 C123 1.395 . S
C122 C124 1.320 . S
C123 C121 1.339 . S
C123 C122 1.395 . S
C123 H149 0.929 . S
C124 C122 1.320 . S
C124 C125 1.405 . S
C124 H150 0.930 . S
C125 C120 1.479 . S
C125 C124 1.405 . S
C125 H151 0.931 . S
U126 O127 2.454 . S
U126 O128 2.458 . S
U126 C129 2.984 . S
U126 C130 2.847 . S
U126 C143 2.882 . S
U126 O144 2.441 . S
U126 O145 2.420 . S
U126 O146 2.455 . S
U126 O147 2.449 . S
O127 U126 2.454 . S
O127 C129 1.353 . S
O128 U126 2.458 . S
O128 C129 1.286 . S
C129 U126 2.984 . S
C129 O127 1.353 . S
C129 O128 1.286 . S
C129 C131 1.363 . S
C130 C120 1.465 . S
C130 U126 2.847 . S
C130 O144 1.249 . S
C130 O145 1.202 . S
C131 C129 1.363 . S
C131 C133 1.408 . S
C131 C136 1.342 . S
C132 C133 1.310 . S
C132 C135 1.461 . S
C132 H152 0.932 . S
C133 C131 1.408 . S
C133 C132 1.310 . S
C133 H153 0.930 . S
C134 C135 1.474 . S
C134 C136 1.285 . S
C134 H154 0.929 . S
C135 C132 1.461 . S
C135 C134 1.474 . S
C136 C131 1.342 . S
C136 C134 1.285 . S
C136 H155 0.930 . S
C137 C140 1.424 . S
C137 C142 1.245 . S
C137 C143 1.428 . S
C138 C141 1.260 . S
C138 C142 1.477 . S
C138 H156 0.932 . S
C139 C140 1.384 . S
C139 C141 1.479 . S
C139 H157 0.929 . S
C140 C137 1.424 . S
C140 C139 1.384 . S
C140 H158 0.928 . S
C141 C138 1.260 . S
C141 C139 1.479 . S
C142 C137 1.245 . S
C142 C138 1.477 . S
C142 H159 0.932 . S
C143 U126 2.882 . S
C143 C137 1.428 . S
C143 O146 1.301 . S
C143 O147 1.282 . S
O144 U126 2.441 . S
O144 C130 1.249 . S
O145 U126 2.420 . S
O145 C130 1.202 . S
O146 U126 2.455 . S
O146 C143 1.301 . S
O147 U126 2.449 . S
O147 C143 1.282 . S
H148 C121 0.931 . S
H149 C123 0.929 . S
H150 C124 0.930 . S
H151 C125 0.931 . S
H152 C132 0.932 . S
H153 C133 0.930 . S
H154 C134 0.929 . S
H155 C136 0.930 . S
H156 C138 0.932 . S
H157 C139 0.929 . S
H158 C140 0.928 . S
H159 C142 0.932 . S
C160 C161 1.264 . S
C160 C165 1.479 . S
C160 C170 1.465 . S
C161 C160 1.264 . S
C161 C163 1.339 . S
C161 H188 0.931 . S
C162 C163 1.395 . S
C162 C164 1.320 . S
C163 C161 1.339 . S
C163 C162 1.395 . S
C163 H189 0.929 . S
C164 C162 1.320 . S
C164 C165 1.405 . S
C164 H190 0.930 . S
C165 C160 1.479 . S
C165 C164 1.405 . S
C165 H191 0.931 . S
U166 O167 2.454 . S
U166 O168 2.458 . S
U166 C169 2.984 . S
U166 C170 2.847 . S
U166 C183 2.882 . S
U166 O184 2.441 . S
U166 O185 2.420 . S
U166 O186 2.455 . S
U166 O187 2.449 . S
O167 U166 2.454 . S
O167 C169 1.353 . S
O168 U166 2.458 . S
O168 C169 1.286 . S
C169 U166 2.984 . S
C169 O167 1.353 . S
C169 O168 1.286 . S
C169 C171 1.363 . S
C170 C160 1.465 . S
C170 U166 2.847 . S
C170 O184 1.249 . S
C170 O185 1.202 . S
C171 C169 1.363 . S
C171 C173 1.408 . S
C171 C176 1.342 . S
C172 C173 1.310 . S
C172 C175 1.461 . S
C172 H192 0.932 . S
C173 C171 1.408 . S
C173 C172 1.310 . S
C173 H193 0.930 . S
C174 C175 1.474 . S
C174 C176 1.285 . S
C174 H194 0.929 . S
C175 C172 1.461 . S
C175 C174 1.474 . S
C176 C171 1.342 . S
C176 C174 1.285 . S
C176 H195 0.930 . S
C177 C180 1.424 . S
C177 C182 1.245 . S
C177 C183 1.428 . S
C178 C181 1.260 . S
C178 C182 1.477 . S
C178 H196 0.932 . S
C179 C180 1.384 . S
C179 C181 1.479 . S
C179 H197 0.929 . S
C180 C177 1.424 . S
C180 C179 1.384 . S
C180 H198 0.928 . S
C181 C178 1.260 . S
C181 C179 1.479 . S
C182 C177 1.245 . S
C182 C178 1.477 . S
C182 H199 0.932 . S
C183 U166 2.882 . S
C183 C177 1.428 . S
C183 O186 1.301 . S
C183 O187 1.282 . S
O184 U166 2.441 . S
O184 C170 1.249 . S
O185 U166 2.420 . S
O185 C170 1.202 . S
O186 U166 2.455 . S
O186 C183 1.301 . S
O187 U166 2.449 . S
O187 C183 1.282 . S
H188 C161 0.931 . S
H189 C163 0.929 . S
H190 C164 0.930 . S
H191 C165 0.931 . S
H192 C172 0.932 . S
H193 C173 0.930 . S
H194 C174 0.929 . S
H195 C176 0.930 . S
H196 C178 0.932 . S
H197 C179 0.929 . S
H198 C180 0.928 . S
H199 C182 0.932 . S
C200 C201 1.264 . S
C200 C205 1.479 . S
C200 C210 1.465 . S
C201 C200 1.264 . S
C201 C203 1.339 . S
C201 H228 0.931 . S
C202 C203 1.395 . S
C202 C204 1.320 . S
C203 C201 1.339 . S
C203 C202 1.395 . S
C203 H229 0.929 . S
C204 C202 1.320 . S
C204 C205 1.405 . S
C204 H230 0.930 . S
C205 C200 1.479 . S
C205 C204 1.405 . S
C205 H231 0.931 . S
U206 O207 2.454 . S
U206 O208 2.458 . S
U206 C209 2.984 . S
U206 C210 2.847 . S
U206 C223 2.882 . S
U206 O224 2.441 . S
U206 O225 2.420 . S
U206 O226 2.455 . S
U206 O227 2.449 . S
O207 U206 2.454 . S
O207 C209 1.353 . S
O208 U206 2.458 . S
O208 C209 1.286 . S
C209 U206 2.984 . S
C209 O207 1.353 . S
C209 O208 1.286 . S
C209 C211 1.363 . S
C210 C200 1.465 . S
C210 U206 2.847 . S
C210 O224 1.249 . S
C210 O225 1.202 . S
C211 C209 1.363 . S
C211 C213 1.408 . S
C211 C216 1.342 . S
C212 C213 1.310 . S
C212 C215 1.461 . S
C212 H232 0.932 . S
C213 C211 1.408 . S
C213 C212 1.310 . S
C213 H233 0.930 . S
C214 C215 1.474 . S
C214 C216 1.285 . S
C214 H234 0.929 . S
C215 C212 1.461 . S
C215 C214 1.474 . S
C216 C211 1.342 . S
C216 C214 1.285 . S
C216 H235 0.930 . S
C217 C220 1.424 . S
C217 C222 1.245 . S
C217 C223 1.428 . S
C218 C221 1.260 . S
C218 C222 1.477 . S
C218 H236 0.932 . S
C219 C220 1.384 . S
C219 C221 1.479 . S
C219 H237 0.929 . S
C220 C217 1.424 . S
C220 C219 1.384 . S
C220 H238 0.928 . S
C221 C218 1.260 . S
C221 C219 1.479 . S
C222 C217 1.245 . S
C222 C218 1.477 . S
C222 H239 0.932 . S
C223 U206 2.882 . S
C223 C217 1.428 . S
C223 O226 1.301 . S
C223 O227 1.282 . S
O224 U206 2.441 . S
O224 C210 1.249 . S
O225 U206 2.420 . S
O225 C210 1.202 . S
O226 U206 2.455 . S
O226 C223 1.301 . S
O227 U206 2.449 . S
O227 C223 1.282 . S
H228 C201 0.931 . S
H229 C203 0.929 . S
H230 C204 0.930 . S
H231 C205 0.931 . S
H232 C212 0.932 . S
H233 C213 0.930 . S
H234 C214 0.929 . S
H235 C216 0.930 . S
H236 C218 0.932 . S
H237 C219 0.929 . S
H238 C220 0.928 . S
H239 C222 0.932 . S
C240 C241 1.264 . S
C240 C245 1.479 . S
C240 C250 1.465 . S
C241 C240 1.264 . S
C241 C243 1.339 . S
C241 H268 0.931 . S
C242 C243 1.395 . S
C242 C244 1.320 . S
C243 C241 1.339 . S
C243 C242 1.395 . S
C243 H269 0.929 . S
C244 C242 1.320 . S
C244 C245 1.405 . S
C244 H270 0.930 . S
C245 C240 1.479 . S
C245 C244 1.405 . S
C245 H271 0.931 . S
U246 O247 2.454 . S
U246 O248 2.458 . S
U246 C249 2.984 . S
U246 C250 2.847 . S
U246 C263 2.882 . S
U246 O264 2.441 . S
U246 O265 2.420 . S
U246 O266 2.455 . S
U246 O267 2.449 . S
O247 U246 2.454 . S
O247 C249 1.353 . S
O248 U246 2.458 . S
O248 C249 1.286 . S
C249 U246 2.984 . S
C249 O247 1.353 . S
C249 O248 1.286 . S
C249 C251 1.363 . S
C250 C240 1.465 . S
C250 U246 2.847 . S
C250 O264 1.249 . S
C250 O265 1.202 . S
C251 C249 1.363 . S
C251 C253 1.408 . S
C251 C256 1.342 . S
C252 C253 1.310 . S
C252 C255 1.461 . S
C252 H272 0.932 . S
C253 C251 1.408 . S
C253 C252 1.310 . S
C253 H273 0.930 . S
C254 C255 1.474 . S
C254 C256 1.285 . S
C254 H274 0.929 . S
C255 C252 1.461 . S
C255 C254 1.474 . S
C256 C251 1.342 . S
C256 C254 1.285 . S
C256 H275 0.930 . S
C257 C260 1.424 . S
C257 C262 1.245 . S
C257 C263 1.428 . S
C258 C261 1.260 . S
C258 C262 1.477 . S
C258 H276 0.932 . S
C259 C260 1.384 . S
C259 C261 1.479 . S
C259 H277 0.929 . S
C260 C257 1.424 . S
C260 C259 1.384 . S
C260 H278 0.928 . S
C261 C258 1.260 . S
C261 C259 1.479 . S
C262 C257 1.245 . S
C262 C258 1.477 . S
C262 H279 0.932 . S
C263 U246 2.882 . S
C263 C257 1.428 . S
C263 O266 1.301 . S
C263 O267 1.282 . S
O264 U246 2.441 . S
O264 C250 1.249 . S
O265 U246 2.420 . S
O265 C250 1.202 . S
O266 U246 2.455 . S
O266 C263 1.301 . S
O267 U246 2.449 . S
O267 C263 1.282 . S
H268 C241 0.931 . S
H269 C243 0.929 . S
H270 C244 0.930 . S
H271 C245 0.931 . S
H272 C252 0.932 . S
H273 C253 0.930 . S
H274 C254 0.929 . S
H275 C256 0.930 . S
H276 C258 0.932 . S
H277 C259 0.929 . S
H278 C260 0.928 . S
H279 C262 0.932 . S
C280 C281 1.264 . S
C280 C285 1.479 . S
C280 C290 1.465 . S
C281 C280 1.264 . S
C281 C283 1.339 . S
C281 H308 0.931 . S
C282 C283 1.395 . S
C282 C284 1.320 . S
C283 C281 1.339 . S
C283 C282 1.395 . S
C283 H309 0.929 . S
C284 C282 1.320 . S
C284 C285 1.405 . S
C284 H310 0.930 . S
C285 C280 1.479 . S
C285 C284 1.405 . S
C285 H311 0.931 . S
U286 O287 2.454 . S
U286 O288 2.458 . S
U286 C289 2.984 . S
U286 C290 2.847 . S
U286 C303 2.882 . S
U286 O304 2.441 . S
U286 O305 2.420 . S
U286 O306 2.455 . S
U286 O307 2.449 . S
O287 U286 2.454 . S
O287 C289 1.353 . S
O288 U286 2.458 . S
O288 C289 1.286 . S
C289 U286 2.984 . S
C289 O287 1.353 . S
C289 O288 1.286 . S
C289 C291 1.363 . S
C290 C280 1.465 . S
C290 U286 2.847 . S
C290 O304 1.249 . S
C290 O305 1.202 . S
C291 C289 1.363 . S
C291 C293 1.408 . S
C291 C296 1.342 . S
C292 C293 1.310 . S
C292 C295 1.461 . S
C292 H312 0.932 . S
C293 C291 1.408 . S
C293 C292 1.310 . S
C293 H313 0.930 . S
C294 C295 1.474 . S
C294 C296 1.285 . S
C294 H314 0.929 . S
C295 C292 1.461 . S
C295 C294 1.474 . S
C296 C291 1.342 . S
C296 C294 1.285 . S
C296 H315 0.930 . S
C297 C300 1.424 . S
C297 C302 1.245 . S
C297 C303 1.428 . S
C298 C301 1.260 . S
C298 C302 1.477 . S
C298 H316 0.932 . S
C299 C300 1.384 . S
C299 C301 1.479 . S
C299 H317 0.929 . S
C300 C297 1.424 . S
C300 C299 1.384 . S
C300 H318 0.928 . S
C301 C298 1.260 . S
C301 C299 1.479 . S
C302 C297 1.245 . S
C302 C298 1.477 . S
C302 H319 0.932 . S
C303 U286 2.882 . S
C303 C297 1.428 . S
C303 O306 1.301 . S
C303 O307 1.282 . S
O304 U286 2.441 . S
O304 C290 1.249 . S
O305 U286 2.420 . S
O305 C290 1.202 . S
O306 U286 2.455 . S
O306 C303 1.301 . S
O307 U286 2.449 . S
O307 C303 1.282 . S
H308 C281 0.931 . S
H309 C283 0.929 . S
H310 C284 0.930 . S
H311 C285 0.931 . S
H312 C292 0.932 . S
H313 C293 0.930 . S
H314 C294 0.929 . S
H315 C296 0.930 . S
H316 C298 0.932 . S
H317 C299 0.929 . S
H318 C300 0.928 . S
H319 C302 0.932 . S
C320 C321 1.264 . S
C320 C325 1.479 . S
C320 C330 1.465 . S
C321 C320 1.264 . S
C321 C323 1.339 . S
C321 H348 0.931 . S
C322 C323 1.395 . S
C322 C324 1.320 . S
C323 C321 1.339 . S
C323 C322 1.395 . S
C323 H349 0.929 . S
C324 C322 1.320 . S
C324 C325 1.405 . S
C324 H350 0.930 . S
C325 C320 1.479 . S
C325 C324 1.405 . S
C325 H351 0.931 . S
U326 O327 2.454 . S
U326 O328 2.458 . S
U326 C329 2.984 . S
U326 C330 2.847 . S
U326 C343 2.882 . S
U326 O344 2.441 . S
U326 O345 2.420 . S
U326 O346 2.455 . S
U326 O347 2.449 . S
O327 U326 2.454 . S
O327 C329 1.353 . S
O328 U326 2.458 . S
O328 C329 1.286 . S
C329 U326 2.984 . S
C329 O327 1.353 . S
C329 O328 1.286 . S
C329 C331 1.363 . S
C330 C320 1.465 . S
C330 U326 2.847 . S
C330 O344 1.249 . S
C330 O345 1.202 . S
C331 C329 1.363 . S
C331 C333 1.408 . S
C331 C336 1.342 . S
C332 C333 1.310 . S
C332 C335 1.461 . S
C332 H352 0.932 . S
C333 C331 1.408 . S
C333 C332 1.310 . S
C333 H353 0.930 . S
C334 C335 1.474 . S
C334 C336 1.285 . S
C334 H354 0.929 . S
C335 C332 1.461 . S
C335 C334 1.474 . S
C336 C331 1.342 . S
C336 C334 1.285 . S
C336 H355 0.930 . S
C337 C340 1.424 . S
C337 C342 1.245 . S
C337 C343 1.428 . S
C338 C341 1.260 . S
C338 C342 1.477 . S
C338 H356 0.932 . S
C339 C340 1.384 . S
C339 C341 1.479 . S
C339 H357 0.929 . S
C340 C337 1.424 . S
C340 C339 1.384 . S
C340 H358 0.928 . S
C341 C338 1.260 . S
C341 C339 1.479 . S
C342 C337 1.245 . S
C342 C338 1.477 . S
C342 H359 0.932 . S
C343 U326 2.882 . S
C343 C337 1.428 . S
C343 O346 1.301 . S
C343 O347 1.282 . S
O344 U326 2.441 . S
O344 C330 1.249 . S
O345 U326 2.420 . S
O345 C330 1.202 . S
O346 U326 2.455 . S
O346 C343 1.301 . S
O347 U326 2.449 . S
O347 C343 1.282 . S
H348 C321 0.931 . S
H349 C323 0.929 . S
H350 C324 0.930 . S
H351 C325 0.931 . S
H352 C332 0.932 . S
H353 C333 0.930 . S
H354 C334 0.929 . S
H355 C336 0.930 . S
H356 C338 0.932 . S
H357 C339 0.929 . S
H358 C340 0.928 . S
H359 C342 0.932 . S
C360 C361 1.264 . S
C360 C365 1.479 . S
C360 C370 1.465 . S
C361 C360 1.264 . S
C361 C363 1.339 . S
C361 H388 0.931 . S
C362 C363 1.395 . S
C362 C364 1.320 . S
C363 C361 1.339 . S
C363 C362 1.395 . S
C363 H389 0.929 . S
C364 C362 1.320 . S
C364 C365 1.405 . S
C364 H390 0.930 . S
C365 C360 1.479 . S
C365 C364 1.405 . S
C365 H391 0.931 . S
U366 O367 2.454 . S
U366 O368 2.458 . S
U366 C369 2.984 . S
U366 C370 2.847 . S
U366 C383 2.882 . S
U366 O384 2.441 . S
U366 O385 2.420 . S
U366 O386 2.455 . S
U366 O387 2.449 . S
O367 U366 2.454 . S
O367 C369 1.353 . S
O368 U366 2.458 . S
O368 C369 1.286 . S
C369 U366 2.984 . S
C369 O367 1.353 . S
C369 O368 1.286 . S
C369 C371 1.363 . S
C370 C360 1.465 . S
C370 U366 2.847 . S
C370 O384 1.249 . S
C370 O385 1.202 . S
C371 C369 1.363 . S
C371 C373 1.408 . S
C371 C376 1.342 . S
C372 C373 1.310 . S
C372 C375 1.461 . S
C372 H392 0.932 . S
C373 C371 1.408 . S
C373 C372 1.310 . S
C373 H393 0.930 . S
C374 C375 1.474 . S
C374 C376 1.285 . S
C374 H394 0.929 . S
C375 C372 1.461 . S
C375 C374 1.474 . S
C376 C371 1.342 . S
C376 C374 1.285 . S
C376 H395 0.930 . S
C377 C380 1.424 . S
C377 C382 1.245 . S
C377 C383 1.428 . S
C378 C381 1.260 . S
C378 C382 1.477 . S
C378 H396 0.932 . S
C379 C380 1.384 . S
C379 C381 1.479 . S
C379 H397 0.929 . S
C380 C377 1.424 . S
C380 C379 1.384 . S
C380 H398 0.928 . S
C381 C378 1.260 . S
C381 C379 1.479 . S
C382 C377 1.245 . S
C382 C378 1.477 . S
C382 H399 0.932 . S
C383 U366 2.882 . S
C383 C377 1.428 . S
C383 O386 1.301 . S
C383 O387 1.282 . S
O384 U366 2.441 . S
O384 C370 1.249 . S
O385 U366 2.420 . S
O385 C370 1.202 . S
O386 U366 2.455 . S
O386 C383 1.301 . S
O387 U366 2.449 . S
O387 C383 1.282 . S
H388 C361 0.931 . S
H389 C363 0.929 . S
H390 C364 0.930 . S
H391 C365 0.931 . S
H392 C372 0.932 . S
H393 C373 0.930 . S
H394 C374 0.929 . S
H395 C376 0.930 . S
H396 C378 0.932 . S
H397 C379 0.929 . S
H398 C380 0.928 . S
H399 C382 0.932 . S
C400 C401 1.264 . S
C400 C405 1.479 . S
C400 C410 1.465 . S
C401 C400 1.264 . S
C401 C403 1.339 . S
C401 H428 0.931 . S
C402 C403 1.395 . S
C402 C404 1.320 . S
C403 C401 1.339 . S
C403 C402 1.395 . S
C403 H429 0.929 . S
C404 C402 1.320 . S
C404 C405 1.405 . S
C404 H430 0.930 . S
C405 C400 1.479 . S
C405 C404 1.405 . S
C405 H431 0.931 . S
U406 O407 2.454 . S
U406 O408 2.458 . S
U406 C409 2.984 . S
U406 C410 2.847 . S
U406 C423 2.882 . S
U406 O424 2.441 . S
U406 O425 2.420 . S
U406 O426 2.455 . S
U406 O427 2.449 . S
O407 U406 2.454 . S
O407 C409 1.353 . S
O408 U406 2.458 . S
O408 C409 1.286 . S
C409 U406 2.984 . S
C409 O407 1.353 . S
C409 O408 1.286 . S
C409 C411 1.363 . S
C410 C400 1.465 . S
C410 U406 2.847 . S
C410 O424 1.249 . S
C410 O425 1.202 . S
C411 C409 1.363 . S
C411 C413 1.408 . S
C411 C416 1.342 . S
C412 C413 1.310 . S
C412 C415 1.461 . S
C412 H432 0.932 . S
C413 C411 1.408 . S
C413 C412 1.310 . S
C413 H433 0.930 . S
C414 C415 1.474 . S
C414 C416 1.285 . S
C414 H434 0.929 . S
C415 C412 1.461 . S
C415 C414 1.474 . S
C416 C411 1.342 . S
C416 C414 1.285 . S
C416 H435 0.930 . S
C417 C420 1.424 . S
C417 C422 1.245 . S
C417 C423 1.428 . S
C418 C421 1.260 . S
C418 C422 1.477 . S
C418 H436 0.932 . S
C419 C420 1.384 . S
C419 C421 1.479 . S
C419 H437 0.929 . S
C420 C417 1.424 . S
C420 C419 1.384 . S
C420 H438 0.928 . S
C421 C418 1.260 . S
C421 C419 1.479 . S
C422 C417 1.245 . S
C422 C418 1.477 . S
C422 H439 0.932 . S
C423 U406 2.882 . S
C423 C417 1.428 . S
C423 O426 1.301 . S
C423 O427 1.282 . S
O424 U406 2.441 . S
O424 C410 1.249 . S
O425 U406 2.420 . S
O425 C410 1.202 . S
O426 U406 2.455 . S
O426 C423 1.301 . S
O427 U406 2.449 . S
O427 C423 1.282 . S
H428 C401 0.931 . S
H429 C403 0.929 . S
H430 C404 0.930 . S
H431 C405 0.931 . S
H432 C412 0.932 . S
H433 C413 0.930 . S
H434 C414 0.929 . S
H435 C416 0.930 . S
H436 C418 0.932 . S
H437 C419 0.929 . S
H438 C420 0.928 . S
H439 C422 0.932 . S
C440 C441 1.264 . S
C440 C445 1.479 . S
C440 C450 1.465 . S
C441 C440 1.264 . S
C441 C443 1.339 . S
C441 H468 0.931 . S
C442 C443 1.395 . S
C442 C444 1.320 . S
C443 C441 1.339 . S
C443 C442 1.395 . S
C443 H469 0.929 . S
C444 C442 1.320 . S
C444 C445 1.405 . S
C444 H470 0.930 . S
C445 C440 1.479 . S
C445 C444 1.405 . S
C445 H471 0.931 . S
U446 O447 2.454 . S
U446 O448 2.458 . S
U446 C449 2.984 . S
U446 C450 2.847 . S
U446 C463 2.882 . S
U446 O464 2.441 . S
U446 O465 2.420 . S
U446 O466 2.455 . S
U446 O467 2.449 . S
O447 U446 2.454 . S
O447 C449 1.353 . S
O448 U446 2.458 . S
O448 C449 1.286 . S
C449 U446 2.984 . S
C449 O447 1.353 . S
C449 O448 1.286 . S
C449 C451 1.363 . S
C450 C440 1.465 . S
C450 U446 2.847 . S
C450 O464 1.249 . S
C450 O465 1.202 . S
C451 C449 1.363 . S
C451 C453 1.408 . S
C451 C456 1.342 . S
C452 C453 1.310 . S
C452 C455 1.461 . S
C452 H472 0.932 . S
C453 C451 1.408 . S
C453 C452 1.310 . S
C453 H473 0.930 . S
C454 C455 1.474 . S
C454 C456 1.285 . S
C454 H474 0.929 . S
C455 C452 1.461 . S
C455 C454 1.474 . S
C456 C451 1.342 . S
C456 C454 1.285 . S
C456 H475 0.930 . S
C457 C460 1.424 . S
C457 C462 1.245 . S
C457 C463 1.428 . S
C458 C461 1.260 . S
C458 C462 1.477 . S
C458 H476 0.932 . S
C459 C460 1.384 . S
C459 C461 1.479 . S
C459 H477 0.929 . S
C460 C457 1.424 . S
C460 C459 1.384 . S
C460 H478 0.928 . S
C461 C458 1.260 . S
C461 C459 1.479 . S
C462 C457 1.245 . S
C462 C458 1.477 . S
C462 H479 0.932 . S
C463 U446 2.882 . S
C463 C457 1.428 . S
C463 O466 1.301 . S
C463 O467 1.282 . S
O464 U446 2.441 . S
O464 C450 1.249 . S
O465 U446 2.420 . S
O465 C450 1.202 . S
O466 U446 2.455 . S
O466 C463 1.301 . S
O467 U446 2.449 . S
O467 C463 1.282 . S
H468 C441 0.931 . S
H469 C443 0.929 . S
H470 C444 0.930 . S
H471 C445 0.931 . S
H472 C452 0.932 . S
H473 C453 0.930 . S
H474 C454 0.929 . S
H475 C456 0.930 . S
H476 C458 0.932 . S
H477 C459 0.929 . S
H478 C460 0.928 . S
H479 C462 0.932 . S
C480 C481 1.264 . S
C480 C485 1.479 . S
C480 C490 1.465 . S
C481 C480 1.264 . S
C481 C483 1.339 . S
C481 H508 0.931 . S
C482 C483 1.395 . S
C482 C484 1.320 . S
C483 C481 1.339 . S
C483 C482 1.395 . S
C483 H509 0.929 . S
C484 C482 1.320 . S
C484 C485 1.405 . S
C484 H510 0.930 . S
C485 C480 1.479 . S
C485 C484 1.405 . S
C485 H511 0.931 . S
U486 O487 2.454 . S
U486 O488 2.458 . S
U486 C489 2.984 . S
U486 C490 2.847 . S
U486 C503 2.882 . S
U486 O504 2.441 . S
U486 O505 2.420 . S
U486 O506 2.455 . S
U486 O507 2.449 . S
O487 U486 2.454 . S
O487 C489 1.353 . S
O488 U486 2.458 . S
O488 C489 1.286 . S
C489 U486 2.984 . S
C489 O487 1.353 . S
C489 O488 1.286 . S
C489 C491 1.363 . S
C490 C480 1.465 . S
C490 U486 2.847 . S
C490 O504 1.249 . S
C490 O505 1.202 . S
C491 C489 1.363 . S
C491 C493 1.408 . S
C491 C496 1.342 . S
C492 C493 1.310 . S
C492 C495 1.461 . S
C492 H512 0.932 . S
C493 C491 1.408 . S
C493 C492 1.310 . S
C493 H513 0.930 . S
C494 C495 1.474 . S
C494 C496 1.285 . S
C494 H514 0.929 . S
C495 C492 1.461 . S
C495 C494 1.474 . S
C496 C491 1.342 . S
C496 C494 1.285 . S
C496 H515 0.930 . S
C497 C500 1.424 . S
C497 C502 1.245 . S
C497 C503 1.428 . S
C498 C501 1.260 . S
C498 C502 1.477 . S
C498 H516 0.932 . S
C499 C500 1.384 . S
C499 C501 1.479 . S
C499 H517 0.929 . S
C500 C497 1.424 . S
C500 C499 1.384 . S
C500 H518 0.928 . S
C501 C498 1.260 . S
C501 C499 1.479 . S
C502 C497 1.245 . S
C502 C498 1.477 . S
C502 H519 0.932 . S
C503 U486 2.882 . S
C503 C497 1.428 . S
C503 O506 1.301 . S
C503 O507 1.282 . S
O504 U486 2.441 . S
O504 C490 1.249 . S
O505 U486 2.420 . S
O505 C490 1.202 . S
O506 U486 2.455 . S
O506 C503 1.301 . S
O507 U486 2.449 . S
O507 C503 1.282 . S
H508 C481 0.931 . S
H509 C483 0.929 . S
H510 C484 0.930 . S
H511 C485 0.931 . S
H512 C492 0.932 . S
H513 C493 0.930 . S
H514 C494 0.929 . S
H515 C496 0.930 . S
H516 C498 0.932 . S
H517 C499 0.929 . S
H518 C500 0.928 . S
H519 C502 0.932 . S
C520 C521 1.264 . S
C520 C525 1.479 . S
C520 C530 1.465 . S
C521 C520 1.264 . S
C521 C523 1.339 . S
C521 H548 0.931 . S
C522 C523 1.395 . S
C522 C524 1.320 . S
C523 C521 1.339 . S
C523 C522 1.395 . S
C523 H549 0.929 . S
C524 C522 1.320 . S
C524 C525 1.405 . S
C524 H550 0.930 . S
C525 C520 1.479 . S
C525 C524 1.405 . S
C525 H551 0.931 . S
U526 O527 2.454 . S
U526 O528 2.458 . S
U526 C529 2.984 . S
U526 C530 2.847 . S
U526 C543 2.882 . S
U526 O544 2.441 . S
U526 O545 2.420 . S
U526 O546 2.455 . S
U526 O547 2.449 . S
O527 U526 2.454 . S
O527 C529 1.353 . S
O528 U526 2.458 . S
O528 C529 1.286 . S
C529 U526 2.984 . S
C529 O527 1.353 . S
C529 O528 1.286 . S
C529 C531 1.363 . S
C530 C520 1.465 . S
C530 U526 2.847 . S
C530 O544 1.249 . S
C530 O545 1.202 . S
C531 C529 1.363 . S
C531 C533 1.408 . S
C531 C536 1.342 . S
C532 C533 1.310 . S
C532 C535 1.461 . S
C532 H552 0.932 . S
C533 C531 1.408 . S
C533 C532 1.310 . S
C533 H553 0.930 . S
C534 C535 1.474 . S
C534 C536 1.285 . S
C534 H554 0.929 . S
C535 C532 1.461 . S
C535 C534 1.474 . S
C536 C531 1.342 . S
C536 C534 1.285 . S
C536 H555 0.930 . S
C537 C540 1.424 . S
C537 C542 1.245 . S
C537 C543 1.428 . S
C538 C541 1.260 . S
C538 C542 1.477 . S
C538 H556 0.932 . S
C539 C540 1.384 . S
C539 C541 1.479 . S
C539 H557 0.929 . S
C540 C537 1.424 . S
C540 C539 1.384 . S
C540 H558 0.928 . S
C541 C538 1.260 . S
C541 C539 1.479 . S
C542 C537 1.245 . S
C542 C538 1.477 . S
C542 H559 0.932 . S
C543 U526 2.882 . S
C543 C537 1.428 . S
C543 O546 1.301 . S
C543 O547 1.282 . S
O544 U526 2.441 . S
O544 C530 1.249 . S
O545 U526 2.420 . S
O545 C530 1.202 . S
O546 U526 2.455 . S
O546 C543 1.301 . S
O547 U526 2.449 . S
O547 C543 1.282 . S
H548 C521 0.931 . S
H549 C523 0.929 . S
H550 C524 0.930 . S
H551 C525 0.931 . S
H552 C532 0.932 . S
H553 C533 0.930 . S
H554 C534 0.929 . S
H555 C536 0.930 . S
H556 C538 0.932 . S
H557 C539 0.929 . S
H558 C540 0.928 . S
H559 C542 0.932 . S
C560 C561 1.264 . S
C560 C565 1.479 . S
C560 C570 1.465 . S
C561 C560 1.264 . S
C561 C563 1.339 . S
C561 H588 0.931 . S
C562 C563 1.395 . S
C562 C564 1.320 . S
C563 C561 1.339 . S
C563 C562 1.395 . S
C563 H589 0.929 . S
C564 C562 1.320 . S
C564 C565 1.405 . S
C564 H590 0.930 . S
C565 C560 1.479 . S
C565 C564 1.405 . S
C565 H591 0.931 . S
U566 O567 2.454 . S
U566 O568 2.458 . S
U566 C569 2.984 . S
U566 C570 2.847 . S
U566 C583 2.882 . S
U566 O584 2.441 . S
U566 O585 2.420 . S
U566 O586 2.455 . S
U566 O587 2.449 . S
O567 U566 2.454 . S
O567 C569 1.353 . S
O568 U566 2.458 . S
O568 C569 1.286 . S
C569 U566 2.984 . S
C569 O567 1.353 . S
C569 O568 1.286 . S
C569 C571 1.363 . S
C570 C560 1.465 . S
C570 U566 2.847 . S
C570 O584 1.249 . S
C570 O585 1.202 . S
C571 C569 1.363 . S
C571 C573 1.408 . S
C571 C576 1.342 . S
C572 C573 1.310 . S
C572 C575 1.461 . S
C572 H592 0.932 . S
C573 C571 1.408 . S
C573 C572 1.310 . S
C573 H593 0.930 . S
C574 C575 1.474 . S
C574 C576 1.285 . S
C574 H594 0.929 . S
C575 C572 1.461 . S
C575 C574 1.474 . S
C576 C571 1.342 . S
C576 C574 1.285 . S
C576 H595 0.930 . S
C577 C580 1.424 . S
C577 C582 1.245 . S
C577 C583 1.428 . S
C578 C581 1.260 . S
C578 C582 1.477 . S
C578 H596 0.932 . S
C579 C580 1.384 . S
C579 C581 1.479 . S
C579 H597 0.929 . S
C580 C577 1.424 . S
C580 C579 1.384 . S
C580 H598 0.928 . S
C581 C578 1.260 . S
C581 C579 1.479 . S
C582 C577 1.245 . S
C582 C578 1.477 . S
C582 H599 0.932 . S
C583 U566 2.882 . S
C583 C577 1.428 . S
C583 O586 1.301 . S
C583 O587 1.282 . S
O584 U566 2.441 . S
O584 C570 1.249 . S
O585 U566 2.420 . S
O585 C570 1.202 . S
O586 U566 2.455 . S
O586 C583 1.301 . S
O587 U566 2.449 . S
O587 C583 1.282 . S
H588 C561 0.931 . S
H589 C563 0.929 . S
H590 C564 0.930 . S
H591 C565 0.931 . S
H592 C572 0.932 . S
H593 C573 0.930 . S
H594 C574 0.929 . S
H595 C576 0.930 . S
H596 C578 0.932 . S
H597 C579 0.929 . S
H598 C580 0.928 . S
H599 C582 0.932 . S
C600 C601 1.264 . S
C600 C605 1.479 . S
C600 C610 1.465 . S
C601 C600 1.264 . S
C601 C603 1.339 . S
C601 H628 0.931 . S
C602 C603 1.395 . S
C602 C604 1.320 . S
C603 C601 1.339 . S
C603 C602 1.395 . S
C603 H629 0.929 . S
C604 C602 1.320 . S
C604 C605 1.405 . S
C604 H630 0.930 . S
C605 C600 1.479 . S
C605 C604 1.405 . S
C605 H631 0.931 . S
U606 O607 2.454 . S
U606 O608 2.458 . S
U606 C609 2.984 . S
U606 C610 2.847 . S
U606 C623 2.882 . S
U606 O624 2.441 . S
U606 O625 2.420 . S
U606 O626 2.455 . S
U606 O627 2.449 . S
O607 U606 2.454 . S
O607 C609 1.353 . S
O608 U606 2.458 . S
O608 C609 1.286 . S
C609 U606 2.984 . S
C609 O607 1.353 . S
C609 O608 1.286 . S
C609 C611 1.363 . S
C610 C600 1.465 . S
C610 U606 2.847 . S
C610 O624 1.249 . S
C610 O625 1.202 . S
C611 C609 1.363 . S
C611 C613 1.408 . S
C611 C616 1.342 . S
C612 C613 1.310 . S
C612 C615 1.461 . S
C612 H632 0.932 . S
C613 C611 1.408 . S
C613 C612 1.310 . S
C613 H633 0.930 . S
C614 C615 1.474 . S
C614 C616 1.285 . S
C614 H634 0.929 . S
C615 C612 1.461 . S
C615 C614 1.474 . S
C616 C611 1.342 . S
C616 C614 1.285 . S
C616 H635 0.930 . S
C617 C620 1.424 . S
C617 C622 1.245 . S
C617 C623 1.428 . S
C618 C621 1.260 . S
C618 C622 1.477 . S
C618 H636 0.932 . S
C619 C620 1.384 . S
C619 C621 1.479 . S
C619 H637 0.929 . S
C620 C617 1.424 . S
C620 C619 1.384 . S
C620 H638 0.928 . S
C621 C618 1.260 . S
C621 C619 1.479 . S
C622 C617 1.245 . S
C622 C618 1.477 . S
C622 H639 0.932 . S
C623 U606 2.882 . S
C623 C617 1.428 . S
C623 O626 1.301 . S
C623 O627 1.282 . S
O624 U606 2.441 . S
O624 C610 1.249 . S
O625 U606 2.420 . S
O625 C610 1.202 . S
O626 U606 2.455 . S
O626 C623 1.301 . S
O627 U606 2.449 . S
O627 C623 1.282 . S
H628 C601 0.931 . S
H629 C603 0.929 . S
H630 C604 0.930 . S
H631 C605 0.931 . S
H632 C612 0.932 . S
H633 C613 0.930 . S
H634 C614 0.929 . S
H635 C616 0.930 . S
H636 C618 0.932 . S
H637 C619 0.929 . S
H638 C620 0.928 . S
H639 C622 0.932 . S
C640 C641 1.264 . S
C640 C645 1.479 . S
C640 C650 1.465 . S
C641 C640 1.264 . S
C641 C643 1.339 . S
C641 H668 0.931 . S
C642 C643 1.395 . S
C642 C644 1.320 . S
C643 C641 1.339 . S
C643 C642 1.395 . S
C643 H669 0.929 . S
C644 C642 1.320 . S
C644 C645 1.405 . S
C644 H670 0.930 . S
C645 C640 1.479 . S
C645 C644 1.405 . S
C645 H671 0.931 . S
U646 O647 2.454 . S
U646 O648 2.458 . S
U646 C649 2.984 . S
U646 C650 2.847 . S
U646 C663 2.882 . S
U646 O664 2.441 . S
U646 O665 2.420 . S
U646 O666 2.455 . S
U646 O667 2.449 . S
O647 U646 2.454 . S
O647 C649 1.353 . S
O648 U646 2.458 . S
O648 C649 1.286 . S
C649 U646 2.984 . S
C649 O647 1.353 . S
C649 O648 1.286 . S
C649 C651 1.363 . S
C650 C640 1.465 . S
C650 U646 2.847 . S
C650 O664 1.249 . S
C650 O665 1.202 . S
C651 C649 1.363 . S
C651 C653 1.408 . S
C651 C656 1.342 . S
C652 C653 1.310 . S
C652 C655 1.461 . S
C652 H672 0.932 . S
C653 C651 1.408 . S
C653 C652 1.310 . S
C653 H673 0.930 . S
C654 C655 1.474 . S
C654 C656 1.285 . S
C654 H674 0.929 . S
C655 C652 1.461 . S
C655 C654 1.474 . S
C656 C651 1.342 . S
C656 C654 1.285 . S
C656 H675 0.930 . S
C657 C660 1.424 . S
C657 C662 1.245 . S
C657 C663 1.428 . S
C658 C661 1.260 . S
C658 C662 1.477 . S
C658 H676 0.932 . S
C659 C660 1.384 . S
C659 C661 1.479 . S
C659 H677 0.929 . S
C660 C657 1.424 . S
C660 C659 1.384 . S
C660 H678 0.928 . S
C661 C658 1.260 . S
C661 C659 1.479 . S
C662 C657 1.245 . S
C662 C658 1.477 . S
C662 H679 0.932 . S
C663 U646 2.882 . S
C663 C657 1.428 . S
C663 O666 1.301 . S
C663 O667 1.282 . S
O664 U646 2.441 . S
O664 C650 1.249 . S
O665 U646 2.420 . S
O665 C650 1.202 . S
O666 U646 2.455 . S
O666 C663 1.301 . S
O667 U646 2.449 . S
O667 C663 1.282 . S
H668 C641 0.931 . S
H669 C643 0.929 . S
H670 C644 0.930 . S
H671 C645 0.931 . S
H672 C652 0.932 . S
H673 C653 0.930 . S
H674 C654 0.929 . S
H675 C656 0.930 . S
H676 C658 0.932 . S
H677 C659 0.929 . S
H678 C660 0.928 . S
H679 C662 0.932 . S
C680 C681 1.264 . S
C680 C685 1.479 . S
C680 C690 1.465 . S
C681 C680 1.264 . S
C681 C683 1.339 . S
C681 H708 0.931 . S
C682 C683 1.395 . S
C682 C684 1.320 . S
C683 C681 1.339 . S
C683 C682 1.395 . S
C683 H709 0.929 . S
C684 C682 1.320 . S
C684 C685 1.405 . S
C684 H710 0.930 . S
C685 C680 1.479 . S
C685 C684 1.405 . S
C685 H711 0.931 . S
U686 O687 2.454 . S
U686 O688 2.458 . S
U686 C689 2.984 . S
U686 C690 2.847 . S
U686 C703 2.882 . S
U686 O704 2.441 . S
U686 O705 2.420 . S
U686 O706 2.455 . S
U686 O707 2.449 . S
O687 U686 2.454 . S
O687 C689 1.353 . S
O688 U686 2.458 . S
O688 C689 1.286 . S
C689 U686 2.984 . S
C689 O687 1.353 . S
C689 O688 1.286 . S
C689 C691 1.363 . S
C690 C680 1.465 . S
C690 U686 2.847 . S
C690 O704 1.249 . S
C690 O705 1.202 . S
C691 C689 1.363 . S
C691 C693 1.408 . S
C691 C696 1.342 . S
C692 C693 1.310 . S
C692 C695 1.461 . S
C692 H712 0.932 . S
C693 C691 1.408 . S
C693 C692 1.310 . S
C693 H713 0.930 . S
C694 C695 1.474 . S
C694 C696 1.285 . S
C694 H714 0.929 . S
C695 C692 1.461 . S
C695 C694 1.474 . S
C696 C691 1.342 . S
C696 C694 1.285 . S
C696 H715 0.930 . S
C697 C700 1.424 . S
C697 C702 1.245 . S
C697 C703 1.428 . S
C698 C701 1.260 . S
C698 C702 1.477 . S
C698 H716 0.932 . S
C699 C700 1.384 . S
C699 C701 1.479 . S
C699 H717 0.929 . S
C700 C697 1.424 . S
C700 C699 1.384 . S
C700 H718 0.928 . S
C701 C698 1.260 . S
C701 C699 1.479 . S
C702 C697 1.245 . S
C702 C698 1.477 . S
C702 H719 0.932 . S
C703 U686 2.882 . S
C703 C697 1.428 . S
C703 O706 1.301 . S
C703 O707 1.282 . S
O704 U686 2.441 . S
O704 C690 1.249 . S
O705 U686 2.420 . S
O705 C690 1.202 . S
O706 U686 2.455 . S
O706 C703 1.301 . S
O707 U686 2.449 . S
O707 C703 1.282 . S
H708 C681 0.931 . S
H709 C683 0.929 . S
H710 C684 0.930 . S
H711 C685 0.931 . S
H712 C692 0.932 . S
H713 C693 0.930 . S
H714 C694 0.929 . S
H715 C696 0.930 . S
H716 C698 0.932 . S
H717 C699 0.929 . S
H718 C700 0.928 . S
H719 C702 0.932 . S
C720 C721 1.264 . S
C720 C725 1.479 . S
C720 C730 1.465 . S
C721 C720 1.264 . S
C721 C723 1.339 . S
C721 H748 0.931 . S
C722 C723 1.395 . S
C722 C724 1.320 . S
C723 C721 1.339 . S
C723 C722 1.395 . S
C723 H749 0.929 . S
C724 C722 1.320 . S
C724 C725 1.405 . S
C724 H750 0.930 . S
C725 C720 1.479 . S
C725 C724 1.405 . S
C725 H751 0.931 . S
U726 O727 2.454 . S
U726 O728 2.458 . S
U726 C729 2.984 . S
U726 C730 2.847 . S
U726 C743 2.882 . S
U726 O744 2.441 . S
U726 O745 2.420 . S
U726 O746 2.455 . S
U726 O747 2.449 . S
O727 U726 2.454 . S
O727 C729 1.353 . S
O728 U726 2.458 . S
O728 C729 1.286 . S
C729 U726 2.984 . S
C729 O727 1.353 . S
C729 O728 1.286 . S
C729 C731 1.363 . S
C730 C720 1.465 . S
C730 U726 2.847 . S
C730 O744 1.249 . S
C730 O745 1.202 . S
C731 C729 1.363 . S
C731 C733 1.408 . S
C731 C736 1.342 . S
C732 C733 1.310 . S
C732 C735 1.461 . S
C732 H752 0.932 . S
C733 C731 1.408 . S
C733 C732 1.310 . S
C733 H753 0.930 . S
C734 C735 1.474 . S
C734 C736 1.285 . S
C734 H754 0.929 . S
C735 C732 1.461 . S
C735 C734 1.474 . S
C736 C731 1.342 . S
C736 C734 1.285 . S
C736 H755 0.930 . S
C737 C740 1.424 . S
C737 C742 1.245 . S
C737 C743 1.428 . S
C738 C741 1.260 . S
C738 C742 1.477 . S
C738 H756 0.932 . S
C739 C740 1.384 . S
C739 C741 1.479 . S
C739 H757 0.929 . S
C740 C737 1.424 . S
C740 C739 1.384 . S
C740 H758 0.928 . S
C741 C738 1.260 . S
C741 C739 1.479 . S
C742 C737 1.245 . S
C742 C738 1.477 . S
C742 H759 0.932 . S
C743 U726 2.882 . S
C743 C737 1.428 . S
C743 O746 1.301 . S
C743 O747 1.282 . S
O744 U726 2.441 . S
O744 C730 1.249 . S
O745 U726 2.420 . S
O745 C730 1.202 . S
O746 U726 2.455 . S
O746 C743 1.301 . S
O747 U726 2.449 . S
O747 C743 1.282 . S
H748 C721 0.931 . S
H749 C723 0.929 . S
H750 C724 0.930 . S
H751 C725 0.931 . S
H752 C732 0.932 . S
H753 C733 0.930 . S
H754 C734 0.929 . S
H755 C736 0.930 . S
H756 C738 0.932 . S
H757 C739 0.929 . S
H758 C740 0.928 . S
H759 C742 0.932 . S
C760 C761 1.264 . S
C760 C765 1.479 . S
C760 C770 1.465 . S
C761 C760 1.264 . S
C761 C763 1.339 . S
C761 H788 0.931 . S
C762 C763 1.395 . S
C762 C764 1.320 . S
C763 C761 1.339 . S
C763 C762 1.395 . S
C763 H789 0.929 . S
C764 C762 1.320 . S
C764 C765 1.405 . S
C764 H790 0.930 . S
C765 C760 1.479 . S
C765 C764 1.405 . S
C765 H791 0.931 . S
U766 O767 2.454 . S
U766 O768 2.458 . S
U766 C769 2.984 . S
U766 C770 2.847 . S
U766 C783 2.882 . S
U766 O784 2.441 . S
U766 O785 2.420 . S
U766 O786 2.455 . S
U766 O787 2.449 . S
O767 U766 2.454 . S
O767 C769 1.353 . S
O768 U766 2.458 . S
O768 C769 1.286 . S
C769 U766 2.984 . S
C769 O767 1.353 . S
C769 O768 1.286 . S
C769 C771 1.363 . S
C770 C760 1.465 . S
C770 U766 2.847 . S
C770 O784 1.249 . S
C770 O785 1.202 . S
C771 C769 1.363 . S
C771 C773 1.408 . S
C771 C776 1.342 . S
C772 C773 1.310 . S
C772 C775 1.461 . S
C772 H792 0.932 . S
C773 C771 1.408 . S
C773 C772 1.310 . S
C773 H793 0.930 . S
C774 C775 1.474 . S
C774 C776 1.285 . S
C774 H794 0.929 . S
C775 C772 1.461 . S
C775 C774 1.474 . S
C776 C771 1.342 . S
C776 C774 1.285 . S
C776 H795 0.930 . S
C777 C780 1.424 . S
C777 C782 1.245 . S
C777 C783 1.428 . S
C778 C781 1.260 . S
C778 C782 1.477 . S
C778 H796 0.932 . S
C779 C780 1.384 . S
C779 C781 1.479 . S
C779 H797 0.929 . S
C780 C777 1.424 . S
C780 C779 1.384 . S
C780 H798 0.928 . S
C781 C778 1.260 . S
C781 C779 1.479 . S
C782 C777 1.245 . S
C782 C778 1.477 . S
C782 H799 0.932 . S
C783 U766 2.882 . S
C783 C777 1.428 . S
C783 O786 1.301 . S
C783 O787 1.282 . S
O784 U766 2.441 . S
O784 C770 1.249 . S
O785 U766 2.420 . S
O785 C770 1.202 . S
O786 U766 2.455 . S
O786 C783 1.301 . S
O787 U766 2.449 . S
O787 C783 1.282 . S
H788 C761 0.931 . S
H789 C763 0.929 . S
H790 C764 0.930 . S
H791 C765 0.931 . S
H792 C772 0.932 . S
H793 C773 0.930 . S
H794 C774 0.929 . S
H795 C776 0.930 . S
H796 C778 0.932 . S
H797 C779 0.929 . S
H798 C780 0.928 . S
H799 C782 0.932 . S
C800 C801 1.264 . S
C800 C805 1.479 . S
C800 C810 1.465 . S
C801 C800 1.264 . S
C801 C803 1.339 . S
C801 H828 0.931 . S
C802 C803 1.395 . S
C802 C804 1.320 . S
C803 C801 1.339 . S
C803 C802 1.395 . S
C803 H829 0.929 . S
C804 C802 1.320 . S
C804 C805 1.405 . S
C804 H830 0.930 . S
C805 C800 1.479 . S
C805 C804 1.405 . S
C805 H831 0.931 . S
U806 O807 2.454 . S
U806 O808 2.458 . S
U806 C809 2.984 . S
U806 C810 2.847 . S
U806 C823 2.882 . S
U806 O824 2.441 . S
U806 O825 2.420 . S
U806 O826 2.455 . S
U806 O827 2.449 . S
O807 U806 2.454 . S
O807 C809 1.353 . S
O808 U806 2.458 . S
O808 C809 1.286 . S
C809 U806 2.984 . S
C809 O807 1.353 . S
C809 O808 1.286 . S
C809 C811 1.363 . S
C810 C800 1.465 . S
C810 U806 2.847 . S
C810 O824 1.249 . S
C810 O825 1.202 . S
C811 C809 1.363 . S
C811 C813 1.408 . S
C811 C816 1.342 . S
C812 C813 1.310 . S
C812 C815 1.461 . S
C812 H832 0.932 . S
C813 C811 1.408 . S
C813 C812 1.310 . S
C813 H833 0.930 . S
C814 C815 1.474 . S
C814 C816 1.285 . S
C814 H834 0.929 . S
C815 C812 1.461 . S
C815 C814 1.474 . S
C816 C811 1.342 . S
C816 C814 1.285 . S
C816 H835 0.930 . S
C817 C820 1.424 . S
C817 C822 1.245 . S
C817 C823 1.428 . S
C818 C821 1.260 . S
C818 C822 1.477 . S
C818 H836 0.932 . S
C819 C820 1.384 . S
C819 C821 1.479 . S
C819 H837 0.929 . S
C820 C817 1.424 . S
C820 C819 1.384 . S
C820 H838 0.928 . S
C821 C818 1.260 . S
C821 C819 1.479 . S
C822 C817 1.245 . S
C822 C818 1.477 . S
C822 H839 0.932 . S
C823 U806 2.882 . S
C823 C817 1.428 . S
C823 O826 1.301 . S
C823 O827 1.282 . S
O824 U806 2.441 . S
O824 C810 1.249 . S
O825 U806 2.420 . S
O825 C810 1.202 . S
O826 U806 2.455 . S
O826 C823 1.301 . S
O827 U806 2.449 . S
O827 C823 1.282 . S
H828 C801 0.931 . S
H829 C803 0.929 . S
H830 C804 0.930 . S
H831 C805 0.931 . S
H832 C812 0.932 . S
H833 C813 0.930 . S
H834 C814 0.929 . S
H835 C816 0.930 . S
H836 C818 0.932 . S
H837 C819 0.929 . S
H838 C820 0.928 . S
H839 C822 0.932 . S
C840 C841 1.264 . S
C840 C845 1.479 . S
C840 C850 1.465 . S
C841 C840 1.264 . S
C841 C843 1.339 . S
C841 H868 0.931 . S
C842 C843 1.395 . S
C842 C844 1.320 . S
C843 C841 1.339 . S
C843 C842 1.395 . S
C843 H869 0.929 . S
C844 C842 1.320 . S
C844 C845 1.405 . S
C844 H870 0.930 . S
C845 C840 1.479 . S
C845 C844 1.405 . S
C845 H871 0.931 . S
U846 O847 2.454 . S
U846 O848 2.458 . S
U846 C849 2.984 . S
U846 C850 2.847 . S
U846 C863 2.882 . S
U846 O864 2.441 . S
U846 O865 2.420 . S
U846 O866 2.455 . S
U846 O867 2.449 . S
O847 U846 2.454 . S
O847 C849 1.353 . S
O848 U846 2.458 . S
O848 C849 1.286 . S
C849 U846 2.984 . S
C849 O847 1.353 . S
C849 O848 1.286 . S
C849 C851 1.363 . S
C850 C840 1.465 . S
C850 U846 2.847 . S
C850 O864 1.249 . S
C850 O865 1.202 . S
C851 C849 1.363 . S
C851 C853 1.408 . S
C851 C856 1.342 . S
C852 C853 1.310 . S
C852 C855 1.461 . S
C852 H872 0.932 . S
C853 C851 1.408 . S
C853 C852 1.310 . S
C853 H873 0.930 . S
C854 C855 1.474 . S
C854 C856 1.285 . S
C854 H874 0.929 . S
C855 C852 1.461 . S
C855 C854 1.474 . S
C856 C851 1.342 . S
C856 C854 1.285 . S
C856 H875 0.930 . S
C857 C860 1.424 . S
C857 C862 1.245 . S
C857 C863 1.428 . S
C858 C861 1.260 . S
C858 C862 1.477 . S
C858 H876 0.932 . S
C859 C860 1.384 . S
C859 C861 1.479 . S
C859 H877 0.929 . S
C860 C857 1.424 . S
C860 C859 1.384 . S
C860 H878 0.928 . S
C861 C858 1.260 . S
C861 C859 1.479 . S
C862 C857 1.245 . S
C862 C858 1.477 . S
C862 H879 0.932 . S
C863 U846 2.882 . S
C863 C857 1.428 . S
C863 O866 1.301 . S
C863 O867 1.282 . S
O864 U846 2.441 . S
O864 C850 1.249 . S
O865 U846 2.420 . S
O865 C850 1.202 . S
O866 U846 2.455 . S
O866 C863 1.301 . S
O867 U846 2.449 . S
O867 C863 1.282 . S
H868 C841 0.931 . S
H869 C843 0.929 . S
H870 C844 0.930 . S
H871 C845 0.931 . S
H872 C852 0.932 . S
H873 C853 0.930 . S
H874 C854 0.929 . S
H875 C856 0.930 . S
H876 C858 0.932 . S
H877 C859 0.929 . S
H878 C860 0.928 . S
H879 C862 0.932 . S
C880 C881 1.264 . S
C880 C885 1.479 . S
C880 C890 1.465 . S
C881 C880 1.264 . S
C881 C883 1.339 . S
C881 H908 0.931 . S
C882 C883 1.395 . S
C882 C884 1.320 . S
C883 C881 1.339 . S
C883 C882 1.395 . S
C883 H909 0.929 . S
C884 C882 1.320 . S
C884 C885 1.405 . S
C884 H910 0.930 . S
C885 C880 1.479 . S
C885 C884 1.405 . S
C885 H911 0.931 . S
U886 O887 2.454 . S
U886 O888 2.458 . S
U886 C889 2.984 . S
U886 C890 2.847 . S
U886 C903 2.882 . S
U886 O904 2.441 . S
U886 O905 2.420 . S
U886 O906 2.455 . S
U886 O907 2.449 . S
O887 U886 2.454 . S
O887 C889 1.353 . S
O888 U886 2.458 . S
O888 C889 1.286 . S
C889 U886 2.984 . S
C889 O887 1.353 . S
C889 O888 1.286 . S
C889 C891 1.363 . S
C890 C880 1.465 . S
C890 U886 2.847 . S
C890 O904 1.249 . S
C890 O905 1.202 . S
C891 C889 1.363 . S
C891 C893 1.408 . S
C891 C896 1.342 . S
C892 C893 1.310 . S
C892 C895 1.461 . S
C892 H912 0.932 . S
C893 C891 1.408 . S
C893 C892 1.310 . S
C893 H913 0.930 . S
C894 C895 1.474 . S
C894 C896 1.285 . S
C894 H914 0.929 . S
C895 C892 1.461 . S
C895 C894 1.474 . S
C896 C891 1.342 . S
C896 C894 1.285 . S
C896 H915 0.930 . S
C897 C900 1.424 . S
C897 C902 1.245 . S
C897 C903 1.428 . S
C898 C901 1.260 . S
C898 C902 1.477 . S
C898 H916 0.932 . S
C899 C900 1.384 . S
C899 C901 1.479 . S
C899 H917 0.929 . S
C900 C897 1.424 . S
C900 C899 1.384 . S
C900 H918 0.928 . S
C901 C898 1.260 . S
C901 C899 1.479 . S
C902 C897 1.245 . S
C902 C898 1.477 . S
C902 H919 0.932 . S
C903 U886 2.882 . S
C903 C897 1.428 . S
C903 O906 1.301 . S
C903 O907 1.282 . S
O904 U886 2.441 . S
O904 C890 1.249 . S
O905 U886 2.420 . S
O905 C890 1.202 . S
O906 U886 2.455 . S
O906 C903 1.301 . S
O907 U886 2.449 . S
O907 C903 1.282 . S
H908 C881 0.931 . S
H909 C883 0.929 . S
H910 C884 0.930 . S
H911 C885 0.931 . S
H912 C892 0.932 . S
H913 C893 0.930 . S
H914 C894 0.929 . S
H915 C896 0.930 . S
H916 C898 0.932 . S
H917 C899 0.929 . S
H918 C900 0.928 . S
H919 C902 0.932 . S
C920 C921 1.264 . S
C920 C925 1.479 . S
C920 C930 1.465 . S
C921 C920 1.264 . S
C921 C923 1.339 . S
C921 H948 0.931 . S
C922 C923 1.395 . S
C922 C924 1.320 . S
C923 C921 1.339 . S
C923 C922 1.395 . S
C923 H949 0.929 . S
C924 C922 1.320 . S
C924 C925 1.405 . S
C924 H950 0.930 . S
C925 C920 1.479 . S
C925 C924 1.405 . S
C925 H951 0.931 . S
U926 O927 2.454 . S
U926 O928 2.458 . S
U926 C929 2.984 . S
U926 C930 2.847 . S
U926 C943 2.882 . S
U926 O944 2.441 . S
U926 O945 2.420 . S
U926 O946 2.455 . S
U926 O947 2.449 . S
O927 U926 2.454 . S
O927 C929 1.353 . S
O928 U926 2.458 . S
O928 C929 1.286 . S
C929 U926 2.984 . S
C929 O927 1.353 . S
C929 O928 1.286 . S
C929 C931 1.363 . S
C930 C920 1.465 . S
C930 U926 2.847 . S
C930 O944 1.249 . S
C930 O945 1.202 . S
C931 C929 1.363 . S
C931 C933 1.408 . S
C931 C936 1.342 . S
C932 C933 1.310 . S
C932 C935 1.461 . S
C932 H952 0.932 . S
C933 C931 1.408 . S
C933 C932 1.310 . S
C933 H953 0.930 . S
C934 C935 1.474 . S
C934 C936 1.285 . S
C934 H954 0.929 . S
C935 C932 1.461 . S
C935 C934 1.474 . S
C936 C931 1.342 . S
C936 C934 1.285 . S
C936 H955 0.930 . S
C937 C940 1.424 . S
C937 C942 1.245 . S
C937 C943 1.428 . S
C938 C941 1.260 . S
C938 C942 1.477 . S
C938 H956 0.932 . S
C939 C940 1.384 . S
C939 C941 1.479 . S
C939 H957 0.929 . S
C940 C937 1.424 . S
C940 C939 1.384 . S
C940 H958 0.928 . S
C941 C938 1.260 . S
C941 C939 1.479 . S
C942 C937 1.245 . S
C942 C938 1.477 . S
C942 H959 0.932 . S
C943 U926 2.882 . S
C943 C937 1.428 . S
C943 O946 1.301 . S
C943 O947 1.282 . S
O944 U926 2.441 . S
O944 C930 1.249 . S
O945 U926 2.420 . S
O945 C930 1.202 . S
O946 U926 2.455 . S
O946 C943 1.301 . S
O947 U926 2.449 . S
O947 C943 1.282 . S
H948 C921 0.931 . S
H949 C923 0.929 . S
H950 C924 0.930 . S
H951 C925 0.931 . S
H952 C932 0.932 . S
H953 C933 0.930 . S
H954 C934 0.929 . S
H955 C936 0.930 . S
H956 C938 0.932 . S
H957 C939 0.929 . S
H958 C940 0.928 . S
H959 C942 0.932 . S
C960 C961 1.264 . S
C960 C965 1.479 . S
C960 C970 1.465 . S
C961 C960 1.264 . S
C961 C963 1.339 . S
C961 H988 0.931 . S
C962 C963 1.395 . S
C962 C964 1.320 . S
C963 C961 1.339 . S
C963 C962 1.395 . S
C963 H989 0.929 . S
C964 C962 1.320 . S
C964 C965 1.405 . S
C964 H990 0.930 . S
C965 C960 1.479 . S
C965 C964 1.405 . S
C965 H991 0.931 . S
U966 O967 2.454 . S
U966 O968 2.458 . S
U966 C969 2.984 . S
U966 C970 2.847 . S
U966 C983 2.882 . S
U966 O984 2.441 . S
U966 O985 2.420 . S
U966 O986 2.455 . S
U966 O987 2.449 . S
O967 U966 2.454 . S
O967 C969 1.353 . S
O968 U966 2.458 . S
O968 C969 1.286 . S
C969 U966 2.984 . S
C969 O967 1.353 . S
C969 O968 1.286 . S
C969 C971 1.363 . S
C970 C960 1.465 . S
C970 U966 2.847 . S
C970 O984 1.249 . S
C970 O985 1.202 . S
C971 C969 1.363 . S
C971 C973 1.408 . S
C971 C976 1.342 . S
C972 C973 1.310 . S
C972 C975 1.461 . S
C972 H992 0.932 . S
C973 C971 1.408 . S
C973 C972 1.310 . S
C973 H993 0.930 . S
C974 C975 1.474 . S
C974 C976 1.285 . S
C974 H994 0.929 . S
C975 C972 1.461 . S
C975 C974 1.474 . S
C976 C971 1.342 . S
C976 C974 1.285 . S
C976 H995 0.930 . S
C977 C980 1.424 . S
C977 C982 1.245 . S
C977 C983 1.428 . S
C978 C981 1.260 . S
C978 C982 1.477 . S
C978 H996 0.932 . S
C979 C980 1.384 . S
C979 C981 1.479 . S
C979 H997 0.929 . S
C980 C977 1.424 . S
C980 C979 1.384 . S
C980 H998 0.928 . S
C981 C978 1.260 . S
C981 C979 1.479 . S
C982 C977 1.245 . S
C982 C978 1.477 . S
C982 H999 0.932 . S
C983 U966 2.882 . S
C983 C977 1.428 . S
C983 O986 1.301 . S
C983 O987 1.282 . S
O984 U966 2.441 . S
O984 C970 1.249 . S
O985 U966 2.420 . S
O985 C970 1.202 . S
O986 U966 2.455 . S
O986 C983 1.301 . S
O987 U966 2.449 . S
O987 C983 1.282 . S
H988 C961 0.931 . S
H989 C963 0.929 . S
H990 C964 0.930 . S
H991 C965 0.931 . S
H992 C972 0.932 . S
H993 C973 0.930 . S
H994 C974 0.929 . S
H995 C976 0.930 . S
H996 C978 0.932 . S
H997 C979 0.929 . S
H998 C980 0.928 . S
H999 C982 0.932 . S
C1000 C1001 1.264 . S
C1000 C1005 1.479 . S
C1000 C1010 1.465 . S
C1001 C1000 1.264 . S
C1001 C1003 1.339 . S
C1001 H1028 0.931 . S
C1002 C1003 1.395 . S
C1002 C1004 1.320 . S
C1003 C1001 1.339 . S
C1003 C1002 1.395 . S
C1003 H1029 0.929 . S
C1004 C1002 1.320 . S
C1004 C1005 1.405 . S
C1004 H1030 0.930 . S
C1005 C1000 1.479 . S
C1005 C1004 1.405 . S
C1005 H1031 0.931 . S
U1006 O1007 2.454 . S
U1006 O1008 2.458 . S
U1006 C1009 2.984 . S
U1006 C1010 2.847 . S
U1006 C1023 2.882 . S
U1006 O1024 2.441 . S
U1006 O1025 2.420 . S
U1006 O1026 2.455 . S
U1006 O1027 2.449 . S
O1007 U1006 2.454 . S
O1007 C1009 1.353 . S
O1008 U1006 2.458 . S
O1008 C1009 1.286 . S
C1009 U1006 2.984 . S
C1009 O1007 1.353 . S
C1009 O1008 1.286 . S
C1009 C1011 1.363 . S
C1010 C1000 1.465 . S
C1010 U1006 2.847 . S
C1010 O1024 1.249 . S
C1010 O1025 1.202 . S
C1011 C1009 1.363 . S
C1011 C1013 1.408 . S
C1011 C1016 1.342 . S
C1012 C1013 1.310 . S
C1012 C1015 1.461 . S
C1012 H1032 0.932 . S
C1013 C1011 1.408 . S
C1013 C1012 1.310 . S
C1013 H1033 0.930 . S
C1014 C1015 1.474 . S
C1014 C1016 1.285 . S
C1014 H1034 0.929 . S
C1015 C1012 1.461 . S
C1015 C1014 1.474 . S
C1016 C1011 1.342 . S
C1016 C1014 1.285 . S
C1016 H1035 0.930 . S
C1017 C1020 1.424 . S
C1017 C1022 1.245 . S
C1017 C1023 1.428 . S
C1018 C1021 1.260 . S
C1018 C1022 1.477 . S
C1018 H1036 0.932 . S
C1019 C1020 1.384 . S
C1019 C1021 1.479 . S
C1019 H1037 0.929 . S
C1020 C1017 1.424 . S
C1020 C1019 1.384 . S
C1020 H1038 0.928 . S
C1021 C1018 1.260 . S
C1021 C1019 1.479 . S
C1022 C1017 1.245 . S
C1022 C1018 1.477 . S
C1022 H1039 0.932 . S
C1023 U1006 2.882 . S
C1023 C1017 1.428 . S
C1023 O1026 1.301 . S
C1023 O1027 1.282 . S
O1024 U1006 2.441 . S
O1024 C1010 1.249 . S
O1025 U1006 2.420 . S
O1025 C1010 1.202 . S
O1026 U1006 2.455 . S
O1026 C1023 1.301 . S
O1027 U1006 2.449 . S
O1027 C1023 1.282 . S
H1028 C1001 0.931 . S
H1029 C1003 0.929 . S
H1030 C1004 0.930 . S
H1031 C1005 0.931 . S
H1032 C1012 0.932 . S
H1033 C1013 0.930 . S
H1034 C1014 0.929 . S
H1035 C1016 0.930 . S
H1036 C1018 0.932 . S
H1037 C1019 0.929 . S
H1038 C1020 0.928 . S
H1039 C1022 0.932 . S
C1040 C1041 1.264 . S
C1040 C1045 1.479 . S
C1040 C1050 1.465 . S
C1041 C1040 1.264 . S
C1041 C1043 1.339 . S
C1041 H1068 0.931 . S
C1042 C1043 1.395 . S
C1042 C1044 1.320 . S
C1043 C1041 1.339 . S
C1043 C1042 1.395 . S
C1043 H1069 0.929 . S
C1044 C1042 1.320 . S
C1044 C1045 1.405 . S
C1044 H1070 0.930 . S
C1045 C1040 1.479 . S
C1045 C1044 1.405 . S
C1045 H1071 0.931 . S
U1046 O1047 2.454 . S
U1046 O1048 2.458 . S
U1046 C1049 2.984 . S
U1046 C1050 2.847 . S
U1046 C1063 2.882 . S
U1046 O1064 2.441 . S
U1046 O1065 2.420 . S
U1046 O1066 2.455 . S
U1046 O1067 2.449 . S
O1047 U1046 2.454 . S
O1047 C1049 1.353 . S
O1048 U1046 2.458 . S
O1048 C1049 1.286 . S
C1049 U1046 2.984 . S
C1049 O1047 1.353 . S
C1049 O1048 1.286 . S
C1049 C1051 1.363 . S
C1050 C1040 1.465 . S
C1050 U1046 2.847 . S
C1050 O1064 1.249 . S
C1050 O1065 1.202 . S
C1051 C1049 1.363 . S
C1051 C1053 1.408 . S
C1051 C1056 1.342 . S
C1052 C1053 1.310 . S
C1052 C1055 1.461 . S
C1052 H1072 0.932 . S
C1053 C1051 1.408 . S
C1053 C1052 1.310 . S
C1053 H1073 0.930 . S
C1054 C1055 1.474 . S
C1054 C1056 1.285 . S
C1054 H1074 0.929 . S
C1055 C1052 1.461 . S
C1055 C1054 1.474 . S
C1056 C1051 1.342 . S
C1056 C1054 1.285 . S
C1056 H1075 0.930 . S
C1057 C1060 1.424 . S
C1057 C1062 1.245 . S
C1057 C1063 1.428 . S
C1058 C1061 1.260 . S
C1058 C1062 1.477 . S
C1058 H1076 0.932 . S
C1059 C1060 1.384 . S
C1059 C1061 1.479 . S
C1059 H1077 0.929 . S
C1060 C1057 1.424 . S
C1060 C1059 1.384 . S
C1060 H1078 0.928 . S
C1061 C1058 1.260 . S
C1061 C1059 1.479 . S
C1062 C1057 1.245 . S
C1062 C1058 1.477 . S
C1062 H1079 0.932 . S
C1063 U1046 2.882 . S
C1063 C1057 1.428 . S
C1063 O1066 1.301 . S
C1063 O1067 1.282 . S
O1064 U1046 2.441 . S
O1064 C1050 1.249 . S
O1065 U1046 2.420 . S
O1065 C1050 1.202 . S
O1066 U1046 2.455 . S
O1066 C1063 1.301 . S
O1067 U1046 2.449 . S
O1067 C1063 1.282 . S
H1068 C1041 0.931 . S
H1069 C1043 0.929 . S
H1070 C1044 0.930 . S
H1071 C1045 0.931 . S
H1072 C1052 0.932 . S
H1073 C1053 0.930 . S
H1074 C1054 0.929 . S
H1075 C1056 0.930 . S
H1076 C1058 0.932 . S
H1077 C1059 0.929 . S
H1078 C1060 0.928 . S
H1079 C1062 0.932 . S
C1080 C1081 1.264 . S
C1080 C1085 1.479 . S
C1080 C1090 1.465 . S
C1081 C1080 1.264 . S
C1081 C1083 1.339 . S
C1081 H1108 0.931 . S
C1082 C1083 1.395 . S
C1082 C1084 1.320 . S
C1083 C1081 1.339 . S
C1083 C1082 1.395 . S
C1083 H1109 0.929 . S
C1084 C1082 1.320 . S
C1084 C1085 1.405 . S
C1084 H1110 0.930 . S
C1085 C1080 1.479 . S
C1085 C1084 1.405 . S
C1085 H1111 0.931 . S
U1086 O1087 2.454 . S
U1086 O1088 2.458 . S
U1086 C1089 2.984 . S
U1086 C1090 2.847 . S
U1086 C1103 2.882 . S
U1086 O1104 2.441 . S
U1086 O1105 2.420 . S
U1086 O1106 2.455 . S
U1086 O1107 2.449 . S
O1087 U1086 2.454 . S
O1087 C1089 1.353 . S
O1088 U1086 2.458 . S
O1088 C1089 1.286 . S
C1089 U1086 2.984 . S
C1089 O1087 1.353 . S
C1089 O1088 1.286 . S
C1089 C1091 1.363 . S
C1090 C1080 1.465 . S
C1090 U1086 2.847 . S
C1090 O1104 1.249 . S
C1090 O1105 1.202 . S
C1091 C1089 1.363 . S
C1091 C1093 1.408 . S
C1091 C1096 1.342 . S
C1092 C1093 1.310 . S
C1092 C1095 1.461 . S
C1092 H1112 0.932 . S
C1093 C1091 1.408 . S
C1093 C1092 1.310 . S
C1093 H1113 0.930 . S
C1094 C1095 1.474 . S
C1094 C1096 1.285 . S
C1094 H1114 0.929 . S
C1095 C1092 1.461 . S
C1095 C1094 1.474 . S
C1096 C1091 1.342 . S
C1096 C1094 1.285 . S
C1096 H1115 0.930 . S
C1097 C1100 1.424 . S
C1097 C1102 1.245 . S
C1097 C1103 1.428 . S
C1098 C1101 1.260 . S
C1098 C1102 1.477 . S
C1098 H1116 0.932 . S
C1099 C1100 1.384 . S
C1099 C1101 1.479 . S
C1099 H1117 0.929 . S
C1100 C1097 1.424 . S
C1100 C1099 1.384 . S
C1100 H1118 0.928 . S
C1101 C1098 1.260 . S
C1101 C1099 1.479 . S
C1102 C1097 1.245 . S
C1102 C1098 1.477 . S
C1102 H1119 0.932 . S
C1103 U1086 2.882 . S
C1103 C1097 1.428 . S
C1103 O1106 1.301 . S
C1103 O1107 1.282 . S
O1104 U1086 2.441 . S
O1104 C1090 1.249 . S
O1105 U1086 2.420 . S
O1105 C1090 1.202 . S
O1106 U1086 2.455 . S
O1106 C1103 1.301 . S
O1107 U1086 2.449 . S
O1107 C1103 1.282 . S
H1108 C1081 0.931 . S
H1109 C1083 0.929 . S
H1110 C1084 0.930 . S
H1111 C1085 0.931 . S
H1112 C1092 0.932 . S
H1113 C1093 0.930 . S
H1114 C1094 0.929 . S
H1115 C1096 0.930 . S
H1116 C1098 0.932 . S
H1117 C1099 0.929 . S
H1118 C1100 0.928 . S
H1119 C1102 0.932 . S
C1120 C1121 1.264 . S
C1120 C1125 1.479 . S
C1120 C1130 1.465 . S
C1121 C1120 1.264 . S
C1121 C1123 1.339 . S
C1121 H1148 0.931 . S
C1122 C1123 1.395 . S
C1122 C1124 1.320 . S
C1123 C1121 1.339 . S
C1123 C1122 1.395 . S
C1123 H1149 0.929 . S
C1124 C1122 1.320 . S
C1124 C1125 1.405 . S
C1124 H1150 0.930 . S
C1125 C1120 1.479 . S
C1125 C1124 1.405 . S
C1125 H1151 0.931 . S
U1126 O1127 2.454 . S
U1126 O1128 2.458 . S
U1126 C1129 2.984 . S
U1126 C1130 2.847 . S
U1126 C1143 2.882 . S
U1126 O1144 2.441 . S
U1126 O1145 2.420 . S
U1126 O1146 2.455 . S
U1126 O1147 2.449 . S
O1127 U1126 2.454 . S
O1127 C1129 1.353 . S
O1128 U1126 2.458 . S
O1128 C1129 1.286 . S
C1129 U1126 2.984 . S
C1129 O1127 1.353 . S
C1129 O1128 1.286 . S
C1129 C1131 1.363 . S
C1130 C1120 1.465 . S
C1130 U1126 2.847 . S
C1130 O1144 1.249 . S
C1130 O1145 1.202 . S
C1131 C1129 1.363 . S
C1131 C1133 1.408 . S
C1131 C1136 1.342 . S
C1132 C1133 1.310 . S
C1132 C1135 1.461 . S
C1132 H1152 0.932 . S
C1133 C1131 1.408 . S
C1133 C1132 1.310 . S
C1133 H1153 0.930 . S
C1134 C1135 1.474 . S
C1134 C1136 1.285 . S
C1134 H1154 0.929 . S
C1135 C1132 1.461 . S
C1135 C1134 1.474 . S
C1136 C1131 1.342 . S
C1136 C1134 1.285 . S
C1136 H1155 0.930 . S
C1137 C1140 1.424 . S
C1137 C1142 1.245 . S
C1137 C1143 1.428 . S
C1138 C1141 1.260 . S
C1138 C1142 1.477 . S
C1138 H1156 0.932 . S
C1139 C1140 1.384 . S
C1139 C1141 1.479 . S
C1139 H1157 0.929 . S
C1140 C1137 1.424 . S
C1140 C1139 1.384 . S
C1140 H1158 0.928 . S
C1141 C1138 1.260 . S
C1141 C1139 1.479 . S
C1142 C1137 1.245 . S
C1142 C1138 1.477 . S
C1142 H1159 0.932 . S
C1143 U1126 2.882 . S
C1143 C1137 1.428 . S
C1143 O1146 1.301 . S
C1143 O1147 1.282 . S
O1144 U1126 2.441 . S
O1144 C1130 1.249 . S
O1145 U1126 2.420 . S
O1145 C1130 1.202 . S
O1146 U1126 2.455 . S
O1146 C1143 1.301 . S
O1147 U1126 2.449 . S
O1147 C1143 1.282 . S
H1148 C1121 0.931 . S
H1149 C1123 0.929 . S
H1150 C1124 0.930 . S
H1151 C1125 0.931 . S
H1152 C1132 0.932 . S
H1153 C1133 0.930 . S
H1154 C1134 0.929 . S
H1155 C1136 0.930 . S
H1156 C1138 0.932 . S
H1157 C1139 0.929 . S
H1158 C1140 0.928 . S
H1159 C1142 0.932 . S
C1160 C1161 1.264 . S
C1160 C1165 1.479 . S
C1160 C1170 1.465 . S
C1161 C1160 1.264 . S
C1161 C1163 1.339 . S
C1161 H1188 0.931 . S
C1162 C1163 1.395 . S
C1162 C1164 1.320 . S
C1163 C1161 1.339 . S
C1163 C1162 1.395 . S
C1163 H1189 0.929 . S
C1164 C1162 1.320 . S
C1164 C1165 1.405 . S
C1164 H1190 0.930 . S
C1165 C1160 1.479 . S
C1165 C1164 1.405 . S
C1165 H1191 0.931 . S
U1166 O1167 2.454 . S
U1166 O1168 2.458 . S
U1166 C1169 2.984 . S
U1166 C1170 2.847 . S
U1166 C1183 2.882 . S
U1166 O1184 2.441 . S
U1166 O1185 2.420 . S
U1166 O1186 2.455 . S
U1166 O1187 2.449 . S
O1167 U1166 2.454 . S
O1167 C1169 1.353 . S
O1168 U1166 2.458 . S
O1168 C1169 1.286 . S
C1169 U1166 2.984 . S
C1169 O1167 1.353 . S
C1169 O1168 1.286 . S
C1169 C1171 1.363 . S
C1170 C1160 1.465 . S
C1170 U1166 2.847 . S
C1170 O1184 1.249 . S
C1170 O1185 1.202 . S
C1171 C1169 1.363 . S
C1171 C1173 1.408 . S
C1171 C1176 1.342 . S
C1172 C1173 1.310 . S
C1172 C1175 1.461 . S
C1172 H1192 0.932 . S
C1173 C1171 1.408 . S
C1173 C1172 1.310 . S
C1173 H1193 0.930 . S
C1174 C1175 1.474 . S
C1174 C1176 1.285 . S
C1174 H1194 0.929 . S
C1175 C1172 1.461 . S
C1175 C1174 1.474 . S
C1176 C1171 1.342 . S
C1176 C1174 1.285 . S
C1176 H1195 0.930 . S
C1177 C1180 1.424 . S
C1177 C1182 1.245 . S
C1177 C1183 1.428 . S
C1178 C1181 1.260 . S
C1178 C1182 1.477 . S
C1178 H1196 0.932 . S
C1179 C1180 1.384 . S
C1179 C1181 1.479 . S
C1179 H1197 0.929 . S
C1180 C1177 1.424 . S
C1180 C1179 1.384 . S
C1180 H1198 0.928 . S
C1181 C1178 1.260 . S
C1181 C1179 1.479 . S
C1182 C1177 1.245 . S
C1182 C1178 1.477 . S
C1182 H1199 0.932 . S
C1183 U1166 2.882 . S
C1183 C1177 1.428 . S
C1183 O1186 1.301 . S
C1183 O1187 1.282 . S
O1184 U1166 2.441 . S
O1184 C1170 1.249 . S
O1185 U1166 2.420 . S
O1185 C1170 1.202 . S
O1186 U1166 2.455 . S
O1186 C1183 1.301 . S
O1187 U1166 2.449 . S
O1187 C1183 1.282 . S
H1188 C1161 0.931 . S
H1189 C1163 0.929 . S
H1190 C1164 0.930 . S
H1191 C1165 0.931 . S
H1192 C1172 0.932 . S
H1193 C1173 0.930 . S
H1194 C1174 0.929 . S
H1195 C1176 0.930 . S
H1196 C1178 0.932 . S
H1197 C1179 0.929 . S
H1198 C1180 0.928 . S
H1199 C1182 0.932 . S
C1200 C1201 1.264 . S
C1200 C1205 1.479 . S
C1200 C1210 1.465 . S
C1201 C1200 1.264 . S
C1201 C1203 1.339 . S
C1201 H1228 0.931 . S
C1202 C1203 1.395 . S
C1202 C1204 1.320 . S
C1203 C1201 1.339 . S
C1203 C1202 1.395 . S
C1203 H1229 0.929 . S
C1204 C1202 1.320 . S
C1204 C1205 1.405 . S
C1204 H1230 0.930 . S
C1205 C1200 1.479 . S
C1205 C1204 1.405 . S
C1205 H1231 0.931 . S
U1206 O1207 2.454 . S
U1206 O1208 2.458 . S
U1206 C1209 2.984 . S
U1206 C1210 2.847 . S
U1206 C1223 2.882 . S
U1206 O1224 2.441 . S
U1206 O1225 2.420 . S
U1206 O1226 2.455 . S
U1206 O1227 2.449 . S
O1207 U1206 2.454 . S
O1207 C1209 1.353 . S
O1208 U1206 2.458 . S
O1208 C1209 1.286 . S
C1209 U1206 2.984 . S
C1209 O1207 1.353 . S
C1209 O1208 1.286 . S
C1209 C1211 1.363 . S
C1210 C1200 1.465 . S
C1210 U1206 2.847 . S
C1210 O1224 1.249 . S
C1210 O1225 1.202 . S
C1211 C1209 1.363 . S
C1211 C1213 1.408 . S
C1211 C1216 1.342 . S
C1212 C1213 1.310 . S
C1212 C1215 1.461 . S
C1212 H1232 0.932 . S
C1213 C1211 1.408 . S
C1213 C1212 1.310 . S
C1213 H1233 0.930 . S
C1214 C1215 1.474 . S
C1214 C1216 1.285 . S
C1214 H1234 0.929 . S
C1215 C1212 1.461 . S
C1215 C1214 1.474 . S
C1216 C1211 1.342 . S
C1216 C1214 1.285 . S
C1216 H1235 0.930 . S
C1217 C1220 1.424 . S
C1217 C1222 1.245 . S
C1217 C1223 1.428 . S
C1218 C1221 1.260 . S
C1218 C1222 1.477 . S
C1218 H1236 0.932 . S
C1219 C1220 1.384 . S
C1219 C1221 1.479 . S
C1219 H1237 0.929 . S
C1220 C1217 1.424 . S
C1220 C1219 1.384 . S
C1220 H1238 0.928 . S
C1221 C1218 1.260 . S
C1221 C1219 1.479 . S
C1222 C1217 1.245 . S
C1222 C1218 1.477 . S
C1222 H1239 0.932 . S
C1223 U1206 2.882 . S
C1223 C1217 1.428 . S
C1223 O1226 1.301 . S
C1223 O1227 1.282 . S
O1224 U1206 2.441 . S
O1224 C1210 1.249 . S
O1225 U1206 2.420 . S
O1225 C1210 1.202 . S
O1226 U1206 2.455 . S
O1226 C1223 1.301 . S
O1227 U1206 2.449 . S
O1227 C1223 1.282 . S
H1228 C1201 0.931 . S
H1229 C1203 0.929 . S
H1230 C1204 0.930 . S
H1231 C1205 0.931 . S
H1232 C1212 0.932 . S
H1233 C1213 0.930 . S
H1234 C1214 0.929 . S
H1235 C1216 0.930 . S
H1236 C1218 0.932 . S
H1237 C1219 0.929 . S
H1238 C1220 0.928 . S
H1239 C1222 0.932 . S
C1240 C1241 1.264 . S
C1240 C1245 1.479 . S
C1240 C1250 1.465 . S
C1241 C1240 1.264 . S
C1241 C1243 1.339 . S
C1241 H1268 0.931 . S
C1242 C1243 1.395 . S
C1242 C1244 1.320 . S
C1243 C1241 1.339 . S
C1243 C1242 1.395 . S
C1243 H1269 0.929 . S
C1244 C1242 1.320 . S
C1244 C1245 1.405 . S
C1244 H1270 0.930 . S
C1245 C1240 1.479 . S
C1245 C1244 1.405 . S
C1245 H1271 0.931 . S
U1246 O1247 2.454 . S
U1246 O1248 2.458 . S
U1246 C1249 2.984 . S
U1246 C1250 2.847 . S
U1246 C1263 2.882 . S
U1246 O1264 2.441 . S
U1246 O1265 2.420 . S
U1246 O1266 2.455 . S
U1246 O1267 2.449 . S
O1247 U1246 2.454 . S
O1247 C1249 1.353 . S
O1248 U1246 2.458 . S
O1248 C1249 1.286 . S
C1249 U1246 2.984 . S
C1249 O1247 1.353 . S
C1249 O1248 1.286 . S
C1249 C1251 1.363 . S
C1250 C1240 1.465 . S
C1250 U1246 2.847 . S
C1250 O1264 1.249 . S
C1250 O1265 1.202 . S
C1251 C1249 1.363 . S
C1251 C1253 1.408 . S
C1251 C1256 1.342 . S
C1252 C1253 1.310 . S
C1252 C1255 1.461 . S
C1252 H1272 0.932 . S
C1253 C1251 1.408 . S
C1253 C1252 1.310 . S
C1253 H1273 0.930 . S
C1254 C1255 1.474 . S
C1254 C1256 1.285 . S
C1254 H1274 0.929 . S
C1255 C1252 1.461 . S
C1255 C1254 1.474 . S
C1256 C1251 1.342 . S
C1256 C1254 1.285 . S
C1256 H1275 0.930 . S
C1257 C1260 1.424 . S
C1257 C1262 1.245 . S
C1257 C1263 1.428 . S
C1258 C1261 1.260 . S
C1258 C1262 1.477 . S
C1258 H1276 0.932 . S
C1259 C1260 1.384 . S
C1259 C1261 1.479 . S
C1259 H1277 0.929 . S
C1260 C1257 1.424 . S
C1260 C1259 1.384 . S
C1260 H1278 0.928 . S
C1261 C1258 1.260 . S
C1261 C1259 1.479 . S
C1262 C1257 1.245 . S
C1262 C1258 1.477 . S
C1262 H1279 0.932 . S
C1263 U1246 2.882 . S
C1263 C1257 1.428 . S
C1263 O1266 1.301 . S
C1263 O1267 1.282 . S
O1264 U1246 2.441 . S
O1264 C1250 1.249 . S
O1265 U1246 2.420 . S
O1265 C1250 1.202 . S
O1266 U1246 2.455 . S
O1266 C1263 1.301 . S
O1267 U1246 2.449 . S
O1267 C1263 1.282 . S
H1268 C1241 0.931 . S
H1269 C1243 0.929 . S
H1270 C1244 0.930 . S
H1271 C1245 0.931 . S
H1272 C1252 0.932 . S
H1273 C1253 0.930 . S
H1274 C1254 0.929 . S
H1275 C1256 0.930 . S
H1276 C1258 0.932 . S
H1277 C1259 0.929 . S
H1278 C1260 0.928 . S
H1279 C1262 0.932 . S
H1280 C1299 0.949 . S
H1281 C1300 0.950 . S
H1282 C1302 0.950 . S
H1283 C1303 0.950 . S
H1284 C1305 0.950 . S
H1285 C1308 0.950 . S
H1286 C1309 0.950 . S
H1287 C1311 0.951 . S
H1288 C1312 0.949 . S
H1289 C1314 0.949 . S
H1290 C1315 0.950 . S
H1291 C1317 0.950 . S
H1292 C1318 0.950 . S
H1293 C1320 0.950 . S
H1294 C1323 0.950 . S
H1295 C1324 0.950 . S
H1296 C1326 0.951 . S
H1297 C1327 0.949 . S
C1298 C1299 1.376 . S
C1298 C1303 1.386 . S
C1298 C1304 1.483 . S
C1299 H1280 0.949 . S
C1299 C1298 1.376 . S
C1299 C1300 1.397 . S
C1300 H1281 0.950 . S
C1300 C1299 1.397 . S
C1300 C1301 1.391 . S
C1301 C1300 1.391 . S
C1301 C1302 1.405 . S
C1302 H1282 0.950 . S
C1302 C1301 1.405 . S
C1302 C1303 1.367 . S
C1303 H1283 0.950 . S
C1303 C1298 1.386 . S
C1303 C1302 1.367 . S
C1304 C1298 1.483 . S
C1304 C1305 1.382 1_556 S
C1304 C1306 1.403 . S
C1305 H1284 0.950 . S
C1305 C1304 1.382 1_554 S
C1305 C1321 1.411 . S
C1306 C1304 1.403 . S
C1306 C1307 1.489 . S
C1306 C1320 1.411 1_556 S
C1307 C1306 1.489 . S
C1307 C1308 1.383 . S
C1307 C1312 1.382 . S
C1308 H1285 0.950 . S
C1308 C1307 1.383 . S
C1308 C1309 1.395 . S
C1309 H1286 0.950 . S
C1309 C1308 1.395 . S
C1309 C1310 1.288 . S
C1310 C1309 1.288 . S
C1310 C1311 1.392 . S
C1311 H1287 0.951 . S
C1311 C1310 1.392 . S
C1311 C1312 1.392 . S
C1312 H1288 0.949 . S
C1312 C1307 1.382 . S
C1312 C1311 1.392 . S
C1313 C1314 1.376 . S
C1313 C1318 1.386 . S
C1313 C1319 1.483 . S
C1314 H1289 0.949 . S
C1314 C1313 1.376 . S
C1314 C1315 1.397 . S
C1315 H1290 0.950 . S
C1315 C1314 1.397 . S
C1315 C1316 1.391 . S
C1316 C1315 1.391 . S
C1316 C1317 1.405 . S
C1317 H1291 0.950 . S
C1317 C1316 1.405 . S
C1317 C1318 1.367 . S
C1318 H1292 0.950 . S
C1318 C1313 1.386 . S
C1318 C1317 1.367 . S
C1319 C1313 1.483 . S
C1319 C1320 1.382 . S
C1319 C1321 1.403 . S
C1320 H1293 0.950 . S
C1320 C1306 1.411 1_554 S
C1320 C1319 1.382 . S
C1321 C1305 1.411 . S
C1321 C1319 1.403 . S
C1321 C1322 1.489 . S
C1322 C1321 1.489 . S
C1322 C1323 1.383 . S
C1322 C1327 1.382 . S
C1323 H1294 0.950 . S
C1323 C1322 1.383 . S
C1323 C1324 1.395 . S
C1324 H1295 0.950 . S
C1324 C1323 1.395 . S
C1324 C1325 1.288 . S
C1325 C1324 1.288 . S
C1325 C1326 1.392 . S
C1326 H1296 0.951 . S
C1326 C1325 1.392 . S
C1326 C1327 1.392 . S
C1327 H1297 0.949 . S
C1327 C1322 1.382 . S
C1327 C1326 1.392 . S
H1328 C1347 0.949 . S
H1329 C1348 0.950 . S
H1330 C1350 0.950 . S
H1331 C1351 0.950 . S
H1332 C1353 0.950 . S
H1333 C1356 0.950 . S
H1334 C1357 0.950 . S
H1335 C1359 0.951 . S
H1336 C1360 0.949 . S
H1337 C1362 0.949 . S
H1338 C1363 0.950 . S
H1339 C1365 0.950 . S
H1340 C1366 0.950 . S
H1341 C1368 0.950 . S
H1342 C1371 0.950 . S
H1343 C1372 0.950 . S
H1344 C1374 0.951 . S
H1345 C1375 0.949 . S
C1346 C1347 1.376 . S
C1346 C1351 1.386 . S
C1346 C1352 1.483 . S
C1347 H1328 0.949 . S
C1347 C1346 1.376 . S
C1347 C1348 1.397 . S
C1348 H1329 0.950 . S
C1348 C1347 1.397 . S
C1348 C1349 1.391 . S
C1349 C1348 1.391 . S
C1349 C1350 1.405 . S
C1350 H1330 0.950 . S
C1350 C1349 1.405 . S
C1350 C1351 1.367 . S
C1351 H1331 0.950 . S
C1351 C1346 1.386 . S
C1351 C1350 1.367 . S
C1352 C1346 1.483 . S
C1352 C1353 1.382 1_556 S
C1352 C1354 1.403 . S
C1353 H1332 0.950 . S
C1353 C1352 1.382 1_554 S
C1353 C1369 1.411 . S
C1354 C1352 1.403 . S
C1354 C1355 1.489 . S
C1354 C1368 1.411 1_556 S
C1355 C1354 1.489 . S
C1355 C1356 1.383 . S
C1355 C1360 1.382 . S
C1356 H1333 0.950 . S
C1356 C1355 1.383 . S
C1356 C1357 1.395 . S
C1357 H1334 0.950 . S
C1357 C1356 1.395 . S
C1357 C1358 1.288 . S
C1358 C1357 1.288 . S
C1358 C1359 1.392 . S
C1359 H1335 0.951 . S
C1359 C1358 1.392 . S
C1359 C1360 1.392 . S
C1360 H1336 0.949 . S
C1360 C1355 1.382 . S
C1360 C1359 1.392 . S
C1361 C1362 1.376 . S
C1361 C1366 1.386 . S
C1361 C1367 1.483 . S
C1362 H1337 0.949 . S
C1362 C1361 1.376 . S
C1362 C1363 1.397 . S
C1363 H1338 0.950 . S
C1363 C1362 1.397 . S
C1363 C1364 1.391 . S
C1364 C1363 1.391 . S
C1364 C1365 1.405 . S
C1365 H1339 0.950 . S
C1365 C1364 1.405 . S
C1365 C1366 1.367 . S
C1366 H1340 0.950 . S
C1366 C1361 1.386 . S
C1366 C1365 1.367 . S
C1367 C1361 1.483 . S
C1367 C1368 1.382 . S
C1367 C1369 1.403 . S
C1368 H1341 0.950 . S
C1368 C1354 1.411 1_554 S
C1368 C1367 1.382 . S
C1369 C1353 1.411 . S
C1369 C1367 1.403 . S
C1369 C1370 1.489 . S
C1370 C1369 1.489 . S
C1370 C1371 1.383 . S
C1370 C1375 1.382 . S
C1371 H1342 0.950 . S
C1371 C1370 1.383 . S
C1371 C1372 1.395 . S
C1372 H1343 0.950 . S
C1372 C1371 1.395 . S
C1372 C1373 1.288 . S
C1373 C1372 1.288 . S
C1373 C1374 1.392 . S
C1374 H1344 0.951 . S
C1374 C1373 1.392 . S
C1374 C1375 1.392 . S
C1375 H1345 0.949 . S
C1375 C1370 1.382 . S
C1375 C1374 1.392 . S
H1376 C1395 0.949 . S
H1377 C1396 0.950 . S
H1378 C1398 0.950 . S
H1379 C1399 0.950 . S
H1380 C1401 0.950 . S
H1381 C1404 0.950 . S
H1382 C1405 0.950 . S
H1383 C1407 0.951 . S
H1384 C1408 0.949 . S
H1385 C1410 0.949 . S
H1386 C1411 0.950 . S
H1387 C1413 0.950 . S
H1388 C1414 0.950 . S
H1389 C1416 0.950 . S
H1390 C1419 0.950 . S
H1391 C1420 0.950 . S
H1392 C1422 0.951 . S
H1393 C1423 0.949 . S
C1394 C1395 1.376 . S
C1394 C1399 1.386 . S
C1394 C1400 1.483 . S
C1395 H1376 0.949 . S
C1395 C1394 1.376 . S
C1395 C1396 1.397 . S
C1396 H1377 0.950 . S
C1396 C1395 1.397 . S
C1396 C1397 1.391 . S
C1397 C1396 1.391 . S
C1397 C1398 1.405 . S
C1398 H1378 0.950 . S
C1398 C1397 1.405 . S
C1398 C1399 1.367 . S
C1399 H1379 0.950 . S
C1399 C1394 1.386 . S
C1399 C1398 1.367 . S
C1400 C1394 1.483 . S
C1400 C1401 1.382 . S
C1400 C1402 1.403 . S
C1401 H1380 0.950 . S
C1401 C1400 1.382 . S
C1401 C1417 1.411 1_554 S
C1402 C1400 1.403 . S
C1402 C1403 1.489 . S
C1402 C1416 1.411 . S
C1403 C1402 1.489 . S
C1403 C1404 1.383 . S
C1403 C1408 1.382 . S
C1404 H1381 0.950 . S
C1404 C1403 1.383 . S
C1404 C1405 1.395 . S
C1405 H1382 0.950 . S
C1405 C1404 1.395 . S
C1405 C1406 1.288 . S
C1406 C1405 1.288 . S
C1406 C1407 1.392 . S
C1407 H1383 0.951 . S
C1407 C1406 1.392 . S
C1407 C1408 1.392 . S
C1408 H1384 0.949 . S
C1408 C1403 1.382 . S
C1408 C1407 1.392 . S
C1409 C1410 1.376 . S
C1409 C1414 1.386 . S
C1409 C1415 1.483 . S
C1410 H1385 0.949 . S
C1410 C1409 1.376 . S
C1410 C1411 1.397 . S
C1411 H1386 0.950 . S
C1411 C1410 1.397 . S
C1411 C1412 1.391 . S
C1412 C1411 1.391 . S
C1412 C1413 1.405 . S
C1413 H1387 0.950 . S
C1413 C1412 1.405 . S
C1413 C1414 1.367 . S
C1414 H1388 0.950 . S
C1414 C1409 1.386 . S
C1414 C1413 1.367 . S
C1415 C1409 1.483 . S
C1415 C1416 1.382 1_556 S
C1415 C1417 1.403 . S
C1416 H1389 0.950 . S
C1416 C1402 1.411 . S
C1416 C1415 1.382 1_554 S
C1417 C1401 1.411 1_556 S
C1417 C1415 1.403 . S
C1417 C1418 1.489 . S
C1418 C1417 1.489 . S
C1418 C1419 1.383 . S
C1418 C1423 1.382 . S
C1419 H1390 0.950 . S
C1419 C1418 1.383 . S
C1419 C1420 1.395 . S
C1420 H1391 0.950 . S
C1420 C1419 1.395 . S
C1420 C1421 1.288 . S
C1421 C1420 1.288 . S
C1421 C1422 1.392 . S
C1422 H1392 0.951 . S
C1422 C1421 1.392 . S
C1422 C1423 1.392 . S
C1423 H1393 0.949 . S
C1423 C1418 1.382 . S
C1423 C1422 1.392 . S
H1424 C1443 0.949 . S
H1425 C1444 0.950 . S
H1426 C1446 0.950 . S
H1427 C1447 0.950 . S
H1428 C1449 0.950 . S
H1429 C1452 0.950 . S
H1430 C1453 0.950 . S
H1431 C1455 0.951 . S
H1432 C1456 0.949 . S
H1433 C1458 0.949 . S
H1434 C1459 0.950 . S
H1435 C1461 0.950 . S
H1436 C1462 0.950 . S
H1437 C1464 0.950 . S
H1438 C1467 0.950 . S
H1439 C1468 0.950 . S
H1440 C1470 0.951 . S
H1441 C1471 0.949 . S
C1442 C1443 1.376 . S
C1442 C1447 1.386 . S
C1442 C1448 1.483 . S
C1443 H1424 0.949 . S
C1443 C1442 1.376 . S
C1443 C1444 1.397 . S
C1444 H1425 0.950 . S
C1444 C1443 1.397 . S
C1444 C1445 1.391 . S
C1445 C1444 1.391 . S
C1445 C1446 1.405 . S
C1446 H1426 0.950 . S
C1446 C1445 1.405 . S
C1446 C1447 1.367 . S
C1447 H1427 0.950 . S
C1447 C1442 1.386 . S
C1447 C1446 1.367 . S
C1448 C1442 1.483 . S
C1448 C1449 1.382 1_556 S
C1448 C1450 1.403 . S
C1449 H1428 0.950 . S
C1449 C1448 1.382 1_554 S
C1449 C1465 1.411 . S
C1450 C1448 1.403 . S
C1450 C1451 1.489 . S
C1450 C1464 1.411 1_556 S
C1451 C1450 1.489 . S
C1451 C1452 1.383 . S
C1451 C1456 1.382 . S
C1452 H1429 0.950 . S
C1452 C1451 1.383 . S
C1452 C1453 1.395 . S
C1453 H1430 0.950 . S
C1453 C1452 1.395 . S
C1453 C1454 1.288 . S
C1454 C1453 1.288 . S
C1454 C1455 1.392 . S
C1455 H1431 0.951 . S
C1455 C1454 1.392 . S
C1455 C1456 1.392 . S
C1456 H1432 0.949 . S
C1456 C1451 1.382 . S
C1456 C1455 1.392 . S
C1457 C1458 1.376 . S
C1457 C1462 1.386 . S
C1457 C1463 1.483 . S
C1458 H1433 0.949 . S
C1458 C1457 1.376 . S
C1458 C1459 1.397 . S
C1459 H1434 0.950 . S
C1459 C1458 1.397 . S
C1459 C1460 1.391 . S
C1460 C1459 1.391 . S
C1460 C1461 1.405 . S
C1461 H1435 0.950 . S
C1461 C1460 1.405 . S
C1461 C1462 1.367 . S
C1462 H1436 0.950 . S
C1462 C1457 1.386 . S
C1462 C1461 1.367 . S
C1463 C1457 1.483 . S
C1463 C1464 1.382 . S
C1463 C1465 1.403 . S
C1464 H1437 0.950 . S
C1464 C1450 1.411 1_554 S
C1464 C1463 1.382 . S
C1465 C1449 1.411 . S
C1465 C1463 1.403 . S
C1465 C1466 1.489 . S
C1466 C1465 1.489 . S
C1466 C1467 1.383 . S
C1466 C1471 1.382 . S
C1467 H1438 0.950 . S
C1467 C1466 1.383 . S
C1467 C1468 1.395 . S
C1468 H1439 0.950 . S
C1468 C1467 1.395 . S
C1468 C1469 1.288 . S
C1469 C1468 1.288 . S
C1469 C1470 1.392 . S
C1470 H1440 0.951 . S
C1470 C1469 1.392 . S
C1470 C1471 1.392 . S
C1471 H1441 0.949 . S
C1471 C1466 1.382 . S
C1471 C1470 1.392 . S
H1472 C1491 0.949 . S
H1473 C1492 0.950 . S
H1474 C1494 0.950 . S
H1475 C1495 0.950 . S
H1476 C1497 0.950 . S
H1477 C1500 0.950 . S
H1478 C1501 0.950 . S
H1479 C1503 0.951 . S
H1480 C1504 0.949 . S
H1481 C1506 0.949 . S
H1482 C1507 0.950 . S
H1483 C1509 0.950 . S
H1484 C1510 0.950 . S
H1485 C1512 0.950 . S
H1486 C1515 0.950 . S
H1487 C1516 0.950 . S
H1488 C1518 0.951 . S
H1489 C1519 0.949 . S
C1490 C1491 1.376 . S
C1490 C1495 1.386 . S
C1490 C1496 1.483 . S
C1491 H1472 0.949 . S
C1491 C1490 1.376 . S
C1491 C1492 1.397 . S
C1492 H1473 0.950 . S
C1492 C1491 1.397 . S
C1492 C1493 1.391 . S
C1493 C1492 1.391 . S
C1493 C1494 1.405 . S
C1494 H1474 0.950 . S
C1494 C1493 1.405 . S
C1494 C1495 1.367 . S
C1495 H1475 0.950 . S
C1495 C1490 1.386 . S
C1495 C1494 1.367 . S
C1496 C1490 1.483 . S
C1496 C1497 1.382 . S
C1496 C1498 1.403 . S
C1497 H1476 0.950 . S
C1497 C1496 1.382 . S
C1497 C1513 1.411 1_455 S
C1498 C1496 1.403 . S
C1498 C1499 1.489 . S
C1498 C1512 1.411 . S
C1499 C1498 1.489 . S
C1499 C1500 1.383 . S
C1499 C1504 1.382 . S
C1500 H1477 0.950 . S
C1500 C1499 1.383 . S
C1500 C1501 1.395 . S
C1501 H1478 0.950 . S
C1501 C1500 1.395 . S
C1501 C1502 1.288 . S
C1502 C1501 1.288 . S
C1502 C1503 1.392 . S
C1503 H1479 0.951 . S
C1503 C1502 1.392 . S
C1503 C1504 1.392 . S
C1504 H1480 0.949 . S
C1504 C1499 1.382 . S
C1504 C1503 1.392 . S
C1505 C1506 1.376 . S
C1505 C1510 1.386 . S
C1505 C1511 1.483 . S
C1506 H1481 0.949 . S
C1506 C1505 1.376 . S
C1506 C1507 1.397 . S
C1507 H1482 0.950 . S
C1507 C1506 1.397 . S
C1507 C1508 1.391 . S
C1508 C1507 1.391 . S
C1508 C1509 1.405 . S
C1509 H1483 0.950 . S
C1509 C1508 1.405 . S
C1509 C1510 1.367 . S
C1510 H1484 0.950 . S
C1510 C1505 1.386 . S
C1510 C1509 1.367 . S
C1511 C1505 1.483 . S
C1511 C1512 1.382 1_655 S
C1511 C1513 1.403 . S
C1512 H1485 0.950 . S
C1512 C1498 1.411 . S
C1512 C1511 1.382 1_455 S
C1513 C1497 1.411 1_655 S
C1513 C1511 1.403 . S
C1513 C1514 1.489 . S
C1514 C1513 1.489 . S
C1514 C1515 1.383 . S
C1514 C1519 1.382 . S
C1515 H1486 0.950 . S
C1515 C1514 1.383 . S
C1515 C1516 1.395 . S
C1516 H1487 0.950 . S
C1516 C1515 1.395 . S
C1516 C1517 1.288 . S
C1517 C1516 1.288 . S
C1517 C1518 1.392 . S
C1518 H1488 0.951 . S
C1518 C1517 1.392 . S
C1518 C1519 1.392 . S
C1519 H1489 0.949 . S
C1519 C1514 1.382 . S
C1519 C1518 1.392 . S
H1520 C1539 0.949 . S
H1521 C1540 0.950 . S
H1522 C1542 0.950 . S
H1523 C1543 0.950 . S
H1524 C1545 0.950 . S
H1525 C1548 0.950 . S
H1526 C1549 0.950 . S
H1527 C1551 0.951 . S
H1528 C1552 0.949 . S
H1529 C1554 0.949 . S
H1530 C1555 0.950 . S
H1531 C1557 0.950 . S
H1532 C1558 0.950 . S
H1533 C1560 0.950 . S
H1534 C1563 0.950 . S
H1535 C1564 0.950 . S
H1536 C1566 0.951 . S
H1537 C1567 0.949 . S
C1538 C1539 1.376 . S
C1538 C1543 1.386 . S
C1538 C1544 1.483 . S
C1539 H1520 0.949 . S
C1539 C1538 1.376 . S
C1539 C1540 1.397 . S
C1540 H1521 0.950 . S
C1540 C1539 1.397 . S
C1540 C1541 1.391 . S
C1541 C1540 1.391 . S
C1541 C1542 1.405 . S
C1542 H1522 0.950 . S
C1542 C1541 1.405 . S
C1542 C1543 1.367 . S
C1543 H1523 0.950 . S
C1543 C1538 1.386 . S
C1543 C1542 1.367 . S
C1544 C1538 1.483 . S
C1544 C1545 1.382 . S
C1544 C1546 1.403 . S
C1545 H1524 0.950 . S
C1545 C1544 1.382 . S
C1545 C1561 1.411 1_545 S
C1546 C1544 1.403 . S
C1546 C1547 1.489 . S
C1546 C1560 1.405 1_545 S
C1547 C1546 1.489 . S
C1547 C1548 1.383 . S
C1547 C1552 1.382 . S
C1548 H1525 0.950 . S
C1548 C1547 1.383 . S
C1548 C1549 1.395 . S
C1549 H1526 0.950 . S
C1549 C1548 1.395 . S
C1549 C1550 1.288 . S
C1550 C1549 1.288 . S
C1550 C1551 1.392 . S
C1551 H1527 0.951 . S
C1551 C1550 1.392 . S
C1551 C1552 1.392 . S
C1552 H1528 0.949 . S
C1552 C1547 1.382 . S
C1552 C1551 1.392 . S
C1553 C1554 1.376 . S
C1553 C1558 1.386 . S
C1553 C1559 1.483 . S
C1554 H1529 0.949 . S
C1554 C1553 1.376 . S
C1554 C1555 1.397 . S
C1555 H1530 0.950 . S
C1555 C1554 1.397 . S
C1555 C1556 1.391 . S
C1556 C1555 1.391 . S
C1556 C1557 1.405 . S
C1557 H1531 0.950 . S
C1557 C1556 1.405 . S
C1557 C1558 1.367 . S
C1558 H1532 0.950 . S
C1558 C1553 1.386 . S
C1558 C1557 1.367 . S
C1559 C1553 1.483 . S
C1559 C1560 1.387 . S
C1559 C1561 1.403 . S
C1560 H1533 0.950 . S
C1560 C1546 1.405 1_565 S
C1560 C1559 1.387 . S
C1561 C1545 1.411 1_565 S
C1561 C1559 1.403 . S
C1561 C1562 1.489 . S
C1562 C1561 1.489 . S
C1562 C1563 1.383 . S
C1562 C1567 1.382 . S
C1563 H1534 0.950 . S
C1563 C1562 1.383 . S
C1563 C1564 1.395 . S
C1564 H1535 0.950 . S
C1564 C1563 1.395 . S
C1564 C1565 1.288 . S
C1565 C1564 1.288 . S
C1565 C1566 1.392 . S
C1566 H1536 0.951 . S
C1566 C1565 1.392 . S
C1566 C1567 1.392 . S
C1567 H1537 0.949 . S
C1567 C1562 1.382 . S
C1567 C1566 1.392 . S
H1568 C1587 0.949 . S
H1569 C1588 0.950 . S
H1570 C1590 0.950 . S
H1571 C1591 0.950 . S
H1572 C1593 0.955 . S
H1573 C1596 0.950 . S
H1574 C1597 0.950 . S
H1575 C1599 0.951 . S
H1576 C1600 0.949 . S
H1577 C1602 0.949 . S
H1578 C1603 0.950 . S
H1579 C1605 0.950 . S
H1580 C1606 0.950 . S
H1581 C1608 0.950 . S
H1582 C1611 0.950 . S
H1583 C1612 0.950 . S
H1584 C1614 0.951 . S
H1585 C1615 0.949 . S
C1586 C1587 1.376 . S
C1586 C1591 1.386 . S
C1586 C1592 1.483 . S
C1587 H1568 0.949 . S
C1587 C1586 1.376 . S
C1587 C1588 1.397 . S
C1588 H1569 0.950 . S
C1588 C1587 1.397 . S
C1588 C1589 1.391 . S
C1589 C1588 1.391 . S
C1589 C1590 1.405 . S
C1590 H1570 0.950 . S
C1590 C1589 1.405 . S
C1590 C1591 1.367 . S
C1591 H1571 0.950 . S
C1591 C1586 1.386 . S
C1591 C1590 1.367 . S
C1592 C1586 1.483 . S
C1592 C1593 1.451 . S
C1592 C1594 1.403 . S
C1593 H1572 0.955 . S
C1593 C1592 1.451 . S
C1593 C1609 1.341 1_455 S
C1594 C1592 1.403 . S
C1594 C1595 1.489 . S
C1594 C1608 1.430 . S
C1595 C1594 1.489 . S
C1595 C1596 1.383 . S
C1595 C1600 1.382 . S
C1596 H1573 0.950 . S
C1596 C1595 1.383 . S
C1596 C1597 1.395 . S
C1597 H1574 0.950 . S
C1597 C1596 1.395 . S
C1597 C1598 1.288 . S
C1598 C1597 1.288 . S
C1598 C1599 1.392 . S
C1599 H1575 0.951 . S
C1599 C1598 1.392 . S
C1599 C1600 1.392 . S
C1600 H1576 0.949 . S
C1600 C1595 1.382 . S
C1600 C1599 1.392 . S
C1601 C1602 1.376 . S
C1601 C1606 1.386 . S
C1601 C1607 1.483 . S
C1602 H1577 0.949 . S
C1602 C1601 1.376 . S
C1602 C1603 1.397 . S
C1603 H1578 0.950 . S
C1603 C1602 1.397 . S
C1603 C1604 1.391 . S
C1604 C1603 1.391 . S
C1604 C1605 1.405 . S
C1605 H1579 0.950 . S
C1605 C1604 1.405 . S
C1605 C1606 1.367 . S
C1606 H1580 0.950 . S
C1606 C1601 1.386 . S
C1606 C1605 1.367 . S
C1607 C1601 1.483 . S
C1607 C1608 1.363 1_655 S
C1607 C1609 1.403 . S
C1608 H1581 0.950 . S
C1608 C1594 1.430 . S
C1608 C1607 1.363 1_455 S
C1609 C1593 1.341 1_655 S
C1609 C1607 1.403 . S
C1609 C1610 1.489 . S
C1610 C1609 1.489 . S
C1610 C1611 1.383 . S
C1610 C1615 1.382 . S
C1611 H1582 0.950 . S
C1611 C1610 1.383 . S
C1611 C1612 1.395 . S
C1612 H1583 0.950 . S
C1612 C1611 1.395 . S
C1612 C1613 1.288 . S
C1613 C1612 1.288 . S
C1613 C1614 1.392 . S
C1614 H1584 0.951 . S
C1614 C1613 1.392 . S
C1614 C1615 1.392 . S
C1615 H1585 0.949 . S
C1615 C1610 1.382 . S
C1615 C1614 1.392 . S
H1616 C1635 0.949 . S
H1617 C1636 0.950 . S
H1618 C1638 0.950 . S
H1619 C1639 0.950 . S
H1620 C1641 0.950 . S
H1621 C1644 0.950 . S
H1622 C1645 0.950 . S
H1623 C1647 0.951 . S
H1624 C1648 0.949 . S
H1625 C1650 0.949 . S
H1626 C1651 0.950 . S
H1627 C1653 0.950 . S
H1628 C1654 0.950 . S
H1629 C1656 0.950 . S
H1630 C1659 0.950 . S
H1631 C1660 0.950 . S
H1632 C1662 0.951 . S
H1633 C1663 0.949 . S
C1634 C1635 1.376 . S
C1634 C1639 1.386 . S
C1634 C1640 1.483 . S
C1635 H1616 0.949 . S
C1635 C1634 1.376 . S
C1635 C1636 1.397 . S
C1636 H1617 0.950 . S
C1636 C1635 1.397 . S
C1636 C1637 1.391 . S
C1637 C1636 1.391 . S
C1637 C1638 1.405 . S
C1638 H1618 0.950 . S
C1638 C1637 1.405 . S
C1638 C1639 1.367 . S
C1639 H1619 0.950 . S
C1639 C1634 1.386 . S
C1639 C1638 1.367 . S
C1640 C1634 1.483 . S
C1640 C1641 1.382 . S
C1640 C1642 1.403 . S
C1641 H1620 0.950 . S
C1641 C1640 1.382 . S
C1641 C1657 1.411 1_545 S
C1642 C1640 1.403 . S
C1642 C1643 1.489 . S
C1642 C1656 1.411 . S
C1643 C1642 1.489 . S
C1643 C1644 1.383 . S
C1643 C1648 1.382 . S
C1644 H1621 0.950 . S
C1644 C1643 1.383 . S
C1644 C1645 1.395 . S
C1645 H1622 0.950 . S
C1645 C1644 1.395 . S
C1645 C1646 1.288 . S
C1646 C1645 1.288 . S
C1646 C1647 1.392 . S
C1647 H1623 0.951 . S
C1647 C1646 1.392 . S
C1647 C1648 1.392 . S
C1648 H1624 0.949 . S
C1648 C1643 1.382 . S
C1648 C1647 1.392 . S
C1649 C1650 1.376 . S
C1649 C1654 1.386 . S
C1649 C1655 1.483 . S
C1650 H1625 0.949 . S
C1650 C1649 1.376 . S
C1650 C1651 1.397 . S
C1651 H1626 0.950 . S
C1651 C1650 1.397 . S
C1651 C1652 1.391 . S
C1652 C1651 1.391 . S
C1652 C1653 1.405 . S
C1653 H1627 0.950 . S
C1653 C1652 1.405 . S
C1653 C1654 1.367 . S
C1654 H1628 0.950 . S
C1654 C1649 1.386 . S
C1654 C1653 1.367 . S
C1655 C1649 1.483 . S
C1655 C1656 1.382 1_565 S
C1655 C1657 1.403 . S
C1656 H1629 0.950 . S
C1656 C1642 1.411 . S
C1656 C1655 1.382 1_545 S
C1657 C1641 1.411 1_565 S
C1657 C1655 1.403 . S
C1657 C1658 1.489 . S
C1658 C1657 1.489 . S
C1658 C1659 1.383 . S
C1658 C1663 1.382 . S
C1659 H1630 0.950 . S
C1659 C1658 1.383 . S
C1659 C1660 1.395 . S
C1660 H1631 0.950 . S
C1660 C1659 1.395 . S
C1660 C1661 1.288 . S
C1661 C1660 1.288 . S
C1661 C1662 1.392 . S
C1662 H1632 0.951 . S
C1662 C1661 1.392 . S
C1662 C1663 1.392 . S
C1663 H1633 0.949 . S
C1663 C1658 1.382 . S
C1663 C1662 1.392 . S
H1664 C1683 0.949 . S
H1665 C1684 0.950 . S
H1666 C1686 0.950 . S
H1667 C1687 0.950 . S
H1668 C1689 0.950 . S
H1669 C1692 0.950 . S
H1670 C1693 0.950 . S
H1671 C1695 0.951 . S
H1672 C1696 0.949 . S
H1673 C1698 0.949 . S
H1674 C1699 0.950 . S
H1675 C1701 0.950 . S
H1676 C1702 0.950 . S
H1677 C1704 0.953 . S
H1678 C1707 0.950 . S
H1679 C1708 0.950 . S
H1680 C1710 0.951 . S
H1681 C1711 0.949 . S
C1682 C1683 1.376 . S
C1682 C1687 1.386 . S
C1682 C1688 1.483 . S
C1683 H1664 0.949 . S
C1683 C1682 1.376 . S
C1683 C1684 1.397 . S
C1684 H1665 0.950 . S
C1684 C1683 1.397 . S
C1684 C1685 1.391 . S
C1685 C1684 1.391 . S
C1685 C1686 1.405 . S
C1686 H1666 0.950 . S
C1686 C1685 1.405 . S
C1686 C1687 1.367 . S
C1687 H1667 0.950 . S
C1687 C1682 1.386 . S
C1687 C1686 1.367 . S
C1688 C1682 1.483 . S
C1688 C1689 1.382 . S
C1688 C1690 1.403 . S
C1689 H1668 0.950 . S
C1689 C1688 1.382 . S
C1689 C1705 1.411 1_455 S
C1690 C1688 1.403 . S
C1690 C1691 1.489 . S
C1690 C1704 1.411 . S
C1691 C1690 1.489 . S
C1691 C1692 1.383 . S
C1691 C1696 1.382 . S
C1692 H1669 0.950 . S
C1692 C1691 1.383 . S
C1692 C1693 1.395 . S
C1693 H1670 0.950 . S
C1693 C1692 1.395 . S
C1693 C1694 1.288 . S
C1694 C1693 1.288 . S
C1694 C1695 1.392 . S
C1695 H1671 0.951 . S
C1695 C1694 1.392 . S
C1695 C1696 1.392 . S
C1696 H1672 0.949 . S
C1696 C1691 1.382 . S
C1696 C1695 1.392 . S
C1697 C1698 1.376 . S
C1697 C1702 1.386 . S
C1697 C1703 1.483 . S
C1698 H1673 0.949 . S
C1698 C1697 1.376 . S
C1698 C1699 1.397 . S
C1699 H1674 0.950 . S
C1699 C1698 1.397 . S
C1699 C1700 1.391 . S
C1700 C1699 1.391 . S
C1700 C1701 1.405 . S
C1701 H1675 0.950 . S
C1701 C1700 1.405 . S
C1701 C1702 1.367 . S
C1702 H1676 0.950 . S
C1702 C1697 1.386 . S
C1702 C1701 1.367 . S
C1703 C1697 1.483 . S
C1703 C1704 1.382 1_655 S
C1703 C1705 1.403 . S
C1704 H1677 0.953 . S
C1704 C1690 1.411 . S
C1704 C1703 1.382 1_455 S
C1705 C1689 1.411 1_655 S
C1705 C1703 1.403 . S
C1705 C1706 1.489 . S
C1706 C1705 1.489 . S
C1706 C1707 1.383 . S
C1706 C1711 1.382 . S
C1707 H1678 0.950 . S
C1707 C1706 1.383 . S
C1707 C1708 1.395 . S
C1708 H1679 0.950 . S
C1708 C1707 1.395 . S
C1708 C1709 1.288 . S
C1709 C1708 1.288 . S
C1709 C1710 1.392 . S
C1710 H1680 0.951 . S
C1710 C1709 1.392 . S
C1710 C1711 1.392 . S
C1711 H1681 0.949 . S
C1711 C1706 1.382 . S
C1711 C1710 1.392 . S
H1712 C1731 0.949 . S
H1713 C1732 0.950 . S
H1714 C1734 0.950 . S
H1715 C1735 0.950 . S
H1716 C1737 0.950 . S
H1717 C1740 0.950 . S
H1718 C1741 0.950 . S
H1719 C1743 0.951 . S
H1720 C1744 0.949 . S
H1721 C1746 0.949 . S
H1722 C1747 0.950 . S
H1723 C1749 0.950 . S
H1724 C1750 0.950 . S
H1725 C1752 0.950 . S
H1726 C1755 0.950 . S
H1727 C1756 0.950 . S
H1728 C1758 0.951 . S
H1729 C1759 0.949 . S
C1730 C1731 1.376 . S
C1730 C1735 1.386 . S
C1730 C1736 1.483 . S
C1731 H1712 0.949 . S
C1731 C1730 1.376 . S
C1731 C1732 1.397 . S
C1732 H1713 0.950 . S
C1732 C1731 1.397 . S
C1732 C1733 1.391 . S
C1733 C1732 1.391 . S
C1733 C1734 1.405 . S
C1734 H1714 0.950 . S
C1734 C1733 1.405 . S
C1734 C1735 1.367 . S
C1735 H1715 0.950 . S
C1735 C1730 1.386 . S
C1735 C1734 1.367 . S
C1736 C1730 1.483 . S
C1736 C1737 1.382 . S
C1736 C1738 1.403 . S
C1737 H1716 0.950 . S
C1737 C1736 1.382 . S
C1737 C1753 1.411 1_545 S
C1738 C1736 1.403 . S
C1738 C1739 1.489 . S
C1738 C1752 1.405 1_545 S
C1739 C1738 1.489 . S
C1739 C1740 1.383 . S
C1739 C1744 1.382 . S
C1740 H1717 0.950 . S
C1740 C1739 1.383 . S
C1740 C1741 1.395 . S
C1741 H1718 0.950 . S
C1741 C1740 1.395 . S
C1741 C1742 1.288 . S
C1742 C1741 1.288 . S
C1742 C1743 1.392 . S
C1743 H1719 0.951 . S
C1743 C1742 1.392 . S
C1743 C1744 1.392 . S
C1744 H1720 0.949 . S
C1744 C1739 1.382 . S
C1744 C1743 1.392 . S
C1745 C1746 1.376 . S
C1745 C1750 1.386 . S
C1745 C1751 1.483 . S
C1746 H1721 0.949 . S
C1746 C1745 1.376 . S
C1746 C1747 1.397 . S
C1747 H1722 0.950 . S
C1747 C1746 1.397 . S
C1747 C1748 1.391 . S
C1748 C1747 1.391 . S
C1748 C1749 1.405 . S
C1749 H1723 0.950 . S
C1749 C1748 1.405 . S
C1749 C1750 1.367 . S
C1750 H1724 0.950 . S
C1750 C1745 1.386 . S
C1750 C1749 1.367 . S
C1751 C1745 1.483 . S
C1751 C1752 1.387 . S
C1751 C1753 1.403 . S
C1752 H1725 0.950 . S
C1752 C1738 1.405 1_565 S
C1752 C1751 1.387 . S
C1753 C1737 1.411 1_565 S
C1753 C1751 1.403 . S
C1753 C1754 1.489 . S
C1754 C1753 1.489 . S
C1754 C1755 1.383 . S
C1754 C1759 1.382 . S
C1755 H1726 0.950 . S
C1755 C1754 1.383 . S
C1755 C1756 1.395 . S
C1756 H1727 0.950 . S
C1756 C1755 1.395 . S
C1756 C1757 1.288 . S
C1757 C1756 1.288 . S
C1757 C1758 1.392 . S
C1758 H1728 0.951 . S
C1758 C1757 1.392 . S
C1758 C1759 1.392 . S
C1759 H1729 0.949 . S
C1759 C1754 1.382 . S
C1759 C1758 1.392 . S
H1760 C1779 0.949 . S
H1761 C1780 0.950 . S
H1762 C1782 0.950 . S
H1763 C1783 0.950 . S
H1764 C1785 0.950 . S
H1765 C1788 0.950 . S
H1766 C1789 0.950 . S
H1767 C1791 0.951 . S
H1768 C1792 0.949 . S
H1769 C1794 0.949 . S
H1770 C1795 0.950 . S
H1771 C1797 0.950 . S
H1772 C1798 0.950 . S
H1773 C1800 0.950 . S
H1774 C1803 0.950 . S
H1775 C1804 0.950 . S
H1776 C1806 0.951 . S
H1777 C1807 0.949 . S
C1778 C1779 1.376 . S
C1778 C1783 1.386 . S
C1778 C1784 1.483 . S
C1779 H1760 0.949 . S
C1779 C1778 1.376 . S
C1779 C1780 1.397 . S
C1780 H1761 0.950 . S
C1780 C1779 1.397 . S
C1780 C1781 1.391 . S
C1781 C1780 1.391 . S
C1781 C1782 1.405 . S
C1782 H1762 0.950 . S
C1782 C1781 1.405 . S
C1782 C1783 1.367 . S
C1783 H1763 0.950 . S
C1783 C1778 1.386 . S
C1783 C1782 1.367 . S
C1784 C1778 1.483 . S
C1784 C1785 1.368 1_655 S
C1784 C1786 1.403 . S
C1785 H1764 0.950 . S
C1785 C1784 1.368 1_455 S
C1785 C1801 1.425 . S
C1786 C1784 1.403 . S
C1786 C1787 1.489 . S
C1786 C1800 1.411 1_655 S
C1787 C1786 1.489 . S
C1787 C1788 1.383 . S
C1787 C1792 1.382 . S
C1788 H1765 0.950 . S
C1788 C1787 1.383 . S
C1788 C1789 1.395 . S
C1789 H1766 0.950 . S
C1789 C1788 1.395 . S
C1789 C1790 1.288 . S
C1790 C1789 1.288 . S
C1790 C1791 1.392 . S
C1791 H1767 0.951 . S
C1791 C1790 1.392 . S
C1791 C1792 1.392 . S
C1792 H1768 0.949 . S
C1792 C1787 1.382 . S
C1792 C1791 1.392 . S
C1793 C1794 1.376 . S
C1793 C1798 1.386 . S
C1793 C1799 1.483 . S
C1794 H1769 0.949 . S
C1794 C1793 1.376 . S
C1794 C1795 1.397 . S
C1795 H1770 0.950 . S
C1795 C1794 1.397 . S
C1795 C1796 1.391 . S
C1796 C1795 1.391 . S
C1796 C1797 1.405 . S
C1797 H1771 0.950 . S
C1797 C1796 1.405 . S
C1797 C1798 1.367 . S
C1798 H1772 0.950 . S
C1798 C1793 1.386 . S
C1798 C1797 1.367 . S
C1799 C1793 1.483 . S
C1799 C1800 1.382 . S
C1799 C1801 1.403 . S
C1800 H1773 0.950 . S
C1800 C1786 1.411 1_455 S
C1800 C1799 1.382 . S
C1801 C1785 1.425 . S
C1801 C1799 1.403 . S
C1801 C1802 1.489 . S
C1802 C1801 1.489 . S
C1802 C1803 1.383 . S
C1802 C1807 1.382 . S
C1803 H1774 0.950 . S
C1803 C1802 1.383 . S
C1803 C1804 1.395 . S
C1804 H1775 0.950 . S
C1804 C1803 1.395 . S
C1804 C1805 1.288 . S
C1805 C1804 1.288 . S
C1805 C1806 1.392 . S
C1806 H1776 0.951 . S
C1806 C1805 1.392 . S
C1806 C1807 1.392 . S
C1807 H1777 0.949 . S
C1807 C1802 1.382 . S
C1807 C1806 1.392 . S
H1808 C1827 0.949 . S
H1809 C1828 0.950 . S
H1810 C1830 0.950 . S
H1811 C1831 0.950 . S
H1812 C1833 0.950 . S
H1813 C1836 0.950 . S
H1814 C1837 0.950 . S
H1815 C1839 0.951 . S
H1816 C1840 0.949 . S
H1817 C1842 0.949 . S
H1818 C1843 0.950 . S
H1819 C1845 0.950 . S
H1820 C1846 0.950 . S
H1821 C1848 0.950 . S
H1822 C1851 0.950 . S
H1823 C1852 0.950 . S
H1824 C1854 0.951 . S
H1825 C1855 0.949 . S
C1826 C1827 1.376 . S
C1826 C1831 1.386 . S
C1826 C1832 1.483 . S
C1827 H1808 0.949 . S
C1827 C1826 1.376 . S
C1827 C1828 1.397 . S
C1828 H1809 0.950 . S
C1828 C1827 1.397 . S
C1828 C1829 1.391 . S
C1829 C1828 1.391 . S
C1829 C1830 1.405 . S
C1830 H1810 0.950 . S
C1830 C1829 1.405 . S
C1830 C1831 1.367 . S
C1831 H1811 0.950 . S
C1831 C1826 1.386 . S
C1831 C1830 1.367 . S
C1832 C1826 1.483 . S
C1832 C1833 1.382 . S
C1832 C1834 1.403 . S
C1833 H1812 0.950 . S
C1833 C1832 1.382 . S
C1833 C1849 1.411 1_545 S
C1834 C1832 1.403 . S
C1834 C1835 1.489 . S
C1834 C1848 1.411 . S
C1835 C1834 1.489 . S
C1835 C1836 1.383 . S
C1835 C1840 1.382 . S
C1836 H1813 0.950 . S
C1836 C1835 1.383 . S
C1836 C1837 1.395 . S
C1837 H1814 0.950 . S
C1837 C1836 1.395 . S
C1837 C1838 1.288 . S
C1838 C1837 1.288 . S
C1838 C1839 1.392 . S
C1839 H1815 0.951 . S
C1839 C1838 1.392 . S
C1839 C1840 1.392 . S
C1840 H1816 0.949 . S
C1840 C1835 1.382 . S
C1840 C1839 1.392 . S
C1841 C1842 1.376 . S
C1841 C1846 1.386 . S
C1841 C1847 1.483 . S
C1842 H1817 0.949 . S
C1842 C1841 1.376 . S
C1842 C1843 1.397 . S
C1843 H1818 0.950 . S
C1843 C1842 1.397 . S
C1843 C1844 1.391 . S
C1844 C1843 1.391 . S
C1844 C1845 1.405 . S
C1845 H1819 0.950 . S
C1845 C1844 1.405 . S
C1845 C1846 1.367 . S
C1846 H1820 0.950 . S
C1846 C1841 1.386 . S
C1846 C1845 1.367 . S
C1847 C1841 1.483 . S
C1847 C1848 1.382 1_565 S
C1847 C1849 1.403 . S
C1848 H1821 0.950 . S
C1848 C1834 1.411 . S
C1848 C1847 1.382 1_545 S
C1849 C1833 1.411 1_565 S
C1849 C1847 1.403 . S
C1849 C1850 1.489 . S
C1850 C1849 1.489 . S
C1850 C1851 1.383 . S
C1850 C1855 1.382 . S
C1851 H1822 0.950 . S
C1851 C1850 1.383 . S
C1851 C1852 1.395 . S
C1852 H1823 0.950 . S
C1852 C1851 1.395 . S
C1852 C1853 1.288 . S
C1853 C1852 1.288 . S
C1853 C1854 1.392 . S
C1854 H1824 0.951 . S
C1854 C1853 1.392 . S
C1854 C1855 1.392 . S
C1855 H1825 0.949 . S
C1855 C1850 1.382 . S
C1855 C1854 1.392 . S
H1856 C1875 0.949 . S
H1857 C1876 0.950 . S
H1858 C1878 0.950 . S
H1859 C1879 0.950 . S
H1860 C1881 0.950 . S
H1861 C1884 0.950 . S
H1862 C1885 0.950 . S
H1863 C1887 0.951 . S
H1864 C1888 0.949 . S
H1865 C1890 0.949 . S
H1866 C1891 0.950 . S
H1867 C1893 0.950 . S
H1868 C1894 0.950 . S
H1869 C1896 0.950 . S
H1870 C1899 0.950 . S
H1871 C1900 0.950 . S
H1872 C1902 0.951 . S
H1873 C1903 0.949 . S
C1874 C1875 1.376 . S
C1874 C1879 1.386 . S
C1874 C1880 1.483 . S
C1875 H1856 0.949 . S
C1875 C1874 1.376 . S
C1875 C1876 1.397 . S
C1876 H1857 0.950 . S
C1876 C1875 1.397 . S
C1876 C1877 1.391 . S
C1877 C1876 1.391 . S
C1877 C1878 1.405 . S
C1878 H1858 0.950 . S
C1878 C1877 1.405 . S
C1878 C1879 1.367 . S
C1879 H1859 0.950 . S
C1879 C1874 1.386 . S
C1879 C1878 1.367 . S
C1880 C1874 1.483 . S
C1880 C1881 1.382 . S
C1880 C1882 1.403 . S
C1881 H1860 0.950 . S
C1881 C1880 1.382 . S
C1881 C1897 1.411 . S
C1882 C1880 1.403 . S
C1882 C1883 1.489 . S
C1882 C1896 1.411 . S
C1883 C1882 1.489 . S
C1883 C1884 1.383 . S
C1883 C1888 1.382 . S
C1884 H1861 0.950 . S
C1884 C1883 1.383 . S
C1884 C1885 1.395 . S
C1885 H1862 0.950 . S
C1885 C1884 1.395 . S
C1885 C1886 1.288 . S
C1886 C1885 1.288 . S
C1886 C1887 1.392 . S
C1887 H1863 0.951 . S
C1887 C1886 1.392 . S
C1887 C1888 1.392 . S
C1888 H1864 0.949 . S
C1888 C1883 1.382 . S
C1888 C1887 1.392 . S
C1889 C1890 1.376 . S
C1889 C1894 1.386 . S
C1889 C1895 1.483 . S
C1890 H1865 0.949 . S
C1890 C1889 1.376 . S
C1890 C1891 1.397 . S
C1891 H1866 0.950 . S
C1891 C1890 1.397 . S
C1891 C1892 1.391 . S
C1892 C1891 1.391 . S
C1892 C1893 1.405 . S
C1893 H1867 0.950 . S
C1893 C1892 1.405 . S
C1893 C1894 1.367 . S
C1894 H1868 0.950 . S
C1894 C1889 1.386 . S
C1894 C1893 1.367 . S
C1895 C1889 1.483 . S
C1895 C1896 1.382 . S
C1895 C1897 1.403 . S
C1896 H1869 0.950 . S
C1896 C1882 1.411 . S
C1896 C1895 1.382 . S
C1897 C1881 1.411 . S
C1897 C1895 1.403 . S
C1897 C1898 1.489 . S
C1898 C1897 1.489 . S
C1898 C1899 1.383 . S
C1898 C1903 1.382 . S
C1899 H1870 0.950 . S
C1899 C1898 1.383 . S
C1899 C1900 1.395 . S
C1900 H1871 0.950 . S
C1900 C1899 1.395 . S
C1900 C1901 1.288 . S
C1901 C1900 1.288 . S
C1901 C1902 1.392 . S
C1902 H1872 0.951 . S
C1902 C1901 1.392 . S
C1902 C1903 1.392 . S
C1903 H1873 0.949 . S
C1903 C1898 1.382 . S
C1903 C1902 1.392 . S
H1904 C1923 0.949 . S
H1905 C1924 0.950 . S
H1906 C1926 0.950 . S
H1907 C1927 0.950 . S
H1908 C1929 0.950 . S
H1909 C1932 0.950 . S
H1910 C1933 0.950 . S
H1911 C1935 0.951 . S
H1912 C1936 0.949 . S
H1913 C1938 0.949 . S
H1914 C1939 0.950 . S
H1915 C1941 0.950 . S
H1916 C1942 0.950 . S
H1917 C1944 0.950 . S
H1918 C1947 0.950 . S
H1919 C1948 0.950 . S
H1920 C1950 0.951 . S
H1921 C1951 0.949 . S
C1922 C1923 1.376 . S
C1922 C1927 1.386 . S
C1922 C1928 1.483 . S
C1923 H1904 0.949 . S
C1923 C1922 1.376 . S
C1923 C1924 1.397 . S
C1924 H1905 0.950 . S
C1924 C1923 1.397 . S
C1924 C1925 1.391 . S
C1925 C1924 1.391 . S
C1925 C1926 1.405 . S
C1926 H1906 0.950 . S
C1926 C1925 1.405 . S
C1926 C1927 1.367 . S
C1927 H1907 0.950 . S
C1927 C1922 1.386 . S
C1927 C1926 1.367 . S
C1928 C1922 1.483 . S
C1928 C1929 1.382 . S
C1928 C1930 1.403 . S
C1929 H1908 0.950 . S
C1929 C1928 1.382 . S
C1929 C1945 1.411 . S
C1930 C1928 1.403 . S
C1930 C1931 1.489 . S
C1930 C1944 1.411 . S
C1931 C1930 1.489 . S
C1931 C1932 1.383 . S
C1931 C1936 1.382 . S
C1932 H1909 0.950 . S
C1932 C1931 1.383 . S
C1932 C1933 1.395 . S
C1933 H1910 0.950 . S
C1933 C1932 1.395 . S
C1933 C1934 1.288 . S
C1934 C1933 1.288 . S
C1934 C1935 1.392 . S
C1935 H1911 0.951 . S
C1935 C1934 1.392 . S
C1935 C1936 1.392 . S
C1936 H1912 0.949 . S
C1936 C1931 1.382 . S
C1936 C1935 1.392 . S
C1937 C1938 1.376 . S
C1937 C1942 1.386 . S
C1937 C1943 1.483 . S
C1938 H1913 0.949 . S
C1938 C1937 1.376 . S
C1938 C1939 1.397 . S
C1939 H1914 0.950 . S
C1939 C1938 1.397 . S
C1939 C1940 1.391 . S
C1940 C1939 1.391 . S
C1940 C1941 1.405 . S
C1941 H1915 0.950 . S
C1941 C1940 1.405 . S
C1941 C1942 1.367 . S
C1942 H1916 0.950 . S
C1942 C1937 1.386 . S
C1942 C1941 1.367 . S
C1943 C1937 1.483 . S
C1943 C1944 1.382 . S
C1943 C1945 1.403 . S
C1944 H1917 0.950 . S
C1944 C1930 1.411 . S
C1944 C1943 1.382 . S
C1945 C1929 1.411 . S
C1945 C1943 1.403 . S
C1945 C1946 1.489 . S
C1946 C1945 1.489 . S
C1946 C1947 1.383 . S
C1946 C1951 1.382 . S
C1947 H1918 0.950 . S
C1947 C1946 1.383 . S
C1947 C1948 1.395 . S
C1948 H1919 0.950 . S
C1948 C1947 1.395 . S
C1948 C1949 1.288 . S
C1949 C1948 1.288 . S
C1949 C1950 1.392 . S
C1950 H1920 0.951 . S
C1950 C1949 1.392 . S
C1950 C1951 1.392 . S
C1951 H1921 0.949 . S
C1951 C1946 1.382 . S
C1951 C1950 1.392 . S
H1952 C1971 0.949 . S
H1953 C1972 0.950 . S
H1954 C1974 0.950 . S
H1955 C1975 0.950 . S
H1956 C1977 0.950 . S
H1957 C1980 0.950 . S
H1958 C1981 0.950 . S
H1959 C1983 0.951 . S
H1960 C1984 0.949 . S
H1961 C1986 0.949 . S
H1962 C1987 0.950 . S
H1963 C1989 0.950 . S
H1964 C1990 0.950 . S
H1965 C1992 0.950 . S
H1966 C1995 0.950 . S
H1967 C1996 0.950 . S
H1968 C1998 0.951 . S
H1969 C1999 0.949 . S
C1970 C1971 1.376 . S
C1970 C1975 1.386 . S
C1970 C1976 1.483 . S
C1971 H1952 0.949 . S
C1971 C1970 1.376 . S
C1971 C1972 1.397 . S
C1972 H1953 0.950 . S
C1972 C1971 1.397 . S
C1972 C1973 1.391 . S
C1973 C1972 1.391 . S
C1973 C1974 1.405 . S
C1974 H1954 0.950 . S
C1974 C1973 1.405 . S
C1974 C1975 1.367 . S
C1975 H1955 0.950 . S
C1975 C1970 1.386 . S
C1975 C1974 1.367 . S
C1976 C1970 1.483 . S
C1976 C1977 1.382 . S
C1976 C1978 1.403 . S
C1977 H1956 0.950 . S
C1977 C1976 1.382 . S
C1977 C1993 1.411 . S
C1978 C1976 1.403 . S
C1978 C1979 1.489 . S
C1978 C1992 1.411 . S
C1979 C1978 1.489 . S
C1979 C1980 1.383 . S
C1979 C1984 1.382 . S
C1980 H1957 0.950 . S
C1980 C1979 1.383 . S
C1980 C1981 1.395 . S
C1981 H1958 0.950 . S
C1981 C1980 1.395 . S
C1981 C1982 1.288 . S
C1982 C1981 1.288 . S
C1982 C1983 1.392 . S
C1983 H1959 0.951 . S
C1983 C1982 1.392 . S
C1983 C1984 1.392 . S
C1984 H1960 0.949 . S
C1984 C1979 1.382 . S
C1984 C1983 1.392 . S
C1985 C1986 1.376 . S
C1985 C1990 1.386 . S
C1985 C1991 1.483 . S
C1986 H1961 0.949 . S
C1986 C1985 1.376 . S
C1986 C1987 1.397 . S
C1987 H1962 0.950 . S
C1987 C1986 1.397 . S
C1987 C1988 1.391 . S
C1988 C1987 1.391 . S
C1988 C1989 1.405 . S
C1989 H1963 0.950 . S
C1989 C1988 1.405 . S
C1989 C1990 1.367 . S
C1990 H1964 0.950 . S
C1990 C1985 1.386 . S
C1990 C1989 1.367 . S
C1991 C1985 1.483 . S
C1991 C1992 1.382 . S
C1991 C1993 1.403 . S
C1992 H1965 0.950 . S
C1992 C1978 1.411 . S
C1992 C1991 1.382 . S
C1993 C1977 1.411 . S
C1993 C1991 1.403 . S
C1993 C1994 1.489 . S
C1994 C1993 1.489 . S
C1994 C1995 1.383 . S
C1994 C1999 1.382 . S
C1995 H1966 0.950 . S
C1995 C1994 1.383 . S
C1995 C1996 1.395 . S
C1996 H1967 0.950 . S
C1996 C1995 1.395 . S
C1996 C1997 1.288 . S
C1997 C1996 1.288 . S
C1997 C1998 1.392 . S
C1998 H1968 0.951 . S
C1998 C1997 1.392 . S
C1998 C1999 1.392 . S
C1999 H1969 0.949 . S
C1999 C1994 1.382 . S
C1999 C1998 1.392 . S
H2000 C2019 0.949 . S
H2001 C2020 0.950 . S
H2002 C2022 0.950 . S
H2003 C2023 0.950 . S
H2004 C2025 0.950 . S
H2005 C2028 0.950 . S
H2006 C2029 0.950 . S
H2007 C2031 0.951 . S
H2008 C2032 0.949 . S
H2009 C2034 0.949 . S
H2010 C2035 0.950 . S
H2011 C2037 0.950 . S
H2012 C2038 0.950 . S
H2013 C2040 0.950 . S
H2014 C2043 0.950 . S
H2015 C2044 0.950 . S
H2016 C2046 0.951 . S
H2017 C2047 0.949 . S
C2018 C2019 1.376 . S
C2018 C2023 1.386 . S
C2018 C2024 1.483 . S
C2019 H2000 0.949 . S
C2019 C2018 1.376 . S
C2019 C2020 1.397 . S
C2020 H2001 0.950 . S
C2020 C2019 1.397 . S
C2020 C2021 1.391 . S
C2021 C2020 1.391 . S
C2021 C2022 1.405 . S
C2022 H2002 0.950 . S
C2022 C2021 1.405 . S
C2022 C2023 1.367 . S
C2023 H2003 0.950 . S
C2023 C2018 1.386 . S
C2023 C2022 1.367 . S
C2024 C2018 1.483 . S
C2024 C2025 1.382 . S
C2024 C2026 1.403 . S
C2025 H2004 0.950 . S
C2025 C2024 1.382 . S
C2025 C2041 1.411 . S
C2026 C2024 1.403 . S
C2026 C2027 1.489 . S
C2026 C2040 1.411 . S
C2027 C2026 1.489 . S
C2027 C2028 1.383 . S
C2027 C2032 1.382 . S
C2028 H2005 0.950 . S
C2028 C2027 1.383 . S
C2028 C2029 1.395 . S
C2029 H2006 0.950 . S
C2029 C2028 1.395 . S
C2029 C2030 1.288 . S
C2030 C2029 1.288 . S
C2030 C2031 1.392 . S
C2031 H2007 0.951 . S
C2031 C2030 1.392 . S
C2031 C2032 1.392 . S
C2032 H2008 0.949 . S
C2032 C2027 1.382 . S
C2032 C2031 1.392 . S
C2033 C2034 1.376 . S
C2033 C2038 1.386 . S
C2033 C2039 1.483 . S
C2034 H2009 0.949 . S
C2034 C2033 1.376 . S
C2034 C2035 1.397 . S
C2035 H2010 0.950 . S
C2035 C2034 1.397 . S
C2035 C2036 1.391 . S
C2036 C2035 1.391 . S
C2036 C2037 1.405 . S
C2037 H2011 0.950 . S
C2037 C2036 1.405 . S
C2037 C2038 1.367 . S
C2038 H2012 0.950 . S
C2038 C2033 1.386 . S
C2038 C2037 1.367 . S
C2039 C2033 1.483 . S
C2039 C2040 1.382 . S
C2039 C2041 1.403 . S
C2040 H2013 0.950 . S
C2040 C2026 1.411 . S
C2040 C2039 1.382 . S
C2041 C2025 1.411 . S
C2041 C2039 1.403 . S
C2041 C2042 1.489 . S
C2042 C2041 1.489 . S
C2042 C2043 1.383 . S
C2042 C2047 1.382 . S
C2043 H2014 0.950 . S
C2043 C2042 1.383 . S
C2043 C2044 1.395 . S
C2044 H2015 0.950 . S
C2044 C2043 1.395 . S
C2044 C2045 1.288 . S
C2045 C2044 1.288 . S
C2045 C2046 1.392 . S
C2046 H2016 0.951 . S
C2046 C2045 1.392 . S
C2046 C2047 1.392 . S
C2047 H2017 0.949 . S
C2047 C2042 1.382 . S
C2047 C2046 1.392 . S
H2048 C2067 0.949 . S
H2049 C2068 0.950 . S
H2050 C2070 0.950 . S
H2051 C2071 0.950 . S
H2052 C2073 0.950 . S
H2053 C2076 0.950 . S
H2054 C2077 0.950 . S
H2055 C2079 0.951 . S
H2056 C2080 0.949 . S
H2057 C2082 0.949 . S
H2058 C2083 0.950 . S
H2059 C2085 0.950 . S
H2060 C2086 0.950 . S
H2061 C2088 0.950 . S
H2062 C2091 0.950 . S
H2063 C2092 0.950 . S
H2064 C2094 0.951 . S
H2065 C2095 0.949 . S
C2066 C2067 1.376 . S
C2066 C2071 1.386 . S
C2066 C2072 1.483 . S
C2067 H2048 0.949 . S
C2067 C2066 1.376 . S
C2067 C2068 1.397 . S
C2068 H2049 0.950 . S
C2068 C2067 1.397 . S
C2068 C2069 1.391 . S
C2069 C2068 1.391 . S
C2069 C2070 1.405 . S
C2070 H2050 0.950 . S
C2070 C2069 1.405 . S
C2070 C2071 1.367 . S
C2071 H2051 0.950 . S
C2071 C2066 1.386 . S
C2071 C2070 1.367 . S
C2072 C2066 1.483 . S
C2072 C2073 1.382 . S
C2072 C2074 1.403 . S
C2073 H2052 0.950 . S
C2073 C2072 1.382 . S
C2073 C2089 1.411 . S
C2074 C2072 1.403 . S
C2074 C2075 1.489 . S
C2074 C2088 1.411 . S
C2075 C2074 1.489 . S
C2075 C2076 1.383 . S
C2075 C2080 1.382 . S
C2076 H2053 0.950 . S
C2076 C2075 1.383 . S
C2076 C2077 1.395 . S
C2077 H2054 0.950 . S
C2077 C2076 1.395 . S
C2077 C2078 1.288 . S
C2078 C2077 1.288 . S
C2078 C2079 1.392 . S
C2079 H2055 0.951 . S
C2079 C2078 1.392 . S
C2079 C2080 1.392 . S
C2080 H2056 0.949 . S
C2080 C2075 1.382 . S
C2080 C2079 1.392 . S
C2081 C2082 1.376 . S
C2081 C2086 1.386 . S
C2081 C2087 1.483 . S
C2082 H2057 0.949 . S
C2082 C2081 1.376 . S
C2082 C2083 1.397 . S
C2083 H2058 0.950 . S
C2083 C2082 1.397 . S
C2083 C2084 1.391 . S
C2084 C2083 1.391 . S
C2084 C2085 1.405 . S
C2085 H2059 0.950 . S
C2085 C2084 1.405 . S
C2085 C2086 1.367 . S
C2086 H2060 0.950 . S
C2086 C2081 1.386 . S
C2086 C2085 1.367 . S
C2087 C2081 1.483 . S
C2087 C2088 1.382 . S
C2087 C2089 1.403 . S
C2088 H2061 0.950 . S
C2088 C2074 1.411 . S
C2088 C2087 1.382 . S
C2089 C2073 1.411 . S
C2089 C2087 1.403 . S
C2089 C2090 1.489 . S
C2090 C2089 1.489 . S
C2090 C2091 1.383 . S
C2090 C2095 1.382 . S
C2091 H2062 0.950 . S
C2091 C2090 1.383 . S
C2091 C2092 1.395 . S
C2092 H2063 0.950 . S
C2092 C2091 1.395 . S
C2092 C2093 1.288 . S
C2093 C2092 1.288 . S
C2093 C2094 1.392 . S
C2094 H2064 0.951 . S
C2094 C2093 1.392 . S
C2094 C2095 1.392 . S
C2095 H2065 0.949 . S
C2095 C2090 1.382 . S
C2095 C2094 1.392 . S
H2096 C2115 0.949 . S
H2097 C2116 0.950 . S
H2098 C2118 0.950 . S
H2099 C2119 0.950 . S
H2100 C2121 0.950 . S
H2101 C2124 0.950 . S
H2102 C2125 0.950 . S
H2103 C2127 0.951 . S
H2104 C2128 0.949 . S
H2105 C2130 0.949 . S
H2106 C2131 0.950 . S
H2107 C2133 0.950 . S
H2108 C2134 0.950 . S
H2109 C2136 0.950 . S
H2110 C2139 0.950 . S
H2111 C2140 0.950 . S
H2112 C2142 0.951 . S
H2113 C2143 0.949 . S
C2114 C2115 1.376 . S
C2114 C2119 1.386 . S
C2114 C2120 1.483 . S
C2115 H2096 0.949 . S
C2115 C2114 1.376 . S
C2115 C2116 1.397 . S
C2116 H2097 0.950 . S
C2116 C2115 1.397 . S
C2116 C2117 1.391 . S
C2117 C2116 1.391 . S
C2117 C2118 1.405 . S
C2118 H2098 0.950 . S
C2118 C2117 1.405 . S
C2118 C2119 1.367 . S
C2119 H2099 0.950 . S
C2119 C2114 1.386 . S
C2119 C2118 1.367 . S
C2120 C2114 1.483 . S
C2120 C2121 1.382 . S
C2120 C2122 1.403 . S
C2121 H2100 0.950 . S
C2121 C2120 1.382 . S
C2121 C2137 1.411 . S
C2122 C2120 1.403 . S
C2122 C2123 1.489 . S
C2122 C2136 1.411 . S
C2123 C2122 1.489 . S
C2123 C2124 1.383 . S
C2123 C2128 1.382 . S
C2124 H2101 0.950 . S
C2124 C2123 1.383 . S
C2124 C2125 1.395 . S
C2125 H2102 0.950 . S
C2125 C2124 1.395 . S
C2125 C2126 1.288 . S
C2126 C2125 1.288 . S
C2126 C2127 1.392 . S
C2127 H2103 0.951 . S
C2127 C2126 1.392 . S
C2127 C2128 1.392 . S
C2128 H2104 0.949 . S
C2128 C2123 1.382 . S
C2128 C2127 1.392 . S
C2129 C2130 1.376 . S
C2129 C2134 1.386 . S
C2129 C2135 1.483 . S
C2130 H2105 0.949 . S
C2130 C2129 1.376 . S
C2130 C2131 1.397 . S
C2131 H2106 0.950 . S
C2131 C2130 1.397 . S
C2131 C2132 1.391 . S
C2132 C2131 1.391 . S
C2132 C2133 1.405 . S
C2133 H2107 0.950 . S
C2133 C2132 1.405 . S
C2133 C2134 1.367 . S
C2134 H2108 0.950 . S
C2134 C2129 1.386 . S
C2134 C2133 1.367 . S
C2135 C2129 1.483 . S
C2135 C2136 1.382 . S
C2135 C2137 1.403 . S
C2136 H2109 0.950 . S
C2136 C2122 1.411 . S
C2136 C2135 1.382 . S
C2137 C2121 1.411 . S
C2137 C2135 1.403 . S
C2137 C2138 1.489 . S
C2138 C2137 1.489 . S
C2138 C2139 1.383 . S
C2138 C2143 1.382 . S
C2139 H2110 0.950 . S
C2139 C2138 1.383 . S
C2139 C2140 1.395 . S
C2140 H2111 0.950 . S
C2140 C2139 1.395 . S
C2140 C2141 1.288 . S
C2141 C2140 1.288 . S
C2141 C2142 1.392 . S
C2142 H2112 0.951 . S
C2142 C2141 1.392 . S
C2142 C2143 1.392 . S
C2143 H2113 0.949 . S
C2143 C2138 1.382 . S
C2143 C2142 1.392 . S
H2144 C2163 0.949 . S
H2145 C2164 0.950 . S
H2146 C2166 0.950 . S
H2147 C2167 0.950 . S
H2148 C2169 0.950 . S
H2149 C2172 0.950 . S
H2150 C2173 0.950 . S
H2151 C2175 0.951 . S
H2152 C2176 0.949 . S
H2153 C2178 0.949 . S
H2154 C2179 0.950 . S
H2155 C2181 0.950 . S
H2156 C2182 0.950 . S
H2157 C2184 0.950 . S
H2158 C2187 0.950 . S
H2159 C2188 0.950 . S
H2160 C2190 0.951 . S
H2161 C2191 0.949 . S
C2162 C2163 1.376 . S
C2162 C2167 1.386 . S
C2162 C2168 1.483 . S
C2163 H2144 0.949 . S
C2163 C2162 1.376 . S
C2163 C2164 1.397 . S
C2164 H2145 0.950 . S
C2164 C2163 1.397 . S
C2164 C2165 1.391 . S
C2165 C2164 1.391 . S
C2165 C2166 1.405 . S
C2166 H2146 0.950 . S
C2166 C2165 1.405 . S
C2166 C2167 1.367 . S
C2167 H2147 0.950 . S
C2167 C2162 1.386 . S
C2167 C2166 1.367 . S
C2168 C2162 1.483 . S
C2168 C2169 1.382 . S
C2168 C2170 1.403 . S
C2169 H2148 0.950 . S
C2169 C2168 1.382 . S
C2169 C2185 1.411 . S
C2170 C2168 1.403 . S
C2170 C2171 1.489 . S
C2170 C2184 1.411 . S
C2171 C2170 1.489 . S
C2171 C2172 1.383 . S
C2171 C2176 1.382 . S
C2172 H2149 0.950 . S
C2172 C2171 1.383 . S
C2172 C2173 1.395 . S
C2173 H2150 0.950 . S
C2173 C2172 1.395 . S
C2173 C2174 1.288 . S
C2174 C2173 1.288 . S
C2174 C2175 1.392 . S
C2175 H2151 0.951 . S
C2175 C2174 1.392 . S
C2175 C2176 1.392 . S
C2176 H2152 0.949 . S
C2176 C2171 1.382 . S
C2176 C2175 1.392 . S
C2177 C2178 1.376 . S
C2177 C2182 1.386 . S
C2177 C2183 1.483 . S
C2178 H2153 0.949 . S
C2178 C2177 1.376 . S
C2178 C2179 1.397 . S
C2179 H2154 0.950 . S
C2179 C2178 1.397 . S
C2179 C2180 1.391 . S
C2180 C2179 1.391 . S
C2180 C2181 1.405 . S
C2181 H2155 0.950 . S
C2181 C2180 1.405 . S
C2181 C2182 1.367 . S
C2182 H2156 0.950 . S
C2182 C2177 1.386 . S
C2182 C2181 1.367 . S
C2183 C2177 1.483 . S
C2183 C2184 1.382 . S
C2183 C2185 1.403 . S
C2184 H2157 0.950 . S
C2184 C2170 1.411 . S
C2184 C2183 1.382 . S
C2185 C2169 1.411 . S
C2185 C2183 1.403 . S
C2185 C2186 1.489 . S
C2186 C2185 1.489 . S
C2186 C2187 1.383 . S
C2186 C2191 1.382 . S
C2187 H2158 0.950 . S
C2187 C2186 1.383 . S
C2187 C2188 1.395 . S
C2188 H2159 0.950 . S
C2188 C2187 1.395 . S
C2188 C2189 1.288 . S
C2189 C2188 1.288 . S
C2189 C2190 1.392 . S
C2190 H2160 0.951 . S
C2190 C2189 1.392 . S
C2190 C2191 1.392 . S
C2191 H2161 0.949 . S
C2191 C2186 1.382 . S
C2191 C2190 1.392 . S
H2192 C2211 0.949 . S
H2193 C2212 0.950 . S
H2194 C2214 0.950 . S
H2195 C2215 0.950 . S
H2196 C2217 0.950 . S
H2197 C2220 0.950 . S
H2198 C2221 0.950 . S
H2199 C2223 0.951 . S
H2200 C2224 0.949 . S
H2201 C2226 0.949 . S
H2202 C2227 0.950 . S
H2203 C2229 0.950 . S
H2204 C2230 0.950 . S
H2205 C2232 0.950 . S
H2206 C2235 0.950 . S
H2207 C2236 0.950 . S
H2208 C2238 0.951 . S
H2209 C2239 0.949 . S
C2210 C2211 1.376 . S
C2210 C2215 1.386 . S
C2210 C2216 1.483 . S
C2211 H2192 0.949 . S
C2211 C2210 1.376 . S
C2211 C2212 1.397 . S
C2212 H2193 0.950 . S
C2212 C2211 1.397 . S
C2212 C2213 1.391 . S
C2213 C2212 1.391 . S
C2213 C2214 1.405 . S
C2214 H2194 0.950 . S
C2214 C2213 1.405 . S
C2214 C2215 1.367 . S
C2215 H2195 0.950 . S
C2215 C2210 1.386 . S
C2215 C2214 1.367 . S
C2216 C2210 1.483 . S
C2216 C2217 1.382 . S
C2216 C2218 1.403 . S
C2217 H2196 0.950 . S
C2217 C2216 1.382 . S
C2217 C2233 1.411 . S
C2218 C2216 1.403 . S
C2218 C2219 1.489 . S
C2218 C2232 1.411 . S
C2219 C2218 1.489 . S
C2219 C2220 1.383 . S
C2219 C2224 1.382 . S
C2220 H2197 0.950 . S
C2220 C2219 1.383 . S
C2220 C2221 1.395 . S
C2221 H2198 0.950 . S
C2221 C2220 1.395 . S
C2221 C2222 1.288 . S
C2222 C2221 1.288 . S
C2222 C2223 1.392 . S
C2223 H2199 0.951 . S
C2223 C2222 1.392 . S
C2223 C2224 1.392 . S
C2224 H2200 0.949 . S
C2224 C2219 1.382 . S
C2224 C2223 1.392 . S
C2225 C2226 1.376 . S
C2225 C2230 1.386 . S
C2225 C2231 1.483 . S
C2226 H2201 0.949 . S
C2226 C2225 1.376 . S
C2226 C2227 1.397 . S
C2227 H2202 0.950 . S
C2227 C2226 1.397 . S
C2227 C2228 1.391 . S
C2228 C2227 1.391 . S
C2228 C2229 1.405 . S
C2229 H2203 0.950 . S
C2229 C2228 1.405 . S
C2229 C2230 1.367 . S
C2230 H2204 0.950 . S
C2230 C2225 1.386 . S
C2230 C2229 1.367 . S
C2231 C2225 1.483 . S
C2231 C2232 1.382 . S
C2231 C2233 1.403 . S
C2232 H2205 0.950 . S
C2232 C2218 1.411 . S
C2232 C2231 1.382 . S
C2233 C2217 1.411 . S
C2233 C2231 1.403 . S
C2233 C2234 1.489 . S
C2234 C2233 1.489 . S
C2234 C2235 1.383 . S
C2234 C2239 1.382 . S
C2235 H2206 0.950 . S
C2235 C2234 1.383 . S
C2235 C2236 1.395 . S
C2236 H2207 0.950 . S
C2236 C2235 1.395 . S
C2236 C2237 1.288 . S
C2237 C2236 1.288 . S
C2237 C2238 1.392 . S
C2238 H2208 0.951 . S
C2238 C2237 1.392 . S
C2238 C2239 1.392 . S
C2239 H2209 0.949 . S
C2239 C2234 1.382 . S
C2239 C2238 1.392 . S
H2240 C2259 0.949 . S
H2241 C2260 0.950 . S
H2242 C2262 0.950 . S
H2243 C2263 0.950 . S
H2244 C2265 0.950 . S
H2245 C2268 0.950 . S
H2246 C2269 0.950 . S
H2247 C2271 0.951 . S
H2248 C2272 0.949 . S
H2249 C2274 0.949 . S
H2250 C2275 0.950 . S
H2251 C2277 0.950 . S
H2252 C2278 0.950 . S
H2253 C2280 0.950 . S
H2254 C2283 0.950 . S
H2255 C2284 0.950 . S
H2256 C2286 0.951 . S
H2257 C2287 0.949 . S
C2258 C2259 1.376 . S
C2258 C2263 1.386 . S
C2258 C2264 1.483 . S
C2259 H2240 0.949 . S
C2259 C2258 1.376 . S
C2259 C2260 1.397 . S
C2260 H2241 0.950 . S
C2260 C2259 1.397 . S
C2260 C2261 1.391 . S
C2261 C2260 1.391 . S
C2261 C2262 1.405 . S
C2262 H2242 0.950 . S
C2262 C2261 1.405 . S
C2262 C2263 1.367 . S
C2263 H2243 0.950 . S
C2263 C2258 1.386 . S
C2263 C2262 1.367 . S
C2264 C2258 1.483 . S
C2264 C2265 1.382 . S
C2264 C2266 1.403 . S
C2265 H2244 0.950 . S
C2265 C2264 1.382 . S
C2265 C2281 1.411 . S
C2266 C2264 1.403 . S
C2266 C2267 1.489 . S
C2266 C2280 1.411 . S
C2267 C2266 1.489 . S
C2267 C2268 1.383 . S
C2267 C2272 1.382 . S
C2268 H2245 0.950 . S
C2268 C2267 1.383 . S
C2268 C2269 1.395 . S
C2269 H2246 0.950 . S
C2269 C2268 1.395 . S
C2269 C2270 1.288 . S
C2270 C2269 1.288 . S
C2270 C2271 1.392 . S
C2271 H2247 0.951 . S
C2271 C2270 1.392 . S
C2271 C2272 1.392 . S
C2272 H2248 0.949 . S
C2272 C2267 1.382 . S
C2272 C2271 1.392 . S
C2273 C2274 1.376 . S
C2273 C2278 1.386 . S
C2273 C2279 1.483 . S
C2274 H2249 0.949 . S
C2274 C2273 1.376 . S
C2274 C2275 1.397 . S
C2275 H2250 0.950 . S
C2275 C2274 1.397 . S
C2275 C2276 1.391 . S
C2276 C2275 1.391 . S
C2276 C2277 1.405 . S
C2277 H2251 0.950 . S
C2277 C2276 1.405 . S
C2277 C2278 1.367 . S
C2278 H2252 0.950 . S
C2278 C2273 1.386 . S
C2278 C2277 1.367 . S
C2279 C2273 1.483 . S
C2279 C2280 1.382 . S
C2279 C2281 1.403 . S
C2280 H2253 0.950 . S
C2280 C2266 1.411 . S
C2280 C2279 1.382 . S
C2281 C2265 1.411 . S
C2281 C2279 1.403 . S
C2281 C2282 1.489 . S
C2282 C2281 1.489 . S
C2282 C2283 1.383 . S
C2282 C2287 1.382 . S
C2283 H2254 0.950 . S
C2283 C2282 1.383 . S
C2283 C2284 1.395 . S
C2284 H2255 0.950 . S
C2284 C2283 1.395 . S
C2284 C2285 1.288 . S
C2285 C2284 1.288 . S
C2285 C2286 1.392 . S
C2286 H2256 0.951 . S
C2286 C2285 1.392 . S
C2286 C2287 1.392 . S
C2287 H2257 0.949 . S
C2287 C2282 1.382 . S
C2287 C2286 1.392 . S
H2288 C2307 0.949 . S
H2289 C2308 0.950 . S
H2290 C2310 0.950 . S
H2291 C2311 0.950 . S
H2292 C2313 0.950 . S
H2293 C2316 0.950 . S
H2294 C2317 0.950 . S
H2295 C2319 0.951 . S
H2296 C2320 0.949 . S
H2297 C2322 0.949 . S
H2298 C2323 0.950 . S
H2299 C2325 0.950 . S
H2300 C2326 0.950 . S
H2301 C2328 0.950 . S
H2302 C2331 0.950 . S
H2303 C2332 0.950 . S
H2304 C2334 0.951 . S
H2305 C2335 0.949 . S
C2306 C2307 1.376 . S
C2306 C2311 1.386 . S
C2306 C2312 1.483 . S
C2307 H2288 0.949 . S
C2307 C2306 1.376 . S
C2307 C2308 1.397 . S
C2308 H2289 0.950 . S
C2308 C2307 1.397 . S
C2308 C2309 1.391 . S
C2309 C2308 1.391 . S
C2309 C2310 1.405 . S
C2310 H2290 0.950 . S
C2310 C2309 1.405 . S
C2310 C2311 1.367 . S
C2311 H2291 0.950 . S
C2311 C2306 1.386 . S
C2311 C2310 1.367 . S
C2312 C2306 1.483 . S
C2312 C2313 1.382 . S
C2312 C2314 1.403 . S
C2313 H2292 0.950 . S
C2313 C2312 1.382 . S
C2313 C2329 1.411 . S
C2314 C2312 1.403 . S
C2314 C2315 1.489 . S
C2314 C2328 1.411 . S
C2315 C2314 1.489 . S
C2315 C2316 1.383 . S
C2315 C2320 1.382 . S
C2316 H2293 0.950 . S
C2316 C2315 1.383 . S
C2316 C2317 1.395 . S
C2317 H2294 0.950 . S
C2317 C2316 1.395 . S
C2317 C2318 1.288 . S
C2318 C2317 1.288 . S
C2318 C2319 1.392 . S
C2319 H2295 0.951 . S
C2319 C2318 1.392 . S
C2319 C2320 1.392 . S
C2320 H2296 0.949 . S
C2320 C2315 1.382 . S
C2320 C2319 1.392 . S
C2321 C2322 1.376 . S
C2321 C2326 1.386 . S
C2321 C2327 1.483 . S
C2322 H2297 0.949 . S
C2322 C2321 1.376 . S
C2322 C2323 1.397 . S
C2323 H2298 0.950 . S
C2323 C2322 1.397 . S
C2323 C2324 1.391 . S
C2324 C2323 1.391 . S
C2324 C2325 1.405 . S
C2325 H2299 0.950 . S
C2325 C2324 1.405 . S
C2325 C2326 1.367 . S
C2326 H2300 0.950 . S
C2326 C2321 1.386 . S
C2326 C2325 1.367 . S
C2327 C2321 1.483 . S
C2327 C2328 1.382 . S
C2327 C2329 1.403 . S
C2328 H2301 0.950 . S
C2328 C2314 1.411 . S
C2328 C2327 1.382 . S
C2329 C2313 1.411 . S
C2329 C2327 1.403 . S
C2329 C2330 1.489 . S
C2330 C2329 1.489 . S
C2330 C2331 1.383 . S
C2330 C2335 1.382 . S
C2331 H2302 0.950 . S
C2331 C2330 1.383 . S
C2331 C2332 1.395 . S
C2332 H2303 0.950 . S
C2332 C2331 1.395 . S
C2332 C2333 1.288 . S
C2333 C2332 1.288 . S
C2333 C2334 1.392 . S
C2334 H2304 0.951 . S
C2334 C2333 1.392 . S
C2334 C2335 1.392 . S
C2335 H2305 0.949 . S
C2335 C2330 1.382 . S
C2335 C2334 1.392 . S
H2336 C2355 0.949 . S
H2337 C2356 0.950 . S
H2338 C2358 0.950 . S
H2339 C2359 0.950 . S
H2340 C2361 0.950 . S
H2341 C2364 0.950 . S
H2342 C2365 0.950 . S
H2343 C2367 0.951 . S
H2344 C2368 0.949 . S
H2345 C2370 0.949 . S
H2346 C2371 0.950 . S
H2347 C2373 0.950 . S
H2348 C2374 0.950 . S
H2349 C2376 0.950 . S
H2350 C2379 0.950 . S
H2351 C2380 0.950 . S
H2352 C2382 0.951 . S
H2353 C2383 0.949 . S
C2354 C2355 1.376 . S
C2354 C2359 1.386 . S
C2354 C2360 1.483 . S
C2355 H2336 0.949 . S
C2355 C2354 1.376 . S
C2355 C2356 1.397 . S
C2356 H2337 0.950 . S
C2356 C2355 1.397 . S
C2356 C2357 1.391 . S
C2357 C2356 1.391 . S
C2357 C2358 1.405 . S
C2358 H2338 0.950 . S
C2358 C2357 1.405 . S
C2358 C2359 1.367 . S
C2359 H2339 0.950 . S
C2359 C2354 1.386 . S
C2359 C2358 1.367 . S
C2360 C2354 1.483 . S
C2360 C2361 1.382 . S
C2360 C2362 1.403 . S
C2361 H2340 0.950 . S
C2361 C2360 1.382 . S
C2361 C2377 1.411 . S
C2362 C2360 1.403 . S
C2362 C2363 1.489 . S
C2362 C2376 1.411 . S
C2363 C2362 1.489 . S
C2363 C2364 1.383 . S
C2363 C2368 1.382 . S
C2364 H2341 0.950 . S
C2364 C2363 1.383 . S
C2364 C2365 1.395 . S
C2365 H2342 0.950 . S
C2365 C2364 1.395 . S
C2365 C2366 1.288 . S
C2366 C2365 1.288 . S
C2366 C2367 1.392 . S
C2367 H2343 0.951 . S
C2367 C2366 1.392 . S
C2367 C2368 1.392 . S
C2368 H2344 0.949 . S
C2368 C2363 1.382 . S
C2368 C2367 1.392 . S
C2369 C2370 1.376 . S
C2369 C2374 1.386 . S
C2369 C2375 1.483 . S
C2370 H2345 0.949 . S
C2370 C2369 1.376 . S
C2370 C2371 1.397 . S
C2371 H2346 0.950 . S
C2371 C2370 1.397 . S
C2371 C2372 1.391 . S
C2372 C2371 1.391 . S
C2372 C2373 1.405 . S
C2373 H2347 0.950 . S
C2373 C2372 1.405 . S
C2373 C2374 1.367 . S
C2374 H2348 0.950 . S
C2374 C2369 1.386 . S
C2374 C2373 1.367 . S
C2375 C2369 1.483 . S
C2375 C2376 1.382 . S
C2375 C2377 1.403 . S
C2376 H2349 0.950 . S
C2376 C2362 1.411 . S
C2376 C2375 1.382 . S
C2377 C2361 1.411 . S
C2377 C2375 1.403 . S
C2377 C2378 1.489 . S
C2378 C2377 1.489 . S
C2378 C2379 1.383 . S
C2378 C2383 1.382 . S
C2379 H2350 0.950 . S
C2379 C2378 1.383 . S
C2379 C2380 1.395 . S
C2380 H2351 0.950 . S
C2380 C2379 1.395 . S
C2380 C2381 1.288 . S
C2381 C2380 1.288 . S
C2381 C2382 1.392 . S
C2382 H2352 0.951 . S
C2382 C2381 1.392 . S
C2382 C2383 1.392 . S
C2383 H2353 0.949 . S
C2383 C2378 1.382 . S
C2383 C2382 1.392 . S
H2384 C2403 0.949 . S
H2385 C2404 0.950 . S
H2386 C2406 0.950 . S
H2387 C2407 0.950 . S
H2388 C2409 0.950 . S
H2389 C2412 0.950 . S
H2390 C2413 0.950 . S
H2391 C2415 0.951 . S
H2392 C2416 0.949 . S
H2393 C2418 0.949 . S
H2394 C2419 0.950 . S
H2395 C2421 0.950 . S
H2396 C2422 0.950 . S
H2397 C2424 0.950 . S
H2398 C2427 0.950 . S
H2399 C2428 0.950 . S
H2400 C2430 0.951 . S
H2401 C2431 0.949 . S
C2402 C2403 1.376 . S
C2402 C2407 1.386 . S
C2402 C2408 1.483 . S
C2403 H2384 0.949 . S
C2403 C2402 1.376 . S
C2403 C2404 1.397 . S
C2404 H2385 0.950 . S
C2404 C2403 1.397 . S
C2404 C2405 1.391 . S
C2405 C2404 1.391 . S
C2405 C2406 1.405 . S
C2406 H2386 0.950 . S
C2406 C2405 1.405 . S
C2406 C2407 1.367 . S
C2407 H2387 0.950 . S
C2407 C2402 1.386 . S
C2407 C2406 1.367 . S
C2408 C2402 1.483 . S
C2408 C2409 1.382 . S
C2408 C2410 1.403 . S
C2409 H2388 0.950 . S
C2409 C2408 1.382 . S
C2409 C2425 1.411 . S
C2410 C2408 1.403 . S
C2410 C2411 1.489 . S
C2410 C2424 1.411 . S
C2411 C2410 1.489 . S
C2411 C2412 1.383 . S
C2411 C2416 1.382 . S
C2412 H2389 0.950 . S
C2412 C2411 1.383 . S
C2412 C2413 1.395 . S
C2413 H2390 0.950 . S
C2413 C2412 1.395 . S
C2413 C2414 1.288 . S
C2414 C2413 1.288 . S
C2414 C2415 1.392 . S
C2415 H2391 0.951 . S
C2415 C2414 1.392 . S
C2415 C2416 1.392 . S
C2416 H2392 0.949 . S
C2416 C2411 1.382 . S
C2416 C2415 1.392 . S
C2417 C2418 1.376 . S
C2417 C2422 1.386 . S
C2417 C2423 1.483 . S
C2418 H2393 0.949 . S
C2418 C2417 1.376 . S
C2418 C2419 1.397 . S
C2419 H2394 0.950 . S
C2419 C2418 1.397 . S
C2419 C2420 1.391 . S
C2420 C2419 1.391 . S
C2420 C2421 1.405 . S
C2421 H2395 0.950 . S
C2421 C2420 1.405 . S
C2421 C2422 1.367 . S
C2422 H2396 0.950 . S
C2422 C2417 1.386 . S
C2422 C2421 1.367 . S
C2423 C2417 1.483 . S
C2423 C2424 1.382 . S
C2423 C2425 1.403 . S
C2424 H2397 0.950 . S
C2424 C2410 1.411 . S
C2424 C2423 1.382 . S
C2425 C2409 1.411 . S
C2425 C2423 1.403 . S
C2425 C2426 1.489 . S
C2426 C2425 1.489 . S
C2426 C2427 1.383 . S
C2426 C2431 1.382 . S
C2427 H2398 0.950 . S
C2427 C2426 1.383 . S
C2427 C2428 1.395 . S
C2428 H2399 0.950 . S
C2428 C2427 1.395 . S
C2428 C2429 1.288 . S
C2429 C2428 1.288 . S
C2429 C2430 1.392 . S
C2430 H2400 0.951 . S
C2430 C2429 1.392 . S
C2430 C2431 1.392 . S
C2431 H2401 0.949 . S
C2431 C2426 1.382 . S
C2431 C2430 1.392 . S
C2432 C2433 1.363 . S
C2432 C2438 1.379 . S
C2432 N2440 1.356 . S
C2433 C2432 1.363 . S
C2433 C2439 1.363 . S
C2434 C2435 1.363 . S
C2434 C2439 1.379 . S
C2434 N2441 1.356 . S
C2435 C2434 1.363 . S
C2435 C2438 1.363 . S
N2436 C2438 1.356 . S
N2436 H2448 0.984 . S
N2436 H2449 0.985 . S
N2437 C2439 1.356 . S
N2437 H2442 0.984 . S
N2437 H2443 0.985 . S
C2438 C2432 1.379 . S
C2438 C2435 1.363 . S
C2438 N2436 1.356 . S
C2439 C2433 1.363 . S
C2439 C2434 1.379 . S
C2439 N2437 1.356 . S
N2440 C2432 1.356 . S
N2440 H2446 0.984 . S
N2440 H2447 0.984 . S
N2441 C2434 1.356 . S
N2441 H2444 0.984 . S
N2441 H2445 0.985 . S
H2442 N2437 0.984 . S
H2443 N2437 0.985 . S
H2444 N2441 0.984 . S
H2445 N2441 0.985 . S
H2446 N2440 0.984 . S
H2447 N2440 0.984 . S
H2448 N2436 0.984 . S
H2449 N2436 0.985 . S
C2450 C2451 1.363 . S
C2450 C2456 1.379 . S
C2450 N2458 1.356 . S
C2451 C2450 1.363 . S
C2451 C2457 1.363 . S
C2452 C2453 1.363 . S
C2452 C2457 1.379 . S
C2452 N2459 1.356 . S
C2453 C2452 1.363 . S
C2453 C2456 1.363 . S
N2454 C2456 1.356 . S
N2454 H2466 0.984 . S
N2454 H2467 0.985 . S
N2455 C2457 1.356 . S
N2455 H2460 0.984 . S
N2455 H2461 0.985 . S
C2456 C2450 1.379 . S
C2456 C2453 1.363 . S
C2456 N2454 1.356 . S
C2457 C2451 1.363 . S
C2457 C2452 1.379 . S
C2457 N2455 1.356 . S
N2458 C2450 1.356 . S
N2458 H2464 0.984 . S
N2458 H2465 0.984 . S
N2459 C2452 1.356 . S
N2459 H2462 0.984 . S
N2459 H2463 0.985 . S
H2460 N2455 0.984 . S
H2461 N2455 0.985 . S
H2462 N2459 0.984 . S
H2463 N2459 0.985 . S
H2464 N2458 0.984 . S
H2465 N2458 0.984 . S
H2466 N2454 0.984 . S
H2467 N2454 0.985 . S
C2468 C2469 1.363 . S
C2468 C2474 1.379 . S
C2468 N2476 1.356 . S
C2469 C2468 1.363 . S
C2469 C2475 1.363 . S
C2470 C2471 1.363 . S
C2470 C2475 1.379 . S
C2470 N2477 1.356 . S
C2471 C2470 1.363 . S
C2471 C2474 1.363 . S
N2472 C2474 1.356 . S
N2472 H2484 0.984 . S
N2472 H2485 0.985 . S
N2473 C2475 1.356 . S
N2473 H2478 0.984 . S
N2473 H2479 0.985 . S
C2474 C2468 1.379 . S
C2474 C2471 1.363 . S
C2474 N2472 1.356 . S
C2475 C2469 1.363 . S
C2475 C2470 1.379 . S
C2475 N2473 1.356 . S
N2476 C2468 1.356 . S
N2476 H2482 0.984 . S
N2476 H2483 0.984 . S
N2477 C2470 1.356 . S
N2477 H2480 0.984 . S
N2477 H2481 0.985 . S
H2478 N2473 0.984 . S
H2479 N2473 0.985 . S
H2480 N2477 0.984 . S
H2481 N2477 0.985 . S
H2482 N2476 0.984 . S
H2483 N2476 0.984 . S
H2484 N2472 0.984 . S
H2485 N2472 0.985 . S
C2486 C2487 1.363 . S
C2486 C2492 1.379 . S
C2486 N2494 1.356 . S
C2487 C2486 1.363 . S
C2487 C2493 1.363 . S
C2488 C2489 1.363 . S
C2488 C2493 1.379 . S
C2488 N2495 1.356 . S
C2489 C2488 1.363 . S
C2489 C2492 1.363 . S
N2490 C2492 1.356 . S
N2490 H2502 0.984 . S
N2490 H2503 0.985 . S
N2491 C2493 1.356 . S
N2491 H2496 0.984 . S
N2491 H2497 0.985 . S
C2492 C2486 1.379 . S
C2492 C2489 1.363 . S
C2492 N2490 1.356 . S
C2493 C2487 1.363 . S
C2493 C2488 1.379 . S
C2493 N2491 1.356 . S
N2494 C2486 1.356 . S
N2494 H2500 0.984 . S
N2494 H2501 0.984 . S
N2495 C2488 1.356 . S
N2495 H2498 0.984 . S
N2495 H2499 0.985 . S
H2496 N2491 0.984 . S
H2497 N2491 0.985 . S
H2498 N2495 0.984 . S
H2499 N2495 0.985 . S
H2500 N2494 0.984 . S
H2501 N2494 0.984 . S
H2502 N2490 0.984 . S
H2503 N2490 0.985 . S
C2504 C2505 1.363 . S
C2504 C2510 1.379 . S
C2504 N2512 1.356 . S
C2505 C2504 1.363 . S
C2505 C2511 1.363 . S
C2506 C2507 1.363 . S
C2506 C2511 1.379 . S
C2506 N2513 1.356 . S
C2507 C2506 1.363 . S
C2507 C2510 1.363 . S
N2508 C2510 1.356 . S
N2508 H2520 0.984 . S
N2508 H2521 0.985 . S
N2509 C2511 1.356 . S
N2509 H2514 0.984 . S
N2509 H2515 0.985 . S
C2510 C2504 1.379 . S
C2510 C2507 1.363 . S
C2510 N2508 1.356 . S
C2511 C2505 1.363 . S
C2511 C2506 1.379 . S
C2511 N2509 1.356 . S
N2512 C2504 1.356 . S
N2512 H2518 0.984 . S
N2512 H2519 0.984 . S
N2513 C2506 1.356 . S
N2513 H2516 0.984 . S
N2513 H2517 0.985 . S
H2514 N2509 0.984 . S
H2515 N2509 0.985 . S
H2516 N2513 0.984 . S
H2517 N2513 0.985 . S
H2518 N2512 0.984 . S
H2519 N2512 0.984 . S
H2520 N2508 0.984 . S
H2521 N2508 0.985 . S
C2522 C2523 1.363 . S
C2522 C2528 1.379 . S
C2522 N2530 1.356 . S
C2523 C2522 1.363 . S
C2523 C2529 1.363 . S
C2524 C2525 1.363 . S
C2524 C2529 1.379 . S
C2524 N2531 1.356 . S
C2525 C2524 1.363 . S
C2525 C2528 1.363 . S
N2526 C2528 1.356 . S
N2526 H2538 0.984 . S
N2526 H2539 0.985 . S
N2527 C2529 1.356 . S
N2527 H2532 0.984 . S
N2527 H2533 0.985 . S
C2528 C2522 1.379 . S
C2528 C2525 1.363 . S
C2528 N2526 1.356 . S
C2529 C2523 1.363 . S
C2529 C2524 1.379 . S
C2529 N2527 1.356 . S
N2530 C2522 1.356 . S
N2530 H2536 0.984 . S
N2530 H2537 0.984 . S
N2531 C2524 1.356 . S
N2531 H2534 0.984 . S
N2531 H2535 0.985 . S
H2532 N2527 0.984 . S
H2533 N2527 0.985 . S
H2534 N2531 0.984 . S
H2535 N2531 0.985 . S
H2536 N2530 0.984 . S
H2537 N2530 0.984 . S
H2538 N2526 0.984 . S
H2539 N2526 0.985 . S
C2540 C2541 1.363 . S
C2540 C2546 1.379 . S
C2540 N2548 1.356 . S
C2541 C2540 1.363 . S
C2541 C2547 1.363 . S
C2542 C2543 1.363 . S
C2542 C2547 1.379 . S
C2542 N2549 1.356 . S
C2543 C2542 1.363 . S
C2543 C2546 1.363 . S
N2544 C2546 1.356 . S
N2544 H2556 0.984 . S
N2544 H2557 0.985 . S
N2545 C2547 1.356 . S
N2545 H2550 0.984 . S
N2545 H2551 0.985 . S
C2546 C2540 1.379 . S
C2546 C2543 1.363 . S
C2546 N2544 1.356 . S
C2547 C2541 1.363 . S
C2547 C2542 1.379 . S
C2547 N2545 1.356 . S
N2548 C2540 1.356 . S
N2548 H2554 0.984 . S
N2548 H2555 0.984 . S
N2549 C2542 1.356 . S
N2549 H2552 0.984 . S
N2549 H2553 0.985 . S
H2550 N2545 0.984 . S
H2551 N2545 0.985 . S
H2552 N2549 0.984 . S
H2553 N2549 0.985 . S
H2554 N2548 0.984 . S
H2555 N2548 0.984 . S
H2556 N2544 0.984 . S
H2557 N2544 0.985 . S
C2558 C2559 1.363 . S
C2558 C2564 1.379 . S
C2558 N2566 1.356 . S
C2559 C2558 1.363 . S
C2559 C2565 1.363 . S
C2560 C2561 1.363 . S
C2560 C2565 1.379 . S
C2560 N2567 1.356 . S
C2561 C2560 1.363 . S
C2561 C2564 1.363 . S
N2562 C2564 1.356 . S
N2562 H2574 0.984 . S
N2562 H2575 0.985 . S
N2563 C2565 1.356 . S
N2563 H2568 0.984 . S
N2563 H2569 0.985 . S
C2564 C2558 1.379 . S
C2564 C2561 1.363 . S
C2564 N2562 1.356 . S
C2565 C2559 1.363 . S
C2565 C2560 1.379 . S
C2565 N2563 1.356 . S
N2566 C2558 1.356 . S
N2566 H2572 0.984 . S
N2566 H2573 0.984 . S
N2567 C2560 1.356 . S
N2567 H2570 0.984 . S
N2567 H2571 0.985 . S
H2568 N2563 0.984 . S
H2569 N2563 0.985 . S
H2570 N2567 0.984 . S
H2571 N2567 0.985 . S
H2572 N2566 0.984 . S
H2573 N2566 0.984 . S
H2574 N2562 0.984 . S
H2575 N2562 0.985 . S
C2576 C2577 1.363 . S
C2576 C2582 1.379 . S
C2576 N2584 1.356 . S
C2577 C2576 1.363 . S
C2577 C2583 1.363 . S
C2578 C2579 1.363 . S
C2578 C2583 1.379 . S
C2578 N2585 1.356 . S
C2579 C2578 1.363 . S
C2579 C2582 1.363 . S
N2580 C2582 1.356 . S
N2580 H2592 0.984 . S
N2580 H2593 0.985 . S
N2581 C2583 1.356 . S
N2581 H2586 0.984 . S
N2581 H2587 0.985 . S
C2582 C2576 1.379 . S
C2582 C2579 1.363 . S
C2582 N2580 1.356 . S
C2583 C2577 1.363 . S
C2583 C2578 1.379 . S
C2583 N2581 1.356 . S
N2584 C2576 1.356 . S
N2584 H2590 0.984 . S
N2584 H2591 0.984 . S
N2585 C2578 1.356 . S
N2585 H2588 0.984 . S
N2585 H2589 0.985 . S
H2586 N2581 0.984 . S
H2587 N2581 0.985 . S
H2588 N2585 0.984 . S
H2589 N2585 0.985 . S
H2590 N2584 0.984 . S
H2591 N2584 0.984 . S
H2592 N2580 0.984 . S
H2593 N2580 0.985 . S
C2594 C2595 1.363 . S
C2594 C2600 1.379 . S
C2594 N2602 1.356 . S
C2595 C2594 1.363 . S
C2595 C2601 1.363 . S
C2596 C2597 1.363 . S
C2596 C2601 1.379 . S
C2596 N2603 1.356 . S
C2597 C2596 1.363 . S
C2597 C2600 1.363 . S
N2598 C2600 1.356 . S
N2598 H2610 0.984 . S
N2598 H2611 0.985 . S
N2599 C2601 1.356 . S
N2599 H2604 0.984 . S
N2599 H2605 0.985 . S
C2600 C2594 1.379 . S
C2600 C2597 1.363 . S
C2600 N2598 1.356 . S
C2601 C2595 1.363 . S
C2601 C2596 1.379 . S
C2601 N2599 1.356 . S
N2602 C2594 1.356 . S
N2602 H2608 0.984 . S
N2602 H2609 0.984 . S
N2603 C2596 1.356 . S
N2603 H2606 0.984 . S
N2603 H2607 0.985 . S
H2604 N2599 0.984 . S
H2605 N2599 0.985 . S
H2606 N2603 0.984 . S
H2607 N2603 0.985 . S
H2608 N2602 0.984 . S
H2609 N2602 0.984 . S
H2610 N2598 0.984 . S
H2611 N2598 0.985 . S
C2612 C2613 1.363 . S
C2612 C2618 1.379 . S
C2612 N2620 1.356 . S
C2613 C2612 1.363 . S
C2613 C2619 1.363 . S
C2614 C2615 1.363 . S
C2614 C2619 1.379 . S
C2614 N2621 1.356 . S
C2615 C2614 1.363 . S
C2615 C2618 1.363 . S
N2616 C2618 1.356 . S
N2616 H2628 0.984 . S
N2616 H2629 0.985 . S
N2617 C2619 1.356 . S
N2617 H2622 0.984 . S
N2617 H2623 0.985 . S
C2618 C2612 1.379 . S
C2618 C2615 1.363 . S
C2618 N2616 1.356 . S
C2619 C2613 1.363 . S
C2619 C2614 1.379 . S
C2619 N2617 1.356 . S
N2620 C2612 1.356 . S
N2620 H2626 0.984 . S
N2620 H2627 0.984 . S
N2621 C2614 1.356 . S
N2621 H2624 0.984 . S
N2621 H2625 0.985 . S
H2622 N2617 0.984 . S
H2623 N2617 0.985 . S
H2624 N2621 0.984 . S
H2625 N2621 0.985 . S
H2626 N2620 0.984 . S
H2627 N2620 0.984 . S
H2628 N2616 0.984 . S
H2629 N2616 0.985 . S
C2630 C2631 1.363 . S
C2630 C2636 1.379 . S
C2630 N2638 1.356 . S
C2631 C2630 1.363 . S
C2631 C2637 1.363 . S
C2632 C2633 1.363 . S
C2632 C2637 1.379 . S
C2632 N2639 1.356 . S
C2633 C2632 1.363 . S
C2633 C2636 1.363 . S
N2634 C2636 1.356 . S
N2634 H2646 0.984 . S
N2634 H2647 0.985 . S
N2635 C2637 1.356 . S
N2635 H2640 0.984 . S
N2635 H2641 0.985 . S
C2636 C2630 1.379 . S
C2636 C2633 1.363 . S
C2636 N2634 1.356 . S
C2637 C2631 1.363 . S
C2637 C2632 1.379 . S
C2637 N2635 1.356 . S
N2638 C2630 1.356 . S
N2638 H2644 0.984 . S
N2638 H2645 0.984 . S
N2639 C2632 1.356 . S
N2639 H2642 0.984 . S
N2639 H2643 0.985 . S
H2640 N2635 0.984 . S
H2641 N2635 0.985 . S
H2642 N2639 0.984 . S
H2643 N2639 0.985 . S
H2644 N2638 0.984 . S
H2645 N2638 0.984 . S
H2646 N2634 0.984 . S
H2647 N2634 0.985 . S
C2648 C2649 1.363 . S
C2648 C2654 1.379 . S
C2648 N2656 1.356 . S
C2649 C2648 1.363 . S
C2649 C2655 1.363 . S
C2650 C2651 1.363 . S
C2650 C2655 1.379 . S
C2650 N2657 1.356 . S
C2651 C2650 1.363 . S
C2651 C2654 1.363 . S
N2652 C2654 1.356 . S
N2652 H2664 0.984 . S
N2652 H2665 0.985 . S
N2653 C2655 1.356 . S
N2653 H2658 0.984 . S
N2653 H2659 0.985 . S
C2654 C2648 1.379 . S
C2654 C2651 1.363 . S
C2654 N2652 1.356 . S
C2655 C2649 1.363 . S
C2655 C2650 1.379 . S
C2655 N2653 1.356 . S
N2656 C2648 1.356 . S
N2656 H2662 0.984 . S
N2656 H2663 0.984 . S
N2657 C2650 1.356 . S
N2657 H2660 0.984 . S
N2657 H2661 0.985 . S
H2658 N2653 0.984 . S
H2659 N2653 0.985 . S
H2660 N2657 0.984 . S
H2661 N2657 0.985 . S
H2662 N2656 0.984 . S
H2663 N2656 0.984 . S
H2664 N2652 0.984 . S
H2665 N2652 0.985 . S
C2666 C2667 1.363 . S
C2666 C2672 1.379 . S
C2666 N2674 1.356 . S
C2667 C2666 1.363 . S
C2667 C2673 1.363 . S
C2668 C2669 1.363 . S
C2668 C2673 1.379 . S
C2668 N2675 1.356 . S
C2669 C2668 1.363 . S
C2669 C2672 1.363 . S
N2670 C2672 1.356 . S
N2670 H2682 0.984 . S
N2670 H2683 0.985 . S
N2671 C2673 1.356 . S
N2671 H2676 0.984 . S
N2671 H2677 0.985 . S
C2672 C2666 1.379 . S
C2672 C2669 1.363 . S
C2672 N2670 1.356 . S
C2673 C2667 1.363 . S
C2673 C2668 1.379 . S
C2673 N2671 1.356 . S
N2674 C2666 1.356 . S
N2674 H2680 0.984 . S
N2674 H2681 0.984 . S
N2675 C2668 1.356 . S
N2675 H2678 0.984 . S
N2675 H2679 0.985 . S
H2676 N2671 0.984 . S
H2677 N2671 0.985 . S
H2678 N2675 0.984 . S
H2679 N2675 0.985 . S
H2680 N2674 0.984 . S
H2681 N2674 0.984 . S
H2682 N2670 0.984 . S
H2683 N2670 0.985 . S
C2684 C2685 1.363 . S
C2684 C2690 1.379 . S
C2684 N2692 1.356 . S
C2685 C2684 1.363 . S
C2685 C2691 1.363 . S
C2686 C2687 1.363 . S
C2686 C2691 1.379 . S
C2686 N2693 1.356 . S
C2687 C2686 1.363 . S
C2687 C2690 1.363 . S
N2688 C2690 1.356 . S
N2688 H2700 0.984 . S
N2688 H2701 0.985 . S
N2689 C2691 1.356 . S
N2689 H2694 0.984 . S
N2689 H2695 0.985 . S
C2690 C2684 1.379 . S
C2690 C2687 1.363 . S
C2690 N2688 1.356 . S
C2691 C2685 1.363 . S
C2691 C2686 1.379 . S
C2691 N2689 1.356 . S
N2692 C2684 1.356 . S
N2692 H2698 0.984 . S
N2692 H2699 0.984 . S
N2693 C2686 1.356 . S
N2693 H2696 0.984 . S
N2693 H2697 0.985 . S
H2694 N2689 0.984 . S
H2695 N2689 0.985 . S
H2696 N2693 0.984 . S
H2697 N2693 0.985 . S
H2698 N2692 0.984 . S
H2699 N2692 0.984 . S
H2700 N2688 0.984 . S
H2701 N2688 0.985 . S
C2702 C2703 1.363 . S
C2702 C2708 1.379 . S
C2702 N2710 1.356 . S
C2703 C2702 1.363 . S
C2703 C2709 1.363 . S
C2704 C2705 1.363 . S
C2704 C2709 1.379 . S
C2704 N2711 1.356 . S
C2705 C2704 1.363 . S
C2705 C2708 1.363 . S
N2706 C2708 1.356 . S
N2706 H2718 0.984 . S
N2706 H2719 0.985 . S
N2707 C2709 1.356 . S
N2707 H2712 0.984 . S
N2707 H2713 0.985 . S
C2708 C2702 1.379 . S
C2708 C2705 1.363 . S
C2708 N2706 1.356 . S
C2709 C2703 1.363 . S
C2709 C2704 1.379 . S
C2709 N2707 1.356 . S
N2710 C2702 1.356 . S
N2710 H2716 0.984 . S
N2710 H2717 0.984 . S
N2711 C2704 1.356 . S
N2711 H2714 0.984 . S
N2711 H2715 0.985 . S
H2712 N2707 0.984 . S
H2713 N2707 0.985 . S
H2714 N2711 0.984 . S
H2715 N2711 0.985 . S
H2716 N2710 0.984 . S
H2717 N2710 0.984 . S
H2718 N2706 0.984 . S
H2719 N2706 0.985 . S
C2720 C2721 1.363 . S
C2720 C2726 1.379 . S
C2720 N2728 1.356 . S
C2721 C2720 1.363 . S
C2721 C2727 1.363 . S
C2722 C2723 1.363 . S
C2722 C2727 1.379 . S
C2722 N2729 1.356 . S
C2723 C2722 1.363 . S
C2723 C2726 1.363 . S
N2724 C2726 1.356 . S
N2724 H2736 0.984 . S
N2724 H2737 0.985 . S
N2725 C2727 1.356 . S
N2725 H2730 0.984 . S
N2725 H2731 0.985 . S
C2726 C2720 1.379 . S
C2726 C2723 1.363 . S
C2726 N2724 1.356 . S
C2727 C2721 1.363 . S
C2727 C2722 1.379 . S
C2727 N2725 1.356 . S
N2728 C2720 1.356 . S
N2728 H2734 0.984 . S
N2728 H2735 0.984 . S
N2729 C2722 1.356 . S
N2729 H2732 0.984 . S
N2729 H2733 0.985 . S
H2730 N2725 0.984 . S
H2731 N2725 0.985 . S
H2732 N2729 0.984 . S
H2733 N2729 0.985 . S
H2734 N2728 0.984 . S
H2735 N2728 0.984 . S
H2736 N2724 0.984 . S
H2737 N2724 0.985 . S
C2738 C2739 1.363 . S
C2738 C2744 1.379 . S
C2738 N2746 1.356 . S
C2739 C2738 1.363 . S
C2739 C2745 1.363 . S
C2740 C2741 1.363 . S
C2740 C2745 1.379 . S
C2740 N2747 1.356 . S
C2741 C2740 1.363 . S
C2741 C2744 1.363 . S
N2742 C2744 1.356 . S
N2742 H2754 0.984 . S
N2742 H2755 0.985 . S
N2743 C2745 1.356 . S
N2743 H2748 0.984 . S
N2743 H2749 0.985 . S
C2744 C2738 1.379 . S
C2744 C2741 1.363 . S
C2744 N2742 1.356 . S
C2745 C2739 1.363 . S
C2745 C2740 1.379 . S
C2745 N2743 1.356 . S
N2746 C2738 1.356 . S
N2746 H2752 0.984 . S
N2746 H2753 0.984 . S
N2747 C2740 1.356 . S
N2747 H2750 0.984 . S
N2747 H2751 0.985 . S
H2748 N2743 0.984 . S
H2749 N2743 0.985 . S
H2750 N2747 0.984 . S
H2751 N2747 0.985 . S
H2752 N2746 0.984 . S
H2753 N2746 0.984 . S
H2754 N2742 0.984 . S
H2755 N2742 0.985 . S
C2756 C2757 1.363 . S
C2756 C2762 1.379 . S
C2756 N2764 1.356 . S
C2757 C2756 1.363 . S
C2757 C2763 1.363 . S
C2758 C2759 1.363 . S
C2758 C2763 1.379 . S
C2758 N2765 1.356 . S
C2759 C2758 1.363 . S
C2759 C2762 1.363 . S
N2760 C2762 1.356 . S
N2760 H2772 0.984 . S
N2760 H2773 0.985 . S
N2761 C2763 1.356 . S
N2761 H2766 0.984 . S
N2761 H2767 0.985 . S
C2762 C2756 1.379 . S
C2762 C2759 1.363 . S
C2762 N2760 1.356 . S
C2763 C2757 1.363 . S
C2763 C2758 1.379 . S
C2763 N2761 1.356 . S
N2764 C2756 1.356 . S
N2764 H2770 0.984 . S
N2764 H2771 0.984 . S
N2765 C2758 1.356 . S
N2765 H2768 0.984 . S
N2765 H2769 0.985 . S
H2766 N2761 0.984 . S
H2767 N2761 0.985 . S
H2768 N2765 0.984 . S
H2769 N2765 0.985 . S
H2770 N2764 0.984 . S
H2771 N2764 0.984 . S
H2772 N2760 0.984 . S
H2773 N2760 0.985 . S
C2774 C2775 1.363 . S
C2774 C2780 1.379 . S
C2774 N2782 1.356 . S
C2775 C2774 1.363 . S
C2775 C2781 1.363 . S
C2776 C2777 1.363 . S
C2776 C2781 1.379 . S
C2776 N2783 1.356 . S
C2777 C2776 1.363 . S
C2777 C2780 1.363 . S
N2778 C2780 1.356 . S
N2778 H2790 0.984 . S
N2778 H2791 0.985 . S
N2779 C2781 1.356 . S
N2779 H2784 0.984 . S
N2779 H2785 0.985 . S
C2780 C2774 1.379 . S
C2780 C2777 1.363 . S
C2780 N2778 1.356 . S
C2781 C2775 1.363 . S
C2781 C2776 1.379 . S
C2781 N2779 1.356 . S
N2782 C2774 1.356 . S
N2782 H2788 0.984 . S
N2782 H2789 0.984 . S
N2783 C2776 1.356 . S
N2783 H2786 0.984 . S
N2783 H2787 0.985 . S
H2784 N2779 0.984 . S
H2785 N2779 0.985 . S
H2786 N2783 0.984 . S
H2787 N2783 0.985 . S
H2788 N2782 0.984 . S
H2789 N2782 0.984 . S
H2790 N2778 0.984 . S
H2791 N2778 0.985 . S
C2792 C2793 1.363 . S
C2792 C2798 1.379 . S
C2792 N2800 1.356 . S
C2793 C2792 1.363 . S
C2793 C2799 1.363 . S
C2794 C2795 1.363 . S
C2794 C2799 1.379 . S
C2794 N2801 1.356 . S
C2795 C2794 1.363 . S
C2795 C2798 1.363 . S
N2796 C2798 1.356 . S
N2796 H2808 0.984 . S
N2796 H2809 0.985 . S
N2797 C2799 1.356 . S
N2797 H2802 0.984 . S
N2797 H2803 0.985 . S
C2798 C2792 1.379 . S
C2798 C2795 1.363 . S
C2798 N2796 1.356 . S
C2799 C2793 1.363 . S
C2799 C2794 1.379 . S
C2799 N2797 1.356 . S
N2800 C2792 1.356 . S
N2800 H2806 0.984 . S
N2800 H2807 0.984 . S
N2801 C2794 1.356 . S
N2801 H2804 0.984 . S
N2801 H2805 0.985 . S
H2802 N2797 0.984 . S
H2803 N2797 0.985 . S
H2804 N2801 0.984 . S
H2805 N2801 0.985 . S
H2806 N2800 0.984 . S
H2807 N2800 0.984 . S
H2808 N2796 0.984 . S
H2809 N2796 0.985 . S
C2810 C2811 1.363 . S
C2810 C2816 1.379 . S
C2810 N2818 1.356 . S
C2811 C2810 1.363 . S
C2811 C2817 1.363 . S
C2812 C2813 1.363 . S
C2812 C2817 1.379 . S
C2812 N2819 1.356 . S
C2813 C2812 1.363 . S
C2813 C2816 1.363 . S
N2814 C2816 1.356 . S
N2814 H2826 0.984 . S
N2814 H2827 0.985 . S
N2815 C2817 1.356 . S
N2815 H2820 0.984 . S
N2815 H2821 0.985 . S
C2816 C2810 1.379 . S
C2816 C2813 1.363 . S
C2816 N2814 1.356 . S
C2817 C2811 1.363 . S
C2817 C2812 1.379 . S
C2817 N2815 1.356 . S
N2818 C2810 1.356 . S
N2818 H2824 0.984 . S
N2818 H2825 0.984 . S
N2819 C2812 1.356 . S
N2819 H2822 0.984 . S
N2819 H2823 0.985 . S
H2820 N2815 0.984 . S
H2821 N2815 0.985 . S
H2822 N2819 0.984 . S
H2823 N2819 0.985 . S
H2824 N2818 0.984 . S
H2825 N2818 0.984 . S
H2826 N2814 0.984 . S
H2827 N2814 0.985 . S
C2828 C2829 1.363 . S
C2828 C2834 1.379 . S
C2828 N2836 1.356 . S
C2829 C2828 1.363 . S
C2829 C2835 1.363 . S
C2830 C2831 1.363 . S
C2830 C2835 1.379 . S
C2830 N2837 1.356 . S
C2831 C2830 1.363 . S
C2831 C2834 1.363 . S
N2832 C2834 1.356 . S
N2832 H2844 0.984 . S
N2832 H2845 0.985 . S
N2833 C2835 1.356 . S
N2833 H2838 0.984 . S
N2833 H2839 0.985 . S
C2834 C2828 1.379 . S
C2834 C2831 1.363 . S
C2834 N2832 1.356 . S
C2835 C2829 1.363 . S
C2835 C2830 1.379 . S
C2835 N2833 1.356 . S
N2836 C2828 1.356 . S
N2836 H2842 0.984 . S
N2836 H2843 0.984 . S
N2837 C2830 1.356 . S
N2837 H2840 0.984 . S
N2837 H2841 0.985 . S
H2838 N2833 0.984 . S
H2839 N2833 0.985 . S
H2840 N2837 0.984 . S
H2841 N2837 0.985 . S
H2842 N2836 0.984 . S
H2843 N2836 0.984 . S
H2844 N2832 0.984 . S
H2845 N2832 0.985 . S
C2846 C2847 1.363 . S
C2846 C2852 1.379 . S
C2846 N2854 1.356 . S
C2847 C2846 1.363 . S
C2847 C2853 1.363 . S
C2848 C2849 1.363 . S
C2848 C2853 1.379 . S
C2848 N2855 1.356 . S
C2849 C2848 1.363 . S
C2849 C2852 1.363 . S
N2850 C2852 1.356 . S
N2850 H2862 0.984 . S
N2850 H2863 0.985 . S
N2851 C2853 1.356 . S
N2851 H2856 0.984 . S
N2851 H2857 0.985 . S
C2852 C2846 1.379 . S
C2852 C2849 1.363 . S
C2852 N2850 1.356 . S
C2853 C2847 1.363 . S
C2853 C2848 1.379 . S
C2853 N2851 1.356 . S
N2854 C2846 1.356 . S
N2854 H2860 0.984 . S
N2854 H2861 0.984 . S
N2855 C2848 1.356 . S
N2855 H2858 0.984 . S
N2855 H2859 0.985 . S
H2856 N2851 0.984 . S
H2857 N2851 0.985 . S
H2858 N2855 0.984 . S
H2859 N2855 0.985 . S
H2860 N2854 0.984 . S
H2861 N2854 0.984 . S
H2862 N2850 0.984 . S
H2863 N2850 0.985 . S
C2864 C2865 1.363 . S
C2864 C2870 1.379 . S
C2864 N2872 1.356 . S
C2865 C2864 1.363 . S
C2865 C2871 1.363 . S
C2866 C2867 1.363 . S
C2866 C2871 1.379 . S
C2866 N2873 1.356 . S
C2867 C2866 1.363 . S
C2867 C2870 1.363 . S
N2868 C2870 1.356 . S
N2868 H2880 0.984 . S
N2868 H2881 0.985 . S
N2869 C2871 1.356 . S
N2869 H2874 0.984 . S
N2869 H2875 0.985 . S
C2870 C2864 1.379 . S
C2870 C2867 1.363 . S
C2870 N2868 1.356 . S
C2871 C2865 1.363 . S
C2871 C2866 1.379 . S
C2871 N2869 1.356 . S
N2872 C2864 1.356 . S
N2872 H2878 0.984 . S
N2872 H2879 0.984 . S
N2873 C2866 1.356 . S
N2873 H2876 0.984 . S
N2873 H2877 0.985 . S
H2874 N2869 0.984 . S
H2875 N2869 0.985 . S
H2876 N2873 0.984 . S
H2877 N2873 0.985 . S
H2878 N2872 0.984 . S
H2879 N2872 0.984 . S
H2880 N2868 0.984 . S
H2881 N2868 0.985 . S
C2882 C2883 1.363 . S
C2882 C2888 1.379 . S
C2882 N2890 1.356 . S
C2883 C2882 1.363 . S
C2883 C2889 1.363 . S
C2884 C2885 1.363 . S
C2884 C2889 1.379 . S
C2884 N2891 1.356 . S
C2885 C2884 1.363 . S
C2885 C2888 1.363 . S
N2886 C2888 1.356 . S
N2886 H2898 0.984 . S
N2886 H2899 0.985 . S
N2887 C2889 1.356 . S
N2887 H2892 0.984 . S
N2887 H2893 0.985 . S
C2888 C2882 1.379 . S
C2888 C2885 1.363 . S
C2888 N2886 1.356 . S
C2889 C2883 1.363 . S
C2889 C2884 1.379 . S
C2889 N2887 1.356 . S
N2890 C2882 1.356 . S
N2890 H2896 0.984 . S
N2890 H2897 0.984 . S
N2891 C2884 1.356 . S
N2891 H2894 0.984 . S
N2891 H2895 0.985 . S
H2892 N2887 0.984 . S
H2893 N2887 0.985 . S
H2894 N2891 0.984 . S
H2895 N2891 0.985 . S
H2896 N2890 0.984 . S
H2897 N2890 0.984 . S
H2898 N2886 0.984 . S
H2899 N2886 0.985 . S
C2900 C2901 1.363 . S
C2900 C2906 1.379 . S
C2900 N2908 1.356 . S
C2901 C2900 1.363 . S
C2901 C2907 1.363 . S
C2902 C2903 1.363 . S
C2902 C2907 1.379 . S
C2902 N2909 1.356 . S
C2903 C2902 1.363 . S
C2903 C2906 1.363 . S
N2904 C2906 1.356 . S
N2904 H2916 0.984 . S
N2904 H2917 0.985 . S
N2905 C2907 1.356 . S
N2905 H2910 0.984 . S
N2905 H2911 0.985 . S
C2906 C2900 1.379 . S
C2906 C2903 1.363 . S
C2906 N2904 1.356 . S
C2907 C2901 1.363 . S
C2907 C2902 1.379 . S
C2907 N2905 1.356 . S
N2908 C2900 1.356 . S
N2908 H2914 0.984 . S
N2908 H2915 0.984 . S
N2909 C2902 1.356 . S
N2909 H2912 0.984 . S
N2909 H2913 0.985 . S
H2910 N2905 0.984 . S
H2911 N2905 0.985 . S
H2912 N2909 0.984 . S
H2913 N2909 0.985 . S
H2914 N2908 0.984 . S
H2915 N2908 0.984 . S
H2916 N2904 0.984 . S
H2917 N2904 0.985 . S
C2918 C2919 1.363 . S
C2918 C2924 1.379 . S
C2918 N2926 1.356 . S
C2919 C2918 1.363 . S
C2919 C2925 1.363 . S
C2920 C2921 1.363 . S
C2920 C2925 1.379 . S
C2920 N2927 1.356 . S
C2921 C2920 1.363 . S
C2921 C2924 1.363 . S
N2922 C2924 1.356 . S
N2922 H2934 0.984 . S
N2922 H2935 0.985 . S
N2923 C2925 1.356 . S
N2923 H2928 0.984 . S
N2923 H2929 0.985 . S
C2924 C2918 1.379 . S
C2924 C2921 1.363 . S
C2924 N2922 1.356 . S
C2925 C2919 1.363 . S
C2925 C2920 1.379 . S
C2925 N2923 1.356 . S
N2926 C2918 1.356 . S
N2926 H2932 0.984 . S
N2926 H2933 0.984 . S
N2927 C2920 1.356 . S
N2927 H2930 0.984 . S
N2927 H2931 0.985 . S
H2928 N2923 0.984 . S
H2929 N2923 0.985 . S
H2930 N2927 0.984 . S
H2931 N2927 0.985 . S
H2932 N2926 0.984 . S
H2933 N2926 0.984 . S
H2934 N2922 0.984 . S
H2935 N2922 0.985 . S
C2936 C2937 1.363 . S
C2936 C2942 1.379 . S
C2936 N2944 1.356 . S
C2937 C2936 1.363 . S
C2937 C2943 1.363 . S
C2938 C2939 1.363 . S
C2938 C2943 1.379 . S
C2938 N2945 1.356 . S
C2939 C2938 1.363 . S
C2939 C2942 1.363 . S
N2940 C2942 1.356 . S
N2940 H2952 0.984 . S
N2940 H2953 0.985 . S
N2941 C2943 1.356 . S
N2941 H2946 0.984 . S
N2941 H2947 0.985 . S
C2942 C2936 1.379 . S
C2942 C2939 1.363 . S
C2942 N2940 1.356 . S
C2943 C2937 1.363 . S
C2943 C2938 1.379 . S
C2943 N2941 1.356 . S
N2944 C2936 1.356 . S
N2944 H2950 0.984 . S
N2944 H2951 0.984 . S
N2945 C2938 1.356 . S
N2945 H2948 0.984 . S
N2945 H2949 0.985 . S
H2946 N2941 0.984 . S
H2947 N2941 0.985 . S
H2948 N2945 0.984 . S
H2949 N2945 0.985 . S
H2950 N2944 0.984 . S
H2951 N2944 0.984 . S
H2952 N2940 0.984 . S
H2953 N2940 0.985 . S
C2954 C2955 1.363 . S
C2954 C2960 1.379 . S
C2954 N2962 1.356 . S
C2955 C2954 1.363 . S
C2955 C2961 1.363 . S
C2956 C2957 1.363 . S
C2956 C2961 1.379 . S
C2956 N2963 1.356 . S
C2957 C2956 1.363 . S
C2957 C2960 1.363 . S
N2958 C2960 1.356 . S
N2958 H2970 0.984 . S
N2958 H2971 0.985 . S
N2959 C2961 1.356 . S
N2959 H2964 0.984 . S
N2959 H2965 0.985 . S
C2960 C2954 1.379 . S
C2960 C2957 1.363 . S
C2960 N2958 1.356 . S
C2961 C2955 1.363 . S
C2961 C2956 1.379 . S
C2961 N2959 1.356 . S
N2962 C2954 1.356 . S
N2962 H2968 0.984 . S
N2962 H2969 0.984 . S
N2963 C2956 1.356 . S
N2963 H2966 0.984 . S
N2963 H2967 0.985 . S
H2964 N2959 0.984 . S
H2965 N2959 0.985 . S
H2966 N2963 0.984 . S
H2967 N2963 0.985 . S
H2968 N2962 0.984 . S
H2969 N2962 0.984 . S
H2970 N2958 0.984 . S
H2971 N2958 0.985 . S
C2972 C2973 1.363 . S
C2972 C2978 1.379 . S
C2972 N2980 1.356 . S
C2973 C2972 1.363 . S
C2973 C2979 1.363 . S
C2974 C2975 1.363 . S
C2974 C2979 1.379 . S
C2974 N2981 1.356 . S
C2975 C2974 1.363 . S
C2975 C2978 1.363 . S
N2976 C2978 1.356 . S
N2976 H2988 0.984 . S
N2976 H2989 0.985 . S
N2977 C2979 1.356 . S
N2977 H2982 0.984 . S
N2977 H2983 0.985 . S
C2978 C2972 1.379 . S
C2978 C2975 1.363 . S
C2978 N2976 1.356 . S
C2979 C2973 1.363 . S
C2979 C2974 1.379 . S
C2979 N2977 1.356 . S
N2980 C2972 1.356 . S
N2980 H2986 0.984 . S
N2980 H2987 0.984 . S
N2981 C2974 1.356 . S
N2981 H2984 0.984 . S
N2981 H2985 0.985 . S
H2982 N2977 0.984 . S
H2983 N2977 0.985 . S
H2984 N2981 0.984 . S
H2985 N2981 0.985 . S
H2986 N2980 0.984 . S
H2987 N2980 0.984 . S
H2988 N2976 0.984 . S
H2989 N2976 0.985 . S
C2990 C2991 1.363 . S
C2990 C2996 1.379 . S
C2990 N2998 1.356 . S
C2991 C2990 1.363 . S
C2991 C2997 1.363 . S
C2992 C2993 1.363 . S
C2992 C2997 1.379 . S
C2992 N2999 1.356 . S
C2993 C2992 1.363 . S
C2993 C2996 1.363 . S
N2994 C2996 1.356 . S
N2994 H3006 0.984 . S
N2994 H3007 0.985 . S
N2995 C2997 1.356 . S
N2995 H3000 0.984 . S
N2995 H3001 0.985 . S
C2996 C2990 1.379 . S
C2996 C2993 1.363 . S
C2996 N2994 1.356 . S
C2997 C2991 1.363 . S
C2997 C2992 1.379 . S
C2997 N2995 1.356 . S
N2998 C2990 1.356 . S
N2998 H3004 0.984 . S
N2998 H3005 0.984 . S
N2999 C2992 1.356 . S
N2999 H3002 0.984 . S
N2999 H3003 0.985 . S
H3000 N2995 0.984 . S
H3001 N2995 0.985 . S
H3002 N2999 0.984 . S
H3003 N2999 0.985 . S
H3004 N2998 0.984 . S
H3005 N2998 0.984 . S
H3006 N2994 0.984 . S
H3007 N2994 0.985 . S
C3008 C3009 1.363 . S
C3008 C3014 1.379 . S
C3008 N3016 1.356 . S
C3009 C3008 1.363 . S
C3009 C3015 1.363 . S
C3010 C3011 1.363 . S
C3010 C3015 1.379 . S
C3010 N3017 1.356 . S
C3011 C3010 1.363 . S
C3011 C3014 1.363 . S
N3012 C3014 1.356 . S
N3012 H3024 0.984 . S
N3012 H3025 0.985 . S
N3013 C3015 1.356 . S
N3013 H3018 0.984 . S
N3013 H3019 0.985 . S
C3014 C3008 1.379 . S
C3014 C3011 1.363 . S
C3014 N3012 1.356 . S
C3015 C3009 1.363 . S
C3015 C3010 1.379 . S
C3015 N3013 1.356 . S
N3016 C3008 1.356 . S
N3016 H3022 0.984 . S
N3016 H3023 0.984 . S
N3017 C3010 1.356 . S
N3017 H3020 0.984 . S
N3017 H3021 0.985 . S
H3018 N3013 0.984 . S
H3019 N3013 0.985 . S
H3020 N3017 0.984 . S
H3021 N3017 0.985 . S
H3022 N3016 0.984 . S
H3023 N3016 0.984 . S
H3024 N3012 0.984 . S
H3025 N3012 0.985 . S
C3026 C3027 1.363 . S
C3026 C3032 1.379 . S
C3026 N3034 1.356 . S
C3027 C3026 1.363 . S
C3027 C3033 1.363 . S
C3028 C3029 1.363 . S
C3028 C3033 1.379 . S
C3028 N3035 1.356 . S
C3029 C3028 1.363 . S
C3029 C3032 1.363 . S
N3030 C3032 1.356 . S
N3030 H3042 0.984 . S
N3030 H3043 0.985 . S
N3031 C3033 1.356 . S
N3031 H3036 0.984 . S
N3031 H3037 0.985 . S
C3032 C3026 1.379 . S
C3032 C3029 1.363 . S
C3032 N3030 1.356 . S
C3033 C3027 1.363 . S
C3033 C3028 1.379 . S
C3033 N3031 1.356 . S
N3034 C3026 1.356 . S
N3034 H3040 0.984 . S
N3034 H3041 0.984 . S
N3035 C3028 1.356 . S
N3035 H3038 0.984 . S
N3035 H3039 0.985 . S
H3036 N3031 0.984 . S
H3037 N3031 0.985 . S
H3038 N3035 0.984 . S
H3039 N3035 0.985 . S
H3040 N3034 0.984 . S
H3041 N3034 0.984 . S
H3042 N3030 0.984 . S
H3043 N3030 0.985 . S
C3044 C3045 1.363 . S
C3044 C3050 1.379 . S
C3044 N3052 1.356 . S
C3045 C3044 1.363 . S
C3045 C3051 1.363 . S
C3046 C3047 1.363 . S
C3046 C3051 1.379 . S
C3046 N3053 1.356 . S
C3047 C3046 1.363 . S
C3047 C3050 1.363 . S
N3048 C3050 1.356 . S
N3048 H3060 0.984 . S
N3048 H3061 0.985 . S
N3049 C3051 1.356 . S
N3049 H3054 0.984 . S
N3049 H3055 0.985 . S
C3050 C3044 1.379 . S
C3050 C3047 1.363 . S
C3050 N3048 1.356 . S
C3051 C3045 1.363 . S
C3051 C3046 1.379 . S
C3051 N3049 1.356 . S
N3052 C3044 1.356 . S
N3052 H3058 0.984 . S
N3052 H3059 0.984 . S
N3053 C3046 1.356 . S
N3053 H3056 0.984 . S
N3053 H3057 0.985 . S
H3054 N3049 0.984 . S
H3055 N3049 0.985 . S
H3056 N3053 0.984 . S
H3057 N3053 0.985 . S
H3058 N3052 0.984 . S
H3059 N3052 0.984 . S
H3060 N3048 0.984 . S
H3061 N3048 0.985 . S
C3062 C3063 1.363 . S
C3062 C3068 1.379 . S
C3062 N3070 1.356 . S
C3063 C3062 1.363 . S
C3063 C3069 1.363 . S
C3064 C3065 1.363 . S
C3064 C3069 1.379 . S
C3064 N3071 1.356 . S
C3065 C3064 1.363 . S
C3065 C3068 1.363 . S
N3066 C3068 1.356 . S
N3066 H3078 0.984 . S
N3066 H3079 0.985 . S
N3067 C3069 1.356 . S
N3067 H3072 0.984 . S
N3067 H3073 0.985 . S
C3068 C3062 1.379 . S
C3068 C3065 1.363 . S
C3068 N3066 1.356 . S
C3069 C3063 1.363 . S
C3069 C3064 1.379 . S
C3069 N3067 1.356 . S
N3070 C3062 1.356 . S
N3070 H3076 0.984 . S
N3070 H3077 0.984 . S
N3071 C3064 1.356 . S
N3071 H3074 0.984 . S
N3071 H3075 0.985 . S
H3072 N3067 0.984 . S
H3073 N3067 0.985 . S
H3074 N3071 0.984 . S
H3075 N3071 0.985 . S
H3076 N3070 0.984 . S
H3077 N3070 0.984 . S
H3078 N3066 0.984 . S
H3079 N3066 0.985 . S
C3080 C3081 1.363 . S
C3080 C3086 1.379 . S
C3080 N3088 1.356 . S
C3081 C3080 1.363 . S
C3081 C3087 1.363 . S
C3082 C3083 1.363 . S
C3082 C3087 1.379 . S
C3082 N3089 1.356 . S
C3083 C3082 1.363 . S
C3083 C3086 1.363 . S
N3084 C3086 1.356 . S
N3084 H3096 0.984 . S
N3084 H3097 0.985 . S
N3085 C3087 1.356 . S
N3085 H3090 0.984 . S
N3085 H3091 0.985 . S
C3086 C3080 1.379 . S
C3086 C3083 1.363 . S
C3086 N3084 1.356 . S
C3087 C3081 1.363 . S
C3087 C3082 1.379 . S
C3087 N3085 1.356 . S
N3088 C3080 1.356 . S
N3088 H3094 0.984 . S
N3088 H3095 0.984 . S
N3089 C3082 1.356 . S
N3089 H3092 0.984 . S
N3089 H3093 0.985 . S
H3090 N3085 0.984 . S
H3091 N3085 0.985 . S
H3092 N3089 0.984 . S
H3093 N3089 0.985 . S
H3094 N3088 0.984 . S
H3095 N3088 0.984 . S
H3096 N3084 0.984 . S
H3097 N3084 0.985 . S
C3098 C3099 1.363 . S
C3098 C3104 1.379 . S
C3098 N3106 1.356 . S
C3099 C3098 1.363 . S
C3099 C3105 1.363 . S
C3100 C3101 1.363 . S
C3100 C3105 1.379 . S
C3100 N3107 1.356 . S
C3101 C3100 1.363 . S
C3101 C3104 1.363 . S
N3102 C3104 1.356 . S
N3102 H3114 0.984 . S
N3102 H3115 0.985 . S
N3103 C3105 1.356 . S
N3103 H3108 0.984 . S
N3103 H3109 0.985 . S
C3104 C3098 1.379 . S
C3104 C3101 1.363 . S
C3104 N3102 1.356 . S
C3105 C3099 1.363 . S
C3105 C3100 1.379 . S
C3105 N3103 1.356 . S
N3106 C3098 1.356 . S
N3106 H3112 0.984 . S
N3106 H3113 0.984 . S
N3107 C3100 1.356 . S
N3107 H3110 0.984 . S
N3107 H3111 0.985 . S
H3108 N3103 0.984 . S
H3109 N3103 0.985 . S
H3110 N3107 0.984 . S
H3111 N3107 0.985 . S
H3112 N3106 0.984 . S
H3113 N3106 0.984 . S
H3114 N3102 0.984 . S
H3115 N3102 0.985 . S
C3116 C3117 1.363 . S
C3116 C3122 1.379 . S
C3116 N3124 1.356 . S
C3117 C3116 1.363 . S
C3117 C3123 1.363 . S
C3118 C3119 1.363 . S
C3118 C3123 1.379 . S
C3118 N3125 1.356 . S
C3119 C3118 1.363 . S
C3119 C3122 1.363 . S
N3120 C3122 1.356 . S
N3120 H3132 0.984 . S
N3120 H3133 0.985 . S
N3121 C3123 1.356 . S
N3121 H3126 0.984 . S
N3121 H3127 0.985 . S
C3122 C3116 1.379 . S
C3122 C3119 1.363 . S
C3122 N3120 1.356 . S
C3123 C3117 1.363 . S
C3123 C3118 1.379 . S
C3123 N3121 1.356 . S
N3124 C3116 1.356 . S
N3124 H3130 0.984 . S
N3124 H3131 0.984 . S
N3125 C3118 1.356 . S
N3125 H3128 0.984 . S
N3125 H3129 0.985 . S
H3126 N3121 0.984 . S
H3127 N3121 0.985 . S
H3128 N3125 0.984 . S
H3129 N3125 0.985 . S
H3130 N3124 0.984 . S
H3131 N3124 0.984 . S
H3132 N3120 0.984 . S
H3133 N3120 0.985 . S
C3134 C3135 1.363 . S
C3134 C3140 1.379 . S
C3134 N3142 1.356 . S
C3135 C3134 1.363 . S
C3135 C3141 1.363 . S
C3136 C3137 1.363 . S
C3136 C3141 1.379 . S
C3136 N3143 1.356 . S
C3137 C3136 1.363 . S
C3137 C3140 1.363 . S
N3138 C3140 1.356 . S
N3138 H3150 0.984 . S
N3138 H3151 0.985 . S
N3139 C3141 1.356 . S
N3139 H3144 0.984 . S
N3139 H3145 0.985 . S
C3140 C3134 1.379 . S
C3140 C3137 1.363 . S
C3140 N3138 1.356 . S
C3141 C3135 1.363 . S
C3141 C3136 1.379 . S
C3141 N3139 1.356 . S
N3142 C3134 1.356 . S
N3142 H3148 0.984 . S
N3142 H3149 0.984 . S
N3143 C3136 1.356 . S
N3143 H3146 0.984 . S
N3143 H3147 0.985 . S
H3144 N3139 0.984 . S
H3145 N3139 0.985 . S
H3146 N3143 0.984 . S
H3147 N3143 0.985 . S
H3148 N3142 0.984 . S
H3149 N3142 0.984 . S
H3150 N3138 0.984 . S
H3151 N3138 0.985 . S
C3152 C3153 1.363 . S
C3152 C3158 1.379 . S
C3152 N3160 1.356 . S
C3153 C3152 1.363 . S
C3153 C3159 1.363 . S
C3154 C3155 1.363 . S
C3154 C3159 1.379 . S
C3154 N3161 1.356 . S
C3155 C3154 1.363 . S
C3155 C3158 1.363 . S
N3156 C3158 1.356 . S
N3156 H3168 0.984 . S
N3156 H3169 0.985 . S
N3157 C3159 1.356 . S
N3157 H3162 0.984 . S
N3157 H3163 0.985 . S
C3158 C3152 1.379 . S
C3158 C3155 1.363 . S
C3158 N3156 1.356 . S
C3159 C3153 1.363 . S
C3159 C3154 1.379 . S
C3159 N3157 1.356 . S
N3160 C3152 1.356 . S
N3160 H3166 0.984 . S
N3160 H3167 0.984 . S
N3161 C3154 1.356 . S
N3161 H3164 0.984 . S
N3161 H3165 0.985 . S
H3162 N3157 0.984 . S
H3163 N3157 0.985 . S
H3164 N3161 0.984 . S
H3165 N3161 0.985 . S
H3166 N3160 0.984 . S
H3167 N3160 0.984 . S
H3168 N3156 0.984 . S
H3169 N3156 0.985 . S
C3170 C3171 1.363 . S
C3170 C3176 1.379 . S
C3170 N3178 1.356 . S
C3171 C3170 1.363 . S
C3171 C3177 1.363 . S
C3172 C3173 1.363 . S
C3172 C3177 1.379 . S
C3172 N3179 1.356 . S
C3173 C3172 1.363 . S
C3173 C3176 1.363 . S
N3174 C3176 1.356 . S
N3174 H3186 0.984 . S
N3174 H3187 0.985 . S
N3175 C3177 1.356 . S
N3175 H3180 0.984 . S
N3175 H3181 0.985 . S
C3176 C3170 1.379 . S
C3176 C3173 1.363 . S
C3176 N3174 1.356 . S
C3177 C3171 1.363 . S
C3177 C3172 1.379 . S
C3177 N3175 1.356 . S
N3178 C3170 1.356 . S
N3178 H3184 0.984 . S
N3178 H3185 0.984 . S
N3179 C3172 1.356 . S
N3179 H3182 0.984 . S
N3179 H3183 0.985 . S
H3180 N3175 0.984 . S
H3181 N3175 0.985 . S
H3182 N3179 0.984 . S
H3183 N3179 0.985 . S
H3184 N3178 0.984 . S
H3185 N3178 0.984 . S
H3186 N3174 0.984 . S
H3187 N3174 0.985 . S
C3188 C3189 1.363 . S
C3188 C3194 1.379 . S
C3188 N3196 1.356 . S
C3189 C3188 1.363 . S
C3189 C3195 1.363 . S
C3190 C3191 1.363 . S
C3190 C3195 1.379 . S
C3190 N3197 1.356 . S
C3191 C3190 1.363 . S
C3191 C3194 1.363 . S
N3192 C3194 1.356 . S
N3192 H3204 0.984 . S
N3192 H3205 0.985 . S
N3193 C3195 1.356 . S
N3193 H3198 0.984 . S
N3193 H3199 0.985 . S
C3194 C3188 1.379 . S
C3194 C3191 1.363 . S
C3194 N3192 1.356 . S
C3195 C3189 1.363 . S
C3195 C3190 1.379 . S
C3195 N3193 1.356 . S
N3196 C3188 1.356 . S
N3196 H3202 0.984 . S
N3196 H3203 0.984 . S
N3197 C3190 1.356 . S
N3197 H3200 0.984 . S
N3197 H3201 0.985 . S
H3198 N3193 0.984 . S
H3199 N3193 0.985 . S
H3200 N3197 0.984 . S
H3201 N3197 0.985 . S
H3202 N3196 0.984 . S
H3203 N3196 0.984 . S
H3204 N3192 0.984 . S
H3205 N3192 0.985 . S
C3206 C3207 1.363 . S
C3206 C3212 1.379 . S
C3206 N3214 1.356 . S
C3207 C3206 1.363 . S
C3207 C3213 1.363 . S
C3208 C3209 1.363 . S
C3208 C3213 1.379 . S
C3208 N3215 1.356 . S
C3209 C3208 1.363 . S
C3209 C3212 1.363 . S
N3210 C3212 1.356 . S
N3210 H3222 0.984 . S
N3210 H3223 0.985 . S
N3211 C3213 1.356 . S
N3211 H3216 0.984 . S
N3211 H3217 0.985 . S
C3212 C3206 1.379 . S
C3212 C3209 1.363 . S
C3212 N3210 1.356 . S
C3213 C3207 1.363 . S
C3213 C3208 1.379 . S
C3213 N3211 1.356 . S
N3214 C3206 1.356 . S
N3214 H3220 0.984 . S
N3214 H3221 0.984 . S
N3215 C3208 1.356 . S
N3215 H3218 0.984 . S
N3215 H3219 0.985 . S
H3216 N3211 0.984 . S
H3217 N3211 0.985 . S
H3218 N3215 0.984 . S
H3219 N3215 0.985 . S
H3220 N3214 0.984 . S
H3221 N3214 0.984 . S
H3222 N3210 0.984 . S
H3223 N3210 0.985 . S
C3224 C3225 1.363 . S
C3224 C3230 1.379 . S
C3224 N3232 1.356 . S
C3225 C3224 1.363 . S
C3225 C3231 1.363 . S
C3226 C3227 1.363 . S
C3226 C3231 1.379 . S
C3226 N3233 1.356 . S
C3227 C3226 1.363 . S
C3227 C3230 1.363 . S
N3228 C3230 1.356 . S
N3228 H3240 0.984 . S
N3228 H3241 0.985 . S
N3229 C3231 1.356 . S
N3229 H3234 0.984 . S
N3229 H3235 0.985 . S
C3230 C3224 1.379 . S
C3230 C3227 1.363 . S
C3230 N3228 1.356 . S
C3231 C3225 1.363 . S
C3231 C3226 1.379 . S
C3231 N3229 1.356 . S
N3232 C3224 1.356 . S
N3232 H3238 0.984 . S
N3232 H3239 0.984 . S
N3233 C3226 1.356 . S
N3233 H3236 0.984 . S
N3233 H3237 0.985 . S
H3234 N3229 0.984 . S
H3235 N3229 0.985 . S
H3236 N3233 0.984 . S
H3237 N3233 0.985 . S
H3238 N3232 0.984 . S
H3239 N3232 0.984 . S
H3240 N3228 0.984 . S
H3241 N3228 0.985 . S
C3242 C3243 1.363 . S
C3242 C3248 1.379 . S
C3242 N3250 1.356 . S
C3243 C3242 1.363 . S
C3243 C3249 1.363 . S
C3244 C3245 1.363 . S
C3244 C3249 1.379 . S
C3244 N3251 1.356 . S
C3245 C3244 1.363 . S
C3245 C3248 1.363 . S
N3246 C3248 1.356 . S
N3246 H3258 0.984 . S
N3246 H3259 0.985 . S
N3247 C3249 1.356 . S
N3247 H3252 0.984 . S
N3247 H3253 0.985 . S
C3248 C3242 1.379 . S
C3248 C3245 1.363 . S
C3248 N3246 1.356 . S
C3249 C3243 1.363 . S
C3249 C3244 1.379 . S
C3249 N3247 1.356 . S
N3250 C3242 1.356 . S
N3250 H3256 0.984 . S
N3250 H3257 0.984 . S
N3251 C3244 1.356 . S
N3251 H3254 0.984 . S
N3251 H3255 0.985 . S
H3252 N3247 0.984 . S
H3253 N3247 0.985 . S
H3254 N3251 0.984 . S
H3255 N3251 0.985 . S
H3256 N3250 0.984 . S
H3257 N3250 0.984 . S
H3258 N3246 0.984 . S
H3259 N3246 0.985 . S
C3260 C3261 1.363 . S
C3260 C3266 1.379 . S
C3260 N3268 1.356 . S
C3261 C3260 1.363 . S
C3261 C3267 1.363 . S
C3262 C3263 1.363 . S
C3262 C3267 1.379 . S
C3262 N3269 1.356 . S
C3263 C3262 1.363 . S
C3263 C3266 1.363 . S
N3264 C3266 1.356 . S
N3264 H3276 0.984 . S
N3264 H3277 0.985 . S
N3265 C3267 1.356 . S
N3265 H3270 0.984 . S
N3265 H3271 0.985 . S
C3266 C3260 1.379 . S
C3266 C3263 1.363 . S
C3266 N3264 1.356 . S
C3267 C3261 1.363 . S
C3267 C3262 1.379 . S
C3267 N3265 1.356 . S
N3268 C3260 1.356 . S
N3268 H3274 0.984 . S
N3268 H3275 0.984 . S
N3269 C3262 1.356 . S
N3269 H3272 0.984 . S
N3269 H3273 0.985 . S
H3270 N3265 0.984 . S
H3271 N3265 0.985 . S
H3272 N3269 0.984 . S
H3273 N3269 0.985 . S
H3274 N3268 0.984 . S
H3275 N3268 0.984 . S
H3276 N3264 0.984 . S
H3277 N3264 0.985 . S
C3278 C3279 1.363 . S
C3278 C3284 1.379 . S
C3278 N3286 1.356 . S
C3279 C3278 1.363 . S
C3279 C3285 1.363 . S
C3280 C3281 1.363 . S
C3280 C3285 1.379 . S
C3280 N3287 1.356 . S
C3281 C3280 1.363 . S
C3281 C3284 1.363 . S
N3282 C3284 1.356 . S
N3282 H3294 0.984 . S
N3282 H3295 0.985 . S
N3283 C3285 1.356 . S
N3283 H3288 0.984 . S
N3283 H3289 0.985 . S
C3284 C3278 1.379 . S
C3284 C3281 1.363 . S
C3284 N3282 1.356 . S
C3285 C3279 1.363 . S
C3285 C3280 1.379 . S
C3285 N3283 1.356 . S
N3286 C3278 1.356 . S
N3286 H3292 0.984 . S
N3286 H3293 0.984 . S
N3287 C3280 1.356 . S
N3287 H3290 0.984 . S
N3287 H3291 0.985 . S
H3288 N3283 0.984 . S
H3289 N3283 0.985 . S
H3290 N3287 0.984 . S
H3291 N3287 0.985 . S
H3292 N3286 0.984 . S
H3293 N3286 0.984 . S
H3294 N3282 0.984 . S
H3295 N3282 0.985 . S
C3296 C3297 1.363 . S
C3296 C3302 1.379 . S
C3296 N3304 1.356 . S
C3297 C3296 1.363 . S
C3297 C3303 1.363 . S
C3298 C3299 1.363 . S
C3298 C3303 1.379 . S
C3298 N3305 1.356 . S
C3299 C3298 1.363 . S
C3299 C3302 1.363 . S
N3300 C3302 1.356 . S
N3300 H3312 0.984 . S
N3300 H3313 0.985 . S
N3301 C3303 1.356 . S
N3301 H3306 0.984 . S
N3301 H3307 0.985 . S
C3302 C3296 1.379 . S
C3302 C3299 1.363 . S
C3302 N3300 1.356 . S
C3303 C3297 1.363 . S
C3303 C3298 1.379 . S
C3303 N3301 1.356 . S
N3304 C3296 1.356 . S
N3304 H3310 0.984 . S
N3304 H3311 0.984 . S
N3305 C3298 1.356 . S
N3305 H3308 0.984 . S
N3305 H3309 0.985 . S
H3306 N3301 0.984 . S
H3307 N3301 0.985 . S
H3308 N3305 0.984 . S
H3309 N3305 0.985 . S
H3310 N3304 0.984 . S
H3311 N3304 0.984 . S
H3312 N3300 0.984 . S
H3313 N3300 0.985 . S
C3314 C3315 1.363 . S
C3314 C3320 1.379 . S
C3314 N3322 1.356 . S
C3315 C3314 1.363 . S
C3315 C3321 1.363 . S
C3316 C3317 1.363 . S
C3316 C3321 1.379 . S
C3316 N3323 1.356 . S
C3317 C3316 1.363 . S
C3317 C3320 1.363 . S
N3318 C3320 1.356 . S
N3318 H3330 0.984 . S
N3318 H3331 0.985 . S
N3319 C3321 1.356 . S
N3319 H3324 0.984 . S
N3319 H3325 0.985 . S
C3320 C3314 1.379 . S
C3320 C3317 1.363 . S
C3320 N3318 1.356 . S
C3321 C3315 1.363 . S
C3321 C3316 1.379 . S
C3321 N3319 1.356 . S
N3322 C3314 1.356 . S
N3322 H3328 0.984 . S
N3322 H3329 0.984 . S
N3323 C3316 1.356 . S
N3323 H3326 0.984 . S
N3323 H3327 0.985 . S
H3324 N3319 0.984 . S
H3325 N3319 0.985 . S
H3326 N3323 0.984 . S
H3327 N3323 0.985 . S
H3328 N3322 0.984 . S
H3329 N3322 0.984 . S
H3330 N3318 0.984 . S
H3331 N3318 0.985 . S
C3332 C3333 1.363 . S
C3332 C3338 1.379 . S
C3332 N3340 1.356 . S
C3333 C3332 1.363 . S
C3333 C3339 1.363 . S
C3334 C3335 1.363 . S
C3334 C3339 1.379 . S
C3334 N3341 1.356 . S
C3335 C3334 1.363 . S
C3335 C3338 1.363 . S
N3336 C3338 1.356 . S
N3336 H3348 0.984 . S
N3336 H3349 0.985 . S
N3337 C3339 1.356 . S
N3337 H3342 0.984 . S
N3337 H3343 0.985 . S
C3338 C3332 1.379 . S
C3338 C3335 1.363 . S
C3338 N3336 1.356 . S
C3339 C3333 1.363 . S
C3339 C3334 1.379 . S
C3339 N3337 1.356 . S
N3340 C3332 1.356 . S
N3340 H3346 0.984 . S
N3340 H3347 0.984 . S
N3341 C3334 1.356 . S
N3341 H3344 0.984 . S
N3341 H3345 0.985 . S
H3342 N3337 0.984 . S
H3343 N3337 0.985 . S
H3344 N3341 0.984 . S
H3345 N3341 0.985 . S
H3346 N3340 0.984 . S
H3347 N3340 0.984 . S
H3348 N3336 0.984 . S
H3349 N3336 0.985 . S
C3350 C3351 1.363 . S
C3350 C3356 1.379 . S
C3350 N3358 1.356 . S
C3351 C3350 1.363 . S
C3351 C3357 1.363 . S
C3352 C3353 1.363 . S
C3352 C3357 1.379 . S
C3352 N3359 1.356 . S
C3353 C3352 1.363 . S
C3353 C3356 1.363 . S
N3354 C3356 1.356 . S
N3354 H3366 0.984 . S
N3354 H3367 0.985 . S
N3355 C3357 1.356 . S
N3355 H3360 0.984 . S
N3355 H3361 0.985 . S
C3356 C3350 1.379 . S
C3356 C3353 1.363 . S
C3356 N3354 1.356 . S
C3357 C3351 1.363 . S
C3357 C3352 1.379 . S
C3357 N3355 1.356 . S
N3358 C3350 1.356 . S
N3358 H3364 0.984 . S
N3358 H3365 0.984 . S
N3359 C3352 1.356 . S
N3359 H3362 0.984 . S
N3359 H3363 0.985 . S
H3360 N3355 0.984 . S
H3361 N3355 0.985 . S
H3362 N3359 0.984 . S
H3363 N3359 0.985 . S
H3364 N3358 0.984 . S
H3365 N3358 0.984 . S
H3366 N3354 0.984 . S
H3367 N3354 0.985 . S
C3368 C3369 1.363 . S
C3368 C3374 1.379 . S
C3368 N3376 1.356 . S
C3369 C3368 1.363 . S
C3369 C3375 1.363 . S
C3370 C3371 1.363 . S
C3370 C3375 1.379 . S
C3370 N3377 1.356 . S
C3371 C3370 1.363 . S
C3371 C3374 1.363 . S
N3372 C3374 1.356 . S
N3372 H3384 0.984 . S
N3372 H3385 0.985 . S
N3373 C3375 1.356 . S
N3373 H3378 0.984 . S
N3373 H3379 0.985 . S
C3374 C3368 1.379 . S
C3374 C3371 1.363 . S
C3374 N3372 1.356 . S
C3375 C3369 1.363 . S
C3375 C3370 1.379 . S
C3375 N3373 1.356 . S
N3376 C3368 1.356 . S
N3376 H3382 0.984 . S
N3376 H3383 0.984 . S
N3377 C3370 1.356 . S
N3377 H3380 0.984 . S
N3377 H3381 0.985 . S
H3378 N3373 0.984 . S
H3379 N3373 0.985 . S
H3380 N3377 0.984 . S
H3381 N3377 0.985 . S
H3382 N3376 0.984 . S
H3383 N3376 0.984 . S
H3384 N3372 0.984 . S
H3385 N3372 0.985 . S
C3386 C3387 1.363 . S
C3386 C3392 1.379 . S
C3386 N3394 1.356 . S
C3387 C3386 1.363 . S
C3387 C3393 1.363 . S
C3388 C3389 1.363 . S
C3388 C3393 1.379 . S
C3388 N3395 1.356 . S
C3389 C3388 1.363 . S
C3389 C3392 1.363 . S
N3390 C3392 1.356 . S
N3390 H3402 0.984 . S
N3390 H3403 0.985 . S
N3391 C3393 1.356 . S
N3391 H3396 0.984 . S
N3391 H3397 0.985 . S
C3392 C3386 1.379 . S
C3392 C3389 1.363 . S
C3392 N3390 1.356 . S
C3393 C3387 1.363 . S
C3393 C3388 1.379 . S
C3393 N3391 1.356 . S
N3394 C3386 1.356 . S
N3394 H3400 0.984 . S
N3394 H3401 0.984 . S
N3395 C3388 1.356 . S
N3395 H3398 0.984 . S
N3395 H3399 0.985 . S
H3396 N3391 0.984 . S
H3397 N3391 0.985 . S
H3398 N3395 0.984 . S
H3399 N3395 0.985 . S
H3400 N3394 0.984 . S
H3401 N3394 0.984 . S
H3402 N3390 0.984 . S
H3403 N3390 0.985 . S
C3404 C3405 1.363 . S
C3404 C3410 1.379 . S
C3404 N3412 1.356 . S
C3405 C3404 1.363 . S
C3405 C3411 1.363 . S
C3406 C3407 1.363 . S
C3406 C3411 1.379 . S
C3406 N3413 1.356 . S
C3407 C3406 1.363 . S
C3407 C3410 1.363 . S
N3408 C3410 1.356 . S
N3408 H3420 0.984 . S
N3408 H3421 0.985 . S
N3409 C3411 1.356 . S
N3409 H3414 0.984 . S
N3409 H3415 0.985 . S
C3410 C3404 1.379 . S
C3410 C3407 1.363 . S
C3410 N3408 1.356 . S
C3411 C3405 1.363 . S
C3411 C3406 1.379 . S
C3411 N3409 1.356 . S
N3412 C3404 1.356 . S
N3412 H3418 0.984 . S
N3412 H3419 0.984 . S
N3413 C3406 1.356 . S
N3413 H3416 0.984 . S
N3413 H3417 0.985 . S
H3414 N3409 0.984 . S
H3415 N3409 0.985 . S
H3416 N3413 0.984 . S
H3417 N3413 0.985 . S
H3418 N3412 0.984 . S
H3419 N3412 0.984 . S
H3420 N3408 0.984 . S
H3421 N3408 0.985 . S
C3422 C3423 1.363 . S
C3422 C3428 1.379 . S
C3422 N3430 1.356 . S
C3423 C3422 1.363 . S
C3423 C3429 1.363 . S
C3424 C3425 1.363 . S
C3424 C3429 1.379 . S
C3424 N3431 1.356 . S
C3425 C3424 1.363 . S
C3425 C3428 1.363 . S
N3426 C3428 1.356 . S
N3426 H3438 0.984 . S
N3426 H3439 0.985 . S
N3427 C3429 1.356 . S
N3427 H3432 0.984 . S
N3427 H3433 0.985 . S
C3428 C3422 1.379 . S
C3428 C3425 1.363 . S
C3428 N3426 1.356 . S
C3429 C3423 1.363 . S
C3429 C3424 1.379 . S
C3429 N3427 1.356 . S
N3430 C3422 1.356 . S
N3430 H3436 0.984 . S
N3430 H3437 0.984 . S
N3431 C3424 1.356 . S
N3431 H3434 0.984 . S
N3431 H3435 0.985 . S
H3432 N3427 0.984 . S
H3433 N3427 0.985 . S
H3434 N3431 0.984 . S
H3435 N3431 0.985 . S
H3436 N3430 0.984 . S
H3437 N3430 0.984 . S
H3438 N3426 0.984 . S
H3439 N3426 0.985 . S
C3440 C3441 1.363 . S
C3440 C3446 1.379 . S
C3440 N3448 1.356 . S
C3441 C3440 1.363 . S
C3441 C3447 1.363 . S
C3442 C3443 1.363 . S
C3442 C3447 1.379 . S
C3442 N3449 1.356 . S
C3443 C3442 1.363 . S
C3443 C3446 1.363 . S
N3444 C3446 1.356 . S
N3444 H3456 0.984 . S
N3444 H3457 0.985 . S
N3445 C3447 1.356 . S
N3445 H3450 0.984 . S
N3445 H3451 0.985 . S
C3446 C3440 1.379 . S
C3446 C3443 1.363 . S
C3446 N3444 1.356 . S
C3447 C3441 1.363 . S
C3447 C3442 1.379 . S
C3447 N3445 1.356 . S
N3448 C3440 1.356 . S
N3448 H3454 0.984 . S
N3448 H3455 0.984 . S
N3449 C3442 1.356 . S
N3449 H3452 0.984 . S
N3449 H3453 0.985 . S
H3450 N3445 0.984 . S
H3451 N3445 0.985 . S
H3452 N3449 0.984 . S
H3453 N3449 0.985 . S
H3454 N3448 0.984 . S
H3455 N3448 0.984 . S
H3456 N3444 0.984 . S
H3457 N3444 0.985 . S
C3458 C3459 1.363 . S
C3458 C3464 1.379 . S
C3458 N3466 1.356 . S
C3459 C3458 1.363 . S
C3459 C3465 1.363 . S
C3460 C3461 1.363 . S
C3460 C3465 1.379 . S
C3460 N3467 1.356 . S
C3461 C3460 1.363 . S
C3461 C3464 1.363 . S
N3462 C3464 1.356 . S
N3462 H3474 0.984 . S
N3462 H3475 0.985 . S
N3463 C3465 1.356 . S
N3463 H3468 0.984 . S
N3463 H3469 0.985 . S
C3464 C3458 1.379 . S
C3464 C3461 1.363 . S
C3464 N3462 1.356 . S
C3465 C3459 1.363 . S
C3465 C3460 1.379 . S
C3465 N3463 1.356 . S
N3466 C3458 1.356 . S
N3466 H3472 0.984 . S
N3466 H3473 0.984 . S
N3467 C3460 1.356 . S
N3467 H3470 0.984 . S
N3467 H3471 0.985 . S
H3468 N3463 0.984 . S
H3469 N3463 0.985 . S
H3470 N3467 0.984 . S
H3471 N3467 0.985 . S
H3472 N3466 0.984 . S
H3473 N3466 0.984 . S
H3474 N3462 0.984 . S
H3475 N3462 0.985 . S
C3476 C3477 1.363 . S
C3476 C3482 1.379 . S
C3476 N3484 1.356 . S
C3477 C3476 1.363 . S
C3477 C3483 1.363 . S
C3478 C3479 1.363 . S
C3478 C3483 1.379 . S
C3478 N3485 1.356 . S
C3479 C3478 1.363 . S
C3479 C3482 1.363 . S
N3480 C3482 1.356 . S
N3480 H3492 0.984 . S
N3480 H3493 0.985 . S
N3481 C3483 1.356 . S
N3481 H3486 0.984 . S
N3481 H3487 0.985 . S
C3482 C3476 1.379 . S
C3482 C3479 1.363 . S
C3482 N3480 1.356 . S
C3483 C3477 1.363 . S
C3483 C3478 1.379 . S
C3483 N3481 1.356 . S
N3484 C3476 1.356 . S
N3484 H3490 0.984 . S
N3484 H3491 0.984 . S
N3485 C3478 1.356 . S
N3485 H3488 0.984 . S
N3485 H3489 0.985 . S
H3486 N3481 0.984 . S
H3487 N3481 0.985 . S
H3488 N3485 0.984 . S
H3489 N3485 0.985 . S
H3490 N3484 0.984 . S
H3491 N3484 0.984 . S
H3492 N3480 0.984 . S
H3493 N3480 0.985 . S
C3494 C3495 1.363 . S
C3494 C3500 1.379 . S
C3494 N3502 1.356 . S
C3495 C3494 1.363 . S
C3495 C3501 1.363 . S
C3496 C3497 1.363 . S
C3496 C3501 1.379 . S
C3496 N3503 1.356 . S
C3497 C3496 1.363 . S
C3497 C3500 1.363 . S
N3498 C3500 1.356 . S
N3498 H3510 0.984 . S
N3498 H3511 0.985 . S
N3499 C3501 1.356 . S
N3499 H3504 0.984 . S
N3499 H3505 0.985 . S
C3500 C3494 1.379 . S
C3500 C3497 1.363 . S
C3500 N3498 1.356 . S
C3501 C3495 1.363 . S
C3501 C3496 1.379 . S
C3501 N3499 1.356 . S
N3502 C3494 1.356 . S
N3502 H3508 0.984 . S
N3502 H3509 0.984 . S
N3503 C3496 1.356 . S
N3503 H3506 0.984 . S
N3503 H3507 0.985 . S
H3504 N3499 0.984 . S
H3505 N3499 0.985 . S
H3506 N3503 0.984 . S
H3507 N3503 0.985 . S
H3508 N3502 0.984 . S
H3509 N3502 0.984 . S
H3510 N3498 0.984 . S
H3511 N3498 0.985 . S
C3512 C3513 1.363 . S
C3512 C3518 1.379 . S
C3512 N3520 1.356 . S
C3513 C3512 1.363 . S
C3513 C3519 1.363 . S
C3514 C3515 1.363 . S
C3514 C3519 1.379 . S
C3514 N3521 1.356 . S
C3515 C3514 1.363 . S
C3515 C3518 1.363 . S
N3516 C3518 1.356 . S
N3516 H3528 0.984 . S
N3516 H3529 0.985 . S
N3517 C3519 1.356 . S
N3517 H3522 0.984 . S
N3517 H3523 0.985 . S
C3518 C3512 1.379 . S
C3518 C3515 1.363 . S
C3518 N3516 1.356 . S
C3519 C3513 1.363 . S
C3519 C3514 1.379 . S
C3519 N3517 1.356 . S
N3520 C3512 1.356 . S
N3520 H3526 0.984 . S
N3520 H3527 0.984 . S
N3521 C3514 1.356 . S
N3521 H3524 0.984 . S
N3521 H3525 0.985 . S
H3522 N3517 0.984 . S
H3523 N3517 0.985 . S
H3524 N3521 0.984 . S
H3525 N3521 0.985 . S
H3526 N3520 0.984 . S
H3527 N3520 0.984 . S
H3528 N3516 0.984 . S
H3529 N3516 0.985 . S
C3530 C3531 1.363 . S
C3530 C3536 1.379 . S
C3530 N3538 1.356 . S
C3531 C3530 1.363 . S
C3531 C3537 1.363 . S
C3532 C3533 1.363 . S
C3532 C3537 1.379 . S
C3532 N3539 1.356 . S
C3533 C3532 1.363 . S
C3533 C3536 1.363 . S
N3534 C3536 1.356 . S
N3534 H3546 0.984 . S
N3534 H3547 0.985 . S
N3535 C3537 1.356 . S
N3535 H3540 0.984 . S
N3535 H3541 0.985 . S
C3536 C3530 1.379 . S
C3536 C3533 1.363 . S
C3536 N3534 1.356 . S
C3537 C3531 1.363 . S
C3537 C3532 1.379 . S
C3537 N3535 1.356 . S
N3538 C3530 1.356 . S
N3538 H3544 0.984 . S
N3538 H3545 0.984 . S
N3539 C3532 1.356 . S
N3539 H3542 0.984 . S
N3539 H3543 0.985 . S
H3540 N3535 0.984 . S
H3541 N3535 0.985 . S
H3542 N3539 0.984 . S
H3543 N3539 0.985 . S
H3544 N3538 0.984 . S
H3545 N3538 0.984 . S
H3546 N3534 0.984 . S
H3547 N3534 0.985 . S
C3548 C3549 1.363 . S
C3548 C3554 1.379 . S
C3548 N3556 1.356 . S
C3549 C3548 1.363 . S
C3549 C3555 1.363 . S
C3550 C3551 1.363 . S
C3550 C3555 1.379 . S
C3550 N3557 1.356 . S
C3551 C3550 1.363 . S
C3551 C3554 1.363 . S
N3552 C3554 1.356 . S
N3552 H3564 0.984 . S
N3552 H3565 0.985 . S
N3553 C3555 1.356 . S
N3553 H3558 0.984 . S
N3553 H3559 0.985 . S
C3554 C3548 1.379 . S
C3554 C3551 1.363 . S
C3554 N3552 1.356 . S
C3555 C3549 1.363 . S
C3555 C3550 1.379 . S
C3555 N3553 1.356 . S
N3556 C3548 1.356 . S
N3556 H3562 0.984 . S
N3556 H3563 0.984 . S
N3557 C3550 1.356 . S
N3557 H3560 0.984 . S
N3557 H3561 0.985 . S
H3558 N3553 0.984 . S
H3559 N3553 0.985 . S
H3560 N3557 0.984 . S
H3561 N3557 0.985 . S
H3562 N3556 0.984 . S
H3563 N3556 0.984 . S
H3564 N3552 0.984 . S
H3565 N3552 0.985 . S
C3566 C3567 1.363 . S
C3566 C3572 1.379 . S
C3566 N3574 1.356 . S
C3567 C3566 1.363 . S
C3567 C3573 1.363 . S
C3568 C3569 1.363 . S
C3568 C3573 1.379 . S
C3568 N3575 1.356 . S
C3569 C3568 1.363 . S
C3569 C3572 1.363 . S
N3570 C3572 1.356 . S
N3570 H3582 0.984 . S
N3570 H3583 0.985 . S
N3571 C3573 1.356 . S
N3571 H3576 0.984 . S
N3571 H3577 0.985 . S
C3572 C3566 1.379 . S
C3572 C3569 1.363 . S
C3572 N3570 1.356 . S
C3573 C3567 1.363 . S
C3573 C3568 1.379 . S
C3573 N3571 1.356 . S
N3574 C3566 1.356 . S
N3574 H3580 0.984 . S
N3574 H3581 0.984 . S
N3575 C3568 1.356 . S
N3575 H3578 0.984 . S
N3575 H3579 0.985 . S
H3576 N3571 0.984 . S
H3577 N3571 0.985 . S
H3578 N3575 0.984 . S
H3579 N3575 0.985 . S
H3580 N3574 0.984 . S
H3581 N3574 0.984 . S
H3582 N3570 0.984 . S
H3583 N3570 0.985 . S
C3584 C3585 1.363 . S
C3584 C3590 1.379 . S
C3584 N3592 1.356 . S
C3585 C3584 1.363 . S
C3585 C3591 1.363 . S
C3586 C3587 1.363 . S
C3586 C3591 1.379 . S
C3586 N3593 1.356 . S
C3587 C3586 1.363 . S
C3587 C3590 1.363 . S
N3588 C3590 1.356 . S
N3588 H3600 0.984 . S
N3588 H3601 0.985 . S
N3589 C3591 1.356 . S
N3589 H3594 0.984 . S
N3589 H3595 0.985 . S
C3590 C3584 1.379 . S
C3590 C3587 1.363 . S
C3590 N3588 1.356 . S
C3591 C3585 1.363 . S
C3591 C3586 1.379 . S
C3591 N3589 1.356 . S
N3592 C3584 1.356 . S
N3592 H3598 0.984 . S
N3592 H3599 0.984 . S
N3593 C3586 1.356 . S
N3593 H3596 0.984 . S
N3593 H3597 0.985 . S
H3594 N3589 0.984 . S
H3595 N3589 0.985 . S
H3596 N3593 0.984 . S
H3597 N3593 0.985 . S
H3598 N3592 0.984 . S
H3599 N3592 0.984 . S
H3600 N3588 0.984 . S
H3601 N3588 0.985 . S
C3602 C3603 1.363 . S
C3602 C3608 1.379 . S
C3602 N3610 1.356 . S
C3603 C3602 1.363 . S
C3603 C3609 1.363 . S
C3604 C3605 1.363 . S
C3604 C3609 1.379 . S
C3604 N3611 1.356 . S
C3605 C3604 1.363 . S
C3605 C3608 1.363 . S
N3606 C3608 1.356 . S
N3606 H3618 0.984 . S
N3606 H3619 0.985 . S
N3607 C3609 1.356 . S
N3607 H3612 0.984 . S
N3607 H3613 0.985 . S
C3608 C3602 1.379 . S
C3608 C3605 1.363 . S
C3608 N3606 1.356 . S
C3609 C3603 1.363 . S
C3609 C3604 1.379 . S
C3609 N3607 1.356 . S
N3610 C3602 1.356 . S
N3610 H3616 0.984 . S
N3610 H3617 0.984 . S
N3611 C3604 1.356 . S
N3611 H3614 0.984 . S
N3611 H3615 0.985 . S
H3612 N3607 0.984 . S
H3613 N3607 0.985 . S
H3614 N3611 0.984 . S
H3615 N3611 0.985 . S
H3616 N3610 0.984 . S
H3617 N3610 0.984 . S
H3618 N3606 0.984 . S
H3619 N3606 0.985 . S
C3620 C3621 1.363 . S
C3620 C3626 1.379 . S
C3620 N3628 1.356 . S
C3621 C3620 1.363 . S
C3621 C3627 1.363 . S
C3622 C3623 1.363 . S
C3622 C3627 1.379 . S
C3622 N3629 1.356 . S
C3623 C3622 1.363 . S
C3623 C3626 1.363 . S
N3624 C3626 1.356 . S
N3624 H3636 0.984 . S
N3624 H3637 0.985 . S
N3625 C3627 1.356 . S
N3625 H3630 0.984 . S
N3625 H3631 0.985 . S
C3626 C3620 1.379 . S
C3626 C3623 1.363 . S
C3626 N3624 1.356 . S
C3627 C3621 1.363 . S
C3627 C3622 1.379 . S
C3627 N3625 1.356 . S
N3628 C3620 1.356 . S
N3628 H3634 0.984 . S
N3628 H3635 0.984 . S
N3629 C3622 1.356 . S
N3629 H3632 0.984 . S
N3629 H3633 0.985 . S
H3630 N3625 0.984 . S
H3631 N3625 0.985 . S
H3632 N3629 0.984 . S
H3633 N3629 0.985 . S
H3634 N3628 0.984 . S
H3635 N3628 0.984 . S
H3636 N3624 0.984 . S
H3637 N3624 0.985 . S
C3638 C3639 1.363 . S
C3638 C3644 1.379 . S
C3638 N3646 1.356 . S
C3639 C3638 1.363 . S
C3639 C3645 1.363 . S
C3640 C3641 1.363 . S
C3640 C3645 1.379 . S
C3640 N3647 1.356 . S
C3641 C3640 1.363 . S
C3641 C3644 1.363 . S
N3642 C3644 1.356 . S
N3642 H3654 0.984 . S
N3642 H3655 0.985 . S
N3643 C3645 1.356 . S
N3643 H3648 0.984 . S
N3643 H3649 0.985 . S
C3644 C3638 1.379 . S
C3644 C3641 1.363 . S
C3644 N3642 1.356 . S
C3645 C3639 1.363 . S
C3645 C3640 1.379 . S
C3645 N3643 1.356 . S
N3646 C3638 1.356 . S
N3646 H3652 0.984 . S
N3646 H3653 0.984 . S
N3647 C3640 1.356 . S
N3647 H3650 0.984 . S
N3647 H3651 0.985 . S
H3648 N3643 0.984 . S
H3649 N3643 0.985 . S
H3650 N3647 0.984 . S
H3651 N3647 0.985 . S
H3652 N3646 0.984 . S
H3653 N3646 0.984 . S
H3654 N3642 0.984 . S
H3655 N3642 0.985 . S
C3656 C3657 1.363 . S
C3656 C3662 1.379 . S
C3656 N3664 1.356 . S
C3657 C3656 1.363 . S
C3657 C3663 1.363 . S
C3658 C3659 1.363 . S
C3658 C3663 1.379 . S
C3658 N3665 1.356 . S
C3659 C3658 1.363 . S
C3659 C3662 1.363 . S
N3660 C3662 1.356 . S
N3660 H3672 0.984 . S
N3660 H3673 0.985 . S
N3661 C3663 1.356 . S
N3661 H3666 0.984 . S
N3661 H3667 0.985 . S
C3662 C3656 1.379 . S
C3662 C3659 1.363 . S
C3662 N3660 1.356 . S
C3663 C3657 1.363 . S
C3663 C3658 1.379 . S
C3663 N3661 1.356 . S
N3664 C3656 1.356 . S
N3664 H3670 0.984 . S
N3664 H3671 0.984 . S
N3665 C3658 1.356 . S
N3665 H3668 0.984 . S
N3665 H3669 0.985 . S
H3666 N3661 0.984 . S
H3667 N3661 0.985 . S
H3668 N3665 0.984 . S
H3669 N3665 0.985 . S
H3670 N3664 0.984 . S
H3671 N3664 0.984 . S
H3672 N3660 0.984 . S
H3673 N3660 0.985 . S
C3674 C3675 1.363 . S
C3674 C3680 1.379 . S
C3674 N3682 1.356 . S
C3675 C3674 1.363 . S
C3675 C3681 1.363 . S
C3676 C3677 1.363 . S
C3676 C3681 1.379 . S
C3676 N3683 1.356 . S
C3677 C3676 1.363 . S
C3677 C3680 1.363 . S
N3678 C3680 1.356 . S
N3678 H3690 0.984 . S
N3678 H3691 0.985 . S
N3679 C3681 1.356 . S
N3679 H3684 0.984 . S
N3679 H3685 0.985 . S
C3680 C3674 1.379 . S
C3680 C3677 1.363 . S
C3680 N3678 1.356 . S
C3681 C3675 1.363 . S
C3681 C3676 1.379 . S
C3681 N3679 1.356 . S
N3682 C3674 1.356 . S
N3682 H3688 0.984 . S
N3682 H3689 0.984 . S
N3683 C3676 1.356 . S
N3683 H3686 0.984 . S
N3683 H3687 0.985 . S
H3684 N3679 0.984 . S
H3685 N3679 0.985 . S
H3686 N3683 0.984 . S
H3687 N3683 0.985 . S
H3688 N3682 0.984 . S
H3689 N3682 0.984 . S
H3690 N3678 0.984 . S
H3691 N3678 0.985 . S
C3692 C3693 1.363 . S
C3692 C3698 1.379 . S
C3692 N3700 1.356 . S
C3693 C3692 1.363 . S
C3693 C3699 1.363 . S
C3694 C3695 1.363 . S
C3694 C3699 1.379 . S
C3694 N3701 1.356 . S
C3695 C3694 1.363 . S
C3695 C3698 1.363 . S
N3696 C3698 1.356 . S
N3696 H3708 0.984 . S
N3696 H3709 0.985 . S
N3697 C3699 1.356 . S
N3697 H3702 0.984 . S
N3697 H3703 0.985 . S
C3698 C3692 1.379 . S
C3698 C3695 1.363 . S
C3698 N3696 1.356 . S
C3699 C3693 1.363 . S
C3699 C3694 1.379 . S
C3699 N3697 1.356 . S
N3700 C3692 1.356 . S
N3700 H3706 0.984 . S
N3700 H3707 0.984 . S
N3701 C3694 1.356 . S
N3701 H3704 0.984 . S
N3701 H3705 0.985 . S
H3702 N3697 0.984 . S
H3703 N3697 0.985 . S
H3704 N3701 0.984 . S
H3705 N3701 0.985 . S
H3706 N3700 0.984 . S
H3707 N3700 0.984 . S
H3708 N3696 0.984 . S
H3709 N3696 0.985 . S
C3710 C3711 1.363 . S
C3710 C3716 1.379 . S
C3710 N3718 1.356 . S
C3711 C3710 1.363 . S
C3711 C3717 1.363 . S
C3712 C3713 1.363 . S
C3712 C3717 1.379 . S
C3712 N3719 1.356 . S
C3713 C3712 1.363 . S
C3713 C3716 1.363 . S
N3714 C3716 1.356 . S
N3714 H3726 0.984 . S
N3714 H3727 0.985 . S
N3715 C3717 1.356 . S
N3715 H3720 0.984 . S
N3715 H3721 0.985 . S
C3716 C3710 1.379 . S
C3716 C3713 1.363 . S
C3716 N3714 1.356 . S
C3717 C3711 1.363 . S
C3717 C3712 1.379 . S
C3717 N3715 1.356 . S
N3718 C3710 1.356 . S
N3718 H3724 0.984 . S
N3718 H3725 0.984 . S
N3719 C3712 1.356 . S
N3719 H3722 0.984 . S
N3719 H3723 0.985 . S
H3720 N3715 0.984 . S
H3721 N3715 0.985 . S
H3722 N3719 0.984 . S
H3723 N3719 0.985 . S
H3724 N3718 0.984 . S
H3725 N3718 0.984 . S
H3726 N3714 0.984 . S
H3727 N3714 0.985 . S
C3728 C3729 1.363 . S
C3728 C3734 1.379 . S
C3728 N3736 1.356 . S
C3729 C3728 1.363 . S
C3729 C3735 1.363 . S
C3730 C3731 1.363 . S
C3730 C3735 1.379 . S
C3730 N3737 1.356 . S
C3731 C3730 1.363 . S
C3731 C3734 1.363 . S
N3732 C3734 1.356 . S
N3732 H3744 0.984 . S
N3732 H3745 0.985 . S
N3733 C3735 1.356 . S
N3733 H3738 0.984 . S
N3733 H3739 0.985 . S
C3734 C3728 1.379 . S
C3734 C3731 1.363 . S
C3734 N3732 1.356 . S
C3735 C3729 1.363 . S
C3735 C3730 1.379 . S
C3735 N3733 1.356 . S
N3736 C3728 1.356 . S
N3736 H3742 0.984 . S
N3736 H3743 0.984 . S
N3737 C3730 1.356 . S
N3737 H3740 0.984 . S
N3737 H3741 0.985 . S
H3738 N3733 0.984 . S
H3739 N3733 0.985 . S
H3740 N3737 0.984 . S
H3741 N3737 0.985 . S
H3742 N3736 0.984 . S
H3743 N3736 0.984 . S
H3744 N3732 0.984 . S
H3745 N3732 0.985 . S
C3746 C3747 1.363 . S
C3746 C3752 1.379 . S
C3746 N3754 1.356 . S
C3747 C3746 1.363 . S
C3747 C3753 1.363 . S
C3748 C3749 1.363 . S
C3748 C3753 1.379 . S
C3748 N3755 1.356 . S
C3749 C3748 1.363 . S
C3749 C3752 1.363 . S
N3750 C3752 1.356 . S
N3750 H3762 0.984 . S
N3750 H3763 0.985 . S
N3751 C3753 1.356 . S
N3751 H3756 0.984 . S
N3751 H3757 0.985 . S
C3752 C3746 1.379 . S
C3752 C3749 1.363 . S
C3752 N3750 1.356 . S
C3753 C3747 1.363 . S
C3753 C3748 1.379 . S
C3753 N3751 1.356 . S
N3754 C3746 1.356 . S
N3754 H3760 0.984 . S
N3754 H3761 0.984 . S
N3755 C3748 1.356 . S
N3755 H3758 0.984 . S
N3755 H3759 0.985 . S
H3756 N3751 0.984 . S
H3757 N3751 0.985 . S
H3758 N3755 0.984 . S
H3759 N3755 0.985 . S
H3760 N3754 0.984 . S
H3761 N3754 0.984 . S
H3762 N3750 0.984 . S
H3763 N3750 0.985 . S
C3764 C3765 1.363 . S
C3764 C3770 1.379 . S
C3764 N3772 1.356 . S
C3765 C3764 1.363 . S
C3765 C3771 1.363 . S
C3766 C3767 1.363 . S
C3766 C3771 1.379 . S
C3766 N3773 1.356 . S
C3767 C3766 1.363 . S
C3767 C3770 1.363 . S
N3768 C3770 1.356 . S
N3768 H3780 0.984 . S
N3768 H3781 0.985 . S
N3769 C3771 1.356 . S
N3769 H3774 0.984 . S
N3769 H3775 0.985 . S
C3770 C3764 1.379 . S
C3770 C3767 1.363 . S
C3770 N3768 1.356 . S
C3771 C3765 1.363 . S
C3771 C3766 1.379 . S
C3771 N3769 1.356 . S
N3772 C3764 1.356 . S
N3772 H3778 0.984 . S
N3772 H3779 0.984 . S
N3773 C3766 1.356 . S
N3773 H3776 0.984 . S
N3773 H3777 0.985 . S
H3774 N3769 0.984 . S
H3775 N3769 0.985 . S
H3776 N3773 0.984 . S
H3777 N3773 0.985 . S
H3778 N3772 0.984 . S
H3779 N3772 0.984 . S
H3780 N3768 0.984 . S
H3781 N3768 0.985 . S
C3782 C3783 1.363 . S
C3782 C3788 1.379 . S
C3782 N3790 1.356 . S
C3783 C3782 1.363 . S
C3783 C3789 1.363 . S
C3784 C3785 1.363 . S
C3784 C3789 1.379 . S
C3784 N3791 1.356 . S
C3785 C3784 1.363 . S
C3785 C3788 1.363 . S
N3786 C3788 1.356 . S
N3786 H3798 0.984 . S
N3786 H3799 0.985 . S
N3787 C3789 1.356 . S
N3787 H3792 0.984 . S
N3787 H3793 0.985 . S
C3788 C3782 1.379 . S
C3788 C3785 1.363 . S
C3788 N3786 1.356 . S
C3789 C3783 1.363 . S
C3789 C3784 1.379 . S
C3789 N3787 1.356 . S
N3790 C3782 1.356 . S
N3790 H3796 0.984 . S
N3790 H3797 0.984 . S
N3791 C3784 1.356 . S
N3791 H3794 0.984 . S
N3791 H3795 0.985 . S
H3792 N3787 0.984 . S
H3793 N3787 0.985 . S
H3794 N3791 0.984 . S
H3795 N3791 0.985 . S
H3796 N3790 0.984 . S
H3797 N3790 0.984 . S
H3798 N3786 0.984 . S
H3799 N3786 0.985 . S
C3800 C3801 1.363 . S
C3800 C3806 1.379 . S
C3800 N3808 1.356 . S
C3801 C3800 1.363 . S
C3801 C3807 1.363 . S
C3802 C3803 1.363 . S
C3802 C3807 1.379 . S
C3802 N3809 1.356 . S
C3803 C3802 1.363 . S
C3803 C3806 1.363 . S
N3804 C3806 1.356 . S
N3804 H3816 0.984 . S
N3804 H3817 0.985 . S
N3805 C3807 1.356 . S
N3805 H3810 0.984 . S
N3805 H3811 0.985 . S
C3806 C3800 1.379 . S
C3806 C3803 1.363 . S
C3806 N3804 1.356 . S
C3807 C3801 1.363 . S
C3807 C3802 1.379 . S
C3807 N3805 1.356 . S
N3808 C3800 1.356 . S
N3808 H3814 0.984 . S
N3808 H3815 0.984 . S
N3809 C3802 1.356 . S
N3809 H3812 0.984 . S
N3809 H3813 0.985 . S
H3810 N3805 0.984 . S
H3811 N3805 0.985 . S
H3812 N3809 0.984 . S
H3813 N3809 0.985 . S
H3814 N3808 0.984 . S
H3815 N3808 0.984 . S
H3816 N3804 0.984 . S
H3817 N3804 0.985 . S
C3818 C3819 1.363 . S
C3818 C3824 1.379 . S
C3818 N3826 1.356 . S
C3819 C3818 1.363 . S
C3819 C3825 1.363 . S
C3820 C3821 1.363 . S
C3820 C3825 1.379 . S
C3820 N3827 1.356 . S
C3821 C3820 1.363 . S
C3821 C3824 1.363 . S
N3822 C3824 1.356 . S
N3822 H3834 0.984 . S
N3822 H3835 0.985 . S
N3823 C3825 1.356 . S
N3823 H3828 0.984 . S
N3823 H3829 0.985 . S
C3824 C3818 1.379 . S
C3824 C3821 1.363 . S
C3824 N3822 1.356 . S
C3825 C3819 1.363 . S
C3825 C3820 1.379 . S
C3825 N3823 1.356 . S
N3826 C3818 1.356 . S
N3826 H3832 0.984 . S
N3826 H3833 0.984 . S
N3827 C3820 1.356 . S
N3827 H3830 0.984 . S
N3827 H3831 0.985 . S
H3828 N3823 0.984 . S
H3829 N3823 0.985 . S
H3830 N3827 0.984 . S
H3831 N3827 0.985 . S
H3832 N3826 0.984 . S
H3833 N3826 0.984 . S
H3834 N3822 0.984 . S
H3835 N3822 0.985 . S
C3836 C3837 1.363 . S
C3836 C3842 1.379 . S
C3836 N3844 1.356 . S
C3837 C3836 1.363 . S
C3837 C3843 1.363 . S
C3838 C3839 1.363 . S
C3838 C3843 1.379 . S
C3838 N3845 1.356 . S
C3839 C3838 1.363 . S
C3839 C3842 1.363 . S
N3840 C3842 1.356 . S
N3840 H3852 0.984 . S
N3840 H3853 0.985 . S
N3841 C3843 1.356 . S
N3841 H3846 0.984 . S
N3841 H3847 0.985 . S
C3842 C3836 1.379 . S
C3842 C3839 1.363 . S
C3842 N3840 1.356 . S
C3843 C3837 1.363 . S
C3843 C3838 1.379 . S
C3843 N3841 1.356 . S
N3844 C3836 1.356 . S
N3844 H3850 0.984 . S
N3844 H3851 0.984 . S
N3845 C3838 1.356 . S
N3845 H3848 0.984 . S
N3845 H3849 0.985 . S
H3846 N3841 0.984 . S
H3847 N3841 0.985 . S
H3848 N3845 0.984 . S
H3849 N3845 0.985 . S
H3850 N3844 0.984 . S
H3851 N3844 0.984 . S
H3852 N3840 0.984 . S
H3853 N3840 0.985 . S
C3854 C3855 1.363 . S
C3854 C3860 1.379 . S
C3854 N3862 1.356 . S
C3855 C3854 1.363 . S
C3855 C3861 1.363 . S
C3856 C3857 1.363 . S
C3856 C3861 1.379 . S
C3856 N3863 1.356 . S
C3857 C3856 1.363 . S
C3857 C3860 1.363 . S
N3858 C3860 1.356 . S
N3858 H3870 0.984 . S
N3858 H3871 0.985 . S
N3859 C3861 1.356 . S
N3859 H3864 0.984 . S
N3859 H3865 0.985 . S
C3860 C3854 1.379 . S
C3860 C3857 1.363 . S
C3860 N3858 1.356 . S
C3861 C3855 1.363 . S
C3861 C3856 1.379 . S
C3861 N3859 1.356 . S
N3862 C3854 1.356 . S
N3862 H3868 0.984 . S
N3862 H3869 0.984 . S
N3863 C3856 1.356 . S
N3863 H3866 0.984 . S
N3863 H3867 0.985 . S
H3864 N3859 0.984 . S
H3865 N3859 0.985 . S
H3866 N3863 0.984 . S
H3867 N3863 0.985 . S
H3868 N3862 0.984 . S
H3869 N3862 0.984 . S
H3870 N3858 0.984 . S
H3871 N3858 0.985 . S
C3872 C3873 1.363 . S
C3872 C3878 1.379 . S
C3872 N3880 1.356 . S
C3873 C3872 1.363 . S
C3873 C3879 1.363 . S
C3874 C3875 1.363 . S
C3874 C3879 1.379 . S
C3874 N3881 1.356 . S
C3875 C3874 1.363 . S
C3875 C3878 1.363 . S
N3876 C3878 1.356 . S
N3876 H3888 0.984 . S
N3876 H3889 0.985 . S
N3877 C3879 1.356 . S
N3877 H3882 0.984 . S
N3877 H3883 0.985 . S
C3878 C3872 1.379 . S
C3878 C3875 1.363 . S
C3878 N3876 1.356 . S
C3879 C3873 1.363 . S
C3879 C3874 1.379 . S
C3879 N3877 1.356 . S
N3880 C3872 1.356 . S
N3880 H3886 0.984 . S
N3880 H3887 0.984 . S
N3881 C3874 1.356 . S
N3881 H3884 0.984 . S
N3881 H3885 0.985 . S
H3882 N3877 0.984 . S
H3883 N3877 0.985 . S
H3884 N3881 0.984 . S
H3885 N3881 0.985 . S
H3886 N3880 0.984 . S
H3887 N3880 0.984 . S
H3888 N3876 0.984 . S
H3889 N3876 0.985 . S
C3890 C3891 1.363 . S
C3890 C3896 1.379 . S
C3890 N3898 1.356 . S
C3891 C3890 1.363 . S
C3891 C3897 1.363 . S
C3892 C3893 1.363 . S
C3892 C3897 1.379 . S
C3892 N3899 1.356 . S
C3893 C3892 1.363 . S
C3893 C3896 1.363 . S
N3894 C3896 1.356 . S
N3894 H3906 0.984 . S
N3894 H3907 0.985 . S
N3895 C3897 1.356 . S
N3895 H3900 0.984 . S
N3895 H3901 0.985 . S
C3896 C3890 1.379 . S
C3896 C3893 1.363 . S
C3896 N3894 1.356 . S
C3897 C3891 1.363 . S
C3897 C3892 1.379 . S
C3897 N3895 1.356 . S
N3898 C3890 1.356 . S
N3898 H3904 0.984 . S
N3898 H3905 0.984 . S
N3899 C3892 1.356 . S
N3899 H3902 0.984 . S
N3899 H3903 0.985 . S
H3900 N3895 0.984 . S
H3901 N3895 0.985 . S
H3902 N3899 0.984 . S
H3903 N3899 0.985 . S
H3904 N3898 0.984 . S
H3905 N3898 0.984 . S
H3906 N3894 0.984 . S
H3907 N3894 0.985 . S
C3908 C3909 1.363 . S
C3908 C3914 1.379 . S
C3908 N3916 1.356 . S
C3909 C3908 1.363 . S
C3909 C3915 1.363 . S
C3910 C3911 1.363 . S
C3910 C3915 1.379 . S
C3910 N3917 1.356 . S
C3911 C3910 1.363 . S
C3911 C3914 1.363 . S
N3912 C3914 1.356 . S
N3912 H3924 0.984 . S
N3912 H3925 0.985 . S
N3913 C3915 1.356 . S
N3913 H3918 0.984 . S
N3913 H3919 0.985 . S
C3914 C3908 1.379 . S
C3914 C3911 1.363 . S
C3914 N3912 1.356 . S
C3915 C3909 1.363 . S
C3915 C3910 1.379 . S
C3915 N3913 1.356 . S
N3916 C3908 1.356 . S
N3916 H3922 0.984 . S
N3916 H3923 0.984 . S
N3917 C3910 1.356 . S
N3917 H3920 0.984 . S
N3917 H3921 0.985 . S
H3918 N3913 0.984 . S
H3919 N3913 0.985 . S
H3920 N3917 0.984 . S
H3921 N3917 0.985 . S
H3922 N3916 0.984 . S
H3923 N3916 0.984 . S
H3924 N3912 0.984 . S
H3925 N3912 0.985 . S
C3926 C3927 1.363 . S
C3926 C3932 1.379 . S
C3926 N3934 1.356 . S
C3927 C3926 1.363 . S
C3927 C3933 1.363 . S
C3928 C3929 1.363 . S
C3928 C3933 1.379 . S
C3928 N3935 1.356 . S
C3929 C3928 1.363 . S
C3929 C3932 1.363 . S
N3930 C3932 1.356 . S
N3930 H3942 0.984 . S
N3930 H3943 0.985 . S
N3931 C3933 1.356 . S
N3931 H3936 0.984 . S
N3931 H3937 0.985 . S
C3932 C3926 1.379 . S
C3932 C3929 1.363 . S
C3932 N3930 1.356 . S
C3933 C3927 1.363 . S
C3933 C3928 1.379 . S
C3933 N3931 1.356 . S
N3934 C3926 1.356 . S
N3934 H3940 0.984 . S
N3934 H3941 0.984 . S
N3935 C3928 1.356 . S
N3935 H3938 0.984 . S
N3935 H3939 0.985 . S
H3936 N3931 0.984 . S
H3937 N3931 0.985 . S
H3938 N3935 0.984 . S
H3939 N3935 0.985 . S
H3940 N3934 0.984 . S
H3941 N3934 0.984 . S
H3942 N3930 0.984 . S
H3943 N3930 0.985 . S
C3944 C3945 1.363 . S
C3944 C3950 1.379 . S
C3944 N3952 1.356 . S
C3945 C3944 1.363 . S
C3945 C3951 1.363 . S
C3946 C3947 1.363 . S
C3946 C3951 1.379 . S
C3946 N3953 1.356 . S
C3947 C3946 1.363 . S
C3947 C3950 1.363 . S
N3948 C3950 1.356 . S
N3948 H3960 0.984 . S
N3948 H3961 0.985 . S
N3949 C3951 1.356 . S
N3949 H3954 0.984 . S
N3949 H3955 0.985 . S
C3950 C3944 1.379 . S
C3950 C3947 1.363 . S
C3950 N3948 1.356 . S
C3951 C3945 1.363 . S
C3951 C3946 1.379 . S
C3951 N3949 1.356 . S
N3952 C3944 1.356 . S
N3952 H3958 0.984 . S
N3952 H3959 0.984 . S
N3953 C3946 1.356 . S
N3953 H3956 0.984 . S
N3953 H3957 0.985 . S
H3954 N3949 0.984 . S
H3955 N3949 0.985 . S
H3956 N3953 0.984 . S
H3957 N3953 0.985 . S
H3958 N3952 0.984 . S
H3959 N3952 0.984 . S
H3960 N3948 0.984 . S
H3961 N3948 0.985 . S
C3962 C3963 1.363 . S
C3962 C3968 1.379 . S
C3962 N3970 1.356 . S
C3963 C3962 1.363 . S
C3963 C3969 1.363 . S
C3964 C3965 1.363 . S
C3964 C3969 1.379 . S
C3964 N3971 1.356 . S
C3965 C3964 1.363 . S
C3965 C3968 1.363 . S
N3966 C3968 1.356 . S
N3966 H3978 0.984 . S
N3966 H3979 0.985 . S
N3967 C3969 1.356 . S
N3967 H3972 0.984 . S
N3967 H3973 0.985 . S
C3968 C3962 1.379 . S
C3968 C3965 1.363 . S
C3968 N3966 1.356 . S
C3969 C3963 1.363 . S
C3969 C3964 1.379 . S
C3969 N3967 1.356 . S
N3970 C3962 1.356 . S
N3970 H3976 0.984 . S
N3970 H3977 0.984 . S
N3971 C3964 1.356 . S
N3971 H3974 0.984 . S
N3971 H3975 0.985 . S
H3972 N3967 0.984 . S
H3973 N3967 0.985 . S
H3974 N3971 0.984 . S
H3975 N3971 0.985 . S
H3976 N3970 0.984 . S
H3977 N3970 0.984 . S
H3978 N3966 0.984 . S
H3979 N3966 0.985 . S
C3980 C3981 1.363 . S
C3980 C3986 1.379 . S
C3980 N3988 1.356 . S
C3981 C3980 1.363 . S
C3981 C3987 1.363 . S
C3982 C3983 1.363 . S
C3982 C3987 1.379 . S
C3982 N3989 1.356 . S
C3983 C3982 1.363 . S
C3983 C3986 1.363 . S
N3984 C3986 1.356 . S
N3984 H3996 0.984 . S
N3984 H3997 0.985 . S
N3985 C3987 1.356 . S
N3985 H3990 0.984 . S
N3985 H3991 0.985 . S
C3986 C3980 1.379 . S
C3986 C3983 1.363 . S
C3986 N3984 1.356 . S
C3987 C3981 1.363 . S
C3987 C3982 1.379 . S
C3987 N3985 1.356 . S
N3988 C3980 1.356 . S
N3988 H3994 0.984 . S
N3988 H3995 0.984 . S
N3989 C3982 1.356 . S
N3989 H3992 0.984 . S
N3989 H3993 0.985 . S
H3990 N3985 0.984 . S
H3991 N3985 0.985 . S
H3992 N3989 0.984 . S
H3993 N3989 0.985 . S
H3994 N3988 0.984 . S
H3995 N3988 0.984 . S
H3996 N3984 0.984 . S
H3997 N3984 0.985 . S
C3998 C3999 1.363 . S
C3998 C4004 1.379 . S
C3998 N4006 1.356 . S
C3999 C3998 1.363 . S
C3999 C4005 1.363 . S
C4000 C4001 1.363 . S
C4000 C4005 1.379 . S
C4000 N4007 1.356 . S
C4001 C4000 1.363 . S
C4001 C4004 1.363 . S
N4002 C4004 1.356 . S
N4002 H4014 0.984 . S
N4002 H4015 0.985 . S
N4003 C4005 1.356 . S
N4003 H4008 0.984 . S
N4003 H4009 0.985 . S
C4004 C3998 1.379 . S
C4004 C4001 1.363 . S
C4004 N4002 1.356 . S
C4005 C3999 1.363 . S
C4005 C4000 1.379 . S
C4005 N4003 1.356 . S
N4006 C3998 1.356 . S
N4006 H4012 0.984 . S
N4006 H4013 0.984 . S
N4007 C4000 1.356 . S
N4007 H4010 0.984 . S
N4007 H4011 0.985 . S
H4008 N4003 0.984 . S
H4009 N4003 0.985 . S
H4010 N4007 0.984 . S
H4011 N4007 0.985 . S
H4012 N4006 0.984 . S
H4013 N4006 0.984 . S
H4014 N4002 0.984 . S
H4015 N4002 0.985 . S
C4016 C4017 1.363 . S
C4016 C4022 1.379 . S
C4016 N4024 1.356 . S
C4017 C4016 1.363 . S
C4017 C4023 1.363 . S
C4018 C4019 1.363 . S
C4018 C4023 1.379 . S
C4018 N4025 1.356 . S
C4019 C4018 1.363 . S
C4019 C4022 1.363 . S
N4020 C4022 1.356 . S
N4020 H4032 0.984 . S
N4020 H4033 0.985 . S
N4021 C4023 1.356 . S
N4021 H4026 0.984 . S
N4021 H4027 0.985 . S
C4022 C4016 1.379 . S
C4022 C4019 1.363 . S
C4022 N4020 1.356 . S
C4023 C4017 1.363 . S
C4023 C4018 1.379 . S
C4023 N4021 1.356 . S
N4024 C4016 1.356 . S
N4024 H4030 0.984 . S
N4024 H4031 0.984 . S
N4025 C4018 1.356 . S
N4025 H4028 0.984 . S
N4025 H4029 0.985 . S
H4026 N4021 0.984 . S
H4027 N4021 0.985 . S
H4028 N4025 0.984 . S
H4029 N4025 0.985 . S
H4030 N4024 0.984 . S
H4031 N4024 0.984 . S
H4032 N4020 0.984 . S
H4033 N4020 0.985 . S
C4034 C4035 1.363 . S
C4034 C4040 1.379 . S
C4034 N4042 1.356 . S
C4035 C4034 1.363 . S
C4035 C4041 1.363 . S
C4036 C4037 1.363 . S
C4036 C4041 1.379 . S
C4036 N4043 1.356 . S
C4037 C4036 1.363 . S
C4037 C4040 1.363 . S
N4038 C4040 1.356 . S
N4038 H4050 0.984 . S
N4038 H4051 0.985 . S
N4039 C4041 1.356 . S
N4039 H4044 0.984 . S
N4039 H4045 0.985 . S
C4040 C4034 1.379 . S
C4040 C4037 1.363 . S
C4040 N4038 1.356 . S
C4041 C4035 1.363 . S
C4041 C4036 1.379 . S
C4041 N4039 1.356 . S
N4042 C4034 1.356 . S
N4042 H4048 0.984 . S
N4042 H4049 0.984 . S
N4043 C4036 1.356 . S
N4043 H4046 0.984 . S
N4043 H4047 0.985 . S
H4044 N4039 0.984 . S
H4045 N4039 0.985 . S
H4046 N4043 0.984 . S
H4047 N4043 0.985 . S
H4048 N4042 0.984 . S
H4049 N4042 0.984 . S
H4050 N4038 0.984 . S
H4051 N4038 0.985 . S
C4052 C4053 1.363 . S
C4052 C4058 1.379 . S
C4052 N4060 1.356 . S
C4053 C4052 1.363 . S
C4053 C4059 1.363 . S
C4054 C4055 1.363 . S
C4054 C4059 1.379 . S
C4054 N4061 1.356 . S
C4055 C4054 1.363 . S
C4055 C4058 1.363 . S
N4056 C4058 1.356 . S
N4056 H4068 0.984 . S
N4056 H4069 0.985 . S
N4057 C4059 1.356 . S
N4057 H4062 0.984 . S
N4057 H4063 0.985 . S
C4058 C4052 1.379 . S
C4058 C4055 1.363 . S
C4058 N4056 1.356 . S
C4059 C4053 1.363 . S
C4059 C4054 1.379 . S
C4059 N4057 1.356 . S
N4060 C4052 1.356 . S
N4060 H4066 0.984 . S
N4060 H4067 0.984 . S
N4061 C4054 1.356 . S
N4061 H4064 0.984 . S
N4061 H4065 0.985 . S
H4062 N4057 0.984 . S
H4063 N4057 0.985 . S
H4064 N4061 0.984 . S
H4065 N4061 0.985 . S
H4066 N4060 0.984 . S
H4067 N4060 0.984 . S
H4068 N4056 0.984 . S
H4069 N4056 0.985 . S
C4070 C4071 1.363 . S
C4070 C4076 1.379 . S
C4070 N4078 1.356 . S
C4071 C4070 1.363 . S
C4071 C4077 1.363 . S
C4072 C4073 1.363 . S
C4072 C4077 1.379 . S
C4072 N4079 1.356 . S
C4073 C4072 1.363 . S
C4073 C4076 1.363 . S
N4074 C4076 1.356 . S
N4074 H4086 0.984 . S
N4074 H4087 0.985 . S
N4075 C4077 1.356 . S
N4075 H4080 0.984 . S
N4075 H4081 0.985 . S
C4076 C4070 1.379 . S
C4076 C4073 1.363 . S
C4076 N4074 1.356 . S
C4077 C4071 1.363 . S
C4077 C4072 1.379 . S
C4077 N4075 1.356 . S
N4078 C4070 1.356 . S
N4078 H4084 0.984 . S
N4078 H4085 0.984 . S
N4079 C4072 1.356 . S
N4079 H4082 0.984 . S
N4079 H4083 0.985 . S
H4080 N4075 0.984 . S
H4081 N4075 0.985 . S
H4082 N4079 0.984 . S
H4083 N4079 0.985 . S
H4084 N4078 0.984 . S
H4085 N4078 0.984 . S
H4086 N4074 0.984 . S
H4087 N4074 0.985 . S
C4088 C4089 1.363 . S
C4088 C4094 1.379 . S
C4088 N4096 1.356 . S
C4089 C4088 1.363 . S
C4089 C4095 1.363 . S
C4090 C4091 1.363 . S
C4090 C4095 1.379 . S
C4090 N4097 1.356 . S
C4091 C4090 1.363 . S
C4091 C4094 1.363 . S
N4092 C4094 1.356 . S
N4092 H4104 0.984 . S
N4092 H4105 0.985 . S
N4093 C4095 1.356 . S
N4093 H4098 0.984 . S
N4093 H4099 0.985 . S
C4094 C4088 1.379 . S
C4094 C4091 1.363 . S
C4094 N4092 1.356 . S
C4095 C4089 1.363 . S
C4095 C4090 1.379 . S
C4095 N4093 1.356 . S
N4096 C4088 1.356 . S
N4096 H4102 0.984 . S
N4096 H4103 0.984 . S
N4097 C4090 1.356 . S
N4097 H4100 0.984 . S
N4097 H4101 0.985 . S
H4098 N4093 0.984 . S
H4099 N4093 0.985 . S
H4100 N4097 0.984 . S
H4101 N4097 0.985 . S
H4102 N4096 0.984 . S
H4103 N4096 0.984 . S
H4104 N4092 0.984 . S
H4105 N4092 0.985 . S
C4106 C4107 1.363 . S
C4106 C4112 1.379 . S
C4106 N4114 1.356 . S
C4107 C4106 1.363 . S
C4107 C4113 1.363 . S
C4108 C4109 1.363 . S
C4108 C4113 1.379 . S
C4108 N4115 1.356 . S
C4109 C4108 1.363 . S
C4109 C4112 1.363 . S
N4110 C4112 1.356 . S
N4110 H4122 0.984 . S
N4110 H4123 0.985 . S
N4111 C4113 1.356 . S
N4111 H4116 0.984 . S
N4111 H4117 0.985 . S
C4112 C4106 1.379 . S
C4112 C4109 1.363 . S
C4112 N4110 1.356 . S
C4113 C4107 1.363 . S
C4113 C4108 1.379 . S
C4113 N4111 1.356 . S
N4114 C4106 1.356 . S
N4114 H4120 0.984 . S
N4114 H4121 0.984 . S
N4115 C4108 1.356 . S
N4115 H4118 0.984 . S
N4115 H4119 0.985 . S
H4116 N4111 0.984 . S
H4117 N4111 0.985 . S
H4118 N4115 0.984 . S
H4119 N4115 0.985 . S
H4120 N4114 0.984 . S
H4121 N4114 0.984 . S
H4122 N4110 0.984 . S
H4123 N4110 0.985 . S
C4124 C4125 1.363 . S
C4124 C4130 1.379 . S
C4124 N4132 1.356 . S
C4125 C4124 1.363 . S
C4125 C4131 1.363 . S
C4126 C4127 1.363 . S
C4126 C4131 1.379 . S
C4126 N4133 1.356 . S
C4127 C4126 1.363 . S
C4127 C4130 1.363 . S
N4128 C4130 1.356 . S
N4128 H4140 0.984 . S
N4128 H4141 0.985 . S
N4129 C4131 1.356 . S
N4129 H4134 0.984 . S
N4129 H4135 0.985 . S
C4130 C4124 1.379 . S
C4130 C4127 1.363 . S
C4130 N4128 1.356 . S
C4131 C4125 1.363 . S
C4131 C4126 1.379 . S
C4131 N4129 1.356 . S
N4132 C4124 1.356 . S
N4132 H4138 0.984 . S
N4132 H4139 0.984 . S
N4133 C4126 1.356 . S
N4133 H4136 0.984 . S
N4133 H4137 0.985 . S
H4134 N4129 0.984 . S
H4135 N4129 0.985 . S
H4136 N4133 0.984 . S
H4137 N4133 0.985 . S
H4138 N4132 0.984 . S
H4139 N4132 0.984 . S
H4140 N4128 0.984 . S
H4141 N4128 0.985 . S
C4142 C4143 1.363 . S
C4142 C4148 1.379 . S
C4142 N4150 1.356 . S
C4143 C4142 1.363 . S
C4143 C4149 1.363 . S
C4144 C4145 1.363 . S
C4144 C4149 1.379 . S
C4144 N4151 1.356 . S
C4145 C4144 1.363 . S
C4145 C4148 1.363 . S
N4146 C4148 1.356 . S
N4146 H4158 0.984 . S
N4146 H4159 0.985 . S
N4147 C4149 1.356 . S
N4147 H4152 0.984 . S
N4147 H4153 0.985 . S
C4148 C4142 1.379 . S
C4148 C4145 1.363 . S
C4148 N4146 1.356 . S
C4149 C4143 1.363 . S
C4149 C4144 1.379 . S
C4149 N4147 1.356 . S
N4150 C4142 1.356 . S
N4150 H4156 0.984 . S
N4150 H4157 0.984 . S
N4151 C4144 1.356 . S
N4151 H4154 0.984 . S
N4151 H4155 0.985 . S
H4152 N4147 0.984 . S
H4153 N4147 0.985 . S
H4154 N4151 0.984 . S
H4155 N4151 0.985 . S
H4156 N4150 0.984 . S
H4157 N4150 0.984 . S
H4158 N4146 0.984 . S
H4159 N4146 0.985 . S
C2435 C1325 1.539 . S
C2433 C21 1.528 . S
C2453 C1373 1.445 . S
C2451 C42 1.448 . S
C2469 C82 1.509 . S
C2471 C1397 1.525 . S
C2489 C1460 1.497 . S
C2487 C135 1.499 . S
C2505 C175 1.442 . S
C2507 C1454 1.443 . S
C2523 C221 1.524 . S
C2525 C1301 1.536 . S
C2541 C255 1.490 . S
C2543 C1349 1.484 . S
C2561 C1421 1.548 . S
C2559 C301 1.547 . S
C2579 C1493 1.515 . S
C2577 C15 1.517 . S
C2595 C55 1.452 . S
C2597 C1541 1.449 . S
C2613 C101 1.531 . S
C2615 C1604 1.545 . S
C2633 C1661 1.502 . S
C2631 C141 1.501 . S
C2649 C162 1.449 . S
C2651 C1685 1.468 . S
C2669 C1742 1.513 . S
C2667 C215 1.515 . S
C2685 C261 1.502 . S
C2687 C1790 1.504 . S
C2705 C1844 1.520 . S
C2703 C282 1.512 . S
C2721 C2 1.509 . S
C2723 C1637 1.528 . S
C2739 C181 1.434 . S
C2741 C1748 1.453 . S
C2759 C1796 1.539 . S
C2757 C202 1.523 . S
C2775 C242 1.502 . S
C2777 C1838 1.505 . S
C2795 C1709 1.504 . S
C2793 C295 1.512 . S
C2813 C1565 1.514 . S
C2811 C95 1.518 . S
C2829 C122 1.494 . S
C2831 C1598 1.497 . S
C2849 C1517 1.463 . S
C2847 C61 1.462 . S
C2867 C1892 1.541 . S
C2865 C341 1.527 . S
C2883 C362 1.447 . S
C2885 C1949 1.444 . S
C2901 C402 1.511 . S
C2903 C1973 1.527 . S
C2921 C2036 1.496 . S
C2919 C455 1.499 . S
C2937 C495 1.442 . S
C2939 C2030 1.443 . S
C2955 C541 1.522 . S
C2957 C1886 1.531 . S
C2973 C575 1.490 . S
C2975 C1925 1.485 . S
C2991 C621 1.547 . S
C2993 C1997 1.547 . S
C3011 C1694 1.512 . S
C3009 C335 1.516 . S
C3027 C375 1.453 . S
C3029 C2078 1.449 . S
C3047 C1781 1.545 . S
C3045 C421 1.532 . S
C3063 C461 1.502 . S
C3065 C2132 1.504 . S
C3081 C482 1.448 . S
C3083 C1502 1.464 . S
C3101 C2174 1.512 . S
C3099 C535 1.515 . S
C3117 C581 1.501 . S
C3119 C1613 1.502 . S
C3137 C2228 1.521 . S
C3135 C602 1.513 . S
C3153 C322 1.508 . S
C3155 C2126 1.527 . S
C3173 C2180 1.452 . S
C3171 C501 1.433 . S
C3189 C522 1.522 . S
C3191 C1589 1.537 . S
C3209 C2222 1.504 . S
C3207 C562 1.502 . S
C3225 C615 1.514 . S
C3227 C1508 1.510 . S
C3243 C415 1.519 . S
C3245 C2084 1.517 . S
C3261 C442 1.495 . S
C3263 C1805 1.500 . S
C3279 C381 1.462 . S
C3281 C1700 1.462 . S
C3297 C661 1.528 . S
C3299 C1982 1.541 . S
C3317 C2045 1.445 . S
C3315 C682 1.448 . S
C3333 C722 1.508 . S
C3335 C1901 1.522 . S
C3351 C775 1.498 . S
C3353 C1940 1.496 . S
C3369 C815 1.442 . S
C3371 C1934 1.443 . S
C3387 C861 1.524 . S
C3389 C1988 1.538 . S
C3407 C2021 1.485 . S
C3405 C895 1.491 . S
C3423 C941 1.548 . S
C3425 C1877 1.554 . S
C3443 C2261 1.514 . S
C3441 C655 1.515 . S
C3459 C695 1.452 . S
C3461 C1733 1.449 . S
C3479 C2324 1.545 . S
C3477 C741 1.531 . S
C3495 C781 1.501 . S
C3497 C1853 1.501 . S
C3513 C802 1.449 . S
C3515 C2366 1.465 . S
C3531 C855 1.515 . S
C3533 C1550 1.513 . S
C3551 C2429 1.502 . S
C3549 C901 1.502 . S
C3567 C922 1.514 . S
C3569 C1652 1.521 . S
C3587 C1829 1.527 . S
C3585 C642 1.508 . S
C3605 C1556 1.452 . S
C3603 C821 1.433 . S
C3621 C842 1.523 . S
C3623 C2405 1.538 . S
C3639 C882 1.502 . S
C3641 C1646 1.505 . S
C3659 C2372 1.509 . S
C3657 C935 1.513 . S
C3677 C1757 1.514 . S
C3675 C735 1.518 . S
C3695 C2318 1.497 . S
C3693 C762 1.494 . S
C3713 C2285 1.463 . S
C3711 C701 1.462 . S
C3729 C981 1.528 . S
C3731 C1406 1.541 . S
C3747 C1002 1.449 . S
C3749 C1469 1.446 . S
C3767 C1316 1.525 . S
C3765 C1042 1.508 . S
C3785 C1364 1.496 . S
C3783 C1095 1.498 . S
C3803 C1358 1.442 . S
C3801 C1135 1.441 . S
C3821 C1412 1.539 . S
C3819 C1181 1.524 . S
C3839 C1445 1.486 . S
C3837 C1215 1.491 . S
C3855 C1261 1.547 . S
C3857 C1310 1.552 . S
C3873 C975 1.517 . S
C3875 C2357 1.515 . S
C3893 C2165 1.450 . S
C3891 C1015 1.453 . S
C3911 C2420 1.546 . S
C3909 C1061 1.531 . S
C3929 C2237 1.501 . S
C3927 C1101 1.500 . S
C3945 C1122 1.448 . S
C3947 C2270 1.464 . S
C3965 C2069 1.515 . S
C3963 C1175 1.517 . S
C3983 C2333 1.502 . S
C3981 C1221 1.502 . S
C3999 C1242 1.512 . S
C4001 C2141 1.518 . S
C4019 C2213 1.528 . S
C4017 C962 1.509 . S
C4037 C2093 1.452 . S
C4035 C1141 1.432 . S
C4055 C2309 1.539 . S
C4053 C1162 1.523 . S
C4071 C1202 1.503 . S
C4073 C2117 1.508 . S
C4089 C1255 1.512 . S
C4091 C2276 1.508 . S
C4107 C1055 1.517 . S
C4109 C2189 1.513 . S
C4125 C1082 1.494 . S
C4127 C2414 1.496 . S
C4145 C2381 1.463 . S
C4143 C1021 1.462 . S
