# Generated by pormake.
# Topology nom, (4,4)-cn, num edge types: 1
# Building blocks:
#     Node 0, Type 0, BuildingBlock: GIZVER_clean_linker_0, # of connection points: 4
#     Node 1, Type 0, BuildingBlock: GIZVER_clean_linker_0, # of connection points: 4
#     Node 2, Type 0, BuildingBlock: GIZVER_clean_linker_0, # of connection points: 4
#     Node 3, Type 0, BuildingBlock: GIZVER_clean_linker_0, # of connection points: 4
#     Node 4, Type 0, BuildingBlock: GIZVER_clean_linker_0, # of connection points: 4
#     Node 5, Type 0, BuildingBlock: GIZVER_clean_linker_0, # of connection points: 4
#     Node 6, Type 1, BuildingBlock: AZAVOO_clean_sbu_0, # of connection points: 4
#     Node 7, Type 1, BuildingBlock: AZAVOO_clean_sbu_0, # of connection points: 4
#     Node 8, Type 1, BuildingBlock: AZAVOO_clean_sbu_0, # of connection points: 4
#     Node 9, Type 1, BuildingBlock: AZAVOO_clean_sbu_0, # of connection points: 4
#     Node 10, Type 1, BuildingBlock: AZAVOO_clean_sbu_0, # of connection points: 4
#     Node 11, Type 1, BuildingBlock: AZAVOO_clean_sbu_0, # of connection points: 4
#     Edge 12, Type (0, 1), BuildingBlock: AJUNOK_clean_linker_0, # of connection points: 2
#     Edge 13, Type (0, 1), BuildingBlock: AJUNOK_clean_linker_0, # of connection points: 2
#     Edge 14, Type (0, 1), BuildingBlock: AJUNOK_clean_linker_0, # of connection points: 2
#     Edge 15, Type (0, 1), BuildingBlock: AJUNOK_clean_linker_0, # of connection points: 2
#     Edge 16, Type (0, 1), BuildingBlock: AJUNOK_clean_linker_0, # of connection points: 2
#     Edge 17, Type (0, 1), BuildingBlock: AJUNOK_clean_linker_0, # of connection points: 2
#     Edge 18, Type (0, 1), BuildingBlock: AJUNOK_clean_linker_0, # of connection points: 2
#     Edge 19, Type (0, 1), BuildingBlock: AJUNOK_clean_linker_0, # of connection points: 2
#     Edge 20, Type (0, 1), BuildingBlock: AJUNOK_clean_linker_0, # of connection points: 2
#     Edge 21, Type (0, 1), BuildingBlock: AJUNOK_clean_linker_0, # of connection points: 2
#     Edge 22, Type (0, 1), BuildingBlock: AJUNOK_clean_linker_0, # of connection points: 2
#     Edge 23, Type (0, 1), BuildingBlock: AJUNOK_clean_linker_0, # of connection points: 2
#     Edge 24, Type (0, 1), BuildingBlock: AJUNOK_clean_linker_0, # of connection points: 2
#     Edge 25, Type (0, 1), BuildingBlock: AJUNOK_clean_linker_0, # of connection points: 2
#     Edge 26, Type (0, 1), BuildingBlock: AJUNOK_clean_linker_0, # of connection points: 2
#     Edge 27, Type (0, 1), BuildingBlock: AJUNOK_clean_linker_0, # of connection points: 2
#     Edge 28, Type (0, 1), BuildingBlock: AJUNOK_clean_linker_0, # of connection points: 2
#     Edge 29, Type (0, 1), BuildingBlock: AJUNOK_clean_linker_0, # of connection points: 2
#     Edge 30, Type (0, 1), BuildingBlock: AJUNOK_clean_linker_0, # of connection points: 2
#     Edge 31, Type (0, 1), BuildingBlock: AJUNOK_clean_linker_0, # of connection points: 2
#     Edge 32, Type (0, 1), BuildingBlock: AJUNOK_clean_linker_0, # of connection points: 2
#     Edge 33, Type (0, 1), BuildingBlock: AJUNOK_clean_linker_0, # of connection points: 2
#     Edge 34, Type (0, 1), BuildingBlock: AJUNOK_clean_linker_0, # of connection points: 2
#     Edge 35, Type (0, 1), BuildingBlock: AJUNOK_clean_linker_0, # of connection points: 2
# Relax obj value: 0.032
# Max RMSD: 0.163
# Mean RMSD: 0.107
data_MOF--net-nom--node1-AZAVOO_clean_sbu_0--node2-GIZVER_clean_linker_0--edge1-AJUNOK_clean_linker_0
_symmetry_space_group_name_H-M    P1
_symmetry_Int_Tables_number       1
_symmetry_cell_setting            triclinic
loop_
_symmetry_equiv_pos_as_xyz
'x, y, z'
_cell_length_a     35.043183
_cell_length_b     35.184904
_cell_length_c     33.430654
_cell_angle_alpha  92.003186
_cell_angle_beta   91.756528
_cell_angle_gamma 120.22749
loop_
_atom_site_label
_atom_site_type_symbol
_atom_site_fract_x
_atom_site_fract_y
_atom_site_fract_z
_atom_type_partial_charge
H0 H 0.92035 0.51736 0.37644 0.0
H1 H 0.97253 0.5446 0.25907 0.0
H2 H 0.8382 0.4444 0.27158 0.0
H3 H 0.98905 0.58161 0.36966 0.0
H4 H 0.99703 0.60328 0.32153 0.0
H5 H 0.0353 0.5545 0.39604 0.0
H6 H 0.15183 0.58491 0.33363 0.0
H7 H 0.04822 0.59746 0.27556 0.0
C8 C 0.91668 0.50921 0.34447 0.0
C9 C 0.87511 0.47698 0.32717 0.0
C10 C 0.95243 0.53361 0.32021 0.0
C11 C 0.94646 0.52442 0.27841 0.0
C12 C 0.90542 0.49173 0.26117 0.0
C13 C 0.87045 0.46773 0.28563 0.0
C14 C 0.99324 0.57466 0.33787 0.0
C15 C 0.03521 0.57273 0.33498 0.0
C16 C 0.05298 0.56286 0.36871 0.0
C17 C 0.0955 0.56824 0.36858 0.0
C18 C 0.11872 0.58013 0.33356 0.0
C19 C 0.10194 0.59079 0.30004 0.0
C20 C 0.06013 0.58697 0.30073 0.0
H21 H 0.41802 0.93993 0.53509 0.0
H22 H 0.43225 0.97892 0.41324 0.0
H23 H 0.39234 0.84545 0.43775 0.0
H24 H 0.41959 0.00633 0.52062 0.0
H25 H 0.40946 0.01448 0.47019 0.0
H26 H 0.49482 0.04292 0.55129 0.0
H27 H 0.58978 0.15794 0.4943 0.0
H28 H 0.46947 0.0629 0.42921 0.0
C29 C 0.41734 0.93201 0.50338 0.0
C30 C 0.40415 0.88858 0.48986 0.0
C31 C 0.42731 0.96483 0.47593 0.0
C32 C 0.42599 0.95433 0.43472 0.0
C33 C 0.4135 0.91126 0.42103 0.0
C34 C 0.40315 0.87892 0.44869 0.0
C35 C 0.43161 0.00819 0.48992 0.0
C36 C 0.47827 0.04673 0.48932 0.0
C37 C 0.50606 0.06122 0.52454 0.0
C38 C 0.54602 0.1017 0.52659 0.0
C39 C 0.55951 0.12613 0.49239 0.0
C40 C 0.53191 0.11272 0.45742 0.0
C41 C 0.49166 0.07254 0.45571 0.0
H42 H 0.40829 0.45333 0.58026 0.0
H43 H 0.48595 0.48107 0.69099 0.0
H44 H 0.4391 0.56737 0.65607 0.0
H45 H 0.4183 0.39695 0.60646 0.0
H46 H 0.43212 0.40166 0.65889 0.0
H47 H 0.48337 0.43691 0.55954 0.0
H48 H 0.59288 0.41992 0.59265 0.0
H49 H 0.49711 0.40153 0.67881 0.0
C50 C 0.42516 0.4748 0.6067 0.0
C51 C 0.4218 0.51254 0.61421 0.0
C52 C 0.4478 0.46304 0.63457 0.0
C53 C 0.46927 0.49059 0.66916 0.0
C54 C 0.4669 0.52882 0.67671 0.0
C55 C 0.44361 0.53964 0.64885 0.0
C56 C 0.44371 0.41829 0.63039 0.0
C57 C 0.48706 0.42169 0.62106 0.0
C58 C 0.50227 0.43106 0.58228 0.0
C59 C 0.54057 0.43069 0.57224 0.0
C60 C 0.56401 0.42144 0.60109 0.0
C61 C 0.54841 0.41033 0.63954 0.0
C62 C 0.51029 0.41137 0.64964 0.0
H63 H 0.97 0.42517 0.78012 0.0
H64 H 0.00404 0.51153 0.88579 0.0
H65 H 0.87299 0.45034 0.83043 0.0
H66 H 0.03418 0.4423 0.82085 0.0
H67 H 0.03766 0.46303 0.87126 0.0
H68 H 0.04807 0.51337 0.77082 0.0
H69 H 0.18698 0.60302 0.79312 0.0
H70 H 0.11208 0.51676 0.88391 0.0
C71 C 0.9612 0.44277 0.80169 0.0
C72 C 0.91789 0.43551 0.80056 0.0
C73 C 0.99227 0.46998 0.83258 0.0
C74 C 0.98072 0.49211 0.86104 0.0
C75 C 0.93793 0.48588 0.85992 0.0
C76 C 0.90707 0.45814 0.82928 0.0
C77 C 0.03476 0.46955 0.83929 0.0
C78 C 0.07492 0.5121 0.82944 0.0
C79 C 0.07705 0.52854 0.79138 0.0
C80 C 0.11728 0.56215 0.7786 0.0
C81 C 0.15535 0.57963 0.80437 0.0
C82 C 0.15426 0.56303 0.8421 0.0
C83 C 0.11342 0.53028 0.85502 0.0
H84 H 0.62335 0.1108 0.05021 0.0
H85 H 0.56161 0.04264 0.93629 0.0
H86 H 0.60001 0.17858 0.957 0.0
H87 H 0.60388 0.03568 0.04015 0.0
H88 H 0.61571 0.02782 -0.01002 0.0
H89 H 0.52024 0.00984 0.05149 0.0
H90 H 0.43397 0.8808 -0.00465 0.0
H91 H 0.56425 0.96064 0.95425 0.0
C92 C 0.60907 0.11013 0.02079 0.0
C93 C 0.61159 0.14869 0.00737 0.0
C94 C 0.59025 0.07143 -0.00451 0.0
C95 C 0.57442 0.07175 0.95643 0.0
C96 C 0.57749 0.11023 0.94252 0.0
C97 C 0.59505 0.14805 0.9685 0.0
C98 C 0.59162 0.03142 0.00828 0.0
C99 C 0.5467 0.99031 0.00275 0.0
C100 C 0.51338 0.98454 0.0283 0.0
C101 C 0.47235 0.94527 0.02571 0.0
C102 C 0.46446 0.91233 -0.00381 0.0
C103 C 0.49731 0.91756 0.97042 0.0
C104 C 0.53846 0.95673 0.97368 0.0
H105 H 0.61158 0.58071 0.11942 0.0
H106 H 0.51971 0.53574 0.2134 0.0
H107 H 0.56573 0.45272 0.16338 0.0
H108 H 0.5977 0.63212 0.15531 0.0
H109 H 0.57392 0.61733 0.2029 0.0
H110 H 0.5352 0.58812 0.09306 0.0
H111 H 0.43409 0.62149 0.10544 0.0
H112 H 0.51428 0.62939 0.20912 0.0
C113 C 0.59005 0.55484 0.13832 0.0
C114 C 0.59062 0.51526 0.13773 0.0
C115 C 0.56411 0.56222 0.16543 0.0
C116 C 0.53823 0.52936 0.19145 0.0
C117 C 0.53893 0.4898 0.19117 0.0
C118 C 0.56389 0.48258 0.16314 0.0
C119 C 0.56842 0.60702 0.1704 0.0
C120 C 0.52793 0.60677 0.1534 0.0
C121 C 0.51639 0.59737 0.11218 0.0
C122 C 0.48167 0.60139 0.09531 0.0
C123 C 0.45898 0.61581 0.11945 0.0
C124 C 0.47103 0.62701 0.16046 0.0
C125 C 0.50472 0.62102 0.1775 0.0
Mg126 Mg 0.59172 0.35306 0.33965 0.0
O127 O 0.58263 0.38385 0.39753 0.0
O128 O 0.61456 0.4568 0.3923 0.0
Mg129 Mg 0.64122 0.47223 0.32996 0.0
C130 C 0.59336 0.42233 0.41185 0.0
C131 C 0.58642 0.26357 0.36159 0.0
O132 O 0.61809 0.27569 0.33644 0.0
O133 O 0.66555 0.38128 0.35774 0.0
O134 O 0.69189 0.45262 0.34835 0.0
O135 O 0.52767 0.34375 0.31305 0.0
O136 O 0.59301 0.40395 0.30947 0.0
C137 C 0.69767 0.42104 0.35807 0.0
C138 C 0.55074 0.38403 0.30295 0.0
O139 O 0.57106 0.28874 0.36942 0.0
Mg140 Mg 0.26392 0.63122 0.59022 0.0
O141 O 0.21878 0.60594 0.53312 0.0
O142 O 0.16933 0.53475 0.53746 0.0
Mg143 Mg 0.18284 0.5146 0.59815 0.0
C144 C 0.18567 0.56999 0.51853 0.0
C145 C 0.31793 0.73022 0.57865 0.0
O146 O 0.29904 0.72812 0.61246 0.0
O147 O 0.30102 0.59608 0.57081 0.0
O148 O 0.25076 0.52654 0.58116 0.0
O149 O 0.2174 0.64804 0.61892 0.0
O150 O 0.21313 0.58352 0.6226 0.0
C151 C 0.28942 0.55538 0.57168 0.0
C152 C 0.19711 0.60853 0.63128 0.0
O153 O 0.31163 0.69467 0.56109 0.0
Mg154 Mg 0.64738 0.25542 0.75575 0.0
O155 O 0.62995 0.2129 0.69796 0.0
O156 O 0.65492 0.16613 0.70177 0.0
Mg157 Mg 0.68776 0.17873 0.76512 0.0
C158 C 0.63472 0.18206 0.6825 0.0
C159 C 0.61954 0.32634 0.74034 0.0
O160 O 0.61966 0.32853 0.77965 0.0
O161 O 0.71998 0.29586 0.74164 0.0
O162 O 0.74342 0.24886 0.75352 0.0
O163 O 0.58404 0.20625 0.78024 0.0
O164 O 0.64644 0.20534 0.78818 0.0
C165 C 0.75114 0.28717 0.74513 0.0
C166 C 0.60484 0.1874 0.79424 0.0
O167 O 0.63049 0.3008 0.72299 0.0
Mg168 Mg 0.43565 0.66185 0.85706 0.0
O169 O 0.44881 0.63461 0.91381 0.0
O170 O 0.41248 0.561 0.90581 0.0
Mg171 Mg 0.38031 0.54135 0.84235 0.0
C172 C 0.43688 0.59675 0.92691 0.0
C173 C 0.44812 0.75492 0.87806 0.0
O174 O 0.41892 0.74173 0.84756 0.0
O175 O 0.3643 0.63768 0.87457 0.0
O176 O 0.33342 0.5653 0.86063 0.0
O177 O 0.49482 0.66599 0.82819 0.0
O178 O 0.42795 0.60729 0.82372 0.0
C179 C 0.3306 0.59872 0.8722 0.0
C180 C 0.46881 0.62542 0.81539 0.0
O181 O 0.4612 0.72916 0.88975 0.0
Mg182 Mg 0.76375 0.4328 0.02685 0.0
O183 O 0.81112 0.45158 0.08226 0.0
O184 O 0.85742 0.42638 0.07286 0.0
Mg185 Mg 0.84056 0.39239 0.01002 0.0
C186 C 0.84329 0.44683 0.09447 0.0
C187 C 0.7038 0.47277 0.04606 0.0
O188 O 0.71029 0.48227 0.00831 0.0
O189 O 0.72555 0.36079 0.0442 0.0
O190 O 0.77326 0.33848 0.02964 0.0
O191 O 0.81118 0.49479 -0.00204 0.0
O192 O 0.81087 0.43179 -0.00771 0.0
C193 C 0.7357 0.33062 0.04133 0.0
C194 C 0.82892 0.47262 0.98457 0.0
O195 O 0.7203 0.45146 0.06176 0.0
Mg196 Mg 0.33682 0.77458 0.18076 0.0
O197 O 0.3633 0.81743 0.23939 0.0
O198 O 0.43568 0.86432 0.23672 0.0
Mg199 Mg 0.45591 0.8518 0.17554 0.0
C200 C 0.39993 0.84861 0.25517 0.0
C201 C 0.24737 0.68901 0.19985 0.0
O202 O 0.25954 0.6698 0.17283 0.0
O203 O 0.36861 0.73391 0.19934 0.0
O204 O 0.43983 0.78296 0.19201 0.0
O205 O 0.32514 0.8252 0.15223 0.0
O206 O 0.38751 0.82381 0.15164 0.0
C207 C 0.40936 0.74456 0.20017 0.0
C208 C 0.36593 0.84323 0.14274 0.0
O209 O 0.2724 0.72978 0.20938 0.0
C210 C 0.15171 0.59322 0.24703 0.0
C211 C 0.13243 0.61382 0.26831 0.0
C212 C 0.18762 0.61738 0.22326 0.0
C213 C 0.20608 0.66315 0.22083 0.0
H214 H 0.14006 0.55856 0.25011 0.0
H215 H 0.20233 0.60045 0.20835 0.0
S216 S 0.16579 0.73191 0.26949 0.0
N217 N 0.13272 0.68182 0.28409 0.0
N218 N 0.20039 0.7275 0.23988 0.0
C219 C 0.18583 0.68371 0.24079 0.0
C220 C 0.14893 0.65896 0.26442 0.0
C221 C 0.5829 0.16552 0.40936 0.0
C222 C 0.54173 0.14543 0.42686 0.0
C223 C 0.59641 0.20268 0.38678 0.0
C224 C 0.56961 0.22163 0.38176 0.0
H225 H 0.60545 0.15334 0.41441 0.0
H226 H 0.62889 0.2178 0.37476 0.0
S227 S 0.45776 0.17986 0.41994 0.0
N228 N 0.47347 0.14581 0.43621 0.0
N229 N 0.49876 0.21568 0.39414 0.0
C230 C 0.52765 0.20077 0.39791 0.0
C231 C 0.51372 0.16264 0.42035 0.0
C232 C 0.4013 0.564 0.58273 0.0
C233 C 0.3899 0.52057 0.5907 0.0
C234 C 0.36882 0.57464 0.57237 0.0
C235 C 0.32363 0.54217 0.56944 0.0
H236 H 0.43529 0.59054 0.58748 0.0
H237 H 0.37908 0.60905 0.56985 0.0
S238 S 0.27735 0.42194 0.57808 0.0
N239 N 0.33086 0.44392 0.58876 0.0
N240 N 0.27021 0.46348 0.56757 0.0
C241 C 0.31246 0.49786 0.57226 0.0
C242 C 0.34548 0.48713 0.5833 0.0
C243 C 0.8476 0.40421 0.75751 0.0
C244 C 0.88128 0.39864 0.77526 0.0
C245 C 0.80671 0.36787 0.74397 0.0
C246 C 0.79785 0.3244 0.74757 0.0
H247 H 0.85175 0.43684 0.75667 0.0
H248 H 0.7809 0.374 0.73332 0.0
S249 S 0.87816 0.29224 0.7846 0.0
N250 N 0.9051 0.34646 0.79074 0.0
N251 N 0.82918 0.27839 0.76398 0.0
C252 C 0.83311 0.31864 0.76093 0.0
C253 C 0.87458 0.35568 0.77513 0.0
C254 C 0.45221 0.86007 0.91603 0.0
C255 C 0.48918 0.87961 0.94339 0.0
C256 C 0.44004 0.82049 0.89419 0.0
C257 C 0.46389 0.79844 0.89948 0.0
H258 H 0.43194 0.87505 0.91218 0.0
H259 H 0.41083 0.80639 0.87399 0.0
S260 S 0.56426 0.83692 0.96698 0.0
N261 N 0.55034 0.87497 0.97392 0.0
N262 N 0.52745 0.80034 0.93328 0.0
C263 C 0.50163 0.81829 0.92616 0.0
C264 C 0.5143 0.85894 0.94798 0.0
C265 C 0.62241 0.51013 0.07281 0.0
C266 C 0.62285 0.5092 0.11476 0.0
C267 C 0.64932 0.49907 0.05076 0.0
C268 C 0.67742 0.48659 0.06998 0.0
H269 H 0.60008 0.51799 0.05691 0.0
H270 H 0.64717 0.49917 0.01838 0.0
S271 S 0.69445 0.48464 0.17994 0.0
N272 N 0.65658 0.49915 0.17502 0.0
N273 N 0.70661 0.47789 0.13389 0.0
C274 C 0.6794 0.48746 0.11213 0.0
C275 C 0.65231 0.49894 0.13443 0.0
C276 C 0.39758 0.81841 0.51275 0.0
C277 C 0.38658 0.85168 0.51731 0.0
C278 C 0.37591 0.77958 0.53328 0.0
C279 C 0.34295 0.77284 0.55974 0.0
H280 H 0.4223 0.82184 0.4922 0.0
H281 H 0.38465 0.75443 0.52798 0.0
S282 S 0.30202 0.84964 0.58289 0.0
N283 N 0.34022 0.87496 0.55038 0.0
N284 N 0.30093 0.80297 0.59019 0.0
C285 C 0.33283 0.8065 0.56587 0.0
C286 C 0.35434 0.84571 0.54445 0.0
C287 C 0.57636 0.35868 0.65038 0.0
C288 C 0.56819 0.39127 0.66636 0.0
C289 C 0.59367 0.33874 0.67447 0.0
C290 C 0.60322 0.35012 0.7158 0.0
H291 H 0.56846 0.34773 0.61897 0.0
H292 H 0.59874 0.31349 0.66051 0.0
S293 S 0.58946 0.43489 0.77223 0.0
N294 N 0.57232 0.43528 0.72575 0.0
N295 N 0.60428 0.39713 0.77159 0.0
C296 C 0.59554 0.38294 0.73228 0.0
C297 C 0.57807 0.40356 0.70748 0.0
C298 C 0.23339 0.61722 0.86391 0.0
C299 C 0.19709 0.5738 0.86292 0.0
C300 C 0.2769 0.62608 0.87092 0.0
C301 C 0.28563 0.59182 0.87738 0.0
H302 H 0.22838 0.64408 0.8561 0.0
H303 H 0.30384 0.65938 0.86795 0.0
S304 S 0.20203 0.47404 0.88714 0.0
N305 N 0.17279 0.49728 0.87518 0.0
N306 N 0.25408 0.51428 0.89019 0.0
C307 C 0.2494 0.54925 0.88152 0.0
C308 C 0.20521 0.54013 0.8739 0.0
C309 C 0.68397 0.20685 0.03897 0.0
C310 C 0.63917 0.19211 0.02952 0.0
C311 C 0.71454 0.25177 0.04682 0.0
C312 C 0.70149 0.28368 0.04548 0.0
H313 H 0.69628 0.18416 0.03665 0.0
H314 H 0.74919 0.26175 0.05098 0.0
S315 S 0.586 0.26034 0.03125 0.0
N316 N 0.58179 0.21149 0.02622 0.0
N317 N 0.63912 0.29607 0.04089 0.0
C318 C 0.65591 0.26867 0.04084 0.0
C319 C 0.6248 0.22284 0.03278 0.0
C320 C 0.40791 0.63815 0.17759 0.0
C321 C 0.45312 0.65152 0.18273 0.0
C322 C 0.39249 0.66694 0.18774 0.0
C323 C 0.42184 0.7102 0.20326 0.0
H324 H 0.38486 0.60636 0.16284 0.0
H325 H 0.35825 0.65654 0.17994 0.0
S326 S 0.54143 0.75821 0.2304 0.0
N327 N 0.52567 0.70878 0.20997 0.0
N328 N 0.49647 0.76218 0.23004 0.0
C329 C 0.46596 0.72201 0.213 0.0
C330 C 0.4817 0.69286 0.2025 0.0
C331 C 0.80047 0.41487 0.34248 0.0
C332 C 0.83396 0.45937 0.34946 0.0
C333 C 0.75618 0.40095 0.34974 0.0
C334 C 0.74402 0.43116 0.36415 0.0
H335 H 0.80792 0.39159 0.32784 0.0
H336 H 0.73105 0.3675 0.3403 0.0
S337 S 0.82023 0.54859 0.39637 0.0
N338 N 0.85264 0.53156 0.37812 0.0
N339 N 0.76984 0.50518 0.39267 0.0
C340 C 0.77789 0.47418 0.37622 0.0
C341 C 0.82284 0.48836 0.36873 0.0
C342 C 0.10102 0.53201 0.43007 0.0
C343 C 0.11886 0.56861 0.40639 0.0
C344 C 0.1233 0.53239 0.46584 0.0
C345 C 0.16401 0.56964 0.47944 0.0
H346 H 0.0698 0.50283 0.42075 0.0
H347 H 0.10811 0.50339 0.48315 0.0
S348 S 0.22344 0.67473 0.42837 0.0
N349 N 0.17858 0.64353 0.39919 0.0
N350 N 0.22071 0.6444 0.46593 0.0
C351 C 0.18197 0.60658 0.45584 0.0
C352 C 0.15932 0.60604 0.4195 0.0
C353 C 0.58544 0.10164 0.59073 0.0
C354 C 0.56964 0.12262 0.56581 0.0
C355 C 0.60756 0.12157 0.62799 0.0
C356 C 0.61409 0.16291 0.64182 0.0
H357 H 0.58076 0.06973 0.5813 0.0
H358 H 0.61884 0.10402 0.64637 0.0
S359 S 0.57757 0.23063 0.58759 0.0
N360 N 0.56094 0.18627 0.55759 0.0
N361 N 0.60271 0.22396 0.62695 0.0
C362 C 0.59832 0.1841 0.61687 0.0
C363 C 0.57601 0.16388 0.5791 0.0
C364 C 0.503 0.60032 0.71769 0.0
C365 C 0.48136 0.55395 0.71622 0.0
C366 C 0.50376 0.62438 0.75235 0.0
C367 C 0.48277 0.60277 0.78651 0.0
H368 H 0.51604 0.61777 0.69082 0.0
H369 H 0.51687 0.6595 0.75093 0.0
S370 S 0.43188 0.48349 0.80161 0.0
N371 N 0.44547 0.48833 0.75443 0.0
N372 N 0.44845 0.53397 0.81981 0.0
C373 C 0.46632 0.55728 0.78716 0.0
C374 C 0.46532 0.53269 0.7519 0.0
C375 C 0.92653 0.48346 0.93287 0.0
C376 C 0.92153 0.4982 0.89556 0.0
C377 C 0.89932 0.47998 0.9639 0.0
C378 C 0.86656 0.49145 0.95874 0.0
H379 H 0.94841 0.47034 0.93689 0.0
H380 H 0.9017 0.46509 -0.00904 0.0
S381 S 0.84682 0.54082 0.87016 0.0
N382 N 0.88666 0.53136 0.85762 0.0
N383 N 0.83532 0.52477 0.91631 0.0
C384 C 0.86495 0.51136 0.92359 0.0
C385 C 0.8925 0.51466 0.8918 0.0
C386 C 0.45901 0.93852 0.09828 0.0
C387 C 0.44174 0.93391 0.05871 0.0
C388 C 0.43202 0.91309 0.12801 0.0
C389 C 0.38711 0.88235 0.11909 0.0
H390 H 0.49431 0.95787 0.10539 0.0
H391 H 0.44733 0.91436 0.15703 0.0
S392 S 0.32361 0.8678 0.02366 0.0
N393 N 0.37519 0.90445 0.01482 0.0
N394 N 0.32454 0.85569 0.07087 0.0
C395 C 0.36813 0.88256 0.08164 0.0
C396 C 0.39558 0.90861 0.05128 0.0
C397 C 0.50357 0.41428 0.21664 0.0
C398 C 0.52312 0.46011 0.22483 0.0
C399 C 0.50751 0.38762 0.24475 0.0
C400 C 0.53057 0.40608 0.28185 0.0
H401 H 0.48996 0.40001 0.18673 0.0
H402 H 0.49696 0.35375 0.23563 0.0
S403 S 0.57391 0.52033 0.32293 0.0
N404 N 0.55695 0.52021 0.27628 0.0
N405 N 0.56223 0.46936 0.32944 0.0
C406 C 0.5433 0.44984 0.29282 0.0
C407 C 0.5398 0.47713 0.26421 0.0
C408 C 0.44442 0.91821 0.3535 0.0
C409 C 0.40814 0.89844 0.37771 0.0
C410 C 0.44118 0.90245 0.31368 0.0
C411 C 0.40143 0.8665 0.29656 0.0
H412 H 0.47592 0.94496 0.36586 0.0
H413 H 0.47042 0.91813 0.29651 0.0
S414 S 0.29554 0.80646 0.34716 0.0
N415 N 0.33052 0.84356 0.38153 0.0
N416 N 0.32404 0.81375 0.30689 0.0
C417 C 0.36433 0.84779 0.32026 0.0
C418 C 0.3678 0.8638 0.36076 0.0
C419 C 0.52545 0.39643 0.50329 0.0
C420 C 0.55241 0.4324 0.53025 0.0
C421 C 0.53899 0.39352 0.46493 0.0
C422 C 0.5796 0.42688 0.4521 0.0
H423 H 0.49446 0.36958 0.5125 0.0
H424 H 0.51758 0.36487 0.44523 0.0
S425 S 0.66148 0.52831 0.51155 0.0
N426 N 0.62105 0.50202 0.54195 0.0
N427 N 0.6462 0.49747 0.4692 0.0
C428 C 0.60626 0.46368 0.47849 0.0
C429 C 0.59276 0.46617 0.51782 0.0
C430 C 0.14845 0.61764 0.72682 0.0
C431 C 0.12302 0.57326 0.73607 0.0
C432 C 0.16837 0.62901 0.6901 0.0
C433 C 0.16375 0.59631 0.66168 0.0
H434 H 0.15631 0.64366 0.74951 0.0
H435 H 0.19105 0.66352 0.68583 0.0
S436 S 0.09078 0.47572 0.66708 0.0
N437 N 0.0874 0.49667 0.71088 0.0
N438 N 0.12389 0.51829 0.64146 0.0
C439 C 0.13355 0.55211 0.66837 0.0
C440 C 0.11328 0.54047 0.70575 0.0
C441 C 0.54908 0.13747 0.88785 0.0
C442 C 0.5708 0.11479 0.89936 0.0
C443 C 0.5559 0.15658 0.85077 0.0
C444 C 0.58492 0.15385 0.82423 0.0
H445 H 0.53001 0.14394 0.90911 0.0
H446 H 0.54202 0.17738 0.84487 0.0
S447 S 0.63961 0.08775 0.83549 0.0
N448 N 0.61535 0.08334 0.87801 0.0
N449 N 0.62699 0.1183 0.80791 0.0
C450 C 0.60162 0.12605 0.83299 0.0
C451 C 0.59478 0.10664 0.87074 0.0
C452 C 0.50139 0.62913 0.02731 0.0
C453 C 0.47231 0.59616 0.05161 0.0
C454 C 0.49016 0.62848 0.98661 0.0
C455 C 0.44982 0.59443 0.96882 0.0
H456 H 0.53216 0.6565 0.04025 0.0
H457 H 0.51289 0.6552 0.9691 0.0
S458 S 0.36323 0.49968 0.02001 0.0
N459 N 0.40228 0.5284 0.05554 0.0
N460 N 0.38133 0.52623 0.97871 0.0
C461 C 0.42124 0.56038 -0.00731 0.0
C462 C 0.43242 0.56154 0.03425 0.0
C463 C 0.9093 0.46347 0.19268 0.0
C464 C 0.89571 0.48689 0.21746 0.0
C465 C 0.89348 0.45207 0.15243 0.0
C466 C 0.86338 0.46357 0.13575 0.0
H467 H 0.93069 0.45229 0.20492 0.0
H468 H 0.90371 0.43269 0.13477 0.0
S469 S 0.82182 0.5293 0.18837 0.0
N470 N 0.85365 0.52422 0.22262 0.0
N471 N 0.82388 0.50327 0.14718 0.0
C472 C 0.85149 0.48907 0.16012 0.0
C473 C 0.86766 0.50058 0.20093 0.0
loop_
_geom_bond_atom_site_label_1
_geom_bond_atom_site_label_2
_geom_bond_distance
_geom_bond_site_symmetry_2
_ccdc_geom_bond_type
H0 C8 0.930 . S
H1 C11 0.930 . S
H2 C13 0.930 . S
H3 C14 0.970 1_655 S
H4 C14 0.970 . S
H5 C16 0.930 . S
H6 C18 0.930 . S
H7 C20 0.930 . S
C8 H0 0.930 . S
C8 C9 1.382 . S
C8 C10 1.426 . S
C9 C8 1.382 . S
C9 C13 1.389 . S
C10 C8 1.426 . S
C10 C11 1.375 . S
C10 C14 1.532 1_655 S
C11 H1 0.930 . S
C11 C10 1.375 . S
C11 C12 1.416 . S
C12 C11 1.416 . S
C12 C13 1.371 . S
C13 H2 0.930 . S
C13 C9 1.389 . S
C13 C12 1.371 . S
C14 H3 0.970 1_455 S
C14 H4 0.970 . S
C14 C10 1.532 1_455 S
C14 C15 1.499 . S
C15 C14 1.499 . S
C15 C16 1.370 . S
C15 C20 1.415 . S
C16 H5 0.930 . S
C16 C15 1.370 . S
C16 C17 1.407 . S
C17 C16 1.407 . S
C17 C18 1.365 . S
C18 H6 0.930 . S
C18 C17 1.365 . S
C18 C19 1.393 . S
C19 C18 1.393 . S
C19 C20 1.387 . S
C20 H7 0.930 . S
C20 C15 1.415 . S
C20 C19 1.387 . S
H21 C29 0.930 . S
H22 C32 0.930 . S
H23 C34 0.930 . S
H24 C35 0.970 . S
H25 C35 0.970 . S
H26 C37 0.930 . S
H27 C39 0.930 . S
H28 C41 0.930 . S
C29 H21 0.930 . S
C29 C30 1.382 . S
C29 C31 1.426 . S
C30 C29 1.382 . S
C30 C34 1.389 . S
C31 C29 1.426 . S
C31 C32 1.375 . S
C31 C35 1.532 1_565 S
C32 H22 0.930 . S
C32 C31 1.375 . S
C32 C33 1.416 . S
C33 C32 1.416 . S
C33 C34 1.371 . S
C34 H23 0.930 . S
C34 C30 1.389 . S
C34 C33 1.371 . S
C35 H24 0.970 . S
C35 H25 0.970 . S
C35 C31 1.532 1_545 S
C35 C36 1.499 . S
C36 C35 1.499 . S
C36 C37 1.370 . S
C36 C41 1.415 . S
C37 H26 0.930 . S
C37 C36 1.370 . S
C37 C38 1.407 . S
C38 C37 1.407 . S
C38 C39 1.365 . S
C39 H27 0.930 . S
C39 C38 1.365 . S
C39 C40 1.393 . S
C40 C39 1.393 . S
C40 C41 1.387 . S
C41 H28 0.930 . S
C41 C36 1.415 . S
C41 C40 1.387 . S
H42 C50 0.930 . S
H43 C53 0.930 . S
H44 C55 0.930 . S
H45 C56 0.970 . S
H46 C56 0.970 . S
H47 C58 0.930 . S
H48 C60 0.930 . S
H49 C62 0.930 . S
C50 H42 0.930 . S
C50 C51 1.382 . S
C50 C52 1.426 . S
C51 C50 1.382 . S
C51 C55 1.389 . S
C52 C50 1.426 . S
C52 C53 1.375 . S
C52 C56 1.532 . S
C53 H43 0.930 . S
C53 C52 1.375 . S
C53 C54 1.416 . S
C54 C53 1.416 . S
C54 C55 1.371 . S
C55 H44 0.930 . S
C55 C51 1.389 . S
C55 C54 1.371 . S
C56 H45 0.970 . S
C56 H46 0.970 . S
C56 C52 1.532 . S
C56 C57 1.499 . S
C57 C56 1.499 . S
C57 C58 1.370 . S
C57 C62 1.415 . S
C58 H47 0.930 . S
C58 C57 1.370 . S
C58 C59 1.407 . S
C59 C58 1.407 . S
C59 C60 1.365 . S
C60 H48 0.930 . S
C60 C59 1.365 . S
C60 C61 1.393 . S
C61 C60 1.393 . S
C61 C62 1.387 . S
C62 H49 0.930 . S
C62 C57 1.415 . S
C62 C61 1.387 . S
H63 C71 0.930 . S
H64 C74 0.930 . S
H65 C76 0.930 . S
H66 C77 0.970 . S
H67 C77 0.970 . S
H68 C79 0.930 . S
H69 C81 0.930 . S
H70 C83 0.930 . S
C71 H63 0.930 . S
C71 C72 1.382 . S
C71 C73 1.426 . S
C72 C71 1.382 . S
C72 C76 1.389 . S
C73 C71 1.426 . S
C73 C74 1.375 . S
C73 C77 1.532 1_655 S
C74 H64 0.930 . S
C74 C73 1.375 . S
C74 C75 1.416 . S
C75 C74 1.416 . S
C75 C76 1.371 . S
C76 H65 0.930 . S
C76 C72 1.389 . S
C76 C75 1.371 . S
C77 H66 0.970 . S
C77 H67 0.970 . S
C77 C73 1.532 1_455 S
C77 C78 1.499 . S
C78 C77 1.499 . S
C78 C79 1.370 . S
C78 C83 1.415 . S
C79 H68 0.930 . S
C79 C78 1.370 . S
C79 C80 1.407 . S
C80 C79 1.407 . S
C80 C81 1.365 . S
C81 H69 0.930 . S
C81 C80 1.365 . S
C81 C82 1.393 . S
C82 C81 1.393 . S
C82 C83 1.387 . S
C83 H70 0.930 . S
C83 C78 1.415 . S
C83 C82 1.387 . S
H84 C92 0.930 . S
H85 C95 0.930 . S
H86 C97 0.930 . S
H87 C98 0.970 1_554 S
H88 C98 0.970 . S
H89 C100 0.930 . S
H90 C102 0.930 . S
H91 C104 0.930 . S
C92 H84 0.930 . S
C92 C93 1.382 . S
C92 C94 1.426 1_554 S
C93 C92 1.382 . S
C93 C97 1.389 1_554 S
C94 C92 1.426 1_556 S
C94 C95 1.375 . S
C94 C98 1.532 . S
C95 H85 0.930 . S
C95 C94 1.375 . S
C95 C96 1.416 . S
C96 C95 1.416 . S
C96 C97 1.371 . S
C97 H86 0.930 . S
C97 C93 1.389 1_556 S
C97 C96 1.371 . S
C98 H87 0.970 1_556 S
C98 H88 0.970 . S
C98 C94 1.532 . S
C98 C99 1.499 1_546 S
C99 C98 1.499 1_564 S
C99 C100 1.370 . S
C99 C104 1.415 1_554 S
C100 H89 0.930 . S
C100 C99 1.370 . S
C100 C101 1.407 . S
C101 C100 1.407 . S
C101 C102 1.365 . S
C102 H90 0.930 . S
C102 C101 1.365 . S
C102 C103 1.393 1_554 S
C103 C102 1.393 1_556 S
C103 C104 1.387 . S
C104 H91 0.930 . S
C104 C99 1.415 1_556 S
C104 C103 1.387 . S
H105 C113 0.930 . S
H106 C116 0.930 . S
H107 C118 0.930 . S
H108 C119 0.970 . S
H109 C119 0.970 . S
H110 C121 0.930 . S
H111 C123 0.930 . S
H112 C125 0.930 . S
C113 H105 0.930 . S
C113 C114 1.382 . S
C113 C115 1.426 . S
C114 C113 1.382 . S
C114 C118 1.389 . S
C115 C113 1.426 . S
C115 C116 1.375 . S
C115 C119 1.532 . S
C116 H106 0.930 . S
C116 C115 1.375 . S
C116 C117 1.416 . S
C117 C116 1.416 . S
C117 C118 1.371 . S
C118 H107 0.930 . S
C118 C114 1.389 . S
C118 C117 1.371 . S
C119 H108 0.970 . S
C119 H109 0.970 . S
C119 C115 1.532 . S
C119 C120 1.499 . S
C120 C119 1.499 . S
C120 C121 1.370 . S
C120 C125 1.415 . S
C121 H110 0.930 . S
C121 C120 1.370 . S
C121 C122 1.407 . S
C122 C121 1.407 . S
C122 C123 1.365 . S
C123 H111 0.930 . S
C123 C122 1.365 . S
C123 C124 1.393 . S
C124 C123 1.393 . S
C124 C125 1.387 . S
C125 H112 0.930 . S
C125 C120 1.415 . S
C125 C124 1.387 . S
Mg126 O127 2.028 . S
Mg126 O133 1.986 . S
Mg126 O135 2.114 . S
Mg126 O136 2.251 . S
Mg126 O139 2.010 . S
O127 Mg126 2.028 . S
O127 C130 1.250 . S
O128 Mg129 2.028 . S
O128 C130 1.248 . S
Mg129 O128 2.028 . S
Mg129 O134 2.032 . S
Mg129 O136 2.079 . S
C130 O127 1.250 . S
C130 O128 1.248 . S
C131 O132 1.264 . S
C131 O139 1.249 . S
O132 C131 1.264 . S
O133 Mg126 1.986 . S
O133 C137 1.246 . S
O134 Mg129 2.032 . S
O134 C137 1.259 . S
O135 Mg126 2.114 . S
O135 C138 1.252 . S
O136 Mg126 2.251 . S
O136 Mg129 2.079 . S
O136 C138 1.273 . S
C137 O133 1.246 . S
C137 O134 1.259 . S
C138 O135 1.252 . S
C138 O136 1.273 . S
O139 Mg126 2.010 . S
O139 C131 1.249 . S
Mg140 O141 2.028 . S
Mg140 O147 1.986 . S
Mg140 O149 2.114 . S
Mg140 O150 2.251 . S
Mg140 O153 2.010 . S
O141 Mg140 2.028 . S
O141 C144 1.250 . S
O142 Mg143 2.028 . S
O142 C144 1.248 . S
Mg143 O142 2.028 . S
Mg143 O148 2.032 . S
Mg143 O150 2.079 . S
C144 O141 1.250 . S
C144 O142 1.248 . S
C145 O146 1.264 . S
C145 O153 1.249 . S
O146 C145 1.264 . S
O147 Mg140 1.986 . S
O147 C151 1.246 . S
O148 Mg143 2.032 . S
O148 C151 1.259 . S
O149 Mg140 2.114 . S
O149 C152 1.252 . S
O150 Mg140 2.251 . S
O150 Mg143 2.079 . S
O150 C152 1.273 . S
C151 O147 1.246 . S
C151 O148 1.259 . S
C152 O149 1.252 . S
C152 O150 1.273 . S
O153 Mg140 2.010 . S
O153 C145 1.249 . S
Mg154 O155 2.028 . S
Mg154 O161 1.986 . S
Mg154 O163 2.114 . S
Mg154 O164 2.251 . S
Mg154 O167 2.010 . S
O155 Mg154 2.028 . S
O155 C158 1.250 . S
O156 Mg157 2.028 . S
O156 C158 1.248 . S
Mg157 O156 2.028 . S
Mg157 O162 2.032 . S
Mg157 O164 2.079 . S
C158 O155 1.250 . S
C158 O156 1.248 . S
C159 O160 1.264 . S
C159 O167 1.249 . S
O160 C159 1.264 . S
O161 Mg154 1.986 . S
O161 C165 1.246 . S
O162 Mg157 2.032 . S
O162 C165 1.259 . S
O163 Mg154 2.114 . S
O163 C166 1.252 . S
O164 Mg154 2.251 . S
O164 Mg157 2.079 . S
O164 C166 1.273 . S
C165 O161 1.246 . S
C165 O162 1.259 . S
C166 O163 1.252 . S
C166 O164 1.273 . S
O167 Mg154 2.010 . S
O167 C159 1.249 . S
Mg168 O169 2.028 . S
Mg168 O175 1.986 . S
Mg168 O177 2.114 . S
Mg168 O178 2.251 . S
Mg168 O181 2.010 . S
O169 Mg168 2.028 . S
O169 C172 1.250 . S
O170 Mg171 2.028 . S
O170 C172 1.248 . S
Mg171 O170 2.028 . S
Mg171 O176 2.032 . S
Mg171 O178 2.079 . S
C172 O169 1.250 . S
C172 O170 1.248 . S
C173 O174 1.264 . S
C173 O181 1.249 . S
O174 C173 1.264 . S
O175 Mg168 1.986 . S
O175 C179 1.246 . S
O176 Mg171 2.032 . S
O176 C179 1.259 . S
O177 Mg168 2.114 . S
O177 C180 1.252 . S
O178 Mg168 2.251 . S
O178 Mg171 2.079 . S
O178 C180 1.273 . S
C179 O175 1.246 . S
C179 O176 1.259 . S
C180 O177 1.252 . S
C180 O178 1.273 . S
O181 Mg168 2.010 . S
O181 C173 1.249 . S
Mg182 O183 2.028 . S
Mg182 O189 1.986 . S
Mg182 O191 2.114 . S
Mg182 O192 2.251 . S
Mg182 O195 2.010 . S
O183 Mg182 2.028 . S
O183 C186 1.250 . S
O184 Mg185 2.028 . S
O184 C186 1.248 . S
Mg185 O184 2.028 . S
Mg185 O190 2.032 . S
Mg185 O192 2.079 . S
C186 O183 1.250 . S
C186 O184 1.248 . S
C187 O188 1.264 . S
C187 O195 1.249 . S
O188 C187 1.264 . S
O189 Mg182 1.986 . S
O189 C193 1.246 . S
O190 Mg185 2.032 . S
O190 C193 1.259 . S
O191 Mg182 2.114 . S
O191 C194 1.252 . S
O192 Mg182 2.251 . S
O192 Mg185 2.079 . S
O192 C194 1.273 . S
C193 O189 1.246 . S
C193 O190 1.259 . S
C194 O191 1.252 . S
C194 O192 1.273 . S
O195 Mg182 2.010 . S
O195 C187 1.249 . S
Mg196 O197 2.028 . S
Mg196 O203 1.986 . S
Mg196 O205 2.114 . S
Mg196 O206 2.251 . S
Mg196 O209 2.010 . S
O197 Mg196 2.028 . S
O197 C200 1.250 . S
O198 Mg199 2.028 . S
O198 C200 1.248 . S
Mg199 O198 2.028 . S
Mg199 O204 2.032 . S
Mg199 O206 2.079 . S
C200 O197 1.250 . S
C200 O198 1.248 . S
C201 O202 1.264 . S
C201 O209 1.249 . S
O202 C201 1.264 . S
O203 Mg196 1.986 . S
O203 C207 1.246 . S
O204 Mg199 2.032 . S
O204 C207 1.259 . S
O205 Mg196 2.114 . S
O205 C208 1.252 . S
O206 Mg196 2.251 . S
O206 Mg199 2.079 . S
O206 C208 1.273 . S
C207 O203 1.246 . S
C207 O204 1.259 . S
C208 O205 1.252 . S
C208 O206 1.273 . S
O209 Mg196 2.010 . S
O209 C201 1.249 . S
C210 C211 1.369 . S
C210 C212 1.419 . S
C210 H214 0.930 . S
C211 C210 1.369 . S
C211 C220 1.429 . S
C212 C210 1.419 . S
C212 C213 1.363 . S
C212 H215 0.929 . S
C213 C212 1.363 . S
C213 C219 1.428 . S
H214 C210 0.930 . S
H215 C212 0.929 . S
S216 N217 1.613 . S
S216 N218 1.610 . S
N217 S216 1.613 . S
N217 C220 1.350 . S
N218 S216 1.610 . S
N218 C219 1.351 . S
C219 C213 1.428 . S
C219 N218 1.351 . S
C219 C220 1.434 . S
C220 C211 1.429 . S
C220 N217 1.350 . S
C220 C219 1.434 . S
C221 C222 1.369 . S
C221 C223 1.419 . S
C221 H225 0.930 . S
C222 C221 1.369 . S
C222 C231 1.429 . S
C223 C221 1.419 . S
C223 C224 1.363 . S
C223 H226 0.929 . S
C224 C223 1.363 . S
C224 C230 1.428 . S
H225 C221 0.930 . S
H226 C223 0.929 . S
S227 N228 1.613 . S
S227 N229 1.610 . S
N228 S227 1.613 . S
N228 C231 1.350 . S
N229 S227 1.610 . S
N229 C230 1.351 . S
C230 C224 1.428 . S
C230 N229 1.351 . S
C230 C231 1.434 . S
C231 C222 1.429 . S
C231 N228 1.350 . S
C231 C230 1.434 . S
C232 C233 1.369 . S
C232 C234 1.419 . S
C232 H236 0.930 . S
C233 C232 1.369 . S
C233 C242 1.429 . S
C234 C232 1.419 . S
C234 C235 1.363 . S
C234 H237 0.929 . S
C235 C234 1.363 . S
C235 C241 1.428 . S
H236 C232 0.930 . S
H237 C234 0.929 . S
S238 N239 1.613 . S
S238 N240 1.610 . S
N239 S238 1.613 . S
N239 C242 1.350 . S
N240 S238 1.610 . S
N240 C241 1.351 . S
C241 C235 1.428 . S
C241 N240 1.351 . S
C241 C242 1.434 . S
C242 C233 1.429 . S
C242 N239 1.350 . S
C242 C241 1.434 . S
C243 C244 1.369 . S
C243 C245 1.419 . S
C243 H247 0.930 . S
C244 C243 1.369 . S
C244 C253 1.429 . S
C245 C243 1.419 . S
C245 C246 1.363 . S
C245 H248 0.929 . S
C246 C245 1.363 . S
C246 C252 1.428 . S
H247 C243 0.930 . S
H248 C245 0.929 . S
S249 N250 1.613 . S
S249 N251 1.610 . S
N250 S249 1.613 . S
N250 C253 1.350 . S
N251 S249 1.610 . S
N251 C252 1.351 . S
C252 C246 1.428 . S
C252 N251 1.351 . S
C252 C253 1.434 . S
C253 C244 1.429 . S
C253 N250 1.350 . S
C253 C252 1.434 . S
C254 C255 1.369 . S
C254 C256 1.419 . S
C254 H258 0.930 . S
C255 C254 1.369 . S
C255 C264 1.429 . S
C256 C254 1.419 . S
C256 C257 1.363 . S
C256 H259 0.929 . S
C257 C256 1.363 . S
C257 C263 1.428 . S
H258 C254 0.930 . S
H259 C256 0.929 . S
S260 N261 1.613 . S
S260 N262 1.610 . S
N261 S260 1.613 . S
N261 C264 1.350 . S
N262 S260 1.610 . S
N262 C263 1.351 . S
C263 C257 1.428 . S
C263 N262 1.351 . S
C263 C264 1.434 . S
C264 C255 1.429 . S
C264 N261 1.350 . S
C264 C263 1.434 . S
C265 C266 1.369 . S
C265 C267 1.419 . S
C265 H269 0.930 . S
C266 C265 1.369 . S
C266 C275 1.429 . S
C267 C265 1.419 . S
C267 C268 1.363 . S
C267 H270 0.929 . S
C268 C267 1.363 . S
C268 C274 1.428 . S
H269 C265 0.930 . S
H270 C267 0.929 . S
S271 N272 1.613 . S
S271 N273 1.610 . S
N272 S271 1.613 . S
N272 C275 1.350 . S
N273 S271 1.610 . S
N273 C274 1.351 . S
C274 C268 1.428 . S
C274 N273 1.351 . S
C274 C275 1.434 . S
C275 C266 1.429 . S
C275 N272 1.350 . S
C275 C274 1.434 . S
C276 C277 1.369 . S
C276 C278 1.419 . S
C276 H280 0.930 . S
C277 C276 1.369 . S
C277 C286 1.429 . S
C278 C276 1.419 . S
C278 C279 1.363 . S
C278 H281 0.929 . S
C279 C278 1.363 . S
C279 C285 1.428 . S
H280 C276 0.930 . S
H281 C278 0.929 . S
S282 N283 1.613 . S
S282 N284 1.610 . S
N283 S282 1.613 . S
N283 C286 1.350 . S
N284 S282 1.610 . S
N284 C285 1.351 . S
C285 C279 1.428 . S
C285 N284 1.351 . S
C285 C286 1.434 . S
C286 C277 1.429 . S
C286 N283 1.350 . S
C286 C285 1.434 . S
C287 C288 1.369 . S
C287 C289 1.419 . S
C287 H291 0.930 . S
C288 C287 1.369 . S
C288 C297 1.429 . S
C289 C287 1.419 . S
C289 C290 1.363 . S
C289 H292 0.929 . S
C290 C289 1.363 . S
C290 C296 1.428 . S
H291 C287 0.930 . S
H292 C289 0.929 . S
S293 N294 1.613 . S
S293 N295 1.610 . S
N294 S293 1.613 . S
N294 C297 1.350 . S
N295 S293 1.610 . S
N295 C296 1.351 . S
C296 C290 1.428 . S
C296 N295 1.351 . S
C296 C297 1.434 . S
C297 C288 1.429 . S
C297 N294 1.350 . S
C297 C296 1.434 . S
C298 C299 1.369 . S
C298 C300 1.419 . S
C298 H302 0.930 . S
C299 C298 1.369 . S
C299 C308 1.429 . S
C300 C298 1.419 . S
C300 C301 1.363 . S
C300 H303 0.929 . S
C301 C300 1.363 . S
C301 C307 1.428 . S
H302 C298 0.930 . S
H303 C300 0.929 . S
S304 N305 1.613 . S
S304 N306 1.610 . S
N305 S304 1.613 . S
N305 C308 1.350 . S
N306 S304 1.610 . S
N306 C307 1.351 . S
C307 C301 1.428 . S
C307 N306 1.351 . S
C307 C308 1.434 . S
C308 C299 1.429 . S
C308 N305 1.350 . S
C308 C307 1.434 . S
C309 C310 1.369 . S
C309 C311 1.419 . S
C309 H313 0.930 . S
C310 C309 1.369 . S
C310 C319 1.429 . S
C311 C309 1.419 . S
C311 C312 1.363 . S
C311 H314 0.929 . S
C312 C311 1.363 . S
C312 C318 1.428 . S
H313 C309 0.930 . S
H314 C311 0.929 . S
S315 N316 1.613 . S
S315 N317 1.604 1_556 S
N316 S315 1.613 . S
N316 C319 1.342 1_556 S
N317 S315 1.604 1_554 S
N317 C318 1.351 . S
C318 C312 1.428 . S
C318 N317 1.351 . S
C318 C319 1.434 . S
C319 C310 1.429 . S
C319 N316 1.342 1_554 S
C319 C318 1.434 . S
C320 C321 1.369 . S
C320 C322 1.419 . S
C320 H324 0.930 . S
C321 C320 1.369 . S
C321 C330 1.429 . S
C322 C320 1.419 . S
C322 C323 1.363 . S
C322 H325 0.929 . S
C323 C322 1.363 . S
C323 C329 1.428 . S
H324 C320 0.930 . S
H325 C322 0.929 . S
S326 N327 1.613 . S
S326 N328 1.610 . S
N327 S326 1.613 . S
N327 C330 1.350 . S
N328 S326 1.610 . S
N328 C329 1.351 . S
C329 C323 1.428 . S
C329 N328 1.351 . S
C329 C330 1.434 . S
C330 C321 1.429 . S
C330 N327 1.350 . S
C330 C329 1.434 . S
C331 C332 1.369 . S
C331 C333 1.419 . S
C331 H335 0.930 . S
C332 C331 1.369 . S
C332 C341 1.429 . S
C333 C331 1.419 . S
C333 C334 1.363 . S
C333 H336 0.929 . S
C334 C333 1.363 . S
C334 C340 1.428 . S
H335 C331 0.930 . S
H336 C333 0.929 . S
S337 N338 1.613 . S
S337 N339 1.610 . S
N338 S337 1.613 . S
N338 C341 1.350 . S
N339 S337 1.610 . S
N339 C340 1.351 . S
C340 C334 1.428 . S
C340 N339 1.351 . S
C340 C341 1.434 . S
C341 C332 1.429 . S
C341 N338 1.350 . S
C341 C340 1.434 . S
C342 C343 1.369 . S
C342 C344 1.419 . S
C342 H346 0.930 . S
C343 C342 1.369 . S
C343 C352 1.429 . S
C344 C342 1.419 . S
C344 C345 1.363 . S
C344 H347 0.929 . S
C345 C344 1.363 . S
C345 C351 1.428 . S
H346 C342 0.930 . S
H347 C344 0.929 . S
S348 N349 1.613 . S
S348 N350 1.610 . S
N349 S348 1.613 . S
N349 C352 1.350 . S
N350 S348 1.610 . S
N350 C351 1.351 . S
C351 C345 1.428 . S
C351 N350 1.351 . S
C351 C352 1.434 . S
C352 C343 1.429 . S
C352 N349 1.350 . S
C352 C351 1.434 . S
C353 C354 1.369 . S
C353 C355 1.419 . S
C353 H357 0.930 . S
C354 C353 1.369 . S
C354 C363 1.429 . S
C355 C353 1.419 . S
C355 C356 1.363 . S
C355 H358 0.929 . S
C356 C355 1.363 . S
C356 C362 1.428 . S
H357 C353 0.930 . S
H358 C355 0.929 . S
S359 N360 1.613 . S
S359 N361 1.610 . S
N360 S359 1.613 . S
N360 C363 1.350 . S
N361 S359 1.610 . S
N361 C362 1.351 . S
C362 C356 1.428 . S
C362 N361 1.351 . S
C362 C363 1.434 . S
C363 C354 1.429 . S
C363 N360 1.350 . S
C363 C362 1.434 . S
C364 C365 1.369 . S
C364 C366 1.419 . S
C364 H368 0.930 . S
C365 C364 1.369 . S
C365 C374 1.429 . S
C366 C364 1.419 . S
C366 C367 1.363 . S
C366 H369 0.929 . S
C367 C366 1.363 . S
C367 C373 1.428 . S
H368 C364 0.930 . S
H369 C366 0.929 . S
S370 N371 1.613 . S
S370 N372 1.610 . S
N371 S370 1.613 . S
N371 C374 1.350 . S
N372 S370 1.610 . S
N372 C373 1.351 . S
C373 C367 1.428 . S
C373 N372 1.351 . S
C373 C374 1.434 . S
C374 C365 1.429 . S
C374 N371 1.350 . S
C374 C373 1.434 . S
C375 C376 1.369 . S
C375 C377 1.419 . S
C375 H379 0.930 . S
C376 C375 1.369 . S
C376 C385 1.429 . S
C377 C375 1.419 . S
C377 C378 1.363 . S
C377 H380 0.929 . S
C378 C377 1.363 . S
C378 C384 1.428 . S
H379 C375 0.930 . S
H380 C377 0.929 . S
S381 N382 1.613 1_554 S
S381 N383 1.610 . S
N382 S381 1.613 1_556 S
N382 C385 1.350 . S
N383 S381 1.610 . S
N383 C384 1.351 1_554 S
C384 C378 1.428 . S
C384 N383 1.351 1_556 S
C384 C385 1.434 . S
C385 C376 1.429 . S
C385 N382 1.350 . S
C385 C384 1.434 . S
C386 C387 1.369 . S
C386 C388 1.419 . S
C386 H390 0.930 . S
C387 C386 1.369 . S
C387 C396 1.429 . S
C388 C386 1.419 . S
C388 C389 1.363 . S
C388 H391 0.929 . S
C389 C388 1.363 . S
C389 C395 1.428 . S
H390 C386 0.930 . S
H391 C388 0.929 . S
S392 N393 1.613 . S
S392 N394 1.610 . S
N393 S392 1.613 . S
N393 C396 1.350 . S
N394 S392 1.610 . S
N394 C395 1.351 . S
C395 C389 1.428 . S
C395 N394 1.351 . S
C395 C396 1.434 . S
C396 C387 1.429 . S
C396 N393 1.350 . S
C396 C395 1.434 . S
C397 C398 1.369 . S
C397 C399 1.419 . S
C397 H401 0.930 . S
C398 C397 1.369 . S
C398 C407 1.429 . S
C399 C397 1.419 . S
C399 C400 1.363 . S
C399 H402 0.929 . S
C400 C399 1.363 . S
C400 C406 1.428 . S
H401 C397 0.930 . S
H402 C399 0.929 . S
S403 N404 1.613 . S
S403 N405 1.610 . S
N404 S403 1.613 . S
N404 C407 1.350 . S
N405 S403 1.610 . S
N405 C406 1.351 . S
C406 C400 1.428 . S
C406 N405 1.351 . S
C406 C407 1.434 . S
C407 C398 1.429 . S
C407 N404 1.350 . S
C407 C406 1.434 . S
C408 C409 1.369 . S
C408 C410 1.419 . S
C408 H412 0.930 . S
C409 C408 1.369 . S
C409 C418 1.429 . S
C410 C408 1.419 . S
C410 C411 1.363 . S
C410 H413 0.929 . S
C411 C410 1.363 . S
C411 C417 1.428 . S
H412 C408 0.930 . S
H413 C410 0.929 . S
S414 N415 1.613 . S
S414 N416 1.610 . S
N415 S414 1.613 . S
N415 C418 1.350 . S
N416 S414 1.610 . S
N416 C417 1.351 . S
C417 C411 1.428 . S
C417 N416 1.351 . S
C417 C418 1.434 . S
C418 C409 1.429 . S
C418 N415 1.350 . S
C418 C417 1.434 . S
C419 C420 1.369 . S
C419 C421 1.419 . S
C419 H423 0.930 . S
C420 C419 1.369 . S
C420 C429 1.429 . S
C421 C419 1.419 . S
C421 C422 1.363 . S
C421 H424 0.929 . S
C422 C421 1.363 . S
C422 C428 1.428 . S
H423 C419 0.930 . S
H424 C421 0.929 . S
S425 N426 1.613 . S
S425 N427 1.610 . S
N426 S425 1.613 . S
N426 C429 1.350 . S
N427 S425 1.610 . S
N427 C428 1.351 . S
C428 C422 1.428 . S
C428 N427 1.351 . S
C428 C429 1.434 . S
C429 C420 1.429 . S
C429 N426 1.350 . S
C429 C428 1.434 . S
C430 C431 1.369 . S
C430 C432 1.419 . S
C430 H434 0.930 . S
C431 C430 1.369 . S
C431 C440 1.429 . S
C432 C430 1.419 . S
C432 C433 1.363 . S
C432 H435 0.929 . S
C433 C432 1.363 . S
C433 C439 1.428 . S
H434 C430 0.930 . S
H435 C432 0.929 . S
S436 N437 1.613 . S
S436 N438 1.610 . S
N437 S436 1.613 . S
N437 C440 1.350 . S
N438 S436 1.610 . S
N438 C439 1.351 . S
C439 C433 1.428 . S
C439 N438 1.351 . S
C439 C440 1.434 . S
C440 C431 1.429 . S
C440 N437 1.350 . S
C440 C439 1.434 . S
C441 C442 1.369 . S
C441 C443 1.419 . S
C441 H445 0.930 . S
C442 C441 1.369 . S
C442 C451 1.429 . S
C443 C441 1.419 . S
C443 C444 1.363 . S
C443 H446 0.929 . S
C444 C443 1.363 . S
C444 C450 1.428 . S
H445 C441 0.930 . S
H446 C443 0.929 . S
S447 N448 1.613 . S
S447 N449 1.610 . S
N448 S447 1.613 . S
N448 C451 1.350 . S
N449 S447 1.610 . S
N449 C450 1.351 . S
C450 C444 1.428 . S
C450 N449 1.351 . S
C450 C451 1.434 . S
C451 C442 1.429 . S
C451 N448 1.350 . S
C451 C450 1.434 . S
C452 C453 1.369 . S
C452 C454 1.419 1_554 S
C452 H456 0.930 . S
C453 C452 1.369 . S
C453 C462 1.429 . S
C454 C452 1.419 1_556 S
C454 C455 1.363 . S
C454 H457 0.929 . S
C455 C454 1.363 . S
C455 C461 1.428 1_556 S
H456 C452 0.930 . S
H457 C454 0.929 . S
S458 N459 1.613 . S
S458 N460 1.610 . S
N459 S458 1.613 . S
N459 C462 1.350 . S
N460 S458 1.610 . S
N460 C461 1.351 . S
C461 C455 1.428 1_554 S
C461 N460 1.351 . S
C461 C462 1.434 . S
C462 C453 1.429 . S
C462 N459 1.350 . S
C462 C461 1.434 . S
C463 C464 1.369 . S
C463 C465 1.419 . S
C463 H467 0.930 . S
C464 C463 1.369 . S
C464 C473 1.429 . S
C465 C463 1.419 . S
C465 C466 1.363 . S
C465 H468 0.929 . S
C466 C465 1.363 . S
C466 C472 1.428 . S
H467 C463 0.930 . S
H468 C465 0.929 . S
S469 N470 1.613 . S
S469 N471 1.610 . S
N470 S469 1.613 . S
N470 C473 1.350 . S
N471 S469 1.610 . S
N471 C472 1.351 . S
C472 C466 1.428 . S
C472 N471 1.351 . S
C472 C473 1.434 . S
C473 C464 1.429 . S
C473 N470 1.350 . S
C473 C472 1.434 . S
C213 C201 1.314 . S
C211 C19 1.443 . S
C222 C40 1.463 . S
C224 C131 1.338 . S
C233 C51 1.437 . S
C235 C151 1.553 . S
C244 C72 1.393 . S
C246 C165 1.498 . S
C257 C173 1.281 . S
C255 C103 1.416 . S
C266 C114 1.409 . S
C268 C187 1.298 . S
C277 C30 1.445 . S
C279 C145 1.323 . S
C288 C61 1.430 . S
C290 C159 1.279 . S
C299 C82 1.391 . S
C301 C179 1.481 . S
C312 C193 1.517 . S
C310 C93 1.404 . S
C323 C207 1.520 . S
C321 C124 1.435 . S
C334 C137 1.542 . S
C332 C9 1.440 . S
C343 C17 1.418 . S
C345 C144 1.485 . S
C354 C38 1.415 . S
C356 C158 1.481 . S
C367 C180 1.492 . S
C365 C54 1.400 . S
C376 C75 1.423 . S
C378 C194 1.505 1_556 S
C389 C208 1.472 . S
C387 C101 1.389 . S
C400 C138 1.466 . S
C398 C117 1.369 . S
C411 C200 1.466 . S
C409 C33 1.403 . S
C420 C59 1.418 . S
C422 C130 1.475 . S
C433 C152 1.499 . S
C431 C80 1.408 . S
C442 C96 1.398 . S
C444 C166 1.490 . S
C453 C122 1.456 . S
C455 C172 1.503 . S
C464 C12 1.440 . S
C466 C186 1.503 . S
