# Generated by pormake.
# Topology ssa, (4,4)-cn, num edge types: 1
# Building blocks:
#     Node 0, Type 0, BuildingBlock: ESEHIV_clean_sbu_0, # of connection points: 4
#     Node 1, Type 0, BuildingBlock: ESEHIV_clean_sbu_0, # of connection points: 4
#     Node 2, Type 0, BuildingBlock: ESEHIV_clean_sbu_0, # of connection points: 4
#     Node 3, Type 0, BuildingBlock: ESEHIV_clean_sbu_0, # of connection points: 4
#     Node 4, Type 0, BuildingBlock: ESEHIV_clean_sbu_0, # of connection points: 4
#     Node 5, Type 0, BuildingBlock: ESEHIV_clean_sbu_0, # of connection points: 4
#     Node 6, Type 1, BuildingBlock: NAHDIM_clean_linker_0, # of connection points: 4
#     Node 7, Type 1, BuildingBlock: NAHDIM_clean_linker_0, # of connection points: 4
#     Node 8, Type 1, BuildingBlock: NAHDIM_clean_linker_0, # of connection points: 4
#     Node 9, Type 1, BuildingBlock: NAHDIM_clean_linker_0, # of connection points: 4
#     Node 10, Type 1, BuildingBlock: NAHDIM_clean_linker_0, # of connection points: 4
#     Node 11, Type 1, BuildingBlock: NAHDIM_clean_linker_0, # of connection points: 4
#     Edge 12, Type (0, 1), None
#     Edge 13, Type (0, 1), None
#     Edge 14, Type (0, 1), None
#     Edge 15, Type (0, 1), None
#     Edge 16, Type (0, 1), None
#     Edge 17, Type (0, 1), None
#     Edge 18, Type (0, 1), None
#     Edge 19, Type (0, 1), None
#     Edge 20, Type (0, 1), None
#     Edge 21, Type (0, 1), None
#     Edge 22, Type (0, 1), None
#     Edge 23, Type (0, 1), None
#     Edge 24, Type (0, 1), None
#     Edge 25, Type (0, 1), None
#     Edge 26, Type (0, 1), None
#     Edge 27, Type (0, 1), None
#     Edge 28, Type (0, 1), None
#     Edge 29, Type (0, 1), None
#     Edge 30, Type (0, 1), None
#     Edge 31, Type (0, 1), None
#     Edge 32, Type (0, 1), None
#     Edge 33, Type (0, 1), None
#     Edge 34, Type (0, 1), None
#     Edge 35, Type (0, 1), None
# Relax obj value: 0.024
# Max RMSD: 0.112
# Mean RMSD: 0.072
data_MOF--net-ssa--node1-ESEHIV_clean_sbu_0--node2-NAHDIM_clean_linker_0--edge1-none
_symmetry_space_group_name_H-M    P1
_symmetry_Int_Tables_number       1
_symmetry_cell_setting            triclinic
loop_
_symmetry_equiv_pos_as_xyz
'x, y, z'
_cell_length_a     37.559824
_cell_length_b     40.965967
_cell_length_c     33.747643
_cell_angle_alpha  87.553805
_cell_angle_beta   91.872049
_cell_angle_gamma 123.05494
loop_
_atom_site_label
_atom_site_type_symbol
_atom_site_fract_x
_atom_site_fract_y
_atom_site_fract_z
_atom_type_partial_charge
Cu0 Cu 0.04083 0.49279 0.0337 0.0
N1 N 0.05096 0.48527 0.98251 0.0
N2 N 0.04245 0.4552 0.9262 0.0
C3 C 0.02919 0.45139 0.96369 0.0
C4 C 0.07363 0.49321 0.92108 0.0
C5 C 0.07895 0.51167 0.95608 0.0
O6 O 0.99036 0.49469 0.03298 0.0
C7 C 0.05443 0.43556 0.06497 0.0
O8 O 0.0839 0.4495 0.03777 0.0
H9 H 0.0034 0.42452 0.97694 0.0
H10 H 0.10093 0.54228 0.96164 0.0
N11 N 0.0874 0.53812 0.05369 0.0
N12 N 0.12566 0.5892 0.0923 0.0
C13 C 0.08671 0.56329 0.07746 0.0
C14 C 0.12805 0.54833 0.05349 0.0
C15 C 0.15175 0.57975 0.07748 0.0
C16 C 0.98644 0.51727 0.00881 0.0
O17 O 0.01774 0.54079 0.98482 0.0
H18 H 0.0579 0.5612 0.08572 0.0
H19 H 0.13915 0.5326 0.03876 0.0
O20 O 0.03193 0.44988 0.06783 0.0
H21 H 0.09079 0.50692 0.89392 0.0
H22 H 0.18509 0.59342 0.08495 0.0
Cu23 Cu 0.53709 0.02758 0.51334 0.0
N24 N 0.52324 0.97887 0.49754 0.0
N25 N 0.52668 0.93638 0.46124 0.0
C26 C 0.54726 0.9733 0.47359 0.0
C27 C 0.48814 0.91782 0.47835 0.0
C28 C 0.48608 0.94419 0.5007 0.0
O29 O 0.50301 0.04022 0.4805 0.0
C30 C 0.62958 0.07355 0.52329 0.0
O31 O 0.66722 0.0996 0.50891 0.0
H32 H 0.57849 0.99645 0.46367 0.0
H33 H 0.4587 0.93895 0.51639 0.0
N34 N 0.52499 0.02884 0.56602 0.0
N35 N 0.52246 0.05379 0.62246 0.0
C36 C 0.53645 0.06151 0.58485 0.0
C37 C 0.50283 0.99932 0.59246 0.0
C38 C 0.50131 0.01472 0.62748 0.0
C39 C 0.46383 0.0245 0.48789 0.0
O40 O 0.44696 1.00018 0.51844 0.0
H41 H 0.55527 0.09041 0.57133 0.0
H42 H 0.48892 0.96888 0.58671 0.0
O43 O 0.59686 0.06553 0.5026 0.0
H44 H 0.4627 0.88784 0.47373 0.0
H45 H 0.48642 0.99864 0.65472 0.0
Cu46 Cu 0.49197 0.47187 0.03917 0.0
N47 N 0.4549 0.44568 0.99726 0.0
N48 N 0.41788 0.39943 0.95312 0.0
C49 C 0.44651 0.41195 0.98315 0.0
C50 C 0.40774 0.42626 0.94812 0.0
C51 C 0.43076 0.45491 0.97548 0.0
O52 O 0.53628 0.46109 0.03866 0.0
C53 C 0.48232 0.45766 0.12122 0.0
O54 O 0.52403 0.47794 0.12079 0.0
H55 H 0.4607 0.39656 0.99499 0.0
H56 H 0.42972 0.48044 0.97946 0.0
N57 N 0.51478 0.52528 0.03484 0.0
N58 N 0.54721 0.58698 0.053 0.0
C59 C 0.52731 0.54942 0.06539 0.0
C60 C 0.52684 0.54837 0.00189 0.0
C61 C 0.54703 0.58663 0.01305 0.0
C62 C 0.57566 0.48608 0.04428 0.0
O63 O 0.58914 0.5224 0.05105 0.0
H64 H 0.52398 0.53996 0.09621 0.0
H65 H 0.52296 0.53822 0.97202 0.0
O66 O 0.46174 0.45166 0.08876 0.0
H67 H 0.38502 0.42493 0.92659 0.0
H68 H 0.56221 0.61226 0.99357 0.0
Cu69 Cu 0.0541 0.53596 0.53666 0.0
N70 N 0.04011 0.51872 0.48505 0.0
N71 N 0.03725 0.48918 0.43 0.0
C72 C 0.05061 0.4961 0.46802 0.0
C73 C 0.01854 0.50913 0.42243 0.0
C74 C 0.01987 0.52697 0.45674 0.0
O75 O 0.1119 0.58119 0.53887 0.0
C76 C 0.01955 0.45932 0.56762 0.0
O77 O 0.98876 0.45029 0.54184 0.0
H78 H 0.06859 0.4856 0.48298 0.0
H79 H 0.00805 0.54551 0.46053 0.0
N80 N 0.01701 0.54829 0.55565 0.0
N81 N 0.96696 0.54427 0.5933 0.0
C82 C 0.98359 0.52514 0.57918 0.0
C83 C 0.02151 0.58323 0.55445 0.0
C84 C 0.99061 0.58087 0.57776 0.0
C85 C 0.12741 0.60835 0.51231 0.0
O86 O 0.10361 0.60652 0.48202 0.0
H87 H 0.97306 0.49546 0.58769 0.0
H88 H 0.04675 0.60906 0.53933 0.0
O89 O 0.05008 0.49475 0.57062 0.0
H90 H 0.00581 0.51145 0.39399 0.0
H91 H 0.98695 0.60455 0.5841 0.0
Cu92 Cu 0.50675 0.03528 0.02244 0.0
N93 N 0.46716 0.03932 0.99148 0.0
N94 N 0.42239 0.03256 0.94262 0.0
C95 C 0.45265 0.02612 0.95484 0.0
C96 C 0.41776 0.05066 0.9726 0.0
C97 C 0.44568 0.05506 0.00254 0.0
O98 O 0.56362 0.07664 0.00667 0.0
C99 C 0.46133 0.02149 0.09149 0.0
O100 O 0.43006 0.99461 0.06983 0.0
H101 H 0.46358 0.01172 0.93749 0.0
H102 H 0.44969 0.0684 0.0307 0.0
N103 N 0.49705 0.98559 0.01903 0.0
N104 N 0.47425 0.92419 0.0373 0.0
C105 C 0.48625 0.95975 0.04957 0.0
C106 C 0.49239 0.9658 0.98633 0.0
C107 C 0.47814 0.92781 0.99754 0.0
C108 C 0.57739 0.08148 0.97154 0.0
O109 O 0.55245 0.05731 0.94413 0.0
H110 H 0.48499 0.96621 0.08005 0.0
H111 H 0.49709 0.97757 0.95631 0.0
O112 O 0.49833 0.04239 0.07688 0.0
H113 H 0.39581 0.06 0.97284 0.0
H114 H 0.46964 0.90429 0.97796 0.0
Cu115 Cu 0.52855 0.53994 0.53195 0.0
N116 N 0.56927 0.57214 0.49416 0.0
N117 N 0.61518 0.62625 0.45985 0.0
C118 C 0.58708 0.61079 0.48966 0.0
C119 C 0.61558 0.59633 0.44522 0.0
C120 C 0.58708 0.56284 0.4665 0.0
O121 O 0.49111 0.55806 0.54147 0.0
C122 C 0.57745 0.57566 0.60068 0.0
O123 O 0.57722 0.60597 0.58674 0.0
H124 H 0.57976 0.62738 0.508 0.0
H125 H 0.58019 0.5339 0.46239 0.0
N126 N 0.49819 0.48716 0.5201 0.0
N127 N 0.46465 0.42305 0.53226 0.0
C128 C 0.48274 0.45844 0.54807 0.0
C129 C 0.48997 0.46928 0.48525 0.0
C130 C 0.46909 0.42961 0.49272 0.0
C131 C 0.46261 0.55999 0.52177 0.0
O132 O 0.44326 0.57388 0.53969 0.0
H133 H 0.4857 0.46349 0.57959 0.0
H134 H 0.49952 0.48389 0.45649 0.0
O135 O 0.55828 0.54432 0.58155 0.0
H136 H 0.63569 0.59876 0.4215 0.0
H137 H 0.45892 0.4074 0.47098 0.0
C138 C 0.01121 0.44546 0.37295 0.0
C139 C 0.04783 0.46936 0.4021 0.0
C140 C 0.11718 0.49468 0.37137 0.0
C141 C 0.15375 0.52871 0.35736 0.0
C142 C 0.18924 0.52863 0.34577 0.0
C143 C 0.18815 0.49355 0.34863 0.0
C144 C 0.1514 0.459 0.36314 0.0
C145 C 0.11602 0.45973 0.37373 0.0
C146 C 0.22768 0.56594 0.33001 0.0
C147 C 0.1492 0.42107 0.3667 0.0
C148 C 0.48314 0.55471 0.45293 0.0
C149 C 0.44692 0.54364 0.48093 0.0
C150 C 0.39444 0.54418 0.43534 0.0
C151 C 0.36639 0.50403 0.42971 0.0
C152 C 0.33402 0.49036 0.40066 0.0
C153 C 0.33033 0.51738 0.37622 0.0
C154 C 0.35939 0.55782 0.38117 0.0
C155 C 0.39055 0.57059 0.41113 0.0
C156 C 0.30295 0.44703 0.39688 0.0
C157 C 0.35702 0.58764 0.35543 0.0
C158 C 0.38719 0.42792 0.16267 0.0
C159 C 0.34791 0.39807 0.17729 0.0
C160 C 0.3172 0.4054 0.1879 0.0
C161 C 0.3255 0.44341 0.18227 0.0
C162 C 0.36469 0.47353 0.16594 0.0
C163 C 0.39536 0.46554 0.15657 0.0
C164 C 0.27607 0.37255 0.20559 0.0
C165 C 0.37424 0.51415 0.15877 0.0
C166 C 0.00327 0.36842 0.0915 0.0
C167 C 0.04859 0.40426 0.09413 0.0
C168 C 0.1138 0.40627 0.10687 0.0
C169 C 0.12322 0.37927 0.1209 0.0
C170 C 0.15974 0.3909 0.1441 0.0
C171 C 0.18867 0.43098 0.15161 0.0
C172 C 0.18082 0.45879 0.13456 0.0
C173 C 0.14284 0.446 0.11334 0.0
C174 C 0.16667 0.36009 0.16109 0.0
C175 C 0.21178 0.50197 0.13955 0.0
C176 C 0.22439 0.49246 0.33417 0.0
C177 C 0.25919 0.50407 0.35954 0.0
C178 C 0.29426 0.50362 0.34763 0.0
C179 C 0.29462 0.491 0.3093 0.0
C180 C 0.329 0.48968 0.29637 0.0
C181 C 0.32854 0.47645 0.25888 0.0
C182 C 0.29421 0.46507 0.23242 0.0
C183 C 0.29328 0.45135 0.19434 0.0
C184 C 0.25925 0.44155 0.16833 0.0
C185 C 0.22493 0.44339 0.17986 0.0
C186 C 0.22452 0.45537 0.21851 0.0
C187 C 0.1896 0.45559 0.23198 0.0
C188 C 0.18974 0.46814 0.26957 0.0
C189 C 0.22433 0.48007 0.29572 0.0
C190 C 0.25954 0.47935 0.28322 0.0
C191 C 0.25958 0.46687 0.24457 0.0
C192 C 0.47491 0.42048 0.18419 0.0
C193 C 0.45965 0.4432 0.16017 0.0
O194 O 0.08393 0.49703 0.38163 0.0
O195 O 0.07665 0.3932 0.08694 0.0
O196 O 0.41615 0.41921 0.15433 0.0
O197 O 0.42424 0.55881 0.46481 0.0
H198 H 0.05327 0.44891 0.41977 0.0
H199 H 0.01864 0.42809 0.3546 0.0
H200 H 0.00616 0.46478 0.35283 0.0
H201 H 0.98151 0.42514 0.38941 0.0
H202 H 0.1543 0.55546 0.35535 0.0
H203 H 0.0876 0.43275 0.38318 0.0
H204 H 0.25528 0.57453 0.35002 0.0
H205 H 0.22261 0.59025 0.32761 0.0
H206 H 0.23583 0.56134 0.3003 0.0
H207 H 0.1207 0.39806 0.3831 0.0
H208 H 0.17803 0.42551 0.38212 0.0
H209 H 0.14814 0.4106 0.33662 0.0
H210 H 0.42654 0.51149 0.48473 0.0
H211 H 0.47066 0.54601 0.42229 0.0
H212 H 0.49825 0.53892 0.46192 0.0
H213 H 0.50682 0.58663 0.45258 0.0
H214 H 0.36834 0.48318 0.44877 0.0
H215 H 0.41221 0.6015 0.41582 0.0
H216 H 0.26998 0.43963 0.40008 0.0
H217 H 0.30875 0.42984 0.41944 0.0
H218 H 0.30535 0.43818 0.36697 0.0
H219 H 0.38581 0.61743 0.35867 0.0
H220 H 0.32895 0.58798 0.36394 0.0
H221 H 0.35305 0.57986 0.32375 0.0
H222 H 0.46817 0.46887 0.17789 0.0
H223 H 0.34186 0.36908 0.18142 0.0
H224 H 0.42539 0.48847 0.14411 0.0
H225 H 0.26978 0.38155 0.23374 0.0
H226 H 0.27629 0.34578 0.2116 0.0
H227 H 0.24952 0.36544 0.18477 0.0
H228 H 0.40475 0.53355 0.14309 0.0
H229 H 0.37594 0.52707 0.18757 0.0
H230 H 0.34822 0.51302 0.14097 0.0
H231 H 0.05359 0.41548 0.12467 0.0
H232 H 0.97994 0.3759 0.09875 0.0
H233 H 0.99937 0.34546 0.11308 0.0
H234 H 0.99632 0.35656 0.06121 0.0
H235 H 0.10083 0.34871 0.11506 0.0
H236 H 0.13606 0.46709 0.10162 0.0
H237 H 0.17676 0.36538 0.19271 0.0
H238 H 0.19222 0.36118 0.14432 0.0
H239 H 0.13762 0.33031 0.15888 0.0
H240 H 0.20772 0.51925 0.11566 0.0
H241 H 0.24512 0.50978 0.13949 0.0
H242 H 0.2061 0.51044 0.16831 0.0
H243 H 0.259 0.51366 0.38897 0.0
H244 H 0.35646 0.49847 0.31528 0.0
H245 H 0.35565 0.47556 0.25081 0.0
H246 H 0.25893 0.43131 0.13911 0.0
H247 H 0.1616 0.44606 0.21369 0.0
H248 H 0.16213 0.46811 0.2779 0.0
H249 H 0.45765 0.40972 0.21271 0.0
H250 H 0.50944 0.43945 0.19101 0.0
H251 H 0.46883 0.39504 0.16754 0.0
C252 C 0.05043 0.43388 0.86085 0.0
C253 C 0.02267 0.42409 0.89735 0.0
C254 C 0.9482 0.38442 0.87419 0.0
C255 C 0.94702 0.35002 0.86852 0.0
C256 C 0.90994 0.31657 0.8546 0.0
C257 C 0.8736 0.31772 0.84551 0.0
C258 C 0.87425 0.35186 0.85232 0.0
C259 C 0.9116 0.38476 0.86665 0.0
C260 C 0.91017 0.28048 0.84792 0.0
C261 C 0.83604 0.35405 0.84294 0.0
C262 C 0.64857 0.13754 0.99453 0.0
C263 C 0.61764 0.11908 0.95941 0.0
C264 C 0.6674 0.13926 0.90427 0.0
C265 C 0.67067 0.17425 0.89295 0.0
C266 C 0.70261 0.20149 0.86707 0.0
C267 C 0.73246 0.19407 0.85272 0.0
C268 C 0.7292 0.15884 0.86398 0.0
C269 C 0.69616 0.13159 0.88897 0.0
C270 C 0.70465 0.23845 0.85529 0.0
C271 C 0.761 0.15021 0.8502 0.0
C272 C 0.68982 0.10382 0.60063 0.0
C273 C 0.67882 0.13154 0.60222 0.0
C274 C 0.70505 0.16644 0.62234 0.0
C275 C 0.74273 0.17353 0.64124 0.0
C276 C 0.75315 0.14517 0.64045 0.0
C277 C 0.7267 0.11089 0.61984 0.0
C278 C 0.69269 0.19578 0.62332 0.0
C279 C 0.79239 0.15111 0.66124 0.0
C280 C 0.05885 0.43575 0.60799 0.0
C281 C 0.01546 0.42904 0.59732 0.0
C282 C 0.95201 0.3635 0.59745 0.0
C283 C 0.9209 0.37053 0.60754 0.0
C284 C 0.88261 0.34079 0.6248 0.0
C285 C 0.87613 0.30373 0.63344 0.0
C286 C 0.90697 0.29634 0.62178 0.0
C287 C 0.94413 0.3262 0.60313 0.0
C288 C 0.84977 0.34943 0.63487 0.0
C289 C 0.90142 0.25732 0.6299 0.0
C290 C 0.8371 0.28511 0.8242 0.0
C291 C 0.80261 0.25585 0.84604 0.0
C292 C 0.768 0.22391 0.82735 0.0
C293 C 0.76789 0.22093 0.78565 0.0
C294 C 0.73401 0.18911 0.76576 0.0
C295 C 0.73523 0.18571 0.725 0.0
C296 C 0.76982 0.21456 0.70237 0.0
C297 C 0.77213 0.21077 0.66124 0.0
C298 C 0.80609 0.24083 0.63929 0.0
C299 C 0.83922 0.27399 0.65769 0.0
C300 C 0.83848 0.27726 0.69921 0.0
C301 C 0.87239 0.30898 0.71914 0.0
C302 C 0.87171 0.31184 0.75989 0.0
C303 C 0.83735 0.28282 0.78257 0.0
C304 C 0.80278 0.25055 0.76325 0.0
C305 C 0.80345 0.24767 0.72151 0.0
C306 C 0.60631 0.0108 0.56096 0.0
C307 C 0.62651 0.05465 0.56367 0.0
O308 O 0.98382 0.4181 0.88594 0.0
O309 O 0.98983 0.39213 0.58212 0.0
O310 O 0.66656 0.07033 0.5804 0.0
O311 O 0.6372 0.11222 0.92963 0.0
H312 H 0.01794 0.39747 0.91275 0.0
H313 H 0.03595 0.4085 0.84127 0.0
H314 H 0.05344 0.45894 0.84355 0.0
H315 H 0.0825 0.441 0.87012 0.0
H316 H 0.975 0.34911 0.87384 0.0
H317 H 0.91272 0.41133 0.87124 0.0
H318 H 0.88135 0.25438 0.86084 0.0
H319 H 0.93875 0.28245 0.86113 0.0
H320 H 0.90957 0.27625 0.81558 0.0
H321 H 0.84102 0.38216 0.85154 0.0
H322 H 0.80786 0.32987 0.85869 0.0
H323 H 0.82891 0.35052 0.81064 0.0
H324 H 0.60763 0.13888 0.94866 0.0
H325 H 0.65756 0.11744 0.00707 0.0
H326 H 0.63401 0.14457 0.01811 0.0
H327 H 0.67783 0.16513 0.98466 0.0
H328 H 0.64827 0.1805 0.90364 0.0
H329 H 0.69335 0.10451 0.89764 0.0
H330 H 0.70823 0.24368 0.82267 0.0
H331 H 0.73286 0.26353 0.86956 0.0
H332 H 0.67593 0.2375 0.86438 0.0
H333 H 0.75704 0.12384 0.86538 0.0
H334 H 0.79387 0.17537 0.85566 0.0
H335 H 0.75712 0.14552 0.8178 0.0
H336 H 0.60673 0.05908 0.58358 0.0
H337 H 0.65032 0.12647 0.58737 0.0
H338 H 0.73475 0.08925 0.61856 0.0
H339 H 0.69018 0.20171 0.65456 0.0
H340 H 0.66193 0.18562 0.60787 0.0
H341 H 0.7178 0.22369 0.60912 0.0
H342 H 0.79501 0.1255 0.65912 0.0
H343 H 0.79204 0.1568 0.69305 0.0
H344 H 0.82108 0.17695 0.64798 0.0
H345 H 0.00193 0.43171 0.62497 0.0
H346 H 0.07962 0.46426 0.62228 0.0
H347 H 0.05477 0.41251 0.62925 0.0
H348 H 0.07465 0.43509 0.58102 0.0
H349 H 0.92659 0.39923 0.60193 0.0
H350 H 0.96814 0.32102 0.59447 0.0
H351 H 0.85173 0.35486 0.66704 0.0
H352 H 0.81725 0.32426 0.62823 0.0
H353 H 0.85489 0.37565 0.61828 0.0
H354 H 0.93086 0.25813 0.6242 0.0
H355 H 0.8758 0.2355 0.61035 0.0
H356 H 0.89192 0.24741 0.66114 0.0
H357 H 0.80282 0.25785 0.87801 0.0
H358 H 0.70647 0.16616 0.7816 0.0
H359 H 0.70863 0.16023 0.71137 0.0
H360 H 0.80762 0.23762 0.60776 0.0
H361 H 0.90013 0.33195 0.7036 0.0
H362 H 0.89876 0.33707 0.77334 0.0
H363 H 0.62057 0.0042 0.53671 0.0
H364 H 0.57167 0.99565 0.55633 0.0
H365 H 0.61125 0.99895 0.58935 0.0
C366 C 0.68805 0.68337 0.46466 0.0
C367 C 0.64298 0.66777 0.44934 0.0
C368 C 0.62158 0.68668 0.38876 0.0
C369 C 0.57822 0.66985 0.39541 0.0
C370 C 0.55596 0.68423 0.37523 0.0
C371 C 0.578 0.71694 0.34882 0.0
C372 C 0.62197 0.734 0.34233 0.0
C373 C 0.6428 0.7178 0.36155 0.0
C374 C 0.50904 0.66463 0.38244 0.0
C375 C 0.64748 0.76993 0.31594 0.0
C376 C 0.54787 0.94386 0.39169 0.0
C377 C 0.54205 0.92186 0.4315 0.0
C378 C 0.51971 0.85731 0.40744 0.0
C379 C 0.55957 0.86828 0.39285 0.0
C380 C 0.56404 0.84268 0.37044 0.0
C381 C 0.52813 0.80505 0.36297 0.0
C382 C 0.48834 0.79328 0.37898 0.0
C383 C 0.48467 0.81967 0.40093 0.0
C384 C 0.60703 0.85617 0.35397 0.0
C385 C 0.44957 0.75316 0.37211 0.0
C386 C 0.48806 0.86578 0.11054 0.0
C387 C 0.52635 0.87828 0.13052 0.0
C388 C 0.53429 0.85159 0.14925 0.0
C389 C 0.50194 0.81131 0.15001 0.0
C390 C 0.46267 0.79847 0.13048 0.0
C391 C 0.45648 0.82572 0.11022 0.0
C392 C 0.57751 0.86668 0.16784 0.0
C393 C 0.42709 0.75596 0.1311 0.0
C394 C 0.61747 0.63473 0.08007 0.0
C395 C 0.57051 0.62071 0.07843 0.0
C396 C 0.55654 0.67085 0.08648 0.0
C397 C 0.58502 0.71094 0.08982 0.0
C398 C 0.57664 0.73227 0.11507 0.0
C399 C 0.53804 0.71303 0.13629 0.0
C400 C 0.50822 0.67262 0.13148 0.0
C401 C 0.51814 0.65185 0.107 0.0
C402 C 0.60938 0.7752 0.1195 0.0
C403 C 0.46606 0.65132 0.15233 0.0
C404 C 0.55598 0.73482 0.32979 0.0
C405 C 0.54783 0.75729 0.35336 0.0
C406 C 0.53208 0.77892 0.33683 0.0
C407 C 0.52413 0.7783 0.29551 0.0
C408 C 0.50944 0.80059 0.27773 0.0
C409 C 0.50371 0.80133 0.23685 0.0
C410 C 0.5128 0.78011 0.21209 0.0
C411 C 0.50976 0.78272 0.17029 0.0
C412 C 0.51727 0.75987 0.1467 0.0
C413 C 0.52905 0.73525 0.1635 0.0
C414 C 0.53411 0.73362 0.20517 0.0
C415 C 0.54788 0.71064 0.22306 0.0
C416 C 0.55397 0.71016 0.26395 0.0
C417 C 0.54714 0.73307 0.28852 0.0
C418 C 0.53191 0.75546 0.27127 0.0
C419 C 0.52586 0.75609 0.22951 0.0
C420 C 0.41254 0.87816 0.07767 0.0
C421 C 0.45522 0.88811 0.06164 0.0
O422 O 0.64378 0.67375 0.40859 0.0
O423 O 0.56682 0.65081 0.06369 0.0
O424 O 0.48289 0.89333 0.09255 0.0
O425 O 0.51345 0.88211 0.42712 0.0
H426 H 0.63167 0.68439 0.46397 0.0
H427 H 0.70875 0.71512 0.45768 0.0
H428 H 0.70143 0.66837 0.45056 0.0
H429 H 0.68789 0.67867 0.49734 0.0
H430 H 0.56181 0.64532 0.41614 0.0
H431 H 0.67632 0.73047 0.35668 0.0
H432 H 0.50386 0.68355 0.40071 0.0
H433 H 0.49535 0.63595 0.39826 0.0
H434 H 0.49161 0.6603 0.35391 0.0
H435 H 0.68221 0.7842 0.32101 0.0
H436 H 0.63897 0.79147 0.32096 0.0
H437 H 0.64051 0.76167 0.28443 0.0
H438 H 0.57321 0.9276 0.44224 0.0
H439 H 0.55737 0.93223 0.36802 0.0
H440 H 0.57317 0.97518 0.39446 0.0
H441 H 0.51797 0.94144 0.38226 0.0
H442 H 0.58728 0.89698 0.39814 0.0
H443 H 0.45411 0.81126 0.41251 0.0
H444 H 0.61757 0.8371 0.36603 0.0
H445 H 0.63156 0.88677 0.36135 0.0
H446 H 0.6048 0.85379 0.3212 0.0
H447 H 0.42176 0.74737 0.38913 0.0
H448 H 0.45655 0.73071 0.38065 0.0
H449 H 0.44108 0.75014 0.34006 0.0
H450 H 0.44965 0.86404 0.04278 0.0
H451 H 0.55059 0.9092 0.13053 0.0
H452 H 0.42672 0.81545 0.09473 0.0
H453 H 0.57545 0.86737 0.20047 0.0
H454 H 0.60152 0.89669 0.15689 0.0
H455 H 0.58879 0.8474 0.16159 0.0
H456 H 0.39655 0.75153 0.12022 0.0
H457 H 0.42258 0.74321 0.16165 0.0
H458 H 0.43541 0.7398 0.1119 0.0
H459 H 0.55819 0.61174 0.10926 0.0
H460 H 0.62112 0.61089 0.09162 0.0
H461 H 0.63505 0.65972 0.10011 0.0
H462 H 0.63156 0.64418 0.05004 0.0
H463 H 0.6145 0.72523 0.07356 0.0
H464 H 0.49595 0.6208 0.10362 0.0
H465 H 0.61582 0.7823 0.15139 0.0
H466 H 0.59695 0.79228 0.10594 0.0
H467 H 0.63978 0.7846 0.10494 0.0
H468 H 0.44409 0.6216 0.14092 0.0
H469 H 0.45065 0.66797 0.14876 0.0
H470 H 0.47124 0.64859 0.18453 0.0
H471 H 0.55544 0.7592 0.38482 0.0
H472 H 0.50263 0.8181 0.29516 0.0
H473 H 0.49251 0.81914 0.22484 0.0
H474 H 0.51494 0.762 0.11467 0.0
H475 H 0.55457 0.69306 0.20563 0.0
H476 H 0.56466 0.69199 0.27606 0.0
H477 H 0.41704 0.90203 0.09597 0.0
H478 H 0.39725 0.85102 0.09625 0.0
H479 H 0.3907 0.87402 0.05258 0.0
C480 C 0.5962 0.44581 0.08304 0.0
C481 C 0.60609 0.47311 0.04688 0.0
C482 C 0.63131 0.4663 0.98342 0.0
C483 C 0.66146 0.50605 0.97542 0.0
C484 C 0.69258 0.51779 0.94647 0.0
C485 C 0.69316 0.48927 0.9248 0.0
C486 C 0.66132 0.44939 0.93121 0.0
C487 C 0.63064 0.43848 0.96033 0.0
C488 C 0.72541 0.56061 0.93955 0.0
C489 C 0.66053 0.41823 0.90815 0.0
C490 C 0.94238 0.5342 0.04504 0.0
C491 C 0.94591 0.51649 0.00753 0.0
C492 C 0.91014 0.53065 0.95403 0.0
C493 C 0.87641 0.49291 0.94471 0.0
C494 C 0.84063 0.48697 0.9234 0.0
C495 C 0.83852 0.51942 0.91134 0.0
C496 C 0.87291 0.5575 0.92004 0.0
C497 C 0.90855 0.56259 0.94073 0.0
C498 C 0.80508 0.44606 0.91368 0.0
C499 C 0.87177 0.59283 0.90798 0.0
C500 C 0.88765 0.54857 0.64897 0.0
C501 C 0.85428 0.51117 0.6614 0.0
C502 C 0.82178 0.50631 0.68535 0.0
C503 C 0.82286 0.53948 0.69746 0.0
C504 C 0.85567 0.57706 0.68406 0.0
C505 C 0.88745 0.58104 0.65966 0.0
C506 C 0.78657 0.46571 0.69819 0.0
C507 C 0.85761 0.61302 0.69623 0.0
C508 C 0.57473 0.5808 0.67352 0.0
C509 C 0.59913 0.57802 0.63974 0.0
C510 C 0.62962 0.54208 0.66893 0.0
C511 C 0.6262 0.50632 0.67027 0.0
C512 C 0.65521 0.50108 0.69226 0.0
C513 C 0.68881 0.53261 0.71315 0.0
C514 C 0.69194 0.56865 0.71278 0.0
C515 C 0.66215 0.57295 0.69099 0.0
C516 C 0.65041 0.46205 0.69253 0.0
C517 C 0.72745 0.60297 0.73466 0.0
C518 C 0.72884 0.5008 0.89777 0.0
C519 C 0.76534 0.50434 0.91441 0.0
C520 C 0.79982 0.51363 0.89095 0.0
C521 C 0.79752 0.51861 0.84941 0.0
C522 C 0.83067 0.52604 0.82462 0.0
C523 C 0.82825 0.53117 0.78382 0.0
C524 C 0.79279 0.52948 0.76628 0.0
C525 C 0.79012 0.53474 0.72486 0.0
C526 C 0.75553 0.53492 0.70864 0.0
C527 C 0.72272 0.52909 0.73256 0.0
C528 C 0.72365 0.52161 0.7738 0.0
C529 C 0.69012 0.51344 0.7985 0.0
C530 C 0.6915 0.50623 0.83908 0.0
C531 C 0.72682 0.50763 0.85657 0.0
C532 C 0.76114 0.51616 0.83227 0.0
C533 C 0.75916 0.52237 0.79075 0.0
C534 C 0.95073 0.52306 0.66297 0.0
C535 C 0.9336 0.52899 0.62321 0.0
O536 O 0.6025 0.45353 0.01297 0.0
O537 O 0.60116 0.54535 0.6459 0.0
O538 O 0.92085 0.5547 0.62733 0.0
O539 O 0.94526 0.53753 0.97449 0.0
H540 H 0.63901 0.4987 0.05131 0.0
H541 H 0.56375 0.4191 0.08057 0.0
H542 H 0.59851 0.46076 0.11064 0.0
H543 H 0.61945 0.43703 0.08524 0.0
H544 H 0.66098 0.528 0.99169 0.0
H545 H 0.60669 0.40795 0.96611 0.0
H546 H 0.75726 0.56694 0.94843 0.0
H547 H 0.7188 0.57931 0.9566 0.0
H548 H 0.72657 0.56844 0.90749 0.0
H549 H 0.63282 0.3886 0.91574 0.0
H550 H 0.69011 0.41886 0.91433 0.0
H551 H 0.65944 0.42409 0.87586 0.0
H552 H 0.91901 0.48551 0.00738 0.0
H553 H 0.94243 0.51755 0.07189 0.0
H554 H 0.91216 0.53312 0.04426 0.0
H555 H 0.96927 0.56509 0.04719 0.0
H556 H 0.87821 0.46808 0.95326 0.0
H557 H 0.93506 0.59163 0.9475 0.0
H558 H 0.79729 0.44436 0.8815 0.0
H559 H 0.77616 0.43825 0.93004 0.0
H560 H 0.81324 0.42429 0.92171 0.0
H561 H 0.89972 0.62019 0.91944 0.0
H562 H 0.84241 0.58947 0.91912 0.0
H563 H 0.87111 0.59552 0.87514 0.0
H564 H 0.90658 0.50029 0.61323 0.0
H565 H 0.85339 0.48562 0.65281 0.0
H566 H 0.91307 0.60973 0.64966 0.0
H567 H 0.78901 0.46167 0.73068 0.0
H568 H 0.78788 0.44284 0.68303 0.0
H569 H 0.75517 0.46159 0.69196 0.0
H570 H 0.8863 0.64027 0.6848 0.0
H571 H 0.85758 0.61379 0.72908 0.0
H572 H 0.82898 0.61204 0.68485 0.0
H573 H 0.63153 0.6049 0.63789 0.0
H574 H 0.57348 0.6072 0.66923 0.0
H575 H 0.54179 0.5546 0.67477 0.0
H576 H 0.59076 0.58287 0.70239 0.0
H577 H 0.60084 0.4825 0.65356 0.0
H578 H 0.66497 0.60065 0.69111 0.0
H579 H 0.65304 0.45281 0.72333 0.0
H580 H 0.67637 0.46451 0.6751 0.0
H581 H 0.6195 0.43923 0.67957 0.0
H582 H 0.72604 0.62932 0.73082 0.0
H583 H 0.75861 0.61008 0.72393 0.0
H584 H 0.72581 0.59536 0.7668 0.0
H585 H 0.76701 0.49997 0.94619 0.0
H586 H 0.85876 0.52777 0.8365 0.0
H587 H 0.85473 0.53679 0.76622 0.0
H588 H 0.75425 0.53987 0.67692 0.0
H589 H 0.66232 0.51226 0.78662 0.0
H590 H 0.66474 0.49991 0.85668 0.0
H591 H 0.96072 0.5023 0.65991 0.0
H592 H 0.92598 0.51089 0.68609 0.0
H593 H 0.97846 0.55129 0.67304 0.0
C594 C 0.19561 0.64048 0.55257 0.0
C595 C 0.17209 0.64351 0.51611 0.0
C596 C 0.21307 0.67938 0.45689 0.0
C597 C 0.19403 0.70009 0.44665 0.0
C598 C 0.21433 0.73299 0.42093 0.0
C599 C 0.25441 0.74537 0.40514 0.0
C600 C 0.27306 0.72385 0.41453 0.0
C601 C 0.25178 0.69076 0.43989 0.0
C602 C 0.19312 0.75476 0.41084 0.0
C603 C 0.31581 0.73622 0.39835 0.0
C604 C 0.45169 0.06845 0.44448 0.0
C605 C 0.43532 0.02631 0.45708 0.0
C606 C 0.40688 0.96753 0.41981 0.0
C607 C 0.4232 0.94526 0.4106 0.0
C608 C 0.39602 0.90599 0.40099 0.0
C609 C 0.35165 0.88924 0.39914 0.0
C610 C 0.3349 0.91112 0.4104 0.0
C611 C 0.3628 0.95017 0.4207 0.0
C612 C 0.4148 0.88319 0.38987 0.0
C613 C 0.28776 0.89409 0.40872 0.0
C614 C 0.38846 0.96677 0.15418 0.0
C615 C 0.40753 0.94538 0.16009 0.0
C616 C 0.38435 0.90723 0.17633 0.0
C617 C 0.34126 0.89009 0.18635 0.0
C618 C 0.32142 0.91074 0.17825 0.0
C619 C 0.3454 0.94889 0.16239 0.0
C620 C 0.40635 0.88587 0.1845 0.0
C621 C 0.2754 0.89316 0.18814 0.0
C622 C 0.11932 0.59474 0.16329 0.0
C623 C 0.13552 0.61694 0.12343 0.0
C624 C 0.2004 0.6772 0.1458 0.0
C625 C 0.24425 0.69536 0.15082 0.0
C626 C 0.26824 0.72951 0.17239 0.0
C627 C 0.24773 0.74619 0.18883 0.0
C628 C 0.20351 0.72862 0.18292 0.0
C629 C 0.18021 0.69413 0.16175 0.0
C630 C 0.31543 0.74768 0.1777 0.0
C631 C 0.18087 0.74633 0.19897 0.0
C632 C 0.2775 0.78165 0.3801 0.0
C633 C 0.30182 0.81712 0.3994 0.0
C634 C 0.32428 0.8524 0.37783 0.0
C635 C 0.32234 0.85264 0.33594 0.0
C636 C 0.34411 0.88781 0.31351 0.0
C637 C 0.343 0.88795 0.27243 0.0
C638 C 0.31985 0.85296 0.25196 0.0
C639 C 0.31866 0.85303 0.21008 0.0
C640 C 0.29515 0.81786 0.19047 0.0
C641 C 0.27261 0.78229 0.21172 0.0
C642 C 0.27356 0.78162 0.25376 0.0
C643 C 0.25148 0.74643 0.2762 0.0
C644 C 0.25235 0.7463 0.31755 0.0
C645 C 0.27583 0.7813 0.33808 0.0
C646 C 0.29841 0.81701 0.31601 0.0
C647 C 0.29725 0.81717 0.27388 0.0
C648 C 0.46685 0.0709 0.13614 0.0
C649 C 0.45302 0.02843 0.13259 0.0
O650 O 0.19477 0.648 0.48244 0.0
O651 O 0.17909 0.64353 0.12555 0.0
O652 O 0.41014 0.0046 0.14104 0.0
O653 O 0.43419 0.00632 0.42458 0.0
H654 H 0.17007 0.66928 0.51991 0.0
H655 H 0.22816 0.66714 0.55415 0.0
H656 H 0.17875 0.6379 0.58014 0.0
H657 H 0.19818 0.61481 0.55081 0.0
H658 H 0.16318 0.69043 0.45838 0.0
H659 H 0.26587 0.6742 0.44748 0.0
H660 H 0.21247 0.78445 0.42292 0.0
H661 H 0.16059 0.73981 0.42309 0.0
H662 H 0.19126 0.75807 0.37814 0.0
H663 H 0.32665 0.71711 0.40955 0.0
H664 H 0.3399 0.76666 0.4066 0.0
H665 H 0.31409 0.73557 0.36547 0.0
H666 H 0.40308 0.01324 0.46961 0.0
H667 H 0.4537 0.08514 0.4705 0.0
H668 H 0.42948 0.069 0.42231 0.0
H669 H 0.48359 0.08285 0.43089 0.0
H670 H 0.45734 0.95899 0.41011 0.0
H671 H 0.35029 0.9677 0.42719 0.0
H672 H 0.41453 0.8817 0.35709 0.0
H673 H 0.39573 0.85291 0.4023 0.0
H674 H 0.44798 0.89693 0.40062 0.0
H675 H 0.27945 0.91352 0.42176 0.0
H676 H 0.27049 0.86542 0.42482 0.0
H677 H 0.27665 0.88913 0.37735 0.0
H678 H 0.47249 0.02353 0.15455 0.0
H679 H 0.44053 0.95834 0.15281 0.0
H680 H 0.33081 0.96538 0.15719 0.0
H681 H 0.40893 0.88219 0.21704 0.0
H682 H 0.43874 0.90161 0.17178 0.0
H683 H 0.38729 0.85631 0.17205 0.0
H684 H 0.26358 0.91138 0.1765 0.0
H685 H 0.27161 0.8899 0.22084 0.0
H686 H 0.25539 0.86365 0.17572 0.0
H687 H 0.11912 0.6322 0.11556 0.0
H688 H 0.12586 0.61505 0.18731 0.0
H689 H 0.13515 0.57895 0.171 0.0
H690 H 0.08445 0.57335 0.16169 0.0
H691 H 0.25961 0.68227 0.13818 0.0
H692 H 0.14638 0.68078 0.15779 0.0
H693 H 0.32436 0.7528 0.20959 0.0
H694 H 0.33292 0.7764 0.16172 0.0
H695 H 0.32585 0.7292 0.16623 0.0
H696 H 0.14736 0.73141 0.18844 0.0
H697 H 0.19768 0.77767 0.19002 0.0
H698 H 0.18109 0.74439 0.23187 0.0
H699 H 0.30359 0.81723 0.43155 0.0
H700 H 0.36239 0.91581 0.32735 0.0
H701 H 0.36063 0.916 0.257 0.0
H702 H 0.29414 0.8182 0.15829 0.0
H703 H 0.23317 0.71859 0.26202 0.0
H704 H 0.23458 0.71839 0.33325 0.0
H705 H 0.44935 0.07831 0.11426 0.0
H706 H 0.50153 0.09084 0.13105 0.0
H707 H 0.46007 0.07562 0.16642 0.0
C708 C 0.56409 0.08389 0.68274 0.0
C709 C 0.53157 0.08196 0.65286 0.0
C710 C 0.53302 0.14164 0.64086 0.0
C711 C 0.56152 0.18024 0.65121 0.0
C712 C 0.54706 0.20418 0.6602 0.0
C713 C 0.50307 0.18934 0.65735 0.0
C714 C 0.47455 0.15128 0.64339 0.0
C715 C 0.4898 0.12754 0.63586 0.0
C716 C 0.57858 0.24477 0.67437 0.0
C717 C 0.42781 0.13514 0.63815 0.0
C718 C 0.4101 0.37843 0.57981 0.0
C719 C 0.4468 0.38566 0.55398 0.0
C720 C 0.47888 0.35714 0.59602 0.0
C721 C 0.44466 0.31808 0.59376 0.0
C722 C 0.44497 0.28851 0.61609 0.0
C723 C 0.48071 0.29794 0.6402 0.0
C724 C 0.51639 0.33677 0.64038 0.0
C725 C 0.51466 0.36594 0.61879 0.0
C726 C 0.40663 0.24726 0.61465 0.0
C727 C 0.55585 0.34785 0.66435 0.0
C728 C 0.43231 0.33298 0.89806 0.0
C729 C 0.39646 0.30683 0.87528 0.0
C730 C 0.39677 0.27922 0.85216 0.0
C731 C 0.43396 0.27849 0.85095 0.0
C732 C 0.47056 0.30584 0.87257 0.0
C733 C 0.46911 0.33255 0.89597 0.0
C734 C 0.35718 0.25038 0.82953 0.0
C735 C 0.51104 0.30638 0.87156 0.0
C736 C 0.37028 0.97749 0.9027 0.0
C737 C 0.39964 0.02179 0.90443 0.0
C738 C 0.38944 0.07462 0.88568 0.0
C739 C 0.35936 0.08206 0.87083 0.0
C740 C 0.37168 0.11875 0.85449 0.0
C741 C 0.41524 0.14908 0.85412 0.0
C742 C 0.44566 0.14252 0.87165 0.0
C743 C 0.43256 0.10511 0.88659 0.0
C744 C 0.33825 0.12472 0.83646 0.0
C745 C 0.49215 0.17464 0.87336 0.0
C746 C 0.48682 0.21191 0.67369 0.0
C747 C 0.48952 0.24241 0.65071 0.0
C748 C 0.47959 0.26748 0.66667 0.0
C749 C 0.46818 0.263 0.70708 0.0
C750 C 0.46132 0.28945 0.72514 0.0
C751 C 0.45116 0.28519 0.76519 0.0
C752 C 0.44534 0.25323 0.78819 0.0
C753 C 0.43436 0.24814 0.82874 0.0
C754 C 0.42552 0.21435 0.84976 0.0
C755 C 0.42899 0.18609 0.83181 0.0
C756 C 0.44329 0.19228 0.79232 0.0
C757 C 0.45027 0.16593 0.77434 0.0
C758 C 0.46564 0.17287 0.73601 0.0
C759 C 0.47194 0.20504 0.71305 0.0
C760 C 0.46351 0.23116 0.73004 0.0
C761 C 0.45069 0.22556 0.77021 0.0
C762 C 0.36785 0.32907 0.95881 0.0
C763 C 0.40012 0.36308 0.93194 0.0
O764 O 0.54816 0.11877 0.6356 0.0
O765 O 0.37546 0.03781 0.89901 0.0
O766 O 0.43295 0.35861 0.92292 0.0
O767 O 0.47864 0.38722 0.57754 0.0
H768 H 0.50177 0.07196 0.66909 0.0
H769 H 0.57131 0.10552 0.70555 0.0
H770 H 0.594 0.09272 0.66748 0.0
H771 H 0.55134 0.05504 0.69786 0.0
H772 H 0.59499 0.19096 0.65406 0.0
H773 H 0.46806 0.09797 0.62634 0.0
H774 H 0.57748 0.26642 0.65434 0.0
H775 H 0.61162 0.25173 0.67536 0.0
H776 H 0.56998 0.24791 0.70451 0.0
H777 H 0.41155 0.10857 0.62014 0.0
H778 H 0.42302 0.15736 0.62369 0.0
H779 H 0.41261 0.12747 0.66767 0.0
H780 H 0.43474 0.36201 0.5323 0.0
H781 H 0.39381 0.34912 0.59446 0.0
H782 H 0.38631 0.38023 0.56109 0.0
H783 H 0.42196 0.40041 0.60321 0.0
H784 H 0.41725 0.31043 0.57533 0.0
H785 H 0.54124 0.39601 0.61998 0.0
H786 H 0.41601 0.22795 0.60342 0.0
H787 H 0.38083 0.24482 0.59529 0.0
H788 H 0.39404 0.23651 0.64501 0.0
H789 H 0.58403 0.37527 0.65258 0.0
H790 H 0.56253 0.32458 0.66442 0.0
H791 H 0.55115 0.35226 0.6955 0.0
H792 H 0.3839 0.36448 0.90434 0.0
H793 H 0.36802 0.30736 0.87577 0.0
H794 H 0.49673 0.35306 0.9133 0.0
H795 H 0.36412 0.25352 0.79738 0.0
H796 H 0.3306 0.25435 0.83391 0.0
H797 H 0.34686 0.22024 0.83921 0.0
H798 H 0.5376 0.33125 0.88775 0.0
H799 H 0.52063 0.30816 0.84037 0.0
H800 H 0.50549 0.27885 0.88519 0.0
H801 H 0.4228 0.03143 0.87991 0.0
H802 H 0.38898 0.96385 0.90529 0.0
H803 H 0.35268 0.96931 0.87396 0.0
H804 H 0.34702 0.96598 0.92722 0.0
H805 H 0.32614 0.05849 0.87085 0.0
H806 H 0.4561 0.09994 0.89883 0.0
H807 H 0.34554 0.13417 0.80482 0.0
H808 H 0.33849 0.14817 0.85203 0.0
H809 H 0.30584 0.09786 0.83829 0.0
H810 H 0.51024 0.16714 0.89432 0.0
H811 H 0.49619 0.20222 0.88246 0.0
H812 H 0.50603 0.17984 0.84344 0.0
H813 H 0.49997 0.24699 0.62023 0.0
H814 H 0.46446 0.31416 0.70875 0.0
H815 H 0.44712 0.30685 0.77771 0.0
H816 H 0.41583 0.20999 0.88048 0.0
H817 H 0.44488 0.14001 0.78992 0.0
H818 H 0.47168 0.15213 0.72445 0.0
H819 H 0.35227 0.30105 0.9434 0.0
H820 H 0.3838 0.32671 0.98608 0.0
H821 H 0.34277 0.33382 0.96748 0.0
loop_
_geom_bond_atom_site_label_1
_geom_bond_atom_site_label_2
_geom_bond_distance
_geom_bond_site_symmetry_2
_ccdc_geom_bond_type
Cu0 N1 1.999 1_454 S
Cu0 O6 1.974 1_454 S
Cu0 N11 1.985 . S
Cu0 O20 1.959 . S
N1 Cu0 1.999 1_656 S
N1 C3 1.263 . S
N1 C5 1.389 1_556 S
N2 C3 1.358 . S
N2 C4 1.400 . S
C3 N1 1.263 . S
C3 N2 1.358 . S
C3 H9 0.930 . S
C4 N2 1.400 . S
C4 C5 1.351 1_556 S
C4 H21 0.930 . S
C5 N1 1.389 1_554 S
C5 C4 1.351 1_554 S
C5 H10 0.930 . S
O6 Cu0 1.974 1_656 S
O6 C16 1.282 1_655 S
C7 O8 1.261 . S
C7 O20 1.251 . S
O8 C7 1.261 . S
H9 C3 0.930 . S
H10 C5 0.930 . S
N11 Cu0 1.985 . S
N11 C13 1.335 . S
N11 C14 1.390 . S
N12 C13 1.345 . S
N12 C15 1.336 . S
C13 N11 1.335 . S
C13 N12 1.345 . S
C13 H18 0.930 . S
C14 N11 1.390 . S
C14 C15 1.346 . S
C14 H19 0.930 1_554 S
C15 N12 1.336 . S
C15 C14 1.346 . S
C15 H22 0.929 . S
C16 O6 1.282 1_455 S
C16 O17 1.216 . S
O17 C16 1.216 . S
H18 C13 0.930 . S
H19 C14 0.930 1_556 S
O20 Cu0 1.959 . S
O20 C7 1.251 . S
H21 C4 0.930 . S
H22 C15 0.929 . S
Cu23 N24 1.999 . S
Cu23 O29 1.974 . S
Cu23 N34 1.985 1_565 S
Cu23 O43 1.959 1_565 S
N24 Cu23 1.999 . S
N24 C26 1.263 . S
N24 C28 1.389 . S
N25 C26 1.358 . S
N25 C27 1.400 . S
C26 N24 1.263 . S
C26 N25 1.358 . S
C26 H32 0.930 . S
C27 N25 1.400 . S
C27 C28 1.351 . S
C27 H44 0.930 . S
C28 N24 1.389 . S
C28 C27 1.351 . S
C28 H33 0.930 . S
O29 Cu23 1.974 . S
O29 C39 1.282 . S
C30 O31 1.261 . S
C30 O43 1.251 . S
O31 C30 1.261 . S
H32 C26 0.930 . S
H33 C28 0.930 . S
N34 Cu23 1.985 1_545 S
N34 C36 1.335 . S
N34 C37 1.390 . S
N35 C36 1.345 . S
N35 C38 1.336 . S
C36 N34 1.335 . S
C36 N35 1.345 . S
C36 H41 0.930 . S
C37 N34 1.390 . S
C37 C38 1.346 . S
C37 H42 0.930 . S
C38 N35 1.336 . S
C38 C37 1.346 . S
C38 H45 0.929 . S
C39 O29 1.282 . S
C39 O40 1.216 1_565 S
O40 C39 1.216 1_545 S
H41 C36 0.930 . S
H42 C37 0.930 . S
O43 Cu23 1.959 1_545 S
O43 C30 1.251 . S
H44 C27 0.930 . S
H45 C38 0.929 . S
Cu46 N47 1.999 1_554 S
Cu46 O52 1.974 1_554 S
Cu46 N57 1.985 . S
Cu46 O66 1.959 . S
N47 Cu46 1.999 1_556 S
N47 C49 1.263 . S
N47 C51 1.389 . S
N48 C49 1.358 . S
N48 C50 1.400 . S
C49 N47 1.263 . S
C49 N48 1.358 . S
C49 H55 0.930 . S
C50 N48 1.400 . S
C50 C51 1.351 . S
C50 H67 0.930 . S
C51 N47 1.389 . S
C51 C50 1.351 . S
C51 H56 0.930 . S
O52 Cu46 1.974 1_556 S
O52 C62 1.282 . S
C53 O54 1.261 . S
C53 O66 1.251 . S
O54 C53 1.261 . S
H55 C49 0.930 . S
H56 C51 0.930 . S
N57 Cu46 1.985 . S
N57 C59 1.335 . S
N57 C60 1.390 . S
N58 C59 1.345 . S
N58 C61 1.336 . S
C59 N57 1.335 . S
C59 N58 1.345 . S
C59 H64 0.930 . S
C60 N57 1.390 . S
C60 C61 1.346 . S
C60 H65 0.930 . S
C61 N58 1.336 . S
C61 C60 1.346 . S
C61 H68 0.929 . S
C62 O52 1.282 . S
C62 O63 1.216 1_556 S
O63 C62 1.216 1_554 S
H64 C59 0.930 . S
H65 C60 0.930 . S
O66 Cu46 1.959 . S
O66 C53 1.251 . S
H67 C50 0.930 . S
H68 C61 0.929 . S
Cu69 N70 1.999 1_655 S
Cu69 O75 1.974 1_655 S
Cu69 N80 1.985 . S
Cu69 O89 1.959 . S
N70 Cu69 1.999 1_455 S
N70 C72 1.263 . S
N70 C74 1.389 1_455 S
N71 C72 1.358 . S
N71 C73 1.400 . S
C72 N70 1.263 . S
C72 N71 1.358 . S
C72 H78 0.930 . S
C73 N71 1.400 . S
C73 C74 1.351 1_455 S
C73 H90 0.930 1_455 S
C74 N70 1.389 1_655 S
C74 C73 1.351 1_655 S
C74 H79 0.930 . S
O75 Cu69 1.974 1_455 S
O75 C85 1.282 . S
C76 O77 1.261 1_655 S
C76 O89 1.251 . S
O77 C76 1.261 1_455 S
H78 C72 0.930 . S
H79 C74 0.930 . S
N80 Cu69 1.985 . S
N80 C82 1.335 . S
N80 C83 1.390 . S
N81 C82 1.345 . S
N81 C84 1.336 . S
C82 N80 1.335 . S
C82 N81 1.345 . S
C82 H87 0.930 . S
C83 N80 1.390 . S
C83 C84 1.346 . S
C83 H88 0.930 1_655 S
C84 N81 1.336 . S
C84 C83 1.346 . S
C84 H91 0.929 . S
C85 O75 1.282 . S
C85 O86 1.216 . S
O86 C85 1.216 . S
H87 C82 0.930 . S
H88 C83 0.930 1_455 S
O89 Cu69 1.959 . S
O89 C76 1.251 . S
H90 C73 0.930 1_655 S
H91 C84 0.929 . S
Cu92 N93 1.999 . S
Cu92 O98 1.974 1_554 S
Cu92 N103 1.985 1_545 S
Cu92 O112 1.959 1_545 S
N93 Cu92 1.999 . S
N93 C95 1.263 1_554 S
N93 C97 1.389 . S
N94 C95 1.358 . S
N94 C96 1.400 1_556 S
C95 N93 1.263 1_556 S
C95 N94 1.358 . S
C95 H101 0.930 . S
C96 N94 1.400 1_554 S
C96 C97 1.351 . S
C96 H113 0.930 . S
C97 N93 1.389 . S
C97 C96 1.351 . S
C97 H102 0.930 . S
O98 Cu92 1.974 1_556 S
O98 C108 1.282 . S
C99 O100 1.261 . S
C99 O112 1.253 . S
O100 C99 1.261 . S
H101 C95 0.930 . S
H102 C97 0.930 . S
N103 Cu92 1.985 1_565 S
N103 C105 1.335 . S
N103 C106 1.390 . S
N104 C105 1.345 . S
N104 C107 1.336 . S
C105 N103 1.335 . S
C105 N104 1.345 . S
C105 H110 0.930 . S
C106 N103 1.390 . S
C106 C107 1.346 . S
C106 H111 0.930 1_565 S
C107 N104 1.336 . S
C107 C106 1.346 . S
C107 H114 0.929 . S
C108 O98 1.282 . S
C108 O109 1.216 . S
O109 C108 1.216 . S
H110 C105 0.930 . S
H111 C106 0.930 1_545 S
O112 Cu92 1.959 1_565 S
O112 C99 1.253 . S
H113 C96 0.930 . S
H114 C107 0.929 . S
Cu115 N116 1.999 . S
Cu115 O121 1.974 . S
Cu115 N126 1.985 . S
Cu115 O135 1.959 . S
N116 Cu115 1.999 . S
N116 C118 1.263 . S
N116 C120 1.389 . S
N117 C118 1.358 . S
N117 C119 1.400 . S
C118 N116 1.263 . S
C118 N117 1.358 . S
C118 H124 0.930 . S
C119 N117 1.400 . S
C119 C120 1.351 . S
C119 H136 0.930 . S
C120 N116 1.389 . S
C120 C119 1.351 . S
C120 H125 0.930 . S
O121 Cu115 1.974 . S
O121 C131 1.282 . S
C122 O123 1.261 . S
C122 O135 1.251 . S
O123 C122 1.261 . S
H124 C118 0.930 . S
H125 C120 0.930 . S
N126 Cu115 1.985 . S
N126 C128 1.335 . S
N126 C129 1.390 . S
N127 C128 1.345 . S
N127 C130 1.336 . S
C128 N126 1.335 . S
C128 N127 1.345 . S
C128 H133 0.930 . S
C129 N126 1.390 . S
C129 C130 1.346 . S
C129 H134 0.930 . S
C130 N127 1.336 . S
C130 C129 1.346 . S
C130 H137 0.929 . S
C131 O121 1.282 . S
C131 O132 1.216 . S
O132 C131 1.216 . S
H133 C128 0.930 . S
H134 C129 0.930 . S
O135 Cu115 1.959 . S
O135 C122 1.251 . S
H136 C119 0.930 . S
H137 C130 0.929 . S
C138 C139 1.561 1_655 S
C138 H199 0.961 1_655 S
C138 H200 0.958 . S
C138 H201 0.959 . S
C139 C138 1.561 1_455 S
C139 O194 1.426 . S
C139 H198 0.980 . S
C140 C141 1.407 . S
C140 C145 1.418 . S
C140 O194 1.334 . S
C141 C140 1.407 . S
C141 C142 1.360 . S
C141 H202 0.929 . S
C142 C141 1.360 . S
C142 C143 1.401 . S
C142 C146 1.527 . S
C143 C142 1.401 . S
C143 C144 1.405 . S
C143 C176 1.587 . S
C144 C143 1.405 . S
C144 C145 1.332 . S
C144 C147 1.496 . S
C145 C140 1.418 . S
C145 C144 1.332 . S
C145 H203 0.929 . S
C146 C142 1.527 . S
C146 H204 0.959 . S
C146 H205 0.961 . S
C146 H206 0.961 . S
C147 C144 1.496 . S
C147 H207 0.960 . S
C147 H208 0.960 . S
C147 H209 0.961 . S
C148 C149 1.517 . S
C148 H211 0.961 . S
C148 H212 0.960 . S
C148 H213 0.959 . S
C149 C148 1.517 . S
C149 O197 1.468 . S
C149 H210 0.980 . S
C150 C151 1.349 . S
C150 C155 1.367 . S
C150 O197 1.408 . S
C151 C150 1.349 . S
C151 C152 1.407 . S
C151 H214 0.930 . S
C152 C151 1.407 . S
C152 C153 1.449 . S
C152 C156 1.535 . S
C153 C152 1.449 . S
C153 C154 1.384 . S
C153 C178 1.553 . S
C154 C153 1.384 . S
C154 C155 1.364 . S
C154 C157 1.450 . S
C155 C150 1.367 . S
C155 C154 1.364 . S
C155 H215 0.931 . S
C156 C152 1.535 . S
C156 H216 0.959 . S
C156 H217 0.961 . S
C156 H218 0.959 . S
C157 C154 1.450 . S
C157 H219 0.960 . S
C157 H220 0.960 . S
C157 H221 0.960 . S
C158 C159 1.309 . S
C158 C163 1.304 . S
C158 O196 1.435 . S
C159 C158 1.309 . S
C159 C160 1.476 . S
C159 H223 0.930 . S
C160 C159 1.476 . S
C160 C161 1.400 . S
C160 C164 1.567 . S
C161 C160 1.400 . S
C161 C162 1.373 . S
C161 C183 1.432 . S
C162 C161 1.373 . S
C162 C163 1.339 . S
C162 C165 1.530 . S
C163 C158 1.304 . S
C163 C162 1.339 . S
C163 H224 0.930 . S
C164 C160 1.567 . S
C164 H225 0.961 . S
C164 H226 0.960 . S
C164 H227 0.958 . S
C165 C162 1.530 . S
C165 H228 0.961 . S
C165 H229 0.960 . S
C165 H230 0.960 . S
C166 C167 1.530 . S
C166 H232 0.961 1_455 S
C166 H233 0.961 1_455 S
C166 H234 0.959 . S
C167 C166 1.530 . S
C167 O195 1.412 . S
C167 H231 0.980 . S
C168 C169 1.288 . S
C168 C173 1.377 . S
C168 O195 1.393 . S
C169 C168 1.288 . S
C169 C170 1.369 . S
C169 H235 0.932 . S
C170 C169 1.369 . S
C170 C171 1.398 . S
C170 C174 1.527 . S
C171 C170 1.398 . S
C171 C172 1.380 . S
C171 C185 1.497 . S
C172 C171 1.380 . S
C172 C173 1.383 . S
C172 C175 1.603 . S
C173 C168 1.377 . S
C173 C172 1.383 . S
C173 H236 0.929 . S
C174 C170 1.527 . S
C174 H237 0.961 . S
C174 H238 0.959 . S
C174 H239 0.959 . S
C175 C172 1.603 . S
C175 H240 0.960 . S
C175 H241 0.962 . S
C175 H242 0.961 . S
C176 C143 1.587 . S
C176 C177 1.360 . S
C176 C189 1.412 . S
C177 C176 1.360 . S
C177 C178 1.365 . S
C177 H243 0.929 . S
C178 C153 1.553 . S
C178 C177 1.365 . S
C178 C179 1.404 . S
C179 C178 1.404 . S
C179 C180 1.395 . S
C179 C190 1.451 . S
C180 C179 1.395 . S
C180 C181 1.322 . S
C180 H244 0.930 . S
C181 C180 1.322 . S
C181 C182 1.459 . S
C181 H245 0.929 . S
C182 C181 1.459 . S
C182 C183 1.445 . S
C182 C191 1.395 . S
C183 C161 1.432 . S
C183 C182 1.445 . S
C183 C184 1.370 . S
C184 C183 1.370 . S
C184 C185 1.438 . S
C184 H246 0.930 . S
C185 C171 1.497 . S
C185 C184 1.438 . S
C185 C186 1.360 . S
C186 C185 1.360 . S
C186 C187 1.401 . S
C186 C191 1.446 . S
C187 C186 1.401 . S
C187 C188 1.347 . S
C187 H247 0.929 . S
C188 C187 1.347 . S
C188 C189 1.455 . S
C188 H248 0.930 . S
C189 C176 1.412 . S
C189 C188 1.455 . S
C189 C190 1.331 . S
C190 C179 1.451 . S
C190 C189 1.331 . S
C190 C191 1.497 . S
C191 C182 1.395 . S
C191 C186 1.446 . S
C191 C190 1.497 . S
C192 C193 1.582 . S
C192 H249 0.962 . S
C192 H250 0.959 . S
C192 H251 0.958 . S
C193 C192 1.582 . S
C193 O196 1.458 . S
C193 H222 0.980 . S
O194 C139 1.426 . S
O194 C140 1.334 . S
O195 C167 1.412 . S
O195 C168 1.393 . S
O196 C158 1.435 . S
O196 C193 1.458 . S
O197 C149 1.468 . S
O197 C150 1.408 . S
H198 C139 0.980 . S
H199 C138 0.961 1_455 S
H200 C138 0.958 . S
H201 C138 0.959 . S
H202 C141 0.929 . S
H203 C145 0.929 . S
H204 C146 0.959 . S
H205 C146 0.961 . S
H206 C146 0.961 . S
H207 C147 0.960 . S
H208 C147 0.960 . S
H209 C147 0.961 . S
H210 C149 0.980 . S
H211 C148 0.961 . S
H212 C148 0.960 . S
H213 C148 0.959 . S
H214 C151 0.930 . S
H215 C155 0.931 . S
H216 C156 0.959 . S
H217 C156 0.961 . S
H218 C156 0.959 . S
H219 C157 0.960 . S
H220 C157 0.960 . S
H221 C157 0.960 . S
H222 C193 0.980 . S
H223 C159 0.930 . S
H224 C163 0.930 . S
H225 C164 0.961 . S
H226 C164 0.960 . S
H227 C164 0.958 . S
H228 C165 0.961 . S
H229 C165 0.960 . S
H230 C165 0.960 . S
H231 C167 0.980 . S
H232 C166 0.961 1_655 S
H233 C166 0.961 1_655 S
H234 C166 0.959 . S
H235 C169 0.932 . S
H236 C173 0.929 . S
H237 C174 0.961 . S
H238 C174 0.959 . S
H239 C174 0.959 . S
H240 C175 0.960 . S
H241 C175 0.962 . S
H242 C175 0.961 . S
H243 C177 0.929 . S
H244 C180 0.930 . S
H245 C181 0.929 . S
H246 C184 0.930 . S
H247 C187 0.929 . S
H248 C188 0.930 . S
H249 C192 0.962 . S
H250 C192 0.959 . S
H251 C192 0.958 . S
C252 C253 1.560 . S
C252 H313 0.959 . S
C252 H314 0.959 . S
C252 H315 0.960 . S
C253 C252 1.560 . S
C253 O308 1.426 . S
C253 H312 0.980 . S
C254 C255 1.407 . S
C254 C259 1.418 . S
C254 O308 1.334 . S
C255 C254 1.407 . S
C255 C256 1.360 . S
C255 H316 0.929 . S
C256 C255 1.360 . S
C256 C257 1.401 . S
C256 C260 1.527 . S
C257 C256 1.401 . S
C257 C258 1.405 . S
C257 C290 1.587 . S
C258 C257 1.405 . S
C258 C259 1.332 . S
C258 C261 1.496 . S
C259 C254 1.418 . S
C259 C258 1.332 . S
C259 H317 0.929 . S
C260 C256 1.527 . S
C260 H318 0.959 . S
C260 H319 0.961 . S
C260 H320 0.961 . S
C261 C258 1.496 . S
C261 H321 0.960 . S
C261 H322 0.960 . S
C261 H323 0.961 . S
C262 C263 1.517 1_565 S
C262 H325 0.961 . S
C262 H326 0.960 . S
C262 H327 0.959 . S
C263 C262 1.517 1_545 S
C263 O311 1.468 . S
C263 H324 0.980 . S
C264 C265 1.349 . S
C264 C269 1.367 . S
C264 O311 1.408 . S
C265 C264 1.349 . S
C265 C266 1.407 . S
C265 H328 0.930 . S
C266 C265 1.407 . S
C266 C267 1.449 . S
C266 C270 1.535 . S
C267 C266 1.449 . S
C267 C268 1.384 . S
C267 C292 1.553 . S
C268 C267 1.384 . S
C268 C269 1.364 . S
C268 C271 1.450 . S
C269 C264 1.367 . S
C269 C268 1.364 . S
C269 H329 0.931 . S
C270 C266 1.535 . S
C270 H330 0.959 . S
C270 H331 0.961 . S
C270 H332 0.959 . S
C271 C268 1.450 . S
C271 H333 0.960 . S
C271 H334 0.960 . S
C271 H335 0.960 . S
C272 C273 1.309 . S
C272 C277 1.304 . S
C272 O310 1.435 . S
C273 C272 1.309 . S
C273 C274 1.476 . S
C273 H337 0.930 . S
C274 C273 1.476 . S
C274 C275 1.400 . S
C274 C278 1.567 . S
C275 C274 1.400 . S
C275 C276 1.373 . S
C275 C297 1.432 . S
C276 C275 1.373 . S
C276 C277 1.339 . S
C276 C279 1.530 . S
C277 C272 1.304 . S
C277 C276 1.339 . S
C277 H338 0.930 . S
C278 C274 1.567 . S
C278 H339 0.961 . S
C278 H340 0.960 . S
C278 H341 0.958 . S
C279 C276 1.530 . S
C279 H342 0.961 . S
C279 H343 0.960 . S
C279 H344 0.960 . S
C280 C281 1.530 . S
C280 H346 0.961 1_655 S
C280 H347 0.961 . S
C280 H348 0.959 . S
C281 C280 1.530 . S
C281 O309 1.412 . S
C281 H345 0.980 . S
C282 C283 1.288 . S
C282 C287 1.377 . S
C282 O309 1.393 . S
C283 C282 1.288 . S
C283 C284 1.369 . S
C283 H349 0.932 . S
C284 C283 1.369 . S
C284 C285 1.398 . S
C284 C288 1.527 . S
C285 C284 1.398 . S
C285 C286 1.380 . S
C285 C299 1.497 . S
C286 C285 1.380 . S
C286 C287 1.383 . S
C286 C289 1.603 . S
C287 C282 1.377 . S
C287 C286 1.383 . S
C287 H350 0.929 . S
C288 C284 1.527 . S
C288 H351 0.961 . S
C288 H352 0.959 . S
C288 H353 0.959 . S
C289 C286 1.603 . S
C289 H354 0.960 . S
C289 H355 0.962 . S
C289 H356 0.961 . S
C290 C257 1.587 . S
C290 C291 1.360 . S
C290 C303 1.412 . S
C291 C290 1.360 . S
C291 C292 1.365 . S
C291 H357 0.929 . S
C292 C267 1.553 . S
C292 C291 1.365 . S
C292 C293 1.404 . S
C293 C292 1.404 . S
C293 C294 1.395 . S
C293 C304 1.451 . S
C294 C293 1.395 . S
C294 C295 1.322 . S
C294 H358 0.930 . S
C295 C294 1.322 . S
C295 C296 1.459 . S
C295 H359 0.929 . S
C296 C295 1.459 . S
C296 C297 1.445 . S
C296 C305 1.395 . S
C297 C275 1.432 . S
C297 C296 1.445 . S
C297 C298 1.370 . S
C298 C297 1.370 . S
C298 C299 1.438 . S
C298 H360 0.930 . S
C299 C285 1.497 . S
C299 C298 1.438 . S
C299 C300 1.360 . S
C300 C299 1.360 . S
C300 C301 1.401 . S
C300 C305 1.446 . S
C301 C300 1.401 . S
C301 C302 1.347 . S
C301 H361 0.929 . S
C302 C301 1.347 . S
C302 C303 1.455 . S
C302 H362 0.930 . S
C303 C290 1.412 . S
C303 C302 1.455 . S
C303 C304 1.331 . S
C304 C293 1.451 . S
C304 C303 1.331 . S
C304 C305 1.497 . S
C305 C296 1.395 . S
C305 C300 1.446 . S
C305 C304 1.497 . S
C306 C307 1.582 1_565 S
C306 H363 0.962 . S
C306 H364 0.959 . S
C306 H365 0.958 . S
C307 C306 1.582 1_545 S
C307 O310 1.458 . S
C307 H336 0.980 . S
O308 C253 1.426 . S
O308 C254 1.334 . S
O309 C281 1.412 . S
O309 C282 1.393 . S
O310 C272 1.435 . S
O310 C307 1.458 . S
O311 C263 1.468 . S
O311 C264 1.408 . S
H312 C253 0.980 . S
H313 C252 0.959 . S
H314 C252 0.959 . S
H315 C252 0.960 . S
H316 C255 0.929 . S
H317 C259 0.929 . S
H318 C260 0.959 . S
H319 C260 0.961 . S
H320 C260 0.961 . S
H321 C261 0.960 . S
H322 C261 0.960 . S
H323 C261 0.961 . S
H324 C263 0.980 . S
H325 C262 0.961 . S
H326 C262 0.960 . S
H327 C262 0.959 . S
H328 C265 0.930 . S
H329 C269 0.931 . S
H330 C270 0.959 . S
H331 C270 0.961 . S
H332 C270 0.959 . S
H333 C271 0.960 . S
H334 C271 0.960 . S
H335 C271 0.960 . S
H336 C307 0.980 . S
H337 C273 0.930 . S
H338 C277 0.930 . S
H339 C278 0.961 . S
H340 C278 0.960 . S
H341 C278 0.958 . S
H342 C279 0.961 . S
H343 C279 0.960 . S
H344 C279 0.960 . S
H345 C281 0.980 . S
H346 C280 0.961 1_455 S
H347 C280 0.961 . S
H348 C280 0.959 . S
H349 C283 0.932 . S
H350 C287 0.929 . S
H351 C288 0.961 . S
H352 C288 0.959 . S
H353 C288 0.959 . S
H354 C289 0.960 . S
H355 C289 0.962 . S
H356 C289 0.961 . S
H357 C291 0.929 . S
H358 C294 0.930 . S
H359 C295 0.929 . S
H360 C298 0.930 . S
H361 C301 0.929 . S
H362 C302 0.930 . S
H363 C306 0.962 . S
H364 C306 0.959 . S
H365 C306 0.958 . S
C366 C367 1.560 . S
C366 H427 0.959 . S
C366 H428 0.959 . S
C366 H429 0.960 . S
C367 C366 1.560 . S
C367 O422 1.426 . S
C367 H426 0.980 . S
C368 C369 1.407 . S
C368 C373 1.418 . S
C368 O422 1.334 . S
C369 C368 1.407 . S
C369 C370 1.360 . S
C369 H430 0.929 . S
C370 C369 1.360 . S
C370 C371 1.401 . S
C370 C374 1.527 . S
C371 C370 1.401 . S
C371 C372 1.405 . S
C371 C404 1.587 . S
C372 C371 1.405 . S
C372 C373 1.332 . S
C372 C375 1.496 . S
C373 C368 1.418 . S
C373 C372 1.332 . S
C373 H431 0.929 . S
C374 C370 1.527 . S
C374 H432 0.959 . S
C374 H433 0.961 . S
C374 H434 0.961 . S
C375 C372 1.496 . S
C375 H435 0.960 . S
C375 H436 0.960 . S
C375 H437 0.961 . S
C376 C377 1.517 . S
C376 H439 0.961 1_565 S
C376 H440 0.960 . S
C376 H441 0.959 1_565 S
C377 C376 1.517 . S
C377 O425 1.468 . S
C377 H438 0.980 . S
C378 C379 1.349 . S
C378 C383 1.367 . S
C378 O425 1.408 . S
C379 C378 1.349 . S
C379 C380 1.407 . S
C379 H442 0.930 . S
C380 C379 1.407 . S
C380 C381 1.449 . S
C380 C384 1.535 . S
C381 C380 1.449 . S
C381 C382 1.384 . S
C381 C406 1.553 . S
C382 C381 1.384 . S
C382 C383 1.364 . S
C382 C385 1.450 . S
C383 C378 1.367 . S
C383 C382 1.364 . S
C383 H443 0.931 . S
C384 C380 1.535 . S
C384 H444 0.959 . S
C384 H445 0.961 . S
C384 H446 0.959 . S
C385 C382 1.450 . S
C385 H447 0.960 . S
C385 H448 0.960 . S
C385 H449 0.960 . S
C386 C387 1.309 . S
C386 C391 1.304 . S
C386 O424 1.435 . S
C387 C386 1.309 . S
C387 C388 1.476 . S
C387 H451 0.930 . S
C388 C387 1.476 . S
C388 C389 1.400 . S
C388 C392 1.567 . S
C389 C388 1.400 . S
C389 C390 1.373 . S
C389 C411 1.432 . S
C390 C389 1.373 . S
C390 C391 1.339 . S
C390 C393 1.530 . S
C391 C386 1.304 . S
C391 C390 1.339 . S
C391 H452 0.930 . S
C392 C388 1.567 . S
C392 H453 0.961 . S
C392 H454 0.960 . S
C392 H455 0.958 . S
C393 C390 1.530 . S
C393 H456 0.961 . S
C393 H457 0.960 . S
C393 H458 0.960 . S
C394 C395 1.530 . S
C394 H460 0.961 . S
C394 H461 0.961 . S
C394 H462 0.959 . S
C395 C394 1.530 . S
C395 O423 1.412 . S
C395 H459 0.980 . S
C396 C397 1.288 . S
C396 C401 1.377 . S
C396 O423 1.393 . S
C397 C396 1.288 . S
C397 C398 1.369 . S
C397 H463 0.932 . S
C398 C397 1.369 . S
C398 C399 1.398 . S
C398 C402 1.527 . S
C399 C398 1.398 . S
C399 C400 1.380 . S
C399 C413 1.497 . S
C400 C399 1.380 . S
C400 C401 1.383 . S
C400 C403 1.603 . S
C401 C396 1.377 . S
C401 C400 1.383 . S
C401 H464 0.929 . S
C402 C398 1.527 . S
C402 H465 0.961 . S
C402 H466 0.959 . S
C402 H467 0.959 . S
C403 C400 1.603 . S
C403 H468 0.960 . S
C403 H469 0.962 . S
C403 H470 0.961 . S
C404 C371 1.587 . S
C404 C405 1.360 . S
C404 C417 1.412 . S
C405 C404 1.360 . S
C405 C406 1.365 . S
C405 H471 0.929 . S
C406 C381 1.553 . S
C406 C405 1.365 . S
C406 C407 1.404 . S
C407 C406 1.404 . S
C407 C408 1.395 . S
C407 C418 1.451 . S
C408 C407 1.395 . S
C408 C409 1.322 . S
C408 H472 0.930 . S
C409 C408 1.322 . S
C409 C410 1.459 . S
C409 H473 0.929 . S
C410 C409 1.459 . S
C410 C411 1.445 . S
C410 C419 1.395 . S
C411 C389 1.432 . S
C411 C410 1.445 . S
C411 C412 1.370 . S
C412 C411 1.370 . S
C412 C413 1.438 . S
C412 H474 0.930 . S
C413 C399 1.497 . S
C413 C412 1.438 . S
C413 C414 1.360 . S
C414 C413 1.360 . S
C414 C415 1.401 . S
C414 C419 1.446 . S
C415 C414 1.401 . S
C415 C416 1.347 . S
C415 H475 0.929 . S
C416 C415 1.347 . S
C416 C417 1.455 . S
C416 H476 0.930 . S
C417 C404 1.412 . S
C417 C416 1.455 . S
C417 C418 1.331 . S
C418 C407 1.451 . S
C418 C417 1.331 . S
C418 C419 1.497 . S
C419 C410 1.395 . S
C419 C414 1.446 . S
C419 C418 1.497 . S
C420 C421 1.582 1_545 S
C420 H477 0.962 . S
C420 H478 0.959 . S
C420 H479 0.958 1_545 S
C421 C420 1.582 1_565 S
C421 O424 1.458 . S
C421 H450 0.980 1_565 S
O422 C367 1.426 . S
O422 C368 1.334 . S
O423 C395 1.412 . S
O423 C396 1.393 . S
O424 C386 1.435 . S
O424 C421 1.458 . S
O425 C377 1.468 . S
O425 C378 1.408 . S
H426 C367 0.980 . S
H427 C366 0.959 . S
H428 C366 0.959 . S
H429 C366 0.960 . S
H430 C369 0.929 . S
H431 C373 0.929 . S
H432 C374 0.959 . S
H433 C374 0.961 . S
H434 C374 0.961 . S
H435 C375 0.960 . S
H436 C375 0.960 . S
H437 C375 0.961 . S
H438 C377 0.980 . S
H439 C376 0.961 1_545 S
H440 C376 0.960 . S
H441 C376 0.959 1_545 S
H442 C379 0.930 . S
H443 C383 0.931 . S
H444 C384 0.959 . S
H445 C384 0.961 . S
H446 C384 0.959 . S
H447 C385 0.960 . S
H448 C385 0.960 . S
H449 C385 0.960 . S
H450 C421 0.980 1_545 S
H451 C387 0.930 . S
H452 C391 0.930 . S
H453 C392 0.961 . S
H454 C392 0.960 . S
H455 C392 0.958 . S
H456 C393 0.961 . S
H457 C393 0.960 . S
H458 C393 0.960 . S
H459 C395 0.980 . S
H460 C394 0.961 . S
H461 C394 0.961 . S
H462 C394 0.959 . S
H463 C397 0.932 . S
H464 C401 0.929 . S
H465 C402 0.961 . S
H466 C402 0.959 . S
H467 C402 0.959 . S
H468 C403 0.960 . S
H469 C403 0.962 . S
H470 C403 0.961 . S
H471 C405 0.929 . S
H472 C408 0.930 . S
H473 C409 0.929 . S
H474 C412 0.930 . S
H475 C415 0.929 . S
H476 C416 0.930 . S
H477 C420 0.962 . S
H478 C420 0.959 . S
H479 C420 0.958 1_565 S
C480 C481 1.560 1_554 S
C480 H541 0.959 . S
C480 H542 0.959 . S
C480 H543 0.960 . S
C481 C480 1.560 1_556 S
C481 O536 1.426 . S
C481 H540 0.980 . S
C482 C483 1.407 . S
C482 C487 1.418 . S
C482 O536 1.334 . S
C483 C482 1.407 . S
C483 C484 1.360 . S
C483 H544 0.929 . S
C484 C483 1.360 . S
C484 C485 1.401 . S
C484 C488 1.527 . S
C485 C484 1.401 . S
C485 C486 1.405 . S
C485 C518 1.587 . S
C486 C485 1.405 . S
C486 C487 1.332 . S
C486 C489 1.496 . S
C487 C482 1.418 . S
C487 C486 1.332 . S
C487 H545 0.929 . S
C488 C484 1.527 . S
C488 H546 0.959 . S
C488 H547 0.961 . S
C488 H548 0.961 . S
C489 C486 1.496 . S
C489 H549 0.960 . S
C489 H550 0.960 . S
C489 H551 0.961 . S
C490 C491 1.517 . S
C490 H553 0.961 . S
C490 H554 0.960 . S
C490 H555 0.959 . S
C491 C490 1.517 . S
C491 O539 1.468 . S
C491 H552 0.980 1_455 S
C492 C493 1.349 . S
C492 C497 1.367 . S
C492 O539 1.408 1_655 S
C493 C492 1.349 . S
C493 C494 1.407 . S
C493 H556 0.930 . S
C494 C493 1.407 . S
C494 C495 1.449 . S
C494 C498 1.535 . S
C495 C494 1.449 . S
C495 C496 1.384 . S
C495 C520 1.553 . S
C496 C495 1.384 . S
C496 C497 1.364 . S
C496 C499 1.450 . S
C497 C492 1.367 . S
C497 C496 1.364 . S
C497 H557 0.931 1_655 S
C498 C494 1.535 . S
C498 H558 0.959 . S
C498 H559 0.961 . S
C498 H560 0.959 . S
C499 C496 1.450 . S
C499 H561 0.960 . S
C499 H562 0.960 . S
C499 H563 0.960 . S
C500 C501 1.309 . S
C500 C505 1.304 . S
C500 O538 1.435 . S
C501 C500 1.309 . S
C501 C502 1.476 . S
C501 H565 0.930 . S
C502 C501 1.476 . S
C502 C503 1.400 . S
C502 C506 1.567 . S
C503 C502 1.400 . S
C503 C504 1.373 . S
C503 C525 1.432 . S
C504 C503 1.373 . S
C504 C505 1.339 . S
C504 C507 1.530 . S
C505 C500 1.304 . S
C505 C504 1.339 . S
C505 H566 0.930 . S
C506 C502 1.567 . S
C506 H567 0.961 . S
C506 H568 0.960 . S
C506 H569 0.958 . S
C507 C504 1.530 . S
C507 H570 0.961 . S
C507 H571 0.960 . S
C507 H572 0.960 . S
C508 C509 1.530 . S
C508 H574 0.961 . S
C508 H575 0.961 . S
C508 H576 0.959 . S
C509 C508 1.530 . S
C509 O537 1.412 . S
C509 H573 0.980 . S
C510 C511 1.288 . S
C510 C515 1.377 . S
C510 O537 1.393 . S
C511 C510 1.288 . S
C511 C512 1.369 . S
C511 H577 0.932 . S
C512 C511 1.369 . S
C512 C513 1.398 . S
C512 C516 1.527 . S
C513 C512 1.398 . S
C513 C514 1.380 . S
C513 C527 1.497 . S
C514 C513 1.380 . S
C514 C515 1.383 . S
C514 C517 1.603 . S
C515 C510 1.377 . S
C515 C514 1.383 . S
C515 H578 0.929 . S
C516 C512 1.527 . S
C516 H579 0.961 . S
C516 H580 0.959 . S
C516 H581 0.959 . S
C517 C514 1.603 . S
C517 H582 0.960 . S
C517 H583 0.962 . S
C517 H584 0.961 . S
C518 C485 1.587 . S
C518 C519 1.360 . S
C518 C531 1.412 . S
C519 C518 1.360 . S
C519 C520 1.365 . S
C519 H585 0.929 . S
C520 C495 1.553 . S
C520 C519 1.365 . S
C520 C521 1.404 . S
C521 C520 1.404 . S
C521 C522 1.395 . S
C521 C532 1.451 . S
C522 C521 1.395 . S
C522 C523 1.322 . S
C522 H586 0.930 . S
C523 C522 1.322 . S
C523 C524 1.459 . S
C523 H587 0.929 . S
C524 C523 1.459 . S
C524 C525 1.445 . S
C524 C533 1.395 . S
C525 C503 1.432 . S
C525 C524 1.445 . S
C525 C526 1.370 . S
C526 C525 1.370 . S
C526 C527 1.438 . S
C526 H588 0.930 . S
C527 C513 1.497 . S
C527 C526 1.438 . S
C527 C528 1.360 . S
C528 C527 1.360 . S
C528 C529 1.401 . S
C528 C533 1.446 . S
C529 C528 1.401 . S
C529 C530 1.347 . S
C529 H589 0.929 . S
C530 C529 1.347 . S
C530 C531 1.455 . S
C530 H590 0.930 . S
C531 C518 1.412 . S
C531 C530 1.455 . S
C531 C532 1.331 . S
C532 C521 1.451 . S
C532 C531 1.331 . S
C532 C533 1.497 . S
C533 C524 1.395 . S
C533 C528 1.446 . S
C533 C532 1.497 . S
C534 C535 1.582 1_455 S
C534 H591 0.962 . S
C534 H592 0.959 . S
C534 H593 0.958 . S
C535 C534 1.582 1_655 S
C535 O538 1.458 . S
C535 H564 0.980 1_655 S
O536 C481 1.426 . S
O536 C482 1.334 . S
O537 C509 1.412 . S
O537 C510 1.393 . S
O538 C500 1.435 . S
O538 C535 1.458 . S
O539 C491 1.468 . S
O539 C492 1.408 1_455 S
H540 C481 0.980 . S
H541 C480 0.959 . S
H542 C480 0.959 . S
H543 C480 0.960 . S
H544 C483 0.929 . S
H545 C487 0.929 . S
H546 C488 0.959 . S
H547 C488 0.961 . S
H548 C488 0.961 . S
H549 C489 0.960 . S
H550 C489 0.960 . S
H551 C489 0.961 . S
H552 C491 0.980 1_655 S
H553 C490 0.961 . S
H554 C490 0.960 . S
H555 C490 0.959 . S
H556 C493 0.930 . S
H557 C497 0.931 1_455 S
H558 C498 0.959 . S
H559 C498 0.961 . S
H560 C498 0.959 . S
H561 C499 0.960 . S
H562 C499 0.960 . S
H563 C499 0.960 . S
H564 C535 0.980 1_455 S
H565 C501 0.930 . S
H566 C505 0.930 . S
H567 C506 0.961 . S
H568 C506 0.960 . S
H569 C506 0.958 . S
H570 C507 0.961 . S
H571 C507 0.960 . S
H572 C507 0.960 . S
H573 C509 0.980 . S
H574 C508 0.961 . S
H575 C508 0.961 . S
H576 C508 0.959 . S
H577 C511 0.932 . S
H578 C515 0.929 . S
H579 C516 0.961 . S
H580 C516 0.959 . S
H581 C516 0.959 . S
H582 C517 0.960 . S
H583 C517 0.962 . S
H584 C517 0.961 . S
H585 C519 0.929 . S
H586 C522 0.930 . S
H587 C523 0.929 . S
H588 C526 0.930 . S
H589 C529 0.929 . S
H590 C530 0.930 . S
H591 C534 0.962 . S
H592 C534 0.959 . S
H593 C534 0.958 . S
C594 C595 1.560 . S
C594 H655 0.959 . S
C594 H656 0.959 . S
C594 H657 0.960 . S
C595 C594 1.560 . S
C595 O650 1.426 . S
C595 H654 0.980 . S
C596 C597 1.407 . S
C596 C601 1.418 . S
C596 O650 1.334 . S
C597 C596 1.407 . S
C597 C598 1.360 . S
C597 H658 0.929 . S
C598 C597 1.360 . S
C598 C599 1.401 . S
C598 C602 1.527 . S
C599 C598 1.401 . S
C599 C600 1.405 . S
C599 C632 1.587 . S
C600 C599 1.405 . S
C600 C601 1.332 . S
C600 C603 1.496 . S
C601 C596 1.418 . S
C601 C600 1.332 . S
C601 H659 0.929 . S
C602 C598 1.527 . S
C602 H660 0.959 . S
C602 H661 0.961 . S
C602 H662 0.961 . S
C603 C600 1.496 . S
C603 H663 0.960 . S
C603 H664 0.960 . S
C603 H665 0.961 . S
C604 C605 1.517 1_545 S
C604 H667 0.961 . S
C604 H668 0.960 . S
C604 H669 0.959 . S
C605 C604 1.517 1_565 S
C605 O653 1.468 . S
C605 H666 0.980 . S
C606 C607 1.349 . S
C606 C611 1.367 . S
C606 O653 1.408 . S
C607 C606 1.349 . S
C607 C608 1.407 . S
C607 H670 0.930 . S
C608 C607 1.407 . S
C608 C609 1.449 . S
C608 C612 1.535 . S
C609 C608 1.449 . S
C609 C610 1.384 . S
C609 C634 1.553 . S
C610 C609 1.384 . S
C610 C611 1.364 . S
C610 C613 1.450 . S
C611 C606 1.367 . S
C611 C610 1.364 . S
C611 H671 0.931 . S
C612 C608 1.535 . S
C612 H672 0.959 . S
C612 H673 0.961 . S
C612 H674 0.959 . S
C613 C610 1.450 . S
C613 H675 0.960 . S
C613 H676 0.960 . S
C613 H677 0.960 . S
C614 C615 1.309 . S
C614 C619 1.304 . S
C614 O652 1.435 . S
C615 C614 1.309 . S
C615 C616 1.476 . S
C615 H679 0.930 . S
C616 C615 1.476 . S
C616 C617 1.400 . S
C616 C620 1.567 . S
C617 C616 1.400 . S
C617 C618 1.373 . S
C617 C639 1.432 . S
C618 C617 1.373 . S
C618 C619 1.339 . S
C618 C621 1.530 . S
C619 C614 1.304 . S
C619 C618 1.339 . S
C619 H680 0.930 . S
C620 C616 1.567 . S
C620 H681 0.961 . S
C620 H682 0.960 . S
C620 H683 0.958 . S
C621 C618 1.530 . S
C621 H684 0.961 . S
C621 H685 0.960 . S
C621 H686 0.960 . S
C622 C623 1.530 . S
C622 H688 0.961 . S
C622 H689 0.961 . S
C622 H690 0.959 . S
C623 C622 1.530 . S
C623 O651 1.412 . S
C623 H687 0.980 . S
C624 C625 1.288 . S
C624 C629 1.377 . S
C624 O651 1.393 . S
C625 C624 1.288 . S
C625 C626 1.369 . S
C625 H691 0.932 . S
C626 C625 1.369 . S
C626 C627 1.398 . S
C626 C630 1.527 . S
C627 C626 1.398 . S
C627 C628 1.380 . S
C627 C641 1.497 . S
C628 C627 1.380 . S
C628 C629 1.383 . S
C628 C631 1.603 . S
C629 C624 1.377 . S
C629 C628 1.383 . S
C629 H692 0.929 . S
C630 C626 1.527 . S
C630 H693 0.961 . S
C630 H694 0.959 . S
C630 H695 0.959 . S
C631 C628 1.603 . S
C631 H696 0.960 . S
C631 H697 0.962 . S
C631 H698 0.961 . S
C632 C599 1.587 . S
C632 C633 1.360 . S
C632 C645 1.412 . S
C633 C632 1.360 . S
C633 C634 1.365 . S
C633 H699 0.929 . S
C634 C609 1.553 . S
C634 C633 1.365 . S
C634 C635 1.404 . S
C635 C634 1.404 . S
C635 C636 1.395 . S
C635 C646 1.451 . S
C636 C635 1.395 . S
C636 C637 1.322 . S
C636 H700 0.930 . S
C637 C636 1.322 . S
C637 C638 1.459 . S
C637 H701 0.929 . S
C638 C637 1.459 . S
C638 C639 1.445 . S
C638 C647 1.395 . S
C639 C617 1.432 . S
C639 C638 1.445 . S
C639 C640 1.370 . S
C640 C639 1.370 . S
C640 C641 1.438 . S
C640 H702 0.930 . S
C641 C627 1.497 . S
C641 C640 1.438 . S
C641 C642 1.360 . S
C642 C641 1.360 . S
C642 C643 1.401 . S
C642 C647 1.446 . S
C643 C642 1.401 . S
C643 C644 1.347 . S
C643 H703 0.929 . S
C644 C643 1.347 . S
C644 C645 1.455 . S
C644 H704 0.930 . S
C645 C632 1.412 . S
C645 C644 1.455 . S
C645 C646 1.331 . S
C646 C635 1.451 . S
C646 C645 1.331 . S
C646 C647 1.497 . S
C647 C638 1.395 . S
C647 C642 1.446 . S
C647 C646 1.497 . S
C648 C649 1.582 . S
C648 H705 0.962 . S
C648 H706 0.959 . S
C648 H707 0.958 . S
C649 C648 1.582 . S
C649 O652 1.458 1_545 S
C649 H678 0.980 . S
O650 C595 1.426 . S
O650 C596 1.334 . S
O651 C623 1.412 . S
O651 C624 1.393 . S
O652 C614 1.435 . S
O652 C649 1.458 1_565 S
O653 C605 1.468 . S
O653 C606 1.408 . S
H654 C595 0.980 . S
H655 C594 0.959 . S
H656 C594 0.959 . S
H657 C594 0.960 . S
H658 C597 0.929 . S
H659 C601 0.929 . S
H660 C602 0.959 . S
H661 C602 0.961 . S
H662 C602 0.961 . S
H663 C603 0.960 . S
H664 C603 0.960 . S
H665 C603 0.961 . S
H666 C605 0.980 . S
H667 C604 0.961 . S
H668 C604 0.960 . S
H669 C604 0.959 . S
H670 C607 0.930 . S
H671 C611 0.931 . S
H672 C612 0.959 . S
H673 C612 0.961 . S
H674 C612 0.959 . S
H675 C613 0.960 . S
H676 C613 0.960 . S
H677 C613 0.960 . S
H678 C649 0.980 . S
H679 C615 0.930 . S
H680 C619 0.930 . S
H681 C620 0.961 . S
H682 C620 0.960 . S
H683 C620 0.958 . S
H684 C621 0.961 . S
H685 C621 0.960 . S
H686 C621 0.960 . S
H687 C623 0.980 . S
H688 C622 0.961 . S
H689 C622 0.961 . S
H690 C622 0.959 . S
H691 C625 0.932 . S
H692 C629 0.929 . S
H693 C630 0.961 . S
H694 C630 0.959 . S
H695 C630 0.959 . S
H696 C631 0.960 . S
H697 C631 0.962 . S
H698 C631 0.961 . S
H699 C633 0.929 . S
H700 C636 0.930 . S
H701 C637 0.929 . S
H702 C640 0.930 . S
H703 C643 0.929 . S
H704 C644 0.930 . S
H705 C648 0.962 . S
H706 C648 0.959 . S
H707 C648 0.958 . S
C708 C709 1.560 1_565 S
C708 H769 0.959 1_565 S
C708 H770 0.959 . S
C708 H771 0.960 . S
C709 C708 1.560 1_545 S
C709 O764 1.426 . S
C709 H768 0.980 . S
C710 C711 1.407 . S
C710 C715 1.418 . S
C710 O764 1.334 . S
C711 C710 1.407 . S
C711 C712 1.360 . S
C711 H772 0.929 . S
C712 C711 1.360 . S
C712 C713 1.401 . S
C712 C716 1.527 . S
C713 C712 1.401 . S
C713 C714 1.405 . S
C713 C746 1.587 . S
C714 C713 1.405 . S
C714 C715 1.332 . S
C714 C717 1.496 . S
C715 C710 1.418 . S
C715 C714 1.332 . S
C715 H773 0.929 . S
C716 C712 1.527 . S
C716 H774 0.959 . S
C716 H775 0.961 . S
C716 H776 0.961 . S
C717 C714 1.496 . S
C717 H777 0.960 . S
C717 H778 0.960 . S
C717 H779 0.961 . S
C718 C719 1.517 . S
C718 H781 0.961 . S
C718 H782 0.960 . S
C718 H783 0.959 . S
C719 C718 1.517 . S
C719 O767 1.468 . S
C719 H780 0.980 . S
C720 C721 1.349 . S
C720 C725 1.367 . S
C720 O767 1.408 . S
C721 C720 1.349 . S
C721 C722 1.407 . S
C721 H784 0.930 . S
C722 C721 1.407 . S
C722 C723 1.449 . S
C722 C726 1.535 . S
C723 C722 1.449 . S
C723 C724 1.384 . S
C723 C748 1.553 . S
C724 C723 1.384 . S
C724 C725 1.364 . S
C724 C727 1.450 . S
C725 C720 1.367 . S
C725 C724 1.364 . S
C725 H785 0.931 . S
C726 C722 1.535 . S
C726 H786 0.959 . S
C726 H787 0.961 . S
C726 H788 0.959 . S
C727 C724 1.450 . S
C727 H789 0.960 . S
C727 H790 0.960 . S
C727 H791 0.960 . S
C728 C729 1.309 . S
C728 C733 1.304 . S
C728 O766 1.435 . S
C729 C728 1.309 . S
C729 C730 1.476 . S
C729 H793 0.930 . S
C730 C729 1.476 . S
C730 C731 1.400 . S
C730 C734 1.567 . S
C731 C730 1.400 . S
C731 C732 1.373 . S
C731 C753 1.432 . S
C732 C731 1.373 . S
C732 C733 1.339 . S
C732 C735 1.530 . S
C733 C728 1.304 . S
C733 C732 1.339 . S
C733 H794 0.930 . S
C734 C730 1.567 . S
C734 H795 0.961 . S
C734 H796 0.960 . S
C734 H797 0.958 . S
C735 C732 1.530 . S
C735 H798 0.961 . S
C735 H799 0.960 . S
C735 H800 0.960 . S
C736 C737 1.530 1_565 S
C736 H802 0.961 . S
C736 H803 0.961 . S
C736 H804 0.959 . S
C737 C736 1.530 1_545 S
C737 O765 1.412 . S
C737 H801 0.980 . S
C738 C739 1.288 . S
C738 C743 1.377 . S
C738 O765 1.393 . S
C739 C738 1.288 . S
C739 C740 1.369 . S
C739 H805 0.932 . S
C740 C739 1.369 . S
C740 C741 1.398 . S
C740 C744 1.527 . S
C741 C740 1.398 . S
C741 C742 1.380 . S
C741 C755 1.497 . S
C742 C741 1.380 . S
C742 C743 1.383 . S
C742 C745 1.603 . S
C743 C738 1.377 . S
C743 C742 1.383 . S
C743 H806 0.929 . S
C744 C740 1.527 . S
C744 H807 0.961 . S
C744 H808 0.959 . S
C744 H809 0.959 . S
C745 C742 1.603 . S
C745 H810 0.960 . S
C745 H811 0.962 . S
C745 H812 0.961 . S
C746 C713 1.587 . S
C746 C747 1.360 . S
C746 C759 1.412 . S
C747 C746 1.360 . S
C747 C748 1.365 . S
C747 H813 0.929 . S
C748 C723 1.553 . S
C748 C747 1.365 . S
C748 C749 1.404 . S
C749 C748 1.404 . S
C749 C750 1.395 . S
C749 C760 1.451 . S
C750 C749 1.395 . S
C750 C751 1.322 . S
C750 H814 0.930 . S
C751 C750 1.322 . S
C751 C752 1.459 . S
C751 H815 0.929 . S
C752 C751 1.459 . S
C752 C753 1.445 . S
C752 C761 1.395 . S
C753 C731 1.432 . S
C753 C752 1.445 . S
C753 C754 1.370 . S
C754 C753 1.370 . S
C754 C755 1.438 . S
C754 H816 0.930 . S
C755 C741 1.497 . S
C755 C754 1.438 . S
C755 C756 1.360 . S
C756 C755 1.360 . S
C756 C757 1.401 . S
C756 C761 1.446 . S
C757 C756 1.401 . S
C757 C758 1.347 . S
C757 H817 0.929 . S
C758 C757 1.347 . S
C758 C759 1.455 . S
C758 H818 0.930 . S
C759 C746 1.412 . S
C759 C758 1.455 . S
C759 C760 1.331 . S
C760 C749 1.451 . S
C760 C759 1.331 . S
C760 C761 1.497 . S
C761 C752 1.395 . S
C761 C756 1.446 . S
C761 C760 1.497 . S
C762 C763 1.582 . S
C762 H819 0.962 . S
C762 H820 0.959 . S
C762 H821 0.958 . S
C763 C762 1.582 . S
C763 O766 1.458 . S
C763 H792 0.980 . S
O764 C709 1.426 . S
O764 C710 1.334 . S
O765 C737 1.412 . S
O765 C738 1.393 . S
O766 C728 1.435 . S
O766 C763 1.458 . S
O767 C719 1.468 . S
O767 C720 1.408 . S
H768 C709 0.980 . S
H769 C708 0.959 1_545 S
H770 C708 0.959 . S
H771 C708 0.960 . S
H772 C711 0.929 . S
H773 C715 0.929 . S
H774 C716 0.959 . S
H775 C716 0.961 . S
H776 C716 0.961 . S
H777 C717 0.960 . S
H778 C717 0.960 . S
H779 C717 0.961 . S
H780 C719 0.980 . S
H781 C718 0.961 . S
H782 C718 0.960 . S
H783 C718 0.959 . S
H784 C721 0.930 . S
H785 C725 0.931 . S
H786 C726 0.959 . S
H787 C726 0.961 . S
H788 C726 0.959 . S
H789 C727 0.960 . S
H790 C727 0.960 . S
H791 C727 0.960 . S
H792 C763 0.980 . S
H793 C729 0.930 . S
H794 C733 0.930 . S
H795 C734 0.961 . S
H796 C734 0.960 . S
H797 C734 0.958 . S
H798 C735 0.961 . S
H799 C735 0.960 . S
H800 C735 0.960 . S
H801 C737 0.980 . S
H802 C736 0.961 . S
H803 C736 0.961 . S
H804 C736 0.959 . S
H805 C739 0.932 . S
H806 C743 0.929 . S
H807 C744 0.961 . S
H808 C744 0.959 . S
H809 C744 0.959 . S
H810 C745 0.960 . S
H811 C745 0.962 . S
H812 C745 0.961 . S
H813 C747 0.929 . S
H814 C750 0.930 . S
H815 C751 0.929 . S
H816 C754 0.930 . S
H817 C757 0.929 . S
H818 C758 0.930 . S
H819 C762 0.962 . S
H820 C762 0.959 . S
H821 C762 0.958 . S
C7 C167 3.331 . S
C30 C307 3.087 . S
C395 N58 2.914 . S
C535 N81 2.835 . S
C649 C99 3.184 1_545 S
C719 N127 1.863 . S
N25 C377 2.074 . S
C62 C481 2.054 . S
C595 C85 2.252 . S
C737 N94 3.094 . S
C131 C149 2.297 . S
C253 N2 1.503 . S
C491 C16 3.117 . S
C39 C605 3.064 . S
C763 N48 2.125 . S
N71 C139 2.615 . S
C108 C263 3.210 . S
N117 C367 3.321 . S
N35 C709 3.294 . S
C193 C53 2.029 . S
C76 C281 2.558 . S
N104 C421 1.969 . S
C122 C509 2.196 . S
N12 C623 1.891 . S
