# Generated by pormake.
# Topology anh, (6,3)-cn, num edge types: 1
# Building blocks:
#     Node 0, Type 0, BuildingBlock: HISSIN_clean_sbu_0, # of connection points: 6
#     Node 1, Type 0, BuildingBlock: HISSIN_clean_sbu_0, # of connection points: 6
#     Node 2, Type 0, BuildingBlock: HISSIN_clean_sbu_0, # of connection points: 6
#     Node 3, Type 1, BuildingBlock: BETDIP_clean_linker_0, # of connection points: 3
#     Node 4, Type 1, BuildingBlock: BETDIP_clean_linker_0, # of connection points: 3
#     Node 5, Type 1, BuildingBlock: BETDIP_clean_linker_0, # of connection points: 3
#     Node 6, Type 1, BuildingBlock: BETDIP_clean_linker_0, # of connection points: 3
#     Node 7, Type 1, BuildingBlock: BETDIP_clean_linker_0, # of connection points: 3
#     Node 8, Type 1, BuildingBlock: BETDIP_clean_linker_0, # of connection points: 3
#     Edge 9, Type (0, 1), BuildingBlock: ZUJKAS_clean_linker_0, # of connection points: 2
#     Edge 10, Type (0, 1), BuildingBlock: ZUJKAS_clean_linker_0, # of connection points: 2
#     Edge 11, Type (0, 1), BuildingBlock: ZUJKAS_clean_linker_0, # of connection points: 2
#     Edge 12, Type (0, 1), BuildingBlock: ZUJKAS_clean_linker_0, # of connection points: 2
#     Edge 13, Type (0, 1), BuildingBlock: ZUJKAS_clean_linker_0, # of connection points: 2
#     Edge 14, Type (0, 1), BuildingBlock: ZUJKAS_clean_linker_0, # of connection points: 2
#     Edge 15, Type (0, 1), BuildingBlock: ZUJKAS_clean_linker_0, # of connection points: 2
#     Edge 16, Type (0, 1), BuildingBlock: ZUJKAS_clean_linker_0, # of connection points: 2
#     Edge 17, Type (0, 1), BuildingBlock: ZUJKAS_clean_linker_0, # of connection points: 2
#     Edge 18, Type (0, 1), BuildingBlock: ZUJKAS_clean_linker_0, # of connection points: 2
#     Edge 19, Type (0, 1), BuildingBlock: ZUJKAS_clean_linker_0, # of connection points: 2
#     Edge 20, Type (0, 1), BuildingBlock: ZUJKAS_clean_linker_0, # of connection points: 2
#     Edge 21, Type (0, 1), BuildingBlock: ZUJKAS_clean_linker_0, # of connection points: 2
#     Edge 22, Type (0, 1), BuildingBlock: ZUJKAS_clean_linker_0, # of connection points: 2
#     Edge 23, Type (0, 1), BuildingBlock: ZUJKAS_clean_linker_0, # of connection points: 2
#     Edge 24, Type (0, 1), BuildingBlock: ZUJKAS_clean_linker_0, # of connection points: 2
#     Edge 25, Type (0, 1), BuildingBlock: ZUJKAS_clean_linker_0, # of connection points: 2
#     Edge 26, Type (0, 1), BuildingBlock: ZUJKAS_clean_linker_0, # of connection points: 2
# Relax obj value: 0.185
# Max RMSD: 0.186
# Mean RMSD: 0.121
data_MOF--net-anh--node1-HISSIN_clean_sbu_0--node2-BETDIP_clean_linker_0--edge1-ZUJKAS_clean_linker_0
_symmetry_space_group_name_H-M    P1
_symmetry_Int_Tables_number       1
_symmetry_cell_setting            triclinic
loop_
_symmetry_equiv_pos_as_xyz
'x, y, z'
_cell_length_a     40.692742
_cell_length_b     40.368822
_cell_length_c     64.856157
_cell_angle_alpha  95.990184
_cell_angle_beta   89.959829
_cell_angle_gamma 120.00439
loop_
_atom_site_label
_atom_site_type_symbol
_atom_site_fract_x
_atom_site_fract_y
_atom_site_fract_z
_atom_type_partial_charge
Eu0 Eu 1.05508 0.53936 0.16005 0.0
Eu1 Eu 0.09894 0.63212 0.16897 0.0
C2 C 0.0746 0.58131 0.20744 0.0
C3 C 0.99063 0.43405 0.13692 0.0
C4 C 0.96011 0.43788 0.13011 0.0
C5 C 0.96051 0.36926 0.11895 0.0
C6 C 0.92935 0.407 0.11821 0.0
C7 C 0.99108 0.40001 0.13087 0.0
C8 C 0.9289 0.37206 0.11289 0.0
C9 C 1.0221 0.46483 0.15051 0.0
O10 O 0.14985 0.62119 0.1691 0.0
O11 O 0.11835 0.55602 0.15895 0.0
C12 C 0.15066 0.58897 0.1636 0.0
O13 O 1.05329 0.56118 0.1297 0.0
O14 O 0.13965 0.68796 0.18579 0.0
O15 O 0.10329 0.68464 0.16027 0.0
O16 O 0.10876 0.61791 0.13609 0.0
C17 C 0.08246 0.59074 0.12298 0.0
O18 O 1.00412 0.54981 0.16257 0.0
O19 O 1.03599 0.6154 0.16275 0.0
O20 O 0.08084 0.61324 0.20052 0.0
O21 O 1.05112 0.48942 0.1412 0.0
O22 O 1.01327 0.48132 0.1662 0.0
O23 O 1.06935 0.5513 0.19472 0.0
C24 C 0.16467 0.73994 0.16508 0.0
C25 C 0.1592 0.75486 0.14756 0.0
C26 C 0.23128 0.78967 0.16777 0.0
C27 C 0.18948 0.78689 0.14022 0.0
C28 C 0.20104 0.75769 0.17509 0.0
C29 C 0.2258 0.80474 0.15031 0.0
C30 C 0.13221 0.70715 0.17334 0.0
C31 C 1.00349 0.58225 0.16207 0.0
H32 H 0.95965 0.46431 0.13443 0.0
H33 H 0.96082 0.34259 0.11546 0.0
H34 H 0.90547 0.41004 0.11367 0.0
H35 H 1.01462 0.39678 0.13589 0.0
H36 H 0.1314 0.74205 0.13961 0.0
H37 H 0.25874 0.80331 0.17619 0.0
H38 H 0.18444 0.79779 0.12672 0.0
H39 H 0.2061 0.74728 0.18879 0.0
Eu40 Eu 0.58006 1.04168 0.49638 0.0
Eu41 Eu 0.5332 0.08746 0.49987 0.0
C42 C 0.5564 0.06278 0.54143 0.0
C43 C 0.61733 0.96912 0.49382 0.0
C44 C 0.59817 0.9465 0.50959 0.0
C45 C 0.63993 0.92528 0.48257 0.0
C46 C 0.60033 0.91351 0.51197 0.0
C47 C 0.63777 0.95805 0.48024 0.0
C48 C 0.62153 0.90274 0.49855 0.0
C49 C 0.61762 1.0049 0.49123 0.0
O50 O 0.59433 0.13492 0.49395 0.0
O51 O 0.62776 0.10567 0.50198 0.0
C52 C 0.62737 0.13685 0.49758 0.0
O53 O 0.5862 0.06584 0.46607 0.0
O54 O 0.52519 0.13388 0.51443 0.0
O55 O 0.48631 0.09429 0.48917 0.0
O56 O 0.53378 0.07243 0.4656 0.0
C57 C 0.56135 0.07075 0.4561 0.0
O58 O 0.51714 0.99287 0.49033 0.0
O59 O 0.48628 1.02475 0.50248 0.0
O60 O 0.54808 0.08634 0.53327 0.0
O61 O 0.59335 1.00269 0.47728 0.0
O62 O 0.62179 1.02812 0.50789 0.0
O63 O 0.56474 1.03958 0.52987 0.0
C64 C 0.5027 0.15919 0.49092 0.0
C65 C 0.53164 0.17539 0.47709 0.0
C66 C 0.48821 0.20994 0.48792 0.0
C67 C 0.53951 0.20932 0.46917 0.0
C68 C 0.48046 0.17607 0.4959 0.0
C69 C 0.5185 0.22749 0.47493 0.0
C70 C 0.49757 0.12642 0.5012 0.0
C71 C 0.48532 0.99213 0.49571 0.0
H72 H 0.58204 0.95459 0.52015 0.0
H73 H 0.65715 0.9184 0.47223 0.0
H74 H 0.58566 0.89661 0.52435 0.0
H75 H 0.65278 0.97527 0.46801 0.0
H76 H 0.54898 0.16254 0.47302 0.0
H77 H 0.47187 0.22353 0.49286 0.0
H78 H 0.56284 0.22205 0.4591 0.0
H79 H 0.45805 0.16386 0.50658 0.0
Eu80 Eu 0.52838 0.55012 0.82962 0.0
Eu81 Eu 0.61599 0.59594 0.84511 0.0
C82 C 0.5539 0.57165 0.87795 0.0
C83 C 0.44193 0.54304 0.80823 0.0
C84 C 0.44222 0.57346 0.82114 0.0
C85 C 0.42503 0.56496 0.77845 0.0
C86 C 0.43534 0.59987 0.81276 0.0
C87 C 0.43231 0.53845 0.78685 0.0
C88 C 0.42778 0.59645 0.79136 0.0
C89 C 0.45818 0.52111 0.81642 0.0
O90 O 0.59859 0.53161 0.84508 0.0
O91 O 0.54295 0.50171 0.82485 0.0
C92 C 0.57097 0.50013 0.83418 0.0
O93 O 0.56144 0.57703 0.80217 0.0
O94 O 0.65965 0.60568 0.86828 0.0
O95 O 0.67533 0.63799 0.84171 0.0
O96 O 0.61459 0.57609 0.81153 0.0
C97 C 0.59331 0.57841 0.79739 0.0
O98 O 0.54146 0.61311 0.83498 0.0
O99 O 0.60658 0.64556 0.83755 0.0
O100 O 0.58423 0.60125 0.87226 0.0
O101 O 0.48321 0.51796 0.80507 0.0
O102 O 0.4692 0.5298 0.83613 0.0
O103 O 0.53143 0.54308 0.86388 0.0
C104 C 0.71392 0.6141 0.85191 0.0
C105 C 0.70589 0.58733 0.83427 0.0
C106 C 0.7697 0.61041 0.86069 0.0
C107 C 0.72976 0.57239 0.82977 0.0
C108 C 0.74588 0.62556 0.86511 0.0
C109 C 0.76177 0.58363 0.84299 0.0
C110 C 0.68725 0.62758 0.85715 0.0
C111 C 0.57426 0.64583 0.83559 0.0
H112 H 0.44957 0.57816 0.83764 0.0
H113 H 0.41848 0.56161 0.76192 0.0
H114 H 0.43674 0.62363 0.82299 0.0
H115 H 0.43207 0.5154 0.77655 0.0
H116 H 0.68088 0.57763 0.82409 0.0
H117 H 0.7945 0.61988 0.87099 0.0
H118 H 0.72285 0.55158 0.81615 0.0
H119 H 0.75219 0.64588 0.87889 0.0
H120 H 0.58966 0.07322 0.17829 0.0
H121 H 0.65687 0.10243 0.23533 0.0
H122 H 0.5454 0.09018 0.23593 0.0
H123 H 0.62382 1.04215 0.16915 0.0
C124 C 0.65127 0.06709 0.1744 0.0
C125 C 0.5932 0.08028 0.19499 0.0
C126 C 0.56389 0.08142 0.20581 0.0
C127 C 0.6265 0.08725 0.20565 0.0
C128 C 0.63086 0.09654 0.22726 0.0
C129 C 0.60169 0.09763 0.23843 0.0
C130 C 0.56842 0.09025 0.2275 0.0
N131 N 0.6564 0.08619 0.19484 0.0
H132 H 0.74137 0.61872 0.53117 0.0
H133 H 0.77434 0.66536 0.59512 0.0
H134 H 0.66067 0.57197 0.57777 0.0
H135 H 0.82824 0.69936 0.53031 0.0
C136 C 0.80353 0.69312 0.53912 0.0
C137 C 0.73384 0.61918 0.54718 0.0
C138 C 0.69788 0.59142 0.55268 0.0
C139 C 0.76115 0.6462 0.56248 0.0
C140 C 0.75261 0.6452 0.5834 0.0
C141 C 0.71628 0.61846 0.58913 0.0
C142 C 0.68898 0.59227 0.57358 0.0
N143 N 0.79784 0.67375 0.55701 0.0
H144 H 0.12401 0.5975 0.84334 0.0
H145 H 0.18419 0.64053 0.90294 0.0
H146 H 1.06224 0.57297 0.89899 0.0
H147 H 0.22425 0.69303 0.88358 0.0
C148 C 0.22308 0.67806 0.86842 0.0
C149 C 0.12309 0.59991 0.86009 0.0
C150 C 0.08824 0.58242 0.86947 0.0
C151 C 0.15724 0.62244 0.87201 0.0
C152 C 0.15746 0.62471 0.89376 0.0
C153 C 0.1231 0.605 0.90352 0.0
C154 C 0.0887 0.58515 0.89129 0.0
N155 N 0.19072 0.64197 0.86129 0.0
H156 H 0.08792 0.59507 0.4919 0.0
H157 H 1.02623 0.53285 0.43332 0.0
H158 H 0.13327 0.63734 0.43395 0.0
H159 H 1.00497 0.48131 0.44995 0.0
C160 C 0.99605 0.48965 0.46438 0.0
C161 C 0.08549 0.59207 0.47511 0.0
C162 C 0.11565 0.62077 0.46418 0.0
C163 C 1.05265 0.55885 0.46407 0.0
C164 C 1.05068 0.55652 0.44215 0.0
C165 C 0.07964 0.5842 0.43122 0.0
C166 C 0.11143 0.61569 0.44239 0.0
N167 N 1.0217 0.52864 0.47451 0.0
H168 H 0.57615 0.10616 0.82683 0.0
H169 H 0.56812 1.03598 0.7697 0.0
H170 H 0.5688 0.14185 0.76728 0.0
H171 H 0.53163 0.9865 0.79027 0.0
C172 C 0.55347 0.99608 0.80269 0.0
C173 C 0.57354 0.10106 0.81004 0.0
C174 C 0.57351 0.12969 0.79835 0.0
C175 C 0.57062 0.06592 0.79979 0.0
C176 C 0.5684 0.06092 0.77786 0.0
C177 C 0.56838 0.08838 0.76618 0.0
C178 C 0.57023 0.1217 0.77653 0.0
N179 N 0.57171 1.03671 0.81097 0.0
H180 H 0.54382 0.58348 0.16173 0.0
H181 H 0.59538 0.57824 0.104 0.0
H182 H 0.48959 0.57755 0.10313 0.0
H183 H 0.6512 0.61802 0.12556 0.0
C184 C 0.64481 0.59792 0.1369 0.0
C185 C 0.54365 0.58224 0.14498 0.0
C186 C 0.51228 0.58117 0.13371 0.0
C187 C 0.57486 0.58172 0.13434 0.0
C188 C 0.573 0.57939 0.1125 0.0
C189 C 0.54265 0.57803 0.10125 0.0
C190 C 0.51302 0.57907 0.11196 0.0
N191 N 0.60692 0.58198 0.14496 0.0
H192 H 0.16405 0.52831 0.15199 0.0
H193 H 0.22412 0.52827 0.14926 0.0
H194 H 0.28606 0.65046 0.16837 0.0
H195 H 0.22588 0.65045 0.17146 0.0
H196 H 0.28264 0.55676 0.1264 0.0
H197 H 0.34507 0.62508 0.20552 0.0
H198 H 0.29634 0.60945 0.19805 0.0
H199 H 0.33424 0.65484 0.19156 0.0
C200 C 0.1903 0.55536 0.15582 0.0
C201 C 0.18893 0.58935 0.16218 0.0
C202 C 0.22526 0.55532 0.15417 0.0
C203 C 0.2611 0.58917 0.15895 0.0
C204 C 0.25978 0.62329 0.1651 0.0
H205 H 0.5046 0.64258 0.15232 0.0
H206 H 0.44569 0.64447 0.15848 0.0
C207 C 0.22475 0.62337 0.16673 0.0
C208 C 0.29902 0.58859 0.15689 0.0
H209 H 0.38603 0.61736 0.1819 0.0
C210 C 0.30492 0.56994 0.13873 0.0
C211 C 0.32947 0.60567 0.17258 0.0
C212 C 0.32595 0.62456 0.1931 0.0
C213 C 0.33914 0.56855 0.13571 0.0
C214 C 0.36948 0.58533 0.15145 0.0
C215 C 0.36372 0.60419 0.16958 0.0
C216 C 0.40684 0.58369 0.14934 0.0
C217 C 0.34271 0.55005 0.11505 0.0
C218 C 0.40665 0.54891 0.14291 0.0
C219 C 0.44075 0.54782 0.13956 0.0
C220 C 0.47725 0.58121 0.14295 0.0
C221 C 0.47768 0.6158 0.15016 0.0
C222 C 0.44344 0.61694 0.15347 0.0
H223 H 0.32412 0.55042 0.10264 0.0
H224 H 0.37244 0.56486 0.11026 0.0
H225 H 0.33369 0.51949 0.11625 0.0
H226 H 0.37983 0.52219 0.14008 0.0
H227 H 0.43843 0.52066 0.1335 0.0
H228 H 0.64039 0.20648 0.48474 0.0
H229 H 0.70082 0.26566 0.48118 0.0
H230 H 0.76202 0.21432 0.50411 0.0
H231 H 0.70194 0.15491 0.507 0.0
H232 H 0.75855 0.32132 0.50386 0.0
H233 H 0.8229 0.25022 0.45603 0.0
H234 H 0.77388 0.22444 0.46233 0.0
H235 H 0.81105 0.23186 0.48059 0.0
C236 C 0.66663 0.20748 0.48899 0.0
C237 C 0.66523 0.17472 0.49605 0.0
C238 C 0.70174 0.24191 0.48696 0.0
C239 C 0.73749 0.24555 0.49179 0.0
C240 C 0.73593 0.21312 0.4994 0.0
H241 H 0.94574 0.42404 0.44067 0.0
H242 H 0.88579 0.36938 0.44817 0.0
C243 C 0.70091 0.17866 0.5013 0.0
C244 C 0.77573 0.28269 0.48896 0.0
H245 H 0.86427 0.3155 0.46924 0.0
C246 C 0.78149 0.3197 0.49622 0.0
C247 C 0.80667 0.2823 0.47874 0.0
C248 C 0.80327 0.24515 0.46878 0.0
C249 C 0.816 0.35487 0.49381 0.0
C250 C 0.84736 0.35435 0.48416 0.0
C251 C 0.84141 0.31731 0.47685 0.0
C252 C 0.8852 0.39096 0.48004 0.0
C253 C 0.8177 0.39241 0.5011 0.0
C254 C 0.90701 0.42357 0.4951 0.0
C255 C 0.94226 0.45622 0.4906 0.0
C256 C 0.95755 0.45749 0.47088 0.0
C257 C 0.93568 0.42495 0.45607 0.0
C258 C 0.90079 0.39293 0.46045 0.0
H259 H 0.78883 0.38864 0.5024 0.0
H260 H 0.83267 0.40364 0.51671 0.0
H261 H 0.8333 0.41423 0.49036 0.0
H262 H 0.89738 0.42364 0.51064 0.0
H263 H 0.95779 0.47996 0.5027 0.0
H264 H 0.51429 0.65698 0.82528 0.0
H265 H 0.51418 0.71669 0.82154 0.0
H266 H 0.63413 0.78208 0.83875 0.0
H267 H 0.63446 0.72219 0.84166 0.0
H268 H 0.52306 0.77585 0.84352 0.0
H269 H 0.64229 0.83863 0.79233 0.0
H270 H 0.62278 0.79019 0.79871 0.0
H271 H 0.65698 0.83059 0.81642 0.0
C272 C 0.54085 0.68395 0.82817 0.0
C273 C 0.57443 0.68372 0.83368 0.0
C274 C 0.5408 0.71867 0.826 0.0
C275 C 0.57433 0.7553 0.82921 0.0
C276 C 0.60777 0.7551 0.83521 0.0
H277 H 0.61392 0.9975 0.82617 0.0
H278 H 0.62003 0.94164 0.83353 0.0
C279 C 0.6079 0.72029 0.83717 0.0
C280 C 0.5737 0.79291 0.82682 0.0
H281 H 0.61981 0.87991 0.8063 0.0
C282 C 0.54421 0.79815 0.83513 0.0
C283 C 0.60109 0.8235 0.81612 0.0
C284 C 0.63232 0.82036 0.80521 0.0
C285 C 0.5413 0.83156 0.83314 0.0
C286 C 0.56881 0.86217 0.82263 0.0
C287 C 0.59869 0.8574 0.8146 0.0
C288 C 0.56556 0.89765 0.81874 0.0
C289 C 0.50852 0.83377 0.84265 0.0
C290 C 0.53329 0.89302 0.80783 0.0
C291 C 0.52995 0.92495 0.80354 0.0
C292 C 0.55843 0.96359 0.81002 0.0
C293 C 0.59087 0.96865 0.82113 0.0
C294 C 0.59447 0.93632 0.82522 0.0
H295 H 0.49708 0.81506 0.85528 0.0
H296 H 0.51708 0.86377 0.84901 0.0
H297 H 0.48521 0.82362 0.83052 0.0
H298 H 0.51061 0.86434 0.80209 0.0
H299 H 0.50468 0.91919 0.79471 0.0
H300 H 0.98948 0.64157 0.15546 0.0
H301 H 0.92903 0.64106 0.15271 0.0
H302 H 0.86834 0.52135 0.16212 0.0
H303 H 0.9288 0.5217 0.16478 0.0
H304 H 0.86603 0.60275 0.12583 0.0
H305 H 0.81591 0.55914 0.20304 0.0
H306 H 0.86407 0.57439 0.19631 0.0
H307 H 0.82632 0.52638 0.18752 0.0
C308 C 0.96344 0.61497 0.15707 0.0
C309 C 0.96519 0.58173 0.1605 0.0
C310 C 0.9283 0.61469 0.15544 0.0
C311 C 0.89279 0.58137 0.15752 0.0
C312 C 0.89447 0.54805 0.16088 0.0
H313 H 0.64969 0.53679 0.15312 0.0
H314 H 0.70725 0.53141 0.1579 0.0
C315 C 0.92961 0.54819 0.16227 0.0
C316 C 0.85471 0.5815 0.15554 0.0
H317 H 0.77256 0.56259 0.18023 0.0
C318 C 0.84589 0.59403 0.13789 0.0
C319 C 0.82695 0.5698 0.17083 0.0
C320 C 0.83375 0.55696 0.19059 0.0
C321 C 0.81134 0.59472 0.13499 0.0
C322 C 0.78396 0.58411 0.15053 0.0
C323 C 0.79257 0.57109 0.16812 0.0
C324 C 0.74746 0.58746 0.14893 0.0
C325 C 0.8042 0.60556 0.11459 0.0
C326 C 0.74915 0.62103 0.1431 0.0
C327 C 0.71613 0.62392 0.14023 0.0
C328 C 0.67915 0.59403 0.14361 0.0
C329 C 0.67715 0.56092 0.15051 0.0
C330 C 0.71056 0.55778 0.15314 0.0
H331 H 0.81905 0.59857 0.10198 0.0
H332 H 0.77342 0.59044 0.10986 0.0
H333 H 0.81555 0.63711 0.11607 0.0
H334 H 0.77635 0.64551 0.14053 0.0
H335 H 0.71968 0.65006 0.13497 0.0
H336 H 0.41274 0.97741 0.50592 0.0
H337 H 0.35223 0.91612 0.50308 0.0
H338 H 0.40901 0.8566 0.47782 0.0
H339 H 0.4696 0.9176 0.48112 0.0
H340 H 0.3058 0.86405 0.47383 0.0
H341 H 0.35279 0.78409 0.51798 0.0
H342 H 0.38213 0.83518 0.51701 0.0
H343 H 0.3809 0.80131 0.49613 0.0
C344 C 0.4127 0.95135 0.49989 0.0
C345 C 0.44721 0.9535 0.49397 0.0
C346 C 0.3775 0.91575 0.49819 0.0
C347 C 0.37476 0.88017 0.49062 0.0
C348 C 0.4092 0.88244 0.4844 0.0
H349 H 0.18915 0.63576 0.46054 0.0
H350 H 0.24912 0.69702 0.46758 0.0
C351 C 0.44441 0.91801 0.48613 0.0
C352 C 0.33627 0.84151 0.48881 0.0
H353 H 0.29289 0.74671 0.49908 0.0
C354 C 0.30327 0.83866 0.47957 0.0
C355 C 0.33135 0.8072 0.49613 0.0
C356 C 0.36354 0.80708 0.50755 0.0
C357 C 0.26724 0.80363 0.47695 0.0
C358 C 0.26244 0.76925 0.48409 0.0
C359 C 0.29537 0.77216 0.49343 0.0
C360 C 0.22447 0.73009 0.48137 0.0
C361 C 0.23487 0.80369 0.4657 0.0
C362 C 0.18909 0.72594 0.48733 0.0
C363 C 0.15417 0.69004 0.48351 0.0
C364 C 0.15287 0.65632 0.47377 0.0
C365 C 0.1884 0.66026 0.46856 0.0
C366 C 0.22316 0.69592 0.47243 0.0
H367 H 0.24526 0.82776 0.456 0.0
H368 H 0.21729 0.77617 0.45554 0.0
H369 H 0.21651 0.80742 0.47726 0.0
H370 H 0.18818 0.75072 0.49474 0.0
H371 H 0.12787 0.68918 0.48734 0.0
H372 H 0.61718 0.48029 0.85555 0.0
H373 H 0.61725 0.41919 0.85252 0.0
H374 H 0.52768 0.37182 0.80424 0.0
H375 H 0.52631 0.43203 0.80801 0.0
H376 H 0.63348 0.37891 0.82774 0.0
H377 H 0.48026 0.28084 0.83298 0.0
H378 H 0.48824 0.30779 0.81144 0.0
H379 H 0.50101 0.33236 0.83758 0.0
C380 C 0.59708 0.4568 0.84441 0.0
C381 C 0.57139 0.46192 0.83227 0.0
C382 C 0.59719 0.42134 0.84259 0.0
C383 C 0.57176 0.38901 0.82847 0.0
C384 C 0.54676 0.39461 0.81598 0.0
H385 H 0.53504 0.14819 0.82991 0.0
H386 H 0.53563 0.20961 0.83863 0.0
C387 C 0.54628 0.42983 0.818 0.0
C388 C 0.5724 0.3506 0.82641 0.0
H389 H 0.51581 0.25122 0.82038 0.0
C390 C 0.60747 0.3512 0.82626 0.0
C391 C 0.53909 0.31322 0.82493 0.0
C392 C 0.50009 0.30844 0.82698 0.0
C393 C 0.61018 0.31702 0.82422 0.0
C394 C 0.57685 0.27965 0.82137 0.0
C395 C 0.54177 0.27899 0.82212 0.0
C396 C 0.57782 0.24154 0.81717 0.0
C397 C 0.64936 0.32188 0.82589 0.0
C398 C 0.60124 0.2373 0.8023 0.0
C399 C 0.6015 0.20234 0.79768 0.0
C400 C 0.57769 0.16883 0.80722 0.0
C401 C 0.55445 0.17289 0.82236 0.0
C402 C 0.55443 0.20835 0.82716 0.0
H403 H 0.66938 0.34905 0.83574 0.0
H404 H 0.64901 0.29753 0.83261 0.0
H405 H 0.66061 0.32364 0.81021 0.0
H406 H 0.61883 0.26085 0.79356 0.0
H407 H 0.61983 0.20121 0.78585 0.0
H408 H 0.62221 0.84935 0.46907 0.0
H409 H 0.64365 0.80378 0.47409 0.0
H410 H 0.65463 0.83594 0.54028 0.0
H411 H 0.63432 0.88246 0.53543 0.0
H412 H 0.71972 0.83545 0.49631 0.0
H413 H 0.60163 0.71345 0.53073 0.0
H414 H 0.59377 0.74307 0.5146 0.0
H415 H 0.61255 0.76132 0.54092 0.0
C416 C 0.62874 0.84642 0.48473 0.0
C417 C 0.62707 0.86994 0.50184 0.0
C418 C 0.6407 0.82018 0.48755 0.0
C419 C 0.65055 0.81652 0.50753 0.0
C420 C 0.64661 0.83807 0.52476 0.0
H421 H 0.76475 0.71769 0.56493 0.0
H422 H 0.72552 0.74439 0.5554 0.0
C423 C 0.63492 0.86457 0.52195 0.0
C424 C 0.66981 0.79434 0.51017 0.0
H425 H 0.66136 0.71644 0.53095 0.0
C426 C 0.70691 0.80916 0.50366 0.0
C427 C 0.65296 0.7604 0.51993 0.0
C428 C 0.61292 0.74329 0.52687 0.0
C429 C 0.72831 0.79165 0.50731 0.0
C430 C 0.71158 0.75764 0.51717 0.0
C431 C 0.67407 0.74238 0.5233 0.0
C432 C 0.7334 0.73897 0.52246 0.0
C433 C 0.76916 0.81085 0.50146 0.0
C434 C 0.75044 0.72648 0.50707 0.0
C435 C 0.77325 0.71153 0.51253 0.0
C436 C 0.77846 0.70787 0.53336 0.0
C437 C 0.7606 0.71944 0.54868 0.0
C438 C 0.73825 0.73481 0.54326 0.0
H439 H 0.78029 0.8415 0.4992 0.0
H440 H 0.78774 0.80967 0.51355 0.0
H441 H 0.7711 0.7957 0.48663 0.0
H442 H 0.74642 0.72865 0.49087 0.0
H443 H 0.78668 0.70266 0.50049 0.0
H444 H 0.79115 0.55574 0.86955 0.0
H445 H 0.83993 0.53811 0.86268 0.0
H446 H 0.83861 0.5586 0.79885 0.0
H447 H 0.78992 0.57656 0.80561 0.0
H448 H 0.84853 0.48331 0.82537 0.0
H449 H 0.94592 0.64269 0.83263 0.0
H450 H 0.90017 0.62214 0.84378 0.0
H451 H 0.90291 0.62073 0.81615 0.0
C452 C 0.80087 0.55593 0.85399 0.0
C453 C 0.7873 0.56807 0.83819 0.0
C454 C 0.82826 0.54537 0.85003 0.0
C455 C 0.84254 0.54699 0.83027 0.0
C456 C 0.82749 0.55685 0.81412 0.0
H457 H 0.07482 0.60224 0.83227 0.0
H458 H 1.01412 0.58252 0.81513 0.0
C459 C 0.79988 0.56722 0.81804 0.0
C460 C 0.87758 0.54525 0.82785 0.0
H461 H 0.97333 0.60432 0.83346 0.0
C462 C 0.87598 0.50959 0.82666 0.0
C463 C 0.91307 0.57962 0.82933 0.0
C464 C 0.916 0.6186 0.83059 0.0
C465 C 0.90942 0.5076 0.82784 0.0
C466 C 0.94495 0.54223 0.83102 0.0
C467 C 0.94625 0.57767 0.83096 0.0
C468 C 0.98075 0.54356 0.83712 0.0
C469 C 0.90615 0.46851 0.82596 0.0
C470 C 0.9825 0.52619 0.85443 0.0
C471 C 1.01757 0.53612 0.86386 0.0
C472 C 1.05161 0.56488 0.85672 0.0
C473 C 1.04967 0.57984 0.83836 0.0
C474 C 1.01468 0.5688 0.82852 0.0
H475 H 0.88184 0.4475 0.81506 0.0
H476 H 0.93247 0.46958 0.82046 0.0
H477 H 0.90058 0.45766 0.84136 0.0
H478 H 0.95689 0.50712 0.86167 0.0
H479 H 1.01773 0.52277 0.87746 0.0
H480 H 0.22385 0.86696 0.13848 0.0
H481 H 0.27832 0.92974 0.1336 0.0
H482 H 0.35382 0.88604 0.1436 0.0
H483 H 0.29972 0.82315 0.14739 0.0
H484 H 0.32682 0.97234 0.16365 0.0
H485 H 0.41037 0.95536 0.10174 0.0
H486 H 0.36113 0.91944 0.10373 0.0
H487 H 0.39867 0.91745 0.11742 0.0
C488 C 0.25199 0.87037 0.1388 0.0
C489 C 0.2576 0.8403 0.14361 0.0
C490 C 0.28309 0.9063 0.13604 0.0
C491 C 0.32023 0.91265 0.13799 0.0
C492 C 0.32553 0.8818 0.14143 0.0
H493 H 0.49282 1.03409 0.21775 0.0
H494 H 0.43304 1.00691 0.19751 0.0
C495 C 0.29455 0.84594 0.14402 0.0
C496 C 0.35346 0.95227 0.14072 0.0
H497 H 0.44857 0.99778 0.13414 0.0
C498 C 0.35318 0.97861 0.15659 0.0
C499 C 0.38777 0.96153 0.13114 0.0
C500 C 0.38924 0.93698 0.11239 0.0
C501 C 0.38713 1.01077 0.16517 0.0
C502 C 0.42201 1.01597 0.15801 0.0
C503 C 0.42185 0.99312 0.1401 0.0
C504 C 0.45767 1.03839 0.17124 0.0
C505 C 0.38546 1.03713 0.18288 0.0
C506 C 0.49161 0.06509 0.16322 0.0
C507 C 0.52614 0.08078 0.17487 0.0
C508 C 0.52722 0.06962 0.1946 0.0
C509 C 0.49297 1.04399 0.20283 0.0
C510 C 0.45864 1.02848 0.19126 0.0
H511 H 0.36009 1.04021 0.18062 0.0
H512 H 0.38275 1.0244 0.19759 0.0
H513 H 0.41134 0.06614 0.18443 0.0
H514 H 0.49152 0.07278 0.14772 0.0
H515 H 0.55209 0.10075 0.16819 0.0
H516 H 0.47497 0.2565 0.46153 0.0
H517 H 0.49557 0.32453 0.45987 0.0
H518 H 0.6108 0.35521 0.47678 0.0
H519 H 0.59068 0.28793 0.47782 0.0
H520 H 0.51904 0.37405 0.49157 0.0
H521 H 0.6343 0.43312 0.43887 0.0
H522 H 0.60233 0.3818 0.43785 0.0
H523 H 0.64497 0.40588 0.4549 0.0
C524 C 0.50487 0.27781 0.46425 0.0
C525 C 0.53122 0.26694 0.46984 0.0
C526 C 0.51665 0.31662 0.46322 0.0
C527 C 0.5549 0.34518 0.46788 0.0
C528 C 0.58143 0.33392 0.47233 0.0
H529 H 0.65566 0.51593 0.55825 0.0
H530 H 0.61391 0.46189 0.53306 0.0
C531 C 0.56979 0.29525 0.47311 0.0
C532 C 0.56621 0.3865 0.47227 0.0
H533 H 0.64497 0.47539 0.47259 0.0
C534 C 0.54589 0.39634 0.48675 0.0
C535 C 0.60055 0.41618 0.46563 0.0
C536 C 0.62139 0.40855 0.44825 0.0
C537 C 0.56159 0.43391 0.49684 0.0
C538 C 0.59887 0.46192 0.49275 0.0
C539 C 0.61683 0.45356 0.47621 0.0
C540 C 0.62207 0.49622 0.50797 0.0
C541 C 0.53922 0.44249 0.51292 0.0
C542 C 0.64148 0.53359 0.50212 0.0
C543 C 0.66563 0.56496 0.51668 0.0
C544 C 0.67088 0.55922 0.53719 0.0
C545 C 0.65142 0.52165 0.54282 0.0
C546 C 0.62744 0.49061 0.52839 0.0
H547 H 0.50829 0.42538 0.50845 0.0
H548 H 0.54373 0.4342 0.52799 0.0
H549 H 0.54811 0.47357 0.51505 0.0
H550 H 0.63815 0.53841 0.48633 0.0
H551 H 0.68027 0.59359 0.51188 0.0
H552 H 0.48114 0.6703 0.78727 0.0
H553 H 0.46857 0.72389 0.78837 0.0
H554 H 0.34812 0.64223 0.781 0.0
H555 H 0.36086 0.58909 0.77916 0.0
H556 H 0.36808 0.71483 0.7674 0.0
H557 H 0.43494 0.73379 0.8462 0.0
H558 H 0.46179 0.74001 0.82352 0.0
H559 H 0.42565 0.69253 0.82819 0.0
C560 C 0.45217 0.66405 0.78474 0.0
C561 C 0.42181 0.6259 0.78336 0.0
C562 C 0.44501 0.6946 0.78551 0.0
C563 C 0.40739 0.68704 0.78548 0.0
C564 C 0.37741 0.64877 0.78114 0.0
H565 H 0.22654 0.65025 0.8288 0.0
H566 H 0.27966 0.67579 0.80702 0.0
C567 C 0.3846 0.61832 0.78009 0.0
C568 C 0.398 0.71597 0.7951 0.0
H569 H 0.38232 0.74151 0.8442 0.0
C570 C 0.37237 0.72234 0.78412 0.0
C571 C 0.4046 0.7273 0.81684 0.0
C572 C 0.43323 0.72323 0.8295 0.0
C573 C 0.34862 0.73335 0.79471 0.0
C574 C 0.34994 0.73671 0.81667 0.0
C575 C 0.38041 0.73769 0.82736 0.0
C576 C 0.31542 0.7272 0.82825 0.0
C577 C 0.31991 0.73756 0.7823 0.0
C578 C 0.31752 0.74708 0.84782 0.0
C579 C 0.28699 0.73173 0.86074 0.0
C580 C 0.25413 0.69629 0.8543 0.0
C581 C 0.25146 0.67755 0.83436 0.0
C582 C 0.28176 0.69267 0.82159 0.0
H583 H 0.33331 0.75359 0.76891 0.0
H584 H 0.29651 0.70861 0.77588 0.0
H585 H 0.30784 0.7529 0.79188 0.0
H586 H 0.34337 0.77345 0.85346 0.0
H587 H 0.28959 0.74683 0.87602 0.0
H588 H 0.92236 0.31605 0.08247 0.0
H589 H 0.86774 0.25069 0.07539 0.0
H590 H 0.80264 0.2831 0.11669 0.0
H591 H 0.85648 0.34783 0.12361 0.0
H592 H 0.84642 0.20857 0.10566 0.0
H593 H 0.7192 0.20657 0.07628 0.0
H594 H 0.76637 0.24651 0.07379 0.0
H595 H 0.74121 0.24526 0.09693 0.0
C596 C 0.89589 0.30946 0.08944 0.0
C597 C 0.89385 0.33689 0.10383 0.0
C598 C 0.86466 0.2722 0.08529 0.0
C599 C 0.83094 0.2619 0.09541 0.0
C600 C 0.82785 0.29039 0.10821 0.0
H601 H 0.72436 0.12664 0.18146 0.0
H602 H 0.76692 0.16325 0.15568 0.0
C603 C 0.85891 0.32758 0.11228 0.0
C604 C 0.80282 0.22087 0.0968 0.0
H605 H 0.70867 0.16432 0.10427 0.0
C606 C 0.81615 0.19823 0.10456 0.0
C607 C 0.76323 0.20661 0.09495 0.0
C608 C 0.74681 0.22749 0.08478 0.0
C609 C 0.79147 0.16452 0.11313 0.0
C610 C 0.75278 0.15369 0.11423 0.0
C611 C 0.7386 0.17325 0.10391 0.0
C612 C 0.7287 0.12763 0.12916 0.0
C613 C 0.80754 0.1424 0.1223 0.0
C614 C 0.69303 0.09547 0.12281 0.0
C615 C 0.66855 0.07446 0.13762 0.0
C616 C 0.67921 0.08583 0.15891 0.0
C617 C 0.71539 0.11723 0.16516 0.0
C618 C 0.73987 0.13797 0.15041 0.0
H619 H 0.83194 0.14452 0.11362 0.0
H620 H 0.81815 0.155 0.1386 0.0
H621 H 0.78569 0.11153 0.12217 0.0
H622 H 0.68377 0.08734 0.1065 0.0
H623 H 0.64065 0.05039 0.13248 0.0
H624 H 0.13495 0.65165 0.10429 0.0
H625 H 0.14331 0.65558 0.06718 0.0
H626 H 1.04808 0.54022 0.05346 0.0
H627 H 1.03942 0.53585 0.09069 0.0
H628 H 0.11794 0.55688 0.03296 0.0
H629 H 0.07318 0.66438 0.02386 0.0
H630 H 0.1076 0.67666 0.04488 0.0
H631 H 1.06044 0.63636 0.04551 0.0
C632 C 0.1156 0.62712 0.09342 0.0
C633 C 0.08646 0.59341 0.10045 0.0
C634 C 0.12035 0.62954 0.07221 0.0
C635 C 0.09608 0.59836 0.05764 0.0
C636 C 1.06695 0.56466 0.06453 0.0
H637 H 0.07953 0.54414 0.92477 0.0
H638 H 0.07515 0.54372 0.96223 0.0
C639 C 1.06202 0.56225 0.08578 0.0
C640 C 0.10202 0.60051 0.03521 0.0
H641 H 0.09892 0.64695 -0.00516 0.0
C642 C 0.1137 0.57646 0.02457 0.0
C643 C 0.09686 0.62643 0.02446 0.0
C644 C 0.08356 0.65229 0.03516 0.0
C645 C 0.12058 0.57777 0.00339 0.0
C646 C 0.11474 0.6032 0.99251 0.0
C647 C 0.10345 0.62756 0.00323 0.0
C648 C 0.11838 0.60362 0.96979 0.0
C649 C 0.13459 0.55233 0.99296 0.0
C650 C 0.14356 0.63773 0.96155 0.0
C651 C 0.14573 0.63824 0.94003 0.0
C652 C 0.12248 0.6047 0.92642 0.0
C653 C 0.09753 0.57059 0.93481 0.0
C654 C 0.09533 0.57015 0.95624 0.0
H655 H 0.14872 0.54408 0.00439 0.0
H656 H 0.11003 0.52547 0.9852 0.0
H657 H 0.1549 0.56683 0.98104 0.0
H658 H 0.16138 0.66397 0.97177 0.0
H659 H 0.16492 0.66505 0.93406 0.0
H660 H 0.52747 0.09879 0.43228 0.0
H661 H 0.53676 0.1096 0.39577 0.0
H662 H 0.61401 0.06551 0.3932 0.0
H663 H 0.60571 0.05558 0.42976 0.0
H664 H 0.64167 0.13127 0.37514 0.0
H665 H 0.49244 1.02902 0.34574 0.0
H666 H 0.4973 0.06539 0.36594 0.0
H667 H 0.50989 1.03029 0.37154 0.0
C668 C 0.5462 0.09111 0.42389 0.0
C669 C 0.56565 0.07607 0.43386 0.0
C670 C 0.55139 0.09721 0.40301 0.0
C671 C 0.57561 0.08779 0.39168 0.0
C672 C 0.59513 0.07291 0.40164 0.0
H673 H 0.63064 0.06889 0.26504 0.0
H674 H 0.62787 0.07204 0.30279 0.0
C675 C 0.59026 0.06716 0.42253 0.0
C676 C 0.58116 0.09377 0.3695 0.0
H677 H 0.5345 0.06712 0.32165 0.0
C678 C 0.61823 0.11726 0.36345 0.0
C679 C 0.55052 0.07543 0.35427 0.0
C680 C 0.51035 1.04833 0.35961 0.0
C681 C 0.62548 0.12276 0.34256 0.0
C682 C 0.59491 0.10428 0.32741 0.0
C683 C 0.5578 0.08139 0.33343 0.0
C684 C 0.60088 0.10667 0.30503 0.0
C685 C 0.6657 0.14822 0.33675 0.0
C686 C 0.5871 0.12561 0.29393 0.0
C687 C 0.58909 0.12434 0.27238 0.0
C688 C 0.60434 0.10353 0.26153 0.0
C689 C 0.61925 0.08565 0.27288 0.0
C690 C 0.61754 0.08725 0.29445 0.0
H691 H 0.68497 0.16604 0.35054 0.0
H692 H 0.67657 0.12996 0.32916 0.0
H693 H 0.66657 0.16756 0.3255 0.0
H694 H 0.57412 0.14072 0.30189 0.0
H695 H 0.57792 0.13896 0.26417 0.0
H696 H 0.66543 0.60421 0.78561 0.0
H697 H 0.68846 0.61548 0.7509 0.0
H698 H 0.57468 0.57648 0.72644 0.0
H699 H 0.55166 0.56671 0.76145 0.0
H700 H 0.67263 0.56724 0.71764 0.0
H701 H 0.63215 0.67415 0.70069 0.0
H702 H 0.63025 0.65971 0.72627 0.0
H703 H 0.59216 0.63024 0.70689 0.0
C704 C 0.64528 0.5982 0.77286 0.0
C705 C 0.60672 0.58464 0.77623 0.0
C706 C 0.65853 0.60472 0.75302 0.0
C707 C 0.63346 0.59746 0.73608 0.0
C708 C 0.59478 0.58339 0.73935 0.0
H709 H 0.6745 0.55422 0.60855 0.0
H710 H 0.65577 0.55098 0.64425 0.0
C711 C 0.58158 0.57748 0.75932 0.0
C712 C 0.64779 0.60299 0.71495 0.0
H713 H 0.65061 0.64624 0.67194 0.0
C714 C 0.66804 0.58478 0.70773 0.0
C715 C 0.64245 0.62643 0.70212 0.0
C716 C 0.62343 0.64908 0.70947 0.0
C717 C 0.68244 0.58872 0.68794 0.0
C718 C 0.67523 0.61035 0.67469 0.0
C719 C 0.65575 0.62931 0.68204 0.0
C720 C 0.6867 0.61272 0.65296 0.0
C721 C 0.70571 0.57007 0.68162 0.0
C722 C 0.70935 0.6486 0.64575 0.0
C723 C 0.71936 0.65063 0.62508 0.0
C724 C 0.7068 0.61676 0.61127 0.0
C725 C 0.68425 0.58091 0.61865 0.0
C726 C 0.67397 0.57896 0.63918 0.0
H727 H 0.71914 0.56622 0.69538 0.0
H728 H 0.68684 0.5411 0.67308 0.0
H729 H 0.72839 0.58739 0.67137 0.0
H730 H 0.71924 0.67505 0.6561 0.0
H731 H 0.73633 0.67868 0.61984 0.0
H732 H 0.53923 0.10549 0.5705 0.0
H733 H 0.5412 0.10674 0.60825 0.0
H734 H 0.57579 1.02138 0.60261 0.0
H735 H 0.57432 1.02018 0.56479 0.0
H736 H 0.50148 1.0485 0.63305 0.0
H737 H 0.65679 0.10643 0.64434 0.0
H738 H 0.63487 0.10698 0.62029 0.0
H739 H 0.63229 0.06333 0.62635 0.0
C740 C 0.54735 0.08697 0.57722 0.0
C741 C 0.55683 0.06288 0.56447 0.0
C742 C 0.54839 0.08769 0.59887 0.0
C743 C 0.55916 0.06458 0.60838 0.0
C744 C 0.5681 1.04006 0.59572 0.0
H745 H 0.525 1.02212 0.73934 0.0
H746 H 0.52256 1.01438 0.70126 0.0
C747 C 0.56703 1.03926 0.57403 0.0
C748 C 0.56074 0.0661 0.63151 0.0
H749 H 0.6209 0.0881 0.67403 0.0
C750 C 0.52757 0.05706 0.642 0.0
C751 C 0.59487 0.0777 0.64327 0.0
C752 C 0.63185 0.08952 0.63306 0.0
C753 C 0.52756 0.05917 0.66382 0.0
C754 C 0.56155 0.07014 0.67557 0.0
C755 C 0.59475 0.07931 0.66507 0.0
C756 C 0.56371 0.0741 0.69877 0.0
C757 C 0.49138 0.0507 0.67415 0.0
C758 C 0.58848 0.10989 0.71016 0.0
C759 C 0.59019 0.11431 0.73191 0.0
C760 C 0.56726 0.08298 0.74291 0.0
C761 C 0.5431 1.04687 0.73146 0.0
C762 C 0.54138 1.04249 0.70964 0.0
H763 H 0.47067 0.05181 0.66349 0.0
H764 H 0.47788 1.02134 0.67898 0.0
H765 H 0.49736 0.0715 0.68822 0.0
H766 H 0.60624 0.13467 0.70219 0.0
H767 H 0.60967 0.14238 0.74014 0.0
H768 H 0.50281 0.51019 0.89778 0.0
H769 H 0.49714 0.50772 0.93539 0.0
H770 H 0.58467 0.62728 0.9467 0.0
H771 H 0.5909 0.62981 0.90947 0.0
H772 H 0.59808 0.5833 0.97031 0.0
H773 H 0.44923 0.55122 0.97701 0.0
H774 H 0.45479 0.51784 0.95885 0.0
H775 H 0.47475 0.56708 0.95394 0.0
C776 C 0.52047 0.53606 0.90828 0.0
C777 C 0.54732 0.57016 0.90053 0.0
C778 C 0.51713 0.53466 0.92981 0.0
C779 C 0.54029 0.56743 0.94397 0.0
C780 C 0.5665 0.60159 0.93617 0.0
H781 H 0.52372 0.6171 0.07587 0.0
H782 H 0.52239 0.61257 0.03791 0.0
C783 C 0.56996 0.60297 0.91479 0.0
C784 C 0.53888 0.56621 0.96691 0.0
H785 H 0.48132 0.55151 0.00755 0.0
C786 C 0.57249 0.57624 0.97843 0.0
C787 C 0.50564 0.55743 0.9776 0.0
C788 C 0.4691 0.54811 0.9663 0.0
C789 C 0.57387 0.5779 0.00021 0.0
C790 C 0.5405 0.5685 0.01089 0.0
C791 C 0.50684 0.55842 -0.00061 0.0
C792 C 0.54033 0.5702 0.034 0.0
C793 C 0.61145 0.59089 0.01161 0.0
C794 C 0.55036 0.54754 0.04455 0.0
C795 C 0.5512 0.55011 0.06629 0.0
C796 C 0.54167 0.57516 0.07802 0.0
C797 C 0.53096 0.5973 0.06738 0.0
C798 C 0.53026 0.5948 0.04564 0.0
H799 H 0.6358 0.60654 0.00189 0.0
H800 H 0.61534 0.60997 0.02614 0.0
H801 H 0.61216 0.56529 0.0158 0.0
H802 H 0.55741 0.52768 0.03595 0.0
H803 H 0.55885 0.53208 0.0739 0.0
H804 H 1.04744 0.51717 0.22803 0.0
H805 H 1.04465 0.51437 0.26559 0.0
H806 H 0.09819 0.63819 0.27615 0.0
H807 H 0.09977 0.64107 0.23874 0.0
H808 H 0.09694 0.54094 0.29609 0.0
H809 H 1.01037 0.61026 0.3116 0.0
H810 H 1.01741 0.59526 0.2856 0.0
H811 H 1.05283 0.6407 0.2993 0.0
C812 C 1.05844 0.54381 0.23835 0.0
C813 C 0.07349 0.57932 0.23028 0.0
C814 C 1.05684 0.54217 0.25986 0.0
C815 C 0.0704 0.57599 0.27385 0.0
C816 C 0.08633 0.61153 0.2658 0.0
H817 H 0.13704 0.60093 0.40448 0.0
H818 H 0.13351 0.59772 0.36677 0.0
C819 C 0.08748 0.61315 0.24432 0.0
C820 C 1.06888 0.57426 0.2968 0.0
H821 H 1.04214 0.60562 0.34126 0.0
C822 C 0.08466 0.55484 0.30591 0.0
C823 C 1.0522 0.59165 0.30976 0.0
C824 C 1.03188 0.61025 0.30103 0.0
C825 C 0.08519 0.55326 0.3275 0.0
C826 C 0.07061 0.57269 0.34058 0.0
C827 C 1.05386 0.59116 0.3314 0.0
C828 C 0.07268 0.57455 0.36375 0.0
C829 C 0.10078 0.5301 0.33595 0.0
C830 C 1.03996 0.56399 0.37496 0.0
C831 C 1.04206 0.56687 0.39673 0.0
C832 C 0.07699 0.58035 0.4079 0.0
C833 C 0.10967 0.59083 0.39658 0.0
C834 C 0.1076 0.58836 0.37486 0.0
H835 H 0.09844 0.50709 0.32399 0.0
H836 H 0.13137 0.54939 0.34068 0.0
H837 H 0.08567 0.51654 0.34966 0.0
H838 H 1.01268 0.55355 0.36685 0.0
H839 H 1.01636 0.55915 0.40479 0.0
loop_
_geom_bond_atom_site_label_1
_geom_bond_atom_site_label_2
_geom_bond_distance
_geom_bond_site_symmetry_2
_ccdc_geom_bond_type
Eu0 C9 2.819 1_455 S
Eu0 O11 2.406 . S
Eu0 O13 2.417 . S
Eu0 O18 2.360 1_455 S
Eu0 O21 2.481 1_455 S
Eu0 O22 2.463 1_455 S
Eu0 O23 2.348 . S
Eu1 O10 2.373 . S
Eu1 O14 2.488 . S
Eu1 O15 2.471 . S
Eu1 O16 2.349 . S
Eu1 O19 2.392 1_455 S
Eu1 O20 2.418 . S
Eu1 C30 2.828 . S
C2 O20 1.244 . S
C2 O23 1.265 . S
C3 C4 1.379 . S
C3 C7 1.373 . S
C3 C9 1.505 . S
C4 C3 1.379 . S
C4 C6 1.369 . S
C4 H32 0.930 . S
C5 C7 1.383 . S
C5 C8 1.382 . S
C5 H33 0.930 . S
C6 C4 1.369 . S
C6 C8 1.392 . S
C6 H34 0.930 . S
C7 C3 1.373 . S
C7 C5 1.383 . S
C7 H35 0.931 . S
C8 C5 1.382 . S
C8 C6 1.392 . S
C9 Eu0 2.819 1_655 S
C9 C3 1.505 . S
C9 O21 1.249 . S
C9 O22 1.244 . S
O10 Eu1 2.373 . S
O10 C12 1.258 . S
O11 Eu0 2.406 . S
O11 C12 1.242 . S
C12 O10 1.258 . S
C12 O11 1.242 . S
O13 Eu0 2.417 . S
O13 C17 1.244 . S
O14 Eu1 2.488 . S
O14 C30 1.249 . S
O15 Eu1 2.471 . S
O15 C30 1.244 . S
O16 Eu1 2.349 . S
O16 C17 1.265 . S
C17 O13 1.244 . S
C17 O16 1.265 . S
O18 Eu0 2.360 1_655 S
O18 C31 1.258 . S
O19 Eu1 2.392 1_655 S
O19 C31 1.242 . S
O20 Eu1 2.418 . S
O20 C2 1.244 . S
O21 Eu0 2.481 1_655 S
O21 C9 1.249 . S
O22 Eu0 2.463 1_655 S
O22 C9 1.244 . S
O23 Eu0 2.348 . S
O23 C2 1.265 . S
C24 C25 1.379 . S
C24 C28 1.373 . S
C24 C30 1.505 . S
C25 C24 1.379 . S
C25 C27 1.369 . S
C25 H36 0.930 . S
C26 C28 1.383 . S
C26 C29 1.382 . S
C26 H37 0.930 . S
C27 C25 1.369 . S
C27 C29 1.392 . S
C27 H38 0.930 . S
C28 C24 1.373 . S
C28 C26 1.383 . S
C28 H39 0.931 . S
C29 C26 1.382 . S
C29 C27 1.392 . S
C30 Eu1 2.828 . S
C30 O14 1.249 . S
C30 O15 1.244 . S
C30 C24 1.505 . S
C31 O18 1.258 . S
C31 O19 1.242 . S
H32 C4 0.930 . S
H33 C5 0.930 . S
H34 C6 0.930 . S
H35 C7 0.931 . S
H36 C25 0.930 . S
H37 C26 0.930 . S
H38 C27 0.930 . S
H39 C28 0.931 . S
Eu40 C49 2.828 1_545 S
Eu40 O51 2.392 . S
Eu40 O53 2.418 . S
Eu40 O58 2.373 1_545 S
Eu40 O61 2.488 1_545 S
Eu40 O62 2.471 1_545 S
Eu40 O63 2.349 . S
Eu41 O50 2.373 . S
Eu41 O54 2.488 . S
Eu41 O55 2.471 . S
Eu41 O56 2.349 . S
Eu41 O59 2.392 1_545 S
Eu41 O60 2.418 . S
Eu41 C70 2.828 . S
C42 O60 1.244 . S
C42 O63 1.265 . S
C43 C44 1.379 . S
C43 C47 1.373 . S
C43 C49 1.505 . S
C44 C43 1.379 . S
C44 C46 1.369 . S
C44 H72 0.930 . S
C45 C47 1.383 . S
C45 C48 1.382 . S
C45 H73 0.930 . S
C46 C44 1.369 . S
C46 C48 1.392 . S
C46 H74 0.930 . S
C47 C43 1.373 . S
C47 C45 1.383 . S
C47 H75 0.931 . S
C48 C45 1.382 . S
C48 C46 1.392 . S
C49 Eu40 2.828 1_565 S
C49 C43 1.505 . S
C49 O61 1.249 . S
C49 O62 1.244 . S
O50 Eu41 2.373 . S
O50 C52 1.258 . S
O51 Eu40 2.392 . S
O51 C52 1.242 . S
C52 O50 1.258 . S
C52 O51 1.242 . S
O53 Eu40 2.418 . S
O53 C57 1.244 . S
O54 Eu41 2.488 . S
O54 C70 1.249 . S
O55 Eu41 2.471 . S
O55 C70 1.244 . S
O56 Eu41 2.349 . S
O56 C57 1.265 . S
C57 O53 1.244 . S
C57 O56 1.265 . S
O58 Eu40 2.373 1_565 S
O58 C71 1.258 . S
O59 Eu41 2.392 1_565 S
O59 C71 1.242 . S
O60 Eu41 2.418 . S
O60 C42 1.244 . S
O61 Eu40 2.488 1_565 S
O61 C49 1.249 . S
O62 Eu40 2.471 1_565 S
O62 C49 1.244 . S
O63 Eu40 2.349 . S
O63 C42 1.265 . S
C64 C65 1.379 . S
C64 C68 1.373 . S
C64 C70 1.505 . S
C65 C64 1.379 . S
C65 C67 1.369 . S
C65 H76 0.930 . S
C66 C68 1.383 . S
C66 C69 1.382 . S
C66 H77 0.930 . S
C67 C65 1.369 . S
C67 C69 1.392 . S
C67 H78 0.930 . S
C68 C64 1.373 . S
C68 C66 1.383 . S
C68 H79 0.931 . S
C69 C66 1.382 . S
C69 C67 1.392 . S
C70 Eu41 2.828 . S
C70 O54 1.249 . S
C70 O55 1.244 . S
C70 C64 1.505 . S
C71 O58 1.258 . S
C71 O59 1.242 . S
H72 C44 0.930 . S
H73 C45 0.930 . S
H74 C46 0.930 . S
H75 C47 0.931 . S
H76 C65 0.930 . S
H77 C66 0.930 . S
H78 C67 0.930 . S
H79 C68 0.931 . S
Eu80 C89 2.828 . S
Eu80 O91 2.392 . S
Eu80 O93 2.418 . S
Eu80 O98 2.373 . S
Eu80 O101 2.488 . S
Eu80 O102 2.471 . S
Eu80 O103 2.349 . S
Eu81 O90 2.373 . S
Eu81 O94 2.488 . S
Eu81 O95 2.471 . S
Eu81 O96 2.349 . S
Eu81 O99 2.392 . S
Eu81 O100 2.418 . S
Eu81 C110 2.828 . S
C82 O100 1.244 . S
C82 O103 1.265 . S
C83 C84 1.379 . S
C83 C87 1.373 . S
C83 C89 1.505 . S
C84 C83 1.379 . S
C84 C86 1.369 . S
C84 H112 0.930 . S
C85 C87 1.383 . S
C85 C88 1.382 . S
C85 H113 0.930 . S
C86 C84 1.369 . S
C86 C88 1.392 . S
C86 H114 0.930 . S
C87 C83 1.373 . S
C87 C85 1.383 . S
C87 H115 0.931 . S
C88 C85 1.382 . S
C88 C86 1.392 . S
C89 Eu80 2.828 . S
C89 C83 1.505 . S
C89 O101 1.249 . S
C89 O102 1.244 . S
O90 Eu81 2.373 . S
O90 C92 1.258 . S
O91 Eu80 2.392 . S
O91 C92 1.242 . S
C92 O90 1.258 . S
C92 O91 1.242 . S
O93 Eu80 2.418 . S
O93 C97 1.244 . S
O94 Eu81 2.488 . S
O94 C110 1.249 . S
O95 Eu81 2.471 . S
O95 C110 1.244 . S
O96 Eu81 2.349 . S
O96 C97 1.265 . S
C97 O93 1.244 . S
C97 O96 1.265 . S
O98 Eu80 2.373 . S
O98 C111 1.258 . S
O99 Eu81 2.392 . S
O99 C111 1.242 . S
O100 Eu81 2.418 . S
O100 C82 1.244 . S
O101 Eu80 2.488 . S
O101 C89 1.249 . S
O102 Eu80 2.471 . S
O102 C89 1.244 . S
O103 Eu80 2.349 . S
O103 C82 1.265 . S
C104 C105 1.379 . S
C104 C108 1.373 . S
C104 C110 1.505 . S
C105 C104 1.379 . S
C105 C107 1.369 . S
C105 H116 0.930 . S
C106 C108 1.383 . S
C106 C109 1.382 . S
C106 H117 0.930 . S
C107 C105 1.369 . S
C107 C109 1.392 . S
C107 H118 0.930 . S
C108 C104 1.373 . S
C108 C106 1.383 . S
C108 H119 0.931 . S
C109 C106 1.382 . S
C109 C107 1.392 . S
C110 Eu81 2.828 . S
C110 O94 1.249 . S
C110 O95 1.244 . S
C110 C104 1.505 . S
C111 O98 1.258 . S
C111 O99 1.242 . S
H112 C84 0.930 . S
H113 C85 0.930 . S
H114 C86 0.930 . S
H115 C87 0.931 . S
H116 C105 0.930 . S
H117 C106 0.930 . S
H118 C107 0.930 . S
H119 C108 0.931 . S
H120 C125 0.930 . S
H121 C128 0.930 . S
H122 C130 0.930 . S
H123 C124 1.016 . S
C124 H123 1.016 . S
C124 N131 1.286 . S
C125 H120 0.930 . S
C125 C126 1.397 . S
C125 C127 1.361 . S
C126 C125 1.397 . S
C126 C130 1.390 . S
C127 C125 1.361 . S
C127 C128 1.393 . S
C127 N131 1.413 . S
C128 H121 0.930 . S
C128 C127 1.393 . S
C128 C129 1.399 . S
C129 C128 1.399 . S
C129 C130 1.381 . S
C130 H122 0.930 . S
C130 C126 1.390 . S
C130 C129 1.381 . S
N131 C124 1.286 . S
N131 C127 1.413 . S
H132 C137 0.930 . S
H133 C140 0.930 . S
H134 C142 0.930 . S
H135 C136 1.016 . S
C136 H135 1.016 . S
C136 N143 1.286 . S
C137 H132 0.930 . S
C137 C138 1.397 . S
C137 C139 1.361 . S
C138 C137 1.397 . S
C138 C142 1.390 . S
C139 C137 1.361 . S
C139 C140 1.393 . S
C139 N143 1.413 . S
C140 H133 0.930 . S
C140 C139 1.393 . S
C140 C141 1.399 . S
C141 C140 1.399 . S
C141 C142 1.381 . S
C142 H134 0.930 . S
C142 C138 1.390 . S
C142 C141 1.381 . S
N143 C136 1.286 . S
N143 C139 1.413 . S
H144 C149 0.930 . S
H145 C152 0.930 . S
H146 C154 0.930 1_655 S
H147 C148 1.016 . S
C148 H147 1.016 . S
C148 N155 1.286 . S
C149 H144 0.930 . S
C149 C150 1.397 . S
C149 C151 1.361 . S
C150 C149 1.397 . S
C150 C154 1.390 . S
C151 C149 1.361 . S
C151 C152 1.393 . S
C151 N155 1.413 . S
C152 H145 0.930 . S
C152 C151 1.393 . S
C152 C153 1.399 . S
C153 C152 1.399 . S
C153 C154 1.381 . S
C154 H146 0.930 1_455 S
C154 C150 1.390 . S
C154 C153 1.381 . S
N155 C148 1.286 . S
N155 C151 1.413 . S
H156 C161 0.930 . S
H157 C164 0.930 . S
H158 C166 0.930 . S
H159 C160 1.016 . S
C160 H159 1.016 . S
C160 N167 1.286 . S
C161 H156 0.930 . S
C161 C162 1.397 . S
C161 C163 1.365 . S
C162 C161 1.397 . S
C162 C166 1.390 . S
C163 C161 1.365 . S
C163 C164 1.392 1_455 S
C163 N167 1.411 1_455 S
C164 H157 0.930 . S
C164 C163 1.392 1_655 S
C164 C165 1.399 1_655 S
C165 C164 1.399 1_455 S
C165 C166 1.381 . S
C166 H158 0.930 . S
C166 C162 1.390 . S
C166 C165 1.381 . S
N167 C160 1.286 . S
N167 C163 1.411 1_655 S
H168 C173 0.930 . S
H169 C176 0.930 1_565 S
H170 C178 0.930 . S
H171 C172 1.016 . S
C172 H171 1.016 . S
C172 N179 1.286 . S
C173 H168 0.930 . S
C173 C174 1.397 . S
C173 C175 1.361 . S
C174 C173 1.397 . S
C174 C178 1.390 . S
C175 C173 1.361 . S
C175 C176 1.393 . S
C175 N179 1.413 1_545 S
C176 H169 0.930 1_545 S
C176 C175 1.393 . S
C176 C177 1.399 . S
C177 C176 1.399 . S
C177 C178 1.381 . S
C178 H170 0.930 . S
C178 C174 1.390 . S
C178 C177 1.381 . S
N179 C172 1.286 . S
N179 C175 1.413 1_565 S
H180 C185 0.930 . S
H181 C188 0.930 . S
H182 C190 0.930 . S
H183 C184 1.016 . S
C184 H183 1.016 . S
C184 N191 1.286 . S
C185 H180 0.930 . S
C185 C186 1.397 . S
C185 C187 1.361 . S
C186 C185 1.397 . S
C186 C190 1.390 . S
C187 C185 1.361 . S
C187 C188 1.393 . S
C187 N191 1.413 . S
C188 H181 0.930 . S
C188 C187 1.393 . S
C188 C189 1.399 . S
C189 C188 1.399 . S
C189 C190 1.381 . S
C190 H182 0.930 . S
C190 C186 1.390 . S
C190 C189 1.381 . S
N191 C184 1.286 . S
N191 C187 1.413 . S
H192 C200 0.929 . S
H193 C202 0.930 . S
H194 C204 0.930 . S
H195 C207 0.929 . S
H196 C210 0.930 . S
H197 C212 0.960 . S
H198 C212 0.960 . S
H199 C212 0.960 . S
C200 H192 0.929 . S
C200 C201 1.377 . S
C200 C202 1.384 . S
C201 C200 1.377 . S
C201 C207 1.390 . S
C202 H193 0.930 . S
C202 C200 1.384 . S
C202 C203 1.372 . S
C203 C202 1.372 . S
C203 C204 1.400 . S
C203 C208 1.490 . S
C204 H194 0.930 . S
C204 C203 1.400 . S
C204 C207 1.386 . S
H205 C221 0.930 . S
H206 C222 0.931 . S
C207 H195 0.929 . S
C207 C201 1.390 . S
C207 C204 1.386 . S
C208 C203 1.490 . S
C208 C210 1.395 . S
C208 C211 1.403 . S
H209 C215 0.930 . S
C210 H196 0.930 . S
C210 C208 1.395 . S
C210 C213 1.403 . S
C211 C208 1.403 . S
C211 C212 1.524 . S
C211 C215 1.400 . S
C212 H197 0.960 . S
C212 H198 0.960 . S
C212 H199 0.960 . S
C212 C211 1.524 . S
C213 C210 1.403 . S
C213 C214 1.392 . S
C213 C217 1.495 . S
C214 C213 1.392 . S
C214 C215 1.385 . S
C214 C216 1.478 . S
C215 H209 0.930 . S
C215 C211 1.400 . S
C215 C214 1.385 . S
C216 C214 1.478 . S
C216 C218 1.381 . S
C216 C222 1.383 . S
C217 C213 1.495 . S
C217 H223 0.959 . S
C217 H224 0.961 . S
C217 H225 0.960 . S
C218 C216 1.381 . S
C218 C219 1.394 . S
C218 H226 0.930 . S
C219 C218 1.394 . S
C219 C220 1.383 . S
C219 H227 0.929 . S
C220 C219 1.383 . S
C220 C221 1.377 . S
C221 H205 0.930 . S
C221 C220 1.377 . S
C221 C222 1.379 . S
C222 H206 0.931 . S
C222 C216 1.383 . S
C222 C221 1.379 . S
H223 C217 0.959 . S
H224 C217 0.961 . S
H225 C217 0.960 . S
H226 C218 0.930 . S
H227 C219 0.929 . S
H228 C236 0.929 . S
H229 C238 0.930 . S
H230 C240 0.930 . S
H231 C243 0.929 . S
H232 C246 0.930 . S
H233 C248 0.960 . S
H234 C248 0.960 . S
H235 C248 0.960 . S
C236 H228 0.929 . S
C236 C237 1.377 . S
C236 C238 1.384 . S
C237 C236 1.377 . S
C237 C243 1.390 . S
C238 H229 0.930 . S
C238 C236 1.384 . S
C238 C239 1.372 . S
C239 C238 1.372 . S
C239 C240 1.400 . S
C239 C244 1.490 . S
C240 H230 0.930 . S
C240 C239 1.400 . S
C240 C243 1.386 . S
H241 C257 0.930 . S
H242 C258 0.931 . S
C243 H231 0.929 . S
C243 C237 1.390 . S
C243 C240 1.386 . S
C244 C239 1.490 . S
C244 C246 1.395 . S
C244 C247 1.403 . S
H245 C251 0.930 . S
C246 H232 0.930 . S
C246 C244 1.395 . S
C246 C249 1.403 . S
C247 C244 1.403 . S
C247 C248 1.524 . S
C247 C251 1.400 . S
C248 H233 0.960 . S
C248 H234 0.960 . S
C248 H235 0.960 . S
C248 C247 1.524 . S
C249 C246 1.403 . S
C249 C250 1.392 . S
C249 C253 1.495 . S
C250 C249 1.392 . S
C250 C251 1.385 . S
C250 C252 1.478 . S
C251 H245 0.930 . S
C251 C247 1.400 . S
C251 C250 1.385 . S
C252 C250 1.478 . S
C252 C254 1.381 . S
C252 C258 1.383 . S
C253 C249 1.495 . S
C253 H259 0.959 . S
C253 H260 0.961 . S
C253 H261 0.960 . S
C254 C252 1.381 . S
C254 C255 1.394 . S
C254 H262 0.930 . S
C255 C254 1.394 . S
C255 C256 1.383 . S
C255 H263 0.929 . S
C256 C255 1.383 . S
C256 C257 1.377 . S
C257 H241 0.930 . S
C257 C256 1.377 . S
C257 C258 1.379 . S
C258 H242 0.931 . S
C258 C252 1.383 . S
C258 C257 1.379 . S
H259 C253 0.959 . S
H260 C253 0.961 . S
H261 C253 0.960 . S
H262 C254 0.930 . S
H263 C255 0.929 . S
H264 C272 0.929 . S
H265 C274 0.930 . S
H266 C276 0.930 . S
H267 C279 0.929 . S
H268 C282 0.930 . S
H269 C284 0.960 . S
H270 C284 0.960 . S
H271 C284 0.960 . S
C272 H264 0.929 . S
C272 C273 1.377 . S
C272 C274 1.384 . S
C273 C272 1.377 . S
C273 C279 1.390 . S
C274 H265 0.930 . S
C274 C272 1.384 . S
C274 C275 1.372 . S
C275 C274 1.372 . S
C275 C276 1.400 . S
C275 C280 1.490 . S
C276 H266 0.930 . S
C276 C275 1.400 . S
C276 C279 1.386 . S
H277 C293 0.930 . S
H278 C294 0.931 . S
C279 H267 0.929 . S
C279 C273 1.390 . S
C279 C276 1.386 . S
C280 C275 1.490 . S
C280 C282 1.395 . S
C280 C283 1.403 . S
H281 C287 0.930 . S
C282 H268 0.930 . S
C282 C280 1.395 . S
C282 C285 1.403 . S
C283 C280 1.403 . S
C283 C284 1.524 . S
C283 C287 1.400 . S
C284 H269 0.960 . S
C284 H270 0.960 . S
C284 H271 0.960 . S
C284 C283 1.524 . S
C285 C282 1.403 . S
C285 C286 1.392 . S
C285 C289 1.495 . S
C286 C285 1.392 . S
C286 C287 1.385 . S
C286 C288 1.478 . S
C287 H281 0.930 . S
C287 C283 1.400 . S
C287 C286 1.385 . S
C288 C286 1.478 . S
C288 C290 1.381 . S
C288 C294 1.383 . S
C289 C285 1.495 . S
C289 H295 0.959 . S
C289 H296 0.961 . S
C289 H297 0.960 . S
C290 C288 1.381 . S
C290 C291 1.394 . S
C290 H298 0.930 . S
C291 C290 1.394 . S
C291 C292 1.383 . S
C291 H299 0.929 . S
C292 C291 1.383 . S
C292 C293 1.377 . S
C293 H277 0.930 . S
C293 C292 1.377 . S
C293 C294 1.379 . S
C294 H278 0.931 . S
C294 C288 1.383 . S
C294 C293 1.379 . S
H295 C289 0.959 . S
H296 C289 0.961 . S
H297 C289 0.960 . S
H298 C290 0.930 . S
H299 C291 0.929 . S
H300 C308 0.929 . S
H301 C310 0.930 . S
H302 C312 0.930 . S
H303 C315 0.929 . S
H304 C318 0.930 . S
H305 C320 0.960 . S
H306 C320 0.960 . S
H307 C320 0.960 . S
C308 H300 0.929 . S
C308 C309 1.377 . S
C308 C310 1.384 . S
C309 C308 1.377 . S
C309 C315 1.390 . S
C310 H301 0.930 . S
C310 C308 1.384 . S
C310 C311 1.372 . S
C311 C310 1.372 . S
C311 C312 1.400 . S
C311 C316 1.490 . S
C312 H302 0.930 . S
C312 C311 1.400 . S
C312 C315 1.386 . S
H313 C329 0.930 . S
H314 C330 0.931 . S
C315 H303 0.929 . S
C315 C309 1.390 . S
C315 C312 1.386 . S
C316 C311 1.490 . S
C316 C318 1.395 . S
C316 C319 1.403 . S
H317 C323 0.930 . S
C318 H304 0.930 . S
C318 C316 1.395 . S
C318 C321 1.403 . S
C319 C316 1.403 . S
C319 C320 1.524 . S
C319 C323 1.400 . S
C320 H305 0.960 . S
C320 H306 0.960 . S
C320 H307 0.960 . S
C320 C319 1.524 . S
C321 C318 1.403 . S
C321 C322 1.392 . S
C321 C325 1.495 . S
C322 C321 1.392 . S
C322 C323 1.385 . S
C322 C324 1.478 . S
C323 H317 0.930 . S
C323 C319 1.400 . S
C323 C322 1.385 . S
C324 C322 1.478 . S
C324 C326 1.381 . S
C324 C330 1.383 . S
C325 C321 1.495 . S
C325 H331 0.959 . S
C325 H332 0.961 . S
C325 H333 0.960 . S
C326 C324 1.381 . S
C326 C327 1.394 . S
C326 H334 0.930 . S
C327 C326 1.394 . S
C327 C328 1.383 . S
C327 H335 0.929 . S
C328 C327 1.383 . S
C328 C329 1.377 . S
C329 H313 0.930 . S
C329 C328 1.377 . S
C329 C330 1.379 . S
C330 H314 0.931 . S
C330 C324 1.383 . S
C330 C329 1.379 . S
H331 C325 0.959 . S
H332 C325 0.961 . S
H333 C325 0.960 . S
H334 C326 0.930 . S
H335 C327 0.929 . S
H336 C344 0.929 . S
H337 C346 0.930 . S
H338 C348 0.930 . S
H339 C351 0.929 . S
H340 C354 0.930 . S
H341 C356 0.960 . S
H342 C356 0.960 . S
H343 C356 0.960 . S
C344 H336 0.929 . S
C344 C345 1.377 . S
C344 C346 1.384 . S
C345 C344 1.377 . S
C345 C351 1.390 . S
C346 H337 0.930 . S
C346 C344 1.384 . S
C346 C347 1.372 . S
C347 C346 1.372 . S
C347 C348 1.400 . S
C347 C352 1.490 . S
C348 H338 0.930 . S
C348 C347 1.400 . S
C348 C351 1.386 . S
H349 C365 0.930 . S
H350 C366 0.931 . S
C351 H339 0.929 . S
C351 C345 1.390 . S
C351 C348 1.386 . S
C352 C347 1.490 . S
C352 C354 1.395 . S
C352 C355 1.403 . S
H353 C359 0.930 . S
C354 H340 0.930 . S
C354 C352 1.395 . S
C354 C357 1.403 . S
C355 C352 1.403 . S
C355 C356 1.524 . S
C355 C359 1.400 . S
C356 H341 0.960 . S
C356 H342 0.960 . S
C356 H343 0.960 . S
C356 C355 1.524 . S
C357 C354 1.403 . S
C357 C358 1.392 . S
C357 C361 1.495 . S
C358 C357 1.392 . S
C358 C359 1.385 . S
C358 C360 1.478 . S
C359 H353 0.930 . S
C359 C355 1.400 . S
C359 C358 1.385 . S
C360 C358 1.478 . S
C360 C362 1.381 . S
C360 C366 1.383 . S
C361 C357 1.495 . S
C361 H367 0.959 . S
C361 H368 0.961 . S
C361 H369 0.960 . S
C362 C360 1.381 . S
C362 C363 1.394 . S
C362 H370 0.930 . S
C363 C362 1.394 . S
C363 C364 1.383 . S
C363 H371 0.929 . S
C364 C363 1.383 . S
C364 C365 1.377 . S
C365 H349 0.930 . S
C365 C364 1.377 . S
C365 C366 1.379 . S
C366 H350 0.931 . S
C366 C360 1.383 . S
C366 C365 1.379 . S
H367 C361 0.959 . S
H368 C361 0.961 . S
H369 C361 0.960 . S
H370 C362 0.930 . S
H371 C363 0.929 . S
H372 C380 0.929 . S
H373 C382 0.930 . S
H374 C384 0.930 . S
H375 C387 0.929 . S
H376 C390 0.930 . S
H377 C392 0.960 . S
H378 C392 0.960 . S
H379 C392 0.960 . S
C380 H372 0.929 . S
C380 C381 1.377 . S
C380 C382 1.384 . S
C381 C380 1.377 . S
C381 C387 1.390 . S
C382 H373 0.930 . S
C382 C380 1.384 . S
C382 C383 1.372 . S
C383 C382 1.372 . S
C383 C384 1.400 . S
C383 C388 1.490 . S
C384 H374 0.930 . S
C384 C383 1.400 . S
C384 C387 1.386 . S
H385 C401 0.930 . S
H386 C402 0.931 . S
C387 H375 0.929 . S
C387 C381 1.390 . S
C387 C384 1.386 . S
C388 C383 1.490 . S
C388 C390 1.395 . S
C388 C391 1.403 . S
H389 C395 0.930 . S
C390 H376 0.930 . S
C390 C388 1.395 . S
C390 C393 1.403 . S
C391 C388 1.403 . S
C391 C392 1.524 . S
C391 C395 1.400 . S
C392 H377 0.960 . S
C392 H378 0.960 . S
C392 H379 0.960 . S
C392 C391 1.524 . S
C393 C390 1.403 . S
C393 C394 1.392 . S
C393 C397 1.495 . S
C394 C393 1.392 . S
C394 C395 1.385 . S
C394 C396 1.478 . S
C395 H389 0.930 . S
C395 C391 1.400 . S
C395 C394 1.385 . S
C396 C394 1.478 . S
C396 C398 1.381 . S
C396 C402 1.383 . S
C397 C393 1.495 . S
C397 H403 0.959 . S
C397 H404 0.961 . S
C397 H405 0.960 . S
C398 C396 1.381 . S
C398 C399 1.394 . S
C398 H406 0.930 . S
C399 C398 1.394 . S
C399 C400 1.383 . S
C399 H407 0.929 . S
C400 C399 1.383 . S
C400 C401 1.377 . S
C401 H385 0.930 . S
C401 C400 1.377 . S
C401 C402 1.379 . S
C402 H386 0.931 . S
C402 C396 1.383 . S
C402 C401 1.379 . S
H403 C397 0.959 . S
H404 C397 0.961 . S
H405 C397 0.960 . S
H406 C398 0.930 . S
H407 C399 0.929 . S
H408 C416 0.929 . S
H409 C418 0.930 . S
H410 C420 0.930 . S
H411 C423 0.929 . S
H412 C426 0.930 . S
H413 C428 0.960 . S
H414 C428 0.960 . S
H415 C428 0.960 . S
C416 H408 0.929 . S
C416 C417 1.377 . S
C416 C418 1.384 . S
C417 C416 1.377 . S
C417 C423 1.390 . S
C418 H409 0.930 . S
C418 C416 1.384 . S
C418 C419 1.372 . S
C419 C418 1.372 . S
C419 C420 1.400 . S
C419 C424 1.490 . S
C420 H410 0.930 . S
C420 C419 1.400 . S
C420 C423 1.386 . S
H421 C437 0.930 . S
H422 C438 0.931 . S
C423 H411 0.929 . S
C423 C417 1.390 . S
C423 C420 1.386 . S
C424 C419 1.490 . S
C424 C426 1.395 . S
C424 C427 1.403 . S
H425 C431 0.930 . S
C426 H412 0.930 . S
C426 C424 1.395 . S
C426 C429 1.403 . S
C427 C424 1.403 . S
C427 C428 1.524 . S
C427 C431 1.400 . S
C428 H413 0.960 . S
C428 H414 0.960 . S
C428 H415 0.960 . S
C428 C427 1.524 . S
C429 C426 1.403 . S
C429 C430 1.392 . S
C429 C433 1.495 . S
C430 C429 1.392 . S
C430 C431 1.385 . S
C430 C432 1.478 . S
C431 H425 0.930 . S
C431 C427 1.400 . S
C431 C430 1.385 . S
C432 C430 1.478 . S
C432 C434 1.381 . S
C432 C438 1.383 . S
C433 C429 1.495 . S
C433 H439 0.959 . S
C433 H440 0.961 . S
C433 H441 0.960 . S
C434 C432 1.381 . S
C434 C435 1.394 . S
C434 H442 0.930 . S
C435 C434 1.394 . S
C435 C436 1.383 . S
C435 H443 0.929 . S
C436 C435 1.383 . S
C436 C437 1.377 . S
C437 H421 0.930 . S
C437 C436 1.377 . S
C437 C438 1.379 . S
C438 H422 0.931 . S
C438 C432 1.383 . S
C438 C437 1.379 . S
H439 C433 0.959 . S
H440 C433 0.961 . S
H441 C433 0.960 . S
H442 C434 0.930 . S
H443 C435 0.929 . S
H444 C452 0.929 . S
H445 C454 0.930 . S
H446 C456 0.930 . S
H447 C459 0.929 . S
H448 C462 0.930 . S
H449 C464 0.960 . S
H450 C464 0.960 . S
H451 C464 0.960 . S
C452 H444 0.929 . S
C452 C453 1.377 . S
C452 C454 1.384 . S
C453 C452 1.377 . S
C453 C459 1.390 . S
C454 H445 0.930 . S
C454 C452 1.384 . S
C454 C455 1.372 . S
C455 C454 1.372 . S
C455 C456 1.400 . S
C455 C460 1.490 . S
C456 H446 0.930 . S
C456 C455 1.400 . S
C456 C459 1.386 . S
H457 C473 0.936 . S
H458 C474 0.931 . S
C459 H447 0.929 . S
C459 C453 1.390 . S
C459 C456 1.386 . S
C460 C455 1.490 . S
C460 C462 1.395 . S
C460 C463 1.403 . S
H461 C467 0.930 . S
C462 H448 0.930 . S
C462 C460 1.395 . S
C462 C465 1.403 . S
C463 C460 1.403 . S
C463 C464 1.524 . S
C463 C467 1.400 . S
C464 H449 0.960 . S
C464 H450 0.960 . S
C464 H451 0.960 . S
C464 C463 1.524 . S
C465 C462 1.403 . S
C465 C466 1.392 . S
C465 C469 1.495 . S
C466 C465 1.392 . S
C466 C467 1.385 . S
C466 C468 1.478 . S
C467 H461 0.930 . S
C467 C463 1.400 . S
C467 C466 1.385 . S
C468 C466 1.478 . S
C468 C470 1.381 . S
C468 C474 1.383 . S
C469 C465 1.495 . S
C469 H475 0.959 . S
C469 H476 0.961 . S
C469 H477 0.960 . S
C470 C468 1.381 . S
C470 C471 1.394 . S
C470 H478 0.930 . S
C471 C470 1.394 . S
C471 C472 1.383 . S
C471 H479 0.929 . S
C472 C471 1.383 . S
C472 C473 1.377 . S
C473 H457 0.936 . S
C473 C472 1.377 . S
C473 C474 1.379 . S
C474 H458 0.931 . S
C474 C468 1.383 . S
C474 C473 1.379 . S
H475 C469 0.959 . S
H476 C469 0.961 . S
H477 C469 0.960 . S
H478 C470 0.930 . S
H479 C471 0.929 . S
H480 C488 0.929 . S
H481 C490 0.930 . S
H482 C492 0.930 . S
H483 C495 0.929 . S
H484 C498 0.930 . S
H485 C500 0.960 . S
H486 C500 0.960 . S
H487 C500 0.960 . S
C488 H480 0.929 . S
C488 C489 1.377 . S
C488 C490 1.384 . S
C489 C488 1.377 . S
C489 C495 1.390 . S
C490 H481 0.930 . S
C490 C488 1.384 . S
C490 C491 1.372 . S
C491 C490 1.372 . S
C491 C492 1.400 . S
C491 C496 1.490 . S
C492 H482 0.930 . S
C492 C491 1.400 . S
C492 C495 1.386 . S
H493 C509 0.930 . S
H494 C510 0.931 . S
C495 H483 0.929 . S
C495 C489 1.390 . S
C495 C492 1.386 . S
C496 C491 1.490 . S
C496 C498 1.395 . S
C496 C499 1.403 . S
H497 C503 0.930 . S
C498 H484 0.930 . S
C498 C496 1.395 . S
C498 C501 1.403 . S
C499 C496 1.403 . S
C499 C500 1.524 . S
C499 C503 1.400 . S
C500 H485 0.960 . S
C500 H486 0.960 . S
C500 H487 0.960 . S
C500 C499 1.524 . S
C501 C498 1.403 . S
C501 C502 1.392 . S
C501 C505 1.495 . S
C502 C501 1.392 . S
C502 C503 1.385 . S
C502 C504 1.478 . S
C503 H497 0.930 . S
C503 C499 1.400 . S
C503 C502 1.385 . S
C504 C502 1.478 . S
C504 C506 1.381 . S
C504 C510 1.383 . S
C505 C501 1.495 . S
C505 H511 0.959 . S
C505 H512 0.961 . S
C505 H513 0.960 . S
C506 C504 1.381 . S
C506 C507 1.394 1_565 S
C506 H514 0.930 . S
C507 C506 1.394 1_545 S
C507 C508 1.383 . S
C507 H515 0.929 . S
C508 C507 1.383 . S
C508 C509 1.377 1_545 S
C509 H493 0.930 . S
C509 C508 1.377 1_565 S
C509 C510 1.379 . S
C510 H494 0.931 . S
C510 C504 1.383 . S
C510 C509 1.379 . S
H511 C505 0.959 . S
H512 C505 0.961 . S
H513 C505 0.960 . S
H514 C506 0.930 . S
H515 C507 0.929 . S
H516 C524 0.929 . S
H517 C526 0.930 . S
H518 C528 0.930 . S
H519 C531 0.929 . S
H520 C534 0.930 . S
H521 C536 0.960 . S
H522 C536 0.960 . S
H523 C536 0.960 . S
C524 H516 0.929 . S
C524 C525 1.377 . S
C524 C526 1.384 . S
C525 C524 1.377 . S
C525 C531 1.390 . S
C526 H517 0.930 . S
C526 C524 1.384 . S
C526 C527 1.372 . S
C527 C526 1.372 . S
C527 C528 1.400 . S
C527 C532 1.490 . S
C528 H518 0.930 . S
C528 C527 1.400 . S
C528 C531 1.386 . S
H529 C545 0.930 . S
H530 C546 0.931 . S
C531 H519 0.929 . S
C531 C525 1.390 . S
C531 C528 1.386 . S
C532 C527 1.490 . S
C532 C534 1.395 . S
C532 C535 1.403 . S
H533 C539 0.930 . S
C534 H520 0.930 . S
C534 C532 1.395 . S
C534 C537 1.403 . S
C535 C532 1.403 . S
C535 C536 1.524 . S
C535 C539 1.400 . S
C536 H521 0.960 . S
C536 H522 0.960 . S
C536 H523 0.960 . S
C536 C535 1.524 . S
C537 C534 1.403 . S
C537 C538 1.392 . S
C537 C541 1.495 . S
C538 C537 1.392 . S
C538 C539 1.385 . S
C538 C540 1.478 . S
C539 H533 0.930 . S
C539 C535 1.400 . S
C539 C538 1.385 . S
C540 C538 1.478 . S
C540 C542 1.381 . S
C540 C546 1.383 . S
C541 C537 1.495 . S
C541 H547 0.959 . S
C541 H548 0.961 . S
C541 H549 0.960 . S
C542 C540 1.381 . S
C542 C543 1.394 . S
C542 H550 0.930 . S
C543 C542 1.394 . S
C543 C544 1.383 . S
C543 H551 0.929 . S
C544 C543 1.383 . S
C544 C545 1.377 . S
C545 H529 0.930 . S
C545 C544 1.377 . S
C545 C546 1.379 . S
C546 H530 0.931 . S
C546 C540 1.383 . S
C546 C545 1.379 . S
H547 C541 0.959 . S
H548 C541 0.961 . S
H549 C541 0.960 . S
H550 C542 0.930 . S
H551 C543 0.929 . S
H552 C560 0.929 . S
H553 C562 0.930 . S
H554 C564 0.930 . S
H555 C567 0.929 . S
H556 C570 0.930 . S
H557 C572 0.960 . S
H558 C572 0.960 . S
H559 C572 0.960 . S
C560 H552 0.929 . S
C560 C561 1.377 . S
C560 C562 1.384 . S
C561 C560 1.377 . S
C561 C567 1.390 . S
C562 H553 0.930 . S
C562 C560 1.384 . S
C562 C563 1.372 . S
C563 C562 1.372 . S
C563 C564 1.400 . S
C563 C568 1.490 . S
C564 H554 0.930 . S
C564 C563 1.400 . S
C564 C567 1.386 . S
H565 C581 0.930 . S
H566 C582 0.931 . S
C567 H555 0.929 . S
C567 C561 1.390 . S
C567 C564 1.386 . S
C568 C563 1.490 . S
C568 C570 1.395 . S
C568 C571 1.403 . S
H569 C575 0.930 . S
C570 H556 0.930 . S
C570 C568 1.395 . S
C570 C573 1.403 . S
C571 C568 1.403 . S
C571 C572 1.524 . S
C571 C575 1.400 . S
C572 H557 0.960 . S
C572 H558 0.960 . S
C572 H559 0.960 . S
C572 C571 1.524 . S
C573 C570 1.403 . S
C573 C574 1.392 . S
C573 C577 1.495 . S
C574 C573 1.392 . S
C574 C575 1.385 . S
C574 C576 1.478 . S
C575 H569 0.930 . S
C575 C571 1.400 . S
C575 C574 1.385 . S
C576 C574 1.478 . S
C576 C578 1.381 . S
C576 C582 1.383 . S
C577 C573 1.495 . S
C577 H583 0.959 . S
C577 H584 0.961 . S
C577 H585 0.960 . S
C578 C576 1.381 . S
C578 C579 1.394 . S
C578 H586 0.930 . S
C579 C578 1.394 . S
C579 C580 1.383 . S
C579 H587 0.929 . S
C580 C579 1.383 . S
C580 C581 1.377 . S
C581 H565 0.930 . S
C581 C580 1.377 . S
C581 C582 1.379 . S
C582 H566 0.931 . S
C582 C576 1.383 . S
C582 C581 1.379 . S
H583 C577 0.959 . S
H584 C577 0.961 . S
H585 C577 0.960 . S
H586 C578 0.930 . S
H587 C579 0.929 . S
H588 C596 0.929 . S
H589 C598 0.930 . S
H590 C600 0.930 . S
H591 C603 0.929 . S
H592 C606 0.930 . S
H593 C608 0.960 . S
H594 C608 0.960 . S
H595 C608 0.960 . S
C596 H588 0.929 . S
C596 C597 1.377 . S
C596 C598 1.384 . S
C597 C596 1.377 . S
C597 C603 1.390 . S
C598 H589 0.930 . S
C598 C596 1.384 . S
C598 C599 1.372 . S
C599 C598 1.372 . S
C599 C600 1.400 . S
C599 C604 1.490 . S
C600 H590 0.930 . S
C600 C599 1.400 . S
C600 C603 1.386 . S
H601 C617 0.930 . S
H602 C618 0.931 . S
C603 H591 0.929 . S
C603 C597 1.390 . S
C603 C600 1.386 . S
C604 C599 1.490 . S
C604 C606 1.395 . S
C604 C607 1.403 . S
H605 C611 0.930 . S
C606 H592 0.930 . S
C606 C604 1.395 . S
C606 C609 1.403 . S
C607 C604 1.403 . S
C607 C608 1.524 . S
C607 C611 1.400 . S
C608 H593 0.960 . S
C608 H594 0.960 . S
C608 H595 0.960 . S
C608 C607 1.524 . S
C609 C606 1.403 . S
C609 C610 1.392 . S
C609 C613 1.495 . S
C610 C609 1.392 . S
C610 C611 1.385 . S
C610 C612 1.478 . S
C611 H605 0.930 . S
C611 C607 1.400 . S
C611 C610 1.385 . S
C612 C610 1.478 . S
C612 C614 1.381 . S
C612 C618 1.383 . S
C613 C609 1.495 . S
C613 H619 0.959 . S
C613 H620 0.961 . S
C613 H621 0.960 . S
C614 C612 1.381 . S
C614 C615 1.394 . S
C614 H622 0.930 . S
C615 C614 1.394 . S
C615 C616 1.383 . S
C615 H623 0.929 . S
C616 C615 1.383 . S
C616 C617 1.377 . S
C617 H601 0.930 . S
C617 C616 1.377 . S
C617 C618 1.379 . S
C618 H602 0.931 . S
C618 C612 1.383 . S
C618 C617 1.379 . S
H619 C613 0.959 . S
H620 C613 0.961 . S
H621 C613 0.960 . S
H622 C614 0.930 . S
H623 C615 0.929 . S
H624 C632 0.929 . S
H625 C634 0.930 . S
H626 C636 0.930 1_655 S
H627 C639 0.939 . S
H628 C642 0.930 . S
H629 C644 0.960 . S
H630 C644 0.960 . S
H631 C644 0.960 . S
C632 H624 0.929 . S
C632 C633 1.377 . S
C632 C634 1.384 . S
C633 C632 1.377 . S
C633 C639 1.381 1_455 S
C634 H625 0.930 . S
C634 C632 1.384 . S
C634 C635 1.372 . S
C635 C634 1.372 . S
C635 C636 1.400 . S
C635 C640 1.490 . S
C636 H626 0.930 1_455 S
C636 C635 1.400 . S
C636 C639 1.385 1_455 S
H637 C653 0.930 1_655 S
H638 C654 0.931 1_655 S
C639 H627 0.939 . S
C639 C633 1.381 1_655 S
C639 C636 1.385 1_655 S
C640 C635 1.490 . S
C640 C642 1.395 . S
C640 C643 1.403 . S
H641 C647 0.921 1_556 S
C642 H628 0.930 . S
C642 C640 1.395 . S
C642 C645 1.403 . S
C643 C640 1.403 . S
C643 C644 1.524 . S
C643 C647 1.400 . S
C644 H629 0.960 . S
C644 H630 0.960 . S
C644 H631 0.960 . S
C644 C643 1.524 . S
C645 C642 1.403 . S
C645 C646 1.392 1_554 S
C645 C649 1.495 1_554 S
C646 C645 1.392 1_556 S
C646 C647 1.385 1_556 S
C646 C648 1.478 . S
C647 H641 0.921 1_554 S
C647 C643 1.400 . S
C647 C646 1.385 1_554 S
C648 C646 1.478 . S
C648 C650 1.381 . S
C648 C654 1.383 . S
C649 C645 1.495 1_556 S
C649 H655 0.959 1_556 S
C649 H656 0.961 . S
C649 H657 0.960 . S
C650 C648 1.381 . S
C650 C651 1.394 . S
C650 H658 0.930 . S
C651 C650 1.394 . S
C651 C652 1.383 . S
C651 H659 0.929 . S
C652 C651 1.383 . S
C652 C653 1.377 . S
C653 H637 0.930 1_455 S
C653 C652 1.377 . S
C653 C654 1.379 . S
C654 H638 0.931 1_455 S
C654 C648 1.383 . S
C654 C653 1.379 . S
H655 C649 0.959 1_554 S
H656 C649 0.961 . S
H657 C649 0.960 . S
H658 C650 0.930 . S
H659 C651 0.929 . S
H660 C668 0.929 . S
H661 C670 0.930 . S
H662 C672 0.930 1_565 S
H663 C675 0.949 . S
H664 C678 0.930 . S
H665 C680 0.960 . S
H666 C680 0.960 . S
H667 C680 0.960 . S
C668 H660 0.929 . S
C668 C669 1.377 . S
C668 C670 1.384 . S
C669 C668 1.377 . S
C669 C675 1.374 1_545 S
C670 H661 0.930 . S
C670 C668 1.384 . S
C670 C671 1.372 . S
C671 C670 1.372 . S
C671 C672 1.400 . S
C671 C676 1.490 . S
C672 H662 0.930 1_545 S
C672 C671 1.400 . S
C672 C675 1.382 1_545 S
H673 C689 0.930 . S
H674 C690 0.931 . S
C675 H663 0.949 . S
C675 C669 1.374 1_565 S
C675 C672 1.382 1_565 S
C676 C671 1.490 . S
C676 C678 1.395 . S
C676 C679 1.403 . S
H677 C683 0.930 . S
C678 H664 0.930 . S
C678 C676 1.395 . S
C678 C681 1.403 . S
C679 C676 1.403 . S
C679 C680 1.524 1_545 S
C679 C683 1.400 . S
C680 H665 0.960 . S
C680 H666 0.960 . S
C680 H667 0.960 . S
C680 C679 1.524 1_565 S
C681 C678 1.403 . S
C681 C682 1.392 . S
C681 C685 1.495 . S
C682 C681 1.392 . S
C682 C683 1.385 . S
C682 C684 1.478 . S
C683 H677 0.930 . S
C683 C679 1.400 . S
C683 C682 1.385 . S
C684 C682 1.478 . S
C684 C686 1.381 . S
C684 C690 1.383 . S
C685 C681 1.495 . S
C685 H691 0.959 . S
C685 H692 0.961 . S
C685 H693 0.960 . S
C686 C684 1.381 . S
C686 C687 1.394 . S
C686 H694 0.930 . S
C687 C686 1.394 . S
C687 C688 1.383 . S
C687 H695 0.929 . S
C688 C687 1.383 . S
C688 C689 1.377 . S
C689 H673 0.930 . S
C689 C688 1.377 . S
C689 C690 1.379 . S
C690 H674 0.931 . S
C690 C684 1.383 . S
C690 C689 1.379 . S
H691 C685 0.959 . S
H692 C685 0.961 . S
H693 C685 0.960 . S
H694 C686 0.930 . S
H695 C687 0.929 . S
H696 C704 0.929 . S
H697 C706 0.930 . S
H698 C708 0.930 . S
H699 C711 0.929 . S
H700 C714 0.930 . S
H701 C716 0.960 . S
H702 C716 0.960 . S
H703 C716 0.960 . S
C704 H696 0.929 . S
C704 C705 1.377 . S
C704 C706 1.384 . S
C705 C704 1.377 . S
C705 C711 1.390 . S
C706 H697 0.930 . S
C706 C704 1.384 . S
C706 C707 1.372 . S
C707 C706 1.372 . S
C707 C708 1.400 . S
C707 C712 1.490 . S
C708 H698 0.930 . S
C708 C707 1.400 . S
C708 C711 1.386 . S
H709 C725 0.930 . S
H710 C726 0.931 . S
C711 H699 0.929 . S
C711 C705 1.390 . S
C711 C708 1.386 . S
C712 C707 1.490 . S
C712 C714 1.395 . S
C712 C715 1.403 . S
H713 C719 0.930 . S
C714 H700 0.930 . S
C714 C712 1.395 . S
C714 C717 1.403 . S
C715 C712 1.403 . S
C715 C716 1.524 . S
C715 C719 1.400 . S
C716 H701 0.960 . S
C716 H702 0.960 . S
C716 H703 0.960 . S
C716 C715 1.524 . S
C717 C714 1.403 . S
C717 C718 1.392 . S
C717 C721 1.495 . S
C718 C717 1.392 . S
C718 C719 1.385 . S
C718 C720 1.478 . S
C719 H713 0.930 . S
C719 C715 1.400 . S
C719 C718 1.385 . S
C720 C718 1.478 . S
C720 C722 1.381 . S
C720 C726 1.383 . S
C721 C717 1.495 . S
C721 H727 0.959 . S
C721 H728 0.961 . S
C721 H729 0.960 . S
C722 C720 1.381 . S
C722 C723 1.394 . S
C722 H730 0.930 . S
C723 C722 1.394 . S
C723 C724 1.383 . S
C723 H731 0.929 . S
C724 C723 1.383 . S
C724 C725 1.377 . S
C725 H709 0.930 . S
C725 C724 1.377 . S
C725 C726 1.379 . S
C726 H710 0.931 . S
C726 C720 1.383 . S
C726 C725 1.379 . S
H727 C721 0.959 . S
H728 C721 0.961 . S
H729 C721 0.960 . S
H730 C722 0.930 . S
H731 C723 0.929 . S
H732 C740 0.929 . S
H733 C742 0.930 . S
H734 C744 0.930 1_565 S
H735 C747 0.929 1_565 S
H736 C750 0.930 . S
H737 C752 0.960 . S
H738 C752 0.960 . S
H739 C752 0.960 . S
C740 H732 0.929 . S
C740 C741 1.377 . S
C740 C742 1.384 . S
C741 C740 1.377 . S
C741 C747 1.390 . S
C742 H733 0.930 . S
C742 C740 1.384 . S
C742 C743 1.372 . S
C743 C742 1.372 . S
C743 C744 1.400 . S
C743 C748 1.490 . S
C744 H734 0.930 1_545 S
C744 C743 1.400 . S
C744 C747 1.386 . S
H745 C761 0.930 . S
H746 C762 0.931 . S
C747 H735 0.929 1_545 S
C747 C741 1.390 . S
C747 C744 1.386 . S
C748 C743 1.490 . S
C748 C750 1.395 . S
C748 C751 1.403 . S
H749 C755 0.930 . S
C750 H736 0.930 . S
C750 C748 1.395 . S
C750 C753 1.403 . S
C751 C748 1.403 . S
C751 C752 1.524 . S
C751 C755 1.400 . S
C752 H737 0.960 . S
C752 H738 0.960 . S
C752 H739 0.960 . S
C752 C751 1.524 . S
C753 C750 1.403 . S
C753 C754 1.392 . S
C753 C757 1.495 . S
C754 C753 1.392 . S
C754 C755 1.385 . S
C754 C756 1.478 . S
C755 H749 0.930 . S
C755 C751 1.400 . S
C755 C754 1.385 . S
C756 C754 1.478 . S
C756 C758 1.381 . S
C756 C762 1.383 1_545 S
C757 C753 1.495 . S
C757 H763 0.959 . S
C757 H764 0.945 1_545 S
C757 H765 0.960 . S
C758 C756 1.381 . S
C758 C759 1.394 . S
C758 H766 0.930 . S
C759 C758 1.394 . S
C759 C760 1.383 . S
C759 H767 0.929 . S
C760 C759 1.383 . S
C760 C761 1.377 1_545 S
C761 H745 0.930 . S
C761 C760 1.377 1_565 S
C761 C762 1.379 . S
C762 H746 0.931 . S
C762 C756 1.383 1_565 S
C762 C761 1.379 . S
H763 C757 0.959 . S
H764 C757 0.945 1_565 S
H765 C757 0.960 . S
H766 C758 0.930 . S
H767 C759 0.929 . S
H768 C776 0.929 . S
H769 C778 0.930 . S
H770 C780 0.930 . S
H771 C783 0.929 . S
H772 C786 0.930 . S
H773 C788 0.960 . S
H774 C788 0.960 . S
H775 C788 0.960 . S
C776 H768 0.929 . S
C776 C777 1.377 . S
C776 C778 1.384 . S
C777 C776 1.377 . S
C777 C783 1.390 . S
C778 H769 0.930 . S
C778 C776 1.384 . S
C778 C779 1.372 . S
C779 C778 1.372 . S
C779 C780 1.400 . S
C779 C784 1.490 . S
C780 H770 0.930 . S
C780 C779 1.400 . S
C780 C783 1.386 . S
H781 C797 0.930 . S
H782 C798 0.931 . S
C783 H771 0.929 . S
C783 C777 1.390 . S
C783 C780 1.386 . S
C784 C779 1.490 . S
C784 C786 1.395 . S
C784 C787 1.403 . S
H785 C791 0.930 . S
C786 H772 0.930 . S
C786 C784 1.395 . S
C786 C789 1.403 . S
C787 C784 1.403 . S
C787 C788 1.524 . S
C787 C791 1.400 . S
C788 H773 0.960 . S
C788 H774 0.960 . S
C788 H775 0.960 . S
C788 C787 1.524 . S
C789 C786 1.403 . S
C789 C790 1.392 1_556 S
C789 C793 1.495 1_556 S
C790 C789 1.392 1_554 S
C790 C791 1.385 1_554 S
C790 C792 1.478 . S
C791 H785 0.930 . S
C791 C787 1.400 . S
C791 C790 1.385 1_556 S
C792 C790 1.478 . S
C792 C794 1.381 . S
C792 C798 1.383 . S
C793 C789 1.495 1_554 S
C793 H799 0.959 1_554 S
C793 H800 0.961 . S
C793 H801 0.960 . S
C794 C792 1.381 . S
C794 C795 1.394 . S
C794 H802 0.930 . S
C795 C794 1.394 . S
C795 C796 1.383 . S
C795 H803 0.929 . S
C796 C795 1.383 . S
C796 C797 1.377 . S
C797 H781 0.930 . S
C797 C796 1.377 . S
C797 C798 1.379 . S
C798 H782 0.931 . S
C798 C792 1.383 . S
C798 C797 1.379 . S
H799 C793 0.959 1_556 S
H800 C793 0.961 . S
H801 C793 0.960 . S
H802 C794 0.930 . S
H803 C795 0.929 . S
H804 C812 0.929 . S
H805 C814 0.930 . S
H806 C816 0.930 . S
H807 C819 0.929 . S
H808 C822 0.930 . S
H809 C824 0.960 . S
H810 C824 0.960 . S
H811 C824 0.960 . S
C812 H804 0.929 . S
C812 C813 1.377 1_655 S
C812 C814 1.384 . S
C813 C812 1.377 1_455 S
C813 C819 1.390 . S
C814 H805 0.930 . S
C814 C812 1.384 . S
C814 C815 1.372 1_655 S
C815 C814 1.372 1_455 S
C815 C816 1.400 . S
C815 C820 1.490 . S
C816 H806 0.930 . S
C816 C815 1.400 . S
C816 C819 1.386 . S
H817 C833 0.930 . S
H818 C834 0.931 . S
C819 H807 0.929 . S
C819 C813 1.390 . S
C819 C816 1.386 . S
C820 C815 1.490 . S
C820 C822 1.395 1_455 S
C820 C823 1.403 . S
H821 C827 0.930 . S
C822 H808 0.930 . S
C822 C820 1.395 1_655 S
C822 C825 1.403 . S
C823 C820 1.403 . S
C823 C824 1.524 . S
C823 C827 1.400 . S
C824 H809 0.960 . S
C824 H810 0.960 . S
C824 H811 0.960 . S
C824 C823 1.524 . S
C825 C822 1.403 . S
C825 C826 1.392 1_655 S
C825 C829 1.495 . S
C826 C825 1.392 1_455 S
C826 C827 1.385 . S
C826 C828 1.478 . S
C827 H821 0.930 . S
C827 C823 1.400 . S
C827 C826 1.385 . S
C828 C826 1.478 . S
C828 C830 1.381 1_455 S
C828 C834 1.383 . S
C829 C825 1.495 . S
C829 H835 0.959 . S
C829 H836 0.961 . S
C829 H837 0.960 . S
C830 C828 1.381 1_655 S
C830 C831 1.394 . S
C830 H838 0.930 . S
C831 C830 1.394 . S
C831 C832 1.383 1_655 S
C831 H839 0.929 . S
C832 C831 1.383 1_455 S
C832 C833 1.377 . S
C833 H817 0.930 . S
C833 C832 1.377 . S
C833 C834 1.379 . S
C834 H818 0.931 . S
C834 C828 1.383 . S
C834 C833 1.379 . S
H835 C829 0.959 . S
H836 C829 0.961 . S
H837 C829 0.960 . S
H838 C830 0.930 . S
H839 C831 0.929 . S
C201 C12 3.229 . S
C220 C186 3.202 . S
C237 C52 2.991 . S
C256 C160 2.930 . S
C273 C111 3.033 . S
C292 C172 2.959 . S
C309 C31 2.791 . S
C328 C184 2.656 . S
C364 C162 2.919 . S
C345 C71 2.983 . S
C400 C174 2.873 . S
C381 C92 2.928 . S
C417 C48 0.538 . S
C436 C136 0.598 . S
C453 C109 0.614 . S
C472 C150 0.578 1_655 S
C489 C29 0.303 . S
C508 C126 0.243 . S
C544 C138 0.105 . S
C525 C69 0.269 . S
C580 C148 0.473 . S
C561 C88 0.121 . S
C597 C8 0.349 . S
C616 C124 0.422 . S
C652 C153 1.250 . S
C633 C17 1.231 . S
C669 C57 1.227 . S
C688 C129 1.261 . S
C705 C97 1.249 . S
C724 C141 1.280 . S
C760 C177 1.712 . S
C741 C42 1.689 . S
C796 C189 1.775 . S
C777 C82 1.733 . S
C813 C2 1.703 . S
C832 C165 1.729 . S
