# Generated by pormake.
# Topology anh, (6,3)-cn, num edge types: 1
# Building blocks:
#     Node 0, Type 0, BuildingBlock: HISSIN_clean_sbu_0, # of connection points: 6
#     Node 1, Type 0, BuildingBlock: HISSIN_clean_sbu_0, # of connection points: 6
#     Node 2, Type 0, BuildingBlock: HISSIN_clean_sbu_0, # of connection points: 6
#     Node 3, Type 1, BuildingBlock: KAKCAD_clean_linker_0, # of connection points: 3
#     Node 4, Type 1, BuildingBlock: KAKCAD_clean_linker_0, # of connection points: 3
#     Node 5, Type 1, BuildingBlock: KAKCAD_clean_linker_0, # of connection points: 3
#     Node 6, Type 1, BuildingBlock: KAKCAD_clean_linker_0, # of connection points: 3
#     Node 7, Type 1, BuildingBlock: KAKCAD_clean_linker_0, # of connection points: 3
#     Node 8, Type 1, BuildingBlock: KAKCAD_clean_linker_0, # of connection points: 3
#     Edge 9, Type (0, 1), BuildingBlock: KIFKEQ_clean_linker_1, # of connection points: 2
#     Edge 10, Type (0, 1), BuildingBlock: KIFKEQ_clean_linker_1, # of connection points: 2
#     Edge 11, Type (0, 1), BuildingBlock: KIFKEQ_clean_linker_1, # of connection points: 2
#     Edge 12, Type (0, 1), BuildingBlock: KIFKEQ_clean_linker_1, # of connection points: 2
#     Edge 13, Type (0, 1), BuildingBlock: KIFKEQ_clean_linker_1, # of connection points: 2
#     Edge 14, Type (0, 1), BuildingBlock: KIFKEQ_clean_linker_1, # of connection points: 2
#     Edge 15, Type (0, 1), BuildingBlock: KIFKEQ_clean_linker_1, # of connection points: 2
#     Edge 16, Type (0, 1), BuildingBlock: KIFKEQ_clean_linker_1, # of connection points: 2
#     Edge 17, Type (0, 1), BuildingBlock: KIFKEQ_clean_linker_1, # of connection points: 2
#     Edge 18, Type (0, 1), BuildingBlock: KIFKEQ_clean_linker_1, # of connection points: 2
#     Edge 19, Type (0, 1), BuildingBlock: KIFKEQ_clean_linker_1, # of connection points: 2
#     Edge 20, Type (0, 1), BuildingBlock: KIFKEQ_clean_linker_1, # of connection points: 2
#     Edge 21, Type (0, 1), BuildingBlock: KIFKEQ_clean_linker_1, # of connection points: 2
#     Edge 22, Type (0, 1), BuildingBlock: KIFKEQ_clean_linker_1, # of connection points: 2
#     Edge 23, Type (0, 1), BuildingBlock: KIFKEQ_clean_linker_1, # of connection points: 2
#     Edge 24, Type (0, 1), BuildingBlock: KIFKEQ_clean_linker_1, # of connection points: 2
#     Edge 25, Type (0, 1), BuildingBlock: KIFKEQ_clean_linker_1, # of connection points: 2
#     Edge 26, Type (0, 1), BuildingBlock: KIFKEQ_clean_linker_1, # of connection points: 2
# Relax obj value: 0.233
# Max RMSD: 0.187
# Mean RMSD: 0.154
data_MOF--net-anh--node1-HISSIN_clean_sbu_0--node2-KAKCAD_clean_linker_0--edge1-KIFKEQ_clean_linker_1
_symmetry_space_group_name_H-M    P1
_symmetry_Int_Tables_number       1
_symmetry_cell_setting            triclinic
loop_
_symmetry_equiv_pos_as_xyz
'x, y, z'
_cell_length_a     36.334663
_cell_length_b     36.290716
_cell_length_c     68.20783
_cell_angle_alpha  90.859995
_cell_angle_beta   91.105314
_cell_angle_gamma 120.14255
loop_
_atom_site_label
_atom_site_type_symbol
_atom_site_fract_x
_atom_site_fract_y
_atom_site_fract_z
_atom_type_partial_charge
Eu0 Eu 0.11361 0.50958 0.16332 0.0
Eu1 Eu 0.1655 0.61209 0.17358 0.0
C2 C 0.13432 0.54436 0.2082 0.0
C3 C 1.02581 0.40072 0.14605 0.0
C4 C 0.9985 0.41717 0.14345 0.0
C5 C 0.96745 0.32993 0.1375 0.0
C6 C 0.95556 0.38995 0.13857 0.0
C7 C 1.01045 0.35724 0.14253 0.0
C8 C 0.93922 0.34579 0.13613 0.0
C9 C 1.06904 0.42825 0.15411 0.0
O10 O 0.21543 0.5924 0.17849 0.0
O11 O 0.18282 0.52797 0.16145 0.0
C12 C 0.21678 0.56018 0.17 0.0
O13 O 0.1165 0.54205 0.13472 0.0
O14 O 0.22074 0.67594 0.17119 0.0
O15 O 0.16787 0.66637 0.18886 0.0
O16 O 0.17646 0.60583 0.14203 0.0
C17 C 0.14905 0.57804 0.12921 0.0
O18 O 1.06306 0.52717 0.16921 0.0
O19 O 1.10068 0.59711 0.1609 0.0
O20 O 0.1404 0.58102 0.20217 0.0
O21 O 1.09594 0.45666 0.14241 0.0
O22 O 1.07116 0.44416 0.17163 0.0
O23 O 0.1307 0.51461 0.19577 0.0
C24 C 0.20667 0.73267 0.17346 0.0
C25 C 0.17058 0.73332 0.16611 0.0
C26 C 0.24964 0.8084 0.16822 0.0
C27 C 0.17394 0.77171 0.16027 0.0
C28 C 0.24622 0.77024 0.17411 0.0
C29 C 0.21346 0.8098 0.16155 0.0
C30 C 0.20389 0.69399 0.18142 0.0
C31 C 1.06405 0.56239 0.16398 0.0
H32 H 1.00998 0.45078 0.14612 0.0
H33 H 0.95601 0.29619 0.13544 0.0
H34 H 0.93478 0.4033 0.13794 0.0
H35 H 1.03131 0.34417 0.1444 0.0
H36 H 0.13972 0.70446 0.16533 0.0
H37 H 0.28042 0.83719 0.1698 0.0
H38 H 0.14558 0.77175 0.15513 0.0
H39 H 0.27437 0.77035 0.17975 0.0
Eu40 Eu 0.60714 1.02912 0.49289 0.0
Eu41 Eu 0.55039 0.07465 0.50034 0.0
C42 C 0.5862 1.04602 0.53632 0.0
C43 C 0.66505 0.96649 0.47628 0.0
C44 C 0.64796 0.92469 0.48279 0.0
C45 C 0.71577 0.9573 0.45713 0.0
C46 C 0.66606 0.90022 0.47727 0.0
C47 C 0.69761 0.98172 0.46261 0.0
C48 C 0.70177 0.91731 0.4653 0.0
C49 C 0.65619 0.99718 0.48645 0.0
O50 O 0.61823 0.13117 0.5033 0.0
O51 O 0.65463 0.09938 0.49144 0.0
C52 C 0.65363 0.1335 0.49729 0.0
O53 O 0.57831 1.03086 0.46346 0.0
O54 O 0.53104 0.11188 0.51827 0.0
O55 O 0.49871 0.0843 0.49025 0.0
O56 O 0.57632 0.09145 0.47029 0.0
C57 C 0.5766 1.06427 0.45757 0.0
O58 O 0.54056 0.97303 0.49654 0.0
O59 O 0.50287 1.00693 0.49008 0.0
O60 O 0.5522 1.04483 0.52874 0.0
O61 O 0.65713 1.02783 0.47637 0.0
O62 O 0.62836 0.98426 0.5003 0.0
O63 O 0.61636 1.049 0.52502 0.0
C64 C 0.51036 0.15219 0.49945 0.0
C65 C 0.53346 0.17286 0.48289 0.0
C66 C 0.50905 0.21593 0.50915 0.0
C67 C 0.54512 0.21521 0.47973 0.0
C68 C 0.49709 0.17348 0.51219 0.0
C69 C 0.53446 0.23773 0.49326 0.0
C70 C 0.50441 0.11062 0.50478 0.0
C71 C 0.50442 0.97179 0.49238 0.0
H72 H 0.62294 0.9121 0.49336 0.0
H73 H 0.74295 0.97108 0.44773 0.0
H74 H 0.65469 0.86962 0.48395 0.0
H75 H 0.71147 1.01392 0.4574 0.0
H76 H 0.54419 0.15696 0.4729 0.0
H77 H 0.50082 0.23236 0.52005 0.0
H78 H 0.5642 0.23089 0.46723 0.0
H79 H 0.47948 0.15802 0.52509 0.0
Eu80 Eu 0.56429 0.51986 0.82983 0.0
Eu81 Eu 0.66658 0.56858 0.83603 0.0
C82 C 0.60811 0.54301 0.87288 0.0
C83 C 0.46058 0.5093 0.81612 0.0
C84 C 0.47978 0.54181 0.80248 0.0
C85 C 0.4123 0.5347 0.82427 0.0
C86 C 0.46661 0.57166 0.80043 0.0
C87 C 0.42534 0.50464 0.82623 0.0
C88 C 0.43445 0.56987 0.81218 0.0
C89 C 0.48295 0.48739 0.82308 0.0
O90 O 0.64684 0.49876 0.83911 0.0
O91 O 0.57921 0.46663 0.82528 0.0
C92 C 0.61262 0.4647 0.83174 0.0
O93 O 0.59528 0.55123 0.8015 0.0
O94 O 0.72516 0.57883 0.85071 0.0
O95 O 0.72779 0.61966 0.82715 0.0
O96 O 0.65035 0.53966 0.8058 0.0
C97 C 0.62636 0.54745 0.79417 0.0
O98 O 0.58256 0.58884 0.8357 0.0
O99 O 0.65225 0.62041 0.82723 0.0
O100 O 0.64133 0.57433 0.86488 0.0
O101 O 0.50787 0.48357 0.81069 0.0
O102 O 0.50106 0.50031 0.84046 0.0
O103 O 0.5775 0.51259 0.86184 0.0
C104 C 0.78423 0.60518 0.82988 0.0
C105 C 0.79218 0.61119 0.80972 0.0
C106 C 0.84817 0.60085 0.83452 0.0
C107 C 0.8287 0.61345 0.80217 0.0
C108 C 0.81196 0.59899 0.84208 0.0
C109 C 0.85755 0.6093 0.81461 0.0
C110 C 0.74931 0.6085 0.83869 0.0
C111 C 0.61807 0.62284 0.83078 0.0
H112 H 0.50727 0.54636 0.79457 0.0
H113 H 0.38759 0.53253 0.83364 0.0
H114 H 0.48384 0.59804 0.7908 0.0
H115 H 0.41037 0.48003 0.83694 0.0
H116 H 0.7711 0.61572 0.79988 0.0
H117 H 0.87019 0.59832 0.84458 0.0
H118 H 0.83518 0.61992 0.78678 0.0
H119 H 0.80655 0.59444 0.85766 0.0
C120 C 0.58324 0.16368 0.3064 0.0
C121 C 0.55274 0.12708 0.31582 0.0
C122 C 0.57483 0.17298 0.28759 0.0
C123 C 0.53582 0.14577 0.27768 0.0
C124 C 0.50542 0.10913 0.28709 0.0
C125 C 0.51369 0.10002 0.30593 0.0
C126 C 0.52735 0.15434 0.25731 0.0
C127 C 0.55945 0.16864 0.24345 0.0
C128 C 0.55067 0.17262 0.22369 0.0
C129 C 0.50929 0.16237 0.21786 0.0
C130 C 0.47669 0.148 0.23146 0.0
C131 C 0.48631 0.14509 0.25124 0.0
C132 C 0.43178 0.12997 0.22439 0.0
C133 C 0.42114 0.14804 0.20872 0.0
C134 C 0.40016 0.091 0.23158 0.0
C135 C 0.36012 1.06887 0.22231 0.0
C136 C 0.35053 0.08502 0.20555 0.0
C137 C 0.58387 0.18452 0.20884 0.0
C138 C 0.58828 0.21254 0.19387 0.0
C139 C 0.611 0.1674 0.2094 0.0
C140 C 0.64245 0.17875 0.19557 0.0
C141 C 0.64742 0.20735 0.18079 0.0
C142 C 0.61973 0.22384 0.17999 0.0
C143 C 0.38089 0.12574 0.19937 0.0
H144 H 0.61384 0.18504 0.31348 0.0
H145 H 0.59887 0.20161 0.28084 0.0
H146 H 0.47534 0.087 0.2798 0.0
H147 H 0.48917 1.07191 0.31282 0.0
H148 H 0.59109 0.17546 0.2479 0.0
H149 H 0.46142 0.13445 0.26185 0.0
H150 H 0.50188 0.16287 0.20243 0.0
H151 H 0.44459 0.17844 0.20308 0.0
H152 H 0.40724 0.07575 0.24342 0.0
H153 H 0.33806 1.03734 0.22737 0.0
H154 H 0.56789 0.22631 0.19308 0.0
H155 H 0.60791 0.14509 0.22051 0.0
H156 H 0.37434 0.13939 0.18669 0.0
H157 H 0.62253 0.2457 0.1687 0.0
H158 H 0.66362 0.16594 0.19682 0.0
C159 C 0.77393 0.69421 0.65664 0.0
C160 C 0.77741 0.66545 0.66904 0.0
C161 C 0.79118 0.70153 0.63798 0.0
C162 C 0.81173 0.67984 0.63137 0.0
C163 C 0.8172 0.6529 0.64415 0.0
C164 C 0.80039 0.64593 0.66283 0.0
C165 C 0.82063 0.67945 0.61034 0.0
C166 C 0.84239 0.71743 0.60002 0.0
C167 C 0.8445 0.71614 0.57943 0.0
C168 C 0.82527 0.67635 0.56943 0.0
C169 C 0.80231 0.63858 0.57953 0.0
C170 C 0.80101 0.6402 0.59998 0.0
C171 C 0.77274 0.59904 0.56843 0.0
C172 C 0.72903 0.57915 0.57189 0.0
C173 C 0.78701 0.58343 0.55321 0.0
C174 C 0.75791 0.54801 0.54175 0.0
C175 C 0.71396 0.52816 0.54509 0.0
C176 C 0.8568 0.75459 0.56776 0.0
C177 C 0.8398 0.78076 0.57243 0.0
C178 C 0.87576 0.75895 0.54947 0.0
C179 C 0.87178 0.7839 0.5351 0.0
C180 C 0.84918 0.80501 0.53897 0.0
C181 C 0.83608 0.80581 0.55813 0.0
C182 C 0.69995 0.54434 0.56026 0.0
H183 H 0.75669 0.70994 0.66112 0.0
H184 H 0.78608 0.72204 0.62829 0.0
H185 H 0.83271 0.63565 0.6393 0.0
H186 H 0.8033 0.62333 0.67198 0.0
H187 H 0.8557 0.74782 0.60789 0.0
H188 H 0.78186 0.61094 0.60769 0.0
H189 H 0.82374 0.67479 0.55353 0.0
H190 H 0.71721 0.59143 0.58321 0.0
H191 H 0.82062 0.59865 0.55021 0.0
H192 H 0.76992 0.536 0.53041 0.0
H193 H 0.82495 0.77835 0.58633 0.0
H194 H 0.88977 0.73969 0.54562 0.0
H195 H 0.66637 0.5306 0.563 0.0
H196 H 0.81926 0.82262 0.56153 0.0
H197 H 0.88251 0.78314 0.52047 0.0
C198 C 0.24362 0.73438 0.9927 0.0
C199 C 0.20576 0.69492 0.99373 0.0
C200 C 0.25518 0.75593 0.97507 0.0
C201 C 0.22925 0.73834 0.95805 0.0
C202 C 0.19088 0.69922 0.95924 0.0
C203 C 0.17916 0.67789 0.97692 0.0
C204 C 0.24336 0.75896 0.93882 0.0
C205 C 0.28592 0.77556 0.93337 0.0
C206 C 0.2981 0.78858 0.91409 0.0
C207 C 0.26759 0.78685 0.90058 0.0
C208 C 0.22523 0.77035 0.90572 0.0
C209 C 0.2134 0.7572 0.92493 0.0
C210 C 0.19265 0.75926 0.88993 0.0
C211 C 0.19802 0.78872 0.87552 0.0
C212 C 0.15885 0.71712 0.88781 0.0
C213 C 0.13154 0.70433 0.87136 0.0
C214 C 0.13728 0.73347 0.85676 0.0
C215 C 0.33864 0.79419 0.90647 0.0
C216 C 0.358 0.821 0.8906 0.0
C217 C 0.35208 0.7654 0.91177 0.0
C218 C 0.37957 0.75942 0.89991 0.0
C219 C 0.39364 0.78171 0.88246 0.0
C220 C 0.38472 0.81426 0.87847 0.0
C221 C 0.17026 0.776 0.85912 0.0
H222 H 0.2644 0.74856 0.00555 0.0
H223 H 0.28462 0.78619 0.97473 0.0
H224 H 0.17053 0.6842 0.94635 0.0
H225 H 0.15001 0.64735 0.97726 0.0
H226 H 0.30886 0.77538 0.94369 0.0
H227 H 0.18037 0.74382 0.92875 0.0
H228 H 0.27553 0.79379 0.88533 0.0
H229 H 0.22411 0.82132 0.87681 0.0
H230 H 0.15446 0.6936 0.89852 0.0
H231 H 1.10575 0.67157 0.87009 0.0
H232 H 0.34923 0.84433 0.88646 0.0
H233 H 0.33792 0.74405 0.92378 0.0
H234 H 0.17501 0.79909 0.84813 0.0
H235 H 0.39574 0.83221 0.8652 0.0
H236 H 0.38596 0.73404 0.90328 0.0
C237 C 1.06095 0.50883 0.36229 0.0
C238 C 1.09959 0.51529 0.35489 0.0
C239 C 1.05643 0.51217 0.38251 0.0
C240 C 1.09046 0.52207 0.39578 0.0
C241 C 0.12852 0.52699 0.38841 0.0
C242 C 0.13302 0.52365 0.36826 0.0
C243 C 1.0872 0.529 0.41715 0.0
C244 C 1.05036 0.50196 0.42725 0.0
C245 C 1.0472 0.50827 0.44747 0.0
C246 C 1.08264 0.54252 0.45771 0.0
C247 C 0.12023 0.57018 0.44771 0.0
C248 C 0.12137 0.5631 0.42744 0.0
C249 C 0.15892 0.60719 0.45754 0.0
C250 C 0.15588 0.63572 0.47076 0.0
C251 C 0.1999 0.61703 0.45177 0.0
C252 C 0.23612 0.65549 0.45763 0.0
C253 C 0.23291 0.68504 0.46991 0.0
C254 C 1.00666 0.47785 0.45729 0.0
C255 C 0.96703 0.46417 0.44768 0.0
C256 C 1.00693 0.45886 0.4751 0.0
C257 C 0.96886 0.42568 0.48249 0.0
C258 C 0.92938 0.41065 0.47234 0.0
C259 C 0.92917 0.43119 0.45501 0.0
C260 C 0.19258 0.67417 0.47696 0.0
H261 H 1.03468 0.50276 0.35242 0.0
H262 H 1.02679 0.50849 0.38767 0.0
H263 H 0.15507 0.53373 0.39825 0.0
H264 H 0.16292 0.52795 0.36313 0.0
H265 H 1.02429 0.47509 0.41936 0.0
H266 H 0.14901 0.58499 0.41939 0.0
H267 H 1.08095 0.54758 0.47328 0.0
H268 H 0.12504 0.62943 0.47551 0.0
H269 H 0.20391 0.59552 0.44204 0.0
H270 H 0.26677 0.66258 0.4522 0.0
H271 H 0.96534 0.47828 0.43405 0.0
H272 H 1.03675 0.46838 0.48289 0.0
H273 H 0.18915 0.69633 0.4865 0.0
H274 H 0.89991 0.42069 0.44655 0.0
H275 H 0.97054 0.41139 0.49604 0.0
C276 C 0.59065 1.00733 0.69446 0.0
C277 C 0.6143 1.04548 0.68446 0.0
C278 C 0.59199 1.00715 0.71499 0.0
C279 C 0.61739 1.04506 0.72609 0.0
C280 C 0.64152 0.08312 0.71602 0.0
C281 C 0.63981 0.08335 0.69549 0.0
C282 C 0.61826 1.045 0.74805 0.0
C283 C 0.61656 1.01071 0.75808 0.0
C284 C 0.61597 1.00928 0.77873 0.0
C285 C 0.61859 1.04437 0.78953 0.0
C286 C 0.62122 0.0798 0.77967 0.0
C287 C 0.62038 0.07909 0.75902 0.0
C288 C 0.62461 0.11821 0.79015 0.0
C289 C 0.59587 0.11462 0.80457 0.0
C290 C 0.65394 0.15931 0.78387 0.0
C291 C 0.65341 0.19545 0.79101 0.0
C292 C 0.6236 0.19202 0.80482 0.0
C293 C 0.61261 0.97051 0.78822 0.0
C294 C 0.58519 0.92971 0.77979 0.0
C295 C 0.6391 0.97357 0.80425 0.0
C296 C 0.63938 0.9371 0.81102 0.0
C297 C 0.61304 0.89647 0.802 0.0
C298 C 0.58558 0.89357 0.78643 0.0
C299 C 0.59526 0.151 0.81176 0.0
H300 H 0.57025 0.9777 0.68641 0.0
H301 H 0.57237 0.97733 0.72216 0.0
H302 H 0.6621 0.11282 0.72397 0.0
H303 H 0.65885 0.11318 0.68823 0.0
H304 H 0.61645 0.98505 0.7497 0.0
H305 H 0.62046 0.1051 0.75139 0.0
H306 H 0.61858 1.04413 0.80541 0.0
H307 H 0.57265 0.08352 0.80966 0.0
H308 H 0.67668 0.16344 0.77284 0.0
H309 H 0.67549 0.22598 0.78503 0.0
H310 H 0.56389 0.92576 0.76757 0.0
H311 H 0.66076 1.00435 0.8111 0.0
H312 H 0.57219 0.14686 0.82258 0.0
H313 H 0.56513 0.86347 0.77877 0.0
H314 H 0.66054 0.9409 0.82325 0.0
C315 C 0.63405 0.52216 0.0318 0.0
C316 C 0.61787 0.5445 0.02149 0.0
C317 C 0.63806 0.52514 0.0523 0.0
C318 C 0.62628 0.55081 0.06306 0.0
C319 C 0.61026 0.57332 0.05271 0.0
C320 C 0.60596 0.57007 0.0322 0.0
C321 C 0.62958 0.55303 0.085 0.0
C322 C 0.66396 0.55343 0.09492 0.0
C323 C 0.66646 0.55297 0.11556 0.0
C324 C 0.63361 0.55326 0.12648 0.0
C325 C 0.59824 0.55244 0.11668 0.0
C326 C 0.59741 0.55302 0.09602 0.0
C327 C 0.56046 0.54908 0.12712 0.0
C328 C 0.56476 0.57515 0.14351 0.0
C329 C 0.51913 0.52209 0.11915 0.0
C330 C 0.48374 0.52283 0.12641 0.0
C331 C 0.48771 0.54982 0.14238 0.0
C332 C 0.70312 0.55042 0.1248 0.0
C333 C 0.71512 0.52227 0.1166 0.0
C334 C 0.72908 0.57843 0.14012 0.0
C335 C 0.76691 0.5794 0.1464 0.0
C336 C 0.77967 0.55218 0.13762 0.0
C337 C 0.75261 0.52324 0.1228 0.0
C338 C 0.52891 0.5755 0.15105 0.0
H339 H 0.64303 0.50176 0.02403 0.0
H340 H 0.64969 0.50664 0.05972 0.0
H341 H 0.60144 0.59389 0.06043 0.0
H342 H 0.594 0.58821 0.0247 0.0
H343 H 0.68935 0.55437 0.08646 0.0
H344 H 0.57078 0.55254 0.08835 0.0
H345 H 0.63463 0.55224 0.14233 0.0
H346 H 0.59597 0.59641 0.15007 0.0
H347 H 0.51412 0.50094 0.10674 0.0
H348 H 0.45339 0.50297 0.11887 0.0
H349 H 0.69591 0.49998 0.10487 0.0
H350 H 0.72106 0.6007 0.14674 0.0
H351 H 0.53371 0.59626 0.16357 0.0
H352 H 0.76099 0.50205 0.11535 0.0
H353 H 0.78629 0.60179 0.15805 0.0
H354 H 0.22884 0.49195 0.17222 0.0
H355 H 0.29775 0.62804 0.16577 0.0
H356 H 0.29408 0.48988 0.16866 0.0
H357 H 0.36305 0.62615 0.1605 0.0
H358 H 0.48328 0.61752 0.15969 0.0
H359 H 0.42054 0.6204 0.16904 0.0
H360 H 0.34082 0.48993 0.14819 0.0
H361 H 0.40308 0.48573 0.14103 0.0
C362 C 0.25811 0.52155 0.16992 0.0
C363 C 0.25791 0.56013 0.1693 0.0
C364 C 0.29586 0.52042 0.16757 0.0
C365 C 0.33477 0.55771 0.16379 0.0
C366 C 0.3345 0.59657 0.16358 0.0
C367 C 0.2968 0.59778 0.16653 0.0
C368 C 0.45247 0.58903 0.15753 0.0
C369 C 0.4491 0.5515 0.14928 0.0
C370 C 0.41596 0.59092 0.16261 0.0
C371 C 0.37453 0.55556 0.15937 0.0
C372 C 0.37145 0.51797 0.15139 0.0
C373 C 0.4078 0.5158 0.14677 0.0
H374 H 0.66757 0.21518 0.50464 0.0
H375 H 0.7319 0.148 0.4867 0.0
H376 H 0.73373 0.2832 0.50094 0.0
H377 H 0.79679 0.21506 0.48252 0.0
H378 H 0.91968 0.33838 0.4899 0.0
H379 H 0.85428 0.27451 0.49831 0.0
H380 H 0.78098 0.33044 0.47726 0.0
H381 H 0.84664 0.39538 0.46985 0.0
C382 C 0.6957 0.21477 0.49999 0.0
C383 C 0.694 0.17572 0.49604 0.0
C384 C 0.73372 0.2539 0.49772 0.0
C385 C 0.77117 0.25512 0.49147 0.0
C386 C 0.76928 0.21594 0.48773 0.0
C387 C 0.73156 0.17711 0.49 0.0
C388 C 0.88981 0.33765 0.48741 0.0
C389 C 0.88901 0.37246 0.47899 0.0
C390 C 0.85194 0.30047 0.49199 0.0
C391 C 0.81177 0.29655 0.48824 0.0
C392 C 0.811 0.33192 0.48048 0.0
C393 C 0.84892 0.3692 0.47596 0.0
H394 H 0.55748 0.64358 0.84078 0.0
H395 H 0.68095 0.6968 0.81508 0.0
H396 H 0.55839 0.71051 0.83591 0.0
H397 H 0.68086 0.76309 0.8094 0.0
H398 H 0.68213 0.8905 0.81595 0.0
H399 H 0.68466 0.82654 0.82435 0.0
H400 H 0.55117 0.74908 0.80877 0.0
H401 H 0.54754 0.81263 0.80198 0.0
C402 C 0.58477 0.6694 0.834 0.0
C403 C 0.61908 0.66439 0.8283 0.0
C404 C 0.58508 0.70781 0.831 0.0
C405 C 0.61929 0.7423 0.8219 0.0
C406 C 0.65399 0.73757 0.81654 0.0
C407 C 0.65393 0.69928 0.81973 0.0
C408 C 0.65296 0.85999 0.81476 0.0
C409 C 0.61462 0.85739 0.80819 0.0
C410 C 0.65459 0.82306 0.81934 0.0
C411 C 0.61795 0.78225 0.81749 0.0
C412 C 0.57973 0.77975 0.81101 0.0
C413 C 0.57795 0.81652 0.80666 0.0
H414 H 0.9834 0.49898 0.1724 0.0
H415 H 1.05055 0.62526 0.14911 0.0
H416 H 0.91629 0.49763 0.1677 0.0
H417 H 0.98298 0.62336 0.14359 0.0
H418 H 0.8573 0.62257 0.14908 0.0
H419 H 0.92485 0.62585 0.1565 0.0
H420 H 0.86502 0.49017 0.145 0.0
H421 H 0.79736 0.48652 0.13892 0.0
C422 C 0.98394 0.52651 0.16616 0.0
C423 C 1.02281 0.56224 0.16116 0.0
C424 C 0.94507 0.52562 0.16328 0.0
C425 C 0.9434 0.56024 0.15507 0.0
C426 C 0.98244 0.59617 0.15019 0.0
C427 C 1.02145 0.59719 0.15324 0.0
C428 C 0.85825 0.59324 0.14848 0.0
C429 C 0.82124 0.55429 0.14324 0.0
C430 C 0.89746 0.59522 0.15246 0.0
C431 C 0.90121 0.55835 0.15132 0.0
C432 C 0.864 0.51939 0.14635 0.0
C433 C 0.82488 0.51737 0.14252 0.0
H434 H 0.48555 0.89411 0.50713 0.0
H435 H 0.43175 0.954 0.47169 0.0
H436 H 0.41899 0.82552 0.50278 0.0
H437 H 0.36596 0.88543 0.46698 0.0
H438 H 0.28237 0.74347 0.44344 0.0
H439 H 0.34705 0.8126 0.44949 0.0
H440 H 0.33653 0.79212 0.51175 0.0
H441 H 0.27075 0.7231 0.50565 0.0
C442 C 0.45966 0.89268 0.49837 0.0
C443 C 0.46417 0.92972 0.48976 0.0
C444 C 0.42142 0.85342 0.49599 0.0
C445 C 0.38711 0.84996 0.48453 0.0
C446 C 0.39176 0.88692 0.47583 0.0
C447 C 0.42951 0.92629 0.47859 0.0
C448 C 0.29369 0.75385 0.45843 0.0
C449 C 0.27137 0.72787 0.47407 0.0
C450 C 0.3307 0.79349 0.4619 0.0
C451 C 0.34707 0.8079 0.4811 0.0
C452 C 0.32488 0.78185 0.49679 0.0
C453 C 0.28712 0.74251 0.49332 0.0
H454 H 0.55272 0.38971 0.81316 0.0
H455 H 0.67278 0.44569 0.84554 0.0
H456 H 0.5549 0.32426 0.80805 0.0
H457 H 0.67436 0.37977 0.84102 0.0
H458 H 0.68954 0.27483 0.81083 0.0
H459 H 0.6858 0.33862 0.81789 0.0
H460 H 0.54909 0.26211 0.82135 0.0
H461 H 0.55267 0.19838 0.81315 0.0
C462 C 0.5794 0.38798 0.81943 0.0
C463 C 0.61262 0.42341 0.82974 0.0
C464 C 0.58056 0.35009 0.81658 0.0
C465 C 0.6149 0.34616 0.82402 0.0
C466 C 0.64769 0.3814 0.83468 0.0
C467 C 0.64664 0.41936 0.83743 0.0
C468 C 0.65853 0.2714 0.81294 0.0
C469 C 0.6214 0.23094 0.81117 0.0
C470 C 0.65642 0.30826 0.8173 0.0
C471 C 0.6171 0.30616 0.8202 0.0
C472 C 0.58001 0.26554 0.81894 0.0
C473 C 0.58212 0.22863 0.8145 0.0
H474 H 0.78774 0.95799 0.47101 0.0
H475 H 0.67786 0.83293 0.46032 0.0
H476 H 0.82835 0.92595 0.48269 0.0
H477 H 0.71901 0.80065 0.47183 0.0
H478 H 0.76698 0.78169 0.53254 0.0
H479 H 0.73603 0.80383 0.50687 0.0
H480 H 0.85995 0.87906 0.482 0.0
H481 H 0.89134 0.85674 0.50829 0.0
C482 C 0.77282 0.92358 0.47021 0.0
C483 C 0.72923 0.89792 0.46521 0.0
C484 C 0.79625 0.90518 0.47693 0.0
C485 C 0.77648 0.86084 0.47871 0.0
C486 C 0.7347 0.83503 0.47107 0.0
C487 C 0.71116 0.85345 0.46446 0.0
C488 C 0.7877 0.80299 0.52161 0.0
C489 C 0.83169 0.81848 0.52265 0.0
C490 C 0.76982 0.81499 0.50662 0.0
C491 C 0.79546 0.8429 0.49226 0.0
C492 C 0.83944 0.85744 0.49288 0.0
C493 C 0.8574 0.84492 0.50789 0.0
H494 H 0.91136 0.67686 0.79288 0.0
H495 H 0.90058 0.56708 0.82188 0.0
H496 H 0.98833 0.70809 0.79229 0.0
H497 H 0.97728 0.59881 0.82211 0.0
H498 H 0.11106 0.66321 0.83287 0.0
H499 H 1.04819 0.63074 0.8109 0.0
H500 H 1.03165 0.73931 0.8214 0.0
H501 H 1.09478 0.77182 0.84277 0.0
C502 C 0.92525 0.65858 0.7984 0.0
C503 C 0.90026 0.62016 0.80799 0.0
C504 C 0.96942 0.67667 0.79822 0.0
C505 C 0.98912 0.65672 0.80775 0.0
C506 C 0.96341 0.61536 0.81471 0.0
C507 C 0.91933 0.59722 0.81479 0.0
C508 C 1.09456 0.68055 0.82993 0.0
C509 C 1.10692 0.71944 0.83983 0.0
C510 C 1.05867 0.66204 0.81734 0.0
C511 C 1.03426 0.68187 0.81473 0.0
C512 C 1.04967 0.72309 0.82292 0.0
C513 C 1.08578 0.74175 0.83533 0.0
H514 H 0.27628 0.87761 0.14288 0.0
H515 H 0.15887 0.83722 0.17271 0.0
H516 H 0.29472 0.95107 0.14722 0.0
H517 H 0.1757 0.91102 0.17587 0.0
H518 H 0.27052 1.02594 0.21697 0.0
H519 H 0.2224 0.96138 0.1986 0.0
H520 H 0.29432 1.01427 0.14641 0.0
H521 H 0.34473 0.0774 0.16536 0.0
C522 C 0.25366 0.88444 0.14977 0.0
C523 C 0.21703 0.85179 0.15817 0.0
C524 C 0.26389 0.9268 0.15204 0.0
C525 C 0.23738 0.93748 0.16256 0.0
C526 C 0.19763 0.90419 0.16833 0.0
C527 C 0.1877 0.86172 0.16631 0.0
C528 C 0.27557 1.02419 0.20146 0.0
C529 C 0.31271 1.05587 0.19294 0.0
C530 C 0.24747 0.98716 0.19074 0.0
C531 C 0.25551 0.98152 0.17112 0.0
C532 C 0.28823 1.01665 0.16172 0.0
C533 C 0.31692 1.05332 0.17258 0.0
H534 H 0.49985 0.28788 0.50202 0.0
H535 H 0.61636 0.29437 0.48395 0.0
H536 H 0.53954 0.36418 0.5102 0.0
H537 H 0.6553 0.37029 0.49158 0.0
H538 H 0.71526 0.51114 0.50572 0.0
H539 H 0.66681 0.44537 0.48725 0.0
H540 H 0.59332 0.3942 0.53903 0.0
H541 H 0.64212 0.45846 0.55764 0.0
C542 C 0.53361 0.30571 0.49928 0.0
C543 C 0.55506 0.28483 0.49276 0.0
C544 C 0.55621 0.34933 0.50387 0.0
C545 C 0.6005 0.37282 0.50178 0.0
C546 C 0.62112 0.35297 0.49322 0.0
C547 C 0.59865 0.30932 0.48881 0.0
C548 C 0.68877 0.48584 0.51316 0.0
C549 C 0.68283 0.49005 0.53323 0.0
C550 C 0.66084 0.44849 0.50252 0.0
C551 C 0.62616 0.41501 0.51168 0.0
C552 C 0.61923 0.41992 0.53147 0.0
C553 C 0.64736 0.45683 0.54216 0.0
H554 H 0.36115 0.57374 0.81581 0.0
H555 H 0.49815 0.65226 0.8157 0.0
H556 H 0.35649 0.63476 0.82838 0.0
H557 H 0.49317 0.71266 0.82842 0.0
H558 H 0.45838 0.76435 0.88522 0.0
H559 H 0.47073 0.71914 0.86257 0.0
H560 H 0.37344 0.71214 0.82273 0.0
H561 H 0.3614 0.75771 0.84534 0.0
C562 C 0.39011 0.60423 0.81797 0.0
C563 C 0.43003 0.60807 0.81495 0.0
C564 C 0.38746 0.63918 0.82504 0.0
C565 C 0.4247 0.67827 0.82942 0.0
C566 C 0.46424 0.68285 0.82508 0.0
C567 C 0.46691 0.64826 0.81775 0.0
C568 C 0.44076 0.75432 0.87132 0.0
C569 C 0.40913 0.76453 0.86697 0.0
C570 C 0.44774 0.7285 0.85836 0.0
C571 C 0.42271 0.71194 0.84099 0.0
C572 C 0.39293 0.72434 0.83607 0.0
C573 C 0.38643 0.75075 0.84889 0.0
H574 H 0.89365 0.27013 0.15437 0.0
H575 H 0.87865 0.35535 0.11573 0.0
H576 H 0.81748 0.23062 0.15875 0.0
H577 H 0.8019 0.31587 0.12047 0.0
H578 H 0.67748 0.16 0.16279 0.0
H579 H 0.74385 0.18677 0.14534 0.0
H580 H 0.76475 0.31467 0.15082 0.0
H581 H 0.69907 0.28821 0.16838 0.0
C582 C 0.87401 0.27959 0.14622 0.0
C583 C 0.89242 0.31638 0.13493 0.0
C584 C 0.83016 0.25686 0.14877 0.0
C585 C 0.80377 0.2705 0.14016 0.0
C586 C 0.82163 0.30508 0.12754 0.0
C587 C 0.86554 0.32772 0.12488 0.0
C588 C 0.69604 0.19377 0.16005 0.0
C589 C 0.68334 0.22208 0.16725 0.0
C590 C 0.73387 0.20901 0.14998 0.0
C591 C 0.75961 0.25282 0.14683 0.0
C592 C 0.74535 0.28065 0.15278 0.0
C593 C 0.70766 0.26546 0.1629 0.0
H594 H 1.0943 0.538 0.09731 0.0
H595 H 0.21875 0.64394 0.11377 0.0
H596 H 1.106 0.56047 0.06309 0.0
H597 H 0.22975 0.66638 0.08026 0.0
H598 H 0.25784 0.67991 0.0172 0.0
H599 H 0.24192 0.64482 0.04858 0.0
H600 H 0.11302 0.62104 0.04341 0.0
H601 H 0.12891 0.65563 0.01167 0.0
C602 C 0.1241 0.56579 0.09365 0.0
C603 C 0.15551 0.58916 0.10828 0.0
C604 C 0.1307 0.57877 0.07412 0.0
C605 C 0.16894 0.61504 0.06895 0.0
C606 C 0.2003 0.63785 0.08361 0.0
C607 C 0.19373 0.62509 0.10295 0.0
C608 C 0.2261 0.66713 0.02276 0.0
C609 C 0.19484 0.67115 0.01219 0.0
C610 C 0.21692 0.64694 0.0407 0.0
C611 C 0.17636 0.63066 0.04861 0.0
C612 C 0.14447 0.63299 0.03764 0.0
C613 C 0.15361 0.65298 0.01955 0.0
H614 H 0.56145 0.12347 0.44138 0.0
H615 H 0.58797 1.02331 0.42597 0.0
H616 H 0.55883 0.13795 0.40705 0.0
H617 H 0.58652 1.0388 0.39123 0.0
H618 H 0.53021 1.04914 0.33109 0.0
H619 H 0.53791 1.03342 0.36503 0.0
H620 H 0.604 0.1681 0.38005 0.0
H621 H 0.59402 0.18362 0.3465 0.0
C622 C 0.56711 0.10469 0.43065 0.0
C623 C 0.57503 1.07225 0.43645 0.0
C624 C 0.56592 0.11328 0.4109 0.0
C625 C 0.57296 0.08992 0.39634 0.0
C626 C 0.5807 1.05723 0.40208 0.0
C627 C 0.58166 1.04842 0.42196 0.0
C628 C 0.54613 0.07539 0.34166 0.0
C629 C 0.56098 0.11764 0.33607 0.0
C630 C 0.55109 1.06639 0.36108 0.0
C631 C 0.57119 0.09944 0.37533 0.0
C632 C 0.58761 0.14177 0.36954 0.0
C633 C 0.58239 0.15075 0.3502 0.0
H634 H 0.61038 0.59803 0.77004 0.0
H635 H 0.67556 0.52614 0.77309 0.0
H636 H 0.64604 0.62926 0.73947 0.0
H637 H 0.71027 0.55643 0.74262 0.0
H638 H 0.80703 0.65639 0.70464 0.0
H639 H 0.76648 0.62682 0.73404 0.0
H640 H 0.6544 0.61496 0.70471 0.0
H641 H 0.69527 0.64504 0.67529 0.0
C642 C 0.63145 0.58812 0.76393 0.0
C643 C 0.64052 0.55998 0.774 0.0
C644 C 0.65198 0.6061 0.74649 0.0
C645 C 0.68174 0.59606 0.7389 0.0
C646 C 0.68852 0.56581 0.74839 0.0
C647 C 0.66829 0.54811 0.76575 0.0
C648 C 0.77383 0.64774 0.70452 0.0
C649 C 0.75428 0.65276 0.68764 0.0
C650 C 0.7505 0.63059 0.72131 0.0
C651 C 0.70699 0.61779 0.72156 0.0
C652 C 0.68786 0.6246 0.70498 0.0
C653 C 0.71131 0.64194 0.68817 0.0
H654 H 0.64435 1.0344 0.55765 0.0
H655 H 0.53852 1.05594 0.56415 0.0
H656 H 0.65213 1.03434 0.59339 0.0
H657 H 0.54642 1.05594 0.59971 0.0
H658 H 0.60515 0.10201 0.66176 0.0
H659 H 0.59945 0.10211 0.62601 0.0
H660 H 0.61138 0.98975 0.62199 0.0
H661 H 0.61742 0.98983 0.65781 0.0
C662 C 0.62274 1.03907 0.56666 0.0
C663 C 0.59081 1.04516 0.55799 0.0
C664 C 0.62708 1.03884 0.58714 0.0
C665 C 0.59999 1.04529 0.59939 0.0
C666 C 0.56811 1.05136 0.5907 0.0
C667 C 0.56343 1.05107 0.57028 0.0
C668 C 0.6069 0.07753 0.65325 0.0
C669 C 0.61171 1.0459 0.66264 0.0
C670 C 0.60328 0.07737 0.63278 0.0
C671 C 0.60484 1.04586 0.62116 0.0
C672 C 0.61031 1.0146 0.63052 0.0
C673 C 0.61342 1.01445 0.65103 0.0
H674 H 0.54226 0.48899 0.89622 0.0
H675 H 0.67164 0.59467 0.89901 0.0
H676 H 0.54268 0.48739 0.9322 0.0
H677 H 0.67187 0.59299 0.93455 0.0
H678 H 0.67591 0.54738 -0.00427 0.0
H679 H 0.67109 0.54453 0.95998 0.0
H680 H 0.54714 0.53322 0.96184 0.0
H681 H 0.55167 0.53544 -0.00223 0.0
C682 C 0.57067 0.51186 0.90444 0.0
C683 C 0.6069 0.54186 0.89466 0.0
C684 C 0.57086 0.51106 0.92504 0.0
C685 C 0.60745 0.53986 0.93622 0.0
C686 C 0.6434 0.56994 0.9264 0.0
C687 C 0.6431 0.57103 0.90595 0.0
C688 C 0.64741 0.54383 0.98855 0.0
C689 C 0.61423 0.54175 -0.00037 0.0
C690 C 0.64479 0.54254 0.96805 0.0
C691 C 0.60881 0.53885 0.95805 0.0
C692 C 0.57517 0.53584 0.9691 0.0
C693 C 0.57797 0.53755 0.98966 0.0
H694 H 0.15718 0.60424 0.23745 0.0
H695 H 1.10392 0.46871 0.22763 0.0
H696 H 0.14939 0.59412 0.27247 0.0
H697 H 1.09635 0.45861 0.26318 0.0
H698 H 1.04374 0.46147 0.32589 0.0
H699 H 1.0535 0.46577 0.29039 0.0
H700 H 0.17997 0.57399 0.29978 0.0
H701 H 0.16993 0.5705 0.335 0.0
C702 C 0.14396 0.57218 0.24275 0.0
C703 C 0.13114 0.53726 0.22965 0.0
C704 C 0.13977 0.56645 0.26293 0.0
C705 C 0.12243 0.5256 0.27066 0.0
C706 C 1.10964 0.49049 0.25764 0.0
C707 C 0.11424 0.49629 0.23732 0.0
C708 C 1.07361 0.48616 0.32035 0.0
C709 C 1.10599 0.51572 0.33333 0.0
C710 C 1.07936 0.48831 0.30003 0.0
C711 C 0.11744 0.52033 0.29225 0.0
C712 C 0.15009 0.54919 0.30527 0.0
C713 C 0.14446 0.54692 0.32551 0.0
loop_
_geom_bond_atom_site_label_1
_geom_bond_atom_site_label_2
_geom_bond_distance
_geom_bond_site_symmetry_2
_ccdc_geom_bond_type
Eu0 C9 2.828 . S
Eu0 O11 2.392 1_655 S
Eu0 O13 2.418 . S
Eu0 O18 2.373 . S
Eu0 O21 2.488 . S
Eu0 O22 2.471 . S
Eu0 O23 2.349 . S
Eu1 O10 2.373 . S
Eu1 O14 2.488 . S
Eu1 O15 2.471 . S
Eu1 O16 2.349 . S
Eu1 O19 2.392 1_455 S
Eu1 O20 2.418 . S
Eu1 C30 2.828 . S
C2 O20 1.244 . S
C2 O23 1.265 1_455 S
C3 C4 1.379 . S
C3 C7 1.373 . S
C3 C9 1.505 . S
C4 C3 1.379 . S
C4 C6 1.369 . S
C4 H32 0.930 . S
C5 C7 1.383 . S
C5 C8 1.382 . S
C5 H33 0.930 . S
C6 C4 1.369 . S
C6 C8 1.392 . S
C6 H34 0.930 . S
C7 C3 1.373 . S
C7 C5 1.383 . S
C7 H35 0.931 . S
C8 C5 1.382 . S
C8 C6 1.392 . S
C9 Eu0 2.828 . S
C9 C3 1.505 . S
C9 O21 1.249 . S
C9 O22 1.244 . S
O10 Eu1 2.373 . S
O10 C12 1.258 . S
O11 Eu0 2.392 1_455 S
O11 C12 1.242 . S
C12 O10 1.258 . S
C12 O11 1.242 . S
O13 Eu0 2.418 . S
O13 C17 1.241 1_655 S
O14 Eu1 2.488 . S
O14 C30 1.249 . S
O15 Eu1 2.471 . S
O15 C30 1.244 . S
O16 Eu1 2.349 . S
O16 C17 1.268 . S
C17 O13 1.241 1_455 S
C17 O16 1.268 . S
O18 Eu0 2.373 . S
O18 C31 1.258 . S
O19 Eu1 2.392 1_655 S
O19 C31 1.242 . S
O20 Eu1 2.418 . S
O20 C2 1.244 . S
O21 Eu0 2.488 . S
O21 C9 1.249 . S
O22 Eu0 2.471 . S
O22 C9 1.244 . S
O23 Eu0 2.349 . S
O23 C2 1.265 1_655 S
C24 C25 1.379 . S
C24 C28 1.373 . S
C24 C30 1.505 . S
C25 C24 1.379 . S
C25 C27 1.369 . S
C25 H36 0.930 . S
C26 C28 1.383 . S
C26 C29 1.382 . S
C26 H37 0.930 . S
C27 C25 1.369 . S
C27 C29 1.392 . S
C27 H38 0.930 . S
C28 C24 1.373 . S
C28 C26 1.383 . S
C28 H39 0.931 . S
C29 C26 1.382 . S
C29 C27 1.392 . S
C30 Eu1 2.828 . S
C30 O14 1.249 . S
C30 O15 1.244 . S
C30 C24 1.505 . S
C31 O18 1.258 . S
C31 O19 1.242 . S
H32 C4 0.930 . S
H33 C5 0.930 . S
H34 C6 0.930 . S
H35 C7 0.931 . S
H36 C25 0.930 . S
H37 C26 0.930 . S
H38 C27 0.930 . S
H39 C28 0.931 . S
Eu40 C49 2.828 . S
Eu40 O51 2.392 1_565 S
Eu40 O53 2.418 . S
Eu40 O58 2.373 . S
Eu40 O61 2.488 . S
Eu40 O62 2.471 . S
Eu40 O63 2.345 1_565 S
Eu41 O50 2.373 . S
Eu41 O54 2.488 . S
Eu41 O55 2.471 . S
Eu41 O56 2.349 . S
Eu41 O59 2.392 1_545 S
Eu41 O60 2.418 . S
Eu41 C70 2.828 . S
C42 O60 1.244 . S
C42 O63 1.269 . S
C43 C44 1.379 . S
C43 C47 1.373 . S
C43 C49 1.505 . S
C44 C43 1.379 . S
C44 C46 1.369 . S
C44 H72 0.930 . S
C45 C47 1.383 . S
C45 C48 1.382 . S
C45 H73 0.930 . S
C46 C44 1.369 . S
C46 C48 1.392 . S
C46 H74 0.930 . S
C47 C43 1.373 . S
C47 C45 1.383 . S
C47 H75 0.931 . S
C48 C45 1.382 . S
C48 C46 1.392 . S
C49 Eu40 2.828 . S
C49 C43 1.505 . S
C49 O61 1.249 . S
C49 O62 1.244 . S
O50 Eu41 2.373 . S
O50 C52 1.258 . S
O51 Eu40 2.392 1_545 S
O51 C52 1.242 . S
C52 O50 1.258 . S
C52 O51 1.242 . S
O53 Eu40 2.418 . S
O53 C57 1.244 1_565 S
O54 Eu41 2.488 . S
O54 C70 1.249 . S
O55 Eu41 2.471 . S
O55 C70 1.244 . S
O56 Eu41 2.349 . S
O56 C57 1.265 . S
C57 O53 1.244 1_545 S
C57 O56 1.265 . S
O58 Eu40 2.373 . S
O58 C71 1.258 . S
O59 Eu41 2.392 1_565 S
O59 C71 1.242 . S
O60 Eu41 2.418 . S
O60 C42 1.244 . S
O61 Eu40 2.488 . S
O61 C49 1.249 . S
O62 Eu40 2.471 . S
O62 C49 1.244 . S
O63 Eu40 2.345 1_545 S
O63 C42 1.269 . S
C64 C65 1.379 . S
C64 C68 1.373 . S
C64 C70 1.505 . S
C65 C64 1.379 . S
C65 C67 1.369 . S
C65 H76 0.930 . S
C66 C68 1.383 . S
C66 C69 1.382 . S
C66 H77 0.930 . S
C67 C65 1.369 . S
C67 C69 1.392 . S
C67 H78 0.930 . S
C68 C64 1.373 . S
C68 C66 1.383 . S
C68 H79 0.931 . S
C69 C66 1.382 . S
C69 C67 1.392 . S
C70 Eu41 2.828 . S
C70 O54 1.249 . S
C70 O55 1.244 . S
C70 C64 1.505 . S
C71 O58 1.258 . S
C71 O59 1.242 . S
H72 C44 0.930 . S
H73 C45 0.930 . S
H74 C46 0.930 . S
H75 C47 0.931 . S
H76 C65 0.930 . S
H77 C66 0.930 . S
H78 C67 0.930 . S
H79 C68 0.931 . S
Eu80 C89 2.828 . S
Eu80 O91 2.392 . S
Eu80 O93 2.418 . S
Eu80 O98 2.373 . S
Eu80 O101 2.488 . S
Eu80 O102 2.471 . S
Eu80 O103 2.349 . S
Eu81 O90 2.373 . S
Eu81 O94 2.488 . S
Eu81 O95 2.471 . S
Eu81 O96 2.349 . S
Eu81 O99 2.392 . S
Eu81 O100 2.418 . S
Eu81 C110 2.828 . S
C82 O100 1.244 . S
C82 O103 1.265 . S
C83 C84 1.379 . S
C83 C87 1.373 . S
C83 C89 1.505 . S
C84 C83 1.379 . S
C84 C86 1.369 . S
C84 H112 0.930 . S
C85 C87 1.383 . S
C85 C88 1.382 . S
C85 H113 0.930 . S
C86 C84 1.369 . S
C86 C88 1.392 . S
C86 H114 0.930 . S
C87 C83 1.373 . S
C87 C85 1.383 . S
C87 H115 0.931 . S
C88 C85 1.382 . S
C88 C86 1.392 . S
C89 Eu80 2.828 . S
C89 C83 1.505 . S
C89 O101 1.249 . S
C89 O102 1.244 . S
O90 Eu81 2.373 . S
O90 C92 1.258 . S
O91 Eu80 2.392 . S
O91 C92 1.242 . S
C92 O90 1.258 . S
C92 O91 1.242 . S
O93 Eu80 2.418 . S
O93 C97 1.244 . S
O94 Eu81 2.488 . S
O94 C110 1.249 . S
O95 Eu81 2.471 . S
O95 C110 1.244 . S
O96 Eu81 2.349 . S
O96 C97 1.265 . S
C97 O93 1.244 . S
C97 O96 1.265 . S
O98 Eu80 2.373 . S
O98 C111 1.258 . S
O99 Eu81 2.392 . S
O99 C111 1.242 . S
O100 Eu81 2.418 . S
O100 C82 1.244 . S
O101 Eu80 2.488 . S
O101 C89 1.249 . S
O102 Eu80 2.471 . S
O102 C89 1.244 . S
O103 Eu80 2.349 . S
O103 C82 1.265 . S
C104 C105 1.379 . S
C104 C108 1.373 . S
C104 C110 1.505 . S
C105 C104 1.379 . S
C105 C107 1.369 . S
C105 H116 0.930 . S
C106 C108 1.383 . S
C106 C109 1.382 . S
C106 H117 0.930 . S
C107 C105 1.369 . S
C107 C109 1.392 . S
C107 H118 0.930 . S
C108 C104 1.373 . S
C108 C106 1.383 . S
C108 H119 0.931 . S
C109 C106 1.382 . S
C109 C107 1.392 . S
C110 Eu81 2.828 . S
C110 O94 1.249 . S
C110 O95 1.244 . S
C110 C104 1.505 . S
C111 O98 1.258 . S
C111 O99 1.242 . S
H112 C84 0.930 . S
H113 C85 0.930 . S
H114 C86 0.930 . S
H115 C87 0.931 . S
H116 C105 0.930 . S
H117 C106 0.930 . S
H118 C107 0.930 . S
H119 C108 0.931 . S
C120 C121 1.386 . S
C120 C122 1.397 . S
C120 H144 0.931 . S
C121 C120 1.386 . S
C121 C125 1.397 1_545 S
C122 C120 1.397 . S
C122 C123 1.384 . S
C122 H145 0.930 . S
C123 C122 1.384 . S
C123 C124 1.377 1_545 S
C123 C126 1.481 . S
C124 C123 1.377 1_565 S
C124 C125 1.389 . S
C124 H146 0.929 . S
C125 C121 1.397 1_565 S
C125 C124 1.389 . S
C125 H147 0.931 . S
C126 C123 1.481 . S
C126 C127 1.387 . S
C126 C131 1.394 . S
C127 C126 1.387 . S
C127 C128 1.401 . S
C127 H148 0.930 . S
C128 C127 1.401 . S
C128 C129 1.376 . S
C128 C137 1.511 . S
C129 C128 1.376 . S
C129 C130 1.392 1_545 S
C129 H150 0.931 . S
C130 C129 1.392 1_565 S
C130 C131 1.362 1_565 S
C130 C132 1.500 . S
C131 C126 1.394 . S
C131 C130 1.362 1_545 S
C131 H149 0.926 1_545 S
C132 C130 1.500 . S
C132 C133 1.371 . S
C132 C134 1.365 . S
C133 C132 1.371 . S
C133 C143 1.386 . S
C133 H151 0.931 . S
C134 C132 1.365 . S
C134 C135 1.409 . S
C134 H152 0.929 . S
C135 C134 1.409 . S
C135 C136 1.380 . S
C135 H153 0.930 . S
C136 C135 1.380 . S
C136 C143 1.357 . S
C137 C128 1.511 . S
C137 C138 1.341 . S
C137 C139 1.371 . S
C138 C137 1.341 . S
C138 C142 1.394 . S
C138 H154 0.930 . S
C139 C137 1.371 . S
C139 C140 1.392 . S
C139 H155 0.931 . S
C140 C139 1.392 . S
C140 C141 1.331 . S
C140 H158 0.932 . S
C141 C140 1.331 . S
C141 C142 1.336 . S
C142 C138 1.394 . S
C142 C141 1.336 . S
C142 H157 0.929 . S
C143 C133 1.386 . S
C143 C136 1.357 . S
C143 H156 0.928 . S
H144 C120 0.931 . S
H145 C122 0.930 . S
H146 C124 0.929 . S
H147 C125 0.931 . S
H148 C127 0.930 . S
H149 C131 0.926 1_565 S
H150 C129 0.931 . S
H151 C133 0.931 . S
H152 C134 0.929 . S
H153 C135 0.930 . S
H154 C138 0.930 . S
H155 C139 0.931 . S
H156 C143 0.928 . S
H157 C142 0.929 . S
H158 C140 0.932 . S
C159 C160 1.386 . S
C159 C161 1.397 . S
C159 H183 0.931 . S
C160 C159 1.386 . S
C160 C164 1.397 . S
C161 C159 1.397 . S
C161 C162 1.384 . S
C161 H184 0.930 . S
C162 C161 1.384 . S
C162 C163 1.377 . S
C162 C165 1.481 . S
C163 C162 1.377 . S
C163 C164 1.389 . S
C163 H185 0.929 . S
C164 C160 1.397 . S
C164 C163 1.389 . S
C164 H186 0.931 . S
C165 C162 1.481 . S
C165 C166 1.387 . S
C165 C170 1.390 . S
C166 C165 1.387 . S
C166 C167 1.401 . S
C166 H187 0.930 . S
C167 C166 1.401 . S
C167 C168 1.376 . S
C167 C176 1.511 . S
C168 C167 1.376 . S
C168 C169 1.392 . S
C168 H189 0.931 . S
C169 C168 1.392 . S
C169 C170 1.361 . S
C169 C171 1.500 . S
C170 C165 1.390 . S
C170 C169 1.361 . S
C170 H188 0.931 . S
C171 C169 1.500 . S
C171 C172 1.371 . S
C171 C173 1.365 . S
C172 C171 1.371 . S
C172 C182 1.386 . S
C172 H190 0.931 . S
C173 C171 1.365 . S
C173 C174 1.409 . S
C173 H191 0.929 . S
C174 C173 1.409 . S
C174 C175 1.380 . S
C174 H192 0.930 . S
C175 C174 1.380 . S
C175 C182 1.357 . S
C176 C167 1.511 . S
C176 C177 1.341 . S
C176 C178 1.371 . S
C177 C176 1.341 . S
C177 C181 1.394 . S
C177 H193 0.930 . S
C178 C176 1.371 . S
C178 C179 1.392 . S
C178 H194 0.931 . S
C179 C178 1.392 . S
C179 C180 1.331 . S
C179 H197 0.932 . S
C180 C179 1.331 . S
C180 C181 1.336 . S
C181 C177 1.394 . S
C181 C180 1.336 . S
C181 H196 0.929 . S
C182 C172 1.386 . S
C182 C175 1.357 . S
C182 H195 0.928 . S
H183 C159 0.931 . S
H184 C161 0.930 . S
H185 C163 0.929 . S
H186 C164 0.931 . S
H187 C166 0.930 . S
H188 C170 0.931 . S
H189 C168 0.931 . S
H190 C172 0.931 . S
H191 C173 0.929 . S
H192 C174 0.930 . S
H193 C177 0.930 . S
H194 C178 0.931 . S
H195 C182 0.928 . S
H196 C181 0.929 . S
H197 C179 0.932 . S
C198 C199 1.386 . S
C198 C200 1.397 . S
C198 H222 0.931 . S
C199 C198 1.386 . S
C199 C203 1.397 . S
C200 C198 1.397 . S
C200 C201 1.384 . S
C200 H223 0.930 . S
C201 C200 1.384 . S
C201 C202 1.377 . S
C201 C204 1.481 . S
C202 C201 1.377 . S
C202 C203 1.389 . S
C202 H224 0.929 1_455 S
C203 C199 1.397 . S
C203 C202 1.389 . S
C203 H225 0.931 1_455 S
C204 C201 1.481 . S
C204 C205 1.387 . S
C204 C209 1.390 . S
C205 C204 1.387 . S
C205 C206 1.401 . S
C205 H226 0.930 . S
C206 C205 1.401 . S
C206 C207 1.376 . S
C206 C215 1.511 . S
C207 C206 1.376 . S
C207 C208 1.392 . S
C207 H228 0.931 . S
C208 C207 1.392 . S
C208 C209 1.361 . S
C208 C210 1.500 1_455 S
C209 C204 1.390 . S
C209 C208 1.361 . S
C209 H227 0.931 1_455 S
C210 C208 1.500 1_655 S
C210 C211 1.371 . S
C210 C212 1.365 . S
C211 C210 1.371 . S
C211 C221 1.386 . S
C211 H229 0.931 1_655 S
C212 C210 1.365 . S
C212 C213 1.409 . S
C212 H230 0.929 . S
C213 C212 1.409 . S
C213 C214 1.380 . S
C213 H231 0.930 . S
C214 C213 1.380 . S
C214 C221 1.357 . S
C215 C206 1.511 . S
C215 C216 1.341 . S
C215 C217 1.371 . S
C216 C215 1.341 . S
C216 C220 1.394 . S
C216 H232 0.930 . S
C217 C215 1.371 . S
C217 C218 1.392 . S
C217 H233 0.931 . S
C218 C217 1.392 . S
C218 C219 1.331 . S
C218 H236 0.932 . S
C219 C218 1.331 . S
C219 C220 1.336 . S
C220 C216 1.394 . S
C220 C219 1.336 . S
C220 H235 0.929 . S
C221 C211 1.386 . S
C221 C214 1.357 . S
C221 H234 0.928 . S
H222 C198 0.931 . S
H223 C200 0.930 . S
H224 C202 0.929 1_655 S
H225 C203 0.931 1_655 S
H226 C205 0.930 . S
H227 C209 0.931 1_655 S
H228 C207 0.931 . S
H229 C211 0.931 1_455 S
H230 C212 0.929 . S
H231 C213 0.930 . S
H232 C216 0.930 . S
H233 C217 0.931 . S
H234 C221 0.928 . S
H235 C220 0.929 . S
H236 C218 0.932 . S
C237 C238 1.386 1_655 S
C237 C239 1.397 . S
C237 H261 0.931 . S
C238 C237 1.386 1_455 S
C238 C242 1.397 . S
C239 C237 1.397 . S
C239 C240 1.384 1_655 S
C239 H262 0.930 . S
C240 C239 1.384 1_455 S
C240 C241 1.377 . S
C240 C243 1.481 . S
C241 C240 1.377 . S
C241 C242 1.389 . S
C241 H263 0.929 . S
C242 C238 1.397 . S
C242 C241 1.389 . S
C242 H264 0.931 . S
C243 C240 1.481 . S
C243 C244 1.387 1_455 S
C243 C248 1.390 . S
C244 C243 1.387 1_655 S
C244 C245 1.401 . S
C244 H265 0.930 . S
C245 C244 1.401 . S
C245 C246 1.376 1_655 S
C245 C254 1.511 . S
C246 C245 1.376 1_455 S
C246 C247 1.392 . S
C246 H267 0.931 . S
C247 C246 1.392 . S
C247 C248 1.361 . S
C247 C249 1.500 . S
C248 C243 1.390 . S
C248 C247 1.361 . S
C248 H266 0.931 . S
C249 C247 1.500 . S
C249 C250 1.371 . S
C249 C251 1.365 . S
C250 C249 1.371 . S
C250 C260 1.386 . S
C250 H268 0.931 . S
C251 C249 1.365 . S
C251 C252 1.409 . S
C251 H269 0.929 . S
C252 C251 1.409 . S
C252 C253 1.380 . S
C252 H270 0.930 . S
C253 C252 1.380 . S
C253 C260 1.357 . S
C254 C245 1.511 . S
C254 C255 1.341 . S
C254 C256 1.371 . S
C255 C254 1.341 . S
C255 C259 1.394 . S
C255 H271 0.930 . S
C256 C254 1.371 . S
C256 C257 1.392 . S
C256 H272 0.931 . S
C257 C256 1.392 . S
C257 C258 1.331 . S
C257 H275 0.932 . S
C258 C257 1.331 . S
C258 C259 1.336 . S
C259 C255 1.394 . S
C259 C258 1.336 . S
C259 H274 0.929 . S
C260 C250 1.386 . S
C260 C253 1.357 . S
C260 H273 0.928 . S
H261 C237 0.931 . S
H262 C239 0.930 . S
H263 C241 0.929 . S
H264 C242 0.931 . S
H265 C244 0.930 . S
H266 C248 0.931 . S
H267 C246 0.931 . S
H268 C250 0.931 . S
H269 C251 0.929 . S
H270 C252 0.930 . S
H271 C255 0.930 . S
H272 C256 0.931 . S
H273 C260 0.928 . S
H274 C259 0.929 . S
H275 C257 0.932 . S
C276 C277 1.386 1_565 S
C276 C278 1.397 . S
C276 H300 0.931 . S
C277 C276 1.386 1_545 S
C277 C281 1.397 . S
C278 C276 1.397 . S
C278 C279 1.384 1_565 S
C278 H301 0.930 . S
C279 C278 1.384 1_545 S
C279 C280 1.377 . S
C279 C282 1.481 . S
C280 C279 1.377 . S
C280 C281 1.389 . S
C280 H302 0.929 . S
C281 C277 1.397 . S
C281 C280 1.389 . S
C281 H303 0.931 . S
C282 C279 1.481 . S
C282 C283 1.387 1_545 S
C282 C287 1.390 . S
C283 C282 1.387 1_565 S
C283 C284 1.401 . S
C283 H304 0.930 . S
C284 C283 1.401 . S
C284 C285 1.376 1_565 S
C284 C293 1.511 . S
C285 C284 1.376 1_545 S
C285 C286 1.392 . S
C285 H306 0.931 . S
C286 C285 1.392 . S
C286 C287 1.361 . S
C286 C288 1.500 . S
C287 C282 1.390 . S
C287 C286 1.361 . S
C287 H305 0.931 . S
C288 C286 1.500 . S
C288 C289 1.371 . S
C288 C290 1.365 . S
C289 C288 1.371 . S
C289 C299 1.386 . S
C289 H307 0.931 . S
C290 C288 1.365 . S
C290 C291 1.409 . S
C290 H308 0.929 . S
C291 C290 1.409 . S
C291 C292 1.380 . S
C291 H309 0.930 . S
C292 C291 1.380 . S
C292 C299 1.357 . S
C293 C284 1.511 . S
C293 C294 1.341 . S
C293 C295 1.371 . S
C294 C293 1.341 . S
C294 C298 1.394 . S
C294 H310 0.930 . S
C295 C293 1.371 . S
C295 C296 1.392 . S
C295 H311 0.931 . S
C296 C295 1.392 . S
C296 C297 1.331 . S
C296 H314 0.932 . S
C297 C296 1.331 . S
C297 C298 1.336 . S
C298 C294 1.394 . S
C298 C297 1.336 . S
C298 H313 0.929 . S
C299 C289 1.386 . S
C299 C292 1.357 . S
C299 H312 0.928 . S
H300 C276 0.931 . S
H301 C278 0.930 . S
H302 C280 0.929 . S
H303 C281 0.931 . S
H304 C283 0.930 . S
H305 C287 0.931 . S
H306 C285 0.931 . S
H307 C289 0.931 . S
H308 C290 0.929 . S
H309 C291 0.930 . S
H310 C294 0.930 . S
H311 C295 0.931 . S
H312 C299 0.928 . S
H313 C298 0.929 . S
H314 C296 0.932 . S
C315 C316 1.386 . S
C315 C317 1.397 . S
C315 H339 0.931 . S
C316 C315 1.386 . S
C316 C320 1.397 . S
C317 C315 1.397 . S
C317 C318 1.384 . S
C317 H340 0.930 . S
C318 C317 1.384 . S
C318 C319 1.377 . S
C318 C321 1.481 . S
C319 C318 1.377 . S
C319 C320 1.389 . S
C319 H341 0.929 . S
C320 C316 1.397 . S
C320 C319 1.389 . S
C320 H342 0.931 . S
C321 C318 1.481 . S
C321 C322 1.387 . S
C321 C326 1.390 . S
C322 C321 1.387 . S
C322 C323 1.401 . S
C322 H343 0.930 . S
C323 C322 1.401 . S
C323 C324 1.376 . S
C323 C332 1.511 . S
C324 C323 1.376 . S
C324 C325 1.392 . S
C324 H345 0.931 . S
C325 C324 1.392 . S
C325 C326 1.361 . S
C325 C327 1.500 . S
C326 C321 1.390 . S
C326 C325 1.361 . S
C326 H344 0.931 . S
C327 C325 1.500 . S
C327 C328 1.371 . S
C327 C329 1.365 . S
C328 C327 1.371 . S
C328 C338 1.386 . S
C328 H346 0.931 . S
C329 C327 1.365 . S
C329 C330 1.409 . S
C329 H347 0.929 . S
C330 C329 1.409 . S
C330 C331 1.380 . S
C330 H348 0.930 . S
C331 C330 1.380 . S
C331 C338 1.357 . S
C332 C323 1.511 . S
C332 C333 1.341 . S
C332 C334 1.371 . S
C333 C332 1.341 . S
C333 C337 1.394 . S
C333 H349 0.930 . S
C334 C332 1.371 . S
C334 C335 1.392 . S
C334 H350 0.931 . S
C335 C334 1.392 . S
C335 C336 1.331 . S
C335 H353 0.932 . S
C336 C335 1.331 . S
C336 C337 1.336 . S
C337 C333 1.394 . S
C337 C336 1.336 . S
C337 H352 0.929 . S
C338 C328 1.386 . S
C338 C331 1.357 . S
C338 H351 0.928 . S
H339 C315 0.931 . S
H340 C317 0.930 . S
H341 C319 0.929 . S
H342 C320 0.931 . S
H343 C322 0.930 . S
H344 C326 0.931 . S
H345 C324 0.931 . S
H346 C328 0.931 . S
H347 C329 0.929 . S
H348 C330 0.930 . S
H349 C333 0.930 . S
H350 C334 0.931 . S
H351 C338 0.928 . S
H352 C337 0.929 . S
H353 C335 0.932 . S
H354 C362 0.950 . S
H355 C367 0.950 . S
H356 C364 0.950 . S
H357 C366 0.950 . S
H358 C368 0.950 . S
H359 C370 0.950 . S
H360 C372 0.950 . S
H361 C373 0.950 . S
C362 H354 0.950 . S
C362 C363 1.386 . S
C362 C364 1.391 . S
C363 C362 1.386 . S
C363 C367 1.393 . S
C364 H356 0.950 . S
C364 C362 1.391 . S
C364 C365 1.400 . S
C365 C364 1.400 . S
C365 C366 1.398 . S
C365 C371 1.491 . S
C366 H357 0.950 . S
C366 C365 1.398 . S
C366 C367 1.391 . S
C367 H355 0.950 . S
C367 C363 1.393 . S
C367 C366 1.391 . S
C368 H358 0.950 . S
C368 C369 1.386 . S
C368 C370 1.391 . S
C369 C368 1.386 . S
C369 C373 1.393 . S
C370 H359 0.950 . S
C370 C368 1.391 . S
C370 C371 1.400 . S
C371 C365 1.491 . S
C371 C370 1.400 . S
C371 C372 1.398 . S
C372 H360 0.950 . S
C372 C371 1.398 . S
C372 C373 1.391 . S
C373 H361 0.950 . S
C373 C369 1.393 . S
C373 C372 1.391 . S
H374 C382 0.950 . S
H375 C387 0.950 . S
H376 C384 0.950 . S
H377 C386 0.950 . S
H378 C388 0.950 . S
H379 C390 0.950 . S
H380 C392 0.950 . S
H381 C393 0.950 . S
C382 H374 0.950 . S
C382 C383 1.386 . S
C382 C384 1.391 . S
C383 C382 1.386 . S
C383 C387 1.393 . S
C384 H376 0.950 . S
C384 C382 1.391 . S
C384 C385 1.400 . S
C385 C384 1.400 . S
C385 C386 1.398 . S
C385 C391 1.491 . S
C386 H377 0.950 . S
C386 C385 1.398 . S
C386 C387 1.391 . S
C387 H375 0.950 . S
C387 C383 1.393 . S
C387 C386 1.391 . S
C388 H378 0.950 . S
C388 C389 1.386 . S
C388 C390 1.391 . S
C389 C388 1.386 . S
C389 C393 1.393 . S
C390 H379 0.950 . S
C390 C388 1.391 . S
C390 C391 1.400 . S
C391 C385 1.491 . S
C391 C390 1.400 . S
C391 C392 1.398 . S
C392 H380 0.950 . S
C392 C391 1.398 . S
C392 C393 1.391 . S
C393 H381 0.950 . S
C393 C389 1.393 . S
C393 C392 1.391 . S
H394 C402 0.950 . S
H395 C407 0.950 . S
H396 C404 0.950 . S
H397 C406 0.950 . S
H398 C408 0.950 . S
H399 C410 0.950 . S
H400 C412 0.950 . S
H401 C413 0.950 . S
C402 H394 0.950 . S
C402 C403 1.386 . S
C402 C404 1.391 . S
C403 C402 1.386 . S
C403 C407 1.393 . S
C404 H396 0.950 . S
C404 C402 1.391 . S
C404 C405 1.400 . S
C405 C404 1.400 . S
C405 C406 1.398 . S
C405 C411 1.491 . S
C406 H397 0.950 . S
C406 C405 1.398 . S
C406 C407 1.391 . S
C407 H395 0.950 . S
C407 C403 1.393 . S
C407 C406 1.391 . S
C408 H398 0.950 . S
C408 C409 1.386 . S
C408 C410 1.391 . S
C409 C408 1.386 . S
C409 C413 1.393 . S
C410 H399 0.950 . S
C410 C408 1.391 . S
C410 C411 1.400 . S
C411 C405 1.491 . S
C411 C410 1.400 . S
C411 C412 1.398 . S
C412 H400 0.950 . S
C412 C411 1.398 . S
C412 C413 1.391 . S
C413 H401 0.950 . S
C413 C409 1.393 . S
C413 C412 1.391 . S
H414 C422 0.950 . S
H415 C427 0.950 . S
H416 C424 0.950 . S
H417 C426 0.950 . S
H418 C428 0.950 . S
H419 C430 0.950 . S
H420 C432 0.950 . S
H421 C433 0.950 . S
C422 H414 0.950 . S
C422 C423 1.386 . S
C422 C424 1.391 . S
C423 C422 1.386 . S
C423 C427 1.393 . S
C424 H416 0.950 . S
C424 C422 1.391 . S
C424 C425 1.400 . S
C425 C424 1.400 . S
C425 C426 1.398 . S
C425 C431 1.491 . S
C426 H417 0.950 . S
C426 C425 1.398 . S
C426 C427 1.391 . S
C427 H415 0.950 . S
C427 C423 1.393 . S
C427 C426 1.391 . S
C428 H418 0.950 . S
C428 C429 1.386 . S
C428 C430 1.391 . S
C429 C428 1.386 . S
C429 C433 1.393 . S
C430 H419 0.950 . S
C430 C428 1.391 . S
C430 C431 1.400 . S
C431 C425 1.491 . S
C431 C430 1.400 . S
C431 C432 1.398 . S
C432 H420 0.950 . S
C432 C431 1.398 . S
C432 C433 1.391 . S
C433 H421 0.950 . S
C433 C429 1.393 . S
C433 C432 1.391 . S
H434 C442 0.950 . S
H435 C447 0.950 . S
H436 C444 0.950 . S
H437 C446 0.950 . S
H438 C448 0.950 . S
H439 C450 0.950 . S
H440 C452 0.950 . S
H441 C453 0.950 . S
C442 H434 0.950 . S
C442 C443 1.386 . S
C442 C444 1.391 . S
C443 C442 1.386 . S
C443 C447 1.393 . S
C444 H436 0.950 . S
C444 C442 1.391 . S
C444 C445 1.400 . S
C445 C444 1.400 . S
C445 C446 1.398 . S
C445 C451 1.491 . S
C446 H437 0.950 . S
C446 C445 1.398 . S
C446 C447 1.391 . S
C447 H435 0.950 . S
C447 C443 1.393 . S
C447 C446 1.391 . S
C448 H438 0.950 . S
C448 C449 1.386 . S
C448 C450 1.391 . S
C449 C448 1.386 . S
C449 C453 1.393 . S
C450 H439 0.950 . S
C450 C448 1.391 . S
C450 C451 1.400 . S
C451 C445 1.491 . S
C451 C450 1.400 . S
C451 C452 1.398 . S
C452 H440 0.950 . S
C452 C451 1.398 . S
C452 C453 1.391 . S
C453 H441 0.950 . S
C453 C449 1.393 . S
C453 C452 1.391 . S
H454 C462 0.950 . S
H455 C467 0.950 . S
H456 C464 0.950 . S
H457 C466 0.950 . S
H458 C468 0.950 . S
H459 C470 0.950 . S
H460 C472 0.950 . S
H461 C473 0.950 . S
C462 H454 0.950 . S
C462 C463 1.386 . S
C462 C464 1.391 . S
C463 C462 1.386 . S
C463 C467 1.393 . S
C464 H456 0.950 . S
C464 C462 1.391 . S
C464 C465 1.400 . S
C465 C464 1.400 . S
C465 C466 1.398 . S
C465 C471 1.491 . S
C466 H457 0.950 . S
C466 C465 1.398 . S
C466 C467 1.391 . S
C467 H455 0.950 . S
C467 C463 1.393 . S
C467 C466 1.391 . S
C468 H458 0.950 . S
C468 C469 1.386 . S
C468 C470 1.391 . S
C469 C468 1.386 . S
C469 C473 1.393 . S
C470 H459 0.950 . S
C470 C468 1.391 . S
C470 C471 1.400 . S
C471 C465 1.491 . S
C471 C470 1.400 . S
C471 C472 1.398 . S
C472 H460 0.950 . S
C472 C471 1.398 . S
C472 C473 1.391 . S
C473 H461 0.950 . S
C473 C469 1.393 . S
C473 C472 1.391 . S
H474 C482 0.950 . S
H475 C487 0.950 . S
H476 C484 0.950 . S
H477 C486 0.950 . S
H478 C488 0.950 . S
H479 C490 0.950 . S
H480 C492 0.950 . S
H481 C493 0.950 . S
C482 H474 0.950 . S
C482 C483 1.386 . S
C482 C484 1.391 . S
C483 C482 1.386 . S
C483 C487 1.393 . S
C484 H476 0.950 . S
C484 C482 1.391 . S
C484 C485 1.400 . S
C485 C484 1.400 . S
C485 C486 1.398 . S
C485 C491 1.491 . S
C486 H477 0.950 . S
C486 C485 1.398 . S
C486 C487 1.391 . S
C487 H475 0.950 . S
C487 C483 1.393 . S
C487 C486 1.391 . S
C488 H478 0.950 . S
C488 C489 1.386 . S
C488 C490 1.391 . S
C489 C488 1.386 . S
C489 C493 1.393 . S
C490 H479 0.950 . S
C490 C488 1.391 . S
C490 C491 1.400 . S
C491 C485 1.491 . S
C491 C490 1.400 . S
C491 C492 1.398 . S
C492 H480 0.950 . S
C492 C491 1.398 . S
C492 C493 1.391 . S
C493 H481 0.950 . S
C493 C489 1.393 . S
C493 C492 1.391 . S
H494 C502 0.950 . S
H495 C507 0.950 . S
H496 C504 0.950 . S
H497 C506 0.950 . S
H498 C508 0.950 . S
H499 C510 0.950 . S
H500 C512 0.950 . S
H501 C513 0.950 . S
C502 H494 0.950 . S
C502 C503 1.386 . S
C502 C504 1.391 . S
C503 C502 1.386 . S
C503 C507 1.393 . S
C504 H496 0.950 . S
C504 C502 1.391 . S
C504 C505 1.400 . S
C505 C504 1.400 . S
C505 C506 1.398 . S
C505 C511 1.491 . S
C506 H497 0.950 . S
C506 C505 1.398 . S
C506 C507 1.391 . S
C507 H495 0.950 . S
C507 C503 1.393 . S
C507 C506 1.391 . S
C508 H498 0.950 . S
C508 C509 1.386 . S
C508 C510 1.391 . S
C509 C508 1.386 . S
C509 C513 1.393 . S
C510 H499 0.950 . S
C510 C508 1.391 . S
C510 C511 1.400 . S
C511 C505 1.491 . S
C511 C510 1.400 . S
C511 C512 1.398 . S
C512 H500 0.950 . S
C512 C511 1.398 . S
C512 C513 1.391 . S
C513 H501 0.950 . S
C513 C509 1.393 . S
C513 C512 1.391 . S
H514 C522 0.950 . S
H515 C527 0.950 . S
H516 C524 0.950 . S
H517 C526 0.950 . S
H518 C528 0.950 . S
H519 C530 0.950 . S
H520 C532 0.950 . S
H521 C533 0.950 . S
C522 H514 0.950 . S
C522 C523 1.386 . S
C522 C524 1.391 . S
C523 C522 1.386 . S
C523 C527 1.393 . S
C524 H516 0.950 . S
C524 C522 1.391 . S
C524 C525 1.400 . S
C525 C524 1.400 . S
C525 C526 1.398 . S
C525 C531 1.491 . S
C526 H517 0.950 . S
C526 C525 1.398 . S
C526 C527 1.391 . S
C527 H515 0.950 . S
C527 C523 1.393 . S
C527 C526 1.391 . S
C528 H518 0.950 . S
C528 C529 1.386 . S
C528 C530 1.391 . S
C529 C528 1.386 . S
C529 C533 1.393 . S
C530 H519 0.950 . S
C530 C528 1.391 . S
C530 C531 1.400 . S
C531 C525 1.491 . S
C531 C530 1.400 . S
C531 C532 1.398 . S
C532 H520 0.950 . S
C532 C531 1.398 . S
C532 C533 1.391 . S
C533 H521 0.950 . S
C533 C529 1.393 . S
C533 C532 1.391 . S
H534 C542 0.950 . S
H535 C547 0.950 . S
H536 C544 0.950 . S
H537 C546 0.950 . S
H538 C548 0.950 . S
H539 C550 0.950 . S
H540 C552 0.950 . S
H541 C553 0.950 . S
C542 H534 0.950 . S
C542 C543 1.386 . S
C542 C544 1.391 . S
C543 C542 1.386 . S
C543 C547 1.393 . S
C544 H536 0.950 . S
C544 C542 1.391 . S
C544 C545 1.400 . S
C545 C544 1.400 . S
C545 C546 1.398 . S
C545 C551 1.491 . S
C546 H537 0.950 . S
C546 C545 1.398 . S
C546 C547 1.391 . S
C547 H535 0.950 . S
C547 C543 1.393 . S
C547 C546 1.391 . S
C548 H538 0.950 . S
C548 C549 1.386 . S
C548 C550 1.391 . S
C549 C548 1.386 . S
C549 C553 1.393 . S
C550 H539 0.950 . S
C550 C548 1.391 . S
C550 C551 1.400 . S
C551 C545 1.491 . S
C551 C550 1.400 . S
C551 C552 1.398 . S
C552 H540 0.950 . S
C552 C551 1.398 . S
C552 C553 1.391 . S
C553 H541 0.950 . S
C553 C549 1.393 . S
C553 C552 1.391 . S
H554 C562 0.950 . S
H555 C567 0.950 . S
H556 C564 0.950 . S
H557 C566 0.950 . S
H558 C568 0.950 . S
H559 C570 0.950 . S
H560 C572 0.950 . S
H561 C573 0.950 . S
C562 H554 0.950 . S
C562 C563 1.386 . S
C562 C564 1.391 . S
C563 C562 1.386 . S
C563 C567 1.393 . S
C564 H556 0.950 . S
C564 C562 1.391 . S
C564 C565 1.400 . S
C565 C564 1.400 . S
C565 C566 1.398 . S
C565 C571 1.491 . S
C566 H557 0.950 . S
C566 C565 1.398 . S
C566 C567 1.391 . S
C567 H555 0.950 . S
C567 C563 1.393 . S
C567 C566 1.391 . S
C568 H558 0.950 . S
C568 C569 1.386 . S
C568 C570 1.391 . S
C569 C568 1.386 . S
C569 C573 1.393 . S
C570 H559 0.950 . S
C570 C568 1.391 . S
C570 C571 1.400 . S
C571 C565 1.491 . S
C571 C570 1.400 . S
C571 C572 1.398 . S
C572 H560 0.950 . S
C572 C571 1.398 . S
C572 C573 1.391 . S
C573 H561 0.950 . S
C573 C569 1.393 . S
C573 C572 1.391 . S
H574 C582 0.950 . S
H575 C587 0.950 . S
H576 C584 0.950 . S
H577 C586 0.950 . S
H578 C588 0.950 . S
H579 C590 0.950 . S
H580 C592 0.950 . S
H581 C593 0.950 . S
C582 H574 0.950 . S
C582 C583 1.386 . S
C582 C584 1.391 . S
C583 C582 1.386 . S
C583 C587 1.393 . S
C584 H576 0.950 . S
C584 C582 1.391 . S
C584 C585 1.400 . S
C585 C584 1.400 . S
C585 C586 1.398 . S
C585 C591 1.491 . S
C586 H577 0.950 . S
C586 C585 1.398 . S
C586 C587 1.391 . S
C587 H575 0.950 . S
C587 C583 1.393 . S
C587 C586 1.391 . S
C588 H578 0.950 . S
C588 C589 1.386 . S
C588 C590 1.391 . S
C589 C588 1.386 . S
C589 C593 1.393 . S
C590 H579 0.950 . S
C590 C588 1.391 . S
C590 C591 1.400 . S
C591 C585 1.491 . S
C591 C590 1.400 . S
C591 C592 1.398 . S
C592 H580 0.950 . S
C592 C591 1.398 . S
C592 C593 1.391 . S
C593 H581 0.950 . S
C593 C589 1.393 . S
C593 C592 1.391 . S
H594 C602 0.950 . S
H595 C607 0.950 . S
H596 C604 0.950 . S
H597 C606 0.950 . S
H598 C608 0.950 . S
H599 C610 0.950 . S
H600 C612 0.950 . S
H601 C613 0.950 . S
C602 H594 0.950 . S
C602 C603 1.386 1_655 S
C602 C604 1.391 . S
C603 C602 1.386 1_455 S
C603 C607 1.393 . S
C604 H596 0.950 . S
C604 C602 1.391 . S
C604 C605 1.400 1_655 S
C605 C604 1.400 1_455 S
C605 C606 1.398 . S
C605 C611 1.491 . S
C606 H597 0.950 . S
C606 C605 1.398 . S
C606 C607 1.391 . S
C607 H595 0.950 . S
C607 C603 1.393 . S
C607 C606 1.391 . S
C608 H598 0.950 . S
C608 C609 1.386 . S
C608 C610 1.391 . S
C609 C608 1.386 . S
C609 C613 1.393 1_455 S
C610 H599 0.950 . S
C610 C608 1.391 . S
C610 C611 1.400 . S
C611 C605 1.491 . S
C611 C610 1.400 . S
C611 C612 1.398 1_455 S
C612 H600 0.950 . S
C612 C611 1.398 1_655 S
C612 C613 1.391 . S
C613 H601 0.950 . S
C613 C609 1.393 1_655 S
C613 C612 1.391 . S
H614 C622 0.950 1_565 S
H615 C627 0.950 . S
H616 C624 0.950 1_565 S
H617 C626 0.950 . S
H618 C628 0.950 . S
H619 C630 0.950 . S
H620 C632 0.950 1_565 S
H621 C633 0.950 . S
C622 H614 0.950 1_545 S
C622 C623 1.386 . S
C622 C624 1.391 . S
C623 C622 1.386 . S
C623 C627 1.393 . S
C624 H616 0.950 1_545 S
C624 C622 1.391 . S
C624 C625 1.400 . S
C625 C624 1.400 . S
C625 C626 1.398 . S
C625 C631 1.491 . S
C626 H617 0.950 . S
C626 C625 1.398 . S
C626 C627 1.391 . S
C627 H615 0.950 . S
C627 C623 1.393 . S
C627 C626 1.391 . S
C628 H618 0.950 . S
C628 C629 1.386 . S
C628 C630 1.391 . S
C629 C628 1.386 . S
C629 C633 1.393 . S
C630 H619 0.950 . S
C630 C628 1.391 . S
C630 C631 1.400 . S
C631 C625 1.491 . S
C631 C630 1.400 . S
C631 C632 1.398 . S
C632 H620 0.950 1_545 S
C632 C631 1.398 . S
C632 C633 1.391 . S
C633 H621 0.950 . S
C633 C629 1.393 . S
C633 C632 1.391 . S
H634 C642 0.950 . S
H635 C647 0.950 . S
H636 C644 0.950 . S
H637 C646 0.950 . S
H638 C648 0.950 . S
H639 C650 0.950 . S
H640 C652 0.950 . S
H641 C653 0.950 . S
C642 H634 0.950 . S
C642 C643 1.386 . S
C642 C644 1.391 . S
C643 C642 1.386 . S
C643 C647 1.393 . S
C644 H636 0.950 . S
C644 C642 1.391 . S
C644 C645 1.400 . S
C645 C644 1.400 . S
C645 C646 1.398 . S
C645 C651 1.491 . S
C646 H637 0.950 . S
C646 C645 1.398 . S
C646 C647 1.391 . S
C647 H635 0.950 . S
C647 C643 1.393 . S
C647 C646 1.391 . S
C648 H638 0.950 . S
C648 C649 1.386 . S
C648 C650 1.391 . S
C649 C648 1.386 . S
C649 C653 1.393 . S
C650 H639 0.950 . S
C650 C648 1.391 . S
C650 C651 1.400 . S
C651 C645 1.491 . S
C651 C650 1.400 . S
C651 C652 1.398 . S
C652 H640 0.950 . S
C652 C651 1.398 . S
C652 C653 1.391 . S
C653 H641 0.950 . S
C653 C649 1.393 . S
C653 C652 1.391 . S
H654 C662 0.950 . S
H655 C667 0.950 . S
H656 C664 0.950 . S
H657 C666 0.950 . S
H658 C668 0.950 . S
H659 C670 0.950 . S
H660 C672 0.950 . S
H661 C673 0.950 . S
C662 H654 0.950 . S
C662 C663 1.386 1_565 S
C662 C664 1.391 . S
C663 C662 1.386 1_545 S
C663 C667 1.393 . S
C664 H656 0.950 . S
C664 C662 1.391 . S
C664 C665 1.400 1_565 S
C665 C664 1.400 1_545 S
C665 C666 1.398 . S
C665 C671 1.491 . S
C666 H657 0.950 . S
C666 C665 1.398 . S
C666 C667 1.391 . S
C667 H655 0.950 . S
C667 C663 1.393 . S
C667 C666 1.391 . S
C668 H658 0.950 . S
C668 C669 1.386 . S
C668 C670 1.391 . S
C669 C668 1.386 . S
C669 C673 1.393 1_545 S
C670 H659 0.950 . S
C670 C668 1.391 . S
C670 C671 1.400 . S
C671 C665 1.491 . S
C671 C670 1.400 . S
C671 C672 1.398 1_545 S
C672 H660 0.950 . S
C672 C671 1.398 1_565 S
C672 C673 1.391 . S
C673 H661 0.950 . S
C673 C669 1.393 1_565 S
C673 C672 1.391 . S
H674 C682 0.950 . S
H675 C687 0.950 . S
H676 C684 0.950 . S
H677 C686 0.950 . S
H678 C688 0.950 . S
H679 C690 0.950 . S
H680 C692 0.950 . S
H681 C693 0.950 . S
C682 H674 0.950 . S
C682 C683 1.386 . S
C682 C684 1.391 . S
C683 C682 1.386 . S
C683 C687 1.393 . S
C684 H676 0.950 . S
C684 C682 1.391 . S
C684 C685 1.400 . S
C685 C684 1.400 . S
C685 C686 1.398 . S
C685 C691 1.491 . S
C686 H677 0.950 . S
C686 C685 1.398 . S
C686 C687 1.391 . S
C687 H675 0.950 . S
C687 C683 1.393 . S
C687 C686 1.391 . S
C688 H678 0.950 . S
C688 C689 1.386 . S
C688 C690 1.391 . S
C689 C688 1.386 . S
C689 C693 1.393 . S
C690 H679 0.950 . S
C690 C688 1.391 . S
C690 C691 1.400 . S
C691 C685 1.491 . S
C691 C690 1.400 . S
C691 C692 1.398 . S
C692 H680 0.950 . S
C692 C691 1.398 . S
C692 C693 1.391 . S
C693 H681 0.950 . S
C693 C689 1.393 . S
C693 C692 1.391 . S
H694 C702 0.950 . S
H695 C707 0.950 . S
H696 C704 0.950 . S
H697 C706 0.950 . S
H698 C708 0.950 . S
H699 C710 0.950 . S
H700 C712 0.950 . S
H701 C713 0.950 . S
C702 H694 0.950 . S
C702 C703 1.386 . S
C702 C704 1.391 . S
C703 C702 1.386 . S
C703 C707 1.393 1_455 S
C704 H696 0.950 . S
C704 C702 1.391 . S
C704 C705 1.400 . S
C705 C704 1.400 . S
C705 C706 1.398 1_455 S
C705 C711 1.491 . S
C706 H697 0.950 . S
C706 C705 1.398 1_655 S
C706 C707 1.391 . S
C707 H695 0.950 . S
C707 C703 1.393 1_655 S
C707 C706 1.391 . S
C708 H698 0.950 . S
C708 C709 1.386 1_655 S
C708 C710 1.391 . S
C709 C708 1.386 1_455 S
C709 C713 1.393 . S
C710 H699 0.950 . S
C710 C708 1.391 . S
C710 C711 1.400 1_655 S
C711 C705 1.491 . S
C711 C710 1.400 1_455 S
C711 C712 1.398 . S
C712 H700 0.950 . S
C712 C711 1.398 . S
C712 C713 1.391 . S
C713 H701 0.950 . S
C713 C709 1.393 . S
C713 C712 1.391 . S
C363 C12 2.955 . S
C369 C331 2.911 . S
C383 C52 2.946 . S
C389 C258 2.898 . S
C403 C111 3.000 . S
C409 C297 2.946 . S
C423 C31 3.132 . S
C429 C336 3.064 . S
C449 C253 3.070 . S
C443 C71 3.139 . S
C469 C292 3.023 . S
C463 C92 3.079 . S
C483 C48 0.490 . S
C489 C180 0.487 . S
C503 C109 0.537 . S
C509 C214 0.481 . S
C523 C29 0.533 . S
C529 C136 0.403 . S
C549 C175 0.347 . S
C543 C69 0.373 . S
C569 C219 0.299 . S
C563 C88 0.303 . S
C583 C8 0.312 . S
C589 C141 0.301 . S
C609 C199 1.079 1_554 S
C603 C17 1.082 . S
C623 C57 1.071 . S
C629 C121 1.073 . S
C643 C97 1.082 . S
C649 C160 1.085 . S
C669 C277 1.786 . S
C663 C42 1.728 . S
C689 C316 1.783 1_556 S
C683 C82 1.743 . S
C703 C2 1.739 . S
C709 C238 1.787 . S
