# Generated by pormake.
# Topology pyr, (3,6)-cn, num edge types: 1
# Building blocks:
#     Node 0, Type 0, BuildingBlock: ESEHIV_clean_linker_0, # of connection points: 3
#     Node 1, Type 0, BuildingBlock: ESEHIV_clean_linker_0, # of connection points: 3
#     Node 2, Type 0, BuildingBlock: ESEHIV_clean_linker_0, # of connection points: 3
#     Node 3, Type 0, BuildingBlock: ESEHIV_clean_linker_0, # of connection points: 3
#     Node 4, Type 0, BuildingBlock: ESEHIV_clean_linker_0, # of connection points: 3
#     Node 5, Type 0, BuildingBlock: ESEHIV_clean_linker_0, # of connection points: 3
#     Node 6, Type 0, BuildingBlock: ESEHIV_clean_linker_0, # of connection points: 3
#     Node 7, Type 0, BuildingBlock: ESEHIV_clean_linker_0, # of connection points: 3
#     Node 8, Type 1, BuildingBlock: MIFKUJ_clean_sbu_0, # of connection points: 6
#     Node 9, Type 1, BuildingBlock: MIFKUJ_clean_sbu_0, # of connection points: 6
#     Node 10, Type 1, BuildingBlock: MIFKUJ_clean_sbu_0, # of connection points: 6
#     Node 11, Type 1, BuildingBlock: MIFKUJ_clean_sbu_0, # of connection points: 6
#     Edge 12, Type (0, 1), BuildingBlock: ZUJKAS_clean_linker_0, # of connection points: 2
#     Edge 13, Type (0, 1), BuildingBlock: ZUJKAS_clean_linker_0, # of connection points: 2
#     Edge 14, Type (0, 1), BuildingBlock: ZUJKAS_clean_linker_0, # of connection points: 2
#     Edge 15, Type (0, 1), BuildingBlock: ZUJKAS_clean_linker_0, # of connection points: 2
#     Edge 16, Type (0, 1), BuildingBlock: ZUJKAS_clean_linker_0, # of connection points: 2
#     Edge 17, Type (0, 1), BuildingBlock: ZUJKAS_clean_linker_0, # of connection points: 2
#     Edge 18, Type (0, 1), BuildingBlock: ZUJKAS_clean_linker_0, # of connection points: 2
#     Edge 19, Type (0, 1), BuildingBlock: ZUJKAS_clean_linker_0, # of connection points: 2
#     Edge 20, Type (0, 1), BuildingBlock: ZUJKAS_clean_linker_0, # of connection points: 2
#     Edge 21, Type (0, 1), BuildingBlock: ZUJKAS_clean_linker_0, # of connection points: 2
#     Edge 22, Type (0, 1), BuildingBlock: ZUJKAS_clean_linker_0, # of connection points: 2
#     Edge 23, Type (0, 1), BuildingBlock: ZUJKAS_clean_linker_0, # of connection points: 2
#     Edge 24, Type (0, 1), BuildingBlock: ZUJKAS_clean_linker_0, # of connection points: 2
#     Edge 25, Type (0, 1), BuildingBlock: ZUJKAS_clean_linker_0, # of connection points: 2
#     Edge 26, Type (0, 1), BuildingBlock: ZUJKAS_clean_linker_0, # of connection points: 2
#     Edge 27, Type (0, 1), BuildingBlock: ZUJKAS_clean_linker_0, # of connection points: 2
#     Edge 28, Type (0, 1), BuildingBlock: ZUJKAS_clean_linker_0, # of connection points: 2
#     Edge 29, Type (0, 1), BuildingBlock: ZUJKAS_clean_linker_0, # of connection points: 2
#     Edge 30, Type (0, 1), BuildingBlock: ZUJKAS_clean_linker_0, # of connection points: 2
#     Edge 31, Type (0, 1), BuildingBlock: ZUJKAS_clean_linker_0, # of connection points: 2
#     Edge 32, Type (0, 1), BuildingBlock: ZUJKAS_clean_linker_0, # of connection points: 2
#     Edge 33, Type (0, 1), BuildingBlock: ZUJKAS_clean_linker_0, # of connection points: 2
#     Edge 34, Type (0, 1), BuildingBlock: ZUJKAS_clean_linker_0, # of connection points: 2
#     Edge 35, Type (0, 1), BuildingBlock: ZUJKAS_clean_linker_0, # of connection points: 2
# Relax obj value: 0.026
# Max RMSD: 0.079
# Mean RMSD: 0.046
data_MOF--net-pyr--node1-MIFKUJ_clean_sbu_0--node2-ESEHIV_clean_linker_0--edge1-ZUJKAS_clean_linker_0
_symmetry_space_group_name_H-M    P1
_symmetry_Int_Tables_number       1
_symmetry_cell_setting            triclinic
loop_
_symmetry_equiv_pos_as_xyz
'x, y, z'
_cell_length_a     48.793852
_cell_length_b     43.772856
_cell_length_c     47.368739
_cell_angle_alpha  86.235744
_cell_angle_beta   88.648644
_cell_angle_gamma 95.915436
loop_
_atom_site_label
_atom_site_type_symbol
_atom_site_fract_x
_atom_site_fract_y
_atom_site_fract_z
_atom_type_partial_charge
H0 H 0.16914 0.20487 0.23388 0.0
H1 H 0.23072 0.14145 0.23719 0.0
H2 H 0.2293 0.20716 0.16577 0.0
C3 C 0.18693 0.19609 0.22443 0.0
C4 C 0.19795 0.20922 0.19826 0.0
C5 C 0.1985 0.17153 0.23849 0.0
C6 C 0.22188 0.16064 0.22655 0.0
C7 C 0.23329 0.17358 0.20042 0.0
C8 C 0.22129 0.19797 0.18648 0.0
H9 H 0.31535 0.87809 0.7092 0.0
H10 H 0.38089 0.8202 0.70258 0.0
H11 H 0.31809 0.81884 0.6404 0.0
C12 C 0.32525 0.86106 0.69821 0.0
C13 C 0.31392 0.85005 0.67331 0.0
C14 C 0.34922 0.85015 0.7091 0.0
C15 C 0.36199 0.82812 0.69469 0.0
C16 C 0.35109 0.81689 0.66975 0.0
C17 C 0.32705 0.82802 0.6592 0.0
H18 H 0.68639 0.32914 0.8622 0.0
H19 H 0.69473 0.40214 0.79622 0.0
H20 H 0.62632 0.33122 0.79759 0.0
C21 C 0.67892 0.34011 0.84311 0.0
C22 C 0.65455 0.32729 0.83148 0.0
C23 C 0.69376 0.36688 0.83037 0.0
C24 C 0.68357 0.38124 0.80588 0.0
C25 C 0.6591 0.36869 0.79383 0.0
C26 C 0.64497 0.34144 0.80671 0.0
H27 H 0.81178 0.67225 0.33421 0.0
H28 H 0.88112 0.67078 0.27674 0.0
H29 H 0.80991 0.60446 0.27255 0.0
C30 C 0.82166 0.66227 0.31679 0.0
C31 C 0.80787 0.63692 0.30463 0.0
C32 C 0.84816 0.67456 0.30704 0.0
C33 C 0.86052 0.6617 0.28416 0.0
C34 C 0.84692 0.63635 0.27155 0.0
C35 C 0.82068 0.62386 0.28218 0.0
H36 H 0.77276 0.8545 0.77252 0.0
H37 H 0.83341 0.79012 0.77421 0.0
H38 H 0.76728 0.77959 0.83672 0.0
C39 C 0.78014 0.83362 0.78163 0.0
C40 C 0.76701 0.81827 0.80608 0.0
C41 C 0.80398 0.82339 0.76997 0.0
C42 C 0.81456 0.79746 0.78277 0.0
C43 C 0.80167 0.78173 0.80707 0.0
C44 C 0.77759 0.79193 0.81822 0.0
H45 H 0.63187 0.17966 0.30178 0.0
H46 H 0.69641 0.12004 0.29864 0.0
H47 H 0.69303 0.18142 0.36568 0.0
C48 C 0.65038 0.17155 0.31043 0.0
C49 C 0.66083 0.18324 0.33539 0.0
C50 C 0.66311 0.14881 0.29698 0.0
C51 C 0.68655 0.13764 0.30888 0.0
C52 C 0.69741 0.14908 0.33381 0.0
C53 C 0.68437 0.17188 0.3469 0.0
H54 H 0.31787 0.6814 0.15229 0.0
H55 H 0.31096 0.60901 0.21877 0.0
H56 H 0.3817 0.67678 0.2129 0.0
C57 C 0.32641 0.6699 0.1705 0.0
C58 C 0.35163 0.68229 0.18086 0.0
C59 C 0.31166 0.64334 0.1838 0.0
C60 C 0.32225 0.62938 0.20826 0.0
C61 C 0.34735 0.64157 0.21922 0.0
C62 C 0.36192 0.6679 0.20521 0.0
H63 H 0.13888 0.32932 0.72315 0.0
H64 H 0.20635 0.32838 0.66341 0.0
H65 H 0.2119 0.39261 0.72841 0.0
C66 C 0.15951 0.33806 0.71556 0.0
C67 C 0.17397 0.36247 0.72869 0.0
C68 C 0.17105 0.32564 0.69199 0.0
C69 C 0.19741 0.3378 0.68166 0.0
C70 C 0.21226 0.36211 0.69447 0.0
C71 C 0.20037 0.37427 0.71803 0.0
Zn72 Zn 0.03598 0.00659 0.53505 0.0
Zn73 Zn 0.97202 0.98952 0.47628 0.0
C74 C 0.05716 0.06952 0.54311 0.0
O75 O 0.0658 0.06891 0.51671 0.0
C76 C 0.95137 0.92644 0.46587 0.0
O77 O 0.94228 0.92509 0.49229 0.0
O78 O 0.06662 0.98102 0.54608 0.0
O79 O 1.00021 0.9847 0.5508 0.0
O80 O 0.96873 0.97787 0.51806 0.0
C81 C 0.06929 0.97343 0.57216 0.0
O82 O 0.0513 0.98134 0.5907 0.0
O83 O 0.04338 0.04579 0.55512 0.0
C84 C 0.93888 0.0234 0.43969 0.0
O85 O 0.95637 0.01489 0.42096 0.0
O86 O 0.94175 0.01583 0.46575 0.0
O87 O 0.00795 0.01069 0.46044 0.0
O88 O 0.03941 0.01712 0.49318 0.0
O89 O 0.96469 0.95113 0.45519 0.0
C90 C 0.97611 0.97507 0.54356 0.0
C91 C 0.0322 0.01973 0.46763 0.0
Zn92 Zn 0.52419 0.98411 0.98947 0.0
Zn93 Zn 0.48422 0.02029 0.01698 0.0
C94 C 0.48702 0.94824 0.95688 0.0
O95 O 0.4985 0.92667 0.97151 0.0
C96 C 0.52149 0.05465 0.05091 0.0
O97 O 0.51026 0.07699 0.0371 0.0
O98 O 0.55517 0.96269 0.97427 0.0
O99 O 0.53839 0.02913 0.98605 0.0
O100 O 0.49706 0.04351 0.98005 0.0
C101 C 0.5615 0.9691 0.94822 0.0
O102 O 0.5483 0.98942 0.93387 0.0
O103 O 0.49394 0.97624 0.96151 0.0
C104 C 0.44541 0.0332 0.05789 0.0
O105 O 0.45768 0.01181 0.07187 0.0
O106 O 0.45304 0.04113 0.03241 0.0
O107 O 0.47017 0.97521 0.0187 0.0
O108 O 0.51149 0.9623 0.02726 0.0
O109 O 0.51427 0.02702 0.0453 0.0
C110 C 0.52298 0.04844 0.97574 0.0
C111 C 0.48549 0.9566 0.03036 0.0
Zn112 Zn 0.51765 0.47592 0.48563 0.0
Zn113 Zn 0.50176 0.53114 0.51718 0.0
C114 C 0.55221 0.50974 0.4431 0.0
O115 O 0.53272 0.49728 0.42751 0.0
C116 C 0.4663 0.50028 0.5598 0.0
O117 O 0.48377 0.51703 0.57466 0.0
O118 O 0.52432 0.43582 0.46926 0.0
O119 O 0.52104 0.46899 0.52802 0.0
O120 O 0.53666 0.51702 0.53368 0.0
C121 C 0.5475 0.42621 0.47463 0.0
O122 O 0.56416 0.44181 0.49117 0.0
O123 O 0.55003 0.50499 0.46988 0.0
C124 C 0.47142 0.58059 0.52725 0.0
O125 O 0.4554 0.56478 0.51028 0.0
O126 O 0.49451 0.5712 0.53344 0.0
O127 O 0.49802 0.53827 0.47493 0.0
O128 O 0.48282 0.49019 0.46908 0.0
O129 O 0.46998 0.50129 0.53307 0.0
C130 C 0.53558 0.48856 0.54158 0.0
C131 C 0.48325 0.51869 0.46163 0.0
Zn132 Zn 0.98789 0.52305 0.97548 0.0
Zn133 Zn 0.02985 0.48387 0.02483 0.0
C134 C 0.95056 0.48343 0.94696 0.0
O135 O 0.9699 0.49168 0.92738 0.0
C136 C 0.05818 0.52068 0.06466 0.0
O137 O 0.04031 0.5036 0.08173 0.0
O138 O 0.97706 0.56014 0.95334 0.0
O139 O 0.99207 0.53575 0.01563 0.0
O140 O 0.99109 0.48986 0.03763 0.0
C141 C 0.95671 0.57204 0.96363 0.0
O142 O 0.9459 0.56091 0.98833 0.0
O143 O 0.95407 0.49252 0.97175 0.0
C144 C 0.0664 0.44294 0.04296 0.0
O145 O 0.08195 0.46298 0.02607 0.0
O146 O 0.04097 0.44629 0.04617 0.0
O147 O 0.03929 0.47758 0.98423 0.0
O148 O 0.01964 0.5087 0.95402 0.0
O149 O 0.05662 0.51815 0.03812 0.0
C150 C 0.98461 0.51724 0.03682 0.0
C151 C 0.03636 0.48882 0.95923 0.0
H152 H 0.14376 0.15426 0.24773 0.0
H153 H 0.12089 0.12703 0.2899 0.0
H154 H 0.19927 0.12497 0.32977 0.0
H155 H 0.22244 0.15276 0.28759 0.0
H156 H 0.13541 0.06644 0.31475 0.0
H157 H 0.14541 0.16179 0.38759 0.0
H158 H 0.1473 0.1691 0.34957 0.0
H159 H 0.17546 0.15405 0.36751 0.0
C160 C 0.15611 0.14843 0.26562 0.0
C161 C 0.18485 0.15583 0.2645 0.0
C162 C 0.14305 0.13271 0.28957 0.0
C163 C 0.15843 0.12425 0.31286 0.0
C164 C 0.18711 0.13161 0.31199 0.0
H165 H 0.08743 0.03622 0.47334 0.0
H166 H 0.12074 0.0596 0.43674 0.0
C167 C 0.20027 0.14727 0.2879 0.0
C168 C 0.14416 0.10703 0.33766 0.0
H169 H 0.12006 0.11535 0.40457 0.0
C170 C 0.13227 0.07695 0.33453 0.0
C171 C 0.14038 0.12086 0.36337 0.0
C172 C 0.15266 0.15328 0.36742 0.0
C173 C 0.11595 0.06052 0.3563 0.0
C174 C 0.11097 0.0749 0.38152 0.0
C175 C 0.12384 0.10451 0.38511 0.0
C176 C 0.09104 0.06038 0.40359 0.0
C177 C 0.104 0.02802 0.35201 0.0
C178 C 0.06329 0.05355 0.39708 0.0
C179 C 0.04421 0.04026 0.41786 0.0
C180 C 0.0525 0.03383 0.44566 0.0
C181 C 0.08032 0.04099 0.45218 0.0
C182 C 0.09941 0.05427 0.43131 0.0
H183 H 0.1163 0.01734 0.33604 0.0
H184 H 0.10299 0.01338 0.37214 0.0
H185 H 0.08276 0.02839 0.3442 0.0
H186 H 0.05632 0.05877 0.37593 0.0
H187 H 0.02293 0.03527 0.41214 0.0
H188 H 0.35622 0.90969 0.72454 0.0
H189 H 0.37741 0.92855 0.76738 0.0
H190 H 0.3899 0.83562 0.7961 0.0
H191 H 0.36876 0.81661 0.75347 0.0
H192 H 0.36353 0.91396 0.82521 0.0
H193 H 0.46726 0.88157 0.79744 0.0
H194 H 0.44028 0.88288 0.7721 0.0
H195 H 0.44046 0.85025 0.79722 0.0
C196 C 0.36328 0.89326 0.74011 0.0
C197 C 0.36107 0.86168 0.7355 0.0
C198 C 0.37544 0.90408 0.7645 0.0
C199 C 0.38566 0.88354 0.78464 0.0
C200 C 0.38273 0.85194 0.7805 0.0
H201 H 0.46906 0.89066 0.94199 0.0
H202 H 0.4426 0.87671 0.90082 0.0
C203 C 0.37067 0.84112 0.75613 0.0
C204 C 0.39965 0.89503 0.80989 0.0
H205 H 0.46037 0.8962 0.84432 0.0
C206 C 0.38477 0.91032 0.82934 0.0
C207 C 0.4274 0.8904 0.81509 0.0
C208 C 0.4449 0.87565 0.79424 0.0
C209 C 0.39666 0.92015 0.85438 0.0
C210 C 0.42419 0.9148 0.85985 0.0
C211 C 0.43919 0.90005 0.84014 0.0
C212 C 0.43786 0.92365 0.88613 0.0
C213 C 0.37952 0.93534 0.87518 0.0
C214 C 0.44372 0.95472 0.89167 0.0
C215 C 0.45892 0.96283 0.91525 0.0
C216 C 0.4686 0.93997 0.93356 0.0
C217 C 0.46199 0.90886 0.92831 0.0
C218 C 0.44686 0.90082 0.90478 0.0
H219 H 0.35722 0.93212 0.87063 0.0
H220 H 0.38246 0.92602 0.89715 0.0
H221 H 0.38621 0.96041 0.87399 0.0
H222 H 0.43731 0.97271 0.87728 0.0
H223 H 0.46375 0.987 0.91865 0.0
H224 H 0.60526 0.3758 0.7822 0.0
H225 H 0.58698 0.39801 0.73887 0.0
H226 H 0.66958 0.41977 0.70384 0.0
H227 H 0.68804 0.39623 0.74667 0.0
H228 H 0.59429 0.45562 0.71353 0.0
H229 H 0.6325 0.37305 0.64175 0.0
H230 H 0.6329 0.36704 0.67977 0.0
H231 H 0.65904 0.39321 0.66109 0.0
C232 C 0.61959 0.38492 0.76517 0.0
C233 C 0.64815 0.38381 0.76788 0.0
C234 C 0.60908 0.39789 0.74047 0.0
C235 C 0.62683 0.41011 0.71785 0.0
C236 C 0.65541 0.40989 0.72074 0.0
H237 H 0.57019 0.52329 0.57482 0.0
H238 H 0.5936 0.50568 0.61712 0.0
C239 C 0.66596 0.39676 0.74543 0.0
C240 C 0.61523 0.42298 0.69137 0.0
H241 H 0.61117 0.41445 0.62033 0.0
C242 C 0.59804 0.44668 0.69313 0.0
C243 C 0.61982 0.41104 0.66479 0.0
C244 C 0.63685 0.3845 0.66165 0.0
C245 C 0.58525 0.45866 0.66915 0.0
C246 C 0.59025 0.44711 0.64248 0.0
C247 C 0.60753 0.42351 0.6407 0.0
C248 C 0.57668 0.45804 0.61642 0.0
C249 C 0.56577 0.48285 0.6728 0.0
C250 C 0.56003 0.43704 0.6014 0.0
C251 C 0.54689 0.44696 0.57707 0.0
C252 C 0.5501 0.47817 0.56713 0.0
C253 C 0.56709 0.49915 0.58198 0.0
C254 C 0.58037 0.48914 0.60629 0.0
H255 H 0.55876 0.48339 0.69523 0.0
H256 H 0.5765 0.50583 0.66599 0.0
H257 H 0.54737 0.47876 0.65966 0.0
H258 H 0.55693 0.41292 0.60872 0.0
H259 H 0.53404 0.43012 0.56617 0.0
H260 H 0.87414 0.66696 0.22531 0.0
H261 H 0.89656 0.64494 0.1858 0.0
H262 H 0.87273 0.55356 0.22391 0.0
H263 H 0.85002 0.57544 0.26337 0.0
H264 H 0.93916 0.60938 0.18643 0.0
H265 H 0.84665 0.54554 0.14394 0.0
H266 H 0.84434 0.57405 0.1695 0.0
H267 H 0.85173 0.53577 0.18071 0.0
C268 C 0.87369 0.64217 0.22527 0.0
C269 C 0.86024 0.62292 0.2474 0.0
C270 C 0.88642 0.62961 0.20264 0.0
C271 C 0.88596 0.59758 0.20166 0.0
C272 C 0.87274 0.5783 0.22384 0.0
H273 H 0.96364 0.48387 0.08499 0.0
H274 H 0.93995 0.5028 0.12552 0.0
C275 C 0.85984 0.59083 0.24641 0.0
C276 C 0.90014 0.58454 0.17786 0.0
H277 H 0.89003 0.5365 0.12415 0.0
C278 C 0.92839 0.59352 0.17277 0.0
C279 C 0.88606 0.5638 0.16007 0.0
C280 C 0.85547 0.55441 0.1636 0.0
C281 C 0.94297 0.5822 0.15051 0.0
C282 C 0.92888 0.56153 0.13275 0.0
C283 C 0.90074 0.55227 0.13793 0.0
C284 C 0.94294 0.55001 0.10817 0.0
C285 C 0.9734 0.59218 0.14625 0.0
C286 C 0.95211 0.57026 0.08493 0.0
C287 C 0.9655 0.55955 0.06173 0.0
C288 C 0.97002 0.52834 0.06135 0.0
C289 C 0.96058 0.50804 0.08463 0.0
C290 C 0.94701 0.51878 0.10778 0.0
H291 H 0.98231 0.60276 0.16512 0.0
H292 H 0.98478 0.57232 0.1415 0.0
H293 H 0.97663 0.60947 0.12795 0.0
H294 H 0.94882 0.59438 0.08471 0.0
H295 H 0.97241 0.57582 0.04415 0.0
H296 H 0.2395 0.1128 0.19623 0.0
H297 H 0.2769 0.09069 0.17221 0.0
H298 H 0.31617 0.18187 0.14843 0.0
H299 H 0.27911 0.20425 0.17308 0.0
H300 H 0.29249 0.10132 0.11411 0.0
H301 H 0.37819 0.13602 0.18453 0.0
H302 H 0.34237 0.13599 0.19508 0.0
H303 H 0.35885 0.16648 0.17142 0.0
C304 C 0.25635 0.12815 0.18634 0.0
C305 C 0.25651 0.16026 0.18672 0.0
C306 C 0.27756 0.11549 0.17245 0.0
C307 C 0.29935 0.13467 0.15883 0.0
C308 C 0.29968 0.16671 0.15919 0.0
H309 H 0.41603 0.07838 0.03529 0.0
H310 H 0.38054 0.10385 0.05917 0.0
C311 C 0.27843 0.17943 0.17306 0.0
C312 C 0.3212 0.12096 0.14346 0.0
H313 H 0.38987 0.11215 0.14313 0.0
C314 C 0.31381 0.10369 0.12037 0.0
C315 C 0.34887 0.12398 0.15194 0.0
C316 C 0.35764 0.1414 0.17723 0.0
C317 C 0.33343 0.08931 0.10545 0.0
C318 C 0.36117 0.09265 0.1137 0.0
C319 C 0.36857 0.10988 0.13681 0.0
C320 C 0.38266 0.07752 0.09919 0.0
C321 C 0.32426 0.07007 0.08141 0.0
C322 C 0.39582 0.05469 0.11399 0.0
C323 C 0.41609 0.04014 0.10048 0.0
C324 C 0.42365 0.04835 0.07195 0.0
C325 C 0.41054 0.07143 0.05723 0.0
C326 C 0.39023 0.08594 0.07078 0.0
H327 H 0.30152 0.06447 0.08171 0.0
H328 H 0.33063 0.08302 0.06099 0.0
H329 H 0.33407 0.04825 0.08233 0.0
H330 H 0.39026 0.04797 0.13597 0.0
H331 H 0.42586 0.02254 0.11244 0.0
H332 H 0.26742 0.86018 0.70334 0.0
H333 H 0.22544 0.8793 0.68511 0.0
H334 H 0.26008 0.88434 0.60014 0.0
H335 H 0.30228 0.86551 0.6182 0.0
H336 H 0.22077 0.9354 0.65401 0.0
H337 H 0.18413 0.83562 0.59318 0.0
H338 H 0.21008 0.83354 0.6196 0.0
H339 H 0.21904 0.85157 0.58498 0.0
C340 C 0.26619 0.8655 0.68078 0.0
C341 C 0.28822 0.8613 0.66222 0.0
C342 C 0.24212 0.87625 0.67039 0.0
C343 C 0.2395 0.88281 0.64125 0.0
C344 C 0.26144 0.87876 0.62265 0.0
H345 H 0.11273 0.95822 0.54007 0.0
H346 H 0.15389 0.93587 0.5568 0.0
C347 C 0.28554 0.86802 0.63301 0.0
C348 C 0.21419 0.89497 0.6305 0.0
H349 H 0.15987 0.87977 0.58756 0.0
C350 C 0.20738 0.92319 0.63958 0.0
C351 C 0.19686 0.87904 0.61157 0.0
C352 C 0.20268 0.84813 0.6019 0.0
C353 C 0.18387 0.93614 0.62996 0.0
C354 C 0.16641 0.92012 0.61119 0.0
C355 C 0.17328 0.89197 0.60198 0.0
C356 C 0.14088 0.93227 0.60098 0.0
C357 C 0.17825 0.96718 0.63953 0.0
C358 C 0.11963 0.93692 0.6202 0.0
C359 C 0.09614 0.94973 0.61074 0.0
C360 C 0.09334 0.95792 0.58182 0.0
C361 C 0.11427 0.95226 0.56249 0.0
C362 C 0.1378 0.93949 0.572 0.0
H363 H 0.19704 0.97987 0.64761 0.0
H364 H 0.17036 0.98157 0.62197 0.0
H365 H 0.16239 0.9639 0.65694 0.0
H366 H 0.12133 0.93087 0.64258 0.0
H367 H 0.08033 0.95353 0.62618 0.0
H368 H 0.73621 0.33531 0.84843 0.0
H369 H 0.77839 0.35529 0.87071 0.0
H370 H 0.75269 0.44678 0.86319 0.0
H371 H 0.71048 0.42688 0.84043 0.0
H372 H 0.806 0.44728 0.84811 0.0
H373 H 0.78669 0.37977 0.9508 0.0
H374 H 0.78575 0.35568 0.92157 0.0
H375 H 0.76043 0.38251 0.92483 0.0
C376 C 0.73945 0.35966 0.85169 0.0
C377 C 0.71989 0.37949 0.84288 0.0
C378 C 0.76352 0.37104 0.86459 0.0
C379 C 0.76844 0.40242 0.86934 0.0
C380 C 0.74924 0.42242 0.85999 0.0
H381 H 0.90029 0.47923 0.97523 0.0
H382 H 0.85539 0.45985 0.95744 0.0
C383 C 0.7252 0.41107 0.84687 0.0
C384 C 0.79404 0.41444 0.88318 0.0
H385 H 0.8327 0.40379 0.94163 0.0
C386 C 0.8117 0.43792 0.86866 0.0
C387 C 0.80133 0.40266 0.91025 0.0
C388 C 0.78241 0.379 0.9279 0.0
C389 C 0.8368 0.44923 0.87998 0.0
C390 C 0.84485 0.43616 0.90627 0.0
C391 C 0.82677 0.41344 0.92128 0.0
C392 C 0.8721 0.44562 0.91823 0.0
C393 C 0.85432 0.47531 0.86374 0.0
C394 C 0.89646 0.44292 0.90268 0.0
C395 C 0.92201 0.45406 0.9127 0.0
C396 C 0.92384 0.46773 0.93873 0.0
C397 C 0.89958 0.46879 0.95512 0.0
C398 C 0.87391 0.45783 0.94493 0.0
H399 H 0.84181 0.48866 0.84909 0.0
H400 H 0.86488 0.49129 0.87825 0.0
H401 H 0.87024 0.46575 0.85082 0.0
H402 H 0.89567 0.43273 0.88245 0.0
H403 H 0.94032 0.45257 0.89969 0.0
H404 H 0.76307 0.66763 0.31402 0.0
H405 H 0.71877 0.64697 0.33657 0.0
H406 H 0.74671 0.55651 0.34467 0.0
H407 H 0.79076 0.57699 0.32124 0.0
H408 H 0.69466 0.55318 0.32911 0.0
H409 H 0.70637 0.62648 0.4199 0.0
H410 H 0.70779 0.64865 0.38661 0.0
H411 H 0.73414 0.62376 0.39469 0.0
C412 C 0.75965 0.64331 0.32053 0.0
C413 C 0.78033 0.6239 0.31611 0.0
C414 C 0.73445 0.63158 0.33359 0.0
C415 C 0.72969 0.60036 0.34305 0.0
C416 C 0.75 0.58073 0.33776 0.0
H417 H 0.60264 0.52199 0.46628 0.0
H418 H 0.64555 0.54418 0.44177 0.0
C419 C 0.77509 0.59238 0.32431 0.0
C420 C 0.70358 0.58816 0.35845 0.0
H421 H 0.66232 0.59859 0.41553 0.0
C422 C 0.68763 0.56303 0.34807 0.0
C423 C 0.69466 0.60066 0.3835 0.0
C424 C 0.71178 0.62615 0.39701 0.0
C425 C 0.66286 0.55031 0.3618 0.0
C426 C 0.6533 0.56374 0.38609 0.0
C427 C 0.66944 0.58859 0.39669 0.0
C428 C 0.62695 0.55186 0.4012 0.0
C429 C 0.64761 0.52212 0.3505 0.0
C430 C 0.60209 0.54969 0.3868 0.0
C431 C 0.57764 0.53668 0.40065 0.0
C432 C 0.57749 0.52622 0.42936 0.0
C433 C 0.60212 0.52987 0.44415 0.0
C434 C 0.62665 0.54248 0.43016 0.0
H435 H 0.66149 0.50953 0.33764 0.0
H436 H 0.63803 0.50607 0.36794 0.0
H437 H 0.63107 0.52927 0.33663 0.0
H438 H 0.60162 0.5577 0.36471 0.0
H439 H 0.55891 0.53453 0.38879 0.0
H440 H 0.14262 0.21181 0.19252 0.0
H441 H 0.11973 0.25131 0.16624 0.0
H442 H 0.19873 0.30026 0.14142 0.0
H443 H 0.22193 0.26117 0.16824 0.0
H444 H 0.1263 0.31795 0.17337 0.0
H445 H 0.15679 0.28634 0.06605 0.0
H446 H 0.15746 0.26036 0.09722 0.0
H447 H 0.18409 0.29167 0.09069 0.0
C448 C 0.15516 0.23117 0.1818 0.0
C449 C 0.18412 0.23342 0.18253 0.0
C450 C 0.14203 0.25357 0.16666 0.0
C451 C 0.1576 0.2784 0.15176 0.0
C452 C 0.18645 0.28093 0.15253 0.0
H453 H 0.12072 0.4339 0.04427 0.0
H454 H 0.14176 0.39363 0.07135 0.0
C455 C 0.19963 0.2586 0.16778 0.0
C456 C 0.14355 0.30181 0.13557 0.0
H457 H 0.13362 0.33098 0.06852 0.0
C458 C 0.12776 0.32081 0.15044 0.0
C459 C 0.14561 0.30528 0.10573 0.0
C460 C 0.16171 0.28473 0.08885 0.0
C461 C 0.11439 0.34387 0.13619 0.0
C462 C 0.11643 0.34737 0.10628 0.0
C463 C 0.13209 0.32815 0.09144 0.0
C464 C 0.10324 0.37151 0.08996 0.0
C465 C 0.0989 0.3648 0.15329 0.0
C466 C 0.07454 0.37214 0.0912 0.0
C467 C 0.0624 0.39529 0.07583 0.0
C468 C 0.0788 0.41792 0.05877 0.0
C469 C 0.10749 0.41682 0.05722 0.0
C470 C 0.11957 0.39382 0.07267 0.0
H471 H 0.10515 0.36415 0.17571 0.0
H472 H 0.10233 0.38896 0.14417 0.0
H473 H 0.07651 0.35722 0.15304 0.0
H474 H 0.06153 0.3547 0.10395 0.0
H475 H 0.04023 0.39544 0.07731 0.0
H476 H 0.63582 0.27425 0.80747 0.0
H477 H 0.61208 0.22711 0.83121 0.0
H478 H 0.61424 0.27014 0.91065 0.0
H479 H 0.63879 0.31684 0.88713 0.0
H480 H 0.62917 0.21463 0.91781 0.0
H481 H 0.5334 0.20776 0.85716 0.0
H482 H 0.56361 0.20859 0.83471 0.0
H483 H 0.55825 0.24138 0.85444 0.0
C484 C 0.63095 0.27367 0.82994 0.0
C485 C 0.63909 0.29916 0.84548 0.0
C486 C 0.61724 0.24681 0.84347 0.0
C487 C 0.61086 0.24519 0.87267 0.0
C488 C 0.61884 0.27079 0.88812 0.0
H489 H 0.4992 0.10157 0.96364 0.0
H490 H 0.52057 0.14936 0.939 0.0
C491 C 0.63289 0.29745 0.87469 0.0
C492 C 0.59706 0.21645 0.88748 0.0
H493 H 0.54081 0.16315 0.88658 0.0
C494 C 0.60975 0.2035 0.91105 0.0
C495 C 0.57151 0.20209 0.87898 0.0
C496 C 0.55575 0.21584 0.85513 0.0
C497 C 0.59785 0.17652 0.92612 0.0
C498 C 0.57297 0.16136 0.91682 0.0
C499 C 0.56005 0.17452 0.8935 0.0
C500 C 0.55987 0.13208 0.93122 0.0
C501 C 0.61179 0.16502 0.95228 0.0
C502 C 0.57463 0.10624 0.93459 0.0
C503 C 0.5626 0.07909 0.949 0.0
C504 C 0.53533 0.07697 0.9598 0.0
C505 C 0.52025 0.10249 0.95558 0.0
C506 C 0.53244 0.12981 0.94149 0.0
H507 H 0.62516 0.18382 0.96133 0.0
H508 H 0.59647 0.15479 0.96885 0.0
H509 H 0.62508 0.14711 0.94661 0.0
H510 H 0.59551 0.10706 0.9261 0.0
H511 H 0.57464 0.05968 0.95155 0.0
H512 H 0.85093 0.68132 0.3638 0.0
H513 H 0.87287 0.72488 0.38748 0.0
H514 H 0.90192 0.76909 0.30671 0.0
H515 H 0.87909 0.72594 0.28267 0.0
H516 H 0.92774 0.7494 0.38723 0.0
H517 H 0.86105 0.8349 0.34209 0.0
H518 H 0.85288 0.79399 0.33993 0.0
H519 H 0.87891 0.81487 0.31664 0.0
C520 C 0.86174 0.70044 0.35101 0.0
C521 C 0.86293 0.70037 0.32132 0.0
C522 C 0.87447 0.72519 0.3646 0.0
C523 C 0.88865 0.75041 0.34883 0.0
C524 C 0.89064 0.75009 0.31923 0.0
H525 H 0.96246 0.92386 0.40922 0.0
H526 H 0.95008 0.88094 0.37979 0.0
C527 C 0.87783 0.72529 0.30557 0.0
C528 C 0.90095 0.77705 0.36364 0.0
H529 H 0.89574 0.85306 0.37243 0.0
C530 C 0.92086 0.77211 0.3839 0.0
C531 C 0.89193 0.80665 0.35922 0.0
C532 C 0.86987 0.81302 0.33848 0.0
C533 C 0.93179 0.79592 0.4001 0.0
C534 C 0.92228 0.82528 0.39615 0.0
C535 C 0.90295 0.83047 0.37537 0.0
C536 C 0.93112 0.85058 0.41425 0.0
C537 C 0.9534 0.78949 0.42132 0.0
C538 C 0.92444 0.84771 0.44334 0.0
C539 C 0.93138 0.87219 0.46022 0.0
C540 C 0.94509 0.90003 0.44827 0.0
C541 C 0.95199 0.9027 0.41912 0.0
C542 C 0.94492 0.87824 0.40225 0.0
H543 H 0.96367 0.76884 0.41654 0.0
H544 H 0.96932 0.80948 0.42182 0.0
H545 H 0.94346 0.78518 0.44272 0.0
H546 H 0.91333 0.82672 0.4529 0.0
H547 H 0.9257 0.8694 0.48255 0.0
H548 H 0.36072 0.81465 0.61274 0.0
H549 H 0.38266 0.7754 0.58843 0.0
H550 H 0.39491 0.72733 0.66879 0.0
H551 H 0.37243 0.76599 0.69321 0.0
H552 H 0.43672 0.75639 0.59515 0.0
H553 H 0.35396 0.66124 0.6222 0.0
H554 H 0.34899 0.70118 0.62544 0.0
H555 H 0.36741 0.68094 0.65183 0.0
C556 C 0.36785 0.79556 0.62521 0.0
C557 C 0.3647 0.79335 0.6549 0.0
C558 C 0.38056 0.77331 0.61131 0.0
C559 C 0.39014 0.74834 0.6268 0.0
C560 C 0.38735 0.74624 0.65643 0.0
H561 H 0.49681 0.61591 0.56692 0.0
H562 H 0.47833 0.65781 0.59073 0.0
C563 C 0.37471 0.76849 0.67035 0.0
C564 C 0.40292 0.72436 0.61195 0.0
H565 H 0.39445 0.64807 0.59961 0.0
C566 C 0.42753 0.73269 0.59608 0.0
C567 C 0.39069 0.69357 0.61304 0.0
C568 C 0.36368 0.68362 0.62883 0.0
C569 C 0.44039 0.7109 0.58142 0.0
C570 C 0.4284 0.67999 0.58294 0.0
C571 C 0.4037 0.67175 0.59866 0.0
C572 C 0.44053 0.6559 0.56761 0.0
C573 C 0.46635 0.7212 0.56397 0.0
C574 C 0.42534 0.64085 0.54689 0.0
C575 C 0.43576 0.61693 0.53336 0.0
C576 C 0.46155 0.6074 0.54039 0.0
C577 C 0.47695 0.6228 0.56091 0.0
C578 C 0.46647 0.64682 0.57446 0.0
H579 H 0.46947 0.74663 0.55997 0.0
H580 H 0.48435 0.71382 0.57549 0.0
H581 H 0.46582 0.71053 0.54333 0.0
H582 H 0.40526 0.64747 0.54134 0.0
H583 H 0.42333 0.6056 0.51767 0.0
H584 H 0.85901 0.84127 0.76462 0.0
H585 H 0.88447 0.86784 0.72361 0.0
H586 H 0.80862 0.87132 0.67907 0.0
H587 H 0.78288 0.84477 0.72032 0.0
H588 H 0.88677 0.84678 0.66964 0.0
H589 H 0.8448 0.96034 0.66852 0.0
H590 H 0.84061 0.93282 0.69882 0.0
H591 H 0.81968 0.92729 0.66853 0.0
C592 C 0.84775 0.84769 0.74608 0.0
C593 C 0.81901 0.84079 0.74551 0.0
C594 C 0.86229 0.86295 0.72275 0.0
C595 C 0.8484 0.8717 0.69843 0.0
C596 C 0.81964 0.86522 0.69785 0.0
H597 H 0.92085 0.95853 0.53828 0.0
H598 H 0.88828 0.93259 0.57447 0.0
C599 C 0.805 0.85002 0.72133 0.0
C600 C 0.86447 0.88638 0.67343 0.0
H601 H 0.87674 0.95334 0.63184 0.0
C602 C 0.88451 0.87003 0.6613 0.0
C603 C 0.86131 0.91664 0.66256 0.0
C604 C 0.8406 0.93549 0.67534 0.0
C605 C 0.90185 0.88335 0.63886 0.0
C606 C 0.89921 0.91387 0.62852 0.0
C607 C 0.87863 0.92993 0.63997 0.0
C608 C 0.91865 0.92993 0.6068 0.0
C609 C 0.92303 0.86481 0.62648 0.0
C610 C 0.94632 0.93727 0.61328 0.0
C611 C 0.96495 0.95209 0.59278 0.0
C612 C 0.9562 0.95981 0.56539 0.0
C613 C 0.92831 0.9527 0.5591 0.0
C614 C 0.90965 0.93799 0.57972 0.0
H615 H 0.91823 0.83977 0.6322 0.0
H616 H 0.92436 0.86863 0.60305 0.0
H617 H 0.94355 0.87227 0.63476 0.0
H618 H 0.9535 0.93149 0.63424 0.0
H619 H 0.98625 0.95728 0.59837 0.0
H620 H 0.65552 0.08885 0.28285 0.0
H621 H 0.6361 0.06931 0.23945 0.0
H622 H 0.62509 0.16194 0.20841 0.0
H623 H 0.64503 0.18168 0.25132 0.0
H624 H 0.58328 0.0763 0.21927 0.0
H625 H 0.66434 0.12806 0.14149 0.0
H626 H 0.66981 0.12478 0.1791 0.0
H627 H 0.65167 0.15532 0.16393 0.0
C628 C 0.64934 0.10508 0.26658 0.0
C629 C 0.65186 0.13683 0.27049 0.0
C630 C 0.63814 0.09387 0.24189 0.0
C631 C 0.62954 0.11422 0.22055 0.0
C632 C 0.63208 0.14589 0.22437 0.0
H633 H 0.54041 0.1112 0.06776 0.0
H634 H 0.5683 0.12286 0.10856 0.0
C635 C 0.64318 0.1571 0.24905 0.0
C636 C 0.61659 0.10235 0.1949 0.0
H637 H 0.62145 0.10871 0.12268 0.0
C638 C 0.59178 0.083 0.19814 0.0
C639 C 0.62777 0.11117 0.1674 0.0
C640 C 0.655 0.13074 0.16269 0.0
C641 C 0.57718 0.07333 0.17455 0.0
C642 C 0.588 0.08283 0.14702 0.0
C643 C 0.6132 0.10149 0.1438 0.0
C644 C 0.57259 0.07528 0.12134 0.0
C645 C 0.54973 0.05416 0.17928 0.0
C646 C 0.5663 0.04464 0.1146 0.0
C647 C 0.55026 0.03784 0.09125 0.0
C648 C 0.54036 0.06162 0.07421 0.0
C649 C 0.54756 0.09231 0.0805 0.0
C650 C 0.56355 0.09905 0.1038 0.0
H651 H 0.5417 0.05431 0.20141 0.0
H652 H 0.53422 0.06264 0.16475 0.0
H653 H 0.55213 0.02997 0.1749 0.0
H654 H 0.57351 0.02598 0.12757 0.0
H655 H 0.5452 0.01397 0.08689 0.0
H656 H 0.34876 0.5799 0.23373 0.0
H657 H 0.36854 0.55624 0.27584 0.0
H658 H 0.39226 0.64626 0.30477 0.0
H659 H 0.37181 0.67 0.26335 0.0
H660 H 0.42269 0.56362 0.29262 0.0
H661 H 0.35351 0.60144 0.37484 0.0
H662 H 0.34555 0.60322 0.33778 0.0
H663 H 0.36909 0.63265 0.35146 0.0
C664 C 0.35776 0.59464 0.2493 0.0
C665 C 0.35862 0.62688 0.24515 0.0
C666 C 0.36922 0.58108 0.27326 0.0
C667 C 0.38155 0.59944 0.29369 0.0
C668 C 0.3824 0.63158 0.28962 0.0
H669 H 0.47703 0.57787 0.44275 0.0
H670 H 0.45166 0.59536 0.40193 0.0
C671 C 0.37098 0.64514 0.26571 0.0
C672 C 0.39458 0.58519 0.31866 0.0
H673 H 0.39486 0.5821 0.39094 0.0
C674 C 0.41641 0.56734 0.31413 0.0
C675 C 0.38637 0.59005 0.34674 0.0
C676 C 0.36217 0.60763 0.35307 0.0
C677 C 0.43088 0.5552 0.33686 0.0
C678 C 0.42306 0.56068 0.36488 0.0
C679 C 0.4009 0.57801 0.36944 0.0
C680 C 0.43822 0.54959 0.38973 0.0
C681 C 0.45505 0.53753 0.33066 0.0
C682 C 0.43885 0.51798 0.39666 0.0
C683 C 0.45335 0.50784 0.42006 0.0
C684 C 0.46748 0.52915 0.437 0.0
C685 C 0.46653 0.56079 0.43012 0.0
C686 C 0.45197 0.57087 0.40682 0.0
H687 H 0.46204 0.54098 0.30807 0.0
H688 H 0.47267 0.54456 0.34406 0.0
H689 H 0.44893 0.51259 0.33554 0.0
H690 H 0.428 0.50114 0.38405 0.0
H691 H 0.45357 0.48333 0.4248 0.0
H692 H 0.17459 0.42338 0.73891 0.0
H693 H 0.15286 0.44552 0.77876 0.0
H694 H 0.1225 0.35446 0.81344 0.0
H695 H 0.14439 0.33206 0.7738 0.0
H696 H 0.08235 0.39596 0.81098 0.0
H697 H 0.17704 0.44518 0.8614 0.0
H698 H 0.17509 0.45639 0.82439 0.0
H699 H 0.17758 0.41675 0.8355 0.0
C700 C 0.16365 0.40803 0.75524 0.0
C701 C 0.1613 0.37594 0.75322 0.0
C702 C 0.15124 0.42073 0.77798 0.0
C703 C 0.13637 0.40161 0.79921 0.0
C704 C 0.13394 0.3696 0.79728 0.0
H705 H 0.07575 0.44858 0.96246 0.0
H706 H 0.09999 0.42803 0.92338 0.0
C707 C 0.14635 0.35687 0.77456 0.0
C708 C 0.12252 0.415 0.82293 0.0
H709 H 0.13442 0.45895 0.87922 0.0
C710 C 0.09371 0.40969 0.82594 0.0
C711 C 0.13746 0.43263 0.84255 0.0
C712 C 0.16852 0.43791 0.84106 0.0
C713 C 0.07937 0.42189 0.84788 0.0
C714 C 0.09424 0.44021 0.86704 0.0
C715 C 0.12308 0.44517 0.86428 0.0
C716 C 0.08022 0.45374 0.89056 0.0
C717 C 0.04847 0.41461 0.85066 0.0
C718 C 0.06147 0.47547 0.88503 0.0
C719 C 0.04754 0.48731 0.90732 0.0
C720 C 0.0522 0.47768 0.93558 0.0
C721 C 0.07155 0.45644 0.94099 0.0
C722 C 0.08547 0.44468 0.91869 0.0
H723 H 0.04106 0.39463 0.83857 0.0
H724 H 0.04175 0.40959 0.87319 0.0
H725 H 0.03848 0.43483 0.84227 0.0
H726 H 0.05748 0.48314 0.86345 0.0
H727 H 0.03287 0.50369 0.90236 0.0
H728 H 0.75806 0.82183 0.86285 0.0
H729 H 0.72122 0.84486 0.88651 0.0
H730 H 0.68779 0.8693 0.80561 0.0
H731 H 0.72385 0.84475 0.78171 0.0
H732 H 0.71166 0.90446 0.88137 0.0
H733 H 0.61948 0.83087 0.84982 0.0
H734 H 0.65404 0.82033 0.84532 0.0
H735 H 0.64102 0.84769 0.82043 0.0
C736 C 0.74248 0.83133 0.85005 0.0
C737 C 0.74377 0.83115 0.82035 0.0
C738 C 0.72158 0.84476 0.86363 0.0
C739 C 0.70158 0.85843 0.84786 0.0
C740 C 0.70269 0.8583 0.81823 0.0
H741 H 0.57447 0.97223 0.89173 0.0
H742 H 0.60865 0.94514 0.8677 0.0
C743 C 0.72351 0.84461 0.80458 0.0
C744 C 0.6806 0.87431 0.86249 0.0
H745 H 0.61128 0.87624 0.87242 0.0
C746 C 0.68971 0.89816 0.87955 0.0
C747 C 0.65199 0.86602 0.86005 0.0
C748 C 0.641 0.83964 0.84314 0.0
C749 C 0.67097 0.9142 0.89399 0.0
C750 C 0.64245 0.90606 0.89134 0.0
C751 C 0.63325 0.88233 0.87427 0.0
C752 C 0.62184 0.92218 0.90605 0.0
C753 C 0.6817 0.94004 0.91166 0.0
C754 C 0.61798 0.91798 0.93552 0.0
C755 C 0.59841 0.93331 0.94935 0.0
C756 C 0.58251 0.95314 0.93386 0.0
C757 C 0.58649 0.95723 0.90429 0.0
C758 C 0.60591 0.94174 0.89049 0.0
H759 H 0.70413 0.94675 0.9078 0.0
H760 H 0.67049 0.96056 0.90712 0.0
H761 H 0.67813 0.93261 0.93441 0.0
H762 H 0.63003 0.90274 0.94778 0.0
H763 H 0.59577 0.92964 0.97213 0.0
H764 H 0.74432 0.13689 0.30562 0.0
H765 H 0.78526 0.11708 0.32568 0.0
H766 H 0.74892 0.11656 0.4096 0.0
H767 H 0.70749 0.13533 0.38966 0.0
H768 H 0.82128 0.14297 0.36464 0.0
H769 H 0.77069 0.02908 0.40685 0.0
H770 H 0.75449 0.05381 0.38179 0.0
H771 H 0.75491 0.0615 0.4186 0.0
C772 C 0.74486 0.13216 0.32832 0.0
C773 C 0.72251 0.13746 0.34601 0.0
C774 C 0.76836 0.12108 0.33976 0.0
C775 C 0.76997 0.11495 0.36908 0.0
C776 C 0.74791 0.12062 0.38686 0.0
H777 H 0.89659 0.04044 0.4723 0.0
H778 H 0.85628 0.06488 0.45611 0.0
C779 C 0.72437 0.13167 0.37545 0.0
C780 C 0.79491 0.10294 0.381 0.0
H781 H 0.81728 0.04132 0.41831 0.0
C782 C 0.82043 0.12074 0.37636 0.0
C783 C 0.79371 0.07397 0.39635 0.0
C784 C 0.76704 0.0533 0.40104 0.0
C785 C 0.84481 0.1104 0.38679 0.0
C786 C 0.84364 0.08129 0.40187 0.0
C787 C 0.81808 0.06367 0.40681 0.0
C788 C 0.86881 0.06813 0.41181 0.0
C789 C 0.87154 0.13086 0.38184 0.0
C790 C 0.88917 0.06181 0.39226 0.0
C791 C 0.91219 0.04786 0.40141 0.0
C792 C 0.91524 0.0398 0.43032 0.0
C793 C 0.89493 0.04644 0.4499 0.0
C794 C 0.87186 0.06035 0.4407 0.0
H795 H 0.86795 0.1553 0.37709 0.0
H796 H 0.88476 0.1294 0.40054 0.0
H797 H 0.88293 0.12329 0.36344 0.0
H798 H 0.88696 0.06705 0.36981 0.0
H799 H 0.92737 0.04296 0.38574 0.0
H800 H 0.26339 0.62065 0.21242 0.0
H801 H 0.21978 0.60081 0.19231 0.0
H802 H 0.25622 0.61829 0.10825 0.0
H803 H 0.29999 0.63712 0.12812 0.0
H804 H 0.1867 0.63122 0.15472 0.0
H805 H 0.2228 0.52919 0.10769 0.0
H806 H 0.24229 0.55025 0.1334 0.0
H807 H 0.24336 0.56459 0.09688 0.0
C808 C 0.26224 0.61981 0.18968 0.0
C809 C 0.28524 0.63043 0.17191 0.0
C810 C 0.23724 0.60869 0.17821 0.0
C811 C 0.23482 0.60772 0.14879 0.0
C812 C 0.25771 0.61831 0.13102 0.0
H813 H 0.10401 0.55017 0.03612 0.0
H814 H 0.14603 0.57378 0.05657 0.0
C815 C 0.28266 0.6294 0.14243 0.0
C816 C 0.20821 0.59635 0.13653 0.0
H817 H 0.17872 0.54253 0.09432 0.0
C818 C 0.18489 0.61172 0.14165 0.0
C819 C 0.2059 0.57094 0.11941 0.0
C820 C 0.22984 0.55258 0.1142 0.0
C821 C 0.15946 0.60275 0.12966 0.0
C822 C 0.15722 0.57747 0.1124 0.0
C823 C 0.18052 0.56206 0.10737 0.0
C824 C 0.13076 0.56596 0.09996 0.0
C825 C 0.13536 0.62078 0.13509 0.0
C826 C 0.1081 0.55404 0.11754 0.0
C827 C 0.08405 0.54057 0.10593 0.0
C828 C 0.08221 0.5386 0.07649 0.0
C829 C 0.10465 0.55142 0.05886 0.0
C830 C 0.12874 0.56482 0.07052 0.0
H831 H 0.14216 0.64397 0.14218 0.0
H832 H 0.12311 0.62349 0.11578 0.0
H833 H 0.12169 0.60821 0.152 0.0
H834 H 0.10934 0.55416 0.14033 0.0
H835 H 0.06723 0.53084 0.12015 0.0
H836 H 0.25381 0.33085 0.67458 0.0
H837 H 0.29777 0.35245 0.65218 0.0
H838 H 0.27777 0.44407 0.66619 0.0
H839 H 0.23315 0.42274 0.68744 0.0
H840 H 0.29662 0.43951 0.61248 0.0
H841 H 0.36685 0.38867 0.68844 0.0
H842 H 0.34262 0.36058 0.67409 0.0
H843 H 0.33043 0.38867 0.69604 0.0
C844 C 0.2587 0.35562 0.67283 0.0
C845 C 0.2399 0.37507 0.68277 0.0
C846 C 0.28402 0.3679 0.66034 0.0
C847 C 0.29123 0.39984 0.65788 0.0
C848 C 0.27268 0.41932 0.66804 0.0
H849 H 0.4506 0.49854 0.61553 0.0
H850 H 0.40826 0.47302 0.63837 0.0
C851 C 0.24728 0.40708 0.6804 0.0
C852 C 0.31755 0.41307 0.64353 0.0
H853 H 0.38743 0.41284 0.64554 0.0
C854 C 0.31649 0.43375 0.61974 0.0
C855 C 0.34345 0.40571 0.65319 0.0
C856 C 0.34601 0.38493 0.6795 0.0
C857 C 0.34061 0.44722 0.60527 0.0
C858 C 0.36648 0.4392 0.61444 0.0
C859 C 0.36755 0.41863 0.63832 0.0
C860 C 0.39274 0.45319 0.60048 0.0
C861 C 0.33817 0.47054 0.58077 0.0
C862 C 0.3984 0.44995 0.57168 0.0
C863 C 0.42258 0.46474 0.55844 0.0
C864 C 0.44163 0.48273 0.57389 0.0
C865 C 0.43634 0.48495 0.60296 0.0
C866 C 0.41214 0.47034 0.6161 0.0
H867 H 0.31781 0.47982 0.58108 0.0
H868 H 0.35459 0.49006 0.58104 0.0
H869 H 0.34038 0.45936 0.56061 0.0
H870 H 0.384 0.43622 0.55938 0.0
H871 H 0.42616 0.46237 0.53608 0.0
H872 H 0.82741 0.7358 0.7841 0.0
H873 H 0.85368 0.69819 0.80908 0.0
H874 H 0.83177 0.73269 0.8888 0.0
H875 H 0.80639 0.77106 0.86415 0.0
H876 H 0.89917 0.71923 0.85091 0.0
H877 H 0.81408 0.6336 0.89498 0.0
H878 H 0.81069 0.65792 0.86316 0.0
H879 H 0.80971 0.67377 0.89708 0.0
C880 C 0.82814 0.73537 0.80695 0.0
C881 C 0.81482 0.75649 0.82211 0.0
C882 C 0.84301 0.7138 0.82114 0.0
C883 C 0.84445 0.71275 0.85067 0.0
C884 C 0.83056 0.73306 0.86597 0.0
H885 H 0.91834 0.6077 0.98209 0.0
H886 H 0.89272 0.64288 0.95355 0.0
C887 C 0.81592 0.7548 0.85183 0.0
C888 C 0.86183 0.69175 0.86559 0.0
H889 H 0.85885 0.62784 0.91106 0.0
C890 C 0.8905 0.69906 0.86391 0.0
C891 C 0.85022 0.66578 0.88258 0.0
C892 C 0.81949 0.65701 0.88458 0.0
C893 C 0.90799 0.68139 0.87956 0.0
C894 C 0.89639 0.65537 0.89671 0.0
C895 C 0.86767 0.64785 0.89795 0.0
C896 C 0.91351 0.63583 0.91399 0.0
C897 C 0.93856 0.6914 0.87835 0.0
C898 C 0.9339 0.62048 0.90123 0.0
C899 C 0.94883 0.60065 0.91756 0.0
C900 C 0.94324 0.59547 0.94683 0.0
C901 C 0.92309 0.61121 0.95959 0.0
C902 C 0.90839 0.63125 0.94331 0.0
H903 H 0.94311 0.716 0.87075 0.0
H904 H 0.94764 0.68795 0.89945 0.0
H905 H 0.94886 0.67743 0.8634 0.0
H906 H 0.93774 0.62316 0.87855 0.0
H907 H 0.96402 0.58857 0.90709 0.0
H908 H 0.3802 0.73113 0.20464 0.0
H909 H 0.40503 0.77714 0.18033 0.0
H910 H 0.38212 0.74353 0.09972 0.0
H911 H 0.35844 0.69678 0.12374 0.0
H912 H 0.43557 0.76724 0.09895 0.0
H913 H 0.36985 0.8491 0.14423 0.0
H914 H 0.38562 0.82577 0.17047 0.0
H915 H 0.36075 0.808 0.14753 0.0
C916 C 0.38068 0.73332 0.18173 0.0
C917 C 0.3671 0.71027 0.16619 0.0
C918 C 0.3946 0.75987 0.16787 0.0
C919 C 0.39497 0.76411 0.13821 0.0
C920 C 0.38192 0.7409 0.12263 0.0
H921 H 0.43105 0.93449 0.03515 0.0
H922 H 0.41037 0.88754 0.06133 0.0
C923 C 0.36816 0.71429 0.13643 0.0
C924 C 0.409 0.79261 0.12329 0.0
H925 H 0.40937 0.87084 0.11714 0.0
C926 C 0.42985 0.78991 0.10292 0.0
C927 C 0.40128 0.82215 0.1282 0.0
C928 C 0.37798 0.82652 0.14859 0.0
C929 C 0.44321 0.81589 0.08738 0.0
C930 C 0.43597 0.8455 0.09282 0.0
C931 C 0.4151 0.84818 0.11316 0.0
C932 C 0.44896 0.87392 0.07689 0.0
C933 C 0.46435 0.81126 0.06471 0.0
C934 C 0.47755 0.88211 0.07711 0.0
C935 C 0.48951 0.90889 0.06191 0.0
C936 C 0.47304 0.9282 0.04653 0.0
C937 C 0.44437 0.92015 0.04673 0.0
C938 C 0.43248 0.89331 0.06174 0.0
H939 H 0.46209 0.78729 0.05804 0.0
H940 H 0.46269 0.82726 0.04579 0.0
H941 H 0.4853 0.81588 0.0731 0.0
H942 H 0.49062 0.86792 0.08919 0.0
H943 H 0.51163 0.91455 0.0624 0.0
H944 H 0.16632 0.31941 0.63522 0.0
H945 H 0.14371 0.2758 0.61199 0.0
H946 H 0.11816 0.23059 0.69336 0.0
H947 H 0.14112 0.27404 0.71689 0.0
H948 H 0.15705 0.21366 0.62124 0.0
H949 H 0.04679 0.22502 0.64664 0.0
H950 H 0.07357 0.25648 0.64864 0.0
H951 H 0.06966 0.22573 0.67588 0.0
C952 C 0.15591 0.30019 0.64821 0.0
C953 C 0.15566 0.30009 0.67792 0.0
C954 C 0.14287 0.2754 0.63489 0.0
C955 C 0.12911 0.25015 0.65096 0.0
C956 C 0.1283 0.25014 0.68059 0.0
H957 H 0.04914 0.07569 0.59984 0.0
H958 H 0.06603 0.11934 0.62676 0.0
C959 C 0.14141 0.27495 0.69398 0.0
C960 C 0.11714 0.22311 0.63659 0.0
H961 H 0.05646 0.18161 0.62244 0.0
C962 C 0.13506 0.20664 0.62146 0.0
C963 C 0.08848 0.21392 0.63721 0.0
C964 C 0.06838 0.23126 0.65278 0.0
C965 C 0.12511 0.18117 0.60684 0.0
C966 C 0.09637 0.17241 0.60681 0.0
C967 C 0.07845 0.18853 0.62238 0.0
C968 C 0.08465 0.14684 0.59033 0.0
C969 C 0.14551 0.16362 0.59188 0.0
C970 C 0.08889 0.14824 0.56086 0.0
C971 C 0.07941 0.12336 0.54546 0.0
C972 C 0.06525 0.0967 0.55921 0.0
C973 C 0.06005 0.09585 0.58862 0.0
C974 C 0.06967 0.12075 0.60404 0.0
H975 H 0.16647 0.16771 0.60046 0.0
H976 H 0.13896 0.13849 0.59379 0.0
H977 H 0.14684 0.1714 0.56907 0.0
H978 H 0.09986 0.16847 0.5498 0.0
H979 H 0.08352 0.12489 0.52281 0.0
H980 H 0.65059 0.18749 0.39206 0.0
H981 H 0.62888 0.22786 0.41481 0.0
H982 H 0.61809 0.27372 0.33307 0.0
H983 H 0.64052 0.23397 0.31019 0.0
H984 H 0.6401 0.31307 0.37197 0.0
H985 H 0.54712 0.2415 0.4175 0.0
H986 H 0.57896 0.22675 0.42678 0.0
H987 H 0.56906 0.22863 0.39043 0.0
C988 C 0.6437 0.20624 0.37893 0.0
C989 C 0.64723 0.20746 0.34929 0.0
C990 C 0.63099 0.22908 0.39194 0.0
C991 C 0.62144 0.2535 0.3756 0.0
C992 C 0.62507 0.25491 0.34605 0.0
H993 H 0.52002 0.39064 0.43645 0.0
H994 H 0.53716 0.34856 0.41172 0.0
C995 C 0.63776 0.23208 0.33301 0.0
C996 C 0.60873 0.27828 0.38937 0.0
H997 H 0.55566 0.29205 0.43353 0.0
C998 C 0.62155 0.3085 0.3853 0.0
C999 C 0.58432 0.27234 0.40644 0.0
C1000 C 0.56887 0.24061 0.41038 0.0
C1001 C 0.61105 0.33283 0.39845 0.0
C1002 C 0.58732 0.32667 0.41647 0.0
C1003 C 0.57402 0.29662 0.41993 0.0
C1004 C 0.57637 0.35112 0.43228 0.0
C1005 C 0.62536 0.36497 0.39281 0.0
C1006 C 0.59248 0.36593 0.45248 0.0
C1007 C 0.58279 0.38986 0.46662 0.0
C1008 C 0.5567 0.3994 0.46093 0.0
C1009 C 0.54022 0.38389 0.44127 0.0
C1010 C 0.54997 0.35987 0.42713 0.0
H1011 H 0.63849 0.3671 0.37314 0.0
H1012 H 0.61018 0.38218 0.39093 0.0
H1013 H 0.63882 0.37061 0.4107 0.0
H1014 H 0.6127 0.35911 0.45716 0.0
H1015 H 0.59596 0.40113 0.48175 0.0
loop_
_geom_bond_atom_site_label_1
_geom_bond_atom_site_label_2
_geom_bond_distance
_geom_bond_site_symmetry_2
_ccdc_geom_bond_type
H0 C3 0.931 . S
H1 C6 0.928 . S
H2 C8 0.930 . S
C3 H0 0.931 . S
C3 C4 1.413 . S
C3 C5 1.360 . S
C4 C3 1.413 . S
C4 C8 1.429 . S
C5 C3 1.360 . S
C5 C6 1.372 . S
C6 H1 0.928 . S
C6 C5 1.372 . S
C6 C7 1.404 . S
C7 C6 1.404 . S
C7 C8 1.391 . S
C8 H2 0.930 . S
C8 C4 1.429 . S
C8 C7 1.391 . S
H9 C12 0.931 . S
H10 C15 0.928 . S
H11 C17 0.930 . S
C12 H9 0.931 . S
C12 C13 1.413 . S
C12 C14 1.360 . S
C13 C12 1.413 . S
C13 C17 1.429 . S
C14 C12 1.360 . S
C14 C15 1.372 . S
C15 H10 0.928 . S
C15 C14 1.372 . S
C15 C16 1.404 . S
C16 C15 1.404 . S
C16 C17 1.391 . S
C17 H11 0.930 . S
C17 C13 1.429 . S
C17 C16 1.391 . S
H18 C21 0.931 . S
H19 C24 0.928 . S
H20 C26 0.930 . S
C21 H18 0.931 . S
C21 C22 1.413 . S
C21 C23 1.360 . S
C22 C21 1.413 . S
C22 C26 1.429 . S
C23 C21 1.360 . S
C23 C24 1.372 . S
C24 H19 0.928 . S
C24 C23 1.372 . S
C24 C25 1.404 . S
C25 C24 1.404 . S
C25 C26 1.391 . S
C26 H20 0.930 . S
C26 C22 1.429 . S
C26 C25 1.391 . S
H27 C30 0.931 . S
H28 C33 0.928 . S
H29 C35 0.930 . S
C30 H27 0.931 . S
C30 C31 1.413 . S
C30 C32 1.360 . S
C31 C30 1.413 . S
C31 C35 1.429 . S
C32 C30 1.360 . S
C32 C33 1.372 . S
C33 H28 0.928 . S
C33 C32 1.372 . S
C33 C34 1.404 . S
C34 C33 1.404 . S
C34 C35 1.391 . S
C35 H29 0.930 . S
C35 C31 1.429 . S
C35 C34 1.391 . S
H36 C39 0.931 . S
H37 C42 0.928 . S
H38 C44 0.930 . S
C39 H36 0.931 . S
C39 C40 1.413 . S
C39 C41 1.360 . S
C40 C39 1.413 . S
C40 C44 1.429 . S
C41 C39 1.360 . S
C41 C42 1.372 . S
C42 H37 0.928 . S
C42 C41 1.372 . S
C42 C43 1.404 . S
C43 C42 1.404 . S
C43 C44 1.391 . S
C44 H38 0.930 . S
C44 C40 1.429 . S
C44 C43 1.391 . S
H45 C48 0.931 . S
H46 C51 0.928 . S
H47 C53 0.930 . S
C48 H45 0.931 . S
C48 C49 1.413 . S
C48 C50 1.360 . S
C49 C48 1.413 . S
C49 C53 1.429 . S
C50 C48 1.360 . S
C50 C51 1.372 . S
C51 H46 0.928 . S
C51 C50 1.372 . S
C51 C52 1.404 . S
C52 C51 1.404 . S
C52 C53 1.391 . S
C53 H47 0.930 . S
C53 C49 1.429 . S
C53 C52 1.391 . S
H54 C57 0.931 . S
H55 C60 0.928 . S
H56 C62 0.930 . S
C57 H54 0.931 . S
C57 C58 1.413 . S
C57 C59 1.360 . S
C58 C57 1.413 . S
C58 C62 1.429 . S
C59 C57 1.360 . S
C59 C60 1.372 . S
C60 H55 0.928 . S
C60 C59 1.372 . S
C60 C61 1.404 . S
C61 C60 1.404 . S
C61 C62 1.391 . S
C62 H56 0.930 . S
C62 C58 1.429 . S
C62 C61 1.391 . S
H63 C66 0.931 . S
H64 C69 0.928 . S
H65 C71 0.930 . S
C66 H63 0.931 . S
C66 C67 1.413 . S
C66 C68 1.360 . S
C67 C66 1.413 . S
C67 C71 1.429 . S
C68 C66 1.360 . S
C68 C69 1.372 . S
C69 H64 0.928 . S
C69 C68 1.372 . S
C69 C70 1.404 . S
C70 C69 1.404 . S
C70 C71 1.391 . S
C71 H65 0.930 . S
C71 C67 1.429 . S
C71 C70 1.391 . S
Zn72 O78 1.969 1_545 S
Zn72 O79 1.965 1_545 S
Zn72 O83 2.024 . S
Zn72 O88 1.969 . S
Zn73 O80 1.969 . S
Zn73 O86 1.969 1_565 S
Zn73 O87 1.965 1_665 S
Zn73 O89 2.024 . S
C74 O75 1.229 . S
C74 O83 1.058 . S
O75 C74 1.229 . S
C76 O77 1.229 . S
C76 O89 1.058 . S
O77 C76 1.229 . S
O78 Zn72 1.969 1_565 S
O78 C81 1.267 . S
O79 Zn72 1.965 1_565 S
O79 C90 1.260 1_455 S
O80 Zn73 1.969 . S
O80 C90 1.258 . S
C81 O78 1.267 . S
C81 O82 1.228 . S
O82 C81 1.228 . S
O83 Zn72 2.024 . S
O83 C74 1.058 . S
C84 O85 1.228 . S
C84 O86 1.267 . S
O85 C84 1.228 . S
O86 Zn73 1.969 1_545 S
O86 C84 1.267 . S
O87 Zn73 1.965 1_445 S
O87 C91 1.260 . S
O88 Zn72 1.969 . S
O88 C91 1.258 . S
O89 Zn73 2.024 . S
O89 C76 1.058 . S
C90 O79 1.260 1_655 S
C90 O80 1.258 . S
C91 O87 1.260 . S
C91 O88 1.258 . S
Zn92 O98 1.969 . S
Zn92 O99 1.965 1_565 S
Zn92 O103 2.024 . S
Zn92 O108 1.960 1_556 S
Zn93 O100 1.969 . S
Zn93 O106 1.969 . S
Zn93 O107 1.965 1_545 S
Zn93 O109 2.024 . S
C94 O95 1.229 . S
C94 O103 1.058 . S
O95 C94 1.229 . S
C96 O97 1.229 . S
C96 O109 1.058 . S
O97 C96 1.229 . S
O98 Zn92 1.969 . S
O98 C101 1.267 . S
O99 Zn92 1.965 1_545 S
O99 C110 1.260 . S
O100 Zn93 1.969 . S
O100 C110 1.258 1_554 S
C101 O98 1.267 . S
C101 O102 1.228 . S
O102 C101 1.228 . S
O103 Zn92 2.024 . S
O103 C94 1.058 . S
C104 O105 1.228 . S
C104 O106 1.267 . S
O105 C104 1.228 . S
O106 Zn93 1.969 . S
O106 C104 1.267 . S
O107 Zn93 1.965 1_565 S
O107 C111 1.260 . S
O108 Zn92 1.960 1_554 S
O108 C111 1.268 . S
O109 Zn93 2.024 . S
O109 C96 1.058 . S
C110 O99 1.260 . S
C110 O100 1.258 1_556 S
C111 O107 1.260 . S
C111 O108 1.268 . S
Zn112 O118 1.969 . S
Zn112 O119 1.965 . S
Zn112 O123 2.024 . S
Zn112 O128 1.969 . S
Zn113 O120 1.969 . S
Zn113 O126 1.969 . S
Zn113 O127 1.965 . S
Zn113 O129 2.024 . S
C114 O115 1.229 . S
C114 O123 1.058 . S
O115 C114 1.229 . S
C116 O117 1.229 . S
C116 O129 1.058 . S
O117 C116 1.229 . S
O118 Zn112 1.969 . S
O118 C121 1.267 . S
O119 Zn112 1.965 . S
O119 C130 1.260 . S
O120 Zn113 1.969 . S
O120 C130 1.258 . S
C121 O118 1.267 . S
C121 O122 1.228 . S
O122 C121 1.228 . S
O123 Zn112 2.024 . S
O123 C114 1.058 . S
C124 O125 1.228 . S
C124 O126 1.267 . S
O125 C124 1.228 . S
O126 Zn113 1.969 . S
O126 C124 1.267 . S
O127 Zn113 1.965 . S
O127 C131 1.260 . S
O128 Zn112 1.969 . S
O128 C131 1.258 . S
O129 Zn113 2.024 . S
O129 C116 1.058 . S
C130 O119 1.260 . S
C130 O120 1.258 . S
C131 O127 1.260 . S
C131 O128 1.258 . S
Zn132 O138 1.969 . S
Zn132 O139 1.965 1_556 S
Zn132 O143 2.024 . S
Zn132 O148 1.969 1_655 S
Zn133 O140 1.969 . S
Zn133 O146 1.969 . S
Zn133 O147 1.965 1_554 S
Zn133 O149 2.024 . S
C134 O135 1.229 . S
C134 O143 1.058 . S
O135 C134 1.229 . S
C136 O137 1.229 . S
C136 O149 1.058 . S
O137 C136 1.229 . S
O138 Zn132 1.969 . S
O138 C141 1.267 . S
O139 Zn132 1.965 1_554 S
O139 C150 1.260 . S
O140 Zn133 1.969 . S
O140 C150 1.258 1_455 S
C141 O138 1.267 . S
C141 O142 1.228 . S
O142 C141 1.228 . S
O143 Zn132 2.024 . S
O143 C134 1.058 . S
C144 O145 1.228 . S
C144 O146 1.267 . S
O145 C144 1.228 . S
O146 Zn133 1.969 . S
O146 C144 1.267 . S
O147 Zn133 1.965 1_556 S
O147 C151 1.260 . S
O148 Zn132 1.969 1_455 S
O148 C151 1.258 . S
O149 Zn133 2.024 . S
O149 C136 1.058 . S
C150 O139 1.260 . S
C150 O140 1.258 1_655 S
C151 O147 1.260 . S
C151 O148 1.258 . S
H152 C160 0.929 . S
H153 C162 0.930 . S
H154 C164 0.930 . S
H155 C167 0.929 . S
H156 C170 0.930 . S
H157 C172 0.960 . S
H158 C172 0.960 . S
H159 C172 0.960 . S
C160 H152 0.929 . S
C160 C161 1.377 . S
C160 C162 1.384 . S
C161 C160 1.377 . S
C161 C167 1.390 . S
C162 H153 0.930 . S
C162 C160 1.384 . S
C162 C163 1.372 . S
C163 C162 1.372 . S
C163 C164 1.400 . S
C163 C168 1.490 . S
C164 H154 0.930 . S
C164 C163 1.400 . S
C164 C167 1.386 . S
H165 C181 0.930 . S
H166 C182 0.931 . S
C167 H155 0.929 . S
C167 C161 1.390 . S
C167 C164 1.386 . S
C168 C163 1.490 . S
C168 C170 1.395 . S
C168 C171 1.403 . S
H169 C175 0.930 . S
C170 H156 0.930 . S
C170 C168 1.395 . S
C170 C173 1.403 . S
C171 C168 1.403 . S
C171 C172 1.524 . S
C171 C175 1.400 . S
C172 H157 0.960 . S
C172 H158 0.960 . S
C172 H159 0.960 . S
C172 C171 1.524 . S
C173 C170 1.403 . S
C173 C174 1.392 . S
C173 C177 1.495 . S
C174 C173 1.392 . S
C174 C175 1.385 . S
C174 C176 1.478 . S
C175 H169 0.930 . S
C175 C171 1.400 . S
C175 C174 1.385 . S
C176 C174 1.478 . S
C176 C178 1.381 . S
C176 C182 1.383 . S
C177 C173 1.495 . S
C177 H183 0.959 . S
C177 H184 0.961 . S
C177 H185 0.960 . S
C178 C176 1.381 . S
C178 C179 1.394 . S
C178 H186 0.930 . S
C179 C178 1.394 . S
C179 C180 1.383 . S
C179 H187 0.929 . S
C180 C179 1.383 . S
C180 C181 1.377 . S
C181 H165 0.930 . S
C181 C180 1.377 . S
C181 C182 1.379 . S
C182 H166 0.931 . S
C182 C176 1.383 . S
C182 C181 1.379 . S
H183 C177 0.959 . S
H184 C177 0.961 . S
H185 C177 0.960 . S
H186 C178 0.930 . S
H187 C179 0.929 . S
H188 C196 0.929 . S
H189 C198 0.930 . S
H190 C200 0.930 . S
H191 C203 0.929 . S
H192 C206 0.930 . S
H193 C208 0.960 . S
H194 C208 0.960 . S
H195 C208 0.960 . S
C196 H188 0.929 . S
C196 C197 1.377 . S
C196 C198 1.384 . S
C197 C196 1.377 . S
C197 C203 1.390 . S
C198 H189 0.930 . S
C198 C196 1.384 . S
C198 C199 1.372 . S
C199 C198 1.372 . S
C199 C200 1.400 . S
C199 C204 1.490 . S
C200 H190 0.930 . S
C200 C199 1.400 . S
C200 C203 1.386 . S
H201 C217 0.930 . S
H202 C218 0.931 . S
C203 H191 0.929 . S
C203 C197 1.390 . S
C203 C200 1.386 . S
C204 C199 1.490 . S
C204 C206 1.395 . S
C204 C207 1.403 . S
H205 C211 0.930 . S
C206 H192 0.930 . S
C206 C204 1.395 . S
C206 C209 1.403 . S
C207 C204 1.403 . S
C207 C208 1.524 . S
C207 C211 1.400 . S
C208 H193 0.960 . S
C208 H194 0.960 . S
C208 H195 0.960 . S
C208 C207 1.524 . S
C209 C206 1.403 . S
C209 C210 1.392 . S
C209 C213 1.495 . S
C210 C209 1.392 . S
C210 C211 1.385 . S
C210 C212 1.478 . S
C211 H205 0.930 . S
C211 C207 1.400 . S
C211 C210 1.385 . S
C212 C210 1.478 . S
C212 C214 1.381 . S
C212 C218 1.383 . S
C213 C209 1.495 . S
C213 H219 0.959 . S
C213 H220 0.961 . S
C213 H221 0.960 . S
C214 C212 1.381 . S
C214 C215 1.394 . S
C214 H222 0.930 . S
C215 C214 1.394 . S
C215 C216 1.383 . S
C215 H223 0.929 . S
C216 C215 1.383 . S
C216 C217 1.377 . S
C217 H201 0.930 . S
C217 C216 1.377 . S
C217 C218 1.379 . S
C218 H202 0.931 . S
C218 C212 1.383 . S
C218 C217 1.379 . S
H219 C213 0.959 . S
H220 C213 0.961 . S
H221 C213 0.960 . S
H222 C214 0.930 . S
H223 C215 0.929 . S
H224 C232 0.929 . S
H225 C234 0.930 . S
H226 C236 0.930 . S
H227 C239 0.929 . S
H228 C242 0.930 . S
H229 C244 0.960 . S
H230 C244 0.960 . S
H231 C244 0.960 . S
C232 H224 0.929 . S
C232 C233 1.377 . S
C232 C234 1.384 . S
C233 C232 1.377 . S
C233 C239 1.390 . S
C234 H225 0.930 . S
C234 C232 1.384 . S
C234 C235 1.372 . S
C235 C234 1.372 . S
C235 C236 1.400 . S
C235 C240 1.490 . S
C236 H226 0.930 . S
C236 C235 1.400 . S
C236 C239 1.386 . S
H237 C253 0.930 . S
H238 C254 0.931 . S
C239 H227 0.929 . S
C239 C233 1.390 . S
C239 C236 1.386 . S
C240 C235 1.490 . S
C240 C242 1.395 . S
C240 C243 1.403 . S
H241 C247 0.930 . S
C242 H228 0.930 . S
C242 C240 1.395 . S
C242 C245 1.403 . S
C243 C240 1.403 . S
C243 C244 1.524 . S
C243 C247 1.400 . S
C244 H229 0.960 . S
C244 H230 0.960 . S
C244 H231 0.960 . S
C244 C243 1.524 . S
C245 C242 1.403 . S
C245 C246 1.392 . S
C245 C249 1.495 . S
C246 C245 1.392 . S
C246 C247 1.385 . S
C246 C248 1.478 . S
C247 H241 0.930 . S
C247 C243 1.400 . S
C247 C246 1.385 . S
C248 C246 1.478 . S
C248 C250 1.381 . S
C248 C254 1.383 . S
C249 C245 1.495 . S
C249 H255 0.959 . S
C249 H256 0.961 . S
C249 H257 0.960 . S
C250 C248 1.381 . S
C250 C251 1.394 . S
C250 H258 0.930 . S
C251 C250 1.394 . S
C251 C252 1.383 . S
C251 H259 0.929 . S
C252 C251 1.383 . S
C252 C253 1.377 . S
C253 H237 0.930 . S
C253 C252 1.377 . S
C253 C254 1.379 . S
C254 H238 0.931 . S
C254 C248 1.383 . S
C254 C253 1.379 . S
H255 C249 0.959 . S
H256 C249 0.961 . S
H257 C249 0.960 . S
H258 C250 0.930 . S
H259 C251 0.929 . S
H260 C268 0.929 . S
H261 C270 0.930 . S
H262 C272 0.930 . S
H263 C275 0.929 . S
H264 C278 0.930 . S
H265 C280 0.960 . S
H266 C280 0.960 . S
H267 C280 0.960 . S
C268 H260 0.929 . S
C268 C269 1.377 . S
C268 C270 1.384 . S
C269 C268 1.377 . S
C269 C275 1.390 . S
C270 H261 0.930 . S
C270 C268 1.384 . S
C270 C271 1.372 . S
C271 C270 1.372 . S
C271 C272 1.400 . S
C271 C276 1.490 . S
C272 H262 0.930 . S
C272 C271 1.400 . S
C272 C275 1.386 . S
H273 C289 0.930 . S
H274 C290 0.931 . S
C275 H263 0.929 . S
C275 C269 1.390 . S
C275 C272 1.386 . S
C276 C271 1.490 . S
C276 C278 1.395 . S
C276 C279 1.403 . S
H277 C283 0.930 . S
C278 H264 0.930 . S
C278 C276 1.395 . S
C278 C281 1.403 . S
C279 C276 1.403 . S
C279 C280 1.524 . S
C279 C283 1.400 . S
C280 H265 0.960 . S
C280 H266 0.960 . S
C280 H267 0.960 . S
C280 C279 1.524 . S
C281 C278 1.403 . S
C281 C282 1.392 . S
C281 C285 1.495 . S
C282 C281 1.392 . S
C282 C283 1.385 . S
C282 C284 1.478 . S
C283 H277 0.930 . S
C283 C279 1.400 . S
C283 C282 1.385 . S
C284 C282 1.478 . S
C284 C286 1.381 . S
C284 C290 1.383 . S
C285 C281 1.495 . S
C285 H291 0.959 . S
C285 H292 0.961 . S
C285 H293 0.960 . S
C286 C284 1.381 . S
C286 C287 1.394 . S
C286 H294 0.930 . S
C287 C286 1.394 . S
C287 C288 1.383 . S
C287 H295 0.929 . S
C288 C287 1.383 . S
C288 C289 1.377 . S
C289 H273 0.930 . S
C289 C288 1.377 . S
C289 C290 1.379 . S
C290 H274 0.931 . S
C290 C284 1.383 . S
C290 C289 1.379 . S
H291 C285 0.959 . S
H292 C285 0.961 . S
H293 C285 0.960 . S
H294 C286 0.930 . S
H295 C287 0.929 . S
H296 C304 0.929 . S
H297 C306 0.930 . S
H298 C308 0.930 . S
H299 C311 0.929 . S
H300 C314 0.930 . S
H301 C316 0.960 . S
H302 C316 0.960 . S
H303 C316 0.960 . S
C304 H296 0.929 . S
C304 C305 1.377 . S
C304 C306 1.384 . S
C305 C304 1.377 . S
C305 C311 1.390 . S
C306 H297 0.930 . S
C306 C304 1.384 . S
C306 C307 1.372 . S
C307 C306 1.372 . S
C307 C308 1.400 . S
C307 C312 1.490 . S
C308 H298 0.930 . S
C308 C307 1.400 . S
C308 C311 1.386 . S
H309 C325 0.930 . S
H310 C326 0.931 . S
C311 H299 0.929 . S
C311 C305 1.390 . S
C311 C308 1.386 . S
C312 C307 1.490 . S
C312 C314 1.395 . S
C312 C315 1.403 . S
H313 C319 0.930 . S
C314 H300 0.930 . S
C314 C312 1.395 . S
C314 C317 1.403 . S
C315 C312 1.403 . S
C315 C316 1.524 . S
C315 C319 1.400 . S
C316 H301 0.960 . S
C316 H302 0.960 . S
C316 H303 0.960 . S
C316 C315 1.524 . S
C317 C314 1.403 . S
C317 C318 1.392 . S
C317 C321 1.495 . S
C318 C317 1.392 . S
C318 C319 1.385 . S
C318 C320 1.478 . S
C319 H313 0.930 . S
C319 C315 1.400 . S
C319 C318 1.385 . S
C320 C318 1.478 . S
C320 C322 1.381 . S
C320 C326 1.383 . S
C321 C317 1.495 . S
C321 H327 0.959 . S
C321 H328 0.961 . S
C321 H329 0.960 . S
C322 C320 1.381 . S
C322 C323 1.394 . S
C322 H330 0.930 . S
C323 C322 1.394 . S
C323 C324 1.383 . S
C323 H331 0.929 . S
C324 C323 1.383 . S
C324 C325 1.377 . S
C325 H309 0.930 . S
C325 C324 1.377 . S
C325 C326 1.379 . S
C326 H310 0.931 . S
C326 C320 1.383 . S
C326 C325 1.379 . S
H327 C321 0.959 . S
H328 C321 0.961 . S
H329 C321 0.960 . S
H330 C322 0.930 . S
H331 C323 0.929 . S
H332 C340 0.929 . S
H333 C342 0.930 . S
H334 C344 0.930 . S
H335 C347 0.929 . S
H336 C350 0.930 . S
H337 C352 0.960 . S
H338 C352 0.960 . S
H339 C352 0.960 . S
C340 H332 0.929 . S
C340 C341 1.377 . S
C340 C342 1.384 . S
C341 C340 1.377 . S
C341 C347 1.390 . S
C342 H333 0.930 . S
C342 C340 1.384 . S
C342 C343 1.372 . S
C343 C342 1.372 . S
C343 C344 1.400 . S
C343 C348 1.490 . S
C344 H334 0.930 . S
C344 C343 1.400 . S
C344 C347 1.386 . S
H345 C361 0.930 . S
H346 C362 0.931 . S
C347 H335 0.929 . S
C347 C341 1.390 . S
C347 C344 1.386 . S
C348 C343 1.490 . S
C348 C350 1.395 . S
C348 C351 1.403 . S
H349 C355 0.930 . S
C350 H336 0.930 . S
C350 C348 1.395 . S
C350 C353 1.403 . S
C351 C348 1.403 . S
C351 C352 1.524 . S
C351 C355 1.400 . S
C352 H337 0.960 . S
C352 H338 0.960 . S
C352 H339 0.960 . S
C352 C351 1.524 . S
C353 C350 1.403 . S
C353 C354 1.392 . S
C353 C357 1.495 . S
C354 C353 1.392 . S
C354 C355 1.385 . S
C354 C356 1.478 . S
C355 H349 0.930 . S
C355 C351 1.400 . S
C355 C354 1.385 . S
C356 C354 1.478 . S
C356 C358 1.381 . S
C356 C362 1.383 . S
C357 C353 1.495 . S
C357 H363 0.959 . S
C357 H364 0.961 . S
C357 H365 0.960 . S
C358 C356 1.381 . S
C358 C359 1.394 . S
C358 H366 0.930 . S
C359 C358 1.394 . S
C359 C360 1.383 . S
C359 H367 0.929 . S
C360 C359 1.383 . S
C360 C361 1.377 . S
C361 H345 0.930 . S
C361 C360 1.377 . S
C361 C362 1.379 . S
C362 H346 0.931 . S
C362 C356 1.383 . S
C362 C361 1.379 . S
H363 C357 0.959 . S
H364 C357 0.961 . S
H365 C357 0.960 . S
H366 C358 0.930 . S
H367 C359 0.929 . S
H368 C376 0.929 . S
H369 C378 0.930 . S
H370 C380 0.930 . S
H371 C383 0.929 . S
H372 C386 0.930 . S
H373 C388 0.960 . S
H374 C388 0.960 . S
H375 C388 0.960 . S
C376 H368 0.929 . S
C376 C377 1.377 . S
C376 C378 1.384 . S
C377 C376 1.377 . S
C377 C383 1.390 . S
C378 H369 0.930 . S
C378 C376 1.384 . S
C378 C379 1.372 . S
C379 C378 1.372 . S
C379 C380 1.400 . S
C379 C384 1.490 . S
C380 H370 0.930 . S
C380 C379 1.400 . S
C380 C383 1.386 . S
H381 C397 0.930 . S
H382 C398 0.931 . S
C383 H371 0.929 . S
C383 C377 1.390 . S
C383 C380 1.386 . S
C384 C379 1.490 . S
C384 C386 1.395 . S
C384 C387 1.403 . S
H385 C391 0.930 . S
C386 H372 0.930 . S
C386 C384 1.395 . S
C386 C389 1.403 . S
C387 C384 1.403 . S
C387 C388 1.524 . S
C387 C391 1.400 . S
C388 H373 0.960 . S
C388 H374 0.960 . S
C388 H375 0.960 . S
C388 C387 1.524 . S
C389 C386 1.403 . S
C389 C390 1.392 . S
C389 C393 1.495 . S
C390 C389 1.392 . S
C390 C391 1.385 . S
C390 C392 1.478 . S
C391 H385 0.930 . S
C391 C387 1.400 . S
C391 C390 1.385 . S
C392 C390 1.478 . S
C392 C394 1.381 . S
C392 C398 1.383 . S
C393 C389 1.495 . S
C393 H399 0.959 . S
C393 H400 0.961 . S
C393 H401 0.960 . S
C394 C392 1.381 . S
C394 C395 1.394 . S
C394 H402 0.930 . S
C395 C394 1.394 . S
C395 C396 1.383 . S
C395 H403 0.929 . S
C396 C395 1.383 . S
C396 C397 1.377 . S
C397 H381 0.930 . S
C397 C396 1.377 . S
C397 C398 1.379 . S
C398 H382 0.931 . S
C398 C392 1.383 . S
C398 C397 1.379 . S
H399 C393 0.959 . S
H400 C393 0.961 . S
H401 C393 0.960 . S
H402 C394 0.930 . S
H403 C395 0.929 . S
H404 C412 0.929 . S
H405 C414 0.930 . S
H406 C416 0.930 . S
H407 C419 0.929 . S
H408 C422 0.930 . S
H409 C424 0.960 . S
H410 C424 0.960 . S
H411 C424 0.960 . S
C412 H404 0.929 . S
C412 C413 1.377 . S
C412 C414 1.384 . S
C413 C412 1.377 . S
C413 C419 1.390 . S
C414 H405 0.930 . S
C414 C412 1.384 . S
C414 C415 1.372 . S
C415 C414 1.372 . S
C415 C416 1.400 . S
C415 C420 1.490 . S
C416 H406 0.930 . S
C416 C415 1.400 . S
C416 C419 1.386 . S
H417 C433 0.930 . S
H418 C434 0.931 . S
C419 H407 0.929 . S
C419 C413 1.390 . S
C419 C416 1.386 . S
C420 C415 1.490 . S
C420 C422 1.395 . S
C420 C423 1.403 . S
H421 C427 0.930 . S
C422 H408 0.930 . S
C422 C420 1.395 . S
C422 C425 1.403 . S
C423 C420 1.403 . S
C423 C424 1.524 . S
C423 C427 1.400 . S
C424 H409 0.960 . S
C424 H410 0.960 . S
C424 H411 0.960 . S
C424 C423 1.524 . S
C425 C422 1.403 . S
C425 C426 1.392 . S
C425 C429 1.495 . S
C426 C425 1.392 . S
C426 C427 1.385 . S
C426 C428 1.478 . S
C427 H421 0.930 . S
C427 C423 1.400 . S
C427 C426 1.385 . S
C428 C426 1.478 . S
C428 C430 1.381 . S
C428 C434 1.383 . S
C429 C425 1.495 . S
C429 H435 0.959 . S
C429 H436 0.961 . S
C429 H437 0.960 . S
C430 C428 1.381 . S
C430 C431 1.394 . S
C430 H438 0.930 . S
C431 C430 1.394 . S
C431 C432 1.383 . S
C431 H439 0.929 . S
C432 C431 1.383 . S
C432 C433 1.377 . S
C433 H417 0.930 . S
C433 C432 1.377 . S
C433 C434 1.379 . S
C434 H418 0.931 . S
C434 C428 1.383 . S
C434 C433 1.379 . S
H435 C429 0.959 . S
H436 C429 0.961 . S
H437 C429 0.960 . S
H438 C430 0.930 . S
H439 C431 0.929 . S
H440 C448 0.929 . S
H441 C450 0.930 . S
H442 C452 0.930 . S
H443 C455 0.929 . S
H444 C458 0.930 . S
H445 C460 0.960 . S
H446 C460 0.960 . S
H447 C460 0.960 . S
C448 H440 0.929 . S
C448 C449 1.377 . S
C448 C450 1.384 . S
C449 C448 1.377 . S
C449 C455 1.390 . S
C450 H441 0.930 . S
C450 C448 1.384 . S
C450 C451 1.372 . S
C451 C450 1.372 . S
C451 C452 1.400 . S
C451 C456 1.490 . S
C452 H442 0.930 . S
C452 C451 1.400 . S
C452 C455 1.386 . S
H453 C469 0.930 . S
H454 C470 0.931 . S
C455 H443 0.929 . S
C455 C449 1.390 . S
C455 C452 1.386 . S
C456 C451 1.490 . S
C456 C458 1.395 . S
C456 C459 1.403 . S
H457 C463 0.930 . S
C458 H444 0.930 . S
C458 C456 1.395 . S
C458 C461 1.403 . S
C459 C456 1.403 . S
C459 C460 1.524 . S
C459 C463 1.400 . S
C460 H445 0.960 . S
C460 H446 0.960 . S
C460 H447 0.960 . S
C460 C459 1.524 . S
C461 C458 1.403 . S
C461 C462 1.392 . S
C461 C465 1.495 . S
C462 C461 1.392 . S
C462 C463 1.385 . S
C462 C464 1.478 . S
C463 H457 0.930 . S
C463 C459 1.400 . S
C463 C462 1.385 . S
C464 C462 1.478 . S
C464 C466 1.381 . S
C464 C470 1.383 . S
C465 C461 1.495 . S
C465 H471 0.959 . S
C465 H472 0.961 . S
C465 H473 0.960 . S
C466 C464 1.381 . S
C466 C467 1.394 . S
C466 H474 0.930 . S
C467 C466 1.394 . S
C467 C468 1.383 . S
C467 H475 0.929 . S
C468 C467 1.383 . S
C468 C469 1.377 . S
C469 H453 0.930 . S
C469 C468 1.377 . S
C469 C470 1.379 . S
C470 H454 0.931 . S
C470 C464 1.383 . S
C470 C469 1.379 . S
H471 C465 0.959 . S
H472 C465 0.961 . S
H473 C465 0.960 . S
H474 C466 0.930 . S
H475 C467 0.929 . S
H476 C484 0.929 . S
H477 C486 0.930 . S
H478 C488 0.930 . S
H479 C491 0.929 . S
H480 C494 0.930 . S
H481 C496 0.960 . S
H482 C496 0.960 . S
H483 C496 0.960 . S
C484 H476 0.929 . S
C484 C485 1.377 . S
C484 C486 1.384 . S
C485 C484 1.377 . S
C485 C491 1.390 . S
C486 H477 0.930 . S
C486 C484 1.384 . S
C486 C487 1.372 . S
C487 C486 1.372 . S
C487 C488 1.400 . S
C487 C492 1.490 . S
C488 H478 0.930 . S
C488 C487 1.400 . S
C488 C491 1.386 . S
H489 C505 0.930 . S
H490 C506 0.931 . S
C491 H479 0.929 . S
C491 C485 1.390 . S
C491 C488 1.386 . S
C492 C487 1.490 . S
C492 C494 1.395 . S
C492 C495 1.403 . S
H493 C499 0.930 . S
C494 H480 0.930 . S
C494 C492 1.395 . S
C494 C497 1.403 . S
C495 C492 1.403 . S
C495 C496 1.524 . S
C495 C499 1.400 . S
C496 H481 0.960 . S
C496 H482 0.960 . S
C496 H483 0.960 . S
C496 C495 1.524 . S
C497 C494 1.403 . S
C497 C498 1.392 . S
C497 C501 1.495 . S
C498 C497 1.392 . S
C498 C499 1.385 . S
C498 C500 1.478 . S
C499 H493 0.930 . S
C499 C495 1.400 . S
C499 C498 1.385 . S
C500 C498 1.478 . S
C500 C502 1.381 . S
C500 C506 1.383 . S
C501 C497 1.495 . S
C501 H507 0.959 . S
C501 H508 0.961 . S
C501 H509 0.960 . S
C502 C500 1.381 . S
C502 C503 1.394 . S
C502 H510 0.930 . S
C503 C502 1.394 . S
C503 C504 1.383 . S
C503 H511 0.929 . S
C504 C503 1.383 . S
C504 C505 1.377 . S
C505 H489 0.930 . S
C505 C504 1.377 . S
C505 C506 1.379 . S
C506 H490 0.931 . S
C506 C500 1.383 . S
C506 C505 1.379 . S
H507 C501 0.959 . S
H508 C501 0.961 . S
H509 C501 0.960 . S
H510 C502 0.930 . S
H511 C503 0.929 . S
H512 C520 0.929 . S
H513 C522 0.930 . S
H514 C524 0.930 . S
H515 C527 0.929 . S
H516 C530 0.930 . S
H517 C532 0.960 . S
H518 C532 0.960 . S
H519 C532 0.960 . S
C520 H512 0.929 . S
C520 C521 1.377 . S
C520 C522 1.384 . S
C521 C520 1.377 . S
C521 C527 1.390 . S
C522 H513 0.930 . S
C522 C520 1.384 . S
C522 C523 1.372 . S
C523 C522 1.372 . S
C523 C524 1.400 . S
C523 C528 1.490 . S
C524 H514 0.930 . S
C524 C523 1.400 . S
C524 C527 1.386 . S
H525 C541 0.930 . S
H526 C542 0.931 . S
C527 H515 0.929 . S
C527 C521 1.390 . S
C527 C524 1.386 . S
C528 C523 1.490 . S
C528 C530 1.395 . S
C528 C531 1.403 . S
H529 C535 0.930 . S
C530 H516 0.930 . S
C530 C528 1.395 . S
C530 C533 1.403 . S
C531 C528 1.403 . S
C531 C532 1.524 . S
C531 C535 1.400 . S
C532 H517 0.960 . S
C532 H518 0.960 . S
C532 H519 0.960 . S
C532 C531 1.524 . S
C533 C530 1.403 . S
C533 C534 1.392 . S
C533 C537 1.495 . S
C534 C533 1.392 . S
C534 C535 1.385 . S
C534 C536 1.478 . S
C535 H529 0.930 . S
C535 C531 1.400 . S
C535 C534 1.385 . S
C536 C534 1.478 . S
C536 C538 1.381 . S
C536 C542 1.383 . S
C537 C533 1.495 . S
C537 H543 0.959 . S
C537 H544 0.961 . S
C537 H545 0.960 . S
C538 C536 1.381 . S
C538 C539 1.394 . S
C538 H546 0.930 . S
C539 C538 1.394 . S
C539 C540 1.383 . S
C539 H547 0.929 . S
C540 C539 1.383 . S
C540 C541 1.377 . S
C541 H525 0.930 . S
C541 C540 1.377 . S
C541 C542 1.379 . S
C542 H526 0.931 . S
C542 C536 1.383 . S
C542 C541 1.379 . S
H543 C537 0.959 . S
H544 C537 0.961 . S
H545 C537 0.960 . S
H546 C538 0.930 . S
H547 C539 0.929 . S
H548 C556 0.929 . S
H549 C558 0.930 . S
H550 C560 0.930 . S
H551 C563 0.929 . S
H552 C566 0.930 . S
H553 C568 0.960 . S
H554 C568 0.960 . S
H555 C568 0.960 . S
C556 H548 0.929 . S
C556 C557 1.377 . S
C556 C558 1.384 . S
C557 C556 1.377 . S
C557 C563 1.390 . S
C558 H549 0.930 . S
C558 C556 1.384 . S
C558 C559 1.372 . S
C559 C558 1.372 . S
C559 C560 1.400 . S
C559 C564 1.490 . S
C560 H550 0.930 . S
C560 C559 1.400 . S
C560 C563 1.386 . S
H561 C577 0.930 . S
H562 C578 0.931 . S
C563 H551 0.929 . S
C563 C557 1.390 . S
C563 C560 1.386 . S
C564 C559 1.490 . S
C564 C566 1.395 . S
C564 C567 1.403 . S
H565 C571 0.930 . S
C566 H552 0.930 . S
C566 C564 1.395 . S
C566 C569 1.403 . S
C567 C564 1.403 . S
C567 C568 1.524 . S
C567 C571 1.400 . S
C568 H553 0.960 . S
C568 H554 0.960 . S
C568 H555 0.960 . S
C568 C567 1.524 . S
C569 C566 1.403 . S
C569 C570 1.392 . S
C569 C573 1.495 . S
C570 C569 1.392 . S
C570 C571 1.385 . S
C570 C572 1.478 . S
C571 H565 0.930 . S
C571 C567 1.400 . S
C571 C570 1.385 . S
C572 C570 1.478 . S
C572 C574 1.381 . S
C572 C578 1.383 . S
C573 C569 1.495 . S
C573 H579 0.959 . S
C573 H580 0.961 . S
C573 H581 0.960 . S
C574 C572 1.381 . S
C574 C575 1.394 . S
C574 H582 0.930 . S
C575 C574 1.394 . S
C575 C576 1.383 . S
C575 H583 0.929 . S
C576 C575 1.383 . S
C576 C577 1.377 . S
C577 H561 0.930 . S
C577 C576 1.377 . S
C577 C578 1.379 . S
C578 H562 0.931 . S
C578 C572 1.383 . S
C578 C577 1.379 . S
H579 C573 0.959 . S
H580 C573 0.961 . S
H581 C573 0.960 . S
H582 C574 0.930 . S
H583 C575 0.929 . S
H584 C592 0.929 . S
H585 C594 0.930 . S
H586 C596 0.930 . S
H587 C599 0.929 . S
H588 C602 0.930 . S
H589 C604 0.960 . S
H590 C604 0.960 . S
H591 C604 0.960 . S
C592 H584 0.929 . S
C592 C593 1.377 . S
C592 C594 1.384 . S
C593 C592 1.377 . S
C593 C599 1.390 . S
C594 H585 0.930 . S
C594 C592 1.384 . S
C594 C595 1.372 . S
C595 C594 1.372 . S
C595 C596 1.400 . S
C595 C600 1.490 . S
C596 H586 0.930 . S
C596 C595 1.400 . S
C596 C599 1.386 . S
H597 C613 0.930 . S
H598 C614 0.931 . S
C599 H587 0.929 . S
C599 C593 1.390 . S
C599 C596 1.386 . S
C600 C595 1.490 . S
C600 C602 1.395 . S
C600 C603 1.403 . S
H601 C607 0.930 . S
C602 H588 0.930 . S
C602 C600 1.395 . S
C602 C605 1.403 . S
C603 C600 1.403 . S
C603 C604 1.524 . S
C603 C607 1.400 . S
C604 H589 0.960 . S
C604 H590 0.960 . S
C604 H591 0.960 . S
C604 C603 1.524 . S
C605 C602 1.403 . S
C605 C606 1.392 . S
C605 C609 1.495 . S
C606 C605 1.392 . S
C606 C607 1.385 . S
C606 C608 1.478 . S
C607 H601 0.930 . S
C607 C603 1.400 . S
C607 C606 1.385 . S
C608 C606 1.478 . S
C608 C610 1.381 . S
C608 C614 1.383 . S
C609 C605 1.495 . S
C609 H615 0.959 . S
C609 H616 0.961 . S
C609 H617 0.960 . S
C610 C608 1.381 . S
C610 C611 1.394 . S
C610 H618 0.930 . S
C611 C610 1.394 . S
C611 C612 1.383 . S
C611 H619 0.929 . S
C612 C611 1.383 . S
C612 C613 1.377 . S
C613 H597 0.930 . S
C613 C612 1.377 . S
C613 C614 1.379 . S
C614 H598 0.931 . S
C614 C608 1.383 . S
C614 C613 1.379 . S
H615 C609 0.959 . S
H616 C609 0.961 . S
H617 C609 0.960 . S
H618 C610 0.930 . S
H619 C611 0.929 . S
H620 C628 0.929 . S
H621 C630 0.930 . S
H622 C632 0.930 . S
H623 C635 0.929 . S
H624 C638 0.930 . S
H625 C640 0.960 . S
H626 C640 0.960 . S
H627 C640 0.960 . S
C628 H620 0.929 . S
C628 C629 1.377 . S
C628 C630 1.384 . S
C629 C628 1.377 . S
C629 C635 1.390 . S
C630 H621 0.930 . S
C630 C628 1.384 . S
C630 C631 1.372 . S
C631 C630 1.372 . S
C631 C632 1.400 . S
C631 C636 1.490 . S
C632 H622 0.930 . S
C632 C631 1.400 . S
C632 C635 1.386 . S
H633 C649 0.930 . S
H634 C650 0.931 . S
C635 H623 0.929 . S
C635 C629 1.390 . S
C635 C632 1.386 . S
C636 C631 1.490 . S
C636 C638 1.395 . S
C636 C639 1.403 . S
H637 C643 0.930 . S
C638 H624 0.930 . S
C638 C636 1.395 . S
C638 C641 1.403 . S
C639 C636 1.403 . S
C639 C640 1.524 . S
C639 C643 1.400 . S
C640 H625 0.960 . S
C640 H626 0.960 . S
C640 H627 0.960 . S
C640 C639 1.524 . S
C641 C638 1.403 . S
C641 C642 1.392 . S
C641 C645 1.495 . S
C642 C641 1.392 . S
C642 C643 1.385 . S
C642 C644 1.478 . S
C643 H637 0.930 . S
C643 C639 1.400 . S
C643 C642 1.385 . S
C644 C642 1.478 . S
C644 C646 1.381 . S
C644 C650 1.383 . S
C645 C641 1.495 . S
C645 H651 0.959 . S
C645 H652 0.961 . S
C645 H653 0.960 . S
C646 C644 1.381 . S
C646 C647 1.394 . S
C646 H654 0.930 . S
C647 C646 1.394 . S
C647 C648 1.383 . S
C647 H655 0.929 . S
C648 C647 1.383 . S
C648 C649 1.377 . S
C649 H633 0.930 . S
C649 C648 1.377 . S
C649 C650 1.379 . S
C650 H634 0.931 . S
C650 C644 1.383 . S
C650 C649 1.379 . S
H651 C645 0.959 . S
H652 C645 0.961 . S
H653 C645 0.960 . S
H654 C646 0.930 . S
H655 C647 0.929 . S
H656 C664 0.929 . S
H657 C666 0.930 . S
H658 C668 0.930 . S
H659 C671 0.929 . S
H660 C674 0.930 . S
H661 C676 0.960 . S
H662 C676 0.960 . S
H663 C676 0.960 . S
C664 H656 0.929 . S
C664 C665 1.377 . S
C664 C666 1.384 . S
C665 C664 1.377 . S
C665 C671 1.390 . S
C666 H657 0.930 . S
C666 C664 1.384 . S
C666 C667 1.372 . S
C667 C666 1.372 . S
C667 C668 1.400 . S
C667 C672 1.490 . S
C668 H658 0.930 . S
C668 C667 1.400 . S
C668 C671 1.386 . S
H669 C685 0.930 . S
H670 C686 0.931 . S
C671 H659 0.929 . S
C671 C665 1.390 . S
C671 C668 1.386 . S
C672 C667 1.490 . S
C672 C674 1.395 . S
C672 C675 1.403 . S
H673 C679 0.930 . S
C674 H660 0.930 . S
C674 C672 1.395 . S
C674 C677 1.403 . S
C675 C672 1.403 . S
C675 C676 1.524 . S
C675 C679 1.400 . S
C676 H661 0.960 . S
C676 H662 0.960 . S
C676 H663 0.960 . S
C676 C675 1.524 . S
C677 C674 1.403 . S
C677 C678 1.392 . S
C677 C681 1.495 . S
C678 C677 1.392 . S
C678 C679 1.385 . S
C678 C680 1.478 . S
C679 H673 0.930 . S
C679 C675 1.400 . S
C679 C678 1.385 . S
C680 C678 1.478 . S
C680 C682 1.381 . S
C680 C686 1.383 . S
C681 C677 1.495 . S
C681 H687 0.959 . S
C681 H688 0.961 . S
C681 H689 0.960 . S
C682 C680 1.381 . S
C682 C683 1.394 . S
C682 H690 0.930 . S
C683 C682 1.394 . S
C683 C684 1.383 . S
C683 H691 0.929 . S
C684 C683 1.383 . S
C684 C685 1.377 . S
C685 H669 0.930 . S
C685 C684 1.377 . S
C685 C686 1.379 . S
C686 H670 0.931 . S
C686 C680 1.383 . S
C686 C685 1.379 . S
H687 C681 0.959 . S
H688 C681 0.961 . S
H689 C681 0.960 . S
H690 C682 0.930 . S
H691 C683 0.929 . S
H692 C700 0.929 . S
H693 C702 0.930 . S
H694 C704 0.930 . S
H695 C707 0.929 . S
H696 C710 0.930 . S
H697 C712 0.960 . S
H698 C712 0.960 . S
H699 C712 0.960 . S
C700 H692 0.929 . S
C700 C701 1.377 . S
C700 C702 1.384 . S
C701 C700 1.377 . S
C701 C707 1.390 . S
C702 H693 0.930 . S
C702 C700 1.384 . S
C702 C703 1.372 . S
C703 C702 1.372 . S
C703 C704 1.400 . S
C703 C708 1.490 . S
C704 H694 0.930 . S
C704 C703 1.400 . S
C704 C707 1.386 . S
H705 C721 0.930 . S
H706 C722 0.931 . S
C707 H695 0.929 . S
C707 C701 1.390 . S
C707 C704 1.386 . S
C708 C703 1.490 . S
C708 C710 1.395 . S
C708 C711 1.403 . S
H709 C715 0.930 . S
C710 H696 0.930 . S
C710 C708 1.395 . S
C710 C713 1.403 . S
C711 C708 1.403 . S
C711 C712 1.524 . S
C711 C715 1.400 . S
C712 H697 0.960 . S
C712 H698 0.960 . S
C712 H699 0.960 . S
C712 C711 1.524 . S
C713 C710 1.403 . S
C713 C714 1.392 . S
C713 C717 1.495 . S
C714 C713 1.392 . S
C714 C715 1.385 . S
C714 C716 1.478 . S
C715 H709 0.930 . S
C715 C711 1.400 . S
C715 C714 1.385 . S
C716 C714 1.478 . S
C716 C718 1.381 . S
C716 C722 1.383 . S
C717 C713 1.495 . S
C717 H723 0.959 . S
C717 H724 0.961 . S
C717 H725 0.960 . S
C718 C716 1.381 . S
C718 C719 1.394 . S
C718 H726 0.930 . S
C719 C718 1.394 . S
C719 C720 1.383 . S
C719 H727 0.929 . S
C720 C719 1.383 . S
C720 C721 1.377 . S
C721 H705 0.930 . S
C721 C720 1.377 . S
C721 C722 1.379 . S
C722 H706 0.931 . S
C722 C716 1.383 . S
C722 C721 1.379 . S
H723 C717 0.959 . S
H724 C717 0.961 . S
H725 C717 0.960 . S
H726 C718 0.930 . S
H727 C719 0.929 . S
H728 C736 0.929 . S
H729 C738 0.930 . S
H730 C740 0.930 . S
H731 C743 0.929 . S
H732 C746 0.930 . S
H733 C748 0.960 . S
H734 C748 0.960 . S
H735 C748 0.960 . S
C736 H728 0.929 . S
C736 C737 1.377 . S
C736 C738 1.384 . S
C737 C736 1.377 . S
C737 C743 1.390 . S
C738 H729 0.930 . S
C738 C736 1.384 . S
C738 C739 1.372 . S
C739 C738 1.372 . S
C739 C740 1.400 . S
C739 C744 1.490 . S
C740 H730 0.930 . S
C740 C739 1.400 . S
C740 C743 1.386 . S
H741 C757 0.930 . S
H742 C758 0.931 . S
C743 H731 0.929 . S
C743 C737 1.390 . S
C743 C740 1.386 . S
C744 C739 1.490 . S
C744 C746 1.395 . S
C744 C747 1.403 . S
H745 C751 0.930 . S
C746 H732 0.930 . S
C746 C744 1.395 . S
C746 C749 1.403 . S
C747 C744 1.403 . S
C747 C748 1.524 . S
C747 C751 1.400 . S
C748 H733 0.960 . S
C748 H734 0.960 . S
C748 H735 0.960 . S
C748 C747 1.524 . S
C749 C746 1.403 . S
C749 C750 1.392 . S
C749 C753 1.495 . S
C750 C749 1.392 . S
C750 C751 1.385 . S
C750 C752 1.478 . S
C751 H745 0.930 . S
C751 C747 1.400 . S
C751 C750 1.385 . S
C752 C750 1.478 . S
C752 C754 1.381 . S
C752 C758 1.383 . S
C753 C749 1.495 . S
C753 H759 0.959 . S
C753 H760 0.961 . S
C753 H761 0.960 . S
C754 C752 1.381 . S
C754 C755 1.394 . S
C754 H762 0.930 . S
C755 C754 1.394 . S
C755 C756 1.383 . S
C755 H763 0.929 . S
C756 C755 1.383 . S
C756 C757 1.377 . S
C757 H741 0.930 . S
C757 C756 1.377 . S
C757 C758 1.379 . S
C758 H742 0.931 . S
C758 C752 1.383 . S
C758 C757 1.379 . S
H759 C753 0.959 . S
H760 C753 0.961 . S
H761 C753 0.960 . S
H762 C754 0.930 . S
H763 C755 0.929 . S
H764 C772 0.929 . S
H765 C774 0.930 . S
H766 C776 0.930 . S
H767 C779 0.929 . S
H768 C782 0.930 . S
H769 C784 0.960 . S
H770 C784 0.960 . S
H771 C784 0.960 . S
C772 H764 0.929 . S
C772 C773 1.377 . S
C772 C774 1.384 . S
C773 C772 1.377 . S
C773 C779 1.390 . S
C774 H765 0.930 . S
C774 C772 1.384 . S
C774 C775 1.372 . S
C775 C774 1.372 . S
C775 C776 1.400 . S
C775 C780 1.490 . S
C776 H766 0.930 . S
C776 C775 1.400 . S
C776 C779 1.386 . S
H777 C793 0.930 . S
H778 C794 0.931 . S
C779 H767 0.929 . S
C779 C773 1.390 . S
C779 C776 1.386 . S
C780 C775 1.490 . S
C780 C782 1.395 . S
C780 C783 1.403 . S
H781 C787 0.930 . S
C782 H768 0.930 . S
C782 C780 1.395 . S
C782 C785 1.403 . S
C783 C780 1.403 . S
C783 C784 1.524 . S
C783 C787 1.400 . S
C784 H769 0.960 . S
C784 H770 0.960 . S
C784 H771 0.960 . S
C784 C783 1.524 . S
C785 C782 1.403 . S
C785 C786 1.392 . S
C785 C789 1.495 . S
C786 C785 1.392 . S
C786 C787 1.385 . S
C786 C788 1.478 . S
C787 H781 0.930 . S
C787 C783 1.400 . S
C787 C786 1.385 . S
C788 C786 1.478 . S
C788 C790 1.381 . S
C788 C794 1.383 . S
C789 C785 1.495 . S
C789 H795 0.959 . S
C789 H796 0.961 . S
C789 H797 0.960 . S
C790 C788 1.381 . S
C790 C791 1.394 . S
C790 H798 0.930 . S
C791 C790 1.394 . S
C791 C792 1.383 . S
C791 H799 0.929 . S
C792 C791 1.383 . S
C792 C793 1.377 . S
C793 H777 0.930 . S
C793 C792 1.377 . S
C793 C794 1.379 . S
C794 H778 0.931 . S
C794 C788 1.383 . S
C794 C793 1.379 . S
H795 C789 0.959 . S
H796 C789 0.961 . S
H797 C789 0.960 . S
H798 C790 0.930 . S
H799 C791 0.929 . S
H800 C808 0.929 . S
H801 C810 0.930 . S
H802 C812 0.930 . S
H803 C815 0.929 . S
H804 C818 0.930 . S
H805 C820 0.960 . S
H806 C820 0.960 . S
H807 C820 0.960 . S
C808 H800 0.929 . S
C808 C809 1.377 . S
C808 C810 1.384 . S
C809 C808 1.377 . S
C809 C815 1.390 . S
C810 H801 0.930 . S
C810 C808 1.384 . S
C810 C811 1.372 . S
C811 C810 1.372 . S
C811 C812 1.400 . S
C811 C816 1.490 . S
C812 H802 0.930 . S
C812 C811 1.400 . S
C812 C815 1.386 . S
H813 C829 0.930 . S
H814 C830 0.931 . S
C815 H803 0.929 . S
C815 C809 1.390 . S
C815 C812 1.386 . S
C816 C811 1.490 . S
C816 C818 1.395 . S
C816 C819 1.403 . S
H817 C823 0.930 . S
C818 H804 0.930 . S
C818 C816 1.395 . S
C818 C821 1.403 . S
C819 C816 1.403 . S
C819 C820 1.524 . S
C819 C823 1.400 . S
C820 H805 0.960 . S
C820 H806 0.960 . S
C820 H807 0.960 . S
C820 C819 1.524 . S
C821 C818 1.403 . S
C821 C822 1.392 . S
C821 C825 1.495 . S
C822 C821 1.392 . S
C822 C823 1.385 . S
C822 C824 1.478 . S
C823 H817 0.930 . S
C823 C819 1.400 . S
C823 C822 1.385 . S
C824 C822 1.478 . S
C824 C826 1.381 . S
C824 C830 1.383 . S
C825 C821 1.495 . S
C825 H831 0.959 . S
C825 H832 0.961 . S
C825 H833 0.960 . S
C826 C824 1.381 . S
C826 C827 1.394 . S
C826 H834 0.930 . S
C827 C826 1.394 . S
C827 C828 1.383 . S
C827 H835 0.929 . S
C828 C827 1.383 . S
C828 C829 1.377 . S
C829 H813 0.930 . S
C829 C828 1.377 . S
C829 C830 1.379 . S
C830 H814 0.931 . S
C830 C824 1.383 . S
C830 C829 1.379 . S
H831 C825 0.959 . S
H832 C825 0.961 . S
H833 C825 0.960 . S
H834 C826 0.930 . S
H835 C827 0.929 . S
H836 C844 0.929 . S
H837 C846 0.930 . S
H838 C848 0.930 . S
H839 C851 0.929 . S
H840 C854 0.930 . S
H841 C856 0.960 . S
H842 C856 0.960 . S
H843 C856 0.960 . S
C844 H836 0.929 . S
C844 C845 1.377 . S
C844 C846 1.384 . S
C845 C844 1.377 . S
C845 C851 1.390 . S
C846 H837 0.930 . S
C846 C844 1.384 . S
C846 C847 1.372 . S
C847 C846 1.372 . S
C847 C848 1.400 . S
C847 C852 1.490 . S
C848 H838 0.930 . S
C848 C847 1.400 . S
C848 C851 1.386 . S
H849 C865 0.930 . S
H850 C866 0.931 . S
C851 H839 0.929 . S
C851 C845 1.390 . S
C851 C848 1.386 . S
C852 C847 1.490 . S
C852 C854 1.395 . S
C852 C855 1.403 . S
H853 C859 0.930 . S
C854 H840 0.930 . S
C854 C852 1.395 . S
C854 C857 1.403 . S
C855 C852 1.403 . S
C855 C856 1.524 . S
C855 C859 1.400 . S
C856 H841 0.960 . S
C856 H842 0.960 . S
C856 H843 0.960 . S
C856 C855 1.524 . S
C857 C854 1.403 . S
C857 C858 1.392 . S
C857 C861 1.495 . S
C858 C857 1.392 . S
C858 C859 1.385 . S
C858 C860 1.478 . S
C859 H853 0.930 . S
C859 C855 1.400 . S
C859 C858 1.385 . S
C860 C858 1.478 . S
C860 C862 1.381 . S
C860 C866 1.383 . S
C861 C857 1.495 . S
C861 H867 0.959 . S
C861 H868 0.961 . S
C861 H869 0.960 . S
C862 C860 1.381 . S
C862 C863 1.394 . S
C862 H870 0.930 . S
C863 C862 1.394 . S
C863 C864 1.383 . S
C863 H871 0.929 . S
C864 C863 1.383 . S
C864 C865 1.377 . S
C865 H849 0.930 . S
C865 C864 1.377 . S
C865 C866 1.379 . S
C866 H850 0.931 . S
C866 C860 1.383 . S
C866 C865 1.379 . S
H867 C861 0.959 . S
H868 C861 0.961 . S
H869 C861 0.960 . S
H870 C862 0.930 . S
H871 C863 0.929 . S
H872 C880 0.929 . S
H873 C882 0.930 . S
H874 C884 0.930 . S
H875 C887 0.929 . S
H876 C890 0.930 . S
H877 C892 0.960 . S
H878 C892 0.960 . S
H879 C892 0.960 . S
C880 H872 0.929 . S
C880 C881 1.377 . S
C880 C882 1.384 . S
C881 C880 1.377 . S
C881 C887 1.390 . S
C882 H873 0.930 . S
C882 C880 1.384 . S
C882 C883 1.372 . S
C883 C882 1.372 . S
C883 C884 1.400 . S
C883 C888 1.490 . S
C884 H874 0.930 . S
C884 C883 1.400 . S
C884 C887 1.386 . S
H885 C901 0.930 . S
H886 C902 0.931 . S
C887 H875 0.929 . S
C887 C881 1.390 . S
C887 C884 1.386 . S
C888 C883 1.490 . S
C888 C890 1.395 . S
C888 C891 1.403 . S
H889 C895 0.930 . S
C890 H876 0.930 . S
C890 C888 1.395 . S
C890 C893 1.403 . S
C891 C888 1.403 . S
C891 C892 1.524 . S
C891 C895 1.400 . S
C892 H877 0.960 . S
C892 H878 0.960 . S
C892 H879 0.960 . S
C892 C891 1.524 . S
C893 C890 1.403 . S
C893 C894 1.392 . S
C893 C897 1.495 . S
C894 C893 1.392 . S
C894 C895 1.385 . S
C894 C896 1.478 . S
C895 H889 0.930 . S
C895 C891 1.400 . S
C895 C894 1.385 . S
C896 C894 1.478 . S
C896 C898 1.381 . S
C896 C902 1.383 . S
C897 C893 1.495 . S
C897 H903 0.959 . S
C897 H904 0.961 . S
C897 H905 0.960 . S
C898 C896 1.381 . S
C898 C899 1.394 . S
C898 H906 0.930 . S
C899 C898 1.394 . S
C899 C900 1.383 . S
C899 H907 0.929 . S
C900 C899 1.383 . S
C900 C901 1.377 . S
C901 H885 0.930 . S
C901 C900 1.377 . S
C901 C902 1.379 . S
C902 H886 0.931 . S
C902 C896 1.383 . S
C902 C901 1.379 . S
H903 C897 0.959 . S
H904 C897 0.961 . S
H905 C897 0.960 . S
H906 C898 0.930 . S
H907 C899 0.929 . S
H908 C916 0.929 . S
H909 C918 0.930 . S
H910 C920 0.930 . S
H911 C923 0.929 . S
H912 C926 0.930 . S
H913 C928 0.960 . S
H914 C928 0.960 . S
H915 C928 0.960 . S
C916 H908 0.929 . S
C916 C917 1.377 . S
C916 C918 1.384 . S
C917 C916 1.377 . S
C917 C923 1.390 . S
C918 H909 0.930 . S
C918 C916 1.384 . S
C918 C919 1.372 . S
C919 C918 1.372 . S
C919 C920 1.400 . S
C919 C924 1.490 . S
C920 H910 0.930 . S
C920 C919 1.400 . S
C920 C923 1.386 . S
H921 C937 0.930 . S
H922 C938 0.931 . S
C923 H911 0.929 . S
C923 C917 1.390 . S
C923 C920 1.386 . S
C924 C919 1.490 . S
C924 C926 1.395 . S
C924 C927 1.403 . S
H925 C931 0.930 . S
C926 H912 0.930 . S
C926 C924 1.395 . S
C926 C929 1.403 . S
C927 C924 1.403 . S
C927 C928 1.524 . S
C927 C931 1.400 . S
C928 H913 0.960 . S
C928 H914 0.960 . S
C928 H915 0.960 . S
C928 C927 1.524 . S
C929 C926 1.403 . S
C929 C930 1.392 . S
C929 C933 1.495 . S
C930 C929 1.392 . S
C930 C931 1.385 . S
C930 C932 1.478 . S
C931 H925 0.930 . S
C931 C927 1.400 . S
C931 C930 1.385 . S
C932 C930 1.478 . S
C932 C934 1.381 . S
C932 C938 1.383 . S
C933 C929 1.495 . S
C933 H939 0.959 . S
C933 H940 0.961 . S
C933 H941 0.960 . S
C934 C932 1.381 . S
C934 C935 1.394 . S
C934 H942 0.930 . S
C935 C934 1.394 . S
C935 C936 1.383 . S
C935 H943 0.929 . S
C936 C935 1.383 . S
C936 C937 1.377 . S
C937 H921 0.930 . S
C937 C936 1.377 . S
C937 C938 1.379 . S
C938 H922 0.931 . S
C938 C932 1.383 . S
C938 C937 1.379 . S
H939 C933 0.959 . S
H940 C933 0.961 . S
H941 C933 0.960 . S
H942 C934 0.930 . S
H943 C935 0.929 . S
H944 C952 0.929 . S
H945 C954 0.930 . S
H946 C956 0.930 . S
H947 C959 0.929 . S
H948 C962 0.930 . S
H949 C964 0.960 . S
H950 C964 0.960 . S
H951 C964 0.960 . S
C952 H944 0.929 . S
C952 C953 1.377 . S
C952 C954 1.384 . S
C953 C952 1.377 . S
C953 C959 1.390 . S
C954 H945 0.930 . S
C954 C952 1.384 . S
C954 C955 1.372 . S
C955 C954 1.372 . S
C955 C956 1.400 . S
C955 C960 1.490 . S
C956 H946 0.930 . S
C956 C955 1.400 . S
C956 C959 1.386 . S
H957 C973 0.930 . S
H958 C974 0.931 . S
C959 H947 0.929 . S
C959 C953 1.390 . S
C959 C956 1.386 . S
C960 C955 1.490 . S
C960 C962 1.395 . S
C960 C963 1.403 . S
H961 C967 0.930 . S
C962 H948 0.930 . S
C962 C960 1.395 . S
C962 C965 1.403 . S
C963 C960 1.403 . S
C963 C964 1.524 . S
C963 C967 1.400 . S
C964 H949 0.960 . S
C964 H950 0.960 . S
C964 H951 0.960 . S
C964 C963 1.524 . S
C965 C962 1.403 . S
C965 C966 1.392 . S
C965 C969 1.495 . S
C966 C965 1.392 . S
C966 C967 1.385 . S
C966 C968 1.478 . S
C967 H961 0.930 . S
C967 C963 1.400 . S
C967 C966 1.385 . S
C968 C966 1.478 . S
C968 C970 1.381 . S
C968 C974 1.383 . S
C969 C965 1.495 . S
C969 H975 0.959 . S
C969 H976 0.961 . S
C969 H977 0.960 . S
C970 C968 1.381 . S
C970 C971 1.394 . S
C970 H978 0.930 . S
C971 C970 1.394 . S
C971 C972 1.383 . S
C971 H979 0.929 . S
C972 C971 1.383 . S
C972 C973 1.377 . S
C973 H957 0.930 . S
C973 C972 1.377 . S
C973 C974 1.379 . S
C974 H958 0.931 . S
C974 C968 1.383 . S
C974 C973 1.379 . S
H975 C969 0.959 . S
H976 C969 0.961 . S
H977 C969 0.960 . S
H978 C970 0.930 . S
H979 C971 0.929 . S
H980 C988 0.929 . S
H981 C990 0.930 . S
H982 C992 0.930 . S
H983 C995 0.929 . S
H984 C998 0.930 . S
H985 C1000 0.960 . S
H986 C1000 0.960 . S
H987 C1000 0.960 . S
C988 H980 0.929 . S
C988 C989 1.377 . S
C988 C990 1.384 . S
C989 C988 1.377 . S
C989 C995 1.390 . S
C990 H981 0.930 . S
C990 C988 1.384 . S
C990 C991 1.372 . S
C991 C990 1.372 . S
C991 C992 1.400 . S
C991 C996 1.490 . S
C992 H982 0.930 . S
C992 C991 1.400 . S
C992 C995 1.386 . S
H993 C1009 0.930 . S
H994 C1010 0.931 . S
C995 H983 0.929 . S
C995 C989 1.390 . S
C995 C992 1.386 . S
C996 C991 1.490 . S
C996 C998 1.395 . S
C996 C999 1.403 . S
H997 C1003 0.930 . S
C998 H984 0.930 . S
C998 C996 1.395 . S
C998 C1001 1.403 . S
C999 C996 1.403 . S
C999 C1000 1.524 . S
C999 C1003 1.400 . S
C1000 H985 0.960 . S
C1000 H986 0.960 . S
C1000 H987 0.960 . S
C1000 C999 1.524 . S
C1001 C998 1.403 . S
C1001 C1002 1.392 . S
C1001 C1005 1.495 . S
C1002 C1001 1.392 . S
C1002 C1003 1.385 . S
C1002 C1004 1.478 . S
C1003 H997 0.930 . S
C1003 C999 1.400 . S
C1003 C1002 1.385 . S
C1004 C1002 1.478 . S
C1004 C1006 1.381 . S
C1004 C1010 1.383 . S
C1005 C1001 1.495 . S
C1005 H1011 0.959 . S
C1005 H1012 0.961 . S
C1005 H1013 0.960 . S
C1006 C1004 1.381 . S
C1006 C1007 1.394 . S
C1006 H1014 0.930 . S
C1007 C1006 1.394 . S
C1007 C1008 1.383 . S
C1007 H1015 0.929 . S
C1008 C1007 1.383 . S
C1008 C1009 1.377 . S
C1009 H993 0.930 . S
C1009 C1008 1.377 . S
C1009 C1010 1.379 . S
C1010 H994 0.931 . S
C1010 C1004 1.383 . S
C1010 C1009 1.379 . S
H1011 C1005 0.959 . S
H1012 C1005 0.961 . S
H1013 C1005 0.960 . S
H1014 C1006 0.930 . S
H1015 C1007 0.929 . S
C161 C5 1.472 . S
C180 C91 1.464 . S
C197 C14 1.289 . S
C216 C94 1.262 . S
C252 C130 1.712 . S
C233 C25 1.760 . S
C269 C34 1.643 . S
C288 C150 1.592 . S
C324 C104 1.669 . S
C305 C7 1.698 . S
C360 C81 1.509 . S
C341 C13 1.555 . S
C396 C134 1.502 . S
C377 C23 1.636 . S
C432 C114 1.307 . S
C413 C31 1.408 . S
C449 C4 1.329 . S
C468 C144 1.301 . S
C504 C110 1.585 . S
C485 C22 1.623 . S
C521 C32 1.631 . S
C540 C76 1.588 . S
C557 C16 1.334 . S
C576 C124 1.325 . S
C612 C90 1.430 . S
C593 C41 1.455 . S
C629 C50 1.298 . S
C648 C96 1.215 . S
C665 C61 1.758 . S
C684 C131 1.704 . S
C701 C67 1.654 . S
C720 C151 1.605 . S
C737 C40 1.715 . S
C756 C101 1.695 . S
C792 C84 1.493 . S
C773 C52 1.530 . S
C828 C136 1.524 . S
C809 C59 1.644 . S
C864 C116 1.358 . S
C845 C70 1.405 . S
C881 C43 1.329 . S
C900 C141 1.311 . S
C936 C111 1.610 . S
C917 C58 1.633 . S
C972 C74 1.524 . S
C953 C68 1.615 . S
C989 C49 1.342 . S
C1008 C121 1.286 . S
