# Generated by pormake.
# Topology anh, (6,3)-cn, num edge types: 1
# Building blocks:
#     Node 0, Type 0, BuildingBlock: CUKXOW_clean_sbu_0, # of connection points: 6
#     Node 1, Type 0, BuildingBlock: CUKXOW_clean_sbu_0, # of connection points: 6
#     Node 2, Type 0, BuildingBlock: CUKXOW_clean_sbu_0, # of connection points: 6
#     Node 3, Type 1, BuildingBlock: QEWDON_clean_linker_0, # of connection points: 3
#     Node 4, Type 1, BuildingBlock: QEWDON_clean_linker_0, # of connection points: 3
#     Node 5, Type 1, BuildingBlock: QEWDON_clean_linker_0, # of connection points: 3
#     Node 6, Type 1, BuildingBlock: QEWDON_clean_linker_0, # of connection points: 3
#     Node 7, Type 1, BuildingBlock: QEWDON_clean_linker_0, # of connection points: 3
#     Node 8, Type 1, BuildingBlock: QEWDON_clean_linker_0, # of connection points: 3
#     Edge 9, Type (0, 1), BuildingBlock: UVAHIK_clean_linker_0, # of connection points: 2
#     Edge 10, Type (0, 1), BuildingBlock: UVAHIK_clean_linker_0, # of connection points: 2
#     Edge 11, Type (0, 1), BuildingBlock: UVAHIK_clean_linker_0, # of connection points: 2
#     Edge 12, Type (0, 1), BuildingBlock: UVAHIK_clean_linker_0, # of connection points: 2
#     Edge 13, Type (0, 1), BuildingBlock: UVAHIK_clean_linker_0, # of connection points: 2
#     Edge 14, Type (0, 1), BuildingBlock: UVAHIK_clean_linker_0, # of connection points: 2
#     Edge 15, Type (0, 1), BuildingBlock: UVAHIK_clean_linker_0, # of connection points: 2
#     Edge 16, Type (0, 1), BuildingBlock: UVAHIK_clean_linker_0, # of connection points: 2
#     Edge 17, Type (0, 1), BuildingBlock: UVAHIK_clean_linker_0, # of connection points: 2
#     Edge 18, Type (0, 1), BuildingBlock: UVAHIK_clean_linker_0, # of connection points: 2
#     Edge 19, Type (0, 1), BuildingBlock: UVAHIK_clean_linker_0, # of connection points: 2
#     Edge 20, Type (0, 1), BuildingBlock: UVAHIK_clean_linker_0, # of connection points: 2
#     Edge 21, Type (0, 1), BuildingBlock: UVAHIK_clean_linker_0, # of connection points: 2
#     Edge 22, Type (0, 1), BuildingBlock: UVAHIK_clean_linker_0, # of connection points: 2
#     Edge 23, Type (0, 1), BuildingBlock: UVAHIK_clean_linker_0, # of connection points: 2
#     Edge 24, Type (0, 1), BuildingBlock: UVAHIK_clean_linker_0, # of connection points: 2
#     Edge 25, Type (0, 1), BuildingBlock: UVAHIK_clean_linker_0, # of connection points: 2
#     Edge 26, Type (0, 1), BuildingBlock: UVAHIK_clean_linker_0, # of connection points: 2
# Relax obj value: 0.060
# Max RMSD: 0.135
# Mean RMSD: 0.112
data_MOF--net-anh--node1-CUKXOW_clean_sbu_0--node2-QEWDON_clean_linker_0--edge1-UVAHIK_clean_linker_0
_symmetry_space_group_name_H-M    P1
_symmetry_Int_Tables_number       1
_symmetry_cell_setting            triclinic
loop_
_symmetry_equiv_pos_as_xyz
'x, y, z'
_cell_length_a     39.42632
_cell_length_b     38.41728
_cell_length_c     61.457616
_cell_angle_alpha  99.218215
_cell_angle_beta   93.649322
_cell_angle_gamma 114.85239
loop_
_atom_site_label
_atom_site_type_symbol
_atom_site_fract_x
_atom_site_fract_y
_atom_site_fract_z
_atom_type_partial_charge
Tb0 Tb 0.08858 0.57002 0.16286 0.0
C1 C 0.06622 0.53246 0.20422 0.0
Tb2 Tb 0.03424 0.48093 0.15471 0.0
O3 O 0.044 0.58478 0.17473 0.0
O4 O 0.02969 0.53332 0.15155 0.0
O5 O 0.09153 0.56197 0.19686 0.0
C6 C 0.9687 0.41928 0.15389 0.0
O7 O 0.04027 0.50019 0.19081 0.0
C8 C 0.10616 0.4923 0.15934 0.0
C9 C 0.06244 0.51815 0.11373 0.0
O10 O 0.98277 0.45174 0.16864 0.0
O11 O 0.99161 0.42124 0.13926 0.0
O12 O 0.07728 0.45789 0.15565 0.0
O13 O 0.09247 0.5168 0.1607 0.0
O14 O 0.03482 0.48943 0.12048 0.0
O15 O 0.08855 0.54953 0.12772 0.0
C16 C 0.14617 0.63929 0.16384 0.0
O17 O 0.11271 0.62662 0.15267 0.0
O18 O 0.14694 0.61324 0.17469 0.0
C19 C 1.01615 0.55237 0.16395 0.0
Tb20 Tb 0.55571 0.04238 0.49571 0.0
C21 C 0.5896 0.06746 0.45304 0.0
Tb22 Tb 0.63806 0.10216 0.50211 0.0
O23 O 0.53787 0.08568 0.48699 0.0
O24 O 0.58699 0.10346 0.50939 0.0
O25 O 0.56113 0.04136 0.46076 0.0
C26 C 0.69851 0.1692 0.50246 0.0
O27 O 0.62115 0.09385 0.46613 0.0
C28 C 0.62813 0.0294 0.49806 0.0
C29 C 0.6044 0.07191 0.54329 0.0
O30 O 0.6647 0.15906 0.49267 0.0
O31 O 0.69846 0.14157 0.51219 0.0
O32 O 0.65911 0.05941 0.50797 0.0
O33 O 0.60715 0.04145 0.48855 0.0
O34 O 0.62788 0.10365 0.5367 0.0
O35 O 0.5777 0.04171 0.529 0.0
C36 C 0.48903 0.98306 0.49643 0.0
O37 O 0.50085 0.01875 0.5074 0.0
O38 O 0.51468 0.98068 0.48486 0.0
C39 C 0.56738 0.11546 0.49852 0.0
Tb40 Tb 0.54425 0.56686 0.82776 0.0
C41 C 0.58087 0.56123 0.87252 0.0
Tb42 Tb 0.62184 0.56705 0.82908 0.0
O43 O 0.51922 0.50652 0.83318 0.0
O44 O 0.56571 0.52635 0.81624 0.0
O45 O 0.55684 0.57262 0.8634 0.0
C46 C 0.67486 0.54154 0.8296 0.0
O47 O 0.60535 0.55317 0.86128 0.0
C48 C 0.62304 0.63658 0.83309 0.0
C49 C 0.58609 0.57592 0.78477 0.0
O50 O 0.67649 0.57189 0.84334 0.0
O51 O 0.64404 0.52641 0.81558 0.0
O52 O 0.64942 0.62833 0.82543 0.0
O53 O 0.60064 0.60785 0.84042 0.0
O54 O 0.6111 0.56586 0.7939 0.0
O55 O 0.56016 0.58139 0.7957 0.0
C56 C 0.48516 0.58277 0.82275 0.0
O57 O 0.4865 0.55096 0.81295 0.0
O58 O 0.51679 0.60527 0.83564 0.0
C59 C 0.54442 0.49794 0.82419 0.0
H60 H 0.55422 0.10472 0.21193 0.0
C61 C 0.53236 0.07549 0.20487 0.0
C62 C 0.51643 0.04916 0.21892 0.0
C63 C 0.51869 0.06473 0.18186 0.0
H64 H 0.47544 0.9911 0.22035 0.0
C65 C 0.48772 0.0116 0.20963 0.0
C66 C 0.47399 1.00035 0.18681 0.0
C67 C 0.48952 0.02706 0.17303 0.0
C68 C 0.53384 0.09276 0.16692 0.0
H69 H 0.47916 0.01827 0.15532 0.0
C70 C 0.57302 0.11523 0.16803 0.0
C71 C 0.58713 0.13993 0.15287 0.0
C72 C 0.50895 0.09615 0.15086 0.0
H73 H 0.47865 0.07971 0.14984 0.0
C74 C 0.52283 0.12089 0.13599 0.0
H75 H 0.59252 0.11253 0.18014 0.0
C76 C 0.56166 0.14251 0.13686 0.0
H77 H 0.57179 0.16168 0.12521 0.0
H78 H 0.50342 0.12329 0.12371 0.0
H79 H 0.56862 0.59185 0.54073 0.0
C80 C 0.5755 0.5676 0.53549 0.0
C81 C 0.58738 0.55167 0.55178 0.0
C82 C 0.57176 0.55188 0.51262 0.0
H83 H 0.60207 0.50567 0.55769 0.0
C84 C 0.59486 0.51925 0.54512 0.0
C85 C 0.59096 0.50266 0.52253 0.0
C86 C 0.57994 0.51949 0.50638 0.0
C87 C 0.55778 0.56803 0.49533 0.0
H88 H 0.57788 0.50725 0.48893 0.0
C89 C 0.56668 0.60841 0.49844 0.0
C90 C 0.55246 0.6231 0.48225 0.0
C91 C 0.53445 0.5427 0.47567 0.0
H92 H 0.52593 0.51145 0.47287 0.0
C93 C 0.52107 0.55716 0.45943 0.0
H94 H 0.58438 0.62836 0.51349 0.0
C95 C 0.53003 0.59693 0.4626 0.0
H96 H 0.51943 0.60718 0.44951 0.0
H97 H 0.5034 0.53734 0.44433 0.0
H98 H 0.12009 0.60117 0.88884 0.0
C99 C 0.09176 0.5852 0.87967 0.0
C100 C 0.06415 0.55455 0.88754 0.0
C101 C 0.08259 0.59616 0.86025 0.0
H102 H 1.00551 0.51308 0.88226 0.0
C103 C 0.02748 0.53483 0.87547 0.0
C104 C 1.01824 0.54494 0.85569 0.0
C105 C 0.04631 0.5755 0.84811 0.0
C106 C 0.11041 0.63008 0.85281 0.0
H107 H 0.04005 0.58378 0.83284 0.0
C108 C 0.14197 0.62818 0.8446 0.0
C109 C 0.16793 0.6598 0.83664 0.0
C110 C 0.10477 0.66387 0.85315 0.0
H111 H 0.08026 0.66561 0.85931 0.0
C112 C 0.13094 0.69573 0.84567 0.0
H113 H 0.14615 0.60195 0.84429 0.0
C114 C 0.16253 0.69384 0.83749 0.0
H115 H 0.18237 0.71859 0.83153 0.0
H116 H 0.12662 0.72184 0.84609 0.0
H117 H 1.01634 0.58465 0.44829 0.0
C118 C 0.04455 0.60802 0.45388 0.0
C119 C 0.06753 0.62381 0.43803 0.0
C120 C 0.0574 0.62355 0.47685 0.0
H121 H 0.12179 0.66654 0.43319 0.0
C122 C 0.10359 0.65485 0.44531 0.0
C123 C 0.11688 0.67056 0.46801 0.0
C124 C 0.09392 0.65449 0.4837 0.0
C125 C 0.03272 0.60852 0.49382 0.0
H126 H 0.10441 0.66651 0.50128 0.0
C127 C 1.00948 0.56812 0.49157 0.0
C128 C 0.98766 0.55419 0.50826 0.0
C129 C 0.03282 0.63474 0.51271 0.0
H130 H 0.04954 0.66605 0.51472 0.0
C131 C 1.01114 0.62094 0.52923 0.0
H132 H 1.00915 0.54739 0.47725 0.0
C133 C 0.98887 0.58089 0.52713 0.0
H134 H 0.97207 0.57078 0.5401 0.0
H135 H 1.01154 0.64139 0.54369 0.0
H136 H 0.57905 0.03549 0.78448 0.0
C137 C 0.58108 0.06439 0.79065 0.0
C138 C 0.58192 0.08794 0.77518 0.0
C139 C 0.58065 0.0773 0.81349 0.0
H140 H 0.58154 0.14208 0.77036 0.0
C141 C 0.58161 0.12424 0.78237 0.0
C142 C 0.58159 0.13806 0.8048 0.0
C143 C 0.58267 0.11536 0.82038 0.0
C144 C 0.575 0.05038 0.82974 0.0
H145 H 0.58377 0.12722 0.83774 0.0
C146 C 0.58422 0.01803 0.82613 0.0
C147 C 0.57613 0.99187 0.841 0.0
C148 C 0.558 0.05576 0.84874 0.0
H149 H 0.5484 0.07837 0.85192 0.0
C150 C 0.55185 0.0313 0.86394 0.0
H151 H 0.59693 0.01253 0.8117 0.0
C152 C 0.5609 0.99981 0.86021 0.0
H153 H 0.55556 0.98135 0.8724 0.0
H154 H 0.53925 0.03636 0.87855 0.0
H155 H 0.54701 0.53765 0.11189 0.0
C156 C 0.57118 0.53362 0.11802 0.0
C157 C 0.59423 0.52732 0.10279 0.0
C158 C 0.57977 0.53607 0.141 0.0
H159 H 0.64506 0.52026 0.09912 0.0
C160 C 0.62638 0.52336 0.11068 0.0
C161 C 0.63608 0.52539 0.13335 0.0
C162 C 0.61256 0.53167 0.14845 0.0
C163 C 0.55636 0.54649 0.15716 0.0
H164 H 0.61982 0.53281 0.16591 0.0
C165 C 0.5172 0.53662 0.15122 0.0
C166 C 0.49735 0.55047 0.16615 0.0
C167 C 0.57422 0.56931 0.17853 0.0
H168 H 0.604 0.57873 0.18373 0.0
C169 C 0.55446 0.58186 0.19341 0.0
H170 H 0.50233 0.51901 0.135 0.0
C171 C 0.51663 0.57281 0.1873 0.0
H172 H 0.50231 0.58345 0.19923 0.0
H173 H 0.56884 0.59944 0.20973 0.0
C174 C 0.17638 0.5369 0.16185 0.0
C175 C 0.14653 0.49921 0.15923 0.0
C176 C 0.21397 0.54219 0.1613 0.0
C177 C 0.27556 0.48924 0.16513 0.0
H178 H 0.34593 0.57446 0.14122 0.0
C179 C 0.4274 0.50537 0.15357 0.0
C180 C 0.457 0.5434 0.16034 0.0
C181 C 0.38931 0.49922 0.15174 0.0
C182 C 0.3268 0.55058 0.14809 0.0
H183 H 0.13312 0.43745 0.15366 0.0
H184 H 0.19766 0.4463 0.15219 0.0
H185 H 0.28122 0.56602 0.14206 0.0
H186 H 0.46943 0.60481 0.16951 0.0
H187 H 0.40376 0.59431 0.16608 0.0
H188 H 0.32122 0.47373 0.17101 0.0
C189 C 0.19268 0.47217 0.15525 0.0
C190 C 0.28946 0.5458 0.14868 0.0
C191 C 0.15532 0.467 0.15593 0.0
C192 C 0.44743 0.5751 0.16424 0.0
C193 C 0.40958 0.56904 0.16219 0.0
C194 C 0.31282 0.49387 0.16439 0.0
C195 C 0.22286 0.50986 0.15798 0.0
C196 C 0.26308 0.51511 0.1573 0.0
C197 C 0.37976 0.53098 0.15634 0.0
C198 C 0.33921 0.52475 0.15598 0.0
H199 H 0.17077 0.56232 0.16428 0.0
H200 H 0.23608 0.5718 0.16376 0.0
H201 H 0.25677 0.46564 0.17231 0.0
H202 H 0.43366 0.48027 0.15062 0.0
H203 H 0.36729 0.46947 0.14694 0.0
C204 C 0.76508 0.21862 0.51687 0.0
C205 C 0.73142 0.20631 0.50233 0.0
C206 C 0.79577 0.25453 0.51703 0.0
C207 C 0.83853 0.32723 0.48308 0.0
H208 H 0.88057 0.40229 0.53918 0.0
C209 C 0.93584 0.49072 0.48726 0.0
C210 C 0.96319 0.51189 0.5061 0.0
C211 C 0.91026 0.45175 0.48625 0.0
C212 C 0.86986 0.38152 0.52341 0.0
H213 H 0.70341 0.22116 0.47632 0.0
H214 H 0.75732 0.28348 0.47626 0.0
H215 H 0.83151 0.33691 0.53849 0.0
H216 H 0.98675 0.50876 0.5381 0.0
H217 H 0.94335 0.44029 0.53601 0.0
H218 H 0.87711 0.37132 0.46793 0.0
C219 C 0.75994 0.26553 0.48757 0.0
C220 C 0.84158 0.34409 0.52305 0.0
C221 C 0.72909 0.23004 0.4877 0.0
C222 C 0.96557 0.49306 0.5235 0.0
C223 C 0.94048 0.45393 0.52234 0.0
C224 C 0.86729 0.36445 0.48346 0.0
C225 C 0.79344 0.27825 0.50235 0.0
C226 C 0.82531 0.31682 0.50286 0.0
C227 C 0.91191 0.43295 0.50391 0.0
C228 C 0.88301 0.39234 0.50359 0.0
H229 H 0.76749 0.2008 0.52832 0.0
H230 H 0.82137 0.26372 0.52854 0.0
H231 H 0.82662 0.30651 0.46731 0.0
H232 H 0.93331 0.50479 0.47372 0.0
H233 H 0.88839 0.4369 0.47193 0.0
C234 C 0.5951 0.68295 0.84557 0.0
C235 C 0.6205 0.67412 0.83352 0.0
C236 C 0.59197 0.71791 0.84543 0.0
C237 C 0.61677 0.80052 0.81487 0.0
H238 H 0.59084 0.84903 0.86735 0.0
C239 C 0.61448 0.95497 0.82863 0.0
C240 C 0.58198 0.95542 0.8367 0.0
C241 C 0.62082 0.92126 0.82691 0.0
C242 C 0.59801 0.83578 0.85253 0.0
H243 H 0.66351 0.69556 0.8124 0.0
H244 H 0.65935 0.75731 0.81284 0.0
H245 H 0.59964 0.79016 0.86772 0.0
H246 H 0.52937 0.91944 0.84755 0.0
H247 H 0.54098 0.86177 0.84515 0.0
H248 H 0.61589 0.84725 0.80002 0.0
C249 C 0.64074 0.73674 0.82182 0.0
C250 C 0.6028 0.80174 0.85265 0.0
C251 C 0.64345 0.70146 0.82174 0.0
C252 C 0.55531 0.92078 0.84196 0.0
C253 C 0.56185 0.88755 0.84052 0.0
C254 C 0.61251 0.83504 0.81489 0.0
C255 C 0.61482 0.74549 0.8336 0.0
C256 C 0.61162 0.7831 0.8337 0.0
C257 C 0.59495 0.88755 0.8334 0.0
C258 C 0.60246 0.85266 0.83361 0.0
H259 H 0.57779 0.66297 0.85529 0.0
H260 H 0.57126 0.72301 0.85448 0.0
H261 H 0.62314 0.78701 0.79984 0.0
H262 H 0.63562 0.98103 0.82443 0.0
H263 H 0.64657 0.92204 0.8213 0.0
C264 C 0.94686 0.51302 0.14743 0.0
C265 C 0.97551 0.54486 0.16259 0.0
C266 C 0.90916 0.50802 0.14562 0.0
C267 C 0.84312 0.54054 0.1751 0.0
H268 H 0.78421 0.50632 0.11639 0.0
C269 C 0.69962 0.55057 0.1578 0.0
C270 C 0.67187 0.52241 0.14054 0.0
C271 C 0.73552 0.55112 0.16179 0.0
C272 C 0.79984 0.51535 0.13302 0.0
H273 H 0.98653 0.59588 0.18803 0.0
H274 H 0.92152 0.58748 0.18482 0.0
H275 H 0.84764 0.51044 0.12064 0.0
H276 H 0.65976 0.47125 0.11493 0.0
H277 H 0.72131 0.47153 0.12214 0.0
H278 H 0.79532 0.54568 0.18746 0.0
C279 C 0.92773 0.56599 0.17441 0.0
C280 C 0.83653 0.51773 0.13546 0.0
C281 C 0.96528 0.57099 0.17617 0.0
C282 C 0.68048 0.49371 0.12819 0.0
C283 C 0.71612 0.49412 0.13222 0.0
C284 C 0.80635 0.5381 0.17267 0.0
C285 C 0.89896 0.53463 0.15897 0.0
C286 C 0.85896 0.53054 0.15652 0.0
C287 C 0.74471 0.5234 0.1487 0.0
C288 C 0.78401 0.52554 0.15157 0.0
H289 H 0.95365 0.49223 0.13677 0.0
H290 H 0.88795 0.48315 0.13374 0.0
H291 H 0.85901 0.54998 0.19169 0.0
H292 H 0.69424 0.57337 0.1675 0.0
H293 H 0.75656 0.57433 0.17458 0.0
C294 C 0.44135 0.91324 0.48391 0.0
C295 C 0.45203 0.95073 0.49687 0.0
C296 C 0.40563 0.88303 0.48386 0.0
C297 C 0.31004 0.86737 0.49434 0.0
H298 H 0.29399 0.75993 0.49174 0.0
C299 C 0.16529 0.73605 0.46421 0.0
C300 C 0.15459 0.70429 0.47504 0.0
C301 C 0.20145 0.76691 0.46968 0.0
C302 C 0.29806 0.78987 0.49275 0.0
H303 H 0.43449 0.98606 0.52039 0.0
H304 H 0.37224 0.93332 0.52046 0.0
H305 H 0.3583 0.81193 0.49636 0.0
H306 H 0.17302 0.68026 0.50042 0.0
H307 H 0.23657 0.73461 0.51014 0.0
H308 H 0.24989 0.84539 0.49067 0.0
C309 C 0.39114 0.92728 0.51009 0.0
C310 C 0.33484 0.81956 0.49513 0.0
C311 C 0.4268 0.95742 0.51012 0.0
C312 C 0.18053 0.70447 0.49188 0.0
C313 C 0.21692 0.73535 0.49729 0.0
C314 C 0.27333 0.83772 0.49192 0.0
C315 C 0.37998 0.88985 0.49679 0.0
C316 C 0.3412 0.85856 0.49567 0.0
C317 C 0.22782 0.76673 0.4861 0.0
C318 C 0.2669 0.79858 0.49076 0.0
H319 H 0.46038 0.90739 0.47357 0.0
H320 H 0.39773 0.85465 0.47324 0.0
H321 H 0.31392 0.89705 0.49451 0.0
H322 H 0.14571 0.73687 0.45133 0.0
H323 H 0.20908 0.79042 0.46059 0.0
C324 C 0.53215 0.43798 0.83969 0.0
C325 C 0.54896 0.46168 0.82458 0.0
C326 C 0.53683 0.40393 0.8403 0.0
C327 C 0.59773 0.35511 0.82441 0.0
H328 H 0.50936 0.25953 0.82601 0.0
C329 C 0.60419 0.20686 0.82725 0.0
C330 C 0.57755 0.17497 0.81123 0.0
C331 C 0.60148 0.24258 0.83151 0.0
C332 C 0.53434 0.28601 0.82565 0.0
H333 H 0.58236 0.46743 0.79761 0.0
H334 H 0.59146 0.40863 0.79901 0.0
H335 H 0.50368 0.32082 0.828 0.0
H336 H 0.52654 0.15484 0.78775 0.0
H337 H 0.52142 0.21658 0.7954 0.0
H338 H 0.62819 0.31997 0.82163 0.0
C339 C 0.57523 0.41667 0.81069 0.0
C340 C 0.53115 0.3212 0.82694 0.0
C341 C 0.57019 0.45047 0.80994 0.0
C342 C 0.54753 0.17901 0.80014 0.0
C343 C 0.5445 0.21431 0.80462 0.0
C344 C 0.60101 0.31994 0.82336 0.0
C345 C 0.55853 0.39291 0.82584 0.0
C346 C 0.56265 0.35608 0.82598 0.0
C347 C 0.57166 0.24672 0.82012 0.0
C348 C 0.5692 0.28485 0.82358 0.0
H349 H 0.51563 0.44594 0.85119 0.0
H350 H 0.52374 0.38641 0.85224 0.0
H351 H 0.62262 0.38154 0.82385 0.0
H352 H 0.62767 0.20451 0.83595 0.0
H353 H 0.62273 0.26699 0.84363 0.0
C354 C 0.64577 0.97847 0.50876 0.0
C355 C 0.62051 0.98793 0.49669 0.0
C356 C 0.63875 0.93932 0.50768 0.0
C357 C 0.58114 0.83863 0.47354 0.0
H358 H 0.60979 0.80669 0.52576 0.0
C359 C 0.5325 0.67621 0.47807 0.0
C360 C 0.56043 0.6654 0.48567 0.0
C361 C 0.54019 0.71564 0.48001 0.0
C362 C 0.60191 0.81526 0.511 0.0
H363 H 0.56855 0.96394 0.47366 0.0
H364 H 0.55511 0.89562 0.47253 0.0
H365 H 0.62169 0.87494 0.52794 0.0
H366 H 0.61829 0.68822 0.50183 0.0
H367 H 0.63131 0.75723 0.50575 0.0
H368 H 0.56051 0.77862 0.45683 0.0
C369 C 0.58081 0.91829 0.48256 0.0
C370 C 0.60883 0.85445 0.51219 0.0
C371 C 0.58814 0.95749 0.48345 0.0
C372 C 0.59594 0.6953 0.49597 0.0
C373 C 0.60349 0.73487 0.49815 0.0
C374 C 0.57381 0.79942 0.47245 0.0
C375 C 0.60607 0.90859 0.49463 0.0
C376 C 0.59857 0.86674 0.49346 0.0
C377 C 0.57583 0.74543 0.48989 0.0
C378 C 0.5841 0.78728 0.49116 0.0
H379 H 0.67111 1.00138 0.51903 0.0
H380 H 0.65929 0.93326 0.51688 0.0
H381 H 0.57354 0.84692 0.45861 0.0
H382 H 0.50449 0.65416 0.4706 0.0
H383 H 0.51807 0.72284 0.47387 0.0
C384 C 0.73338 0.54095 0.84697 0.0
C385 C 0.70298 0.52592 0.82966 0.0
C386 C 0.76054 0.5266 0.84646 0.0
C387 C 0.80713 0.49031 0.80741 0.0
H388 H 0.85329 0.4734 0.85987 0.0
C389 C 0.95398 0.48733 0.84481 0.0
C390 C 0.97845 0.52647 0.84443 0.0
C391 C 0.91523 0.47244 0.83771 0.0
C392 C 0.84016 0.47692 0.84487 0.0
H393 H 0.67603 0.48343 0.79867 0.0
H394 H 0.72436 0.45923 0.79748 0.0
H395 H 0.79194 0.47498 0.85984 0.0
H396 H 0.98115 0.57956 0.83478 0.0
H397 H 0.9144 0.55296 0.82153 0.0
H398 H 0.85692 0.49574 0.79322 0.0
C399 C 0.72693 0.48174 0.81147 0.0
C400 C 0.80533 0.4782 0.84495 0.0
C401 C 0.6995 0.49569 0.81214 0.0
C402 C 0.96365 0.54915 0.83503 0.0
C403 C 0.92521 0.53394 0.82745 0.0
C404 C 0.84222 0.48962 0.80747 0.0
C405 C 0.75784 0.49736 0.82852 0.0
C406 C 0.78942 0.48661 0.82659 0.0
C407 C 0.90055 0.49605 0.82949 0.0
C408 C 0.85968 0.48466 0.82657 0.0
H409 H 0.73644 0.56409 0.8607 0.0
H410 H 0.78449 0.53949 0.85964 0.0
H411 H 0.79541 0.49696 0.79309 0.0
H412 H 0.96449 0.46864 0.85139 0.0
H413 H 0.89657 0.44308 0.8394 0.0
C414 C 0.2147 0.68422 0.17396 0.0
C415 C 0.17902 0.67603 0.16307 0.0
C416 C 0.2463 0.71825 0.17263 0.0
C417 C 0.27476 0.81745 0.16261 0.0
H418 H 0.37005 0.81322 0.1553 0.0
C419 C 0.41068 0.95732 0.16382 0.0
C420 C 0.44218 0.96122 0.17784 0.0
C421 C 0.37865 0.92126 0.15779 0.0
C422 C 0.34368 0.8149 0.15741 0.0
H423 H 0.14809 0.69673 0.14228 0.0
H424 H 0.20349 0.75664 0.14005 0.0
H425 H 0.31317 0.75267 0.15345 0.0
H426 H 0.46587 0.93003 0.1954 0.0
H427 H 0.40998 0.86742 0.18523 0.0
H428 H 0.30541 0.87974 0.16726 0.0
C429 C 0.20697 0.73677 0.14967 0.0
C430 C 0.31113 0.78025 0.15637 0.0
C431 C 0.17534 0.70254 0.15091 0.0
C432 C 0.4418 0.92797 0.18478 0.0
C433 C 0.4099 0.892 0.17875 0.0
C434 C 0.30735 0.85215 0.16372 0.0
C435 C 0.24282 0.74485 0.16042 0.0
C436 C 0.2765 0.78123 0.15942 0.0
C437 C 0.37763 0.88841 0.16561 0.0
C438 C 0.34233 0.85132 0.1616 0.0
H439 H 0.21827 0.66418 0.18342 0.0
H440 H 0.27343 0.72398 0.18139 0.0
H441 H 0.24853 0.81916 0.1652 0.0
H442 H 0.41013 0.9825 0.1583 0.0
H443 H 0.3544 0.9193 0.14742 0.0
C444 C 0.60579 0.18755 0.514 0.0
C445 C 0.57518 0.15688 0.49949 0.0
C446 C 0.61225 0.22658 0.51498 0.0
C447 C 0.58717 0.29043 0.484 0.0
H448 H 0.61313 0.35914 0.54212 0.0
C449 C 0.56949 0.43431 0.50011 0.0
C450 C 0.596 0.4662 0.51622 0.0
C451 C 0.57125 0.3982 0.49645 0.0
C452 C 0.60648 0.3406 0.52571 0.0
H453 H 0.52752 0.14288 0.47452 0.0
H454 H 0.53823 0.21058 0.47648 0.0
H455 H 0.60841 0.29325 0.5391 0.0
H456 H 0.6466 0.48584 0.54004 0.0
H457 H 0.64975 0.42302 0.53359 0.0
H458 H 0.58448 0.33763 0.47069 0.0
C459 C 0.55774 0.20482 0.48685 0.0
C460 C 0.60379 0.30274 0.52398 0.0
C461 C 0.55138 0.16594 0.48586 0.0
C462 C 0.62536 0.46167 0.52778 0.0
C463 C 0.62711 0.42562 0.52413 0.0
C464 C 0.5898 0.32829 0.48574 0.0
C465 C 0.58814 0.2357 0.50149 0.0
C466 C 0.59365 0.27696 0.50313 0.0
C467 C 0.59957 0.39316 0.5088 0.0
C468 C 0.59911 0.35373 0.50665 0.0
H469 H 0.6246 0.18137 0.5247 0.0
H470 H 0.63617 0.24961 0.52627 0.0
H471 H 0.57995 0.27164 0.46763 0.0
H472 H 0.54629 0.43666 0.49109 0.0
H473 H 0.54938 0.37377 0.48465 0.0
C474 C 0.42042 0.56591 0.80472 0.0
C475 C 0.45331 0.59248 0.8192 0.0
C476 C 0.38992 0.57493 0.80161 0.0
C477 C 0.3622 0.65637 0.80976 0.0
H478 H 0.26488 0.5749 0.81515 0.0
C479 C 0.23744 0.68571 0.83605 0.0
C480 C 0.20066 0.65683 0.82773 0.0
C481 C 0.26852 0.67982 0.8301 0.0
C482 C 0.29162 0.59777 0.8131 0.0
H483 H 0.48092 0.64956 0.84136 0.0
H484 H 0.42733 0.66514 0.83625 0.0
H485 H 0.31906 0.56042 0.81404 0.0
H486 H 0.16715 0.60096 0.80528 0.0
H487 H 0.22138 0.59093 0.79449 0.0
H488 H 0.33472 0.69401 0.80944 0.0
C489 C 0.4252 0.63759 0.82707 0.0
C490 C 0.32271 0.58945 0.81251 0.0
C491 C 0.45569 0.62854 0.83018 0.0
C492 C 0.19535 0.6233 0.81219 0.0
C493 C 0.22633 0.61757 0.80608 0.0
C494 C 0.33098 0.6647 0.8103 0.0
C495 C 0.39187 0.61068 0.81294 0.0
C496 C 0.35844 0.61882 0.81124 0.0
C497 C 0.2632 0.64508 0.81559 0.0
C498 C 0.29551 0.63563 0.81235 0.0
H499 H 0.41814 0.53804 0.79593 0.0
H500 H 0.3647 0.55383 0.79045 0.0
H501 H 0.38937 0.67942 0.80849 0.0
H502 H 0.24213 0.71174 0.84812 0.0
H503 H 0.29655 0.70141 0.83786 0.0
C504 C 0.91444 0.38573 0.17319 0.0
C505 C 0.93194 0.3863 0.154 0.0
C506 C 0.87868 0.35615 0.17343 0.0
C507 C 0.8069 0.25787 0.14303 0.0
H508 H 0.73931 0.28981 0.17475 0.0
C509 C 0.64469 0.16466 0.13399 0.0
C510 C 0.62831 0.16334 0.15369 0.0
C511 C 0.68297 0.18896 0.13446 0.0
C512 C 0.75799 0.28034 0.16605 0.0
H513 H 0.92632 0.35622 0.12008 0.0
H514 H 0.86288 0.30483 0.12014 0.0
H515 H 0.80332 0.33794 0.17412 0.0
H516 H 0.63922 0.18559 0.18936 0.0
H517 H 0.70622 0.22845 0.19017 0.0
H518 H 0.7606 0.20036 0.1344 0.0
C519 C 0.87715 0.32681 0.13521 0.0
C520 C 0.79478 0.3079 0.16571 0.0
C521 C 0.91337 0.35628 0.1351 0.0
C522 C 0.65117 0.18597 0.17396 0.0
C523 C 0.68937 0.21064 0.17439 0.0
C524 C 0.76983 0.23034 0.14316 0.0
C525 C 0.85917 0.32672 0.15432 0.0
C526 C 0.81984 0.29703 0.15432 0.0
C527 C 0.70551 0.21274 0.1546 0.0
C528 C 0.7451 0.24132 0.15477 0.0
H529 H 0.92836 0.40835 0.18808 0.0
H530 H 0.86628 0.35653 0.18863 0.0
H531 H 0.8255 0.24833 0.13431 0.0
H532 H 0.62775 0.14721 0.11816 0.0
H533 H 0.69463 0.19018 0.11895 0.0
C534 C 0.0897 0.54907 0.0823 0.0
C535 C 0.06467 0.51601 0.08963 0.0
C536 C 0.09244 0.54779 0.05973 0.0
C537 C 0.04024 0.49418 0.00381 0.0
H538 H 0.13677 0.55489 0.98575 0.0
C539 C 0.05526 0.50619 0.91232 0.0
C540 C 0.072 0.54513 0.90931 0.0
C541 C 0.05787 0.49788 0.9335 0.0
C542 C 0.10967 0.53773 0.99056 0.0
H543 H 0.02305 0.45544 0.07891 0.0
H544 H 0.02826 0.45299 0.03929 0.0
H545 H 0.13379 0.54796 0.02444 0.0
H546 H 0.1062 0.60564 0.92618 0.0
H547 H 0.11154 0.59095 0.96299 0.0
H548 H 1.01619 0.48429 0.96987 0.0
C549 C 0.04541 0.48011 0.0511 0.0
C550 C 0.10787 0.53388 0.01271 0.0
C551 C 0.04247 0.48148 0.07379 0.0
C552 C 0.09336 0.57529 0.92778 0.0
C553 C 0.09632 0.5669 0.94892 0.0
C554 C 0.04212 0.49771 0.98158 0.0
C555 C 0.07048 0.51332 0.04382 0.0
C556 C 0.07298 0.51299 0.01975 0.0
C557 C 0.07775 0.52825 0.95206 0.0
C558 C 0.07671 0.52033 0.97488 0.0
H559 H 0.10704 0.57633 0.09396 0.0
H560 H 0.11134 0.57422 0.05475 0.0
H561 H 1.01286 0.47822 0.00865 0.0
H562 H 0.03925 0.48217 0.89836 0.0
H563 H 0.04372 0.46777 0.93544 0.0
C564 C 0.55075 0.04524 0.41535 0.0
C565 C 0.58594 0.06722 0.42887 0.0
C566 C 0.5467 0.04583 0.39271 0.0
C567 C 0.59203 0.10281 0.3506 0.0
H568 H 0.52164 0.00758 0.30972 0.0
C569 C 0.56677 0.07803 0.25271 0.0
C570 C 0.52838 0.06019 0.24342 0.0
C571 C 0.5772 0.08272 0.27564 0.0
C572 C 0.54133 0.03442 0.32096 0.0
H573 H 0.64466 0.10696 0.42909 0.0
H574 H 0.63781 0.10713 0.38936 0.0
H575 H 0.53399 0.00654 0.34881 0.0
H576 H 0.47103 0.03664 0.2511 0.0
H577 H 0.48919 0.04416 0.29078 0.0
H578 H 0.59952 0.13027 0.32225 0.0
C579 C 0.61313 0.09001 0.39639 0.0
C580 C 0.54829 0.03393 0.34341 0.0
C581 C 0.61711 0.08969 0.41915 0.0
C582 C 0.50082 0.04953 0.25766 0.0
C583 C 0.51117 0.05387 0.28037 0.0
C584 C 0.58536 0.10315 0.32796 0.0
C585 C 0.57784 0.06807 0.38287 0.0
C586 C 0.57307 0.06828 0.35865 0.0
C587 C 0.54935 0.06943 0.28949 0.0
C588 C 0.55932 0.06911 0.31308 0.0
H589 H 0.52601 0.02799 0.4223 0.0
H590 H 0.51888 0.02927 0.383 0.0
H591 H 0.61109 0.12989 0.36186 0.0
H592 H 0.58859 0.08653 0.24213 0.0
H593 H 0.60686 0.09492 0.28234 0.0
C594 C 0.5588 0.58781 0.75024 0.0
C595 C 0.58718 0.58135 0.76146 0.0
C596 C 0.55945 0.592 0.72806 0.0
C597 C 0.62224 0.61429 0.68493 0.0
H598 H 0.52984 0.5525 0.64337 0.0
C599 C 0.62079 0.57136 0.59089 0.0
C600 C 0.59016 0.56704 0.57591 0.0
C601 C 0.62128 0.5807 0.61383 0.0
C602 C 0.55573 0.57063 0.65477 0.0
H603 H 0.63894 0.57505 0.75823 0.0
H604 H 0.63993 0.5822 0.71961 0.0
H605 H 0.52883 0.55412 0.6831 0.0
H606 H 0.53686 0.57098 0.57322 0.0
H607 H 0.53803 0.5881 0.61342 0.0
H608 H 0.64932 0.63024 0.65658 0.0
C609 C 0.61732 0.5843 0.72801 0.0
C610 C 0.55515 0.57145 0.67756 0.0
C611 C 0.61656 0.57987 0.75011 0.0
C612 C 0.56092 0.57427 0.58435 0.0
C613 C 0.5614 0.58364 0.60737 0.0
C614 C 0.6228 0.61361 0.66216 0.0
C615 C 0.58865 0.59014 0.71669 0.0
C616 C 0.58856 0.59259 0.69282 0.0
C617 C 0.59119 0.58607 0.62238 0.0
C618 C 0.58972 0.59106 0.64675 0.0
H619 H 0.5358 0.58923 0.75848 0.0
H620 H 0.53713 0.59676 0.71982 0.0
H621 H 0.6483 0.63141 0.69635 0.0
H622 H 0.64393 0.56638 0.58485 0.0
H623 H 0.6445 0.58195 0.62485 0.0
C624 C 0.62839 0.10296 0.58393 0.0
C625 C 0.60667 0.0697 0.56715 0.0
C626 C 0.62786 0.10062 0.60646 0.0
C627 C 0.56664 0.0413 0.64248 0.0
H628 H 0.65427 0.09815 0.68809 0.0
C629 C 0.61114 0.06618 0.74393 0.0
C630 C 0.58204 0.07497 0.75118 0.0
C631 C 0.61461 0.06056 0.72123 0.0
C632 C 0.62965 0.08167 0.6755 0.0
H633 H 0.56897 0.00745 0.56089 0.0
H634 H 0.56846 1.00342 0.59986 0.0
H635 H 0.66149 0.09924 0.64892 0.0
H636 H 0.5327 0.08273 0.74056 0.0
H637 H 0.53843 0.0726 0.70107 0.0
H638 H 0.53475 0.02389 0.66893 0.0
C639 C 0.58519 0.0315 0.59574 0.0
C640 C 0.6337 0.08272 0.65311 0.0
C641 C 0.58561 0.03385 0.57335 0.0
C642 C 0.55539 0.07599 0.73534 0.0
C643 C 0.55863 0.07005 0.71274 0.0
C644 C 0.56259 0.04035 0.6648 0.0
C645 C 0.60568 0.06496 0.61259 0.0
C646 C 0.60215 0.06282 0.63636 0.0
C647 C 0.58875 0.06315 0.70544 0.0
C648 C 0.59392 0.06092 0.6816 0.0
H649 H 0.64494 0.13098 0.57971 0.0
H650 H 0.64378 0.12701 0.61905 0.0
H651 H 0.54165 0.02598 0.63005 0.0
H652 H 0.63216 0.06552 0.75589 0.0
H653 H 0.63789 0.0549 0.71606 0.0
C654 C 0.59584 0.53381 0.90415 0.0
C655 C 0.58005 0.55669 0.89598 0.0
C656 C 0.59495 0.52925 0.92625 0.0
C657 C 0.54815 0.54206 0.97587 0.0
H658 H 0.63342 0.53571 0.00695 0.0
C659 C 0.57481 0.55395 0.07174 0.0
C660 C 0.58633 0.52688 0.07866 0.0
C661 C 0.57114 0.55592 0.04921 0.0
C662 C 0.60926 0.53711 -0.00158 0.0
H663 H 0.55112 0.59294 0.90466 0.0
H664 H 0.55073 0.58619 0.94341 0.0
H665 H 0.63376 0.54358 0.96846 0.0
H666 H 0.60082 0.47916 0.06702 0.0
H667 H 0.59527 0.48332 0.0279 0.0
H668 H 0.52437 0.53675 0.00633 0.0
C669 C 0.56292 0.57083 0.93263 0.0
C670 C 0.60933 0.54146 0.97629 0.0
C671 C 0.56336 0.57494 0.91042 0.0
C672 C 0.59272 0.50094 0.06239 0.0
C673 C 0.58948 0.50323 0.03996 0.0
C674 C 0.54834 0.53823 -0.00184 0.0
C675 C 0.57873 0.54792 0.94088 0.0
C676 C 0.57868 0.54376 0.96462 0.0
C677 C 0.57926 0.53115 0.03317 0.0
C678 C 0.5788 0.53545 0.00959 0.0
H679 H 0.60848 0.51893 0.89338 0.0
H680 H 0.60667 0.51068 0.93176 0.0
H681 H 0.52377 0.54311 0.96741 0.0
H682 H 0.57008 0.57468 0.08381 0.0
H683 H 0.5634 0.57786 0.04445 0.0
C684 C 0.08094 0.57452 0.2423 0.0
C685 C 0.06455 0.537 0.22844 0.0
C686 C 0.0757 0.57945 0.26464 0.0
C687 C 0.05549 0.53185 0.31189 0.0
H688 H 0.02079 0.61017 0.333 0.0
C689 C 0.03936 0.56836 0.4045 0.0
C690 C 0.05474 0.60867 0.41374 0.0
C691 C 0.03318 0.55512 0.38133 0.0
C692 C 0.03072 0.58836 0.32746 0.0
H693 H 0.03108 0.47504 0.2274 0.0
H694 H 0.02288 0.48375 0.26675 0.0
H695 H 0.02765 0.59647 0.29384 0.0
H696 H 0.073 0.6664 0.40606 0.0
H697 H 0.06328 0.64375 0.36605 0.0
H698 H 0.06043 0.52502 0.34565 0.0
C699 C 0.03934 0.50926 0.26014 0.0
C700 C 0.03456 0.58051 0.30502 0.0
C701 C 0.04403 0.50435 0.23765 0.0
C702 C 0.06159 0.63518 0.39941 0.0
C703 C 0.05559 0.62207 0.37639 0.0
C704 C 0.05219 0.54012 0.33447 0.0
C705 C 0.05449 0.54694 0.27369 0.0
C706 C 0.04768 0.55276 0.29712 0.0
C707 C 0.04218 0.58196 0.36702 0.0
C708 C 0.04055 0.56913 0.34262 0.0
H709 H 0.09673 0.60031 0.23574 0.0
H710 H 0.08804 0.60878 0.27485 0.0
H711 H 0.06569 0.51033 0.30617 0.0
H712 H 0.03384 0.54729 0.41517 0.0
H713 H 0.02224 0.52397 0.37466 0.0
loop_
_geom_bond_atom_site_label_1
_geom_bond_atom_site_label_2
_geom_bond_distance
_geom_bond_site_symmetry_2
_ccdc_geom_bond_type
Tb0 O3 2.453 . S
Tb0 O4 2.596 . S
Tb0 O5 2.374 . S
Tb0 O13 2.343 . S
Tb0 O15 2.353 . S
Tb0 O17 2.427 . S
Tb0 O18 2.513 . S
C1 O5 1.251 . S
C1 O7 1.263 . S
Tb2 O4 2.343 . S
Tb2 O7 2.353 . S
Tb2 O10 2.427 1_455 S
Tb2 O11 2.513 1_455 S
Tb2 O12 2.453 . S
Tb2 O13 2.596 . S
Tb2 O14 2.374 . S
O3 Tb0 2.453 . S
O3 C19 1.245 1_455 S
O4 Tb0 2.596 . S
O4 Tb2 2.343 . S
O4 C19 1.259 1_455 S
O5 Tb0 2.374 . S
O5 C1 1.251 . S
C6 O10 1.275 . S
C6 O11 1.246 . S
O7 C1 1.263 . S
O7 Tb2 2.353 . S
C8 O12 1.245 . S
C8 O13 1.259 . S
C9 O14 1.250 . S
C9 O15 1.263 . S
O10 Tb2 2.427 1_655 S
O10 C6 1.275 . S
O11 Tb2 2.513 1_655 S
O11 C6 1.246 . S
O12 Tb2 2.453 . S
O12 C8 1.245 . S
O13 Tb0 2.343 . S
O13 Tb2 2.596 . S
O13 C8 1.259 . S
O14 Tb2 2.374 . S
O14 C9 1.250 . S
O15 Tb0 2.353 . S
O15 C9 1.263 . S
C16 O17 1.275 . S
C16 O18 1.246 . S
O17 Tb0 2.427 . S
O17 C16 1.275 . S
O18 Tb0 2.513 . S
O18 C16 1.246 . S
C19 O3 1.245 1_655 S
C19 O4 1.259 1_655 S
Tb20 O23 2.453 . S
Tb20 O24 2.596 . S
Tb20 O25 2.374 . S
Tb20 O33 2.343 . S
Tb20 O35 2.353 . S
Tb20 O37 2.427 1_545 S
Tb20 O38 2.513 1_545 S
C21 O25 1.251 . S
C21 O27 1.263 . S
Tb22 O24 2.343 . S
Tb22 O27 2.353 . S
Tb22 O30 2.427 . S
Tb22 O31 2.513 . S
Tb22 O32 2.453 . S
Tb22 O33 2.596 . S
Tb22 O34 2.374 . S
O23 Tb20 2.453 . S
O23 C39 1.245 . S
O24 Tb20 2.596 . S
O24 Tb22 2.343 . S
O24 C39 1.259 . S
O25 Tb20 2.374 . S
O25 C21 1.251 . S
C26 O30 1.275 . S
C26 O31 1.246 . S
O27 C21 1.263 . S
O27 Tb22 2.353 . S
C28 O32 1.245 . S
C28 O33 1.259 . S
C29 O34 1.250 . S
C29 O35 1.263 . S
O30 Tb22 2.427 . S
O30 C26 1.275 . S
O31 Tb22 2.513 . S
O31 C26 1.246 . S
O32 Tb22 2.453 . S
O32 C28 1.245 . S
O33 Tb20 2.343 . S
O33 Tb22 2.596 . S
O33 C28 1.259 . S
O34 Tb22 2.374 . S
O34 C29 1.250 . S
O35 Tb20 2.353 . S
O35 C29 1.263 . S
C36 O37 1.275 . S
C36 O38 1.246 . S
O37 Tb20 2.427 1_565 S
O37 C36 1.275 . S
O38 Tb20 2.513 1_565 S
O38 C36 1.246 . S
C39 O23 1.245 . S
C39 O24 1.259 . S
Tb40 O43 2.453 . S
Tb40 O44 2.596 . S
Tb40 O45 2.374 . S
Tb40 O53 2.343 . S
Tb40 O55 2.353 . S
Tb40 O57 2.427 . S
Tb40 O58 2.513 . S
C41 O45 1.251 . S
C41 O47 1.263 . S
Tb42 O44 2.343 . S
Tb42 O47 2.353 . S
Tb42 O50 2.427 . S
Tb42 O51 2.513 . S
Tb42 O52 2.453 . S
Tb42 O53 2.596 . S
Tb42 O54 2.374 . S
O43 Tb40 2.453 . S
O43 C59 1.245 . S
O44 Tb40 2.596 . S
O44 Tb42 2.343 . S
O44 C59 1.259 . S
O45 Tb40 2.374 . S
O45 C41 1.251 . S
C46 O50 1.275 . S
C46 O51 1.246 . S
O47 C41 1.263 . S
O47 Tb42 2.353 . S
C48 O52 1.245 . S
C48 O53 1.259 . S
C49 O54 1.250 . S
C49 O55 1.263 . S
O50 Tb42 2.427 . S
O50 C46 1.275 . S
O51 Tb42 2.513 . S
O51 C46 1.246 . S
O52 Tb42 2.453 . S
O52 C48 1.245 . S
O53 Tb40 2.343 . S
O53 Tb42 2.596 . S
O53 C48 1.259 . S
O54 Tb42 2.374 . S
O54 C49 1.250 . S
O55 Tb40 2.353 . S
O55 C49 1.263 . S
C56 O57 1.275 . S
C56 O58 1.246 . S
O57 Tb40 2.427 . S
O57 C56 1.275 . S
O58 Tb40 2.513 . S
O58 C56 1.246 . S
C59 O43 1.245 . S
C59 O44 1.259 . S
H60 C61 0.949 . S
C61 H60 0.949 . S
C61 C62 1.395 . S
C61 C63 1.391 . S
C62 C61 1.395 . S
C62 C65 1.390 . S
C63 C61 1.391 . S
C63 C67 1.387 . S
C63 C68 1.491 . S
H64 C65 0.950 . S
C65 C62 1.390 . S
C65 H64 0.950 . S
C65 C66 1.378 . S
C66 C65 1.378 . S
C66 C67 1.409 . S
C67 C63 1.387 . S
C67 C66 1.409 . S
C67 H69 0.951 . S
C68 C63 1.491 . S
C68 C70 1.382 . S
C68 C72 1.404 . S
H69 C67 0.951 . S
C70 C68 1.382 . S
C70 C71 1.390 . S
C70 H75 0.949 . S
C71 C70 1.390 . S
C71 C76 1.399 . S
C72 C68 1.404 . S
C72 H73 0.950 . S
C72 C74 1.375 . S
H73 C72 0.950 . S
C74 C72 1.375 . S
C74 C76 1.382 . S
C74 H78 0.950 . S
H75 C70 0.949 . S
C76 C71 1.399 . S
C76 C74 1.382 . S
C76 H77 0.952 . S
H77 C76 0.952 . S
H78 C74 0.950 . S
H79 C80 0.949 . S
C80 H79 0.949 . S
C80 C81 1.395 . S
C80 C82 1.391 . S
C81 C80 1.395 . S
C81 C84 1.390 . S
C82 C80 1.391 . S
C82 C86 1.387 . S
C82 C87 1.491 . S
H83 C84 0.950 . S
C84 C81 1.390 . S
C84 H83 0.950 . S
C84 C85 1.378 . S
C85 C84 1.378 . S
C85 C86 1.409 . S
C86 C82 1.387 . S
C86 C85 1.409 . S
C86 H88 0.951 . S
C87 C82 1.491 . S
C87 C89 1.382 . S
C87 C91 1.404 . S
H88 C86 0.951 . S
C89 C87 1.382 . S
C89 C90 1.390 . S
C89 H94 0.949 . S
C90 C89 1.390 . S
C90 C95 1.399 . S
C91 C87 1.404 . S
C91 H92 0.950 . S
C91 C93 1.375 . S
H92 C91 0.950 . S
C93 C91 1.375 . S
C93 C95 1.382 . S
C93 H97 0.950 . S
H94 C89 0.949 . S
C95 C90 1.399 . S
C95 C93 1.382 . S
C95 H96 0.952 . S
H96 C95 0.952 . S
H97 C93 0.950 . S
H98 C99 0.949 . S
C99 H98 0.949 . S
C99 C100 1.395 . S
C99 C101 1.391 . S
C100 C99 1.395 . S
C100 C103 1.390 . S
C101 C99 1.391 . S
C101 C105 1.387 . S
C101 C106 1.491 . S
H102 C103 0.950 . S
C103 C100 1.390 . S
C103 H102 0.950 . S
C103 C104 1.378 . S
C104 C103 1.378 . S
C104 C105 1.409 . S
C105 C101 1.387 . S
C105 C104 1.409 . S
C105 H107 0.951 . S
C106 C101 1.491 . S
C106 C108 1.382 . S
C106 C110 1.404 . S
H107 C105 0.951 . S
C108 C106 1.382 . S
C108 C109 1.390 . S
C108 H113 0.949 . S
C109 C108 1.390 . S
C109 C114 1.399 . S
C110 C106 1.404 . S
C110 H111 0.950 . S
C110 C112 1.375 . S
H111 C110 0.950 . S
C112 C110 1.375 . S
C112 C114 1.382 . S
C112 H116 0.950 . S
H113 C108 0.949 . S
C114 C109 1.399 . S
C114 C112 1.382 . S
C114 H115 0.952 . S
H115 C114 0.952 . S
H116 C112 0.950 . S
H117 C118 0.949 . S
C118 H117 0.949 . S
C118 C119 1.395 1_655 S
C118 C120 1.389 . S
C119 C118 1.395 1_455 S
C119 C122 1.390 . S
C120 C118 1.389 . S
C120 C124 1.370 1_655 S
C120 C125 1.511 . S
H121 C122 0.950 . S
C122 C119 1.390 . S
C122 H121 0.950 . S
C122 C123 1.378 . S
C123 C122 1.378 . S
C123 C124 1.409 . S
C124 C120 1.370 1_455 S
C124 C123 1.409 . S
C124 H126 0.951 . S
C125 C120 1.511 . S
C125 C127 1.382 . S
C125 C129 1.404 . S
H126 C124 0.951 . S
C127 C125 1.382 . S
C127 C128 1.390 . S
C127 H132 0.949 . S
C128 C127 1.390 . S
C128 C133 1.399 . S
C129 C125 1.404 . S
C129 H130 0.950 . S
C129 C131 1.375 . S
H130 C129 0.950 . S
C131 C129 1.375 . S
C131 C133 1.382 . S
C131 H135 0.950 . S
H132 C127 0.949 . S
C133 C128 1.399 . S
C133 C131 1.382 . S
C133 H134 0.952 . S
H134 C133 0.952 . S
H135 C131 0.950 . S
H136 C137 0.949 . S
C137 H136 0.949 . S
C137 C138 1.395 . S
C137 C139 1.391 . S
C138 C137 1.395 . S
C138 C141 1.390 . S
C139 C137 1.391 . S
C139 C143 1.387 . S
C139 C144 1.491 . S
H140 C141 0.950 . S
C141 C138 1.390 . S
C141 H140 0.950 . S
C141 C142 1.378 . S
C142 C141 1.378 . S
C142 C143 1.409 . S
C143 C139 1.387 . S
C143 C142 1.409 . S
C143 H145 0.951 . S
C144 C139 1.491 . S
C144 C146 1.382 1_545 S
C144 C148 1.404 . S
H145 C143 0.951 . S
C146 C144 1.382 1_565 S
C146 C147 1.390 . S
C146 H151 0.949 . S
C147 C146 1.390 . S
C147 C152 1.399 . S
C148 C144 1.404 . S
C148 H149 0.950 . S
C148 C150 1.375 1_545 S
H149 C148 0.950 . S
C150 C148 1.375 1_565 S
C150 C152 1.382 . S
C150 H154 0.950 . S
H151 C146 0.949 . S
C152 C147 1.399 . S
C152 C150 1.382 . S
C152 H153 0.952 . S
H153 C152 0.952 . S
H154 C150 0.950 . S
H155 C156 0.949 . S
C156 H155 0.949 . S
C156 C157 1.395 . S
C156 C158 1.391 . S
C157 C156 1.395 . S
C157 C160 1.390 . S
C158 C156 1.391 . S
C158 C162 1.387 . S
C158 C163 1.491 . S
H159 C160 0.950 . S
C160 C157 1.390 . S
C160 H159 0.950 . S
C160 C161 1.378 . S
C161 C160 1.378 . S
C161 C162 1.409 . S
C162 C158 1.387 . S
C162 C161 1.409 . S
C162 H164 0.951 . S
C163 C158 1.491 . S
C163 C165 1.382 . S
C163 C167 1.404 . S
H164 C162 0.951 . S
C165 C163 1.382 . S
C165 C166 1.390 . S
C165 H170 0.949 . S
C166 C165 1.390 . S
C166 C171 1.399 . S
C167 C163 1.404 . S
C167 H168 0.950 . S
C167 C169 1.375 . S
H168 C167 0.950 . S
C169 C167 1.375 . S
C169 C171 1.382 . S
C169 H173 0.950 . S
H170 C165 0.949 . S
C171 C166 1.399 . S
C171 C169 1.382 . S
C171 H172 0.952 . S
H172 C171 0.952 . S
H173 C169 0.950 . S
C174 C175 1.349 . S
C174 C176 1.327 . S
C174 H199 0.950 . S
C175 C174 1.349 . S
C175 C191 1.349 . S
C176 C174 1.327 . S
C176 C195 1.429 . S
C176 H200 0.950 . S
C177 C194 1.574 . S
C177 C196 1.368 . S
C177 H201 0.949 . S
H178 C182 0.949 . S
C179 C180 1.349 . S
C179 C181 1.327 . S
C179 H202 0.950 . S
C180 C179 1.349 . S
C180 C192 1.349 . S
C181 C179 1.327 . S
C181 C197 1.429 . S
C181 H203 0.950 . S
C182 H178 0.949 . S
C182 C190 1.574 . S
C182 C198 1.368 . S
H183 C191 0.950 . S
H184 C189 0.950 . S
H185 C190 0.949 . S
H186 C192 0.950 . S
H187 C193 0.950 . S
H188 C194 0.949 . S
C189 H184 0.950 . S
C189 C191 1.327 . S
C189 C195 1.429 . S
C190 C182 1.574 . S
C190 H185 0.949 . S
C190 C196 1.368 . S
C191 C175 1.349 . S
C191 H183 0.950 . S
C191 C189 1.327 . S
C192 C180 1.349 . S
C192 H186 0.950 . S
C192 C193 1.327 . S
C193 H187 0.950 . S
C193 C192 1.327 . S
C193 C197 1.429 . S
C194 C177 1.574 . S
C194 H188 0.949 . S
C194 C198 1.368 . S
C195 C176 1.429 . S
C195 C189 1.429 . S
C195 C196 1.523 . S
C196 C177 1.368 . S
C196 C190 1.368 . S
C196 C195 1.523 . S
C197 C181 1.429 . S
C197 C193 1.429 . S
C197 C198 1.523 . S
C198 C182 1.368 . S
C198 C194 1.368 . S
C198 C197 1.523 . S
H199 C174 0.950 . S
H200 C176 0.950 . S
H201 C177 0.949 . S
H202 C179 0.950 . S
H203 C181 0.950 . S
C204 C205 1.349 . S
C204 C206 1.327 . S
C204 H229 0.950 . S
C205 C204 1.349 . S
C205 C221 1.349 . S
C206 C204 1.327 . S
C206 C225 1.429 . S
C206 H230 0.950 . S
C207 C224 1.574 . S
C207 C226 1.368 . S
C207 H231 0.949 . S
H208 C212 0.949 . S
C209 C210 1.349 . S
C209 C211 1.327 . S
C209 H232 0.950 . S
C210 C209 1.349 . S
C210 C222 1.349 . S
C211 C209 1.327 . S
C211 C227 1.429 . S
C211 H233 0.950 . S
C212 H208 0.949 . S
C212 C220 1.574 . S
C212 C228 1.368 . S
H213 C221 0.950 . S
H214 C219 0.950 . S
H215 C220 0.949 . S
H216 C222 0.950 . S
H217 C223 0.950 . S
H218 C224 0.949 . S
C219 H214 0.950 . S
C219 C221 1.327 . S
C219 C225 1.429 . S
C220 C212 1.574 . S
C220 H215 0.949 . S
C220 C226 1.368 . S
C221 C205 1.349 . S
C221 H213 0.950 . S
C221 C219 1.327 . S
C222 C210 1.349 . S
C222 H216 0.950 . S
C222 C223 1.327 . S
C223 H217 0.950 . S
C223 C222 1.327 . S
C223 C227 1.429 . S
C224 C207 1.574 . S
C224 H218 0.949 . S
C224 C228 1.368 . S
C225 C206 1.429 . S
C225 C219 1.429 . S
C225 C226 1.523 . S
C226 C207 1.368 . S
C226 C220 1.368 . S
C226 C225 1.523 . S
C227 C211 1.429 . S
C227 C223 1.429 . S
C227 C228 1.523 . S
C228 C212 1.368 . S
C228 C224 1.368 . S
C228 C227 1.523 . S
H229 C204 0.950 . S
H230 C206 0.950 . S
H231 C207 0.949 . S
H232 C209 0.950 . S
H233 C211 0.950 . S
C234 C235 1.349 . S
C234 C236 1.327 . S
C234 H259 0.950 . S
C235 C234 1.349 . S
C235 C251 1.349 . S
C236 C234 1.327 . S
C236 C255 1.429 . S
C236 H260 0.950 . S
C237 C254 1.574 . S
C237 C256 1.368 . S
C237 H261 0.949 . S
H238 C242 0.949 . S
C239 C240 1.349 . S
C239 C241 1.327 . S
C239 H262 0.950 . S
C240 C239 1.349 . S
C240 C252 1.349 . S
C241 C239 1.327 . S
C241 C257 1.429 . S
C241 H263 0.950 . S
C242 H238 0.949 . S
C242 C250 1.574 . S
C242 C258 1.368 . S
H243 C251 0.950 . S
H244 C249 0.950 . S
H245 C250 0.949 . S
H246 C252 0.950 . S
H247 C253 0.950 . S
H248 C254 0.949 . S
C249 H244 0.950 . S
C249 C251 1.327 . S
C249 C255 1.429 . S
C250 C242 1.574 . S
C250 H245 0.949 . S
C250 C256 1.368 . S
C251 C235 1.349 . S
C251 H243 0.950 . S
C251 C249 1.327 . S
C252 C240 1.349 . S
C252 H246 0.950 . S
C252 C253 1.327 . S
C253 H247 0.950 . S
C253 C252 1.327 . S
C253 C257 1.429 . S
C254 C237 1.574 . S
C254 H248 0.949 . S
C254 C258 1.368 . S
C255 C236 1.429 . S
C255 C249 1.429 . S
C255 C256 1.523 . S
C256 C237 1.368 . S
C256 C250 1.368 . S
C256 C255 1.523 . S
C257 C241 1.429 . S
C257 C253 1.429 . S
C257 C258 1.523 . S
C258 C242 1.368 . S
C258 C254 1.368 . S
C258 C257 1.523 . S
H259 C234 0.950 . S
H260 C236 0.950 . S
H261 C237 0.949 . S
H262 C239 0.950 . S
H263 C241 0.950 . S
C264 C265 1.349 . S
C264 C266 1.327 . S
C264 H289 0.950 . S
C265 C264 1.349 . S
C265 C281 1.349 . S
C266 C264 1.327 . S
C266 C285 1.429 . S
C266 H290 0.950 . S
C267 C284 1.574 . S
C267 C286 1.368 . S
C267 H291 0.949 . S
H268 C272 0.949 . S
C269 C270 1.349 . S
C269 C271 1.327 . S
C269 H292 0.950 . S
C270 C269 1.349 . S
C270 C282 1.349 . S
C271 C269 1.327 . S
C271 C287 1.429 . S
C271 H293 0.950 . S
C272 H268 0.949 . S
C272 C280 1.574 . S
C272 C288 1.368 . S
H273 C281 0.950 . S
H274 C279 0.950 . S
H275 C280 0.949 . S
H276 C282 0.950 . S
H277 C283 0.950 . S
H278 C284 0.949 . S
C279 H274 0.950 . S
C279 C281 1.327 . S
C279 C285 1.429 . S
C280 C272 1.574 . S
C280 H275 0.949 . S
C280 C286 1.368 . S
C281 C265 1.349 . S
C281 H273 0.950 . S
C281 C279 1.327 . S
C282 C270 1.349 . S
C282 H276 0.950 . S
C282 C283 1.327 . S
C283 H277 0.950 . S
C283 C282 1.327 . S
C283 C287 1.429 . S
C284 C267 1.574 . S
C284 H278 0.949 . S
C284 C288 1.368 . S
C285 C266 1.429 . S
C285 C279 1.429 . S
C285 C286 1.523 . S
C286 C267 1.368 . S
C286 C280 1.368 . S
C286 C285 1.523 . S
C287 C271 1.429 . S
C287 C283 1.429 . S
C287 C288 1.523 . S
C288 C272 1.368 . S
C288 C284 1.368 . S
C288 C287 1.523 . S
H289 C264 0.950 . S
H290 C266 0.950 . S
H291 C267 0.949 . S
H292 C269 0.950 . S
H293 C271 0.950 . S
C294 C295 1.349 . S
C294 C296 1.327 . S
C294 H319 0.950 . S
C295 C294 1.349 . S
C295 C311 1.349 . S
C296 C294 1.327 . S
C296 C315 1.429 . S
C296 H320 0.950 . S
C297 C314 1.574 . S
C297 C316 1.368 . S
C297 H321 0.949 . S
H298 C302 0.949 . S
C299 C300 1.349 . S
C299 C301 1.327 . S
C299 H322 0.950 . S
C300 C299 1.349 . S
C300 C312 1.349 . S
C301 C299 1.327 . S
C301 C317 1.429 . S
C301 H323 0.950 . S
C302 H298 0.949 . S
C302 C310 1.574 . S
C302 C318 1.368 . S
H303 C311 0.950 . S
H304 C309 0.950 . S
H305 C310 0.949 . S
H306 C312 0.950 . S
H307 C313 0.950 . S
H308 C314 0.949 . S
C309 H304 0.950 . S
C309 C311 1.327 . S
C309 C315 1.429 . S
C310 C302 1.574 . S
C310 H305 0.949 . S
C310 C316 1.368 . S
C311 C295 1.349 . S
C311 H303 0.950 . S
C311 C309 1.327 . S
C312 C300 1.349 . S
C312 H306 0.950 . S
C312 C313 1.327 . S
C313 H307 0.950 . S
C313 C312 1.327 . S
C313 C317 1.429 . S
C314 C297 1.574 . S
C314 H308 0.949 . S
C314 C318 1.368 . S
C315 C296 1.429 . S
C315 C309 1.429 . S
C315 C316 1.523 . S
C316 C297 1.368 . S
C316 C310 1.368 . S
C316 C315 1.523 . S
C317 C301 1.429 . S
C317 C313 1.429 . S
C317 C318 1.523 . S
C318 C302 1.368 . S
C318 C314 1.368 . S
C318 C317 1.523 . S
H319 C294 0.950 . S
H320 C296 0.950 . S
H321 C297 0.949 . S
H322 C299 0.950 . S
H323 C301 0.950 . S
C324 C325 1.349 . S
C324 C326 1.327 . S
C324 H349 0.950 . S
C325 C324 1.349 . S
C325 C341 1.349 . S
C326 C324 1.327 . S
C326 C345 1.429 . S
C326 H350 0.950 . S
C327 C344 1.574 . S
C327 C346 1.368 . S
C327 H351 0.949 . S
H328 C332 0.949 . S
C329 C330 1.349 . S
C329 C331 1.327 . S
C329 H352 0.950 . S
C330 C329 1.349 . S
C330 C342 1.349 . S
C331 C329 1.327 . S
C331 C347 1.429 . S
C331 H353 0.950 . S
C332 H328 0.949 . S
C332 C340 1.574 . S
C332 C348 1.368 . S
H333 C341 0.950 . S
H334 C339 0.950 . S
H335 C340 0.949 . S
H336 C342 0.950 . S
H337 C343 0.950 . S
H338 C344 0.949 . S
C339 H334 0.950 . S
C339 C341 1.327 . S
C339 C345 1.429 . S
C340 C332 1.574 . S
C340 H335 0.949 . S
C340 C346 1.368 . S
C341 C325 1.349 . S
C341 H333 0.950 . S
C341 C339 1.327 . S
C342 C330 1.349 . S
C342 H336 0.950 . S
C342 C343 1.327 . S
C343 H337 0.950 . S
C343 C342 1.327 . S
C343 C347 1.429 . S
C344 C327 1.574 . S
C344 H338 0.949 . S
C344 C348 1.368 . S
C345 C326 1.429 . S
C345 C339 1.429 . S
C345 C346 1.523 . S
C346 C327 1.368 . S
C346 C340 1.368 . S
C346 C345 1.523 . S
C347 C331 1.429 . S
C347 C343 1.429 . S
C347 C348 1.523 . S
C348 C332 1.368 . S
C348 C344 1.368 . S
C348 C347 1.523 . S
H349 C324 0.950 . S
H350 C326 0.950 . S
H351 C327 0.949 . S
H352 C329 0.950 . S
H353 C331 0.950 . S
C354 C355 1.349 . S
C354 C356 1.327 . S
C354 H379 0.950 . S
C355 C354 1.349 . S
C355 C371 1.349 . S
C356 C354 1.327 . S
C356 C375 1.429 . S
C356 H380 0.950 . S
C357 C374 1.574 . S
C357 C376 1.368 . S
C357 H381 0.949 . S
H358 C362 0.949 . S
C359 C360 1.349 . S
C359 C361 1.327 . S
C359 H382 0.950 . S
C360 C359 1.349 . S
C360 C372 1.349 . S
C361 C359 1.327 . S
C361 C377 1.429 . S
C361 H383 0.950 . S
C362 H358 0.949 . S
C362 C370 1.574 . S
C362 C378 1.368 . S
H363 C371 0.950 . S
H364 C369 0.950 . S
H365 C370 0.949 . S
H366 C372 0.950 . S
H367 C373 0.950 . S
H368 C374 0.949 . S
C369 H364 0.950 . S
C369 C371 1.327 . S
C369 C375 1.429 . S
C370 C362 1.574 . S
C370 H365 0.949 . S
C370 C376 1.368 . S
C371 C355 1.349 . S
C371 H363 0.950 . S
C371 C369 1.327 . S
C372 C360 1.349 . S
C372 H366 0.950 . S
C372 C373 1.327 . S
C373 H367 0.950 . S
C373 C372 1.327 . S
C373 C377 1.429 . S
C374 C357 1.574 . S
C374 H368 0.949 . S
C374 C378 1.368 . S
C375 C356 1.429 . S
C375 C369 1.429 . S
C375 C376 1.523 . S
C376 C357 1.368 . S
C376 C370 1.368 . S
C376 C375 1.523 . S
C377 C361 1.429 . S
C377 C373 1.429 . S
C377 C378 1.523 . S
C378 C362 1.368 . S
C378 C374 1.368 . S
C378 C377 1.523 . S
H379 C354 0.950 . S
H380 C356 0.950 . S
H381 C357 0.949 . S
H382 C359 0.950 . S
H383 C361 0.950 . S
C384 C385 1.349 . S
C384 C386 1.327 . S
C384 H409 0.950 . S
C385 C384 1.349 . S
C385 C401 1.349 . S
C386 C384 1.327 . S
C386 C405 1.429 . S
C386 H410 0.950 . S
C387 C404 1.574 . S
C387 C406 1.368 . S
C387 H411 0.949 . S
H388 C392 0.949 . S
C389 C390 1.349 1_655 S
C389 C391 1.327 . S
C389 H412 0.950 . S
C390 C389 1.349 1_455 S
C390 C402 1.349 . S
C391 C389 1.327 . S
C391 C407 1.429 . S
C391 H413 0.950 . S
C392 H388 0.949 . S
C392 C400 1.574 . S
C392 C408 1.368 . S
H393 C401 0.950 . S
H394 C399 0.950 . S
H395 C400 0.949 . S
H396 C402 0.950 . S
H397 C403 0.950 . S
H398 C404 0.949 . S
C399 H394 0.950 . S
C399 C401 1.327 . S
C399 C405 1.429 . S
C400 C392 1.574 . S
C400 H395 0.949 . S
C400 C406 1.368 . S
C401 C385 1.349 . S
C401 H393 0.950 . S
C401 C399 1.327 . S
C402 C390 1.349 . S
C402 H396 0.950 . S
C402 C403 1.327 1_455 S
C403 H397 0.950 . S
C403 C402 1.327 1_655 S
C403 C407 1.429 . S
C404 C387 1.574 . S
C404 H398 0.949 . S
C404 C408 1.368 . S
C405 C386 1.429 . S
C405 C399 1.429 . S
C405 C406 1.523 . S
C406 C387 1.368 . S
C406 C400 1.368 . S
C406 C405 1.523 . S
C407 C391 1.429 . S
C407 C403 1.429 . S
C407 C408 1.523 . S
C408 C392 1.368 . S
C408 C404 1.368 . S
C408 C407 1.523 . S
H409 C384 0.950 . S
H410 C386 0.950 . S
H411 C387 0.949 . S
H412 C389 0.950 . S
H413 C391 0.950 . S
C414 C415 1.349 . S
C414 C416 1.327 . S
C414 H439 0.950 . S
C415 C414 1.349 . S
C415 C431 1.349 . S
C416 C414 1.327 . S
C416 C435 1.429 . S
C416 H440 0.950 . S
C417 C434 1.574 . S
C417 C436 1.368 . S
C417 H441 0.949 . S
H418 C422 0.949 . S
C419 C420 1.349 . S
C419 C421 1.327 . S
C419 H442 0.950 1_565 S
C420 C419 1.349 . S
C420 C432 1.349 . S
C421 C419 1.327 . S
C421 C437 1.429 . S
C421 H443 0.950 . S
C422 H418 0.949 . S
C422 C430 1.574 . S
C422 C438 1.368 . S
H423 C431 0.950 . S
H424 C429 0.950 . S
H425 C430 0.949 . S
H426 C432 0.950 . S
H427 C433 0.950 . S
H428 C434 0.949 . S
C429 H424 0.950 . S
C429 C431 1.327 . S
C429 C435 1.429 . S
C430 C422 1.574 . S
C430 H425 0.949 . S
C430 C436 1.368 . S
C431 C415 1.349 . S
C431 H423 0.950 . S
C431 C429 1.327 . S
C432 C420 1.349 . S
C432 H426 0.950 . S
C432 C433 1.327 . S
C433 H427 0.950 . S
C433 C432 1.327 . S
C433 C437 1.429 . S
C434 C417 1.574 . S
C434 H428 0.949 . S
C434 C438 1.368 . S
C435 C416 1.429 . S
C435 C429 1.429 . S
C435 C436 1.523 . S
C436 C417 1.368 . S
C436 C430 1.368 . S
C436 C435 1.523 . S
C437 C421 1.429 . S
C437 C433 1.429 . S
C437 C438 1.523 . S
C438 C422 1.368 . S
C438 C434 1.368 . S
C438 C437 1.523 . S
H439 C414 0.950 . S
H440 C416 0.950 . S
H441 C417 0.949 . S
H442 C419 0.950 1_545 S
H443 C421 0.950 . S
C444 C445 1.349 . S
C444 C446 1.327 . S
C444 H469 0.950 . S
C445 C444 1.349 . S
C445 C461 1.349 . S
C446 C444 1.327 . S
C446 C465 1.429 . S
C446 H470 0.950 . S
C447 C464 1.574 . S
C447 C466 1.368 . S
C447 H471 0.949 . S
H448 C452 0.949 . S
C449 C450 1.349 . S
C449 C451 1.327 . S
C449 H472 0.950 . S
C450 C449 1.349 . S
C450 C462 1.349 . S
C451 C449 1.327 . S
C451 C467 1.429 . S
C451 H473 0.950 . S
C452 H448 0.949 . S
C452 C460 1.574 . S
C452 C468 1.368 . S
H453 C461 0.950 . S
H454 C459 0.950 . S
H455 C460 0.949 . S
H456 C462 0.950 . S
H457 C463 0.950 . S
H458 C464 0.949 . S
C459 H454 0.950 . S
C459 C461 1.327 . S
C459 C465 1.429 . S
C460 C452 1.574 . S
C460 H455 0.949 . S
C460 C466 1.368 . S
C461 C445 1.349 . S
C461 H453 0.950 . S
C461 C459 1.327 . S
C462 C450 1.349 . S
C462 H456 0.950 . S
C462 C463 1.327 . S
C463 H457 0.950 . S
C463 C462 1.327 . S
C463 C467 1.429 . S
C464 C447 1.574 . S
C464 H458 0.949 . S
C464 C468 1.368 . S
C465 C446 1.429 . S
C465 C459 1.429 . S
C465 C466 1.523 . S
C466 C447 1.368 . S
C466 C460 1.368 . S
C466 C465 1.523 . S
C467 C451 1.429 . S
C467 C463 1.429 . S
C467 C468 1.523 . S
C468 C452 1.368 . S
C468 C464 1.368 . S
C468 C467 1.523 . S
H469 C444 0.950 . S
H470 C446 0.950 . S
H471 C447 0.949 . S
H472 C449 0.950 . S
H473 C451 0.950 . S
C474 C475 1.349 . S
C474 C476 1.327 . S
C474 H499 0.950 . S
C475 C474 1.349 . S
C475 C491 1.349 . S
C476 C474 1.327 . S
C476 C495 1.429 . S
C476 H500 0.950 . S
C477 C494 1.574 . S
C477 C496 1.368 . S
C477 H501 0.949 . S
H478 C482 0.949 . S
C479 C480 1.349 . S
C479 C481 1.327 . S
C479 H502 0.950 . S
C480 C479 1.349 . S
C480 C492 1.349 . S
C481 C479 1.327 . S
C481 C497 1.429 . S
C481 H503 0.950 . S
C482 H478 0.949 . S
C482 C490 1.574 . S
C482 C498 1.368 . S
H483 C491 0.950 . S
H484 C489 0.950 . S
H485 C490 0.949 . S
H486 C492 0.950 . S
H487 C493 0.950 . S
H488 C494 0.949 . S
C489 H484 0.950 . S
C489 C491 1.327 . S
C489 C495 1.429 . S
C490 C482 1.574 . S
C490 H485 0.949 . S
C490 C496 1.368 . S
C491 C475 1.349 . S
C491 H483 0.950 . S
C491 C489 1.327 . S
C492 C480 1.349 . S
C492 H486 0.950 . S
C492 C493 1.327 . S
C493 H487 0.950 . S
C493 C492 1.327 . S
C493 C497 1.429 . S
C494 C477 1.574 . S
C494 H488 0.949 . S
C494 C498 1.368 . S
C495 C476 1.429 . S
C495 C489 1.429 . S
C495 C496 1.523 . S
C496 C477 1.368 . S
C496 C490 1.368 . S
C496 C495 1.523 . S
C497 C481 1.429 . S
C497 C493 1.429 . S
C497 C498 1.523 . S
C498 C482 1.368 . S
C498 C494 1.368 . S
C498 C497 1.523 . S
H499 C474 0.950 . S
H500 C476 0.950 . S
H501 C477 0.949 . S
H502 C479 0.950 . S
H503 C481 0.950 . S
C504 C505 1.349 . S
C504 C506 1.327 . S
C504 H529 0.950 . S
C505 C504 1.349 . S
C505 C521 1.349 . S
C506 C504 1.327 . S
C506 C525 1.429 . S
C506 H530 0.950 . S
C507 C524 1.574 . S
C507 C526 1.368 . S
C507 H531 0.949 . S
H508 C512 0.949 . S
C509 C510 1.349 . S
C509 C511 1.327 . S
C509 H532 0.950 . S
C510 C509 1.349 . S
C510 C522 1.349 . S
C511 C509 1.327 . S
C511 C527 1.429 . S
C511 H533 0.950 . S
C512 H508 0.949 . S
C512 C520 1.574 . S
C512 C528 1.368 . S
H513 C521 0.950 . S
H514 C519 0.950 . S
H515 C520 0.949 . S
H516 C522 0.950 . S
H517 C523 0.950 . S
H518 C524 0.949 . S
C519 H514 0.950 . S
C519 C521 1.327 . S
C519 C525 1.429 . S
C520 C512 1.574 . S
C520 H515 0.949 . S
C520 C526 1.368 . S
C521 C505 1.349 . S
C521 H513 0.950 . S
C521 C519 1.327 . S
C522 C510 1.349 . S
C522 H516 0.950 . S
C522 C523 1.327 . S
C523 H517 0.950 . S
C523 C522 1.327 . S
C523 C527 1.429 . S
C524 C507 1.574 . S
C524 H518 0.949 . S
C524 C528 1.368 . S
C525 C506 1.429 . S
C525 C519 1.429 . S
C525 C526 1.523 . S
C526 C507 1.368 . S
C526 C520 1.368 . S
C526 C525 1.523 . S
C527 C511 1.429 . S
C527 C523 1.429 . S
C527 C528 1.523 . S
C528 C512 1.368 . S
C528 C524 1.368 . S
C528 C527 1.523 . S
H529 C504 0.950 . S
H530 C506 0.950 . S
H531 C507 0.949 . S
H532 C509 0.950 . S
H533 C511 0.950 . S
C534 C535 1.349 . S
C534 C536 1.327 . S
C534 H559 0.950 . S
C535 C534 1.349 . S
C535 C551 1.349 . S
C536 C534 1.327 . S
C536 C555 1.429 . S
C536 H560 0.950 . S
C537 C554 1.574 1_554 S
C537 C556 1.368 . S
C537 H561 0.949 . S
H538 C542 0.949 . S
C539 C540 1.349 . S
C539 C541 1.327 . S
C539 H562 0.950 . S
C540 C539 1.349 . S
C540 C552 1.349 . S
C541 C539 1.327 . S
C541 C557 1.429 . S
C541 H563 0.950 . S
C542 H538 0.949 . S
C542 C550 1.574 1_556 S
C542 C558 1.368 . S
H543 C551 0.950 . S
H544 C549 0.950 . S
H545 C550 0.949 . S
H546 C552 0.950 . S
H547 C553 0.950 . S
H548 C554 0.949 . S
C549 H544 0.950 . S
C549 C551 1.327 . S
C549 C555 1.429 . S
C550 C542 1.574 1_554 S
C550 H545 0.949 . S
C550 C556 1.368 . S
C551 C535 1.349 . S
C551 H543 0.950 . S
C551 C549 1.327 . S
C552 C540 1.349 . S
C552 H546 0.950 . S
C552 C553 1.327 . S
C553 H547 0.950 . S
C553 C552 1.327 . S
C553 C557 1.429 . S
C554 C537 1.574 1_556 S
C554 H548 0.949 . S
C554 C558 1.368 . S
C555 C536 1.429 . S
C555 C549 1.429 . S
C555 C556 1.523 . S
C556 C537 1.368 . S
C556 C550 1.368 . S
C556 C555 1.523 . S
C557 C541 1.429 . S
C557 C553 1.429 . S
C557 C558 1.523 . S
C558 C542 1.368 . S
C558 C554 1.368 . S
C558 C557 1.523 . S
H559 C534 0.950 . S
H560 C536 0.950 . S
H561 C537 0.949 . S
H562 C539 0.950 . S
H563 C541 0.950 . S
C564 C565 1.349 . S
C564 C566 1.327 . S
C564 H589 0.950 . S
C565 C564 1.349 . S
C565 C581 1.349 . S
C566 C564 1.327 . S
C566 C585 1.429 . S
C566 H590 0.950 . S
C567 C584 1.574 . S
C567 C586 1.368 . S
C567 H591 0.949 . S
H568 C572 0.949 . S
C569 C570 1.349 . S
C569 C571 1.327 . S
C569 H592 0.950 . S
C570 C569 1.349 . S
C570 C582 1.349 . S
C571 C569 1.327 . S
C571 C587 1.429 . S
C571 H593 0.950 . S
C572 H568 0.949 . S
C572 C580 1.574 . S
C572 C588 1.368 . S
H573 C581 0.950 . S
H574 C579 0.950 . S
H575 C580 0.949 . S
H576 C582 0.950 . S
H577 C583 0.950 . S
H578 C584 0.949 . S
C579 H574 0.950 . S
C579 C581 1.327 . S
C579 C585 1.429 . S
C580 C572 1.574 . S
C580 H575 0.949 . S
C580 C586 1.368 . S
C581 C565 1.349 . S
C581 H573 0.950 . S
C581 C579 1.327 . S
C582 C570 1.349 . S
C582 H576 0.950 . S
C582 C583 1.327 . S
C583 H577 0.950 . S
C583 C582 1.327 . S
C583 C587 1.429 . S
C584 C567 1.574 . S
C584 H578 0.949 . S
C584 C588 1.368 . S
C585 C566 1.429 . S
C585 C579 1.429 . S
C585 C586 1.523 . S
C586 C567 1.368 . S
C586 C580 1.368 . S
C586 C585 1.523 . S
C587 C571 1.429 . S
C587 C583 1.429 . S
C587 C588 1.523 . S
C588 C572 1.368 . S
C588 C584 1.368 . S
C588 C587 1.523 . S
H589 C564 0.950 . S
H590 C566 0.950 . S
H591 C567 0.949 . S
H592 C569 0.950 . S
H593 C571 0.950 . S
C594 C595 1.349 . S
C594 C596 1.327 . S
C594 H619 0.950 . S
C595 C594 1.349 . S
C595 C611 1.349 . S
C596 C594 1.327 . S
C596 C615 1.429 . S
C596 H620 0.950 . S
C597 C614 1.574 . S
C597 C616 1.368 . S
C597 H621 0.949 . S
H598 C602 0.949 . S
C599 C600 1.349 . S
C599 C601 1.327 . S
C599 H622 0.950 . S
C600 C599 1.349 . S
C600 C612 1.349 . S
C601 C599 1.327 . S
C601 C617 1.429 . S
C601 H623 0.950 . S
C602 H598 0.949 . S
C602 C610 1.574 . S
C602 C618 1.368 . S
H603 C611 0.950 . S
H604 C609 0.950 . S
H605 C610 0.949 . S
H606 C612 0.950 . S
H607 C613 0.950 . S
H608 C614 0.949 . S
C609 H604 0.950 . S
C609 C611 1.327 . S
C609 C615 1.429 . S
C610 C602 1.574 . S
C610 H605 0.949 . S
C610 C616 1.368 . S
C611 C595 1.349 . S
C611 H603 0.950 . S
C611 C609 1.327 . S
C612 C600 1.349 . S
C612 H606 0.950 . S
C612 C613 1.327 . S
C613 H607 0.950 . S
C613 C612 1.327 . S
C613 C617 1.429 . S
C614 C597 1.574 . S
C614 H608 0.949 . S
C614 C618 1.368 . S
C615 C596 1.429 . S
C615 C609 1.429 . S
C615 C616 1.523 . S
C616 C597 1.368 . S
C616 C610 1.368 . S
C616 C615 1.523 . S
C617 C601 1.429 . S
C617 C613 1.429 . S
C617 C618 1.523 . S
C618 C602 1.368 . S
C618 C614 1.368 . S
C618 C617 1.523 . S
H619 C594 0.950 . S
H620 C596 0.950 . S
H621 C597 0.949 . S
H622 C599 0.950 . S
H623 C601 0.950 . S
C624 C625 1.349 . S
C624 C626 1.327 . S
C624 H649 0.950 . S
C625 C624 1.349 . S
C625 C641 1.349 . S
C626 C624 1.327 . S
C626 C645 1.429 . S
C626 H650 0.950 . S
C627 C644 1.574 . S
C627 C646 1.368 . S
C627 H651 0.949 . S
H628 C632 0.949 . S
C629 C630 1.349 . S
C629 C631 1.327 . S
C629 H652 0.970 . S
C630 C629 1.349 . S
C630 C642 1.349 . S
C631 C629 1.327 . S
C631 C647 1.429 . S
C631 H653 0.950 . S
C632 H628 0.949 . S
C632 C640 1.574 . S
C632 C648 1.368 . S
H633 C641 0.950 . S
H634 C639 0.950 . S
H635 C640 0.949 . S
H636 C642 0.950 . S
H637 C643 0.950 . S
H638 C644 0.949 . S
C639 H634 0.950 . S
C639 C641 1.327 . S
C639 C645 1.429 . S
C640 C632 1.574 . S
C640 H635 0.949 . S
C640 C646 1.368 . S
C641 C625 1.349 . S
C641 H633 0.950 . S
C641 C639 1.327 . S
C642 C630 1.349 . S
C642 H636 0.950 . S
C642 C643 1.327 . S
C643 H637 0.950 . S
C643 C642 1.327 . S
C643 C647 1.429 . S
C644 C627 1.574 . S
C644 H638 0.949 . S
C644 C648 1.368 . S
C645 C626 1.429 . S
C645 C639 1.429 . S
C645 C646 1.523 . S
C646 C627 1.368 . S
C646 C640 1.368 . S
C646 C645 1.523 . S
C647 C631 1.429 . S
C647 C643 1.429 . S
C647 C648 1.523 . S
C648 C632 1.368 . S
C648 C644 1.368 . S
C648 C647 1.523 . S
H649 C624 0.950 . S
H650 C626 0.950 . S
H651 C627 0.949 . S
H652 C629 0.970 . S
H653 C631 0.950 . S
C654 C655 1.349 . S
C654 C656 1.327 . S
C654 H679 0.950 . S
C655 C654 1.349 . S
C655 C671 1.349 . S
C656 C654 1.327 . S
C656 C675 1.429 . S
C656 H680 0.950 . S
C657 C674 1.574 1_556 S
C657 C676 1.368 . S
C657 H681 0.949 . S
H658 C662 0.949 . S
C659 C660 1.349 . S
C659 C661 1.327 . S
C659 H682 0.950 . S
C660 C659 1.349 . S
C660 C672 1.349 . S
C661 C659 1.327 . S
C661 C677 1.429 . S
C661 H683 0.950 . S
C662 H658 0.949 . S
C662 C670 1.574 1_554 S
C662 C678 1.368 . S
H663 C671 0.950 . S
H664 C669 0.950 . S
H665 C670 0.949 . S
H666 C672 0.950 . S
H667 C673 0.950 . S
H668 C674 0.949 . S
C669 H664 0.950 . S
C669 C671 1.327 . S
C669 C675 1.429 . S
C670 C662 1.574 1_556 S
C670 H665 0.949 . S
C670 C676 1.368 . S
C671 C655 1.349 . S
C671 H663 0.950 . S
C671 C669 1.327 . S
C672 C660 1.349 . S
C672 H666 0.950 . S
C672 C673 1.327 . S
C673 H667 0.950 . S
C673 C672 1.327 . S
C673 C677 1.429 . S
C674 C657 1.574 1_554 S
C674 H668 0.949 . S
C674 C678 1.368 . S
C675 C656 1.429 . S
C675 C669 1.429 . S
C675 C676 1.523 . S
C676 C657 1.368 . S
C676 C670 1.368 . S
C676 C675 1.523 . S
C677 C661 1.429 . S
C677 C673 1.429 . S
C677 C678 1.523 . S
C678 C662 1.368 . S
C678 C674 1.368 . S
C678 C677 1.523 . S
H679 C654 0.950 . S
H680 C656 0.950 . S
H681 C657 0.949 . S
H682 C659 0.950 . S
H683 C661 0.950 . S
C684 C685 1.349 . S
C684 C686 1.327 . S
C684 H709 0.950 . S
C685 C684 1.349 . S
C685 C701 1.349 . S
C686 C684 1.327 . S
C686 C705 1.429 . S
C686 H710 0.950 1_455 S
C687 C704 1.574 . S
C687 C706 1.368 . S
C687 H711 0.949 . S
H688 C692 0.949 1_655 S
C689 C690 1.349 . S
C689 C691 1.327 . S
C689 H712 0.950 . S
C690 C689 1.349 . S
C690 C702 1.349 1_455 S
C691 C689 1.327 . S
C691 C707 1.429 . S
C691 H713 0.950 . S
C692 H688 0.949 1_455 S
C692 C700 1.574 . S
C692 C708 1.368 . S
H693 C701 0.950 . S
H694 C699 0.950 . S
H695 C700 0.949 1_655 S
H696 C702 0.950 . S
H697 C703 0.950 . S
H698 C704 0.949 . S
C699 H694 0.950 . S
C699 C701 1.327 . S
C699 C705 1.429 . S
C700 C692 1.574 . S
C700 H695 0.949 1_455 S
C700 C706 1.368 . S
C701 C685 1.349 . S
C701 H693 0.950 . S
C701 C699 1.327 . S
C702 C690 1.349 1_655 S
C702 H696 0.950 . S
C702 C703 1.327 . S
C703 H697 0.950 . S
C703 C702 1.327 . S
C703 C707 1.429 1_655 S
C704 C687 1.574 . S
C704 H698 0.949 . S
C704 C708 1.368 . S
C705 C686 1.429 . S
C705 C699 1.429 . S
C705 C706 1.523 . S
C706 C687 1.368 . S
C706 C700 1.368 . S
C706 C705 1.523 . S
C707 C691 1.429 . S
C707 C703 1.429 1_455 S
C707 C708 1.523 . S
C708 C692 1.368 . S
C708 C704 1.368 . S
C708 C707 1.523 . S
H709 C684 0.950 . S
H710 C686 0.950 1_655 S
H711 C687 0.949 . S
H712 C689 0.950 . S
H713 C691 0.950 . S
C175 C8 2.153 . S
C180 C166 2.169 . S
C205 C26 1.421 . S
C210 C128 1.389 . S
C235 C48 1.602 . S
C240 C147 1.605 . S
C265 C19 1.654 . S
C270 C161 1.681 . S
C300 C123 1.350 . S
C295 C36 1.348 . S
C330 C142 1.539 . S
C325 C59 1.493 . S
C355 C28 1.618 1_565 S
C360 C90 1.623 . S
C385 C46 1.112 . S
C390 C104 1.113 . S
C415 C16 1.357 . S
C420 C66 1.354 1_565 S
C450 C85 1.524 . S
C445 C39 1.492 . S
C480 C109 1.056 . S
C475 C56 1.071 . S
C505 C6 1.435 . S
C510 C71 1.401 . S
C540 C100 1.495 . S
C535 C9 1.500 . S
C565 C21 1.574 . S
C570 C62 1.577 . S
C595 C49 1.568 . S
C600 C81 1.548 . S
C630 C138 1.543 . S
C625 C29 1.562 . S
C660 C157 1.652 . S
C655 C41 1.623 . S
C685 C1 1.534 . S
C690 C119 1.533 . S
