# Generated by pormake.
# Topology zzz, (3,6)-cn, num edge types: 1
# Building blocks:
#     Node 0, Type 0, BuildingBlock: ESEHIV_clean_linker_0, # of connection points: 3
#     Node 1, Type 0, BuildingBlock: ESEHIV_clean_linker_0, # of connection points: 3
#     Node 2, Type 0, BuildingBlock: ESEHIV_clean_linker_0, # of connection points: 3
#     Node 3, Type 0, BuildingBlock: ESEHIV_clean_linker_0, # of connection points: 3
#     Node 4, Type 0, BuildingBlock: ESEHIV_clean_linker_0, # of connection points: 3
#     Node 5, Type 0, BuildingBlock: ESEHIV_clean_linker_0, # of connection points: 3
#     Node 6, Type 0, BuildingBlock: ESEHIV_clean_linker_0, # of connection points: 3
#     Node 7, Type 0, BuildingBlock: ESEHIV_clean_linker_0, # of connection points: 3
#     Node 8, Type 1, BuildingBlock: KUMJIN_clean_sbu_0, # of connection points: 6
#     Node 9, Type 1, BuildingBlock: KUMJIN_clean_sbu_0, # of connection points: 6
#     Node 10, Type 1, BuildingBlock: KUMJIN_clean_sbu_0, # of connection points: 6
#     Node 11, Type 1, BuildingBlock: KUMJIN_clean_sbu_0, # of connection points: 6
#     Edge 12, Type (0, 1), BuildingBlock: XUDNAN_clean_linker_2, # of connection points: 2
#     Edge 13, Type (0, 1), BuildingBlock: XUDNAN_clean_linker_2, # of connection points: 2
#     Edge 14, Type (0, 1), BuildingBlock: XUDNAN_clean_linker_2, # of connection points: 2
#     Edge 15, Type (0, 1), BuildingBlock: XUDNAN_clean_linker_2, # of connection points: 2
#     Edge 16, Type (0, 1), BuildingBlock: XUDNAN_clean_linker_2, # of connection points: 2
#     Edge 17, Type (0, 1), BuildingBlock: XUDNAN_clean_linker_2, # of connection points: 2
#     Edge 18, Type (0, 1), BuildingBlock: XUDNAN_clean_linker_2, # of connection points: 2
#     Edge 19, Type (0, 1), BuildingBlock: XUDNAN_clean_linker_2, # of connection points: 2
#     Edge 20, Type (0, 1), BuildingBlock: XUDNAN_clean_linker_2, # of connection points: 2
#     Edge 21, Type (0, 1), BuildingBlock: XUDNAN_clean_linker_2, # of connection points: 2
#     Edge 22, Type (0, 1), BuildingBlock: XUDNAN_clean_linker_2, # of connection points: 2
#     Edge 23, Type (0, 1), BuildingBlock: XUDNAN_clean_linker_2, # of connection points: 2
#     Edge 24, Type (0, 1), BuildingBlock: XUDNAN_clean_linker_2, # of connection points: 2
#     Edge 25, Type (0, 1), BuildingBlock: XUDNAN_clean_linker_2, # of connection points: 2
#     Edge 26, Type (0, 1), BuildingBlock: XUDNAN_clean_linker_2, # of connection points: 2
#     Edge 27, Type (0, 1), BuildingBlock: XUDNAN_clean_linker_2, # of connection points: 2
#     Edge 28, Type (0, 1), BuildingBlock: XUDNAN_clean_linker_2, # of connection points: 2
#     Edge 29, Type (0, 1), BuildingBlock: XUDNAN_clean_linker_2, # of connection points: 2
#     Edge 30, Type (0, 1), BuildingBlock: XUDNAN_clean_linker_2, # of connection points: 2
#     Edge 31, Type (0, 1), BuildingBlock: XUDNAN_clean_linker_2, # of connection points: 2
#     Edge 32, Type (0, 1), BuildingBlock: XUDNAN_clean_linker_2, # of connection points: 2
#     Edge 33, Type (0, 1), BuildingBlock: XUDNAN_clean_linker_2, # of connection points: 2
#     Edge 34, Type (0, 1), BuildingBlock: XUDNAN_clean_linker_2, # of connection points: 2
#     Edge 35, Type (0, 1), BuildingBlock: XUDNAN_clean_linker_2, # of connection points: 2
# Relax obj value: 0.339
# Max RMSD: 0.220
# Mean RMSD: 0.214
data_MOF--net-zzz--node1-KUMJIN_clean_sbu_0--node2-ESEHIV_clean_linker_0--edge1-XUDNAN_clean_linker_2
_symmetry_space_group_name_H-M    P1
_symmetry_Int_Tables_number       1
_symmetry_cell_setting            triclinic
loop_
_symmetry_equiv_pos_as_xyz
'x, y, z'
_cell_length_a     43.92631
_cell_length_b     44.011721
_cell_length_c     15.458496
_cell_angle_alpha  91.208376
_cell_angle_beta   90.095909
_cell_angle_gamma 89.821133
loop_
_atom_site_label
_atom_site_type_symbol
_atom_site_fract_x
_atom_site_fract_y
_atom_site_fract_z
_atom_type_partial_charge
H0 H 0.8053 0.5616 0.24068 0.0
H1 H 0.73105 0.57845 0.07135 0.0
H2 H 0.72199 0.51114 0.27033 0.0
C3 C 0.782 0.55703 0.22151 0.0
C4 C 0.76616 0.53403 0.26342 0.0
C5 C 0.76929 0.57332 0.15369 0.0
C6 C 0.73994 0.56638 0.12628 0.0
C7 C 0.72166 0.54482 0.16787 0.0
C8 C 0.73516 0.52811 0.23741 0.0
H9 H 0.9602 0.81567 0.18949 0.0
H10 H 0.94958 0.73421 0.03584 0.0
H11 H 1.00409 0.73278 0.26753 0.0
C12 C 0.96484 0.79174 0.17811 0.0
C13 C 0.98324 0.77664 0.23797 0.0
C14 C 0.95222 0.77669 0.10555 0.0
C15 C 0.95965 0.74612 0.09063 0.0
C16 C 0.97888 0.72972 0.14554 0.0
C17 C 0.99054 0.74514 0.22141 0.0
H18 H 0.71909 0.04611 0.22787 0.0
H19 H 0.80032 0.03355 0.08253 0.0
H20 H 0.78439 0.9774 0.30401 0.0
C21 C 0.74089 0.03471 0.22168 0.0
C22 C 0.74924 0.01166 0.27929 0.0
C23 C 0.75928 0.04231 0.15194 0.0
C24 C 0.78652 0.02701 0.13726 0.0
C25 C 0.79607 1.00326 0.18979 0.0
C26 C 0.77736 0.99561 0.26237 0.0
H27 H 0.57073 0.72284 0.28964 0.0
H28 H 0.51059 0.79949 0.29903 0.0
H29 H 0.58613 0.79728 0.12047 0.0
C30 C 0.56568 0.74567 0.26917 0.0
C31 C 0.58165 0.75804 0.19958 0.0
C32 C 0.5407 0.76039 0.30761 0.0
C33 C 0.53089 0.78855 0.27356 0.0
C34 C 0.54719 0.80192 0.20437 0.0
C35 C 0.57322 0.78695 0.17166 0.0
H36 H 0.22015 0.44985 0.05618 0.0
H37 H 0.27731 0.44071 0.27612 0.0
H38 H 0.29878 0.50757 0.08409 0.0
C39 C 0.24104 0.45597 0.08998 0.0
C40 C 0.25698 0.48147 0.06343 0.0
C41 C 0.24745 0.44229 0.16807 0.0
C42 C 0.27376 0.45055 0.21323 0.0
C43 C 0.29477 0.47174 0.1801 0.0
C44 C 0.2851 0.48892 0.10654 0.0
H45 H 0.09443 0.20357 0.12416 0.0
H46 H 0.08158 0.27094 0.32518 0.0
H47 H 0.02836 0.27483 0.09232 0.0
C48 C 0.0832 0.22375 0.14959 0.0
C49 C 0.05928 0.2361 0.10131 0.0
C50 C 0.09146 0.23564 0.2311 0.0
C51 C 0.0773 0.26267 0.26007 0.0
C52 C 0.05622 0.27872 0.20957 0.0
C53 C 0.04589 0.26424 0.13074 0.0
H54 H 0.31296 0.08397 0.14732 0.0
H55 H 0.21934 0.09252 0.2264 0.0
H56 H 0.24961 0.01329 0.08313 0.0
C57 C 0.28964 0.07621 0.14671 0.0
C58 C 0.28341 0.04909 0.10033 0.0
C59 C 0.2674 0.09106 0.19843 0.0
C60 C 0.23742 0.08037 0.19291 0.0
C61 C 0.23092 0.05157 0.15768 0.0
C62 C 0.25402 0.0358 0.10971 0.0
H63 H 0.46447 0.31083 0.08503 0.0
H64 H 0.52822 0.23744 0.05149 0.0
H65 H 0.45669 0.23235 0.24243 0.0
C66 C 0.47181 0.28816 0.10138 0.0
C67 C 0.45716 0.27283 0.16824 0.0
C68 C 0.49727 0.27595 0.05841 0.0
C69 C 0.50815 0.24691 0.08261 0.0
C70 C 0.4933 0.23064 0.14919 0.0
C71 C 0.4676 0.24387 0.18967 0.0
Eu72 Eu 0.04924 0.99338 0.75169 0.0
C73 C 0.92713 0.97572 0.54975 0.0
C74 C 0.94304 0.94568 0.42489 0.0
C75 C 0.89124 0.94158 0.47717 0.0
C76 C 0.94958 0.96707 0.49199 0.0
C77 C 0.89734 0.96401 0.54061 0.0
C78 C 0.91412 0.93231 0.41964 0.0
C79 C 0.88068 1.00058 0.64872 0.0
N80 N 0.93364 0.99748 0.61024 0.0
C81 C 0.91068 0.01062 0.65791 0.0
C82 C 0.87412 0.97648 0.59197 0.0
Eu83 Eu 0.98456 0.01574 0.61833 0.0
N84 N 0.97716 0.9809 0.49789 0.0
C85 C 0.99834 0.97554 0.43412 0.0
C86 C 0.96532 0.93916 0.36294 0.0
C87 C 0.99284 0.95463 0.36671 0.0
H88 H 0.91559 0.02892 0.70359 0.0
H89 H 0.01005 0.95032 0.31793 0.0
H90 H 0.90889 0.91565 0.3692 0.0
H91 H 0.86256 0.01172 0.68443 0.0
H92 H 0.02019 0.98627 0.43445 0.0
H93 H 0.02918 0.06412 0.04451 0.0
H94 H 0.96118 0.92291 0.31063 0.0
H95 H 0.11687 0.97588 0.66355 0.0
H96 H 0.01667 0.02695 0.93178 0.0
H97 H 0.17014 0.99356 0.6678 0.0
H98 H 0.86862 0.93208 0.47003 0.0
H99 H 0.07921 0.08954 0.04543 0.0
H100 H 0.13128 0.09389 0.98184 0.0
H101 H 0.85086 0.96863 0.58543 0.0
H102 H 0.16969 0.07491 0.87847 0.0
N103 N 0.05926 0.0299 0.86586 0.0
C104 C 0.0389 0.03685 0.93044 0.0
C105 C 0.07396 0.07279 0.99523 0.0
C106 C 0.09541 0.06459 0.93231 0.0
C107 C 0.04579 0.05844 0.9951 0.0
C108 C 0.0874 0.04261 0.86821 0.0
H109 H 0.18454 0.03717 0.76229 0.0
N110 N 0.10097 0.00961 0.75347 0.0
C111 C 0.15311 1.00484 0.70758 0.0
C112 C 0.1089 0.03218 0.80993 0.0
C113 C 0.12293 0.99482 0.70579 0.0
C114 C 0.16112 0.02951 0.76074 0.0
C115 C 0.13911 0.04307 0.81433 0.0
O116 O 0.07808 0.95354 0.76791 0.0
O117 O 0.01176 0.976 0.66341 0.0
O118 O 0.96314 0.99232 0.73399 0.0
O119 O 1.00411 0.99053 0.8297 0.0
O120 O 0.05467 0.95852 0.64112 0.0
O121 O 0.04554 0.96586 0.86711 0.0
O122 O 0.95408 0.05472 0.60805 0.0
O123 O 0.02214 0.03284 0.70571 0.0
O124 O 0.07087 0.01525 0.63396 0.0
O125 O 0.02928 0.02064 0.54162 0.0
O126 O 0.97926 0.04979 0.73109 0.0
O127 O 0.98821 0.04662 0.50992 0.0
C128 C 0.02662 0.95679 0.61723 0.0
C129 C 0.05098 0.9143 0.82745 0.0
C130 C 1.00779 0.88175 0.79231 0.0
C131 C 0.02039 0.91071 0.80356 0.0
C132 C 0.02708 0.8562 0.80006 0.0
C133 C 0.0698 0.88879 0.83491 0.0
C134 C 0.05788 0.85981 0.82034 0.0
C135 C 0.97438 0.98835 0.81264 0.0
C136 C 0.0637 0.9448 0.83608 0.0
C137 C 0.14671 0.06608 0.87474 0.0
C138 C 0.12487 0.07685 0.93363 0.0
C139 C 1.00756 0.05203 0.75231 0.0
C140 C 0.9808 0.09705 0.56285 0.0
C141 C 0.01224 0.1024 0.5685 0.0
C142 C 0.02354 0.13156 0.58831 0.0
C143 C 1.00263 0.15494 0.6091 0.0
C144 C 0.96041 0.12069 0.58304 0.0
C145 C 0.97134 0.14937 0.6072 0.0
C146 C 0.05911 0.02099 0.55689 0.0
C147 C 0.96927 0.06622 0.54486 0.0
H148 H 1.0062 0.93054 0.79499 0.0
H149 H 0.01831 0.83331 0.79436 0.0
H150 H 0.09368 0.89134 0.85105 0.0
H151 H 0.07237 0.84004 0.82659 0.0
H152 H 0.02801 0.08385 0.5565 0.0
H153 H 0.0102 0.17789 0.62314 0.0
H154 H 0.93607 0.1168 0.58136 0.0
H155 H 0.95549 0.16755 0.62271 0.0
Eu156 Eu 0.52629 0.04801 0.75417 0.0
C157 C 0.5352 0.9251 0.54383 0.0
C158 C 0.57309 0.93509 0.43484 0.0
C159 C 0.56429 0.88328 0.47916 0.0
C160 C 0.55066 0.94554 0.49398 0.0
C161 C 0.54154 0.89366 0.53627 0.0
C162 C 0.58003 0.90396 0.42849 0.0
C163 C 0.50082 0.88471 0.63696 0.0
N164 N 0.51306 0.93577 0.59724 0.0
C165 C 0.49532 0.91598 0.64197 0.0
C166 C 0.52427 0.87349 0.58459 0.0
Eu167 Eu 0.50343 0.98897 0.60154 0.0
N168 N 0.54332 0.9755 0.50167 0.0
C169 C 0.55734 0.99599 0.44948 0.0
C170 C 0.58763 0.95614 0.38284 0.0
C171 C 0.57959 0.98668 0.38998 0.0
H172 H 0.47692 0.92435 0.68216 0.0
H173 H 0.59069 1.00319 0.34997 0.0
H174 H 0.59723 0.89562 0.38371 0.0
H175 H 0.48678 0.86928 0.67294 0.0
H176 H 0.55257 0.01987 0.45415 0.0
H177 H 0.53995 0.03777 0.10343 0.0
H178 H 0.60498 0.94905 0.33685 0.0
H179 H 0.46947 0.07983 0.64023 0.0
H180 H 0.55621 0.03541 0.95013 0.0
H181 H 0.42079 0.1062 0.66801 0.0
H182 H 0.5695 0.85925 0.4726 0.0
H183 H 0.48818 0.05555 0.14084 0.0
H184 H 0.43908 0.0802 0.09256 0.0
H185 H 0.52839 0.84922 0.58042 0.0
H186 H 0.40809 0.10129 0.97563 0.0
N187 N 0.51375 0.0513 0.90249 0.0
C188 C 0.53373 0.04383 0.96649 0.0
C189 C 0.49546 0.05558 0.07403 0.0
C190 C 0.47639 0.06641 1.00875 0.0
C191 C 0.52464 0.04518 0.05311 0.0
C192 C 0.48651 0.06428 0.92231 0.0
H193 H 0.40204 0.11283 0.81788 0.0
N194 N 0.4783 0.07161 0.77305 0.0
C195 C 0.43397 0.09756 0.72141 0.0
C196 C 0.46859 0.07533 0.85595 0.0
C197 C 0.46163 0.08265 0.70592 0.0
C198 C 0.4234 0.10113 0.80612 0.0
C199 C 0.44044 0.0895 0.87456 0.0
O200 O 0.53109 0.09693 0.74154 0.0
O201 O 0.54244 0.01845 0.64276 0.0
O202 O 0.52048 0.96562 0.72618 0.0
O203 O 0.52538 1.00451 0.83139 0.0
O204 O 0.57187 0.02299 0.74608 0.0
O205 O 0.56492 0.07182 0.81306 0.0
O206 O 0.4689 0.96217 0.53158 0.0
O207 O 0.48637 0.02208 0.70305 0.0
O208 O 0.52627 0.06944 0.62164 0.0
O209 O 0.50793 0.03276 0.52426 0.0
O210 O 0.46625 0.97969 0.70007 0.0
O211 O 0.4721 0.01016 0.51146 0.0
C212 C 0.56847 0.01036 0.67038 0.0
C213 C 0.58206 0.11429 0.73475 0.0
C214 C 0.63492 0.13048 0.73227 0.0
C215 C 0.61111 0.1149 0.77164 0.0
C216 C 0.62979 0.14579 0.65515 0.0
C217 C 0.57691 0.12993 0.65749 0.0
C218 C 0.60075 0.14544 0.61783 0.0
C219 C 0.52459 0.97529 0.80787 0.0
C220 C 0.55762 0.09778 0.77916 0.0
C221 C 0.42999 0.09114 0.96034 0.0
C222 C 0.44772 0.07922 0.02706 0.0
C223 C 0.46637 1.00561 0.73963 0.0
C224 C 0.42258 0.98942 0.51455 0.0
C225 C 0.40916 0.01848 0.5242 0.0
C226 C 0.3775 0.02175 0.53518 0.0
C227 C 0.35952 0.99531 0.53775 0.0
C228 C 0.40407 0.96356 0.51787 0.0
C229 C 0.37278 0.96655 0.53009 0.0
C230 C 0.51761 0.06062 0.54331 0.0
C231 C 0.45569 0.98597 0.5 0.0
H232 H 0.61532 0.10322 0.83167 0.0
H233 H 0.64812 0.1578 0.62406 0.0
H234 H 0.55459 0.13024 0.62773 0.0
H235 H 0.59666 0.15724 0.55817 0.0
H236 H 0.4233 0.03858 0.52251 0.0
H237 H 0.33499 0.99669 0.54327 0.0
H238 H 0.41377 0.94099 0.51051 0.0
H239 H 0.35863 0.94648 0.53193 0.0
Eu240 Eu 0.54124 0.51381 0.59022 0.0
C241 C 0.41908 0.47529 0.73952 0.0
C242 C 0.38247 0.49616 0.63988 0.0
C243 C 0.37218 0.44797 0.70731 0.0
C244 C 0.41088 0.49762 0.68274 0.0
C245 C 0.39923 0.45085 0.75526 0.0
C246 C 0.36382 0.47062 0.64956 0.0
C247 C 0.43179 0.43668 0.8738 0.0
N248 N 0.445 0.47914 0.78591 0.0
C249 C 0.45062 0.46131 0.85598 0.0
C250 C 0.40635 0.43097 0.82186 0.0
Eu251 Eu 0.47814 0.51917 0.74412 0.0
N252 N 0.42933 0.52215 0.67575 0.0
C253 C 0.41866 0.54759 0.6361 0.0
C254 C 0.37297 0.52107 0.59213 0.0
C255 C 0.39075 0.54724 0.59248 0.0
H256 H 0.47044 0.46551 0.89604 0.0
H257 H 0.3829 0.56728 0.55964 0.0
H258 H 0.34224 0.46885 0.61577 0.0
H259 H 0.43683 0.4222 0.92768 0.0
H260 H 0.43109 0.56854 0.63806 0.0
H261 H 0.63505 0.4626 0.77294 0.0
H262 H 0.35131 0.52087 0.5585 0.0
H263 H 0.54603 0.57133 0.4514 0.0
H264 H 0.58517 0.46406 0.70471 0.0
H265 H 0.58216 0.61144 0.41183 0.0
H266 H 0.35693 0.42907 0.71734 0.0
H267 H 0.66947 0.50675 0.76575 0.0
H268 H 0.6807 0.55762 0.70432 0.0
H269 H 0.39165 0.41201 0.83615 0.0
H270 H 0.6666 0.59802 0.6043 0.0
N271 N 0.58986 0.50924 0.65796 0.0
C272 C 0.59936 0.48377 0.69977 0.0
C273 C 0.64732 0.50766 0.73498 0.0
C274 C 0.6385 0.53279 0.68715 0.0
C275 C 0.62798 0.48273 0.73924 0.0
C276 C 0.60941 0.53278 0.64793 0.0
H277 H 0.63061 0.61748 0.49206 0.0
N278 N 0.57412 0.55409 0.55162 0.0
C279 C 0.58765 0.59636 0.46386 0.0
C280 C 0.60139 0.55576 0.59256 0.0
C281 C 0.5674 0.57344 0.48589 0.0
C282 C 0.61497 0.5996 0.50921 0.0
C283 C 0.62231 0.57901 0.57382 0.0
O284 O 0.55291 0.51221 0.45343 0.0
O285 O 0.49093 0.50589 0.60837 0.0
O286 O 0.4916 0.46949 0.73602 0.0
O287 O 0.53613 0.46729 0.65396 0.0
O288 O 0.50305 0.52683 0.49625 0.0
O289 O 0.55586 0.47121 0.52736 0.0
O290 O 0.45795 0.52631 0.87232 0.0
O291 O 0.52867 0.52468 0.72779 0.0
O292 O 0.53329 0.56372 0.62489 0.0
O293 O 0.4823 0.56227 0.66146 0.0
O294 O 0.51501 0.50465 0.83981 0.0
O295 O 0.4752 0.56453 0.80333 0.0
C296 C 0.48035 0.51616 0.53836 0.0
C297 C 0.53963 0.46739 0.38113 0.0
C298 C 0.49477 0.43956 0.33042 0.0
C299 C 0.51151 0.45364 0.39779 0.0
C300 C 0.50641 0.44054 0.24544 0.0
C301 C 0.55067 0.46815 0.29627 0.0
C302 C 0.53399 0.45491 0.22869 0.0
C303 C 0.51537 0.45475 0.70413 0.0
C304 C 0.55663 0.48298 0.45054 0.0
C305 C 0.65044 0.5801 0.61692 0.0
C306 C 0.65847 0.55709 0.67383 0.0
C307 C 0.53856 0.51331 0.79743 0.0
C308 C 0.48264 0.56424 0.95522 0.0
C309 C 0.51141 0.57782 0.94847 0.0
C310 C 0.52696 0.58887 0.02236 0.0
C311 C 0.51373 0.58417 0.10418 0.0
C312 C 0.47011 0.55975 0.0372 0.0
C313 C 0.48581 0.56933 0.11128 0.0
C314 C 0.50645 0.57702 0.63227 0.0
C315 C 0.46556 0.55473 0.8772 0.0
H316 H 0.50294 0.45375 0.46341 0.0
H317 H 0.49491 0.42927 0.19187 0.0
H318 H 0.57208 0.47916 0.2823 0.0
H319 H 0.54268 0.45533 0.16323 0.0
H320 H 0.52127 0.5803 0.88506 0.0
H321 H 0.52411 0.59291 0.16306 0.0
H322 H 0.4481 0.54899 0.04387 0.0
H323 H 0.47592 0.56604 0.17445 0.0
Eu324 Eu 0.01938 0.53139 0.58683 0.0
C325 C 0.03339 0.41326 0.72146 0.0
C326 C 0.99908 0.38312 0.63222 0.0
C327 C 0.04707 0.36141 0.67833 0.0
C328 C 1.00651 0.4107 0.67579 0.0
C329 C 0.05355 0.3882 0.72544 0.0
C330 C 0.01987 0.35888 0.63166 0.0
C331 C 0.08186 0.41536 0.83557 0.0
N332 N 0.03834 0.43904 0.76907 0.0
C333 C 0.0608 0.43911 0.83114 0.0
C334 C 0.07867 0.39006 0.78082 0.0
Eu335 Eu 1.00213 0.4798 0.75365 0.0
N336 N 0.98674 0.43447 0.67814 0.0
C337 C 0.95799 0.43081 0.64536 0.0
C338 C 0.97051 0.38029 0.59312 0.0
C339 C 0.94968 0.40408 0.60113 0.0
H340 H 0.06273 0.45761 0.87799 0.0
H341 H 0.92704 0.40174 0.57411 0.0
H342 H 0.0147 0.33774 0.59766 0.0
H343 H 0.10013 0.41631 0.88263 0.0
H344 H 0.94082 0.44795 0.65449 0.0
H345 H 0.1284 0.59276 0.5984 0.0
H346 H 0.96398 0.35953 0.55913 0.0
H347 H 0.94916 0.56281 0.60258 0.0
H348 H 0.09355 0.55144 0.55601 0.0
H349 H 0.92492 0.60972 0.65498 0.0
H350 H 0.0624 0.3421 0.68018 0.0
H351 H 0.10871 0.63844 0.67562 0.0
H352 H 0.06372 0.66836 0.72841 0.0
H353 H 0.09465 0.37136 0.78551 0.0
H354 H 1.00819 0.67336 0.74165 0.0
N355 N 0.05476 0.57151 0.61826 0.0
C356 C 0.08473 0.57063 0.59313 0.0
C357 C 0.09338 0.61994 0.65932 0.0
C358 C 0.06221 0.6223 0.67621 0.0
C359 C 0.10458 0.59423 0.61581 0.0
C360 C 0.04317 0.59748 0.65406 0.0
H361 H 0.95638 0.652 0.71265 0.0
N362 N 0.99419 0.57653 0.63596 0.0
C363 C 0.94941 0.60727 0.65842 0.0
C364 C 0.01194 0.60031 0.66148 0.0
C365 C 0.96335 0.58025 0.63013 0.0
C366 C 0.96723 0.63109 0.69061 0.0
C367 C 0.9989 0.62804 0.69107 0.0
O368 O 0.99205 0.53504 0.46839 0.0
O369 O 1.0099 0.4819 0.61013 0.0
O370 O 0.05193 0.49375 0.77225 0.0
O371 O 0.06551 0.51792 0.64666 0.0
O372 O 0.04851 0.49127 0.54028 0.0
O373 O 0.03767 0.55183 0.47036 0.0
O374 O 1.00107 0.46325 0.88625 0.0
O375 O 1.00006 0.53006 0.72228 0.0
O376 O 0.97134 0.51337 0.56207 0.0
O377 O 0.95655 0.49755 0.6975 0.0
O378 O 0.01983 0.51884 0.83836 0.0
O379 O 0.95915 0.47232 0.82029 0.0
C380 C 0.03146 0.46948 0.56696 0.0
C381 C 0.01922 0.53262 0.33728 0.0
C382 C 0.04951 0.49853 0.24542 0.0
C383 C 0.04086 0.50949 0.32767 0.0
C384 C 0.03447 0.5096 0.17214 0.0
C385 C 1.00446 0.54367 0.26383 0.0
C386 C 0.01197 0.53202 0.1816 0.0
C387 C 0.07253 0.50633 0.7225 0.0
C388 C 0.01375 0.54656 0.42312 0.0
C389 C 0.01781 0.65211 0.71762 0.0
C390 C 0.04942 0.64923 0.7103 0.0
C391 C 0.01223 0.54144 0.79107 0.0
C392 C 0.96143 0.48399 0.96939 0.0
C393 C 0.94971 0.51323 0.95832 0.0
C394 C 0.93667 0.52966 0.02769 0.0
C395 C 0.93803 0.51709 0.11078 0.0
C396 C 0.9627 0.47186 0.05231 0.0
C397 C 0.95134 0.48859 0.12296 0.0
C398 C 0.94992 0.5049 0.61647 0.0
C399 C 0.97189 0.46617 0.89385 0.0
H400 H 0.05209 0.50091 0.38437 0.0
H401 H 0.04088 0.5019 0.10768 0.0
H402 H 0.98762 0.56163 0.2699 0.0
H403 H 1.00094 0.54099 0.12485 0.0
H404 H 0.94974 0.52254 0.89428 0.0
H405 H 0.92798 0.52864 0.16606 0.0
H406 H 0.97218 0.44944 0.06216 0.0
H407 H 0.95212 0.47914 0.18703 0.0
H408 H 0.22129 0.02689 0.31457 0.0
H409 H 0.17435 0.05064 0.07934 0.0
H410 H 0.12469 0.04419 0.15347 0.0
H411 H 0.16439 0.9714 0.39581 0.0
H412 H 0.16976 0.98396 0.5064 0.0
H413 H 0.20087 0.98576 0.43086 0.0
H414 H 0.20712 0.04291 0.46653 0.0
H415 H 0.17577 0.04187 0.54119 0.0
H416 H 0.17523 0.06821 0.45358 0.0
H417 H 0.07946 0.03995 0.26252 0.0
H418 H 0.04484 0.03585 0.38791 0.0
H419 H 0.12244 0.0181 0.55245 0.0
C420 C 0.20052 0.02909 0.27732 0.0
C421 C 0.20186 0.03776 0.18945 0.0
C422 C 0.17405 0.04253 0.145 0.0
C423 C 0.14568 0.03935 0.18735 0.0
C424 C 0.14529 0.03169 0.27493 0.0
C425 C 0.17216 0.0264 0.319 0.0
C426 C 0.16606 0.02091 0.41426 0.0
C427 C 0.17586 0.98859 0.43824 0.0
C428 C 0.18198 0.0449 0.47226 0.0
C429 C 0.13165 0.0244 0.41785 0.0
C430 C 0.1199 0.03024 0.33688 0.0
C431 C 0.08862 0.03485 0.32562 0.0
C432 C 0.06903 0.03262 0.39786 0.0
C433 C 0.08046 0.02604 0.48156 0.0
C434 C 0.11244 0.02251 0.49057 0.0
H435 H 0.46062 0.18073 0.19929 0.0
H436 H 0.55285 0.2152 0.18765 0.0
H437 H 0.57038 0.17246 0.27746 0.0
H438 H 0.46412 0.16303 0.4192 0.0
H439 H 0.44094 0.12943 0.41061 0.0
H440 H 0.43556 0.15994 0.33561 0.0
H441 H 0.44239 0.12294 0.21018 0.0
H442 H 0.45031 0.09089 0.27773 0.0
H443 H 0.47755 0.10236 0.19766 0.0
H444 H 0.57595 0.12963 0.38867 0.0
H445 H 0.56969 0.08932 0.49687 0.0
H446 H 0.47389 0.0829 0.43386 0.0
C447 C 0.48468 0.1791 0.21405 0.0
C448 C 0.50534 0.20152 0.18566 0.0
C449 C 0.53658 0.19821 0.20689 0.0
C450 C 0.54668 0.17411 0.25889 0.0
C451 C 0.52532 0.15336 0.28922 0.0
C452 C 0.49499 0.15563 0.26677 0.0
C453 C 0.47608 0.13194 0.31182 0.0
C454 C 0.45275 0.14704 0.37288 0.0
C455 C 0.46059 0.11071 0.24554 0.0
C456 C 0.50033 0.11552 0.36277 0.0
C457 C 0.52863 0.12845 0.35002 0.0
C458 C 0.55398 0.11907 0.39731 0.0
C459 C 0.55021 0.09623 0.45892 0.0
C460 C 0.52143 0.08271 0.47265 0.0
C461 C 0.49631 0.09226 0.42295 0.0
H462 H 0.33527 0.52245 0.20783 0.0
H463 H 0.32607 0.42606 0.25794 0.0
H464 H 0.36872 0.42867 0.35833 0.0
H465 H 0.42144 0.51699 0.20955 0.0
H466 H 0.42595 0.55464 0.2558 0.0
H467 H 0.39366 0.54606 0.18756 0.0
H468 H 0.35852 0.56552 0.30956 0.0
H469 H 0.3902 0.57252 0.38147 0.0
H470 H 0.35965 0.54791 0.41351 0.0
H471 H 0.4087 0.44129 0.46618 0.0
H472 H 0.45233 0.4612 0.55067 0.0
H473 H 0.44454 0.54705 0.41974 0.0
C474 C 0.34242 0.50179 0.2388 0.0
C475 C 0.32534 0.4744 0.22733 0.0
C476 C 0.33675 0.44795 0.26842 0.0
C477 C 0.36149 0.44896 0.32559 0.0
C478 C 0.37657 0.47625 0.339 0.0
C479 C 0.36851 0.50197 0.29431 0.0
C480 C 0.39074 0.52762 0.31782 0.0
C481 C 0.40903 0.53687 0.23791 0.0
C482 C 0.37378 0.55502 0.35802 0.0
C483 C 0.41143 0.51237 0.38436 0.0
C484 C 0.40233 0.4828 0.39598 0.0
C485 C 0.41647 0.46427 0.45648 0.0
C486 C 0.44116 0.47584 0.50484 0.0
C487 C 0.45191 0.50569 0.49267 0.0
C488 C 0.43684 0.52411 0.43081 0.0
H489 H 0.09002 0.32112 0.30298 0.0
H490 H 0.99887 0.30753 0.20132 0.0
H491 H 0.98221 0.35476 0.27952 0.0
H492 H 0.06723 0.34126 0.51119 0.0
H493 H 0.09584 0.36974 0.53402 0.0
H494 H 0.10387 0.33843 0.46051 0.0
H495 H 0.117 0.37225 0.33471 0.0
H496 H 0.11231 0.40493 0.40572 0.0
H497 H 0.09103 0.40218 0.30622 0.0
H498 H 0.97626 0.40538 0.37516 0.0
H499 H 0.98113 0.45005 0.47484 0.0
H500 H 0.07511 0.42621 0.52398 0.0
C501 C 0.06634 0.32761 0.29694 0.0
C502 C 0.04578 0.30968 0.24571 0.0
C503 C 0.01536 0.32041 0.23891 0.0
C504 C 1.00563 0.34724 0.28419 0.0
C505 C 0.02638 0.36327 0.33723 0.0
C506 C 0.05613 0.35352 0.34351 0.0
C507 C 0.0741 0.3734 0.40698 0.0
C508 C 0.08595 0.35465 0.4828 0.0
C509 C 0.10029 0.3891 0.36069 0.0
C510 C 0.05004 0.39636 0.43602 0.0
C511 C 0.02264 0.39044 0.39449 0.0
C512 C 0.99757 0.40964 0.40839 0.0
C513 C 1.00047 0.435 0.46587 0.0
C514 C 0.02814 0.44122 0.51035 0.0
C515 C 0.05334 0.42172 0.49339 0.0
H516 H 0.80899 0.97763 0.03188 0.0
H517 H 0.85084 0.99858 0.2793 0.0
H518 H 0.9019 0.99073 0.21313 0.0
H519 H 0.86706 0.92297 0.94371 0.0
H520 H 0.86458 0.93823 0.83655 0.0
H521 H 0.83162 0.93857 0.90599 0.0
H522 H 0.82556 0.99647 0.89176 0.0
H523 H 0.85776 0.99652 0.82083 0.0
H524 H 0.85752 0.02093 0.91565 0.0
H525 H 0.94949 0.98709 0.11017 0.0
H526 H 0.98604 0.98915 0.98923 0.0
H527 H 0.91208 0.97546 0.80677 0.0
C528 C 0.82885 0.97907 0.07337 0.0
C529 C 0.82553 0.988 0.16191 0.0
C530 C 0.85238 0.99085 0.21248 0.0
C531 C 0.88163 0.9868 0.17468 0.0
C532 C 0.88394 0.97999 0.0857 0.0
C533 C 0.85802 0.97585 0.03622 0.0
C534 C 0.86592 0.97274 0.94061 0.0
C535 C 0.85677 0.94125 0.90455 0.0
C536 C 0.85077 0.99823 0.88933 0.0
C537 C 0.90037 0.97631 0.94261 0.0
C538 C 0.91051 0.97991 0.02699 0.0
C539 C 0.94148 0.98431 0.04424 0.0
C540 C 0.96224 0.98562 0.97438 0.0
C541 C 0.95233 0.98332 0.88682 0.0
C542 C 0.92079 0.97794 0.87193 0.0
H543 H 0.54311 0.81164 0.02952 0.0
H544 H 0.53016 0.85714 0.2784 0.0
H545 H 0.52191 0.90586 0.20357 0.0
H546 H 0.58558 0.86992 0.93299 0.0
H547 H 0.56929 0.86472 0.8266 0.0
H548 H 0.57141 0.83318 0.89876 0.0
H549 H 0.51315 0.82494 0.88498 0.0
H550 H 0.51137 0.85598 0.81113 0.0
H551 H 0.48767 0.85643 0.90622 0.0
H552 H 0.51904 0.95023 0.10102 0.0
H553 H 0.51817 0.986 0.98221 0.0
H554 H 0.53407 0.91221 0.79741 0.0
C555 C 0.53814 0.83179 0.06848 0.0
C556 C 0.53726 0.83045 0.16037 0.0
C557 C 0.53056 0.85738 0.20836 0.0
C558 C 0.5261 0.88521 0.16619 0.0
C559 C 0.52818 0.88577 0.07578 0.0
C560 C 0.53372 0.85966 0.02747 0.0
C561 C 0.53579 0.86646 0.93139 0.0
C562 C 0.5674 0.85807 0.89535 0.0
C563 C 0.51047 0.84997 0.88046 0.0
C564 C 0.53085 0.90067 0.93273 0.0
C565 C 0.52655 0.91126 0.01682 0.0
C566 C 0.52229 0.94203 0.03517 0.0
C567 C 0.52216 0.9624 0.96649 0.0
C568 C 0.52622 0.95246 0.87918 0.0
C569 C 0.53065 0.92088 0.86269 0.0
H570 H 0.6831 0.49367 0.12497 0.0
H571 H 0.68473 0.59224 0.13352 0.0
H572 H 0.64274 0.59374 0.02949 0.0
H573 H 0.65984 0.4787 0.91607 0.0
H574 H 0.63013 0.45131 0.93429 0.0
H575 H 0.66074 0.45578 1.01114 0.0
H576 H 0.62321 0.467 0.13551 0.0
H577 H 0.59215 0.46097 0.06078 0.0
H578 H 0.5945 0.49594 0.12314 0.0
H579 H 0.60921 0.58476 0.89978 0.0
H580 H 0.56793 0.56798 0.80091 0.0
H581 H 0.57425 0.47721 0.90337 0.0
C582 C 0.67392 0.51557 0.10775 0.0
C583 C 0.68894 0.54295 0.13458 0.0
C584 C 0.675 0.57089 0.11142 0.0
C585 C 0.65103 0.5721 0.05181 0.0
C586 C 0.63856 0.5451 0.0209 0.0
C587 C 0.6477 0.51741 0.05297 0.0
C588 C 0.62693 0.49244 0.01571 0.0
C589 C 0.64551 0.46811 0.96629 0.0
C590 C 0.60808 0.47824 0.08809 0.0
C591 C 0.60642 0.51043 0.95444 0.0
C592 C 0.61449 0.54065 0.95681 0.0
C593 C 0.60157 0.56142 0.90011 0.0
C594 C 0.57833 0.55163 0.84333 0.0
C595 C 0.56737 0.52149 0.84488 0.0
C596 C 0.58185 0.50056 0.90127 0.0
H597 H 0.03123 0.69381 0.09976 0.0
H598 H 0.9331 0.68993 0.12637 0.0
H599 H 0.93166 0.64526 0.02863 0.0
H600 H 0.03983 0.66914 0.89161 0.0
H601 H 0.07029 0.64174 0.90049 0.0
H602 H 0.06691 0.67254 0.97862 0.0
H603 H 0.06391 0.63662 0.10648 0.0
H604 H 0.06993 0.60513 0.03187 0.0
H605 H 0.03746 0.60537 0.10302 0.0
H606 H 0.93911 0.60873 0.90496 0.0
H607 H 0.95538 0.56594 0.80943 0.0
H608 H 0.04931 0.58329 0.88025 0.0
C609 C 1.00961 0.68259 0.08911 0.0
C610 C 0.98206 0.69614 0.12104 0.0
C611 C 0.95446 0.68037 0.10367 0.0
C612 C 0.9533 0.65505 0.04706 0.0
C613 C 0.98024 0.64358 1.01233 0.0
C614 C 1.00813 0.65534 0.03703 0.0
C615 C 0.03349 0.63624 0.99408 0.0
C616 C 0.05385 0.65607 0.93779 0.0
C617 C 0.05232 0.61987 0.06296 0.0
C618 C 0.01524 0.61329 0.93867 0.0
C619 C 0.98456 0.61879 0.94897 0.0
C620 C 0.96293 0.60282 0.9001 0.0
C621 C 0.97247 0.57888 0.84456 0.0
C622 C 1.00354 0.57087 0.83682 0.0
C623 C 0.02528 0.58869 0.88445 0.0
H624 H 0.10269 0.17378 0.22852 0.0
H625 H 0.12562 0.25581 0.37393 0.0
H626 H 0.13178 0.22583 0.50382 0.0
H627 H 0.06082 0.14128 0.31581 0.0
H628 H 0.07308 0.10227 0.32527 0.0
H629 H 0.08873 0.12481 0.24264 0.0
H630 H 0.14204 0.11257 0.29744 0.0
H631 H 0.12702 0.09113 0.38583 0.0
H632 H 0.15301 0.1218 0.40722 0.0
H633 H 0.10515 0.19749 0.6123 0.0
H634 H 0.05999 0.17381 0.67398 0.0
H635 H 0.06064 0.10637 0.46636 0.0
C636 C 0.11109 0.18546 0.28551 0.0
C637 C 0.11077 0.21759 0.2921 0.0
C638 C 0.12292 0.23143 0.3682 0.0
C639 C 0.12744 0.21436 0.44245 0.0
C640 C 0.12202 0.18315 0.4379 0.0
C641 C 0.11685 0.16833 0.35913 0.0
C642 C 0.1065 0.13598 0.37296 0.0
C643 C 0.08069 0.12564 0.31072 0.0
C644 C 0.13379 0.11412 0.36533 0.0
C645 C 0.09659 0.13894 0.46653 0.0
C646 C 0.10845 0.16507 0.50548 0.0
C647 C 0.09668 0.17652 0.58365 0.0
C648 C 0.07052 0.16319 0.6177 0.0
C649 C 0.05628 0.13859 0.57366 0.0
C650 C 0.07122 0.12484 0.50213 0.0
H651 H 0.32025 0.12508 0.2232 0.0
H652 H 0.23595 0.10274 0.35319 0.0
H653 H 0.26077 0.10757 0.49054 0.0
H654 H 0.36147 0.08076 0.28467 0.0
H655 H 0.39629 0.09932 0.31811 0.0
H656 H 0.37161 0.11752 0.24365 0.0
H657 H 0.37165 0.16374 0.34315 0.0
H658 H 0.39226 0.14637 0.43055 0.0
H659 H 0.3555 0.16241 0.44999 0.0
H660 H 0.2937 0.08329 0.58872 0.0
H661 H 0.32657 0.04091 0.62487 0.0
H662 H 0.39355 0.07118 0.44105 0.0
C663 C 0.30687 0.12196 0.2808 0.0
C664 C 0.27677 0.11078 0.27481 0.0
C665 C 0.25939 0.10997 0.35231 0.0
C666 C 0.2735 0.11285 0.43292 0.0
C667 C 0.30493 0.11661 0.43594 0.0
C668 C 0.32134 0.12303 0.36186 0.0
C669 C 0.35509 0.11866 0.37817 0.0
C670 C 0.372 0.10305 0.30163 0.0
C671 C 0.36948 0.1496 0.40153 0.0
C672 C 0.35367 0.09925 0.45801 0.0
C673 C 0.32521 0.10168 0.49628 0.0
C674 C 0.31622 0.08189 0.56067 0.0
C675 C 0.33503 0.05733 0.58005 0.0
C676 C 0.36264 0.05233 0.53498 0.0
C677 C 0.37291 0.07477 0.47782 0.0
H678 H 0.41474 0.31545 0.12311 0.0
H679 H 0.4516 0.26992 0.34542 0.0
H680 H 0.4379 0.31302 0.43748 0.0
H681 H 0.45459 0.36803 0.13683 0.0
H682 H 0.43165 0.40054 0.10888 0.0
H683 H 0.42033 0.36356 0.07335 0.0
H684 H 0.36828 0.36887 0.14844 0.0
H685 H 0.3788 0.40705 0.17989 0.0
H686 H 0.36619 0.38073 0.26046 0.0
H687 H 0.45029 0.36263 0.48394 0.0
H688 H 0.48406 0.40595 0.47516 0.0
H689 H 0.44444 0.42911 0.2283 0.0
C690 C 0.41866 0.31437 0.19208 0.0
C691 C 0.43557 0.29 0.2258 0.0
C692 C 0.43907 0.28833 0.31653 0.0
C693 C 0.43136 0.31317 0.36998 0.0
C694 C 0.42093 0.33976 0.33183 0.0
C695 C 0.41351 0.34026 0.24444 0.0
C696 C 0.41255 0.37265 0.21249 0.0
C697 C 0.43092 0.37639 0.12812 0.0
C698 C 0.37947 0.38295 0.19977 0.0
C699 C 0.42699 0.38922 0.28917 0.0
C700 C 0.42918 0.37039 0.35978 0.0
C701 C 0.44785 0.37782 0.43024 0.0
C702 C 0.46726 0.40277 0.42459 0.0
C703 C 0.46763 0.42052 0.34935 0.0
C704 C 0.44514 0.41532 0.28532 0.0
H705 H 0.22141 0.46101 0.3158 0.0
H706 H 0.2136 0.39366 0.10956 0.0
H707 H 0.15773 0.39504 0.1231 0.0
H708 H 0.14773 0.44251 0.43988 0.0
H709 H 0.14032 0.48245 0.45717 0.0
H710 H 0.17891 0.46836 0.45614 0.0
H711 H 0.19313 0.50602 0.33861 0.0
H712 H 0.15503 0.52057 0.33605 0.0
H713 H 0.17228 0.5059 0.23803 0.0
H714 H 0.10535 0.41781 0.12046 0.0
H715 H 0.05874 0.4495 0.13324 0.0
H716 H 0.10219 0.50333 0.33647 0.0
C717 C 0.20806 0.44465 0.27884 0.0
C718 C 0.22155 0.42758 0.21102 0.0
C719 C 0.20349 0.40683 0.16215 0.0
C720 C 0.17168 0.40791 0.16844 0.0
C721 C 0.15872 0.42893 0.22626 0.0
C722 C 0.17637 0.44599 0.28359 0.0
C723 C 0.15783 0.47072 0.32809 0.0
C724 C 0.15605 0.46569 0.42606 0.0
C725 C 0.17032 0.50263 0.30893 0.0
C726 C 0.12746 0.46567 0.28454 0.0
C727 C 0.12832 0.44176 0.22538 0.0
C728 C 0.10405 0.43587 0.1689 0.0
C729 C 0.07781 0.45414 0.1759 0.0
C730 C 0.07646 0.47831 0.23766 0.0
C731 C 0.10182 0.48408 0.29166 0.0
H732 H 0.94516 0.7649 0.93135 0.0
H733 H 0.91434 0.82651 0.13525 0.0
H734 H 0.8983 0.86252 0.02627 0.0
H735 H 0.97874 0.79184 0.81718 0.0
H736 H 0.96556 0.78696 0.70691 0.0
H737 H 0.95414 0.76061 0.7863 0.0
H738 H 0.89819 0.77049 0.75163 0.0
H739 H 0.90946 0.79707 0.67043 0.0
H740 H 0.88305 0.80855 0.75394 0.0
H741 H 0.9166 0.89747 0.92474 0.0
H742 H 0.96372 0.91741 0.87033 0.0
H743 H 0.97563 0.83774 0.70641 0.0
C744 C 0.93291 0.7848 0.95356 0.0
C745 C 0.93265 0.7933 0.04237 0.0
C746 C 0.91672 0.81999 0.06773 0.0
C747 C 0.90652 0.84033 1.00567 0.0
C748 C 0.9112 0.83325 0.91807 0.0
C749 C 0.92167 0.80476 0.89164 0.0
C750 C 0.93075 0.80489 0.79713 0.0
C751 C 0.95905 0.78501 0.77597 0.0
C752 C 0.90375 0.79469 0.74 0.0
C753 C 0.93584 0.83869 0.78792 0.0
C754 C 0.9204 0.85491 0.85302 0.0
C755 C 0.9281 0.88502 0.87327 0.0
C756 C 0.95543 0.89639 0.84171 0.0
C757 C 0.97416 0.87797 0.78786 0.0
C758 C 0.96192 0.85123 0.75088 0.0
H759 H 0.74608 0.03032 0.98441 0.0
H760 H 0.74733 0.10284 0.17783 0.0
H761 H 0.72639 0.13847 0.07044 0.0
H762 H 0.75992 0.07727 0.78721 0.0
H763 H 0.73305 0.05509 0.72445 0.0
H764 H 0.75481 0.03753 0.809 0.0
H765 H 0.70489 0.01956 0.88153 0.0
H766 H 0.68338 0.03646 0.79631 0.0
H767 H 0.67566 0.04712 0.90739 0.0
H768 H 0.69832 0.16343 0.95126 0.0
H769 H 0.65915 0.17338 0.84009 0.0
H770 H 0.67443 0.08402 0.72739 0.0
C771 C 0.74278 0.05399 1.00289 0.0
C772 C 0.74863 0.06426 0.08809 0.0
C773 C 0.74314 0.09491 0.11209 0.0
C774 C 0.73161 0.11524 0.05138 0.0
C775 C 0.72568 0.10436 0.96755 0.0
C776 C 0.73082 0.07429 0.94365 0.0
C777 C 0.71762 0.06675 0.8555 0.0
C778 C 0.74287 0.0587 0.79018 0.0
C779 C 0.69399 0.04099 0.86057 0.0
C780 C 0.7029 0.09685 0.83513 0.0
C781 C 0.70869 0.11861 0.89902 0.0
C782 C 0.69432 0.14694 0.89962 0.0
C783 C 0.67231 0.15253 0.83608 0.0
C784 C 0.66483 0.12974 0.77414 0.0
C785 C 0.6811 0.10218 0.77157 0.0
H786 H 0.61713 0.70969 0.25005 0.0
H787 H 0.59083 0.7593 0.0224 0.0
H788 H 0.59783 0.71387 0.93374 0.0
H789 H 0.65527 0.6382 0.1331 0.0
H790 H 0.63541 0.61381 0.207 0.0
H791 H 0.64976 0.65015 0.24399 0.0
H792 H 0.59668 0.6648 0.29872 0.0
H793 H 0.58139 0.62938 0.26149 0.0
H794 H 0.56487 0.66435 0.22467 0.0
H795 H 0.57911 0.66615 0.88643 0.0
H796 H 0.5424 0.62535 0.88579 0.0
H797 H 0.57385 0.59841 0.13963 0.0
C798 C 0.61375 0.71107 0.18091 0.0
C799 C 0.60152 0.73771 0.14491 0.0
C800 C 0.59952 0.73928 0.05361 0.0
C801 C 0.60329 0.71311 1.00195 0.0
C802 C 0.6083 0.68548 0.04238 0.0
C803 C 0.6142 0.68432 0.13043 0.0
C804 C 0.60881 0.65263 0.164 0.0
C805 C 0.63914 0.63775 0.18835 0.0
C806 C 0.5866 0.65287 0.24159 0.0
C807 C 0.5949 0.63745 0.08437 0.0
C808 C 0.59637 0.65627 1.01382 0.0
C809 C 0.57892 0.65067 0.93988 0.0
C810 C 0.55781 0.62702 0.94024 0.0
C811 C 0.55455 0.60845 1.01355 0.0
C812 C 0.57516 0.61247 0.08329 0.0
H813 H 0.81183 0.6127 0.21796 0.0
H814 H 0.77062 0.582 0.97775 0.0
H815 H 0.81564 0.59678 0.89926 0.0
H816 H 0.88258 0.66055 0.10324 0.0
H817 H 0.90621 0.64578 0.18866 0.0
H818 H 0.86798 0.6584 0.21168 0.0
H819 H 0.85847 0.60637 0.27916 0.0
H820 H 0.89551 0.59314 0.25083 0.0
H821 H 0.86252 0.57238 0.21269 0.0
H822 H 0.86431 0.58 0.86583 0.0
H823 H 0.90386 0.54245 0.881 0.0
H824 H 0.92558 0.5788 0.13667 0.0
C825 C 0.81229 0.61032 0.14818 0.0
C826 C 0.78857 0.59476 0.10489 0.0
C827 C 0.78863 0.59334 1.01358 0.0
C828 C 0.81455 0.60172 0.96805 0.0
C829 C 0.84058 0.61011 0.0148 0.0
C830 C 0.83935 0.61583 0.10354 0.0
C831 C 0.87091 0.6145 0.14344 0.0
C832 C 0.88265 0.64675 0.16266 0.0
C833 C 0.87188 0.5954 0.22622 0.0
C834 C 0.88827 0.59962 0.06913 0.0
C835 C 0.87111 0.59977 0.99364 0.0
C836 C 0.87841 0.58081 0.92327 0.0
C837 C 0.90129 0.55917 0.93276 0.0
C838 C 0.91801 0.55729 1.01094 0.0
C839 C 0.91288 0.57943 0.0768 0.0
H840 H 1.00838 0.19917 0.07691 0.0
H841 H 0.09181 0.227 0.95335 0.0
H842 H 0.08809 0.18323 0.85103 0.0
H843 H 0.02109 0.12192 0.06705 0.0
H844 H 0.98299 0.1097 0.04059 0.0
H845 H 0.98896 0.14515 0.09841 0.0
H846 H 0.95979 0.17498 0.98258 0.0
H847 H 0.9521 0.13963 0.92577 0.0
H848 H 0.97021 0.17031 0.87029 0.0
H849 H 0.08012 0.13054 0.77879 0.0
H850 H 0.06172 0.0813 0.71824 0.0
H851 H 0.98104 0.089 0.87802 0.0
C852 C 0.02495 0.19703 0.02535 0.0
C853 C 0.04999 0.21746 0.02221 0.0
C854 C 0.07194 0.21253 0.95591 0.0
C855 C 0.07026 0.18729 0.89817 0.0
C856 C 0.04616 0.16689 0.9056 0.0
C857 C 0.02325 0.17209 0.96551 0.0
C858 C 1.0 0.14637 0.96026 0.0
C859 C 0.99815 0.1298 0.0467 0.0
C860 C 0.96866 0.15855 0.93311 0.0
C861 C 0.01361 0.12578 0.88945 0.0
C862 C 0.0406 0.13774 0.85991 0.0
C863 C 0.05848 0.1216 0.79956 0.0
C864 C 0.04802 0.09335 0.76604 0.0
C865 C 0.01986 0.08106 0.79272 0.0
C866 C 1.00253 0.0978 0.85534 0.0
H867 H 0.29828 0.04618 0.92475 0.0
H868 H 0.33114 0.02102 0.17758 0.0
H869 H 0.38144 1.00821 0.11471 0.0
H870 H 0.34242 0.98521 0.80802 0.0
H871 H 0.35154 1.00738 0.71577 0.0
H872 H 0.31605 0.0138 0.77227 0.0
H873 H 0.32726 0.06919 0.79532 0.0
H874 H 0.3641 0.06734 0.74422 0.0
H875 H 0.36054 0.08127 0.85427 0.0
H876 H 0.42975 0.99992 0.02368 0.0
H877 H 0.47024 0.99565 0.91316 0.0
H878 H 0.40781 0.02779 0.71898 0.0
C879 C 0.31567 0.03678 0.96615 0.0
C880 C 0.3102 0.03375 0.05621 0.0
C881 C 0.33426 0.02264 0.10832 0.0
C882 C 0.36313 0.01561 0.07314 0.0
C883 C 0.36805 0.01959 0.98485 0.0
C884 C 0.34478 0.02933 0.93169 0.0
C885 C 0.35634 0.03198 0.83914 0.0
C886 C 0.34058 1.00825 0.78026 0.0
C887 C 0.3518 0.06435 0.80613 0.0
C888 C 0.39003 0.02419 0.84935 0.0
C889 C 0.39612 0.01633 0.93368 0.0
C890 C 0.42514 1.00648 0.95787 0.0
C891 C 0.44829 1.00443 0.89467 0.0
C892 C 0.44311 0.01319 0.80826 0.0
C893 C 0.41319 0.02262 0.78542 0.0
H894 H 0.51697 0.33447 0.0794 0.0
H895 H 0.50721 0.26289 0.88518 0.0
H896 H 0.51694 0.30026 0.77022 0.0
H897 H 0.47638 0.38682 0.97798 0.0
H898 H 0.49839 0.42023 1.00529 0.0
H899 H 0.4993 0.38814 0.07495 0.0
H900 H 0.55703 0.38289 0.06531 0.0
H901 H 0.55786 0.41629 0.99987 0.0
H902 H 0.57532 0.38151 0.96096 0.0
H903 H 0.52093 0.34827 0.67481 0.0
H904 H 0.51869 0.40007 0.61312 0.0
H905 H 0.52273 0.43943 0.87168 0.0
C906 C 0.51819 0.32637 1.01282 0.0
C907 C 0.51184 0.2955 0.99155 0.0
C908 C 0.51274 0.28611 0.9034 0.0
C909 C 0.518 0.30736 0.83761 0.0
C910 C 0.52258 0.33796 0.8608 0.0
C911 C 0.5232 0.34726 0.94685 0.0
C912 C 0.52539 0.38164 0.95562 0.0
C913 C 0.49821 0.395 1.00633 0.0
C914 C 0.55571 0.39113 0.99792 0.0
C915 C 0.52443 0.39049 0.86144 0.0
C916 C 0.52361 0.36511 0.80715 0.0
C917 C 0.5219 0.36813 0.71717 0.0
C918 C 0.5207 0.39762 0.68245 0.0
C919 C 0.52056 0.42369 0.73762 0.0
C920 C 0.5228 0.41987 0.82798 0.0
H921 H 0.20247 0.50897 0.08859 0.0
H922 H 0.26908 0.48988 0.88909 0.0
H923 H 0.22966 0.49923 0.77711 0.0
H924 H 0.14786 0.46458 0.99192 0.0
H925 H 0.11556 0.487 0.02677 0.0
H926 H 0.1501 0.48766 0.08934 0.0
H927 H 0.15289 0.54608 0.07849 0.0
H928 H 0.11794 0.54578 0.01724 0.0
H929 H 0.15148 0.56331 0.97372 0.0
H930 H 0.17935 0.50514 0.68578 0.0
H931 H 0.12636 0.5048 0.62934 0.0
H932 H 0.09225 0.51158 0.89181 0.0
C933 C 0.2093 0.50868 0.02125 0.0
C934 C 0.23958 0.49996 0.99835 0.0
C935 C 0.24676 0.49782 0.90906 0.0
C936 C 0.22415 0.50255 0.84486 0.0
C937 C 0.19404 0.50876 0.87035 0.0
C938 C 0.18674 0.51174 0.95704 0.0
C939 C 0.15235 0.51348 0.96953 0.0
C940 C 0.14081 0.48659 0.02247 0.0
C941 C 0.14313 0.54398 1.01225 0.0
C942 C 0.14119 0.51121 0.87645 0.0
C943 C 0.16547 0.50908 0.81971 0.0
C944 C 0.1604 0.50682 0.73026 0.0
C945 C 0.13009 0.50666 0.69852 0.0
C946 C 0.10485 0.50793 0.75568 0.0
C947 C 0.11084 0.51029 0.84594 0.0
H948 H 0.03197 0.81589 0.27036 0.0
H949 H 0.94857 0.78296 0.38285 0.0
H950 H 0.94969 0.82522 0.49109 0.0
H951 H 0.06719 0.84215 0.48281 0.0
H952 H 0.08487 0.87437 0.43348 0.0
H953 H 0.07869 0.8399 0.37095 0.0
H954 H 0.04975 0.87099 0.25784 0.0
H955 H 0.0541 0.90554 0.32111 0.0
H956 H 0.01665 0.89266 0.28986 0.0
H957 H 0.95595 0.87693 0.57415 0.0
H958 H 0.97255 0.92569 0.64277 0.0
H959 H 0.05429 0.92312 0.48663 0.0
C960 C 0.01481 0.81664 0.32054 0.0
C961 C 0.99073 0.795 0.31936 0.0
C962 C 0.96788 0.7982 0.38385 0.0
C963 C 0.96807 0.82261 0.44498 0.0
C964 C 0.99151 0.84402 0.44255 0.0
C965 C 0.01506 0.84066 0.38368 0.0
C966 C 0.03749 0.86694 0.39452 0.0
C967 C 0.06893 0.85513 0.42208 0.0
C968 C 0.03962 0.88511 0.31088 0.0
C969 C 0.0227 0.88584 0.46719 0.0
C970 C 0.99588 0.87254 0.49317 0.0
C971 C 0.97734 0.88697 0.55548 0.0
C972 C 0.98681 0.91494 0.59384 0.0
C973 C 0.01476 0.92854 0.57069 0.0
C974 C 0.03285 0.91341 0.50647 0.0
H975 H 0.71161 0.05173 0.37179 0.0
H976 H 0.73416 0.9558 0.35116 0.0
H977 H 0.69161 0.94469 0.45129 0.0
H978 H 0.68614 0.05436 0.59411 0.0
H979 H 0.65552 0.08063 0.5727 0.0
H980 H 0.68951 0.08101 0.50777 0.0
H981 H 0.65699 0.07379 0.37005 0.0
H982 H 0.62274 0.07282 0.43372 0.0
H983 H 0.63171 0.04177 0.36017 0.0
H984 H 0.64354 0.94456 0.55371 0.0
H985 H 0.59691 0.95528 0.64039 0.0
H986 H 0.60354 0.05054 0.58001 0.0
C987 C 0.70785 0.0282 0.38752 0.0
C988 C 0.72671 1.00464 0.3515 0.0
C989 C 0.72074 0.97448 0.37746 0.0
C990 C 0.69624 0.96792 0.43403 0.0
C991 C 0.67745 0.99166 0.46464 0.0
C992 C 0.68316 0.02125 0.44187 0.0
C993 C 0.65903 0.04278 0.47908 0.0
C994 C 0.67341 0.06608 0.5422 0.0
C995 C 0.64158 0.05872 0.40645 0.0
C996 C 0.63857 0.02085 0.52649 0.0
C997 C 0.64967 0.99144 0.51855 0.0
C998 C 0.63478 0.96752 0.55922 0.0
C999 C 0.60813 0.97375 0.60816 0.0
C1000 C 0.59588 1.00354 0.61486 0.0
C1001 C 0.61175 0.02736 0.57412 0.0
H1002 H 0.56394 0.73679 0.45615 0.0
H1003 H 0.48141 0.74042 0.30363 0.0
H1004 H 0.46088 0.69686 0.38403 0.0
H1005 H 0.57336 0.66271 0.44877 0.0
H1006 H 0.58694 0.65659 0.55761 0.0
H1007 H 0.59213 0.69277 0.50837 0.0
H1008 H 0.56411 0.72036 0.63265 0.0
H1009 H 0.55978 0.68457 0.68592 0.0
H1010 H 0.52685 0.70778 0.66457 0.0
H1011 H 0.45296 0.64748 0.46604 0.0
H1012 H 0.45782 0.59869 0.54092 0.0
H1013 H 0.54721 0.62509 0.63389 0.0
C1014 C 0.54085 0.72946 0.44299 0.0
C1015 C 0.52399 0.74266 0.3747 0.0
C1016 C 0.49438 0.7315 0.35712 0.0
C1017 C 0.48271 0.70644 0.40205 0.0
C1018 C 0.50075 0.69281 0.46532 0.0
C1019 C 0.529 0.70442 0.48701 0.0
C1020 C 0.54537 0.68388 0.55025 0.0
C1021 C 0.57628 0.6733 0.51402 0.0
C1022 C 0.54925 0.70012 0.63858 0.0
C1023 C 0.52291 0.65775 0.55635 0.0
C1024 C 0.49685 0.66384 0.50929 0.0
C1025 C 0.47307 0.64288 0.50417 0.0
C1026 C 0.47593 0.61517 0.54771 0.0
C1027 C 0.50261 0.60805 0.59504 0.0
C1028 C 0.52636 0.62986 0.59917 0.0
H1029 H 0.82129 0.50514 0.24637 0.0
H1030 H 0.75491 0.53183 0.44007 0.0
H1031 H 0.79334 0.52284 0.55512 0.0
H1032 H 0.86454 0.44785 0.37577 0.0
H1033 H 0.90035 0.45972 0.33101 0.0
H1034 H 0.86602 0.46225 0.26751 0.0
H1035 H 0.87643 0.51938 0.2453 0.0
H1036 H 0.91042 0.51693 0.31002 0.0
H1037 H 0.88137 0.54414 0.3391 0.0
H1038 H 0.84329 0.51662 0.64973 0.0
H1039 H 0.89603 0.51379 0.70788 0.0
H1040 H 0.92977 0.49507 0.44915 0.0
C1041 C 0.81427 0.50764 0.31329 0.0
C1042 C 0.78435 0.51833 0.33346 0.0
C1043 C 0.77696 0.52262 0.42218 0.0
C1044 C 0.79901 0.51798 0.48814 0.0
C1045 C 0.82872 0.50907 0.46522 0.0
C1046 C 0.83613 0.50367 0.37937 0.0
C1047 C 0.87011 0.49724 0.36962 0.0
C1048 C 0.87557 0.46483 0.33388 0.0
C1049 C 0.88544 0.52085 0.31245 0.0
C1050 C 0.88104 0.50052 0.46268 0.0
C1051 C 0.85691 0.50686 0.51762 0.0
C1052 C 0.86206 0.51147 0.60655 0.0
C1053 C 0.89224 0.5098 0.63934 0.0
C1054 C 0.9174 0.50426 0.58359 0.0
C1055 C 0.91129 0.49942 0.49405 0.0
loop_
_geom_bond_atom_site_label_1
_geom_bond_atom_site_label_2
_geom_bond_distance
_geom_bond_site_symmetry_2
_ccdc_geom_bond_type
H0 C3 0.931 . S
H1 C6 0.928 . S
H2 C8 0.930 . S
C3 H0 0.931 . S
C3 C4 1.413 . S
C3 C5 1.360 . S
C4 C3 1.413 . S
C4 C8 1.429 . S
C5 C3 1.360 . S
C5 C6 1.372 . S
C6 H1 0.928 . S
C6 C5 1.372 . S
C6 C7 1.404 . S
C7 C6 1.404 . S
C7 C8 1.391 . S
C8 H2 0.930 . S
C8 C4 1.429 . S
C8 C7 1.391 . S
H9 C12 0.931 . S
H10 C15 0.928 . S
H11 C17 0.930 . S
C12 H9 0.931 . S
C12 C13 1.413 . S
C12 C14 1.360 . S
C13 C12 1.413 . S
C13 C17 1.429 . S
C14 C12 1.360 . S
C14 C15 1.372 . S
C15 H10 0.928 . S
C15 C14 1.372 . S
C15 C16 1.404 . S
C16 C15 1.404 . S
C16 C17 1.391 . S
C17 H11 0.930 . S
C17 C13 1.429 . S
C17 C16 1.391 . S
H18 C21 0.931 . S
H19 C24 0.928 . S
H20 C26 0.930 . S
C21 H18 0.931 . S
C21 C22 1.413 . S
C21 C23 1.360 . S
C22 C21 1.413 . S
C22 C26 1.429 . S
C23 C21 1.360 . S
C23 C24 1.372 . S
C24 H19 0.928 . S
C24 C23 1.372 . S
C24 C25 1.404 . S
C25 C24 1.404 . S
C25 C26 1.391 . S
C26 H20 0.930 . S
C26 C22 1.429 . S
C26 C25 1.391 . S
H27 C30 0.931 . S
H28 C33 0.928 . S
H29 C35 0.930 . S
C30 H27 0.931 . S
C30 C31 1.413 . S
C30 C32 1.360 . S
C31 C30 1.413 . S
C31 C35 1.429 . S
C32 C30 1.360 . S
C32 C33 1.372 . S
C33 H28 0.928 . S
C33 C32 1.372 . S
C33 C34 1.404 . S
C34 C33 1.404 . S
C34 C35 1.391 . S
C35 H29 0.930 . S
C35 C31 1.429 . S
C35 C34 1.391 . S
H36 C39 0.931 1_556 S
H37 C42 0.928 . S
H38 C44 0.930 . S
C39 H36 0.931 1_554 S
C39 C40 1.413 1_554 S
C39 C41 1.360 . S
C40 C39 1.413 1_556 S
C40 C44 1.429 . S
C41 C39 1.360 . S
C41 C42 1.372 . S
C42 H37 0.928 . S
C42 C41 1.372 . S
C42 C43 1.404 . S
C43 C42 1.404 . S
C43 C44 1.391 1_554 S
C44 H38 0.930 . S
C44 C40 1.429 . S
C44 C43 1.391 1_556 S
H45 C48 0.931 1_556 S
H46 C51 0.928 . S
H47 C53 0.930 . S
C48 H45 0.931 1_554 S
C48 C49 1.413 1_554 S
C48 C50 1.360 . S
C49 C48 1.413 1_556 S
C49 C53 1.429 . S
C50 C48 1.360 . S
C50 C51 1.372 . S
C51 H46 0.928 . S
C51 C50 1.372 . S
C51 C52 1.404 . S
C52 C51 1.404 . S
C52 C53 1.391 1_554 S
C53 H47 0.930 . S
C53 C49 1.429 . S
C53 C52 1.391 1_556 S
H54 C57 0.931 1_556 S
H55 C60 0.928 . S
H56 C62 0.930 . S
C57 H54 0.931 1_554 S
C57 C58 1.413 1_554 S
C57 C59 1.360 . S
C58 C57 1.413 1_556 S
C58 C62 1.429 . S
C59 C57 1.360 . S
C59 C60 1.372 . S
C60 H55 0.928 . S
C60 C59 1.372 . S
C60 C61 1.404 . S
C61 C60 1.404 . S
C61 C62 1.391 1_554 S
C62 H56 0.930 . S
C62 C58 1.429 . S
C62 C61 1.391 1_556 S
H63 C66 0.931 1_556 S
H64 C69 0.928 . S
H65 C71 0.930 . S
C66 H63 0.931 1_554 S
C66 C67 1.413 . S
C66 C68 1.360 1_554 S
C67 C66 1.413 . S
C67 C71 1.429 . S
C68 C66 1.360 1_556 S
C68 C69 1.372 . S
C69 H64 0.928 . S
C69 C68 1.372 . S
C69 C70 1.404 1_556 S
C70 C69 1.404 1_554 S
C70 C71 1.391 . S
C71 H65 0.930 . S
C71 C67 1.429 . S
C71 C70 1.391 . S
Eu72 N103 2.657 1_565 S
Eu72 N110 2.609 . S
Eu72 O116 2.558 . S
Eu72 O117 2.612 1_455 S
Eu72 O119 2.339 1_455 S
Eu72 O120 2.563 . S
Eu72 O121 2.419 . S
Eu72 O123 2.380 1_565 S
Eu72 O124 2.432 . S
Eu72 C136 2.848 . S
C73 C76 1.417 1_545 S
C73 C77 1.407 1_545 S
C73 N80 1.393 . S
C74 C76 1.420 . S
C74 C78 1.423 . S
C74 C86 1.392 . S
C75 C77 1.420 . S
C75 C78 1.351 . S
C75 H98 0.931 . S
C76 C73 1.417 1_565 S
C76 C74 1.420 . S
C76 N84 1.362 . S
C77 C73 1.407 1_565 S
C77 C75 1.420 . S
C77 C82 1.395 1_565 S
C78 C74 1.423 . S
C78 C75 1.351 . S
C78 H90 0.930 . S
C79 C81 1.400 . S
C79 C82 1.386 . S
C79 H91 0.930 . S
N80 C73 1.393 . S
N80 C81 1.321 . S
N80 Eu83 2.609 . S
C81 C79 1.400 . S
C81 N80 1.321 . S
C81 H88 0.930 . S
C82 C77 1.395 1_545 S
C82 C79 1.386 . S
C82 H101 0.930 . S
Eu83 N80 2.609 . S
Eu83 N84 2.657 1_545 S
Eu83 O117 2.380 1_545 S
Eu83 O118 2.432 . S
Eu83 O122 2.558 . S
Eu83 O123 2.612 1_655 S
Eu83 O125 2.339 1_655 S
Eu83 O126 2.553 1_655 S
Eu83 O127 2.419 . S
Eu83 C147 2.848 . S
N84 C76 1.362 . S
N84 Eu83 2.657 1_565 S
N84 C85 1.334 . S
C85 N84 1.334 . S
C85 C87 1.413 . S
C85 H92 0.929 1_655 S
C86 C74 1.392 . S
C86 C87 1.367 . S
C86 H94 0.930 . S
C87 C85 1.413 . S
C87 C86 1.367 . S
C87 H89 0.930 1_655 S
H88 C81 0.930 . S
H89 C87 0.930 1_455 S
H90 C78 0.930 . S
H91 C79 0.930 . S
H92 C85 0.929 1_455 S
H93 C107 0.930 1_654 S
H94 C86 0.930 . S
H95 C113 0.930 . S
H96 C104 0.929 1_655 S
H97 C111 0.930 . S
H98 C75 0.931 . S
H99 C105 0.930 . S
H100 C138 0.930 . S
H101 C82 0.930 . S
H102 C137 0.931 . S
N103 Eu72 2.657 1_545 S
N103 C104 1.334 . S
N103 C108 1.362 . S
C104 H96 0.929 1_455 S
C104 N103 1.334 . S
C104 C107 1.413 . S
C105 H99 0.930 . S
C105 C106 1.392 1_554 S
C105 C107 1.367 1_554 S
C106 C105 1.392 1_556 S
C106 C108 1.420 . S
C106 C138 1.423 1_556 S
C107 H93 0.930 1_456 S
C107 C104 1.413 . S
C107 C105 1.367 1_556 S
C108 N103 1.362 . S
C108 C106 1.420 . S
C108 C112 1.429 . S
H109 C114 0.930 . S
N110 Eu72 2.609 . S
N110 C112 1.377 1_565 S
N110 C113 1.321 . S
C111 H97 0.930 . S
C111 C113 1.400 . S
C111 C114 1.386 1_565 S
C112 C108 1.429 . S
C112 N110 1.377 1_545 S
C112 C115 1.411 . S
C113 H95 0.930 . S
C113 N110 1.321 . S
C113 C111 1.400 . S
C114 H109 0.930 . S
C114 C111 1.386 1_545 S
C114 C115 1.395 . S
C115 C112 1.411 . S
C115 C114 1.395 . S
C115 C137 1.420 . S
O116 Eu72 2.558 . S
O116 C136 1.257 . S
O117 Eu72 2.612 1_655 S
O117 Eu83 2.380 1_565 S
O117 C128 1.276 . S
O118 Eu83 2.432 . S
O118 C135 1.292 . S
O119 Eu72 2.339 1_655 S
O119 C135 1.243 1_565 S
O120 Eu72 2.563 . S
O120 C128 1.235 1_455 S
O121 Eu72 2.419 . S
O121 C136 1.249 . S
O122 Eu83 2.558 . S
O122 C147 1.257 . S
O123 Eu72 2.380 1_545 S
O123 Eu83 2.612 1_455 S
O123 C139 1.276 . S
O124 Eu72 2.432 . S
O124 C146 1.264 1_565 S
O125 Eu83 2.339 1_455 S
O125 C146 1.254 . S
O126 Eu83 2.553 1_455 S
O126 C139 1.254 . S
O127 Eu83 2.419 . S
O127 C147 1.249 . S
C128 O117 1.276 . S
C128 O120 1.235 1_655 S
C129 C131 1.393 . S
C129 C133 1.395 . S
C129 C136 1.492 . S
C130 C131 1.392 . S
C130 C132 1.386 . S
C131 C129 1.393 . S
C131 C130 1.392 . S
C131 H148 0.930 . S
C132 C130 1.386 . S
C132 C134 1.395 . S
C132 H149 0.930 1_556 S
C133 C129 1.395 . S
C133 C134 1.379 . S
C133 H150 0.930 . S
C134 C132 1.395 . S
C134 C133 1.379 . S
C134 H151 0.930 . S
C135 O118 1.292 . S
C135 O119 1.243 1_545 S
C136 Eu72 2.848 . S
C136 O116 1.257 . S
C136 O121 1.249 . S
C136 C129 1.492 . S
C137 H102 0.931 . S
C137 C115 1.420 . S
C137 C138 1.351 1_556 S
C138 H100 0.930 . S
C138 C106 1.423 1_554 S
C138 C137 1.351 1_554 S
C139 O123 1.276 . S
C139 O126 1.254 . S
C140 C141 1.393 . S
C140 C144 1.395 . S
C140 C147 1.492 . S
C141 C140 1.393 . S
C141 C142 1.392 . S
C141 H152 0.930 1_655 S
C142 C141 1.392 . S
C142 C143 1.386 . S
C143 C142 1.386 . S
C143 C145 1.395 . S
C143 H153 0.930 . S
C144 C140 1.395 . S
C144 C145 1.379 . S
C144 H154 0.930 . S
C145 C143 1.395 . S
C145 C144 1.379 . S
C145 H155 0.930 . S
C146 O124 1.264 1_545 S
C146 O125 1.254 . S
C147 Eu83 2.848 . S
C147 O122 1.257 . S
C147 O127 1.249 . S
C147 C140 1.492 . S
H148 C131 0.930 . S
H149 C132 0.930 1_554 S
H150 C133 0.930 . S
H151 C134 0.930 . S
H152 C141 0.930 1_455 S
H153 C143 0.930 . S
H154 C144 0.930 . S
H155 C145 0.930 . S
Eu156 N187 2.657 . S
Eu156 N194 2.609 . S
Eu156 O200 2.558 . S
Eu156 O201 2.612 1_545 S
Eu156 O203 2.339 1_545 S
Eu156 O204 2.563 . S
Eu156 O205 2.419 . S
Eu156 O207 2.380 . S
Eu156 O208 2.432 . S
Eu156 C220 2.848 . S
C157 C160 1.429 . S
C157 C161 1.411 . S
C157 N164 1.377 . S
C158 C160 1.420 . S
C158 C162 1.423 . S
C158 C170 1.392 . S
C159 C161 1.420 . S
C159 C162 1.351 . S
C159 H182 0.931 . S
C160 C157 1.429 . S
C160 C158 1.420 . S
C160 N168 1.362 . S
C161 C157 1.411 . S
C161 C159 1.420 . S
C161 C166 1.395 . S
C162 C158 1.423 . S
C162 C159 1.351 . S
C162 H174 0.930 . S
C163 C165 1.400 . S
C163 C166 1.386 . S
C163 H175 0.930 . S
N164 C157 1.377 . S
N164 C165 1.321 . S
N164 Eu167 2.609 . S
C165 C163 1.400 . S
C165 N164 1.321 . S
C165 H172 0.930 . S
C166 C161 1.395 . S
C166 C163 1.386 . S
C166 H185 0.930 . S
Eu167 N164 2.609 . S
Eu167 N168 2.657 . S
Eu167 O201 2.380 . S
Eu167 O202 2.432 . S
Eu167 O206 2.558 . S
Eu167 O207 2.612 1_565 S
Eu167 O209 2.339 1_565 S
Eu167 O210 2.563 1_565 S
Eu167 O211 2.419 . S
Eu167 C231 2.848 . S
N168 C160 1.362 . S
N168 Eu167 2.657 . S
N168 C169 1.303 1_565 S
C169 N168 1.303 1_545 S
C169 C171 1.412 1_545 S
C169 H176 0.964 . S
C170 C158 1.392 . S
C170 C171 1.367 . S
C170 H178 0.930 . S
C171 C169 1.412 1_565 S
C171 C170 1.367 . S
C171 H173 0.930 1_565 S
H172 C165 0.930 . S
H173 C171 0.930 1_545 S
H174 C162 0.930 . S
H175 C163 0.930 . S
H176 C169 0.964 . S
H177 C191 0.930 1_564 S
H178 C170 0.930 . S
H179 C197 0.930 . S
H180 C188 0.929 1_565 S
H181 C195 0.930 . S
H182 C159 0.931 . S
H183 C189 0.930 . S
H184 C222 0.930 . S
H185 C166 0.930 . S
H186 C221 0.931 . S
N187 Eu156 2.657 . S
N187 C188 1.334 . S
N187 C192 1.362 . S
C188 H180 0.929 1_545 S
C188 N187 1.334 . S
C188 C191 1.413 . S
C189 H183 0.930 . S
C189 C190 1.392 1_554 S
C189 C191 1.367 1_554 S
C190 C189 1.392 1_556 S
C190 C192 1.420 . S
C190 C222 1.423 1_556 S
C191 H177 0.930 1_546 S
C191 C188 1.413 . S
C191 C189 1.367 1_556 S
C192 N187 1.362 . S
C192 C190 1.420 . S
C192 C196 1.429 . S
H193 C198 0.930 . S
N194 Eu156 2.609 . S
N194 C196 1.377 . S
N194 C197 1.321 . S
C195 H181 0.930 . S
C195 C197 1.400 . S
C195 C198 1.386 . S
C196 C192 1.429 . S
C196 N194 1.377 . S
C196 C199 1.411 . S
C197 H179 0.930 . S
C197 N194 1.321 . S
C197 C195 1.400 . S
C198 H193 0.930 . S
C198 C195 1.386 . S
C198 C199 1.395 . S
C199 C196 1.411 . S
C199 C198 1.395 . S
C199 C221 1.420 . S
O200 Eu156 2.558 . S
O200 C220 1.257 . S
O201 Eu156 2.612 1_565 S
O201 Eu167 2.380 . S
O201 C212 1.276 . S
O202 Eu167 2.432 . S
O202 C219 1.264 . S
O203 Eu156 2.339 1_565 S
O203 C219 1.254 . S
O204 Eu156 2.563 . S
O204 C212 1.235 1_545 S
O205 Eu156 2.419 . S
O205 C220 1.249 . S
O206 Eu167 2.558 . S
O206 C231 1.257 . S
O207 Eu156 2.380 . S
O207 Eu167 2.612 1_545 S
O207 C223 1.276 . S
O208 Eu156 2.432 . S
O208 C230 1.264 . S
O209 Eu167 2.339 1_545 S
O209 C230 1.254 . S
O210 Eu167 2.563 1_545 S
O210 C223 1.235 . S
O211 Eu167 2.419 . S
O211 C231 1.249 . S
C212 O201 1.276 . S
C212 O204 1.235 1_565 S
C213 C215 1.393 . S
C213 C217 1.395 . S
C213 C220 1.492 . S
C214 C215 1.392 . S
C214 C216 1.386 . S
C215 C213 1.393 . S
C215 C214 1.392 . S
C215 H232 0.930 . S
C216 C214 1.386 . S
C216 C218 1.395 . S
C216 H233 0.930 1_556 S
C217 C213 1.395 . S
C217 C218 1.379 . S
C217 H234 0.930 . S
C218 C216 1.395 . S
C218 C217 1.379 . S
C218 H235 0.930 . S
C219 O202 1.264 . S
C219 O203 1.254 . S
C220 Eu156 2.848 . S
C220 O200 1.257 . S
C220 O205 1.249 . S
C220 C213 1.492 . S
C221 H186 0.931 . S
C221 C199 1.420 . S
C221 C222 1.351 1_556 S
C222 H184 0.930 . S
C222 C190 1.423 1_554 S
C222 C221 1.351 1_554 S
C223 O207 1.276 . S
C223 O210 1.235 . S
C224 C225 1.393 . S
C224 C228 1.395 . S
C224 C231 1.492 . S
C225 C224 1.393 . S
C225 C226 1.392 . S
C225 H236 0.930 1_565 S
C226 C225 1.392 . S
C226 C227 1.386 . S
C227 C226 1.386 . S
C227 C229 1.395 . S
C227 H237 0.930 . S
C228 C224 1.395 . S
C228 C229 1.379 . S
C228 H238 0.930 . S
C229 C227 1.395 . S
C229 C228 1.379 . S
C229 H239 0.930 . S
C230 O208 1.264 . S
C230 O209 1.254 . S
C231 Eu167 2.848 . S
C231 O206 1.257 . S
C231 O211 1.249 . S
C231 C224 1.492 . S
H232 C215 0.930 . S
H233 C216 0.930 1_554 S
H234 C217 0.930 . S
H235 C218 0.930 . S
H236 C225 0.930 1_545 S
H237 C227 0.930 . S
H238 C228 0.930 . S
H239 C229 0.930 . S
Eu240 N271 2.657 . S
Eu240 N278 2.609 . S
Eu240 O284 2.558 . S
Eu240 O285 2.612 . S
Eu240 O287 2.339 . S
Eu240 O288 2.563 . S
Eu240 O289 2.419 . S
Eu240 O291 2.380 . S
Eu240 O292 2.432 . S
Eu240 C304 2.848 . S
C241 C244 1.429 . S
C241 C245 1.411 . S
C241 N248 1.377 . S
C242 C244 1.420 . S
C242 C246 1.423 . S
C242 C254 1.392 . S
C243 C245 1.420 . S
C243 C246 1.351 . S
C243 H266 0.931 . S
C244 C241 1.429 . S
C244 C242 1.420 . S
C244 N252 1.362 . S
C245 C241 1.411 . S
C245 C243 1.420 . S
C245 C250 1.395 . S
C246 C242 1.423 . S
C246 C243 1.351 . S
C246 H258 0.930 . S
C247 C249 1.400 . S
C247 C250 1.386 . S
C247 H259 0.930 . S
N248 C241 1.377 . S
N248 C249 1.321 . S
N248 Eu251 2.609 . S
C249 C247 1.400 . S
C249 N248 1.321 . S
C249 H256 0.930 . S
C250 C245 1.395 . S
C250 C247 1.386 . S
C250 H269 0.930 . S
Eu251 N248 2.609 . S
Eu251 N252 2.657 . S
Eu251 O285 2.380 . S
Eu251 O286 2.432 . S
Eu251 O290 2.558 . S
Eu251 O291 2.612 . S
Eu251 O293 2.339 . S
Eu251 O294 2.563 . S
Eu251 O295 2.419 . S
Eu251 C315 2.848 . S
N252 C244 1.362 . S
N252 Eu251 2.657 . S
N252 C253 1.334 . S
C253 N252 1.334 . S
C253 C255 1.413 . S
C253 H260 0.929 . S
C254 C242 1.392 . S
C254 C255 1.367 . S
C254 H262 0.930 . S
C255 C253 1.413 . S
C255 C254 1.367 . S
C255 H257 0.930 . S
H256 C249 0.930 . S
H257 C255 0.930 . S
H258 C246 0.930 . S
H259 C247 0.930 . S
H260 C253 0.929 . S
H261 C275 0.930 . S
H262 C254 0.930 . S
H263 C281 0.930 . S
H264 C272 0.929 . S
H265 C279 0.930 . S
H266 C243 0.931 . S
H267 C273 0.930 . S
H268 C306 0.930 . S
H269 C250 0.930 . S
H270 C305 0.931 . S
N271 Eu240 2.657 . S
N271 C272 1.334 . S
N271 C276 1.362 . S
C272 H264 0.929 . S
C272 N271 1.334 . S
C272 C275 1.413 . S
C273 H267 0.930 . S
C273 C274 1.392 . S
C273 C275 1.367 . S
C274 C273 1.392 . S
C274 C276 1.420 . S
C274 C306 1.423 . S
C275 H261 0.930 . S
C275 C272 1.413 . S
C275 C273 1.367 . S
C276 N271 1.362 . S
C276 C274 1.420 . S
C276 C280 1.429 . S
H277 C282 0.930 . S
N278 Eu240 2.609 . S
N278 C280 1.377 . S
N278 C281 1.321 . S
C279 H265 0.930 . S
C279 C281 1.400 . S
C279 C282 1.386 . S
C280 C276 1.429 . S
C280 N278 1.377 . S
C280 C283 1.411 . S
C281 H263 0.930 . S
C281 N278 1.321 . S
C281 C279 1.400 . S
C282 H277 0.930 . S
C282 C279 1.386 . S
C282 C283 1.395 . S
C283 C280 1.411 . S
C283 C282 1.395 . S
C283 C305 1.420 . S
O284 Eu240 2.558 . S
O284 C304 1.257 . S
O285 Eu240 2.612 . S
O285 Eu251 2.380 . S
O285 C296 1.276 . S
O286 Eu251 2.432 . S
O286 C303 1.264 . S
O287 Eu240 2.339 . S
O287 C303 1.254 . S
O288 Eu240 2.563 . S
O288 C296 1.235 . S
O289 Eu240 2.419 . S
O289 C304 1.249 . S
O290 Eu251 2.558 . S
O290 C315 1.257 . S
O291 Eu240 2.380 . S
O291 Eu251 2.612 . S
O291 C307 1.276 . S
O292 Eu240 2.432 . S
O292 C314 1.264 . S
O293 Eu251 2.339 . S
O293 C314 1.254 . S
O294 Eu251 2.563 . S
O294 C307 1.235 . S
O295 Eu251 2.419 . S
O295 C315 1.249 . S
C296 O285 1.276 . S
C296 O288 1.235 . S
C297 C299 1.393 . S
C297 C301 1.395 . S
C297 C304 1.492 . S
C298 C299 1.392 . S
C298 C300 1.386 . S
C299 C297 1.393 . S
C299 C298 1.392 . S
C299 H316 0.930 . S
C300 C298 1.386 . S
C300 C302 1.395 . S
C300 H317 0.930 . S
C301 C297 1.395 . S
C301 C302 1.379 . S
C301 H318 0.930 . S
C302 C300 1.395 . S
C302 C301 1.379 . S
C302 H319 0.930 . S
C303 O286 1.264 . S
C303 O287 1.254 . S
C304 Eu240 2.848 . S
C304 O284 1.257 . S
C304 O289 1.249 . S
C304 C297 1.492 . S
C305 H270 0.931 . S
C305 C283 1.420 . S
C305 C306 1.351 . S
C306 H268 0.930 . S
C306 C274 1.423 . S
C306 C305 1.351 . S
C307 O291 1.276 . S
C307 O294 1.235 . S
C308 C309 1.393 . S
C308 C312 1.395 1_556 S
C308 C315 1.492 . S
C309 C308 1.393 . S
C309 C310 1.392 1_556 S
C309 H320 0.930 . S
C310 C309 1.392 1_554 S
C310 C311 1.386 . S
C311 C310 1.386 . S
C311 C313 1.395 . S
C311 H321 0.930 . S
C312 C308 1.395 1_554 S
C312 C313 1.379 . S
C312 H322 0.930 . S
C313 C311 1.395 . S
C313 C312 1.379 . S
C313 H323 0.930 . S
C314 O292 1.264 . S
C314 O293 1.254 . S
C315 Eu251 2.848 . S
C315 O290 1.257 . S
C315 O295 1.249 . S
C315 C308 1.492 . S
H316 C299 0.930 . S
H317 C300 0.930 . S
H318 C301 0.930 . S
H319 C302 0.930 . S
H320 C309 0.930 . S
H321 C311 0.930 . S
H322 C312 0.930 . S
H323 C313 0.930 . S
Eu324 N355 2.657 . S
Eu324 N362 2.609 . S
Eu324 O368 2.558 . S
Eu324 O369 2.612 . S
Eu324 O371 2.339 . S
Eu324 O372 2.563 . S
Eu324 O373 2.419 . S
Eu324 O375 2.380 1_455 S
Eu324 O376 2.432 1_455 S
Eu324 C388 2.848 . S
C325 C328 1.429 . S
C325 C329 1.411 . S
C325 N332 1.377 . S
C326 C328 1.420 . S
C326 C330 1.423 . S
C326 C338 1.392 . S
C327 C329 1.420 . S
C327 C330 1.351 . S
C327 H350 0.931 . S
C328 C325 1.429 . S
C328 C326 1.420 . S
C328 N336 1.362 . S
C329 C325 1.411 . S
C329 C327 1.420 . S
C329 C334 1.378 1_655 S
C330 C326 1.423 . S
C330 C327 1.351 . S
C330 H342 0.930 . S
C331 C333 1.400 . S
C331 C334 1.400 . S
C331 H343 0.930 . S
N332 C325 1.377 . S
N332 C333 1.321 1_655 S
N332 Eu335 2.609 . S
C333 C331 1.400 . S
C333 N332 1.321 1_455 S
C333 H340 0.930 . S
C334 C329 1.378 1_455 S
C334 C331 1.400 . S
C334 H353 0.933 . S
Eu335 N332 2.609 . S
Eu335 N336 2.657 . S
Eu335 O369 2.380 1_655 S
Eu335 O370 2.432 1_655 S
Eu335 O374 2.558 . S
Eu335 O375 2.612 . S
Eu335 O377 2.339 . S
Eu335 O378 2.563 . S
Eu335 O379 2.419 . S
Eu335 C399 2.848 . S
N336 C328 1.362 . S
N336 Eu335 2.657 . S
N336 C337 1.334 . S
C337 N336 1.334 . S
C337 C339 1.413 . S
C337 H344 0.929 . S
C338 C326 1.392 . S
C338 C339 1.367 . S
C338 H346 0.930 . S
C339 C337 1.413 . S
C339 C338 1.367 . S
C339 H341 0.930 . S
H340 C333 0.930 . S
H341 C339 0.930 . S
H342 C330 0.930 . S
H343 C331 0.930 . S
H344 C337 0.929 . S
H345 C359 0.930 . S
H346 C338 0.930 . S
H347 C365 0.930 . S
H348 C356 0.929 . S
H349 C363 0.930 . S
H350 C327 0.931 . S
H351 C357 0.930 . S
H352 C390 0.930 . S
H353 C334 0.933 . S
H354 C389 0.931 . S
N355 Eu324 2.657 . S
N355 C356 1.334 . S
N355 C360 1.362 . S
C356 H348 0.929 . S
C356 N355 1.334 . S
C356 C359 1.413 . S
C357 H351 0.930 . S
C357 C358 1.392 . S
C357 C359 1.367 . S
C358 C357 1.392 . S
C358 C360 1.420 . S
C358 C390 1.423 . S
C359 H345 0.930 . S
C359 C356 1.413 . S
C359 C357 1.367 . S
C360 N355 1.362 . S
C360 C358 1.420 . S
C360 C364 1.429 . S
H361 C366 0.930 . S
N362 Eu324 2.609 . S
N362 C364 1.377 . S
N362 C365 1.321 1_455 S
C363 H349 0.930 . S
C363 C365 1.400 . S
C363 C366 1.386 1_655 S
C364 C360 1.429 . S
C364 N362 1.377 . S
C364 C367 1.411 . S
C365 H347 0.930 . S
C365 N362 1.321 1_655 S
C365 C363 1.400 . S
C366 H361 0.930 . S
C366 C363 1.386 1_455 S
C366 C367 1.395 . S
C367 C364 1.411 . S
C367 C366 1.395 . S
C367 C389 1.420 . S
O368 Eu324 2.558 . S
O368 C388 1.257 . S
O369 Eu324 2.612 . S
O369 Eu335 2.380 1_455 S
O369 C380 1.276 . S
O370 Eu335 2.432 1_455 S
O370 C387 1.264 . S
O371 Eu324 2.339 . S
O371 C387 1.254 . S
O372 Eu324 2.563 . S
O372 C380 1.235 . S
O373 Eu324 2.419 . S
O373 C388 1.249 . S
O374 Eu335 2.558 . S
O374 C399 1.257 . S
O375 Eu324 2.380 1_655 S
O375 Eu335 2.612 . S
O375 C391 1.276 . S
O376 Eu324 2.432 1_655 S
O376 C398 1.264 . S
O377 Eu335 2.339 . S
O377 C398 1.254 . S
O378 Eu335 2.563 . S
O378 C391 1.235 . S
O379 Eu335 2.419 . S
O379 C399 1.249 . S
C380 O369 1.276 . S
C380 O372 1.235 . S
C381 C383 1.393 . S
C381 C385 1.395 . S
C381 C388 1.492 . S
C382 C383 1.392 . S
C382 C384 1.386 . S
C383 C381 1.393 . S
C383 C382 1.392 . S
C383 H400 0.930 . S
C384 C382 1.386 . S
C384 C386 1.395 . S
C384 H401 0.930 . S
C385 C381 1.395 . S
C385 C386 1.379 . S
C385 H402 0.930 . S
C386 C384 1.395 . S
C386 C385 1.379 . S
C386 H403 0.930 . S
C387 O370 1.264 . S
C387 O371 1.254 . S
C388 Eu324 2.848 . S
C388 O368 1.257 . S
C388 O373 1.249 . S
C388 C381 1.492 . S
C389 H354 0.931 . S
C389 C367 1.420 . S
C389 C390 1.351 . S
C390 H352 0.930 . S
C390 C358 1.423 . S
C390 C389 1.351 . S
C391 O375 1.276 . S
C391 O378 1.235 . S
C392 C393 1.393 . S
C392 C396 1.395 1_556 S
C392 C399 1.492 . S
C393 C392 1.393 . S
C393 C394 1.392 1_556 S
C393 H404 0.930 . S
C394 C393 1.392 1_554 S
C394 C395 1.386 . S
C395 C394 1.386 . S
C395 C397 1.395 . S
C395 H405 0.930 . S
C396 C392 1.395 1_554 S
C396 C397 1.379 . S
C396 H406 0.930 . S
C397 C395 1.395 . S
C397 C396 1.379 . S
C397 H407 0.930 . S
C398 O376 1.264 . S
C398 O377 1.254 . S
C399 Eu335 2.848 . S
C399 O374 1.257 . S
C399 O379 1.249 . S
C399 C392 1.492 . S
H400 C383 0.930 . S
H401 C384 0.930 . S
H402 C385 0.930 . S
H403 C386 0.930 . S
H404 C393 0.930 . S
H405 C395 0.930 . S
H406 C396 0.930 . S
H407 C397 0.930 . S
H408 C420 0.930 . S
H409 C422 0.930 . S
H410 C423 0.930 . S
H411 C427 0.959 . S
H412 C427 0.959 . S
H413 C427 0.961 . S
H414 C428 0.960 . S
H415 C428 0.961 . S
H416 C428 0.959 1_545 S
H417 C431 0.929 . S
H418 C432 0.931 . S
H419 C434 0.930 1_565 S
C420 H408 0.930 . S
C420 C421 1.399 . S
C420 C425 1.399 . S
C421 C420 1.399 . S
C421 C422 1.376 . S
C422 H409 0.930 . S
C422 C421 1.376 . S
C422 C423 1.388 . S
C423 H410 0.930 . S
C423 C422 1.388 . S
C423 C424 1.390 . S
C424 C423 1.390 . S
C424 C425 1.394 . S
C424 C430 1.465 . S
C425 C420 1.399 . S
C425 C424 1.394 . S
C425 C426 1.516 . S
C426 C425 1.516 . S
C426 C427 1.502 1_545 S
C426 C428 1.561 1_545 S
C426 C429 1.526 . S
C427 H411 0.959 . S
C427 H412 0.959 . S
C427 H413 0.961 . S
C427 C426 1.502 1_565 S
C428 H414 0.960 . S
C428 H415 0.961 . S
C428 H416 0.959 1_565 S
C428 C426 1.561 1_565 S
C429 C426 1.526 . S
C429 C430 1.396 . S
C429 C434 1.390 . S
C430 C424 1.465 . S
C430 C429 1.396 . S
C430 C431 1.399 . S
C431 H417 0.929 . S
C431 C430 1.399 . S
C431 C432 1.385 . S
C432 H418 0.931 . S
C432 C431 1.385 . S
C432 C433 1.389 . S
C433 C432 1.389 . S
C433 C434 1.387 . S
C434 H419 0.930 1_545 S
C434 C429 1.390 . S
C434 C433 1.387 . S
H435 C447 0.930 . S
H436 C449 0.930 . S
H437 C450 0.930 . S
H438 C454 0.959 . S
H439 C454 0.959 . S
H440 C454 0.961 . S
H441 C455 0.960 . S
H442 C455 0.961 . S
H443 C455 0.959 . S
H444 C458 0.929 . S
H445 C459 0.931 . S
H446 C461 0.930 . S
C447 H435 0.930 . S
C447 C448 1.399 . S
C447 C452 1.399 . S
C448 C447 1.399 . S
C448 C449 1.376 . S
C449 H436 0.930 . S
C449 C448 1.376 . S
C449 C450 1.388 . S
C450 H437 0.930 . S
C450 C449 1.388 . S
C450 C451 1.390 . S
C451 C450 1.390 . S
C451 C452 1.394 . S
C451 C457 1.465 . S
C452 C447 1.399 . S
C452 C451 1.394 . S
C452 C453 1.516 . S
C453 C452 1.516 . S
C453 C454 1.502 . S
C453 C455 1.561 . S
C453 C456 1.526 . S
C454 H438 0.959 . S
C454 H439 0.959 . S
C454 H440 0.961 . S
C454 C453 1.502 . S
C455 H441 0.960 . S
C455 H442 0.961 . S
C455 H443 0.959 . S
C455 C453 1.561 . S
C456 C453 1.526 . S
C456 C457 1.396 . S
C456 C461 1.390 . S
C457 C451 1.465 . S
C457 C456 1.396 . S
C457 C458 1.399 . S
C458 H444 0.929 . S
C458 C457 1.399 . S
C458 C459 1.385 . S
C459 H445 0.931 . S
C459 C458 1.385 . S
C459 C460 1.389 . S
C460 C459 1.389 . S
C460 C461 1.387 . S
C461 H446 0.930 . S
C461 C456 1.390 . S
C461 C460 1.387 . S
H462 C474 0.930 . S
H463 C476 0.930 . S
H464 C477 0.930 . S
H465 C481 0.959 . S
H466 C481 0.959 . S
H467 C481 0.961 . S
H468 C482 0.960 . S
H469 C482 0.961 . S
H470 C482 0.959 . S
H471 C485 0.929 . S
H472 C486 0.931 . S
H473 C488 0.930 . S
C474 H462 0.930 . S
C474 C475 1.399 . S
C474 C479 1.399 . S
C475 C474 1.399 . S
C475 C476 1.376 . S
C476 H463 0.930 . S
C476 C475 1.376 . S
C476 C477 1.388 . S
C477 H464 0.930 . S
C477 C476 1.388 . S
C477 C478 1.390 . S
C478 C477 1.390 . S
C478 C479 1.394 . S
C478 C484 1.465 . S
C479 C474 1.399 . S
C479 C478 1.394 . S
C479 C480 1.516 . S
C480 C479 1.516 . S
C480 C481 1.502 . S
C480 C482 1.561 . S
C480 C483 1.526 . S
C481 H465 0.959 . S
C481 H466 0.959 . S
C481 H467 0.961 . S
C481 C480 1.502 . S
C482 H468 0.960 . S
C482 H469 0.961 . S
C482 H470 0.959 . S
C482 C480 1.561 . S
C483 C480 1.526 . S
C483 C484 1.396 . S
C483 C488 1.390 . S
C484 C478 1.465 . S
C484 C483 1.396 . S
C484 C485 1.399 . S
C485 H471 0.929 . S
C485 C484 1.399 . S
C485 C486 1.385 . S
C486 H472 0.931 . S
C486 C485 1.385 . S
C486 C487 1.389 . S
C487 C486 1.389 . S
C487 C488 1.387 . S
C488 H473 0.930 . S
C488 C483 1.390 . S
C488 C487 1.387 . S
H489 C501 0.930 . S
H490 C503 0.930 . S
H491 C504 0.930 . S
H492 C508 0.959 . S
H493 C508 0.959 . S
H494 C508 0.961 . S
H495 C509 0.960 . S
H496 C509 0.961 . S
H497 C509 0.959 . S
H498 C512 0.929 . S
H499 C513 0.931 . S
H500 C515 0.930 . S
C501 H489 0.930 . S
C501 C502 1.399 . S
C501 C506 1.399 . S
C502 C501 1.399 . S
C502 C503 1.376 . S
C503 H490 0.930 . S
C503 C502 1.376 . S
C503 C504 1.388 . S
C504 H491 0.930 . S
C504 C503 1.388 . S
C504 C505 1.390 . S
C505 C504 1.390 . S
C505 C506 1.394 . S
C505 C511 1.465 . S
C506 C501 1.399 . S
C506 C505 1.394 . S
C506 C507 1.516 . S
C507 C506 1.516 . S
C507 C508 1.502 . S
C507 C509 1.561 . S
C507 C510 1.526 . S
C508 H492 0.959 . S
C508 H493 0.959 . S
C508 H494 0.961 . S
C508 C507 1.502 . S
C509 H495 0.960 . S
C509 H496 0.961 . S
C509 H497 0.959 . S
C509 C507 1.561 . S
C510 C507 1.526 . S
C510 C511 1.396 . S
C510 C515 1.390 . S
C511 C505 1.465 . S
C511 C510 1.396 . S
C511 C512 1.399 . S
C512 H498 0.929 . S
C512 C511 1.399 . S
C512 C513 1.385 . S
C513 H499 0.931 . S
C513 C512 1.385 . S
C513 C514 1.389 . S
C514 C513 1.389 . S
C514 C515 1.387 . S
C515 H500 0.930 . S
C515 C510 1.390 . S
C515 C514 1.387 . S
H516 C528 0.930 . S
H517 C530 0.930 . S
H518 C531 0.930 . S
H519 C535 0.960 . S
H520 C535 0.959 . S
H521 C535 0.961 . S
H522 C536 0.960 . S
H523 C536 0.961 . S
H524 C536 0.959 . S
H525 C539 0.929 . S
H526 C540 0.931 . S
H527 C542 0.930 . S
C528 H516 0.930 . S
C528 C529 1.399 . S
C528 C533 1.399 . S
C529 C528 1.399 . S
C529 C530 1.376 . S
C530 H517 0.930 . S
C530 C529 1.376 . S
C530 C531 1.388 . S
C531 H518 0.930 . S
C531 C530 1.388 . S
C531 C532 1.390 . S
C532 C531 1.390 . S
C532 C533 1.394 . S
C532 C538 1.465 1_554 S
C533 C528 1.399 . S
C533 C532 1.394 . S
C533 C534 1.516 . S
C534 C533 1.516 . S
C534 C535 1.502 . S
C534 C536 1.561 . S
C534 C537 1.526 1_554 S
C535 H519 0.960 . S
C535 H520 0.959 . S
C535 H521 0.961 . S
C535 C534 1.502 . S
C536 H522 0.960 . S
C536 H523 0.961 . S
C536 H524 0.959 . S
C536 C534 1.561 . S
C537 C534 1.526 1_556 S
C537 C538 1.396 . S
C537 C542 1.390 . S
C538 C532 1.465 1_556 S
C538 C537 1.396 . S
C538 C539 1.399 . S
C539 H525 0.929 . S
C539 C538 1.399 . S
C539 C540 1.385 . S
C540 H526 0.931 . S
C540 C539 1.385 . S
C540 C541 1.389 . S
C541 C540 1.389 . S
C541 C542 1.387 . S
C542 H527 0.930 . S
C542 C537 1.390 . S
C542 C541 1.387 . S
H543 C555 0.930 . S
H544 C557 0.930 . S
H545 C558 0.930 . S
H546 C562 0.959 . S
H547 C562 0.959 . S
H548 C562 0.961 . S
H549 C563 0.960 . S
H550 C563 0.961 . S
H551 C563 0.959 . S
H552 C566 0.929 . S
H553 C567 0.931 . S
H554 C569 0.930 . S
C555 H543 0.930 . S
C555 C556 1.399 . S
C555 C560 1.399 . S
C556 C555 1.399 . S
C556 C557 1.376 . S
C557 H544 0.930 . S
C557 C556 1.376 . S
C557 C558 1.388 . S
C558 H545 0.930 . S
C558 C557 1.388 . S
C558 C559 1.390 . S
C559 C558 1.390 . S
C559 C560 1.394 . S
C559 C565 1.465 1_554 S
C560 C555 1.399 . S
C560 C559 1.394 . S
C560 C561 1.516 . S
C561 C560 1.516 . S
C561 C562 1.502 . S
C561 C563 1.561 . S
C561 C564 1.526 1_554 S
C562 H546 0.959 . S
C562 H547 0.959 . S
C562 H548 0.961 . S
C562 C561 1.502 . S
C563 H549 0.960 . S
C563 H550 0.961 . S
C563 H551 0.959 . S
C563 C561 1.561 . S
C564 C561 1.526 1_556 S
C564 C565 1.396 . S
C564 C569 1.390 . S
C565 C559 1.465 1_556 S
C565 C564 1.396 . S
C565 C566 1.399 . S
C566 H552 0.929 . S
C566 C565 1.399 . S
C566 C567 1.385 . S
C567 H553 0.931 . S
C567 C566 1.385 . S
C567 C568 1.389 . S
C568 C567 1.389 . S
C568 C569 1.387 . S
C569 H554 0.930 . S
C569 C564 1.390 . S
C569 C568 1.387 . S
H570 C582 0.930 . S
H571 C584 0.930 . S
H572 C585 0.930 . S
H573 C589 0.959 . S
H574 C589 0.959 . S
H575 C589 0.961 . S
H576 C590 0.960 . S
H577 C590 0.961 . S
H578 C590 0.959 . S
H579 C593 0.929 . S
H580 C594 0.931 . S
H581 C596 0.930 . S
C582 H570 0.930 . S
C582 C583 1.399 . S
C582 C587 1.399 . S
C583 C582 1.399 . S
C583 C584 1.376 . S
C584 H571 0.930 . S
C584 C583 1.376 . S
C584 C585 1.388 . S
C585 H572 0.930 . S
C585 C584 1.388 . S
C585 C586 1.390 . S
C586 C585 1.390 . S
C586 C587 1.394 . S
C586 C592 1.465 1_554 S
C587 C582 1.399 . S
C587 C586 1.394 . S
C587 C588 1.516 . S
C588 C587 1.516 . S
C588 C589 1.502 . S
C588 C590 1.561 . S
C588 C591 1.526 1_554 S
C589 H573 0.959 . S
C589 H574 0.959 . S
C589 H575 0.961 . S
C589 C588 1.502 . S
C590 H576 0.960 . S
C590 H577 0.961 . S
C590 H578 0.959 . S
C590 C588 1.561 . S
C591 C588 1.526 1_556 S
C591 C592 1.396 . S
C591 C596 1.390 . S
C592 C586 1.465 1_556 S
C592 C591 1.396 . S
C592 C593 1.399 . S
C593 H579 0.929 . S
C593 C592 1.399 . S
C593 C594 1.385 . S
C594 H580 0.931 . S
C594 C593 1.385 . S
C594 C595 1.389 . S
C595 C594 1.389 . S
C595 C596 1.387 . S
C596 H581 0.930 . S
C596 C591 1.390 . S
C596 C595 1.387 . S
H597 C609 0.930 . S
H598 C611 0.930 . S
H599 C612 0.930 . S
H600 C616 0.959 . S
H601 C616 0.959 . S
H602 C616 0.961 . S
H603 C617 0.960 . S
H604 C617 0.961 . S
H605 C617 0.959 . S
H606 C620 0.929 . S
H607 C621 0.931 . S
H608 C623 0.930 . S
C609 H597 0.930 . S
C609 C610 1.399 . S
C609 C614 1.399 . S
C610 C609 1.399 . S
C610 C611 1.376 . S
C611 H598 0.930 . S
C611 C610 1.376 . S
C611 C612 1.388 . S
C612 H599 0.930 . S
C612 C611 1.388 . S
C612 C613 1.390 . S
C613 C612 1.390 . S
C613 C614 1.394 . S
C613 C619 1.465 1_554 S
C614 C609 1.399 . S
C614 C613 1.394 . S
C614 C615 1.516 . S
C615 C614 1.516 . S
C615 C616 1.502 1_655 S
C615 C617 1.561 . S
C615 C618 1.526 1_554 S
C616 H600 0.959 . S
C616 H601 0.959 . S
C616 H602 0.961 . S
C616 C615 1.502 1_455 S
C617 H603 0.960 . S
C617 H604 0.961 . S
C617 H605 0.959 . S
C617 C615 1.561 . S
C618 C615 1.526 1_556 S
C618 C619 1.396 . S
C618 C623 1.390 . S
C619 C613 1.465 1_556 S
C619 C618 1.396 . S
C619 C620 1.399 . S
C620 H606 0.929 . S
C620 C619 1.399 . S
C620 C621 1.385 . S
C621 H607 0.931 . S
C621 C620 1.385 . S
C621 C622 1.389 . S
C622 C621 1.389 . S
C622 C623 1.387 . S
C623 H608 0.930 . S
C623 C618 1.390 . S
C623 C622 1.387 . S
H624 C636 0.930 . S
H625 C638 0.930 . S
H626 C639 0.910 1_655 S
H627 C643 0.959 . S
H628 C643 0.959 . S
H629 C643 0.961 . S
H630 C644 0.960 . S
H631 C644 0.961 . S
H632 C644 0.959 . S
H633 C647 0.929 . S
H634 C648 0.931 . S
H635 C650 0.930 . S
C636 H624 0.930 . S
C636 C637 1.399 . S
C636 C641 1.399 . S
C637 C636 1.399 . S
C637 C638 1.376 . S
C638 H625 0.930 . S
C638 C637 1.376 . S
C638 C639 1.388 . S
C639 H626 0.910 1_455 S
C639 C638 1.388 . S
C639 C640 1.390 . S
C640 C639 1.390 . S
C640 C641 1.394 . S
C640 C646 1.465 . S
C641 C636 1.399 . S
C641 C640 1.394 . S
C641 C642 1.516 . S
C642 C641 1.516 . S
C642 C643 1.502 . S
C642 C644 1.561 . S
C642 C645 1.526 . S
C643 H627 0.959 . S
C643 H628 0.959 . S
C643 H629 0.961 . S
C643 C642 1.502 . S
C644 H630 0.960 . S
C644 H631 0.961 . S
C644 H632 0.959 . S
C644 C642 1.561 . S
C645 C642 1.526 . S
C645 C646 1.396 . S
C645 C650 1.390 . S
C646 C640 1.465 . S
C646 C645 1.396 . S
C646 C647 1.399 1_455 S
C647 H633 0.929 . S
C647 C646 1.399 1_655 S
C647 C648 1.385 . S
C648 H634 0.931 . S
C648 C647 1.385 . S
C648 C649 1.389 . S
C649 C648 1.389 . S
C649 C650 1.387 1_655 S
C650 H635 0.930 . S
C650 C645 1.390 . S
C650 C649 1.387 1_455 S
H651 C663 0.930 . S
H652 C665 0.930 . S
H653 C666 0.911 1_565 S
H654 C670 0.959 . S
H655 C670 0.959 . S
H656 C670 0.961 . S
H657 C671 0.960 . S
H658 C671 0.961 . S
H659 C671 0.959 . S
H660 C674 0.929 . S
H661 C675 0.931 . S
H662 C677 0.930 . S
C663 H651 0.930 . S
C663 C664 1.399 . S
C663 C668 1.399 . S
C664 C663 1.399 . S
C664 C665 1.376 . S
C665 H652 0.930 . S
C665 C664 1.376 . S
C665 C666 1.388 . S
C666 H653 0.911 1_545 S
C666 C665 1.388 . S
C666 C667 1.390 . S
C667 C666 1.390 . S
C667 C668 1.394 . S
C667 C673 1.465 . S
C668 C663 1.399 . S
C668 C667 1.394 . S
C668 C669 1.516 . S
C669 C668 1.516 . S
C669 C670 1.502 . S
C669 C671 1.561 . S
C669 C672 1.526 . S
C670 H654 0.959 . S
C670 H655 0.959 . S
C670 H656 0.961 . S
C670 C669 1.502 . S
C671 H657 0.960 . S
C671 H658 0.961 . S
C671 H659 0.959 . S
C671 C669 1.561 . S
C672 C669 1.526 . S
C672 C673 1.396 . S
C672 C677 1.390 . S
C673 C667 1.465 . S
C673 C672 1.396 . S
C673 C674 1.399 1_545 S
C674 H660 0.929 . S
C674 C673 1.399 1_565 S
C674 C675 1.385 . S
C675 H661 0.931 . S
C675 C674 1.385 . S
C675 C676 1.389 . S
C676 C675 1.389 . S
C676 C677 1.387 1_565 S
C677 H662 0.930 . S
C677 C672 1.390 . S
C677 C676 1.387 1_545 S
H678 C690 0.930 . S
H679 C692 0.930 . S
H680 C693 0.930 . S
H681 C697 0.959 . S
H682 C697 0.959 . S
H683 C697 0.961 . S
H684 C698 0.960 . S
H685 C698 0.961 . S
H686 C698 0.959 . S
H687 C701 0.929 . S
H688 C702 0.931 . S
H689 C704 0.930 . S
C690 H678 0.930 . S
C690 C691 1.399 . S
C690 C695 1.399 . S
C691 C690 1.399 . S
C691 C692 1.376 . S
C692 H679 0.930 . S
C692 C691 1.376 . S
C692 C693 1.388 . S
C693 H680 0.930 . S
C693 C692 1.388 . S
C693 C694 1.390 . S
C694 C693 1.390 . S
C694 C695 1.394 . S
C694 C700 1.465 . S
C695 C690 1.399 . S
C695 C694 1.394 . S
C695 C696 1.516 . S
C696 C695 1.516 . S
C696 C697 1.502 . S
C696 C698 1.561 . S
C696 C699 1.526 . S
C697 H681 0.959 . S
C697 H682 0.959 . S
C697 H683 0.961 . S
C697 C696 1.502 . S
C698 H684 0.960 . S
C698 H685 0.961 . S
C698 H686 0.959 . S
C698 C696 1.561 . S
C699 C696 1.526 . S
C699 C700 1.396 . S
C699 C704 1.390 . S
C700 C694 1.465 . S
C700 C699 1.396 . S
C700 C701 1.399 . S
C701 H687 0.929 . S
C701 C700 1.399 . S
C701 C702 1.385 . S
C702 H688 0.931 . S
C702 C701 1.385 . S
C702 C703 1.389 . S
C703 C702 1.389 . S
C703 C704 1.387 . S
C704 H689 0.930 . S
C704 C699 1.390 . S
C704 C703 1.387 . S
H705 C717 0.930 . S
H706 C719 0.930 . S
H707 C720 0.930 . S
H708 C724 0.959 . S
H709 C724 0.959 . S
H710 C724 0.961 . S
H711 C725 0.960 . S
H712 C725 0.961 . S
H713 C725 0.959 . S
H714 C728 0.929 . S
H715 C729 0.931 . S
H716 C731 0.930 . S
C717 H705 0.930 . S
C717 C718 1.399 . S
C717 C722 1.399 . S
C718 C717 1.399 . S
C718 C719 1.376 . S
C719 H706 0.930 . S
C719 C718 1.376 . S
C719 C720 1.388 . S
C720 H707 0.930 . S
C720 C719 1.388 . S
C720 C721 1.390 . S
C721 C720 1.390 . S
C721 C722 1.394 . S
C721 C727 1.465 . S
C722 C717 1.399 . S
C722 C721 1.394 . S
C722 C723 1.516 . S
C723 C722 1.516 . S
C723 C724 1.502 . S
C723 C725 1.561 . S
C723 C726 1.526 . S
C724 H708 0.959 . S
C724 H709 0.959 . S
C724 H710 0.961 . S
C724 C723 1.502 . S
C725 H711 0.960 . S
C725 H712 0.961 . S
C725 H713 0.959 . S
C725 C723 1.561 . S
C726 C723 1.526 . S
C726 C727 1.396 . S
C726 C731 1.390 . S
C727 C721 1.465 . S
C727 C726 1.396 . S
C727 C728 1.399 . S
C728 H714 0.929 . S
C728 C727 1.399 . S
C728 C729 1.385 . S
C729 H715 0.931 . S
C729 C728 1.385 . S
C729 C730 1.389 . S
C730 C729 1.389 . S
C730 C731 1.387 . S
C731 H716 0.930 . S
C731 C726 1.390 . S
C731 C730 1.387 . S
H732 C744 0.930 . S
H733 C746 0.930 . S
H734 C747 0.930 . S
H735 C751 0.988 1_554 S
H736 C751 0.972 . S
H737 C751 0.947 1_655 S
H738 C752 0.960 . S
H739 C752 0.961 . S
H740 C752 0.959 . S
H741 C755 0.929 . S
H742 C756 0.931 . S
H743 C758 0.930 . S
C744 H732 0.930 . S
C744 C745 1.399 . S
C744 C749 1.399 . S
C745 C744 1.399 . S
C745 C746 1.376 . S
C746 H733 0.930 . S
C746 C745 1.376 . S
C746 C747 1.388 . S
C747 H734 0.930 . S
C747 C746 1.388 . S
C747 C748 1.390 . S
C748 C747 1.390 . S
C748 C749 1.394 . S
C748 C754 1.465 . S
C749 C744 1.399 . S
C749 C748 1.394 . S
C749 C750 1.516 . S
C750 C749 1.516 . S
C750 C751 1.476 1_654 S
C750 C752 1.561 1_554 S
C750 C753 1.526 . S
C751 H735 0.988 1_556 S
C751 H736 0.972 . S
C751 H737 0.947 1_455 S
C751 C750 1.476 1_456 S
C752 H738 0.960 . S
C752 H739 0.961 . S
C752 H740 0.959 . S
C752 C750 1.561 1_556 S
C753 C750 1.526 . S
C753 C754 1.396 . S
C753 C758 1.390 1_654 S
C754 C748 1.465 . S
C754 C753 1.396 . S
C754 C755 1.399 . S
C755 H741 0.929 . S
C755 C754 1.399 . S
C755 C756 1.385 1_655 S
C756 H742 0.931 . S
C756 C755 1.385 1_455 S
C756 C757 1.389 1_554 S
C757 C756 1.389 1_556 S
C757 C758 1.387 . S
C758 H743 0.930 . S
C758 C753 1.390 1_456 S
C758 C757 1.387 . S
H759 C771 0.930 . S
H760 C773 0.930 . S
H761 C774 0.930 . S
H762 C778 0.959 1_556 S
H763 C778 0.959 1_556 S
H764 C778 0.961 . S
H765 C779 0.960 . S
H766 C779 0.961 . S
H767 C779 0.959 . S
H768 C782 0.929 . S
H769 C783 0.931 1_556 S
H770 C785 0.933 . S
C771 H759 0.930 . S
C771 C772 1.399 . S
C771 C776 1.399 . S
C772 C771 1.399 . S
C772 C773 1.376 . S
C773 H760 0.930 . S
C773 C772 1.376 . S
C773 C774 1.388 1_565 S
C774 H761 0.930 . S
C774 C773 1.388 1_545 S
C774 C775 1.390 1_545 S
C775 C774 1.390 1_565 S
C775 C776 1.394 . S
C775 C781 1.465 1_565 S
C776 C771 1.399 . S
C776 C775 1.394 . S
C776 C777 1.516 . S
C777 C776 1.516 . S
C777 C778 1.502 . S
C777 C779 1.561 . S
C777 C780 1.526 . S
C778 H762 0.959 1_554 S
C778 H763 0.959 1_554 S
C778 H764 0.961 . S
C778 C777 1.502 . S
C779 H765 0.960 . S
C779 H766 0.961 . S
C779 H767 0.959 . S
C779 C777 1.561 . S
C780 C777 1.526 . S
C780 C781 1.396 1_565 S
C780 C785 1.384 1_554 S
C781 C775 1.465 1_545 S
C781 C780 1.396 1_545 S
C781 C782 1.399 . S
C782 H768 0.929 . S
C782 C781 1.399 . S
C782 C783 1.385 . S
C783 H769 0.931 1_554 S
C783 C782 1.385 . S
C783 C784 1.389 1_554 S
C784 C783 1.389 1_556 S
C784 C785 1.389 1_545 S
C785 H770 0.933 . S
C785 C780 1.384 1_556 S
C785 C784 1.389 1_565 S
H786 C798 0.930 . S
H787 C800 0.930 . S
H788 C801 0.930 . S
H789 C805 0.959 . S
H790 C805 0.959 . S
H791 C805 0.961 . S
H792 C806 0.960 . S
H793 C806 0.961 . S
H794 C806 0.959 . S
H795 C809 0.929 . S
H796 C810 0.931 . S
H797 C812 0.930 . S
C798 H786 0.930 . S
C798 C799 1.399 . S
C798 C803 1.399 . S
C799 C798 1.399 . S
C799 C800 1.376 . S
C800 H787 0.930 . S
C800 C799 1.376 . S
C800 C801 1.388 . S
C801 H788 0.930 . S
C801 C800 1.388 . S
C801 C802 1.390 . S
C802 C801 1.390 . S
C802 C803 1.394 . S
C802 C808 1.465 . S
C803 C798 1.399 . S
C803 C802 1.394 . S
C803 C804 1.516 . S
C804 C803 1.516 . S
C804 C805 1.502 . S
C804 C806 1.561 . S
C804 C807 1.526 . S
C805 H789 0.959 . S
C805 H790 0.959 . S
C805 H791 0.961 . S
C805 C804 1.502 . S
C806 H792 0.960 . S
C806 H793 0.961 . S
C806 H794 0.959 . S
C806 C804 1.561 . S
C807 C804 1.526 . S
C807 C808 1.396 . S
C807 C812 1.390 . S
C808 C802 1.465 . S
C808 C807 1.396 . S
C808 C809 1.399 1_554 S
C809 H795 0.929 . S
C809 C808 1.399 1_556 S
C809 C810 1.385 . S
C810 H796 0.931 . S
C810 C809 1.385 . S
C810 C811 1.389 . S
C811 C810 1.389 . S
C811 C812 1.387 1_556 S
C812 H797 0.930 . S
C812 C807 1.390 . S
C812 C811 1.387 1_554 S
H813 C825 0.930 . S
H814 C827 0.930 . S
H815 C828 0.930 . S
H816 C832 0.959 . S
H817 C832 0.959 . S
H818 C832 0.961 . S
H819 C833 0.960 . S
H820 C833 0.961 . S
H821 C833 0.959 . S
H822 C836 0.929 . S
H823 C837 0.931 . S
H824 C839 0.930 . S
C825 H813 0.930 . S
C825 C826 1.399 . S
C825 C830 1.399 . S
C826 C825 1.399 . S
C826 C827 1.376 . S
C827 H814 0.930 . S
C827 C826 1.376 . S
C827 C828 1.388 . S
C828 H815 0.930 . S
C828 C827 1.388 . S
C828 C829 1.390 . S
C829 C828 1.390 . S
C829 C830 1.394 . S
C829 C835 1.465 . S
C830 C825 1.399 . S
C830 C829 1.394 . S
C830 C831 1.516 . S
C831 C830 1.516 . S
C831 C832 1.502 1_554 S
C831 C833 1.561 . S
C831 C834 1.526 . S
C832 H816 0.959 . S
C832 H817 0.959 . S
C832 H818 0.961 . S
C832 C831 1.502 1_556 S
C833 H819 0.960 . S
C833 H820 0.961 . S
C833 H821 0.959 . S
C833 C831 1.561 . S
C834 C831 1.526 . S
C834 C835 1.396 . S
C834 C839 1.390 1_554 S
C835 C829 1.465 . S
C835 C834 1.396 . S
C835 C836 1.399 . S
C836 H822 0.929 . S
C836 C835 1.399 . S
C836 C837 1.385 . S
C837 H823 0.931 . S
C837 C836 1.385 . S
C837 C838 1.389 1_554 S
C838 C837 1.389 1_556 S
C838 C839 1.387 . S
C839 H824 0.930 . S
C839 C834 1.390 1_556 S
C839 C838 1.387 . S
H840 C852 0.930 . S
H841 C854 0.930 . S
H842 C855 0.930 . S
H843 C859 0.951 1_655 S
H844 C859 0.959 . S
H845 C859 0.961 . S
H846 C860 0.960 . S
H847 C860 0.961 . S
H848 C860 0.959 . S
H849 C863 0.929 . S
H850 C864 0.931 . S
H851 C866 0.930 . S
C852 H840 0.930 . S
C852 C853 1.399 . S
C852 C857 1.399 . S
C853 C852 1.399 . S
C853 C854 1.376 . S
C854 H841 0.930 . S
C854 C853 1.376 . S
C854 C855 1.388 . S
C855 H842 0.930 . S
C855 C854 1.388 . S
C855 C856 1.390 . S
C856 C855 1.390 . S
C856 C857 1.394 . S
C856 C862 1.465 . S
C857 C852 1.399 . S
C857 C856 1.394 . S
C857 C858 1.516 . S
C858 C857 1.516 . S
C858 C859 1.502 . S
C858 C860 1.561 . S
C858 C861 1.526 . S
C859 H843 0.951 1_455 S
C859 H844 0.959 . S
C859 H845 0.961 . S
C859 C858 1.502 . S
C860 H846 0.960 . S
C860 H847 0.961 . S
C860 H848 0.959 . S
C860 C858 1.561 . S
C861 C858 1.526 . S
C861 C862 1.396 . S
C861 C866 1.390 . S
C862 C856 1.465 . S
C862 C861 1.396 . S
C862 C863 1.399 . S
C863 H849 0.929 . S
C863 C862 1.399 . S
C863 C864 1.385 . S
C864 H850 0.931 . S
C864 C863 1.385 . S
C864 C865 1.389 . S
C865 C864 1.389 . S
C865 C866 1.387 . S
C866 H851 0.930 . S
C866 C861 1.390 . S
C866 C865 1.387 . S
H867 C879 0.930 . S
H868 C881 0.930 . S
H869 C882 0.930 . S
H870 C886 0.959 . S
H871 C886 0.959 . S
H872 C886 0.961 . S
H873 C887 0.960 . S
H874 C887 0.961 . S
H875 C887 0.959 . S
H876 C890 0.929 1_565 S
H877 C891 0.931 1_565 S
H878 C893 0.930 . S
C879 H867 0.930 . S
C879 C880 1.399 . S
C879 C884 1.399 . S
C880 C879 1.399 . S
C880 C881 1.376 . S
C881 H868 0.930 . S
C881 C880 1.376 . S
C881 C882 1.388 . S
C882 H869 0.930 . S
C882 C881 1.388 . S
C882 C883 1.390 . S
C883 C882 1.390 . S
C883 C884 1.394 . S
C883 C889 1.465 . S
C884 C879 1.399 . S
C884 C883 1.394 . S
C884 C885 1.516 . S
C885 C884 1.516 . S
C885 C886 1.502 . S
C885 C887 1.561 . S
C885 C888 1.526 . S
C886 H870 0.959 . S
C886 H871 0.959 . S
C886 H872 0.961 . S
C886 C885 1.502 . S
C887 H873 0.960 . S
C887 H874 0.961 . S
C887 H875 0.959 . S
C887 C885 1.561 . S
C888 C885 1.526 . S
C888 C889 1.396 . S
C888 C893 1.390 . S
C889 C883 1.465 . S
C889 C888 1.396 . S
C889 C890 1.399 . S
C890 H876 0.929 1_545 S
C890 C889 1.399 . S
C890 C891 1.385 . S
C891 H877 0.931 1_545 S
C891 C890 1.385 . S
C891 C892 1.389 . S
C892 C891 1.389 . S
C892 C893 1.387 . S
C893 H878 0.930 . S
C893 C888 1.390 . S
C893 C892 1.387 . S
H894 C906 0.930 . S
H895 C908 0.930 1_554 S
H896 C909 0.930 . S
H897 C913 0.959 . S
H898 C913 0.959 . S
H899 C913 0.961 . S
H900 C914 0.960 . S
H901 C914 0.961 . S
H902 C914 0.959 . S
H903 C917 0.929 . S
H904 C918 0.931 . S
H905 C920 0.930 . S
C906 H894 0.930 . S
C906 C907 1.399 . S
C906 C911 1.399 . S
C907 C906 1.399 . S
C907 C908 1.376 . S
C908 H895 0.930 1_556 S
C908 C907 1.376 . S
C908 C909 1.388 . S
C909 H896 0.930 . S
C909 C908 1.388 . S
C909 C910 1.390 . S
C910 C909 1.390 . S
C910 C911 1.394 . S
C910 C916 1.465 . S
C911 C906 1.399 . S
C911 C910 1.394 . S
C911 C912 1.516 . S
C912 C911 1.516 . S
C912 C913 1.502 . S
C912 C914 1.561 . S
C912 C915 1.526 . S
C913 H897 0.959 . S
C913 H898 0.959 . S
C913 H899 0.961 . S
C913 C912 1.502 . S
C914 H900 0.960 . S
C914 H901 0.961 . S
C914 H902 0.959 . S
C914 C912 1.561 . S
C915 C912 1.526 . S
C915 C916 1.396 . S
C915 C920 1.390 . S
C916 C910 1.465 . S
C916 C915 1.396 . S
C916 C917 1.399 . S
C917 H903 0.929 . S
C917 C916 1.399 . S
C917 C918 1.385 . S
C918 H904 0.931 . S
C918 C917 1.385 . S
C918 C919 1.389 . S
C919 C918 1.389 . S
C919 C920 1.387 . S
C920 H905 0.930 . S
C920 C915 1.390 . S
C920 C919 1.387 . S
H921 C933 0.930 . S
H922 C935 0.930 . S
H923 C936 0.930 . S
H924 C940 0.959 . S
H925 C940 0.959 . S
H926 C940 0.961 . S
H927 C941 0.960 . S
H928 C941 0.961 . S
H929 C941 0.959 . S
H930 C944 0.929 . S
H931 C945 0.931 . S
H932 C947 0.930 . S
C933 H921 0.930 . S
C933 C934 1.399 . S
C933 C938 1.399 . S
C934 C933 1.399 . S
C934 C935 1.376 . S
C935 H922 0.930 . S
C935 C934 1.376 . S
C935 C936 1.388 . S
C936 H923 0.930 . S
C936 C935 1.388 . S
C936 C937 1.390 . S
C937 C936 1.390 . S
C937 C938 1.394 . S
C937 C943 1.465 . S
C938 C933 1.399 . S
C938 C937 1.394 . S
C938 C939 1.516 . S
C939 C938 1.516 . S
C939 C940 1.502 . S
C939 C941 1.561 . S
C939 C942 1.526 . S
C940 H924 0.959 . S
C940 H925 0.959 . S
C940 H926 0.961 . S
C940 C939 1.502 . S
C941 H927 0.960 . S
C941 H928 0.961 . S
C941 H929 0.959 . S
C941 C939 1.561 . S
C942 C939 1.526 . S
C942 C943 1.396 . S
C942 C947 1.390 . S
C943 C937 1.465 . S
C943 C942 1.396 . S
C943 C944 1.399 . S
C944 H930 0.929 . S
C944 C943 1.399 . S
C944 C945 1.385 . S
C945 H931 0.931 . S
C945 C944 1.385 . S
C945 C946 1.389 . S
C946 C945 1.389 . S
C946 C947 1.387 . S
C947 H932 0.930 . S
C947 C942 1.390 . S
C947 C946 1.387 . S
H948 C960 0.930 . S
H949 C962 0.930 . S
H950 C963 0.930 . S
H951 C967 0.978 . S
H952 C967 0.967 . S
H953 C967 0.963 . S
H954 C968 0.960 . S
H955 C968 0.961 . S
H956 C968 0.959 . S
H957 C971 0.929 . S
H958 C972 0.931 . S
H959 C974 0.930 . S
C960 H948 0.930 . S
C960 C961 1.399 . S
C960 C965 1.399 . S
C961 C960 1.399 . S
C961 C962 1.376 . S
C962 H949 0.930 . S
C962 C961 1.376 . S
C962 C963 1.388 . S
C963 H950 0.930 . S
C963 C962 1.388 . S
C963 C964 1.390 . S
C964 C963 1.390 . S
C964 C965 1.394 . S
C964 C970 1.465 . S
C965 C960 1.399 . S
C965 C964 1.394 . S
C965 C966 1.516 . S
C966 C965 1.516 . S
C966 C967 1.475 1_655 S
C966 C968 1.561 . S
C966 C969 1.526 . S
C967 H951 0.978 . S
C967 H952 0.967 . S
C967 H953 0.963 . S
C967 C966 1.475 1_455 S
C968 H954 0.960 . S
C968 H955 0.961 . S
C968 H956 0.959 . S
C968 C966 1.561 . S
C969 C966 1.526 . S
C969 C970 1.396 . S
C969 C974 1.390 . S
C970 C964 1.465 . S
C970 C969 1.396 . S
C970 C971 1.399 . S
C971 H957 0.929 . S
C971 C970 1.399 . S
C971 C972 1.385 . S
C972 H958 0.931 . S
C972 C971 1.385 . S
C972 C973 1.389 . S
C973 C972 1.389 . S
C973 C974 1.387 . S
C974 H959 0.930 . S
C974 C969 1.390 . S
C974 C973 1.387 . S
H975 C987 0.930 . S
H976 C989 0.930 . S
H977 C990 0.930 . S
H978 C994 0.959 . S
H979 C994 0.959 . S
H980 C994 0.961 . S
H981 C995 0.960 . S
H982 C995 0.961 . S
H983 C995 0.959 1_565 S
H984 C998 0.929 . S
H985 C999 0.931 . S
H986 C1001 0.930 1_545 S
C987 H975 0.930 . S
C987 C988 1.399 . S
C987 C992 1.399 . S
C988 C987 1.399 . S
C988 C989 1.376 . S
C989 H976 0.930 . S
C989 C988 1.376 . S
C989 C990 1.388 . S
C990 H977 0.930 . S
C990 C989 1.388 . S
C990 C991 1.390 . S
C991 C990 1.390 . S
C991 C992 1.394 . S
C991 C997 1.465 . S
C992 C987 1.399 . S
C992 C991 1.394 . S
C992 C993 1.514 . S
C993 C992 1.514 . S
C993 C994 1.504 1_565 S
C993 C995 1.562 1_565 S
C993 C996 1.525 . S
C994 H978 0.959 . S
C994 H979 0.959 . S
C994 H980 0.961 . S
C994 C993 1.504 1_545 S
C995 H981 0.960 . S
C995 H982 0.961 . S
C995 H983 0.959 1_545 S
C995 C993 1.562 1_545 S
C996 C993 1.525 . S
C996 C997 1.396 . S
C996 C1001 1.390 . S
C997 C991 1.465 . S
C997 C996 1.396 . S
C997 C998 1.399 . S
C998 H984 0.929 . S
C998 C997 1.399 . S
C998 C999 1.385 . S
C999 H985 0.931 . S
C999 C998 1.385 . S
C999 C1000 1.389 . S
C1000 C999 1.389 . S
C1000 C1001 1.387 . S
C1001 H986 0.930 1_565 S
C1001 C996 1.390 . S
C1001 C1000 1.387 . S
H1002 C1014 0.930 . S
H1003 C1016 0.930 . S
H1004 C1017 0.930 . S
H1005 C1021 0.959 . S
H1006 C1021 0.959 . S
H1007 C1021 0.961 . S
H1008 C1022 0.960 . S
H1009 C1022 0.961 . S
H1010 C1022 0.959 . S
H1011 C1025 0.929 . S
H1012 C1026 0.931 . S
H1013 C1028 0.930 . S
C1014 H1002 0.930 . S
C1014 C1015 1.399 . S
C1014 C1019 1.399 . S
C1015 C1014 1.399 . S
C1015 C1016 1.376 . S
C1016 H1003 0.930 . S
C1016 C1015 1.376 . S
C1016 C1017 1.388 . S
C1017 H1004 0.930 . S
C1017 C1016 1.388 . S
C1017 C1018 1.390 . S
C1018 C1017 1.390 . S
C1018 C1019 1.394 . S
C1018 C1024 1.465 . S
C1019 C1014 1.399 . S
C1019 C1018 1.394 . S
C1019 C1020 1.516 . S
C1020 C1019 1.516 . S
C1020 C1021 1.502 . S
C1020 C1022 1.561 . S
C1020 C1023 1.526 . S
C1021 H1005 0.959 . S
C1021 H1006 0.959 . S
C1021 H1007 0.961 . S
C1021 C1020 1.502 . S
C1022 H1008 0.960 . S
C1022 H1009 0.961 . S
C1022 H1010 0.959 . S
C1022 C1020 1.561 . S
C1023 C1020 1.526 . S
C1023 C1024 1.396 . S
C1023 C1028 1.390 . S
C1024 C1018 1.465 . S
C1024 C1023 1.396 . S
C1024 C1025 1.399 . S
C1025 H1011 0.929 . S
C1025 C1024 1.399 . S
C1025 C1026 1.385 . S
C1026 H1012 0.931 . S
C1026 C1025 1.385 . S
C1026 C1027 1.389 . S
C1027 C1026 1.389 . S
C1027 C1028 1.387 . S
C1028 H1013 0.930 . S
C1028 C1023 1.390 . S
C1028 C1027 1.387 . S
H1029 C1041 0.930 . S
H1030 C1043 0.930 . S
H1031 C1044 0.930 . S
H1032 C1048 0.959 . S
H1033 C1048 0.959 . S
H1034 C1048 0.961 . S
H1035 C1049 0.960 . S
H1036 C1049 0.961 . S
H1037 C1049 0.959 . S
H1038 C1052 0.929 . S
H1039 C1053 0.931 . S
H1040 C1055 0.930 . S
C1041 H1029 0.930 . S
C1041 C1042 1.399 . S
C1041 C1046 1.399 . S
C1042 C1041 1.399 . S
C1042 C1043 1.376 . S
C1043 H1030 0.930 . S
C1043 C1042 1.376 . S
C1043 C1044 1.388 . S
C1044 H1031 0.930 . S
C1044 C1043 1.388 . S
C1044 C1045 1.390 . S
C1045 C1044 1.390 . S
C1045 C1046 1.394 . S
C1045 C1051 1.465 . S
C1046 C1041 1.399 . S
C1046 C1045 1.394 . S
C1046 C1047 1.516 . S
C1047 C1046 1.516 . S
C1047 C1048 1.502 . S
C1047 C1049 1.561 . S
C1047 C1050 1.526 . S
C1048 H1032 0.959 . S
C1048 H1033 0.959 . S
C1048 H1034 0.961 . S
C1048 C1047 1.502 . S
C1049 H1035 0.960 . S
C1049 H1036 0.961 . S
C1049 H1037 0.959 . S
C1049 C1047 1.561 . S
C1050 C1047 1.526 . S
C1050 C1051 1.396 . S
C1050 C1055 1.390 . S
C1051 C1045 1.465 . S
C1051 C1050 1.396 . S
C1051 C1052 1.399 . S
C1052 H1038 0.929 . S
C1052 C1051 1.399 . S
C1052 C1053 1.385 . S
C1053 H1039 0.931 . S
C1053 C1052 1.385 . S
C1053 C1054 1.389 . S
C1054 C1053 1.389 . S
C1054 C1055 1.387 . S
C1055 H1040 0.930 . S
C1055 C1050 1.390 . S
C1055 C1054 1.387 . S
C421 C61 1.821 . S
C433 C146 1.920 . S
C460 C230 1.935 . S
C448 C70 1.821 . S
C487 C296 1.909 . S
C475 C43 1.904 . S
C514 C380 1.821 . S
C502 C52 1.967 . S
C541 C135 1.909 1_565 S
C529 C25 1.793 . S
C556 C34 1.834 . S
C568 C219 1.944 . S
C583 C7 1.944 . S
C595 C307 1.892 . S
C610 C16 1.908 . S
C622 C391 1.905 . S
C649 C142 0.544 . S
C637 C50 0.575 . S
C676 C226 0.522 . S
C664 C59 0.560 . S
C703 C298 0.653 . S
C691 C67 0.631 . S
C718 C41 0.669 . S
C730 C382 0.648 . S
C745 C14 0.633 . S
C757 C130 0.611 . S
C784 C214 0.493 . S
C772 C23 0.489 . S
C811 C310 0.639 1_556 S
C799 C31 0.537 . S
C826 C5 0.467 . S
C838 C394 0.495 1_556 S
C853 C49 1.948 . S
C865 C139 2.096 . S
C880 C58 1.914 . S
C892 C223 2.028 . S
C919 C303 2.024 . S
C907 C68 1.815 . S
C946 C387 2.072 . S
C934 C40 1.919 . S
C961 C13 2.019 . S
C973 C128 2.064 . S
C1000 C212 2.067 . S
C988 C22 1.953 . S
C1027 C314 2.007 . S
C1015 C32 1.813 . S
C1042 C4 1.911 . S
C1054 C398 2.069 . S
