# Generated by pormake.
# Topology zzz, (3,6)-cn, num edge types: 1
# Building blocks:
#     Node 0, Type 0, BuildingBlock: QEWDON_clean_linker_0, # of connection points: 3
#     Node 1, Type 0, BuildingBlock: QEWDON_clean_linker_0, # of connection points: 3
#     Node 2, Type 0, BuildingBlock: QEWDON_clean_linker_0, # of connection points: 3
#     Node 3, Type 0, BuildingBlock: QEWDON_clean_linker_0, # of connection points: 3
#     Node 4, Type 0, BuildingBlock: QEWDON_clean_linker_0, # of connection points: 3
#     Node 5, Type 0, BuildingBlock: QEWDON_clean_linker_0, # of connection points: 3
#     Node 6, Type 0, BuildingBlock: QEWDON_clean_linker_0, # of connection points: 3
#     Node 7, Type 0, BuildingBlock: QEWDON_clean_linker_0, # of connection points: 3
#     Node 8, Type 1, BuildingBlock: KUMBOL_clean_sbu_0, # of connection points: 6
#     Node 9, Type 1, BuildingBlock: KUMBOL_clean_sbu_0, # of connection points: 6
#     Node 10, Type 1, BuildingBlock: KUMBOL_clean_sbu_0, # of connection points: 6
#     Node 11, Type 1, BuildingBlock: KUMBOL_clean_sbu_0, # of connection points: 6
#     Edge 12, Type (0, 1), BuildingBlock: OJICUG_clean_linker_0, # of connection points: 2
#     Edge 13, Type (0, 1), BuildingBlock: OJICUG_clean_linker_0, # of connection points: 2
#     Edge 14, Type (0, 1), BuildingBlock: OJICUG_clean_linker_0, # of connection points: 2
#     Edge 15, Type (0, 1), BuildingBlock: OJICUG_clean_linker_0, # of connection points: 2
#     Edge 16, Type (0, 1), BuildingBlock: OJICUG_clean_linker_0, # of connection points: 2
#     Edge 17, Type (0, 1), BuildingBlock: OJICUG_clean_linker_0, # of connection points: 2
#     Edge 18, Type (0, 1), BuildingBlock: OJICUG_clean_linker_0, # of connection points: 2
#     Edge 19, Type (0, 1), BuildingBlock: OJICUG_clean_linker_0, # of connection points: 2
#     Edge 20, Type (0, 1), BuildingBlock: OJICUG_clean_linker_0, # of connection points: 2
#     Edge 21, Type (0, 1), BuildingBlock: OJICUG_clean_linker_0, # of connection points: 2
#     Edge 22, Type (0, 1), BuildingBlock: OJICUG_clean_linker_0, # of connection points: 2
#     Edge 23, Type (0, 1), BuildingBlock: OJICUG_clean_linker_0, # of connection points: 2
#     Edge 24, Type (0, 1), BuildingBlock: OJICUG_clean_linker_0, # of connection points: 2
#     Edge 25, Type (0, 1), BuildingBlock: OJICUG_clean_linker_0, # of connection points: 2
#     Edge 26, Type (0, 1), BuildingBlock: OJICUG_clean_linker_0, # of connection points: 2
#     Edge 27, Type (0, 1), BuildingBlock: OJICUG_clean_linker_0, # of connection points: 2
#     Edge 28, Type (0, 1), BuildingBlock: OJICUG_clean_linker_0, # of connection points: 2
#     Edge 29, Type (0, 1), BuildingBlock: OJICUG_clean_linker_0, # of connection points: 2
#     Edge 30, Type (0, 1), BuildingBlock: OJICUG_clean_linker_0, # of connection points: 2
#     Edge 31, Type (0, 1), BuildingBlock: OJICUG_clean_linker_0, # of connection points: 2
#     Edge 32, Type (0, 1), BuildingBlock: OJICUG_clean_linker_0, # of connection points: 2
#     Edge 33, Type (0, 1), BuildingBlock: OJICUG_clean_linker_0, # of connection points: 2
#     Edge 34, Type (0, 1), BuildingBlock: OJICUG_clean_linker_0, # of connection points: 2
#     Edge 35, Type (0, 1), BuildingBlock: OJICUG_clean_linker_0, # of connection points: 2
# Relax obj value: 0.155
# Max RMSD: 0.165
# Mean RMSD: 0.078
data_MOF--net-zzz--node1-KUMBOL_clean_sbu_0--node2-QEWDON_clean_linker_0--edge1-OJICUG_clean_linker_0
_symmetry_space_group_name_H-M    P1
_symmetry_Int_Tables_number       1
_symmetry_cell_setting            triclinic
loop_
_symmetry_equiv_pos_as_xyz
'x, y, z'
_cell_length_a     40.379907
_cell_length_b     40.325767
_cell_length_c     10.887332
_cell_angle_alpha  91.15823
_cell_angle_beta   89.812743
_cell_angle_gamma 89.941462
loop_
_atom_site_label
_atom_site_type_symbol
_atom_site_fract_x
_atom_site_fract_y
_atom_site_fract_z
_atom_type_partial_charge
H0 H 0.75922 0.49304 0.15662 0.0
C1 C 0.77667 0.50239 0.22391 0.0
C2 C 0.80329 0.48182 0.25476 0.0
C3 C 0.77403 0.53515 0.27075 0.0
H4 H 0.84925 0.47804 0.35389 0.0
C5 C 0.82794 0.49356 0.3352 0.0
C6 C 0.828 0.52595 0.38186 0.0
C7 C 0.80062 0.54683 0.35049 0.0
C8 C 0.74548 0.5572 0.22494 0.0
H9 H 0.80047 0.57178 0.38835 0.0
C10 C 0.71557 0.5447 0.16605 0.0
C11 C 0.69139 0.56653 0.11381 0.0
C12 C 0.74908 0.59189 0.23262 0.0
H13 H 0.77087 0.6033 0.27198 0.0
C14 C 0.72513 0.61311 0.18623 0.0
H15 H 0.71104 0.51834 0.15876 0.0
C16 C 0.69698 0.60075 0.12783 0.0
H17 H 0.6791 0.61837 0.09491 0.0
H18 H 0.72862 0.63967 0.19454 0.0
H19 H 0.05226 0.77778 0.11307 0.0
C20 C 0.04841 0.7951 0.1885 0.0
C21 C 0.0599 0.82711 0.17251 0.0
C22 C 0.03175 0.786 0.29585 0.0
H23 H 0.06266 0.87679 0.23867 0.0
C24 C 0.05472 0.85202 0.26138 0.0
C25 C 0.03976 0.84596 0.37538 0.0
C26 C 0.02765 0.81221 0.39133 0.0
C27 C 1.01812 0.7498 0.29953 0.0
H28 H 1.01572 0.80662 0.47734 0.0
C29 C 0.0264 0.7232 0.2104 0.0
C30 C 1.00995 0.69139 0.20894 0.0
C31 C 0.99454 0.74189 0.38941 0.0
H32 H 0.9869 0.75995 0.45842 0.0
C33 C 0.97935 0.71078 0.39099 0.0
H34 H 0.04508 0.72665 0.1409 0.0
C35 C 0.98642 0.68634 0.30195 0.0
H36 H 0.97364 0.6628 0.30763 0.0
H37 H 0.96126 0.70566 0.46176 0.0
H38 H 0.78123 0.05898 0.12733 0.0
C39 C 0.76244 0.05199 0.19262 0.0
C40 C 0.73008 0.06027 0.16491 0.0
C41 C 0.77057 0.03653 0.30286 0.0
H42 H 0.6795 0.06144 0.22078 0.0
C43 C 0.70439 0.05462 0.24785 0.0
C44 C 0.71017 0.04275 0.36624 0.0
C45 C 0.74375 0.03246 0.39223 0.0
C46 C 0.80742 0.02778 0.32199 0.0
H47 H 0.74874 0.02225 0.48124 0.0
C48 C 0.83177 0.02629 0.22309 0.0
C49 C 0.86637 0.0207 0.24444 0.0
C50 C 0.81926 0.02257 0.44111 0.0
H51 H 0.8029 0.02393 0.51978 0.0
C52 C 0.85276 1.01641 0.46247 0.0
H53 H 0.8243 0.02875 0.12866 0.0
C54 C 0.87589 1.01556 0.36663 0.0
H55 H 0.90162 1.01154 0.38941 0.0
H56 H 0.861 1.01296 0.55567 0.0
H57 H 0.58542 0.79052 0.109 0.0
C58 C 0.57859 0.77287 0.17815 0.0
C59 C 0.59054 0.74065 0.16424 0.0
C60 C 0.55882 0.78232 0.27946 0.0
H61 H 0.59223 0.69201 0.23921 0.0
C62 C 0.58333 0.71702 0.25335 0.0
C63 C 0.56298 0.72402 0.35515 0.0
C64 C 0.55038 0.75718 0.36742 0.0
C65 C 0.55031 0.81898 0.29501 0.0
H66 H 0.53467 0.76334 0.44526 0.0
C67 C 0.54857 0.84137 0.19347 0.0
C68 C 0.54735 0.87651 0.21244 0.0
C69 C 0.54823 0.83279 0.41416 0.0
H70 H 0.54983 0.81736 0.49406 0.0
C71 C 0.54608 0.86701 0.43309 0.0
H72 H 0.54917 0.83181 0.09997 0.0
C73 C 0.54635 0.88851 0.33428 0.0
H74 H 0.54564 0.91485 0.35329 0.0
H75 H 0.545 0.87697 0.52597 0.0
H76 H 0.28244 0.56726 0.27911 0.0
C77 C 0.26735 0.55771 0.20441 0.0
C78 C 0.23915 0.5759 0.17002 0.0
C79 C 0.27424 0.52617 0.1511 0.0
H80 H 0.19539 0.57687 0.05826 0.0
C81 C 0.21779 0.56322 0.0798 0.0
C82 C 0.22128 0.53131 0.03126 0.0
C83 C 0.25005 0.51286 0.06488 0.0
C84 C 0.30378 0.50591 0.1989 0.0
H85 H 0.25302 0.48829 0.02492 0.0
C86 C 0.33346 0.52002 0.25414 0.0
C87 C 0.35877 0.49937 0.30668 0.0
C88 C 0.30118 0.47111 0.19664 0.0
H89 H 0.27942 0.45873 0.16105 0.0
C90 C 0.32591 0.45112 0.24445 0.0
H91 H 0.33668 0.54665 0.25809 0.0
C92 C 0.35399 0.46487 0.29872 0.0
H93 H 0.37252 0.44801 0.3332 0.0
H94 H 0.32308 0.42443 0.2407 0.0
H95 H 0.98712 0.29058 0.28119 0.0
C96 C 0.99291 0.27367 0.20584 0.0
C97 C 0.9718 0.24663 0.18661 0.0
C98 C 0.02225 0.27737 0.13788 0.0
H99 H 0.96105 0.20314 0.07976 0.0
C100 C 0.97875 0.22293 0.09426 0.0
C101 C 1.00901 0.22192 0.0306 0.0
C102 C 0.03053 0.25036 0.05028 0.0
C103 C 0.04498 0.30719 0.17362 0.0
H104 H 0.05357 0.25081 0.99976 0.0
C105 C 0.03439 0.33683 0.24375 0.0
C106 C 0.05764 0.36164 0.28802 0.0
C107 C 0.07891 0.30483 0.14602 0.0
H108 H 0.08893 0.28363 0.09639 0.0
C109 C 0.10127 0.32907 0.18562 0.0
H110 H 1.00856 0.34052 0.26628 0.0
C111 C 0.09101 0.3566 0.25547 0.0
H112 H 0.10968 0.37452 0.28276 0.0
H113 H 0.12725 0.32629 0.16274 0.0
H114 H 0.26807 1.0016 0.23906 0.0
C115 C 0.287 1.00917 0.17516 0.0
C116 C 0.31895 0.99865 0.19779 0.0
C117 C 0.27936 0.02778 0.07146 0.0
H118 H 0.36933 0.99738 0.14103 0.0
C119 C 0.34461 1.00533 0.11612 0.0
C120 C 0.33905 0.02016 0.00236 0.0
C121 C 0.30593 0.03265 0.98192 0.0
C122 C 0.24305 0.03892 0.05885 0.0
H123 H 0.30102 0.04529 0.89731 0.0
C124 C 0.22005 0.04045 0.16168 0.0
C125 C 0.18552 0.04737 0.1469 0.0
C126 C 0.23019 0.04603 0.94263 0.0
H127 H 0.24572 0.04491 0.8616 0.0
C128 C 0.19667 0.05365 0.9276 0.0
H129 H 0.22865 0.03686 0.25424 0.0
C130 C 0.17469 0.05401 0.02716 0.0
H131 H 0.14882 0.05895 0.00912 0.0
H132 H 0.18737 0.05865 0.83665 0.0
H133 H 0.4518 0.27553 0.24551 0.0
C134 C 0.46051 0.29364 0.18094 0.0
C135 C 0.45179 0.32699 0.20149 0.0
C136 C 0.48168 0.28382 0.08388 0.0
H137 H 0.45234 0.37563 0.12192 0.0
C138 C 0.46044 0.35015 0.11164 0.0
C139 C 0.483 0.34267 0.01691 0.0
C140 C 0.49335 0.30897 0.00214 0.0
C141 C 0.49074 0.24728 0.07018 0.0
H142 H 0.51105 0.30267 0.93051 0.0
C143 C 0.49237 0.22519 0.1724 0.0
C144 C 0.49631 0.19022 0.15433 0.0
C145 C 0.495 0.23351 0.9517 0.0
H146 H 0.49361 0.24887 0.87146 0.0
C147 C 0.4996 0.19948 0.93381 0.0
H148 H 0.48994 0.23486 0.26541 0.0
C149 C 0.49972 0.17813 0.0331 0.0
H150 H 0.50276 0.15188 0.01501 0.0
H151 H 0.50255 0.18947 0.84147 0.0
Gd152 Gd 0.99948 0.04188 0.58774 0.0
Gd153 Gd 0.05599 0.02619 0.81774 0.0
C154 C 0.0538 0.1063 0.1251 0.0
C155 C 0.09314 0.14678 0.05273 0.0
C156 C 0.08228 0.09631 0.93159 0.0
C157 C 0.06028 0.08588 0.02028 0.0
C158 C 0.0993 0.12678 0.94827 0.0
C159 C 0.0703 0.13665 0.14063 0.0
C160 C 0.03018 0.09608 0.21004 0.0
C161 C 1.01577 0.06503 0.195 0.0
N162 N 0.04471 0.05625 0.00384 0.0
C163 C 0.02507 0.04464 0.09605 0.0
H164 H 1.01617 0.01956 0.09529 0.0
C165 C 0.11098 0.0858 0.74636 0.0
N166 N 0.08685 0.07704 0.82877 0.0
C167 C 0.12829 0.11561 0.7591 0.0
C168 C 0.12209 0.13646 0.85952 0.0
H169 H 0.119 0.06952 0.67361 0.0
H170 H 0.06546 0.15252 0.2202 0.0
H171 H 0.04964 0.0206 0.33133 0.0
H172 H 0.02369 0.11154 0.28903 0.0
H173 H 0.99826 0.05604 0.2614 0.0
H174 H 0.10579 0.17026 0.066 0.0
H175 H 0.92333 0.02341 0.72016 0.0
H176 H 1.01857 0.92779 0.19056 0.0
H177 H 0.05735 0.97469 0.1918 0.0
H178 H 0.92411 0.90055 0.42757 0.0
H179 H 0.14701 0.12211 0.69241 0.0
H180 H 0.13561 0.15956 0.86922 0.0
H181 H 0.96903 0.90107 0.27646 0.0
H182 H 0.88641 0.97642 0.73646 0.0
N183 N 1.00918 0.9996 0.43258 0.0
C184 C 1.01556 0.94771 0.25805 0.0
C185 C 0.03762 0.97393 0.25922 0.0
C186 C 0.98972 0.94756 0.34308 0.0
C187 C 0.98701 0.97395 0.43107 0.0
C188 C 0.03354 1.0 0.3441 0.0
N189 N 0.95858 0.99897 0.60145 0.0
C190 C 0.96167 0.97333 0.51839 0.0
C191 C 0.90797 0.97468 0.67731 0.0
C192 C 0.91234 0.94725 0.60019 0.0
C193 C 0.93035 1.0009 0.67247 0.0
C194 C 0.93855 0.94682 0.51644 0.0
H195 H 0.89438 0.92731 0.60168 0.0
O196 O 0.95112 0.04548 0.50339 0.0
O197 O 0.0193 0.0653 0.76294 0.0
O198 O 1.00483 1.01122 0.89422 0.0
O199 O 0.97315 0.04562 0.77707 0.0
O200 O 1.01706 0.09551 0.61308 0.0
O201 O 0.987 0.08287 0.4677 0.0
O202 O 0.10889 0.0196 0.83151 0.0
O203 O 0.03584 1.00221 0.64396 0.0
O204 O 0.04959 0.05361 0.49987 0.0
O205 O 0.08373 0.02528 0.63155 0.0
O206 O 0.03691 0.97311 0.79776 0.0
O207 O 0.07669 0.99354 0.95485 0.0
C208 C 0.02428 0.09523 0.72853 0.0
C209 C 0.94157 0.92095 0.4294 0.0
C210 C 0.967 0.92135 0.34296 0.0
C211 C 0.95606 0.07445 0.45935 0.0
C212 C 0.9307 0.09995 0.48911 0.0
C213 C 0.90104 0.09185 0.55018 0.0
C214 C 0.93567 0.1327 0.45341 0.0
C215 C 0.91149 0.15709 0.47713 0.0
C216 C 0.87686 0.11608 0.57314 0.0
C217 C 0.88189 0.14865 0.53589 0.0
C218 C 0.97631 0.02669 0.8751 0.0
C219 C 0.02974 0.97267 0.68192 0.0
C220 C 0.10673 0.99638 0.91145 0.0
C221 C 0.12505 0.9659 0.87746 0.0
C222 C 0.15681 0.96779 0.82461 0.0
C223 C 0.11062 0.93482 0.89294 0.0
C224 C 0.12757 0.90573 0.85807 0.0
C225 C 0.17371 0.93888 0.78854 0.0
C226 C 0.1593 0.90783 0.80617 0.0
C227 C 0.07912 0.04132 0.52743 0.0
H228 H 0.89636 0.06683 0.57969 0.0
H229 H 0.95817 0.13919 0.40469 0.0
H230 H 0.85406 0.10951 0.61919 0.0
H231 H 0.86286 0.16715 0.55278 0.0
H232 H 0.16849 0.99159 0.81077 0.0
H233 H 0.08652 0.93309 0.9366 0.0
H234 H 0.1982 0.94055 0.74847 0.0
H235 H 0.17303 0.88557 0.78164 0.0
Gd236 Gd 0.51915 1.00412 0.56457 0.0
Gd237 Gd 0.5291 0.06284 0.79966 0.0
C238 C 0.44497 0.05382 0.08445 0.0
C239 C 0.40881 0.09931 0.03244 0.0
C240 C 0.45942 0.08887 0.91397 0.0
C241 C 0.46698 0.06255 0.98863 0.0
C242 C 0.43045 0.10793 0.93726 0.0
C243 C 0.41583 0.07205 0.10479 0.0
C244 C 0.45311 0.02732 0.15895 0.0
C245 C 0.4839 1.01238 0.14501 0.0
N246 N 0.49599 0.04592 0.97005 0.0
C247 C 0.50577 0.02366 0.05608 0.0
H248 H 0.53078 1.01504 0.06191 0.0
C249 C 0.47462 0.12428 0.75379 0.0
N250 N 0.4803 0.09618 0.81994 0.0
C251 C 0.44619 0.14345 0.77264 0.0
C252 C 0.42381 0.13508 0.86392 0.0
H253 H 0.49252 0.13379 0.69065 0.0
H254 H 0.39881 0.06558 0.17765 0.0
H255 H 0.52127 0.0544 0.30678 0.0
H256 H 0.43658 0.01935 0.23119 0.0
H257 H 0.49167 0.99308 0.20572 0.0
H258 H 0.38642 0.11347 0.05029 0.0
H259 H 0.55317 0.93187 0.67425 0.0
H260 H 0.61539 0.04565 0.14054 0.0
H261 H 0.56208 0.07508 0.16741 0.0
H262 H 0.66113 0.94933 0.32051 0.0
H263 H 0.44208 0.16535 0.71879 0.0
H264 H 0.40191 0.1502 0.87895 0.0
H265 H 0.65071 0.99755 0.1928 0.0
H266 H 0.60299 0.89922 0.64958 0.0
N267 N 0.55371 0.02071 0.39718 0.0
C268 C 0.59823 0.03816 0.21154 0.0
C269 C 0.56841 0.05485 0.2263 0.0
C270 C 0.60477 1.01093 0.28453 0.0
C271 C 0.58205 1.00286 0.37903 0.0
C272 C 0.54563 0.04427 0.31338 0.0
N273 N 0.56702 0.96938 0.54658 0.0
C274 C 0.5885 0.9762 0.45378 0.0
C275 C 0.5997 0.92124 0.59566 0.0
C276 C 0.62263 0.92903 0.50563 0.0
C277 C 0.57166 0.94108 0.61271 0.0
C278 C 0.617 0.95632 0.4319 0.0
H279 H 0.64417 0.91332 0.49168 0.0
O280 O 0.5137 0.95647 0.4732 0.0
O281 O 0.48837 0.03786 0.69155 0.0
O282 O 0.54819 1.01203 0.8662 0.0
O283 O 0.52094 0.9748 0.73956 0.0
O284 O 0.47758 0.98753 0.68782 0.0
O285 O 0.47895 0.99531 0.43532 0.0
O286 O 0.53536 0.11172 0.88126 0.0
O287 O 0.55977 0.02897 0.67336 0.0
O288 O 0.50007 0.05469 0.49708 0.0
O289 O 0.52672 0.09221 0.6248 0.0
O290 O 0.57144 0.07895 0.67796 0.0
O291 O 0.56725 0.07195 0.93614 0.0
C292 C 0.46773 1.01604 0.72982 0.0
C293 C 0.63916 0.96419 0.3375 0.0
C294 C 0.63324 0.99163 0.26485 0.0
C295 C 0.48485 0.96349 0.42975 0.0
C296 C 0.45774 0.94118 0.46686 0.0
C297 C 0.46401 0.91099 0.52569 0.0
C298 C 0.42504 0.95133 0.45203 0.0
C299 C 0.39872 0.9322 0.49579 0.0
C300 C 0.43778 0.89155 0.56774 0.0
C301 C 0.40507 0.90198 0.55221 0.0
C302 C 0.53712 0.98149 0.84179 0.0
C303 C 0.58082 0.05038 0.63514 0.0
C304 C 0.56284 0.10402 0.93444 0.0
C305 C 0.59165 0.12454 0.90094 0.0
C306 C 0.58771 0.15631 0.85144 0.0
C307 C 0.62343 0.11124 0.90924 0.0
C308 C 0.65113 0.12872 0.86741 0.0
C309 C 0.61529 0.17404 0.81068 0.0
C310 C 0.64703 0.16039 0.81906 0.0
C311 C 0.51044 0.0854 0.5228 0.0
H312 H 0.48908 0.90257 0.5407 0.0
H313 H 0.41992 0.97421 0.40475 0.0
H314 H 0.44285 0.86833 0.61225 0.0
H315 H 0.38487 0.88654 0.58306 0.0
H316 H 0.56337 0.16728 0.84287 0.0
H317 H 0.62676 0.08725 0.9508 0.0
H318 H 0.61205 0.19846 0.77305 0.0
H319 H 0.66828 0.17459 0.78972 0.0
Gd320 Gd 0.4976 0.54849 0.80569 0.0
Gd321 Gd 0.55674 0.51775 0.58286 0.0
C322 C 0.66374 0.51291 0.71658 0.0
C323 C 0.69068 0.55311 0.58684 0.0
C324 C 0.63164 0.54223 0.56503 0.0
C325 C 0.63315 0.51955 0.65925 0.0
C326 C 0.66071 0.55825 0.52517 0.0
C327 C 0.69219 0.53049 0.68238 0.0
C328 C 0.66509 0.48826 0.80489 0.0
C329 C 0.63665 0.47026 0.83194 0.0
N330 N 0.60519 0.50287 0.69091 0.0
C331 C 0.60686 0.47772 0.77357 0.0
H332 H 0.58534 0.46366 0.79826 0.0
C333 C 0.60195 0.56182 0.39458 0.0
N334 N 0.6025 0.5465 0.50534 0.0
C335 C 0.62997 0.57855 0.35255 0.0
C336 C 0.6592 0.57759 0.42023 0.0
H337 H 0.57943 0.56171 0.34123 0.0
H338 H 0.71571 0.52603 0.72679 0.0
H339 H 0.45706 0.59772 0.60449 0.0
H340 H 0.68806 0.48255 0.8511 0.0
H341 H 0.63754 0.45083 0.89901 0.0
H342 H 0.71312 0.56554 0.55818 0.0
H343 H 0.48689 0.50497 0.06338 0.0
H344 H 0.3548 0.57215 0.60524 0.0
H345 H 0.40111 0.60578 0.527 0.0
H346 H 0.34627 0.49255 0.92402 0.0
H347 H 0.62925 0.59174 0.2673 0.0
H348 H 0.68093 0.59042 0.38745 0.0
H349 H 0.33467 0.52949 0.75216 0.0
H350 H 0.44326 0.47211 0.1635 0.0
N351 N 0.44392 0.55895 0.72639 0.0
C352 C 0.37955 0.56848 0.64071 0.0
C353 C 0.4056 0.58752 0.59653 0.0
C354 C 0.38561 0.54556 0.73255 0.0
C355 C 0.41837 0.54167 0.77521 0.0
C356 C 0.43762 0.58274 0.64153 0.0
N357 N 0.45601 0.52013 0.91636 0.0
C358 C 0.42474 0.52123 0.87218 0.0
C359 C 0.43772 0.48569 0.08125 0.0
C360 C 0.40594 0.48479 0.03154 0.0
C361 C 0.46231 0.50435 0.02435 0.0
C362 C 0.3988 0.5036 0.92847 0.0
H363 H 0.3869 0.47027 0.07508 0.0
O364 O 0.49356 0.56782 0.99213 0.0
O365 O 0.55204 0.54363 0.7656 0.0
O366 O 0.53719 0.47243 0.68636 0.0
O367 O 0.49735 0.49238 0.82432 0.0
O368 O 0.53726 0.53243 0.94052 0.0
O369 O 0.49489 0.60161 0.84049 0.0
O370 O 0.55161 0.50052 0.39277 0.0
O371 O 0.50234 0.52134 0.62624 0.0
O372 O 0.511 0.58977 0.66748 0.0
O373 O 0.56132 0.5741 0.58036 0.0
O374 O 0.51595 0.53342 0.45026 0.0
O375 O 0.58363 0.47469 0.51843 0.0
C376 C 0.56283 0.53544 0.87088 0.0
C377 C 0.36647 0.50604 0.8824 0.0
C378 C 0.35987 0.52709 0.78475 0.0
C379 C 0.49919 0.59799 0.95806 0.0
C380 C 0.52893 0.61316 0.01211 0.0
C381 C 0.53548 0.60865 0.13688 0.0
C382 C 0.55244 0.62928 0.93834 0.0
C383 C 0.5822 0.64122 0.98895 0.0
C384 C 0.56558 0.61869 0.18605 0.0
C385 C 0.58925 0.63362 0.11235 0.0
C386 C 0.51503 0.46784 0.77488 0.0
C387 C 0.49078 0.52977 0.5226 0.0
C388 C 0.57075 0.47496 0.40933 0.0
C389 C 0.559 0.44267 0.36651 0.0
C390 C 0.57969 0.4236 0.28954 0.0
C391 C 0.5299 0.42893 0.4148 0.0
C392 C 0.52225 0.3956 0.38968 0.0
C393 C 0.57189 0.39065 0.26268 0.0
C394 C 0.54357 0.37659 0.31318 0.0
C395 C 0.53834 0.59688 0.60403 0.0
H396 H 0.51762 0.59664 0.1957 0.0
H397 H 0.54714 0.63371 0.84267 0.0
H398 H 0.57022 0.61579 0.2827 0.0
H399 H 0.61185 0.64174 0.15652 0.0
H400 H 0.60233 0.43398 0.25289 0.0
H401 H 0.51374 0.44384 0.47339 0.0
H402 H 0.58788 0.37592 0.20308 0.0
H403 H 0.53769 0.3511 0.28849 0.0
Gd404 Gd 1.00918 0.50162 0.83151 0.0
Gd405 Gd 0.03879 0.55895 0.61425 0.0
C406 C 0.08892 0.65438 0.75623 0.0
C407 C 0.04197 0.69005 0.80222 0.0
C408 C 0.03325 0.63387 0.72127 0.0
C409 C 0.06715 0.62854 0.71993 0.0
C410 C 0.02044 0.66504 0.76034 0.0
C411 C 0.07614 0.6847 0.80053 0.0
C412 C 0.12298 0.6496 0.74204 0.0
C413 C 0.1345 0.62078 0.68396 0.0
N414 N 0.07897 0.59915 0.67485 0.0
C415 C 0.1119 0.59657 0.64497 0.0
H416 H 0.12072 0.57521 0.59313 0.0
C417 C 0.97949 0.61479 0.67386 0.0
N418 N 1.01282 0.60901 0.68217 0.0
C419 C 0.96582 0.64524 0.71076 0.0
C420 C 0.98632 0.6704 0.75525 0.0
H421 H 0.96291 0.59661 0.6369 0.0
H422 H 0.09252 0.70455 0.83015 0.0
H423 H 0.9557 0.46911 0.62484 0.0
H424 H 0.14046 0.66868 0.7698 0.0
H425 H 0.16073 0.61754 0.66738 0.0
H426 H 0.03246 0.71386 0.83415 0.0
H427 H 0.05616 0.48077 0.07334 0.0
H428 H 0.97893 0.36705 0.56234 0.0
H429 H 0.94411 0.41601 0.52133 0.0
H430 H 0.06633 0.34709 0.8469 0.0
H431 H 0.93939 0.64932 0.70419 0.0
H432 H 0.97561 0.69396 0.78404 0.0
H433 H 0.02539 0.34187 0.68086 0.0
H434 H 0.08971 0.43333 0.14204 0.0
N435 N 0.99754 0.45153 0.72309 0.0
C436 C 0.9842 0.39049 0.60857 0.0
C437 C 0.96451 0.41805 0.58525 0.0
C438 C 1.00987 0.39331 0.69393 0.0
C439 C 1.01567 0.42443 0.75183 0.0
C440 C 0.97144 0.44841 0.64395 0.0
N441 N 0.0408 0.45672 0.90706 0.0
C442 C 0.03858 0.42733 0.84495 0.0
C443 C 0.0758 0.43141 0.05737 0.0
C444 C 0.07638 0.40211 0.98721 0.0
C445 C 0.05691 0.45821 0.01793 0.0
C446 C 0.05649 0.39926 0.8828 0.0
H447 H 0.09102 0.38135 0.01716 0.0
O448 O 0.99376 0.49056 0.01848 0.0
O449 O 1.01476 0.55676 0.80004 0.0
O450 O 0.08315 0.54579 0.73496 0.0
O451 O 0.06629 0.49998 0.84289 0.0
O452 O 0.02766 0.54076 0.97029 0.0
O453 O 0.95722 0.49471 0.87668 0.0
O454 O 0.06707 0.55929 0.44469 0.0
O455 O 0.02162 0.50557 0.63132 0.0
O456 O 0.96395 0.52197 0.72755 0.0
O457 O 0.98564 0.54596 0.55273 0.0
O458 O 0.06523 0.51272 0.53753 0.0
O459 O 0.02378 0.59016 0.46246 0.0
C460 C 0.02608 0.56687 0.90425 0.0
C461 C 0.05253 0.36881 0.81983 0.0
C462 C 0.02913 0.3658 0.72574 0.0
C463 C 0.96336 0.48472 0.98672 0.0
C464 C 0.94899 0.45223 0.01756 0.0
C465 C 0.96866 0.42432 0.04137 0.0
C466 C 0.91456 0.44894 0.01857 0.0
C467 C 0.89943 0.41836 0.0441 0.0
C468 C 0.95393 0.39365 0.064 0.0
C469 C 0.91945 0.39064 0.06611 0.0
C470 C 0.08973 0.52091 0.80846 0.0
C471 C 0.04457 0.49025 0.57141 0.0
C472 C 0.05152 0.58502 0.40368 0.0
C473 C 0.0727 0.61433 0.37943 0.0
C474 C 0.06126 0.64679 0.40316 0.0
C475 C 0.10635 0.60962 0.34996 0.0
C476 C 0.12865 0.6364 0.35033 0.0
C477 C 0.08299 0.67374 0.39722 0.0
C478 C 0.11659 0.66864 0.37122 0.0
C479 C 0.95991 0.5347 0.6166 0.0
H480 H 0.99527 0.42606 0.04369 0.0
H481 H 0.89953 0.47084 0.00451 0.0
H482 H 0.96932 0.37233 0.08247 0.0
H483 H 0.90844 0.367 0.08812 0.0
H484 H 0.03579 0.65129 0.42976 0.0
H485 H 0.11564 0.58472 0.33229 0.0
H486 H 0.0739 0.69859 0.41607 0.0
H487 H 0.13324 0.68967 0.37073 0.0
C488 C 0.13278 0.06939 0.25358 0.0
C489 C 0.16008 0.04728 0.25228 0.0
H490 H 0.08741 0.08553 0.34047 0.0
C491 C 0.16108 0.02403 0.34787 0.0
H492 H 0.13094 0.08834 0.18494 0.0
C493 C 0.13542 0.02234 0.43747 0.0
C494 C 0.10765 0.04379 0.43535 0.0
H495 H 0.18122 1.00634 0.35143 0.0
H496 H 0.13703 1.00361 0.50713 0.0
C497 C 0.10736 0.06772 0.34296 0.0
C498 C 0.4795 0.13507 0.24643 0.0
C499 C 0.49693 0.16539 0.25765 0.0
H500 H 0.46917 0.08699 0.31976 0.0
C501 C 0.51731 0.16973 0.36146 0.0
H502 H 0.46331 0.13072 0.16887 0.0
C503 C 0.52116 0.14417 0.44758 0.0
C504 C 0.5045 0.11341 0.43399 0.0
H505 H 0.53141 0.19238 0.37352 0.0
H506 H 0.53795 0.14832 0.5237 0.0
C507 C 0.48298 0.10976 0.33314 0.0
C508 C 0.41221 0.53484 0.31829 0.0
C509 C 0.3906 0.51142 0.37031 0.0
H510 H 0.46028 0.55845 0.3231 0.0
C511 C 0.4022 0.49535 0.47686 0.0
H512 H 0.40502 0.54735 0.23544 0.0
C513 C 0.43401 0.50147 0.5266 0.0
C514 C 0.45576 0.5244 0.47371 0.0
H515 H 0.38675 0.4772 0.52126 0.0
H516 H 0.44177 0.48775 0.60606 0.0
C517 C 0.44426 0.5409 0.36815 0.0
C518 C 0.07161 0.40176 0.46748 0.0
C519 C 0.04983 0.39262 0.37028 0.0
H520 H 0.0872 0.43816 0.60345 0.0
C521 C 0.02448 0.41586 0.34533 0.0
H522 H 0.09156 0.38521 0.49189 0.0
C523 C 0.02182 0.4468 0.41211 0.0
C524 C 0.04401 0.4557 0.50835 0.0
H525 H 1.00746 0.41079 0.27081 0.0
H526 H 1.0027 0.46415 0.38641 0.0
C527 C 0.06911 0.43248 0.53287 0.0
C528 C 0.92103 0.99932 0.14805 0.0
C529 C 0.89324 0.02085 0.14372 0.0
H530 H 0.96775 0.98364 0.06981 0.0
C531 C 0.89317 0.04398 0.04794 0.0
H532 H 0.92248 0.98081 0.2185 0.0
C533 C 0.91984 0.04593 0.96272 0.0
C534 C 0.94767 0.02452 0.96774 0.0
H535 H 0.8729 0.06142 0.04085 0.0
H536 H 0.9187 0.06464 0.8929 0.0
C537 C 0.94743 1.00099 0.06205 0.0
C538 C 0.56628 0.931 0.11921 0.0
C539 C 0.54739 0.9015 0.10934 0.0
H540 H 0.57875 0.97842 0.04428 0.0
C541 C 0.52663 0.89801 0.00621 0.0
H542 H 0.58294 0.93468 0.19583 0.0
C543 C 0.52385 0.92357 0.91954 0.0
C544 C 0.54197 0.95353 0.93176 0.0
H545 H 0.51146 0.87604 0.9949 0.0
H546 H 0.50675 0.92006 0.84396 0.0
C547 C 0.56381 0.95634 0.03199 0.0
C548 C 0.63851 0.53093 0.08843 0.0
C549 C 0.66002 0.5556 0.04462 0.0
H550 H 0.59144 0.50593 0.0706 0.0
C551 C 0.6492 0.573 0.93982 0.0
H552 H 0.64507 0.51737 0.16969 0.0
C553 C 0.61838 0.5664 0.88259 0.0
C554 C 0.59694 0.54182 0.92652 0.0
H555 H 0.66458 0.59227 0.90195 0.0
H556 H 0.61118 0.58089 0.80434 0.0
C557 C 0.60742 0.5246 0.03181 0.0
C558 C 0.04697 0.64842 0.08888 0.0
C559 C 1.01553 0.66262 0.11434 0.0
H560 H 0.07497 0.6077 0.00665 0.0
C561 C 0.98808 0.64564 0.06144 0.0
H562 H 0.0689 0.6598 0.12794 0.0
C563 C 0.99162 0.61597 0.98955 0.0
C564 C 0.02286 0.6014 0.9663 0.0
H565 H 0.9633 0.655 0.07817 0.0
H566 H 0.96955 0.60379 0.95494 0.0
C567 C 0.05045 0.61819 0.01881 0.0
C568 C 0.91694 0.22352 0.24784 0.0
C569 C 0.94758 0.23735 0.28217 0.0
H570 H 0.8807 0.18638 0.28712 0.0
C571 C 0.95966 0.23199 0.40109 0.0
H572 H 0.90706 0.2275 0.1569 0.0
C573 C 0.94472 0.20842 0.47485 0.0
C574 C 0.91729 0.19056 0.43118 0.0
H575 H 0.98322 0.24226 0.43008 0.0
H576 H 0.95689 0.20135 0.55897 0.0
C577 C 0.90187 0.20003 0.32216 0.0
C578 C 0.33018 0.94402 0.28569 0.0
C579 C 0.32604 0.97827 0.30407 0.0
H580 H 0.35645 0.90096 0.34209 0.0
C581 C 0.33672 0.99357 0.41338 0.0
H582 H 0.32191 0.93202 0.20128 0.0
C583 C 0.35602 0.97572 0.49481 0.0
C584 C 0.36518 0.9429 0.46469 0.0
H585 H 0.3336 0.02004 0.42832 0.0
H586 H 0.36797 0.98892 0.57021 0.0
C587 C 0.34956 0.9262 0.36686 0.0
C588 C 0.43576 0.37322 0.34386 0.0
C589 C 0.44389 0.33932 0.32959 0.0
H590 H 0.45926 0.42077 0.36323 0.0
C591 C 0.46512 0.32684 0.42018 0.0
H592 H 0.41579 0.38358 0.29051 0.0
C593 C 0.49008 0.34773 0.46493 0.0
C594 C 0.49046 0.38096 0.42849 0.0
H595 H 0.46868 0.3004 0.42963 0.0
H596 H 0.51164 0.33684 0.50739 0.0
C597 C 0.4608 0.39473 0.38532 0.0
C598 C 0.21196 0.63093 0.19439 0.0
C599 C 0.2247 0.6023 0.24953 0.0
H600 H 0.17053 0.66419 0.18296 0.0
C601 C 0.21034 0.59165 0.35921 0.0
H602 H 0.22251 0.63946 0.10905 0.0
C603 C 0.18 0.60468 0.39775 0.0
C604 C 0.16445 0.6298 0.33136 0.0
H605 H 0.21944 0.56956 0.40317 0.0
H606 H 0.16726 0.59272 0.47199 0.0
C607 C 0.18186 0.64463 0.23519 0.0
C608 C 0.11323 0.83711 0.06931 0.0
C609 C 0.07865 0.83534 0.06207 0.0
H610 H 0.15684 0.86078 0.00272 0.0
C611 C 0.06214 0.84879 0.96181 0.0
H612 H 0.12617 0.82677 0.14678 0.0
C613 C 0.07968 0.86786 0.87846 0.0
C614 C 0.11358 0.87402 0.89724 0.0
H615 H 0.03539 0.84756 0.95557 0.0
H616 H 0.06607 0.88129 0.80962 0.0
C617 C 0.13076 0.85627 0.98635 0.0
C618 C 0.70835 0.0628 0.95327 0.0
C619 C 0.72279 0.07897 0.05451 0.0
H620 H 0.67494 0.06766 0.8029 0.0
C621 C 0.72252 0.11369 0.06338 0.0
H622 H 0.70854 0.03597 0.94546 0.0
C623 C 0.70317 0.13177 0.98292 0.0
C624 C 0.68391 0.11496 0.89476 0.0
H625 H 0.73377 0.12638 0.14137 0.0
H626 H 0.69936 0.15798 0.00207 0.0
C627 C 0.68942 0.08095 0.87159 0.0
C628 C 0.58207 0.72515 0.94871 0.0
C629 C 0.60464 0.729 0.04576 0.0
H630 H 0.55905 0.68968 0.83016 0.0
C631 C 0.63244 0.70799 0.04682 0.0
H632 H 0.56144 0.74214 0.93976 0.0
C633 C 0.63123 0.67803 0.97987 0.0
C634 C 0.60067 0.66862 0.92818 0.0
H635 H 0.65144 0.71134 0.11599 0.0
H636 H 0.64964 0.65939 0.99905 0.0
C637 C 0.58075 0.69466 0.88566 0.0
C638 C 0.81606 0.45462 0.05552 0.0
C639 C 0.81083 0.45126 0.18223 0.0
H640 H 0.8495 0.44473 0.90674 0.0
C641 C 0.82583 0.42452 0.24167 0.0
H642 H 0.80415 0.47436 0.00599 0.0
C643 C 0.85256 0.40817 0.18573 0.0
C644 C 0.86339 0.41803 0.06934 0.0
H645 H 0.82132 0.42071 0.33854 0.0
H646 H 0.86776 0.39225 0.2414 0.0
C647 C 0.84234 0.4378 0.99874 0.0
C648 C 1.00237 0.15858 0.99081 0.0
C649 C 1.01629 0.18942 0.95412 0.0
H650 H 0.99238 0.10688 0.95128 0.0
C651 C 0.03406 0.18799 0.84167 0.0
H652 H 0.98954 0.15681 0.07779 0.0
C653 C 0.03686 0.1578 0.77009 0.0
C654 C 0.0224 0.12742 0.80768 0.0
H655 H 0.04516 0.21037 0.807 0.0
H656 H 0.05049 0.15825 0.68435 0.0
C657 C 1.00453 0.12896 0.91857 0.0
C658 C 0.39072 0.99186 0.91412 0.0
C659 C 0.36883 0.01939 0.91204 0.0
H660 H 0.43779 0.97052 0.86779 0.0
C661 C 0.37874 0.04571 0.83551 0.0
H662 H 0.38411 0.96989 0.96419 0.0
C663 C 0.41025 0.04526 0.77345 0.0
C664 C 0.43341 1.01918 0.7899 0.0
H665 H 0.36289 0.0672 0.82732 0.0
H666 H 0.41679 0.06576 0.71549 0.0
C667 C 0.42204 0.99204 0.85727 0.0
C668 C 0.49769 0.3742 0.81871 0.0
C669 C 0.49709 0.37212 0.94813 0.0
H670 H 0.50397 0.40587 0.6619 0.0
C671 C 0.50573 0.40114 0.0159 0.0
H672 H 0.49105 0.35278 0.76257 0.0
C673 C 0.5122 0.43133 0.9587 0.0
C674 C 0.51111 0.43403 0.83048 0.0
H675 H 0.50602 0.40097 0.11522 0.0
H676 H 0.51771 0.45291 0.01583 0.0
C677 C 0.50486 0.40475 0.76077 0.0
C678 C 0.1639 0.50592 0.02655 0.0
C679 C 0.19129 0.5184 0.96096 0.0
H680 H 0.1114 0.49761 0.0337 0.0
C681 C 0.18506 0.52908 0.84054 0.0
H682 H 0.16701 0.49898 0.12143 0.0
C683 C 0.15278 0.5282 0.78951 0.0
C684 C 0.12503 0.51738 0.85741 0.0
H685 H 0.20491 0.54006 0.78805 0.0
H686 H 0.14957 0.53688 0.69723 0.0
C687 C 0.13156 0.50538 0.97594 0.0
C688 C 1.01236 0.88214 0.55464 0.0
C689 C 0.03814 0.8763 0.46807 0.0
H690 H 0.98964 0.91579 0.68884 0.0
C691 C 0.06211 0.90234 0.46204 0.0
H692 H 0.99338 0.86353 0.56622 0.0
C693 C 0.0589 0.9331 0.52723 0.0
C694 C 0.03227 0.93961 0.60767 0.0
H695 H 0.0839 0.89939 0.40488 0.0
H696 H 0.07774 0.95186 0.51518 0.0
C697 C 1.00994 0.91273 0.62438 0.0
C698 C 0.66968 1.01901 0.53403 0.0
C699 C 0.68018 0.04468 0.45552 0.0
H700 H 0.63097 1.0001 0.65377 0.0
C701 C 0.65849 0.07226 0.44878 0.0
H702 H 0.68522 0.99739 0.54471 0.0
C703 C 0.62708 0.07297 0.50557 0.0
C704 C 0.61522 0.04652 0.57568 0.0
H705 H 0.66536 0.09348 0.39491 0.0
H706 H 0.61156 0.09453 0.49227 0.0
C707 C 0.63797 0.0202 0.59464 0.0
C708 C 0.52351 0.68495 0.47269 0.0
C709 C 0.55588 0.69517 0.44122 0.0
H710 H 0.49233 0.64666 0.54801 0.0
C711 C 0.58201 0.67376 0.47477 0.0
H712 H 0.50255 0.70012 0.44771 0.0
C713 C 0.57616 0.64289 0.52982 0.0
C714 C 0.54385 0.63175 0.55554 0.0
H715 H 0.60737 0.68032 0.45357 0.0
H716 H 0.59725 0.62732 0.54994 0.0
C717 C 0.51762 0.6539 0.52949 0.0
C718 C 0.8861 0.55124 0.3957 0.0
C719 C 0.85891 0.53606 0.45434 0.0
H720 H 0.93834 0.56284 0.39808 0.0
C721 C 0.86535 0.52181 0.56947 0.0
H722 H 0.88289 0.56128 0.30499 0.0
C723 C 0.89739 0.52229 0.62274 0.0
C724 C 0.92488 0.5365 0.56247 0.0
H725 H 0.84574 0.50868 0.61602 0.0
H726 H 0.90079 0.51027 0.70985 0.0
C727 C 0.9183 0.55156 0.44866 0.0
loop_
_geom_bond_atom_site_label_1
_geom_bond_atom_site_label_2
_geom_bond_distance
_geom_bond_site_symmetry_2
_ccdc_geom_bond_type
H0 C1 0.949 . S
C1 H0 0.949 . S
C1 C2 1.395 . S
C1 C3 1.391 . S
C2 C1 1.395 . S
C2 C5 1.390 . S
C3 C1 1.391 . S
C3 C7 1.387 . S
C3 C8 1.491 . S
H4 C5 0.950 . S
C5 C2 1.390 . S
C5 H4 0.950 . S
C5 C6 1.378 . S
C6 C5 1.378 . S
C6 C7 1.409 . S
C7 C3 1.387 . S
C7 C6 1.409 . S
C7 H9 0.951 . S
C8 C3 1.491 . S
C8 C10 1.382 . S
C8 C12 1.404 . S
H9 C7 0.951 . S
C10 C8 1.382 . S
C10 C11 1.390 . S
C10 H15 0.949 . S
C11 C10 1.390 . S
C11 C16 1.399 . S
C12 C8 1.404 . S
C12 H13 0.950 . S
C12 C14 1.375 . S
H13 C12 0.950 . S
C14 C12 1.375 . S
C14 C16 1.382 . S
C14 H18 0.950 . S
H15 C10 0.949 . S
C16 C11 1.399 . S
C16 C14 1.382 . S
C16 H17 0.952 . S
H17 C16 0.952 . S
H18 C14 0.950 . S
H19 C20 0.949 . S
C20 H19 0.949 . S
C20 C21 1.395 . S
C20 C22 1.391 . S
C21 C20 1.395 . S
C21 C24 1.390 . S
C22 C20 1.391 . S
C22 C26 1.387 . S
C22 C27 1.491 . S
H23 C24 0.950 . S
C24 C21 1.390 . S
C24 H23 0.950 . S
C24 C25 1.378 . S
C25 C24 1.378 . S
C25 C26 1.409 . S
C26 C22 1.387 . S
C26 C25 1.409 . S
C26 H28 0.951 . S
C27 C22 1.491 . S
C27 C29 1.382 . S
C27 C31 1.404 . S
H28 C26 0.951 . S
C29 C27 1.382 . S
C29 C30 1.390 . S
C29 H34 0.949 . S
C30 C29 1.390 . S
C30 C35 1.399 . S
C31 C27 1.404 . S
C31 H32 0.950 . S
C31 C33 1.375 . S
H32 C31 0.950 . S
C33 C31 1.375 . S
C33 C35 1.382 . S
C33 H37 0.950 . S
H34 C29 0.949 . S
C35 C30 1.399 . S
C35 C33 1.382 . S
C35 H36 0.952 . S
H36 C35 0.952 . S
H37 C33 0.950 . S
H38 C39 0.949 . S
C39 H38 0.949 . S
C39 C40 1.395 . S
C39 C41 1.391 . S
C40 C39 1.395 . S
C40 C43 1.390 . S
C41 C39 1.391 . S
C41 C45 1.387 . S
C41 C46 1.491 . S
H42 C43 0.950 . S
C43 C40 1.390 . S
C43 H42 0.950 . S
C43 C44 1.378 . S
C44 C43 1.378 . S
C44 C45 1.409 . S
C45 C41 1.387 . S
C45 C44 1.409 . S
C45 H47 0.951 . S
C46 C41 1.491 . S
C46 C48 1.382 . S
C46 C50 1.404 . S
H47 C45 0.951 . S
C48 C46 1.382 . S
C48 C49 1.390 . S
C48 H53 0.949 . S
C49 C48 1.390 . S
C49 C54 1.399 . S
C50 C46 1.404 . S
C50 H51 0.950 . S
C50 C52 1.375 . S
H51 C50 0.950 . S
C52 C50 1.375 . S
C52 C54 1.382 . S
C52 H56 0.950 . S
H53 C48 0.949 . S
C54 C49 1.399 . S
C54 C52 1.382 . S
C54 H55 0.952 . S
H55 C54 0.952 . S
H56 C52 0.950 . S
H57 C58 0.949 . S
C58 H57 0.949 . S
C58 C59 1.395 . S
C58 C60 1.391 . S
C59 C58 1.395 . S
C59 C62 1.390 . S
C60 C58 1.391 . S
C60 C64 1.387 . S
C60 C65 1.491 . S
H61 C62 0.950 . S
C62 C59 1.390 . S
C62 H61 0.950 . S
C62 C63 1.378 . S
C63 C62 1.378 . S
C63 C64 1.409 . S
C64 C60 1.387 . S
C64 C63 1.409 . S
C64 H66 0.951 . S
C65 C60 1.491 . S
C65 C67 1.382 . S
C65 C69 1.404 . S
H66 C64 0.951 . S
C67 C65 1.382 . S
C67 C68 1.390 . S
C67 H72 0.949 . S
C68 C67 1.390 . S
C68 C73 1.399 . S
C69 C65 1.404 . S
C69 H70 0.950 . S
C69 C71 1.375 . S
H70 C69 0.950 . S
C71 C69 1.375 . S
C71 C73 1.382 . S
C71 H75 0.950 . S
H72 C67 0.949 . S
C73 C68 1.399 . S
C73 C71 1.382 . S
C73 H74 0.952 . S
H74 C73 0.952 . S
H75 C71 0.950 . S
H76 C77 0.949 . S
C77 H76 0.949 . S
C77 C78 1.395 . S
C77 C79 1.391 1_554 S
C78 C77 1.395 . S
C78 C81 1.390 1_554 S
C79 C77 1.391 1_556 S
C79 C83 1.387 . S
C79 C84 1.491 . S
H80 C81 0.950 . S
C81 C78 1.390 1_556 S
C81 H80 0.950 . S
C81 C82 1.378 . S
C82 C81 1.378 . S
C82 C83 1.409 . S
C83 C79 1.387 . S
C83 C82 1.409 . S
C83 H85 0.951 . S
C84 C79 1.491 . S
C84 C86 1.382 1_556 S
C84 C88 1.404 . S
H85 C83 0.951 . S
C86 C84 1.382 1_554 S
C86 C87 1.390 . S
C86 H91 0.949 . S
C87 C86 1.390 . S
C87 C92 1.399 1_554 S
C88 C84 1.404 . S
C88 H89 0.950 . S
C88 C90 1.375 . S
H89 C88 0.950 . S
C90 C88 1.375 . S
C90 C92 1.382 . S
C90 H94 0.950 . S
H91 C86 0.949 . S
C92 C87 1.399 1_556 S
C92 C90 1.382 . S
C92 H93 0.952 . S
H93 C92 0.952 . S
H94 C90 0.950 . S
H95 C96 0.949 . S
C96 H95 0.949 . S
C96 C97 1.395 . S
C96 C98 1.391 1_554 S
C97 C96 1.395 . S
C97 C100 1.390 1_554 S
C98 C96 1.391 1_556 S
C98 C102 1.387 . S
C98 C103 1.491 . S
H99 C100 0.950 . S
C100 C97 1.390 1_556 S
C100 H99 0.950 . S
C100 C101 1.378 . S
C101 C100 1.378 . S
C101 C102 1.409 . S
C102 C98 1.387 . S
C102 C101 1.409 . S
C102 H104 0.951 . S
C103 C98 1.491 . S
C103 C105 1.382 1_556 S
C103 C107 1.404 . S
H104 C102 0.951 . S
C105 C103 1.382 1_554 S
C105 C106 1.390 . S
C105 H110 0.949 . S
C106 C105 1.390 . S
C106 C111 1.399 1_554 S
C107 C103 1.404 . S
C107 H108 0.950 . S
C107 C109 1.375 . S
H108 C107 0.950 . S
C109 C107 1.375 . S
C109 C111 1.382 . S
C109 H113 0.950 1_455 S
H110 C105 0.949 . S
C111 C106 1.399 1_556 S
C111 C109 1.382 . S
C111 H112 0.952 . S
H112 C111 0.952 . S
H113 C109 0.950 1_655 S
H114 C115 0.949 . S
C115 H114 0.949 . S
C115 C116 1.395 . S
C115 C117 1.391 1_554 S
C116 C115 1.395 . S
C116 C119 1.390 1_554 S
C117 C115 1.391 1_556 S
C117 C121 1.387 . S
C117 C122 1.491 . S
H118 C119 0.950 . S
C119 C116 1.390 1_556 S
C119 H118 0.950 . S
C119 C120 1.378 . S
C120 C119 1.378 . S
C120 C121 1.409 . S
C121 C117 1.387 . S
C121 C120 1.409 . S
C121 H123 0.951 . S
C122 C117 1.491 . S
C122 C124 1.382 1_556 S
C122 C126 1.404 . S
H123 C121 0.951 . S
C124 C122 1.382 1_554 S
C124 C125 1.390 . S
C124 H129 0.949 . S
C125 C124 1.390 . S
C125 C130 1.399 1_554 S
C126 C122 1.404 . S
C126 H127 0.950 . S
C126 C128 1.375 . S
H127 C126 0.950 . S
C128 C126 1.375 . S
C128 C130 1.382 . S
C128 H132 0.950 1_545 S
H129 C124 0.949 . S
C130 C125 1.399 1_556 S
C130 C128 1.382 . S
C130 H131 0.952 . S
H131 C130 0.952 . S
H132 C128 0.950 1_565 S
H133 C134 0.949 . S
C134 H133 0.949 . S
C134 C135 1.395 . S
C134 C136 1.391 1_554 S
C135 C134 1.395 . S
C135 C138 1.390 1_554 S
C136 C134 1.391 1_556 S
C136 C140 1.387 . S
C136 C141 1.491 . S
H137 C138 0.950 . S
C138 C135 1.390 1_556 S
C138 H137 0.950 . S
C138 C139 1.378 . S
C139 C138 1.378 . S
C139 C140 1.409 . S
C140 C136 1.387 . S
C140 C139 1.409 . S
C140 H142 0.951 . S
C141 C136 1.491 . S
C141 C143 1.382 1_556 S
C141 C145 1.404 . S
H142 C140 0.951 . S
C143 C141 1.382 1_554 S
C143 C144 1.390 . S
C143 H148 0.949 . S
C144 C143 1.390 . S
C144 C149 1.399 1_554 S
C145 C141 1.404 . S
C145 H146 0.950 . S
C145 C147 1.375 . S
H146 C145 0.950 . S
C147 C145 1.375 . S
C147 C149 1.382 . S
C147 H151 0.950 . S
H148 C143 0.949 . S
C149 C144 1.399 1_556 S
C149 C147 1.382 . S
C149 H150 0.952 . S
H150 C149 0.952 . S
H151 C147 0.950 . S
Gd152 N183 2.661 1_545 S
Gd152 N189 2.601 . S
Gd152 O196 2.545 . S
Gd152 O197 2.606 1_655 S
Gd152 O199 2.429 . S
Gd152 O200 2.545 1_655 S
Gd152 O201 2.412 . S
Gd152 O203 2.362 1_545 S
Gd152 O204 2.324 1_655 S
Gd152 C211 2.828 . S
Gd153 N162 2.661 1_566 S
Gd153 N166 2.601 1_565 S
Gd153 O197 2.362 1_565 S
Gd153 O198 2.324 1_455 S
Gd153 O202 2.545 . S
Gd153 O203 2.606 1_455 S
Gd153 O205 2.429 . S
Gd153 O206 2.545 . S
Gd153 O207 2.412 1_556 S
Gd153 C220 2.828 . S
C154 C157 1.417 . S
C154 C159 1.431 . S
C154 C160 1.412 . S
C155 C158 1.437 . S
C155 C159 1.317 . S
C155 H174 0.929 . S
C156 C157 1.426 . S
C156 C158 1.413 . S
C156 N166 1.359 1_554 S
C157 C154 1.417 . S
C157 C156 1.426 . S
C157 N162 1.350 . S
C158 C155 1.437 . S
C158 C156 1.413 . S
C158 C168 1.391 . S
C159 C154 1.431 . S
C159 C155 1.317 . S
C159 H170 0.930 . S
C160 C154 1.412 . S
C160 C161 1.355 . S
C160 H172 0.930 . S
C161 C160 1.355 . S
C161 C163 1.402 . S
C161 H173 0.930 1_455 S
N162 Gd153 2.661 1_544 S
N162 C157 1.350 . S
N162 C163 1.307 . S
C163 C161 1.402 . S
C163 N162 1.307 . S
C163 H164 0.930 1_455 S
H164 C163 0.930 1_655 S
C165 N166 1.334 1_565 S
C165 C167 1.394 . S
C165 H169 0.930 . S
N166 Gd153 2.601 1_545 S
N166 C156 1.359 1_556 S
N166 C165 1.334 1_545 S
C167 C165 1.394 . S
C167 C168 1.359 1_566 S
C167 H179 0.930 . S
C168 C158 1.391 . S
C168 C167 1.359 1_544 S
C168 H180 0.929 . S
H169 C165 0.930 . S
H170 C159 0.930 . S
H171 C188 0.930 . S
H172 C160 0.930 . S
H173 C161 0.930 1_655 S
H174 C155 0.929 . S
H175 C193 0.930 . S
H176 C184 0.930 . S
H177 C185 0.930 . S
H178 C209 0.929 . S
H179 C167 0.930 . S
H180 C168 0.929 . S
H181 C210 0.930 . S
H182 C191 0.930 . S
N183 Gd152 2.661 1_565 S
N183 C187 1.350 . S
N183 C188 1.307 1_655 S
C184 H176 0.930 . S
C184 C185 1.355 1_655 S
C184 C186 1.412 . S
C185 H177 0.930 . S
C185 C184 1.355 1_455 S
C185 C188 1.402 . S
C186 C184 1.412 . S
C186 C187 1.417 . S
C186 C210 1.431 . S
C187 N183 1.350 . S
C187 C186 1.417 . S
C187 C190 1.425 1_565 S
C188 H171 0.930 . S
C188 N183 1.307 1_455 S
C188 C185 1.402 . S
N189 Gd152 2.601 . S
N189 C190 1.362 . S
N189 C193 1.334 . S
C190 C187 1.425 1_545 S
C190 N189 1.362 . S
C190 C194 1.412 1_545 S
C191 H182 0.930 . S
C191 C192 1.359 . S
C191 C193 1.394 . S
C192 C191 1.359 . S
C192 C194 1.391 1_545 S
C192 H195 0.929 . S
C193 H175 0.930 . S
C193 N189 1.334 . S
C193 C191 1.394 . S
C194 C190 1.412 1_565 S
C194 C192 1.391 1_565 S
C194 C209 1.437 . S
H195 C192 0.929 . S
O196 Gd152 2.545 . S
O196 C211 1.258 . S
O197 Gd152 2.606 1_455 S
O197 Gd153 2.362 1_545 S
O197 C208 1.284 . S
O198 Gd153 2.324 1_655 S
O198 C218 1.254 1_565 S
O199 Gd152 2.429 . S
O199 C218 1.268 . S
O200 Gd152 2.545 1_455 S
O200 C208 1.250 . S
O201 Gd152 2.412 . S
O201 C211 1.252 . S
O202 Gd153 2.545 . S
O202 C220 1.258 . S
O203 Gd152 2.362 1_565 S
O203 Gd153 2.606 1_655 S
O203 C219 1.284 . S
O204 Gd152 2.324 1_455 S
O204 C227 1.254 . S
O205 Gd153 2.429 . S
O205 C227 1.268 1_565 S
O206 Gd153 2.545 . S
O206 C219 1.250 1_455 S
O207 Gd153 2.412 1_554 S
O207 C220 1.252 1_554 S
C208 O197 1.284 . S
C208 O200 1.250 . S
C209 H178 0.929 . S
C209 C194 1.437 . S
C209 C210 1.317 . S
C210 H181 0.930 . S
C210 C186 1.431 . S
C210 C209 1.317 . S
C211 Gd152 2.828 . S
C211 O196 1.258 . S
C211 O201 1.252 . S
C211 C212 1.497 . S
C212 C211 1.497 . S
C212 C213 1.395 . S
C212 C214 1.380 . S
C213 C212 1.395 . S
C213 C216 1.398 . S
C213 H228 0.930 . S
C214 C212 1.380 . S
C214 C215 1.391 . S
C214 H229 0.930 1_655 S
C215 C214 1.391 . S
C215 C217 1.387 . S
C216 C213 1.398 . S
C216 C217 1.380 . S
C216 H230 0.930 . S
C217 C215 1.387 . S
C217 C216 1.380 . S
C217 H231 0.930 . S
C218 O198 1.254 1_545 S
C218 O199 1.268 . S
C219 O203 1.284 . S
C219 O206 1.250 1_655 S
C220 Gd153 2.828 . S
C220 O202 1.258 . S
C220 O207 1.252 1_556 S
C220 C221 1.497 1_556 S
C221 C220 1.497 1_554 S
C221 C222 1.395 . S
C221 C223 1.380 . S
C222 C221 1.395 . S
C222 C225 1.398 . S
C222 H232 0.930 . S
C223 C221 1.380 . S
C223 C224 1.391 . S
C223 H233 0.930 . S
C224 C223 1.391 . S
C224 C226 1.387 . S
C225 C222 1.398 . S
C225 C226 1.380 . S
C225 H234 0.930 . S
C226 C224 1.387 . S
C226 C225 1.380 . S
C226 H235 0.930 . S
C227 O204 1.254 . S
C227 O205 1.268 1_545 S
H228 C213 0.930 . S
H229 C214 0.930 1_455 S
H230 C216 0.930 . S
H231 C217 0.930 . S
H232 C222 0.930 . S
H233 C223 0.930 . S
H234 C225 0.930 . S
H235 C226 0.930 . S
Gd236 N267 2.661 . S
Gd236 N273 2.601 . S
Gd236 O280 2.545 . S
Gd236 O281 2.606 1_565 S
Gd236 O283 2.429 . S
Gd236 O284 2.545 1_565 S
Gd236 O285 2.412 . S
Gd236 O287 2.362 . S
Gd236 O288 2.324 1_565 S
Gd236 C295 2.828 . S
Gd237 N246 2.661 1_556 S
Gd237 N250 2.601 . S
Gd237 O281 2.362 . S
Gd237 O282 2.324 1_545 S
Gd237 O286 2.545 . S
Gd237 O287 2.606 1_545 S
Gd237 O289 2.429 . S
Gd237 O290 2.545 . S
Gd237 O291 2.412 1_556 S
Gd237 C304 2.828 . S
C238 C241 1.417 . S
C238 C243 1.431 . S
C238 C244 1.412 . S
C239 C242 1.437 . S
C239 C243 1.317 . S
C239 H258 0.929 . S
C240 C241 1.426 . S
C240 C242 1.413 . S
C240 N250 1.359 1_554 S
C241 C238 1.417 . S
C241 C240 1.426 . S
C241 N246 1.350 . S
C242 C239 1.437 . S
C242 C240 1.413 . S
C242 C252 1.391 . S
C243 C238 1.431 . S
C243 C239 1.317 . S
C243 H254 0.930 . S
C244 C238 1.412 . S
C244 C245 1.355 . S
C244 H256 0.930 . S
C245 C244 1.355 . S
C245 C247 1.402 . S
C245 H257 0.930 1_545 S
N246 Gd237 2.661 1_554 S
N246 C241 1.350 . S
N246 C247 1.307 . S
C247 C245 1.402 . S
C247 N246 1.307 . S
C247 H248 0.930 1_545 S
H248 C247 0.930 1_565 S
C249 N250 1.334 . S
C249 C251 1.394 . S
C249 H253 0.930 . S
N250 Gd237 2.601 . S
N250 C240 1.359 1_556 S
N250 C249 1.334 . S
C251 C249 1.394 . S
C251 C252 1.359 1_556 S
C251 H263 0.930 . S
C252 C242 1.391 . S
C252 C251 1.359 1_554 S
C252 H264 0.929 . S
H253 C249 0.930 . S
H254 C243 0.930 . S
H255 C272 0.930 . S
H256 C244 0.930 . S
H257 C245 0.930 1_565 S
H258 C239 0.929 . S
H259 C277 0.930 . S
H260 C268 0.930 . S
H261 C269 0.930 . S
H262 C293 0.929 . S
H263 C251 0.930 . S
H264 C252 0.929 . S
H265 C294 0.930 . S
H266 C275 0.930 . S
N267 Gd236 2.661 . S
N267 C271 1.350 . S
N267 C272 1.307 1_565 S
C268 H260 0.930 . S
C268 C269 1.355 1_565 S
C268 C270 1.412 . S
C269 H261 0.930 . S
C269 C268 1.355 1_545 S
C269 C272 1.402 . S
C270 C268 1.412 . S
C270 C271 1.417 . S
C270 C294 1.431 . S
C271 N267 1.350 . S
C271 C270 1.417 . S
C271 C274 1.426 . S
C272 H255 0.930 . S
C272 N267 1.307 1_545 S
C272 C269 1.402 . S
N273 Gd236 2.601 . S
N273 C274 1.359 . S
N273 C277 1.334 . S
C274 C271 1.426 . S
C274 N273 1.359 . S
C274 C278 1.413 . S
C275 H266 0.930 . S
C275 C276 1.359 . S
C275 C277 1.394 . S
C276 C275 1.359 . S
C276 C278 1.391 . S
C276 H279 0.929 . S
C277 H259 0.930 . S
C277 N273 1.334 . S
C277 C275 1.394 . S
C278 C274 1.413 . S
C278 C276 1.391 . S
C278 C293 1.437 . S
H279 C276 0.929 . S
O280 Gd236 2.545 . S
O280 C295 1.258 . S
O281 Gd236 2.606 1_545 S
O281 Gd237 2.362 . S
O281 C292 1.284 . S
O282 Gd237 2.324 1_565 S
O282 C302 1.254 . S
O283 Gd236 2.429 . S
O283 C302 1.268 . S
O284 Gd236 2.545 1_545 S
O284 C292 1.250 . S
O285 Gd236 2.412 . S
O285 C295 1.252 . S
O286 Gd237 2.545 . S
O286 C304 1.258 . S
O287 Gd236 2.362 . S
O287 Gd237 2.606 1_565 S
O287 C303 1.284 . S
O288 Gd236 2.324 1_545 S
O288 C311 1.254 . S
O289 Gd237 2.429 . S
O289 C311 1.268 . S
O290 Gd237 2.545 . S
O290 C303 1.251 1_545 S
O291 Gd237 2.412 1_554 S
O291 C304 1.252 1_554 S
C292 O281 1.284 . S
C292 O284 1.250 . S
C293 H262 0.929 . S
C293 C278 1.437 . S
C293 C294 1.317 . S
C294 H265 0.930 . S
C294 C270 1.431 . S
C294 C293 1.317 . S
C295 Gd236 2.828 . S
C295 O280 1.258 . S
C295 O285 1.252 . S
C295 C296 1.497 . S
C296 C295 1.497 . S
C296 C297 1.395 . S
C296 C298 1.380 . S
C297 C296 1.395 . S
C297 C300 1.398 . S
C297 H312 0.930 . S
C298 C296 1.380 . S
C298 C299 1.391 . S
C298 H313 0.930 1_565 S
C299 C298 1.391 . S
C299 C301 1.387 . S
C300 C297 1.398 . S
C300 C301 1.380 . S
C300 H314 0.930 . S
C301 C299 1.387 . S
C301 C300 1.380 . S
C301 H315 0.930 . S
C302 O282 1.254 . S
C302 O283 1.268 . S
C303 O287 1.284 . S
C303 O290 1.251 1_565 S
C304 Gd237 2.828 . S
C304 O286 1.258 . S
C304 O291 1.252 1_556 S
C304 C305 1.497 1_556 S
C305 C304 1.497 1_554 S
C305 C306 1.395 . S
C305 C307 1.380 . S
C306 C305 1.395 . S
C306 C309 1.398 . S
C306 H316 0.930 . S
C307 C305 1.380 . S
C307 C308 1.391 . S
C307 H317 0.930 . S
C308 C307 1.391 . S
C308 C310 1.387 . S
C309 C306 1.398 . S
C309 C310 1.380 . S
C309 H318 0.930 . S
C310 C308 1.387 . S
C310 C309 1.380 . S
C310 H319 0.930 . S
C311 O288 1.254 . S
C311 O289 1.268 . S
H312 C297 0.930 . S
H313 C298 0.930 1_545 S
H314 C300 0.930 . S
H315 C301 0.930 . S
H316 C306 0.930 . S
H317 C307 0.930 . S
H318 C309 0.930 . S
H319 C310 0.930 . S
Gd320 N351 2.661 . S
Gd320 N357 2.601 . S
Gd320 O364 2.545 1_556 S
Gd320 O365 2.606 . S
Gd320 O367 2.429 . S
Gd320 O368 2.545 . S
Gd320 O369 2.412 . S
Gd320 O371 2.362 . S
Gd320 O372 2.324 . S
Gd320 C379 2.828 1_556 S
Gd321 N330 2.661 . S
Gd321 N334 2.601 . S
Gd321 O365 2.362 . S
Gd321 O366 2.324 . S
Gd321 O370 2.545 . S
Gd321 O371 2.606 . S
Gd321 O373 2.429 . S
Gd321 O374 2.545 . S
Gd321 O375 2.412 . S
Gd321 C388 2.828 . S
C322 C325 1.417 . S
C322 C327 1.431 . S
C322 C328 1.412 . S
C323 C326 1.437 . S
C323 C327 1.317 . S
C323 H342 0.929 . S
C324 C325 1.426 . S
C324 C326 1.413 . S
C324 N334 1.359 . S
C325 C322 1.417 . S
C325 C324 1.426 . S
C325 N330 1.350 . S
C326 C323 1.437 . S
C326 C324 1.413 . S
C326 C336 1.391 . S
C327 C322 1.431 . S
C327 C323 1.317 . S
C327 H338 0.930 . S
C328 C322 1.412 . S
C328 C329 1.355 . S
C328 H340 0.930 . S
C329 C328 1.355 . S
C329 C331 1.402 . S
C329 H341 0.930 . S
N330 Gd321 2.661 . S
N330 C325 1.350 . S
N330 C331 1.307 . S
C331 C329 1.402 . S
C331 N330 1.307 . S
C331 H332 0.930 . S
H332 C331 0.930 . S
C333 N334 1.334 . S
C333 C335 1.394 . S
C333 H337 0.930 . S
N334 Gd321 2.601 . S
N334 C324 1.359 . S
N334 C333 1.334 . S
C335 C333 1.394 . S
C335 C336 1.359 . S
C335 H347 0.930 . S
C336 C326 1.391 . S
C336 C335 1.359 . S
C336 H348 0.929 . S
H337 C333 0.930 . S
H338 C327 0.930 . S
H339 C356 0.930 . S
H340 C328 0.930 . S
H341 C329 0.930 . S
H342 C323 0.929 . S
H343 C361 0.930 . S
H344 C352 0.930 . S
H345 C353 0.930 . S
H346 C377 0.929 . S
H347 C335 0.930 . S
H348 C336 0.929 . S
H349 C378 0.930 . S
H350 C359 0.930 . S
N351 Gd320 2.661 . S
N351 C355 1.350 . S
N351 C356 1.307 . S
C352 H344 0.930 . S
C352 C353 1.355 . S
C352 C354 1.412 . S
C353 H345 0.930 . S
C353 C352 1.355 . S
C353 C356 1.402 . S
C354 C352 1.412 . S
C354 C355 1.417 . S
C354 C378 1.431 . S
C355 N351 1.350 . S
C355 C354 1.417 . S
C355 C358 1.426 . S
C356 H339 0.930 . S
C356 N351 1.307 . S
C356 C353 1.402 . S
N357 Gd320 2.601 . S
N357 C358 1.359 . S
N357 C361 1.334 1_556 S
C358 C355 1.426 . S
C358 N357 1.359 . S
C358 C362 1.413 . S
C359 H350 0.930 . S
C359 C360 1.359 . S
C359 C361 1.394 . S
C360 C359 1.359 . S
C360 C362 1.391 1_554 S
C360 H363 0.929 . S
C361 H343 0.930 . S
C361 N357 1.334 1_554 S
C361 C359 1.394 . S
C362 C358 1.413 . S
C362 C360 1.391 1_556 S
C362 C377 1.437 . S
H363 C360 0.929 . S
O364 Gd320 2.545 1_554 S
O364 C379 1.258 . S
O365 Gd320 2.606 . S
O365 Gd321 2.362 . S
O365 C376 1.284 . S
O366 Gd321 2.324 . S
O366 C386 1.254 . S
O367 Gd320 2.429 . S
O367 C386 1.268 . S
O368 Gd320 2.545 . S
O368 C376 1.250 . S
O369 Gd320 2.412 . S
O369 C379 1.252 1_556 S
O370 Gd321 2.545 . S
O370 C388 1.258 . S
O371 Gd320 2.362 . S
O371 Gd321 2.606 . S
O371 C387 1.284 . S
O372 Gd320 2.324 . S
O372 C395 1.254 . S
O373 Gd321 2.429 . S
O373 C395 1.268 . S
O374 Gd321 2.545 . S
O374 C387 1.250 . S
O375 Gd321 2.412 . S
O375 C388 1.252 . S
C376 O365 1.284 . S
C376 O368 1.250 . S
C377 H346 0.929 . S
C377 C362 1.437 . S
C377 C378 1.317 . S
C378 H349 0.930 . S
C378 C354 1.431 . S
C378 C377 1.317 . S
C379 Gd320 2.828 1_554 S
C379 O364 1.258 . S
C379 O369 1.252 1_554 S
C379 C380 1.497 . S
C380 C379 1.497 . S
C380 C381 1.395 . S
C380 C382 1.380 . S
C381 C380 1.395 . S
C381 C384 1.398 . S
C381 H396 0.930 . S
C382 C380 1.380 . S
C382 C383 1.391 . S
C382 H397 0.930 . S
C383 C382 1.391 . S
C383 C385 1.387 . S
C384 C381 1.398 . S
C384 C385 1.380 . S
C384 H398 0.930 . S
C385 C383 1.387 . S
C385 C384 1.380 . S
C385 H399 0.930 . S
C386 O366 1.254 . S
C386 O367 1.268 . S
C387 O371 1.284 . S
C387 O374 1.250 . S
C388 Gd321 2.828 . S
C388 O370 1.258 . S
C388 O375 1.252 . S
C388 C389 1.497 . S
C389 C388 1.497 . S
C389 C390 1.395 . S
C389 C391 1.380 . S
C390 C389 1.395 . S
C390 C393 1.398 . S
C390 H400 0.930 . S
C391 C389 1.380 . S
C391 C392 1.391 . S
C391 H401 0.930 . S
C392 C391 1.391 . S
C392 C394 1.387 . S
C393 C390 1.398 . S
C393 C394 1.380 . S
C393 H402 0.930 1_554 S
C394 C392 1.387 . S
C394 C393 1.380 . S
C394 H403 0.930 . S
C395 O372 1.254 . S
C395 O373 1.268 . S
H396 C381 0.930 . S
H397 C382 0.930 . S
H398 C384 0.930 . S
H399 C385 0.930 . S
H400 C390 0.930 . S
H401 C391 0.930 . S
H402 C393 0.930 1_556 S
H403 C394 0.930 . S
Gd404 N435 2.661 . S
Gd404 N441 2.602 1_655 S
Gd404 O448 2.545 1_556 S
Gd404 O449 2.606 1_655 S
Gd404 O451 2.429 1_655 S
Gd404 O452 2.545 . S
Gd404 O453 2.412 . S
Gd404 O455 2.362 1_655 S
Gd404 O456 2.324 . S
Gd404 C463 2.828 1_556 S
Gd405 N414 2.661 . S
Gd405 N418 2.601 . S
Gd405 O449 2.362 . S
Gd405 O450 2.324 . S
Gd405 O454 2.545 . S
Gd405 O455 2.606 . S
Gd405 O457 2.429 1_455 S
Gd405 O458 2.545 . S
Gd405 O459 2.412 . S
Gd405 C472 2.828 . S
C406 C409 1.417 . S
C406 C411 1.431 . S
C406 C412 1.412 . S
C407 C410 1.437 . S
C407 C411 1.317 . S
C407 H426 0.929 . S
C408 C409 1.426 . S
C408 C410 1.413 . S
C408 N418 1.359 . S
C409 C406 1.417 . S
C409 C408 1.426 . S
C409 N414 1.350 . S
C410 C407 1.437 . S
C410 C408 1.413 . S
C410 C420 1.391 . S
C411 C406 1.431 . S
C411 C407 1.317 . S
C411 H422 0.930 . S
C412 C406 1.412 . S
C412 C413 1.355 . S
C412 H424 0.930 . S
C413 C412 1.355 . S
C413 C415 1.402 . S
C413 H425 0.930 . S
N414 Gd405 2.661 . S
N414 C409 1.350 . S
N414 C415 1.307 . S
C415 C413 1.402 . S
C415 N414 1.307 . S
C415 H416 0.930 . S
H416 C415 0.930 . S
C417 N418 1.334 1_655 S
C417 C419 1.394 . S
C417 H421 0.930 . S
N418 Gd405 2.601 . S
N418 C408 1.359 . S
N418 C417 1.334 1_455 S
C419 C417 1.394 . S
C419 C420 1.359 1_655 S
C419 H431 0.930 . S
C420 C410 1.391 . S
C420 C419 1.359 1_455 S
C420 H432 0.929 . S
H421 C417 0.930 . S
H422 C411 0.930 . S
H423 C440 0.930 . S
H424 C412 0.930 . S
H425 C413 0.930 . S
H426 C407 0.929 . S
H427 C445 0.930 . S
H428 C436 0.930 . S
H429 C437 0.930 . S
H430 C461 0.929 . S
H431 C419 0.930 . S
H432 C420 0.929 . S
H433 C462 0.930 . S
H434 C443 0.930 . S
N435 Gd404 2.661 . S
N435 C439 1.350 . S
N435 C440 1.307 . S
C436 H428 0.930 . S
C436 C437 1.355 . S
C436 C438 1.412 . S
C437 H429 0.930 . S
C437 C436 1.355 . S
C437 C440 1.402 . S
C438 C436 1.412 . S
C438 C439 1.417 . S
C438 C462 1.431 . S
C439 N435 1.350 . S
C439 C438 1.417 . S
C439 C442 1.426 . S
C440 H423 0.930 . S
C440 N435 1.307 . S
C440 C437 1.402 . S
N441 Gd404 2.602 1_455 S
N441 C442 1.360 1_455 S
N441 C445 1.333 1_556 S
C442 C439 1.426 . S
C442 N441 1.360 1_655 S
C442 C446 1.413 . S
C443 H434 0.930 . S
C443 C444 1.359 . S
C443 C445 1.394 . S
C444 C443 1.359 . S
C444 C446 1.391 1_454 S
C444 H447 0.929 . S
C445 H427 0.930 . S
C445 N441 1.333 1_554 S
C445 C443 1.394 . S
C446 C442 1.413 . S
C446 C444 1.391 1_656 S
C446 C461 1.437 . S
H447 C444 0.929 . S
O448 Gd404 2.545 1_554 S
O448 C463 1.258 . S
O449 Gd404 2.606 1_455 S
O449 Gd405 2.362 . S
O449 C460 1.284 1_455 S
O450 Gd405 2.324 . S
O450 C470 1.254 . S
O451 Gd404 2.429 1_455 S
O451 C470 1.268 . S
O452 Gd404 2.545 . S
O452 C460 1.250 . S
O453 Gd404 2.412 . S
O453 C463 1.252 1_556 S
O454 Gd405 2.545 . S
O454 C472 1.258 . S
O455 Gd404 2.362 1_455 S
O455 Gd405 2.606 . S
O455 C471 1.284 . S
O456 Gd404 2.324 . S
O456 C479 1.254 . S
O457 Gd405 2.429 1_655 S
O457 C479 1.268 . S
O458 Gd405 2.545 . S
O458 C471 1.250 . S
O459 Gd405 2.412 . S
O459 C472 1.252 . S
C460 O449 1.284 1_655 S
C460 O452 1.250 . S
C461 H430 0.929 . S
C461 C446 1.437 . S
C461 C462 1.317 . S
C462 H433 0.930 . S
C462 C438 1.431 . S
C462 C461 1.317 . S
C463 Gd404 2.828 1_554 S
C463 O448 1.258 . S
C463 O453 1.252 1_554 S
C463 C464 1.497 . S
C464 C463 1.497 . S
C464 C465 1.395 . S
C464 C466 1.380 . S
C465 C464 1.395 . S
C465 C468 1.398 . S
C465 H480 0.930 . S
C466 C464 1.380 . S
C466 C467 1.391 . S
C466 H481 0.930 . S
C467 C466 1.391 . S
C467 C469 1.387 . S
C468 C465 1.398 . S
C468 C469 1.380 . S
C468 H482 0.930 . S
C469 C467 1.387 . S
C469 C468 1.380 . S
C469 H483 0.930 . S
C470 O450 1.254 . S
C470 O451 1.268 . S
C471 O455 1.284 . S
C471 O458 1.250 . S
C472 Gd405 2.828 . S
C472 O454 1.258 . S
C472 O459 1.252 . S
C472 C473 1.497 . S
C473 C472 1.497 . S
C473 C474 1.395 . S
C473 C475 1.380 . S
C474 C473 1.395 . S
C474 C477 1.398 . S
C474 H484 0.930 . S
C475 C473 1.380 . S
C475 C476 1.391 . S
C475 H485 0.930 . S
C476 C475 1.391 . S
C476 C478 1.387 . S
C477 C474 1.398 . S
C477 C478 1.380 . S
C477 H486 0.930 1_554 S
C478 C476 1.387 . S
C478 C477 1.380 . S
C478 H487 0.930 . S
C479 O456 1.254 . S
C479 O457 1.268 . S
H480 C465 0.930 . S
H481 C466 0.930 . S
H482 C468 0.930 . S
H483 C469 0.930 . S
H484 C474 0.930 . S
H485 C475 0.930 . S
H486 C477 0.930 1_556 S
H487 C478 0.930 . S
C488 C489 1.387 . S
C488 H492 0.950 . S
C488 C497 1.390 . S
C489 C488 1.387 . S
C489 C491 1.387 . S
H490 C497 0.950 . S
C491 C489 1.387 . S
C491 C493 1.390 . S
C491 H495 0.950 . S
H492 C488 0.950 . S
C493 C491 1.390 . S
C493 C494 1.387 . S
C493 H496 0.950 . S
C494 C493 1.387 . S
C494 C497 1.387 . S
H495 C491 0.950 . S
H496 C493 0.950 . S
C497 C488 1.390 . S
C497 H490 0.950 . S
C497 C494 1.387 . S
C498 C499 1.387 . S
C498 H502 0.950 . S
C498 C507 1.390 . S
C499 C498 1.387 . S
C499 C501 1.387 . S
H500 C507 0.950 . S
C501 C499 1.387 . S
C501 C503 1.390 . S
C501 H505 0.950 . S
H502 C498 0.950 . S
C503 C501 1.390 . S
C503 C504 1.387 . S
C503 H506 0.950 . S
C504 C503 1.387 . S
C504 C507 1.387 . S
H505 C501 0.950 . S
H506 C503 0.950 . S
C507 C498 1.390 . S
C507 H500 0.950 . S
C507 C504 1.387 . S
C508 C509 1.387 . S
C508 H512 0.950 . S
C508 C517 1.390 . S
C509 C508 1.387 . S
C509 C511 1.387 . S
H510 C517 0.950 . S
C511 C509 1.387 . S
C511 C513 1.390 . S
C511 H515 0.950 . S
H512 C508 0.950 . S
C513 C511 1.390 . S
C513 C514 1.387 . S
C513 H516 0.950 . S
C514 C513 1.387 . S
C514 C517 1.387 . S
H515 C511 0.950 . S
H516 C513 0.950 . S
C517 C508 1.390 . S
C517 H510 0.950 . S
C517 C514 1.387 . S
C518 C519 1.387 . S
C518 H522 0.950 . S
C518 C527 1.390 . S
C519 C518 1.387 . S
C519 C521 1.387 . S
H520 C527 0.950 . S
C521 C519 1.387 . S
C521 C523 1.390 . S
C521 H525 0.950 . S
H522 C518 0.950 . S
C523 C521 1.390 . S
C523 C524 1.387 . S
C523 H526 0.950 . S
C524 C523 1.387 . S
C524 C527 1.387 . S
H525 C521 0.950 . S
H526 C523 0.950 . S
C527 C518 1.390 . S
C527 H520 0.950 . S
C527 C524 1.387 . S
C528 C529 1.387 . S
C528 H532 0.950 . S
C528 C537 1.390 1_554 S
C529 C528 1.387 . S
C529 C531 1.387 1_565 S
H530 C537 0.950 . S
C531 C529 1.387 1_545 S
C531 C533 1.390 . S
C531 H535 0.950 . S
H532 C528 0.950 . S
C533 C531 1.390 . S
C533 C534 1.387 1_544 S
C533 H536 0.950 . S
C534 C533 1.387 1_566 S
C534 C537 1.387 . S
H535 C531 0.950 . S
H536 C533 0.950 . S
C537 C528 1.390 1_556 S
C537 H530 0.950 . S
C537 C534 1.387 . S
C538 C539 1.387 . S
C538 H542 0.950 . S
C538 C547 1.390 . S
C539 C538 1.387 . S
C539 C541 1.387 . S
H540 C547 0.950 1_556 S
C541 C539 1.387 . S
C541 C543 1.390 . S
C541 H545 0.950 . S
H542 C538 0.950 . S
C543 C541 1.390 . S
C543 C544 1.387 1_554 S
C543 H546 0.950 1_554 S
C544 C543 1.387 1_556 S
C544 C547 1.387 1_556 S
H545 C541 0.950 . S
H546 C543 0.950 1_556 S
C547 C538 1.390 . S
C547 H540 0.950 1_554 S
C547 C544 1.387 1_554 S
C548 C549 1.387 . S
C548 H552 0.950 . S
C548 C557 1.390 . S
C549 C548 1.387 . S
C549 C551 1.387 . S
H550 C557 0.950 . S
C551 C549 1.387 . S
C551 C553 1.390 1_554 S
C551 H555 0.950 . S
H552 C548 0.950 . S
C553 C551 1.390 1_556 S
C553 C554 1.387 . S
C553 H556 0.950 . S
C554 C553 1.387 . S
C554 C557 1.387 1_556 S
H555 C551 0.950 . S
H556 C553 0.950 . S
C557 C548 1.390 . S
C557 H550 0.950 . S
C557 C554 1.387 1_554 S
C558 C559 1.387 . S
C558 H562 0.950 1_655 S
C558 C567 1.391 1_654 S
C559 C558 1.387 . S
C559 C561 1.387 . S
H560 C567 0.947 . S
C561 C559 1.387 . S
C561 C563 1.390 . S
C561 H565 0.950 . S
H562 C558 0.950 1_455 S
C563 C561 1.390 . S
C563 C564 1.387 1_554 S
C563 H566 0.950 . S
C564 C563 1.387 1_556 S
C564 C567 1.389 1_655 S
H565 C561 0.950 . S
H566 C563 0.950 . S
C567 C558 1.391 1_456 S
C567 H560 0.947 . S
C567 C564 1.389 1_455 S
C568 C569 1.387 . S
C568 H572 0.950 1_554 S
C568 C577 1.390 . S
C569 C568 1.387 . S
C569 C571 1.387 . S
H570 C577 0.942 1_655 S
C571 C569 1.387 . S
C571 C573 1.390 . S
C571 H575 0.950 . S
H572 C568 0.950 1_556 S
C573 C571 1.390 . S
C573 C574 1.387 . S
C573 H576 0.950 . S
C574 C573 1.387 . S
C574 C577 1.387 . S
H575 C571 0.950 . S
H576 C573 0.950 . S
C577 C568 1.390 . S
C577 H570 0.942 1_455 S
C577 C574 1.387 . S
C578 C579 1.387 . S
C578 H582 0.950 1_554 S
C578 C587 1.390 . S
C579 C578 1.387 . S
C579 C581 1.387 . S
H580 C587 0.950 1_565 S
C581 C579 1.387 . S
C581 C583 1.390 . S
C581 H585 0.950 . S
H582 C578 0.950 1_556 S
C583 C581 1.390 . S
C583 C584 1.387 . S
C583 H586 0.950 . S
C584 C583 1.387 . S
C584 C587 1.387 . S
H585 C581 0.950 . S
H586 C583 0.950 . S
C587 C578 1.390 . S
C587 H580 0.950 1_545 S
C587 C584 1.387 . S
C588 C589 1.387 . S
C588 H592 0.950 . S
C588 C597 1.390 . S
C589 C588 1.387 . S
C589 C591 1.387 . S
H590 C597 0.950 . S
C591 C589 1.387 . S
C591 C593 1.390 . S
C591 H595 0.950 1_554 S
H592 C588 0.950 . S
C593 C591 1.390 . S
C593 C594 1.387 . S
C593 H596 0.945 1_554 S
C594 C593 1.387 . S
C594 C597 1.387 . S
H595 C591 0.950 1_556 S
H596 C593 0.945 1_556 S
C597 C588 1.390 . S
C597 H590 0.950 . S
C597 C594 1.387 . S
C598 C599 1.387 . S
C598 H602 0.950 1_554 S
C598 C607 1.390 . S
C599 C598 1.387 . S
C599 C601 1.387 . S
H600 C607 0.950 . S
C601 C599 1.387 . S
C601 C603 1.390 . S
C601 H605 0.950 . S
H602 C598 0.950 1_556 S
C603 C601 1.390 . S
C603 C604 1.387 . S
C603 H606 0.950 . S
C604 C603 1.387 . S
C604 C607 1.387 . S
H605 C601 0.950 . S
H606 C603 0.950 . S
C607 C598 1.390 . S
C607 H600 0.950 . S
C607 C604 1.387 . S
C608 C609 1.387 . S
C608 H612 0.950 . S
C608 C617 1.390 1_655 S
C609 C608 1.387 . S
C609 C611 1.387 . S
H610 C617 0.950 . S
C611 C609 1.387 . S
C611 C613 1.390 . S
C611 H615 0.950 . S
H612 C608 0.950 . S
C613 C611 1.390 . S
C613 C614 1.387 1_655 S
C613 H616 0.950 . S
C614 C613 1.387 1_455 S
C614 C617 1.387 . S
H615 C611 0.950 . S
H616 C613 0.950 . S
C617 C608 1.390 1_455 S
C617 H610 0.950 . S
C617 C614 1.387 . S
C618 C619 1.387 . S
C618 H622 0.950 . S
C618 C627 1.390 . S
C619 C618 1.387 . S
C619 C621 1.387 . S
H620 C627 0.950 1_545 S
C621 C619 1.387 . S
C621 C623 1.390 1_565 S
C621 H625 0.950 . S
H622 C618 0.950 . S
C623 C621 1.390 1_545 S
C623 C624 1.387 . S
C623 H626 0.950 . S
C624 C623 1.387 . S
C624 C627 1.387 1_545 S
H625 C621 0.950 . S
H626 C623 0.950 . S
C627 C618 1.390 . S
C627 H620 0.950 1_565 S
C627 C624 1.387 1_565 S
C628 C629 1.387 . S
C628 H632 0.950 . S
C628 C637 1.390 . S
C629 C628 1.387 . S
C629 C631 1.387 . S
H630 C637 0.950 . S
C631 C629 1.387 . S
C631 C633 1.390 . S
C631 H635 0.950 . S
H632 C628 0.950 . S
C633 C631 1.390 . S
C633 C634 1.387 . S
C633 H636 0.950 . S
C634 C633 1.387 . S
C634 C637 1.387 . S
H635 C631 0.950 . S
H636 C633 0.950 . S
C637 C628 1.390 . S
C637 H630 0.950 . S
C637 C634 1.387 . S
C638 C639 1.387 . S
C638 H642 0.950 . S
C638 C647 1.390 . S
C639 C638 1.387 . S
C639 C641 1.387 . S
H640 C647 0.950 . S
C641 C639 1.387 . S
C641 C643 1.390 . S
C641 H645 0.950 . S
H642 C638 0.950 . S
C643 C641 1.390 . S
C643 C644 1.387 . S
C643 H646 0.950 . S
C644 C643 1.387 . S
C644 C647 1.387 . S
H645 C641 0.950 . S
H646 C643 0.950 . S
C647 C638 1.390 . S
C647 H640 0.950 . S
C647 C644 1.387 . S
C648 C649 1.387 . S
C648 H652 0.950 . S
C648 C657 1.390 . S
C649 C648 1.387 . S
C649 C651 1.387 . S
H650 C657 0.950 . S
C651 C649 1.387 . S
C651 C653 1.390 . S
C651 H655 0.950 . S
H652 C648 0.950 . S
C653 C651 1.390 . S
C653 C654 1.387 . S
C653 H656 0.950 . S
C654 C653 1.387 . S
C654 C657 1.387 . S
H655 C651 0.950 . S
H656 C653 0.950 . S
C657 C648 1.390 . S
C657 H650 0.950 . S
C657 C654 1.387 . S
C658 C659 1.387 . S
C658 H662 0.950 . S
C658 C667 1.390 . S
C659 C658 1.387 . S
C659 C661 1.387 . S
H660 C667 0.950 . S
C661 C659 1.387 . S
C661 C663 1.390 . S
C661 H665 0.950 . S
H662 C658 0.950 . S
C663 C661 1.390 . S
C663 C664 1.387 . S
C663 H666 0.950 . S
C664 C663 1.387 . S
C664 C667 1.387 . S
H665 C661 0.950 . S
H666 C663 0.950 . S
C667 C658 1.390 . S
C667 H660 0.950 . S
C667 C664 1.387 . S
C668 C669 1.387 . S
C668 H672 0.950 . S
C668 C677 1.390 . S
C669 C668 1.387 . S
C669 C671 1.387 . S
H670 C677 0.950 . S
C671 C669 1.387 . S
C671 C673 1.390 . S
C671 H675 0.950 . S
H672 C668 0.950 . S
C673 C671 1.390 . S
C673 C674 1.387 . S
C673 H676 0.950 . S
C674 C673 1.387 . S
C674 C677 1.387 . S
H675 C671 0.950 . S
H676 C673 0.950 . S
C677 C668 1.390 . S
C677 H670 0.950 . S
C677 C674 1.387 . S
C678 C679 1.387 . S
C678 H682 0.950 . S
C678 C687 1.390 . S
C679 C678 1.387 . S
C679 C681 1.387 . S
H680 C687 0.950 . S
C681 C679 1.387 . S
C681 C683 1.390 . S
C681 H685 0.950 . S
H682 C678 0.950 . S
C683 C681 1.390 . S
C683 C684 1.387 . S
C683 H686 0.950 . S
C684 C683 1.387 . S
C684 C687 1.387 . S
H685 C681 0.950 . S
H686 C683 0.950 . S
C687 C678 1.390 . S
C687 H680 0.950 . S
C687 C684 1.387 . S
C688 C689 1.387 . S
C688 H692 0.950 . S
C688 C697 1.390 . S
C689 C688 1.387 . S
C689 C691 1.387 . S
H690 C697 0.950 . S
C691 C689 1.387 . S
C691 C693 1.390 . S
C691 H695 0.950 . S
H692 C688 0.950 . S
C693 C691 1.390 . S
C693 C694 1.387 . S
C693 H696 0.950 . S
C694 C693 1.387 . S
C694 C697 1.387 . S
H695 C691 0.950 . S
H696 C693 0.950 . S
C697 C688 1.390 . S
C697 H690 0.950 . S
C697 C694 1.387 . S
C698 C699 1.387 . S
C698 H702 0.950 . S
C698 C707 1.390 . S
C699 C698 1.387 . S
C699 C701 1.387 . S
H700 C707 0.950 . S
C701 C699 1.387 . S
C701 C703 1.390 . S
C701 H705 0.950 . S
H702 C698 0.950 . S
C703 C701 1.390 . S
C703 C704 1.387 . S
C703 H706 0.950 . S
C704 C703 1.387 . S
C704 C707 1.387 . S
H705 C701 0.950 . S
H706 C703 0.950 . S
C707 C698 1.390 . S
C707 H700 0.950 . S
C707 C704 1.387 . S
C708 C709 1.387 . S
C708 H712 0.950 . S
C708 C717 1.390 . S
C709 C708 1.387 . S
C709 C711 1.387 . S
H710 C717 0.950 . S
C711 C709 1.387 . S
C711 C713 1.390 . S
C711 H715 0.950 . S
H712 C708 0.950 . S
C713 C711 1.390 . S
C713 C714 1.387 . S
C713 H716 0.950 . S
C714 C713 1.387 . S
C714 C717 1.387 . S
H715 C711 0.950 . S
H716 C713 0.950 . S
C717 C708 1.390 . S
C717 H710 0.950 . S
C717 C714 1.387 . S
C718 C719 1.387 . S
C718 H722 0.950 . S
C718 C727 1.390 . S
C719 C718 1.387 . S
C719 C721 1.387 . S
H720 C727 0.950 . S
C721 C719 1.387 . S
C721 C723 1.390 . S
C721 H725 0.950 . S
H722 C718 0.950 . S
C723 C721 1.390 . S
C723 C724 1.387 . S
C723 H726 0.950 . S
C724 C723 1.387 . S
C724 C727 1.387 . S
H725 C721 0.950 . S
H726 C723 0.950 . S
C727 C718 1.390 . S
C727 H720 0.950 . S
C727 C724 1.387 . S
C489 C125 2.075 . S
C494 C227 2.069 . S
C504 C311 2.079 . S
C499 C144 2.072 . S
C514 C387 1.984 . S
C509 C87 2.134 . S
C524 C471 1.972 . S
C519 C106 2.135 . S
C534 C218 2.069 1_565 S
C529 C49 2.166 . S
C539 C68 2.178 . S
C544 C302 2.082 . S
C549 C11 2.246 . S
C554 C376 1.981 . S
C559 C30 2.235 . S
C564 C460 1.972 . S
C574 C215 0.953 1_455 S
C569 C97 0.892 . S
C584 C299 0.918 1_545 S
C579 C116 0.868 . S
C594 C392 0.908 . S
C589 C135 0.857 . S
C599 C78 0.876 . S
C604 C476 0.942 . S
C609 C21 0.896 . S
C614 C224 0.950 . S
C624 C308 0.917 . S
C619 C40 0.869 . S
C634 C383 0.908 . S
C629 C59 0.853 . S
C639 C2 0.876 . S
C644 C467 0.942 . S
C649 C101 2.108 . S
C654 C208 2.187 . S
C659 C120 2.085 . S
C664 C292 2.164 . S
C674 C386 2.285 . S
C669 C139 2.016 . S
C684 C470 2.306 . S
C679 C82 2.037 . S
C689 C25 2.112 . S
C694 C219 2.184 . S
C704 C303 2.164 . S
C699 C44 2.090 . S
C714 C395 2.284 . S
C709 C63 2.021 . S
C719 C6 2.041 . S
C724 C479 2.306 . S
