# Generated by pormake.
# Topology pyr, (3,6)-cn, num edge types: 1
# Building blocks:
#     Node 0, Type 0, BuildingBlock: BELTOD_clean_linker_0, # of connection points: 3
#     Node 1, Type 0, BuildingBlock: BELTOD_clean_linker_0, # of connection points: 3
#     Node 2, Type 0, BuildingBlock: BELTOD_clean_linker_0, # of connection points: 3
#     Node 3, Type 0, BuildingBlock: BELTOD_clean_linker_0, # of connection points: 3
#     Node 4, Type 0, BuildingBlock: BELTOD_clean_linker_0, # of connection points: 3
#     Node 5, Type 0, BuildingBlock: BELTOD_clean_linker_0, # of connection points: 3
#     Node 6, Type 0, BuildingBlock: BELTOD_clean_linker_0, # of connection points: 3
#     Node 7, Type 0, BuildingBlock: BELTOD_clean_linker_0, # of connection points: 3
#     Node 8, Type 1, BuildingBlock: FUNLAD_clean_sbu_0, # of connection points: 6
#     Node 9, Type 1, BuildingBlock: FUNLAD_clean_sbu_0, # of connection points: 6
#     Node 10, Type 1, BuildingBlock: FUNLAD_clean_sbu_0, # of connection points: 6
#     Node 11, Type 1, BuildingBlock: FUNLAD_clean_sbu_0, # of connection points: 6
#     Edge 12, Type (0, 1), BuildingBlock: TEMPAE_clean_linker_10, # of connection points: 2
#     Edge 13, Type (0, 1), BuildingBlock: TEMPAE_clean_linker_10, # of connection points: 2
#     Edge 14, Type (0, 1), BuildingBlock: TEMPAE_clean_linker_10, # of connection points: 2
#     Edge 15, Type (0, 1), BuildingBlock: TEMPAE_clean_linker_10, # of connection points: 2
#     Edge 16, Type (0, 1), BuildingBlock: TEMPAE_clean_linker_10, # of connection points: 2
#     Edge 17, Type (0, 1), BuildingBlock: TEMPAE_clean_linker_10, # of connection points: 2
#     Edge 18, Type (0, 1), BuildingBlock: TEMPAE_clean_linker_10, # of connection points: 2
#     Edge 19, Type (0, 1), BuildingBlock: TEMPAE_clean_linker_10, # of connection points: 2
#     Edge 20, Type (0, 1), BuildingBlock: TEMPAE_clean_linker_10, # of connection points: 2
#     Edge 21, Type (0, 1), BuildingBlock: TEMPAE_clean_linker_10, # of connection points: 2
#     Edge 22, Type (0, 1), BuildingBlock: TEMPAE_clean_linker_10, # of connection points: 2
#     Edge 23, Type (0, 1), BuildingBlock: TEMPAE_clean_linker_10, # of connection points: 2
#     Edge 24, Type (0, 1), BuildingBlock: TEMPAE_clean_linker_10, # of connection points: 2
#     Edge 25, Type (0, 1), BuildingBlock: TEMPAE_clean_linker_10, # of connection points: 2
#     Edge 26, Type (0, 1), BuildingBlock: TEMPAE_clean_linker_10, # of connection points: 2
#     Edge 27, Type (0, 1), BuildingBlock: TEMPAE_clean_linker_10, # of connection points: 2
#     Edge 28, Type (0, 1), BuildingBlock: TEMPAE_clean_linker_10, # of connection points: 2
#     Edge 29, Type (0, 1), BuildingBlock: TEMPAE_clean_linker_10, # of connection points: 2
#     Edge 30, Type (0, 1), BuildingBlock: TEMPAE_clean_linker_10, # of connection points: 2
#     Edge 31, Type (0, 1), BuildingBlock: TEMPAE_clean_linker_10, # of connection points: 2
#     Edge 32, Type (0, 1), BuildingBlock: TEMPAE_clean_linker_10, # of connection points: 2
#     Edge 33, Type (0, 1), BuildingBlock: TEMPAE_clean_linker_10, # of connection points: 2
#     Edge 34, Type (0, 1), BuildingBlock: TEMPAE_clean_linker_10, # of connection points: 2
#     Edge 35, Type (0, 1), BuildingBlock: TEMPAE_clean_linker_10, # of connection points: 2
# Relax obj value: 0.064
# Max RMSD: 0.068
# Mean RMSD: 0.035
data_MOF--net-pry--node1-FUNLAD_clean_sbu_0--node2-BELTOD_clean_linker_0--edge1-TEMPAE_clean_linker_10
_symmetry_space_group_name_H-M    P1
_symmetry_Int_Tables_number       1
_symmetry_cell_setting            triclinic
loop_
_symmetry_equiv_pos_as_xyz
'x, y, z'
_cell_length_a     41.357142
_cell_length_b     44.22267
_cell_length_c     43.78856
_cell_angle_alpha  90.02483
_cell_angle_beta   90.315467
_cell_angle_gamma 84.811273
loop_
_atom_site_label
_atom_site_type_symbol
_atom_site_fract_x
_atom_site_fract_y
_atom_site_fract_z
_atom_type_partial_charge
P0 P 0.16949 0.1908 0.21331 0.0
H1 H 0.23518 0.203 0.1964 0.0
H2 H 0.27713 0.17567 0.16549 0.0
H3 H 0.21266 0.10621 0.14677 0.0
H4 H 0.17038 0.13423 0.17741 0.0
H5 H 0.12262 0.24161 0.22986 0.0
H6 H 0.09566 0.28386 0.20048 0.0
H7 H 0.13784 0.24535 0.11771 0.0
H8 H 0.16371 0.20252 0.14685 0.0
H9 H 0.18994 0.13302 0.24254 0.0
H10 H 0.10172 0.19256 0.23588 0.0
O11 O 0.18919 0.21069 0.23861 0.0
H12 H 0.16467 0.1021 0.27995 0.0
H13 H 0.07684 0.16281 0.27466 0.0
C14 C 0.19996 0.17025 0.18988 0.0
C15 C 0.23008 0.18181 0.18581 0.0
C16 C 0.25413 0.16607 0.16816 0.0
C17 C 0.24852 0.13845 0.15398 0.0
C18 C 0.21783 0.1274 0.15733 0.0
C19 C 0.19371 0.14326 0.17502 0.0
C20 C 0.14482 0.21848 0.19066 0.0
C21 C 0.12517 0.24162 0.20526 0.0
C22 C 0.10992 0.26589 0.18848 0.0
C23 C 0.11473 0.26792 0.15682 0.0
C24 C 0.13381 0.2444 0.1421 0.0
C25 C 0.14851 0.2198 0.15882 0.0
C26 C 0.1477 0.16497 0.23584 0.0
C27 C 0.16488 0.1392 0.24867 0.0
C28 C 0.15051 0.12174 0.27057 0.0
C29 C 0.11873 0.13003 0.28083 0.0
C30 C 0.10119 0.1554 0.26722 0.0
C31 C 0.11554 0.17266 0.245 0.0
P32 P 0.37922 0.88023 0.65942 0.0
H33 H 0.43904 0.89737 0.68738 0.0
H34 H 0.45277 0.91295 0.73889 0.0
H35 H 0.3585 0.89172 0.77019 0.0
H36 H 0.3447 0.87678 0.71811 0.0
H37 H 0.38445 0.85591 0.59798 0.0
H38 H 0.39967 0.80533 0.57716 0.0
H39 H 0.4173 0.77068 0.66841 0.0
H40 H 0.40094 0.82146 0.68938 0.0
H41 H 0.3368 0.93325 0.6782 0.0
H42 H 0.32755 0.85226 0.62502 0.0
O43 O 0.39897 0.90394 0.63832 0.0
H44 H 0.28158 0.95264 0.66304 0.0
H45 H 0.2732 0.87212 0.60902 0.0
C46 C 0.39065 0.88642 0.69875 0.0
C47 C 0.42141 0.89576 0.70537 0.0
C48 C 0.4293 0.90456 0.73499 0.0
C49 C 0.40665 0.90396 0.75883 0.0
C50 C 0.37633 0.8931 0.75235 0.0
C51 C 0.36846 0.8843 0.7226 0.0
C52 C 0.39137 0.84247 0.64523 0.0
C53 C 0.39146 0.83744 0.61359 0.0
C54 C 0.40007 0.80853 0.60169 0.0
C55 C 0.40956 0.78408 0.62116 0.0
C56 C 0.41012 0.78918 0.6529 0.0
C57 C 0.40075 0.81814 0.66488 0.0
C58 C 0.33651 0.89123 0.65291 0.0
C59 C 0.32279 0.91938 0.66375 0.0
C60 C 0.2913 0.9305 0.65502 0.0
C61 C 0.27331 0.91396 0.63466 0.0
C62 C 0.28671 0.88543 0.62451 0.0
C63 C 0.31791 0.87407 0.63371 0.0
P64 P 0.68988 0.39455 0.8889 0.0
H65 H 0.73238 0.37395 0.93843 0.0
H66 H 0.76302 0.40085 0.97542 0.0
H67 H 0.71165 0.48586 0.94695 0.0
H68 H 0.68219 0.45863 0.90878 0.0
H69 H 0.68121 0.33666 0.86039 0.0
H70 H 0.64842 0.29541 0.87368 0.0
H71 H 0.6174 0.343 0.95618 0.0
H72 H 0.65015 0.38444 0.9425 0.0
H73 H 0.69368 0.41525 0.82596 0.0
H74 H 0.62461 0.42374 0.8996 0.0
O75 O 0.72178 0.38126 0.86812 0.0
H76 H 0.65274 0.43805 0.79096 0.0
H77 H 0.58327 0.44729 0.86457 0.0
C78 C 0.70526 0.4143 0.92082 0.0
C79 C 0.72719 0.3983 0.94067 0.0
C80 C 0.74451 0.41379 0.96207 0.0
C81 C 0.74004 0.44567 0.96412 0.0
C82 C 0.71611 0.46138 0.94564 0.0
C83 C 0.69906 0.44582 0.92392 0.0
C84 C 0.66874 0.36307 0.90091 0.0
C85 C 0.6678 0.33795 0.88159 0.0
C86 C 0.649 0.31448 0.88916 0.0
C87 C 0.6305 0.31597 0.91602 0.0
C88 C 0.6313 0.34136 0.93525 0.0
C89 C 0.65026 0.36482 0.92768 0.0
C90 C 0.66205 0.41763 0.86526 0.0
C91 C 0.66989 0.42272 0.83478 0.0
C92 C 0.64642 0.43596 0.81479 0.0
C93 C 0.61467 0.44438 0.82498 0.0
C94 C 0.6074 0.4407 0.85601 0.0
C95 C 0.63101 0.42744 0.87603 0.0
P96 P 0.85302 0.65058 0.45938 0.0
H97 H 0.85118 0.69849 0.50459 0.0
H98 H 0.89474 0.72257 0.52925 0.0
H99 H 0.96357 0.64897 0.49987 0.0
H100 H 0.91929 0.62492 0.47499 0.0
H101 H 0.84182 0.59916 0.41828 0.0
H102 H 0.86686 0.58271 0.36975 0.0
H103 H 0.93185 0.65354 0.37691 0.0
H104 H 0.90694 0.66983 0.42519 0.0
H105 H 0.78899 0.66568 0.48407 0.0
H106 H 0.8556 0.58538 0.47492 0.0
O107 O 0.8323 0.68266 0.44762 0.0
H108 H 0.74829 0.63555 0.50484 0.0
H109 H 0.81446 0.55454 0.49625 0.0
C110 C 0.88239 0.66079 0.48689 0.0
C111 C 0.87543 0.68697 0.50437 0.0
C112 C 0.90049 0.70057 0.51877 0.0
C113 C 0.93287 0.68806 0.51587 0.0
C114 C 0.93897 0.65945 0.50194 0.0
C115 C 0.91372 0.64575 0.48767 0.0
C116 C 0.87327 0.63507 0.4259 0.0
C117 C 0.86204 0.61059 0.40989 0.0
C118 C 0.87627 0.60127 0.38211 0.0
C119 C 0.90132 0.61684 0.3697 0.0
C120 C 0.91253 0.64121 0.38593 0.0
C121 C 0.89851 0.65032 0.41365 0.0
C122 C 0.82482 0.62756 0.47698 0.0
C123 C 0.79493 0.64147 0.48668 0.0
C124 C 0.77177 0.6242 0.49902 0.0
C125 C 0.77813 0.5926 0.50223 0.0
C126 C 0.8088 0.57881 0.49379 0.0
C127 C 0.8322 0.59632 0.48155 0.0
P128 P 0.88144 0.8786 0.87583 0.0
H129 H 0.85279 0.93467 0.90368 0.0
H130 H 0.79826 0.95114 0.92143 0.0
H131 H 0.76392 0.86823 0.88685 0.0
H132 H 0.81882 0.85205 0.86861 0.0
H133 H 0.92945 0.83081 0.85294 0.0
H134 H 0.94801 0.78019 0.87247 0.0
H135 H 0.87453 0.78984 0.94232 0.0
H136 H 0.85643 0.84024 0.92303 0.0
H137 H 0.843 0.88214 0.81841 0.0
H138 H 0.94062 0.89527 0.84699 0.0
O139 O 0.90549 0.8976 0.8981 0.0
H140 H 0.85527 0.89904 0.76677 0.0
H141 H 0.95279 0.91301 0.79608 0.0
C142 C 0.84006 0.8918 0.88543 0.0
C143 C 0.83357 0.92003 0.89976 0.0
C144 C 0.80234 0.92937 0.91009 0.0
C145 C 0.77679 0.91076 0.90614 0.0
C146 C 0.78302 0.88311 0.89033 0.0
C147 C 0.8144 0.87377 0.87998 0.0
C148 C 0.89077 0.83904 0.88578 0.0
C149 C 0.9168 0.82173 0.87195 0.0
C150 C 0.92763 0.7929 0.88336 0.0
C151 C 0.91268 0.78088 0.90892 0.0
C152 C 0.88622 0.79811 0.9223 0.0
C153 C 0.87569 0.82698 0.9111 0.0
C154 C 0.89076 0.88777 0.83672 0.0
C155 C 0.8671 0.88855 0.81359 0.0
C156 C 0.87411 0.89848 0.78408 0.0
C157 C 0.90501 0.90771 0.7771 0.0
C158 C 0.92886 0.90584 0.80027 0.0
C159 C 0.92185 0.89586 0.82961 0.0
P160 P 0.65871 0.18858 0.3287 0.0
H161 H 0.67913 0.22622 0.37835 0.0
H162 H 0.6519 0.26772 0.40762 0.0
H163 H 0.56214 0.25556 0.36003 0.0
H164 H 0.58931 0.21275 0.33208 0.0
H165 H 0.72016 0.15656 0.31059 0.0
H166 H 0.76338 0.12717 0.33864 0.0
H167 H 0.70757 0.13945 0.42165 0.0
H168 H 0.66374 0.1676 0.39293 0.0
H169 H 0.61332 0.20413 0.27867 0.0
H170 H 0.65215 0.12255 0.32479 0.0
O171 O 0.67892 0.2093 0.30478 0.0
H172 H 0.5877 0.17349 0.24055 0.0
H173 H 0.62699 0.09181 0.28644 0.0
C174 C 0.63626 0.21585 0.35334 0.0
C175 C 0.65336 0.2319 0.37477 0.0
C176 C 0.63779 0.25608 0.3912 0.0
C177 C 0.60477 0.26547 0.38607 0.0
C178 C 0.58747 0.2489 0.36495 0.0
C179 C 0.60307 0.22438 0.34875 0.0
C180 C 0.68913 0.16501 0.34981 0.0
C181 C 0.71718 0.15282 0.33482 0.0
C182 C 0.74202 0.13616 0.35099 0.0
C183 C 0.73943 0.13137 0.38265 0.0
C184 C 0.71053 0.14257 0.39734 0.0
C185 C 0.6855 0.15898 0.38099 0.0
C186 C 0.63451 0.16578 0.3048 0.0
C187 C 0.61569 0.17965 0.28105 0.0
C188 C 0.60111 0.16208 0.25918 0.0
C189 C 0.60545 0.13017 0.26032 0.0
C190 C 0.62345 0.11632 0.28474 0.0
C191 C 0.6377 0.13395 0.30683 0.0
P192 P 0.43039 0.5646 0.04676 0.0
H193 H 0.38817 0.52437 0.01532 0.0
H194 H 0.32932 0.52117 0.01626 0.0
H195 H 0.31928 0.59518 0.08093 0.0
H196 H 0.37795 0.59831 0.07983 0.0
H197 H 0.49076 0.59309 0.04211 0.0
H198 H 0.50117 0.64611 0.03494 0.0
H199 H 0.40071 0.66787 0.00931 0.0
H200 H 0.39038 0.61506 0.01694 0.0
H201 H 0.44977 0.51409 0.08809 0.0
H202 H 0.43901 0.61201 0.09206 0.0
O203 O 0.44941 0.53618 0.02689 0.0
H204 H 0.46555 0.51234 0.14231 0.0
H205 H 0.45549 0.61031 0.1455 0.0
C206 C 0.38735 0.56151 0.04756 0.0
C207 C 0.37331 0.5398 0.02977 0.0
C208 C 0.33974 0.53792 0.03042 0.0
C209 C 0.31977 0.55795 0.04867 0.0
C210 C 0.33403 0.57964 0.06647 0.0
C211 C 0.36755 0.58131 0.066 0.0
C212 C 0.43965 0.60033 0.03094 0.0
C213 C 0.47122 0.60912 0.03406 0.0
C214 C 0.47713 0.63945 0.02996 0.0
C215 C 0.45153 0.66128 0.02234 0.0
C216 C 0.42068 0.65167 0.01606 0.0
C217 C 0.41479 0.6214 0.02032 0.0
C218 C 0.44426 0.56313 0.08577 0.0
C219 C 0.45138 0.53514 0.10041 0.0
C220 C 0.46023 0.53417 0.1313 0.0
C221 C 0.46216 0.56123 0.14781 0.0
C222 C 0.45488 0.58917 0.13307 0.0
C223 C 0.44557 0.5901 0.10245 0.0
P224 P 0.1508 0.41893 0.59347 0.0
H225 H 0.15939 0.37029 0.549 0.0
H226 H 0.12546 0.32997 0.53509 0.0
H227 H 0.04703 0.37328 0.58877 0.0
H228 H 0.08065 0.41399 0.60179 0.0
H229 H 0.17835 0.47543 0.60636 0.0
H230 H 0.20959 0.50608 0.57388 0.0
H231 H 0.17581 0.46009 0.49426 0.0
H232 H 0.14509 0.42884 0.52727 0.0
H233 H 0.16456 0.39413 0.6539 0.0
H234 H 0.10502 0.46929 0.61432 0.0
O235 O 0.18609 0.39797 0.59829 0.0
H236 H 0.14241 0.40684 0.70402 0.0
H237 H 0.08134 0.4815 0.66457 0.0
C238 C 0.12287 0.39462 0.57708 0.0
C239 C 0.13463 0.3715 0.55715 0.0
C240 C 0.11528 0.34844 0.54934 0.0
C241 C 0.08392 0.34814 0.56151 0.0
C242 C 0.07114 0.37288 0.57915 0.0
C243 C 0.0905 0.39607 0.58681 0.0
C244 C 0.15949 0.44981 0.56929 0.0
C245 C 0.17633 0.47294 0.58183 0.0
C246 C 0.19421 0.49059 0.56307 0.0
C247 C 0.19573 0.48514 0.53142 0.0
C248 C 0.17558 0.46445 0.51861 0.0
C249 C 0.15781 0.44667 0.53748 0.0
C250 C 0.13677 0.43108 0.63058 0.0
C251 C 0.14687 0.41359 0.65607 0.0
C252 C 0.13378 0.42063 0.68469 0.0
C253 C 0.10975 0.44494 0.68826 0.0
C254 C 0.09999 0.46278 0.66264 0.0
C255 C 0.11347 0.45587 0.63396 0.0
C256 C 0.02463 0.0348 0.46769 0.0
N257 N 1.00116 0.08237 0.54779 0.0
C258 C 0.02913 0.09492 0.54124 0.0
C259 C 0.03084 0.12598 0.54436 0.0
C260 C 0.0036 0.14428 0.55452 0.0
C261 C 0.97573 0.13067 0.56318 0.0
C262 C 0.97494 0.09933 0.55939 0.0
Zn263 Zn 0.99821 0.03929 0.5327 0.0
C264 C 0.93605 0.03531 0.4971 0.0
N265 N 0.99305 0.95154 0.49555 0.0
C266 C 0.0206 0.93548 0.48556 0.0
C267 C 0.96546 0.93789 0.50073 0.0
C268 C 0.96551 0.90653 0.49797 0.0
C269 C 0.99427 0.88908 0.48987 0.0
C270 C 0.02178 0.90397 0.48264 0.0
Zn271 Zn 0.99521 0.9946 0.51087 0.0
O272 O 0.0185 0.05222 0.4904 0.0
C273 C 0.05727 0.99853 0.54652 0.0
O274 O 0.01817 1.00728 0.46956 0.0
H275 H 0.94398 0.95107 0.50901 0.0
H276 H 0.04961 0.08111 0.5319 0.0
H277 H 0.04228 0.94686 0.48167 0.0
O278 O 0.0456 0.02581 0.55053 0.0
O279 O 0.04111 0.9808 0.53102 0.0
H280 H 0.95289 0.08884 0.56421 0.0
O281 O 0.97239 0.98229 0.55247 0.0
O282 O 0.97782 0.02594 0.57476 0.0
O283 O 0.9491 0.00886 0.49096 0.0
O284 O 0.95095 0.05232 0.5147 0.0
C285 C 0.96879 0.9992 0.57595 0.0
H286 H 0.05289 0.1358 0.53792 0.0
H287 H 0.95437 0.14428 0.57121 0.0
H288 H 0.94385 0.89592 0.50408 0.0
H289 H 0.04428 0.89131 0.47599 0.0
C290 C 0.55836 0.98634 0.99489 0.0
N291 N 0.50994 0.07313 0.9896 0.0
C292 C 0.53964 0.08247 0.9961 0.0
C293 C 0.54684 0.11154 0.98832 0.0
C294 C 0.5233 0.13132 0.97366 0.0
C295 C 0.49309 0.12096 0.96635 0.0
C296 C 0.4868 0.09154 0.97476 0.0
Zn297 Zn 0.50132 0.03158 1.0057 0.0
C298 C 0.47074 0.99307 0.96171 0.0
N299 N 0.4868 0.94553 0.04333 0.0
C300 C 0.51178 0.92601 0.0537 0.0
C301 C 0.4571 0.93592 0.03732 0.0
C302 C 0.4523 0.90525 0.03939 0.0
C303 C 0.47838 0.88421 0.04745 0.0
C304 C 0.50806 0.89499 0.05596 0.0
Zn305 Zn 0.49494 0.9876 0.02795 0.0
O306 O 0.54729 0.01348 0.98923 0.0
C307 C 0.5257 0.02607 0.07186 0.0
O308 O 0.54157 0.96987 0.01115 0.0
H309 H 0.43766 0.95171 0.02881 0.0
H310 H 0.55771 0.06751 1.00786 0.0
H311 H 0.53523 0.93414 0.0582 0.0
O312 O 0.52254 0.04298 0.04836 0.0
O313 O 0.51616 0.99952 0.07054 0.0
H314 H 0.46332 0.08361 0.96995 0.0
O315 O 0.44871 1.00608 0.04453 0.0
O316 O 0.45524 0.04946 0.02227 0.0
O317 O 0.47376 0.97608 0.98516 0.0
O318 O 0.48016 0.01963 0.96329 0.0
C319 C 0.43819 0.03341 0.03873 0.0
H320 H 0.57066 0.11848 0.99376 0.0
H321 H 0.47439 0.13564 0.95498 0.0
H322 H 0.42885 0.89789 0.0332 0.0
H323 H 0.52879 0.87947 0.06224 0.0
C324 C 0.50822 0.46133 0.48346 0.0
N325 N 0.49266 0.49692 0.57174 0.0
C326 C 0.48122 0.47052 0.58102 0.0
C327 C 0.48279 0.46231 0.6119 0.0
C328 C 0.49555 0.48187 0.63315 0.0
C329 C 0.50671 0.50904 0.62295 0.0
C330 C 0.50535 0.516 0.59202 0.0
Zn331 Zn 0.49151 0.51029 0.52726 0.0
C332 C 0.55577 0.52914 0.50794 0.0
N333 N 0.48911 0.5435 0.43627 0.0
C334 C 0.47521 0.525 0.4162 0.0
C335 C 0.50314 0.56848 0.4266 0.0
C336 C 0.50407 0.57524 0.39541 0.0
C337 C 0.49091 0.55573 0.37441 0.0
C338 C 0.47609 0.53059 0.38501 0.0
Zn339 Zn 0.49029 0.53017 0.48076 0.0
O340 O 0.50521 0.46508 0.51213 0.0
C341 C 0.42591 0.51176 0.50014 0.0
O342 O 0.50295 0.48423 0.46599 0.0
H343 H 0.51413 0.58278 0.443 0.0
H344 H 0.4712 0.45574 0.56447 0.0
H345 H 0.46397 0.50541 0.42433 0.0
O346 O 0.44196 0.503 0.52386 0.0
O347 O 0.44031 0.5238 0.47835 0.0
H348 H 0.51486 0.53659 0.5842 0.0
O349 O 0.47817 0.57577 0.49616 0.0
O350 O 0.47756 0.55575 0.54187 0.0
O351 O 0.53994 0.53675 0.48379 0.0
O352 O 0.54137 0.5177 0.5301 0.0
C353 C 0.47381 0.57901 0.52476 0.0
H354 H 0.47434 0.44096 0.61908 0.0
H355 H 0.51749 0.52427 0.63864 0.0
H356 H 0.51562 0.59488 0.38772 0.0
H357 H 0.46549 0.51531 0.36925 0.0
C358 C 0.99697 0.582 0.00923 0.0
N359 N 0.99978 0.54764 0.09907 0.0
C360 C 0.00985 0.57355 0.1112 0.0
C361 C 1.00113 0.58218 0.14099 0.0
C362 C 0.98162 0.56409 0.15804 0.0
C363 C 0.97193 0.5374 0.14503 0.0
C364 C 0.98146 0.52949 0.11547 0.0
Zn365 Zn 0.01099 0.53407 0.05569 0.0
C366 C 0.95313 0.50977 0.02556 0.0
N367 N 0.03153 0.5014 0.96603 0.0
C368 C 0.0502 0.51891 0.94924 0.0
C369 C 0.01914 0.47658 0.95377 0.0
C370 C 0.02518 0.46878 0.92327 0.0
C371 C 0.04454 0.48645 0.90565 0.0
C372 C 0.05728 0.51164 0.91895 0.0
Zn373 Zn 0.021 0.51501 0.00953 0.0
O374 O 0.99682 0.5786 0.03811 0.0
C375 C 0.07909 0.53907 0.03938 0.0
O376 O 0.00611 0.55931 0.99256 0.0
H377 H 0.00432 0.46303 0.96754 0.0
H378 H 0.02443 0.58759 0.09772 0.0
H379 H 0.05931 0.53886 0.95919 0.0
O380 O 0.05958 0.54517 0.06132 0.0
O381 O 0.06895 0.52677 0.01539 0.0
H382 H 0.97403 0.5088 0.10557 0.0
O383 O 0.03535 0.4707 0.02677 0.0
O384 O 0.02556 0.48932 0.07256 0.0
O385 O 0.97336 0.50329 1.00436 0.0
O386 O 0.96229 0.52289 0.04948 0.0
C387 C 0.03479 0.46688 0.05555 0.0
H388 H 0.00895 0.60301 0.15037 0.0
H389 H 0.95725 0.52268 0.15767 0.0
H390 H 0.01509 0.4491 0.91362 0.0
H391 H 0.07204 0.52592 0.90585 0.0
C392 C 0.12464 0.10283 0.33145 0.0
C393 C 0.10479 0.11342 0.30681 0.0
C394 C 0.11188 0.08835 0.35669 0.0
C395 C 0.07826 0.0846 0.35774 0.0
C396 C 0.0581 0.09484 0.33287 0.0
C397 C 0.07159 0.10897 0.30771 0.0
C398 C 0.13432 0.07775 0.38262 0.0
C399 C 0.02211 0.09146 0.33312 0.0
C400 C 0.04848 0.02805 0.41491 0.0
C401 C 0.03839 0.0471 0.43937 0.0
C402 C 0.0614 0.03988 0.38816 0.0
C403 C 0.06402 0.07154 0.38564 0.0
C404 C 0.05362 0.09085 0.41017 0.0
C405 C 0.04112 0.07843 0.43667 0.0
C406 C 0.0725 0.01847 0.36269 0.0
C407 C 0.05573 0.12473 0.40847 0.0
H408 H 0.15016 0.10657 0.3315 0.0
H409 H 0.05602 0.11659 0.28873 0.0
H410 H 0.12755 0.09094 0.40354 0.0
H411 H 0.13182 0.05351 0.38779 0.0
H412 H 0.16016 0.08041 0.37742 0.0
H413 H 0.00993 0.09955 0.31158 0.0
H414 H 0.01776 0.06733 0.33666 0.0
H415 H 0.01064 0.10458 0.35244 0.0
H416 H 0.04651 1.00385 0.41674 0.0
H417 H 0.03329 0.09344 0.45531 0.0
H418 H 0.09872 0.01992 0.35833 0.0
H419 H 0.05928 0.02516 0.34128 0.0
H420 H 0.06858 0.99452 0.368 0.0
H421 H 0.08138 0.1296 0.4056 0.0
H422 H 0.04595 0.13672 0.42922 0.0
H423 H 0.04203 0.13422 0.38827 0.0
C424 C 0.39062 0.93355 0.80653 0.0
C425 C 0.4143 0.91584 0.78984 0.0
C426 C 0.39801 0.94635 0.8349 0.0
C427 C 0.42992 0.94154 0.84695 0.0
C428 C 0.45381 0.92335 0.83047 0.0
C429 C 0.44571 0.91068 0.80227 0.0
C430 C 0.37176 0.96543 0.85177 0.0
C431 C 0.48811 0.91752 0.84248 0.0
C432 C 0.45979 0.9972 0.90516 0.0
C433 C 0.45812 0.98106 0.93261 0.0
C434 C 0.45024 0.98483 0.87722 0.0
C435 C 0.43851 0.95568 0.87666 0.0
C436 C 0.43597 0.93964 0.9044 0.0
C437 C 0.44586 0.95244 0.93195 0.0
C438 C 0.45347 1.00266 0.84818 0.0
C439 C 0.42337 0.90864 0.90495 0.0
H440 H 0.36641 0.9381 0.79707 0.0
H441 H 0.4641 0.89668 0.78991 0.0
H442 H 0.36908 0.95634 0.87514 0.0
H443 H 0.37864 0.98899 0.85419 0.0
H444 H 0.34789 0.96615 0.8399 0.0
H445 H 0.50382 0.90276 0.82702 0.0
H446 H 0.499 0.93937 0.84542 0.0
H447 H 0.48799 0.90656 0.86526 0.0
H448 H 0.4693 0.01925 0.90536 0.0
H449 H 0.44434 0.93976 0.95299 0.0
H450 H 0.42979 1.00566 0.83603 0.0
H451 H 0.47096 0.98993 0.8327 0.0
H452 H 0.46196 0.02541 0.85255 0.0
H453 H 0.39901 0.90962 0.89407 0.0
H454 H 0.42161 0.89967 0.92853 0.0
H455 H 0.43968 0.8924 0.89158 0.0
C456 C 0.59584 0.4731 0.77816 0.0
C457 C 0.58894 0.45419 0.80247 0.0
C458 C 0.57439 0.47775 0.75344 0.0
C459 C 0.54502 0.46358 0.75333 0.0
C460 C 0.5366 0.44659 0.77898 0.0
C461 C 0.55883 0.44186 0.80322 0.0
C462 C 0.58422 0.49623 0.72656 0.0
C463 C 0.50511 0.43184 0.78004 0.0
C464 C 0.4909 0.49376 0.68864 0.0
C465 C 0.50071 0.47317 0.66543 0.0
C466 C 0.50265 0.48936 0.71854 0.0
C467 C 0.52524 0.46419 0.72495 0.0
C468 C 0.53292 0.44198 0.70215 0.0
C469 C 0.5203 0.44666 0.6726 0.0
C470 C 0.49304 0.51297 0.7425 0.0
C471 C 0.55698 0.41483 0.70807 0.0
H472 H 0.61874 0.48323 0.77784 0.0
H473 H 0.55335 0.42711 0.82189 0.0
H474 H 0.58777 0.48138 0.70619 0.0
H475 H 0.56477 0.51432 0.72094 0.0
H476 H 0.60707 0.50697 0.73096 0.0
H477 H 0.49925 0.42491 0.80361 0.0
H478 H 0.48471 0.44742 0.77109 0.0
H479 H 0.50705 0.41129 0.7654 0.0
H480 H 0.47548 0.51416 0.68301 0.0
H481 H 0.52796 0.43086 0.65454 0.0
H482 H 0.51283 0.52808 0.74544 0.0
H483 H 0.4892 0.50215 0.76489 0.0
H484 H 0.47055 0.5272 0.73594 0.0
H485 H 0.58165 0.42251 0.71076 0.0
H486 H 0.55751 0.39806 0.68913 0.0
H487 H 0.5511 0.40332 0.72957 0.0
C488 C 0.92425 0.57882 0.33141 0.0
C489 C 0.91453 0.60901 0.33911 0.0
C490 C 0.93667 0.57138 0.30233 0.0
C491 C 0.93888 0.59467 0.28044 0.0
C492 C 0.92914 0.62518 0.28817 0.0
C493 C 0.9172 0.63199 0.31747 0.0
C494 C 0.94717 0.53862 0.29493 0.0
C495 C 0.93068 0.65056 0.26529 0.0
C496 C 0.99324 0.58052 0.21134 0.0
C497 C 0.97082 0.57292 0.18916 0.0
C498 C 0.98326 0.58738 0.24133 0.0
C499 C 0.95007 0.58705 0.24901 0.0
C500 C 0.92731 0.57986 0.2265 0.0
C501 C 0.93801 0.57271 0.19687 0.0
C502 C 0.00822 0.59466 0.26486 0.0
C503 C 0.89164 0.57976 0.23371 0.0
H504 H 0.92241 0.5611 0.34825 0.0
H505 H 0.90929 0.65532 0.32331 0.0
H506 H 0.93191 0.53071 0.27615 0.0
H507 H 0.97266 0.53643 0.28686 0.0
H508 H 0.94527 0.52345 0.31494 0.0
H509 H 0.92288 0.67317 0.27519 0.0
H510 H 0.95579 0.65093 0.25661 0.0
H511 H 0.91486 0.64666 0.24539 0.0
H512 H 0.01866 0.58039 0.20537 0.0
H513 H 0.92065 0.56711 0.17958 0.0
H514 H 0.00822 0.57842 0.28418 0.0
H515 H 1.00195 0.61771 0.27431 0.0
H516 H 0.03311 0.59364 0.25526 0.0
H517 H 0.88819 0.56308 0.25205 0.0
H518 H 0.87708 0.57399 0.21348 0.0
H519 H 0.88201 0.60241 0.24226 0.0
C520 C 0.2681 0.10746 0.10821 0.0
C521 C 0.27483 0.12129 0.13613 0.0
C522 C 0.29301 0.092 0.09093 0.0
C523 C 0.32546 0.09027 0.1018 0.0
C524 C 0.33232 0.10383 0.13013 0.0
C525 C 0.30699 0.11908 0.14691 0.0
C526 C 0.28469 0.07786 0.06084 0.0
C527 C 0.36653 0.10244 0.14265 0.0
C528 C 0.38983 0.0302 0.0727 0.0
C529 C 0.40755 0.04709 0.05266 0.0
C530 C 0.36245 0.04369 0.08811 0.0
C531 C 0.35249 0.07485 0.08343 0.0
C532 C 0.36962 0.09176 0.06247 0.0
C533 C 0.39689 0.0777 0.04737 0.0
C534 C 0.34483 0.02483 0.11018 0.0
C535 C 0.35981 0.125 0.05675 0.0
H536 H 0.24341 0.10927 0.09953 0.0
H537 H 0.3124 0.12918 0.1687 0.0
H538 H 0.29732 0.08865 0.04201 0.0
H539 H 0.29326 0.05335 0.06078 0.0
H540 H 0.25818 0.08033 0.05604 0.0
H541 H 0.36776 0.11379 0.16522 0.0
H542 H 0.3766 0.07845 0.1451 0.0
H543 H 0.38234 0.1135 0.12649 0.0
H544 H 0.39778 1.00653 0.07693 0.0
H545 H 0.41031 0.09098 0.0319 0.0
H546 H 0.31848 0.02667 0.10479 0.0
H547 H 0.34754 0.03355 0.13373 0.0
H548 H 0.3542 1.00049 0.10972 0.0
H549 H 0.33375 0.12842 0.05035 0.0
H550 H 0.37434 0.13446 0.03838 0.0
H551 H 0.36304 0.13811 0.078 0.0
C552 C 0.21646 0.93763 0.64239 0.0
C553 C 0.2415 0.92712 0.62258 0.0
C554 C 0.18618 0.94978 0.63095 0.0
C555 C 0.18116 0.95215 0.59895 0.0
C556 C 0.20668 0.9421 0.5789 0.0
C557 C 0.23639 0.92939 0.59097 0.0
C558 C 0.15938 0.95957 0.65306 0.0
C559 C 0.20263 0.94478 0.54469 0.0
C560 C 0.09589 0.95578 0.56532 0.0
C561 C 0.08884 0.98703 0.5603 0.0
C562 C 0.12548 0.94427 0.57855 0.0
C563 C 0.14901 0.96437 0.5863 0.0
C564 C 0.14209 0.99596 0.58116 0.0
C565 C 0.11191 1.00695 0.56858 0.0
C566 C 0.13155 0.91054 0.58421 0.0
C567 C 0.1668 0.01806 0.58846 0.0
H568 H 0.2204 0.93577 0.66685 0.0
H569 H 0.2559 0.9216 0.57564 0.0
H570 H 0.15115 0.9839 0.64958 0.0
H571 H 0.13815 0.94648 0.64874 0.0
H572 H 0.16714 0.95618 0.67724 0.0
H573 H 0.22531 0.93721 0.53231 0.0
H574 H 0.18317 0.93087 0.53684 0.0
H575 H 0.19511 0.96868 0.53834 0.0
H576 H 0.07804 0.94027 0.55925 0.0
H577 H 0.10663 0.0311 0.56464 0.0
H578 H 0.13778 0.90624 0.6086 0.0
H579 H 0.15253 0.90101 0.57051 0.0
H580 H 0.11017 0.89816 0.57825 0.0
H581 H 0.1735 0.01659 0.61301 0.0
H582 H 0.15771 0.04188 0.5831 0.0
H583 H 0.18929 0.01208 0.57523 0.0
C584 C 0.77765 0.44982 0.00886 0.0
C585 C 0.76372 0.46221 0.98181 0.0
C586 C 0.80598 0.46033 0.02109 0.0
C587 C 0.82022 0.48419 1.00623 0.0
C588 C 0.80411 0.49916 0.98115 0.0
C589 C 0.77621 0.48782 0.96905 0.0
C590 C 0.82232 0.44386 0.04799 0.0
C591 C 0.8181 0.52521 0.96512 0.0
C592 C 0.89435 0.51748 0.03947 0.0
C593 C 0.91925 0.50236 0.02213 0.0
C594 C 0.86185 0.51159 0.035 0.0
C595 C 0.85436 0.48976 0.01305 0.0
C596 C 0.8796 0.47377 0.99622 0.0
C597 C 0.91168 0.48047 1.00078 0.0
C598 C 0.83552 0.52939 0.05297 0.0
C599 C 0.87268 0.44992 0.97293 0.0
H600 H 0.76761 0.4306 0.01942 0.0
H601 H 0.76584 0.49764 0.94813 0.0
H602 H 0.84332 0.42868 0.03978 0.0
H603 H 0.83178 0.46008 0.06438 0.0
H604 H 0.80557 0.42981 0.06021 0.0
H605 H 0.79996 0.53781 0.94994 0.0
H606 H 0.82713 0.54131 0.9819 0.0
H607 H 0.83902 0.51627 0.95099 0.0
H608 H 0.90015 0.53452 0.05593 0.0
H609 H 0.93091 0.46852 0.98755 0.0
H610 H 0.81911 0.51391 0.06351 0.0
H611 H 0.82053 0.54471 0.03734 0.0
H612 H 0.84558 0.54334 0.07122 0.0
H613 H 0.85861 0.43251 0.98353 0.0
H614 H 0.89524 0.43838 0.96309 0.0
H615 H 0.85773 0.46055 0.95402 0.0
C616 C 0.72943 0.58556 0.53402 0.0
C617 C 0.75135 0.57446 0.51146 0.0
C618 C 0.69927 0.57387 0.53718 0.0
C619 C 0.69122 0.55011 0.51771 0.0
C620 C 0.71478 0.53642 0.49746 0.0
C621 C 0.74459 0.54892 0.4944 0.0
C622 C 0.67489 0.58913 0.5591 0.0
C623 C 0.70741 0.51047 0.47693 0.0
C624 C 0.6107 0.51743 0.53157 0.0
C625 C 0.59058 0.53376 0.51024 0.0
C626 C 0.64384 0.5218 0.53381 0.0
C627 C 0.65681 0.54347 0.51475 0.0
C628 C 0.63654 0.55996 0.49319 0.0
C629 C 0.60375 0.55466 0.491 0.0
C630 C 0.66493 0.50334 0.55653 0.0
C631 C 0.64933 0.58365 0.47275 0.0
H632 H 0.73494 0.60483 0.54779 0.0
H633 H 0.76144 0.54016 0.47697 0.0
H634 H 0.65612 0.6033 0.546 0.0
H635 H 0.66235 0.57208 0.57196 0.0
H636 H 0.68639 0.60397 0.57565 0.0
H637 H 0.72988 0.49855 0.46732 0.0
H638 H 0.69397 0.49381 0.48947 0.0
H639 H 0.6918 0.51938 0.45767 0.0
H640 H 0.6006 0.50102 0.5463 0.0
H641 H 0.58824 0.5674 0.47457 0.0
H642 H 0.67476 0.51855 0.57371 0.0
H643 H 0.68599 0.49127 0.54473 0.0
H644 H 0.65142 0.48639 0.56863 0.0
H645 H 0.65934 0.6015 0.48684 0.0
H646 H 0.63026 0.59464 0.4574 0.0
H647 H 0.66939 0.57314 0.45848 0.0
C648 C 0.12265 0.31169 0.12218 0.0
C649 C 0.10175 0.29551 0.1397 0.0
C650 C 0.11144 0.33902 0.10761 0.0
C651 C 0.07833 0.35015 0.11002 0.0
C652 C 0.0569 0.33337 0.12693 0.0
C653 C 0.06896 0.30647 0.1419 0.0
C654 C 0.13529 0.35647 0.09044 0.0
C655 C 0.02131 0.34402 0.12952 0.0
C656 C 0.05548 0.43503 0.10001 0.0
C657 C 0.04539 0.43689 0.06937 0.0
C658 C 0.06638 0.40703 0.1134 0.0
C659 C 0.06649 0.38 0.096 0.0
C660 C 0.05578 0.38166 0.06518 0.0
C661 C 0.04575 0.41011 0.05213 0.0
C662 C 0.07825 0.40646 0.14609 0.0
C663 C 0.05481 0.35337 0.04602 0.0
H664 H 0.1481 0.30346 0.12073 0.0
H665 H 0.05273 0.29392 0.1553 0.0
H666 H 0.12702 0.36032 0.06651 0.0
H667 H 0.13656 0.37911 0.10109 0.0
H668 H 0.16008 0.34448 0.09023 0.0
H669 H 0.00745 0.32734 0.14165 0.0
H670 H 0.01837 0.36589 0.14206 0.0
H671 H 0.01055 0.3481 0.10646 0.0
H672 H 0.05549 0.45563 0.11345 0.0
H673 H 0.03779 0.41134 0.02849 0.0
H674 H 0.10372 0.39619 0.14722 0.0
H675 H 0.06344 0.39212 0.16015 0.0
H676 H 0.0771 0.4295 0.15636 0.0
H677 H 0.07964 0.34189 0.04367 0.0
H678 H 0.04467 0.35836 0.02284 0.0
H679 H 0.03985 0.33717 0.05748 0.0
C680 C 0.57865 0.29701 0.93412 0.0
C681 C 0.61067 0.29091 0.92395 0.0
C682 C 0.55985 0.27328 0.94181 0.0
C683 C 0.57358 0.2429 0.93942 0.0
C684 C 0.60579 0.23666 0.92886 0.0
C685 C 0.62393 0.26076 0.92123 0.0
C686 C 0.52551 0.28069 0.95281 0.0
C687 C 0.62139 0.20452 0.92625 0.0
C688 C 0.54664 0.17937 0.98778 0.0
C689 C 0.53095 0.16244 0.96608 0.0
C690 C 0.55891 0.20673 0.97983 0.0
C691 C 0.55526 0.21742 0.94946 0.0
C692 C 0.53737 0.20157 0.92801 0.0
C693 C 0.52538 0.17414 0.93661 0.0
C694 C 0.57767 0.22307 1.00341 0.0
C695 C 0.53278 0.21247 0.89549 0.0
H696 H 0.56824 0.32034 0.93586 0.0
H697 H 0.64879 0.25602 0.91369 0.0
H698 H 0.50844 0.26854 0.93874 0.0
H699 H 0.52335 0.2728 0.9767 0.0
H700 H 0.51791 0.30542 0.95189 0.0
H701 H 0.64629 0.20357 0.91669 0.0
H702 H 0.62275 0.19365 0.94911 0.0
H703 H 0.60641 0.19091 0.91142 0.0
H704 H 0.55037 0.1706 0.01077 0.0
H705 H 0.51325 0.16105 0.91982 0.0
H706 H 0.56923 0.24759 1.00388 0.0
H707 H 0.60378 0.22112 0.99729 0.0
H708 H 0.57531 0.21358 0.0267 0.0
H709 H 0.52502 0.23715 0.8949 0.0
H710 H 0.51454 0.20015 0.88301 0.0
H711 H 0.55623 0.20893 0.88324 0.0
C712 C 0.9571 0.72987 0.54384 0.0
C713 C 0.9593 0.70821 0.52038 0.0
C714 C 0.97221 0.75683 0.541 0.0
C715 C 0.99027 0.76173 0.51437 0.0
C716 C 0.99732 0.73767 0.49353 0.0
C717 C 0.98156 0.71111 0.49667 0.0
C718 C 0.96496 0.78164 0.5643 0.0
C719 C 0.01778 0.74151 0.46562 0.0
C720 C 0.96996 0.84017 0.48161 0.0
C721 C 0.99601 0.85555 0.49197 0.0
C722 C 0.96858 0.80931 0.48786 0.0
C723 C 0.99411 0.79333 0.50465 0.0
C724 C 0.02153 0.80823 0.51346 0.0
C725 C 0.02206 0.83931 0.50718 0.0
C726 C 0.93898 0.79419 0.47765 0.0
C727 C 0.04948 0.79199 0.53091 0.0
H728 H 0.94073 0.72726 0.56272 0.0
H729 H 0.98386 0.69437 0.47855 0.0
H730 H 0.98696 0.79336 0.56939 0.0
H731 H 0.94623 0.79877 0.55494 0.0
H732 H 0.9557 0.77267 0.58595 0.0
H733 H 0.02735 0.71921 0.45607 0.0
H734 H 0.0027 0.75389 0.44778 0.0
H735 H 0.03845 0.75499 0.47099 0.0
H736 H 0.95009 0.85256 0.46939 0.0
H737 H 0.04218 0.85117 0.5155 0.0
H738 H 0.92604 0.78629 0.49787 0.0
H739 H 0.94636 0.77399 0.46346 0.0
H740 H 0.92172 0.8097 0.46419 0.0
H741 H 0.04348 0.79194 0.55557 0.0
H742 H 0.07206 0.80353 0.52819 0.0
H743 H 0.0542 0.76803 0.52343 0.0
C744 C 0.39766 0.74045 0.58766 0.0
C745 C 0.41871 0.75348 0.60802 0.0
C746 C 0.4063 0.71207 0.57408 0.0
C747 C 0.43712 0.69658 0.58042 0.0
C748 C 0.45853 0.70972 0.60093 0.0
C749 C 0.44891 0.73784 0.61477 0.0
C750 C 0.38238 0.69858 0.55304 0.0
C751 C 0.49179 0.69428 0.60793 0.0
C752 C 0.44969 0.61113 0.56742 0.0
C753 C 0.46422 0.60924 0.53848 0.0
C754 C 0.44054 0.63932 0.58114 0.0
C755 C 0.44668 0.66645 0.56594 0.0
C756 C 0.46161 0.66472 0.53682 0.0
C757 C 0.46985 0.63616 0.52328 0.0
C758 C 0.42402 0.64004 0.61184 0.0
C759 C 0.46915 0.69306 0.52009 0.0
H760 H 0.37422 0.75244 0.58255 0.0
H761 H 0.46534 0.74802 0.63027 0.0
H762 H 0.39295 0.69532 0.52992 0.0
H763 H 0.37718 0.67589 0.56153 0.0
H764 H 0.35911 0.71313 0.55107 0.0
H765 H 0.50584 0.70777 0.62379 0.0
H766 H 0.48956 0.67168 0.61828 0.0
H767 H 0.50571 0.69048 0.58646 0.0
H768 H 0.44505 0.59045 0.57927 0.0
H769 H 0.48125 0.63489 0.50103 0.0
H770 H 0.40002 0.65337 0.61024 0.0
H771 H 0.43868 0.65148 0.62887 0.0
H772 H 0.4204 0.61694 0.62038 0.0
H773 H 0.4464 0.70764 0.51547 0.0
H774 H 0.48164 0.68787 0.49806 0.0
H775 H 0.48479 0.7064 0.53455 0.0
C776 C 0.94306 0.91382 0.7331 0.0
C777 C 0.91226 0.92012 0.74626 0.0
C778 C 0.95099 0.92687 0.70513 0.0
C779 C 0.9275 0.94652 0.68952 0.0
C780 C 0.89612 0.95244 0.70223 0.0
C781 C 0.88894 0.93931 0.73043 0.0
C782 C 0.98473 0.91989 0.69245 0.0
C783 C 0.87026 0.97301 0.68625 0.0
C784 C 0.95883 1.00227 0.63257 0.0
C785 C 0.95596 0.98698 0.60472 0.0
C786 C 0.9492 0.98961 0.66023 0.0
C787 C 0.93601 0.9611 0.6601 0.0
C788 C 0.93216 0.94601 0.63195 0.0
C789 C 0.94233 0.95901 0.6047 0.0
C790 C 0.95401 1.00636 0.68971 0.0
C791 C 0.91787 0.9158 0.63064 0.0
H792 H 0.96114 0.89862 0.7447 0.0
H793 H 0.86521 0.94473 0.74042 0.0
H794 H 0.98338 0.90958 0.66944 0.0
H795 H 0.99667 0.94122 0.68986 0.0
H796 H 1.00021 0.90413 0.70731 0.0
H797 H 0.84667 0.9743 0.6984 0.0
H798 H 0.87819 0.99625 0.68449 0.0
H799 H 0.86655 0.96484 0.66263 0.0
H800 H 0.96944 0.0238 0.63291 0.0
H801 H 0.93987 0.94702 0.58333 0.0
H802 H 0.97131 0.9925 0.70465 0.0
H803 H 0.93071 0.01 0.70218 0.0
H804 H 0.96354 0.02874 0.6859 0.0
H805 H 0.93386 0.89845 0.64314 0.0
H806 H 0.9148 0.90781 0.60683 0.0
H807 H 0.89388 0.91748 0.64205 0.0
C808 C 0.61312 0.08805 0.22171 0.0
C809 C 0.59296 0.11161 0.23508 0.0
C810 C 0.60275 0.07201 0.19622 0.0
C811 C 0.57127 0.07943 0.18391 0.0
C812 C 0.55041 0.1025 0.19797 0.0
C813 C 0.56156 0.11842 0.2232 0.0
C814 C 0.62595 0.04792 0.18176 0.0
C815 C 0.51653 0.1109 0.18588 0.0
C816 C 0.55524 0.06481 0.09967 0.0
C817 C 0.53913 0.03819 0.10053 0.0
C818 C 0.56633 0.078 0.12652 0.0
C819 C 0.56092 0.06455 0.15517 0.0
C820 C 0.54509 0.03743 0.15623 0.0
C821 C 0.53458 0.02446 0.12889 0.0
C822 C 0.58348 0.10665 0.12419 0.0
C823 C 0.53857 0.02252 0.18629 0.0
H824 H 0.63755 0.08288 0.23049 0.0
H825 H 0.54573 0.13639 0.23357 0.0
H826 H 0.61439 0.02634 0.17954 0.0
H827 H 0.6321 0.05513 0.15839 0.0
H828 H 0.64881 0.04354 0.19511 0.0
H829 H 0.50251 0.12772 0.20067 0.0
H830 H 0.51781 0.12065 0.16263 0.0
H831 H 0.50312 0.09035 0.18398 0.0
H832 H 0.55905 0.07555 0.0779 0.0
H833 H 0.52201 1.00401 0.12982 0.0
H834 H 0.60757 0.10336 0.13559 0.0
H835 H 0.56922 0.1255 0.13613 0.0
H836 H 0.58701 0.11355 0.10013 0.0
H837 H 0.56158 0.01748 0.19918 0.0
H838 H 0.52684 1.00108 0.18324 0.0
H839 H 0.52254 0.03829 0.20046 0.0
C840 C 0.45297 0.54346 0.20077 0.0
C841 C 0.47021 0.56059 0.18072 0.0
C842 C 0.45861 0.54435 0.23233 0.0
C843 C 0.48244 0.56244 0.24395 0.0
C844 C 0.50044 0.57927 0.22371 0.0
C845 C 0.49389 0.57835 0.19228 0.0
C846 C 0.43865 0.52637 0.25326 0.0
C847 C 0.52645 0.59831 0.23527 0.0
C848 C 0.47285 0.58401 0.32741 0.0
C849 C 0.49279 0.56072 0.34132 0.0
C850 C 0.47019 0.58563 0.29549 0.0
C851 C 0.48828 0.56363 0.27737 0.0
C852 C 0.50991 0.54116 0.29147 0.0
C853 C 0.51162 0.53977 0.3234 0.0
C854 C 0.44662 0.60971 0.28126 0.0
C855 C 0.53 0.51767 0.27292 0.0
H856 H 0.43438 0.53005 0.1918 0.0
H857 H 0.50731 0.59147 0.17666 0.0
H858 H 0.45479 0.50991 0.2667 0.0
H859 H 0.42527 0.54185 0.26975 0.0
H860 H 0.42085 0.51371 0.24056 0.0
H861 H 0.53889 0.60933 0.21642 0.0
H862 H 0.51563 0.61621 0.25084 0.0
H863 H 0.54484 0.58398 0.24865 0.0
H864 H 0.45811 0.59993 0.34154 0.0
H865 H 0.52693 0.52174 0.33444 0.0
H866 H 0.42628 0.59882 0.27045 0.0
H867 H 0.45866 0.62192 0.26303 0.0
H868 H 0.43642 0.62652 0.29831 0.0
H869 H 0.51388 0.50202 0.26203 0.0
H870 H 0.54825 0.50403 0.28716 0.0
H871 H 0.54279 0.52873 0.25437 0.0
C872 C 0.0888 0.48115 0.72923 0.0
C873 C 0.09504 0.45125 0.71871 0.0
C874 C 0.07743 0.48708 0.75896 0.0
C875 C 0.07266 0.46251 0.77865 0.0
C876 C 0.07769 0.43236 0.76778 0.0
C877 C 0.08851 0.42712 0.73785 0.0
C878 C 0.0718 0.51957 0.76968 0.0
C879 C 0.07304 0.40556 0.78818 0.0
C880 C 0.08366 0.47588 0.86328 0.0
C881 C 0.0515 0.479 0.8734 0.0
C882 C 0.09082 0.4702 0.8325 0.0
C883 C 0.06511 0.46817 0.81132 0.0
C884 C 0.03253 0.47128 0.82146 0.0
C885 C 0.0261 0.47639 0.85256 0.0
C886 C 0.1259 0.46642 0.82263 0.0
C887 C 0.00454 0.46973 0.7994 0.0
H888 H 0.0939 0.49991 0.71465 0.0
H889 H 0.09242 0.40397 0.7296 0.0
H890 H 0.04767 0.5236 0.78065 0.0
H891 H 0.09034 0.52411 0.7871 0.0
H892 H 0.07317 0.53603 0.75067 0.0
H893 H 0.07606 0.38364 0.77565 0.0
H894 H 0.091 0.40474 0.80715 0.0
H895 H 0.04855 0.40802 0.79856 0.0
H896 H 0.10322 0.47777 0.87956 0.0
H897 H 1.00122 0.47915 0.86049 0.0
H898 H 0.1305 0.48417 0.80571 0.0
H899 H 0.13127 0.44408 0.81134 0.0
H900 H 0.14299 0.46796 0.84212 0.0
H901 H 0.00522 0.48777 0.78187 0.0
H902 H 0.98064 0.47253 0.811 0.0
H903 H 0.00671 0.44764 0.78724 0.0
C904 C 0.71563 0.91631 0.90274 0.0
C905 C 0.74416 0.91998 0.91931 0.0
C906 C 0.68489 0.92581 0.91482 0.0
C907 C 0.68258 0.93922 0.94424 0.0
C908 C 0.71125 0.94244 0.96128 0.0
C909 C 0.7416 0.9328 0.94865 0.0
C910 C 0.65492 0.92204 0.89588 0.0
C911 C 0.70993 0.95643 0.99276 0.0
C912 C 0.60824 0.9926 0.96407 0.0
C913 C 0.59012 0.97407 0.98207 0.0
C914 C 0.6381 0.98143 0.9514 0.0
C915 C 0.65033 0.95094 0.95682 0.0
C916 C 0.63216 0.93206 0.97488 0.0
C917 C 0.6023 0.94383 0.98729 0.0
C918 C 0.65668 1.00237 0.93234 0.0
C919 C 0.64435 0.89945 0.98123 0.0
H920 H 0.71735 0.90662 0.88001 0.0
H921 H 0.76344 0.93519 0.96188 0.0
H922 H 0.63781 0.90909 0.90888 0.0
H923 H 0.64219 0.94464 0.89073 0.0
H924 H 0.6607 0.91009 0.874 0.0
H925 H 0.73436 0.95648 1.00342 0.0
H926 H 0.69881 0.98019 0.99144 0.0
H927 H 0.6944 0.94383 1.00788 0.0
H928 H 0.59909 0.01597 0.95982 0.0
H929 H 0.58849 0.92929 1.00108 0.0
H930 H 0.66118 0.99252 0.90928 0.0
H931 H 0.6807 1.00485 0.94298 0.0
H932 H 0.64356 0.02529 0.92978 0.0
H933 H 0.64847 0.88695 0.95942 0.0
H934 H 0.62711 0.88758 0.99526 0.0
H935 H 0.66802 0.89852 0.9934 0.0
C936 C 0.76181 0.09597 0.42452 0.0
C937 C 0.76717 0.11565 0.40024 0.0
C938 C 0.78788 0.08162 0.44146 0.0
C939 C 0.82016 0.08679 0.43384 0.0
C940 C 0.82576 0.10641 0.40926 0.0
C941 C 0.7993 0.1207 0.39296 0.0
C942 C 0.78087 0.06103 0.46763 0.0
C943 C 0.85978 0.11253 0.40028 0.0
C944 C 0.88902 0.07497 0.49188 0.0
C945 C 0.9048 0.04706 0.48261 0.0
C946 C 0.86085 0.08763 0.47689 0.0
C947 C 0.84822 0.0722 0.45177 0.0
C948 C 0.86354 0.04365 0.44278 0.0
C949 C 0.89154 0.03136 0.45839 0.0
C950 C 0.84511 0.11796 0.48744 0.0
C951 C 0.85104 0.02657 0.41598 0.0
H952 H 0.73721 0.09156 0.43018 0.0
H953 H 0.80385 0.13629 0.37473 0.0
H954 H 0.79286 0.03791 0.46368 0.0
H955 H 0.79103 0.06956 0.48915 0.0
H956 H 0.75444 0.05938 0.47072 0.0
H957 H 0.86008 0.12758 0.38 0.0
H958 H 0.87187 0.12336 0.41956 0.0
H959 H 0.87438 0.09085 0.39515 0.0
H960 H 0.89895 0.08724 0.51066 0.0
H961 H 0.90357 0.00983 0.45099 0.0
H962 H 0.8189 0.11642 0.49177 0.0
H963 H 0.84697 0.13517 0.46927 0.0
H964 H 0.85656 0.12604 0.50858 0.0
H965 H 0.82492 0.02349 0.419 0.0
H966 H 0.86455 1.0039 0.41292 0.0
H967 H 0.85322 0.03992 0.39475 0.0
C968 C 0.26315 0.5831 0.04614 0.0
C969 C 0.28411 0.55648 0.04893 0.0
C970 C 0.22935 0.58202 0.04568 0.0
C971 C 0.21627 0.55365 0.04831 0.0
C972 C 0.23733 0.52676 0.05167 0.0
C973 C 0.27103 0.52848 0.05179 0.0
C974 C 0.20768 0.61112 0.04168 0.0
C975 C 0.22425 0.49611 0.05478 0.0
C976 C 0.12777 0.55064 0.0701 0.0
C977 C 0.11363 0.54499 0.04173 0.0
C978 C 0.16115 0.55393 0.0726 0.0
C979 C 0.18064 0.55185 0.04605 0.0
C980 C 0.16627 0.54708 0.01726 0.0
C981 C 0.133 0.54356 0.01548 0.0
C982 C 0.17572 0.55881 0.1037 0.0
C983 C 0.18616 0.54511 0.98837 0.0
H984 H 0.27323 0.60475 0.04364 0.0
H985 H 0.2872 0.50792 0.05432 0.0
H986 H 0.19369 0.61024 0.02005 0.0
H987 H 0.18984 0.61382 0.06053 0.0
H988 H 0.22165 0.63142 0.04115 0.0
H989 H 0.24382 0.47758 0.05865 0.0
H990 H 0.20696 0.4964 0.07409 0.0
H991 H 0.21069 0.4909 0.03378 0.0
H992 H 0.11293 0.55167 0.09047 0.0
H993 H 0.12218 0.53942 0.99343 0.0
H994 H 0.18889 0.57958 0.10362 0.0
H995 H 0.19369 0.53943 0.10939 0.0
H996 H 0.15707 0.56101 0.12193 0.0
H997 H 0.19942 0.56568 0.9859 0.0
H998 H 0.17099 0.54278 0.96764 0.0
H999 H 0.20458 0.52529 0.98962 0.0
C1000 C 0.23498 0.52364 0.52001 0.0
C1001 C 0.2234 0.49539 0.51389 0.0
C1002 C 0.26662 0.52937 0.51187 0.0
C1003 C 0.28685 0.50637 0.4971 0.0
C1004 C 0.27385 0.47946 0.48741 0.0
C1005 C 0.24227 0.47425 0.49598 0.0
C1006 C 0.27942 0.55863 0.52211 0.0
C1007 C 0.29446 0.45453 0.47121 0.0
C1008 C 0.37229 0.52089 0.47325 0.0
C1009 C 0.39051 0.50946 0.49856 0.0
C1010 C 0.33843 0.52017 0.47231 0.0
C1011 C 0.32256 0.50774 0.49724 0.0
C1012 C 0.34088 0.49592 0.52268 0.0
C1013 C 0.37461 0.49691 0.52301 0.0
C1014 C 0.31964 0.53288 0.44483 0.0
C1015 C 0.32484 0.4823 0.54972 0.0
H1016 H 0.22025 0.54035 0.53325 0.0
H1017 H 0.23373 0.45228 0.49115 0.0
H1018 H 0.29469 0.55425 0.54284 0.0
H1019 H 0.29487 0.56766 0.50427 0.0
H1020 H 0.25945 0.57623 0.52774 0.0
H1021 H 0.27938 0.43809 0.46005 0.0
H1022 H 0.30995 0.46402 0.45369 0.0
H1023 H 0.31075 0.442 0.48804 0.0
H1024 H 0.38443 0.5307 0.45428 0.0
H1025 H 0.38848 0.48806 0.54263 0.0
H1026 H 0.30219 0.55211 0.45189 0.0
H1027 H 0.30527 0.51535 0.43473 0.0
H1028 H 0.33575 0.541 0.42696 0.0
H1029 H 0.30675 0.49938 0.55993 0.0
H1030 H 0.3426 0.47424 0.56772 0.0
H1031 H 0.31165 0.46284 0.54215 0.0
C1032 C 0.90423 0.7302 0.93226 0.0
C1033 C 0.9255 0.75126 0.92266 0.0
C1034 C 0.9159 0.70278 0.94643 0.0
C1035 C 0.9497 0.69627 0.95143 0.0
C1036 C 0.97131 0.7174 0.94172 0.0
C1037 C 0.95898 0.74452 0.92735 0.0
C1038 C 0.89204 0.68073 0.95601 0.0
C1039 C 0.00746 0.71149 0.94679 0.0
C1040 C 0.97707 0.63751 0.01242 0.0
C1041 C 0.98568 0.61158 0.99472 0.0
C1042 C 0.96563 0.66527 0.99866 0.0
C1043 C 0.96246 0.66716 0.96644 0.0
C1044 C 0.97123 0.6411 0.94848 0.0
C1045 C 0.98281 0.61376 0.96279 0.0
C1046 C 0.95677 0.69256 0.01863 0.0
C1047 C 0.96806 0.64198 0.91411 0.0
H1048 H 0.87836 0.7351 0.9285 0.0
H1049 H 0.97556 0.76084 0.92042 0.0
H1050 H 0.89791 0.65853 0.94457 0.0
H1051 H 0.89394 0.67668 0.98098 0.0
H1052 H 0.86657 0.68906 0.95035 0.0
H1053 H 0.02101 0.73025 0.93807 0.0
H1054 H 0.01273 0.70851 0.97153 0.0
H1055 H 0.01669 0.69013 0.93524 0.0
H1056 H 0.9792 0.63613 0.03707 0.0
H1057 H 0.9893 0.59391 0.94882 0.0
H1058 H 0.93073 0.70043 0.01546 0.0
H1059 H 0.971 0.71155 0.01185 0.0
H1060 H 0.96129 0.6876 0.04323 0.0
H1061 H 0.94242 0.64844 0.90751 0.0
H1062 H 0.97601 0.61979 0.9034 0.0
H1063 H 0.98279 0.65948 0.90463 0.0
C1064 C 0.48412 0.70561 0.01314 0.0
C1065 C 0.45602 0.69411 0.02438 0.0
C1066 C 0.48919 0.73638 0.01682 0.0
C1067 C 0.46561 0.75595 0.03216 0.0
C1068 C 0.43719 0.74447 0.04348 0.0
C1069 C 0.43276 0.7137 0.03948 0.0
C1070 C 0.51972 0.74794 1.00433 0.0
C1071 C 0.41152 0.76464 0.05999 0.0
C1072 C 0.48821 0.83039 0.06587 0.0
C1073 C 0.47543 0.85125 0.04388 0.0
C1074 C 0.48565 0.79915 0.06216 0.0
C1075 C 0.4701 0.78867 0.03579 0.0
C1076 C 0.4576 0.8096 0.01334 0.0
C1077 C 0.46045 0.84061 0.01765 0.0
C1078 C 0.49917 0.77742 0.0866 0.0
C1079 C 0.44095 0.79928 0.98488 0.0
H1080 H 0.50211 0.69056 1.0014 0.0
H1081 H 0.41135 0.70481 0.04886 0.0
H1082 H 0.51334 0.76614 0.98734 0.0
H1083 H 0.53343 0.75805 0.02301 0.0
H1084 H 0.53581 0.72971 0.99327 0.0
H1085 H 0.3909 0.75208 0.06757 0.0
H1086 H 0.4223 0.77497 0.08031 0.0
H1087 H 0.40192 0.78351 0.04484 0.0
H1088 H 0.49977 0.83856 0.08616 0.0
H1089 H 0.45124 0.85658 1.00022 0.0
H1090 H 0.51673 0.75981 0.07648 0.0
H1091 H 0.47927 0.76554 0.09669 0.0
H1092 H 0.51155 0.78911 0.10518 0.0
H1093 H 0.45738 0.78239 0.97239 0.0
H1094 H 0.43343 0.81842 0.96921 0.0
H1095 H 0.41909 0.78795 0.99122 0.0
C1096 C 0.0836 0.29213 0.56486 0.0
C1097 C 0.06655 0.32041 0.55915 0.0
C1098 C 0.06794 0.26546 0.56417 0.0
C1099 C 0.03429 0.26704 0.55762 0.0
C1100 C 0.01674 0.29551 0.55208 0.0
C1101 C 0.03312 0.32199 0.553 0.0
C1102 C 0.08755 0.23552 0.57033 0.0
C1103 C 0.98087 0.29791 0.54491 0.0
C1104 C 0.01329 0.19171 0.52737 0.0
C1105 C 0.0044 0.1775 0.55423 0.0
C1106 C 0.02018 0.22208 0.52754 0.0
C1107 C 0.01838 0.23842 0.55535 0.0
C1108 C 0.00675 0.22489 0.58199 0.0
C1109 C 0.99975 0.19442 0.58109 0.0
C1110 C 0.03221 0.23572 0.49858 0.0
C1111 C 0.00445 0.24166 0.61203 0.0
H1112 H 0.10927 0.29089 0.57043 0.0
H1113 H 0.0199 0.34388 0.54867 0.0
H1114 H 0.07692 0.22371 0.5897 0.0
H1115 H 0.08682 0.22055 0.55004 0.0
H1116 H 0.11335 0.23839 0.57584 0.0
H1117 H 0.9705 0.32185 0.54245 0.0
H1118 H 0.97656 0.28564 0.52338 0.0
H1119 H 0.96762 0.28696 0.56322 0.0
H1120 H 0.01636 0.17857 0.5065 0.0
H1121 H 0.99276 0.18331 0.60179 0.0
H1122 H 0.05882 0.23706 0.50036 0.0
H1123 H 0.02073 0.25913 0.4952 0.0
H1124 H 0.02727 0.22193 0.47814 0.0
H1125 H 0.0292 0.24278 0.62162 0.0
H1126 H 0.98977 0.2302 0.62894 0.0
H1127 H 0.9936 0.26532 0.60879 0.0
C1128 C 0.60667 0.31851 0.40675 0.0
C1129 C 0.58907 0.2932 0.40165 0.0
C1130 C 0.59249 0.34488 0.42105 0.0
C1131 C 0.55959 0.34644 0.4302 0.0
C1132 C 0.54157 0.32111 0.42514 0.0
C1133 C 0.55652 0.2948 0.41108 0.0
C1134 C 0.61269 0.37127 0.42604 0.0
C1135 C 0.50639 0.32189 0.43433 0.0
C1136 C 0.53227 0.4072 0.48898 0.0
C1137 C 0.51911 0.43106 0.4703 0.0
C1138 C 0.54488 0.37931 0.47635 0.0
C1139 C 0.54402 0.37498 0.44427 0.0
C1140 C 0.52979 0.39865 0.42543 0.0
C1141 C 0.51771 0.42637 0.43861 0.0
C1142 C 0.5601 0.35482 0.49725 0.0
C1143 C 0.52799 0.39497 0.39119 0.0
H1144 H 0.63156 0.318 0.39904 0.0
H1145 H 0.5427 0.27539 0.40767 0.0
H1146 H 0.60211 0.39131 0.41301 0.0
H1147 H 0.61248 0.3777 0.45054 0.0
H1148 H 0.63829 0.36601 0.41882 0.0
H1149 H 0.49576 0.30029 0.42903 0.0
H1150 H 0.50397 0.3264 0.45917 0.0
H1151 H 0.49201 0.3407 0.42228 0.0
H1152 H 0.53356 0.41059 0.51346 0.0
H1153 H 0.50743 0.44456 0.42395 0.0
H1154 H 0.58636 0.35052 0.49214 0.0
H1155 H 0.54898 0.33324 0.49329 0.0
H1156 H 0.55736 0.36105 0.52174 0.0
H1157 H 0.55287 0.39223 0.38162 0.0
H1158 H 0.51434 0.41473 0.37993 0.0
H1159 H 0.51614 0.37417 0.38536 0.0
loop_
_geom_bond_atom_site_label_1
_geom_bond_atom_site_label_2
_geom_bond_distance
_geom_bond_site_symmetry_2
_ccdc_geom_bond_type
P0 O11 1.490 . S
P0 C14 1.812 . S
P0 C20 1.803 . S
P0 C26 1.819 . S
H1 C15 0.941 . S
H2 C16 0.939 . S
H3 C18 0.940 . S
H4 C19 0.940 . S
H5 C21 0.939 . S
H6 C22 0.942 . S
H7 C24 0.940 . S
H8 C25 0.939 . S
H9 C27 0.941 . S
H10 C31 0.939 . S
O11 P0 1.490 . S
H12 C28 0.939 . S
H13 C30 0.940 . S
C14 P0 1.812 . S
C14 C15 1.389 . S
C14 C19 1.391 . S
C15 H1 0.941 . S
C15 C14 1.389 . S
C15 C16 1.397 . S
C16 H2 0.939 . S
C16 C15 1.397 . S
C16 C17 1.378 . S
C17 C16 1.378 . S
C17 C18 1.378 . S
C18 H3 0.940 . S
C18 C17 1.378 . S
C18 C19 1.396 . S
C19 H4 0.940 . S
C19 C14 1.391 . S
C19 C18 1.396 . S
C20 P0 1.803 . S
C20 C21 1.378 . S
C20 C25 1.400 . S
C21 H5 0.939 . S
C21 C20 1.378 . S
C21 C22 1.361 . S
C22 H6 0.942 . S
C22 C21 1.361 . S
C22 C23 1.369 . S
C23 C22 1.369 . S
C23 C24 1.404 . S
C24 H7 0.940 . S
C24 C23 1.404 . S
C24 C25 1.389 . S
C25 H8 0.939 . S
C25 C20 1.400 . S
C25 C24 1.389 . S
C26 P0 1.819 . S
C26 C27 1.391 . S
C26 C31 1.391 . S
C27 H9 0.941 . S
C27 C26 1.391 . S
C27 C28 1.396 . S
C28 H12 0.939 . S
C28 C27 1.396 . S
C28 C29 1.397 . S
C29 C28 1.397 . S
C29 C30 1.385 . S
C30 H13 0.940 . S
C30 C29 1.385 . S
C30 C31 1.388 . S
C31 H10 0.939 . S
C31 C26 1.391 . S
C31 C30 1.388 . S
P32 O43 1.490 . S
P32 C46 1.812 . S
P32 C52 1.803 . S
P32 C58 1.819 . S
H33 C47 0.941 . S
H34 C48 0.939 . S
H35 C50 0.940 . S
H36 C51 0.940 . S
H37 C53 0.939 . S
H38 C54 0.942 . S
H39 C56 0.940 . S
H40 C57 0.939 . S
H41 C59 0.941 . S
H42 C63 0.939 . S
O43 P32 1.490 . S
H44 C60 0.939 . S
H45 C62 0.940 . S
C46 P32 1.812 . S
C46 C47 1.389 . S
C46 C51 1.391 . S
C47 H33 0.941 . S
C47 C46 1.389 . S
C47 C48 1.397 . S
C48 H34 0.939 . S
C48 C47 1.397 . S
C48 C49 1.378 . S
C49 C48 1.378 . S
C49 C50 1.378 . S
C50 H35 0.940 . S
C50 C49 1.378 . S
C50 C51 1.396 . S
C51 H36 0.940 . S
C51 C46 1.391 . S
C51 C50 1.396 . S
C52 P32 1.803 . S
C52 C53 1.378 . S
C52 C57 1.400 . S
C53 H37 0.939 . S
C53 C52 1.378 . S
C53 C54 1.361 . S
C54 H38 0.942 . S
C54 C53 1.361 . S
C54 C55 1.369 . S
C55 C54 1.369 . S
C55 C56 1.404 . S
C56 H39 0.940 . S
C56 C55 1.404 . S
C56 C57 1.389 . S
C57 H40 0.939 . S
C57 C52 1.400 . S
C57 C56 1.389 . S
C58 P32 1.819 . S
C58 C59 1.391 . S
C58 C63 1.391 . S
C59 H41 0.941 . S
C59 C58 1.391 . S
C59 C60 1.396 . S
C60 H44 0.939 . S
C60 C59 1.396 . S
C60 C61 1.397 . S
C61 C60 1.397 . S
C61 C62 1.385 . S
C62 H45 0.940 . S
C62 C61 1.385 . S
C62 C63 1.388 . S
C63 H42 0.939 . S
C63 C58 1.391 . S
C63 C62 1.388 . S
P64 O75 1.490 . S
P64 C78 1.812 . S
P64 C84 1.803 . S
P64 C90 1.819 . S
H65 C79 0.941 . S
H66 C80 0.939 . S
H67 C82 0.940 . S
H68 C83 0.940 . S
H69 C85 0.939 . S
H70 C86 0.942 . S
H71 C88 0.940 . S
H72 C89 0.939 . S
H73 C91 0.941 . S
H74 C95 0.939 . S
O75 P64 1.490 . S
H76 C92 0.939 . S
H77 C94 0.940 . S
C78 P64 1.812 . S
C78 C79 1.389 . S
C78 C83 1.391 . S
C79 H65 0.941 . S
C79 C78 1.389 . S
C79 C80 1.397 . S
C80 H66 0.939 . S
C80 C79 1.397 . S
C80 C81 1.378 . S
C81 C80 1.378 . S
C81 C82 1.378 . S
C82 H67 0.940 . S
C82 C81 1.378 . S
C82 C83 1.396 . S
C83 H68 0.940 . S
C83 C78 1.391 . S
C83 C82 1.396 . S
C84 P64 1.803 . S
C84 C85 1.378 . S
C84 C89 1.400 . S
C85 H69 0.939 . S
C85 C84 1.378 . S
C85 C86 1.361 . S
C86 H70 0.942 . S
C86 C85 1.361 . S
C86 C87 1.369 . S
C87 C86 1.369 . S
C87 C88 1.404 . S
C88 H71 0.940 . S
C88 C87 1.404 . S
C88 C89 1.389 . S
C89 H72 0.939 . S
C89 C84 1.400 . S
C89 C88 1.389 . S
C90 P64 1.819 . S
C90 C91 1.391 . S
C90 C95 1.391 . S
C91 H73 0.941 . S
C91 C90 1.391 . S
C91 C92 1.396 . S
C92 H76 0.939 . S
C92 C91 1.396 . S
C92 C93 1.397 . S
C93 C92 1.397 . S
C93 C94 1.385 . S
C94 H77 0.940 . S
C94 C93 1.385 . S
C94 C95 1.388 . S
C95 H74 0.939 . S
C95 C90 1.391 . S
C95 C94 1.388 . S
P96 O107 1.490 . S
P96 C110 1.812 . S
P96 C116 1.803 . S
P96 C122 1.819 . S
H97 C111 0.941 . S
H98 C112 0.939 . S
H99 C114 0.940 . S
H100 C115 0.940 . S
H101 C117 0.939 . S
H102 C118 0.942 . S
H103 C120 0.940 . S
H104 C121 0.939 . S
H105 C123 0.941 . S
H106 C127 0.939 . S
O107 P96 1.490 . S
H108 C124 0.939 . S
H109 C126 0.940 . S
C110 P96 1.812 . S
C110 C111 1.389 . S
C110 C115 1.391 . S
C111 H97 0.941 . S
C111 C110 1.389 . S
C111 C112 1.397 . S
C112 H98 0.939 . S
C112 C111 1.397 . S
C112 C113 1.378 . S
C113 C112 1.378 . S
C113 C114 1.378 . S
C114 H99 0.940 . S
C114 C113 1.378 . S
C114 C115 1.396 . S
C115 H100 0.940 . S
C115 C110 1.391 . S
C115 C114 1.396 . S
C116 P96 1.803 . S
C116 C117 1.378 . S
C116 C121 1.400 . S
C117 H101 0.939 . S
C117 C116 1.378 . S
C117 C118 1.361 . S
C118 H102 0.942 . S
C118 C117 1.361 . S
C118 C119 1.369 . S
C119 C118 1.369 . S
C119 C120 1.404 . S
C120 H103 0.940 . S
C120 C119 1.404 . S
C120 C121 1.389 . S
C121 H104 0.939 . S
C121 C116 1.400 . S
C121 C120 1.389 . S
C122 P96 1.819 . S
C122 C123 1.391 . S
C122 C127 1.391 . S
C123 H105 0.941 . S
C123 C122 1.391 . S
C123 C124 1.396 . S
C124 H108 0.939 . S
C124 C123 1.396 . S
C124 C125 1.397 . S
C125 C124 1.397 . S
C125 C126 1.385 . S
C126 H109 0.940 . S
C126 C125 1.385 . S
C126 C127 1.388 . S
C127 H106 0.939 . S
C127 C122 1.391 . S
C127 C126 1.388 . S
P128 O139 1.490 . S
P128 C142 1.812 . S
P128 C148 1.803 . S
P128 C154 1.819 . S
H129 C143 0.941 . S
H130 C144 0.939 . S
H131 C146 0.940 . S
H132 C147 0.940 . S
H133 C149 0.939 . S
H134 C150 0.942 . S
H135 C152 0.940 . S
H136 C153 0.939 . S
H137 C155 0.941 . S
H138 C159 0.939 . S
O139 P128 1.490 . S
H140 C156 0.939 . S
H141 C158 0.940 . S
C142 P128 1.812 . S
C142 C143 1.389 . S
C142 C147 1.391 . S
C143 H129 0.941 . S
C143 C142 1.389 . S
C143 C144 1.397 . S
C144 H130 0.939 . S
C144 C143 1.397 . S
C144 C145 1.378 . S
C145 C144 1.378 . S
C145 C146 1.378 . S
C146 H131 0.940 . S
C146 C145 1.378 . S
C146 C147 1.396 . S
C147 H132 0.940 . S
C147 C142 1.391 . S
C147 C146 1.396 . S
C148 P128 1.803 . S
C148 C149 1.378 . S
C148 C153 1.400 . S
C149 H133 0.939 . S
C149 C148 1.378 . S
C149 C150 1.361 . S
C150 H134 0.942 . S
C150 C149 1.361 . S
C150 C151 1.369 . S
C151 C150 1.369 . S
C151 C152 1.404 . S
C152 H135 0.940 . S
C152 C151 1.404 . S
C152 C153 1.389 . S
C153 H136 0.939 . S
C153 C148 1.400 . S
C153 C152 1.389 . S
C154 P128 1.819 . S
C154 C155 1.391 . S
C154 C159 1.391 . S
C155 H137 0.941 . S
C155 C154 1.391 . S
C155 C156 1.396 . S
C156 H140 0.939 . S
C156 C155 1.396 . S
C156 C157 1.397 . S
C157 C156 1.397 . S
C157 C158 1.385 . S
C158 H141 0.940 . S
C158 C157 1.385 . S
C158 C159 1.388 . S
C159 H138 0.939 . S
C159 C154 1.391 . S
C159 C158 1.388 . S
P160 O171 1.490 . S
P160 C174 1.812 . S
P160 C180 1.803 . S
P160 C186 1.819 . S
H161 C175 0.941 . S
H162 C176 0.939 . S
H163 C178 0.940 . S
H164 C179 0.940 . S
H165 C181 0.939 . S
H166 C182 0.942 . S
H167 C184 0.940 . S
H168 C185 0.939 . S
H169 C187 0.941 . S
H170 C191 0.939 . S
O171 P160 1.490 . S
H172 C188 0.939 . S
H173 C190 0.940 . S
C174 P160 1.812 . S
C174 C175 1.389 . S
C174 C179 1.391 . S
C175 H161 0.941 . S
C175 C174 1.389 . S
C175 C176 1.397 . S
C176 H162 0.939 . S
C176 C175 1.397 . S
C176 C177 1.378 . S
C177 C176 1.378 . S
C177 C178 1.378 . S
C178 H163 0.940 . S
C178 C177 1.378 . S
C178 C179 1.396 . S
C179 H164 0.940 . S
C179 C174 1.391 . S
C179 C178 1.396 . S
C180 P160 1.803 . S
C180 C181 1.378 . S
C180 C185 1.400 . S
C181 H165 0.939 . S
C181 C180 1.378 . S
C181 C182 1.361 . S
C182 H166 0.942 . S
C182 C181 1.361 . S
C182 C183 1.369 . S
C183 C182 1.369 . S
C183 C184 1.404 . S
C184 H167 0.940 . S
C184 C183 1.404 . S
C184 C185 1.389 . S
C185 H168 0.939 . S
C185 C180 1.400 . S
C185 C184 1.389 . S
C186 P160 1.819 . S
C186 C187 1.391 . S
C186 C191 1.391 . S
C187 H169 0.941 . S
C187 C186 1.391 . S
C187 C188 1.396 . S
C188 H172 0.939 . S
C188 C187 1.396 . S
C188 C189 1.397 . S
C189 C188 1.397 . S
C189 C190 1.385 . S
C190 H173 0.940 . S
C190 C189 1.385 . S
C190 C191 1.388 . S
C191 H170 0.939 . S
C191 C186 1.391 . S
C191 C190 1.388 . S
P192 O203 1.490 . S
P192 C206 1.812 . S
P192 C212 1.803 . S
P192 C218 1.819 . S
H193 C207 0.941 . S
H194 C208 0.939 . S
H195 C210 0.940 . S
H196 C211 0.940 . S
H197 C213 0.939 . S
H198 C214 0.942 . S
H199 C216 0.940 . S
H200 C217 0.939 . S
H201 C219 0.941 . S
H202 C223 0.939 . S
O203 P192 1.490 . S
H204 C220 0.939 . S
H205 C222 0.940 . S
C206 P192 1.812 . S
C206 C207 1.389 . S
C206 C211 1.391 . S
C207 H193 0.941 . S
C207 C206 1.389 . S
C207 C208 1.397 . S
C208 H194 0.939 . S
C208 C207 1.397 . S
C208 C209 1.378 . S
C209 C208 1.378 . S
C209 C210 1.378 . S
C210 H195 0.940 . S
C210 C209 1.378 . S
C210 C211 1.396 . S
C211 H196 0.940 . S
C211 C206 1.391 . S
C211 C210 1.396 . S
C212 P192 1.803 . S
C212 C213 1.378 . S
C212 C217 1.400 . S
C213 H197 0.939 . S
C213 C212 1.378 . S
C213 C214 1.361 . S
C214 H198 0.942 . S
C214 C213 1.361 . S
C214 C215 1.369 . S
C215 C214 1.369 . S
C215 C216 1.404 . S
C216 H199 0.940 . S
C216 C215 1.404 . S
C216 C217 1.389 . S
C217 H200 0.939 . S
C217 C212 1.400 . S
C217 C216 1.389 . S
C218 P192 1.819 . S
C218 C219 1.391 . S
C218 C223 1.391 . S
C219 H201 0.941 . S
C219 C218 1.391 . S
C219 C220 1.396 . S
C220 H204 0.939 . S
C220 C219 1.396 . S
C220 C221 1.397 . S
C221 C220 1.397 . S
C221 C222 1.385 . S
C222 H205 0.940 . S
C222 C221 1.385 . S
C222 C223 1.388 . S
C223 H202 0.939 . S
C223 C218 1.391 . S
C223 C222 1.388 . S
P224 O235 1.490 . S
P224 C238 1.812 . S
P224 C244 1.803 . S
P224 C250 1.819 . S
H225 C239 0.941 . S
H226 C240 0.939 . S
H227 C242 0.940 . S
H228 C243 0.940 . S
H229 C245 0.939 . S
H230 C246 0.942 . S
H231 C248 0.940 . S
H232 C249 0.939 . S
H233 C251 0.941 . S
H234 C255 0.939 . S
O235 P224 1.490 . S
H236 C252 0.939 . S
H237 C254 0.940 . S
C238 P224 1.812 . S
C238 C239 1.389 . S
C238 C243 1.391 . S
C239 H225 0.941 . S
C239 C238 1.389 . S
C239 C240 1.397 . S
C240 H226 0.939 . S
C240 C239 1.397 . S
C240 C241 1.378 . S
C241 C240 1.378 . S
C241 C242 1.378 . S
C242 H227 0.940 . S
C242 C241 1.378 . S
C242 C243 1.396 . S
C243 H228 0.940 . S
C243 C238 1.391 . S
C243 C242 1.396 . S
C244 P224 1.803 . S
C244 C245 1.378 . S
C244 C249 1.400 . S
C245 H229 0.939 . S
C245 C244 1.378 . S
C245 C246 1.361 . S
C246 H230 0.942 . S
C246 C245 1.361 . S
C246 C247 1.369 . S
C247 C246 1.369 . S
C247 C248 1.404 . S
C248 H231 0.940 . S
C248 C247 1.404 . S
C248 C249 1.389 . S
C249 H232 0.939 . S
C249 C244 1.400 . S
C249 C248 1.389 . S
C250 P224 1.819 . S
C250 C251 1.391 . S
C250 C255 1.391 . S
C251 H233 0.941 . S
C251 C250 1.391 . S
C251 C252 1.396 . S
C252 H236 0.939 . S
C252 C251 1.396 . S
C252 C253 1.397 . S
C253 C252 1.397 . S
C253 C254 1.385 . S
C254 H237 0.940 . S
C254 C253 1.385 . S
C254 C255 1.388 . S
C255 H234 0.939 . S
C255 C250 1.391 . S
C255 C254 1.388 . S
C256 O272 1.251 . S
C256 O274 1.254 1_545 S
N257 C258 1.333 . S
N257 C262 1.307 . S
N257 Zn263 2.020 . S
C258 N257 1.333 . S
C258 C259 1.379 . S
C258 H276 0.952 . S
C259 C258 1.379 . S
C259 C260 1.390 . S
C259 H286 0.949 . S
C260 C259 1.390 . S
C260 C261 1.357 . S
C261 C260 1.357 . S
C261 C262 1.370 . S
C261 H287 0.950 . S
C262 N257 1.307 . S
C262 C261 1.370 . S
C262 H280 0.948 1_455 S
Zn263 N257 2.020 . S
Zn263 O272 2.039 . S
Zn263 O278 2.034 . S
Zn263 O282 2.025 1_455 S
Zn263 O284 2.024 1_455 S
C264 O283 1.246 . S
C264 O284 1.249 . S
N265 C266 1.307 . S
N265 C267 1.333 . S
N265 Zn271 2.020 . S
C266 N265 1.307 . S
C266 C270 1.370 . S
C266 H277 0.948 1_655 S
C267 N265 1.333 . S
C267 C268 1.379 . S
C267 H275 0.952 . S
C268 C267 1.379 . S
C268 C269 1.390 . S
C268 H288 0.949 . S
C269 C268 1.390 . S
C269 C270 1.357 . S
C270 C266 1.370 . S
C270 C269 1.357 . S
C270 H289 0.950 1_655 S
Zn271 N265 2.020 . S
Zn271 O274 2.025 1_655 S
Zn271 O279 2.024 1_655 S
Zn271 O281 2.039 . S
Zn271 O283 2.034 1_565 S
O272 C256 1.251 . S
O272 Zn263 2.039 . S
C273 O278 1.246 1_565 S
C273 O279 1.249 . S
O274 C256 1.254 1_565 S
O274 Zn271 2.025 1_455 S
H275 C267 0.952 . S
H276 C258 0.952 . S
H277 C266 0.948 1_455 S
O278 Zn263 2.034 . S
O278 C273 1.246 1_545 S
O279 Zn271 2.024 1_455 S
O279 C273 1.249 . S
H280 C262 0.948 1_655 S
O281 Zn271 2.039 . S
O281 C285 1.251 . S
O282 Zn263 2.025 1_655 S
O282 C285 1.254 1_545 S
O283 C264 1.246 . S
O283 Zn271 2.034 1_545 S
O284 Zn263 2.024 1_655 S
O284 C264 1.249 . S
C285 O281 1.251 . S
C285 O282 1.254 1_565 S
H286 C259 0.949 . S
H287 C261 0.950 . S
H288 C268 0.949 . S
H289 C270 0.950 1_455 S
C290 O306 1.251 1_565 S
C290 O308 1.254 1_556 S
N291 C292 1.333 . S
N291 C296 1.307 . S
N291 Zn297 2.020 . S
C292 N291 1.333 . S
C292 C293 1.379 . S
C292 H310 0.952 . S
C293 C292 1.379 . S
C293 C294 1.390 . S
C293 H320 0.949 . S
C294 C293 1.390 . S
C294 C295 1.357 . S
C295 C294 1.357 . S
C295 C296 1.370 . S
C295 H321 0.950 . S
C296 N291 1.307 . S
C296 C295 1.370 . S
C296 H314 0.948 . S
Zn297 N291 2.020 . S
Zn297 O306 2.039 . S
Zn297 O312 2.034 1_556 S
Zn297 O316 2.025 1_556 S
Zn297 O318 2.024 . S
C298 O317 1.256 . S
C298 O318 1.234 1_565 S
N299 C300 1.307 . S
N299 C301 1.333 . S
N299 Zn305 2.020 . S
C300 N299 1.307 . S
C300 C304 1.370 . S
C300 H311 0.948 . S
C301 N299 1.333 . S
C301 C302 1.379 . S
C301 H309 0.952 . S
C302 C301 1.379 . S
C302 C303 1.390 . S
C302 H322 0.949 . S
C303 C302 1.390 . S
C303 C304 1.357 . S
C304 C300 1.370 . S
C304 C303 1.357 . S
C304 H323 0.950 . S
Zn305 N299 2.020 . S
Zn305 O308 2.025 . S
Zn305 O313 2.024 . S
Zn305 O315 2.039 1_565 S
Zn305 O317 2.034 1_554 S
O306 C290 1.251 1_545 S
O306 Zn297 2.039 . S
C307 O312 1.246 . S
C307 O313 1.249 1_545 S
O308 C290 1.254 1_554 S
O308 Zn305 2.025 . S
H309 C301 0.952 . S
H310 C292 0.952 . S
H311 C300 0.948 . S
O312 Zn297 2.034 1_554 S
O312 C307 1.246 . S
O313 Zn305 2.024 . S
O313 C307 1.249 1_565 S
H314 C296 0.948 . S
O315 Zn305 2.039 1_545 S
O315 C319 1.251 . S
O316 Zn297 2.025 1_554 S
O316 C319 1.254 . S
O317 C298 1.256 . S
O317 Zn305 2.034 1_556 S
O318 Zn297 2.024 . S
O318 C298 1.234 1_545 S
C319 O315 1.251 . S
C319 O316 1.254 . S
H320 C293 0.949 . S
H321 C295 0.950 . S
H322 C302 0.949 . S
H323 C304 0.950 . S
C324 O340 1.251 . S
C324 O342 1.254 . S
N325 C326 1.333 . S
N325 C330 1.307 . S
N325 Zn331 2.020 . S
C326 N325 1.333 . S
C326 C327 1.379 . S
C326 H344 0.952 . S
C327 C326 1.379 . S
C327 C328 1.390 . S
C327 H354 0.949 . S
C328 C327 1.390 . S
C328 C329 1.357 . S
C329 C328 1.357 . S
C329 C330 1.370 . S
C329 H355 0.950 . S
C330 N325 1.307 . S
C330 C329 1.370 . S
C330 H348 0.948 . S
Zn331 N325 2.020 . S
Zn331 O340 2.039 . S
Zn331 O346 2.034 . S
Zn331 O350 2.025 . S
Zn331 O352 2.024 . S
C332 O351 1.246 . S
C332 O352 1.249 . S
N333 C334 1.307 . S
N333 C335 1.333 . S
N333 Zn339 2.020 . S
C334 N333 1.307 . S
C334 C338 1.370 . S
C334 H345 0.948 . S
C335 N333 1.333 . S
C335 C336 1.379 . S
C335 H343 0.952 . S
C336 C335 1.379 . S
C336 C337 1.390 . S
C336 H356 0.949 . S
C337 C336 1.390 . S
C337 C338 1.357 . S
C338 C334 1.370 . S
C338 C337 1.357 . S
C338 H357 0.950 . S
Zn339 N333 2.020 . S
Zn339 O342 2.025 . S
Zn339 O347 2.024 . S
Zn339 O349 2.039 . S
Zn339 O351 2.034 . S
O340 C324 1.251 . S
O340 Zn331 2.039 . S
C341 O346 1.246 . S
C341 O347 1.249 . S
O342 C324 1.254 . S
O342 Zn339 2.025 . S
H343 C335 0.952 . S
H344 C326 0.952 . S
H345 C334 0.948 . S
O346 Zn331 2.034 . S
O346 C341 1.246 . S
O347 Zn339 2.024 . S
O347 C341 1.249 . S
H348 C330 0.948 . S
O349 Zn339 2.039 . S
O349 C353 1.251 . S
O350 Zn331 2.025 . S
O350 C353 1.254 . S
O351 C332 1.246 . S
O351 Zn339 2.034 . S
O352 Zn331 2.024 . S
O352 C332 1.249 . S
C353 O349 1.251 . S
C353 O350 1.254 . S
H354 C327 0.949 . S
H355 C329 0.950 . S
H356 C336 0.949 . S
H357 C338 0.950 . S
C358 O374 1.251 1_556 S
C358 O376 1.254 . S
N359 C360 1.333 . S
N359 C364 1.307 . S
N359 Zn365 2.020 . S
C360 N359 1.333 . S
C360 C361 1.379 . S
C360 H378 0.952 . S
C361 C360 1.379 . S
C361 C362 1.390 . S
C361 H388 0.949 . S
C362 C361 1.390 . S
C362 C363 1.357 . S
C363 C362 1.357 . S
C363 C364 1.370 . S
C363 H389 0.950 . S
C364 N359 1.307 . S
C364 C363 1.370 . S
C364 H382 0.948 . S
Zn365 N359 2.020 . S
Zn365 O374 2.039 . S
Zn365 O380 2.034 1_655 S
Zn365 O384 2.025 1_655 S
Zn365 O386 2.024 . S
C366 O385 1.246 . S
C366 O386 1.249 1_556 S
N367 C368 1.307 . S
N367 C369 1.333 . S
N367 Zn373 2.020 . S
C368 N367 1.307 . S
C368 C372 1.370 . S
C368 H379 0.948 . S
C369 N367 1.333 . S
C369 C370 1.379 . S
C369 H377 0.952 . S
C370 C369 1.379 . S
C370 C371 1.390 . S
C370 H390 0.949 . S
C371 C370 1.390 . S
C371 C372 1.357 . S
C372 C368 1.370 . S
C372 C371 1.357 . S
C372 H391 0.950 . S
Zn373 N367 2.020 . S
Zn373 O376 2.025 1_455 S
Zn373 O381 2.024 . S
Zn373 O383 2.039 . S
Zn373 O385 2.034 1_455 S
O374 C358 1.251 1_554 S
O374 Zn365 2.039 . S
C375 O380 1.246 . S
C375 O381 1.249 1_554 S
O376 C358 1.254 . S
O376 Zn373 2.025 1_655 S
H377 C369 0.952 . S
H378 C360 0.952 . S
H379 C368 0.948 . S
O380 Zn365 2.034 1_455 S
O380 C375 1.246 . S
O381 Zn373 2.024 . S
O381 C375 1.249 1_556 S
H382 C364 0.948 . S
O383 Zn373 2.039 . S
O383 C387 1.251 1_556 S
O384 Zn365 2.025 1_455 S
O384 C387 1.254 . S
O385 C366 1.246 . S
O385 Zn373 2.034 1_655 S
O386 Zn365 2.024 . S
O386 C366 1.249 1_554 S
C387 O383 1.251 1_554 S
C387 O384 1.254 . S
H388 C361 0.949 . S
H389 C363 0.950 . S
H390 C370 0.949 . S
H391 C372 0.950 . S
C392 C393 1.391 . S
C392 C394 1.394 . S
C392 H408 0.931 . S
C393 C392 1.391 . S
C393 C397 1.376 . S
C394 C392 1.394 . S
C394 C395 1.369 . S
C394 C398 1.531 . S
C395 C394 1.369 . S
C395 C396 1.410 . S
C395 C403 1.503 . S
C396 C395 1.410 . S
C396 C397 1.392 . S
C396 C399 1.511 1_455 S
C397 C393 1.376 . S
C397 C396 1.392 . S
C397 H409 0.929 . S
C398 C394 1.531 . S
C398 H410 0.960 . S
C398 H411 0.962 . S
C398 H412 0.960 . S
C399 C396 1.511 1_655 S
C399 H413 0.961 . S
C399 H414 0.961 . S
C399 H415 0.961 . S
C400 C401 1.370 . S
C400 C402 1.363 . S
C400 H416 0.920 1_545 S
C401 C400 1.370 . S
C401 C405 1.408 . S
C402 C400 1.363 . S
C402 C403 1.370 . S
C402 C406 1.524 . S
C403 C395 1.503 . S
C403 C402 1.370 . S
C403 C404 1.403 . S
C404 C403 1.403 . S
C404 C405 1.404 . S
C404 C407 1.539 . S
C405 C401 1.408 . S
C405 C404 1.404 . S
C405 H417 0.930 . S
C406 C402 1.524 . S
C406 H418 0.956 . S
C406 H419 0.961 . S
C406 H420 0.961 1_545 S
C407 C404 1.539 . S
C407 H421 0.958 . S
C407 H422 0.961 . S
C407 H423 0.960 . S
H408 C392 0.931 . S
H409 C397 0.929 . S
H410 C398 0.960 . S
H411 C398 0.962 . S
H412 C398 0.960 . S
H413 C399 0.961 . S
H414 C399 0.961 . S
H415 C399 0.961 . S
H416 C400 0.920 1_565 S
H417 C405 0.930 . S
H418 C406 0.956 . S
H419 C406 0.961 . S
H420 C406 0.961 1_565 S
H421 C407 0.958 . S
H422 C407 0.961 . S
H423 C407 0.960 . S
C424 C425 1.391 . S
C424 C426 1.394 . S
C424 H440 0.931 . S
C425 C424 1.391 . S
C425 C429 1.376 . S
C426 C424 1.394 . S
C426 C427 1.369 . S
C426 C430 1.531 . S
C427 C426 1.369 . S
C427 C428 1.410 . S
C427 C435 1.503 . S
C428 C427 1.410 . S
C428 C429 1.392 . S
C428 C431 1.511 . S
C429 C425 1.376 . S
C429 C428 1.392 . S
C429 H441 0.929 . S
C430 C426 1.531 . S
C430 H442 0.960 . S
C430 H443 0.962 . S
C430 H444 0.960 . S
C431 C428 1.511 . S
C431 H445 0.961 . S
C431 H446 0.961 . S
C431 H447 0.961 . S
C432 C433 1.370 1_545 S
C432 C434 1.363 1_545 S
C432 H448 0.931 . S
C433 C432 1.370 1_565 S
C433 C437 1.408 . S
C434 C432 1.363 1_565 S
C434 C435 1.370 . S
C434 C438 1.524 1_565 S
C435 C427 1.503 . S
C435 C434 1.370 . S
C435 C436 1.403 . S
C436 C435 1.403 . S
C436 C437 1.404 . S
C436 C439 1.539 . S
C437 C433 1.408 . S
C437 C436 1.404 . S
C437 H449 0.930 . S
C438 C434 1.524 1_545 S
C438 H450 0.956 . S
C438 H451 0.961 . S
C438 H452 0.961 . S
C439 C436 1.539 . S
C439 H453 0.958 . S
C439 H454 0.961 . S
C439 H455 0.960 . S
H440 C424 0.931 . S
H441 C429 0.929 . S
H442 C430 0.960 . S
H443 C430 0.962 . S
H444 C430 0.960 . S
H445 C431 0.961 . S
H446 C431 0.961 . S
H447 C431 0.961 . S
H448 C432 0.931 . S
H449 C437 0.930 . S
H450 C438 0.956 . S
H451 C438 0.961 . S
H452 C438 0.961 . S
H453 C439 0.958 . S
H454 C439 0.961 . S
H455 C439 0.960 . S
C456 C457 1.391 . S
C456 C458 1.394 . S
C456 H472 0.931 . S
C457 C456 1.391 . S
C457 C461 1.376 . S
C458 C456 1.394 . S
C458 C459 1.369 . S
C458 C462 1.531 . S
C459 C458 1.369 . S
C459 C460 1.410 . S
C459 C467 1.503 . S
C460 C459 1.410 . S
C460 C461 1.392 . S
C460 C463 1.511 . S
C461 C457 1.376 . S
C461 C460 1.392 . S
C461 H473 0.929 . S
C462 C458 1.531 . S
C462 H474 0.960 . S
C462 H475 0.962 . S
C462 H476 0.960 . S
C463 C460 1.511 . S
C463 H477 0.961 . S
C463 H478 0.961 . S
C463 H479 0.961 . S
C464 C465 1.370 . S
C464 C466 1.363 . S
C464 H480 0.931 . S
C465 C464 1.370 . S
C465 C469 1.408 . S
C466 C464 1.363 . S
C466 C467 1.370 . S
C466 C470 1.524 . S
C467 C459 1.503 . S
C467 C466 1.370 . S
C467 C468 1.403 . S
C468 C467 1.403 . S
C468 C469 1.404 . S
C468 C471 1.539 . S
C469 C465 1.408 . S
C469 C468 1.404 . S
C469 H481 0.930 . S
C470 C466 1.524 . S
C470 H482 0.956 . S
C470 H483 0.961 . S
C470 H484 0.961 . S
C471 C468 1.539 . S
C471 H485 0.958 . S
C471 H486 0.961 . S
C471 H487 0.960 . S
H472 C456 0.931 . S
H473 C461 0.929 . S
H474 C462 0.960 . S
H475 C462 0.962 . S
H476 C462 0.960 . S
H477 C463 0.961 . S
H478 C463 0.961 . S
H479 C463 0.961 . S
H480 C464 0.931 . S
H481 C469 0.930 . S
H482 C470 0.956 . S
H483 C470 0.961 . S
H484 C470 0.961 . S
H485 C471 0.958 . S
H486 C471 0.961 . S
H487 C471 0.960 . S
C488 C489 1.391 . S
C488 C490 1.394 . S
C488 H504 0.931 . S
C489 C488 1.391 . S
C489 C493 1.376 . S
C490 C488 1.394 . S
C490 C491 1.369 . S
C490 C494 1.531 . S
C491 C490 1.369 . S
C491 C492 1.410 . S
C491 C499 1.503 . S
C492 C491 1.410 . S
C492 C493 1.392 . S
C492 C495 1.511 . S
C493 C489 1.376 . S
C493 C492 1.392 . S
C493 H505 0.929 . S
C494 C490 1.531 . S
C494 H506 0.960 . S
C494 H507 0.962 . S
C494 H508 0.960 . S
C495 C492 1.511 . S
C495 H509 0.961 . S
C495 H510 0.961 . S
C495 H511 0.961 . S
C496 C497 1.370 . S
C496 C498 1.363 . S
C496 H512 0.931 . S
C497 C496 1.370 . S
C497 C501 1.408 . S
C498 C496 1.363 . S
C498 C499 1.370 . S
C498 C502 1.524 . S
C499 C491 1.503 . S
C499 C498 1.370 . S
C499 C500 1.403 . S
C500 C499 1.403 . S
C500 C501 1.404 . S
C500 C503 1.539 . S
C501 C497 1.408 . S
C501 C500 1.404 . S
C501 H513 0.930 . S
C502 C498 1.524 . S
C502 H514 0.956 . S
C502 H515 0.961 . S
C502 H516 0.961 . S
C503 C500 1.539 . S
C503 H517 0.958 . S
C503 H518 0.961 . S
C503 H519 0.960 . S
H504 C488 0.931 . S
H505 C493 0.929 . S
H506 C494 0.960 . S
H507 C494 0.962 . S
H508 C494 0.960 . S
H509 C495 0.961 . S
H510 C495 0.961 . S
H511 C495 0.961 . S
H512 C496 0.931 . S
H513 C501 0.930 . S
H514 C502 0.956 . S
H515 C502 0.961 . S
H516 C502 0.961 . S
H517 C503 0.958 . S
H518 C503 0.961 . S
H519 C503 0.960 . S
C520 C521 1.391 . S
C520 C522 1.394 . S
C520 H536 0.931 . S
C521 C520 1.391 . S
C521 C525 1.376 . S
C522 C520 1.394 . S
C522 C523 1.369 . S
C522 C526 1.531 . S
C523 C522 1.369 . S
C523 C524 1.410 . S
C523 C531 1.503 . S
C524 C523 1.410 . S
C524 C525 1.392 . S
C524 C527 1.511 . S
C525 C521 1.376 . S
C525 C524 1.392 . S
C525 H537 0.929 . S
C526 C522 1.531 . S
C526 H538 0.960 . S
C526 H539 0.962 . S
C526 H540 0.960 . S
C527 C524 1.511 . S
C527 H541 0.961 . S
C527 H542 0.961 . S
C527 H543 0.961 . S
C528 C529 1.370 . S
C528 C530 1.363 . S
C528 H544 0.931 . S
C529 C528 1.370 . S
C529 C533 1.408 . S
C530 C528 1.363 . S
C530 C531 1.370 . S
C530 C534 1.524 . S
C531 C523 1.503 . S
C531 C530 1.370 . S
C531 C532 1.403 . S
C532 C531 1.403 . S
C532 C533 1.404 . S
C532 C535 1.539 . S
C533 C529 1.408 . S
C533 C532 1.404 . S
C533 H545 0.930 . S
C534 C530 1.524 . S
C534 H546 0.956 . S
C534 H547 0.961 . S
C534 H548 0.961 1_545 S
C535 C532 1.539 . S
C535 H549 0.958 . S
C535 H550 0.961 . S
C535 H551 0.960 . S
H536 C520 0.931 . S
H537 C525 0.929 . S
H538 C526 0.960 . S
H539 C526 0.962 . S
H540 C526 0.960 . S
H541 C527 0.961 . S
H542 C527 0.961 . S
H543 C527 0.961 . S
H544 C528 0.931 . S
H545 C533 0.930 . S
H546 C534 0.956 . S
H547 C534 0.961 . S
H548 C534 0.961 1_565 S
H549 C535 0.958 . S
H550 C535 0.961 . S
H551 C535 0.960 . S
C552 C553 1.391 . S
C552 C554 1.394 . S
C552 H568 0.931 . S
C553 C552 1.391 . S
C553 C557 1.376 . S
C554 C552 1.394 . S
C554 C555 1.369 . S
C554 C558 1.531 . S
C555 C554 1.369 . S
C555 C556 1.410 . S
C555 C563 1.503 . S
C556 C555 1.410 . S
C556 C557 1.392 . S
C556 C559 1.511 . S
C557 C553 1.376 . S
C557 C556 1.392 . S
C557 H569 0.929 . S
C558 C554 1.531 . S
C558 H570 0.960 . S
C558 H571 0.962 . S
C558 H572 0.960 . S
C559 C556 1.511 . S
C559 H573 0.961 . S
C559 H574 0.961 . S
C559 H575 0.961 . S
C560 C561 1.370 . S
C560 C562 1.363 . S
C560 H576 0.931 . S
C561 C560 1.370 . S
C561 C565 1.408 1_565 S
C562 C560 1.363 . S
C562 C563 1.370 . S
C562 C566 1.524 . S
C563 C555 1.503 . S
C563 C562 1.370 . S
C563 C564 1.403 . S
C564 C563 1.403 . S
C564 C565 1.404 1_565 S
C564 C567 1.539 1_565 S
C565 C561 1.408 1_545 S
C565 C564 1.404 1_545 S
C565 H577 0.930 . S
C566 C562 1.524 . S
C566 H578 0.956 . S
C566 H579 0.961 . S
C566 H580 0.961 . S
C567 C564 1.539 1_545 S
C567 H581 0.958 . S
C567 H582 0.961 . S
C567 H583 0.960 . S
H568 C552 0.931 . S
H569 C557 0.929 . S
H570 C558 0.960 . S
H571 C558 0.962 . S
H572 C558 0.960 . S
H573 C559 0.961 . S
H574 C559 0.961 . S
H575 C559 0.961 . S
H576 C560 0.931 . S
H577 C565 0.930 . S
H578 C566 0.956 . S
H579 C566 0.961 . S
H580 C566 0.961 . S
H581 C567 0.958 . S
H582 C567 0.961 . S
H583 C567 0.960 . S
C584 C585 1.391 . S
C584 C586 1.394 . S
C584 H600 0.931 . S
C585 C584 1.391 . S
C585 C589 1.376 . S
C586 C584 1.394 . S
C586 C587 1.369 . S
C586 C590 1.531 1_556 S
C587 C586 1.369 . S
C587 C588 1.410 . S
C587 C595 1.503 . S
C588 C587 1.410 . S
C588 C589 1.392 . S
C588 C591 1.511 . S
C589 C585 1.376 . S
C589 C588 1.392 . S
C589 H601 0.929 . S
C590 C586 1.531 1_554 S
C590 H602 0.960 . S
C590 H603 0.962 . S
C590 H604 0.960 . S
C591 C588 1.511 . S
C591 H605 0.961 . S
C591 H606 0.961 . S
C591 H607 0.961 . S
C592 C593 1.370 . S
C592 C594 1.363 . S
C592 H608 0.931 . S
C593 C592 1.370 . S
C593 C597 1.408 . S
C594 C592 1.363 . S
C594 C595 1.370 . S
C594 C598 1.524 . S
C595 C587 1.503 . S
C595 C594 1.370 . S
C595 C596 1.403 . S
C596 C595 1.403 . S
C596 C597 1.404 . S
C596 C599 1.539 . S
C597 C593 1.408 . S
C597 C596 1.404 . S
C597 H609 0.930 . S
C598 C594 1.524 . S
C598 H610 0.956 . S
C598 H611 0.961 . S
C598 H612 0.961 . S
C599 C596 1.539 . S
C599 H613 0.958 . S
C599 H614 0.961 . S
C599 H615 0.960 . S
H600 C584 0.931 . S
H601 C589 0.929 . S
H602 C590 0.960 . S
H603 C590 0.962 . S
H604 C590 0.960 . S
H605 C591 0.961 . S
H606 C591 0.961 . S
H607 C591 0.961 . S
H608 C592 0.931 . S
H609 C597 0.930 . S
H610 C598 0.956 . S
H611 C598 0.961 . S
H612 C598 0.961 . S
H613 C599 0.958 . S
H614 C599 0.961 . S
H615 C599 0.960 . S
C616 C617 1.391 . S
C616 C618 1.394 . S
C616 H632 0.931 . S
C617 C616 1.391 . S
C617 C621 1.376 . S
C618 C616 1.394 . S
C618 C619 1.369 . S
C618 C622 1.531 . S
C619 C618 1.369 . S
C619 C620 1.410 . S
C619 C627 1.503 . S
C620 C619 1.410 . S
C620 C621 1.392 . S
C620 C623 1.511 . S
C621 C617 1.376 . S
C621 C620 1.392 . S
C621 H633 0.929 . S
C622 C618 1.531 . S
C622 H634 0.960 . S
C622 H635 0.962 . S
C622 H636 0.960 . S
C623 C620 1.511 . S
C623 H637 0.961 . S
C623 H638 0.961 . S
C623 H639 0.961 . S
C624 C625 1.370 . S
C624 C626 1.363 . S
C624 H640 0.931 . S
C625 C624 1.370 . S
C625 C629 1.408 . S
C626 C624 1.363 . S
C626 C627 1.370 . S
C626 C630 1.524 . S
C627 C619 1.503 . S
C627 C626 1.370 . S
C627 C628 1.403 . S
C628 C627 1.403 . S
C628 C629 1.404 . S
C628 C631 1.539 . S
C629 C625 1.408 . S
C629 C628 1.404 . S
C629 H641 0.930 . S
C630 C626 1.524 . S
C630 H642 0.956 . S
C630 H643 0.961 . S
C630 H644 0.961 . S
C631 C628 1.539 . S
C631 H645 0.958 . S
C631 H646 0.961 . S
C631 H647 0.960 . S
H632 C616 0.931 . S
H633 C621 0.929 . S
H634 C622 0.960 . S
H635 C622 0.962 . S
H636 C622 0.960 . S
H637 C623 0.961 . S
H638 C623 0.961 . S
H639 C623 0.961 . S
H640 C624 0.931 . S
H641 C629 0.930 . S
H642 C630 0.956 . S
H643 C630 0.961 . S
H644 C630 0.961 . S
H645 C631 0.958 . S
H646 C631 0.961 . S
H647 C631 0.960 . S
C648 C649 1.391 . S
C648 C650 1.394 . S
C648 H664 0.931 . S
C649 C648 1.391 . S
C649 C653 1.376 . S
C650 C648 1.394 . S
C650 C651 1.369 . S
C650 C654 1.531 . S
C651 C650 1.369 . S
C651 C652 1.410 . S
C651 C659 1.503 . S
C652 C651 1.410 . S
C652 C653 1.392 . S
C652 C655 1.511 . S
C653 C649 1.376 . S
C653 C652 1.392 . S
C653 H665 0.929 . S
C654 C650 1.531 . S
C654 H666 0.960 . S
C654 H667 0.962 . S
C654 H668 0.960 . S
C655 C652 1.511 . S
C655 H669 0.961 . S
C655 H670 0.961 . S
C655 H671 0.961 1_455 S
C656 C657 1.370 . S
C656 C658 1.363 . S
C656 H672 0.931 . S
C657 C656 1.370 . S
C657 C661 1.408 . S
C658 C656 1.363 . S
C658 C659 1.370 . S
C658 C662 1.524 . S
C659 C651 1.503 . S
C659 C658 1.370 . S
C659 C660 1.403 . S
C660 C659 1.403 . S
C660 C661 1.404 . S
C660 C663 1.539 . S
C661 C657 1.408 . S
C661 C660 1.404 . S
C661 H673 0.930 . S
C662 C658 1.524 . S
C662 H674 0.956 . S
C662 H675 0.961 . S
C662 H676 0.961 . S
C663 C660 1.539 . S
C663 H677 0.958 1_554 S
C663 H678 0.961 1_455 S
C663 H679 0.960 1_455 S
H664 C648 0.931 . S
H665 C653 0.929 . S
H666 C654 0.960 . S
H667 C654 0.962 . S
H668 C654 0.960 . S
H669 C655 0.961 . S
H670 C655 0.961 . S
H671 C655 0.961 1_655 S
H672 C656 0.931 . S
H673 C661 0.930 . S
H674 C662 0.956 . S
H675 C662 0.961 . S
H676 C662 0.961 . S
H677 C663 0.958 1_556 S
H678 C663 0.961 1_655 S
H679 C663 0.960 1_655 S
C680 C681 1.391 . S
C680 C682 1.394 . S
C680 H696 0.931 . S
C681 C680 1.391 . S
C681 C685 1.376 . S
C682 C680 1.394 . S
C682 C683 1.369 . S
C682 C686 1.531 . S
C683 C682 1.369 . S
C683 C684 1.410 . S
C683 C691 1.503 . S
C684 C683 1.410 . S
C684 C685 1.392 . S
C684 C687 1.511 . S
C685 C681 1.376 . S
C685 C684 1.392 . S
C685 H697 0.929 . S
C686 C682 1.531 . S
C686 H698 0.960 . S
C686 H699 0.962 1_556 S
C686 H700 0.960 . S
C687 C684 1.511 . S
C687 H701 0.961 . S
C687 H702 0.961 . S
C687 H703 0.961 . S
C688 C689 1.370 . S
C688 C690 1.363 . S
C688 H704 0.931 . S
C689 C688 1.370 . S
C689 C693 1.408 . S
C690 C688 1.363 . S
C690 C691 1.370 . S
C690 C694 1.524 . S
C691 C683 1.503 . S
C691 C690 1.370 . S
C691 C692 1.403 . S
C692 C691 1.403 . S
C692 C693 1.404 . S
C692 C695 1.539 . S
C693 C689 1.408 . S
C693 C692 1.404 . S
C693 H705 0.930 . S
C694 C690 1.524 . S
C694 H706 0.956 1_556 S
C694 H707 0.961 . S
C694 H708 0.961 1_556 S
C695 C692 1.539 . S
C695 H709 0.958 . S
C695 H710 0.961 . S
C695 H711 0.960 . S
H696 C680 0.931 . S
H697 C685 0.929 . S
H698 C686 0.960 . S
H699 C686 0.962 1_554 S
H700 C686 0.960 . S
H701 C687 0.961 . S
H702 C687 0.961 . S
H703 C687 0.961 . S
H704 C688 0.931 . S
H705 C693 0.930 . S
H706 C694 0.956 1_554 S
H707 C694 0.961 . S
H708 C694 0.961 1_554 S
H709 C695 0.958 . S
H710 C695 0.961 . S
H711 C695 0.960 . S
C712 C713 1.391 . S
C712 C714 1.394 . S
C712 H728 0.931 . S
C713 C712 1.391 . S
C713 C717 1.376 . S
C714 C712 1.394 . S
C714 C715 1.369 . S
C714 C718 1.531 . S
C715 C714 1.369 . S
C715 C716 1.410 . S
C715 C723 1.503 . S
C716 C715 1.410 . S
C716 C717 1.392 . S
C716 C719 1.511 . S
C717 C713 1.376 . S
C717 C716 1.392 . S
C717 H729 0.929 . S
C718 C714 1.531 . S
C718 H730 0.960 . S
C718 H731 0.962 . S
C718 H732 0.960 . S
C719 C716 1.511 . S
C719 H733 0.961 . S
C719 H734 0.961 . S
C719 H735 0.961 . S
C720 C721 1.370 . S
C720 C722 1.363 . S
C720 H736 0.931 . S
C721 C720 1.370 . S
C721 C725 1.408 . S
C722 C720 1.363 . S
C722 C723 1.370 . S
C722 C726 1.524 . S
C723 C715 1.503 . S
C723 C722 1.370 . S
C723 C724 1.403 . S
C724 C723 1.403 . S
C724 C725 1.404 . S
C724 C727 1.539 . S
C725 C721 1.408 . S
C725 C724 1.404 . S
C725 H737 0.930 . S
C726 C722 1.524 . S
C726 H738 0.956 . S
C726 H739 0.961 . S
C726 H740 0.961 . S
C727 C724 1.539 . S
C727 H741 0.958 . S
C727 H742 0.961 . S
C727 H743 0.960 . S
H728 C712 0.931 . S
H729 C717 0.929 . S
H730 C718 0.960 . S
H731 C718 0.962 . S
H732 C718 0.960 . S
H733 C719 0.961 . S
H734 C719 0.961 . S
H735 C719 0.961 . S
H736 C720 0.931 . S
H737 C725 0.930 . S
H738 C726 0.956 . S
H739 C726 0.961 . S
H740 C726 0.961 . S
H741 C727 0.958 . S
H742 C727 0.961 . S
H743 C727 0.960 . S
C744 C745 1.391 . S
C744 C746 1.394 . S
C744 H760 0.931 . S
C745 C744 1.391 . S
C745 C749 1.376 . S
C746 C744 1.394 . S
C746 C747 1.369 . S
C746 C750 1.531 . S
C747 C746 1.369 . S
C747 C748 1.410 . S
C747 C755 1.503 . S
C748 C747 1.410 . S
C748 C749 1.392 . S
C748 C751 1.511 . S
C749 C745 1.376 . S
C749 C748 1.392 . S
C749 H761 0.929 . S
C750 C746 1.531 . S
C750 H762 0.960 . S
C750 H763 0.962 . S
C750 H764 0.960 . S
C751 C748 1.511 . S
C751 H765 0.961 . S
C751 H766 0.961 . S
C751 H767 0.961 . S
C752 C753 1.370 . S
C752 C754 1.363 . S
C752 H768 0.931 . S
C753 C752 1.370 . S
C753 C757 1.408 . S
C754 C752 1.363 . S
C754 C755 1.370 . S
C754 C758 1.524 . S
C755 C747 1.503 . S
C755 C754 1.370 . S
C755 C756 1.403 . S
C756 C755 1.403 . S
C756 C757 1.404 . S
C756 C759 1.539 . S
C757 C753 1.408 . S
C757 C756 1.404 . S
C757 H769 0.930 . S
C758 C754 1.524 . S
C758 H770 0.956 . S
C758 H771 0.961 . S
C758 H772 0.961 . S
C759 C756 1.539 . S
C759 H773 0.958 . S
C759 H774 0.961 . S
C759 H775 0.960 . S
H760 C744 0.931 . S
H761 C749 0.929 . S
H762 C750 0.960 . S
H763 C750 0.962 . S
H764 C750 0.960 . S
H765 C751 0.961 . S
H766 C751 0.961 . S
H767 C751 0.961 . S
H768 C752 0.931 . S
H769 C757 0.930 . S
H770 C758 0.956 . S
H771 C758 0.961 . S
H772 C758 0.961 . S
H773 C759 0.958 . S
H774 C759 0.961 . S
H775 C759 0.960 . S
C776 C777 1.391 . S
C776 C778 1.394 . S
C776 H792 0.931 . S
C777 C776 1.391 . S
C777 C781 1.376 . S
C778 C776 1.394 . S
C778 C779 1.369 . S
C778 C782 1.531 . S
C779 C778 1.369 . S
C779 C780 1.410 . S
C779 C787 1.503 . S
C780 C779 1.410 . S
C780 C781 1.392 . S
C780 C783 1.511 1_565 S
C781 C777 1.376 . S
C781 C780 1.392 . S
C781 H793 0.929 . S
C782 C778 1.531 . S
C782 H794 0.960 . S
C782 H795 0.962 . S
C782 H796 0.960 . S
C783 C780 1.511 1_545 S
C783 H797 0.961 . S
C783 H798 0.961 . S
C783 H799 0.961 . S
C784 C785 1.370 . S
C784 C786 1.363 . S
C784 H800 0.931 1_655 S
C785 C784 1.370 . S
C785 C789 1.408 . S
C786 C784 1.363 . S
C786 C787 1.370 . S
C786 C790 1.524 1_655 S
C787 C779 1.503 . S
C787 C786 1.370 . S
C787 C788 1.403 . S
C788 C787 1.403 . S
C788 C789 1.404 . S
C788 C791 1.539 . S
C789 C785 1.408 . S
C789 C788 1.404 . S
C789 H801 0.930 . S
C790 C786 1.524 1_455 S
C790 H802 0.956 . S
C790 H803 0.961 . S
C790 H804 0.961 . S
C791 C788 1.539 . S
C791 H805 0.958 . S
C791 H806 0.961 . S
C791 H807 0.960 . S
H792 C776 0.931 . S
H793 C781 0.929 . S
H794 C782 0.960 . S
H795 C782 0.962 . S
H796 C782 0.960 . S
H797 C783 0.961 . S
H798 C783 0.961 . S
H799 C783 0.961 . S
H800 C784 0.931 1_455 S
H801 C789 0.930 . S
H802 C790 0.956 . S
H803 C790 0.961 . S
H804 C790 0.961 . S
H805 C791 0.958 . S
H806 C791 0.961 . S
H807 C791 0.960 . S
C808 C809 1.391 . S
C808 C810 1.394 . S
C808 H824 0.931 . S
C809 C808 1.391 . S
C809 C813 1.376 . S
C810 C808 1.394 . S
C810 C811 1.369 . S
C810 C814 1.531 . S
C811 C810 1.369 . S
C811 C812 1.410 . S
C811 C819 1.503 . S
C812 C811 1.410 . S
C812 C813 1.392 . S
C812 C815 1.511 . S
C813 C809 1.376 . S
C813 C812 1.392 . S
C813 H825 0.929 . S
C814 C810 1.531 . S
C814 H826 0.960 . S
C814 H827 0.962 . S
C814 H828 0.960 . S
C815 C812 1.511 . S
C815 H829 0.961 . S
C815 H830 0.961 . S
C815 H831 0.961 . S
C816 C817 1.370 . S
C816 C818 1.363 . S
C816 H832 0.931 . S
C817 C816 1.370 . S
C817 C821 1.408 . S
C818 C816 1.363 . S
C818 C819 1.370 . S
C818 C822 1.524 . S
C819 C811 1.503 . S
C819 C818 1.370 . S
C819 C820 1.403 . S
C820 C819 1.403 . S
C820 C821 1.404 . S
C820 C823 1.520 1_545 S
C821 C817 1.408 . S
C821 C820 1.404 . S
C821 H833 0.930 1_545 S
C822 C818 1.524 . S
C822 H834 0.956 . S
C822 H835 0.961 . S
C822 H836 0.961 . S
C823 C820 1.520 1_565 S
C823 H837 0.971 . S
C823 H838 0.979 . S
C823 H839 0.948 1_565 S
H824 C808 0.931 . S
H825 C813 0.929 . S
H826 C814 0.960 . S
H827 C814 0.962 . S
H828 C814 0.960 . S
H829 C815 0.961 . S
H830 C815 0.961 . S
H831 C815 0.961 . S
H832 C816 0.931 . S
H833 C821 0.930 1_565 S
H834 C822 0.956 . S
H835 C822 0.961 . S
H836 C822 0.961 . S
H837 C823 0.971 . S
H838 C823 0.979 . S
H839 C823 0.948 1_545 S
C840 C841 1.391 . S
C840 C842 1.394 . S
C840 H856 0.931 . S
C841 C840 1.391 . S
C841 C845 1.376 . S
C842 C840 1.394 . S
C842 C843 1.369 . S
C842 C846 1.531 . S
C843 C842 1.369 . S
C843 C844 1.410 . S
C843 C851 1.503 . S
C844 C843 1.410 . S
C844 C845 1.392 . S
C844 C847 1.511 . S
C845 C841 1.376 . S
C845 C844 1.392 . S
C845 H857 0.929 . S
C846 C842 1.531 . S
C846 H858 0.960 . S
C846 H859 0.962 . S
C846 H860 0.960 . S
C847 C844 1.511 . S
C847 H861 0.961 . S
C847 H862 0.961 . S
C847 H863 0.961 . S
C848 C849 1.370 . S
C848 C850 1.363 . S
C848 H864 0.931 . S
C849 C848 1.370 . S
C849 C853 1.408 . S
C850 C848 1.363 . S
C850 C851 1.370 . S
C850 C854 1.524 . S
C851 C843 1.503 . S
C851 C850 1.370 . S
C851 C852 1.403 . S
C852 C851 1.403 . S
C852 C853 1.404 . S
C852 C855 1.539 . S
C853 C849 1.408 . S
C853 C852 1.404 . S
C853 H865 0.930 . S
C854 C850 1.524 . S
C854 H866 0.956 . S
C854 H867 0.961 . S
C854 H868 0.961 . S
C855 C852 1.539 . S
C855 H869 0.958 . S
C855 H870 0.961 . S
C855 H871 0.960 . S
H856 C840 0.931 . S
H857 C845 0.929 . S
H858 C846 0.960 . S
H859 C846 0.962 . S
H860 C846 0.960 . S
H861 C847 0.961 . S
H862 C847 0.961 . S
H863 C847 0.961 . S
H864 C848 0.931 . S
H865 C853 0.930 . S
H866 C854 0.956 . S
H867 C854 0.961 . S
H868 C854 0.961 . S
H869 C855 0.958 . S
H870 C855 0.961 . S
H871 C855 0.960 . S
C872 C873 1.391 . S
C872 C874 1.394 . S
C872 H888 0.931 . S
C873 C872 1.391 . S
C873 C877 1.376 . S
C874 C872 1.394 . S
C874 C875 1.369 . S
C874 C878 1.531 . S
C875 C874 1.369 . S
C875 C876 1.410 . S
C875 C883 1.503 . S
C876 C875 1.410 . S
C876 C877 1.392 . S
C876 C879 1.511 . S
C877 C873 1.376 . S
C877 C876 1.392 . S
C877 H889 0.929 . S
C878 C874 1.531 . S
C878 H890 0.960 . S
C878 H891 0.962 . S
C878 H892 0.960 . S
C879 C876 1.511 . S
C879 H893 0.961 . S
C879 H894 0.961 . S
C879 H895 0.961 . S
C880 C881 1.370 . S
C880 C882 1.363 . S
C880 H896 0.931 . S
C881 C880 1.370 . S
C881 C885 1.408 . S
C882 C880 1.363 . S
C882 C883 1.370 . S
C882 C886 1.524 . S
C883 C875 1.503 . S
C883 C882 1.370 . S
C883 C884 1.403 . S
C884 C883 1.403 . S
C884 C885 1.404 . S
C884 C887 1.539 . S
C885 C881 1.408 . S
C885 C884 1.404 . S
C885 H897 0.930 . S
C886 C882 1.524 . S
C886 H898 0.956 . S
C886 H899 0.961 . S
C886 H900 0.961 . S
C887 C884 1.539 . S
C887 H901 0.961 . S
C887 H902 0.961 1_455 S
C887 H903 0.960 . S
H888 C872 0.931 . S
H889 C877 0.929 . S
H890 C878 0.960 . S
H891 C878 0.962 . S
H892 C878 0.960 . S
H893 C879 0.961 . S
H894 C879 0.961 . S
H895 C879 0.961 . S
H896 C880 0.931 . S
H897 C885 0.930 . S
H898 C886 0.956 . S
H899 C886 0.961 . S
H900 C886 0.961 . S
H901 C887 0.961 . S
H902 C887 0.961 1_655 S
H903 C887 0.960 . S
C904 C905 1.391 . S
C904 C906 1.394 . S
C904 H920 0.931 . S
C905 C904 1.391 . S
C905 C909 1.376 . S
C906 C904 1.394 . S
C906 C907 1.369 . S
C906 C910 1.531 . S
C907 C906 1.369 . S
C907 C908 1.410 . S
C907 C915 1.503 . S
C908 C907 1.410 . S
C908 C909 1.392 . S
C908 C911 1.511 1_556 S
C909 C905 1.376 . S
C909 C908 1.392 . S
C909 H921 0.929 . S
C910 C906 1.531 . S
C910 H922 0.960 . S
C910 H923 0.962 . S
C910 H924 0.960 . S
C911 C908 1.511 1_554 S
C911 H925 0.961 . S
C911 H926 0.961 . S
C911 H927 0.961 . S
C912 C913 1.370 . S
C912 C914 1.363 . S
C912 H928 0.931 1_565 S
C913 C912 1.370 . S
C913 C917 1.408 . S
C914 C912 1.363 . S
C914 C915 1.370 . S
C914 C918 1.524 1_565 S
C915 C907 1.503 . S
C915 C914 1.370 . S
C915 C916 1.403 . S
C916 C915 1.403 . S
C916 C917 1.404 . S
C916 C919 1.539 . S
C917 C913 1.408 . S
C917 C916 1.404 . S
C917 H929 0.930 . S
C918 C914 1.524 1_545 S
C918 H930 0.956 . S
C918 H931 0.961 . S
C918 H932 0.961 . S
C919 C916 1.539 . S
C919 H933 0.958 . S
C919 H934 0.961 . S
C919 H935 0.960 . S
H920 C904 0.931 . S
H921 C909 0.929 . S
H922 C910 0.960 . S
H923 C910 0.962 . S
H924 C910 0.960 . S
H925 C911 0.961 . S
H926 C911 0.961 . S
H927 C911 0.961 . S
H928 C912 0.931 1_545 S
H929 C917 0.930 . S
H930 C918 0.956 . S
H931 C918 0.961 . S
H932 C918 0.961 . S
H933 C919 0.958 . S
H934 C919 0.961 . S
H935 C919 0.960 . S
C936 C937 1.391 . S
C936 C938 1.394 . S
C936 H952 0.931 . S
C937 C936 1.391 . S
C937 C941 1.376 . S
C938 C936 1.394 . S
C938 C939 1.369 . S
C938 C942 1.531 . S
C939 C938 1.369 . S
C939 C940 1.410 . S
C939 C947 1.503 . S
C940 C939 1.410 . S
C940 C941 1.392 . S
C940 C943 1.511 . S
C941 C937 1.376 . S
C941 C940 1.392 . S
C941 H953 0.929 . S
C942 C938 1.531 . S
C942 H954 0.960 . S
C942 H955 0.962 . S
C942 H956 0.960 1_545 S
C943 C940 1.511 . S
C943 H957 0.961 . S
C943 H958 0.961 . S
C943 H959 0.961 . S
C944 C945 1.370 . S
C944 C946 1.363 . S
C944 H960 0.931 . S
C945 C944 1.370 . S
C945 C949 1.408 . S
C946 C944 1.363 . S
C946 C947 1.370 . S
C946 C950 1.524 . S
C947 C939 1.503 . S
C947 C946 1.370 . S
C947 C948 1.403 . S
C948 C947 1.403 . S
C948 C949 1.404 . S
C948 C951 1.539 . S
C949 C945 1.408 . S
C949 C948 1.404 . S
C949 H961 0.930 . S
C950 C946 1.524 . S
C950 H962 0.956 . S
C950 H963 0.961 . S
C950 H964 0.961 . S
C951 C948 1.539 . S
C951 H965 0.958 . S
C951 H966 0.961 . S
C951 H967 0.960 . S
H952 C936 0.931 . S
H953 C941 0.929 . S
H954 C942 0.960 . S
H955 C942 0.962 . S
H956 C942 0.960 1_565 S
H957 C943 0.961 . S
H958 C943 0.961 . S
H959 C943 0.961 . S
H960 C944 0.931 . S
H961 C949 0.930 . S
H962 C950 0.956 . S
H963 C950 0.961 . S
H964 C950 0.961 . S
H965 C951 0.958 . S
H966 C951 0.961 . S
H967 C951 0.960 . S
C968 C969 1.391 . S
C968 C970 1.394 . S
C968 H984 0.931 . S
C969 C968 1.391 . S
C969 C973 1.376 . S
C970 C968 1.394 . S
C970 C971 1.369 . S
C970 C974 1.531 . S
C971 C970 1.369 . S
C971 C972 1.410 . S
C971 C979 1.503 . S
C972 C971 1.410 . S
C972 C973 1.392 . S
C972 C975 1.511 1_554 S
C973 C969 1.376 . S
C973 C972 1.392 . S
C973 H985 0.929 . S
C974 C970 1.531 . S
C974 H986 0.960 . S
C974 H987 0.962 . S
C974 H988 0.960 . S
C975 C972 1.511 1_556 S
C975 H989 0.961 . S
C975 H990 0.961 1_556 S
C975 H991 0.961 . S
C976 C977 1.370 . S
C976 C978 1.363 . S
C976 H992 0.931 . S
C977 C976 1.370 . S
C977 C981 1.408 . S
C978 C976 1.363 . S
C978 C979 1.370 . S
C978 C982 1.524 . S
C979 C971 1.503 . S
C979 C978 1.370 . S
C979 C980 1.403 . S
C980 C979 1.403 . S
C980 C981 1.404 . S
C980 C983 1.539 . S
C981 C977 1.408 . S
C981 C980 1.404 . S
C981 H993 0.930 . S
C982 C978 1.524 . S
C982 H994 0.956 . S
C982 H995 0.961 . S
C982 H996 0.961 . S
C983 C980 1.539 . S
C983 H997 0.958 . S
C983 H998 0.961 1_554 S
C983 H999 0.960 . S
H984 C968 0.931 . S
H985 C973 0.929 . S
H986 C974 0.960 . S
H987 C974 0.962 . S
H988 C974 0.960 . S
H989 C975 0.961 . S
H990 C975 0.961 1_554 S
H991 C975 0.961 . S
H992 C976 0.931 . S
H993 C981 0.930 . S
H994 C982 0.956 . S
H995 C982 0.961 . S
H996 C982 0.961 . S
H997 C983 0.958 . S
H998 C983 0.961 1_556 S
H999 C983 0.960 . S
C1000 C1001 1.391 . S
C1000 C1002 1.394 . S
C1000 H1016 0.931 . S
C1001 C1000 1.391 . S
C1001 C1005 1.376 . S
C1002 C1000 1.394 . S
C1002 C1003 1.369 . S
C1002 C1006 1.531 . S
C1003 C1002 1.369 . S
C1003 C1004 1.410 . S
C1003 C1011 1.503 . S
C1004 C1003 1.410 . S
C1004 C1005 1.392 . S
C1004 C1007 1.511 . S
C1005 C1001 1.376 . S
C1005 C1004 1.392 . S
C1005 H1017 0.929 . S
C1006 C1002 1.531 . S
C1006 H1018 0.960 . S
C1006 H1019 0.962 . S
C1006 H1020 0.960 . S
C1007 C1004 1.511 . S
C1007 H1021 0.961 . S
C1007 H1022 0.961 . S
C1007 H1023 0.961 . S
C1008 C1009 1.370 . S
C1008 C1010 1.363 . S
C1008 H1024 0.931 . S
C1009 C1008 1.370 . S
C1009 C1013 1.408 . S
C1010 C1008 1.363 . S
C1010 C1011 1.370 . S
C1010 C1014 1.524 . S
C1011 C1003 1.503 . S
C1011 C1010 1.370 . S
C1011 C1012 1.403 . S
C1012 C1011 1.403 . S
C1012 C1013 1.404 . S
C1012 C1015 1.539 . S
C1013 C1009 1.408 . S
C1013 C1012 1.404 . S
C1013 H1025 0.930 . S
C1014 C1010 1.524 . S
C1014 H1026 0.956 . S
C1014 H1027 0.961 . S
C1014 H1028 0.961 . S
C1015 C1012 1.539 . S
C1015 H1029 0.958 . S
C1015 H1030 0.961 . S
C1015 H1031 0.960 . S
H1016 C1000 0.931 . S
H1017 C1005 0.929 . S
H1018 C1006 0.960 . S
H1019 C1006 0.962 . S
H1020 C1006 0.960 . S
H1021 C1007 0.961 . S
H1022 C1007 0.961 . S
H1023 C1007 0.961 . S
H1024 C1008 0.931 . S
H1025 C1013 0.930 . S
H1026 C1014 0.956 . S
H1027 C1014 0.961 . S
H1028 C1014 0.961 . S
H1029 C1015 0.958 . S
H1030 C1015 0.961 . S
H1031 C1015 0.960 . S
C1032 C1033 1.391 . S
C1032 C1034 1.394 . S
C1032 H1048 0.931 . S
C1033 C1032 1.391 . S
C1033 C1037 1.376 . S
C1034 C1032 1.394 . S
C1034 C1035 1.369 . S
C1034 C1038 1.531 . S
C1035 C1034 1.369 . S
C1035 C1036 1.410 . S
C1035 C1043 1.503 . S
C1036 C1035 1.410 . S
C1036 C1037 1.392 . S
C1036 C1039 1.511 1_556 S
C1037 C1033 1.376 . S
C1037 C1036 1.392 . S
C1037 H1049 0.929 . S
C1038 C1034 1.531 . S
C1038 H1050 0.960 . S
C1038 H1051 0.962 . S
C1038 H1052 0.960 . S
C1039 C1036 1.511 1_554 S
C1039 H1053 0.961 . S
C1039 H1054 0.961 . S
C1039 H1055 0.961 . S
C1040 C1041 1.370 . S
C1040 C1042 1.363 . S
C1040 H1056 0.931 . S
C1041 C1040 1.370 . S
C1041 C1045 1.424 . S
C1042 C1040 1.363 . S
C1042 C1043 1.370 . S
C1042 C1046 1.524 . S
C1043 C1035 1.503 . S
C1043 C1042 1.370 . S
C1043 C1044 1.403 . S
C1044 C1043 1.403 . S
C1044 C1045 1.406 . S
C1044 C1047 1.539 1_655 S
C1045 C1041 1.424 . S
C1045 C1044 1.406 . S
C1045 H1057 0.913 1_655 S
C1046 C1042 1.524 . S
C1046 H1058 0.956 . S
C1046 H1059 0.961 . S
C1046 H1060 0.961 . S
C1047 C1044 1.539 1_455 S
C1047 H1061 0.958 . S
C1047 H1062 0.961 . S
C1047 H1063 0.960 . S
H1048 C1032 0.931 . S
H1049 C1037 0.929 . S
H1050 C1038 0.960 . S
H1051 C1038 0.962 . S
H1052 C1038 0.960 . S
H1053 C1039 0.961 . S
H1054 C1039 0.961 . S
H1055 C1039 0.961 . S
H1056 C1040 0.931 . S
H1057 C1045 0.913 1_455 S
H1058 C1046 0.956 . S
H1059 C1046 0.961 . S
H1060 C1046 0.961 . S
H1061 C1047 0.958 . S
H1062 C1047 0.961 . S
H1063 C1047 0.960 . S
C1064 C1065 1.391 . S
C1064 C1066 1.394 . S
C1064 H1080 0.931 . S
C1065 C1064 1.391 . S
C1065 C1069 1.376 . S
C1066 C1064 1.394 . S
C1066 C1067 1.369 . S
C1066 C1070 1.531 . S
C1067 C1066 1.369 . S
C1067 C1068 1.410 . S
C1067 C1075 1.503 . S
C1068 C1067 1.410 . S
C1068 C1069 1.392 . S
C1068 C1071 1.511 . S
C1069 C1065 1.376 . S
C1069 C1068 1.392 . S
C1069 H1081 0.929 . S
C1070 C1066 1.531 . S
C1070 H1082 0.960 . S
C1070 H1083 0.962 . S
C1070 H1084 0.960 . S
C1071 C1068 1.511 . S
C1071 H1085 0.961 . S
C1071 H1086 0.961 . S
C1071 H1087 0.961 . S
C1072 C1073 1.370 . S
C1072 C1074 1.363 . S
C1072 H1088 0.931 . S
C1073 C1072 1.370 . S
C1073 C1077 1.408 . S
C1074 C1072 1.363 . S
C1074 C1075 1.370 . S
C1074 C1078 1.524 . S
C1075 C1067 1.503 . S
C1075 C1074 1.370 . S
C1075 C1076 1.403 . S
C1076 C1075 1.403 . S
C1076 C1077 1.404 . S
C1076 C1079 1.539 . S
C1077 C1073 1.408 . S
C1077 C1076 1.404 . S
C1077 H1089 0.930 . S
C1078 C1074 1.524 . S
C1078 H1090 0.956 . S
C1078 H1091 0.961 . S
C1078 H1092 0.961 . S
C1079 C1076 1.539 . S
C1079 H1093 0.958 1_554 S
C1079 H1094 0.961 . S
C1079 H1095 0.960 . S
H1080 C1064 0.931 . S
H1081 C1069 0.929 . S
H1082 C1070 0.960 . S
H1083 C1070 0.962 . S
H1084 C1070 0.960 . S
H1085 C1071 0.961 . S
H1086 C1071 0.961 . S
H1087 C1071 0.961 . S
H1088 C1072 0.931 . S
H1089 C1077 0.930 . S
H1090 C1078 0.956 . S
H1091 C1078 0.961 . S
H1092 C1078 0.961 . S
H1093 C1079 0.958 1_556 S
H1094 C1079 0.961 . S
H1095 C1079 0.960 . S
C1096 C1097 1.391 . S
C1096 C1098 1.394 . S
C1096 H1112 0.931 . S
C1097 C1096 1.391 . S
C1097 C1101 1.376 . S
C1098 C1096 1.394 . S
C1098 C1099 1.369 . S
C1098 C1102 1.531 . S
C1099 C1098 1.369 . S
C1099 C1100 1.410 . S
C1099 C1107 1.503 . S
C1100 C1099 1.410 . S
C1100 C1101 1.392 . S
C1100 C1103 1.511 . S
C1101 C1097 1.376 . S
C1101 C1100 1.392 . S
C1101 H1113 0.929 . S
C1102 C1098 1.531 . S
C1102 H1114 0.960 . S
C1102 H1115 0.962 . S
C1102 H1116 0.960 . S
C1103 C1100 1.511 . S
C1103 H1117 0.961 . S
C1103 H1118 0.961 . S
C1103 H1119 0.961 . S
C1104 C1105 1.370 . S
C1104 C1106 1.363 . S
C1104 H1120 0.931 . S
C1105 C1104 1.370 . S
C1105 C1109 1.408 . S
C1106 C1104 1.363 . S
C1106 C1107 1.370 . S
C1106 C1110 1.524 . S
C1107 C1099 1.503 . S
C1107 C1106 1.370 . S
C1107 C1108 1.403 . S
C1108 C1107 1.403 . S
C1108 C1109 1.404 . S
C1108 C1111 1.539 . S
C1109 C1105 1.408 . S
C1109 C1108 1.404 . S
C1109 H1121 0.930 . S
C1110 C1106 1.524 . S
C1110 H1122 0.956 . S
C1110 H1123 0.961 . S
C1110 H1124 0.961 . S
C1111 C1108 1.539 . S
C1111 H1125 0.958 . S
C1111 H1126 0.961 . S
C1111 H1127 0.960 . S
H1112 C1096 0.931 . S
H1113 C1101 0.929 . S
H1114 C1102 0.960 . S
H1115 C1102 0.962 . S
H1116 C1102 0.960 . S
H1117 C1103 0.961 . S
H1118 C1103 0.961 . S
H1119 C1103 0.961 . S
H1120 C1104 0.931 . S
H1121 C1109 0.930 . S
H1122 C1110 0.956 . S
H1123 C1110 0.961 . S
H1124 C1110 0.961 . S
H1125 C1111 0.958 . S
H1126 C1111 0.961 . S
H1127 C1111 0.960 . S
C1128 C1129 1.391 . S
C1128 C1130 1.394 . S
C1128 H1144 0.931 . S
C1129 C1128 1.391 . S
C1129 C1133 1.376 . S
C1130 C1128 1.394 . S
C1130 C1131 1.369 . S
C1130 C1134 1.531 . S
C1131 C1130 1.369 . S
C1131 C1132 1.410 . S
C1131 C1139 1.503 . S
C1132 C1131 1.410 . S
C1132 C1133 1.392 . S
C1132 C1135 1.511 . S
C1133 C1129 1.376 . S
C1133 C1132 1.392 . S
C1133 H1145 0.929 . S
C1134 C1130 1.531 . S
C1134 H1146 0.960 . S
C1134 H1147 0.962 . S
C1134 H1148 0.960 . S
C1135 C1132 1.511 . S
C1135 H1149 0.961 . S
C1135 H1150 0.961 . S
C1135 H1151 0.961 . S
C1136 C1137 1.370 . S
C1136 C1138 1.363 . S
C1136 H1152 0.931 . S
C1137 C1136 1.370 . S
C1137 C1141 1.408 . S
C1138 C1136 1.363 . S
C1138 C1139 1.370 . S
C1138 C1142 1.524 . S
C1139 C1131 1.503 . S
C1139 C1138 1.370 . S
C1139 C1140 1.403 . S
C1140 C1139 1.403 . S
C1140 C1141 1.404 . S
C1140 C1143 1.539 . S
C1141 C1137 1.408 . S
C1141 C1140 1.404 . S
C1141 H1153 0.930 . S
C1142 C1138 1.524 . S
C1142 H1154 0.956 . S
C1142 H1155 0.961 . S
C1142 H1156 0.961 . S
C1143 C1140 1.539 . S
C1143 H1157 0.958 . S
C1143 H1158 0.961 . S
C1143 H1159 0.960 . S
H1144 C1128 0.931 . S
H1145 C1133 0.929 . S
H1146 C1134 0.960 . S
H1147 C1134 0.962 . S
H1148 C1134 0.960 . S
H1149 C1135 0.961 . S
H1150 C1135 0.961 . S
H1151 C1135 0.961 . S
H1152 C1136 0.931 . S
H1153 C1141 0.930 . S
H1154 C1142 0.956 . S
H1155 C1142 0.961 . S
H1156 C1142 0.961 . S
H1157 C1143 0.958 . S
H1158 C1143 0.961 . S
H1159 C1143 0.960 . S
C393 C29 2.248 . S
C401 C256 2.371 . S
C425 C49 2.237 . S
C433 C298 2.253 . S
C465 C328 1.019 . S
C457 C93 0.889 . S
C489 C119 0.965 . S
C497 C362 0.998 . S
C529 C319 1.848 . S
C521 C17 1.722 . S
C561 C273 1.881 . S
C553 C61 1.878 . S
C593 C366 1.317 . S
C585 C81 1.197 . S
C625 C332 1.439 . S
C617 C125 1.276 . S
C649 C23 2.105 . S
C657 C387 2.179 . S
C689 C294 1.107 . S
C681 C87 1.039 . S
C713 C113 1.147 . S
C721 C269 1.165 . S
C745 C55 2.159 . S
C753 C353 2.167 . S
C785 C285 2.306 . S
C777 C157 2.297 . S
C809 C189 2.201 . S
C817 C307 2.296 . S
C841 C221 0.990 . S
C849 C337 0.976 . S
C873 C253 1.038 . S
C881 C371 1.043 . S
C905 C145 1.874 . S
C913 C290 1.892 . S
C945 C264 1.813 . S
C937 C183 1.703 . S
C977 C375 1.358 . S
C969 C209 1.355 . S
C1009 C341 1.376 . S
C1001 C247 1.232 . S
C1033 C151 2.193 . S
C1041 C358 2.199 . S
C1073 C303 1.110 . S
C1065 C215 1.130 . S
C1105 C260 1.149 . S
C1097 C241 1.074 . S
C1129 C177 2.113 . S
C1137 C324 2.209 . S
