# Generated by pormake.
# Topology eea, (3,6)-cn, num edge types: 1
# Building blocks:
#     Node 0, Type 0, BuildingBlock: BETDAH_clean_linker_0, # of connection points: 3
#     Node 1, Type 0, BuildingBlock: BETDAH_clean_linker_0, # of connection points: 3
#     Node 2, Type 0, BuildingBlock: BETDAH_clean_linker_0, # of connection points: 3
#     Node 3, Type 0, BuildingBlock: BETDAH_clean_linker_0, # of connection points: 3
#     Node 4, Type 0, BuildingBlock: BETDAH_clean_linker_0, # of connection points: 3
#     Node 5, Type 0, BuildingBlock: BETDAH_clean_linker_0, # of connection points: 3
#     Node 6, Type 0, BuildingBlock: BETDAH_clean_linker_0, # of connection points: 3
#     Node 7, Type 0, BuildingBlock: BETDAH_clean_linker_0, # of connection points: 3
#     Node 8, Type 0, BuildingBlock: BETDAH_clean_linker_0, # of connection points: 3
#     Node 9, Type 0, BuildingBlock: BETDAH_clean_linker_0, # of connection points: 3
#     Node 10, Type 0, BuildingBlock: BETDAH_clean_linker_0, # of connection points: 3
#     Node 11, Type 0, BuildingBlock: BETDAH_clean_linker_0, # of connection points: 3
#     Node 12, Type 0, BuildingBlock: BETDAH_clean_linker_0, # of connection points: 3
#     Node 13, Type 0, BuildingBlock: BETDAH_clean_linker_0, # of connection points: 3
#     Node 14, Type 0, BuildingBlock: BETDAH_clean_linker_0, # of connection points: 3
#     Node 15, Type 0, BuildingBlock: BETDAH_clean_linker_0, # of connection points: 3
#     Node 16, Type 0, BuildingBlock: BETDAH_clean_linker_0, # of connection points: 3
#     Node 17, Type 0, BuildingBlock: BETDAH_clean_linker_0, # of connection points: 3
#     Node 18, Type 1, BuildingBlock: KUMBOL_clean_sbu_0, # of connection points: 6
#     Node 19, Type 1, BuildingBlock: KUMBOL_clean_sbu_0, # of connection points: 6
#     Node 20, Type 1, BuildingBlock: KUMBOL_clean_sbu_0, # of connection points: 6
#     Node 21, Type 1, BuildingBlock: KUMBOL_clean_sbu_0, # of connection points: 6
#     Node 22, Type 1, BuildingBlock: KUMBOL_clean_sbu_0, # of connection points: 6
#     Node 23, Type 1, BuildingBlock: KUMBOL_clean_sbu_0, # of connection points: 6
#     Node 24, Type 1, BuildingBlock: KUMBOL_clean_sbu_0, # of connection points: 6
#     Node 25, Type 1, BuildingBlock: KUMBOL_clean_sbu_0, # of connection points: 6
#     Node 26, Type 1, BuildingBlock: KUMBOL_clean_sbu_0, # of connection points: 6
#     Edge 27, Type (0, 1), BuildingBlock: MIFKUJ_clean_linker_0, # of connection points: 2
#     Edge 28, Type (0, 1), BuildingBlock: MIFKUJ_clean_linker_0, # of connection points: 2
#     Edge 29, Type (0, 1), BuildingBlock: MIFKUJ_clean_linker_0, # of connection points: 2
#     Edge 30, Type (0, 1), BuildingBlock: MIFKUJ_clean_linker_0, # of connection points: 2
#     Edge 31, Type (0, 1), BuildingBlock: MIFKUJ_clean_linker_0, # of connection points: 2
#     Edge 32, Type (0, 1), BuildingBlock: MIFKUJ_clean_linker_0, # of connection points: 2
#     Edge 33, Type (0, 1), BuildingBlock: MIFKUJ_clean_linker_0, # of connection points: 2
#     Edge 34, Type (0, 1), BuildingBlock: MIFKUJ_clean_linker_0, # of connection points: 2
#     Edge 35, Type (0, 1), BuildingBlock: MIFKUJ_clean_linker_0, # of connection points: 2
#     Edge 36, Type (0, 1), BuildingBlock: MIFKUJ_clean_linker_0, # of connection points: 2
#     Edge 37, Type (0, 1), BuildingBlock: MIFKUJ_clean_linker_0, # of connection points: 2
#     Edge 38, Type (0, 1), BuildingBlock: MIFKUJ_clean_linker_0, # of connection points: 2
#     Edge 39, Type (0, 1), BuildingBlock: MIFKUJ_clean_linker_0, # of connection points: 2
#     Edge 40, Type (0, 1), BuildingBlock: MIFKUJ_clean_linker_0, # of connection points: 2
#     Edge 41, Type (0, 1), BuildingBlock: MIFKUJ_clean_linker_0, # of connection points: 2
#     Edge 42, Type (0, 1), BuildingBlock: MIFKUJ_clean_linker_0, # of connection points: 2
#     Edge 43, Type (0, 1), BuildingBlock: MIFKUJ_clean_linker_0, # of connection points: 2
#     Edge 44, Type (0, 1), BuildingBlock: MIFKUJ_clean_linker_0, # of connection points: 2
#     Edge 45, Type (0, 1), BuildingBlock: MIFKUJ_clean_linker_0, # of connection points: 2
#     Edge 46, Type (0, 1), BuildingBlock: MIFKUJ_clean_linker_0, # of connection points: 2
#     Edge 47, Type (0, 1), BuildingBlock: MIFKUJ_clean_linker_0, # of connection points: 2
#     Edge 48, Type (0, 1), BuildingBlock: MIFKUJ_clean_linker_0, # of connection points: 2
#     Edge 49, Type (0, 1), BuildingBlock: MIFKUJ_clean_linker_0, # of connection points: 2
#     Edge 50, Type (0, 1), BuildingBlock: MIFKUJ_clean_linker_0, # of connection points: 2
#     Edge 51, Type (0, 1), BuildingBlock: MIFKUJ_clean_linker_0, # of connection points: 2
#     Edge 52, Type (0, 1), BuildingBlock: MIFKUJ_clean_linker_0, # of connection points: 2
#     Edge 53, Type (0, 1), BuildingBlock: MIFKUJ_clean_linker_0, # of connection points: 2
#     Edge 54, Type (0, 1), BuildingBlock: MIFKUJ_clean_linker_0, # of connection points: 2
#     Edge 55, Type (0, 1), BuildingBlock: MIFKUJ_clean_linker_0, # of connection points: 2
#     Edge 56, Type (0, 1), BuildingBlock: MIFKUJ_clean_linker_0, # of connection points: 2
#     Edge 57, Type (0, 1), BuildingBlock: MIFKUJ_clean_linker_0, # of connection points: 2
#     Edge 58, Type (0, 1), BuildingBlock: MIFKUJ_clean_linker_0, # of connection points: 2
#     Edge 59, Type (0, 1), BuildingBlock: MIFKUJ_clean_linker_0, # of connection points: 2
#     Edge 60, Type (0, 1), BuildingBlock: MIFKUJ_clean_linker_0, # of connection points: 2
#     Edge 61, Type (0, 1), BuildingBlock: MIFKUJ_clean_linker_0, # of connection points: 2
#     Edge 62, Type (0, 1), BuildingBlock: MIFKUJ_clean_linker_0, # of connection points: 2
#     Edge 63, Type (0, 1), BuildingBlock: MIFKUJ_clean_linker_0, # of connection points: 2
#     Edge 64, Type (0, 1), BuildingBlock: MIFKUJ_clean_linker_0, # of connection points: 2
#     Edge 65, Type (0, 1), BuildingBlock: MIFKUJ_clean_linker_0, # of connection points: 2
#     Edge 66, Type (0, 1), BuildingBlock: MIFKUJ_clean_linker_0, # of connection points: 2
#     Edge 67, Type (0, 1), BuildingBlock: MIFKUJ_clean_linker_0, # of connection points: 2
#     Edge 68, Type (0, 1), BuildingBlock: MIFKUJ_clean_linker_0, # of connection points: 2
#     Edge 69, Type (0, 1), BuildingBlock: MIFKUJ_clean_linker_0, # of connection points: 2
#     Edge 70, Type (0, 1), BuildingBlock: MIFKUJ_clean_linker_0, # of connection points: 2
#     Edge 71, Type (0, 1), BuildingBlock: MIFKUJ_clean_linker_0, # of connection points: 2
#     Edge 72, Type (0, 1), BuildingBlock: MIFKUJ_clean_linker_0, # of connection points: 2
#     Edge 73, Type (0, 1), BuildingBlock: MIFKUJ_clean_linker_0, # of connection points: 2
#     Edge 74, Type (0, 1), BuildingBlock: MIFKUJ_clean_linker_0, # of connection points: 2
#     Edge 75, Type (0, 1), BuildingBlock: MIFKUJ_clean_linker_0, # of connection points: 2
#     Edge 76, Type (0, 1), BuildingBlock: MIFKUJ_clean_linker_0, # of connection points: 2
#     Edge 77, Type (0, 1), BuildingBlock: MIFKUJ_clean_linker_0, # of connection points: 2
#     Edge 78, Type (0, 1), BuildingBlock: MIFKUJ_clean_linker_0, # of connection points: 2
#     Edge 79, Type (0, 1), BuildingBlock: MIFKUJ_clean_linker_0, # of connection points: 2
#     Edge 80, Type (0, 1), BuildingBlock: MIFKUJ_clean_linker_0, # of connection points: 2
# Relax obj value: 0.022
# Max RMSD: 0.151
# Mean RMSD: 0.112
data_MOF--net-eea--node1-KUMBOL_clean_sbu_0--node2-BETDAH_clean_linker_0--edge1-MIFKUJ_clean_linker_0
_symmetry_space_group_name_H-M    P1
_symmetry_Int_Tables_number       1
_symmetry_cell_setting            triclinic
loop_
_symmetry_equiv_pos_as_xyz
'x, y, z'
_cell_length_a     71.689709
_cell_length_b     72.973415
_cell_length_c     82.861219
_cell_angle_alpha  90.20847
_cell_angle_beta   90.198963
_cell_angle_gamma 120.00146
loop_
_atom_site_label
_atom_site_type_symbol
_atom_site_fract_x
_atom_site_fract_y
_atom_site_fract_z
_atom_type_partial_charge
H0 H 0.24235 0.07987 0.43404 0.0
H1 H 0.2506 0.14142 0.42401 0.0
H2 H 0.2321 0.09535 0.38604 0.0
C3 C 0.24217 0.09109 0.42559 0.0
C4 C 0.2363 0.08495 0.40945 0.0
C5 C 0.24765 0.11151 0.431 0.0
C6 C 0.24621 0.12557 0.42013 0.0
C7 C 0.24048 0.11957 0.40392 0.0
C8 C 0.23593 0.09952 0.39866 0.0
N9 N 0.24047 0.13372 0.39228 0.0
C10 C 0.23371 0.14821 0.39527 0.0
H11 H 0.9369 0.15919 0.43769 0.0
H12 H 0.8856 0.09441 0.43339 0.0
H13 H 0.93621 0.1203 0.39831 0.0
C14 C 0.92919 0.14424 0.43121 0.0
C15 C 0.93891 0.14195 0.41722 0.0
C16 C 0.91005 0.12713 0.43726 0.0
C17 C 0.90043 0.10759 0.42895 0.0
C18 C 0.90991 0.10519 0.41486 0.0
C19 C 0.92911 0.1223 0.40922 0.0
N20 N 0.90089 0.08591 0.40599 0.0
C21 C 0.88102 0.06791 0.40871 0.0
H22 H 0.85272 0.78412 0.43579 0.0
H23 H 0.91488 0.78923 0.42881 0.0
H24 H 0.88855 0.81216 0.3927 0.0
C25 C 0.86684 0.7886 0.42847 0.0
C26 C 0.86847 0.79832 0.41353 0.0
C27 C 0.88343 0.78519 0.43425 0.0
C28 C 0.90209 0.79191 0.42472 0.0
C29 C 0.9039 0.80171 0.4097 0.0
C30 C 0.88713 0.80486 0.40434 0.0
N31 N 0.92197 0.80852 0.39932 0.0
C32 C 0.94058 0.80732 0.40183 0.0
H33 H 0.07523 0.22484 0.59016 0.0
H34 H 0.12909 0.21448 0.59609 0.0
H35 H 0.081 0.19469 0.63287 0.0
C36 C 0.08365 0.2186 0.59706 0.0
C37 C 0.07552 0.20942 0.61221 0.0
C38 C 0.10297 0.22054 0.59104 0.0
C39 C 0.11435 0.21329 0.60055 0.0
C40 C 0.10644 0.20412 0.61572 0.0
C41 C 0.08709 0.20215 0.6213 0.0
N42 N 0.11713 0.19645 0.62581 0.0
C43 C 0.13704 0.19794 0.62312 0.0
H44 H 0.78663 0.85571 0.5821 0.0
H45 H 0.79452 0.91549 0.59842 0.0
H46 H 0.80426 0.87565 0.63127 0.0
C47 C 0.79073 0.8676 0.59142 0.0
C48 C 0.79582 0.86377 0.60691 0.0
C49 C 0.78985 0.88613 0.58822 0.0
C50 C 0.79482 0.90105 0.60075 0.0
C51 C 0.8 0.89719 0.61629 0.0
C52 C 0.80028 0.87854 0.61925 0.0
N53 N 0.80482 0.91146 0.62939 0.0
C54 C 0.80669 0.93127 0.6283 0.0
H55 H 0.15389 0.92398 0.5897 0.0
H56 H 0.0875 0.87455 0.59243 0.0
H57 H 0.11238 0.92647 0.62598 0.0
C58 C 0.13833 0.91718 0.59548 0.0
C59 C 0.13562 0.92758 0.60883 0.0
C60 C 0.12104 0.89821 0.5893 0.0
C61 C 0.10087 0.88919 0.59699 0.0
C62 C 0.09797 0.89935 0.61041 0.0
C63 C 0.11518 0.91854 0.61599 0.0
N64 N 0.07791 0.89133 0.61841 0.0
C65 C 0.06075 0.87065 0.61757 0.0
H66 H 0.8931 0.40741 0.77381 0.0
H67 H 0.8774 0.45663 0.76677 0.0
H68 H 0.85175 0.40323 0.73455 0.0
C69 C 0.88514 0.41413 0.76688 0.0
C70 C 0.87244 0.40299 0.75348 0.0
C71 C 0.88713 0.43354 0.77176 0.0
C72 C 0.87602 0.44174 0.76311 0.0
C73 C 0.8631 0.43057 0.74974 0.0
C74 C 0.86142 0.41138 0.74508 0.0
N75 N 0.85125 0.43779 0.7407 0.0
C76 C 0.85418 0.45808 0.74128 0.0
H77 H 0.60789 0.49132 0.77019 0.0
H78 H 0.5551 0.42744 0.76426 0.0
H79 H 0.60516 0.45424 0.72886 0.0
C80 C 0.59985 0.47664 0.76338 0.0
C81 C 0.60902 0.47492 0.74888 0.0
C82 C 0.58043 0.45959 0.76915 0.0
C83 C 0.56991 0.44076 0.75994 0.0
C84 C 0.57895 0.43887 0.74543 0.0
C85 C 0.59848 0.45584 0.74014 0.0
N86 N 0.56927 0.42012 0.73587 0.0
C87 C 0.5481 0.40361 0.73701 0.0
H88 H 0.51972 0.11554 0.76816 0.0
H89 H 0.58051 0.11803 0.76048 0.0
H90 H 0.55397 0.14013 0.72387 0.0
C91 C 0.53357 0.11951 0.76066 0.0
C92 C 0.5348 0.12828 0.74537 0.0
C93 C 0.54978 0.11546 0.76625 0.0
C94 C 0.56796 0.12111 0.75643 0.0
C95 C 0.56939 0.13 0.74107 0.0
C96 C 0.55272 0.13329 0.73569 0.0
N97 N 0.58683 0.13546 0.73031 0.0
C98 C 0.60616 0.13585 0.7334 0.0
H99 H 0.73759 0.55553 0.92504 0.0
H100 H 0.79086 0.54421 0.93075 0.0
H101 H 0.74284 0.5247 0.96754 0.0
C102 C 0.74581 0.54905 0.9319 0.0
C103 C 0.73759 0.53985 0.94703 0.0
C104 C 0.76495 0.55065 0.92576 0.0
C105 C 0.77624 0.54324 0.93526 0.0
C106 C 0.76828 0.53409 0.95043 0.0
C107 C 0.74899 0.53228 0.95603 0.0
N108 N 0.77873 0.52614 0.96052 0.0
C109 C 0.79863 0.52748 0.95813 0.0
H110 H 0.4548 0.18896 0.92317 0.0
H111 H 0.46789 0.25317 0.92824 0.0
H112 H 0.49515 0.22819 0.96188 0.0
C113 C 0.46244 0.20398 0.92957 0.0
C114 C 0.47503 0.20649 0.94327 0.0
C115 C 0.45966 0.22069 0.92406 0.0
C116 C 0.46988 0.24019 0.9324 0.0
C117 C 0.48268 0.2428 0.9461 0.0
C118 C 0.48513 0.22597 0.95139 0.0
N119 N 0.49375 0.26212 0.9548 0.0
C120 C 0.49015 0.27905 0.95341 0.0
H121 H 0.82312 0.26647 0.92142 0.0
H122 H 0.76125 0.21096 0.92948 0.0
H123 H 0.78647 0.26242 0.96351 0.0
C124 C 0.80905 0.25762 0.92889 0.0
C125 C 0.80719 0.26684 0.94325 0.0
C126 C 0.79274 0.23741 0.92378 0.0
C127 C 0.77398 0.22647 0.93321 0.0
C128 C 0.77172 0.23576 0.94746 0.0
C129 C 0.78829 0.25576 0.95232 0.0
N130 N 0.75298 0.22596 0.95719 0.0
C131 C 0.73721 0.20467 0.95703 0.0
H132 H 0.56854 0.74746 0.10586 0.0
H133 H 0.58112 0.80888 0.09008 0.0
H134 H 0.56476 0.75913 0.05549 0.0
C135 C 0.56927 0.75796 0.09635 0.0
C136 C 0.56554 0.75068 0.08033 0.0
C137 C 0.57529 0.77908 0.1 0.0
C138 C 0.57655 0.7926 0.08744 0.0
C139 C 0.57266 0.78529 0.07138 0.0
C140 C 0.5676 0.76457 0.06793 0.0
N141 N 0.57448 0.79854 0.05833 0.0
C142 C 0.56918 0.81437 0.05934 0.0
H143 H 0.27523 0.83191 0.10459 0.0
H144 H 0.22207 0.7692 0.09467 0.0
H145 H 0.27397 0.7993 0.06095 0.0
C146 C 0.26734 0.81801 0.09688 0.0
C147 C 0.2771 0.81764 0.0823 0.0
C148 C 0.24749 0.80054 0.10156 0.0
C149 C 0.23727 0.78274 0.09122 0.0
C150 C 0.24693 0.78236 0.07656 0.0
C151 C 0.26675 0.79971 0.07232 0.0
N152 N 0.23746 0.76498 0.06562 0.0
C153 C 0.21796 0.74632 0.06752 0.0
H154 H 0.1832 0.44859 0.1063 0.0
H155 H 0.24462 0.45291 0.09779 0.0
H156 H 0.2169 0.47463 0.06192 0.0
C157 C 0.19718 0.45339 0.09874 0.0
C158 C 0.19788 0.46209 0.08348 0.0
C159 C 0.21389 0.44991 0.10404 0.0
C160 C 0.23168 0.45545 0.09385 0.0
C161 C 0.23271 0.46442 0.07862 0.0
C162 C 0.21583 0.46759 0.07362 0.0
N163 N 0.25015 0.47038 0.06776 0.0
C164 C 0.26901 0.46965 0.07037 0.0
H165 H 0.40684 0.89142 0.25574 0.0
H166 H 0.46232 0.88388 0.26239 0.0
H167 H 0.41385 0.86312 0.29907 0.0
C168 C 0.41603 0.88647 0.2631 0.0
C169 C 0.40784 0.87706 0.27815 0.0
C170 C 0.43565 0.88901 0.25723 0.0
C171 C 0.44714 0.88183 0.26666 0.0
C172 C 0.43918 0.87242 0.28177 0.0
C173 C 0.41964 0.8701 0.28732 0.0
N174 N 0.45021 0.86519 0.29194 0.0
C175 C 0.46984 0.86621 0.28894 0.0
H176 H 0.12103 0.51998 0.25003 0.0
H177 H 0.13318 0.58349 0.25751 0.0
H178 H 0.15618 0.55565 0.29198 0.0
C179 C 0.12765 0.53422 0.25736 0.0
C180 C 0.1388 0.53549 0.27169 0.0
C181 C 0.12538 0.55137 0.25218 0.0
C182 C 0.13488 0.57022 0.26134 0.0
C183 C 0.14623 0.5717 0.27561 0.0
C184 C 0.14792 0.55436 0.2807 0.0
N185 N 0.15621 0.59021 0.28536 0.0
C186 C 0.15514 0.60848 0.28297 0.0
H187 H 0.48072 0.59895 0.25506 0.0
H188 H 0.41754 0.54414 0.26059 0.0
H189 H 0.4424 0.59357 0.29639 0.0
C190 C 0.46601 0.59015 0.26188 0.0
C191 C 0.46383 0.59857 0.27655 0.0
C192 C 0.4495 0.57053 0.25591 0.0
C193 C 0.43035 0.55928 0.26491 0.0
C194 C 0.42795 0.56768 0.2796 0.0
C195 C 0.44462 0.58719 0.28519 0.0
N196 N 0.40912 0.55742 0.28924 0.0
C197 C 0.39145 0.53724 0.28705 0.0
Gd198 Gd 0.51593 0.01689 0.03316 0.0
Gd199 Gd 0.49967 0.99201 0.99255 0.0
C200 C 0.43311 0.93417 0.98461 0.0
C201 C 0.44187 0.90665 0.97886 0.0
C202 C 0.47039 0.94281 0.98388 0.0
C203 C 0.45526 0.94899 0.98622 0.0
C204 C 0.46392 0.92168 0.97981 0.0
C205 C 0.42648 0.91288 0.98128 0.0
C206 C 0.41835 0.94133 0.98596 0.0
C207 C 0.42588 0.96288 0.98822 0.0
N208 N 0.46226 0.9697 0.98928 0.0
C209 C 0.44803 0.97698 0.98963 0.0
H210 H 0.45358 0.99356 0.99149 0.0
C211 C 0.50709 0.95302 0.98073 0.0
N212 N 0.49152 0.95776 0.9848 0.0
C213 C 0.50149 0.93225 0.97669 0.0
C214 C 0.47982 0.91645 0.97642 0.0
H215 H 0.52387 0.96517 0.98106 0.0
H216 H 0.40953 0.90122 0.98015 0.0
H217 H 0.56234 0.01598 0.0338 0.0
H218 H 0.40119 0.93045 0.98486 0.0
H219 H 0.41462 0.96865 0.98896 0.0
H220 H 0.43655 0.89028 0.9759 0.0
H221 H 0.49115 0.04242 0.04635 0.0
H222 H 0.61371 0.078 0.04536 0.0
H223 H 0.60078 0.04039 0.03866 0.0
H224 H 0.57774 0.11746 0.05438 0.0
H225 H 0.51389 0.92844 0.97384 0.0
H226 H 0.47552 0.90038 0.97326 0.0
H227 H 0.60512 0.10693 0.0503 0.0
H228 H 0.50043 0.07847 0.05497 0.0
N229 N 0.55323 0.0394 0.03716 0.0
C230 C 0.59677 0.06736 0.04293 0.0
C231 C 0.58953 0.04616 0.03928 0.0
C232 C 0.58194 0.07443 0.04403 0.0
C233 C 0.55996 0.05979 0.04128 0.0
C234 C 0.56759 0.03229 0.03656 0.0
N235 N 0.52365 0.05059 0.04222 0.0
C236 C 0.54466 0.06564 0.04372 0.0
C237 C 0.51304 0.07513 0.05175 0.0
C238 C 0.5346 0.09112 0.05248 0.0
C239 C 0.50785 0.05473 0.04687 0.0
C240 C 0.55076 0.08637 0.0488 0.0
H241 H 0.5386 0.10686 0.05639 0.0
O242 O 0.49714 0.00767 0.05523 0.0
O243 O 0.49025 0.99175 0.01804 0.0
O244 O 0.49182 0.0183 0.9959 0.0
O245 O 0.51285 0.04023 0.01727 0.0
O246 O 0.48059 0.00676 0.03418 0.0
O247 O 0.52497 0.00375 0.05323 0.0
O248 O 0.51732 0.9989 0.97001 0.0
O249 O 0.52533 0.01751 0.00753 0.0
O250 O 0.52492 0.99144 0.02878 0.0
O251 O 0.50115 0.96853 0.00923 0.0
O252 O 0.53515 0.00267 0.9913 0.0
O253 O 0.49033 0.00426 0.97208 0.0
C254 C 0.47392 0.99185 0.02354 0.0
C255 C 0.57271 0.10139 0.05065 0.0
C256 C 0.58828 0.09539 0.04833 0.0
C257 C 0.50969 0.00222 0.06258 0.0
C258 C 0.5159 0.01001 0.07924 0.0
C259 C 0.53021 0.03151 0.08231 0.0
C260 C 0.50705 0.99591 0.09225 0.0
C261 C 0.51216 0.00334 0.1083 0.0
C262 C 0.53548 0.03893 0.09815 0.0
C263 C 0.52649 0.02502 0.11107 0.0
C264 C 0.50073 0.03633 0.00418 0.0
C265 C 0.54175 0.01773 1.00183 0.0
C266 C 0.505 0.00463 0.96259 0.0
C267 C 0.498 0.99626 0.94612 0.0
C268 C 0.48423 0.97455 0.94354 0.0
C269 C 0.50511 0.0101 0.93283 0.0
C270 C 0.49841 0.00228 0.91698 0.0
C271 C 0.47767 0.96667 0.92793 0.0
C272 C 0.48468 0.98035 0.91475 0.0
C273 C 0.51457 0.97271 0.0215 0.0
H274 H 0.53725 0.04254 0.07248 0.0
H275 H 0.49593 0.9793 0.08988 0.0
H276 H 0.54655 0.05556 0.10043 0.0
H277 H 0.53095 0.03119 0.12324 0.0
H278 H 0.47857 0.9637 0.95357 0.0
H279 H 0.51555 0.02692 0.93488 0.0
H280 H 0.46712 0.94986 0.92602 0.0
H281 H 0.47951 0.97369 0.90278 0.0
Gd282 Gd 0.99462 0.50311 0.03197 0.0
Gd283 Gd 0.02075 0.51041 0.99251 0.0
C284 C 0.08264 0.50994 0.98133 0.0
C285 C 0.10643 0.54618 0.97281 0.0
C286 C 0.07025 0.53532 0.98209 0.0
C287 C 0.06659 0.51509 0.98491 0.0
C288 C 0.09025 0.55112 0.97607 0.0
C289 C 0.10246 0.52555 0.97513 0.0
C290 C 0.07792 0.48902 0.98335 0.0
C291 C 0.05743 0.47374 0.9884 0.0
N292 N 0.04676 0.50005 0.98988 0.0
C293 C 0.04182 0.47947 0.99129 0.0
H294 H 0.02584 0.4674 0.99471 0.0
C295 C 0.05608 0.55838 0.98035 0.0
N296 N 0.05377 0.53916 0.98426 0.0
C297 C 0.07579 0.5747 0.97481 0.0
C298 C 0.09302 0.57112 0.97275 0.0
H299 H 0.04281 0.56128 0.98171 0.0
H300 H 0.11461 0.5217 0.9716 0.0
H301 H 0.99273 0.54819 0.02962 0.0
H302 H 0.08976 0.48439 0.98066 0.0
H303 H 0.05351 0.45745 0.98976 0.0
H304 H 0.12177 0.55799 0.96792 0.0
H305 H 0.96978 0.45344 0.04556 0.0
H306 H 0.92709 0.53287 0.03407 0.0
H307 H 0.9655 0.55933 0.02997 0.0
H308 H 0.89011 0.45875 0.04611 0.0
H309 H 0.07754 0.58991 0.97187 0.0
H310 H 0.10816 0.5837 0.96816 0.0
H311 H 0.89898 0.4952 0.03987 0.0
H312 H 0.93294 0.42544 0.05266 0.0
N313 N 0.97002 0.51558 0.0332 0.0
C314 C 0.939 0.52788 0.034 0.0
C315 C 0.96067 0.54286 0.03171 0.0
C316 C 0.93305 0.50672 0.03658 0.0
C317 C 0.94919 0.50104 0.03625 0.0
C318 C 0.97609 0.53645 0.03155 0.0
N319 N 0.96033 0.47604 0.03985 0.0
C320 C 0.94417 0.48058 0.03966 0.0
C321 C 0.93586 0.44086 0.04895 0.0
C322 C 0.91884 0.44498 0.04806 0.0
C323 C 0.95669 0.45675 0.04499 0.0
C324 C 0.92292 0.46514 0.04359 0.0
H325 H 0.90272 0.43266 0.05115 0.0
O326 O 0.0024 0.49559 0.05546 0.0
O327 O 0.02163 0.50379 0.01848 0.0
O328 O 0.99655 0.47565 0.99746 0.0
O329 O 0.97221 0.47589 0.01597 0.0
O330 O 0.00753 0.48065 0.03561 0.0
O331 O 0.00536 0.52628 0.0514 0.0
O332 O 0.01114 0.51693 0.96936 0.0
O333 O 0.99346 0.50907 0.00596 0.0
O334 O 0.01983 0.53763 0.027 0.0
O335 O 0.04403 0.53639 0.00898 0.0
O336 O 0.00719 0.53231 0.98895 0.0
O337 O 0.01105 0.48745 0.97297 0.0
C338 C 0.02274 0.48883 0.02511 0.0
C339 C 0.90659 0.47045 0.0433 0.0
C340 C 0.91165 0.49121 0.03977 0.0
C341 C 0.00647 0.51356 0.06188 0.0
C342 C 0.99687 0.51234 0.07773 0.0
C343 C 0.97489 0.50552 0.07924 0.0
C344 C 0.00986 0.51753 0.09159 0.0
C345 C 1.00093 0.51565 0.107 0.0
C346 C 0.96593 0.5037 0.0945 0.0
C347 C 0.97882 0.50862 0.10833 0.0
C348 C 0.97736 0.4666 0.00446 0.0
C349 C 0.99178 0.52362 0.99921 0.0
C350 C 0.00829 0.49948 0.96275 0.0
C351 C 0.0175 0.50158 0.94661 0.0
C352 C 0.03954 0.50911 0.94457 0.0
C353 C 0.00405 0.49648 0.933 0.0
C354 C 0.01256 0.49897 0.91734 0.0
C355 C 0.04815 0.51175 0.92913 0.0
C356 C 0.03482 0.5068 0.91559 0.0
C357 C 0.0392 0.54609 0.02033 0.0
H358 H 0.96467 0.50153 0.06869 0.0
H359 H 0.02682 0.52259 0.0904 0.0
H360 H 0.94893 0.49838 0.09562 0.0
H361 H 0.97155 0.50712 0.12005 0.0
H362 H 0.0501 0.513 0.95486 0.0
H363 H 0.98695 0.49035 0.93467 0.0
H364 H 0.06523 0.51772 0.92766 0.0
H365 H 0.042 0.50931 0.90374 0.0
Gd366 Gd 0.49756 0.51269 0.99039 0.0
Gd367 Gd 0.51109 0.50277 0.0311 0.0
C368 C 0.57389 0.50418 0.04354 0.0
C369 C 0.56144 0.46724 0.04947 0.0
C370 C 0.53585 0.47844 0.04203 0.0
C371 C 0.55248 0.49898 0.04027 0.0
C372 C 0.54006 0.46236 0.04688 0.0
C373 C 0.57833 0.48814 0.04785 0.0
C374 C 0.59009 0.52542 0.04285 0.0
C375 C 0.5847 0.54086 0.03917 0.0
N376 N 0.54759 0.51407 0.03615 0.0
C377 C 0.56324 0.5349 0.03599 0.0
H378 H 0.55937 0.54703 0.03319 0.0
C379 C 0.4983 0.4548 0.04283 0.0
N380 N 0.51541 0.4744 0.03968 0.0
C381 C 0.50165 0.43829 0.04754 0.0
C382 C 0.52263 0.442 0.04939 0.0
H383 H 0.48203 0.45175 0.04135 0.0
H384 H 0.5947 0.4918 0.05027 0.0
H385 H 0.44895 0.46914 0.98925 0.0
H386 H 0.60668 0.53007 0.04553 0.0
H387 H 0.597 0.55738 0.03886 0.0
H388 H 0.56504 0.45509 0.0531 0.0
H389 H 0.52757 0.56427 0.98176 0.0
H390 H 0.40305 0.48625 0.97311 0.0
H391 H 0.41158 0.45905 0.98224 0.0
H392 H 0.44619 0.5607 0.96344 0.0
H393 H 0.48803 0.42276 0.0498 0.0
H394 H 0.52517 0.42918 0.0531 0.0
H395 H 0.41644 0.52407 0.96524 0.0
H396 H 0.52239 0.59337 0.9722 0.0
N397 N 0.46125 0.50201 0.9854 0.0
C398 C 0.4194 0.49089 0.97661 0.0
C399 C 0.42417 0.47547 0.98169 0.0
C400 C 0.43591 0.51199 0.97564 0.0
C401 C 0.45692 0.51716 0.98033 0.0
C402 C 0.44537 0.48128 0.98574 0.0
N403 N 0.49407 0.54159 0.98198 0.0
C404 C 0.47386 0.53763 0.97863 0.0
C405 C 0.5086 0.57778 0.97397 0.0
C406 C 0.48787 0.574 0.97062 0.0
C407 C 0.51146 0.56122 0.97938 0.0
C408 C 0.47022 0.55365 0.97265 0.0
H409 H 0.48572 0.58675 0.96613 0.0
O410 O 0.51525 0.52111 0.96782 0.0
O411 O 0.5221 0.51097 0.00578 0.0
O412 O 0.52276 0.53746 0.02629 0.0
O413 O 0.499 0.53767 0.00723 0.0
O414 O 0.53359 0.53506 0.98935 0.0
O415 O 0.48716 0.49002 0.97062 0.0
O416 O 0.49306 0.49424 0.05351 0.0
O417 O 0.48656 0.50431 0.01564 0.0
O418 O 0.48627 0.47778 0.99465 0.0
O419 O 0.50929 0.4776 0.0145 0.0
O420 O 0.47504 0.48 0.03178 0.0
O421 O 0.52068 0.5256 0.05071 0.0
C422 C 0.53921 0.52619 1.00023 0.0
C423 C 0.44928 0.54869 0.96827 0.0
C424 C 0.43225 0.52784 0.9695 0.0
C425 C 0.50212 0.50309 0.96086 0.0
C426 C 0.49522 0.50411 0.94429 0.0
C427 C 0.4806 0.51117 0.94138 0.0
C428 C 0.50321 0.49776 0.93123 0.0
C429 C 0.4965 0.49831 0.9153 0.0
C430 C 0.47395 0.51186 0.92567 0.0
C431 C 0.4818 0.50549 0.91271 0.0
C432 C 0.51269 0.54648 0.01939 0.0
C433 C 0.46943 0.4889 0.02092 0.0
C434 C 0.50578 0.5124 0.06042 0.0
C435 C 0.51267 0.51165 0.07702 0.0
C436 C 0.52764 0.50504 0.08002 0.0
C437 C 0.5043 0.51772 0.09 0.0
C438 C 0.51091 0.51727 0.10597 0.0
C439 C 0.53423 0.5045 0.09578 0.0
C440 C 0.52596 0.51055 0.10867 0.0
C441 C 0.49596 0.46873 1.00216 0.0
H442 H 0.4743 0.51612 0.9512 0.0
H443 H 0.51438 0.49212 0.9335 0.0
H444 H 0.4627 0.51741 0.92353 0.0
H445 H 0.47656 0.50645 0.90062 0.0
H446 H 0.53424 0.50032 0.07021 0.0
H447 H 0.4929 0.52306 0.08763 0.0
H448 H 0.54575 0.49931 0.09803 0.0
H449 H 0.53116 0.50971 0.1208 0.0
Gd450 Gd 0.17728 0.34714 0.36747 0.0
Gd451 Gd 0.15765 0.32135 0.32747 0.0
C452 C 0.09274 0.26081 0.32137 0.0
C453 C 0.10351 0.23511 0.31418 0.0
C454 C 0.13056 0.27197 0.31873 0.0
C455 C 0.11461 0.27671 0.32217 0.0
C456 C 0.12522 0.25122 0.31436 0.0
C457 C 0.0873 0.23989 0.3177 0.0
C458 C 0.07701 0.26651 0.32389 0.0
C459 C 0.08328 0.28773 0.32652 0.0
N460 N 0.12046 0.2971 0.32557 0.0
C461 C 0.10519 0.30295 0.3271 0.0
H462 H 0.10978 0.31926 0.32926 0.0
C463 C 0.16748 0.28456 0.3139 0.0
N464 N 0.15131 0.28792 0.31898 0.0
C465 C 0.16301 0.26424 0.30947 0.0
C466 C 0.14182 0.24742 0.30992 0.0
H467 H 0.18391 0.29746 0.31365 0.0
H468 H 0.07059 0.22741 0.31718 0.0
H469 H 0.22459 0.34794 0.36501 0.0
H470 H 0.06003 0.25476 0.32346 0.0
H471 H 0.07124 0.29238 0.32819 0.0
H472 H 0.09908 0.21901 0.311 0.0
H473 H 0.15253 0.37235 0.38146 0.0
H474 H 0.27557 0.41199 0.37008 0.0
H475 H 0.2633 0.3741 0.36549 0.0
H476 H 0.23848 0.44953 0.38297 0.0
H477 H 0.1759 0.2616 0.3057 0.0
H478 H 0.13841 0.2317 0.30648 0.0
H479 H 0.26614 0.4401 0.37643 0.0
H480 H 0.16163 0.40872 0.38907 0.0
N481 N 0.21473 0.3707 0.36899 0.0
C482 C 0.25849 0.40053 0.36995 0.0
C483 C 0.25163 0.37916 0.36739 0.0
C484 C 0.24324 0.40678 0.37274 0.0
C485 C 0.22121 0.39124 0.37232 0.0
C486 C 0.22958 0.36434 0.36715 0.0
N487 N 0.18483 0.38099 0.3759 0.0
C488 C 0.20574 0.39657 0.3759 0.0
C489 C 0.17419 0.40553 0.38533 0.0
C490 C 0.19557 0.42196 0.38465 0.0
C491 C 0.1691 0.38497 0.38108 0.0
C492 C 0.21171 0.41754 0.3801 0.0
H493 H 0.19948 0.43787 0.38796 0.0
O494 O 0.16152 0.33942 0.39082 0.0
O495 O 0.15079 0.32118 0.35355 0.0
O496 O 0.14765 0.34586 0.33288 0.0
O497 O 0.17247 0.36946 0.3517 0.0
O498 O 0.14174 0.33526 0.37099 0.0
O499 O 0.18886 0.33507 0.38662 0.0
O500 O 0.17469 0.33105 0.30469 0.0
O501 O 0.18395 0.34752 0.34138 0.0
O502 O 0.18681 0.32228 0.36203 0.0
O503 O 0.16185 0.29869 0.34331 0.0
O504 O 0.19327 0.33347 0.32417 0.0
O505 O 0.14494 0.33149 0.3077 0.0
C506 C 0.13467 0.32035 0.36032 0.0
C507 C 0.23356 0.43327 0.37994 0.0
C508 C 0.24931 0.4279 0.37623 0.0
C509 C 0.17486 0.33415 0.39708 0.0
C510 C 0.18312 0.34253 0.41332 0.0
C511 C 0.19899 0.36376 0.41552 0.0
C512 C 0.17498 0.32913 0.42677 0.0
C513 C 0.18273 0.33686 0.44245 0.0
C514 C 0.20668 0.37157 0.43099 0.0
C515 C 0.19865 0.35829 0.44435 0.0
C516 C 0.15804 0.3647 0.34005 0.0
C517 C 0.20019 0.3486 0.33463 0.0
C518 C 0.16033 0.33442 0.29783 0.0
C519 C 0.15398 0.32604 0.28131 0.0
C520 C 0.1397 0.30444 0.27864 0.0
C521 C 0.163 0.33967 0.26805 0.0
C522 C 0.15799 0.33171 0.25213 0.0
C523 C 0.13455 0.29648 0.26292 0.0
C524 C 0.14364 0.30994 0.24976 0.0
C525 C 0.17634 0.30344 0.3549 0.0
H526 H 0.20541 0.37427 0.40531 0.0
H527 H 0.16284 0.31266 0.42498 0.0
H528 H 0.21888 0.38802 0.43263 0.0
H529 H 0.20473 0.36489 0.45622 0.0
H530 H 0.13265 0.29375 0.28869 0.0
H531 H 0.17422 0.35634 0.27014 0.0
H532 H 0.12351 0.27978 0.26093 0.0
H533 H 0.13923 0.30336 0.23769 0.0
Gd534 Gd 0.65691 0.82816 0.36872 0.0
Gd535 Gd 0.68331 0.83872 0.32911 0.0
C536 C 0.74481 0.83546 0.32311 0.0
C537 C 0.77163 0.87241 0.31894 0.0
C538 C 0.73399 0.86203 0.32257 0.0
C539 C 0.72873 0.84115 0.3243 0.0
C540 C 0.7554 0.87784 0.3195 0.0
C541 C 0.76634 0.85126 0.32077 0.0
C542 C 0.73869 0.81404 0.32401 0.0
C543 C 0.71694 0.79887 0.32553 0.0
N544 N 0.70777 0.82629 0.32653 0.0
C545 C 0.70157 0.80529 0.32659 0.0
H546 H 0.68485 0.7934 0.32791 0.0
C547 C 0.72182 0.88657 0.31943 0.0
N548 N 0.71791 0.86671 0.32308 0.0
C549 C 0.74284 0.90283 0.31643 0.0
C550 C 0.75975 0.89851 0.31667 0.0
H551 H 0.70877 0.88996 0.31937 0.0
H552 H 0.77895 0.84722 0.32 0.0
H553 H 0.65073 0.87057 0.36726 0.0
H554 H 0.75056 0.80902 0.32324 0.0
H555 H 0.712 0.78223 0.32599 0.0
H556 H 0.78822 0.88436 0.31676 0.0
H557 H 0.63699 0.7788 0.38231 0.0
H558 H 0.58637 0.85225 0.38101 0.0
H559 H 0.62252 0.87975 0.37215 0.0
H560 H 0.55621 0.77911 0.39461 0.0
H561 H 0.74598 0.91868 0.31396 0.0
H562 H 0.77601 0.91112 0.31428 0.0
H563 H 0.56224 0.81487 0.39033 0.0
H564 H 0.60284 0.74979 0.3927 0.0
N565 N 0.63027 0.83774 0.37179 0.0
C566 C 0.59849 0.84796 0.37838 0.0
C567 C 0.61891 0.86355 0.37347 0.0
C568 C 0.59425 0.82721 0.38048 0.0
C569 C 0.61064 0.82251 0.37692 0.0
C570 C 0.63483 0.85823 0.37059 0.0
N571 N 0.62461 0.79953 0.37827 0.0
C572 C 0.60764 0.80267 0.38012 0.0
C573 C 0.60393 0.76455 0.38916 0.0
C574 C 0.5861 0.76729 0.39064 0.0
C575 C 0.62328 0.78107 0.38323 0.0
C576 C 0.58798 0.78671 0.38652 0.0
H577 H 0.57123 0.75461 0.39551 0.0
O578 O 0.66685 0.82205 0.39194 0.0
O579 O 0.68397 0.83013 0.35456 0.0
O580 O 0.65776 0.80393 0.33154 0.0
O581 O 0.63468 0.80064 0.35276 0.0
O582 O 0.67079 0.80642 0.3712 0.0
O583 O 0.66884 0.85223 0.38746 0.0
O584 O 0.67704 0.84946 0.30644 0.0
O585 O 0.65533 0.83563 0.34293 0.0
O586 O 0.68055 0.86328 0.36448 0.0
O587 O 0.70564 0.86365 0.34668 0.0
O588 O 0.66971 0.86081 0.32743 0.0
O589 O 0.67416 0.81845 0.3079 0.0
C590 C 0.68569 0.8152 0.36058 0.0
C591 C 0.57133 0.79106 0.38952 0.0
C592 C 0.57465 0.81138 0.38683 0.0
C593 C 0.67126 0.84032 0.39796 0.0
C594 C 0.66328 0.84024 0.41422 0.0
C595 C 0.6412 0.83123 0.4172 0.0
C596 C 0.67811 0.84963 0.42691 0.0
C597 C 0.671 0.84993 0.44266 0.0
C598 C 0.63399 0.83153 0.43276 0.0
C599 C 0.64874 0.84077 0.44544 0.0
C600 C 0.63948 0.79331 0.33968 0.0
C601 C 0.65387 0.85087 0.33723 0.0
C602 C 0.6736 0.83254 0.29856 0.0
C603 C 0.68431 0.83609 0.28288 0.0
C604 C 0.70668 0.84486 0.28191 0.0
C605 C 0.67196 0.83093 0.26867 0.0
C606 C 0.68187 0.83467 0.25344 0.0
C607 C 0.71666 0.84868 0.2669 0.0
C608 C 0.70441 0.84371 0.25275 0.0
C609 C 0.70029 0.87233 0.35847 0.0
H610 H 0.62958 0.82402 0.40756 0.0
H611 H 0.69519 0.85685 0.42445 0.0
H612 H 0.6169 0.82447 0.43502 0.0
H613 H 0.64268 0.84039 0.45746 0.0
H614 H 0.71643 0.84882 0.29269 0.0
H615 H 0.65462 0.8238 0.26953 0.0
H616 H 0.73397 0.85561 0.26624 0.0
H617 H 0.71264 0.84719 0.24128 0.0
Gd618 Gd 0.16469 0.84204 0.32504 0.0
Gd619 Gd 0.18231 0.83339 0.36482 0.0
C620 C 0.24657 0.83656 0.37435 0.0
C621 C 0.23545 0.79975 0.37961 0.0
C622 C 0.20873 0.81002 0.3736 0.0
C623 C 0.22485 0.83081 0.37183 0.0
C624 C 0.21379 0.79428 0.37776 0.0
C625 C 0.25182 0.82087 0.37795 0.0
C626 C 0.26229 0.85798 0.37363 0.0
C627 C 0.25616 0.87304 0.37057 0.0
N628 N 0.21922 0.84557 0.36838 0.0
C629 C 0.23444 0.86654 0.36808 0.0
H630 H 0.22998 0.87837 0.36575 0.0
C631 C 0.17143 0.78553 0.37539 0.0
N632 N 0.18798 0.80538 0.37203 0.0
C633 C 0.17563 0.76934 0.37938 0.0
C634 C 0.1969 0.77365 0.38039 0.0
H635 H 0.15494 0.78205 0.37459 0.0
H636 H 0.26843 0.82497 0.37979 0.0
H637 H 0.11721 0.79658 0.32581 0.0
H638 H 0.2791 0.86306 0.37579 0.0
H639 H 0.26808 0.88967 0.37022 0.0
H640 H 0.23969 0.78787 0.3827 0.0
H641 H 0.1904 0.89211 0.31233 0.0
H642 H 0.06674 0.81121 0.32034 0.0
H643 H 0.07854 0.78497 0.32449 0.0
H644 H 0.10488 0.88568 0.30953 0.0
H645 H 0.16245 0.75359 0.38176 0.0
H646 H 0.2001 0.76109 0.38357 0.0
H647 H 0.07674 0.84893 0.31493 0.0
H648 H 0.18191 0.91997 0.30506 0.0
N649 N 0.1274 0.82922 0.32284 0.0
C650 C 0.08378 0.81642 0.32087 0.0
C651 C 0.09038 0.80156 0.32318 0.0
C652 C 0.09927 0.83773 0.31881 0.0
C653 C 0.12123 0.84367 0.31975 0.0
C654 C 0.11237 0.80823 0.32391 0.0
N655 N 0.15784 0.86906 0.31714 0.0
C656 C 0.13698 0.86428 0.3168 0.0
C657 C 0.16912 0.90439 0.3084 0.0
C658 C 0.14778 0.89999 0.30873 0.0
C659 C 0.17387 0.88858 0.31247 0.0
C660 C 0.13135 0.87964 0.31275 0.0
H661 H 0.14413 0.91225 0.30556 0.0
O662 O 0.18098 0.85037 0.30191 0.0
O663 O 0.19093 0.84172 0.33915 0.0
O664 O 0.19261 0.86801 0.36068 0.0
O665 O 0.16899 0.86853 0.34145 0.0
O666 O 0.20041 0.86522 0.32229 0.0
O667 O 0.15314 0.81929 0.30527 0.0
O668 O 0.1647 0.82433 0.38736 0.0
O669 O 0.15646 0.83459 0.35088 0.0
O670 O 0.15515 0.80759 0.32939 0.0
O671 O 0.1805 0.80874 0.3476 0.0
O672 O 0.14661 0.81015 0.36691 0.0
O673 O 0.1936 0.85497 0.38537 0.0
C674 C 0.20729 0.8571 0.3329 0.0
C675 C 0.10954 0.87406 0.31245 0.0
C676 C 0.09352 0.85314 0.31551 0.0
C677 C 0.16746 0.83236 0.29514 0.0
C678 C 0.1596 0.8335 0.27897 0.0
C679 C 0.14523 0.84107 0.27694 0.0
C680 C 0.1668 0.82723 0.26539 0.0
C681 C 0.15984 0.82865 0.24972 0.0
C682 C 0.13825 0.84254 0.26152 0.0
C683 C 0.14552 0.83648 0.24801 0.0
C684 C 0.18307 0.87735 0.3534 0.0
C685 C 0.13998 0.81914 0.3569 0.0
C686 C 0.17839 0.84165 0.39486 0.0
C687 C 0.18495 0.83891 0.41109 0.0
C688 C 0.19831 0.83018 0.41311 0.0
C689 C 0.17723 0.8445 0.42473 0.0
C690 C 0.18274 0.84131 0.44043 0.0
C691 C 0.20377 0.82686 0.42855 0.0
C692 C 0.19601 0.83228 0.44212 0.0
C693 C 0.16634 0.79942 0.3358 0.0
H694 H 0.13949 0.84591 0.28724 0.0
H695 H 0.17768 0.82112 0.26709 0.0
H696 H 0.12728 0.84855 0.26002 0.0
H697 H 0.14017 0.83828 0.23619 0.0
H698 H 0.20439 0.8258 0.40279 0.0
H699 H 0.16711 0.85148 0.42308 0.0
H700 H 0.21396 0.81994 0.43003 0.0
H701 H 0.20023 0.82912 0.45393 0.0
Gd702 Gd 0.8425 0.68118 0.70136 0.0
Gd703 Gd 0.83069 0.65854 0.66008 0.0
C704 C 0.76914 0.59723 0.64712 0.0
C705 C 0.78269 0.57327 0.64151 0.0
C706 C 0.80737 0.6099 0.64897 0.0
C707 C 0.79031 0.61352 0.6505 0.0
C708 C 0.80383 0.58984 0.64422 0.0
C709 C 0.76537 0.57697 0.64293 0.0
C710 C 0.75249 0.60193 0.64761 0.0
C711 C 0.75722 0.62256 0.65111 0.0
N712 N 0.79456 0.63329 0.6545 0.0
C713 C 0.7785 0.63819 0.65436 0.0
H714 H 0.78193 0.65404 0.65704 0.0
C715 C 0.84509 0.62412 0.64857 0.0
N716 N 0.82756 0.62633 0.65149 0.0
C717 C 0.84242 0.60451 0.64394 0.0
C718 C 0.82169 0.5872 0.64195 0.0
H719 H 0.86117 0.63737 0.65018 0.0
H720 H 0.74917 0.56419 0.64043 0.0
H721 H 0.89112 0.68531 0.70314 0.0
H722 H 0.73605 0.58988 0.64492 0.0
H723 H 0.74453 0.62647 0.65127 0.0
H724 H 0.77961 0.55769 0.63796 0.0
H725 H 0.81236 0.70318 0.70977 0.0
H726 H 0.93649 0.74704 0.72069 0.0
H727 H 0.92821 0.71168 0.71098 0.0
H728 H 0.89315 0.779 0.7302 0.0
H729 H 0.85636 0.60279 0.64186 0.0
H730 H 0.81968 0.57203 0.63832 0.0
H731 H 0.92289 0.77152 0.72875 0.0
H732 H 0.81727 0.73719 0.71979 0.0
N733 N 0.87867 0.70599 0.70715 0.0
C734 C 0.92025 0.73571 0.71685 0.0
C735 C 0.91562 0.71574 0.71144 0.0
C736 C 0.90373 0.7406 0.71769 0.0
C737 C 0.88288 0.72529 0.71252 0.0
C738 C 0.89455 0.70085 0.70693 0.0
N739 N 0.84585 0.71338 0.71015 0.0
C740 C 0.86594 0.72915 0.71398 0.0
C741 C 0.8311 0.73515 0.7182 0.0
C742 C 0.85172 0.75162 0.72206 0.0
C743 C 0.82839 0.7159 0.71253 0.0
C744 C 0.86941 0.74861 0.72025 0.0
H745 H 0.85374 0.76638 0.72675 0.0
O746 O 0.82374 0.6717 0.72347 0.0
O747 O 0.81885 0.65575 0.6852 0.0
O748 O 0.81843 0.6814 0.66465 0.0
O749 O 0.84086 0.70462 0.68461 0.0
O750 O 0.80649 0.6681 0.70145 0.0
O751 O 0.85158 0.66775 0.72118 0.0
O752 O 0.84953 0.66845 0.63803 0.0
O753 O 0.85418 0.68393 0.67629 0.0
O754 O 0.85429 0.65773 0.6971 0.0
O755 O 0.83234 0.63513 0.67664 0.0
O756 O 0.86687 0.67198 0.66011 0.0
O757 O 0.82116 0.67151 0.64021 0.0
C758 C 0.80149 0.65402 0.69033 0.0
C759 C 0.8902 0.76406 0.72514 0.0
C760 C 0.90722 0.7599 0.72413 0.0
C761 C 0.83629 0.66604 0.73064 0.0
C762 C 0.84259 0.67333 0.74745 0.0
C763 C 0.85688 0.69475 0.75078 0.0
C764 C 0.8346 0.65877 0.76029 0.0
C765 C 0.84116 0.6656 0.77635 0.0
C766 C 0.86327 0.70164 0.76661 0.0
C767 C 0.85555 0.68723 0.77929 0.0
C768 C 0.82778 0.70007 0.67203 0.0
C769 C 0.87168 0.68596 0.6713 0.0
C770 C 0.83664 0.67359 0.6308 0.0
C771 C 0.83047 0.66602 0.61405 0.0
C772 C 0.81659 0.64446 0.61089 0.0
C773 C 0.83825 0.68041 0.60111 0.0
C774 C 0.83194 0.67329 0.58507 0.0
C775 C 0.81045 0.63728 0.59508 0.0
C776 C 0.818 0.65153 0.58227 0.0
C777 C 0.84513 0.63931 0.68932 0.0
H778 H 0.86315 0.70614 0.74117 0.0
H779 H 0.82365 0.64216 0.75775 0.0
H780 H 0.87429 0.71823 0.76905 0.0
H781 H 0.86066 0.69308 0.79148 0.0
H782 H 0.81046 0.63319 0.62063 0.0
H783 H 0.84885 0.69711 0.60356 0.0
H784 H 0.79976 0.6206 0.59274 0.0
H785 H 0.81307 0.64545 0.57012 0.0
Gd786 Gd 0.32397 0.1596 0.70286 0.0
Gd787 Gd 0.35002 0.17111 0.66297 0.0
C788 C 0.40892 0.16279 0.65771 0.0
C789 C 0.43749 0.19885 0.65285 0.0
C790 C 0.40054 0.191 0.65623 0.0
C791 C 0.39393 0.16994 0.65855 0.0
C792 C 0.42224 0.20558 0.65272 0.0
C793 C 0.43084 0.17747 0.65539 0.0
C794 C 0.40132 0.14106 0.65867 0.0
C795 C 0.37921 0.12704 0.65971 0.0
N796 N 0.37261 0.15623 0.66057 0.0
C797 C 0.36499 0.1349 0.66044 0.0
H798 H 0.34801 0.12376 0.66139 0.0
C799 C 0.39028 0.21642 0.65058 0.0
N800 N 0.38534 0.19683 0.65595 0.0
C801 C 0.4116 0.23154 0.64706 0.0
C802 C 0.42775 0.22622 0.64846 0.0
H803 H 0.37781 0.22058 0.64961 0.0
H804 H 0.44264 0.17233 0.65496 0.0
H805 H 0.3183 0.20236 0.70292 0.0
H806 H 0.41231 0.13494 0.65813 0.0
H807 H 0.3731 0.11015 0.66007 0.0
H808 H 0.45431 0.20987 0.65043 0.0
H809 H 0.30295 0.10859 0.71285 0.0
H810 H 0.25434 0.1839 0.71794 0.0
H811 H 0.29039 0.2116 0.70905 0.0
H812 H 0.22364 0.11002 0.72906 0.0
H813 H 0.41556 0.24726 0.64331 0.0
H814 H 0.44424 0.23791 0.64564 0.0
H815 H 0.2301 0.14618 0.72635 0.0
H816 H 0.26866 0.0793 0.7228 0.0
N817 N 0.29769 0.1694 0.70677 0.0
C818 C 0.26631 0.17961 0.71475 0.0
C819 C 0.28667 0.19531 0.70981 0.0
C820 C 0.2619 0.1587 0.71606 0.0
C821 C 0.27805 0.15398 0.71174 0.0
C822 C 0.30241 0.18997 0.70623 0.0
N823 N 0.29137 0.13031 0.71114 0.0
C824 C 0.27474 0.13376 0.71393 0.0
C825 C 0.27013 0.09451 0.72032 0.0
C826 C 0.25275 0.0977 0.723 0.0
C827 C 0.28955 0.11118 0.71465 0.0
C828 C 0.25505 0.11761 0.72013 0.0
H829 H 0.23786 0.08488 0.7277 0.0
O830 O 0.33381 0.15136 0.72526 0.0
O831 O 0.3516 0.16294 0.68848 0.0
O832 O 0.32368 0.13647 0.66545 0.0
O833 O 0.30047 0.13409 0.68609 0.0
O834 O 0.33741 0.1375 0.70377 0.0
O835 O 0.33382 0.18099 0.72342 0.0
O836 O 0.34477 0.18272 0.64026 0.0
O837 O 0.3229 0.16856 0.67746 0.0
O838 O 0.34809 0.19481 0.70031 0.0
O839 O 0.3715 0.19872 0.67923 0.0
O840 O 0.33676 0.19352 0.66176 0.0
O841 O 0.3378 0.15034 0.64207 0.0
C842 C 0.35296 0.14748 0.69382 0.0
C843 C 0.23875 0.12212 0.72407 0.0
C844 C 0.24233 0.1427 0.72232 0.0
C845 C 0.33676 0.16833 0.7328 0.0
C846 C 0.32786 0.1653 0.74915 0.0
C847 C 0.30577 0.1572 0.75156 0.0
C848 C 0.34168 0.17062 0.76256 0.0
C849 C 0.33348 0.16774 0.77835 0.0
C850 C 0.2975 0.15423 0.76714 0.0
C851 C 0.31122 0.15943 0.78048 0.0
C852 C 0.30493 0.12642 0.67308 0.0
C853 C 0.32146 0.18396 0.67206 0.0
C854 C 0.33906 0.16509 0.63255 0.0
C855 C 0.34933 0.16696 0.61686 0.0
C856 C 0.37113 0.1728 0.61598 0.0
C857 C 0.33712 0.16251 0.60261 0.0
C858 C 0.3466 0.16377 0.58749 0.0
C859 C 0.3807 0.17433 0.60105 0.0
C860 C 0.36856 0.16984 0.58688 0.0
C861 C 0.36642 0.20576 0.69232 0.0
H862 H 0.29493 0.15325 0.74146 0.0
H863 H 0.35876 0.17679 0.7607 0.0
H864 H 0.28042 0.14798 0.76889 0.0
H865 H 0.30446 0.15728 0.79245 0.0
H866 H 0.38072 0.17608 0.62679 0.0
H867 H 0.32017 0.15766 0.60333 0.0
H868 H 0.39757 0.17893 0.60046 0.0
H869 H 0.37639 0.17123 0.57543 0.0
Gd870 Gd 0.83233 0.17476 0.66027 0.0
Gd871 Gd 0.85207 0.16877 0.70006 0.0
C872 C 0.917 0.17323 0.70939 0.0
C873 C 0.90642 0.13702 0.71645 0.0
C874 C 0.87924 0.14651 0.70993 0.0
C875 C 0.89514 0.16712 0.70713 0.0
C876 C 0.88464 0.13127 0.71487 0.0
C877 C 0.92257 0.15799 0.71376 0.0
C878 C 0.93254 0.19458 0.70767 0.0
C879 C 0.92609 0.20923 0.70394 0.0
N880 N 0.88918 0.18145 0.703 0.0
C881 C 0.90424 0.20239 0.70175 0.0
H882 H 0.89957 0.21394 0.69891 0.0
C883 C 0.84211 0.12206 0.71288 0.0
N884 N 0.85841 0.14163 0.70857 0.0
C885 C 0.84664 0.10637 0.71774 0.0
C886 C 0.86799 0.11088 0.71854 0.0
H887 H 0.82556 0.11839 0.71225 0.0
H888 H 0.93929 0.16235 0.71541 0.0
H889 H 0.78545 0.12869 0.66223 0.0
H890 H 0.94945 0.19995 0.70961 0.0
H891 H 0.93786 0.22584 0.70286 0.0
H892 H 0.91091 0.12551 0.72014 0.0
H893 H 0.85661 0.2246 0.64709 0.0
H894 H 0.7338 0.14168 0.65723 0.0
H895 H 0.74659 0.11623 0.6615 0.0
H896 H 0.77004 0.21589 0.64556 0.0
H897 H 0.83366 0.09087 0.72097 0.0
H898 H 0.87145 0.09871 0.72238 0.0
H899 H 0.74272 0.17901 0.65149 0.0
H900 H 0.847 0.25175 0.63996 0.0
N901 N 0.79482 0.16106 0.65872 0.0
C902 C 0.75093 0.14726 0.65748 0.0
C903 C 0.75809 0.13285 0.65986 0.0
C904 C 0.76598 0.16863 0.65504 0.0
C905 C 0.78809 0.17507 0.6556 0.0
C906 C 0.7802 0.14001 0.66024 0.0
N907 N 0.8244 0.20107 0.65238 0.0
C908 C 0.80338 0.19577 0.65234 0.0
C909 C 0.83458 0.23608 0.64349 0.0
C910 C 0.81309 0.23115 0.64413 0.0
C911 C 0.83996 0.22068 0.64746 0.0
C912 C 0.79712 0.21069 0.64837 0.0
H913 H 0.80896 0.2431 0.64101 0.0
O914 O 0.84761 0.18275 0.63677 0.0
O915 O 0.8593 0.17531 0.67398 0.0
O916 O 0.86214 0.20297 0.69444 0.0
O917 O 0.83641 0.20144 0.67636 0.0
O918 O 0.86782 0.19799 0.6565 0.0
O919 O 0.82044 0.15143 0.64091 0.0
O920 O 0.83551 0.16126 0.72306 0.0
O921 O 0.82538 0.16856 0.68631 0.0
O922 O 0.82349 0.14068 0.66556 0.0
O923 O 0.84928 0.14281 0.68388 0.0
O924 O 0.81652 0.14549 0.70341 0.0
O925 O 0.86364 0.19211 0.71941 0.0
C926 C 0.87527 0.19039 0.66711 0.0
C927 C 0.77518 0.2046 0.64842 0.0
C928 C 0.75962 0.1836 0.65177 0.0
C929 C 0.83408 0.16446 0.6304 0.0
C930 C 0.82533 0.16501 0.61445 0.0
C931 C 0.809 0.17015 0.61292 0.0
C932 C 0.83378 0.16082 0.60054 0.0
C933 C 0.82614 0.16197 0.58509 0.0
C934 C 0.80128 0.17122 0.59767 0.0
C935 C 0.8098 0.16723 0.58384 0.0
C936 C 0.8513 0.21126 0.68765 0.0
C937 C 0.80928 0.15351 0.69303 0.0
C938 C 0.8491 0.1794 0.72959 0.0
C939 C 0.85663 0.17851 0.74592 0.0
C940 C 0.87253 0.17296 0.7483 0.0
C941 C 0.84752 0.18295 0.7593 0.0
C942 C 0.85436 0.182 0.77509 0.0
C943 C 0.8793 0.17186 0.76389 0.0
C944 C 0.87031 0.17633 0.7772 0.0
C945 C 0.83458 0.13273 0.67253 0.0
H946 H 0.80229 0.17338 0.62347 0.0
H947 H 0.84657 0.15707 0.60173 0.0
H948 H 0.78867 0.17519 0.59657 0.0
H949 H 0.80345 0.16805 0.57215 0.0
H950 H 0.87967 0.16946 0.73816 0.0
H951 H 0.83537 0.18743 0.75739 0.0
H952 H 0.89153 0.16748 0.76567 0.0
H953 H 0.87572 0.17514 0.78917 0.0
H954 H 0.2882 0.85934 0.08066 0.0
H955 H 0.32145 0.88877 0.06962 0.0
H956 H 0.34608 0.84645 0.06114 0.0
H957 H 0.31287 0.81702 0.07201 0.0
H958 H 0.37674 0.88617 0.07497 0.0
H959 H 0.32588 0.85827 0.03065 0.0
H960 H 0.29117 0.84747 0.01713 0.0
H961 H 0.30205 0.9107 0.02189 0.0
H962 H 0.3367 0.9218 0.03568 0.0
H963 H 0.46337 0.95015 0.02363 0.0
H964 H 0.4292 0.91995 0.0323 0.0
H965 H 0.40229 0.96087 0.03781 0.0
H966 H 0.43647 0.99111 0.02912 0.0
H967 H 0.37262 0.92178 0.02526 0.0
H968 H 0.42099 0.95023 0.07 0.0
H969 H 0.45482 0.96274 0.08527 0.0
H970 H 0.44823 0.90105 0.0815 0.0
H971 H 0.41441 0.88823 0.06604 0.0
C972 C 0.30085 0.85642 0.07663 0.0
C973 C 0.29795 0.83591 0.07714 0.0
C974 C 0.31975 0.87318 0.07024 0.0
C975 C 0.33615 0.86974 0.06443 0.0
C976 C 0.33362 0.84944 0.06551 0.0
C977 C 0.31463 0.83265 0.07167 0.0
C978 C 0.35572 0.88713 0.0568 0.0
C979 C 0.37588 0.89375 0.06398 0.0
C980 C 0.35453 0.89743 0.04271 0.0
C981 C 0.33377 0.8908 0.03435 0.0
C982 C 0.32078 0.86982 0.02894 0.0
C983 C 0.30114 0.86366 0.02121 0.0
C984 C 0.29438 0.87837 0.01869 0.0
C985 C 0.30729 0.89931 0.02387 0.0
C986 C 0.32694 0.90555 0.03164 0.0
C987 C 0.45 0.95259 0.02624 0.0
C988 C 0.45246 0.97292 0.02555 0.0
C989 C 0.43053 0.93536 0.03134 0.0
C990 C 0.41328 0.93822 0.0359 0.0
C991 C 0.41537 0.9583 0.03436 0.0
C992 C 0.43487 0.97554 0.0294 0.0
C993 C 0.39366 0.9207 0.04337 0.0
C994 C 0.3735 0.9141 0.03619 0.0
C995 C 0.3948 0.91065 0.05763 0.0
C996 C 0.4153 0.91833 0.0667 0.0
C997 C 0.42687 0.93939 0.07228 0.0
C998 C 0.44602 0.94653 0.081 0.0
C999 C 0.45372 0.93273 0.08432 0.0
C1000 C 0.44227 0.91175 0.0789 0.0
C1001 C 0.42309 0.90452 0.07017 0.0
H1002 H 0.4685 0.93827 0.09114 0.0
H1003 H 0.27917 0.87357 0.01269 0.0
H1004 H 0.17463 0.47643 0.1005 0.0
H1005 H 0.14569 0.48209 0.09051 0.0
H1006 H 0.15123 0.46029 0.04329 0.0
H1007 H 0.17998 0.45453 0.05317 0.0
H1008 H 0.14948 0.49555 0.04087 0.0
H1009 H 0.10922 0.42965 0.06989 0.0
H1010 H 0.09911 0.40683 0.0939 0.0
H1011 H 0.08227 0.44816 0.11886 0.0
H1012 H 0.09257 0.47139 0.09507 0.0
H1013 H 0.02493 0.45335 0.02992 0.0
H1014 H 0.05619 0.45064 0.03825 0.0
H1015 H 0.09591 0.5186 0.0359 0.0
H1016 H 0.06491 0.52107 0.02647 0.0
H1017 H 0.07649 0.46285 0.06452 0.0
H1018 H 0.13757 0.53484 0.03771 0.0
H1019 H 0.15367 0.55731 0.01378 0.0
H1020 H 0.13209 0.5018 0.9842 0.0
H1021 H 0.11499 0.47909 0.00785 0.0
C1022 C 0.16953 0.47262 0.08803 0.0
C1023 C 0.17979 0.4651 0.07764 0.0
C1024 C 0.15295 0.47588 0.08232 0.0
C1025 C 0.14612 0.47154 0.06612 0.0
C1026 C 0.15624 0.46389 0.0558 0.0
C1027 C 0.17279 0.46068 0.06147 0.0
C1028 C 0.12889 0.4754 0.05965 0.0
C1029 C 0.13348 0.48833 0.04606 0.0
C1030 C 0.10808 0.46635 0.06648 0.0
C1031 C 0.10189 0.45238 0.08077 0.0
C1032 C 0.10353 0.43397 0.08055 0.0
C1033 C 0.09774 0.42094 0.09411 0.0
C1034 C 0.09012 0.42607 0.10791 0.0
C1035 C 0.08822 0.44422 0.10817 0.0
C1036 C 0.09402 0.45732 0.09465 0.0
C1037 C 0.04053 0.46763 0.03067 0.0
C1038 C 0.04252 0.48736 0.0273 0.0
C1039 C 0.05843 0.46613 0.03555 0.0
C1040 C 0.07876 0.48437 0.03766 0.0
C1041 C 0.08084 0.50413 0.03389 0.0
C1042 C 0.06297 0.50558 0.02858 0.0
C1043 C 0.0968 0.4825 0.04529 0.0
C1044 C 0.09244 0.47007 0.05928 0.0
C1045 C 0.1179 0.49207 0.0389 0.0
C1046 C 0.1245 0.50536 0.02437 0.0
C1047 C 0.13573 0.5275 0.02598 0.0
C1048 C 0.14508 0.54026 0.0125 0.0
C1049 C 0.14386 0.53099 0.99747 0.0
C1050 C 0.13288 0.50896 0.99583 0.0
C1051 C 0.12305 0.49614 0.0092 0.0
H1052 H 0.15144 0.54088 0.98709 0.0
H1053 H 0.08563 0.41596 0.1184 0.0
H1054 H 0.58421 0.73779 0.05793 0.0
H1055 H 0.57277 0.70157 0.04946 0.0
H1056 H 0.5222 0.67774 0.08496 0.0
H1057 H 0.53404 0.71413 0.09377 0.0
H1058 H 0.53897 0.65255 0.08302 0.0
H1059 H 0.51095 0.68206 0.04573 0.0
H1060 H 0.51192 0.70875 0.02706 0.0
H1061 H 0.55586 0.70123 0.99645 0.0
H1062 H 0.55542 0.67471 0.01507 0.0
H1063 H 0.48911 0.566 0.01413 0.0
H1064 H 0.49461 0.59885 0.02648 0.0
H1065 H 0.55101 0.60627 0.05136 0.0
H1066 H 0.54523 0.57322 0.03953 0.0
H1067 H 0.52476 0.63747 0.02441 0.0
H1068 H 0.5582 0.63098 0.08735 0.0
H1069 H 0.55348 0.60301 0.1063 0.0
H1070 H 0.49068 0.56139 0.0865 0.0
H1071 H 0.49481 0.58923 0.06764 0.0
C1072 C 0.57074 0.7248 0.06399 0.0
C1073 C 0.5598 0.72869 0.07634 0.0
C1074 C 0.5642 0.70414 0.05914 0.0
C1075 C 0.54631 0.68698 0.06632 0.0
C1076 C 0.53596 0.69076 0.0792 0.0
C1077 C 0.54271 0.71149 0.08421 0.0
C1078 C 0.53799 0.66528 0.05982 0.0
C1079 C 0.53579 0.64918 0.07023 0.0
C1080 C 0.53311 0.66072 0.04321 0.0
C1081 C 0.53326 0.6765 0.03186 0.0
C1082 C 0.52092 0.68619 0.03507 0.0
C1083 C 0.52137 0.70128 0.02449 0.0
C1084 C 0.53397 0.70671 0.01059 0.0
C1085 C 0.54611 0.69701 0.00723 0.0
C1086 C 0.54575 0.68193 0.01778 0.0
C1087 C 0.50269 0.57466 0.02222 0.0
C1088 C 0.51668 0.56697 0.02592 0.0
C1089 C 0.50579 0.5934 0.0293 0.0
C1090 C 0.52297 0.60481 0.04011 0.0
C1091 C 0.53728 0.59744 0.04343 0.0
C1092 C 0.53406 0.57861 0.03653 0.0
C1093 C 0.52649 0.62486 0.04749 0.0
C1094 C 0.52774 0.64068 0.03724 0.0
C1095 C 0.52981 0.62889 0.06431 0.0
C1096 C 0.52693 0.61218 0.07594 0.0
C1097 C 0.54332 0.61592 0.08709 0.0
C1098 C 0.54077 0.60006 0.09779 0.0
C1099 C 0.52186 0.58039 0.09752 0.0
C1100 C 0.50538 0.57659 0.08663 0.0
C1101 C 0.50782 0.59241 0.07592 0.0
H1102 H 0.51992 0.56815 0.10582 0.0
H1103 H 0.5343 0.7184 0.00242 0.0
H1104 H 0.8508 0.28248 0.94089 0.0
H1105 H 0.87996 0.31645 0.95047 0.0
H1106 H 0.8336 0.33236 0.9689 0.0
H1107 H 0.8043 0.29898 0.9584 0.0
H1108 H 0.86515 0.36586 0.95598 0.0
H1109 H 0.86106 0.31435 0.99367 0.0
H1110 H 0.86033 0.28175 0.00246 0.0
H1111 H 0.92348 0.30437 0.98294 0.0
H1112 H 0.92448 0.33701 0.97384 0.0
H1113 H 0.93416 0.44668 0.0105 0.0
H1114 H 0.9061 0.41269 0.99991 0.0
H1115 H 0.954 0.40451 0.97472 0.0
H1116 H 0.98235 0.4386 0.98532 0.0
H1117 H 0.92252 0.36757 0.99075 0.0
H1118 H 0.92614 0.42026 0.95402 0.0
H1119 H 0.9266 0.4534 0.94737 0.0
H1120 H 0.8633 0.42857 0.96724 0.0
H1121 H 0.86261 0.3954 0.97426 0.0
C1122 C 0.84673 0.29331 0.94673 0.0
C1123 C 0.82507 0.28782 0.9489 0.0
C1124 C 0.86349 0.31267 0.95242 0.0
C1125 C 0.85905 0.32687 0.96072 0.0
C1126 C 0.83749 0.32166 0.96263 0.0
C1127 C 0.82071 0.3024 0.95677 0.0
C1128 C 0.87684 0.34705 0.96751 0.0
C1129 C 0.87752 0.36615 0.96372 0.0
C1130 C 0.89327 0.34761 0.97744 0.0
C1131 C 0.89275 0.32802 0.98293 0.0
C1132 C 0.87473 0.31231 0.99115 0.0
C1133 C 0.87427 0.29383 0.9962 0.0
C1134 C 0.89182 0.29097 0.99322 0.0
C1135 C 0.90989 0.3066 0.98522 0.0
C1136 C 0.91041 0.32509 0.98012 0.0
C1137 C 0.93884 0.4376 0.00286 0.0
C1138 C 0.96055 0.44539 0.99877 0.0
C1139 C 0.92273 0.4182 0.99674 0.0
C1140 C 0.92796 0.40619 0.98641 0.0
C1141 C 0.94964 0.41358 0.98265 0.0
C1142 C 0.9658 0.43309 0.98868 0.0
C1143 C 0.91069 0.38617 0.97923 0.0
C1144 C 0.91013 0.36718 0.98295 0.0
C1145 C 0.89425 0.38568 0.96942 0.0
C1146 C 0.89439 0.40539 0.96478 0.0
C1147 C 0.91236 0.4219 0.95705 0.0
C1148 C 0.91267 0.4407 0.95321 0.0
C1149 C 0.89501 0.4431 0.95691 0.0
C1150 C 0.87697 0.42669 0.96439 0.0
C1151 C 0.87661 0.40787 0.96829 0.0
H1152 H 0.89527 0.45766 0.95394 0.0
H1153 H 0.89144 0.27666 0.99715 0.0
H1154 H 0.72805 0.54403 0.97853 0.0
H1155 H 0.6947 0.54011 0.98931 0.0
H1156 H 0.66794 0.5296 0.94122 0.0
H1157 H 0.7008 0.53212 0.93042 0.0
H1158 H 0.6757 0.56131 0.98666 0.0
H1159 H 0.61291 0.49993 0.94206 0.0
H1160 H 0.60761 0.46977 0.92517 0.0
H1161 H 0.64938 0.45959 0.95648 0.0
H1162 H 0.65465 0.48946 0.97371 0.0
H1163 H 0.57684 0.56057 0.99216 0.0
H1164 H 0.61077 0.5624 0.98538 0.0
H1165 H 0.58424 0.49704 0.99903 0.0
H1166 H 0.54968 0.49486 0.00476 0.0
H1167 H 0.60327 0.50167 0.97263 0.0
H1168 H 0.63015 0.54234 0.02193 0.0
H1169 H 0.63692 0.57031 0.04189 0.0
H1170 H 0.66757 0.61768 0.00543 0.0
H1171 H 0.66123 0.59 0.98538 0.0
C1172 C 0.71498 0.54048 0.97021 0.0
C1173 C 0.71725 0.53819 0.95354 0.0
C1174 C 0.6959 0.53847 0.97641 0.0
C1175 C 0.6785 0.53426 0.96618 0.0
C1176 C 0.68084 0.5324 0.9495 0.0
C1177 C 0.69987 0.53417 0.94328 0.0
C1178 C 0.65825 0.53233 0.97302 0.0
C1179 C 0.65989 0.54821 0.98357 0.0
C1180 C 0.63747 0.51514 0.96931 0.0
C1181 C 0.63436 0.49709 0.95907 0.0
C1182 C 0.62092 0.49122 0.94537 0.0
C1183 C 0.61792 0.47417 0.93573 0.0
C1184 C 0.62823 0.46283 0.93971 0.0
C1185 C 0.64148 0.46845 0.95337 0.0
C1186 C 0.6445 0.48545 0.96307 0.0
C1187 C 0.57839 0.54669 0.99403 0.0
C1188 C 0.56066 0.5277 0.99932 0.0
C1189 C 0.59794 0.54779 0.99026 0.0
C1190 C 0.60048 0.52999 0.99189 0.0
C1191 C 0.5829 0.51109 0.99766 0.0
C1192 C 0.56316 0.5099 1.00118 0.0
C1193 C 0.62073 0.53067 0.98627 0.0
C1194 C 0.61909 0.51468 0.97582 0.0
C1195 C 0.64157 0.54749 0.99034 0.0
C1196 C 0.64493 0.56412 1.00218 0.0
C1197 C 0.63812 0.55872 0.01819 0.0
C1198 C 0.64199 0.57451 0.02951 0.0
C1199 C 0.65248 0.59573 0.02489 0.0
C1200 C 0.65935 0.60123 0.00898 0.0
C1201 C 0.65574 0.58552 0.99766 0.0
H1202 H 0.6554 0.60793 0.03366 0.0
H1203 H 0.6259 0.44965 0.93223 0.0
H1204 H 0.48642 0.18179 0.9259 0.0
H1205 H 0.49143 0.15298 0.93586 0.0
H1206 H 0.47422 0.16237 0.98381 0.0
H1207 H 0.46986 0.19159 0.97396 0.0
H1208 H 0.50767 0.15667 0.98525 0.0
H1209 H 0.43823 0.12089 0.9581 0.0
H1210 H 0.41395 0.11359 0.93479 0.0
H1211 H 0.45168 0.0947 0.90657 0.0
H1212 H 0.47626 0.10201 0.92968 0.0
H1213 H 0.4889 0.06128 0.02067 0.0
H1214 H 0.48429 0.08989 0.00985 0.0
H1215 H 0.50058 0.07798 0.96233 0.0
H1216 H 0.50463 0.04898 0.97315 0.0
H1217 H 0.46858 0.08525 0.96012 0.0
H1218 H 0.53733 0.11959 0.98678 0.0
H1219 H 0.56182 0.1262 0.00982 0.0
H1220 H 0.52684 0.14813 0.03826 0.0
H1221 H 0.50189 0.1413 0.01548 0.0
C1222 C 0.48362 0.1776 0.93854 0.0
C1223 C 0.47769 0.18881 0.94917 0.0
C1224 C 0.48645 0.16114 0.94422 0.0
C1225 C 0.4829 0.15531 0.96055 0.0
C1226 C 0.47708 0.1666 0.97118 0.0
C1227 C 0.47455 0.18324 0.96555 0.0
C1228 C 0.48522 0.13744 0.96663 0.0
C1229 C 0.49893 0.14099 0.97987 0.0
C1230 C 0.47429 0.11712 0.95933 0.0
C1231 C 0.45917 0.11216 0.94558 0.0
C1232 C 0.44137 0.11523 0.94691 0.0
C1233 C 0.42755 0.11108 0.93373 0.0
C1234 C 0.43129 0.10371 0.9192 0.0
C1235 C 0.44879 0.10037 0.91784 0.0
C1236 C 0.46265 0.10448 0.93098 0.0
C1237 C 0.49176 0.06498 0.008 0.0
C1238 C 0.49752 0.0533 0.9978 0.0
C1239 C 0.48903 0.08125 1.00179 0.0
C1240 C 0.49254 0.08639 0.98532 0.0
C1241 C 0.49786 0.07436 0.97507 0.0
C1242 C 0.5002 0.05786 0.98125 0.0
C1243 C 0.49087 0.10443 0.97883 0.0
C1244 C 0.47735 0.10093 0.96549 0.0
C1245 C 0.50212 0.12484 0.98594 0.0
C1246 C 0.51765 0.12981 0.99944 0.0
C1247 C 0.53483 0.12578 0.99796 0.0
C1248 C 0.54878 0.12954 0.01097 0.0
C1249 C 0.54587 0.13755 0.02549 0.0
C1250 C 0.52907 0.14192 0.027 0.0
C1251 C 0.51502 0.13813 0.01404 0.0
H1252 H 0.55666 0.1404 0.03557 0.0
H1253 H 0.42061 0.10058 0.90899 0.0
H1254 H 0.70554 0.17726 0.93667 0.0
H1255 H 0.67318 0.14398 0.94433 0.0
H1256 H 0.69632 0.15315 0.99353 0.0
H1257 H 0.72869 0.18587 0.98575 0.0
H1258 H 0.6788 0.11348 0.9865 0.0
H1259 H 0.65793 0.16632 0.9803 0.0
H1260 H 0.6535 0.19343 0.96588 0.0
H1261 H 0.61368 0.14731 0.93028 0.0
H1262 H 0.61811 0.11998 0.94439 0.0
H1263 H 0.55389 0.05959 0.00664 0.0
H1264 H 0.58887 0.09053 1.00077 0.0
H1265 H 0.61219 0.04934 0.98452 0.0
H1266 H 0.57802 0.01861 0.99189 0.0
H1267 H 0.607 0.10502 0.97489 0.0
H1268 H 0.66178 0.06929 0.98207 0.0
H1269 H 0.66759 0.04568 1.0001 0.0
H1270 H 0.64139 0.06334 0.03979 0.0
H1271 H 0.63527 0.08689 0.02184 0.0
C1272 C 0.70377 0.17183 0.94902 0.0
C1273 C 0.7195 0.18385 0.96064 0.0
C1274 C 0.68525 0.15298 0.95344 0.0
C1275 C 0.6821 0.14615 0.96959 0.0
C1276 C 0.69831 0.15798 0.98101 0.0
C1277 C 0.7168 0.17666 0.97657 0.0
C1278 C 0.66176 0.12717 0.97488 0.0
C1279 C 0.6631 0.11162 0.98389 0.0
C1280 C 0.6412 0.12479 0.97181 0.0
C1281 C 0.63856 0.14119 0.96329 0.0
C1282 C 0.64837 0.16201 0.96932 0.0
C1283 C 0.64584 0.1774 0.96122 0.0
C1284 C 0.63337 0.17211 0.94715 0.0
C1285 C 0.62337 0.1514 0.94116 0.0
C1286 C 0.62588 0.13595 0.94921 0.0
C1287 C 0.56681 0.05719 0.00249 0.0
C1288 C 0.56343 0.03666 1.00023 0.0
C1289 C 0.58677 0.07491 0.99887 0.0
C1290 C 0.60356 0.07251 0.99235 0.0
C1291 C 0.60004 0.05191 0.99006 0.0
C1292 C 0.58033 0.03425 0.99413 0.0
C1293 C 0.62398 0.09137 0.98679 0.0
C1294 C 0.62266 0.10682 0.97754 0.0
C1295 C 0.64462 0.094 0.99004 0.0
C1296 C 0.64771 0.07947 1.00065 0.0
C1297 C 0.65715 0.06799 0.99463 0.0
C1298 C 0.66046 0.05462 0.0048 0.0
C1299 C 0.65467 0.05286 0.02105 0.0
C1300 C 0.64559 0.0645 0.02716 0.0
C1301 C 0.64206 0.07773 0.01699 0.0
H1302 H 0.65734 0.04258 0.02893 0.0
H1303 H 0.63141 0.18405 0.94089 0.0
H1304 H 0.80109 0.49413 0.96873 0.0
H1305 H 0.83373 0.49263 0.97503 0.0
H1306 H 0.87281 0.55657 0.95803 0.0
H1307 H 0.83994 0.55803 0.9517 0.0
H1308 H 0.88877 0.53014 0.9485 0.0
H1309 H 0.86479 0.54737 0.99748 0.0
H1310 H 0.8389 0.54241 0.01889 0.0
H1311 H 0.83259 0.48234 0.03074 0.0
H1312 H 0.8582 0.48678 0.00922 0.0
H1313 H 0.98718 0.55609 0.98839 0.0
H1314 H 0.9539 0.5555 0.98045 0.0
H1315 H 0.91686 0.49007 0.99449 0.0
H1316 H 0.95015 0.49039 1.00187 0.0
H1317 H 0.89967 0.51624 0.00537 0.0
H1318 H 0.92296 0.49805 0.95744 0.0
H1319 H 0.94833 0.50146 0.93608 0.0
H1320 H 0.95534 0.56121 0.92219 0.0
H1321 H 0.93025 0.55832 0.94367 0.0
C1322 C 0.81667 0.50773 0.96609 0.0
C1323 C 0.8181 0.52613 0.95964 0.0
C1324 C 0.83531 0.50691 0.96979 0.0
C1325 C 0.8558 0.52457 0.96721 0.0
C1326 C 0.85722 0.54275 0.96015 0.0
C1327 C 0.83848 0.54359 0.95651 0.0
C1328 C 0.8756 0.52425 0.97248 0.0
C1329 C 0.89127 0.5274 0.96097 0.0
C1330 C 0.87865 0.52001 0.98868 0.0
C1331 C 0.8632 0.5173 1.0016 0.0
C1332 C 0.85772 0.533 0.00454 0.0
C1333 C 0.84312 0.53031 0.01672 0.0
C1334 C 0.83405 0.51204 0.02614 0.0
C1335 C 0.83959 0.49646 0.02342 0.0
C1336 C 0.85415 0.49906 0.01123 0.0
C1337 C 0.97191 0.54164 0.98992 0.0
C1338 C 0.97127 0.52345 0.99615 0.0
C1339 C 0.95293 0.5413 0.98533 0.0
C1340 C 0.93288 0.52274 0.98686 0.0
C1341 C 0.93213 0.5046 0.99328 0.0
C1342 C 0.95118 0.50485 0.99763 0.0
C1343 C 0.91283 0.52229 0.98143 0.0
C1344 C 0.89713 0.51899 0.9929 0.0
C1345 C 0.90968 0.52617 0.96519 0.0
C1346 C 0.92489 0.52807 0.9523 0.0
C1347 C 0.93008 0.51203 0.94995 0.0
C1348 C 0.94437 0.51384 0.9378 0.0
C1349 C 0.95349 0.53157 0.92781 0.0
C1350 C 0.94829 0.54751 0.92995 0.0
C1351 C 0.93402 0.54578 0.94212 0.0
H1352 H 0.96452 0.53294 0.91838 0.0
H1353 H 0.82277 0.50999 0.03557 0.0
H1354 H 0.45815 0.2861 0.94325 0.0
H1355 H 0.45523 0.31769 0.94952 0.0
H1356 H 0.5165 0.34559 0.97434 0.0
H1357 H 0.51939 0.31432 0.96804 0.0
H1358 H 0.48327 0.34409 0.99277 0.0
H1359 H 0.51353 0.36457 0.93914 0.0
H1360 H 0.51427 0.36066 0.90962 0.0
H1361 H 0.454 0.35951 0.90511 0.0
H1362 H 0.45278 0.36315 0.93465 0.0
H1363 H 0.51971 0.4501 0.00911 0.0
H1364 H 0.51439 0.41643 0.99923 0.0
H1365 H 0.45841 0.40641 0.97225 0.0
H1366 H 0.46405 0.44068 0.98179 0.0
H1367 H 0.48199 0.39558 0.95451 0.0
H1368 H 0.45324 0.37876 0.00764 0.0
H1369 H 0.45245 0.38321 0.0371 0.0
H1370 H 0.50858 0.37698 0.04271 0.0
H1371 H 0.50984 0.37268 0.01327 0.0
C1372 C 0.47108 0.29923 0.94978 0.0
C1373 C 0.48903 0.29809 0.95516 0.0
C1374 C 0.46942 0.31717 0.95335 0.0
C1375 C 0.48565 0.33391 0.96242 0.0
C1376 C 0.5038 0.33282 0.96737 0.0
C1377 C 0.50549 0.31506 0.96373 0.0
C1378 C 0.48341 0.35208 0.96777 0.0
C1379 C 0.48307 0.35542 0.98442 0.0
C1380 C 0.48232 0.36634 0.95684 0.0
C1381 C 0.48291 0.36382 0.93912 0.0
C1382 C 0.5003 0.36323 0.93188 0.0
C1383 C 0.50085 0.36113 0.91513 0.0
C1384 C 0.48415 0.35976 0.9055 0.0
C1385 C 0.4669 0.36052 0.91259 0.0
C1386 C 0.46627 0.36261 0.92933 0.0
C1387 C 0.50614 0.44071 1.00118 0.0
C1388 C 0.49216 0.44798 0.99636 0.0
C1389 C 0.50308 0.42139 0.99557 0.0
C1390 C 0.48572 0.40865 0.98527 0.0
C1391 C 0.47183 0.41592 0.98027 0.0
C1392 C 0.47504 0.43546 0.98576 0.0
C1393 C 0.48258 0.38799 0.97956 0.0
C1394 C 0.48179 0.38409 0.96288 0.0
C1395 C 0.48247 0.37305 0.99047 0.0
C1396 C 0.48166 0.37545 0.00823 0.0
C1397 C 0.46546 0.37841 0.01515 0.0
C1398 C 0.4649 0.38086 0.03185 0.0
C1399 C 0.48042 0.38032 0.04177 0.0
C1400 C 0.49653 0.37732 0.03501 0.0
C1401 C 0.49714 0.37482 0.01832 0.0
H1402 H 0.47999 0.38227 0.05469 0.0
H1403 H 0.48462 0.35816 0.89254 0.0
H1404 H 0.17681 0.73451 0.07598 0.0
H1405 H 0.14446 0.70023 0.06972 0.0
H1406 H 0.18458 0.67805 0.04861 0.0
H1407 H 0.21667 0.71209 0.05486 0.0
H1408 H 0.15186 0.67269 0.02844 0.0
H1409 H 0.16069 0.65908 0.0841 0.0
H1410 H 0.16399 0.666 0.11341 0.0
H1411 H 0.10176 0.66109 0.11382 0.0
H1412 H 0.09822 0.65443 0.08445 0.0
H1413 H 0.08233 0.56463 0.01466 0.0
H1414 H 0.11089 0.59884 0.02421 0.0
H1415 H 0.06402 0.60985 0.04819 0.0
H1416 H 0.03521 0.5751 0.03904 0.0
H1417 H 0.09794 0.62245 0.06703 0.0
H1418 H 0.08817 0.63523 0.01195 0.0
H1419 H 0.08441 0.62869 0.98257 0.0
H1420 H 0.14758 0.63586 0.98091 0.0
H1421 H 0.15168 0.64234 0.0103 0.0
C1422 C 0.1786 0.72208 0.07029 0.0
C1423 C 0.19904 0.72566 0.06596 0.0
C1424 C 0.16019 0.70258 0.06671 0.0
C1425 C 0.16212 0.68658 0.05868 0.0
C1426 C 0.1827 0.69015 0.05477 0.0
C1427 C 0.201 0.70951 0.05841 0.0
C1428 C 0.14281 0.66656 0.05343 0.0
C1429 C 0.14018 0.66161 0.0369 0.0
C1430 C 0.12716 0.65246 0.0644 0.0
C1431 C 0.12931 0.65653 0.08204 0.0
C1432 C 0.1478 0.65969 0.09041 0.0
C1433 C 0.1497 0.66352 0.10704 0.0
C1434 C 0.13313 0.66406 0.11547 0.0
C1435 C 0.1146 0.66071 0.10728 0.0
C1436 C 0.11264 0.6569 0.09064 0.0
C1437 C 0.07799 0.57432 0.02188 0.0
C1438 C 0.05641 0.56717 0.02595 0.0
C1439 C 0.0944 0.59398 0.02731 0.0
C1440 C 0.08963 0.60719 0.03667 0.0
C1441 C 0.06811 0.6 0.04093 0.0
C1442 C 0.05165 0.58016 0.03564 0.0
C1443 C 0.10721 0.62838 0.04203 0.0
C1444 C 0.10951 0.6336 0.05854 0.0
C1445 C 0.12251 0.64288 0.03104 0.0
C1446 C 0.12018 0.63916 0.01333 0.0
C1447 C 0.10123 0.63533 0.00532 0.0
C1448 C 0.09906 0.63169 0.98867 0.0
C1449 C 0.11575 0.63188 0.97988 0.0
C1450 C 0.13468 0.63576 0.98773 0.0
C1451 C 0.13696 0.63948 0.00438 0.0
H1452 H 0.11401 0.62898 0.967 0.0
H1453 H 0.13462 0.66701 0.12835 0.0
H1454 H 0.27751 0.43808 0.06413 0.0
H1455 H 0.31263 0.44224 0.0569 0.0
H1456 H 0.3427 0.50946 0.06563 0.0
H1457 H 0.30756 0.50524 0.07273 0.0
H1458 H 0.35353 0.50187 0.03683 0.0
H1459 H 0.35281 0.47733 0.09024 0.0
H1460 H 0.33813 0.45346 0.11355 0.0
H1461 H 0.33559 0.40265 0.08552 0.0
H1462 H 0.34998 0.42614 0.06195 0.0
H1463 H 0.46104 0.52174 0.02266 0.0
H1464 H 0.4275 0.51959 0.03141 0.0
H1465 H 0.39635 0.45138 0.03112 0.0
H1466 H 0.43035 0.45371 0.02341 0.0
H1467 H 0.38709 0.46132 0.05729 0.0
H1468 H 0.37357 0.48254 0.00265 0.0
H1469 H 0.38152 0.505 0.97858 0.0
H1470 H 0.40991 0.56067 0.00858 0.0
H1471 H 0.40096 0.53836 0.03289 0.0
C1472 C 0.29176 0.45362 0.06494 0.0
C1473 C 0.28999 0.47131 0.06919 0.0
C1474 C 0.31183 0.45601 0.06079 0.0
C1475 C 0.33046 0.47618 0.06076 0.0
C1476 C 0.32866 0.49374 0.06556 0.0
C1477 C 0.30862 0.49132 0.06974 0.0
C1478 C 0.35132 0.47922 0.05439 0.0
C1479 C 0.36103 0.49321 0.0415 0.0
C1480 C 0.36097 0.46764 0.06014 0.0
C1481 C 0.35229 0.45346 0.07428 0.0
C1482 C 0.34895 0.46102 0.089 0.0
C1483 C 0.34071 0.44757 0.10227 0.0
C1484 C 0.33588 0.42654 0.10101 0.0
C1485 C 0.33932 0.41894 0.08647 0.0
C1486 C 0.34753 0.43232 0.07316 0.0
C1487 C 0.44686 0.5063 0.02399 0.0
C1488 C 0.44827 0.48787 0.0222 0.0
C1489 C 0.42751 0.50503 0.02896 0.0
C1490 C 0.409 0.48527 0.03189 0.0
C1491 C 0.41025 0.46687 0.02913 0.0
C1492 C 0.42967 0.46816 0.02457 0.0
C1493 C 0.3891 0.48361 0.03934 0.0
C1494 C 0.37962 0.46998 0.05257 0.0
C1495 C 0.37955 0.49542 0.0339 0.0
C1496 C 0.38706 0.50889 0.01946 0.0
C1497 C 0.38176 0.49959 0.00406 0.0
C1498 C 0.38618 0.51227 0.99042 0.0
C1499 C 0.39643 0.53428 0.99203 0.0
C1500 C 0.40207 0.54364 0.00733 0.0
C1501 C 0.39713 0.53099 0.02105 0.0
H1502 H 0.39993 0.54407 0.98144 0.0
H1503 H 0.32951 0.41615 0.1113 0.0
H1504 H 0.53309 0.80846 0.04508 0.0
H1505 H 0.52251 0.83519 0.04043 0.0
H1506 H 0.57951 0.88163 0.06577 0.0
H1507 H 0.59002 0.8547 0.07052 0.0
H1508 H 0.54296 0.8841 0.07339 0.0
H1509 H 0.57963 0.881 0.02584 0.0
H1510 H 0.58652 0.86342 0.00305 0.0
H1511 H 0.52273 0.84176 0.98467 0.0
H1512 H 0.51535 0.85897 0.0075 0.0
H1513 H 0.54609 0.97647 0.04228 0.0
H1514 H 0.55366 0.9488 0.05067 0.0
H1515 H 0.5 0.90309 0.02199 0.0
H1516 H 0.49235 0.93066 0.01349 0.0
H1517 H 0.53468 0.90005 0.01652 0.0
H1518 H 0.4978 0.90344 0.06343 0.0
H1519 H 0.48972 0.91917 0.08685 0.0
H1520 H 0.55251 0.93939 0.10664 0.0
H1521 H 0.56112 0.92401 0.08325 0.0
C1522 C 0.54316 0.82433 0.04981 0.0
C1523 C 0.56228 0.82973 0.05811 0.0
C1524 C 0.53719 0.83957 0.0471 0.0
C1525 C 0.55037 0.86043 0.05258 0.0
C1526 C 0.56915 0.86561 0.06143 0.0
C1527 C 0.57514 0.85032 0.06412 0.0
C1528 C 0.54495 0.87697 0.04846 0.0
C1529 C 0.54142 0.88784 0.06097 0.0
C1530 C 0.54243 0.88139 0.03224 0.0
C1531 C 0.54687 0.8711 0.01847 0.0
C1532 C 0.56701 0.87234 0.01701 0.0
C1533 C 0.57101 0.86247 0.00407 0.0
C1534 C 0.55505 0.85143 0.99244 0.0
C1535 C 0.53507 0.85029 0.9937 0.0
C1536 C 0.53097 0.86012 0.00663 0.0
C1537 C 0.53581 0.96051 0.03781 0.0
C1538 C 0.51877 0.95585 0.02703 0.0
C1539 C 0.54009 0.94468 0.0427 0.0
C1540 C 0.52731 0.92384 0.03705 0.0
C1541 C 0.51011 0.91908 0.02647 0.0
C1542 C 0.50582 0.9349 0.02156 0.0
C1543 C 0.53255 0.90724 0.04147 0.0
C1544 C 0.53615 0.89636 0.02897 0.0
C1545 C 0.53504 0.90279 0.0577 0.0
C1546 C 0.53018 0.91273 0.0715 0.0
C1547 C 0.51 0.91147 0.07267 0.0
C1548 C 0.5053 0.92028 0.08596 0.0
C1549 C 0.52059 0.93028 0.09821 0.0
C1550 C 0.54068 0.93164 0.09714 0.0
C1551 C 0.54548 0.92286 0.08387 0.0
H1552 H 0.51684 0.93685 0.10859 0.0
H1553 H 0.55819 0.8438 0.98243 0.0
H1554 H 0.9493 0.18337 0.41393 0.0
H1555 H 0.98236 0.2127 0.40282 0.0
H1556 H 0.0075 0.17068 0.39496 0.0
H1557 H 0.9746 0.14135 0.40624 0.0
H1558 H 0.03789 0.20881 0.40818 0.0
H1559 H 0.98787 0.18471 0.36377 0.0
H1560 H 0.95357 0.17489 0.34995 0.0
H1561 H 0.96443 0.23778 0.35723 0.0
H1562 H 0.99865 0.2479 0.37131 0.0
H1563 H 0.12533 0.27903 0.35892 0.0
H1564 H 0.09161 0.24766 0.3668 0.0
H1565 H 0.06331 0.28674 0.37595 0.0
H1566 H 0.09701 0.31814 0.36797 0.0
H1567 H 0.03467 0.24905 0.36113 0.0
H1568 H 0.08328 0.27308 0.40635 0.0
H1569 H 0.11721 0.28353 0.42096 0.0
H1570 H 0.10885 0.22168 0.41303 0.0
H1571 H 0.07501 0.21095 0.39814 0.0
C1572 C 0.96194 0.18041 0.40996 0.0
C1573 C 0.95926 0.15999 0.41091 0.0
C1574 C 0.98076 0.19715 0.4035 0.0
C1575 C 0.99734 0.19385 0.39789 0.0
C1576 C 0.99491 0.17359 0.39914 0.0
C1577 C 0.97604 0.15682 0.4055 0.0
C1578 C 0.01715 0.2115 0.39065 0.0
C1579 C 0.03722 0.21739 0.39774 0.0
C1580 C 0.01626 0.22302 0.37724 0.0
C1581 C 0.99572 0.217 0.36873 0.0
C1582 C 0.98286 0.1964 0.36254 0.0
C1583 C 0.96344 0.19078 0.35464 0.0
C1584 C 0.9568 0.20568 0.35275 0.0
C1585 C 0.96958 0.22624 0.35872 0.0
C1586 C 0.989 0.23193 0.36665 0.0
C1587 C 0.11176 0.28086 0.36221 0.0
C1588 C 0.11364 0.30097 0.36261 0.0
C1589 C 0.09256 0.26294 0.36687 0.0
C1590 C 0.075 0.26488 0.37213 0.0
C1591 C 0.07663 0.28486 0.37193 0.0
C1592 C 0.09585 0.30277 0.36739 0.0
C1593 C 0.05536 0.24638 0.37869 0.0
C1594 C 0.03535 0.24036 0.3715 0.0
C1595 C 0.05629 0.23484 0.39209 0.0
C1596 C 0.07673 0.24129 0.40095 0.0
C1597 C 0.08878 0.26177 0.40757 0.0
C1598 C 0.10797 0.26773 0.41594 0.0
C1599 C 0.11521 0.2533 0.41789 0.0
C1600 C 0.10325 0.23286 0.41149 0.0
C1601 C 0.08405 0.22683 0.40308 0.0
H1602 H 0.13004 0.25793 0.42441 0.0
H1603 H 0.94177 0.20131 0.34663 0.0
H1604 H 0.82516 0.76977 0.41342 0.0
H1605 H 0.79588 0.77439 0.40271 0.0
H1606 H 0.84183 0.83825 0.38894 0.0
H1607 H 0.87123 0.83373 0.39966 0.0
H1608 H 0.80515 0.8349 0.40404 0.0
H1609 H 0.82164 0.80179 0.36061 0.0
H1610 H 0.82792 0.77473 0.34797 0.0
H1611 H 0.7636 0.72652 0.35983 0.0
H1612 H 0.75704 0.75327 0.37277 0.0
H1613 H 0.72761 0.8483 0.35978 0.0
H1614 H 0.76028 0.84714 0.36643 0.0
H1615 H 0.72188 0.77995 0.37473 0.0
H1616 H 0.68939 0.781 0.3673 0.0
H1617 H 0.75708 0.78726 0.36085 0.0
H1618 H 0.74089 0.81888 0.40591 0.0
H1619 H 0.73434 0.84502 0.41992 0.0
H1620 H 0.79707 0.89487 0.40631 0.0
H1621 H 0.80389 0.86906 0.39203 0.0
C1622 C 0.82903 0.78485 0.40822 0.0
C1623 C 0.85056 0.80136 0.40738 0.0
C1624 C 0.81228 0.78743 0.402 0.0
C1625 C 0.81663 0.80662 0.39489 0.0
C1626 C 0.83806 0.82329 0.39432 0.0
C1627 C 0.85486 0.82063 0.40037 0.0
C1628 C 0.7988 0.80917 0.38796 0.0
C1629 C 0.79483 0.8247 0.39442 0.0
C1630 C 0.78505 0.79562 0.37563 0.0
C1631 C 0.78892 0.77951 0.36779 0.0
C1632 C 0.80889 0.7854 0.36064 0.0
C1633 C 0.81249 0.77012 0.3534 0.0
C1634 C 0.79619 0.74891 0.35313 0.0
C1635 C 0.77623 0.74295 0.36007 0.0
C1636 C 0.77255 0.75817 0.36734 0.0
C1637 C 0.72621 0.83321 0.36256 0.0
C1638 C 0.70596 0.81463 0.36263 0.0
C1639 C 0.7449 0.83259 0.36664 0.0
C1640 C 0.74364 0.81349 0.37138 0.0
C1641 C 0.72342 0.7949 0.37112 0.0
C1642 C 0.70482 0.79549 0.36689 0.0
C1643 C 0.76309 0.81277 0.37711 0.0
C1644 C 0.76743 0.79758 0.3704 0.0
C1645 C 0.77703 0.8265 0.38935 0.0
C1646 C 0.77282 0.84206 0.39777 0.0
C1647 C 0.75321 0.83544 0.40578 0.0
C1648 C 0.74946 0.85019 0.41379 0.0
C1649 C 0.76528 0.87158 0.41399 0.0
C1650 C 0.78484 0.87829 0.40614 0.0
C1651 C 0.78866 0.86361 0.39809 0.0
H1652 H 0.76244 0.88296 0.4203 0.0
H1653 H 0.79901 0.7371 0.34752 0.0
H1654 H 0.20375 0.05875 0.38892 0.0
H1655 H 0.19508 0.02371 0.37921 0.0
H1656 H 0.24727 0.02721 0.4077 0.0
H1657 H 0.25654 0.06264 0.41702 0.0
H1658 H 0.24661 0.01209 0.37795 0.0
H1659 H 0.19527 0.99748 0.41995 0.0
H1660 H 0.16681 0.00032 0.43441 0.0
H1661 H 0.12529 0.97567 0.39292 0.0
H1662 H 0.15364 0.97296 0.37813 0.0
H1663 H 0.21527 0.90338 0.37425 0.0
H1664 H 0.2242 0.93863 0.38349 0.0
H1665 H 0.17268 0.93537 0.35428 0.0
H1666 H 0.16323 0.89983 0.34527 0.0
H1667 H 0.17309 0.95039 0.38424 0.0
H1668 H 0.22466 0.96467 0.34237 0.0
H1669 H 0.25301 0.96115 0.32838 0.0
H1670 H 0.29414 0.98603 0.37004 0.0
H1671 H 0.26589 0.98941 0.38438 0.0
C1672 C 0.2135 0.05215 0.39302 0.0
C1673 C 0.23081 0.06348 0.40377 0.0
C1674 C 0.2084 0.03203 0.38758 0.0
C1675 C 0.22037 0.02274 0.39288 0.0
C1676 C 0.23777 0.03406 0.4035 0.0
C1677 C 0.24292 0.05421 0.40893 0.0
C1678 C 0.21477 0.00125 0.38727 0.0
C1679 C 0.23062 0.99855 0.37951 0.0
C1680 C 0.19377 0.98367 0.389 0.0
C1681 C 0.17666 0.98521 0.39788 0.0
C1682 C 0.18014 0.99282 0.41387 0.0
C1683 C 0.16401 0.99438 0.42213 0.0
C1684 C 0.14427 0.98823 0.41457 0.0
C1685 C 0.1406 0.98046 0.39875 0.0
C1686 C 0.15669 0.97889 0.39043 0.0
C1687 C 0.20582 0.91013 0.36975 0.0
C1688 C 0.18868 0.89885 0.35885 0.0
C1689 C 0.21103 0.93034 0.375 0.0
C1690 C 0.1993 0.93974 0.3694 0.0
C1691 C 0.18202 0.92845 0.35868 0.0
C1692 C 0.17676 0.90819 0.35344 0.0
C1693 C 0.20491 0.96125 0.37491 0.0
C1694 C 0.18907 0.96395 0.38265 0.0
C1695 C 0.22593 0.97881 0.3732 0.0
C1696 C 0.24308 0.97712 0.36451 0.0
C1697 C 0.23969 0.96927 0.34859 0.0
C1698 C 0.25575 0.96731 0.34059 0.0
C1699 C 0.27535 0.97332 0.34833 0.0
C1700 C 0.27895 0.98136 0.36407 0.0
C1701 C 0.26293 0.98332 0.37213 0.0
H1702 H 0.28775 0.97177 0.34212 0.0
H1703 H 0.13181 0.98945 0.42099 0.0
H1704 H 0.49052 0.63475 0.25972 0.0
H1705 H 0.52057 0.66775 0.27021 0.0
H1706 H 0.50737 0.64224 0.31833 0.0
H1707 H 0.47765 0.60898 0.30794 0.0
H1708 H 0.51563 0.68383 0.3173 0.0
H1709 H 0.54757 0.64337 0.29794 0.0
H1710 H 0.55491 0.62297 0.27769 0.0
H1711 H 0.58323 0.67691 0.24645 0.0
H1712 H 0.57577 0.69755 0.26643 0.0
H1713 H 0.611 0.75799 0.3562 0.0
H1714 H 0.58217 0.72481 0.34518 0.0
H1715 H 0.60138 0.74875 0.29691 0.0
H1716 H 0.63083 0.78179 0.30802 0.0
H1717 H 0.58967 0.70838 0.2975 0.0
H1718 H 0.55894 0.74945 0.31653 0.0
H1719 H 0.55414 0.77108 0.3372 0.0
H1720 H 0.52383 0.71727 0.36848 0.0
H1721 H 0.52898 0.69542 0.34814 0.0
C1722 C 0.49409 0.63604 0.27252 0.0
C1723 C 0.48167 0.61907 0.28295 0.0
C1724 C 0.51121 0.65499 0.27851 0.0
C1725 C 0.5163 0.65742 0.29504 0.0
C1726 C 0.50368 0.64075 0.30554 0.0
C1727 C 0.48663 0.62175 0.29956 0.0
C1728 C 0.53515 0.67711 0.30134 0.0
C1729 C 0.53184 0.6891 0.31309 0.0
C1730 C 0.55625 0.68426 0.29558 0.0
C1731 C 0.56091 0.67193 0.28361 0.0
C1732 C 0.55521 0.65083 0.2867 0.0
C1733 C 0.55941 0.63923 0.27528 0.0
C1734 C 0.56947 0.64862 0.26077 0.0
C1735 C 0.57541 0.66965 0.25768 0.0
C1736 C 0.57121 0.68131 0.26905 0.0
C1737 C 0.6091 0.75622 0.34329 0.0
C1738 C 0.62297 0.77263 0.33303 0.0
C1739 C 0.5926 0.73721 0.33695 0.0
C1740 C 0.5892 0.73443 0.32019 0.0
C1741 C 0.60357 0.75052 0.30988 0.0
C1742 C 0.62038 0.7694 0.31625 0.0
C1743 C 0.57021 0.71512 0.3135 0.0
C1744 C 0.57346 0.70321 0.30167 0.0
C1745 C 0.54903 0.70817 0.31906 0.0
C1746 C 0.54447 0.72082 0.33084 0.0
C1747 C 0.55122 0.74221 0.32781 0.0
C1748 C 0.5485 0.75453 0.33949 0.0
C1749 C 0.5387 0.74556 0.35416 0.0
C1750 C 0.53144 0.7242 0.35711 0.0
C1751 C 0.53426 0.71183 0.34551 0.0
H1752 H 0.53672 0.75515 0.36324 0.0
H1753 H 0.57272 0.63961 0.25194 0.0
H1754 H 0.37539 0.84333 0.29429 0.0
H1755 H 0.34208 0.83992 0.30504 0.0
H1756 H 0.35965 0.90165 0.28664 0.0
H1757 H 0.39331 0.90544 0.27628 0.0
H1758 H 0.3449 0.89759 0.31656 0.0
H1759 H 0.32054 0.85568 0.26825 0.0
H1760 H 0.31568 0.82764 0.24913 0.0
H1761 H 0.28202 0.78053 0.28527 0.0
H1762 H 0.28694 0.80834 0.30469 0.0
H1763 H 0.24379 0.89244 0.32423 0.0
H1764 H 0.27824 0.89589 0.31676 0.0
H1765 H 0.25483 0.83096 0.33034 0.0
H1766 H 0.21973 0.82711 0.33662 0.0
H1767 H 0.27304 0.83633 0.30356 0.0
H1768 H 0.30192 0.87841 0.35271 0.0
H1769 H 0.30831 0.90653 0.37241 0.0
H1770 H 0.33336 0.95281 0.33472 0.0
H1771 H 0.32743 0.92497 0.31493 0.0
C1772 C 0.37226 0.85626 0.2926 0.0
C1773 C 0.38713 0.87467 0.28437 0.0
C1774 C 0.35305 0.85419 0.29863 0.0
C1775 C 0.34813 0.87042 0.29653 0.0
C1776 C 0.36297 0.88885 0.28839 0.0
C1777 C 0.38217 0.89092 0.28233 0.0
C1778 C 0.32779 0.86844 0.30313 0.0
C1779 C 0.32918 0.88428 0.31356 0.0
C1780 C 0.30721 0.85086 0.29961 0.0
C1781 C 0.30432 0.83412 0.28798 0.0
C1782 C 0.31228 0.83936 0.27217 0.0
C1783 C 0.30948 0.8235 0.26127 0.0
C1784 C 0.2986 0.80232 0.266 0.0
C1785 C 0.29047 0.79695 0.28163 0.0
C1786 C 0.29325 0.81275 0.29259 0.0
C1787 C 0.24615 0.87902 0.32593 0.0
C1788 C 0.22914 0.85966 0.33141 0.0
C1789 C 0.26602 0.88105 0.32179 0.0
C1790 C 0.26961 0.86385 0.32325 0.0
C1791 C 0.25272 0.84459 0.32914 0.0
C1792 C 0.23265 0.84244 0.33297 0.0
C1793 C 0.29009 0.8654 0.31719 0.0
C1794 C 0.28875 0.84953 0.30673 0.0
C1795 C 0.31075 0.88293 0.32069 0.0
C1796 C 0.31389 0.89961 0.33239 0.0
C1797 C 0.30856 0.89456 0.34867 0.0
C1798 C 0.31223 0.91045 0.35983 0.0
C1799 C 0.32103 0.93141 0.35479 0.0
C1800 C 0.32645 0.93656 0.3386 0.0
C1801 C 0.32307 0.92076 0.32743 0.0
H1802 H 0.32376 0.94366 0.36344 0.0
H1803 H 0.29644 0.79006 0.25753 0.0
H1804 H 0.10891 0.49304 0.26925 0.0
H1805 H 0.11165 0.46332 0.27977 0.0
H1806 H 0.17488 0.50657 0.29889 0.0
H1807 H 0.17308 0.53617 0.2872 0.0
H1808 H 0.17562 0.47442 0.28822 0.0
H1809 H 0.12682 0.48305 0.32255 0.0
H1810 H 0.09494 0.48598 0.32931 0.0
H1811 H 0.05347 0.4236 0.31024 0.0
H1812 H 0.08514 0.4204 0.30319 0.0
H1813 H 0.18152 0.40707 0.34668 0.0
H1814 H 0.17703 0.43525 0.33491 0.0
H1815 H 0.12172 0.389 0.30796 0.0
H1816 H 0.12595 0.3606 0.31975 0.0
H1817 H 0.11639 0.42151 0.32219 0.0
H1818 H 0.16813 0.41385 0.28956 0.0
H1819 H 0.20135 0.41214 0.28577 0.0
H1820 H 0.239 0.47504 0.30507 0.0
H1821 H 0.20598 0.477 0.30922 0.0
C1822 C 0.12361 0.49625 0.27538 0.0
C1823 C 0.14068 0.51714 0.27749 0.0
C1824 C 0.12501 0.47921 0.28164 0.0
C1825 C 0.14325 0.48268 0.29051 0.0
C1826 C 0.16054 0.50343 0.29222 0.0
C1827 C 0.15935 0.52042 0.28569 0.0
C1828 C 0.14431 0.46483 0.2982 0.0
C1829 C 0.16272 0.46302 0.29577 0.0
C1830 C 0.12743 0.44971 0.30795 0.0
C1831 C 0.10836 0.45158 0.31218 0.0
C1832 C 0.11091 0.47002 0.31969 0.0
C1833 C 0.09287 0.47172 0.32359 0.0
C1834 C 0.07219 0.45501 0.32016 0.0
C1835 C 0.0695 0.43654 0.31287 0.0
C1836 C 0.08748 0.43477 0.30892 0.0
C1837 C 0.16819 0.40281 0.33845 0.0
C1838 C 0.15412 0.38156 0.33412 0.0
C1839 C 0.16574 0.41896 0.33166 0.0
C1840 C 0.14921 0.41417 0.32043 0.0
C1841 C 0.13462 0.39297 0.31657 0.0
C1842 C 0.13711 0.37679 0.32329 0.0
C1843 C 0.14765 0.43135 0.31225 0.0
C1844 C 0.12917 0.43295 0.31457 0.0
C1845 C 0.16465 0.44652 0.30271 0.0
C1846 C 0.18455 0.44551 0.2998 0.0
C1847 C 0.18348 0.42727 0.29307 0.0
C1848 C 0.20228 0.42626 0.29086 0.0
C1849 C 0.22227 0.44347 0.2952 0.0
C1850 C 0.2235 0.46173 0.30172 0.0
C1851 C 0.20476 0.4628 0.30398 0.0
H1852 H 0.23682 0.44271 0.29348 0.0
H1853 H 0.05825 0.45636 0.32319 0.0
H1854 H 0.35422 0.53362 0.29652 0.0
H1855 H 0.32134 0.5011 0.30409 0.0
H1856 H 0.35063 0.46429 0.29008 0.0
H1857 H 0.38374 0.49704 0.28254 0.0
H1858 H 0.30619 0.44571 0.28087 0.0
H1859 H 0.35102 0.47535 0.32809 0.0
H1860 H 0.37268 0.50338 0.34794 0.0
H1861 H 0.31729 0.5084 0.36033 0.0
H1862 H 0.29536 0.48062 0.34037 0.0
H1863 H 0.23746 0.35218 0.32398 0.0
H1864 H 0.26999 0.38438 0.31537 0.0
H1865 H 0.24136 0.42177 0.32938 0.0
H1866 H 0.20868 0.38963 0.33757 0.0
H1867 H 0.28525 0.43992 0.33849 0.0
H1868 H 0.24004 0.41076 0.29244 0.0
H1869 H 0.2173 0.38331 0.27261 0.0
H1870 H 0.27164 0.37781 0.2578 0.0
H1871 H 0.29469 0.40509 0.27774 0.0
C1872 C 0.35343 0.51852 0.29475 0.0
C1873 C 0.37129 0.51767 0.28887 0.0
C1874 C 0.33473 0.5 0.29916 0.0
C1875 C 0.3336 0.48028 0.29782 0.0
C1876 C 0.35116 0.47933 0.29121 0.0
C1877 C 0.37 0.49797 0.28688 0.0
C1878 C 0.31458 0.46094 0.30417 0.0
C1879 C 0.30179 0.4443 0.2935 0.0
C1880 C 0.30845 0.45937 0.32058 0.0
C1881 C 0.32162 0.47608 0.33259 0.0
C1882 C 0.34351 0.48258 0.33493 0.0
C1883 C 0.35582 0.49839 0.34623 0.0
C1884 C 0.34638 0.50771 0.35535 0.0
C1885 C 0.32459 0.5012 0.35323 0.0
C1886 C 0.31221 0.48541 0.34193 0.0
C1887 C 0.23827 0.36732 0.32543 0.0
C1888 C 0.2207 0.36841 0.33175 0.0
C1889 C 0.25679 0.38566 0.32047 0.0
C1890 C 0.25803 0.40544 0.32167 0.0
C1891 C 0.24077 0.40667 0.32842 0.0
C1892 C 0.22213 0.38828 0.33321 0.0
C1893 C 0.27698 0.42466 0.31522 0.0
C1894 C 0.2897 0.4413 0.32586 0.0
C1895 C 0.28287 0.42629 0.29876 0.0
C1896 C 0.26908 0.40988 0.28671 0.0
C1897 C 0.24713 0.40362 0.28505 0.0
C1898 C 0.23418 0.38809 0.27377 0.0
C1899 C 0.24301 0.37878 0.26397 0.0
C1900 C 0.26482 0.38502 0.26542 0.0
C1901 C 0.27785 0.40053 0.2767 0.0
H1902 H 0.23295 0.36677 0.25524 0.0
H1903 H 0.35594 0.51994 0.3641 0.0
H1904 H 0.51052 0.89804 0.29481 0.0
H1905 H 0.54204 0.89427 0.30077 0.0
H1906 H 0.50417 0.82725 0.29103 0.0
H1907 H 0.47272 0.83108 0.28519 0.0
H1908 H 0.52333 0.83446 0.31963 0.0
H1909 H 0.54612 0.86025 0.26642 0.0
H1910 H 0.55479 0.88466 0.24354 0.0
H1911 H 0.60452 0.93505 0.27167 0.0
H1912 H 0.59594 0.91103 0.29482 0.0
H1913 H 0.6124 0.81726 0.335 0.0
H1914 H 0.58057 0.81823 0.32552 0.0
H1915 H 0.61753 0.8865 0.32447 0.0
H1916 H 0.64963 0.8853 0.33275 0.0
H1917 H 0.59771 0.87614 0.29888 0.0
H1918 H 0.56049 0.85391 0.35348 0.0
H1919 H 0.544 0.83106 0.37711 0.0
H1920 H 0.52068 0.77577 0.34702 0.0
H1921 H 0.5362 0.79843 0.32309 0.0
C1922 C 0.50919 0.88265 0.2935 0.0
C1923 C 0.48937 0.86488 0.28938 0.0
C1924 C 0.52719 0.88048 0.29691 0.0
C1925 C 0.5256 0.86046 0.2963 0.0
C1926 C 0.50588 0.84285 0.29156 0.0
C1927 C 0.48795 0.84506 0.28813 0.0
C1928 C 0.54367 0.8575 0.3022 0.0
C1929 C 0.53956 0.84335 0.31488 0.0
C1930 C 0.56496 0.86939 0.29634 0.0
C1931 C 0.57026 0.88386 0.28241 0.0
C1932 C 0.5588 0.87658 0.26778 0.0
C1933 C 0.56371 0.89034 0.25475 0.0
C1934 C 0.58016 0.91141 0.25616 0.0
C1935 C 0.59177 0.91873 0.2706 0.0
C1936 C 0.5869 0.90504 0.28367 0.0
C1937 C 0.61356 0.83247 0.33306 0.0
C1938 C 0.63351 0.85124 0.33469 0.0
C1939 C 0.59521 0.83306 0.32774 0.0
C1940 C 0.59624 0.85248 0.32432 0.0
C1941 C 0.61606 0.87124 0.32679 0.0
C1942 C 0.63446 0.8706 0.33166 0.0
C1943 C 0.57759 0.8535 0.31682 0.0
C1944 C 0.58154 0.8672 0.30367 0.0
C1945 C 0.55609 0.84131 0.32229 0.0
C1946 C 0.55007 0.82778 0.33668 0.0
C1947 C 0.55227 0.83687 0.352 0.0
C1948 C 0.5428 0.82396 0.36538 0.0
C1949 C 0.53162 0.80194 0.36362 0.0
C1950 C 0.52962 0.7928 0.34841 0.0
C1951 C 0.53858 0.80566 0.33492 0.0
H1952 H 0.52438 0.79198 0.37402 0.0
H1953 H 0.58393 0.92204 0.24607 0.0
H1954 H 0.12568 0.61902 0.27262 0.0
H1955 H 0.12635 0.65249 0.27865 0.0
H1956 H 0.18795 0.6763 0.30236 0.0
H1957 H 0.18734 0.64316 0.29625 0.0
H1958 H 0.15595 0.67634 0.32167 0.0
H1959 H 0.18683 0.69813 0.26887 0.0
H1960 H 0.18891 0.69669 0.23924 0.0
H1961 H 0.1308 0.6996 0.23447 0.0
H1962 H 0.12821 0.70079 0.26411 0.0
H1963 H 0.19161 0.78195 0.34132 0.0
H1964 H 0.18765 0.74937 0.33004 0.0
H1965 H 0.13074 0.73857 0.30403 0.0
H1966 H 0.13485 0.77161 0.31506 0.0
H1967 H 0.15621 0.73026 0.28525 0.0
H1968 H 0.12654 0.71045 0.33825 0.0
H1969 H 0.12597 0.7139 0.36784 0.0
H1970 H 0.18234 0.70785 0.37219 0.0
H1971 H 0.1834 0.7046 0.3426 0.0
C1972 C 0.13953 0.63169 0.27875 0.0
C1973 C 0.15651 0.6288 0.28397 0.0
C1974 C 0.13992 0.65072 0.28218 0.0
C1975 C 0.1572 0.66681 0.29097 0.0
C1976 C 0.1745 0.66408 0.29556 0.0
C1977 C 0.17417 0.64523 0.29204 0.0
C1978 C 0.15644 0.68557 0.29694 0.0
C1979 C 0.15616 0.68821 0.3137 0.0
C1980 C 0.15601 0.70066 0.28652 0.0
C1981 C 0.15713 0.69919 0.26872 0.0
C1982 C 0.17431 0.69813 0.26152 0.0
C1983 C 0.17563 0.69746 0.24472 0.0
C1984 C 0.15994 0.69795 0.23498 0.0
C1985 C 0.14289 0.69913 0.24203 0.0
C1986 C 0.1415 0.69982 0.25883 0.0
C1987 C 0.17812 0.77261 0.33332 0.0
C1988 C 0.16339 0.77926 0.32924 0.0
C1989 C 0.17588 0.75395 0.32687 0.0
C1990 C 0.15869 0.74134 0.3164 0.0
C1991 C 0.14407 0.74803 0.31214 0.0
C1992 C 0.1464 0.76685 0.3185 0.0
C1993 C 0.15616 0.72122 0.30998 0.0
C1994 C 0.15571 0.71824 0.2932 0.0
C1995 C 0.15587 0.70573 0.32037 0.0
C1996 C 0.15509 0.70736 0.3382 0.0
C1997 C 0.13886 0.70993 0.34551 0.0
C1998 C 0.13843 0.71182 0.36228 0.0
C1999 C 0.15408 0.71105 0.37188 0.0
C2000 C 0.1702 0.70839 0.36473 0.0
C2001 C 0.17069 0.70647 0.34797 0.0
H2002 H 0.15375 0.71257 0.38486 0.0
H2003 H 0.16104 0.69752 0.22198 0.0
H2004 H 0.8778 0.03098 0.40072 0.0
H2005 H 0.84466 0.99741 0.39546 0.0
H2006 H 0.80686 0.0256 0.40997 0.0
H2007 H 0.84027 0.05946 0.41517 0.0
H2008 H 0.79031 0.97995 0.42 0.0
H2009 H 0.81239 0.02561 0.37338 0.0
H2010 H 0.83865 0.04937 0.35336 0.0
H2011 H 0.8503 0.99966 0.3382 0.0
H2012 H 0.82434 0.97569 0.35832 0.0
H2013 H 0.69577 0.9003 0.37816 0.0
H2014 H 0.72456 0.93371 0.38946 0.0
H2015 H 0.77207 0.92288 0.36632 0.0
H2016 H 0.74361 0.89006 0.35472 0.0
H2017 H 0.7817 0.96154 0.36169 0.0
H2018 H 0.76015 0.91554 0.40797 0.0
H2019 H 0.73381 0.89111 0.42773 0.0
H2020 H 0.72145 0.94001 0.44371 0.0
H2021 H 0.74735 0.96462 0.42386 0.0
C2022 C 0.86241 0.02983 0.40315 0.0
C2023 C 0.86142 0.04761 0.40836 0.0
C2024 C 0.84352 0.01069 0.40015 0.0
C2025 C 0.82331 0.00904 0.40228 0.0
C2026 C 0.82229 0.02653 0.40836 0.0
C2027 C 0.8413 0.04581 0.41128 0.0
C2028 C 0.80366 0.98988 0.39628 0.0
C2029 C 0.78818 0.976 0.40724 0.0
C2030 C 0.80112 0.98461 0.37967 0.0
C2031 C 0.81658 0.99893 0.36746 0.0
C2032 C 0.82069 0.0198 0.36587 0.0
C2033 C 0.8355 0.0333 0.35449 0.0
C2034 C 0.84618 0.02605 0.34454 0.0
C2035 C 0.84204 0.00526 0.34593 0.0
C2036 C 0.82727 0.99171 0.35731 0.0
C2037 C 0.71237 0.90509 0.37549 0.0
C2038 C 0.71736 0.89259 0.36542 0.0
C2039 C 0.72882 0.92412 0.38204 0.0
C2040 C 0.75056 0.93079 0.37887 0.0
C2041 C 0.75547 0.91819 0.36891 0.0
C2042 C 0.73912 0.89939 0.36224 0.0
C2043 C 0.76836 0.95114 0.38539 0.0
C2044 C 0.78359 0.96538 0.37447 0.0
C2045 C 0.77065 0.95653 0.40204 0.0
C2046 C 0.75552 0.94187 0.41429 0.0
C2047 C 0.7517 0.92105 0.41562 0.0
C2048 C 0.73683 0.90715 0.42681 0.0
C2049 C 0.72589 0.91397 0.43688 0.0
C2050 C 0.72987 0.93473 0.43584 0.0
C2051 C 0.74464 0.94866 0.42463 0.0
H2052 H 0.71448 0.90326 0.44557 0.0
H2053 H 0.85764 0.03652 0.33574 0.0
H2054 H 0.97698 0.84193 0.39296 0.0
H2055 H 0.01129 0.84436 0.38576 0.0
H2056 H 0.98562 0.77891 0.39867 0.0
H2057 H 0.95111 0.7765 0.40588 0.0
H2058 H 0.02858 0.80473 0.40875 0.0
H2059 H 0.9868 0.7917 0.36012 0.0
H2060 H 0.96558 0.79834 0.33991 0.0
H2061 H 0.01985 0.85981 0.33066 0.0
H2062 H 0.0413 0.85366 0.35101 0.0
H2063 H 0.10283 0.78515 0.36659 0.0
H2064 H 0.0694 0.78385 0.37481 0.0
H2065 H 0.09654 0.84967 0.36255 0.0
H2066 H 0.13028 0.85118 0.35477 0.0
H2067 H 0.05335 0.82429 0.35229 0.0
H2068 H 0.09541 0.8383 0.4 0.0
H2069 H 0.11752 0.83319 0.42034 0.0
H2070 H 0.06411 0.77202 0.43172 0.0
H2071 H 0.04177 0.77659 0.41118 0.0
C2072 C 0.97884 0.82819 0.39456 0.0
C2073 C 0.96157 0.8091 0.4001 0.0
C2074 C 0.99838 0.82954 0.39032 0.0
C2075 C 1.00102 0.81176 0.39146 0.0
C2076 C 0.98399 0.79284 0.39766 0.0
C2077 C 0.96433 0.79147 0.40183 0.0
C2078 C 0.02119 0.81276 0.38555 0.0
C2079 C 0.03381 0.8087 0.39635 0.0
C2080 C 0.02846 0.81859 0.36947 0.0
C2081 C 0.01557 0.82231 0.35724 0.0
C2082 C 0.99415 0.80671 0.35389 0.0
C2083 C 0.98209 0.81037 0.34239 0.0
C2084 C 0.99134 0.82951 0.33404 0.0
C2085 C 0.01269 0.84501 0.33716 0.0
C2086 C 0.02481 0.84144 0.34867 0.0
C2087 C 0.10157 0.79928 0.36548 0.0
C2088 C 0.11906 0.81816 0.35975 0.0
C2089 C 0.0825 0.79854 0.37024 0.0
C2090 C 0.08048 0.81669 0.36942 0.0
C2091 C 0.0977 0.83545 0.36327 0.0
C2092 C 0.11694 0.83627 0.35871 0.0
C2093 C 0.06063 0.81613 0.37546 0.0
C2094 C 0.04809 0.82029 0.36468 0.0
C2095 C 0.05356 0.8106 0.39159 0.0
C2096 C 0.06697 0.80769 0.4039 0.0
C2097 C 0.08843 0.82365 0.4067 0.0
C2098 C 0.10101 0.82087 0.4183 0.0
C2099 C 0.09225 0.80227 0.4273 0.0
C2100 C 0.07089 0.78641 0.42472 0.0
C2101 C 0.05826 0.78908 0.4131 0.0
H2102 H 0.10199 0.80018 0.43631 0.0
H2103 H 0.98198 0.83231 0.32514 0.0
H2104 H 0.25359 0.18876 0.40599 0.0
H2105 H 0.24121 0.21432 0.40163 0.0
H2106 H 0.18306 0.16523 0.37919 0.0
H2107 H 0.19548 0.13982 0.38353 0.0
H2108 H 0.20358 0.19976 0.3603 0.0
H2109 H 0.18065 0.1851 0.41516 0.0
H2110 H 0.18418 0.18136 0.44439 0.0
H2111 H 0.23241 0.24707 0.44787 0.0
H2112 H 0.22941 0.25115 0.4186 0.0
H2113 H 0.15335 0.26101 0.34829 0.0
H2114 H 0.16109 0.23368 0.35728 0.0
H2115 H 0.21775 0.28088 0.38248 0.0
H2116 H 0.20989 0.30828 0.37381 0.0
H2117 H 0.19667 0.2465 0.40053 0.0
H2118 H 0.22098 0.26058 0.34546 0.0
H2119 H 0.21734 0.26436 0.31623 0.0
H2120 H 0.16651 0.19961 0.31326 0.0
H2121 H 0.16967 0.19551 0.34252 0.0
C2122 C 0.23797 0.18344 0.40049 0.0
C2123 C 0.22533 0.16248 0.39516 0.0
C2124 C 0.2309 0.19797 0.39801 0.0
C2125 C 0.21118 0.19164 0.39011 0.0
C2126 C 0.1983 0.17043 0.3853 0.0
C2127 C 0.20532 0.15594 0.38784 0.0
C2128 C 0.20485 0.20742 0.38557 0.0
C2129 C 0.20174 0.20975 0.36913 0.0
C2130 C 0.20299 0.22081 0.39705 0.0
C2131 C 0.20497 0.21837 0.41464 0.0
C2132 C 0.19218 0.19871 0.42212 0.0
C2133 C 0.19404 0.19654 0.43871 0.0
C2134 C 0.20855 0.21395 0.44798 0.0
C2135 C 0.2212 0.23359 0.44067 0.0
C2136 C 0.21941 0.23584 0.42408 0.0
C2137 C 0.16754 0.26563 0.35566 0.0
C2138 C 0.18115 0.28689 0.36017 0.0
C2139 C 0.17193 0.24996 0.36081 0.0
C2140 C 0.19017 0.25527 0.37038 0.0
C2141 C 0.2036 0.27642 0.3751 0.0
C2142 C 0.19913 0.29208 0.37006 0.0
C2143 C 0.19548 0.23884 0.37527 0.0
C2144 C 0.19845 0.23644 0.39173 0.0
C2145 C 0.19728 0.22539 0.36381 0.0
C2146 C 0.19546 0.22779 0.3462 0.0
C2147 C 0.20895 0.24718 0.33859 0.0
C2148 C 0.20699 0.24937 0.32201 0.0
C2149 C 0.19172 0.23223 0.31289 0.0
C2150 C 0.17835 0.21286 0.32034 0.0
C2151 C 0.18023 0.21059 0.33691 0.0
H2152 H 0.19022 0.23396 0.30006 0.0
H2153 H 0.20996 0.21224 0.46082 0.0
H2154 H 0.64356 0.47413 0.7355 0.0
H2155 H 0.67586 0.50355 0.72372 0.0
H2156 H 0.65299 0.54626 0.73639 0.0
H2157 H 0.6204 0.51679 0.74786 0.0
H2158 H 0.6669 0.55238 0.70595 0.0
H2159 H 0.69436 0.54641 0.75714 0.0
H2160 H 0.70267 0.52928 0.77943 0.0
H2161 H 0.74 0.51412 0.74739 0.0
H2162 H 0.73168 0.5309 0.72483 0.0
H2163 H 0.76315 0.65081 0.69665 0.0
H2164 H 0.72968 0.61906 0.70384 0.0
H2165 H 0.75853 0.58081 0.69306 0.0
H2166 H 0.79247 0.61283 0.68667 0.0
H2167 H 0.74129 0.57106 0.72126 0.0
H2168 H 0.7129 0.57715 0.66982 0.0
H2169 H 0.70441 0.59502 0.64809 0.0
H2170 H 0.66948 0.61133 0.68163 0.0
H2171 H 0.67759 0.59344 0.70347 0.0
C2172 C 0.64539 0.48978 0.73577 0.0
C2173 C 0.62935 0.49308 0.74261 0.0
C2174 C 0.66398 0.50664 0.72915 0.0
C2175 C 0.66698 0.52719 0.72924 0.0
C2176 C 0.65108 0.53056 0.73619 0.0
C2177 C 0.63252 0.51373 0.74287 0.0
C2178 C 0.68628 0.54502 0.72159 0.0
C2179 C 0.68318 0.55659 0.70942 0.0
C2180 C 0.70755 0.55023 0.72578 0.0
C2181 C 0.71215 0.53967 0.73924 0.0
C2182 C 0.70412 0.53919 0.7548 0.0
C2183 C 0.70888 0.5296 0.76749 0.0
C2184 C 0.72178 0.52054 0.76481 0.0
C2185 C 0.72996 0.52109 0.74943 0.0
C2186 C 0.72523 0.53064 0.73669 0.0
C2187 C 0.76215 0.63555 0.69541 0.0
C2188 C 0.78034 0.63431 0.69087 0.0
C2189 C 0.74292 0.61733 0.69943 0.0
C2190 C 0.74133 0.59735 0.69885 0.0
C2191 C 0.75925 0.59599 0.69357 0.0
C2192 C 0.77862 0.6143 0.68973 0.0
C2193 C 0.72197 0.57844 0.70553 0.0
C2194 C 0.72503 0.56669 0.71761 0.0
C2195 C 0.70066 0.57314 0.70133 0.0
C2196 C 0.69604 0.58415 0.68827 0.0
C2197 C 0.70357 0.58471 0.67255 0.0
C2198 C 0.69876 0.59476 0.66022 0.0
C2199 C 0.68656 0.60442 0.66351 0.0
C2200 C 0.67898 0.60389 0.6791 0.0
C2201 C 0.68358 0.59372 0.69144 0.0
H2202 H 0.68292 0.61224 0.65395 0.0
H2203 H 0.72548 0.51316 0.77466 0.0
H2204 H 0.51508 0.1185 0.71567 0.0
H2205 H 0.486 0.12406 0.70606 0.0
H2206 H 0.486 0.1524 0.75185 0.0
H2207 H 0.5147 0.14632 0.76163 0.0
H2208 H 0.44706 0.12818 0.74364 0.0
H2209 H 0.50766 0.18173 0.71573 0.0
H2210 H 0.53986 0.19699 0.69846 0.0
H2211 H 0.50155 0.15918 0.65846 0.0
H2212 H 0.46916 0.14346 0.67555 0.0
H2213 H 0.39459 0.18094 0.69418 0.0
H2214 H 0.42727 0.17995 0.7017 0.0
H2215 H 0.38941 0.11225 0.70732 0.0
H2216 H 0.35687 0.11322 0.69982 0.0
H2217 H 0.44886 0.16013 0.69049 0.0
H2218 H 0.40583 0.09852 0.74122 0.0
H2219 H 0.37508 0.08752 0.75961 0.0
H2220 H 0.3817 0.14922 0.75642 0.0
H2221 H 0.41271 0.16069 0.73825 0.0
C2222 C 0.50899 0.12606 0.72365 0.0
C2223 C 0.51726 0.132 0.73942 0.0
C2224 C 0.49237 0.12932 0.71811 0.0
C2225 C 0.48388 0.13898 0.7281 0.0
C2226 C 0.49216 0.14491 0.74387 0.0
C2227 C 0.50858 0.14141 0.74947 0.0
C2228 C 0.46595 0.14227 0.72232 0.0
C2229 C 0.44758 0.1352 0.73202 0.0
C2230 C 0.46657 0.15186 0.70729 0.0
C2231 C 0.48602 0.16125 0.69698 0.0
C2232 C 0.50613 0.17654 0.70329 0.0
C2233 C 0.52441 0.18529 0.69352 0.0
C2234 C 0.52276 0.17901 0.67739 0.0
C2235 C 0.50281 0.164 0.67097 0.0
C2236 C 0.48448 0.15517 0.68068 0.0
C2237 C 0.39337 0.16582 0.69668 0.0
C2238 C 0.37326 0.14709 0.69619 0.0
C2239 C 0.41203 0.16527 0.70102 0.0
C2240 C 0.41079 0.14605 0.70525 0.0
C2241 C 0.39077 0.1273 0.70429 0.0
C2242 C 0.3722 0.12785 0.69996 0.0
C2243 C 0.43001 0.14556 0.71165 0.0
C2244 C 0.44851 0.15314 0.70209 0.0
C2245 C 0.42981 0.13702 0.72701 0.0
C2246 C 0.41147 0.13038 0.73824 0.0
C2247 C 0.4008 0.10977 0.74452 0.0
C2248 C 0.38332 0.10345 0.7549 0.0
C2249 C 0.37641 0.11764 0.75915 0.0
C2250 C 0.38703 0.13822 0.75309 0.0
C2251 C 0.40455 0.14463 0.74274 0.0
H2252 H 0.36285 0.1127 0.76716 0.0
H2253 H 0.53694 0.18582 0.66985 0.0
H2254 H 0.9044 0.39272 0.75285 0.0
H2255 H 0.90199 0.36005 0.74296 0.0
H2256 H 0.83488 0.33525 0.73124 0.0
H2257 H 0.83681 0.36733 0.74199 0.0
H2258 H 0.84026 0.30512 0.74354 0.0
H2259 H 0.87553 0.35781 0.70234 0.0
H2260 H 0.90332 0.39203 0.69137 0.0
H2261 H 0.95253 0.37743 0.70412 0.0
H2262 H 0.92505 0.34323 0.71536 0.0
H2263 H 0.82528 0.22839 0.68439 0.0
H2264 H 0.83052 0.26131 0.69642 0.0
H2265 H 0.89158 0.27403 0.71622 0.0
H2266 H 0.88638 0.24096 0.70445 0.0
H2267 H 0.89073 0.30985 0.70073 0.0
H2268 H 0.85506 0.25668 0.7413 0.0
H2269 H 0.82694 0.22193 0.75122 0.0
H2270 H 0.77814 0.23716 0.73859 0.0
H2271 H 0.80598 0.27192 0.72841 0.0
C2272 C 0.88902 0.38018 0.74845 0.0
C2273 C 0.87084 0.38276 0.7481 0.0
C2274 C 0.88774 0.36159 0.74261 0.0
C2275 C 0.86836 0.34536 0.73606 0.0
C2276 C 0.85004 0.34762 0.73614 0.0
C2277 C 0.85124 0.36609 0.74213 0.0
C2278 C 0.86721 0.3262 0.72877 0.0
C2279 C 0.85118 0.3062 0.73408 0.0
C2280 C 0.88173 0.32754 0.71664 0.0
C2281 C 0.89826 0.34807 0.70984 0.0
C2282 C 0.8923 0.36197 0.70291 0.0
C2283 C 0.90799 0.38135 0.69663 0.0
C2284 C 0.92968 0.38693 0.69709 0.0
C2285 C 0.93573 0.37311 0.70379 0.0
C2286 C 0.9201 0.35372 0.71011 0.0
C2287 C 0.83994 0.23829 0.69115 0.0
C2288 C 0.85539 0.23205 0.69354 0.0
C2289 C 0.84285 0.25702 0.69805 0.0
C2290 C 0.86134 0.26991 0.70727 0.0
C2291 C 0.87719 0.2642 0.70915 0.0
C2292 C 0.87416 0.2453 0.70246 0.0
C2293 C 0.86372 0.28901 0.7154 0.0
C2294 C 0.87994 0.3089 0.71025 0.0
C2295 C 0.84936 0.28758 0.72761 0.0
C2296 C 0.83259 0.26683 0.73396 0.0
C2297 C 0.83832 0.25256 0.74053 0.0
C2298 C 0.82244 0.23288 0.74623 0.0
C2299 C 0.80076 0.22732 0.7455 0.0
C2300 C 0.79494 0.24148 0.73913 0.0
C2301 C 0.81076 0.26119 0.73342 0.0
H2302 H 0.78849 0.21209 0.74991 0.0
H2303 H 0.94181 0.40194 0.69222 0.0
H2304 H 0.14441 0.94151 0.64037 0.0
H2305 H 0.17329 0.97533 0.65059 0.0
H2306 H 0.1982 0.99328 0.60248 0.0
H2307 H 0.16863 0.96008 0.59186 0.0
H2308 H 0.22969 0.99924 0.62979 0.0
H2309 H 0.17436 0.01531 0.6135 0.0
H2310 H 0.13734 0.00936 0.61329 0.0
H2311 H 0.13996 0.01763 0.66474 0.0
H2312 H 0.1769 0.0233 0.66528 0.0
H2313 H 0.30593 0.10678 0.64507 0.0
H2314 H 0.27775 0.07342 0.6338 0.0
H2315 H 0.23759 0.06529 0.67493 0.0
H2316 H 0.26499 0.09942 0.68558 0.0
H2317 H 0.21356 0.0536 0.65066 0.0
H2318 H 0.26687 0.03715 0.6686 0.0
H2319 H 0.30308 0.0413 0.67097 0.0
H2320 H 0.30375 0.03133 0.61992 0.0
H2321 H 0.26765 0.02742 0.61721 0.0
C2322 C 0.15576 0.9527 0.63184 0.0
C2323 C 0.15392 0.94792 0.6152 0.0
C2324 C 0.17241 0.97197 0.63778 0.0
C2325 C 0.18783 0.98676 0.62728 0.0
C2326 C 0.18649 0.98198 0.61077 0.0
C2327 C 0.16959 0.96287 0.60476 0.0
C2328 C 0.20509 0.00743 0.63357 0.0
C2329 C 0.2263 0.0113 0.63417 0.0
C2330 C 0.20044 0.02276 0.63977 0.0
C2331 C 0.1783 0.01949 0.63944 0.0
C2332 C 0.16697 0.01565 0.62478 0.0
C2333 C 0.14601 0.01237 0.6246 0.0
C2334 C 0.13628 0.01305 0.639 0.0
C2335 C 0.1475 0.01707 0.6536 0.0
C2336 C 0.16845 0.02033 0.65385 0.0
C2337 C 0.29113 0.09791 0.65177 0.0
C2338 C 0.288 0.10572 0.66645 0.0
C2339 C 0.27503 0.07866 0.64534 0.0
C2340 C 0.25562 0.0664 0.65366 0.0
C2341 C 0.25241 0.07426 0.66827 0.0
C2342 C 0.26828 0.09376 0.67449 0.0
C2343 C 0.23848 0.04566 0.64701 0.0
C2344 C 0.21716 0.04168 0.64633 0.0
C2345 C 0.24299 0.03001 0.64108 0.0
C2346 C 0.26464 0.0322 0.64268 0.0
C2347 C 0.27479 0.03598 0.65786 0.0
C2348 C 0.29529 0.03827 0.65927 0.0
C2349 C 0.30573 0.03663 0.6456 0.0
C2350 C 0.29566 0.03263 0.6305 0.0
C2351 C 0.27517 0.03035 0.62902 0.0
H2352 H 0.32161 0.03842 0.64671 0.0
H2353 H 0.12006 0.01052 0.63883 0.0
H2354 H 0.06661 0.21532 0.6434 0.0
H2355 H 0.03316 0.21133 0.65415 0.0
H2356 H 0.00495 0.1965 0.60647 0.0
H2357 H 0.03812 0.19954 0.59571 0.0
H2358 H 0.01273 0.23177 0.64953 0.0
H2359 H 0.95045 0.16371 0.609 0.0
H2360 H 0.94655 0.13253 0.59426 0.0
H2361 H 0.99105 0.12874 0.627 0.0
H2362 H 0.99499 0.15971 0.64205 0.0
H2363 H 0.91096 0.22511 0.65644 0.0
H2364 H 0.94534 0.22849 0.64885 0.0
H2365 H 0.92364 0.16516 0.66585 0.0
H2366 H 0.88851 0.16123 0.67219 0.0
H2367 H 0.94141 0.16817 0.63953 0.0
H2368 H 0.97138 0.21527 0.6862 0.0
H2369 H 0.97806 0.24505 0.70425 0.0
H2370 H 0.99995 0.28739 0.66392 0.0
H2371 H 0.99373 0.25789 0.64579 0.0
C2372 C 0.05323 0.21091 0.63519 0.0
C2373 C 0.05514 0.20759 0.61866 0.0
C2374 C 0.03411 0.20883 0.64136 0.0
C2375 C 0.01632 0.20338 0.63121 0.0
C2376 C 0.01825 0.20038 0.61465 0.0
C2377 C 0.03738 0.20237 0.60846 0.0
C2378 C 0.99597 0.20118 0.63799 0.0
C2379 C 0.99715 0.21782 0.64733 0.0
C2380 C 0.97556 0.18291 0.63542 0.0
C2381 C 0.97318 0.16417 0.62653 0.0
C2382 C 0.95934 0.15618 0.61308 0.0
C2383 C 0.95713 0.13855 0.60467 0.0
C2384 C 0.9686 0.1287 0.60966 0.0
C2385 C 0.98224 0.13643 0.62311 0.0
C2386 C 0.98449 0.15404 0.63157 0.0
C2387 C 0.91367 0.21204 0.65883 0.0
C2388 C 0.89715 0.1931 0.66531 0.0
C2389 C 0.93352 0.21405 0.65462 0.0
C2390 C 0.93758 0.19729 0.65703 0.0
C2391 C 0.92116 0.17845 0.66387 0.0
C2392 C 0.90109 0.17628 0.66775 0.0
C2393 C 0.95811 0.19878 0.65117 0.0
C2394 C 0.95697 0.18207 0.64184 0.0
C2395 C 0.97866 0.21678 0.65404 0.0
C2396 C 0.9817 0.23437 0.66469 0.0
C2397 C 0.97734 0.2309 0.68123 0.0
C2398 C 0.9812 0.24774 0.69146 0.0
C2399 C 0.9892 0.26806 0.68521 0.0
C2400 C 0.99364 0.27163 0.66874 0.0
C2401 C 0.99008 0.25489 0.65851 0.0
H2402 H 0.9921 0.28105 0.69314 0.0
H2403 H 0.96688 0.11506 0.60313 0.0
H2404 H 0.77146 0.83351 0.62856 0.0
H2405 H 0.77624 0.80425 0.6377 0.0
H2406 H 0.82751 0.82203 0.60331 0.0
H2407 H 0.82204 0.85082 0.5937 0.0
H2408 H 0.80597 0.7806 0.6062 0.0
H2409 H 0.83831 0.83917 0.64266 0.0
H2410 H 0.8398 0.86712 0.66036 0.0
H2411 H 0.79115 0.81998 0.69069 0.0
H2412 H 0.78912 0.79174 0.67302 0.0
H2413 H 0.85169 0.74278 0.6771 0.0
H2414 H 0.847 0.77026 0.66415 0.0
H2415 H 0.79019 0.72227 0.63953 0.0
H2416 H 0.79529 0.69482 0.6519 0.0
H2417 H 0.8182 0.78085 0.66522 0.0
H2418 H 0.78325 0.73891 0.60355 0.0
H2419 H 0.78621 0.71369 0.5853 0.0
H2420 H 0.84907 0.73265 0.60439 0.0
H2421 H 0.84658 0.75807 0.62268 0.0
C2422 C 0.78343 0.83083 0.62276 0.0
C2423 C 0.79651 0.84436 0.61055 0.0
C2424 C 0.78624 0.81424 0.62802 0.0
C2425 C 0.80262 0.81131 0.62148 0.0
C2426 C 0.81486 0.82407 0.60859 0.0
C2427 C 0.81176 0.84047 0.60311 0.0
C2428 C 0.8079 0.79597 0.62889 0.0
C2429 C 0.80863 0.78061 0.6191 0.0
C2430 C 0.81208 0.79642 0.64565 0.0
C2431 C 0.81344 0.81335 0.65644 0.0
C2432 C 0.82784 0.83477 0.65305 0.0
C2433 C 0.82879 0.85066 0.66308 0.0
C2434 C 0.81555 0.84533 0.67663 0.0
C2435 C 0.80138 0.82408 0.68019 0.0
C2436 C 0.80033 0.80813 0.67018 0.0
C2437 C 0.83817 0.73809 0.66896 0.0
C2438 C 0.82395 0.71665 0.66542 0.0
C2439 C 0.83552 0.75382 0.66154 0.0
C2440 C 0.8185 0.74837 0.65059 0.0
C2441 C 0.80382 0.72691 0.64755 0.0
C2442 C 0.80665 0.71121 0.65474 0.0
C2443 C 0.81579 0.76509 0.64262 0.0
C2444 C 0.81558 0.78078 0.65231 0.0
C2445 C 0.81284 0.76533 0.6257 0.0
C2446 C 0.81461 0.75024 0.61461 0.0
C2447 C 0.79773 0.73773 0.60383 0.0
C2448 C 0.79929 0.72335 0.59352 0.0
C2449 C 0.81775 0.72146 0.59378 0.0
C2450 C 0.83472 0.73401 0.60429 0.0
C2451 C 0.83322 0.74838 0.61466 0.0
H2452 H 0.81893 0.71038 0.58575 0.0
H2453 H 0.8163 0.85765 0.68438 0.0
H2454 H 0.05758 0.83288 0.62425 0.0
H2455 H 0.02487 0.80062 0.63288 0.0
H2456 H 0.98774 0.83166 0.62542 0.0
H2457 H 0.02039 0.86378 0.61685 0.0
H2458 H 0.98224 0.81519 0.65531 0.0
H2459 H 0.98022 0.79103 0.60119 0.0
H2460 H 0.99451 0.78277 0.57692 0.0
H2461 H 0.00433 0.7381 0.60386 0.0
H2462 H 0.99037 0.74631 0.62836 0.0
H2463 H 0.87832 0.72638 0.67084 0.0
H2464 H 0.91101 0.7581 0.66241 0.0
H2465 H 0.94465 0.72286 0.66105 0.0
H2466 H 0.91146 0.69081 0.66862 0.0
H2467 H 0.95186 0.74179 0.63486 0.0
H2468 H 0.96487 0.77354 0.68946 0.0
H2469 H 0.95767 0.78679 0.71475 0.0
H2470 H 0.92917 0.81687 0.68785 0.0
H2471 H 0.93728 0.80468 0.66235 0.0
C2472 C 0.04228 0.8325 0.62405 0.0
C2473 C 0.04129 0.85057 0.61977 0.0
C2474 C 0.02362 0.81413 0.62898 0.0
C2475 C 0.00379 0.81368 0.62976 0.0
C2476 C 0.00281 0.8316 0.6249 0.0
C2477 C 0.0214 0.84988 0.61992 0.0
C2478 C 0.98457 0.7954 0.63706 0.0
C2479 C 0.97539 0.79916 0.65068 0.0
C2480 C 0.97603 0.7744 0.63137 0.0
C2481 C 0.98444 0.76945 0.61666 0.0
C2482 C 0.98561 0.77959 0.60198 0.0
C2483 C 0.99361 0.77488 0.58817 0.0
C2484 C 1.00038 0.75996 0.58886 0.0
C2485 C 0.99911 0.74968 0.60335 0.0
C2486 C 0.99113 0.75433 0.6172 0.0
C2487 C 0.89286 0.72556 0.66928 0.0
C2488 C 0.89239 0.70614 0.6705 0.0
C2489 C 0.9117 0.74382 0.66447 0.0
C2490 C 0.93059 0.74313 0.66109 0.0
C2491 C 0.93038 0.72394 0.66341 0.0
C2492 C 0.91145 0.70563 0.66787 0.0
C2493 C 0.94961 0.76147 0.6534 0.0
C2494 C 0.9587 0.75777 0.63958 0.0
C2495 C 0.95828 0.78255 0.65897 0.0
C2496 C 0.95131 0.78793 0.67411 0.0
C2497 C 0.95683 0.78276 0.68899 0.0
C2498 C 0.95284 0.7903 0.70332 0.0
C2499 C 0.9428 0.80252 0.70292 0.0
C2500 C 0.93689 0.80736 0.68816 0.0
C2501 C 0.94136 0.80032 0.67376 0.0
H2502 H 0.93966 0.80828 0.71405 0.0
H2503 H 0.00656 0.75634 0.57816 0.0
H2504 H 0.1772 0.23029 0.62964 0.0
H2505 H 0.209 0.22724 0.63621 0.0
H2506 H 0.17264 0.16026 0.62595 0.0
H2507 H 0.14091 0.16337 0.61951 0.0
H2508 H 0.19105 0.16751 0.65489 0.0
H2509 H 0.2149 0.19415 0.60194 0.0
H2510 H 0.22388 0.2187 0.57913 0.0
H2511 H 0.27218 0.26929 0.608 0.0
H2512 H 0.26329 0.24511 0.63108 0.0
H2513 H 0.28013 0.15052 0.66924 0.0
H2514 H 0.24847 0.15186 0.66007 0.0
H2515 H 0.28517 0.22014 0.6611 0.0
H2516 H 0.31725 0.21865 0.6691 0.0
H2517 H 0.26576 0.21046 0.63502 0.0
H2518 H 0.22816 0.18669 0.68926 0.0
H2519 H 0.21261 0.16322 0.71271 0.0
H2520 H 0.1902 0.10869 0.68187 0.0
H2521 H 0.20455 0.13196 0.65811 0.0
C2522 C 0.17628 0.21508 0.62835 0.0
C2523 C 0.1568 0.1971 0.6239 0.0
C2524 C 0.19443 0.21331 0.63211 0.0
C2525 C 0.19333 0.19351 0.63153 0.0
C2526 C 0.17397 0.17571 0.62647 0.0
C2527 C 0.15589 0.1775 0.62269 0.0
C2528 C 0.21151 0.19096 0.63772 0.0
C2529 C 0.20735 0.1767 0.65034 0.0
C2530 C 0.2329 0.20325 0.63214 0.0
C2531 C 0.23828 0.21785 0.61829 0.0
C2532 C 0.22731 0.21055 0.60348 0.0
C2533 C 0.23241 0.2244 0.59049 0.0
C2534 C 0.24855 0.24556 0.59213 0.0
C2535 C 0.25966 0.2529 0.60675 0.0
C2536 C 0.25461 0.23913 0.61979 0.0
C2537 C 0.28127 0.16579 0.66793 0.0
C2538 C 0.30114 0.1845 0.67004 0.0
C2539 C 0.263 0.16659 0.66277 0.0
C2540 C 0.26402 0.18613 0.66001 0.0
C2541 C 0.28374 0.20481 0.66297 0.0
C2542 C 0.3021 0.20399 0.66768 0.0
C2543 C 0.24547 0.18732 0.6526 0.0
C2544 C 0.24951 0.20127 0.63962 0.0
C2545 C 0.22391 0.17483 0.65786 0.0
C2546 C 0.21792 0.16099 0.67207 0.0
C2547 C 0.22022 0.1697 0.68756 0.0
C2548 C 0.21132 0.15644 0.70084 0.0
C2549 C 0.20062 0.13446 0.69881 0.0
C2550 C 0.19859 0.1257 0.68344 0.0
C2551 C 0.20691 0.13891 0.67005 0.0
H2552 H 0.19383 0.12422 0.70914 0.0
H2553 H 0.25248 0.25625 0.58205 0.0
H2554 H 0.7783 0.94389 0.62019 0.0
H2555 H 0.78224 0.97879 0.62593 0.0
H2556 H 0.8457 8e-05 0.64563 0.0
H2557 H 0.84166 0.96528 0.63998 0.0
H2558 H 0.82019 0.00693 0.66615 0.0
H2559 H 0.83968 0.0184 0.60992 0.0
H2560 H 0.83423 0.01035 0.58078 0.0
H2561 H 0.77732 0.01582 0.58154 0.0
H2562 H 0.78227 0.02361 0.61075 0.0
H2563 H 0.8599 0.11533 0.6781 0.0
H2564 H 0.85388 0.08099 0.66914 0.0
H2565 H 0.79419 0.06792 0.64636 0.0
H2566 H 0.80047 0.10272 0.6549 0.0
H2567 H 0.81513 0.0558 0.62725 0.0
H2568 H 0.79492 0.04425 0.68287 0.0
H2569 H 0.79897 0.0513 0.71218 0.0
H2570 H 0.85543 0.04505 0.71278 0.0
H2571 H 0.85177 0.03806 0.68345 0.0
C2572 C 0.79318 0.95625 0.62546 0.0
C2573 C 0.80976 0.95223 0.62962 0.0
C2574 C 0.79544 0.97609 0.62872 0.0
C2575 C 0.81429 0.99201 0.63618 0.0
C2576 C 0.83104 0.98801 0.63989 0.0
C2577 C 0.82879 0.96825 0.6366 0.0
C2578 C 0.81609 0.01233 0.64118 0.0
C2579 C 0.81934 0.01775 0.65762 0.0
C2580 C 0.81418 0.02602 0.63012 0.0
C2581 C 0.81121 0.02135 0.61256 0.0
C2582 C 0.82589 0.01769 0.60391 0.0
C2583 C 0.82292 0.01322 0.58737 0.0
C2584 C 0.80541 0.01251 0.57933 0.0
C2585 C 0.79086 0.01634 0.5878 0.0
C2586 C 0.79375 0.0208 0.60434 0.0
C2587 C 0.84541 0.10513 0.67127 0.0
C2588 C 0.83056 0.11168 0.66733 0.0
C2589 C 0.84195 0.08544 0.66618 0.0
C2590 C 0.82337 0.07169 0.65732 0.0
C2591 C 0.8086 0.07825 0.65323 0.0
C2592 C 0.81218 0.0981 0.65816 0.0
C2593 C 0.8196 0.05059 0.65221 0.0
C2594 C 0.81589 0.04496 0.6358 0.0
C2595 C 0.82087 0.03655 0.66331 0.0
C2596 C 0.82313 0.04075 0.68095 0.0
C2597 C 0.80825 0.04448 0.68924 0.0
C2598 C 0.81044 0.0484 0.70586 0.0
C2599 C 0.82743 0.0486 0.71434 0.0
C2600 C 0.84225 0.04485 0.70621 0.0
C2601 C 0.8401 0.04085 0.6896 0.0
H2602 H 0.82914 0.0517 0.7272 0.0
H2603 H 0.80314 0.00905 0.56652 0.0
H2604 H 0.52271 0.37601 0.76007 0.0
H2605 H 0.48839 0.34294 0.75549 0.0
H2606 H 0.49252 0.35668 0.70456 0.0
H2607 H 0.52634 0.38975 0.70925 0.0
H2608 H 0.45245 0.34063 0.71383 0.0
H2609 H 0.50805 0.32226 0.72118 0.0
H2610 H 0.53729 0.32083 0.73584 0.0
H2611 H 0.4941 0.28758 0.77467 0.0
H2612 H 0.46465 0.28905 0.76031 0.0
H2613 H 0.39353 0.24126 0.67537 0.0
H2614 H 0.42147 0.2753 0.68594 0.0
H2615 H 0.40304 0.25259 0.73453 0.0
H2616 H 0.37522 0.21816 0.72389 0.0
H2617 H 0.44723 0.27285 0.73007 0.0
H2618 H 0.39025 0.2873 0.72015 0.0
H2619 H 0.36138 0.28784 0.70427 0.0
H2620 H 0.4076 0.32794 0.66916 0.0
H2621 H 0.43672 0.32738 0.6847 0.0
C2622 C 0.51599 0.372 0.74798 0.0
C2623 C 0.52693 0.38527 0.73499 0.0
C2624 C 0.49652 0.35309 0.74534 0.0
C2625 C 0.48794 0.34712 0.72963 0.0
C2626 C 0.4987 0.36088 0.71678 0.0
C2627 C 0.51803 0.37975 0.71945 0.0
C2628 C 0.46831 0.32627 0.72626 0.0
C2629 C 0.45138 0.32582 0.71733 0.0
C2630 C 0.46657 0.30687 0.73113 0.0
C2631 C 0.48424 0.30601 0.73978 0.0
C2632 C 0.50484 0.3148 0.73291 0.0
C2633 C 0.52144 0.31395 0.74115 0.0
C2634 C 0.51758 0.30418 0.7562 0.0
C2635 C 0.49708 0.29519 0.76303 0.0
C2636 C 0.48043 0.29602 0.75484 0.0
C2637 C 0.39555 0.24338 0.68826 0.0
C2638 C 0.38237 0.2269 0.69874 0.0
C2639 C 0.41136 0.26298 0.69433 0.0
C2640 C 0.41431 0.26657 0.71104 0.0
C2641 C 0.40104 0.2502 0.72159 0.0
C2642 C 0.38507 0.23059 0.71549 0.0
C2643 C 0.43167 0.28727 0.71736 0.0
C2644 C 0.44816 0.28767 0.72681 0.0
C2645 C 0.43309 0.30662 0.71285 0.0
C2646 C 0.41566 0.30718 0.70355 0.0
C2647 C 0.39424 0.29612 0.70899 0.0
C2648 C 0.37783 0.29644 0.70005 0.0
C2649 C 0.38265 0.30789 0.6857 0.0
C2650 C 0.40389 0.31907 0.68028 0.0
C2651 C 0.42036 0.31878 0.68916 0.0
H2652 H 0.36992 0.30811 0.6788 0.0
H2653 H 0.53044 0.30353 0.76256 0.0
H2654 H 0.64136 0.17083 0.72337 0.0
H2655 H 0.67662 0.17486 0.71712 0.0
H2656 H 0.65456 0.11132 0.73366 0.0
H2657 H 0.61911 0.1073 0.73991 0.0
H2658 H 0.6971 0.13984 0.74328 0.0
H2659 H 0.65477 0.12043 0.69443 0.0
H2660 H 0.63254 0.12376 0.67315 0.0
H2661 H 0.68465 0.18548 0.66129 0.0
H2662 H 0.70709 0.18266 0.68268 0.0
H2663 H 0.77251 0.11957 0.7033 0.0
H2664 H 0.73872 0.11796 0.71097 0.0
H2665 H 0.76496 0.1832 0.6973 0.0
H2666 H 0.79905 0.18509 0.69018 0.0
H2667 H 0.72118 0.15505 0.68633 0.0
H2668 H 0.76366 0.1754 0.73429 0.0
H2669 H 0.7869 0.17331 0.75534 0.0
H2670 H 0.73587 0.11175 0.76883 0.0
H2671 H 0.71242 0.11333 0.74766 0.0
C2672 C 0.64422 0.15789 0.72596 0.0
C2673 C 0.6277 0.13884 0.73223 0.0
C2674 C 0.6643 0.16014 0.72228 0.0
C2675 C 0.66822 0.14331 0.72472 0.0
C2676 C 0.65194 0.12452 0.73166 0.0
C2677 C 0.63174 0.12223 0.73527 0.0
C2678 C 0.68894 0.14508 0.71936 0.0
C2679 C 0.7022 0.14289 0.73079 0.0
C2680 C 0.69601 0.14969 0.70314 0.0
C2681 C 0.68251 0.15144 0.6903 0.0
C2682 C 0.66141 0.1348 0.68739 0.0
C2683 C 0.64879 0.13658 0.67529 0.0
C2684 C 0.65715 0.15485 0.66591 0.0
C2685 C 0.67817 0.17136 0.66859 0.0
C2686 C 0.69085 0.16967 0.6807 0.0
C2687 C 0.77097 0.1335 0.70178 0.0
C2688 C 0.78826 0.1523 0.69576 0.0
C2689 C 0.75171 0.13259 0.7062 0.0
C2690 C 0.74932 0.15046 0.70473 0.0
C2691 C 0.76641 0.16918 0.69845 0.0
C2692 C 0.78584 0.17019 0.69426 0.0
C2693 C 0.72917 0.14965 0.71022 0.0
C2694 C 0.71605 0.15203 0.69882 0.0
C2695 C 0.72234 0.14542 0.72648 0.0
C2696 C 0.73635 0.14439 0.73926 0.0
C2697 C 0.75745 0.16133 0.74164 0.0
C2698 C 0.77066 0.16026 0.75362 0.0
C2699 C 0.76288 0.14238 0.76339 0.0
C2700 C 0.74187 0.12557 0.76123 0.0
C2701 C 0.72861 0.12655 0.74925 0.0
H2702 H 0.7731 0.14157 0.77267 0.0
H2703 H 0.64735 0.15619 0.65654 0.0
H2704 H 0.88513 0.49735 0.75105 0.0
H2705 H 0.88695 0.53101 0.74389 0.0
H2706 H 0.8264 0.49631 0.71837 0.0
H2707 H 0.82462 0.46296 0.72551 0.0
H2708 H 0.85855 0.52761 0.70003 0.0
H2709 H 0.8283 0.51916 0.75358 0.0
H2710 H 0.82767 0.51527 0.78316 0.0
H2711 H 0.88719 0.57418 0.78729 0.0
H2712 H 0.8883 0.57828 0.75769 0.0
H2713 H 0.82169 0.59727 0.68224 0.0
H2714 H 0.82691 0.56897 0.69248 0.0
H2715 H 0.88232 0.61435 0.71989 0.0
H2716 H 0.87672 0.64289 0.71005 0.0
H2717 H 0.85882 0.58082 0.7376 0.0
H2718 H 0.88789 0.59115 0.68453 0.0
H2719 H 0.88856 0.59572 0.65502 0.0
H2720 H 0.83255 0.53413 0.64986 0.0
H2721 H 0.83144 0.52924 0.67935 0.0
C2722 C 0.87213 0.49707 0.74414 0.0
C2723 C 0.8547 0.47782 0.73883 0.0
C2724 C 0.87316 0.51619 0.74007 0.0
C2725 C 0.8568 0.5161 0.73059 0.0
C2726 C 0.83919 0.49672 0.72565 0.0
C2727 C 0.83814 0.47773 0.72977 0.0
C2728 C 0.85832 0.53603 0.72493 0.0
C2729 C 0.8585 0.53921 0.70824 0.0
C2730 C 0.85906 0.5515 0.73566 0.0
C2731 C 0.85853 0.54888 0.75341 0.0
C2732 C 0.84138 0.53116 0.76078 0.0
C2733 C 0.8409 0.52895 0.77755 0.0
C2734 C 0.85742 0.54443 0.78709 0.0
C2735 C 0.87443 0.56218 0.77988 0.0
C2736 C 0.87499 0.56446 0.76311 0.0
C2737 C 0.83512 0.60132 0.69034 0.0
C2738 C 0.84893 0.62237 0.69522 0.0
C2739 C 0.83812 0.58509 0.69616 0.0
C2740 C 0.85529 0.58956 0.7067 0.0
C2741 C 0.86904 0.61055 0.7117 0.0
C2742 C 0.86586 0.62683 0.70604 0.0
C2743 C 0.85842 0.57212 0.71265 0.0
C2744 C 0.85922 0.56943 0.72937 0.0
C2745 C 0.85876 0.55712 0.70194 0.0
C2746 C 0.85955 0.55987 0.68416 0.0
C2747 C 0.87568 0.5786 0.6771 0.0
C2748 C 0.87616 0.58124 0.66038 0.0
C2749 C 0.86063 0.56521 0.65057 0.0
C2750 C 0.84461 0.5465 0.65747 0.0
C2751 C 0.84408 0.54377 0.67418 0.0
H2752 H 0.86098 0.56732 0.63763 0.0
H2753 H 0.85701 0.5427 0.80007 0.0
H2754 H 0.45396 0.87725 0.23314 0.0
H2755 H 0.46621 0.89355 0.2066 0.0
H2756 H 0.44836 0.94026 0.21869 0.0
H2757 H 0.43609 0.92407 0.24511 0.0
H2758 H 0.43479 0.92542 0.1891 0.0
H2759 H 0.50158 0.95132 0.2188 0.0
H2760 H 0.5285 0.94763 0.23491 0.0
H2761 H 0.53603 0.91238 0.19639 0.0
H2762 H 0.50893 0.91563 0.18012 0.0
H2763 H 0.49466 0.00953 0.13555 0.0
H2764 H 0.48081 0.98666 0.15916 0.0
H2765 H 0.49434 0.94137 0.1364 0.0
H2766 H 0.50818 0.96431 0.11258 0.0
H2767 H 0.50902 0.95131 0.16926 0.0
H2768 H 0.44501 0.92847 0.13851 0.0
H2769 H 0.41864 0.9327 0.12217 0.0
H2770 H 0.40591 0.96199 0.16241 0.0
H2771 H 0.43254 0.95831 0.17893 0.0
C2772 C 0.45286 0.89113 0.2302 0.0
C2773 C 0.44397 0.8993 0.24127 0.0
C2774 C 0.45984 0.90042 0.215 0.0
C2775 C 0.45832 0.91824 0.21061 0.0
C2776 C 0.44959 0.92647 0.2217 0.0
C2777 C 0.44255 0.91716 0.23683 0.0
C2778 C 0.4656 0.92834 0.19448 0.0
C2779 C 0.45109 0.93122 0.18485 0.0
C2780 C 0.48665 0.93532 0.1886 0.0
C2781 C 0.50305 0.93351 0.19832 0.0
C2782 C 0.50886 0.94265 0.21381 0.0
C2783 C 0.52417 0.94066 0.22297 0.0
C2784 C 0.53392 0.92972 0.2167 0.0
C2785 C 0.52843 0.92081 0.20124 0.0
C2786 C 0.51311 0.92273 0.19204 0.0
C2787 C 0.49469 0.9947 0.13555 0.0
C2788 C 0.50263 0.98875 0.12224 0.0
C2789 C 0.48668 0.9816 0.14903 0.0
C2790 C 0.48653 0.9623 0.14956 0.0
C2791 C 0.49434 0.95621 0.13626 0.0
C2792 C 0.5021 0.96923 0.12264 0.0
C2793 C 0.47836 0.94878 0.16417 0.0
C2794 C 0.49267 0.94527 0.17347 0.0
C2795 C 0.45713 0.94118 0.16975 0.0
C2796 C 0.44092 0.94326 0.15993 0.0
C2797 C 0.43673 0.93597 0.14385 0.0
C2798 C 0.42171 0.93825 0.13455 0.0
C2799 C 0.41063 0.94763 0.14124 0.0
C2800 C 0.41452 0.95473 0.15725 0.0
C2801 C 0.42957 0.95254 0.16659 0.0
H2802 H 0.399 0.94938 0.13403 0.0
H2803 H 0.54576 0.92818 0.22381 0.0
H2804 H 0.13558 0.58036 0.22794 0.0
H2805 H 0.11556 0.57603 0.20285 0.0
H2806 H 0.06717 0.51343 0.21756 0.0
H2807 H 0.08701 0.51766 0.2426 0.0
H2808 H 0.07894 0.51323 0.18696 0.0
H2809 H 0.05811 0.55518 0.21908 0.0
H2810 H 0.06453 0.58588 0.23575 0.0
H2811 H 0.0971 0.62755 0.19625 0.0
H2812 H 0.09112 0.5971 0.1794 0.0
H2813 H 0.99243 0.49188 0.13419 0.0
H2814 H 0.01525 0.49975 0.15822 0.0
H2815 H 0.06304 0.55841 0.13694 0.0
H2816 H 0.04026 0.55059 0.11281 0.0
H2817 H 0.05384 0.56235 0.1696 0.0
H2818 H 0.07354 0.52053 0.13716 0.0
H2819 H 0.06767 0.49003 0.12047 0.0
H2820 H 0.03761 0.44838 0.16046 0.0
H2821 H 0.04305 0.4786 0.17735 0.0
C2822 C 0.12055 0.56578 0.2259 0.0
C2823 C 0.11293 0.54932 0.23723 0.0
C2824 C 0.10914 0.56331 0.21155 0.0
C2825 C 0.08982 0.54442 0.20835 0.0
C2826 C 0.0821 0.52808 0.21972 0.0
C2827 C 0.09349 0.53051 0.23402 0.0
C2828 C 0.07776 0.54137 0.19304 0.0
C2829 C 0.07324 0.52385 0.18327 0.0
C2830 C 0.0709 0.55558 0.18797 0.0
C2831 C 0.07437 0.57388 0.19804 0.0
C2832 C 0.06679 0.5709 0.21399 0.0
C2833 C 0.07032 0.58825 0.22347 0.0
C2834 C 0.08127 0.60866 0.21708 0.0
C2835 C 0.08865 0.61174 0.20119 0.0
C2836 C 0.08518 0.59444 0.19167 0.0
C2837 C 0.00774 0.50651 0.13469 0.0
C2838 C 0.0146 0.52062 0.12165 0.0
C2839 C 0.0208 0.51092 0.14836 0.0
C2840 C 0.04087 0.52959 0.14929 0.0
C2841 C 0.04762 0.5439 0.13642 0.0
C2842 C 0.03467 0.53937 0.12264 0.0
C2843 C 0.05475 0.53404 0.16374 0.0
C2844 C 0.05963 0.55182 0.1733 0.0
C2845 C 0.06198 0.52008 0.16863 0.0
C2846 C 0.05851 0.50182 0.15848 0.0
C2847 C 0.06548 0.50484 0.14236 0.0
C2848 C 0.06228 0.48761 0.13287 0.0
C2849 C 0.05222 0.46728 0.13938 0.0
C2850 C 0.04537 0.46414 0.15542 0.0
C2851 C 0.04853 0.48132 0.16496 0.0
H2852 H 0.04978 0.45396 0.13202 0.0
H2853 H 0.084 0.62207 0.22444 0.0
H2854 H 0.41999 0.55033 0.23136 0.0
H2855 H 0.42668 0.54028 0.2046 0.0
H2856 H 0.49285 0.56284 0.21794 0.0
H2857 H 0.4862 0.57212 0.24475 0.0
H2858 H 0.48755 0.57926 0.1882 0.0
H2859 H 0.4602 0.51217 0.21595 0.0
H2860 H 0.43299 0.48156 0.23124 0.0
H2861 H 0.3872 0.46649 0.19276 0.0
H2862 H 0.41409 0.49722 0.17734 0.0
H2863 H 0.53314 0.54157 0.13201 0.0
H2864 H 0.51886 0.5501 0.15573 0.0
H2865 H 0.4549 0.51649 0.13519 0.0
H2866 H 0.4691 0.50739 0.11145 0.0
H2867 H 0.45441 0.50609 0.16644 0.0
H2868 H 0.48054 0.57001 0.13753 0.0
H2869 H 0.50604 0.60076 0.12151 0.0
H2870 H 0.55166 0.62217 0.16065 0.0
H2871 H 0.52639 0.59154 0.17694 0.0
C2872 C 0.43585 0.55277 0.22871 0.0
C2873 C 0.45261 0.56232 0.24019 0.0
C2874 C 0.43968 0.54715 0.21337 0.0
C2875 C 0.46034 0.55104 0.20923 0.0
C2876 C 0.47687 0.55996 0.2208 0.0
C2877 C 0.47302 0.56533 0.23613 0.0
C2878 C 0.46514 0.54638 0.19277 0.0
C2879 C 0.4804 0.56325 0.18347 0.0
C2880 C 0.45518 0.52561 0.18633 0.0
C2881 C 0.43906 0.50714 0.19559 0.0
C2882 C 0.44427 0.50245 0.21082 0.0
C2883 C 0.42892 0.48505 0.2195 0.0
C2884 C 0.40835 0.47213 0.213 0.0
C2885 C 0.40312 0.47654 0.1978 0.0
C2886 C 0.41841 0.49394 0.18908 0.0
C2887 C 0.51602 0.53593 0.13252 0.0
C2888 C 0.50225 0.52367 0.11986 0.0
C2889 C 0.50789 0.54101 0.14604 0.0
C2890 C 0.4858 0.53409 0.14723 0.0
C2891 C 0.472 0.52204 0.13454 0.0
C2892 C 0.48016 0.51699 0.12093 0.0
C2893 C 0.4773 0.53893 0.16204 0.0
C2894 C 0.46134 0.52215 0.17103 0.0
C2895 C 0.48635 0.55984 0.1681 0.0
C2896 C 0.50162 0.57839 0.15842 0.0
C2897 C 0.49605 0.58121 0.14269 0.0
C2898 C 0.51045 0.59864 0.13357 0.0
C2899 C 0.5305 0.61335 0.14002 0.0
C2900 C 0.53613 0.61074 0.15566 0.0
C2901 C 0.52174 0.5934 0.16487 0.0
H2902 H 0.54166 0.62678 0.1329 0.0
H2903 H 0.39649 0.45866 0.21974 0.0
H2904 H 0.927 0.44002 0.77938 0.0
H2905 H 0.94663 0.45339 0.80479 0.0
H2906 H 0.89731 0.4657 0.82221 0.0
H2907 H 0.87731 0.45201 0.79675 0.0
H2908 H 0.94058 0.49762 0.83087 0.0
H2909 H 0.89395 0.42252 0.83376 0.0
H2910 H 0.87788 0.38572 0.82399 0.0
H2911 H 0.94007 0.39053 0.82507 0.0
H2912 H 0.95658 0.42751 0.83458 0.0
H2913 H 0.97823 0.50525 0.91225 0.0
H2914 H 0.95495 0.49554 0.88839 0.0
H2915 H 0.99195 0.47086 0.86564 0.0
H2916 H 0.0145 0.47947 0.88968 0.0
H2917 H 0.95079 0.44468 0.86114 0.0
H2918 H 0.99793 0.52031 0.85595 0.0
H2919 H 0.01461 0.5574 0.8652 0.0
H2920 H 0.95218 0.55178 0.8684 0.0
H2921 H 0.93512 0.51456 0.85932 0.0
C2922 C 0.92038 0.4457 0.78856 0.0
C2923 C 0.90043 0.44463 0.78618 0.0
C2924 C 0.93165 0.45341 0.80304 0.0
C2925 C 0.92322 0.46019 0.81544 0.0
C2926 C 0.90402 0.46046 0.81277 0.0
C2927 C 0.89266 0.45269 0.79823 0.0
C2928 C 0.93375 0.46536 0.83153 0.0
C2929 C 0.94255 0.486 0.83765 0.0
C2930 C 0.93644 0.4502 0.84025 0.0
C2931 C 0.92652 0.42785 0.83477 0.0
C2932 C 0.90422 0.41579 0.83181 0.0
C2933 C 0.89503 0.39489 0.82632 0.0
C2934 C 0.90795 0.38581 0.82388 0.0
C2935 C 0.93008 0.39759 0.82695 0.0
C2936 C 0.93936 0.41852 0.83241 0.0
C2937 C 0.98126 0.49754 0.90224 0.0
C2938 C 0.99834 0.49325 0.90287 0.0
C2939 C 0.96808 0.49222 0.88853 0.0
C2940 C 0.97187 0.48272 0.87512 0.0
C2941 C 0.98875 0.47825 0.8758 0.0
C2942 C 1.0018 0.4834 0.88952 0.0
C2943 C 0.95827 0.47717 0.86035 0.0
C2944 C 0.94874 0.45633 0.85448 0.0
C2945 C 0.95499 0.49218 0.85188 0.0
C2946 C 0.96525 0.51461 0.85712 0.0
C2947 C 0.98776 0.52696 0.85871 0.0
C2948 C 0.99728 0.548 0.86391 0.0
C2949 C 0.98446 0.55692 0.86743 0.0
C2950 C 0.96209 0.54484 0.86569 0.0
C2951 C 0.95249 0.52378 0.8605 0.0
H2952 H 0.99185 0.57321 0.87146 0.0
H2953 H 0.90081 0.36963 0.81963 0.0
H2954 H 0.53806 0.44538 0.77665 0.0
H2955 H 0.52347 0.44954 0.80215 0.0
H2956 H 0.58754 0.4829 0.8225 0.0
H2957 H 0.60216 0.47808 0.79726 0.0
H2958 H 0.55974 0.45643 0.84423 0.0
H2959 H 0.5626 0.5095 0.80856 0.0
H2960 H 0.55531 0.52302 0.78349 0.0
H2961 H 0.48726 0.48486 0.79144 0.0
H2962 H 0.49414 0.47088 0.81645 0.0
H2963 H 0.53795 0.50734 0.90963 0.0
H2964 H 0.55175 0.49841 0.88566 0.0
H2965 H 0.48762 0.46542 0.86535 0.0
H2966 H 0.47378 0.4743 0.88923 0.0
H2967 H 0.51533 0.49111 0.84375 0.0
H2968 H 0.51273 0.4386 0.88 0.0
H2969 H 0.52042 0.42555 0.90515 0.0
H2970 H 0.58833 0.46333 0.89643 0.0
H2971 H 0.58105 0.47676 0.8713 0.0
C2972 C 0.54903 0.45336 0.7866 0.0
C2973 C 0.57133 0.46156 0.78481 0.0
C2974 C 0.54068 0.4559 0.80115 0.0
C2975 C 0.55443 0.46682 0.8142 0.0
C2976 C 0.57661 0.47451 0.8126 0.0
C2977 C 0.58497 0.47193 0.79808 0.0
C2978 C 0.54581 0.47071 0.82937 0.0
C2979 C 0.55022 0.46421 0.84415 0.0
C2980 C 0.53306 0.48054 0.82928 0.0
C2981 C 0.52889 0.48898 0.81428 0.0
C2982 C 0.54608 0.50387 0.80489 0.0
C2983 C 0.54202 0.51163 0.79071 0.0
C2984 C 0.52084 0.50476 0.78585 0.0
C2985 C 0.50366 0.49014 0.7952 0.0
C2986 C 0.50763 0.48231 0.80939 0.0
C2987 C 0.52674 0.4979 0.90017 0.0
C2988 C 0.50478 0.49164 0.90132 0.0
C2989 C 0.53465 0.4928 0.88646 0.0
C2990 C 0.52071 0.48114 0.87369 0.0
C2991 C 0.49872 0.47451 0.87498 0.0
C2992 C 0.49083 0.47966 0.88864 0.0
C2993 C 0.52912 0.47672 0.85864 0.0
C2994 C 0.52475 0.48321 0.84386 0.0
C2995 C 0.54193 0.46695 0.85876 0.0
C2996 C 0.54634 0.45884 0.87384 0.0
C2997 C 0.52931 0.44424 0.88351 0.0
C2998 C 0.53359 0.43675 0.89775 0.0
C2999 C 0.55485 0.44367 0.90242 0.0
C3000 C 0.57187 0.45802 0.89282 0.0
C3001 C 0.56767 0.46554 0.87856 0.0
H3002 H 0.55814 0.43787 0.91345 0.0
H3003 H 0.51773 0.51079 0.77487 0.0
H3004 H 0.58007 0.12454 0.79024 0.0
H3005 H 0.57436 0.1081 0.81693 0.0
H3006 H 0.50759 0.06588 0.80487 0.0
H3007 H 0.51319 0.08205 0.77833 0.0
H3008 H 0.51098 0.08272 0.83409 0.0
H3009 H 0.54522 0.04943 0.80576 0.0
H3010 H 0.57433 0.04902 0.79027 0.0
H3011 H 0.61893 0.08159 0.82899 0.0
H3012 H 0.59013 0.08245 0.84462 0.0
H3013 H 0.47426 0.00075 0.89079 0.0
H3014 H 0.48598 0.02264 0.8667 0.0
H3015 H 0.55008 0.05882 0.88662 0.0
H3016 H 0.53857 0.03638 0.9107 0.0
H3017 H 0.55163 0.04939 0.85537 0.0
H3018 H 0.51668 0.07985 0.88478 0.0
H3019 H 0.48756 0.08012 0.90036 0.0
H3020 H 0.44457 0.05338 0.85987 0.0
H3021 H 0.47334 0.05271 0.8441 0.0
C3022 C 0.56425 0.11159 0.79322 0.0
C3023 C 0.54706 0.10479 0.78216 0.0
C3024 C 0.56098 0.10222 0.80851 0.0
C3025 C 0.54049 0.08573 0.81299 0.0
C3026 C 0.52348 0.0787 0.80182 0.0
C3027 C 0.52672 0.08802 0.78662 0.0
C3028 C 0.5364 0.07588 0.82933 0.0
C3029 C 0.51978 0.07529 0.83867 0.0
C3030 C 0.54831 0.06679 0.83564 0.0
C3031 C 0.56559 0.06622 0.82627 0.0
C3032 C 0.56128 0.05666 0.81091 0.0
C3033 C 0.57771 0.05632 0.80212 0.0
C3034 C 0.59848 0.06533 0.80862 0.0
C3035 C 0.60285 0.07465 0.82395 0.0
C3036 C 0.58648 0.07506 0.83279 0.0
C3037 C 0.4909 0.01329 0.89008 0.0
C3038 C 0.50547 0.01669 0.90272 0.0
C3039 C 0.49754 0.02598 0.87631 0.0
C3040 C 0.51889 0.04259 0.87484 0.0
C3041 C 0.53351 0.04616 0.88746 0.0
C3042 C 0.52685 0.03343 0.9013 0.0
C3043 C 0.52583 0.05576 0.85992 0.0
C3044 C 0.54299 0.05702 0.85088 0.0
C3045 C 0.51446 0.06555 0.85388 0.0
C3046 C 0.49714 0.06609 0.86329 0.0
C3047 C 0.50098 0.0739 0.87923 0.0
C3048 C 0.48454 0.07415 0.88809 0.0
C3049 C 0.46422 0.06672 0.88112 0.0
C3050 C 0.46032 0.05911 0.86525 0.0
C3051 C 0.47669 0.05883 0.85634 0.0
H3052 H 0.45149 0.06685 0.88801 0.0
H3053 H 0.61118 0.06505 0.80179 0.0
H3054 H 0.14494 0.24755 0.58216 0.0
H3055 H 0.15818 0.26496 0.55622 0.0
H3056 H 0.09318 0.23431 0.53761 0.0
H3057 H 0.07989 0.21605 0.56328 0.0
H3058 H 0.11956 0.23524 0.51482 0.0
H3059 H 0.11874 0.28612 0.55105 0.0
H3060 H 0.12703 0.30721 0.57609 0.0
H3061 H 0.19472 0.33565 0.56663 0.0
H3062 H 0.18683 0.31449 0.54163 0.0
H3063 H 0.14087 0.30668 0.44909 0.0
H3064 H 0.12713 0.28519 0.47345 0.0
H3065 H 0.19171 0.31382 0.49273 0.0
H3066 H 0.20553 0.3353 0.46848 0.0
H3067 H 0.16484 0.3135 0.51489 0.0
H3068 H 0.16481 0.26229 0.47793 0.0
H3069 H 0.15549 0.24207 0.45239 0.0
H3070 H 0.08818 0.21502 0.46275 0.0
H3071 H 0.09709 0.23528 0.48828 0.0
C3072 C 0.13345 0.2442 0.5725 0.0
C3073 C 0.11128 0.23049 0.57495 0.0
C3074 C 0.14105 0.25437 0.55768 0.0
C3075 C 0.12666 0.25129 0.54499 0.0
C3076 C 0.10462 0.23709 0.5472 0.0
C3077 C 0.09702 0.22682 0.56199 0.0
C3078 C 0.13452 0.26339 0.52964 0.0
C3079 C 0.12928 0.25237 0.51484 0.0
C3080 C 0.1474 0.28575 0.52957 0.0
C3081 C 0.1522 0.29856 0.54455 0.0
C3082 C 0.1354 0.29676 0.55437 0.0
C3083 C 0.14002 0.30874 0.56855 0.0
C3084 C 0.16139 0.32272 0.57297 0.0
C3085 C 0.17818 0.32479 0.5632 0.0
C3086 C 0.17364 0.31281 0.54902 0.0
C3087 C 0.15219 0.3082 0.45842 0.0
C3088 C 0.17432 0.32284 0.45683 0.0
C3089 C 0.1443 0.2959 0.47237 0.0
C3090 C 0.15839 0.29778 0.48495 0.0
C3091 C 0.18049 0.31214 0.48326 0.0
C3092 C 0.18837 0.32448 0.46938 0.0
C3093 C 0.15015 0.28536 0.5001 0.0
C3094 C 0.15522 0.29636 0.51487 0.0
C3095 C 0.13701 0.26303 0.5001 0.0
C3096 C 0.13162 0.25043 0.48496 0.0
C3097 C 0.14801 0.2521 0.47473 0.0
C3098 C 0.14281 0.24063 0.46026 0.0
C3099 C 0.12125 0.2273 0.45594 0.0
C3100 C 0.10486 0.22536 0.46612 0.0
C3101 C 0.10999 0.2368 0.4806 0.0
H3102 H 0.11725 0.21845 0.44473 0.0
H3103 H 0.16494 0.33199 0.58395 0.0
H3104 H 0.76353 0.90243 0.58165 0.0
H3105 H 0.74777 0.90318 0.55572 0.0
H3106 H 0.78225 0.87608 0.53254 0.0
H3107 H 0.79907 0.87636 0.55832 0.0
H3108 H 0.77928 0.90371 0.51269 0.0
H3109 H 0.73091 0.84471 0.54546 0.0
H3110 H 0.71031 0.82731 0.56996 0.0
H3111 H 0.67619 0.86154 0.56594 0.0
H3112 H 0.69683 0.87938 0.54152 0.0
H3113 H 0.70706 0.8469 0.4482 0.0
H3114 H 0.73115 0.85992 0.47153 0.0
H3115 H 0.69454 0.8869 0.49125 0.0
H3116 H 0.67039 0.87404 0.46785 0.0
H3117 H 0.69939 0.86228 0.51265 0.0
H3118 H 0.74779 0.9207 0.47892 0.0
H3119 H 0.76826 0.93686 0.45406 0.0
H3120 H 0.80056 0.90101 0.45875 0.0
H3121 H 0.78071 0.88505 0.48388 0.0
C3122 C 0.7683 0.89719 0.571 0.0
C3123 C 0.78238 0.88905 0.57215 0.0
C3124 C 0.75909 0.89745 0.55618 0.0
C3125 C 0.76346 0.88925 0.54226 0.0
C3126 C 0.77852 0.88235 0.54315 0.0
C3127 C 0.78791 0.88228 0.55794 0.0
C3128 C 0.7509 0.88607 0.5272 0.0
C3129 C 0.76182 0.89459 0.51266 0.0
C3130 C 0.7281 0.87434 0.52715 0.0
C3131 C 0.71558 0.86355 0.54178 0.0
C3132 C 0.71913 0.84864 0.54987 0.0
C3133 C 0.70743 0.83869 0.56373 0.0
C3134 C 0.69199 0.84336 0.56953 0.0
C3135 C 0.68818 0.85796 0.56145 0.0
C3136 C 0.69987 0.86799 0.5476 0.0
C3137 C 0.70436 0.85598 0.45732 0.0
C3138 C 0.68665 0.85925 0.45623 0.0
C3139 C 0.71822 0.86348 0.47065 0.0
C3140 C 0.71474 0.87451 0.48309 0.0
C3141 C 0.69749 0.87838 0.48179 0.0
C3142 C 0.68361 0.87087 0.46848 0.0
C3143 C 0.7277 0.88006 0.49816 0.0
C3144 C 0.71683 0.87176 0.5127 0.0
C3145 C 0.75048 0.8918 0.49814 0.0
C3146 C 0.76271 0.90162 0.48322 0.0
C3147 C 0.75926 0.91627 0.47464 0.0
C3148 C 0.77078 0.92542 0.46053 0.0
C3149 C 0.78554 0.91982 0.45475 0.0
C3150 C 0.78909 0.9053 0.46322 0.0
C3151 C 0.77785 0.89633 0.47747 0.0
H3152 H 0.79427 0.92678 0.44374 0.0
H3153 H 0.68294 0.83563 0.58027 0.0
H3154 H 0.15495 0.8925 0.58181 0.0
H3155 H 0.16251 0.88154 0.55591 0.0
H3156 H 0.10192 0.87134 0.53697 0.0
H3157 H 0.09428 0.88247 0.56291 0.0
H3158 H 0.11132 0.84054 0.52659 0.0
H3159 H 0.14612 0.9161 0.52847 0.0
H3160 H 0.16895 0.95152 0.54041 0.0
H3161 H 0.22354 0.94224 0.53936 0.0
H3162 H 0.20094 0.9066 0.52765 0.0
H3163 H 0.14304 0.83779 0.44531 0.0
H3164 H 0.13017 0.84707 0.46957 0.0
H3165 H 0.19105 0.86652 0.49319 0.0
H3166 H 0.20446 0.8586 0.46874 0.0
H3167 H 0.17882 0.89349 0.50003 0.0
H3168 H 0.14335 0.81686 0.5 0.0
H3169 H 0.12048 0.78138 0.48811 0.0
H3170 H 0.06728 0.79275 0.48544 0.0
H3171 H 0.08992 0.82839 0.49717 0.0
C3172 C 0.14316 0.88782 0.57217 0.0
C3173 C 0.12414 0.88864 0.57436 0.0
C3174 C 0.14748 0.88152 0.55738 0.0
C3175 C 0.13296 0.876 0.54441 0.0
C3176 C 0.11339 0.87561 0.5468 0.0
C3177 C 0.10902 0.88191 0.56165 0.0
C3178 C 0.13893 0.87188 0.52817 0.0
C3179 C 0.12592 0.8522 0.52066 0.0
C3180 C 0.15806 0.88704 0.52048 0.0
C3181 C 0.17178 0.9086 0.5273 0.0
C3182 C 0.16296 0.92156 0.53088 0.0
C3183 C 0.17586 0.94168 0.5376 0.0
C3184 C 0.19767 0.94911 0.54068 0.0
C3185 C 0.20663 0.93645 0.53699 0.0
C3186 C 0.19379 0.91629 0.5303 0.0
C3187 C 0.15382 0.84435 0.45557 0.0
C3188 C 0.17478 0.84728 0.45504 0.0
C3189 C 0.14632 0.84939 0.46954 0.0
C3190 C 0.15948 0.85714 0.48338 0.0
C3191 C 0.18051 0.86045 0.48274 0.0
C3192 C 0.18809 0.85566 0.46876 0.0
C3193 C 0.15158 0.86187 0.49858 0.0
C3194 C 0.16417 0.88179 0.50588 0.0
C3195 C 0.1321 0.84691 0.50606 0.0
C3196 C 0.11837 0.82534 0.49932 0.0
C3197 C 0.1268 0.81182 0.49681 0.0
C3198 C 0.11388 0.79168 0.49011 0.0
C3199 C 0.09246 0.78484 0.48598 0.0
C3200 C 0.08388 0.79808 0.48863 0.0
C3201 C 0.09674 0.81823 0.49532 0.0
H3202 H 0.08249 0.76926 0.48077 0.0
H3203 H 0.20763 0.96469 0.54589 0.0
H3204 H 0.6111 0.81576 0.10919 0.0
H3205 H 0.6258 0.8263 0.13646 0.0
H3206 H 0.57009 0.77148 0.15572 0.0
H3207 H 0.55541 0.76071 0.12839 0.0
H3208 H 0.61507 0.83577 0.16489 0.0
H3209 H 0.58686 0.75028 0.1849 0.0
H3210 H 0.57589 0.71539 0.17271 0.0
H3211 H 0.61494 0.74565 0.13128 0.0
H3212 H 0.62638 0.78068 0.14333 0.0
H3213 H 0.64657 0.83894 0.24705 0.0
H3214 H 0.62531 0.82979 0.22217 0.0
H3215 H 0.6669 0.80977 0.20051 0.0
H3216 H 0.68746 0.81774 0.22558 0.0
H3217 H 0.62723 0.78275 0.19314 0.0
H3218 H 0.67106 0.85872 0.19224 0.0
H3219 H 0.68544 0.89498 0.20285 0.0
H3220 H 0.62163 0.88633 0.20349 0.0
H3221 H 0.60684 0.84991 0.19307 0.0
C3222 C 0.60172 0.80623 0.11927 0.0
C3223 C 0.58221 0.78729 0.11665 0.0
C3224 C 0.61016 0.81226 0.13485 0.0
C3225 C 0.59923 0.79948 0.1481 0.0
C3226 C 0.57899 0.78137 0.14564 0.0
C3227 C 0.57063 0.77523 0.13004 0.0
C3228 C 0.60999 0.80408 0.16413 0.0
C3229 C 0.61759 0.82413 0.17114 0.0
C3230 C 0.61365 0.78905 0.17215 0.0
C3231 C 0.60726 0.76807 0.16494 0.0
C3232 C 0.59316 0.74946 0.17322 0.0
C3233 C 0.58686 0.72967 0.16634 0.0
C3234 C 0.59465 0.7283 0.1512 0.0
C3235 C 0.60886 0.74672 0.14297 0.0
C3236 C 0.61525 0.76655 0.14982 0.0
C3237 C 0.65103 0.83232 0.23707 0.0
C3238 C 0.66882 0.82917 0.23833 0.0
C3239 C 0.63899 0.82733 0.22278 0.0
C3240 C 0.64466 0.81935 0.20937 0.0
C3241 C 0.66223 0.81596 0.21066 0.0
C3242 C 0.67414 0.82077 0.22497 0.0
C3243 C 0.6324 0.81449 0.19395 0.0
C3244 C 0.62449 0.79433 0.18704 0.0
C3245 C 0.62896 0.82962 0.18585 0.0
C3246 C 0.63783 0.85153 0.19204 0.0
C3247 C 0.66008 0.86451 0.19476 0.0
C3248 C 0.66831 0.88509 0.20071 0.0
C3249 C 0.65445 0.89293 0.20388 0.0
C3250 C 0.63234 0.88023 0.20106 0.0
C3251 C 0.62403 0.85962 0.19511 0.0
H3252 H 0.66085 0.90887 0.2085 0.0
H3253 H 0.58972 0.71297 0.14588 0.0
H3254 H 0.20519 0.788 0.10756 0.0
H3255 H 0.18919 0.7898 0.13317 0.0
H3256 H 0.25122 0.81597 0.15654 0.0
H3257 H 0.26727 0.81394 0.13103 0.0
H3258 H 0.21808 0.78548 0.17531 0.0
H3259 H 0.23337 0.84809 0.14558 0.0
H3260 H 0.23176 0.86776 0.12199 0.0
H3261 H 0.16278 0.83563 0.12516 0.0
H3262 H 0.16397 0.81553 0.14865 0.0
H3263 H 0.20025 0.8343 0.24417 0.0
H3264 H 0.21341 0.82583 0.21968 0.0
H3265 H 0.15085 0.80118 0.1975 0.0
H3266 H 0.13731 0.8089 0.22208 0.0
H3267 H 0.18311 0.82936 0.17808 0.0
H3268 H 0.16705 0.76774 0.20805 0.0
H3269 H 0.16753 0.74687 0.23121 0.0
H3270 H 0.23624 0.77566 0.22755 0.0
H3271 H 0.23621 0.79693 0.20447 0.0
C3272 C 0.21538 0.79393 0.11819 0.0
C3273 C 0.23754 0.80096 0.11722 0.0
C3274 C 0.20624 0.79505 0.1328 0.0
C3275 C 0.21904 0.80318 0.14676 0.0
C3276 C 0.24104 0.80967 0.14594 0.0
C3277 C 0.25022 0.80868 0.13131 0.0
C3278 C 0.20968 0.80568 0.16205 0.0
C3279 C 0.21065 0.79527 0.17599 0.0
C3280 C 0.19949 0.81801 0.16283 0.0
C3281 C 0.19875 0.83015 0.14876 0.0
C3282 C 0.21785 0.8451 0.14117 0.0
C3283 C 0.21701 0.85634 0.12783 0.0
C3284 C 0.19717 0.85291 0.12205 0.0
C3285 C 0.17813 0.83825 0.12963 0.0
C3286 C 0.17888 0.82694 0.14296 0.0
C3287 C 0.18912 0.82667 0.23424 0.0
C3288 C 0.1677 0.82243 0.23515 0.0
C3289 C 0.19672 0.82191 0.2202 0.0
C3290 C 0.18311 0.81285 0.20675 0.0
C3291 C 0.16167 0.80827 0.20769 0.0
C3292 C 0.154 0.81284 0.22176 0.0
C3293 C 0.19154 0.80922 0.1914 0.0
C3294 C 0.19045 0.81949 0.17744 0.0
C3295 C 0.20148 0.79667 0.19061 0.0
C3296 C 0.20165 0.78411 0.20462 0.0
C3297 C 0.1823 0.7698 0.21228 0.0
C3298 C 0.18248 0.75784 0.22537 0.0
C3299 C 0.20191 0.75996 0.23087 0.0
C3300 C 0.2212 0.77404 0.22328 0.0
C3301 C 0.22111 0.78604 0.21019 0.0
H3302 H 0.202 0.75066 0.24098 0.0
H3303 H 0.19656 0.86163 0.11173 0.0
H3304 H 0.20189 0.45923 0.13287 0.0
H3305 H 0.19599 0.44079 0.15858 0.0
H3306 H 0.21586 0.39935 0.13721 0.0
H3307 H 0.2216 0.41765 0.11136 0.0
H3308 H 0.17783 0.37753 0.15359 0.0
H3309 H 0.24812 0.43665 0.16408 0.0
H3310 H 0.27587 0.47438 0.1658 0.0
H3311 H 0.23802 0.48494 0.20068 0.0
H3312 H 0.20988 0.4473 0.199 0.0
H3313 H 0.17548 0.32474 0.22517 0.0
H3314 H 0.18836 0.34641 0.20091 0.0
H3315 H 0.17456 0.39219 0.22249 0.0
H3316 H 0.16205 0.37069 0.24699 0.0
H3317 H 0.21069 0.41208 0.20592 0.0
H3318 H 0.13979 0.3544 0.19467 0.0
H3319 H 0.11105 0.31702 0.19294 0.0
H3320 H 0.14867 0.30426 0.15933 0.0
H3321 H 0.17778 0.34153 0.16104 0.0
C3322 C 0.20512 0.44626 0.13366 0.0
C3323 C 0.21217 0.43989 0.12004 0.0
C3324 C 0.20188 0.43582 0.14841 0.0
C3325 C 0.20558 0.41873 0.14989 0.0
C3326 C 0.21294 0.41252 0.13638 0.0
C3327 C 0.21636 0.42309 0.12164 0.0
C3328 C 0.20066 0.40667 0.16527 0.0
C3329 C 0.18531 0.38501 0.16498 0.0
C3330 C 0.20988 0.41654 0.18024 0.0
C3331 C 0.22679 0.43918 0.18129 0.0
C3332 C 0.24562 0.44704 0.17201 0.0
C3333 C 0.26144 0.46841 0.173 0.0
C3334 C 0.25868 0.48206 0.18331 0.0
C3335 C 0.24012 0.47435 0.19268 0.0
C3336 C 0.22424 0.453 0.19173 0.0
C3337 C 0.17523 0.33945 0.22476 0.0
C3338 C 0.16747 0.34585 0.23793 0.0
C3339 C 0.18258 0.35183 0.21086 0.0
C3340 C 0.18199 0.37074 0.20965 0.0
C3341 C 0.17509 0.37763 0.22305 0.0
C3342 C 0.16795 0.36533 0.23707 0.0
C3343 C 0.18787 0.38289 0.19424 0.0
C3344 C 0.20331 0.40456 0.19451 0.0
C3345 C 0.17858 0.37309 0.17923 0.0
C3346 C 0.16105 0.3507 0.17811 0.0
C3347 C 0.142 0.34359 0.187 0.0
C3348 C 0.12563 0.32243 0.18601 0.0
C3349 C 0.12805 0.30826 0.17606 0.0
C3350 C 0.14683 0.31525 0.16705 0.0
C3351 C 0.16326 0.33639 0.16802 0.0
H3352 H 0.11536 0.29189 0.17531 0.0
H3353 H 0.27095 0.4986 0.18406 0.0
H3354 H 0.80687 0.5769 0.91618 0.0
H3355 H 0.81963 0.59364 0.88994 0.0
H3356 H 0.75417 0.56363 0.87234 0.0
H3357 H 0.74136 0.54604 0.89827 0.0
H3358 H 0.77921 0.56342 0.84923 0.0
H3359 H 0.78154 0.61612 0.88517 0.0
H3360 H 0.79146 0.63804 0.90987 0.0
H3361 H 0.85851 0.66447 0.89879 0.0
H3362 H 0.84899 0.64248 0.87412 0.0
H3363 H 0.79972 0.63417 0.78269 0.0
H3364 H 0.78655 0.61228 0.80696 0.0
H3365 H 0.85155 0.64126 0.8255 0.0
H3366 H 0.86465 0.66327 0.80145 0.0
H3367 H 0.82608 0.64144 0.8479 0.0
H3368 H 0.82276 0.5883 0.81115 0.0
H3369 H 0.81167 0.56677 0.78621 0.0
H3370 H 0.74515 0.54186 0.79839 0.0
H3371 H 0.75585 0.56336 0.82334 0.0
C3372 C 0.79517 0.57356 0.90668 0.0
C3373 C 0.77302 0.56024 0.9095 0.0
C3374 C 0.8025 0.58335 0.89168 0.0
C3375 C 0.78786 0.58027 0.87917 0.0
C3376 C 0.76582 0.56643 0.88177 0.0
C3377 C 0.75849 0.55655 0.89672 0.0
C3378 C 0.79542 0.59192 0.86358 0.0
C3379 C 0.7893 0.5805 0.84894 0.0
C3380 C 0.80877 0.61421 0.86309 0.0
C3381 C 0.81455 0.62749 0.87789 0.0
C3382 C 0.7984 0.62649 0.88806 0.0
C3383 C 0.80396 0.63894 0.90205 0.0
C3384 C 0.82561 0.65259 0.90592 0.0
C3385 C 0.84175 0.65386 0.89579 0.0
C3386 C 0.83628 0.64142 0.8818 0.0
C3387 C 0.81122 0.63559 0.79183 0.0
C3388 C 0.83322 0.65057 0.79017 0.0
C3389 C 0.80368 0.62305 0.80572 0.0
C3390 C 0.81804 0.625 0.81813 0.0
C3391 C 0.84009 0.6395 0.81621 0.0
C3392 C 0.84757 0.6521 0.80243 0.0
C3393 C 0.81017 0.61295 0.83353 0.0
C3394 C 0.81612 0.62433 0.84816 0.0
C3395 C 0.79655 0.59069 0.83396 0.0
C3396 C 0.79011 0.57758 0.81905 0.0
C3397 C 0.80577 0.57832 0.80846 0.0
C3398 C 0.79955 0.5661 0.79433 0.0
C3399 C 0.77772 0.553 0.79069 0.0
C3400 C 0.76206 0.55202 0.80121 0.0
C3401 C 0.76819 0.56418 0.81537 0.0
H3402 H 0.77293 0.54358 0.77973 0.0
H3403 H 0.82987 0.66222 0.91675 0.0
H3404 H 0.42016 0.18705 0.91685 0.0
H3405 H 0.40003 0.17986 0.89156 0.0
H3406 H 0.44897 0.23983 0.8728 0.0
H3407 H 0.46921 0.24718 0.89822 0.0
H3408 H 0.40855 0.23134 0.86436 0.0
H3409 H 0.44879 0.19521 0.86233 0.0
H3410 H 0.46167 0.17179 0.87259 0.0
H3411 H 0.39688 0.11938 0.87238 0.0
H3412 H 0.38356 0.14257 0.86235 0.0
H3413 H 0.37266 0.20354 0.78287 0.0
H3414 H 0.3956 0.21393 0.80702 0.0
H3415 H 0.34984 0.15589 0.83025 0.0
H3416 H 0.32708 0.14525 0.80606 0.0
H3417 H 0.39111 0.16495 0.83537 0.0
H3418 H 0.35077 0.20139 0.83891 0.0
H3419 H 0.3376 0.22486 0.8293 0.0
H3420 H 0.40261 0.27663 0.82678 0.0
H3421 H 0.41618 0.25336 0.83618 0.0
C3422 C 0.42659 0.19875 0.90736 0.0
C3423 C 0.44639 0.21756 0.90942 0.0
C3424 C 0.41509 0.19462 0.89292 0.0
C3425 C 0.42324 0.20911 0.88017 0.0
C3426 C 0.44246 0.22839 0.88246 0.0
C3427 C 0.45397 0.23259 0.89698 0.0
C3428 C 0.41199 0.20367 0.86432 0.0
C3429 C 0.40504 0.21701 0.85788 0.0
C3430 C 0.40715 0.18479 0.85599 0.0
C3431 C 0.41516 0.17069 0.86171 0.0
C3432 C 0.43727 0.17872 0.86456 0.0
C3433 C 0.44465 0.16548 0.87033 0.0
C3434 C 0.43009 0.14412 0.87317 0.0
C3435 C 0.40813 0.13593 0.87018 0.0
C3436 C 0.40066 0.14912 0.86444 0.0
C3437 C 0.36763 0.19289 0.79305 0.0
C3438 C 0.348 0.17363 0.79261 0.0
C3439 C 0.38066 0.19891 0.80688 0.0
C3440 C 0.37429 0.18579 0.82049 0.0
C3441 C 0.35502 0.16629 0.8199 0.0
C3442 C 0.34196 0.1603 0.80612 0.0
C3443 C 0.38742 0.19247 0.83552 0.0
C3444 C 0.39477 0.17937 0.84178 0.0
C3445 C 0.39263 0.21155 0.84367 0.0
C3446 C 0.3845 0.22558 0.83807 0.0
C3447 C 0.36226 0.21773 0.83618 0.0
C3448 C 0.35473 0.231 0.83079 0.0
C3449 C 0.36927 0.25221 0.82738 0.0
C3450 C 0.39137 0.26019 0.8294 0.0
C3451 C 0.399 0.24697 0.83476 0.0
H3452 H 0.3634 0.26246 0.82322 0.0
H3453 H 0.43583 0.1339 0.87767 0.0
H3454 H 0.76257 0.21499 0.9001 0.0
H3455 H 0.76879 0.20343 0.87378 0.0
H3456 H 0.83562 0.22831 0.88632 0.0
H3457 H 0.82947 0.23917 0.91269 0.0
H3458 H 0.82874 0.24276 0.85626 0.0
H3459 H 0.80398 0.17741 0.88597 0.0
H3460 H 0.77775 0.14716 0.9021 0.0
H3461 H 0.73098 0.1288 0.86394 0.0
H3462 H 0.75686 0.15914 0.84767 0.0
H3463 H 0.87588 0.20534 0.80167 0.0
H3464 H 0.86101 0.21299 0.82547 0.0
H3465 H 0.79726 0.17846 0.80466 0.0
H3466 H 0.81207 0.17026 0.78081 0.0
H3467 H 0.79735 0.16878 0.83662 0.0
H3468 H 0.82192 0.23079 0.80559 0.0
H3469 H 0.84696 0.26087 0.7888 0.0
H3470 H 0.89189 0.28604 0.82832 0.0
H3471 H 0.86727 0.2559 0.84528 0.0
C3472 C 0.77848 0.21761 0.89738 0.0
C3473 C 0.79558 0.22829 0.90846 0.0
C3474 C 0.78203 0.2111 0.8823 0.0
C3475 C 0.80272 0.21522 0.87805 0.0
C3476 C 0.81959 0.22521 0.88928 0.0
C3477 C 0.81603 0.23149 0.90434 0.0
C3478 C 0.80729 0.20996 0.86175 0.0
C3479 C 0.82198 0.22659 0.85199 0.0
C3480 C 0.79778 0.18891 0.85592 0.0
C3481 C 0.78225 0.1707 0.8657 0.0
C3482 C 0.78803 0.16705 0.88109 0.0
C3483 C 0.77325 0.14986 0.89024 0.0
C3484 C 0.75268 0.13611 0.88407 0.0
C3485 C 0.74689 0.13949 0.86872 0.0
C3486 C 0.76162 0.15667 0.85953 0.0
C3487 C 0.85867 0.19922 0.80217 0.0
C3488 C 0.84517 0.18712 0.78935 0.0
C3489 C 0.8502 0.20377 0.81574 0.0
C3490 C 0.82803 0.19647 0.81681 0.0
C3491 C 0.81442 0.1843 0.80408 0.0
C3492 C 0.82293 0.17978 0.79042 0.0
C3493 C 0.81937 0.20158 0.83136 0.0
C3494 C 0.80389 0.18498 0.84076 0.0
C3495 C 0.82791 0.22271 0.83679 0.0
C3496 C 0.84279 0.24098 0.82668 0.0
C3497 C 0.83721 0.24265 0.81067 0.0
C3498 C 0.85132 0.25973 0.80113 0.0
C3499 C 0.87102 0.27534 0.80749 0.0
C3500 C 0.87663 0.27392 0.82341 0.0
C3501 C 0.86258 0.25685 0.833 0.0
H3502 H 0.88193 0.28856 0.80008 0.0
H3503 H 0.74126 0.12281 0.89117 0.0
H3504 H 0.27618 0.10394 0.4472 0.0
H3505 H 0.28883 0.11328 0.47493 0.0
H3506 H 0.25123 0.14409 0.48051 0.0
H3507 H 0.23822 0.13456 0.45255 0.0
H3508 H 0.29213 0.16743 0.49373 0.0
H3509 H 0.23335 0.09705 0.49734 0.0
H3510 H 0.21112 0.0594 0.48984 0.0
H3511 H 0.2637 0.0492 0.50121 0.0
H3512 H 0.28638 0.08688 0.50854 0.0
H3513 H 0.31696 0.17531 0.57867 0.0
H3514 H 0.29635 0.16687 0.55335 0.0
H3515 H 0.32668 0.13198 0.53686 0.0
H3516 H 0.34689 0.13995 0.56215 0.0
H3517 H 0.2837 0.11065 0.53092 0.0
H3518 H 0.34348 0.18196 0.52382 0.0
H3519 H 0.36591 0.21975 0.53093 0.0
H3520 H 0.31089 0.22799 0.52621 0.0
H3521 H 0.28806 0.19016 0.51928 0.0
C3522 C 0.27038 0.11251 0.45434 0.0
C3523 C 0.25588 0.11819 0.44774 0.0
C3524 C 0.27769 0.1179 0.47019 0.0
C3525 C 0.27065 0.12902 0.47989 0.0
C3526 C 0.25674 0.13537 0.47325 0.0
C3527 C 0.24937 0.12997 0.45728 0.0
C3528 C 0.278 0.13381 0.49694 0.0
C3529 C 0.2899 0.155 0.502 0.0
C3530 C 0.27526 0.11759 0.50767 0.0
C3531 C 0.26162 0.09484 0.5034 0.0
C3532 C 0.24023 0.08682 0.49814 0.0
C3533 C 0.22754 0.06546 0.49393 0.0
C3534 C 0.236 0.05192 0.49502 0.0
C3535 C 0.25716 0.05971 0.50036 0.0
C3536 C 0.26994 0.08106 0.50457 0.0
C3537 C 0.31907 0.16568 0.56969 0.0
C3538 C 0.33366 0.1584 0.57236 0.0
C3539 C 0.30741 0.16101 0.5552 0.0
C3540 C 0.31012 0.14895 0.54316 0.0
C3541 C 0.32436 0.14135 0.54596 0.0
C3542 C 0.33604 0.14606 0.56037 0.0
C3543 C 0.29841 0.14428 0.52752 0.0
C3544 C 0.28562 0.12306 0.52276 0.0
C3545 C 0.3003 0.16047 0.51711 0.0
C3546 C 0.31402 0.18319 0.52123 0.0
C3547 C 0.33613 0.1918 0.52444 0.0
C3548 C 0.34892 0.21322 0.5284 0.0
C3549 C 0.33981 0.22625 0.52907 0.0
C3550 C 0.31791 0.21788 0.52573 0.0
C3551 C 0.30504 0.19645 0.52177 0.0
H3552 H 0.34974 0.24283 0.53214 0.0
H3553 H 0.22615 0.03539 0.49175 0.0
H3554 H 0.8945 0.10006 0.46289 0.0
H3555 H 0.88021 0.10506 0.48827 0.0
H3556 H 0.88961 0.16489 0.47125 0.0
H3557 H 0.9042 0.1601 0.44597 0.0
H3558 H 0.90334 0.16913 0.50107 0.0
H3559 H 0.83883 0.1192 0.47308 0.0
H3560 H 0.81478 0.08614 0.45838 0.0
H3561 H 0.81366 0.0498 0.49939 0.0
H3562 H 0.83796 0.08267 0.51426 0.0
H3563 H 0.83823 0.18497 0.55728 0.0
H3564 H 0.85257 0.17804 0.53272 0.0
H3565 H 0.84913 0.12301 0.55478 0.0
H3566 H 0.83458 0.12979 0.57942 0.0
H3567 H 0.8328 0.11543 0.52327 0.0
H3568 H 0.89659 0.16593 0.55143 0.0
H3569 H 0.92025 0.19926 0.56595 0.0
H3570 H 0.92207 0.23483 0.52423 0.0
H3571 H 0.89816 0.2017 0.50953 0.0
C3572 C 0.89329 0.11417 0.4645 0.0
C3573 C 0.90045 0.12967 0.45241 0.0
C3574 C 0.88511 0.11701 0.47902 0.0
C3575 C 0.8836 0.13527 0.48166 0.0
C3576 C 0.89065 0.15071 0.46955 0.0
C3577 C 0.89899 0.14795 0.4551 0.0
C3578 C 0.87515 0.13858 0.49715 0.0
C3579 C 0.88778 0.15748 0.50579 0.0
C3580 C 0.8551 0.12317 0.5036 0.0
C3581 C 0.84039 0.1034 0.49472 0.0
C3582 C 0.83358 0.10416 0.47892 0.0
C3583 C 0.81989 0.08545 0.47057 0.0
C3584 C 0.81275 0.06588 0.47793 0.0
C3585 C 0.81923 0.06498 0.49369 0.0
C3586 C 0.83295 0.08364 0.50209 0.0
C3587 C 0.84045 0.17135 0.55689 0.0
C3588 C 0.83527 0.15793 0.5703 0.0
C3589 C 0.84877 0.16748 0.54288 0.0
C3590 C 0.85205 0.15008 0.54195 0.0
C3591 C 0.84676 0.13654 0.55526 0.0
C3592 C 0.8386 0.14052 0.56935 0.0
C3593 C 0.86089 0.14604 0.52701 0.0
C3594 C 0.84836 0.12702 0.51852 0.0
C3595 C 0.88098 0.16137 0.52064 0.0
C3596 C 0.89541 0.18133 0.52943 0.0
C3597 C 0.90189 0.18086 0.5454 0.0
C3598 C 0.91537 0.19972 0.55365 0.0
C3599 C 0.92262 0.21915 0.54603 0.0
C3600 C 0.91643 0.21976 0.53012 0.0
C3601 C 0.90292 0.20095 0.52182 0.0
H3602 H 0.93306 0.23373 0.55244 0.0
H3603 H 0.80214 0.05141 0.47145 0.0
H3604 H 0.91421 0.7941 0.45786 0.0
H3605 H 0.90895 0.77812 0.48467 0.0
H3606 H 0.84162 0.73693 0.47387 0.0
H3607 H 0.84679 0.75222 0.44704 0.0
H3608 H 0.84819 0.75688 0.50366 0.0
H3609 H 0.87552 0.71804 0.4738 0.0
H3610 H 0.90222 0.71477 0.45722 0.0
H3611 H 0.95002 0.74565 0.49435 0.0
H3612 H 0.92365 0.74937 0.51107 0.0
H3613 H 0.80811 0.67417 0.55963 0.0
H3614 H 0.82052 0.69665 0.53583 0.0
H3615 H 0.88524 0.72891 0.55501 0.0
H3616 H 0.87287 0.70611 0.57895 0.0
H3617 H 0.88447 0.71828 0.52306 0.0
H3618 H 0.85815 0.75514 0.55392 0.0
H3619 H 0.83286 0.75984 0.57113 0.0
H3620 H 0.7852 0.73488 0.53339 0.0
H3621 H 0.81023 0.73001 0.51592 0.0
C3622 C 0.89835 0.78141 0.46107 0.0
C3623 C 0.8809 0.77466 0.45024 0.0
C3624 C 0.89535 0.77236 0.47647 0.0
C3625 C 0.87484 0.75639 0.48137 0.0
C3626 C 0.85754 0.74939 0.47048 0.0
C3627 C 0.86054 0.75825 0.45511 0.0
C3628 C 0.87109 0.74699 0.49783 0.0
C3629 C 0.85602 0.74832 0.50784 0.0
C3630 C 0.88189 0.73651 0.50361 0.0
C3631 C 0.8977 0.73422 0.49359 0.0
C3632 C 0.89178 0.72431 0.47836 0.0
C3633 C 0.90684 0.72233 0.46896 0.0
C3634 C 0.92782 0.73006 0.4747 0.0
C3635 C 0.93377 0.73972 0.4899 0.0
C3636 C 0.91877 0.74175 0.49935 0.0
C3637 C 0.82501 0.68603 0.55882 0.0
C3638 C 0.83952 0.68821 0.57117 0.0
C3639 C 0.83206 0.69902 0.54524 0.0
C3640 C 0.85382 0.71459 0.54361 0.0
C3641 C 0.86838 0.71702 0.55598 0.0
C3642 C 0.86126 0.70409 0.56971 0.0
C3643 C 0.86115 0.72772 0.5287 0.0
C3644 C 0.87686 0.72709 0.51898 0.0
C3645 C 0.85117 0.73912 0.52326 0.0
C3646 C 0.83603 0.74208 0.53365 0.0
C3647 C 0.84224 0.75054 0.54932 0.0
C3648 C 0.82797 0.75328 0.55911 0.0
C3649 C 0.8074 0.74757 0.55339 0.0
C3650 C 0.80113 0.73926 0.53781 0.0
C3651 C 0.81538 0.73659 0.52793 0.0
H3652 H 0.79635 0.74963 0.56102 0.0
H3653 H 0.93946 0.72851 0.4674 0.0
loop_
_geom_bond_atom_site_label_1
_geom_bond_atom_site_label_2
_geom_bond_distance
_geom_bond_site_symmetry_2
_ccdc_geom_bond_type
H0 C3 0.929 . S
H1 C6 0.929 . S
H2 C8 0.930 . S
C3 H0 0.929 . S
C3 C4 1.398 . S
C3 C5 1.396 . S
C4 C3 1.398 . S
C4 C8 1.407 . S
C5 C3 1.396 . S
C5 C6 1.394 . S
C6 H1 0.929 . S
C6 C5 1.394 . S
C6 C7 1.382 . S
C7 C6 1.382 . S
C7 C8 1.392 . S
C7 N9 1.420 . S
C8 H2 0.930 . S
C8 C4 1.407 . S
C8 C7 1.392 . S
N9 C7 1.420 . S
N9 C10 1.244 . S
C10 N9 1.244 . S
H11 C14 0.929 . S
H12 C17 0.929 . S
H13 C19 0.930 . S
C14 H11 0.929 . S
C14 C15 1.398 . S
C14 C16 1.396 . S
C15 C14 1.398 . S
C15 C19 1.407 . S
C16 C14 1.396 . S
C16 C17 1.394 . S
C17 H12 0.929 . S
C17 C16 1.394 . S
C17 C18 1.382 . S
C18 C17 1.382 . S
C18 C19 1.392 . S
C18 N20 1.420 . S
C19 H13 0.930 . S
C19 C15 1.407 . S
C19 C18 1.392 . S
N20 C18 1.420 . S
N20 C21 1.244 . S
C21 N20 1.244 . S
H22 C25 0.929 . S
H23 C28 0.929 . S
H24 C30 0.930 . S
C25 H22 0.929 . S
C25 C26 1.398 . S
C25 C27 1.396 . S
C26 C25 1.398 . S
C26 C30 1.407 . S
C27 C25 1.396 . S
C27 C28 1.394 . S
C28 H23 0.929 . S
C28 C27 1.394 . S
C28 C29 1.382 . S
C29 C28 1.382 . S
C29 C30 1.392 . S
C29 N31 1.420 . S
C30 H24 0.930 . S
C30 C26 1.407 . S
C30 C29 1.392 . S
N31 C29 1.420 . S
N31 C32 1.244 . S
C32 N31 1.244 . S
H33 C36 0.929 . S
H34 C39 0.929 . S
H35 C41 0.930 . S
C36 H33 0.929 . S
C36 C37 1.398 . S
C36 C38 1.396 . S
C37 C36 1.398 . S
C37 C41 1.407 . S
C38 C36 1.396 . S
C38 C39 1.394 . S
C39 H34 0.929 . S
C39 C38 1.394 . S
C39 C40 1.382 . S
C40 C39 1.382 . S
C40 C41 1.392 . S
C40 N42 1.420 . S
C41 H35 0.930 . S
C41 C37 1.407 . S
C41 C40 1.392 . S
N42 C40 1.420 . S
N42 C43 1.244 . S
C43 N42 1.244 . S
H44 C47 0.929 . S
H45 C50 0.929 . S
H46 C52 0.930 . S
C47 H44 0.929 . S
C47 C48 1.398 . S
C47 C49 1.396 . S
C48 C47 1.398 . S
C48 C52 1.407 . S
C49 C47 1.396 . S
C49 C50 1.394 . S
C50 H45 0.929 . S
C50 C49 1.394 . S
C50 C51 1.382 . S
C51 C50 1.382 . S
C51 C52 1.392 . S
C51 N53 1.420 . S
C52 H46 0.930 . S
C52 C48 1.407 . S
C52 C51 1.392 . S
N53 C51 1.420 . S
N53 C54 1.244 . S
C54 N53 1.244 . S
H55 C58 0.929 . S
H56 C61 0.929 . S
H57 C63 0.930 . S
C58 H55 0.929 . S
C58 C59 1.398 . S
C58 C60 1.396 . S
C59 C58 1.398 . S
C59 C63 1.407 . S
C60 C58 1.396 . S
C60 C61 1.394 . S
C61 H56 0.929 . S
C61 C60 1.394 . S
C61 C62 1.382 . S
C62 C61 1.382 . S
C62 C63 1.392 . S
C62 N64 1.420 . S
C63 H57 0.930 . S
C63 C59 1.407 . S
C63 C62 1.392 . S
N64 C62 1.420 . S
N64 C65 1.244 . S
C65 N64 1.244 . S
H66 C69 0.929 . S
H67 C72 0.929 . S
H68 C74 0.930 . S
C69 H66 0.929 . S
C69 C70 1.398 . S
C69 C71 1.396 . S
C70 C69 1.398 . S
C70 C74 1.407 . S
C71 C69 1.396 . S
C71 C72 1.394 . S
C72 H67 0.929 . S
C72 C71 1.394 . S
C72 C73 1.382 . S
C73 C72 1.382 . S
C73 C74 1.392 . S
C73 N75 1.420 . S
C74 H68 0.930 . S
C74 C70 1.407 . S
C74 C73 1.392 . S
N75 C73 1.420 . S
N75 C76 1.244 . S
C76 N75 1.244 . S
H77 C80 0.929 . S
H78 C83 0.929 . S
H79 C85 0.930 . S
C80 H77 0.929 . S
C80 C81 1.398 . S
C80 C82 1.396 . S
C81 C80 1.398 . S
C81 C85 1.407 . S
C82 C80 1.396 . S
C82 C83 1.394 . S
C83 H78 0.929 . S
C83 C82 1.394 . S
C83 C84 1.382 . S
C84 C83 1.382 . S
C84 C85 1.392 . S
C84 N86 1.420 . S
C85 H79 0.930 . S
C85 C81 1.407 . S
C85 C84 1.392 . S
N86 C84 1.420 . S
N86 C87 1.244 . S
C87 N86 1.244 . S
H88 C91 0.929 . S
H89 C94 0.929 . S
H90 C96 0.930 . S
C91 H88 0.929 . S
C91 C92 1.398 . S
C91 C93 1.396 . S
C92 C91 1.398 . S
C92 C96 1.407 . S
C93 C91 1.396 . S
C93 C94 1.394 . S
C94 H89 0.929 . S
C94 C93 1.394 . S
C94 C95 1.382 . S
C95 C94 1.382 . S
C95 C96 1.392 . S
C95 N97 1.420 . S
C96 H90 0.930 . S
C96 C92 1.407 . S
C96 C95 1.392 . S
N97 C95 1.420 . S
N97 C98 1.244 . S
C98 N97 1.244 . S
H99 C102 0.929 . S
H100 C105 0.929 . S
H101 C107 0.930 . S
C102 H99 0.929 . S
C102 C103 1.398 . S
C102 C104 1.396 . S
C103 C102 1.398 . S
C103 C107 1.407 . S
C104 C102 1.396 . S
C104 C105 1.394 . S
C105 H100 0.929 . S
C105 C104 1.394 . S
C105 C106 1.382 . S
C106 C105 1.382 . S
C106 C107 1.392 . S
C106 N108 1.420 . S
C107 H101 0.930 . S
C107 C103 1.407 . S
C107 C106 1.392 . S
N108 C106 1.420 . S
N108 C109 1.244 . S
C109 N108 1.244 . S
H110 C113 0.929 . S
H111 C116 0.929 . S
H112 C118 0.930 . S
C113 H110 0.929 . S
C113 C114 1.398 . S
C113 C115 1.396 . S
C114 C113 1.398 . S
C114 C118 1.407 . S
C115 C113 1.396 . S
C115 C116 1.394 . S
C116 H111 0.929 . S
C116 C115 1.394 . S
C116 C117 1.382 . S
C117 C116 1.382 . S
C117 C118 1.392 . S
C117 N119 1.420 . S
C118 H112 0.930 . S
C118 C114 1.407 . S
C118 C117 1.392 . S
N119 C117 1.420 . S
N119 C120 1.244 . S
C120 N119 1.244 . S
H121 C124 0.929 . S
H122 C127 0.929 . S
H123 C129 0.930 . S
C124 H121 0.929 . S
C124 C125 1.398 . S
C124 C126 1.396 . S
C125 C124 1.398 . S
C125 C129 1.407 . S
C126 C124 1.396 . S
C126 C127 1.394 . S
C127 H122 0.929 . S
C127 C126 1.394 . S
C127 C128 1.382 . S
C128 C127 1.382 . S
C128 C129 1.392 . S
C128 N130 1.420 . S
C129 H123 0.930 . S
C129 C125 1.407 . S
C129 C128 1.392 . S
N130 C128 1.420 . S
N130 C131 1.244 . S
C131 N130 1.244 . S
H132 C135 0.929 . S
H133 C138 0.929 . S
H134 C140 0.930 . S
C135 H132 0.929 . S
C135 C136 1.398 . S
C135 C137 1.396 . S
C136 C135 1.398 . S
C136 C140 1.407 . S
C137 C135 1.396 . S
C137 C138 1.394 . S
C138 H133 0.929 . S
C138 C137 1.394 . S
C138 C139 1.382 . S
C139 C138 1.382 . S
C139 C140 1.392 . S
C139 N141 1.420 . S
C140 H134 0.930 . S
C140 C136 1.407 . S
C140 C139 1.392 . S
N141 C139 1.420 . S
N141 C142 1.244 . S
C142 N141 1.244 . S
H143 C146 0.929 . S
H144 C149 0.929 . S
H145 C151 0.930 . S
C146 H143 0.929 . S
C146 C147 1.398 . S
C146 C148 1.396 . S
C147 C146 1.398 . S
C147 C151 1.407 . S
C148 C146 1.396 . S
C148 C149 1.394 . S
C149 H144 0.929 . S
C149 C148 1.394 . S
C149 C150 1.382 . S
C150 C149 1.382 . S
C150 C151 1.392 . S
C150 N152 1.420 . S
C151 H145 0.930 . S
C151 C147 1.407 . S
C151 C150 1.392 . S
N152 C150 1.420 . S
N152 C153 1.244 . S
C153 N152 1.244 . S
H154 C157 0.929 . S
H155 C160 0.929 . S
H156 C162 0.930 . S
C157 H154 0.929 . S
C157 C158 1.398 . S
C157 C159 1.396 . S
C158 C157 1.398 . S
C158 C162 1.407 . S
C159 C157 1.396 . S
C159 C160 1.394 . S
C160 H155 0.929 . S
C160 C159 1.394 . S
C160 C161 1.382 . S
C161 C160 1.382 . S
C161 C162 1.392 . S
C161 N163 1.420 . S
C162 H156 0.930 . S
C162 C158 1.407 . S
C162 C161 1.392 . S
N163 C161 1.420 . S
N163 C164 1.244 . S
C164 N163 1.244 . S
H165 C168 0.929 . S
H166 C171 0.929 . S
H167 C173 0.930 . S
C168 H165 0.929 . S
C168 C169 1.398 . S
C168 C170 1.396 . S
C169 C168 1.398 . S
C169 C173 1.407 . S
C170 C168 1.396 . S
C170 C171 1.394 . S
C171 H166 0.929 . S
C171 C170 1.394 . S
C171 C172 1.382 . S
C172 C171 1.382 . S
C172 C173 1.392 . S
C172 N174 1.420 . S
C173 H167 0.930 . S
C173 C169 1.407 . S
C173 C172 1.392 . S
N174 C172 1.420 . S
N174 C175 1.244 . S
C175 N174 1.244 . S
H176 C179 0.929 . S
H177 C182 0.929 . S
H178 C184 0.930 . S
C179 H176 0.929 . S
C179 C180 1.398 . S
C179 C181 1.396 . S
C180 C179 1.398 . S
C180 C184 1.407 . S
C181 C179 1.396 . S
C181 C182 1.394 . S
C182 H177 0.929 . S
C182 C181 1.394 . S
C182 C183 1.382 . S
C183 C182 1.382 . S
C183 C184 1.392 . S
C183 N185 1.420 . S
C184 H178 0.930 . S
C184 C180 1.407 . S
C184 C183 1.392 . S
N185 C183 1.420 . S
N185 C186 1.244 . S
C186 N185 1.244 . S
H187 C190 0.929 . S
H188 C193 0.929 . S
H189 C195 0.930 . S
C190 H187 0.929 . S
C190 C191 1.398 . S
C190 C192 1.396 . S
C191 C190 1.398 . S
C191 C195 1.407 . S
C192 C190 1.396 . S
C192 C193 1.394 . S
C193 H188 0.929 . S
C193 C192 1.394 . S
C193 C194 1.382 . S
C194 C193 1.382 . S
C194 C195 1.392 . S
C194 N196 1.420 . S
C195 H189 0.930 . S
C195 C191 1.407 . S
C195 C194 1.392 . S
N196 C194 1.420 . S
N196 C197 1.244 . S
C197 N196 1.244 . S
Gd198 N229 2.661 . S
Gd198 N235 2.601 . S
Gd198 O242 2.545 . S
Gd198 O243 2.606 1_545 S
Gd198 O245 2.429 . S
Gd198 O246 2.545 1_545 S
Gd198 O247 2.412 1_545 S
Gd198 O249 2.362 . S
Gd198 O250 2.324 1_545 S
Gd198 C257 2.828 . S
Gd199 N208 2.661 . S
Gd199 N212 2.601 . S
Gd199 O243 2.362 1_556 S
Gd199 O244 2.324 1_565 S
Gd199 O248 2.545 . S
Gd199 O249 2.606 1_566 S
Gd199 O251 2.429 1_556 S
Gd199 O252 2.545 1_565 S
Gd199 O253 2.412 1_565 S
Gd199 C266 2.828 1_565 S
C200 C203 1.417 . S
C200 C205 1.431 . S
C200 C206 1.412 . S
C201 C204 1.437 . S
C201 C205 1.317 . S
C201 H220 0.929 . S
C202 C203 1.426 . S
C202 C204 1.413 . S
C202 N212 1.359 . S
C203 C200 1.417 . S
C203 C202 1.426 . S
C203 N208 1.350 . S
C204 C201 1.437 . S
C204 C202 1.413 . S
C204 C214 1.391 . S
C205 C200 1.431 . S
C205 C201 1.317 . S
C205 H216 0.930 . S
C206 C200 1.412 . S
C206 C207 1.355 . S
C206 H218 0.930 . S
C207 C206 1.355 . S
C207 C209 1.402 . S
C207 H219 0.930 . S
N208 Gd199 2.661 . S
N208 C203 1.350 . S
N208 C209 1.307 . S
C209 C207 1.402 . S
C209 N208 1.307 . S
C209 H210 0.948 . S
H210 C209 0.948 . S
C211 N212 1.334 . S
C211 C213 1.394 . S
C211 H215 0.930 . S
N212 Gd199 2.601 . S
N212 C202 1.359 . S
N212 C211 1.334 . S
C213 C211 1.394 . S
C213 C214 1.359 . S
C213 H225 0.930 . S
C214 C204 1.391 . S
C214 C213 1.359 . S
C214 H226 0.929 . S
H215 C211 0.930 . S
H216 C205 0.930 . S
H217 C234 0.930 . S
H218 C206 0.930 . S
H219 C207 0.930 . S
H220 C201 0.929 . S
H221 C239 0.930 . S
H222 C230 0.930 . S
H223 C231 0.930 . S
H224 C255 0.929 . S
H225 C213 0.930 . S
H226 C214 0.929 . S
H227 C256 0.930 . S
H228 C237 0.930 . S
N229 Gd198 2.661 . S
N229 C233 1.350 . S
N229 C234 1.307 . S
C230 H222 0.930 . S
C230 C231 1.355 . S
C230 C232 1.412 . S
C231 H223 0.930 . S
C231 C230 1.355 . S
C231 C234 1.402 . S
C232 C230 1.412 . S
C232 C233 1.417 . S
C232 C256 1.431 . S
C233 N229 1.350 . S
C233 C232 1.417 . S
C233 C236 1.426 . S
C234 H217 0.930 . S
C234 N229 1.307 . S
C234 C231 1.402 . S
N235 Gd198 2.601 . S
N235 C236 1.359 . S
N235 C239 1.334 . S
C236 C233 1.426 . S
C236 N235 1.359 . S
C236 C240 1.413 . S
C237 H228 0.930 . S
C237 C238 1.359 . S
C237 C239 1.394 . S
C238 C237 1.359 . S
C238 C240 1.391 . S
C238 H241 0.929 . S
C239 H221 0.930 . S
C239 N235 1.334 . S
C239 C237 1.394 . S
C240 C236 1.413 . S
C240 C238 1.391 . S
C240 C255 1.437 . S
H241 C238 0.929 . S
O242 Gd198 2.545 . S
O242 C257 1.258 . S
O243 Gd198 2.606 1_565 S
O243 Gd199 2.362 1_554 S
O243 C254 1.284 . S
O244 Gd199 2.324 1_545 S
O244 C264 1.254 1_556 S
O245 Gd198 2.429 . S
O245 C264 1.268 . S
O246 Gd198 2.545 1_565 S
O246 C254 1.250 . S
O247 Gd198 2.412 1_565 S
O247 C257 1.252 1_565 S
O248 Gd199 2.545 . S
O248 C266 1.258 1_565 S
O249 Gd198 2.362 . S
O249 Gd199 2.606 1_544 S
O249 C265 1.284 1_554 S
O250 Gd198 2.324 1_565 S
O250 C273 1.254 . S
O251 Gd199 2.429 1_554 S
O251 C273 1.268 . S
O252 Gd199 2.545 1_545 S
O252 C265 1.250 . S
O253 Gd199 2.412 1_545 S
O253 C266 1.252 . S
C254 O243 1.284 . S
C254 O246 1.250 . S
C255 H224 0.929 . S
C255 C240 1.437 . S
C255 C256 1.317 . S
C256 H227 0.930 . S
C256 C232 1.431 . S
C256 C255 1.317 . S
C257 Gd198 2.828 . S
C257 O242 1.258 . S
C257 O247 1.252 1_545 S
C257 C258 1.503 . S
C258 C257 1.503 . S
C258 C259 1.422 . S
C258 C260 1.347 1_545 S
C259 C258 1.422 . S
C259 C262 1.398 . S
C259 H274 0.930 . S
C260 C258 1.347 1_565 S
C260 C261 1.391 . S
C260 H275 0.930 . S
C261 C260 1.391 . S
C261 C263 1.387 . S
C262 C259 1.398 . S
C262 C263 1.380 1_545 S
C262 H276 0.930 . S
C263 C261 1.387 . S
C263 C262 1.380 1_565 S
C263 H277 0.930 . S
C264 O244 1.254 1_554 S
C264 O245 1.268 . S
C265 O249 1.284 1_556 S
C265 O252 1.250 . S
C266 Gd199 2.828 1_545 S
C266 O248 1.258 1_545 S
C266 O253 1.252 . S
C266 C267 1.497 . S
C267 C266 1.497 . S
C267 C268 1.395 1_545 S
C267 C269 1.380 . S
C268 C267 1.395 1_565 S
C268 C271 1.408 . S
C268 H278 0.930 . S
C269 C267 1.380 . S
C269 C270 1.391 . S
C269 H279 0.930 . S
C270 C269 1.391 . S
C270 C272 1.387 . S
C271 C268 1.408 . S
C271 C272 1.329 1_565 S
C271 H280 0.972 . S
C272 C270 1.387 . S
C272 C271 1.329 1_545 S
C272 H281 0.930 . S
C273 O250 1.254 . S
C273 O251 1.268 . S
H274 C259 0.930 . S
H275 C260 0.930 . S
H276 C262 0.930 . S
H277 C263 0.930 . S
H278 C268 0.930 . S
H279 C269 0.930 . S
H280 C271 0.972 . S
H281 C272 0.930 . S
Gd282 N313 2.661 . S
Gd282 N319 2.601 . S
Gd282 O326 2.545 . S
Gd282 O327 2.606 1_655 S
Gd282 O329 2.429 . S
Gd282 O330 2.545 1_655 S
Gd282 O331 2.412 1_655 S
Gd282 O333 2.362 . S
Gd282 O334 2.324 1_655 S
Gd282 C341 2.820 1_655 S
Gd283 N292 2.661 . S
Gd283 N296 2.601 . S
Gd283 O327 2.362 1_556 S
Gd283 O328 2.324 1_455 S
Gd283 O332 2.545 . S
Gd283 O333 2.606 1_456 S
Gd283 O335 2.429 1_556 S
Gd283 O336 2.545 1_455 S
Gd283 O337 2.420 . S
Gd283 C350 2.828 . S
C284 C287 1.417 . S
C284 C289 1.431 . S
C284 C290 1.412 . S
C285 C288 1.437 . S
C285 C289 1.317 . S
C285 H304 0.929 . S
C286 C287 1.426 . S
C286 C288 1.413 . S
C286 N296 1.359 . S
C287 C284 1.417 . S
C287 C286 1.426 . S
C287 N292 1.350 . S
C288 C285 1.437 . S
C288 C286 1.413 . S
C288 C298 1.391 . S
C289 C284 1.431 . S
C289 C285 1.317 . S
C289 H300 0.930 . S
C290 C284 1.412 . S
C290 C291 1.355 . S
C290 H302 0.930 . S
C291 C290 1.355 . S
C291 C293 1.402 . S
C291 H303 0.930 . S
N292 Gd283 2.661 . S
N292 C287 1.350 . S
N292 C293 1.307 . S
C293 C291 1.402 . S
C293 N292 1.307 . S
C293 H294 0.930 . S
H294 C293 0.930 . S
C295 N296 1.334 . S
C295 C297 1.394 . S
C295 H299 0.930 . S
N296 Gd283 2.601 . S
N296 C286 1.359 . S
N296 C295 1.334 . S
C297 C295 1.394 . S
C297 C298 1.359 . S
C297 H309 0.930 . S
C298 C288 1.391 . S
C298 C297 1.359 . S
C298 H310 0.929 . S
H299 C295 0.930 . S
H300 C289 0.930 . S
H301 C318 0.936 . S
H302 C290 0.930 . S
H303 C291 0.930 . S
H304 C285 0.929 . S
H305 C323 0.930 . S
H306 C314 0.930 . S
H307 C315 0.930 . S
H308 C339 0.929 . S
H309 C297 0.930 . S
H310 C298 0.929 . S
H311 C340 0.930 . S
H312 C321 0.930 . S
N313 Gd282 2.661 . S
N313 C317 1.350 . S
N313 C318 1.307 . S
C314 H306 0.930 . S
C314 C315 1.355 . S
C314 C316 1.412 . S
C315 H307 0.930 . S
C315 C314 1.355 . S
C315 C318 1.402 . S
C316 C314 1.412 . S
C316 C317 1.417 . S
C316 C340 1.431 . S
C317 N313 1.350 . S
C317 C316 1.417 . S
C317 C320 1.426 . S
C318 H301 0.936 . S
C318 N313 1.307 . S
C318 C315 1.402 . S
N319 Gd282 2.601 . S
N319 C320 1.359 . S
N319 C323 1.334 . S
C320 C317 1.426 . S
C320 N319 1.359 . S
C320 C324 1.413 . S
C321 H312 0.930 . S
C321 C322 1.359 . S
C321 C323 1.394 . S
C322 C321 1.359 . S
C322 C324 1.391 . S
C322 H325 0.929 . S
C323 H305 0.930 . S
C323 N319 1.334 . S
C323 C321 1.394 . S
C324 C320 1.413 . S
C324 C322 1.391 . S
C324 C339 1.437 . S
H325 C322 0.929 . S
O326 Gd282 2.545 . S
O326 C341 1.251 1_655 S
O327 Gd282 2.606 1_455 S
O327 Gd283 2.362 1_554 S
O327 C338 1.284 . S
O328 Gd283 2.324 1_655 S
O328 C348 1.254 1_556 S
O329 Gd282 2.429 . S
O329 C348 1.268 . S
O330 Gd282 2.545 1_455 S
O330 C338 1.250 . S
O331 Gd282 2.412 1_455 S
O331 C341 1.250 . S
O332 Gd283 2.545 . S
O332 C350 1.258 . S
O333 Gd282 2.362 . S
O333 Gd283 2.606 1_654 S
O333 C349 1.284 1_554 S
O334 Gd282 2.324 1_455 S
O334 C357 1.254 . S
O335 Gd283 2.429 1_554 S
O335 C357 1.268 . S
O336 Gd283 2.545 1_655 S
O336 C349 1.250 . S
O337 Gd283 2.420 . S
O337 C350 1.250 . S
C338 O327 1.284 . S
C338 O330 1.250 . S
C339 H308 0.929 . S
C339 C324 1.437 . S
C339 C340 1.317 . S
C340 H311 0.930 . S
C340 C316 1.431 . S
C340 C339 1.317 . S
C341 Gd282 2.820 1_455 S
C341 O326 1.251 1_455 S
C341 O331 1.250 . S
C341 C342 1.510 . S
C342 C341 1.510 . S
C342 C343 1.395 1_455 S
C342 C344 1.380 . S
C343 C342 1.395 1_655 S
C343 C346 1.398 . S
C343 H358 0.930 . S
C344 C342 1.380 . S
C344 C345 1.391 . S
C344 H359 0.930 . S
C345 C344 1.391 . S
C345 C347 1.387 . S
C346 C343 1.398 . S
C346 C347 1.380 1_655 S
C346 H360 0.930 . S
C347 C345 1.387 . S
C347 C346 1.380 1_455 S
C347 H361 0.930 . S
C348 O328 1.254 1_554 S
C348 O329 1.268 . S
C349 O333 1.284 1_556 S
C349 O336 1.250 . S
C350 Gd283 2.828 . S
C350 O332 1.258 . S
C350 O337 1.250 . S
C350 C351 1.497 . S
C351 C350 1.497 . S
C351 C352 1.395 . S
C351 C353 1.380 1_455 S
C352 C351 1.395 . S
C352 C355 1.398 . S
C352 H362 0.930 . S
C353 C351 1.380 1_655 S
C353 C354 1.391 . S
C353 H363 0.930 . S
C354 C353 1.391 . S
C354 C356 1.387 . S
C355 C352 1.398 . S
C355 C356 1.380 1_455 S
C355 H364 0.930 . S
C356 C354 1.387 . S
C356 C355 1.380 1_655 S
C356 H365 0.930 . S
C357 O334 1.254 . S
C357 O335 1.268 . S
H358 C343 0.930 . S
H359 C344 0.930 . S
H360 C346 0.930 . S
H361 C347 0.930 . S
H362 C352 0.930 . S
H363 C353 0.930 . S
H364 C355 0.930 . S
H365 C356 0.930 . S
Gd366 N397 2.661 . S
Gd366 N403 2.601 . S
Gd366 O410 2.545 . S
Gd366 O411 2.606 1_556 S
Gd366 O413 2.429 1_556 S
Gd366 O414 2.545 . S
Gd366 O415 2.412 . S
Gd366 O417 2.362 1_556 S
Gd366 O418 2.324 . S
Gd366 C425 2.828 . S
Gd367 N376 2.661 . S
Gd367 N380 2.601 . S
Gd367 O411 2.362 . S
Gd367 O412 2.324 . S
Gd367 O416 2.545 . S
Gd367 O417 2.606 . S
Gd367 O419 2.429 . S
Gd367 O420 2.545 . S
Gd367 O421 2.412 . S
Gd367 C434 2.828 . S
C368 C371 1.417 . S
C368 C373 1.431 . S
C368 C374 1.412 . S
C369 C372 1.437 . S
C369 C373 1.317 . S
C369 H388 0.929 . S
C370 C371 1.426 . S
C370 C372 1.413 . S
C370 N380 1.359 . S
C371 C368 1.417 . S
C371 C370 1.426 . S
C371 N376 1.350 . S
C372 C369 1.437 . S
C372 C370 1.413 . S
C372 C382 1.391 . S
C373 C368 1.431 . S
C373 C369 1.317 . S
C373 H384 0.930 . S
C374 C368 1.412 . S
C374 C375 1.355 . S
C374 H386 0.930 . S
C375 C374 1.355 . S
C375 C377 1.402 . S
C375 H387 0.930 . S
N376 Gd367 2.661 . S
N376 C371 1.350 . S
N376 C377 1.307 . S
C377 C375 1.402 . S
C377 N376 1.307 . S
C377 H378 0.930 . S
H378 C377 0.930 . S
C379 N380 1.334 . S
C379 C381 1.394 . S
C379 H383 0.930 . S
N380 Gd367 2.601 . S
N380 C370 1.359 . S
N380 C379 1.334 . S
C381 C379 1.394 . S
C381 C382 1.359 . S
C381 H393 0.930 . S
C382 C372 1.391 . S
C382 C381 1.359 . S
C382 H394 0.929 . S
H383 C379 0.930 . S
H384 C373 0.930 . S
H385 C402 0.930 . S
H386 C374 0.930 . S
H387 C375 0.930 . S
H388 C369 0.929 . S
H389 C407 0.930 . S
H390 C398 0.930 . S
H391 C399 0.930 . S
H392 C423 0.929 . S
H393 C381 0.930 . S
H394 C382 0.929 . S
H395 C424 0.930 . S
H396 C405 0.930 . S
N397 Gd366 2.661 . S
N397 C401 1.350 . S
N397 C402 1.307 . S
C398 H390 0.930 . S
C398 C399 1.355 . S
C398 C400 1.412 . S
C399 H391 0.930 . S
C399 C398 1.355 . S
C399 C402 1.402 . S
C400 C398 1.412 . S
C400 C401 1.417 . S
C400 C424 1.431 . S
C401 N397 1.350 . S
C401 C400 1.417 . S
C401 C404 1.426 . S
C402 H385 0.930 . S
C402 N397 1.307 . S
C402 C399 1.402 . S
N403 Gd366 2.601 . S
N403 C404 1.359 . S
N403 C407 1.334 . S
C404 C401 1.426 . S
C404 N403 1.359 . S
C404 C408 1.413 . S
C405 H396 0.930 . S
C405 C406 1.359 . S
C405 C407 1.394 . S
C406 C405 1.359 . S
C406 C408 1.391 . S
C406 H409 0.929 . S
C407 H389 0.930 . S
C407 N403 1.334 . S
C407 C405 1.394 . S
C408 C404 1.413 . S
C408 C406 1.391 . S
C408 C423 1.437 . S
H409 C406 0.929 . S
O410 Gd366 2.545 . S
O410 C425 1.258 . S
O411 Gd366 2.606 1_554 S
O411 Gd367 2.362 . S
O411 C422 1.284 1_554 S
O412 Gd367 2.324 . S
O412 C432 1.254 . S
O413 Gd366 2.429 1_554 S
O413 C432 1.268 . S
O414 Gd366 2.545 . S
O414 C422 1.250 . S
O415 Gd366 2.412 . S
O415 C425 1.252 . S
O416 Gd367 2.545 . S
O416 C434 1.258 . S
O417 Gd366 2.362 1_554 S
O417 Gd367 2.606 . S
O417 C433 1.284 . S
O418 Gd366 2.324 . S
O418 C441 1.254 1_556 S
O419 Gd367 2.429 . S
O419 C441 1.268 . S
O420 Gd367 2.545 . S
O420 C433 1.250 . S
O421 Gd367 2.412 . S
O421 C434 1.252 . S
C422 O411 1.284 1_556 S
C422 O414 1.250 . S
C423 H392 0.929 . S
C423 C408 1.437 . S
C423 C424 1.317 . S
C424 H395 0.930 . S
C424 C400 1.431 . S
C424 C423 1.317 . S
C425 Gd366 2.828 . S
C425 O410 1.258 . S
C425 O415 1.252 . S
C425 C426 1.497 . S
C426 C425 1.497 . S
C426 C427 1.395 . S
C426 C428 1.380 . S
C427 C426 1.395 . S
C427 C430 1.398 . S
C427 H442 0.930 . S
C428 C426 1.380 . S
C428 C429 1.391 . S
C428 H443 0.930 . S
C429 C428 1.391 . S
C429 C431 1.387 . S
C430 C427 1.398 . S
C430 C431 1.380 . S
C430 H444 0.930 . S
C431 C429 1.387 . S
C431 C430 1.380 . S
C431 H445 0.930 . S
C432 O412 1.254 . S
C432 O413 1.268 . S
C433 O417 1.284 . S
C433 O420 1.250 . S
C434 Gd367 2.828 . S
C434 O416 1.258 . S
C434 O421 1.252 . S
C434 C435 1.497 . S
C435 C434 1.497 . S
C435 C436 1.395 . S
C435 C437 1.380 . S
C436 C435 1.395 . S
C436 C439 1.398 . S
C436 H446 0.930 . S
C437 C435 1.380 . S
C437 C438 1.391 . S
C437 H447 0.930 . S
C438 C437 1.391 . S
C438 C440 1.387 . S
C439 C436 1.398 . S
C439 C440 1.380 . S
C439 H448 0.930 . S
C440 C438 1.387 . S
C440 C439 1.380 . S
C440 H449 0.930 . S
C441 O418 1.254 1_554 S
C441 O419 1.268 . S
H442 C427 0.930 . S
H443 C428 0.930 . S
H444 C430 0.930 . S
H445 C431 0.930 . S
H446 C436 0.930 . S
H447 C437 0.930 . S
H448 C439 0.930 . S
H449 C440 0.930 . S
Gd450 N481 2.661 . S
Gd450 N487 2.601 . S
Gd450 O494 2.545 . S
Gd450 O495 2.606 . S
Gd450 O497 2.429 . S
Gd450 O498 2.545 . S
Gd450 O499 2.412 . S
Gd450 O501 2.362 . S
Gd450 O502 2.324 . S
Gd450 C509 2.828 . S
Gd451 N460 2.661 . S
Gd451 N464 2.601 . S
Gd451 O495 2.362 . S
Gd451 O496 2.324 . S
Gd451 O500 2.545 . S
Gd451 O501 2.606 . S
Gd451 O503 2.429 . S
Gd451 O504 2.545 . S
Gd451 O505 2.412 . S
Gd451 C518 2.828 . S
C452 C455 1.417 . S
C452 C457 1.431 . S
C452 C458 1.412 . S
C453 C456 1.437 . S
C453 C457 1.317 . S
C453 H472 0.929 . S
C454 C455 1.426 . S
C454 C456 1.413 . S
C454 N464 1.359 . S
C455 C452 1.417 . S
C455 C454 1.426 . S
C455 N460 1.350 . S
C456 C453 1.437 . S
C456 C454 1.413 . S
C456 C466 1.391 . S
C457 C452 1.431 . S
C457 C453 1.317 . S
C457 H468 0.930 . S
C458 C452 1.412 . S
C458 C459 1.355 . S
C458 H470 0.930 . S
C459 C458 1.355 . S
C459 C461 1.402 . S
C459 H471 0.930 . S
N460 Gd451 2.661 . S
N460 C455 1.350 . S
N460 C461 1.307 . S
C461 C459 1.402 . S
C461 N460 1.307 . S
C461 H462 0.930 . S
H462 C461 0.930 . S
C463 N464 1.334 . S
C463 C465 1.394 . S
C463 H467 0.930 . S
N464 Gd451 2.601 . S
N464 C454 1.359 . S
N464 C463 1.334 . S
C465 C463 1.394 . S
C465 C466 1.359 . S
C465 H477 0.930 . S
C466 C456 1.391 . S
C466 C465 1.359 . S
C466 H478 0.929 . S
H467 C463 0.930 . S
H468 C457 0.930 . S
H469 C486 0.930 . S
H470 C458 0.930 . S
H471 C459 0.930 . S
H472 C453 0.929 . S
H473 C491 0.930 . S
H474 C482 0.930 . S
H475 C483 0.930 . S
H476 C507 0.929 . S
H477 C465 0.930 . S
H478 C466 0.929 . S
H479 C508 0.930 . S
H480 C489 0.930 . S
N481 Gd450 2.661 . S
N481 C485 1.350 . S
N481 C486 1.307 . S
C482 H474 0.930 . S
C482 C483 1.355 . S
C482 C484 1.412 . S
C483 H475 0.930 . S
C483 C482 1.355 . S
C483 C486 1.402 . S
C484 C482 1.412 . S
C484 C485 1.417 . S
C484 C508 1.431 . S
C485 N481 1.350 . S
C485 C484 1.417 . S
C485 C488 1.426 . S
C486 H469 0.930 . S
C486 N481 1.307 . S
C486 C483 1.402 . S
N487 Gd450 2.601 . S
N487 C488 1.359 . S
N487 C491 1.334 . S
C488 C485 1.426 . S
C488 N487 1.359 . S
C488 C492 1.413 . S
C489 H480 0.930 . S
C489 C490 1.359 . S
C489 C491 1.394 . S
C490 C489 1.359 . S
C490 C492 1.391 . S
C490 H493 0.929 . S
C491 H473 0.930 . S
C491 N487 1.334 . S
C491 C489 1.394 . S
C492 C488 1.413 . S
C492 C490 1.391 . S
C492 C507 1.437 . S
H493 C490 0.929 . S
O494 Gd450 2.545 . S
O494 C509 1.258 . S
O495 Gd450 2.606 . S
O495 Gd451 2.362 . S
O495 C506 1.284 . S
O496 Gd451 2.324 . S
O496 C516 1.254 . S
O497 Gd450 2.429 . S
O497 C516 1.268 . S
O498 Gd450 2.545 . S
O498 C506 1.250 . S
O499 Gd450 2.412 . S
O499 C509 1.252 . S
O500 Gd451 2.545 . S
O500 C518 1.258 . S
O501 Gd450 2.362 . S
O501 Gd451 2.606 . S
O501 C517 1.284 . S
O502 Gd450 2.324 . S
O502 C525 1.254 . S
O503 Gd451 2.429 . S
O503 C525 1.268 . S
O504 Gd451 2.545 . S
O504 C517 1.250 . S
O505 Gd451 2.412 . S
O505 C518 1.252 . S
C506 O495 1.284 . S
C506 O498 1.250 . S
C507 H476 0.929 . S
C507 C492 1.437 . S
C507 C508 1.317 . S
C508 H479 0.930 . S
C508 C484 1.431 . S
C508 C507 1.317 . S
C509 Gd450 2.828 . S
C509 O494 1.258 . S
C509 O499 1.252 . S
C509 C510 1.497 . S
C510 C509 1.497 . S
C510 C511 1.395 . S
C510 C512 1.380 . S
C511 C510 1.395 . S
C511 C514 1.398 . S
C511 H526 0.930 . S
C512 C510 1.380 . S
C512 C513 1.391 . S
C512 H527 0.930 . S
C513 C512 1.391 . S
C513 C515 1.387 . S
C514 C511 1.398 . S
C514 C515 1.380 . S
C514 H528 0.930 . S
C515 C513 1.387 . S
C515 C514 1.380 . S
C515 H529 0.930 . S
C516 O496 1.254 . S
C516 O497 1.268 . S
C517 O501 1.284 . S
C517 O504 1.250 . S
C518 Gd451 2.828 . S
C518 O500 1.258 . S
C518 O505 1.252 . S
C518 C519 1.497 . S
C519 C518 1.497 . S
C519 C520 1.395 . S
C519 C521 1.380 . S
C520 C519 1.395 . S
C520 C523 1.398 . S
C520 H530 0.930 . S
C521 C519 1.380 . S
C521 C522 1.391 . S
C521 H531 0.930 . S
C522 C521 1.391 . S
C522 C524 1.387 . S
C523 C520 1.398 . S
C523 C524 1.380 . S
C523 H532 0.930 . S
C524 C522 1.387 . S
C524 C523 1.380 . S
C524 H533 0.930 . S
C525 O502 1.254 . S
C525 O503 1.268 . S
H526 C511 0.930 . S
H527 C512 0.930 . S
H528 C514 0.930 . S
H529 C515 0.930 . S
H530 C520 0.930 . S
H531 C521 0.930 . S
H532 C523 0.930 . S
H533 C524 0.930 . S
Gd534 N565 2.661 . S
Gd534 N571 2.601 . S
Gd534 O578 2.545 . S
Gd534 O579 2.606 . S
Gd534 O581 2.429 . S
Gd534 O582 2.545 . S
Gd534 O583 2.412 . S
Gd534 O585 2.362 . S
Gd534 O586 2.324 . S
Gd534 C593 2.828 . S
Gd535 N544 2.661 . S
Gd535 N548 2.601 . S
Gd535 O579 2.362 . S
Gd535 O580 2.324 . S
Gd535 O584 2.545 . S
Gd535 O585 2.606 . S
Gd535 O587 2.429 . S
Gd535 O588 2.545 . S
Gd535 O589 2.412 . S
Gd535 C602 2.828 . S
C536 C539 1.417 . S
C536 C541 1.431 . S
C536 C542 1.412 . S
C537 C540 1.437 . S
C537 C541 1.317 . S
C537 H556 0.929 . S
C538 C539 1.426 . S
C538 C540 1.413 . S
C538 N548 1.359 . S
C539 C536 1.417 . S
C539 C538 1.426 . S
C539 N544 1.350 . S
C540 C537 1.437 . S
C540 C538 1.413 . S
C540 C550 1.391 . S
C541 C536 1.431 . S
C541 C537 1.317 . S
C541 H552 0.930 . S
C542 C536 1.412 . S
C542 C543 1.355 . S
C542 H554 0.930 . S
C543 C542 1.355 . S
C543 C545 1.402 . S
C543 H555 0.930 . S
N544 Gd535 2.661 . S
N544 C539 1.350 . S
N544 C545 1.307 . S
C545 C543 1.402 . S
C545 N544 1.307 . S
C545 H546 0.930 . S
H546 C545 0.930 . S
C547 N548 1.334 . S
C547 C549 1.394 . S
C547 H551 0.930 . S
N548 Gd535 2.601 . S
N548 C538 1.359 . S
N548 C547 1.334 . S
C549 C547 1.394 . S
C549 C550 1.359 . S
C549 H561 0.930 . S
C550 C540 1.391 . S
C550 C549 1.359 . S
C550 H562 0.929 . S
H551 C547 0.930 . S
H552 C541 0.930 . S
H553 C570 0.930 . S
H554 C542 0.930 . S
H555 C543 0.930 . S
H556 C537 0.929 . S
H557 C575 0.930 . S
H558 C566 0.930 . S
H559 C567 0.930 . S
H560 C591 0.929 . S
H561 C549 0.930 . S
H562 C550 0.929 . S
H563 C592 0.930 . S
H564 C573 0.930 . S
N565 Gd534 2.661 . S
N565 C569 1.350 . S
N565 C570 1.307 . S
C566 H558 0.930 . S
C566 C567 1.355 . S
C566 C568 1.412 . S
C567 H559 0.930 . S
C567 C566 1.355 . S
C567 C570 1.402 . S
C568 C566 1.412 . S
C568 C569 1.417 . S
C568 C592 1.431 . S
C569 N565 1.350 . S
C569 C568 1.417 . S
C569 C572 1.426 . S
C570 H553 0.930 . S
C570 N565 1.307 . S
C570 C567 1.402 . S
N571 Gd534 2.601 . S
N571 C572 1.359 . S
N571 C575 1.334 . S
C572 C569 1.426 . S
C572 N571 1.359 . S
C572 C576 1.413 . S
C573 H564 0.930 . S
C573 C574 1.359 . S
C573 C575 1.394 . S
C574 C573 1.359 . S
C574 C576 1.391 . S
C574 H577 0.929 . S
C575 H557 0.930 . S
C575 N571 1.334 . S
C575 C573 1.394 . S
C576 C572 1.413 . S
C576 C574 1.391 . S
C576 C591 1.437 . S
H577 C574 0.929 . S
O578 Gd534 2.545 . S
O578 C593 1.258 . S
O579 Gd534 2.606 . S
O579 Gd535 2.362 . S
O579 C590 1.284 . S
O580 Gd535 2.324 . S
O580 C600 1.254 . S
O581 Gd534 2.429 . S
O581 C600 1.268 . S
O582 Gd534 2.545 . S
O582 C590 1.250 . S
O583 Gd534 2.412 . S
O583 C593 1.252 . S
O584 Gd535 2.545 . S
O584 C602 1.258 . S
O585 Gd534 2.362 . S
O585 Gd535 2.606 . S
O585 C601 1.284 . S
O586 Gd534 2.324 . S
O586 C609 1.254 . S
O587 Gd535 2.429 . S
O587 C609 1.268 . S
O588 Gd535 2.545 . S
O588 C601 1.250 . S
O589 Gd535 2.412 . S
O589 C602 1.252 . S
C590 O579 1.284 . S
C590 O582 1.250 . S
C591 H560 0.929 . S
C591 C576 1.437 . S
C591 C592 1.317 . S
C592 H563 0.930 . S
C592 C568 1.431 . S
C592 C591 1.317 . S
C593 Gd534 2.828 . S
C593 O578 1.258 . S
C593 O583 1.252 . S
C593 C594 1.497 . S
C594 C593 1.497 . S
C594 C595 1.395 . S
C594 C596 1.380 . S
C595 C594 1.395 . S
C595 C598 1.398 . S
C595 H610 0.930 . S
C596 C594 1.380 . S
C596 C597 1.391 . S
C596 H611 0.930 . S
C597 C596 1.391 . S
C597 C599 1.387 . S
C598 C595 1.398 . S
C598 C599 1.380 . S
C598 H612 0.930 . S
C599 C597 1.387 . S
C599 C598 1.380 . S
C599 H613 0.930 . S
C600 O580 1.254 . S
C600 O581 1.268 . S
C601 O585 1.284 . S
C601 O588 1.250 . S
C602 Gd535 2.828 . S
C602 O584 1.258 . S
C602 O589 1.252 . S
C602 C603 1.497 . S
C603 C602 1.497 . S
C603 C604 1.395 . S
C603 C605 1.380 . S
C604 C603 1.395 . S
C604 C607 1.398 . S
C604 H614 0.930 . S
C605 C603 1.380 . S
C605 C606 1.391 . S
C605 H615 0.930 . S
C606 C605 1.391 . S
C606 C608 1.387 . S
C607 C604 1.398 . S
C607 C608 1.380 . S
C607 H616 0.930 . S
C608 C606 1.387 . S
C608 C607 1.380 . S
C608 H617 0.930 . S
C609 O586 1.254 . S
C609 O587 1.268 . S
H610 C595 0.930 . S
H611 C596 0.930 . S
H612 C598 0.930 . S
H613 C599 0.930 . S
H614 C604 0.930 . S
H615 C605 0.930 . S
H616 C607 0.930 . S
H617 C608 0.930 . S
Gd618 N649 2.661 . S
Gd618 N655 2.601 . S
Gd618 O662 2.545 . S
Gd618 O663 2.606 . S
Gd618 O665 2.429 . S
Gd618 O666 2.545 . S
Gd618 O667 2.412 . S
Gd618 O669 2.362 . S
Gd618 O670 2.324 . S
Gd618 C677 2.828 . S
Gd619 N628 2.661 . S
Gd619 N632 2.601 . S
Gd619 O663 2.362 . S
Gd619 O664 2.324 . S
Gd619 O668 2.545 . S
Gd619 O669 2.606 . S
Gd619 O671 2.429 . S
Gd619 O672 2.545 . S
Gd619 O673 2.412 . S
Gd619 C686 2.828 . S
C620 C623 1.417 . S
C620 C625 1.431 . S
C620 C626 1.412 . S
C621 C624 1.437 . S
C621 C625 1.317 . S
C621 H640 0.929 . S
C622 C623 1.426 . S
C622 C624 1.413 . S
C622 N632 1.359 . S
C623 C620 1.417 . S
C623 C622 1.426 . S
C623 N628 1.350 . S
C624 C621 1.437 . S
C624 C622 1.413 . S
C624 C634 1.391 . S
C625 C620 1.431 . S
C625 C621 1.317 . S
C625 H636 0.930 . S
C626 C620 1.412 . S
C626 C627 1.355 . S
C626 H638 0.930 . S
C627 C626 1.355 . S
C627 C629 1.402 . S
C627 H639 0.930 . S
N628 Gd619 2.661 . S
N628 C623 1.350 . S
N628 C629 1.307 . S
C629 C627 1.402 . S
C629 N628 1.307 . S
C629 H630 0.930 . S
H630 C629 0.930 . S
C631 N632 1.334 . S
C631 C633 1.394 . S
C631 H635 0.930 . S
N632 Gd619 2.601 . S
N632 C622 1.359 . S
N632 C631 1.334 . S
C633 C631 1.394 . S
C633 C634 1.359 . S
C633 H645 0.930 . S
C634 C624 1.391 . S
C634 C633 1.359 . S
C634 H646 0.929 . S
H635 C631 0.930 . S
H636 C625 0.930 . S
H637 C654 0.930 . S
H638 C626 0.930 . S
H639 C627 0.930 . S
H640 C621 0.929 . S
H641 C659 0.930 . S
H642 C650 0.930 . S
H643 C651 0.930 . S
H644 C675 0.929 . S
H645 C633 0.930 . S
H646 C634 0.929 . S
H647 C676 0.930 . S
H648 C657 0.930 . S
N649 Gd618 2.661 . S
N649 C653 1.350 . S
N649 C654 1.307 . S
C650 H642 0.930 . S
C650 C651 1.355 . S
C650 C652 1.412 . S
C651 H643 0.930 . S
C651 C650 1.355 . S
C651 C654 1.402 . S
C652 C650 1.412 . S
C652 C653 1.417 . S
C652 C676 1.431 . S
C653 N649 1.350 . S
C653 C652 1.417 . S
C653 C656 1.426 . S
C654 H637 0.930 . S
C654 N649 1.307 . S
C654 C651 1.402 . S
N655 Gd618 2.601 . S
N655 C656 1.359 . S
N655 C659 1.334 . S
C656 C653 1.426 . S
C656 N655 1.359 . S
C656 C660 1.413 . S
C657 H648 0.930 . S
C657 C658 1.359 . S
C657 C659 1.394 . S
C658 C657 1.359 . S
C658 C660 1.391 . S
C658 H661 0.929 . S
C659 H641 0.930 . S
C659 N655 1.334 . S
C659 C657 1.394 . S
C660 C656 1.413 . S
C660 C658 1.391 . S
C660 C675 1.437 . S
H661 C658 0.929 . S
O662 Gd618 2.545 . S
O662 C677 1.258 . S
O663 Gd618 2.606 . S
O663 Gd619 2.362 . S
O663 C674 1.284 . S
O664 Gd619 2.324 . S
O664 C684 1.254 . S
O665 Gd618 2.429 . S
O665 C684 1.268 . S
O666 Gd618 2.545 . S
O666 C674 1.250 . S
O667 Gd618 2.412 . S
O667 C677 1.252 . S
O668 Gd619 2.545 . S
O668 C686 1.258 . S
O669 Gd618 2.362 . S
O669 Gd619 2.606 . S
O669 C685 1.284 . S
O670 Gd618 2.324 . S
O670 C693 1.254 . S
O671 Gd619 2.429 . S
O671 C693 1.268 . S
O672 Gd619 2.545 . S
O672 C685 1.250 . S
O673 Gd619 2.412 . S
O673 C686 1.252 . S
C674 O663 1.284 . S
C674 O666 1.250 . S
C675 H644 0.929 . S
C675 C660 1.437 . S
C675 C676 1.317 . S
C676 H647 0.930 . S
C676 C652 1.431 . S
C676 C675 1.317 . S
C677 Gd618 2.828 . S
C677 O662 1.258 . S
C677 O667 1.252 . S
C677 C678 1.497 . S
C678 C677 1.497 . S
C678 C679 1.395 . S
C678 C680 1.380 . S
C679 C678 1.395 . S
C679 C682 1.398 . S
C679 H694 0.930 . S
C680 C678 1.380 . S
C680 C681 1.391 . S
C680 H695 0.930 . S
C681 C680 1.391 . S
C681 C683 1.387 . S
C682 C679 1.398 . S
C682 C683 1.380 . S
C682 H696 0.930 . S
C683 C681 1.387 . S
C683 C682 1.380 . S
C683 H697 0.930 . S
C684 O664 1.254 . S
C684 O665 1.268 . S
C685 O669 1.284 . S
C685 O672 1.250 . S
C686 Gd619 2.828 . S
C686 O668 1.258 . S
C686 O673 1.252 . S
C686 C687 1.497 . S
C687 C686 1.497 . S
C687 C688 1.395 . S
C687 C689 1.380 . S
C688 C687 1.395 . S
C688 C691 1.398 . S
C688 H698 0.930 . S
C689 C687 1.380 . S
C689 C690 1.391 . S
C689 H699 0.930 . S
C690 C689 1.391 . S
C690 C692 1.387 . S
C691 C688 1.398 . S
C691 C692 1.380 . S
C691 H700 0.930 . S
C692 C690 1.387 . S
C692 C691 1.380 . S
C692 H701 0.930 . S
C693 O670 1.254 . S
C693 O671 1.268 . S
H694 C679 0.930 . S
H695 C680 0.930 . S
H696 C682 0.930 . S
H697 C683 0.930 . S
H698 C688 0.930 . S
H699 C689 0.930 . S
H700 C691 0.930 . S
H701 C692 0.930 . S
Gd702 N733 2.661 . S
Gd702 N739 2.601 . S
Gd702 O746 2.545 . S
Gd702 O747 2.606 . S
Gd702 O749 2.429 . S
Gd702 O750 2.545 . S
Gd702 O751 2.412 . S
Gd702 O753 2.362 . S
Gd702 O754 2.324 . S
Gd702 C761 2.828 . S
Gd703 N712 2.661 . S
Gd703 N716 2.601 . S
Gd703 O747 2.362 . S
Gd703 O748 2.324 . S
Gd703 O752 2.545 . S
Gd703 O753 2.606 . S
Gd703 O755 2.429 . S
Gd703 O756 2.545 . S
Gd703 O757 2.412 . S
Gd703 C770 2.828 . S
C704 C707 1.417 . S
C704 C709 1.431 . S
C704 C710 1.412 . S
C705 C708 1.437 . S
C705 C709 1.317 . S
C705 H724 0.929 . S
C706 C707 1.426 . S
C706 C708 1.413 . S
C706 N716 1.359 . S
C707 C704 1.417 . S
C707 C706 1.426 . S
C707 N712 1.350 . S
C708 C705 1.437 . S
C708 C706 1.413 . S
C708 C718 1.391 . S
C709 C704 1.431 . S
C709 C705 1.317 . S
C709 H720 0.930 . S
C710 C704 1.412 . S
C710 C711 1.355 . S
C710 H722 0.930 . S
C711 C710 1.355 . S
C711 C713 1.402 . S
C711 H723 0.930 . S
N712 Gd703 2.661 . S
N712 C707 1.350 . S
N712 C713 1.307 . S
C713 C711 1.402 . S
C713 N712 1.307 . S
C713 H714 0.930 . S
H714 C713 0.930 . S
C715 N716 1.334 . S
C715 C717 1.394 . S
C715 H719 0.930 . S
N716 Gd703 2.601 . S
N716 C706 1.359 . S
N716 C715 1.334 . S
C717 C715 1.394 . S
C717 C718 1.359 . S
C717 H729 0.930 . S
C718 C708 1.391 . S
C718 C717 1.359 . S
C718 H730 0.929 . S
H719 C715 0.930 . S
H720 C709 0.930 . S
H721 C738 0.930 . S
H722 C710 0.930 . S
H723 C711 0.930 . S
H724 C705 0.929 . S
H725 C743 0.930 . S
H726 C734 0.930 . S
H727 C735 0.930 . S
H728 C759 0.929 . S
H729 C717 0.930 . S
H730 C718 0.929 . S
H731 C760 0.930 . S
H732 C741 0.930 . S
N733 Gd702 2.661 . S
N733 C737 1.350 . S
N733 C738 1.307 . S
C734 H726 0.930 . S
C734 C735 1.355 . S
C734 C736 1.412 . S
C735 H727 0.930 . S
C735 C734 1.355 . S
C735 C738 1.402 . S
C736 C734 1.412 . S
C736 C737 1.417 . S
C736 C760 1.431 . S
C737 N733 1.350 . S
C737 C736 1.417 . S
C737 C740 1.426 . S
C738 H721 0.930 . S
C738 N733 1.307 . S
C738 C735 1.402 . S
N739 Gd702 2.601 . S
N739 C740 1.359 . S
N739 C743 1.334 . S
C740 C737 1.426 . S
C740 N739 1.359 . S
C740 C744 1.413 . S
C741 H732 0.930 . S
C741 C742 1.359 . S
C741 C743 1.394 . S
C742 C741 1.359 . S
C742 C744 1.391 . S
C742 H745 0.929 . S
C743 H725 0.930 . S
C743 N739 1.334 . S
C743 C741 1.394 . S
C744 C740 1.413 . S
C744 C742 1.391 . S
C744 C759 1.437 . S
H745 C742 0.929 . S
O746 Gd702 2.545 . S
O746 C761 1.258 . S
O747 Gd702 2.606 . S
O747 Gd703 2.362 . S
O747 C758 1.284 . S
O748 Gd703 2.324 . S
O748 C768 1.254 . S
O749 Gd702 2.429 . S
O749 C768 1.268 . S
O750 Gd702 2.545 . S
O750 C758 1.250 . S
O751 Gd702 2.412 . S
O751 C761 1.252 . S
O752 Gd703 2.545 . S
O752 C770 1.258 . S
O753 Gd702 2.362 . S
O753 Gd703 2.606 . S
O753 C769 1.284 . S
O754 Gd702 2.324 . S
O754 C777 1.254 . S
O755 Gd703 2.429 . S
O755 C777 1.268 . S
O756 Gd703 2.545 . S
O756 C769 1.250 . S
O757 Gd703 2.412 . S
O757 C770 1.252 . S
C758 O747 1.284 . S
C758 O750 1.250 . S
C759 H728 0.929 . S
C759 C744 1.437 . S
C759 C760 1.317 . S
C760 H731 0.930 . S
C760 C736 1.431 . S
C760 C759 1.317 . S
C761 Gd702 2.828 . S
C761 O746 1.258 . S
C761 O751 1.252 . S
C761 C762 1.497 . S
C762 C761 1.497 . S
C762 C763 1.395 . S
C762 C764 1.380 . S
C763 C762 1.395 . S
C763 C766 1.398 . S
C763 H778 0.930 . S
C764 C762 1.380 . S
C764 C765 1.391 . S
C764 H779 0.930 . S
C765 C764 1.391 . S
C765 C767 1.387 . S
C766 C763 1.398 . S
C766 C767 1.380 . S
C766 H780 0.930 . S
C767 C765 1.387 . S
C767 C766 1.380 . S
C767 H781 0.930 . S
C768 O748 1.254 . S
C768 O749 1.268 . S
C769 O753 1.284 . S
C769 O756 1.250 . S
C770 Gd703 2.828 . S
C770 O752 1.258 . S
C770 O757 1.252 . S
C770 C771 1.497 . S
C771 C770 1.497 . S
C771 C772 1.395 . S
C771 C773 1.380 . S
C772 C771 1.395 . S
C772 C775 1.398 . S
C772 H782 0.930 . S
C773 C771 1.380 . S
C773 C774 1.391 . S
C773 H783 0.930 . S
C774 C773 1.391 . S
C774 C776 1.387 . S
C775 C772 1.398 . S
C775 C776 1.380 . S
C775 H784 0.930 . S
C776 C774 1.387 . S
C776 C775 1.380 . S
C776 H785 0.930 . S
C777 O754 1.254 . S
C777 O755 1.268 . S
H778 C763 0.930 . S
H779 C764 0.930 . S
H780 C766 0.930 . S
H781 C767 0.930 . S
H782 C772 0.930 . S
H783 C773 0.930 . S
H784 C775 0.930 . S
H785 C776 0.930 . S
Gd786 N817 2.661 . S
Gd786 N823 2.601 . S
Gd786 O830 2.545 . S
Gd786 O831 2.606 . S
Gd786 O833 2.429 . S
Gd786 O834 2.545 . S
Gd786 O835 2.412 . S
Gd786 O837 2.362 . S
Gd786 O838 2.324 . S
Gd786 C845 2.828 . S
Gd787 N796 2.661 . S
Gd787 N800 2.601 . S
Gd787 O831 2.362 . S
Gd787 O832 2.324 . S
Gd787 O836 2.545 . S
Gd787 O837 2.606 . S
Gd787 O839 2.429 . S
Gd787 O840 2.545 . S
Gd787 O841 2.412 . S
Gd787 C854 2.828 . S
C788 C791 1.417 . S
C788 C793 1.431 . S
C788 C794 1.412 . S
C789 C792 1.437 . S
C789 C793 1.317 . S
C789 H808 0.929 . S
C790 C791 1.426 . S
C790 C792 1.413 . S
C790 N800 1.359 . S
C791 C788 1.417 . S
C791 C790 1.426 . S
C791 N796 1.350 . S
C792 C789 1.437 . S
C792 C790 1.413 . S
C792 C802 1.391 . S
C793 C788 1.431 . S
C793 C789 1.317 . S
C793 H804 0.930 . S
C794 C788 1.412 . S
C794 C795 1.355 . S
C794 H806 0.930 . S
C795 C794 1.355 . S
C795 C797 1.402 . S
C795 H807 0.930 . S
N796 Gd787 2.661 . S
N796 C791 1.350 . S
N796 C797 1.307 . S
C797 C795 1.402 . S
C797 N796 1.307 . S
C797 H798 0.930 . S
H798 C797 0.930 . S
C799 N800 1.334 . S
C799 C801 1.394 . S
C799 H803 0.930 . S
N800 Gd787 2.601 . S
N800 C790 1.359 . S
N800 C799 1.334 . S
C801 C799 1.394 . S
C801 C802 1.359 . S
C801 H813 0.930 . S
C802 C792 1.391 . S
C802 C801 1.359 . S
C802 H814 0.929 . S
H803 C799 0.930 . S
H804 C793 0.930 . S
H805 C822 0.930 . S
H806 C794 0.930 . S
H807 C795 0.930 . S
H808 C789 0.929 . S
H809 C827 0.930 . S
H810 C818 0.930 . S
H811 C819 0.930 . S
H812 C843 0.929 . S
H813 C801 0.930 . S
H814 C802 0.929 . S
H815 C844 0.930 . S
H816 C825 0.930 . S
N817 Gd786 2.661 . S
N817 C821 1.350 . S
N817 C822 1.307 . S
C818 H810 0.930 . S
C818 C819 1.355 . S
C818 C820 1.412 . S
C819 H811 0.930 . S
C819 C818 1.355 . S
C819 C822 1.402 . S
C820 C818 1.412 . S
C820 C821 1.417 . S
C820 C844 1.431 . S
C821 N817 1.350 . S
C821 C820 1.417 . S
C821 C824 1.426 . S
C822 H805 0.930 . S
C822 N817 1.307 . S
C822 C819 1.402 . S
N823 Gd786 2.601 . S
N823 C824 1.359 . S
N823 C827 1.334 . S
C824 C821 1.426 . S
C824 N823 1.359 . S
C824 C828 1.413 . S
C825 H816 0.930 . S
C825 C826 1.359 . S
C825 C827 1.394 . S
C826 C825 1.359 . S
C826 C828 1.391 . S
C826 H829 0.929 . S
C827 H809 0.930 . S
C827 N823 1.334 . S
C827 C825 1.394 . S
C828 C824 1.413 . S
C828 C826 1.391 . S
C828 C843 1.437 . S
H829 C826 0.929 . S
O830 Gd786 2.545 . S
O830 C845 1.258 . S
O831 Gd786 2.606 . S
O831 Gd787 2.362 . S
O831 C842 1.284 . S
O832 Gd787 2.324 . S
O832 C852 1.254 . S
O833 Gd786 2.429 . S
O833 C852 1.268 . S
O834 Gd786 2.545 . S
O834 C842 1.250 . S
O835 Gd786 2.412 . S
O835 C845 1.252 . S
O836 Gd787 2.545 . S
O836 C854 1.258 . S
O837 Gd786 2.362 . S
O837 Gd787 2.606 . S
O837 C853 1.284 . S
O838 Gd786 2.324 . S
O838 C861 1.254 . S
O839 Gd787 2.429 . S
O839 C861 1.268 . S
O840 Gd787 2.545 . S
O840 C853 1.250 . S
O841 Gd787 2.412 . S
O841 C854 1.252 . S
C842 O831 1.284 . S
C842 O834 1.250 . S
C843 H812 0.929 . S
C843 C828 1.437 . S
C843 C844 1.317 . S
C844 H815 0.930 . S
C844 C820 1.431 . S
C844 C843 1.317 . S
C845 Gd786 2.828 . S
C845 O830 1.258 . S
C845 O835 1.252 . S
C845 C846 1.497 . S
C846 C845 1.497 . S
C846 C847 1.395 . S
C846 C848 1.380 . S
C847 C846 1.395 . S
C847 C850 1.398 . S
C847 H862 0.930 . S
C848 C846 1.380 . S
C848 C849 1.391 . S
C848 H863 0.930 . S
C849 C848 1.391 . S
C849 C851 1.387 . S
C850 C847 1.398 . S
C850 C851 1.380 . S
C850 H864 0.930 . S
C851 C849 1.387 . S
C851 C850 1.380 . S
C851 H865 0.930 . S
C852 O832 1.254 . S
C852 O833 1.268 . S
C853 O837 1.284 . S
C853 O840 1.250 . S
C854 Gd787 2.828 . S
C854 O836 1.258 . S
C854 O841 1.252 . S
C854 C855 1.497 . S
C855 C854 1.497 . S
C855 C856 1.395 . S
C855 C857 1.380 . S
C856 C855 1.395 . S
C856 C859 1.398 . S
C856 H866 0.930 . S
C857 C855 1.380 . S
C857 C858 1.391 . S
C857 H867 0.930 . S
C858 C857 1.391 . S
C858 C860 1.387 . S
C859 C856 1.398 . S
C859 C860 1.380 . S
C859 H868 0.930 . S
C860 C858 1.387 . S
C860 C859 1.380 . S
C860 H869 0.930 . S
C861 O838 1.254 . S
C861 O839 1.268 . S
H862 C847 0.930 . S
H863 C848 0.930 . S
H864 C850 0.930 . S
H865 C851 0.930 . S
H866 C856 0.930 . S
H867 C857 0.930 . S
H868 C859 0.930 . S
H869 C860 0.930 . S
Gd870 N901 2.661 . S
Gd870 N907 2.601 . S
Gd870 O914 2.545 . S
Gd870 O915 2.606 . S
Gd870 O917 2.429 . S
Gd870 O918 2.545 . S
Gd870 O919 2.412 . S
Gd870 O921 2.362 . S
Gd870 O922 2.324 . S
Gd870 C929 2.828 . S
Gd871 N880 2.661 . S
Gd871 N884 2.601 . S
Gd871 O915 2.362 . S
Gd871 O916 2.324 . S
Gd871 O920 2.545 . S
Gd871 O921 2.606 . S
Gd871 O923 2.429 . S
Gd871 O924 2.545 . S
Gd871 O925 2.412 . S
Gd871 C938 2.828 . S
C872 C875 1.417 . S
C872 C877 1.431 . S
C872 C878 1.412 . S
C873 C876 1.437 . S
C873 C877 1.317 . S
C873 H892 0.929 . S
C874 C875 1.426 . S
C874 C876 1.413 . S
C874 N884 1.359 . S
C875 C872 1.417 . S
C875 C874 1.426 . S
C875 N880 1.350 . S
C876 C873 1.437 . S
C876 C874 1.413 . S
C876 C886 1.391 . S
C877 C872 1.431 . S
C877 C873 1.317 . S
C877 H888 0.930 . S
C878 C872 1.412 . S
C878 C879 1.355 . S
C878 H890 0.930 . S
C879 C878 1.355 . S
C879 C881 1.402 . S
C879 H891 0.930 . S
N880 Gd871 2.661 . S
N880 C875 1.350 . S
N880 C881 1.307 . S
C881 C879 1.402 . S
C881 N880 1.307 . S
C881 H882 0.930 . S
H882 C881 0.930 . S
C883 N884 1.334 . S
C883 C885 1.394 . S
C883 H887 0.930 . S
N884 Gd871 2.601 . S
N884 C874 1.359 . S
N884 C883 1.334 . S
C885 C883 1.394 . S
C885 C886 1.359 . S
C885 H897 0.930 . S
C886 C876 1.391 . S
C886 C885 1.359 . S
C886 H898 0.929 . S
H887 C883 0.930 . S
H888 C877 0.930 . S
H889 C906 0.930 . S
H890 C878 0.930 . S
H891 C879 0.930 . S
H892 C873 0.929 . S
H893 C911 0.930 . S
H894 C902 0.930 . S
H895 C903 0.930 . S
H896 C927 0.929 . S
H897 C885 0.930 . S
H898 C886 0.929 . S
H899 C928 0.930 . S
H900 C909 0.930 . S
N901 Gd870 2.661 . S
N901 C905 1.350 . S
N901 C906 1.307 . S
C902 H894 0.930 . S
C902 C903 1.355 . S
C902 C904 1.412 . S
C903 H895 0.930 . S
C903 C902 1.355 . S
C903 C906 1.402 . S
C904 C902 1.412 . S
C904 C905 1.417 . S
C904 C928 1.431 . S
C905 N901 1.350 . S
C905 C904 1.417 . S
C905 C908 1.426 . S
C906 H889 0.930 . S
C906 N901 1.307 . S
C906 C903 1.402 . S
N907 Gd870 2.601 . S
N907 C908 1.359 . S
N907 C911 1.334 . S
C908 C905 1.426 . S
C908 N907 1.359 . S
C908 C912 1.413 . S
C909 H900 0.930 . S
C909 C910 1.359 . S
C909 C911 1.394 . S
C910 C909 1.359 . S
C910 C912 1.391 . S
C910 H913 0.929 . S
C911 H893 0.930 . S
C911 N907 1.334 . S
C911 C909 1.394 . S
C912 C908 1.413 . S
C912 C910 1.391 . S
C912 C927 1.437 . S
H913 C910 0.929 . S
O914 Gd870 2.545 . S
O914 C929 1.258 . S
O915 Gd870 2.606 . S
O915 Gd871 2.362 . S
O915 C926 1.284 . S
O916 Gd871 2.324 . S
O916 C936 1.254 . S
O917 Gd870 2.429 . S
O917 C936 1.268 . S
O918 Gd870 2.545 . S
O918 C926 1.250 . S
O919 Gd870 2.412 . S
O919 C929 1.252 . S
O920 Gd871 2.545 . S
O920 C938 1.258 . S
O921 Gd870 2.362 . S
O921 Gd871 2.606 . S
O921 C937 1.284 . S
O922 Gd870 2.324 . S
O922 C945 1.254 . S
O923 Gd871 2.429 . S
O923 C945 1.268 . S
O924 Gd871 2.545 . S
O924 C937 1.250 . S
O925 Gd871 2.412 . S
O925 C938 1.252 . S
C926 O915 1.284 . S
C926 O918 1.250 . S
C927 H896 0.929 . S
C927 C912 1.437 . S
C927 C928 1.317 . S
C928 H899 0.930 . S
C928 C904 1.431 . S
C928 C927 1.317 . S
C929 Gd870 2.828 . S
C929 O914 1.258 . S
C929 O919 1.252 . S
C929 C930 1.497 . S
C930 C929 1.497 . S
C930 C931 1.395 . S
C930 C932 1.380 . S
C931 C930 1.395 . S
C931 C934 1.398 . S
C931 H946 0.930 . S
C932 C930 1.380 . S
C932 C933 1.391 . S
C932 H947 0.930 . S
C933 C932 1.391 . S
C933 C935 1.387 . S
C934 C931 1.398 . S
C934 C935 1.380 . S
C934 H948 0.930 . S
C935 C933 1.387 . S
C935 C934 1.380 . S
C935 H949 0.930 . S
C936 O916 1.254 . S
C936 O917 1.268 . S
C937 O921 1.284 . S
C937 O924 1.250 . S
C938 Gd871 2.828 . S
C938 O920 1.258 . S
C938 O925 1.252 . S
C938 C939 1.497 . S
C939 C938 1.497 . S
C939 C940 1.395 . S
C939 C941 1.380 . S
C940 C939 1.395 . S
C940 C943 1.398 . S
C940 H950 0.930 . S
C941 C939 1.380 . S
C941 C942 1.391 . S
C941 H951 0.930 . S
C942 C941 1.391 . S
C942 C944 1.387 . S
C943 C940 1.398 . S
C943 C944 1.380 . S
C943 H952 0.930 . S
C944 C942 1.387 . S
C944 C943 1.380 . S
C944 H953 0.930 . S
C945 O922 1.254 . S
C945 O923 1.268 . S
H946 C931 0.930 . S
H947 C932 0.930 . S
H948 C934 0.930 . S
H949 C935 0.930 . S
H950 C940 0.930 . S
H951 C941 0.930 . S
H952 C943 0.930 . S
H953 C944 0.930 . S
H954 C972 0.951 . S
H955 C974 0.951 . S
H956 C976 0.950 . S
H957 C977 0.950 . S
H958 C979 0.950 . S
H959 C982 0.950 . S
H960 C983 0.950 . S
H961 C985 0.950 . S
H962 C986 0.950 . S
H963 C987 0.951 . S
H964 C989 0.951 . S
H965 C991 0.950 . S
H966 C992 0.950 . S
H967 C994 0.950 . S
H968 C997 0.950 . S
H969 C998 0.950 . S
H970 C1000 0.950 . S
H971 C1001 0.950 . S
C972 H954 0.951 . S
C972 C973 1.366 . S
C972 C974 1.388 . S
C973 C972 1.366 . S
C973 C977 1.385 . S
C974 H955 0.951 . S
C974 C972 1.388 . S
C974 C975 1.366 . S
C975 C974 1.366 . S
C975 C976 1.414 . S
C975 C978 1.499 . S
C976 H956 0.950 . S
C976 C975 1.414 . S
C976 C977 1.374 . S
C977 H957 0.950 . S
C977 C973 1.385 . S
C977 C976 1.374 . S
C978 C975 1.499 . S
C978 C979 1.373 . S
C978 C980 1.389 . S
C979 H958 0.950 . S
C979 C978 1.373 . S
C979 C995 1.377 . S
C980 C978 1.389 . S
C980 C981 1.524 . S
C980 C994 1.377 . S
C981 C980 1.524 . S
C981 C982 1.397 . S
C981 C986 1.363 . S
C982 H959 0.950 . S
C982 C981 1.397 . S
C982 C983 1.334 . S
C983 H960 0.950 . S
C983 C982 1.334 . S
C983 C984 1.287 . S
C984 C983 1.287 . S
C984 C985 1.524 . S
C984 H1003 0.913 . S
C985 H961 0.950 . S
C985 C984 1.524 . S
C985 C986 1.415 . S
C986 H962 0.950 . S
C986 C981 1.363 . S
C986 C985 1.415 . S
C987 H963 0.951 . S
C987 C988 1.366 . S
C987 C989 1.388 . S
C988 C987 1.366 . S
C988 C992 1.385 . S
C989 H964 0.951 . S
C989 C987 1.388 . S
C989 C990 1.366 . S
C990 C989 1.366 . S
C990 C991 1.414 . S
C990 C993 1.499 . S
C991 H965 0.950 . S
C991 C990 1.414 . S
C991 C992 1.374 . S
C992 H966 0.950 . S
C992 C988 1.385 . S
C992 C991 1.374 . S
C993 C990 1.499 . S
C993 C994 1.373 . S
C993 C995 1.389 . S
C994 H967 0.950 . S
C994 C980 1.377 . S
C994 C993 1.373 . S
C995 C979 1.377 . S
C995 C993 1.389 . S
C995 C996 1.524 . S
C996 C995 1.524 . S
C996 C997 1.397 . S
C996 C1001 1.363 . S
C997 H968 0.950 . S
C997 C996 1.397 . S
C997 C998 1.334 . S
C998 H969 0.950 . S
C998 C997 1.334 . S
C998 C999 1.287 . S
C999 C998 1.287 . S
C999 C1000 1.524 . S
C999 H1002 0.999 . S
C1000 H970 0.950 . S
C1000 C999 1.524 . S
C1000 C1001 1.415 . S
C1001 H971 0.950 . S
C1001 C996 1.363 . S
C1001 C1000 1.415 . S
H1002 C999 0.999 . S
H1003 C984 0.913 . S
H1004 C1022 0.951 . S
H1005 C1024 0.951 . S
H1006 C1026 0.950 . S
H1007 C1027 0.950 . S
H1008 C1029 0.950 . S
H1009 C1032 0.950 . S
H1010 C1033 0.950 . S
H1011 C1035 0.950 . S
H1012 C1036 0.950 . S
H1013 C1037 0.951 . S
H1014 C1039 0.951 . S
H1015 C1041 0.950 . S
H1016 C1042 0.950 . S
H1017 C1044 0.950 . S
H1018 C1047 0.950 . S
H1019 C1048 0.950 . S
H1020 C1050 0.950 . S
H1021 C1051 0.950 . S
C1022 H1004 0.951 . S
C1022 C1023 1.366 . S
C1022 C1024 1.388 . S
C1023 C1022 1.366 . S
C1023 C1027 1.385 . S
C1024 H1005 0.951 . S
C1024 C1022 1.388 . S
C1024 C1025 1.366 . S
C1025 C1024 1.366 . S
C1025 C1026 1.414 . S
C1025 C1028 1.499 . S
C1026 H1006 0.950 . S
C1026 C1025 1.414 . S
C1026 C1027 1.374 . S
C1027 H1007 0.950 . S
C1027 C1023 1.385 . S
C1027 C1026 1.374 . S
C1028 C1025 1.499 . S
C1028 C1029 1.373 . S
C1028 C1030 1.389 . S
C1029 H1008 0.950 . S
C1029 C1028 1.373 . S
C1029 C1045 1.377 . S
C1030 C1028 1.389 . S
C1030 C1031 1.524 . S
C1030 C1044 1.377 . S
C1031 C1030 1.524 . S
C1031 C1032 1.397 . S
C1031 C1036 1.363 . S
C1032 H1009 0.950 . S
C1032 C1031 1.397 . S
C1032 C1033 1.334 . S
C1033 H1010 0.950 . S
C1033 C1032 1.334 . S
C1033 C1034 1.287 . S
C1034 C1033 1.287 . S
C1034 C1035 1.524 . S
C1034 H1053 0.913 . S
C1035 H1011 0.950 . S
C1035 C1034 1.524 . S
C1035 C1036 1.415 . S
C1036 H1012 0.950 . S
C1036 C1031 1.363 . S
C1036 C1035 1.415 . S
C1037 H1013 0.951 . S
C1037 C1038 1.366 . S
C1037 C1039 1.388 . S
C1038 C1037 1.366 . S
C1038 C1042 1.385 . S
C1039 H1014 0.951 . S
C1039 C1037 1.388 . S
C1039 C1040 1.366 . S
C1040 C1039 1.366 . S
C1040 C1041 1.414 . S
C1040 C1043 1.499 . S
C1041 H1015 0.950 . S
C1041 C1040 1.414 . S
C1041 C1042 1.374 . S
C1042 H1016 0.950 . S
C1042 C1038 1.385 . S
C1042 C1041 1.374 . S
C1043 C1040 1.499 . S
C1043 C1044 1.373 . S
C1043 C1045 1.389 . S
C1044 H1017 0.950 . S
C1044 C1030 1.377 . S
C1044 C1043 1.373 . S
C1045 C1029 1.377 . S
C1045 C1043 1.389 . S
C1045 C1046 1.524 . S
C1046 C1045 1.524 . S
C1046 C1047 1.397 . S
C1046 C1051 1.363 . S
C1047 H1018 0.950 . S
C1047 C1046 1.397 . S
C1047 C1048 1.334 . S
C1048 H1019 0.950 . S
C1048 C1047 1.334 . S
C1048 C1049 1.287 . S
C1049 C1048 1.287 . S
C1049 C1050 1.524 1_554 S
C1049 H1052 0.999 1_554 S
C1050 H1020 0.950 . S
C1050 C1049 1.524 1_556 S
C1050 C1051 1.415 1_556 S
C1051 H1021 0.950 . S
C1051 C1046 1.363 . S
C1051 C1050 1.415 1_554 S
H1052 C1049 0.999 1_556 S
H1053 C1034 0.913 . S
H1054 C1072 0.951 . S
H1055 C1074 0.951 . S
H1056 C1076 0.950 . S
H1057 C1077 0.950 . S
H1058 C1079 0.950 . S
H1059 C1082 0.950 . S
H1060 C1083 0.950 1_556 S
H1061 C1085 0.950 1_556 S
H1062 C1086 0.950 . S
H1063 C1087 0.951 . S
H1064 C1089 0.951 . S
H1065 C1091 0.950 . S
H1066 C1092 0.950 . S
H1067 C1094 0.950 . S
H1068 C1097 0.950 . S
H1069 C1098 0.950 . S
H1070 C1100 0.950 . S
H1071 C1101 0.950 . S
C1072 H1054 0.951 . S
C1072 C1073 1.366 . S
C1072 C1074 1.388 . S
C1073 C1072 1.366 . S
C1073 C1077 1.385 . S
C1074 H1055 0.951 . S
C1074 C1072 1.388 . S
C1074 C1075 1.366 . S
C1075 C1074 1.366 . S
C1075 C1076 1.414 . S
C1075 C1078 1.499 . S
C1076 H1056 0.950 . S
C1076 C1075 1.414 . S
C1076 C1077 1.374 . S
C1077 H1057 0.950 . S
C1077 C1073 1.385 . S
C1077 C1076 1.374 . S
C1078 C1075 1.499 . S
C1078 C1079 1.373 . S
C1078 C1080 1.389 . S
C1079 H1058 0.950 . S
C1079 C1078 1.373 . S
C1079 C1095 1.377 . S
C1080 C1078 1.389 . S
C1080 C1081 1.524 . S
C1080 C1094 1.377 . S
C1081 C1080 1.524 . S
C1081 C1082 1.397 . S
C1081 C1086 1.363 . S
C1082 H1059 0.950 . S
C1082 C1081 1.397 . S
C1082 C1083 1.334 . S
C1083 H1060 0.950 1_554 S
C1083 C1082 1.334 . S
C1083 C1084 1.287 1_554 S
C1084 C1083 1.287 1_556 S
C1084 C1085 1.524 1_556 S
C1084 H1103 0.913 . S
C1085 H1061 0.950 1_554 S
C1085 C1084 1.524 1_554 S
C1085 C1086 1.415 . S
C1086 H1062 0.950 . S
C1086 C1081 1.363 . S
C1086 C1085 1.415 . S
C1087 H1063 0.951 . S
C1087 C1088 1.366 . S
C1087 C1089 1.388 . S
C1088 C1087 1.366 . S
C1088 C1092 1.385 . S
C1089 H1064 0.951 . S
C1089 C1087 1.388 . S
C1089 C1090 1.366 . S
C1090 C1089 1.366 . S
C1090 C1091 1.414 . S
C1090 C1093 1.499 . S
C1091 H1065 0.950 . S
C1091 C1090 1.414 . S
C1091 C1092 1.374 . S
C1092 H1066 0.950 . S
C1092 C1088 1.385 . S
C1092 C1091 1.374 . S
C1093 C1090 1.499 . S
C1093 C1094 1.373 . S
C1093 C1095 1.389 . S
C1094 H1067 0.950 . S
C1094 C1080 1.377 . S
C1094 C1093 1.373 . S
C1095 C1079 1.377 . S
C1095 C1093 1.389 . S
C1095 C1096 1.524 . S
C1096 C1095 1.524 . S
C1096 C1097 1.397 . S
C1096 C1101 1.363 . S
C1097 H1068 0.950 . S
C1097 C1096 1.397 . S
C1097 C1098 1.334 . S
C1098 H1069 0.950 . S
C1098 C1097 1.334 . S
C1098 C1099 1.287 . S
C1099 C1098 1.287 . S
C1099 C1100 1.524 . S
C1099 H1102 0.999 . S
C1100 H1070 0.950 . S
C1100 C1099 1.524 . S
C1100 C1101 1.415 . S
C1101 H1071 0.950 . S
C1101 C1096 1.363 . S
C1101 C1100 1.415 . S
H1102 C1099 0.999 . S
H1103 C1084 0.913 . S
H1104 C1122 0.951 . S
H1105 C1124 0.951 . S
H1106 C1126 0.950 . S
H1107 C1127 0.950 . S
H1108 C1129 0.950 . S
H1109 C1132 0.944 1_554 S
H1110 C1133 0.950 . S
H1111 C1135 0.950 . S
H1112 C1136 0.950 . S
H1113 C1137 0.956 . S
H1114 C1139 0.951 . S
H1115 C1141 0.950 . S
H1116 C1142 0.950 . S
H1117 C1144 0.950 . S
H1118 C1147 0.950 . S
H1119 C1148 0.950 . S
H1120 C1150 0.950 . S
H1121 C1151 0.950 . S
C1122 H1104 0.951 . S
C1122 C1123 1.366 . S
C1122 C1124 1.388 . S
C1123 C1122 1.366 . S
C1123 C1127 1.385 . S
C1124 H1105 0.951 . S
C1124 C1122 1.388 . S
C1124 C1125 1.366 . S
C1125 C1124 1.366 . S
C1125 C1126 1.414 . S
C1125 C1128 1.499 . S
C1126 H1106 0.950 . S
C1126 C1125 1.414 . S
C1126 C1127 1.374 . S
C1127 H1107 0.950 . S
C1127 C1123 1.385 . S
C1127 C1126 1.374 . S
C1128 C1125 1.499 . S
C1128 C1129 1.373 . S
C1128 C1130 1.389 . S
C1129 H1108 0.950 . S
C1129 C1128 1.373 . S
C1129 C1145 1.377 . S
C1130 C1128 1.389 . S
C1130 C1131 1.524 . S
C1130 C1144 1.377 . S
C1131 C1130 1.524 . S
C1131 C1132 1.397 . S
C1131 C1136 1.363 . S
C1132 H1109 0.944 1_556 S
C1132 C1131 1.397 . S
C1132 C1133 1.334 1_556 S
C1133 H1110 0.950 . S
C1133 C1132 1.334 1_554 S
C1133 C1134 1.287 . S
C1134 C1133 1.287 . S
C1134 C1135 1.524 1_554 S
C1134 H1153 0.913 . S
C1135 H1111 0.950 . S
C1135 C1134 1.524 1_556 S
C1135 C1136 1.415 . S
C1136 H1112 0.950 . S
C1136 C1131 1.363 . S
C1136 C1135 1.415 . S
C1137 H1113 0.956 . S
C1137 C1138 1.364 1_554 S
C1137 C1139 1.385 1_554 S
C1138 C1137 1.364 1_556 S
C1138 C1142 1.385 . S
C1139 H1114 0.951 . S
C1139 C1137 1.385 1_556 S
C1139 C1140 1.366 . S
C1140 C1139 1.366 . S
C1140 C1141 1.414 . S
C1140 C1143 1.499 . S
C1141 H1115 0.950 . S
C1141 C1140 1.414 . S
C1141 C1142 1.374 . S
C1142 H1116 0.950 . S
C1142 C1138 1.385 . S
C1142 C1141 1.374 . S
C1143 C1140 1.499 . S
C1143 C1144 1.373 . S
C1143 C1145 1.389 . S
C1144 H1117 0.950 . S
C1144 C1130 1.377 . S
C1144 C1143 1.373 . S
C1145 C1129 1.377 . S
C1145 C1143 1.389 . S
C1145 C1146 1.524 . S
C1146 C1145 1.524 . S
C1146 C1147 1.397 . S
C1146 C1151 1.363 . S
C1147 H1118 0.950 . S
C1147 C1146 1.397 . S
C1147 C1148 1.334 . S
C1148 H1119 0.950 . S
C1148 C1147 1.334 . S
C1148 C1149 1.287 . S
C1149 C1148 1.287 . S
C1149 C1150 1.524 . S
C1149 H1152 0.999 . S
C1150 H1120 0.950 . S
C1150 C1149 1.524 . S
C1150 C1151 1.415 . S
C1151 H1121 0.950 . S
C1151 C1146 1.363 . S
C1151 C1150 1.415 . S
H1152 C1149 0.999 . S
H1153 C1134 0.913 . S
H1154 C1172 0.951 . S
H1155 C1174 0.951 . S
H1156 C1176 0.950 . S
H1157 C1177 0.950 . S
H1158 C1179 0.950 . S
H1159 C1182 0.950 . S
H1160 C1183 0.950 . S
H1161 C1185 0.950 . S
H1162 C1186 0.950 . S
H1163 C1187 0.951 . S
H1164 C1189 0.951 . S
H1165 C1191 0.950 . S
H1166 C1192 0.950 . S
H1167 C1194 0.950 . S
H1168 C1197 0.950 . S
H1169 C1198 0.950 . S
H1170 C1200 0.950 . S
H1171 C1201 0.950 . S
C1172 H1154 0.951 . S
C1172 C1173 1.366 . S
C1172 C1174 1.388 . S
C1173 C1172 1.366 . S
C1173 C1177 1.385 . S
C1174 H1155 0.951 . S
C1174 C1172 1.388 . S
C1174 C1175 1.366 . S
C1175 C1174 1.366 . S
C1175 C1176 1.414 . S
C1175 C1178 1.499 . S
C1176 H1156 0.950 . S
C1176 C1175 1.414 . S
C1176 C1177 1.374 . S
C1177 H1157 0.950 . S
C1177 C1173 1.385 . S
C1177 C1176 1.374 . S
C1178 C1175 1.499 . S
C1178 C1179 1.373 . S
C1178 C1180 1.389 . S
C1179 H1158 0.950 . S
C1179 C1178 1.373 . S
C1179 C1195 1.377 . S
C1180 C1178 1.389 . S
C1180 C1181 1.524 . S
C1180 C1194 1.377 . S
C1181 C1180 1.524 . S
C1181 C1182 1.397 . S
C1181 C1186 1.363 1_556 S
C1182 H1159 0.950 . S
C1182 C1181 1.397 . S
C1182 C1183 1.334 . S
C1183 H1160 0.950 . S
C1183 C1182 1.334 . S
C1183 C1184 1.287 1_556 S
C1184 C1183 1.287 1_554 S
C1184 C1185 1.524 . S
C1184 H1203 0.913 . S
C1185 H1161 0.950 . S
C1185 C1184 1.524 . S
C1185 C1186 1.415 . S
C1186 H1162 0.950 . S
C1186 C1181 1.363 1_554 S
C1186 C1185 1.415 . S
C1187 H1163 0.951 . S
C1187 C1188 1.366 . S
C1187 C1189 1.388 . S
C1188 C1187 1.366 . S
C1188 C1192 1.385 1_556 S
C1189 H1164 0.951 . S
C1189 C1187 1.388 . S
C1189 C1190 1.366 . S
C1190 C1189 1.366 . S
C1190 C1191 1.414 1_556 S
C1190 C1193 1.499 . S
C1191 H1165 0.950 . S
C1191 C1190 1.414 1_554 S
C1191 C1192 1.374 . S
C1192 H1166 0.950 . S
C1192 C1188 1.385 1_554 S
C1192 C1191 1.374 . S
C1193 C1190 1.499 . S
C1193 C1194 1.373 . S
C1193 C1195 1.389 . S
C1194 H1167 0.950 . S
C1194 C1180 1.377 . S
C1194 C1193 1.373 . S
C1195 C1179 1.377 . S
C1195 C1193 1.389 . S
C1195 C1196 1.524 . S
C1196 C1195 1.524 . S
C1196 C1197 1.397 . S
C1196 C1201 1.363 . S
C1197 H1168 0.950 . S
C1197 C1196 1.397 . S
C1197 C1198 1.334 . S
C1198 H1169 0.950 . S
C1198 C1197 1.334 . S
C1198 C1199 1.287 . S
C1199 C1198 1.287 . S
C1199 C1200 1.524 . S
C1199 H1202 0.999 . S
C1200 H1170 0.950 . S
C1200 C1199 1.524 . S
C1200 C1201 1.415 . S
C1201 H1171 0.950 . S
C1201 C1196 1.363 . S
C1201 C1200 1.415 . S
H1202 C1199 0.999 . S
H1203 C1184 0.913 . S
H1204 C1222 0.951 . S
H1205 C1224 0.951 . S
H1206 C1226 0.950 . S
H1207 C1227 0.950 . S
H1208 C1229 0.950 . S
H1209 C1232 0.950 . S
H1210 C1233 0.950 . S
H1211 C1235 0.950 . S
H1212 C1236 0.950 . S
H1213 C1237 0.951 . S
H1214 C1239 0.951 . S
H1215 C1241 0.950 . S
H1216 C1242 0.950 . S
H1217 C1244 0.950 . S
H1218 C1247 0.950 1_556 S
H1219 C1248 0.950 . S
H1220 C1250 0.950 . S
H1221 C1251 0.950 . S
C1222 H1204 0.951 . S
C1222 C1223 1.366 . S
C1222 C1224 1.388 . S
C1223 C1222 1.366 . S
C1223 C1227 1.385 . S
C1224 H1205 0.951 . S
C1224 C1222 1.388 . S
C1224 C1225 1.366 . S
C1225 C1224 1.366 . S
C1225 C1226 1.414 . S
C1225 C1228 1.499 . S
C1226 H1206 0.950 . S
C1226 C1225 1.414 . S
C1226 C1227 1.374 . S
C1227 H1207 0.950 . S
C1227 C1223 1.385 . S
C1227 C1226 1.374 . S
C1228 C1225 1.499 . S
C1228 C1229 1.373 . S
C1228 C1230 1.389 . S
C1229 H1208 0.950 . S
C1229 C1228 1.373 . S
C1229 C1245 1.377 . S
C1230 C1228 1.389 . S
C1230 C1231 1.524 . S
C1230 C1244 1.377 . S
C1231 C1230 1.524 . S
C1231 C1232 1.397 . S
C1231 C1236 1.363 . S
C1232 H1209 0.950 . S
C1232 C1231 1.397 . S
C1232 C1233 1.334 . S
C1233 H1210 0.950 . S
C1233 C1232 1.334 . S
C1233 C1234 1.287 . S
C1234 C1233 1.287 . S
C1234 C1235 1.524 . S
C1234 H1253 0.913 . S
C1235 H1211 0.950 . S
C1235 C1234 1.524 . S
C1235 C1236 1.415 . S
C1236 H1212 0.950 . S
C1236 C1231 1.363 . S
C1236 C1235 1.415 . S
C1237 H1213 0.951 . S
C1237 C1238 1.366 1_554 S
C1237 C1239 1.388 . S
C1238 C1237 1.366 1_556 S
C1238 C1242 1.385 . S
C1239 H1214 0.951 . S
C1239 C1237 1.388 . S
C1239 C1240 1.366 1_554 S
C1240 C1239 1.366 1_556 S
C1240 C1241 1.414 . S
C1240 C1243 1.499 . S
C1241 H1215 0.950 . S
C1241 C1240 1.414 . S
C1241 C1242 1.374 . S
C1242 H1216 0.950 . S
C1242 C1238 1.385 . S
C1242 C1241 1.374 . S
C1243 C1240 1.499 . S
C1243 C1244 1.373 . S
C1243 C1245 1.389 . S
C1244 H1217 0.950 . S
C1244 C1230 1.377 . S
C1244 C1243 1.373 . S
C1245 C1229 1.377 . S
C1245 C1243 1.389 . S
C1245 C1246 1.524 1_556 S
C1246 C1245 1.524 1_554 S
C1246 C1247 1.397 . S
C1246 C1251 1.363 . S
C1247 H1218 0.950 1_554 S
C1247 C1246 1.397 . S
C1247 C1248 1.334 . S
C1248 H1219 0.950 . S
C1248 C1247 1.334 . S
C1248 C1249 1.287 . S
C1249 C1248 1.287 . S
C1249 C1250 1.524 . S
C1249 H1252 0.999 . S
C1250 H1220 0.950 . S
C1250 C1249 1.524 . S
C1250 C1251 1.415 . S
C1251 H1221 0.950 . S
C1251 C1246 1.363 . S
C1251 C1250 1.415 . S
H1252 C1249 0.999 . S
H1253 C1234 0.913 . S
H1254 C1272 0.951 . S
H1255 C1274 0.951 . S
H1256 C1276 0.950 . S
H1257 C1277 0.950 . S
H1258 C1279 0.950 . S
H1259 C1282 0.950 . S
H1260 C1283 0.950 . S
H1261 C1285 0.950 . S
H1262 C1286 0.950 . S
H1263 C1287 0.951 . S
H1264 C1289 0.951 . S
H1265 C1291 0.950 . S
H1266 C1292 0.950 . S
H1267 C1294 0.950 . S
H1268 C1297 0.950 . S
H1269 C1298 0.950 . S
H1270 C1300 0.950 . S
H1271 C1301 0.950 . S
C1272 H1254 0.951 . S
C1272 C1273 1.366 . S
C1272 C1274 1.388 . S
C1273 C1272 1.366 . S
C1273 C1277 1.385 . S
C1274 H1255 0.951 . S
C1274 C1272 1.388 . S
C1274 C1275 1.366 . S
C1275 C1274 1.366 . S
C1275 C1276 1.414 . S
C1275 C1278 1.499 . S
C1276 H1256 0.950 . S
C1276 C1275 1.414 . S
C1276 C1277 1.374 . S
C1277 H1257 0.950 . S
C1277 C1273 1.385 . S
C1277 C1276 1.374 . S
C1278 C1275 1.499 . S
C1278 C1279 1.373 . S
C1278 C1280 1.389 . S
C1279 H1258 0.950 . S
C1279 C1278 1.373 . S
C1279 C1295 1.377 . S
C1280 C1278 1.389 . S
C1280 C1281 1.524 . S
C1280 C1294 1.377 . S
C1281 C1280 1.524 . S
C1281 C1282 1.397 . S
C1281 C1286 1.363 . S
C1282 H1259 0.950 . S
C1282 C1281 1.397 . S
C1282 C1283 1.334 . S
C1283 H1260 0.950 . S
C1283 C1282 1.334 . S
C1283 C1284 1.287 . S
C1284 C1283 1.287 . S
C1284 C1285 1.524 . S
C1284 H1303 0.913 . S
C1285 H1261 0.950 . S
C1285 C1284 1.524 . S
C1285 C1286 1.415 . S
C1286 H1262 0.950 . S
C1286 C1281 1.363 . S
C1286 C1285 1.415 . S
C1287 H1263 0.951 . S
C1287 C1288 1.366 1_554 S
C1287 C1289 1.388 . S
C1288 C1287 1.366 1_556 S
C1288 C1292 1.385 . S
C1289 H1264 0.951 . S
C1289 C1287 1.388 . S
C1289 C1290 1.366 1_554 S
C1290 C1289 1.366 1_556 S
C1290 C1291 1.414 . S
C1290 C1293 1.499 . S
C1291 H1265 0.950 . S
C1291 C1290 1.414 . S
C1291 C1292 1.374 . S
C1292 H1266 0.950 . S
C1292 C1288 1.385 . S
C1292 C1291 1.374 . S
C1293 C1290 1.499 . S
C1293 C1294 1.373 . S
C1293 C1295 1.389 . S
C1294 H1267 0.950 . S
C1294 C1280 1.377 . S
C1294 C1293 1.373 . S
C1295 C1279 1.377 . S
C1295 C1293 1.389 . S
C1295 C1296 1.524 1_556 S
C1296 C1295 1.524 1_554 S
C1296 C1297 1.397 1_554 S
C1296 C1301 1.363 . S
C1297 H1268 0.950 . S
C1297 C1296 1.397 1_556 S
C1297 C1298 1.334 1_556 S
C1298 H1269 0.950 . S
C1298 C1297 1.334 1_554 S
C1298 C1299 1.287 . S
C1299 C1298 1.287 . S
C1299 C1300 1.524 . S
C1299 H1302 0.999 . S
C1300 H1270 0.950 . S
C1300 C1299 1.524 . S
C1300 C1301 1.415 . S
C1301 H1271 0.950 . S
C1301 C1296 1.363 . S
C1301 C1300 1.415 . S
H1302 C1299 0.999 . S
H1303 C1284 0.913 . S
H1304 C1322 0.951 . S
H1305 C1324 0.951 . S
H1306 C1326 0.950 . S
H1307 C1327 0.950 . S
H1308 C1329 0.950 . S
H1309 C1332 0.960 . S
H1310 C1333 0.950 . S
H1311 C1335 0.950 . S
H1312 C1336 0.950 . S
H1313 C1337 0.922 1_554 S
H1314 C1339 0.951 . S
H1315 C1341 0.950 . S
H1316 C1342 0.950 . S
H1317 C1344 0.950 . S
H1318 C1347 0.950 . S
H1319 C1348 0.950 . S
H1320 C1350 0.950 . S
H1321 C1351 0.950 . S
C1322 H1304 0.951 . S
C1322 C1323 1.366 . S
C1322 C1324 1.388 . S
C1323 C1322 1.366 . S
C1323 C1327 1.385 . S
C1324 H1305 0.951 . S
C1324 C1322 1.388 . S
C1324 C1325 1.366 . S
C1325 C1324 1.366 . S
C1325 C1326 1.414 . S
C1325 C1328 1.499 . S
C1326 H1306 0.950 . S
C1326 C1325 1.414 . S
C1326 C1327 1.374 . S
C1327 H1307 0.950 . S
C1327 C1323 1.385 . S
C1327 C1326 1.374 . S
C1328 C1325 1.499 . S
C1328 C1329 1.373 . S
C1328 C1330 1.389 . S
C1329 H1308 0.950 . S
C1329 C1328 1.373 . S
C1329 C1345 1.377 . S
C1330 C1328 1.389 . S
C1330 C1331 1.524 . S
C1330 C1344 1.377 . S
C1331 C1330 1.524 . S
C1331 C1332 1.358 1_556 S
C1331 C1336 1.363 . S
C1332 H1309 0.960 . S
C1332 C1331 1.358 1_554 S
C1332 C1333 1.367 . S
C1333 H1310 0.950 . S
C1333 C1332 1.367 . S
C1333 C1334 1.287 . S
C1334 C1333 1.287 . S
C1334 C1335 1.524 1_554 S
C1334 H1353 0.913 . S
C1335 H1311 0.950 . S
C1335 C1334 1.524 1_556 S
C1335 C1336 1.415 . S
C1336 H1312 0.950 . S
C1336 C1331 1.363 . S
C1336 C1335 1.415 . S
C1337 H1313 0.922 1_556 S
C1337 C1338 1.377 . S
C1337 C1339 1.410 . S
C1338 C1337 1.377 . S
C1338 C1342 1.385 . S
C1339 H1314 0.951 . S
C1339 C1337 1.410 . S
C1339 C1340 1.366 . S
C1340 C1339 1.366 . S
C1340 C1341 1.414 . S
C1340 C1343 1.499 . S
C1341 H1315 0.950 . S
C1341 C1340 1.414 . S
C1341 C1342 1.374 . S
C1342 H1316 0.950 . S
C1342 C1338 1.385 . S
C1342 C1341 1.374 . S
C1343 C1340 1.499 . S
C1343 C1344 1.373 . S
C1343 C1345 1.389 . S
C1344 H1317 0.950 . S
C1344 C1330 1.377 . S
C1344 C1343 1.373 . S
C1345 C1329 1.377 . S
C1345 C1343 1.389 . S
C1345 C1346 1.524 . S
C1346 C1345 1.524 . S
C1346 C1347 1.397 . S
C1346 C1351 1.363 . S
C1347 H1318 0.950 . S
C1347 C1346 1.397 . S
C1347 C1348 1.334 . S
C1348 H1319 0.950 . S
C1348 C1347 1.334 . S
C1348 C1349 1.287 . S
C1349 C1348 1.287 . S
C1349 C1350 1.524 . S
C1349 H1352 0.999 . S
C1350 H1320 0.950 . S
C1350 C1349 1.524 . S
C1350 C1351 1.415 . S
C1351 H1321 0.950 . S
C1351 C1346 1.363 . S
C1351 C1350 1.415 . S
H1352 C1349 0.999 . S
H1353 C1334 0.913 . S
H1354 C1372 0.951 . S
H1355 C1374 0.951 . S
H1356 C1376 0.950 . S
H1357 C1377 0.950 . S
H1358 C1379 0.950 1_554 S
H1359 C1382 0.950 . S
H1360 C1383 0.950 . S
H1361 C1385 0.950 . S
H1362 C1386 0.950 . S
H1363 C1387 0.951 . S
H1364 C1389 0.953 1_554 S
H1365 C1391 0.950 . S
H1366 C1392 0.950 . S
H1367 C1394 0.950 . S
H1368 C1397 0.950 . S
H1369 C1398 0.950 . S
H1370 C1400 0.950 . S
H1371 C1401 0.950 . S
C1372 H1354 0.951 . S
C1372 C1373 1.366 . S
C1372 C1374 1.388 . S
C1373 C1372 1.366 . S
C1373 C1377 1.385 . S
C1374 H1355 0.951 . S
C1374 C1372 1.388 . S
C1374 C1375 1.366 . S
C1375 C1374 1.366 . S
C1375 C1376 1.414 . S
C1375 C1378 1.499 . S
C1376 H1356 0.950 . S
C1376 C1375 1.414 . S
C1376 C1377 1.374 . S
C1377 H1357 0.950 . S
C1377 C1373 1.385 . S
C1377 C1376 1.374 . S
C1378 C1375 1.499 . S
C1378 C1379 1.373 . S
C1378 C1380 1.389 . S
C1379 H1358 0.950 1_556 S
C1379 C1378 1.373 . S
C1379 C1395 1.397 . S
C1380 C1378 1.389 . S
C1380 C1381 1.524 . S
C1380 C1394 1.377 . S
C1381 C1380 1.524 . S
C1381 C1382 1.397 . S
C1381 C1386 1.363 . S
C1382 H1359 0.950 . S
C1382 C1381 1.397 . S
C1382 C1383 1.334 . S
C1383 H1360 0.950 . S
C1383 C1382 1.334 . S
C1383 C1384 1.287 . S
C1384 C1383 1.287 . S
C1384 C1385 1.524 . S
C1384 H1403 0.913 . S
C1385 H1361 0.950 . S
C1385 C1384 1.524 . S
C1385 C1386 1.415 . S
C1386 H1362 0.950 . S
C1386 C1381 1.363 . S
C1386 C1385 1.415 . S
C1387 H1363 0.951 . S
C1387 C1388 1.355 1_554 S
C1387 C1389 1.389 1_554 S
C1388 C1387 1.355 1_556 S
C1388 C1392 1.407 . S
C1389 H1364 0.953 1_556 S
C1389 C1387 1.389 1_556 S
C1389 C1390 1.362 . S
C1390 C1389 1.362 . S
C1390 C1391 1.414 . S
C1390 C1393 1.499 . S
C1391 H1365 0.950 . S
C1391 C1390 1.414 . S
C1391 C1392 1.374 . S
C1392 H1366 0.950 . S
C1392 C1388 1.407 . S
C1392 C1391 1.374 . S
C1393 C1390 1.499 . S
C1393 C1394 1.373 . S
C1393 C1395 1.437 . S
C1394 H1367 0.950 . S
C1394 C1380 1.377 . S
C1394 C1393 1.373 . S
C1395 C1379 1.397 . S
C1395 C1393 1.437 . S
C1395 C1396 1.456 1_556 S
C1396 C1395 1.456 1_554 S
C1396 C1397 1.397 . S
C1396 C1401 1.363 . S
C1397 H1368 0.950 . S
C1397 C1396 1.397 . S
C1397 C1398 1.334 . S
C1398 H1369 0.950 . S
C1398 C1397 1.334 . S
C1398 C1399 1.287 . S
C1399 C1398 1.287 . S
C1399 C1400 1.524 . S
C1399 H1402 0.999 . S
C1400 H1370 0.950 . S
C1400 C1399 1.524 . S
C1400 C1401 1.415 . S
C1401 H1371 0.950 . S
C1401 C1396 1.363 . S
C1401 C1400 1.415 . S
H1402 C1399 0.999 . S
H1403 C1384 0.913 . S
H1404 C1422 0.951 . S
H1405 C1424 0.951 . S
H1406 C1426 0.950 . S
H1407 C1427 0.950 . S
H1408 C1429 0.950 . S
H1409 C1432 0.950 . S
H1410 C1433 0.950 . S
H1411 C1435 0.950 . S
H1412 C1436 0.950 . S
H1413 C1437 0.951 . S
H1414 C1439 0.951 . S
H1415 C1441 0.950 . S
H1416 C1442 0.950 . S
H1417 C1444 0.950 . S
H1418 C1447 0.950 . S
H1419 C1448 0.950 . S
H1420 C1450 0.950 . S
H1421 C1451 0.962 . S
C1422 H1404 0.951 . S
C1422 C1423 1.366 . S
C1422 C1424 1.388 . S
C1423 C1422 1.366 . S
C1423 C1427 1.385 . S
C1424 H1405 0.951 . S
C1424 C1422 1.388 . S
C1424 C1425 1.366 . S
C1425 C1424 1.366 . S
C1425 C1426 1.414 . S
C1425 C1428 1.499 . S
C1426 H1406 0.950 . S
C1426 C1425 1.414 . S
C1426 C1427 1.374 . S
C1427 H1407 0.950 . S
C1427 C1423 1.385 . S
C1427 C1426 1.374 . S
C1428 C1425 1.499 . S
C1428 C1429 1.373 . S
C1428 C1430 1.389 . S
C1429 H1408 0.950 . S
C1429 C1428 1.373 . S
C1429 C1445 1.377 . S
C1430 C1428 1.389 . S
C1430 C1431 1.524 . S
C1430 C1444 1.377 . S
C1431 C1430 1.524 . S
C1431 C1432 1.397 . S
C1431 C1436 1.363 . S
C1432 H1409 0.950 . S
C1432 C1431 1.397 . S
C1432 C1433 1.334 . S
C1433 H1410 0.950 . S
C1433 C1432 1.334 . S
C1433 C1434 1.287 . S
C1434 C1433 1.287 . S
C1434 C1435 1.524 . S
C1434 H1453 0.913 . S
C1435 H1411 0.950 . S
C1435 C1434 1.524 . S
C1435 C1436 1.415 . S
C1436 H1412 0.950 . S
C1436 C1431 1.363 . S
C1436 C1435 1.415 . S
C1437 H1413 0.951 . S
C1437 C1438 1.366 . S
C1437 C1439 1.388 . S
C1438 C1437 1.366 . S
C1438 C1442 1.385 . S
C1439 H1414 0.951 . S
C1439 C1437 1.388 . S
C1439 C1440 1.366 . S
C1440 C1439 1.366 . S
C1440 C1441 1.414 . S
C1440 C1443 1.499 . S
C1441 H1415 0.950 . S
C1441 C1440 1.414 . S
C1441 C1442 1.374 . S
C1442 H1416 0.950 . S
C1442 C1438 1.385 . S
C1442 C1441 1.374 . S
C1443 C1440 1.499 . S
C1443 C1444 1.373 . S
C1443 C1445 1.389 . S
C1444 H1417 0.950 . S
C1444 C1430 1.377 . S
C1444 C1443 1.373 . S
C1445 C1429 1.377 . S
C1445 C1443 1.389 . S
C1445 C1446 1.524 . S
C1446 C1445 1.524 . S
C1446 C1447 1.397 . S
C1446 C1451 1.309 1_554 S
C1447 H1418 0.950 . S
C1447 C1446 1.397 . S
C1447 C1448 1.334 . S
C1448 H1419 0.950 . S
C1448 C1447 1.334 . S
C1448 C1449 1.287 1_554 S
C1449 C1448 1.287 1_556 S
C1449 C1450 1.524 . S
C1449 H1452 0.999 . S
C1450 H1420 0.950 . S
C1450 C1449 1.524 . S
C1450 C1451 1.460 . S
C1451 H1421 0.962 . S
C1451 C1446 1.309 1_556 S
C1451 C1450 1.460 . S
H1452 C1449 0.999 . S
H1453 C1434 0.913 . S
H1454 C1472 0.951 . S
H1455 C1474 0.951 . S
H1456 C1476 0.950 . S
H1457 C1477 0.950 . S
H1458 C1479 0.950 . S
H1459 C1482 0.950 . S
H1460 C1483 0.950 . S
H1461 C1485 0.950 . S
H1462 C1486 0.950 . S
H1463 C1487 0.951 . S
H1464 C1489 0.951 . S
H1465 C1491 0.950 . S
H1466 C1492 0.950 . S
H1467 C1494 0.950 . S
H1468 C1497 0.974 . S
H1469 C1498 0.950 . S
H1470 C1500 0.950 . S
H1471 C1501 0.950 . S
C1472 H1454 0.951 . S
C1472 C1473 1.366 . S
C1472 C1474 1.388 . S
C1473 C1472 1.366 . S
C1473 C1477 1.385 . S
C1474 H1455 0.951 . S
C1474 C1472 1.388 . S
C1474 C1475 1.366 . S
C1475 C1474 1.366 . S
C1475 C1476 1.414 . S
C1475 C1478 1.499 . S
C1476 H1456 0.950 . S
C1476 C1475 1.414 . S
C1476 C1477 1.374 . S
C1477 H1457 0.950 . S
C1477 C1473 1.385 . S
C1477 C1476 1.374 . S
C1478 C1475 1.499 . S
C1478 C1479 1.373 . S
C1478 C1480 1.389 . S
C1479 H1458 0.950 . S
C1479 C1478 1.373 . S
C1479 C1495 1.377 . S
C1480 C1478 1.389 . S
C1480 C1481 1.524 . S
C1480 C1494 1.377 . S
C1481 C1480 1.524 . S
C1481 C1482 1.397 . S
C1481 C1486 1.363 . S
C1482 H1459 0.950 . S
C1482 C1481 1.397 . S
C1482 C1483 1.334 . S
C1483 H1460 0.950 . S
C1483 C1482 1.334 . S
C1483 C1484 1.287 . S
C1484 C1483 1.287 . S
C1484 C1485 1.524 . S
C1484 H1503 0.913 . S
C1485 H1461 0.950 . S
C1485 C1484 1.524 . S
C1485 C1486 1.415 . S
C1486 H1462 0.950 . S
C1486 C1481 1.363 . S
C1486 C1485 1.415 . S
C1487 H1463 0.951 . S
C1487 C1488 1.366 . S
C1487 C1489 1.388 . S
C1488 C1487 1.366 . S
C1488 C1492 1.385 . S
C1489 H1464 0.951 . S
C1489 C1487 1.388 . S
C1489 C1490 1.366 . S
C1490 C1489 1.366 . S
C1490 C1491 1.414 . S
C1490 C1493 1.499 . S
C1491 H1465 0.950 . S
C1491 C1490 1.414 . S
C1491 C1492 1.374 . S
C1492 H1466 0.950 . S
C1492 C1488 1.385 . S
C1492 C1491 1.374 . S
C1493 C1490 1.499 . S
C1493 C1494 1.373 . S
C1493 C1495 1.389 . S
C1494 H1467 0.950 . S
C1494 C1480 1.377 . S
C1494 C1493 1.373 . S
C1495 C1479 1.377 . S
C1495 C1493 1.389 . S
C1495 C1496 1.524 . S
C1496 C1495 1.524 . S
C1496 C1497 1.428 . S
C1496 C1501 1.363 . S
C1497 H1468 0.974 . S
C1497 C1496 1.428 . S
C1497 C1498 1.280 1_554 S
C1498 H1469 0.950 . S
C1498 C1497 1.280 1_556 S
C1498 C1499 1.287 . S
C1499 C1498 1.287 . S
C1499 C1500 1.524 . S
C1499 H1502 0.999 . S
C1500 H1470 0.950 . S
C1500 C1499 1.524 . S
C1500 C1501 1.415 1_556 S
C1501 H1471 0.950 . S
C1501 C1496 1.363 . S
C1501 C1500 1.415 1_554 S
H1502 C1499 0.999 . S
H1503 C1484 0.913 . S
H1504 C1522 0.951 . S
H1505 C1524 0.951 . S
H1506 C1526 0.950 . S
H1507 C1527 0.950 . S
H1508 C1529 0.950 . S
H1509 C1532 0.950 . S
H1510 C1533 0.949 1_554 S
H1511 C1535 0.950 . S
H1512 C1536 0.950 . S
H1513 C1537 0.951 . S
H1514 C1539 0.951 . S
H1515 C1541 0.950 . S
H1516 C1542 0.950 . S
H1517 C1544 0.950 . S
H1518 C1547 0.950 . S
H1519 C1548 0.950 . S
H1520 C1550 0.950 . S
H1521 C1551 0.950 . S
C1522 H1504 0.951 . S
C1522 C1523 1.366 . S
C1522 C1524 1.388 . S
C1523 C1522 1.366 . S
C1523 C1527 1.385 . S
C1524 H1505 0.951 . S
C1524 C1522 1.388 . S
C1524 C1525 1.366 . S
C1525 C1524 1.366 . S
C1525 C1526 1.414 . S
C1525 C1528 1.499 . S
C1526 H1506 0.950 . S
C1526 C1525 1.414 . S
C1526 C1527 1.374 . S
C1527 H1507 0.950 . S
C1527 C1523 1.385 . S
C1527 C1526 1.374 . S
C1528 C1525 1.499 . S
C1528 C1529 1.373 . S
C1528 C1530 1.389 . S
C1529 H1508 0.950 . S
C1529 C1528 1.373 . S
C1529 C1545 1.377 . S
C1530 C1528 1.389 . S
C1530 C1531 1.524 . S
C1530 C1544 1.377 . S
C1531 C1530 1.524 . S
C1531 C1532 1.397 . S
C1531 C1536 1.363 1_554 S
C1532 H1509 0.950 . S
C1532 C1531 1.397 . S
C1532 C1533 1.339 1_554 S
C1533 H1510 0.949 1_556 S
C1533 C1532 1.339 1_556 S
C1533 C1534 1.282 . S
C1534 C1533 1.282 . S
C1534 C1535 1.524 . S
C1534 H1553 0.913 . S
C1535 H1511 0.950 . S
C1535 C1534 1.524 . S
C1535 C1536 1.415 . S
C1536 H1512 0.950 . S
C1536 C1531 1.363 1_556 S
C1536 C1535 1.415 . S
C1537 H1513 0.951 . S
C1537 C1538 1.366 . S
C1537 C1539 1.388 . S
C1538 C1537 1.366 . S
C1538 C1542 1.385 . S
C1539 H1514 0.951 . S
C1539 C1537 1.388 . S
C1539 C1540 1.366 . S
C1540 C1539 1.366 . S
C1540 C1541 1.414 . S
C1540 C1543 1.499 . S
C1541 H1515 0.950 . S
C1541 C1540 1.414 . S
C1541 C1542 1.374 . S
C1542 H1516 0.950 . S
C1542 C1538 1.385 . S
C1542 C1541 1.374 . S
C1543 C1540 1.499 . S
C1543 C1544 1.373 . S
C1543 C1545 1.389 . S
C1544 H1517 0.950 . S
C1544 C1530 1.377 . S
C1544 C1543 1.373 . S
C1545 C1529 1.377 . S
C1545 C1543 1.389 . S
C1545 C1546 1.524 . S
C1546 C1545 1.524 . S
C1546 C1547 1.397 . S
C1546 C1551 1.363 . S
C1547 H1518 0.950 . S
C1547 C1546 1.397 . S
C1547 C1548 1.334 . S
C1548 H1519 0.950 . S
C1548 C1547 1.334 . S
C1548 C1549 1.287 . S
C1549 C1548 1.287 . S
C1549 C1550 1.524 . S
C1549 H1552 0.999 . S
C1550 H1520 0.950 . S
C1550 C1549 1.524 . S
C1550 C1551 1.415 . S
C1551 H1521 0.950 . S
C1551 C1546 1.363 . S
C1551 C1550 1.415 . S
H1552 C1549 0.999 . S
H1553 C1534 0.913 . S
H1554 C1572 0.951 . S
H1555 C1574 0.951 . S
H1556 C1576 0.950 . S
H1557 C1577 0.950 . S
H1558 C1579 0.950 . S
H1559 C1582 0.950 . S
H1560 C1583 0.950 . S
H1561 C1585 0.950 . S
H1562 C1586 0.950 . S
H1563 C1587 0.951 . S
H1564 C1589 0.951 . S
H1565 C1591 0.950 . S
H1566 C1592 0.950 . S
H1567 C1594 0.950 . S
H1568 C1597 0.950 . S
H1569 C1598 0.950 . S
H1570 C1600 0.950 . S
H1571 C1601 0.950 . S
C1572 H1554 0.951 . S
C1572 C1573 1.366 . S
C1572 C1574 1.388 . S
C1573 C1572 1.366 . S
C1573 C1577 1.385 . S
C1574 H1555 0.951 . S
C1574 C1572 1.388 . S
C1574 C1575 1.366 . S
C1575 C1574 1.366 . S
C1575 C1576 1.414 . S
C1575 C1578 1.499 . S
C1576 H1556 0.950 . S
C1576 C1575 1.414 . S
C1576 C1577 1.374 . S
C1577 H1557 0.950 . S
C1577 C1573 1.385 . S
C1577 C1576 1.374 . S
C1578 C1575 1.499 . S
C1578 C1579 1.373 1_655 S
C1578 C1580 1.389 . S
C1579 H1558 0.950 . S
C1579 C1578 1.373 1_455 S
C1579 C1595 1.377 . S
C1580 C1578 1.389 . S
C1580 C1581 1.524 . S
C1580 C1594 1.377 1_655 S
C1581 C1580 1.524 . S
C1581 C1582 1.397 . S
C1581 C1586 1.363 . S
C1582 H1559 0.950 . S
C1582 C1581 1.397 . S
C1582 C1583 1.334 . S
C1583 H1560 0.950 . S
C1583 C1582 1.334 . S
C1583 C1584 1.287 . S
C1584 C1583 1.287 . S
C1584 C1585 1.524 . S
C1584 H1603 0.913 . S
C1585 H1561 0.950 . S
C1585 C1584 1.524 . S
C1585 C1586 1.415 . S
C1586 H1562 0.950 . S
C1586 C1581 1.363 . S
C1586 C1585 1.415 . S
C1587 H1563 0.951 . S
C1587 C1588 1.366 . S
C1587 C1589 1.388 . S
C1588 C1587 1.366 . S
C1588 C1592 1.385 . S
C1589 H1564 0.951 . S
C1589 C1587 1.388 . S
C1589 C1590 1.366 . S
C1590 C1589 1.366 . S
C1590 C1591 1.414 . S
C1590 C1593 1.499 . S
C1591 H1565 0.950 . S
C1591 C1590 1.414 . S
C1591 C1592 1.374 . S
C1592 H1566 0.950 . S
C1592 C1588 1.385 . S
C1592 C1591 1.374 . S
C1593 C1590 1.499 . S
C1593 C1594 1.373 . S
C1593 C1595 1.389 . S
C1594 H1567 0.950 . S
C1594 C1580 1.377 1_455 S
C1594 C1593 1.373 . S
C1595 C1579 1.377 . S
C1595 C1593 1.389 . S
C1595 C1596 1.524 . S
C1596 C1595 1.524 . S
C1596 C1597 1.397 . S
C1596 C1601 1.363 . S
C1597 H1568 0.950 . S
C1597 C1596 1.397 . S
C1597 C1598 1.334 . S
C1598 H1569 0.950 . S
C1598 C1597 1.334 . S
C1598 C1599 1.287 . S
C1599 C1598 1.287 . S
C1599 C1600 1.524 . S
C1599 H1602 0.999 . S
C1600 H1570 0.950 . S
C1600 C1599 1.524 . S
C1600 C1601 1.415 . S
C1601 H1571 0.950 . S
C1601 C1596 1.363 . S
C1601 C1600 1.415 . S
H1602 C1599 0.999 . S
H1603 C1584 0.913 . S
H1604 C1622 0.951 . S
H1605 C1624 0.951 . S
H1606 C1626 0.950 . S
H1607 C1627 0.950 . S
H1608 C1629 0.950 . S
H1609 C1632 0.950 . S
H1610 C1633 0.950 . S
H1611 C1635 0.950 . S
H1612 C1636 0.950 . S
H1613 C1637 0.951 . S
H1614 C1639 0.951 . S
H1615 C1641 0.950 . S
H1616 C1642 0.950 . S
H1617 C1644 0.950 . S
H1618 C1647 0.950 . S
H1619 C1648 0.950 . S
H1620 C1650 0.950 . S
H1621 C1651 0.950 . S
C1622 H1604 0.951 . S
C1622 C1623 1.366 . S
C1622 C1624 1.388 . S
C1623 C1622 1.366 . S
C1623 C1627 1.385 . S
C1624 H1605 0.951 . S
C1624 C1622 1.388 . S
C1624 C1625 1.366 . S
C1625 C1624 1.366 . S
C1625 C1626 1.414 . S
C1625 C1628 1.499 . S
C1626 H1606 0.950 . S
C1626 C1625 1.414 . S
C1626 C1627 1.374 . S
C1627 H1607 0.950 . S
C1627 C1623 1.385 . S
C1627 C1626 1.374 . S
C1628 C1625 1.499 . S
C1628 C1629 1.373 . S
C1628 C1630 1.389 . S
C1629 H1608 0.950 . S
C1629 C1628 1.373 . S
C1629 C1645 1.377 . S
C1630 C1628 1.389 . S
C1630 C1631 1.524 . S
C1630 C1644 1.377 . S
C1631 C1630 1.524 . S
C1631 C1632 1.397 . S
C1631 C1636 1.363 . S
C1632 H1609 0.950 . S
C1632 C1631 1.397 . S
C1632 C1633 1.334 . S
C1633 H1610 0.950 . S
C1633 C1632 1.334 . S
C1633 C1634 1.287 . S
C1634 C1633 1.287 . S
C1634 C1635 1.524 . S
C1634 H1653 0.913 . S
C1635 H1611 0.950 . S
C1635 C1634 1.524 . S
C1635 C1636 1.415 . S
C1636 H1612 0.950 . S
C1636 C1631 1.363 . S
C1636 C1635 1.415 . S
C1637 H1613 0.951 . S
C1637 C1638 1.366 . S
C1637 C1639 1.388 . S
C1638 C1637 1.366 . S
C1638 C1642 1.385 . S
C1639 H1614 0.951 . S
C1639 C1637 1.388 . S
C1639 C1640 1.366 . S
C1640 C1639 1.366 . S
C1640 C1641 1.414 . S
C1640 C1643 1.499 . S
C1641 H1615 0.950 . S
C1641 C1640 1.414 . S
C1641 C1642 1.374 . S
C1642 H1616 0.950 . S
C1642 C1638 1.385 . S
C1642 C1641 1.374 . S
C1643 C1640 1.499 . S
C1643 C1644 1.373 . S
C1643 C1645 1.389 . S
C1644 H1617 0.950 . S
C1644 C1630 1.377 . S
C1644 C1643 1.373 . S
C1645 C1629 1.377 . S
C1645 C1643 1.389 . S
C1645 C1646 1.524 . S
C1646 C1645 1.524 . S
C1646 C1647 1.397 . S
C1646 C1651 1.363 . S
C1647 H1618 0.950 . S
C1647 C1646 1.397 . S
C1647 C1648 1.334 . S
C1648 H1619 0.950 . S
C1648 C1647 1.334 . S
C1648 C1649 1.287 . S
C1649 C1648 1.287 . S
C1649 C1650 1.524 . S
C1649 H1652 0.999 . S
C1650 H1620 0.950 . S
C1650 C1649 1.524 . S
C1650 C1651 1.415 . S
C1651 H1621 0.950 . S
C1651 C1646 1.363 . S
C1651 C1650 1.415 . S
H1652 C1649 0.999 . S
H1653 C1634 0.913 . S
H1654 C1672 0.951 . S
H1655 C1674 0.951 . S
H1656 C1676 0.950 . S
H1657 C1677 0.950 . S
H1658 C1679 0.950 . S
H1659 C1682 0.950 . S
H1660 C1683 0.950 . S
H1661 C1685 0.950 . S
H1662 C1686 0.950 . S
H1663 C1687 0.951 . S
H1664 C1689 0.951 . S
H1665 C1691 0.950 . S
H1666 C1692 0.950 . S
H1667 C1694 0.950 . S
H1668 C1697 0.950 . S
H1669 C1698 0.949 . S
H1670 C1700 0.950 . S
H1671 C1701 0.950 . S
C1672 H1654 0.951 . S
C1672 C1673 1.366 . S
C1672 C1674 1.388 . S
C1673 C1672 1.366 . S
C1673 C1677 1.385 . S
C1674 H1655 0.951 . S
C1674 C1672 1.388 . S
C1674 C1675 1.366 . S
C1675 C1674 1.366 . S
C1675 C1676 1.414 . S
C1675 C1678 1.499 . S
C1676 H1656 0.950 . S
C1676 C1675 1.414 . S
C1676 C1677 1.374 . S
C1677 H1657 0.950 . S
C1677 C1673 1.385 . S
C1677 C1676 1.374 . S
C1678 C1675 1.499 . S
C1678 C1679 1.373 . S
C1678 C1680 1.389 . S
C1679 H1658 0.950 . S
C1679 C1678 1.373 . S
C1679 C1695 1.377 . S
C1680 C1678 1.389 . S
C1680 C1681 1.520 . S
C1680 C1694 1.377 1_545 S
C1681 C1680 1.520 . S
C1681 C1682 1.401 . S
C1681 C1686 1.362 1_545 S
C1682 H1659 0.950 . S
C1682 C1681 1.401 . S
C1682 C1683 1.334 . S
C1683 H1660 0.950 . S
C1683 C1682 1.334 . S
C1683 C1684 1.287 1_545 S
C1684 C1683 1.287 1_565 S
C1684 C1685 1.524 . S
C1684 H1703 0.913 . S
C1685 H1661 0.950 . S
C1685 C1684 1.524 . S
C1685 C1686 1.415 . S
C1686 H1662 0.950 . S
C1686 C1681 1.362 1_565 S
C1686 C1685 1.415 . S
C1687 H1663 0.951 . S
C1687 C1688 1.366 . S
C1687 C1689 1.388 . S
C1688 C1687 1.366 . S
C1688 C1692 1.385 . S
C1689 H1664 0.951 . S
C1689 C1687 1.388 . S
C1689 C1690 1.366 . S
C1690 C1689 1.366 . S
C1690 C1691 1.414 . S
C1690 C1693 1.499 . S
C1691 H1665 0.950 . S
C1691 C1690 1.414 . S
C1691 C1692 1.374 . S
C1692 H1666 0.950 . S
C1692 C1688 1.385 . S
C1692 C1691 1.374 . S
C1693 C1690 1.499 . S
C1693 C1694 1.373 . S
C1693 C1695 1.389 1_565 S
C1694 H1667 0.950 . S
C1694 C1680 1.377 1_565 S
C1694 C1693 1.373 . S
C1695 C1679 1.377 . S
C1695 C1693 1.389 1_545 S
C1695 C1696 1.524 . S
C1696 C1695 1.524 . S
C1696 C1697 1.397 1_545 S
C1696 C1701 1.363 . S
C1697 H1668 0.950 . S
C1697 C1696 1.397 1_565 S
C1697 C1698 1.335 . S
C1698 H1669 0.949 . S
C1698 C1697 1.335 . S
C1698 C1699 1.287 1_565 S
C1699 C1698 1.287 1_545 S
C1699 C1700 1.524 . S
C1699 H1702 0.999 . S
C1700 H1670 0.950 . S
C1700 C1699 1.524 . S
C1700 C1701 1.415 . S
C1701 H1671 0.950 . S
C1701 C1696 1.363 . S
C1701 C1700 1.415 . S
H1702 C1699 0.999 . S
H1703 C1684 0.913 . S
H1704 C1722 0.951 . S
H1705 C1724 0.951 . S
H1706 C1726 0.950 . S
H1707 C1727 0.950 . S
H1708 C1729 0.950 . S
H1709 C1732 0.950 . S
H1710 C1733 0.950 . S
H1711 C1735 0.950 . S
H1712 C1736 0.950 . S
H1713 C1737 0.951 . S
H1714 C1739 0.951 . S
H1715 C1741 0.950 . S
H1716 C1742 0.950 . S
H1717 C1744 0.950 . S
H1718 C1747 0.950 . S
H1719 C1748 0.950 . S
H1720 C1750 0.950 . S
H1721 C1751 0.950 . S
C1722 H1704 0.951 . S
C1722 C1723 1.366 . S
C1722 C1724 1.388 . S
C1723 C1722 1.366 . S
C1723 C1727 1.385 . S
C1724 H1705 0.951 . S
C1724 C1722 1.388 . S
C1724 C1725 1.366 . S
C1725 C1724 1.366 . S
C1725 C1726 1.414 . S
C1725 C1728 1.499 . S
C1726 H1706 0.950 . S
C1726 C1725 1.414 . S
C1726 C1727 1.374 . S
C1727 H1707 0.950 . S
C1727 C1723 1.385 . S
C1727 C1726 1.374 . S
C1728 C1725 1.499 . S
C1728 C1729 1.373 . S
C1728 C1730 1.389 . S
C1729 H1708 0.950 . S
C1729 C1728 1.373 . S
C1729 C1745 1.377 . S
C1730 C1728 1.389 . S
C1730 C1731 1.524 . S
C1730 C1744 1.377 . S
C1731 C1730 1.524 . S
C1731 C1732 1.397 . S
C1731 C1736 1.363 . S
C1732 H1709 0.950 . S
C1732 C1731 1.397 . S
C1732 C1733 1.334 . S
C1733 H1710 0.950 . S
C1733 C1732 1.334 . S
C1733 C1734 1.287 . S
C1734 C1733 1.287 . S
C1734 C1735 1.524 . S
C1734 H1753 0.913 . S
C1735 H1711 0.950 . S
C1735 C1734 1.524 . S
C1735 C1736 1.415 . S
C1736 H1712 0.950 . S
C1736 C1731 1.363 . S
C1736 C1735 1.415 . S
C1737 H1713 0.951 . S
C1737 C1738 1.366 . S
C1737 C1739 1.388 . S
C1738 C1737 1.366 . S
C1738 C1742 1.385 . S
C1739 H1714 0.951 . S
C1739 C1737 1.388 . S
C1739 C1740 1.366 . S
C1740 C1739 1.366 . S
C1740 C1741 1.414 . S
C1740 C1743 1.499 . S
C1741 H1715 0.950 . S
C1741 C1740 1.414 . S
C1741 C1742 1.374 . S
C1742 H1716 0.950 . S
C1742 C1738 1.385 . S
C1742 C1741 1.374 . S
C1743 C1740 1.499 . S
C1743 C1744 1.373 . S
C1743 C1745 1.389 . S
C1744 H1717 0.950 . S
C1744 C1730 1.377 . S
C1744 C1743 1.373 . S
C1745 C1729 1.377 . S
C1745 C1743 1.389 . S
C1745 C1746 1.524 . S
C1746 C1745 1.524 . S
C1746 C1747 1.397 . S
C1746 C1751 1.363 . S
C1747 H1718 0.950 . S
C1747 C1746 1.397 . S
C1747 C1748 1.334 . S
C1748 H1719 0.950 . S
C1748 C1747 1.334 . S
C1748 C1749 1.287 . S
C1749 C1748 1.287 . S
C1749 C1750 1.524 . S
C1749 H1752 0.999 . S
C1750 H1720 0.950 . S
C1750 C1749 1.524 . S
C1750 C1751 1.415 . S
C1751 H1721 0.950 . S
C1751 C1746 1.363 . S
C1751 C1750 1.415 . S
H1752 C1749 0.999 . S
H1753 C1734 0.913 . S
H1754 C1772 0.951 . S
H1755 C1774 0.951 . S
H1756 C1776 0.950 . S
H1757 C1777 0.950 . S
H1758 C1779 0.950 . S
H1759 C1782 0.950 . S
H1760 C1783 0.950 . S
H1761 C1785 0.950 . S
H1762 C1786 0.950 . S
H1763 C1787 0.951 . S
H1764 C1789 0.951 . S
H1765 C1791 0.950 . S
H1766 C1792 0.950 . S
H1767 C1794 0.950 . S
H1768 C1797 0.950 . S
H1769 C1798 0.950 . S
H1770 C1800 0.950 . S
H1771 C1801 0.950 . S
C1772 H1754 0.951 . S
C1772 C1773 1.366 . S
C1772 C1774 1.388 . S
C1773 C1772 1.366 . S
C1773 C1777 1.385 . S
C1774 H1755 0.951 . S
C1774 C1772 1.388 . S
C1774 C1775 1.366 . S
C1775 C1774 1.366 . S
C1775 C1776 1.414 . S
C1775 C1778 1.499 . S
C1776 H1756 0.950 . S
C1776 C1775 1.414 . S
C1776 C1777 1.374 . S
C1777 H1757 0.950 . S
C1777 C1773 1.385 . S
C1777 C1776 1.374 . S
C1778 C1775 1.499 . S
C1778 C1779 1.373 . S
C1778 C1780 1.389 . S
C1779 H1758 0.950 . S
C1779 C1778 1.373 . S
C1779 C1795 1.377 . S
C1780 C1778 1.389 . S
C1780 C1781 1.524 . S
C1780 C1794 1.377 . S
C1781 C1780 1.524 . S
C1781 C1782 1.397 . S
C1781 C1786 1.363 . S
C1782 H1759 0.950 . S
C1782 C1781 1.397 . S
C1782 C1783 1.334 . S
C1783 H1760 0.950 . S
C1783 C1782 1.334 . S
C1783 C1784 1.287 . S
C1784 C1783 1.287 . S
C1784 C1785 1.524 . S
C1784 H1803 0.913 . S
C1785 H1761 0.950 . S
C1785 C1784 1.524 . S
C1785 C1786 1.415 . S
C1786 H1762 0.950 . S
C1786 C1781 1.363 . S
C1786 C1785 1.415 . S
C1787 H1763 0.951 . S
C1787 C1788 1.366 . S
C1787 C1789 1.388 . S
C1788 C1787 1.366 . S
C1788 C1792 1.385 . S
C1789 H1764 0.951 . S
C1789 C1787 1.388 . S
C1789 C1790 1.366 . S
C1790 C1789 1.366 . S
C1790 C1791 1.414 . S
C1790 C1793 1.499 . S
C1791 H1765 0.950 . S
C1791 C1790 1.414 . S
C1791 C1792 1.374 . S
C1792 H1766 0.950 . S
C1792 C1788 1.385 . S
C1792 C1791 1.374 . S
C1793 C1790 1.499 . S
C1793 C1794 1.373 . S
C1793 C1795 1.389 . S
C1794 H1767 0.950 . S
C1794 C1780 1.377 . S
C1794 C1793 1.373 . S
C1795 C1779 1.377 . S
C1795 C1793 1.389 . S
C1795 C1796 1.524 . S
C1796 C1795 1.524 . S
C1796 C1797 1.397 . S
C1796 C1801 1.363 . S
C1797 H1768 0.950 . S
C1797 C1796 1.397 . S
C1797 C1798 1.334 . S
C1798 H1769 0.950 . S
C1798 C1797 1.334 . S
C1798 C1799 1.287 . S
C1799 C1798 1.287 . S
C1799 C1800 1.524 . S
C1799 H1802 0.999 . S
C1800 H1770 0.950 . S
C1800 C1799 1.524 . S
C1800 C1801 1.415 . S
C1801 H1771 0.950 . S
C1801 C1796 1.363 . S
C1801 C1800 1.415 . S
H1802 C1799 0.999 . S
H1803 C1784 0.913 . S
H1804 C1822 0.951 . S
H1805 C1824 0.951 . S
H1806 C1826 0.950 . S
H1807 C1827 0.950 . S
H1808 C1829 0.950 . S
H1809 C1832 0.950 . S
H1810 C1833 0.950 . S
H1811 C1835 0.950 . S
H1812 C1836 0.950 . S
H1813 C1837 0.951 . S
H1814 C1839 0.951 . S
H1815 C1841 0.950 . S
H1816 C1842 0.950 . S
H1817 C1844 0.950 . S
H1818 C1847 0.950 . S
H1819 C1848 0.950 . S
H1820 C1850 0.950 . S
H1821 C1851 0.950 . S
C1822 H1804 0.951 . S
C1822 C1823 1.366 . S
C1822 C1824 1.388 . S
C1823 C1822 1.366 . S
C1823 C1827 1.385 . S
C1824 H1805 0.951 . S
C1824 C1822 1.388 . S
C1824 C1825 1.366 . S
C1825 C1824 1.366 . S
C1825 C1826 1.414 . S
C1825 C1828 1.499 . S
C1826 H1806 0.950 . S
C1826 C1825 1.414 . S
C1826 C1827 1.374 . S
C1827 H1807 0.950 . S
C1827 C1823 1.385 . S
C1827 C1826 1.374 . S
C1828 C1825 1.499 . S
C1828 C1829 1.373 . S
C1828 C1830 1.389 . S
C1829 H1808 0.950 . S
C1829 C1828 1.373 . S
C1829 C1845 1.377 . S
C1830 C1828 1.389 . S
C1830 C1831 1.524 . S
C1830 C1844 1.377 . S
C1831 C1830 1.524 . S
C1831 C1832 1.397 . S
C1831 C1836 1.363 . S
C1832 H1809 0.950 . S
C1832 C1831 1.397 . S
C1832 C1833 1.334 . S
C1833 H1810 0.950 . S
C1833 C1832 1.334 . S
C1833 C1834 1.287 . S
C1834 C1833 1.287 . S
C1834 C1835 1.524 . S
C1834 H1853 0.913 . S
C1835 H1811 0.950 . S
C1835 C1834 1.524 . S
C1835 C1836 1.415 . S
C1836 H1812 0.950 . S
C1836 C1831 1.363 . S
C1836 C1835 1.415 . S
C1837 H1813 0.951 . S
C1837 C1838 1.366 . S
C1837 C1839 1.388 . S
C1838 C1837 1.366 . S
C1838 C1842 1.385 . S
C1839 H1814 0.951 . S
C1839 C1837 1.388 . S
C1839 C1840 1.366 . S
C1840 C1839 1.366 . S
C1840 C1841 1.414 . S
C1840 C1843 1.499 . S
C1841 H1815 0.950 . S
C1841 C1840 1.414 . S
C1841 C1842 1.374 . S
C1842 H1816 0.950 . S
C1842 C1838 1.385 . S
C1842 C1841 1.374 . S
C1843 C1840 1.499 . S
C1843 C1844 1.373 . S
C1843 C1845 1.389 . S
C1844 H1817 0.950 . S
C1844 C1830 1.377 . S
C1844 C1843 1.373 . S
C1845 C1829 1.377 . S
C1845 C1843 1.389 . S
C1845 C1846 1.524 . S
C1846 C1845 1.524 . S
C1846 C1847 1.397 . S
C1846 C1851 1.363 . S
C1847 H1818 0.950 . S
C1847 C1846 1.397 . S
C1847 C1848 1.334 . S
C1848 H1819 0.950 . S
C1848 C1847 1.334 . S
C1848 C1849 1.287 . S
C1849 C1848 1.287 . S
C1849 C1850 1.524 . S
C1849 H1852 0.999 . S
C1850 H1820 0.950 . S
C1850 C1849 1.524 . S
C1850 C1851 1.415 . S
C1851 H1821 0.950 . S
C1851 C1846 1.363 . S
C1851 C1850 1.415 . S
H1852 C1849 0.999 . S
H1853 C1834 0.913 . S
H1854 C1872 0.951 . S
H1855 C1874 0.951 . S
H1856 C1876 0.950 . S
H1857 C1877 0.950 . S
H1858 C1879 0.950 . S
H1859 C1882 0.950 . S
H1860 C1883 0.950 . S
H1861 C1885 0.950 . S
H1862 C1886 0.950 . S
H1863 C1887 0.951 . S
H1864 C1889 0.951 . S
H1865 C1891 0.950 . S
H1866 C1892 0.950 . S
H1867 C1894 0.950 . S
H1868 C1897 0.950 . S
H1869 C1898 0.950 . S
H1870 C1900 0.950 . S
H1871 C1901 0.950 . S
C1872 H1854 0.951 . S
C1872 C1873 1.366 . S
C1872 C1874 1.388 . S
C1873 C1872 1.366 . S
C1873 C1877 1.385 . S
C1874 H1855 0.951 . S
C1874 C1872 1.388 . S
C1874 C1875 1.366 . S
C1875 C1874 1.366 . S
C1875 C1876 1.414 . S
C1875 C1878 1.499 . S
C1876 H1856 0.950 . S
C1876 C1875 1.414 . S
C1876 C1877 1.374 . S
C1877 H1857 0.950 . S
C1877 C1873 1.385 . S
C1877 C1876 1.374 . S
C1878 C1875 1.499 . S
C1878 C1879 1.373 . S
C1878 C1880 1.389 . S
C1879 H1858 0.950 . S
C1879 C1878 1.373 . S
C1879 C1895 1.377 . S
C1880 C1878 1.389 . S
C1880 C1881 1.524 . S
C1880 C1894 1.377 . S
C1881 C1880 1.524 . S
C1881 C1882 1.397 . S
C1881 C1886 1.363 . S
C1882 H1859 0.950 . S
C1882 C1881 1.397 . S
C1882 C1883 1.334 . S
C1883 H1860 0.950 . S
C1883 C1882 1.334 . S
C1883 C1884 1.287 . S
C1884 C1883 1.287 . S
C1884 C1885 1.524 . S
C1884 H1903 0.913 . S
C1885 H1861 0.950 . S
C1885 C1884 1.524 . S
C1885 C1886 1.415 . S
C1886 H1862 0.950 . S
C1886 C1881 1.363 . S
C1886 C1885 1.415 . S
C1887 H1863 0.951 . S
C1887 C1888 1.366 . S
C1887 C1889 1.388 . S
C1888 C1887 1.366 . S
C1888 C1892 1.385 . S
C1889 H1864 0.951 . S
C1889 C1887 1.388 . S
C1889 C1890 1.366 . S
C1890 C1889 1.366 . S
C1890 C1891 1.414 . S
C1890 C1893 1.499 . S
C1891 H1865 0.950 . S
C1891 C1890 1.414 . S
C1891 C1892 1.374 . S
C1892 H1866 0.950 . S
C1892 C1888 1.385 . S
C1892 C1891 1.374 . S
C1893 C1890 1.499 . S
C1893 C1894 1.373 . S
C1893 C1895 1.389 . S
C1894 H1867 0.950 . S
C1894 C1880 1.377 . S
C1894 C1893 1.373 . S
C1895 C1879 1.377 . S
C1895 C1893 1.389 . S
C1895 C1896 1.524 . S
C1896 C1895 1.524 . S
C1896 C1897 1.397 . S
C1896 C1901 1.363 . S
C1897 H1868 0.950 . S
C1897 C1896 1.397 . S
C1897 C1898 1.334 . S
C1898 H1869 0.950 . S
C1898 C1897 1.334 . S
C1898 C1899 1.287 . S
C1899 C1898 1.287 . S
C1899 C1900 1.524 . S
C1899 H1902 0.999 . S
C1900 H1870 0.950 . S
C1900 C1899 1.524 . S
C1900 C1901 1.415 . S
C1901 H1871 0.950 . S
C1901 C1896 1.363 . S
C1901 C1900 1.415 . S
H1902 C1899 0.999 . S
H1903 C1884 0.913 . S
H1904 C1922 0.951 . S
H1905 C1924 0.951 . S
H1906 C1926 0.950 . S
H1907 C1927 0.950 . S
H1908 C1929 0.950 . S
H1909 C1932 0.950 . S
H1910 C1933 0.950 . S
H1911 C1935 0.950 . S
H1912 C1936 0.950 . S
H1913 C1937 0.951 . S
H1914 C1939 0.951 . S
H1915 C1941 0.950 . S
H1916 C1942 0.950 . S
H1917 C1944 0.950 . S
H1918 C1947 0.950 . S
H1919 C1948 0.950 . S
H1920 C1950 0.950 . S
H1921 C1951 0.950 . S
C1922 H1904 0.951 . S
C1922 C1923 1.366 . S
C1922 C1924 1.388 . S
C1923 C1922 1.366 . S
C1923 C1927 1.385 . S
C1924 H1905 0.951 . S
C1924 C1922 1.388 . S
C1924 C1925 1.366 . S
C1925 C1924 1.366 . S
C1925 C1926 1.414 . S
C1925 C1928 1.499 . S
C1926 H1906 0.950 . S
C1926 C1925 1.414 . S
C1926 C1927 1.374 . S
C1927 H1907 0.950 . S
C1927 C1923 1.385 . S
C1927 C1926 1.374 . S
C1928 C1925 1.499 . S
C1928 C1929 1.373 . S
C1928 C1930 1.389 . S
C1929 H1908 0.950 . S
C1929 C1928 1.373 . S
C1929 C1945 1.377 . S
C1930 C1928 1.389 . S
C1930 C1931 1.524 . S
C1930 C1944 1.377 . S
C1931 C1930 1.524 . S
C1931 C1932 1.397 . S
C1931 C1936 1.363 . S
C1932 H1909 0.950 . S
C1932 C1931 1.397 . S
C1932 C1933 1.334 . S
C1933 H1910 0.950 . S
C1933 C1932 1.334 . S
C1933 C1934 1.287 . S
C1934 C1933 1.287 . S
C1934 C1935 1.524 . S
C1934 H1953 0.913 . S
C1935 H1911 0.950 . S
C1935 C1934 1.524 . S
C1935 C1936 1.415 . S
C1936 H1912 0.950 . S
C1936 C1931 1.363 . S
C1936 C1935 1.415 . S
C1937 H1913 0.951 . S
C1937 C1938 1.366 . S
C1937 C1939 1.388 . S
C1938 C1937 1.366 . S
C1938 C1942 1.385 . S
C1939 H1914 0.951 . S
C1939 C1937 1.388 . S
C1939 C1940 1.366 . S
C1940 C1939 1.366 . S
C1940 C1941 1.414 . S
C1940 C1943 1.499 . S
C1941 H1915 0.950 . S
C1941 C1940 1.414 . S
C1941 C1942 1.374 . S
C1942 H1916 0.950 . S
C1942 C1938 1.385 . S
C1942 C1941 1.374 . S
C1943 C1940 1.499 . S
C1943 C1944 1.373 . S
C1943 C1945 1.389 . S
C1944 H1917 0.950 . S
C1944 C1930 1.377 . S
C1944 C1943 1.373 . S
C1945 C1929 1.377 . S
C1945 C1943 1.389 . S
C1945 C1946 1.524 . S
C1946 C1945 1.524 . S
C1946 C1947 1.397 . S
C1946 C1951 1.363 . S
C1947 H1918 0.950 . S
C1947 C1946 1.397 . S
C1947 C1948 1.334 . S
C1948 H1919 0.950 . S
C1948 C1947 1.334 . S
C1948 C1949 1.287 . S
C1949 C1948 1.287 . S
C1949 C1950 1.524 . S
C1949 H1952 0.999 . S
C1950 H1920 0.950 . S
C1950 C1949 1.524 . S
C1950 C1951 1.415 . S
C1951 H1921 0.950 . S
C1951 C1946 1.363 . S
C1951 C1950 1.415 . S
H1952 C1949 0.999 . S
H1953 C1934 0.913 . S
H1954 C1972 0.951 . S
H1955 C1974 0.951 . S
H1956 C1976 0.950 . S
H1957 C1977 0.950 . S
H1958 C1979 0.950 . S
H1959 C1982 0.950 . S
H1960 C1983 0.950 . S
H1961 C1985 0.950 . S
H1962 C1986 0.950 . S
H1963 C1987 0.951 . S
H1964 C1989 0.951 . S
H1965 C1991 0.950 . S
H1966 C1992 0.950 . S
H1967 C1994 0.950 . S
H1968 C1997 0.950 . S
H1969 C1998 0.950 . S
H1970 C2000 0.950 . S
H1971 C2001 0.950 . S
C1972 H1954 0.951 . S
C1972 C1973 1.366 . S
C1972 C1974 1.388 . S
C1973 C1972 1.366 . S
C1973 C1977 1.385 . S
C1974 H1955 0.951 . S
C1974 C1972 1.388 . S
C1974 C1975 1.366 . S
C1975 C1974 1.366 . S
C1975 C1976 1.414 . S
C1975 C1978 1.499 . S
C1976 H1956 0.950 . S
C1976 C1975 1.414 . S
C1976 C1977 1.374 . S
C1977 H1957 0.950 . S
C1977 C1973 1.385 . S
C1977 C1976 1.374 . S
C1978 C1975 1.499 . S
C1978 C1979 1.373 . S
C1978 C1980 1.389 . S
C1979 H1958 0.950 . S
C1979 C1978 1.373 . S
C1979 C1995 1.377 . S
C1980 C1978 1.389 . S
C1980 C1981 1.524 . S
C1980 C1994 1.377 . S
C1981 C1980 1.524 . S
C1981 C1982 1.397 . S
C1981 C1986 1.363 . S
C1982 H1959 0.950 . S
C1982 C1981 1.397 . S
C1982 C1983 1.334 . S
C1983 H1960 0.950 . S
C1983 C1982 1.334 . S
C1983 C1984 1.287 . S
C1984 C1983 1.287 . S
C1984 C1985 1.524 . S
C1984 H2003 0.913 . S
C1985 H1961 0.950 . S
C1985 C1984 1.524 . S
C1985 C1986 1.415 . S
C1986 H1962 0.950 . S
C1986 C1981 1.363 . S
C1986 C1985 1.415 . S
C1987 H1963 0.951 . S
C1987 C1988 1.366 . S
C1987 C1989 1.388 . S
C1988 C1987 1.366 . S
C1988 C1992 1.385 . S
C1989 H1964 0.951 . S
C1989 C1987 1.388 . S
C1989 C1990 1.366 . S
C1990 C1989 1.366 . S
C1990 C1991 1.414 . S
C1990 C1993 1.499 . S
C1991 H1965 0.950 . S
C1991 C1990 1.414 . S
C1991 C1992 1.374 . S
C1992 H1966 0.950 . S
C1992 C1988 1.385 . S
C1992 C1991 1.374 . S
C1993 C1990 1.499 . S
C1993 C1994 1.373 . S
C1993 C1995 1.389 . S
C1994 H1967 0.950 . S
C1994 C1980 1.377 . S
C1994 C1993 1.373 . S
C1995 C1979 1.377 . S
C1995 C1993 1.389 . S
C1995 C1996 1.524 . S
C1996 C1995 1.524 . S
C1996 C1997 1.397 . S
C1996 C2001 1.363 . S
C1997 H1968 0.950 . S
C1997 C1996 1.397 . S
C1997 C1998 1.334 . S
C1998 H1969 0.950 . S
C1998 C1997 1.334 . S
C1998 C1999 1.287 . S
C1999 C1998 1.287 . S
C1999 C2000 1.524 . S
C1999 H2002 0.999 . S
C2000 H1970 0.950 . S
C2000 C1999 1.524 . S
C2000 C2001 1.415 . S
C2001 H1971 0.950 . S
C2001 C1996 1.363 . S
C2001 C2000 1.415 . S
H2002 C1999 0.999 . S
H2003 C1984 0.913 . S
H2004 C2022 0.951 . S
H2005 C2024 0.951 1_565 S
H2006 C2026 0.950 . S
H2007 C2027 0.950 . S
H2008 C2029 0.950 . S
H2009 C2032 0.968 . S
H2010 C2033 0.950 . S
H2011 C2035 0.950 . S
H2012 C2036 0.950 . S
H2013 C2037 0.951 . S
H2014 C2039 0.951 . S
H2015 C2041 0.950 . S
H2016 C2042 0.950 . S
H2017 C2044 0.950 . S
H2018 C2047 0.950 . S
H2019 C2048 0.950 . S
H2020 C2050 0.950 . S
H2021 C2051 0.950 . S
C2022 H2004 0.951 . S
C2022 C2023 1.366 . S
C2022 C2024 1.388 . S
C2023 C2022 1.366 . S
C2023 C2027 1.385 . S
C2024 H2005 0.951 1_545 S
C2024 C2022 1.388 . S
C2024 C2025 1.366 1_545 S
C2025 C2024 1.366 1_565 S
C2025 C2026 1.414 1_565 S
C2025 C2028 1.499 . S
C2026 H2006 0.950 . S
C2026 C2025 1.414 1_545 S
C2026 C2027 1.374 . S
C2027 H2007 0.950 . S
C2027 C2023 1.385 . S
C2027 C2026 1.374 . S
C2028 C2025 1.499 . S
C2028 C2029 1.373 . S
C2028 C2030 1.389 . S
C2029 H2008 0.950 . S
C2029 C2028 1.373 . S
C2029 C2045 1.377 . S
C2030 C2028 1.389 . S
C2030 C2031 1.524 . S
C2030 C2044 1.377 . S
C2031 C2030 1.524 . S
C2031 C2032 1.397 . S
C2031 C2036 1.363 . S
C2032 H2009 0.968 . S
C2032 C2031 1.397 . S
C2032 C2033 1.334 1_565 S
C2033 H2010 0.950 . S
C2033 C2032 1.334 1_545 S
C2033 C2034 1.283 . S
C2034 C2033 1.283 . S
C2034 C2035 1.529 1_545 S
C2034 H2053 0.912 . S
C2035 H2011 0.950 . S
C2035 C2034 1.529 1_565 S
C2035 C2036 1.415 . S
C2036 H2012 0.950 . S
C2036 C2031 1.363 . S
C2036 C2035 1.415 . S
C2037 H2013 0.951 . S
C2037 C2038 1.366 . S
C2037 C2039 1.388 . S
C2038 C2037 1.366 . S
C2038 C2042 1.385 . S
C2039 H2014 0.951 . S
C2039 C2037 1.388 . S
C2039 C2040 1.366 . S
C2040 C2039 1.366 . S
C2040 C2041 1.414 . S
C2040 C2043 1.499 . S
C2041 H2015 0.950 . S
C2041 C2040 1.414 . S
C2041 C2042 1.374 . S
C2042 H2016 0.950 . S
C2042 C2038 1.385 . S
C2042 C2041 1.374 . S
C2043 C2040 1.499 . S
C2043 C2044 1.373 . S
C2043 C2045 1.389 . S
C2044 H2017 0.950 . S
C2044 C2030 1.377 . S
C2044 C2043 1.373 . S
C2045 C2029 1.377 . S
C2045 C2043 1.389 . S
C2045 C2046 1.524 . S
C2046 C2045 1.524 . S
C2046 C2047 1.397 . S
C2046 C2051 1.363 . S
C2047 H2018 0.950 . S
C2047 C2046 1.397 . S
C2047 C2048 1.334 . S
C2048 H2019 0.950 . S
C2048 C2047 1.334 . S
C2048 C2049 1.287 . S
C2049 C2048 1.287 . S
C2049 C2050 1.524 . S
C2049 H2052 0.999 . S
C2050 H2020 0.950 . S
C2050 C2049 1.524 . S
C2050 C2051 1.415 . S
C2051 H2021 0.950 . S
C2051 C2046 1.363 . S
C2051 C2050 1.415 . S
H2052 C2049 0.999 . S
H2053 C2034 0.912 . S
H2054 C2072 0.951 . S
H2055 C2074 0.951 . S
H2056 C2076 0.993 . S
H2057 C2077 0.950 . S
H2058 C2079 0.950 . S
H2059 C2082 0.950 . S
H2060 C2083 0.950 1_655 S
H2061 C2085 0.950 . S
H2062 C2086 0.950 . S
H2063 C2087 0.951 . S
H2064 C2089 0.951 . S
H2065 C2091 0.950 . S
H2066 C2092 0.950 . S
H2067 C2094 0.950 . S
H2068 C2097 0.950 . S
H2069 C2098 0.950 . S
H2070 C2100 0.950 . S
H2071 C2101 0.950 . S
C2072 H2054 0.951 . S
C2072 C2073 1.366 . S
C2072 C2074 1.388 1_655 S
C2073 C2072 1.366 . S
C2073 C2077 1.385 . S
C2074 H2055 0.951 . S
C2074 C2072 1.388 1_455 S
C2074 C2075 1.366 . S
C2075 C2074 1.366 . S
C2075 C2076 1.431 . S
C2075 C2078 1.499 . S
C2076 H2056 0.993 . S
C2076 C2075 1.431 . S
C2076 C2077 1.317 1_455 S
C2077 H2057 0.950 . S
C2077 C2073 1.385 . S
C2077 C2076 1.317 1_655 S
C2078 C2075 1.499 . S
C2078 C2079 1.373 . S
C2078 C2080 1.389 . S
C2079 H2058 0.950 . S
C2079 C2078 1.373 . S
C2079 C2095 1.377 . S
C2080 C2078 1.389 . S
C2080 C2081 1.524 . S
C2080 C2094 1.377 . S
C2081 C2080 1.524 . S
C2081 C2082 1.397 . S
C2081 C2086 1.363 . S
C2082 H2059 0.950 . S
C2082 C2081 1.397 . S
C2082 C2083 1.334 . S
C2083 H2060 0.950 1_455 S
C2083 C2082 1.334 . S
C2083 C2084 1.287 . S
C2084 C2083 1.287 . S
C2084 C2085 1.524 . S
C2084 H2103 0.913 . S
C2085 H2061 0.950 . S
C2085 C2084 1.524 . S
C2085 C2086 1.415 . S
C2086 H2062 0.950 . S
C2086 C2081 1.363 . S
C2086 C2085 1.415 . S
C2087 H2063 0.951 . S
C2087 C2088 1.366 . S
C2087 C2089 1.388 . S
C2088 C2087 1.366 . S
C2088 C2092 1.385 . S
C2089 H2064 0.951 . S
C2089 C2087 1.388 . S
C2089 C2090 1.366 . S
C2090 C2089 1.366 . S
C2090 C2091 1.414 . S
C2090 C2093 1.499 . S
C2091 H2065 0.950 . S
C2091 C2090 1.414 . S
C2091 C2092 1.374 . S
C2092 H2066 0.950 . S
C2092 C2088 1.385 . S
C2092 C2091 1.374 . S
C2093 C2090 1.499 . S
C2093 C2094 1.373 . S
C2093 C2095 1.389 . S
C2094 H2067 0.950 . S
C2094 C2080 1.377 . S
C2094 C2093 1.373 . S
C2095 C2079 1.377 . S
C2095 C2093 1.389 . S
C2095 C2096 1.524 . S
C2096 C2095 1.524 . S
C2096 C2097 1.397 . S
C2096 C2101 1.363 . S
C2097 H2068 0.950 . S
C2097 C2096 1.397 . S
C2097 C2098 1.334 . S
C2098 H2069 0.950 . S
C2098 C2097 1.334 . S
C2098 C2099 1.287 . S
C2099 C2098 1.287 . S
C2099 C2100 1.524 . S
C2099 H2102 0.999 . S
C2100 H2070 0.950 . S
C2100 C2099 1.524 . S
C2100 C2101 1.415 . S
C2101 H2071 0.950 . S
C2101 C2096 1.363 . S
C2101 C2100 1.415 . S
H2102 C2099 0.999 . S
H2103 C2084 0.913 . S
H2104 C2122 0.951 . S
H2105 C2124 0.951 . S
H2106 C2126 0.950 . S
H2107 C2127 0.950 . S
H2108 C2129 0.950 . S
H2109 C2132 0.950 . S
H2110 C2133 0.950 . S
H2111 C2135 0.950 . S
H2112 C2136 0.950 . S
H2113 C2137 0.951 . S
H2114 C2139 0.951 . S
H2115 C2141 0.950 . S
H2116 C2142 0.950 . S
H2117 C2144 0.950 . S
H2118 C2147 0.950 . S
H2119 C2148 0.950 . S
H2120 C2150 0.950 . S
H2121 C2151 0.950 . S
C2122 H2104 0.951 . S
C2122 C2123 1.366 . S
C2122 C2124 1.388 . S
C2123 C2122 1.366 . S
C2123 C2127 1.385 . S
C2124 H2105 0.951 . S
C2124 C2122 1.388 . S
C2124 C2125 1.366 . S
C2125 C2124 1.366 . S
C2125 C2126 1.414 . S
C2125 C2128 1.499 . S
C2126 H2106 0.950 . S
C2126 C2125 1.414 . S
C2126 C2127 1.374 . S
C2127 H2107 0.950 . S
C2127 C2123 1.385 . S
C2127 C2126 1.374 . S
C2128 C2125 1.499 . S
C2128 C2129 1.373 . S
C2128 C2130 1.389 . S
C2129 H2108 0.950 . S
C2129 C2128 1.373 . S
C2129 C2145 1.377 . S
C2130 C2128 1.389 . S
C2130 C2131 1.524 . S
C2130 C2144 1.377 . S
C2131 C2130 1.524 . S
C2131 C2132 1.397 . S
C2131 C2136 1.363 . S
C2132 H2109 0.950 . S
C2132 C2131 1.397 . S
C2132 C2133 1.334 . S
C2133 H2110 0.950 . S
C2133 C2132 1.334 . S
C2133 C2134 1.287 . S
C2134 C2133 1.287 . S
C2134 C2135 1.524 . S
C2134 H2153 0.913 . S
C2135 H2111 0.950 . S
C2135 C2134 1.524 . S
C2135 C2136 1.415 . S
C2136 H2112 0.950 . S
C2136 C2131 1.363 . S
C2136 C2135 1.415 . S
C2137 H2113 0.951 . S
C2137 C2138 1.366 . S
C2137 C2139 1.388 . S
C2138 C2137 1.366 . S
C2138 C2142 1.385 . S
C2139 H2114 0.951 . S
C2139 C2137 1.388 . S
C2139 C2140 1.366 . S
C2140 C2139 1.366 . S
C2140 C2141 1.414 . S
C2140 C2143 1.499 . S
C2141 H2115 0.950 . S
C2141 C2140 1.414 . S
C2141 C2142 1.374 . S
C2142 H2116 0.950 . S
C2142 C2138 1.385 . S
C2142 C2141 1.374 . S
C2143 C2140 1.499 . S
C2143 C2144 1.373 . S
C2143 C2145 1.389 . S
C2144 H2117 0.950 . S
C2144 C2130 1.377 . S
C2144 C2143 1.373 . S
C2145 C2129 1.377 . S
C2145 C2143 1.389 . S
C2145 C2146 1.524 . S
C2146 C2145 1.524 . S
C2146 C2147 1.397 . S
C2146 C2151 1.363 . S
C2147 H2118 0.950 . S
C2147 C2146 1.397 . S
C2147 C2148 1.334 . S
C2148 H2119 0.950 . S
C2148 C2147 1.334 . S
C2148 C2149 1.287 . S
C2149 C2148 1.287 . S
C2149 C2150 1.524 . S
C2149 H2152 0.999 . S
C2150 H2120 0.950 . S
C2150 C2149 1.524 . S
C2150 C2151 1.415 . S
C2151 H2121 0.950 . S
C2151 C2146 1.363 . S
C2151 C2150 1.415 . S
H2152 C2149 0.999 . S
H2153 C2134 0.913 . S
H2154 C2172 0.951 . S
H2155 C2174 0.951 . S
H2156 C2176 0.950 . S
H2157 C2177 0.950 . S
H2158 C2179 0.950 . S
H2159 C2182 0.950 . S
H2160 C2183 0.950 . S
H2161 C2185 0.950 . S
H2162 C2186 0.950 . S
H2163 C2187 0.951 . S
H2164 C2189 0.951 . S
H2165 C2191 0.950 . S
H2166 C2192 0.950 . S
H2167 C2194 0.950 . S
H2168 C2197 0.950 . S
H2169 C2198 0.950 . S
H2170 C2200 0.950 . S
H2171 C2201 0.950 . S
C2172 H2154 0.951 . S
C2172 C2173 1.366 . S
C2172 C2174 1.388 . S
C2173 C2172 1.366 . S
C2173 C2177 1.385 . S
C2174 H2155 0.951 . S
C2174 C2172 1.388 . S
C2174 C2175 1.366 . S
C2175 C2174 1.366 . S
C2175 C2176 1.414 . S
C2175 C2178 1.499 . S
C2176 H2156 0.950 . S
C2176 C2175 1.414 . S
C2176 C2177 1.374 . S
C2177 H2157 0.950 . S
C2177 C2173 1.385 . S
C2177 C2176 1.374 . S
C2178 C2175 1.499 . S
C2178 C2179 1.373 . S
C2178 C2180 1.389 . S
C2179 H2158 0.950 . S
C2179 C2178 1.373 . S
C2179 C2195 1.377 . S
C2180 C2178 1.389 . S
C2180 C2181 1.524 . S
C2180 C2194 1.377 . S
C2181 C2180 1.524 . S
C2181 C2182 1.397 . S
C2181 C2186 1.363 . S
C2182 H2159 0.950 . S
C2182 C2181 1.397 . S
C2182 C2183 1.334 . S
C2183 H2160 0.950 . S
C2183 C2182 1.334 . S
C2183 C2184 1.287 . S
C2184 C2183 1.287 . S
C2184 C2185 1.524 . S
C2184 H2203 0.913 . S
C2185 H2161 0.950 . S
C2185 C2184 1.524 . S
C2185 C2186 1.415 . S
C2186 H2162 0.950 . S
C2186 C2181 1.363 . S
C2186 C2185 1.415 . S
C2187 H2163 0.951 . S
C2187 C2188 1.366 . S
C2187 C2189 1.388 . S
C2188 C2187 1.366 . S
C2188 C2192 1.385 . S
C2189 H2164 0.951 . S
C2189 C2187 1.388 . S
C2189 C2190 1.366 . S
C2190 C2189 1.366 . S
C2190 C2191 1.414 . S
C2190 C2193 1.499 . S
C2191 H2165 0.950 . S
C2191 C2190 1.414 . S
C2191 C2192 1.374 . S
C2192 H2166 0.950 . S
C2192 C2188 1.385 . S
C2192 C2191 1.374 . S
C2193 C2190 1.499 . S
C2193 C2194 1.373 . S
C2193 C2195 1.389 . S
C2194 H2167 0.950 . S
C2194 C2180 1.377 . S
C2194 C2193 1.373 . S
C2195 C2179 1.377 . S
C2195 C2193 1.389 . S
C2195 C2196 1.524 . S
C2196 C2195 1.524 . S
C2196 C2197 1.397 . S
C2196 C2201 1.363 . S
C2197 H2168 0.950 . S
C2197 C2196 1.397 . S
C2197 C2198 1.334 . S
C2198 H2169 0.950 . S
C2198 C2197 1.334 . S
C2198 C2199 1.287 . S
C2199 C2198 1.287 . S
C2199 C2200 1.524 . S
C2199 H2202 0.999 . S
C2200 H2170 0.950 . S
C2200 C2199 1.524 . S
C2200 C2201 1.415 . S
C2201 H2171 0.950 . S
C2201 C2196 1.363 . S
C2201 C2200 1.415 . S
H2202 C2199 0.999 . S
H2203 C2184 0.913 . S
H2204 C2222 0.951 . S
H2205 C2224 0.951 . S
H2206 C2226 0.950 . S
H2207 C2227 0.950 . S
H2208 C2229 0.950 . S
H2209 C2232 0.950 . S
H2210 C2233 0.950 . S
H2211 C2235 0.950 . S
H2212 C2236 0.950 . S
H2213 C2237 0.951 . S
H2214 C2239 0.951 . S
H2215 C2241 0.950 . S
H2216 C2242 0.950 . S
H2217 C2244 0.950 . S
H2218 C2247 0.950 . S
H2219 C2248 0.950 . S
H2220 C2250 0.950 . S
H2221 C2251 0.950 . S
C2222 H2204 0.951 . S
C2222 C2223 1.366 . S
C2222 C2224 1.388 . S
C2223 C2222 1.366 . S
C2223 C2227 1.385 . S
C2224 H2205 0.951 . S
C2224 C2222 1.388 . S
C2224 C2225 1.366 . S
C2225 C2224 1.366 . S
C2225 C2226 1.414 . S
C2225 C2228 1.499 . S
C2226 H2206 0.950 . S
C2226 C2225 1.414 . S
C2226 C2227 1.374 . S
C2227 H2207 0.950 . S
C2227 C2223 1.385 . S
C2227 C2226 1.374 . S
C2228 C2225 1.499 . S
C2228 C2229 1.373 . S
C2228 C2230 1.389 . S
C2229 H2208 0.950 . S
C2229 C2228 1.373 . S
C2229 C2245 1.377 . S
C2230 C2228 1.389 . S
C2230 C2231 1.524 . S
C2230 C2244 1.377 . S
C2231 C2230 1.524 . S
C2231 C2232 1.397 . S
C2231 C2236 1.363 . S
C2232 H2209 0.950 . S
C2232 C2231 1.397 . S
C2232 C2233 1.334 . S
C2233 H2210 0.950 . S
C2233 C2232 1.334 . S
C2233 C2234 1.287 . S
C2234 C2233 1.287 . S
C2234 C2235 1.524 . S
C2234 H2253 0.913 . S
C2235 H2211 0.950 . S
C2235 C2234 1.524 . S
C2235 C2236 1.415 . S
C2236 H2212 0.950 . S
C2236 C2231 1.363 . S
C2236 C2235 1.415 . S
C2237 H2213 0.951 . S
C2237 C2238 1.366 . S
C2237 C2239 1.388 . S
C2238 C2237 1.366 . S
C2238 C2242 1.385 . S
C2239 H2214 0.951 . S
C2239 C2237 1.388 . S
C2239 C2240 1.366 . S
C2240 C2239 1.366 . S
C2240 C2241 1.414 . S
C2240 C2243 1.499 . S
C2241 H2215 0.950 . S
C2241 C2240 1.414 . S
C2241 C2242 1.374 . S
C2242 H2216 0.950 . S
C2242 C2238 1.385 . S
C2242 C2241 1.374 . S
C2243 C2240 1.499 . S
C2243 C2244 1.373 . S
C2243 C2245 1.389 . S
C2244 H2217 0.950 . S
C2244 C2230 1.377 . S
C2244 C2243 1.373 . S
C2245 C2229 1.377 . S
C2245 C2243 1.389 . S
C2245 C2246 1.524 . S
C2246 C2245 1.524 . S
C2246 C2247 1.397 . S
C2246 C2251 1.363 . S
C2247 H2218 0.950 . S
C2247 C2246 1.397 . S
C2247 C2248 1.334 . S
C2248 H2219 0.950 . S
C2248 C2247 1.334 . S
C2248 C2249 1.287 . S
C2249 C2248 1.287 . S
C2249 C2250 1.524 . S
C2249 H2252 0.999 . S
C2250 H2220 0.950 . S
C2250 C2249 1.524 . S
C2250 C2251 1.415 . S
C2251 H2221 0.950 . S
C2251 C2246 1.363 . S
C2251 C2250 1.415 . S
H2252 C2249 0.999 . S
H2253 C2234 0.913 . S
H2254 C2272 0.951 . S
H2255 C2274 0.951 . S
H2256 C2276 0.950 . S
H2257 C2277 0.950 . S
H2258 C2279 0.950 . S
H2259 C2282 0.950 . S
H2260 C2283 0.950 . S
H2261 C2285 0.950 . S
H2262 C2286 0.950 . S
H2263 C2287 0.951 . S
H2264 C2289 0.951 . S
H2265 C2291 0.950 . S
H2266 C2292 0.950 . S
H2267 C2294 0.950 . S
H2268 C2297 0.950 . S
H2269 C2298 0.950 . S
H2270 C2300 0.950 . S
H2271 C2301 0.950 . S
C2272 H2254 0.951 . S
C2272 C2273 1.366 . S
C2272 C2274 1.388 . S
C2273 C2272 1.366 . S
C2273 C2277 1.385 . S
C2274 H2255 0.951 . S
C2274 C2272 1.388 . S
C2274 C2275 1.366 . S
C2275 C2274 1.366 . S
C2275 C2276 1.414 . S
C2275 C2278 1.499 . S
C2276 H2256 0.950 . S
C2276 C2275 1.414 . S
C2276 C2277 1.374 . S
C2277 H2257 0.950 . S
C2277 C2273 1.385 . S
C2277 C2276 1.374 . S
C2278 C2275 1.499 . S
C2278 C2279 1.373 . S
C2278 C2280 1.389 . S
C2279 H2258 0.950 . S
C2279 C2278 1.373 . S
C2279 C2295 1.377 . S
C2280 C2278 1.389 . S
C2280 C2281 1.524 . S
C2280 C2294 1.377 . S
C2281 C2280 1.524 . S
C2281 C2282 1.397 . S
C2281 C2286 1.363 . S
C2282 H2259 0.950 . S
C2282 C2281 1.397 . S
C2282 C2283 1.334 . S
C2283 H2260 0.950 . S
C2283 C2282 1.334 . S
C2283 C2284 1.287 . S
C2284 C2283 1.287 . S
C2284 C2285 1.524 . S
C2284 H2303 0.913 . S
C2285 H2261 0.950 . S
C2285 C2284 1.524 . S
C2285 C2286 1.415 . S
C2286 H2262 0.950 . S
C2286 C2281 1.363 . S
C2286 C2285 1.415 . S
C2287 H2263 0.951 . S
C2287 C2288 1.366 . S
C2287 C2289 1.388 . S
C2288 C2287 1.366 . S
C2288 C2292 1.385 . S
C2289 H2264 0.951 . S
C2289 C2287 1.388 . S
C2289 C2290 1.366 . S
C2290 C2289 1.366 . S
C2290 C2291 1.414 . S
C2290 C2293 1.499 . S
C2291 H2265 0.950 . S
C2291 C2290 1.414 . S
C2291 C2292 1.374 . S
C2292 H2266 0.950 . S
C2292 C2288 1.385 . S
C2292 C2291 1.374 . S
C2293 C2290 1.499 . S
C2293 C2294 1.373 . S
C2293 C2295 1.389 . S
C2294 H2267 0.950 . S
C2294 C2280 1.377 . S
C2294 C2293 1.373 . S
C2295 C2279 1.377 . S
C2295 C2293 1.389 . S
C2295 C2296 1.524 . S
C2296 C2295 1.524 . S
C2296 C2297 1.397 . S
C2296 C2301 1.363 . S
C2297 H2268 0.950 . S
C2297 C2296 1.397 . S
C2297 C2298 1.334 . S
C2298 H2269 0.950 . S
C2298 C2297 1.334 . S
C2298 C2299 1.287 . S
C2299 C2298 1.287 . S
C2299 C2300 1.524 . S
C2299 H2302 0.999 . S
C2300 H2270 0.950 . S
C2300 C2299 1.524 . S
C2300 C2301 1.415 . S
C2301 H2271 0.950 . S
C2301 C2296 1.363 . S
C2301 C2300 1.415 . S
H2302 C2299 0.999 . S
H2303 C2284 0.913 . S
H2304 C2322 0.951 . S
H2305 C2324 0.951 . S
H2306 C2326 0.950 . S
H2307 C2327 0.950 . S
H2308 C2329 0.950 . S
H2309 C2332 0.950 . S
H2310 C2333 0.950 . S
H2311 C2335 0.950 . S
H2312 C2336 0.950 . S
H2313 C2337 0.951 . S
H2314 C2339 0.951 . S
H2315 C2341 0.950 . S
H2316 C2342 0.950 . S
H2317 C2344 0.950 . S
H2318 C2347 0.950 . S
H2319 C2348 0.950 . S
H2320 C2350 0.950 . S
H2321 C2351 0.950 . S
C2322 H2304 0.951 . S
C2322 C2323 1.366 . S
C2322 C2324 1.388 . S
C2323 C2322 1.366 . S
C2323 C2327 1.385 . S
C2324 H2305 0.951 . S
C2324 C2322 1.388 . S
C2324 C2325 1.366 . S
C2325 C2324 1.366 . S
C2325 C2326 1.414 . S
C2325 C2328 1.499 . S
C2326 H2306 0.950 . S
C2326 C2325 1.414 . S
C2326 C2327 1.374 . S
C2327 H2307 0.950 . S
C2327 C2323 1.385 . S
C2327 C2326 1.374 . S
C2328 C2325 1.499 . S
C2328 C2329 1.373 . S
C2328 C2330 1.363 1_565 S
C2329 H2308 0.950 . S
C2329 C2328 1.373 . S
C2329 C2345 1.377 1_565 S
C2330 C2328 1.363 1_545 S
C2330 C2331 1.535 1_545 S
C2330 C2344 1.398 . S
C2331 C2330 1.535 1_565 S
C2331 C2332 1.397 . S
C2331 C2336 1.363 . S
C2332 H2309 0.950 . S
C2332 C2331 1.397 . S
C2332 C2333 1.334 . S
C2333 H2310 0.950 . S
C2333 C2332 1.334 . S
C2333 C2334 1.287 . S
C2334 C2333 1.287 . S
C2334 C2335 1.524 . S
C2334 H2353 0.913 . S
C2335 H2311 0.950 . S
C2335 C2334 1.524 . S
C2335 C2336 1.415 . S
C2336 H2312 0.950 . S
C2336 C2331 1.363 . S
C2336 C2335 1.415 . S
C2337 H2313 0.951 . S
C2337 C2338 1.366 . S
C2337 C2339 1.388 . S
C2338 C2337 1.366 . S
C2338 C2342 1.385 . S
C2339 H2314 0.951 . S
C2339 C2337 1.388 . S
C2339 C2340 1.366 . S
C2340 C2339 1.366 . S
C2340 C2341 1.414 . S
C2340 C2343 1.499 . S
C2341 H2315 0.950 . S
C2341 C2340 1.414 . S
C2341 C2342 1.374 . S
C2342 H2316 0.950 . S
C2342 C2338 1.385 . S
C2342 C2341 1.374 . S
C2343 C2340 1.499 . S
C2343 C2344 1.373 . S
C2343 C2345 1.389 . S
C2344 H2317 0.950 . S
C2344 C2330 1.398 . S
C2344 C2343 1.373 . S
C2345 C2329 1.377 1_545 S
C2345 C2343 1.389 . S
C2345 C2346 1.524 . S
C2346 C2345 1.524 . S
C2346 C2347 1.397 . S
C2346 C2351 1.363 . S
C2347 H2318 0.950 . S
C2347 C2346 1.397 . S
C2347 C2348 1.334 . S
C2348 H2319 0.950 . S
C2348 C2347 1.334 . S
C2348 C2349 1.287 . S
C2349 C2348 1.287 . S
C2349 C2350 1.524 . S
C2349 H2352 0.999 . S
C2350 H2320 0.950 . S
C2350 C2349 1.524 . S
C2350 C2351 1.415 . S
C2351 H2321 0.950 . S
C2351 C2346 1.363 . S
C2351 C2350 1.415 . S
H2352 C2349 0.999 . S
H2353 C2334 0.913 . S
H2354 C2372 0.951 . S
H2355 C2374 0.951 . S
H2356 C2376 0.950 . S
H2357 C2377 0.950 . S
H2358 C2379 0.950 . S
H2359 C2382 0.950 . S
H2360 C2383 0.950 . S
H2361 C2385 0.950 . S
H2362 C2386 0.953 1_655 S
H2363 C2387 0.951 . S
H2364 C2389 0.951 . S
H2365 C2391 0.950 . S
H2366 C2392 0.950 . S
H2367 C2394 0.950 . S
H2368 C2397 0.950 . S
H2369 C2398 0.950 . S
H2370 C2400 0.950 . S
H2371 C2401 0.950 . S
C2372 H2354 0.951 . S
C2372 C2373 1.366 . S
C2372 C2374 1.388 . S
C2373 C2372 1.366 . S
C2373 C2377 1.385 . S
C2374 H2355 0.951 . S
C2374 C2372 1.388 . S
C2374 C2375 1.366 . S
C2375 C2374 1.366 . S
C2375 C2376 1.414 . S
C2375 C2378 1.499 . S
C2376 H2356 0.950 . S
C2376 C2375 1.414 . S
C2376 C2377 1.374 . S
C2377 H2357 0.950 . S
C2377 C2373 1.385 . S
C2377 C2376 1.374 . S
C2378 C2375 1.499 . S
C2378 C2379 1.373 . S
C2378 C2380 1.403 . S
C2379 H2358 0.950 . S
C2379 C2378 1.373 . S
C2379 C2395 1.377 1_455 S
C2380 C2378 1.403 . S
C2380 C2381 1.547 . S
C2380 C2394 1.339 1_455 S
C2381 C2380 1.547 . S
C2381 C2382 1.397 . S
C2381 C2386 1.363 . S
C2382 H2359 0.950 . S
C2382 C2381 1.397 . S
C2382 C2383 1.334 . S
C2383 H2360 0.950 . S
C2383 C2382 1.334 . S
C2383 C2384 1.287 . S
C2384 C2383 1.287 . S
C2384 C2385 1.524 . S
C2384 H2403 0.913 . S
C2385 H2361 0.950 . S
C2385 C2384 1.524 . S
C2385 C2386 1.415 . S
C2386 H2362 0.953 1_455 S
C2386 C2381 1.363 . S
C2386 C2385 1.415 . S
C2387 H2363 0.951 . S
C2387 C2388 1.366 . S
C2387 C2389 1.388 . S
C2388 C2387 1.366 . S
C2388 C2392 1.385 . S
C2389 H2364 0.951 . S
C2389 C2387 1.388 . S
C2389 C2390 1.366 . S
C2390 C2389 1.366 . S
C2390 C2391 1.414 . S
C2390 C2393 1.499 . S
C2391 H2365 0.950 . S
C2391 C2390 1.414 . S
C2391 C2392 1.374 . S
C2392 H2366 0.950 . S
C2392 C2388 1.385 . S
C2392 C2391 1.374 . S
C2393 C2390 1.499 . S
C2393 C2394 1.373 . S
C2393 C2395 1.389 . S
C2394 H2367 0.950 . S
C2394 C2380 1.339 1_655 S
C2394 C2393 1.373 . S
C2395 C2379 1.377 1_655 S
C2395 C2393 1.389 . S
C2395 C2396 1.524 . S
C2396 C2395 1.524 . S
C2396 C2397 1.397 . S
C2396 C2401 1.363 . S
C2397 H2368 0.950 . S
C2397 C2396 1.397 . S
C2397 C2398 1.334 . S
C2398 H2369 0.950 . S
C2398 C2397 1.334 . S
C2398 C2399 1.287 . S
C2399 C2398 1.287 . S
C2399 C2400 1.524 . S
C2399 H2402 0.999 . S
C2400 H2370 0.950 . S
C2400 C2399 1.524 . S
C2400 C2401 1.415 . S
C2401 H2371 0.950 . S
C2401 C2396 1.363 . S
C2401 C2400 1.415 . S
H2402 C2399 0.999 . S
H2403 C2384 0.913 . S
H2404 C2422 0.951 . S
H2405 C2424 0.951 . S
H2406 C2426 0.950 . S
H2407 C2427 0.950 . S
H2408 C2429 0.950 . S
H2409 C2432 0.950 . S
H2410 C2433 0.950 . S
H2411 C2435 0.950 . S
H2412 C2436 0.950 . S
H2413 C2437 0.951 . S
H2414 C2439 0.951 . S
H2415 C2441 0.950 . S
H2416 C2442 0.950 . S
H2417 C2444 0.950 . S
H2418 C2447 0.950 . S
H2419 C2448 0.950 . S
H2420 C2450 0.950 . S
H2421 C2451 0.950 . S
C2422 H2404 0.951 . S
C2422 C2423 1.366 . S
C2422 C2424 1.388 . S
C2423 C2422 1.366 . S
C2423 C2427 1.385 . S
C2424 H2405 0.951 . S
C2424 C2422 1.388 . S
C2424 C2425 1.366 . S
C2425 C2424 1.366 . S
C2425 C2426 1.414 . S
C2425 C2428 1.499 . S
C2426 H2406 0.950 . S
C2426 C2425 1.414 . S
C2426 C2427 1.374 . S
C2427 H2407 0.950 . S
C2427 C2423 1.385 . S
C2427 C2426 1.374 . S
C2428 C2425 1.499 . S
C2428 C2429 1.373 . S
C2428 C2430 1.389 . S
C2429 H2408 0.950 . S
C2429 C2428 1.373 . S
C2429 C2445 1.377 . S
C2430 C2428 1.389 . S
C2430 C2431 1.524 . S
C2430 C2444 1.377 . S
C2431 C2430 1.524 . S
C2431 C2432 1.397 . S
C2431 C2436 1.363 . S
C2432 H2409 0.950 . S
C2432 C2431 1.397 . S
C2432 C2433 1.334 . S
C2433 H2410 0.950 . S
C2433 C2432 1.334 . S
C2433 C2434 1.287 . S
C2434 C2433 1.287 . S
C2434 C2435 1.524 . S
C2434 H2453 0.913 . S
C2435 H2411 0.950 . S
C2435 C2434 1.524 . S
C2435 C2436 1.415 . S
C2436 H2412 0.950 . S
C2436 C2431 1.363 . S
C2436 C2435 1.415 . S
C2437 H2413 0.951 . S
C2437 C2438 1.366 . S
C2437 C2439 1.388 . S
C2438 C2437 1.366 . S
C2438 C2442 1.385 . S
C2439 H2414 0.951 . S
C2439 C2437 1.388 . S
C2439 C2440 1.366 . S
C2440 C2439 1.366 . S
C2440 C2441 1.414 . S
C2440 C2443 1.499 . S
C2441 H2415 0.950 . S
C2441 C2440 1.414 . S
C2441 C2442 1.374 . S
C2442 H2416 0.950 . S
C2442 C2438 1.385 . S
C2442 C2441 1.374 . S
C2443 C2440 1.499 . S
C2443 C2444 1.373 . S
C2443 C2445 1.389 . S
C2444 H2417 0.950 . S
C2444 C2430 1.377 . S
C2444 C2443 1.373 . S
C2445 C2429 1.377 . S
C2445 C2443 1.389 . S
C2445 C2446 1.524 . S
C2446 C2445 1.524 . S
C2446 C2447 1.397 . S
C2446 C2451 1.363 . S
C2447 H2418 0.950 . S
C2447 C2446 1.397 . S
C2447 C2448 1.334 . S
C2448 H2419 0.950 . S
C2448 C2447 1.334 . S
C2448 C2449 1.287 . S
C2449 C2448 1.287 . S
C2449 C2450 1.524 . S
C2449 H2452 0.999 . S
C2450 H2420 0.950 . S
C2450 C2449 1.524 . S
C2450 C2451 1.415 . S
C2451 H2421 0.950 . S
C2451 C2446 1.363 . S
C2451 C2450 1.415 . S
H2452 C2449 0.999 . S
H2453 C2434 0.913 . S
H2454 C2472 0.951 . S
H2455 C2474 0.951 . S
H2456 C2476 0.950 . S
H2457 C2477 0.950 . S
H2458 C2479 0.950 . S
H2459 C2482 0.950 . S
H2460 C2483 0.950 . S
H2461 C2485 0.950 . S
H2462 C2486 0.950 . S
H2463 C2487 0.951 . S
H2464 C2489 0.951 . S
H2465 C2491 0.950 . S
H2466 C2492 0.950 . S
H2467 C2494 0.950 . S
H2468 C2497 0.950 . S
H2469 C2498 0.950 . S
H2470 C2500 0.950 . S
H2471 C2501 0.950 . S
C2472 H2454 0.951 . S
C2472 C2473 1.366 . S
C2472 C2474 1.388 . S
C2473 C2472 1.366 . S
C2473 C2477 1.385 . S
C2474 H2455 0.951 . S
C2474 C2472 1.388 . S
C2474 C2475 1.366 1_455 S
C2475 C2474 1.366 1_655 S
C2475 C2476 1.414 . S
C2475 C2478 1.499 . S
C2476 H2456 0.950 . S
C2476 C2475 1.414 . S
C2476 C2477 1.374 1_655 S
C2477 H2457 0.950 . S
C2477 C2473 1.385 . S
C2477 C2476 1.374 1_455 S
C2478 C2475 1.499 . S
C2478 C2479 1.373 . S
C2478 C2480 1.389 . S
C2479 H2458 0.950 . S
C2479 C2478 1.373 . S
C2479 C2495 1.377 . S
C2480 C2478 1.389 . S
C2480 C2481 1.524 . S
C2480 C2494 1.377 . S
C2481 C2480 1.524 . S
C2481 C2482 1.397 . S
C2481 C2486 1.363 . S
C2482 H2459 0.950 . S
C2482 C2481 1.397 . S
C2482 C2483 1.334 . S
C2483 H2460 0.950 . S
C2483 C2482 1.334 . S
C2483 C2484 1.287 . S
C2484 C2483 1.287 . S
C2484 C2485 1.524 . S
C2484 H2503 0.913 . S
C2485 H2461 0.950 . S
C2485 C2484 1.524 . S
C2485 C2486 1.415 . S
C2486 H2462 0.950 . S
C2486 C2481 1.363 . S
C2486 C2485 1.415 . S
C2487 H2463 0.951 . S
C2487 C2488 1.366 . S
C2487 C2489 1.388 . S
C2488 C2487 1.366 . S
C2488 C2492 1.385 . S
C2489 H2464 0.951 . S
C2489 C2487 1.388 . S
C2489 C2490 1.366 . S
C2490 C2489 1.366 . S
C2490 C2491 1.414 . S
C2490 C2493 1.499 . S
C2491 H2465 0.950 . S
C2491 C2490 1.414 . S
C2491 C2492 1.374 . S
C2492 H2466 0.950 . S
C2492 C2488 1.385 . S
C2492 C2491 1.374 . S
C2493 C2490 1.499 . S
C2493 C2494 1.373 . S
C2493 C2495 1.389 . S
C2494 H2467 0.950 . S
C2494 C2480 1.377 . S
C2494 C2493 1.373 . S
C2495 C2479 1.377 . S
C2495 C2493 1.389 . S
C2495 C2496 1.524 . S
C2496 C2495 1.524 . S
C2496 C2497 1.397 . S
C2496 C2501 1.363 . S
C2497 H2468 0.950 . S
C2497 C2496 1.397 . S
C2497 C2498 1.334 . S
C2498 H2469 0.950 . S
C2498 C2497 1.334 . S
C2498 C2499 1.287 . S
C2499 C2498 1.287 . S
C2499 C2500 1.524 . S
C2499 H2502 0.999 . S
C2500 H2470 0.950 . S
C2500 C2499 1.524 . S
C2500 C2501 1.415 . S
C2501 H2471 0.950 . S
C2501 C2496 1.363 . S
C2501 C2500 1.415 . S
H2502 C2499 0.999 . S
H2503 C2484 0.913 . S
H2504 C2522 0.951 . S
H2505 C2524 0.951 . S
H2506 C2526 0.950 . S
H2507 C2527 0.950 . S
H2508 C2529 0.950 . S
H2509 C2532 0.950 . S
H2510 C2533 0.950 . S
H2511 C2535 0.950 . S
H2512 C2536 0.950 . S
H2513 C2537 0.951 . S
H2514 C2539 0.951 . S
H2515 C2541 0.950 . S
H2516 C2542 0.950 . S
H2517 C2544 0.950 . S
H2518 C2547 0.950 . S
H2519 C2548 0.950 . S
H2520 C2550 0.950 . S
H2521 C2551 0.950 . S
C2522 H2504 0.951 . S
C2522 C2523 1.366 . S
C2522 C2524 1.388 . S
C2523 C2522 1.366 . S
C2523 C2527 1.385 . S
C2524 H2505 0.951 . S
C2524 C2522 1.388 . S
C2524 C2525 1.366 . S
C2525 C2524 1.366 . S
C2525 C2526 1.414 . S
C2525 C2528 1.499 . S
C2526 H2506 0.950 . S
C2526 C2525 1.414 . S
C2526 C2527 1.374 . S
C2527 H2507 0.950 . S
C2527 C2523 1.385 . S
C2527 C2526 1.374 . S
C2528 C2525 1.499 . S
C2528 C2529 1.373 . S
C2528 C2530 1.389 . S
C2529 H2508 0.950 . S
C2529 C2528 1.373 . S
C2529 C2545 1.377 . S
C2530 C2528 1.389 . S
C2530 C2531 1.524 . S
C2530 C2544 1.377 . S
C2531 C2530 1.524 . S
C2531 C2532 1.397 . S
C2531 C2536 1.363 . S
C2532 H2509 0.950 . S
C2532 C2531 1.397 . S
C2532 C2533 1.334 . S
C2533 H2510 0.950 . S
C2533 C2532 1.334 . S
C2533 C2534 1.287 . S
C2534 C2533 1.287 . S
C2534 C2535 1.524 . S
C2534 H2553 0.913 . S
C2535 H2511 0.950 . S
C2535 C2534 1.524 . S
C2535 C2536 1.415 . S
C2536 H2512 0.950 . S
C2536 C2531 1.363 . S
C2536 C2535 1.415 . S
C2537 H2513 0.951 . S
C2537 C2538 1.366 . S
C2537 C2539 1.388 . S
C2538 C2537 1.366 . S
C2538 C2542 1.385 . S
C2539 H2514 0.951 . S
C2539 C2537 1.388 . S
C2539 C2540 1.366 . S
C2540 C2539 1.366 . S
C2540 C2541 1.414 . S
C2540 C2543 1.499 . S
C2541 H2515 0.950 . S
C2541 C2540 1.414 . S
C2541 C2542 1.374 . S
C2542 H2516 0.950 . S
C2542 C2538 1.385 . S
C2542 C2541 1.374 . S
C2543 C2540 1.499 . S
C2543 C2544 1.373 . S
C2543 C2545 1.389 . S
C2544 H2517 0.950 . S
C2544 C2530 1.377 . S
C2544 C2543 1.373 . S
C2545 C2529 1.377 . S
C2545 C2543 1.389 . S
C2545 C2546 1.524 . S
C2546 C2545 1.524 . S
C2546 C2547 1.397 . S
C2546 C2551 1.363 . S
C2547 H2518 0.950 . S
C2547 C2546 1.397 . S
C2547 C2548 1.334 . S
C2548 H2519 0.950 . S
C2548 C2547 1.334 . S
C2548 C2549 1.287 . S
C2549 C2548 1.287 . S
C2549 C2550 1.524 . S
C2549 H2552 0.999 . S
C2550 H2520 0.950 . S
C2550 C2549 1.524 . S
C2550 C2551 1.415 . S
C2551 H2521 0.950 . S
C2551 C2546 1.363 . S
C2551 C2550 1.415 . S
H2552 C2549 0.999 . S
H2553 C2534 0.913 . S
H2554 C2572 0.951 . S
H2555 C2574 0.950 1_545 S
H2556 C2576 0.950 . S
H2557 C2577 0.950 . S
H2558 C2579 0.950 . S
H2559 C2582 0.950 . S
H2560 C2583 0.950 . S
H2561 C2585 0.950 . S
H2562 C2586 0.950 . S
H2563 C2587 0.951 . S
H2564 C2589 0.951 . S
H2565 C2591 0.950 . S
H2566 C2592 0.950 . S
H2567 C2594 0.950 . S
H2568 C2597 0.950 . S
H2569 C2598 0.950 . S
H2570 C2600 0.950 . S
H2571 C2601 0.950 . S
C2572 H2554 0.951 . S
C2572 C2573 1.366 . S
C2572 C2574 1.388 . S
C2573 C2572 1.366 . S
C2573 C2577 1.385 . S
C2574 H2555 0.950 1_565 S
C2574 C2572 1.388 . S
C2574 C2575 1.366 1_565 S
C2575 C2574 1.366 1_545 S
C2575 C2576 1.414 . S
C2575 C2578 1.499 . S
C2576 H2556 0.950 . S
C2576 C2575 1.414 . S
C2576 C2577 1.374 1_545 S
C2577 H2557 0.950 . S
C2577 C2573 1.385 . S
C2577 C2576 1.374 1_565 S
C2578 C2575 1.499 . S
C2578 C2579 1.373 . S
C2578 C2580 1.389 . S
C2579 H2558 0.950 . S
C2579 C2578 1.373 . S
C2579 C2595 1.377 . S
C2580 C2578 1.389 . S
C2580 C2581 1.524 . S
C2580 C2594 1.377 . S
C2581 C2580 1.524 . S
C2581 C2582 1.397 . S
C2581 C2586 1.363 . S
C2582 H2559 0.950 . S
C2582 C2581 1.397 . S
C2582 C2583 1.334 . S
C2583 H2560 0.950 . S
C2583 C2582 1.334 . S
C2583 C2584 1.287 . S
C2584 C2583 1.287 . S
C2584 C2585 1.524 . S
C2584 H2603 0.913 . S
C2585 H2561 0.950 . S
C2585 C2584 1.524 . S
C2585 C2586 1.415 . S
C2586 H2562 0.950 . S
C2586 C2581 1.363 . S
C2586 C2585 1.415 . S
C2587 H2563 0.951 . S
C2587 C2588 1.366 . S
C2587 C2589 1.388 . S
C2588 C2587 1.366 . S
C2588 C2592 1.385 . S
C2589 H2564 0.951 . S
C2589 C2587 1.388 . S
C2589 C2590 1.366 . S
C2590 C2589 1.366 . S
C2590 C2591 1.414 . S
C2590 C2593 1.499 . S
C2591 H2565 0.950 . S
C2591 C2590 1.414 . S
C2591 C2592 1.374 . S
C2592 H2566 0.950 . S
C2592 C2588 1.385 . S
C2592 C2591 1.374 . S
C2593 C2590 1.499 . S
C2593 C2594 1.373 . S
C2593 C2595 1.389 . S
C2594 H2567 0.950 . S
C2594 C2580 1.377 . S
C2594 C2593 1.373 . S
C2595 C2579 1.377 . S
C2595 C2593 1.389 . S
C2595 C2596 1.524 . S
C2596 C2595 1.524 . S
C2596 C2597 1.397 . S
C2596 C2601 1.363 . S
C2597 H2568 0.950 . S
C2597 C2596 1.397 . S
C2597 C2598 1.334 . S
C2598 H2569 0.950 . S
C2598 C2597 1.334 . S
C2598 C2599 1.287 . S
C2599 C2598 1.287 . S
C2599 C2600 1.524 . S
C2599 H2602 0.999 . S
C2600 H2570 0.950 . S
C2600 C2599 1.524 . S
C2600 C2601 1.415 . S
C2601 H2571 0.950 . S
C2601 C2596 1.363 . S
C2601 C2600 1.415 . S
H2602 C2599 0.999 . S
H2603 C2584 0.913 . S
H2604 C2622 0.951 . S
H2605 C2624 0.951 . S
H2606 C2626 0.950 . S
H2607 C2627 0.950 . S
H2608 C2629 0.950 . S
H2609 C2632 0.950 . S
H2610 C2633 0.950 . S
H2611 C2635 0.950 . S
H2612 C2636 0.950 . S
H2613 C2637 0.951 . S
H2614 C2639 0.951 . S
H2615 C2641 0.950 . S
H2616 C2642 0.950 . S
H2617 C2644 0.950 . S
H2618 C2647 0.950 . S
H2619 C2648 0.950 . S
H2620 C2650 0.950 . S
H2621 C2651 0.950 . S
C2622 H2604 0.951 . S
C2622 C2623 1.366 . S
C2622 C2624 1.388 . S
C2623 C2622 1.366 . S
C2623 C2627 1.385 . S
C2624 H2605 0.951 . S
C2624 C2622 1.388 . S
C2624 C2625 1.366 . S
C2625 C2624 1.366 . S
C2625 C2626 1.414 . S
C2625 C2628 1.499 . S
C2626 H2606 0.950 . S
C2626 C2625 1.414 . S
C2626 C2627 1.374 . S
C2627 H2607 0.950 . S
C2627 C2623 1.385 . S
C2627 C2626 1.374 . S
C2628 C2625 1.499 . S
C2628 C2629 1.373 . S
C2628 C2630 1.389 . S
C2629 H2608 0.950 . S
C2629 C2628 1.373 . S
C2629 C2645 1.377 . S
C2630 C2628 1.389 . S
C2630 C2631 1.524 . S
C2630 C2644 1.377 . S
C2631 C2630 1.524 . S
C2631 C2632 1.397 . S
C2631 C2636 1.363 . S
C2632 H2609 0.950 . S
C2632 C2631 1.397 . S
C2632 C2633 1.334 . S
C2633 H2610 0.950 . S
C2633 C2632 1.334 . S
C2633 C2634 1.287 . S
C2634 C2633 1.287 . S
C2634 C2635 1.524 . S
C2634 H2653 0.913 . S
C2635 H2611 0.950 . S
C2635 C2634 1.524 . S
C2635 C2636 1.415 . S
C2636 H2612 0.950 . S
C2636 C2631 1.363 . S
C2636 C2635 1.415 . S
C2637 H2613 0.951 . S
C2637 C2638 1.366 . S
C2637 C2639 1.388 . S
C2638 C2637 1.366 . S
C2638 C2642 1.385 . S
C2639 H2614 0.951 . S
C2639 C2637 1.388 . S
C2639 C2640 1.366 . S
C2640 C2639 1.366 . S
C2640 C2641 1.414 . S
C2640 C2643 1.499 . S
C2641 H2615 0.950 . S
C2641 C2640 1.414 . S
C2641 C2642 1.374 . S
C2642 H2616 0.950 . S
C2642 C2638 1.385 . S
C2642 C2641 1.374 . S
C2643 C2640 1.499 . S
C2643 C2644 1.373 . S
C2643 C2645 1.389 . S
C2644 H2617 0.950 . S
C2644 C2630 1.377 . S
C2644 C2643 1.373 . S
C2645 C2629 1.377 . S
C2645 C2643 1.389 . S
C2645 C2646 1.524 . S
C2646 C2645 1.524 . S
C2646 C2647 1.397 . S
C2646 C2651 1.363 . S
C2647 H2618 0.950 . S
C2647 C2646 1.397 . S
C2647 C2648 1.334 . S
C2648 H2619 0.950 . S
C2648 C2647 1.334 . S
C2648 C2649 1.287 . S
C2649 C2648 1.287 . S
C2649 C2650 1.524 . S
C2649 H2652 0.999 . S
C2650 H2620 0.950 . S
C2650 C2649 1.524 . S
C2650 C2651 1.415 . S
C2651 H2621 0.950 . S
C2651 C2646 1.363 . S
C2651 C2650 1.415 . S
H2652 C2649 0.999 . S
H2653 C2634 0.913 . S
H2654 C2672 0.951 . S
H2655 C2674 0.951 . S
H2656 C2676 0.950 . S
H2657 C2677 0.950 . S
H2658 C2679 0.950 . S
H2659 C2682 0.950 . S
H2660 C2683 0.950 . S
H2661 C2685 0.950 . S
H2662 C2686 0.950 . S
H2663 C2687 0.951 . S
H2664 C2689 0.951 . S
H2665 C2691 0.950 . S
H2666 C2692 0.950 . S
H2667 C2694 0.950 . S
H2668 C2697 0.950 . S
H2669 C2698 0.950 . S
H2670 C2700 0.950 . S
H2671 C2701 0.950 . S
C2672 H2654 0.951 . S
C2672 C2673 1.366 . S
C2672 C2674 1.388 . S
C2673 C2672 1.366 . S
C2673 C2677 1.385 . S
C2674 H2655 0.951 . S
C2674 C2672 1.388 . S
C2674 C2675 1.366 . S
C2675 C2674 1.366 . S
C2675 C2676 1.414 . S
C2675 C2678 1.499 . S
C2676 H2656 0.950 . S
C2676 C2675 1.414 . S
C2676 C2677 1.374 . S
C2677 H2657 0.950 . S
C2677 C2673 1.385 . S
C2677 C2676 1.374 . S
C2678 C2675 1.499 . S
C2678 C2679 1.373 . S
C2678 C2680 1.389 . S
C2679 H2658 0.950 . S
C2679 C2678 1.373 . S
C2679 C2695 1.377 . S
C2680 C2678 1.389 . S
C2680 C2681 1.524 . S
C2680 C2694 1.377 . S
C2681 C2680 1.524 . S
C2681 C2682 1.397 . S
C2681 C2686 1.363 . S
C2682 H2659 0.950 . S
C2682 C2681 1.397 . S
C2682 C2683 1.334 . S
C2683 H2660 0.950 . S
C2683 C2682 1.334 . S
C2683 C2684 1.287 . S
C2684 C2683 1.287 . S
C2684 C2685 1.524 . S
C2684 H2703 0.913 . S
C2685 H2661 0.950 . S
C2685 C2684 1.524 . S
C2685 C2686 1.415 . S
C2686 H2662 0.950 . S
C2686 C2681 1.363 . S
C2686 C2685 1.415 . S
C2687 H2663 0.951 . S
C2687 C2688 1.366 . S
C2687 C2689 1.388 . S
C2688 C2687 1.366 . S
C2688 C2692 1.385 . S
C2689 H2664 0.951 . S
C2689 C2687 1.388 . S
C2689 C2690 1.366 . S
C2690 C2689 1.366 . S
C2690 C2691 1.414 . S
C2690 C2693 1.499 . S
C2691 H2665 0.950 . S
C2691 C2690 1.414 . S
C2691 C2692 1.374 . S
C2692 H2666 0.950 . S
C2692 C2688 1.385 . S
C2692 C2691 1.374 . S
C2693 C2690 1.499 . S
C2693 C2694 1.373 . S
C2693 C2695 1.389 . S
C2694 H2667 0.950 . S
C2694 C2680 1.377 . S
C2694 C2693 1.373 . S
C2695 C2679 1.377 . S
C2695 C2693 1.389 . S
C2695 C2696 1.524 . S
C2696 C2695 1.524 . S
C2696 C2697 1.397 . S
C2696 C2701 1.363 . S
C2697 H2668 0.950 . S
C2697 C2696 1.397 . S
C2697 C2698 1.334 . S
C2698 H2669 0.950 . S
C2698 C2697 1.334 . S
C2698 C2699 1.287 . S
C2699 C2698 1.287 . S
C2699 C2700 1.524 . S
C2699 H2702 0.999 . S
C2700 H2670 0.950 . S
C2700 C2699 1.524 . S
C2700 C2701 1.415 . S
C2701 H2671 0.950 . S
C2701 C2696 1.363 . S
C2701 C2700 1.415 . S
H2702 C2699 0.999 . S
H2703 C2684 0.913 . S
H2704 C2722 0.951 . S
H2705 C2724 0.951 . S
H2706 C2726 0.950 . S
H2707 C2727 0.950 . S
H2708 C2729 0.950 . S
H2709 C2732 0.950 . S
H2710 C2733 0.950 . S
H2711 C2735 0.950 . S
H2712 C2736 0.950 . S
H2713 C2737 0.951 . S
H2714 C2739 0.951 . S
H2715 C2741 0.950 . S
H2716 C2742 0.950 . S
H2717 C2744 0.950 . S
H2718 C2747 0.950 . S
H2719 C2748 0.950 . S
H2720 C2750 0.950 . S
H2721 C2751 0.950 . S
C2722 H2704 0.951 . S
C2722 C2723 1.366 . S
C2722 C2724 1.388 . S
C2723 C2722 1.366 . S
C2723 C2727 1.385 . S
C2724 H2705 0.951 . S
C2724 C2722 1.388 . S
C2724 C2725 1.366 . S
C2725 C2724 1.366 . S
C2725 C2726 1.414 . S
C2725 C2728 1.499 . S
C2726 H2706 0.950 . S
C2726 C2725 1.414 . S
C2726 C2727 1.374 . S
C2727 H2707 0.950 . S
C2727 C2723 1.385 . S
C2727 C2726 1.374 . S
C2728 C2725 1.499 . S
C2728 C2729 1.373 . S
C2728 C2730 1.389 . S
C2729 H2708 0.950 . S
C2729 C2728 1.373 . S
C2729 C2745 1.377 . S
C2730 C2728 1.389 . S
C2730 C2731 1.524 . S
C2730 C2744 1.377 . S
C2731 C2730 1.524 . S
C2731 C2732 1.397 . S
C2731 C2736 1.363 . S
C2732 H2709 0.950 . S
C2732 C2731 1.397 . S
C2732 C2733 1.334 . S
C2733 H2710 0.950 . S
C2733 C2732 1.334 . S
C2733 C2734 1.287 . S
C2734 C2733 1.287 . S
C2734 C2735 1.524 . S
C2734 H2753 0.913 . S
C2735 H2711 0.950 . S
C2735 C2734 1.524 . S
C2735 C2736 1.415 . S
C2736 H2712 0.950 . S
C2736 C2731 1.363 . S
C2736 C2735 1.415 . S
C2737 H2713 0.951 . S
C2737 C2738 1.366 . S
C2737 C2739 1.388 . S
C2738 C2737 1.366 . S
C2738 C2742 1.385 . S
C2739 H2714 0.951 . S
C2739 C2737 1.388 . S
C2739 C2740 1.366 . S
C2740 C2739 1.366 . S
C2740 C2741 1.414 . S
C2740 C2743 1.499 . S
C2741 H2715 0.950 . S
C2741 C2740 1.414 . S
C2741 C2742 1.374 . S
C2742 H2716 0.950 . S
C2742 C2738 1.385 . S
C2742 C2741 1.374 . S
C2743 C2740 1.499 . S
C2743 C2744 1.373 . S
C2743 C2745 1.389 . S
C2744 H2717 0.950 . S
C2744 C2730 1.377 . S
C2744 C2743 1.373 . S
C2745 C2729 1.377 . S
C2745 C2743 1.389 . S
C2745 C2746 1.524 . S
C2746 C2745 1.524 . S
C2746 C2747 1.397 . S
C2746 C2751 1.363 . S
C2747 H2718 0.950 . S
C2747 C2746 1.397 . S
C2747 C2748 1.334 . S
C2748 H2719 0.950 . S
C2748 C2747 1.334 . S
C2748 C2749 1.287 . S
C2749 C2748 1.287 . S
C2749 C2750 1.524 . S
C2749 H2752 0.999 . S
C2750 H2720 0.950 . S
C2750 C2749 1.524 . S
C2750 C2751 1.415 . S
C2751 H2721 0.950 . S
C2751 C2746 1.363 . S
C2751 C2750 1.415 . S
H2752 C2749 0.999 . S
H2753 C2734 0.913 . S
H2754 C2772 0.951 . S
H2755 C2774 0.951 . S
H2756 C2776 0.950 . S
H2757 C2777 0.950 . S
H2758 C2779 0.950 . S
H2759 C2782 0.950 . S
H2760 C2783 0.950 . S
H2761 C2785 0.950 . S
H2762 C2786 0.950 . S
H2763 C2787 0.951 . S
H2764 C2789 0.951 . S
H2765 C2791 0.950 . S
H2766 C2792 0.950 . S
H2767 C2794 0.950 . S
H2768 C2797 0.950 . S
H2769 C2798 0.950 . S
H2770 C2800 0.950 . S
H2771 C2801 0.950 . S
C2772 H2754 0.951 . S
C2772 C2773 1.366 . S
C2772 C2774 1.388 . S
C2773 C2772 1.366 . S
C2773 C2777 1.385 . S
C2774 H2755 0.951 . S
C2774 C2772 1.388 . S
C2774 C2775 1.366 . S
C2775 C2774 1.366 . S
C2775 C2776 1.414 . S
C2775 C2778 1.499 . S
C2776 H2756 0.950 . S
C2776 C2775 1.414 . S
C2776 C2777 1.374 . S
C2777 H2757 0.950 . S
C2777 C2773 1.385 . S
C2777 C2776 1.374 . S
C2778 C2775 1.499 . S
C2778 C2779 1.373 . S
C2778 C2780 1.389 . S
C2779 H2758 0.950 . S
C2779 C2778 1.373 . S
C2779 C2795 1.377 . S
C2780 C2778 1.389 . S
C2780 C2781 1.524 . S
C2780 C2794 1.377 . S
C2781 C2780 1.524 . S
C2781 C2782 1.397 . S
C2781 C2786 1.363 . S
C2782 H2759 0.950 . S
C2782 C2781 1.397 . S
C2782 C2783 1.334 . S
C2783 H2760 0.950 . S
C2783 C2782 1.334 . S
C2783 C2784 1.287 . S
C2784 C2783 1.287 . S
C2784 C2785 1.524 . S
C2784 H2803 0.913 . S
C2785 H2761 0.950 . S
C2785 C2784 1.524 . S
C2785 C2786 1.415 . S
C2786 H2762 0.950 . S
C2786 C2781 1.363 . S
C2786 C2785 1.415 . S
C2787 H2763 0.951 . S
C2787 C2788 1.366 . S
C2787 C2789 1.388 . S
C2788 C2787 1.366 . S
C2788 C2792 1.385 . S
C2789 H2764 0.951 . S
C2789 C2787 1.388 . S
C2789 C2790 1.366 . S
C2790 C2789 1.366 . S
C2790 C2791 1.414 . S
C2790 C2793 1.499 . S
C2791 H2765 0.950 . S
C2791 C2790 1.414 . S
C2791 C2792 1.374 . S
C2792 H2766 0.950 . S
C2792 C2788 1.385 . S
C2792 C2791 1.374 . S
C2793 C2790 1.499 . S
C2793 C2794 1.373 . S
C2793 C2795 1.389 . S
C2794 H2767 0.950 . S
C2794 C2780 1.377 . S
C2794 C2793 1.373 . S
C2795 C2779 1.377 . S
C2795 C2793 1.389 . S
C2795 C2796 1.524 . S
C2796 C2795 1.524 . S
C2796 C2797 1.397 . S
C2796 C2801 1.363 . S
C2797 H2768 0.950 . S
C2797 C2796 1.397 . S
C2797 C2798 1.334 . S
C2798 H2769 0.950 . S
C2798 C2797 1.334 . S
C2798 C2799 1.287 . S
C2799 C2798 1.287 . S
C2799 C2800 1.524 . S
C2799 H2802 0.999 . S
C2800 H2770 0.950 . S
C2800 C2799 1.524 . S
C2800 C2801 1.415 . S
C2801 H2771 0.950 . S
C2801 C2796 1.363 . S
C2801 C2800 1.415 . S
H2802 C2799 0.999 . S
H2803 C2784 0.913 . S
H2804 C2822 0.951 . S
H2805 C2824 0.951 . S
H2806 C2826 0.950 . S
H2807 C2827 0.950 . S
H2808 C2829 0.950 . S
H2809 C2832 0.950 . S
H2810 C2833 0.950 . S
H2811 C2835 0.950 . S
H2812 C2836 0.950 . S
H2813 C2837 0.951 . S
H2814 C2839 0.951 . S
H2815 C2841 0.950 . S
H2816 C2842 0.950 . S
H2817 C2844 0.950 . S
H2818 C2847 0.950 . S
H2819 C2848 0.950 . S
H2820 C2850 0.950 . S
H2821 C2851 0.950 . S
C2822 H2804 0.951 . S
C2822 C2823 1.366 . S
C2822 C2824 1.388 . S
C2823 C2822 1.366 . S
C2823 C2827 1.385 . S
C2824 H2805 0.951 . S
C2824 C2822 1.388 . S
C2824 C2825 1.366 . S
C2825 C2824 1.366 . S
C2825 C2826 1.414 . S
C2825 C2828 1.499 . S
C2826 H2806 0.950 . S
C2826 C2825 1.414 . S
C2826 C2827 1.374 . S
C2827 H2807 0.950 . S
C2827 C2823 1.385 . S
C2827 C2826 1.374 . S
C2828 C2825 1.499 . S
C2828 C2829 1.373 . S
C2828 C2830 1.389 . S
C2829 H2808 0.950 . S
C2829 C2828 1.373 . S
C2829 C2845 1.377 . S
C2830 C2828 1.389 . S
C2830 C2831 1.524 . S
C2830 C2844 1.377 . S
C2831 C2830 1.524 . S
C2831 C2832 1.397 . S
C2831 C2836 1.363 . S
C2832 H2809 0.950 . S
C2832 C2831 1.397 . S
C2832 C2833 1.334 . S
C2833 H2810 0.950 . S
C2833 C2832 1.334 . S
C2833 C2834 1.287 . S
C2834 C2833 1.287 . S
C2834 C2835 1.524 . S
C2834 H2853 0.913 . S
C2835 H2811 0.950 . S
C2835 C2834 1.524 . S
C2835 C2836 1.415 . S
C2836 H2812 0.950 . S
C2836 C2831 1.363 . S
C2836 C2835 1.415 . S
C2837 H2813 0.951 . S
C2837 C2838 1.366 . S
C2837 C2839 1.388 . S
C2838 C2837 1.366 . S
C2838 C2842 1.385 . S
C2839 H2814 0.951 . S
C2839 C2837 1.388 . S
C2839 C2840 1.366 . S
C2840 C2839 1.366 . S
C2840 C2841 1.414 . S
C2840 C2843 1.499 . S
C2841 H2815 0.950 . S
C2841 C2840 1.414 . S
C2841 C2842 1.374 . S
C2842 H2816 0.950 . S
C2842 C2838 1.385 . S
C2842 C2841 1.374 . S
C2843 C2840 1.499 . S
C2843 C2844 1.373 . S
C2843 C2845 1.389 . S
C2844 H2817 0.950 . S
C2844 C2830 1.377 . S
C2844 C2843 1.373 . S
C2845 C2829 1.377 . S
C2845 C2843 1.389 . S
C2845 C2846 1.524 . S
C2846 C2845 1.524 . S
C2846 C2847 1.397 . S
C2846 C2851 1.363 . S
C2847 H2818 0.950 . S
C2847 C2846 1.397 . S
C2847 C2848 1.334 . S
C2848 H2819 0.950 . S
C2848 C2847 1.334 . S
C2848 C2849 1.287 . S
C2849 C2848 1.287 . S
C2849 C2850 1.524 . S
C2849 H2852 0.999 . S
C2850 H2820 0.950 . S
C2850 C2849 1.524 . S
C2850 C2851 1.415 . S
C2851 H2821 0.950 . S
C2851 C2846 1.363 . S
C2851 C2850 1.415 . S
H2852 C2849 0.999 . S
H2853 C2834 0.913 . S
H2854 C2872 0.951 . S
H2855 C2874 0.951 . S
H2856 C2876 0.950 . S
H2857 C2877 0.950 . S
H2858 C2879 0.950 . S
H2859 C2882 0.950 . S
H2860 C2883 0.950 . S
H2861 C2885 0.950 . S
H2862 C2886 0.950 . S
H2863 C2887 0.951 . S
H2864 C2889 0.951 . S
H2865 C2891 0.950 . S
H2866 C2892 0.950 . S
H2867 C2894 0.950 . S
H2868 C2897 0.950 . S
H2869 C2898 0.950 . S
H2870 C2900 0.950 . S
H2871 C2901 0.950 . S
C2872 H2854 0.951 . S
C2872 C2873 1.366 . S
C2872 C2874 1.388 . S
C2873 C2872 1.366 . S
C2873 C2877 1.385 . S
C2874 H2855 0.951 . S
C2874 C2872 1.388 . S
C2874 C2875 1.366 . S
C2875 C2874 1.366 . S
C2875 C2876 1.414 . S
C2875 C2878 1.499 . S
C2876 H2856 0.950 . S
C2876 C2875 1.414 . S
C2876 C2877 1.374 . S
C2877 H2857 0.950 . S
C2877 C2873 1.385 . S
C2877 C2876 1.374 . S
C2878 C2875 1.499 . S
C2878 C2879 1.373 . S
C2878 C2880 1.389 . S
C2879 H2858 0.950 . S
C2879 C2878 1.373 . S
C2879 C2895 1.377 . S
C2880 C2878 1.389 . S
C2880 C2881 1.524 . S
C2880 C2894 1.377 . S
C2881 C2880 1.524 . S
C2881 C2882 1.397 . S
C2881 C2886 1.363 . S
C2882 H2859 0.950 . S
C2882 C2881 1.397 . S
C2882 C2883 1.334 . S
C2883 H2860 0.950 . S
C2883 C2882 1.334 . S
C2883 C2884 1.287 . S
C2884 C2883 1.287 . S
C2884 C2885 1.524 . S
C2884 H2903 0.913 . S
C2885 H2861 0.950 . S
C2885 C2884 1.524 . S
C2885 C2886 1.415 . S
C2886 H2862 0.950 . S
C2886 C2881 1.363 . S
C2886 C2885 1.415 . S
C2887 H2863 0.951 . S
C2887 C2888 1.366 . S
C2887 C2889 1.388 . S
C2888 C2887 1.366 . S
C2888 C2892 1.385 . S
C2889 H2864 0.951 . S
C2889 C2887 1.388 . S
C2889 C2890 1.366 . S
C2890 C2889 1.366 . S
C2890 C2891 1.414 . S
C2890 C2893 1.499 . S
C2891 H2865 0.950 . S
C2891 C2890 1.414 . S
C2891 C2892 1.374 . S
C2892 H2866 0.950 . S
C2892 C2888 1.385 . S
C2892 C2891 1.374 . S
C2893 C2890 1.499 . S
C2893 C2894 1.373 . S
C2893 C2895 1.389 . S
C2894 H2867 0.950 . S
C2894 C2880 1.377 . S
C2894 C2893 1.373 . S
C2895 C2879 1.377 . S
C2895 C2893 1.389 . S
C2895 C2896 1.524 . S
C2896 C2895 1.524 . S
C2896 C2897 1.397 . S
C2896 C2901 1.363 . S
C2897 H2868 0.950 . S
C2897 C2896 1.397 . S
C2897 C2898 1.334 . S
C2898 H2869 0.950 . S
C2898 C2897 1.334 . S
C2898 C2899 1.287 . S
C2899 C2898 1.287 . S
C2899 C2900 1.524 . S
C2899 H2902 0.999 . S
C2900 H2870 0.950 . S
C2900 C2899 1.524 . S
C2900 C2901 1.415 . S
C2901 H2871 0.950 . S
C2901 C2896 1.363 . S
C2901 C2900 1.415 . S
H2902 C2899 0.999 . S
H2903 C2884 0.913 . S
H2904 C2922 0.951 . S
H2905 C2924 0.951 . S
H2906 C2926 0.950 . S
H2907 C2927 0.950 . S
H2908 C2929 0.950 . S
H2909 C2932 0.950 . S
H2910 C2933 0.950 . S
H2911 C2935 0.950 . S
H2912 C2936 0.950 . S
H2913 C2937 0.951 . S
H2914 C2939 0.951 . S
H2915 C2941 0.950 . S
H2916 C2942 0.950 . S
H2917 C2944 0.950 . S
H2918 C2947 0.950 . S
H2919 C2948 0.950 . S
H2920 C2950 0.950 . S
H2921 C2951 0.950 . S
C2922 H2904 0.951 . S
C2922 C2923 1.366 . S
C2922 C2924 1.388 . S
C2923 C2922 1.366 . S
C2923 C2927 1.385 . S
C2924 H2905 0.951 . S
C2924 C2922 1.388 . S
C2924 C2925 1.366 . S
C2925 C2924 1.366 . S
C2925 C2926 1.414 . S
C2925 C2928 1.499 . S
C2926 H2906 0.950 . S
C2926 C2925 1.414 . S
C2926 C2927 1.374 . S
C2927 H2907 0.950 . S
C2927 C2923 1.385 . S
C2927 C2926 1.374 . S
C2928 C2925 1.499 . S
C2928 C2929 1.373 . S
C2928 C2930 1.389 . S
C2929 H2908 0.950 . S
C2929 C2928 1.373 . S
C2929 C2945 1.377 . S
C2930 C2928 1.389 . S
C2930 C2931 1.524 . S
C2930 C2944 1.377 . S
C2931 C2930 1.524 . S
C2931 C2932 1.397 . S
C2931 C2936 1.363 . S
C2932 H2909 0.950 . S
C2932 C2931 1.397 . S
C2932 C2933 1.334 . S
C2933 H2910 0.950 . S
C2933 C2932 1.334 . S
C2933 C2934 1.287 . S
C2934 C2933 1.287 . S
C2934 C2935 1.524 . S
C2934 H2953 0.913 . S
C2935 H2911 0.950 . S
C2935 C2934 1.524 . S
C2935 C2936 1.415 . S
C2936 H2912 0.950 . S
C2936 C2931 1.363 . S
C2936 C2935 1.415 . S
C2937 H2913 0.951 . S
C2937 C2938 1.366 . S
C2937 C2939 1.388 . S
C2938 C2937 1.366 . S
C2938 C2942 1.385 . S
C2939 H2914 0.951 . S
C2939 C2937 1.388 . S
C2939 C2940 1.366 . S
C2940 C2939 1.366 . S
C2940 C2941 1.414 . S
C2940 C2943 1.499 . S
C2941 H2915 0.950 . S
C2941 C2940 1.414 . S
C2941 C2942 1.374 . S
C2942 H2916 0.950 . S
C2942 C2938 1.385 . S
C2942 C2941 1.374 . S
C2943 C2940 1.499 . S
C2943 C2944 1.373 . S
C2943 C2945 1.389 . S
C2944 H2917 0.950 . S
C2944 C2930 1.377 . S
C2944 C2943 1.373 . S
C2945 C2929 1.377 . S
C2945 C2943 1.389 . S
C2945 C2946 1.524 . S
C2946 C2945 1.524 . S
C2946 C2947 1.397 . S
C2946 C2951 1.363 . S
C2947 H2918 0.950 . S
C2947 C2946 1.397 . S
C2947 C2948 1.334 . S
C2948 H2919 0.950 . S
C2948 C2947 1.334 . S
C2948 C2949 1.287 . S
C2949 C2948 1.287 . S
C2949 C2950 1.524 . S
C2949 H2952 0.999 . S
C2950 H2920 0.950 . S
C2950 C2949 1.524 . S
C2950 C2951 1.415 . S
C2951 H2921 0.950 . S
C2951 C2946 1.363 . S
C2951 C2950 1.415 . S
H2952 C2949 0.999 . S
H2953 C2934 0.913 . S
H2954 C2972 0.951 . S
H2955 C2974 0.951 . S
H2956 C2976 0.950 . S
H2957 C2977 0.950 . S
H2958 C2979 0.950 . S
H2959 C2982 0.950 . S
H2960 C2983 0.950 . S
H2961 C2985 0.950 . S
H2962 C2986 0.950 . S
H2963 C2987 0.951 . S
H2964 C2989 0.951 . S
H2965 C2991 0.950 . S
H2966 C2992 0.950 . S
H2967 C2994 0.950 . S
H2968 C2997 0.950 . S
H2969 C2998 0.950 . S
H2970 C3000 0.950 . S
H2971 C3001 0.950 . S
C2972 H2954 0.951 . S
C2972 C2973 1.366 . S
C2972 C2974 1.388 . S
C2973 C2972 1.366 . S
C2973 C2977 1.385 . S
C2974 H2955 0.951 . S
C2974 C2972 1.388 . S
C2974 C2975 1.366 . S
C2975 C2974 1.366 . S
C2975 C2976 1.414 . S
C2975 C2978 1.499 . S
C2976 H2956 0.950 . S
C2976 C2975 1.414 . S
C2976 C2977 1.374 . S
C2977 H2957 0.950 . S
C2977 C2973 1.385 . S
C2977 C2976 1.374 . S
C2978 C2975 1.499 . S
C2978 C2979 1.373 . S
C2978 C2980 1.389 . S
C2979 H2958 0.950 . S
C2979 C2978 1.373 . S
C2979 C2995 1.377 . S
C2980 C2978 1.389 . S
C2980 C2981 1.524 . S
C2980 C2994 1.377 . S
C2981 C2980 1.524 . S
C2981 C2982 1.397 . S
C2981 C2986 1.363 . S
C2982 H2959 0.950 . S
C2982 C2981 1.397 . S
C2982 C2983 1.334 . S
C2983 H2960 0.950 . S
C2983 C2982 1.334 . S
C2983 C2984 1.287 . S
C2984 C2983 1.287 . S
C2984 C2985 1.524 . S
C2984 H3003 0.913 . S
C2985 H2961 0.950 . S
C2985 C2984 1.524 . S
C2985 C2986 1.415 . S
C2986 H2962 0.950 . S
C2986 C2981 1.363 . S
C2986 C2985 1.415 . S
C2987 H2963 0.951 . S
C2987 C2988 1.366 . S
C2987 C2989 1.388 . S
C2988 C2987 1.366 . S
C2988 C2992 1.385 . S
C2989 H2964 0.951 . S
C2989 C2987 1.388 . S
C2989 C2990 1.366 . S
C2990 C2989 1.366 . S
C2990 C2991 1.414 . S
C2990 C2993 1.499 . S
C2991 H2965 0.950 . S
C2991 C2990 1.414 . S
C2991 C2992 1.374 . S
C2992 H2966 0.950 . S
C2992 C2988 1.385 . S
C2992 C2991 1.374 . S
C2993 C2990 1.499 . S
C2993 C2994 1.373 . S
C2993 C2995 1.389 . S
C2994 H2967 0.950 . S
C2994 C2980 1.377 . S
C2994 C2993 1.373 . S
C2995 C2979 1.377 . S
C2995 C2993 1.389 . S
C2995 C2996 1.524 . S
C2996 C2995 1.524 . S
C2996 C2997 1.397 . S
C2996 C3001 1.363 . S
C2997 H2968 0.950 . S
C2997 C2996 1.397 . S
C2997 C2998 1.334 . S
C2998 H2969 0.950 . S
C2998 C2997 1.334 . S
C2998 C2999 1.287 . S
C2999 C2998 1.287 . S
C2999 C3000 1.524 . S
C2999 H3002 0.999 . S
C3000 H2970 0.950 . S
C3000 C2999 1.524 . S
C3000 C3001 1.415 . S
C3001 H2971 0.950 . S
C3001 C2996 1.363 . S
C3001 C3000 1.415 . S
H3002 C2999 0.999 . S
H3003 C2984 0.913 . S
H3004 C3022 0.951 . S
H3005 C3024 0.951 . S
H3006 C3026 0.950 . S
H3007 C3027 0.950 . S
H3008 C3029 0.950 . S
H3009 C3032 0.950 . S
H3010 C3033 0.950 . S
H3011 C3035 0.950 . S
H3012 C3036 0.950 . S
H3013 C3037 0.951 . S
H3014 C3039 0.951 . S
H3015 C3041 0.950 . S
H3016 C3042 0.950 . S
H3017 C3044 0.950 . S
H3018 C3047 0.950 . S
H3019 C3048 0.950 . S
H3020 C3050 0.950 . S
H3021 C3051 0.950 . S
C3022 H3004 0.951 . S
C3022 C3023 1.366 . S
C3022 C3024 1.388 . S
C3023 C3022 1.366 . S
C3023 C3027 1.385 . S
C3024 H3005 0.951 . S
C3024 C3022 1.388 . S
C3024 C3025 1.366 . S
C3025 C3024 1.366 . S
C3025 C3026 1.414 . S
C3025 C3028 1.499 . S
C3026 H3006 0.950 . S
C3026 C3025 1.414 . S
C3026 C3027 1.374 . S
C3027 H3007 0.950 . S
C3027 C3023 1.385 . S
C3027 C3026 1.374 . S
C3028 C3025 1.499 . S
C3028 C3029 1.373 . S
C3028 C3030 1.389 . S
C3029 H3008 0.950 . S
C3029 C3028 1.373 . S
C3029 C3045 1.377 . S
C3030 C3028 1.389 . S
C3030 C3031 1.524 . S
C3030 C3044 1.377 . S
C3031 C3030 1.524 . S
C3031 C3032 1.397 . S
C3031 C3036 1.363 . S
C3032 H3009 0.950 . S
C3032 C3031 1.397 . S
C3032 C3033 1.334 . S
C3033 H3010 0.950 . S
C3033 C3032 1.334 . S
C3033 C3034 1.287 . S
C3034 C3033 1.287 . S
C3034 C3035 1.524 . S
C3034 H3053 0.913 . S
C3035 H3011 0.950 . S
C3035 C3034 1.524 . S
C3035 C3036 1.415 . S
C3036 H3012 0.950 . S
C3036 C3031 1.363 . S
C3036 C3035 1.415 . S
C3037 H3013 0.951 . S
C3037 C3038 1.366 . S
C3037 C3039 1.388 . S
C3038 C3037 1.366 . S
C3038 C3042 1.385 . S
C3039 H3014 0.951 . S
C3039 C3037 1.388 . S
C3039 C3040 1.366 . S
C3040 C3039 1.366 . S
C3040 C3041 1.414 . S
C3040 C3043 1.499 . S
C3041 H3015 0.950 . S
C3041 C3040 1.414 . S
C3041 C3042 1.374 . S
C3042 H3016 0.950 . S
C3042 C3038 1.385 . S
C3042 C3041 1.374 . S
C3043 C3040 1.499 . S
C3043 C3044 1.373 . S
C3043 C3045 1.389 . S
C3044 H3017 0.950 . S
C3044 C3030 1.377 . S
C3044 C3043 1.373 . S
C3045 C3029 1.377 . S
C3045 C3043 1.389 . S
C3045 C3046 1.524 . S
C3046 C3045 1.524 . S
C3046 C3047 1.397 . S
C3046 C3051 1.363 . S
C3047 H3018 0.950 . S
C3047 C3046 1.397 . S
C3047 C3048 1.334 . S
C3048 H3019 0.950 . S
C3048 C3047 1.334 . S
C3048 C3049 1.287 . S
C3049 C3048 1.287 . S
C3049 C3050 1.524 . S
C3049 H3052 0.999 . S
C3050 H3020 0.950 . S
C3050 C3049 1.524 . S
C3050 C3051 1.415 . S
C3051 H3021 0.950 . S
C3051 C3046 1.363 . S
C3051 C3050 1.415 . S
H3052 C3049 0.999 . S
H3053 C3034 0.913 . S
H3054 C3072 0.951 . S
H3055 C3074 0.951 . S
H3056 C3076 0.950 . S
H3057 C3077 0.950 . S
H3058 C3079 0.950 . S
H3059 C3082 0.950 . S
H3060 C3083 0.950 . S
H3061 C3085 0.950 . S
H3062 C3086 0.950 . S
H3063 C3087 0.951 . S
H3064 C3089 0.951 . S
H3065 C3091 0.950 . S
H3066 C3092 0.950 . S
H3067 C3094 0.950 . S
H3068 C3097 0.950 . S
H3069 C3098 0.950 . S
H3070 C3100 0.950 . S
H3071 C3101 0.950 . S
C3072 H3054 0.951 . S
C3072 C3073 1.366 . S
C3072 C3074 1.388 . S
C3073 C3072 1.366 . S
C3073 C3077 1.385 . S
C3074 H3055 0.951 . S
C3074 C3072 1.388 . S
C3074 C3075 1.366 . S
C3075 C3074 1.366 . S
C3075 C3076 1.414 . S
C3075 C3078 1.499 . S
C3076 H3056 0.950 . S
C3076 C3075 1.414 . S
C3076 C3077 1.374 . S
C3077 H3057 0.950 . S
C3077 C3073 1.385 . S
C3077 C3076 1.374 . S
C3078 C3075 1.499 . S
C3078 C3079 1.373 . S
C3078 C3080 1.389 . S
C3079 H3058 0.950 . S
C3079 C3078 1.373 . S
C3079 C3095 1.377 . S
C3080 C3078 1.389 . S
C3080 C3081 1.524 . S
C3080 C3094 1.377 . S
C3081 C3080 1.524 . S
C3081 C3082 1.397 . S
C3081 C3086 1.363 . S
C3082 H3059 0.950 . S
C3082 C3081 1.397 . S
C3082 C3083 1.334 . S
C3083 H3060 0.950 . S
C3083 C3082 1.334 . S
C3083 C3084 1.287 . S
C3084 C3083 1.287 . S
C3084 C3085 1.524 . S
C3084 H3103 0.913 . S
C3085 H3061 0.950 . S
C3085 C3084 1.524 . S
C3085 C3086 1.415 . S
C3086 H3062 0.950 . S
C3086 C3081 1.363 . S
C3086 C3085 1.415 . S
C3087 H3063 0.951 . S
C3087 C3088 1.366 . S
C3087 C3089 1.388 . S
C3088 C3087 1.366 . S
C3088 C3092 1.385 . S
C3089 H3064 0.951 . S
C3089 C3087 1.388 . S
C3089 C3090 1.366 . S
C3090 C3089 1.366 . S
C3090 C3091 1.414 . S
C3090 C3093 1.499 . S
C3091 H3065 0.950 . S
C3091 C3090 1.414 . S
C3091 C3092 1.374 . S
C3092 H3066 0.950 . S
C3092 C3088 1.385 . S
C3092 C3091 1.374 . S
C3093 C3090 1.499 . S
C3093 C3094 1.373 . S
C3093 C3095 1.389 . S
C3094 H3067 0.950 . S
C3094 C3080 1.377 . S
C3094 C3093 1.373 . S
C3095 C3079 1.377 . S
C3095 C3093 1.389 . S
C3095 C3096 1.524 . S
C3096 C3095 1.524 . S
C3096 C3097 1.397 . S
C3096 C3101 1.363 . S
C3097 H3068 0.950 . S
C3097 C3096 1.397 . S
C3097 C3098 1.334 . S
C3098 H3069 0.950 . S
C3098 C3097 1.334 . S
C3098 C3099 1.287 . S
C3099 C3098 1.287 . S
C3099 C3100 1.524 . S
C3099 H3102 0.999 . S
C3100 H3070 0.950 . S
C3100 C3099 1.524 . S
C3100 C3101 1.415 . S
C3101 H3071 0.950 . S
C3101 C3096 1.363 . S
C3101 C3100 1.415 . S
H3102 C3099 0.999 . S
H3103 C3084 0.913 . S
H3104 C3122 0.951 . S
H3105 C3124 0.951 . S
H3106 C3126 0.950 . S
H3107 C3127 0.950 . S
H3108 C3129 0.950 . S
H3109 C3132 0.950 . S
H3110 C3133 0.950 . S
H3111 C3135 0.950 . S
H3112 C3136 0.950 . S
H3113 C3137 0.951 . S
H3114 C3139 0.951 . S
H3115 C3141 0.950 . S
H3116 C3142 0.950 . S
H3117 C3144 0.950 . S
H3118 C3147 0.950 . S
H3119 C3148 0.950 . S
H3120 C3150 0.950 . S
H3121 C3151 0.950 . S
C3122 H3104 0.951 . S
C3122 C3123 1.366 . S
C3122 C3124 1.388 . S
C3123 C3122 1.366 . S
C3123 C3127 1.385 . S
C3124 H3105 0.951 . S
C3124 C3122 1.388 . S
C3124 C3125 1.366 . S
C3125 C3124 1.366 . S
C3125 C3126 1.414 . S
C3125 C3128 1.499 . S
C3126 H3106 0.950 . S
C3126 C3125 1.414 . S
C3126 C3127 1.374 . S
C3127 H3107 0.950 . S
C3127 C3123 1.385 . S
C3127 C3126 1.374 . S
C3128 C3125 1.499 . S
C3128 C3129 1.373 . S
C3128 C3130 1.389 . S
C3129 H3108 0.950 . S
C3129 C3128 1.373 . S
C3129 C3145 1.377 . S
C3130 C3128 1.389 . S
C3130 C3131 1.524 . S
C3130 C3144 1.377 . S
C3131 C3130 1.524 . S
C3131 C3132 1.397 . S
C3131 C3136 1.363 . S
C3132 H3109 0.950 . S
C3132 C3131 1.397 . S
C3132 C3133 1.334 . S
C3133 H3110 0.950 . S
C3133 C3132 1.334 . S
C3133 C3134 1.287 . S
C3134 C3133 1.287 . S
C3134 C3135 1.524 . S
C3134 H3153 0.913 . S
C3135 H3111 0.950 . S
C3135 C3134 1.524 . S
C3135 C3136 1.415 . S
C3136 H3112 0.950 . S
C3136 C3131 1.363 . S
C3136 C3135 1.415 . S
C3137 H3113 0.951 . S
C3137 C3138 1.366 . S
C3137 C3139 1.388 . S
C3138 C3137 1.366 . S
C3138 C3142 1.385 . S
C3139 H3114 0.951 . S
C3139 C3137 1.388 . S
C3139 C3140 1.366 . S
C3140 C3139 1.366 . S
C3140 C3141 1.414 . S
C3140 C3143 1.499 . S
C3141 H3115 0.950 . S
C3141 C3140 1.414 . S
C3141 C3142 1.374 . S
C3142 H3116 0.950 . S
C3142 C3138 1.385 . S
C3142 C3141 1.374 . S
C3143 C3140 1.499 . S
C3143 C3144 1.373 . S
C3143 C3145 1.389 . S
C3144 H3117 0.950 . S
C3144 C3130 1.377 . S
C3144 C3143 1.373 . S
C3145 C3129 1.377 . S
C3145 C3143 1.389 . S
C3145 C3146 1.524 . S
C3146 C3145 1.524 . S
C3146 C3147 1.397 . S
C3146 C3151 1.363 . S
C3147 H3118 0.950 . S
C3147 C3146 1.397 . S
C3147 C3148 1.334 . S
C3148 H3119 0.950 . S
C3148 C3147 1.334 . S
C3148 C3149 1.287 . S
C3149 C3148 1.287 . S
C3149 C3150 1.524 . S
C3149 H3152 0.999 . S
C3150 H3120 0.950 . S
C3150 C3149 1.524 . S
C3150 C3151 1.415 . S
C3151 H3121 0.950 . S
C3151 C3146 1.363 . S
C3151 C3150 1.415 . S
H3152 C3149 0.999 . S
H3153 C3134 0.913 . S
H3154 C3172 0.951 . S
H3155 C3174 0.951 . S
H3156 C3176 0.950 . S
H3157 C3177 0.950 . S
H3158 C3179 0.950 . S
H3159 C3182 0.950 . S
H3160 C3183 0.950 . S
H3161 C3185 0.950 . S
H3162 C3186 0.950 . S
H3163 C3187 0.951 . S
H3164 C3189 0.951 . S
H3165 C3191 0.950 . S
H3166 C3192 0.950 . S
H3167 C3194 0.950 . S
H3168 C3197 0.950 . S
H3169 C3198 0.950 . S
H3170 C3200 0.950 . S
H3171 C3201 0.950 . S
C3172 H3154 0.951 . S
C3172 C3173 1.366 . S
C3172 C3174 1.388 . S
C3173 C3172 1.366 . S
C3173 C3177 1.385 . S
C3174 H3155 0.951 . S
C3174 C3172 1.388 . S
C3174 C3175 1.366 . S
C3175 C3174 1.366 . S
C3175 C3176 1.414 . S
C3175 C3178 1.499 . S
C3176 H3156 0.950 . S
C3176 C3175 1.414 . S
C3176 C3177 1.374 . S
C3177 H3157 0.950 . S
C3177 C3173 1.385 . S
C3177 C3176 1.374 . S
C3178 C3175 1.499 . S
C3178 C3179 1.373 . S
C3178 C3180 1.389 . S
C3179 H3158 0.950 . S
C3179 C3178 1.373 . S
C3179 C3195 1.377 . S
C3180 C3178 1.389 . S
C3180 C3181 1.524 . S
C3180 C3194 1.377 . S
C3181 C3180 1.524 . S
C3181 C3182 1.397 . S
C3181 C3186 1.363 . S
C3182 H3159 0.950 . S
C3182 C3181 1.397 . S
C3182 C3183 1.334 . S
C3183 H3160 0.950 . S
C3183 C3182 1.334 . S
C3183 C3184 1.287 . S
C3184 C3183 1.287 . S
C3184 C3185 1.524 . S
C3184 H3203 0.913 . S
C3185 H3161 0.950 . S
C3185 C3184 1.524 . S
C3185 C3186 1.415 . S
C3186 H3162 0.950 . S
C3186 C3181 1.363 . S
C3186 C3185 1.415 . S
C3187 H3163 0.951 . S
C3187 C3188 1.366 . S
C3187 C3189 1.388 . S
C3188 C3187 1.366 . S
C3188 C3192 1.385 . S
C3189 H3164 0.951 . S
C3189 C3187 1.388 . S
C3189 C3190 1.366 . S
C3190 C3189 1.366 . S
C3190 C3191 1.414 . S
C3190 C3193 1.499 . S
C3191 H3165 0.950 . S
C3191 C3190 1.414 . S
C3191 C3192 1.374 . S
C3192 H3166 0.950 . S
C3192 C3188 1.385 . S
C3192 C3191 1.374 . S
C3193 C3190 1.499 . S
C3193 C3194 1.373 . S
C3193 C3195 1.389 . S
C3194 H3167 0.950 . S
C3194 C3180 1.377 . S
C3194 C3193 1.373 . S
C3195 C3179 1.377 . S
C3195 C3193 1.389 . S
C3195 C3196 1.524 . S
C3196 C3195 1.524 . S
C3196 C3197 1.397 . S
C3196 C3201 1.363 . S
C3197 H3168 0.950 . S
C3197 C3196 1.397 . S
C3197 C3198 1.334 . S
C3198 H3169 0.950 . S
C3198 C3197 1.334 . S
C3198 C3199 1.287 . S
C3199 C3198 1.287 . S
C3199 C3200 1.524 . S
C3199 H3202 0.999 . S
C3200 H3170 0.950 . S
C3200 C3199 1.524 . S
C3200 C3201 1.415 . S
C3201 H3171 0.950 . S
C3201 C3196 1.363 . S
C3201 C3200 1.415 . S
H3202 C3199 0.999 . S
H3203 C3184 0.913 . S
H3204 C3222 0.951 . S
H3205 C3224 0.951 . S
H3206 C3226 0.950 . S
H3207 C3227 0.950 . S
H3208 C3229 0.950 . S
H3209 C3232 0.950 . S
H3210 C3233 0.950 . S
H3211 C3235 0.950 . S
H3212 C3236 0.950 . S
H3213 C3237 0.951 . S
H3214 C3239 0.951 . S
H3215 C3241 0.950 . S
H3216 C3242 0.950 . S
H3217 C3244 0.950 . S
H3218 C3247 0.950 . S
H3219 C3248 0.950 . S
H3220 C3250 0.950 . S
H3221 C3251 0.950 . S
C3222 H3204 0.951 . S
C3222 C3223 1.366 . S
C3222 C3224 1.388 . S
C3223 C3222 1.366 . S
C3223 C3227 1.385 . S
C3224 H3205 0.951 . S
C3224 C3222 1.388 . S
C3224 C3225 1.366 . S
C3225 C3224 1.366 . S
C3225 C3226 1.414 . S
C3225 C3228 1.499 . S
C3226 H3206 0.950 . S
C3226 C3225 1.414 . S
C3226 C3227 1.374 . S
C3227 H3207 0.950 . S
C3227 C3223 1.385 . S
C3227 C3226 1.374 . S
C3228 C3225 1.499 . S
C3228 C3229 1.373 . S
C3228 C3230 1.389 . S
C3229 H3208 0.950 . S
C3229 C3228 1.373 . S
C3229 C3245 1.377 . S
C3230 C3228 1.389 . S
C3230 C3231 1.524 . S
C3230 C3244 1.377 . S
C3231 C3230 1.524 . S
C3231 C3232 1.397 . S
C3231 C3236 1.363 . S
C3232 H3209 0.950 . S
C3232 C3231 1.397 . S
C3232 C3233 1.334 . S
C3233 H3210 0.950 . S
C3233 C3232 1.334 . S
C3233 C3234 1.287 . S
C3234 C3233 1.287 . S
C3234 C3235 1.524 . S
C3234 H3253 0.913 . S
C3235 H3211 0.950 . S
C3235 C3234 1.524 . S
C3235 C3236 1.415 . S
C3236 H3212 0.950 . S
C3236 C3231 1.363 . S
C3236 C3235 1.415 . S
C3237 H3213 0.951 . S
C3237 C3238 1.366 . S
C3237 C3239 1.388 . S
C3238 C3237 1.366 . S
C3238 C3242 1.385 . S
C3239 H3214 0.951 . S
C3239 C3237 1.388 . S
C3239 C3240 1.366 . S
C3240 C3239 1.366 . S
C3240 C3241 1.414 . S
C3240 C3243 1.499 . S
C3241 H3215 0.950 . S
C3241 C3240 1.414 . S
C3241 C3242 1.374 . S
C3242 H3216 0.950 . S
C3242 C3238 1.385 . S
C3242 C3241 1.374 . S
C3243 C3240 1.499 . S
C3243 C3244 1.373 . S
C3243 C3245 1.389 . S
C3244 H3217 0.950 . S
C3244 C3230 1.377 . S
C3244 C3243 1.373 . S
C3245 C3229 1.377 . S
C3245 C3243 1.389 . S
C3245 C3246 1.524 . S
C3246 C3245 1.524 . S
C3246 C3247 1.397 . S
C3246 C3251 1.363 . S
C3247 H3218 0.950 . S
C3247 C3246 1.397 . S
C3247 C3248 1.334 . S
C3248 H3219 0.950 . S
C3248 C3247 1.334 . S
C3248 C3249 1.287 . S
C3249 C3248 1.287 . S
C3249 C3250 1.524 . S
C3249 H3252 0.999 . S
C3250 H3220 0.950 . S
C3250 C3249 1.524 . S
C3250 C3251 1.415 . S
C3251 H3221 0.950 . S
C3251 C3246 1.363 . S
C3251 C3250 1.415 . S
H3252 C3249 0.999 . S
H3253 C3234 0.913 . S
H3254 C3272 0.951 . S
H3255 C3274 0.951 . S
H3256 C3276 0.950 . S
H3257 C3277 0.950 . S
H3258 C3279 0.950 . S
H3259 C3282 0.950 . S
H3260 C3283 0.950 . S
H3261 C3285 0.950 . S
H3262 C3286 0.950 . S
H3263 C3287 0.951 . S
H3264 C3289 0.951 . S
H3265 C3291 0.950 . S
H3266 C3292 0.950 . S
H3267 C3294 0.950 . S
H3268 C3297 0.950 . S
H3269 C3298 0.950 . S
H3270 C3300 0.950 . S
H3271 C3301 0.950 . S
C3272 H3254 0.951 . S
C3272 C3273 1.366 . S
C3272 C3274 1.388 . S
C3273 C3272 1.366 . S
C3273 C3277 1.385 . S
C3274 H3255 0.951 . S
C3274 C3272 1.388 . S
C3274 C3275 1.366 . S
C3275 C3274 1.366 . S
C3275 C3276 1.414 . S
C3275 C3278 1.499 . S
C3276 H3256 0.950 . S
C3276 C3275 1.414 . S
C3276 C3277 1.374 . S
C3277 H3257 0.950 . S
C3277 C3273 1.385 . S
C3277 C3276 1.374 . S
C3278 C3275 1.499 . S
C3278 C3279 1.373 . S
C3278 C3280 1.389 . S
C3279 H3258 0.950 . S
C3279 C3278 1.373 . S
C3279 C3295 1.377 . S
C3280 C3278 1.389 . S
C3280 C3281 1.524 . S
C3280 C3294 1.377 . S
C3281 C3280 1.524 . S
C3281 C3282 1.397 . S
C3281 C3286 1.363 . S
C3282 H3259 0.950 . S
C3282 C3281 1.397 . S
C3282 C3283 1.334 . S
C3283 H3260 0.950 . S
C3283 C3282 1.334 . S
C3283 C3284 1.287 . S
C3284 C3283 1.287 . S
C3284 C3285 1.524 . S
C3284 H3303 0.913 . S
C3285 H3261 0.950 . S
C3285 C3284 1.524 . S
C3285 C3286 1.415 . S
C3286 H3262 0.950 . S
C3286 C3281 1.363 . S
C3286 C3285 1.415 . S
C3287 H3263 0.951 . S
C3287 C3288 1.366 . S
C3287 C3289 1.388 . S
C3288 C3287 1.366 . S
C3288 C3292 1.385 . S
C3289 H3264 0.951 . S
C3289 C3287 1.388 . S
C3289 C3290 1.366 . S
C3290 C3289 1.366 . S
C3290 C3291 1.414 . S
C3290 C3293 1.499 . S
C3291 H3265 0.950 . S
C3291 C3290 1.414 . S
C3291 C3292 1.374 . S
C3292 H3266 0.950 . S
C3292 C3288 1.385 . S
C3292 C3291 1.374 . S
C3293 C3290 1.499 . S
C3293 C3294 1.373 . S
C3293 C3295 1.389 . S
C3294 H3267 0.950 . S
C3294 C3280 1.377 . S
C3294 C3293 1.373 . S
C3295 C3279 1.377 . S
C3295 C3293 1.389 . S
C3295 C3296 1.524 . S
C3296 C3295 1.524 . S
C3296 C3297 1.397 . S
C3296 C3301 1.363 . S
C3297 H3268 0.950 . S
C3297 C3296 1.397 . S
C3297 C3298 1.334 . S
C3298 H3269 0.950 . S
C3298 C3297 1.334 . S
C3298 C3299 1.287 . S
C3299 C3298 1.287 . S
C3299 C3300 1.524 . S
C3299 H3302 0.999 . S
C3300 H3270 0.950 . S
C3300 C3299 1.524 . S
C3300 C3301 1.415 . S
C3301 H3271 0.950 . S
C3301 C3296 1.363 . S
C3301 C3300 1.415 . S
H3302 C3299 0.999 . S
H3303 C3284 0.913 . S
H3304 C3322 0.951 . S
H3305 C3324 0.951 . S
H3306 C3326 0.950 . S
H3307 C3327 0.950 . S
H3308 C3329 0.950 . S
H3309 C3332 0.950 . S
H3310 C3333 0.950 . S
H3311 C3335 0.950 . S
H3312 C3336 0.950 . S
H3313 C3337 0.951 . S
H3314 C3339 0.951 . S
H3315 C3341 0.950 . S
H3316 C3342 0.950 . S
H3317 C3344 0.950 . S
H3318 C3347 0.950 . S
H3319 C3348 0.950 . S
H3320 C3350 0.950 . S
H3321 C3351 0.950 . S
C3322 H3304 0.951 . S
C3322 C3323 1.366 . S
C3322 C3324 1.388 . S
C3323 C3322 1.366 . S
C3323 C3327 1.385 . S
C3324 H3305 0.951 . S
C3324 C3322 1.388 . S
C3324 C3325 1.366 . S
C3325 C3324 1.366 . S
C3325 C3326 1.414 . S
C3325 C3328 1.499 . S
C3326 H3306 0.950 . S
C3326 C3325 1.414 . S
C3326 C3327 1.374 . S
C3327 H3307 0.950 . S
C3327 C3323 1.385 . S
C3327 C3326 1.374 . S
C3328 C3325 1.499 . S
C3328 C3329 1.373 . S
C3328 C3330 1.389 . S
C3329 H3308 0.950 . S
C3329 C3328 1.373 . S
C3329 C3345 1.377 . S
C3330 C3328 1.389 . S
C3330 C3331 1.524 . S
C3330 C3344 1.377 . S
C3331 C3330 1.524 . S
C3331 C3332 1.397 . S
C3331 C3336 1.363 . S
C3332 H3309 0.950 . S
C3332 C3331 1.397 . S
C3332 C3333 1.334 . S
C3333 H3310 0.950 . S
C3333 C3332 1.334 . S
C3333 C3334 1.287 . S
C3334 C3333 1.287 . S
C3334 C3335 1.524 . S
C3334 H3353 0.913 . S
C3335 H3311 0.950 . S
C3335 C3334 1.524 . S
C3335 C3336 1.415 . S
C3336 H3312 0.950 . S
C3336 C3331 1.363 . S
C3336 C3335 1.415 . S
C3337 H3313 0.951 . S
C3337 C3338 1.366 . S
C3337 C3339 1.388 . S
C3338 C3337 1.366 . S
C3338 C3342 1.385 . S
C3339 H3314 0.951 . S
C3339 C3337 1.388 . S
C3339 C3340 1.366 . S
C3340 C3339 1.366 . S
C3340 C3341 1.414 . S
C3340 C3343 1.499 . S
C3341 H3315 0.950 . S
C3341 C3340 1.414 . S
C3341 C3342 1.374 . S
C3342 H3316 0.950 . S
C3342 C3338 1.385 . S
C3342 C3341 1.374 . S
C3343 C3340 1.499 . S
C3343 C3344 1.373 . S
C3343 C3345 1.389 . S
C3344 H3317 0.950 . S
C3344 C3330 1.377 . S
C3344 C3343 1.373 . S
C3345 C3329 1.377 . S
C3345 C3343 1.389 . S
C3345 C3346 1.524 . S
C3346 C3345 1.524 . S
C3346 C3347 1.397 . S
C3346 C3351 1.363 . S
C3347 H3318 0.950 . S
C3347 C3346 1.397 . S
C3347 C3348 1.334 . S
C3348 H3319 0.950 . S
C3348 C3347 1.334 . S
C3348 C3349 1.287 . S
C3349 C3348 1.287 . S
C3349 C3350 1.524 . S
C3349 H3352 0.999 . S
C3350 H3320 0.950 . S
C3350 C3349 1.524 . S
C3350 C3351 1.415 . S
C3351 H3321 0.950 . S
C3351 C3346 1.363 . S
C3351 C3350 1.415 . S
H3352 C3349 0.999 . S
H3353 C3334 0.913 . S
H3354 C3372 0.951 . S
H3355 C3374 0.951 . S
H3356 C3376 0.950 . S
H3357 C3377 0.950 . S
H3358 C3379 0.950 . S
H3359 C3382 0.950 . S
H3360 C3383 0.950 . S
H3361 C3385 0.950 . S
H3362 C3386 0.950 . S
H3363 C3387 0.951 . S
H3364 C3389 0.951 . S
H3365 C3391 0.950 . S
H3366 C3392 0.950 . S
H3367 C3394 0.950 . S
H3368 C3397 0.950 . S
H3369 C3398 0.950 . S
H3370 C3400 0.950 . S
H3371 C3401 0.950 . S
C3372 H3354 0.951 . S
C3372 C3373 1.366 . S
C3372 C3374 1.388 . S
C3373 C3372 1.366 . S
C3373 C3377 1.385 . S
C3374 H3355 0.951 . S
C3374 C3372 1.388 . S
C3374 C3375 1.366 . S
C3375 C3374 1.366 . S
C3375 C3376 1.414 . S
C3375 C3378 1.499 . S
C3376 H3356 0.950 . S
C3376 C3375 1.414 . S
C3376 C3377 1.374 . S
C3377 H3357 0.950 . S
C3377 C3373 1.385 . S
C3377 C3376 1.374 . S
C3378 C3375 1.499 . S
C3378 C3379 1.373 . S
C3378 C3380 1.389 . S
C3379 H3358 0.950 . S
C3379 C3378 1.373 . S
C3379 C3395 1.377 . S
C3380 C3378 1.389 . S
C3380 C3381 1.524 . S
C3380 C3394 1.377 . S
C3381 C3380 1.524 . S
C3381 C3382 1.397 . S
C3381 C3386 1.363 . S
C3382 H3359 0.950 . S
C3382 C3381 1.397 . S
C3382 C3383 1.334 . S
C3383 H3360 0.950 . S
C3383 C3382 1.334 . S
C3383 C3384 1.287 . S
C3384 C3383 1.287 . S
C3384 C3385 1.524 . S
C3384 H3403 0.913 . S
C3385 H3361 0.950 . S
C3385 C3384 1.524 . S
C3385 C3386 1.415 . S
C3386 H3362 0.950 . S
C3386 C3381 1.363 . S
C3386 C3385 1.415 . S
C3387 H3363 0.951 . S
C3387 C3388 1.366 . S
C3387 C3389 1.388 . S
C3388 C3387 1.366 . S
C3388 C3392 1.385 . S
C3389 H3364 0.951 . S
C3389 C3387 1.388 . S
C3389 C3390 1.366 . S
C3390 C3389 1.366 . S
C3390 C3391 1.414 . S
C3390 C3393 1.499 . S
C3391 H3365 0.950 . S
C3391 C3390 1.414 . S
C3391 C3392 1.374 . S
C3392 H3366 0.950 . S
C3392 C3388 1.385 . S
C3392 C3391 1.374 . S
C3393 C3390 1.499 . S
C3393 C3394 1.373 . S
C3393 C3395 1.389 . S
C3394 H3367 0.950 . S
C3394 C3380 1.377 . S
C3394 C3393 1.373 . S
C3395 C3379 1.377 . S
C3395 C3393 1.389 . S
C3395 C3396 1.524 . S
C3396 C3395 1.524 . S
C3396 C3397 1.397 . S
C3396 C3401 1.363 . S
C3397 H3368 0.950 . S
C3397 C3396 1.397 . S
C3397 C3398 1.334 . S
C3398 H3369 0.950 . S
C3398 C3397 1.334 . S
C3398 C3399 1.287 . S
C3399 C3398 1.287 . S
C3399 C3400 1.524 . S
C3399 H3402 0.999 . S
C3400 H3370 0.950 . S
C3400 C3399 1.524 . S
C3400 C3401 1.415 . S
C3401 H3371 0.950 . S
C3401 C3396 1.363 . S
C3401 C3400 1.415 . S
H3402 C3399 0.999 . S
H3403 C3384 0.913 . S
H3404 C3422 0.951 . S
H3405 C3424 0.951 . S
H3406 C3426 0.950 . S
H3407 C3427 0.950 . S
H3408 C3429 0.950 . S
H3409 C3432 0.950 . S
H3410 C3433 0.950 . S
H3411 C3435 0.950 . S
H3412 C3436 0.950 . S
H3413 C3437 0.951 . S
H3414 C3439 0.951 . S
H3415 C3441 0.950 . S
H3416 C3442 0.950 . S
H3417 C3444 0.950 . S
H3418 C3447 0.950 . S
H3419 C3448 0.950 . S
H3420 C3450 0.950 . S
H3421 C3451 0.950 . S
C3422 H3404 0.951 . S
C3422 C3423 1.366 . S
C3422 C3424 1.388 . S
C3423 C3422 1.366 . S
C3423 C3427 1.385 . S
C3424 H3405 0.951 . S
C3424 C3422 1.388 . S
C3424 C3425 1.366 . S
C3425 C3424 1.366 . S
C3425 C3426 1.414 . S
C3425 C3428 1.499 . S
C3426 H3406 0.950 . S
C3426 C3425 1.414 . S
C3426 C3427 1.374 . S
C3427 H3407 0.950 . S
C3427 C3423 1.385 . S
C3427 C3426 1.374 . S
C3428 C3425 1.499 . S
C3428 C3429 1.373 . S
C3428 C3430 1.389 . S
C3429 H3408 0.950 . S
C3429 C3428 1.373 . S
C3429 C3445 1.377 . S
C3430 C3428 1.389 . S
C3430 C3431 1.524 . S
C3430 C3444 1.377 . S
C3431 C3430 1.524 . S
C3431 C3432 1.397 . S
C3431 C3436 1.363 . S
C3432 H3409 0.950 . S
C3432 C3431 1.397 . S
C3432 C3433 1.334 . S
C3433 H3410 0.950 . S
C3433 C3432 1.334 . S
C3433 C3434 1.287 . S
C3434 C3433 1.287 . S
C3434 C3435 1.524 . S
C3434 H3453 0.913 . S
C3435 H3411 0.950 . S
C3435 C3434 1.524 . S
C3435 C3436 1.415 . S
C3436 H3412 0.950 . S
C3436 C3431 1.363 . S
C3436 C3435 1.415 . S
C3437 H3413 0.951 . S
C3437 C3438 1.366 . S
C3437 C3439 1.388 . S
C3438 C3437 1.366 . S
C3438 C3442 1.385 . S
C3439 H3414 0.951 . S
C3439 C3437 1.388 . S
C3439 C3440 1.366 . S
C3440 C3439 1.366 . S
C3440 C3441 1.414 . S
C3440 C3443 1.499 . S
C3441 H3415 0.950 . S
C3441 C3440 1.414 . S
C3441 C3442 1.374 . S
C3442 H3416 0.950 . S
C3442 C3438 1.385 . S
C3442 C3441 1.374 . S
C3443 C3440 1.499 . S
C3443 C3444 1.373 . S
C3443 C3445 1.389 . S
C3444 H3417 0.950 . S
C3444 C3430 1.377 . S
C3444 C3443 1.373 . S
C3445 C3429 1.377 . S
C3445 C3443 1.389 . S
C3445 C3446 1.524 . S
C3446 C3445 1.524 . S
C3446 C3447 1.397 . S
C3446 C3451 1.363 . S
C3447 H3418 0.950 . S
C3447 C3446 1.397 . S
C3447 C3448 1.334 . S
C3448 H3419 0.950 . S
C3448 C3447 1.334 . S
C3448 C3449 1.287 . S
C3449 C3448 1.287 . S
C3449 C3450 1.524 . S
C3449 H3452 0.999 . S
C3450 H3420 0.950 . S
C3450 C3449 1.524 . S
C3450 C3451 1.415 . S
C3451 H3421 0.950 . S
C3451 C3446 1.363 . S
C3451 C3450 1.415 . S
H3452 C3449 0.999 . S
H3453 C3434 0.913 . S
H3454 C3472 0.951 . S
H3455 C3474 0.951 . S
H3456 C3476 0.950 . S
H3457 C3477 0.950 . S
H3458 C3479 0.950 . S
H3459 C3482 0.950 . S
H3460 C3483 0.950 . S
H3461 C3485 0.950 . S
H3462 C3486 0.950 . S
H3463 C3487 0.951 . S
H3464 C3489 0.951 . S
H3465 C3491 0.950 . S
H3466 C3492 0.950 . S
H3467 C3494 0.950 . S
H3468 C3497 0.950 . S
H3469 C3498 0.950 . S
H3470 C3500 0.950 . S
H3471 C3501 0.950 . S
C3472 H3454 0.951 . S
C3472 C3473 1.366 . S
C3472 C3474 1.388 . S
C3473 C3472 1.366 . S
C3473 C3477 1.385 . S
C3474 H3455 0.951 . S
C3474 C3472 1.388 . S
C3474 C3475 1.366 . S
C3475 C3474 1.366 . S
C3475 C3476 1.414 . S
C3475 C3478 1.499 . S
C3476 H3456 0.950 . S
C3476 C3475 1.414 . S
C3476 C3477 1.374 . S
C3477 H3457 0.950 . S
C3477 C3473 1.385 . S
C3477 C3476 1.374 . S
C3478 C3475 1.499 . S
C3478 C3479 1.373 . S
C3478 C3480 1.389 . S
C3479 H3458 0.950 . S
C3479 C3478 1.373 . S
C3479 C3495 1.377 . S
C3480 C3478 1.389 . S
C3480 C3481 1.524 . S
C3480 C3494 1.377 . S
C3481 C3480 1.524 . S
C3481 C3482 1.397 . S
C3481 C3486 1.363 . S
C3482 H3459 0.950 . S
C3482 C3481 1.397 . S
C3482 C3483 1.334 . S
C3483 H3460 0.950 . S
C3483 C3482 1.334 . S
C3483 C3484 1.287 . S
C3484 C3483 1.287 . S
C3484 C3485 1.524 . S
C3484 H3503 0.913 . S
C3485 H3461 0.950 . S
C3485 C3484 1.524 . S
C3485 C3486 1.415 . S
C3486 H3462 0.950 . S
C3486 C3481 1.363 . S
C3486 C3485 1.415 . S
C3487 H3463 0.951 . S
C3487 C3488 1.366 . S
C3487 C3489 1.388 . S
C3488 C3487 1.366 . S
C3488 C3492 1.385 . S
C3489 H3464 0.951 . S
C3489 C3487 1.388 . S
C3489 C3490 1.366 . S
C3490 C3489 1.366 . S
C3490 C3491 1.414 . S
C3490 C3493 1.499 . S
C3491 H3465 0.950 . S
C3491 C3490 1.414 . S
C3491 C3492 1.374 . S
C3492 H3466 0.950 . S
C3492 C3488 1.385 . S
C3492 C3491 1.374 . S
C3493 C3490 1.499 . S
C3493 C3494 1.373 . S
C3493 C3495 1.389 . S
C3494 H3467 0.950 . S
C3494 C3480 1.377 . S
C3494 C3493 1.373 . S
C3495 C3479 1.377 . S
C3495 C3493 1.389 . S
C3495 C3496 1.524 . S
C3496 C3495 1.524 . S
C3496 C3497 1.397 . S
C3496 C3501 1.363 . S
C3497 H3468 0.950 . S
C3497 C3496 1.397 . S
C3497 C3498 1.334 . S
C3498 H3469 0.950 . S
C3498 C3497 1.334 . S
C3498 C3499 1.287 . S
C3499 C3498 1.287 . S
C3499 C3500 1.524 . S
C3499 H3502 0.999 . S
C3500 H3470 0.950 . S
C3500 C3499 1.524 . S
C3500 C3501 1.415 . S
C3501 H3471 0.950 . S
C3501 C3496 1.363 . S
C3501 C3500 1.415 . S
H3502 C3499 0.999 . S
H3503 C3484 0.913 . S
H3504 C3522 0.951 . S
H3505 C3524 0.951 . S
H3506 C3526 0.950 . S
H3507 C3527 0.950 . S
H3508 C3529 0.950 . S
H3509 C3532 0.950 . S
H3510 C3533 0.950 . S
H3511 C3535 0.950 . S
H3512 C3536 0.950 . S
H3513 C3537 0.951 . S
H3514 C3539 0.951 . S
H3515 C3541 0.950 . S
H3516 C3542 0.950 . S
H3517 C3544 0.950 . S
H3518 C3547 0.950 . S
H3519 C3548 0.950 . S
H3520 C3550 0.950 . S
H3521 C3551 0.950 . S
C3522 H3504 0.951 . S
C3522 C3523 1.366 . S
C3522 C3524 1.388 . S
C3523 C3522 1.366 . S
C3523 C3527 1.385 . S
C3524 H3505 0.951 . S
C3524 C3522 1.388 . S
C3524 C3525 1.366 . S
C3525 C3524 1.366 . S
C3525 C3526 1.414 . S
C3525 C3528 1.499 . S
C3526 H3506 0.950 . S
C3526 C3525 1.414 . S
C3526 C3527 1.374 . S
C3527 H3507 0.950 . S
C3527 C3523 1.385 . S
C3527 C3526 1.374 . S
C3528 C3525 1.499 . S
C3528 C3529 1.373 . S
C3528 C3530 1.389 . S
C3529 H3508 0.950 . S
C3529 C3528 1.373 . S
C3529 C3545 1.377 . S
C3530 C3528 1.389 . S
C3530 C3531 1.524 . S
C3530 C3544 1.377 . S
C3531 C3530 1.524 . S
C3531 C3532 1.397 . S
C3531 C3536 1.363 . S
C3532 H3509 0.950 . S
C3532 C3531 1.397 . S
C3532 C3533 1.334 . S
C3533 H3510 0.950 . S
C3533 C3532 1.334 . S
C3533 C3534 1.287 . S
C3534 C3533 1.287 . S
C3534 C3535 1.524 . S
C3534 H3553 0.913 . S
C3535 H3511 0.950 . S
C3535 C3534 1.524 . S
C3535 C3536 1.415 . S
C3536 H3512 0.950 . S
C3536 C3531 1.363 . S
C3536 C3535 1.415 . S
C3537 H3513 0.951 . S
C3537 C3538 1.366 . S
C3537 C3539 1.388 . S
C3538 C3537 1.366 . S
C3538 C3542 1.385 . S
C3539 H3514 0.951 . S
C3539 C3537 1.388 . S
C3539 C3540 1.366 . S
C3540 C3539 1.366 . S
C3540 C3541 1.414 . S
C3540 C3543 1.499 . S
C3541 H3515 0.950 . S
C3541 C3540 1.414 . S
C3541 C3542 1.374 . S
C3542 H3516 0.950 . S
C3542 C3538 1.385 . S
C3542 C3541 1.374 . S
C3543 C3540 1.499 . S
C3543 C3544 1.373 . S
C3543 C3545 1.389 . S
C3544 H3517 0.950 . S
C3544 C3530 1.377 . S
C3544 C3543 1.373 . S
C3545 C3529 1.377 . S
C3545 C3543 1.389 . S
C3545 C3546 1.524 . S
C3546 C3545 1.524 . S
C3546 C3547 1.397 . S
C3546 C3551 1.363 . S
C3547 H3518 0.950 . S
C3547 C3546 1.397 . S
C3547 C3548 1.334 . S
C3548 H3519 0.950 . S
C3548 C3547 1.334 . S
C3548 C3549 1.287 . S
C3549 C3548 1.287 . S
C3549 C3550 1.524 . S
C3549 H3552 0.999 . S
C3550 H3520 0.950 . S
C3550 C3549 1.524 . S
C3550 C3551 1.415 . S
C3551 H3521 0.950 . S
C3551 C3546 1.363 . S
C3551 C3550 1.415 . S
H3552 C3549 0.999 . S
H3553 C3534 0.913 . S
H3554 C3572 0.951 . S
H3555 C3574 0.951 . S
H3556 C3576 0.950 . S
H3557 C3577 0.950 . S
H3558 C3579 0.950 . S
H3559 C3582 0.950 . S
H3560 C3583 0.950 . S
H3561 C3585 0.950 . S
H3562 C3586 0.950 . S
H3563 C3587 0.951 . S
H3564 C3589 0.951 . S
H3565 C3591 0.950 . S
H3566 C3592 0.950 . S
H3567 C3594 0.950 . S
H3568 C3597 0.950 . S
H3569 C3598 0.950 . S
H3570 C3600 0.950 . S
H3571 C3601 0.950 . S
C3572 H3554 0.951 . S
C3572 C3573 1.366 . S
C3572 C3574 1.388 . S
C3573 C3572 1.366 . S
C3573 C3577 1.385 . S
C3574 H3555 0.951 . S
C3574 C3572 1.388 . S
C3574 C3575 1.366 . S
C3575 C3574 1.366 . S
C3575 C3576 1.414 . S
C3575 C3578 1.499 . S
C3576 H3556 0.950 . S
C3576 C3575 1.414 . S
C3576 C3577 1.374 . S
C3577 H3557 0.950 . S
C3577 C3573 1.385 . S
C3577 C3576 1.374 . S
C3578 C3575 1.499 . S
C3578 C3579 1.373 . S
C3578 C3580 1.389 . S
C3579 H3558 0.950 . S
C3579 C3578 1.373 . S
C3579 C3595 1.377 . S
C3580 C3578 1.389 . S
C3580 C3581 1.524 . S
C3580 C3594 1.377 . S
C3581 C3580 1.524 . S
C3581 C3582 1.397 . S
C3581 C3586 1.363 . S
C3582 H3559 0.950 . S
C3582 C3581 1.397 . S
C3582 C3583 1.334 . S
C3583 H3560 0.950 . S
C3583 C3582 1.334 . S
C3583 C3584 1.287 . S
C3584 C3583 1.287 . S
C3584 C3585 1.524 . S
C3584 H3603 0.913 . S
C3585 H3561 0.950 . S
C3585 C3584 1.524 . S
C3585 C3586 1.415 . S
C3586 H3562 0.950 . S
C3586 C3581 1.363 . S
C3586 C3585 1.415 . S
C3587 H3563 0.951 . S
C3587 C3588 1.366 . S
C3587 C3589 1.388 . S
C3588 C3587 1.366 . S
C3588 C3592 1.385 . S
C3589 H3564 0.951 . S
C3589 C3587 1.388 . S
C3589 C3590 1.366 . S
C3590 C3589 1.366 . S
C3590 C3591 1.414 . S
C3590 C3593 1.499 . S
C3591 H3565 0.950 . S
C3591 C3590 1.414 . S
C3591 C3592 1.374 . S
C3592 H3566 0.950 . S
C3592 C3588 1.385 . S
C3592 C3591 1.374 . S
C3593 C3590 1.499 . S
C3593 C3594 1.373 . S
C3593 C3595 1.389 . S
C3594 H3567 0.950 . S
C3594 C3580 1.377 . S
C3594 C3593 1.373 . S
C3595 C3579 1.377 . S
C3595 C3593 1.389 . S
C3595 C3596 1.524 . S
C3596 C3595 1.524 . S
C3596 C3597 1.397 . S
C3596 C3601 1.363 . S
C3597 H3568 0.950 . S
C3597 C3596 1.397 . S
C3597 C3598 1.334 . S
C3598 H3569 0.950 . S
C3598 C3597 1.334 . S
C3598 C3599 1.287 . S
C3599 C3598 1.287 . S
C3599 C3600 1.524 . S
C3599 H3602 0.999 . S
C3600 H3570 0.950 . S
C3600 C3599 1.524 . S
C3600 C3601 1.415 . S
C3601 H3571 0.950 . S
C3601 C3596 1.363 . S
C3601 C3600 1.415 . S
H3602 C3599 0.999 . S
H3603 C3584 0.913 . S
H3604 C3622 0.951 . S
H3605 C3624 0.951 . S
H3606 C3626 0.950 . S
H3607 C3627 0.950 . S
H3608 C3629 0.950 . S
H3609 C3632 0.950 . S
H3610 C3633 0.950 . S
H3611 C3635 0.950 . S
H3612 C3636 0.950 . S
H3613 C3637 0.951 . S
H3614 C3639 0.951 . S
H3615 C3641 0.950 . S
H3616 C3642 0.950 . S
H3617 C3644 0.950 . S
H3618 C3647 0.950 . S
H3619 C3648 0.950 . S
H3620 C3650 0.950 . S
H3621 C3651 0.950 . S
C3622 H3604 0.951 . S
C3622 C3623 1.366 . S
C3622 C3624 1.388 . S
C3623 C3622 1.366 . S
C3623 C3627 1.385 . S
C3624 H3605 0.951 . S
C3624 C3622 1.388 . S
C3624 C3625 1.366 . S
C3625 C3624 1.366 . S
C3625 C3626 1.414 . S
C3625 C3628 1.499 . S
C3626 H3606 0.950 . S
C3626 C3625 1.414 . S
C3626 C3627 1.374 . S
C3627 H3607 0.950 . S
C3627 C3623 1.385 . S
C3627 C3626 1.374 . S
C3628 C3625 1.499 . S
C3628 C3629 1.373 . S
C3628 C3630 1.389 . S
C3629 H3608 0.950 . S
C3629 C3628 1.373 . S
C3629 C3645 1.377 . S
C3630 C3628 1.389 . S
C3630 C3631 1.524 . S
C3630 C3644 1.377 . S
C3631 C3630 1.524 . S
C3631 C3632 1.397 . S
C3631 C3636 1.363 . S
C3632 H3609 0.950 . S
C3632 C3631 1.397 . S
C3632 C3633 1.334 . S
C3633 H3610 0.950 . S
C3633 C3632 1.334 . S
C3633 C3634 1.287 . S
C3634 C3633 1.287 . S
C3634 C3635 1.524 . S
C3634 H3653 0.913 . S
C3635 H3611 0.950 . S
C3635 C3634 1.524 . S
C3635 C3636 1.415 . S
C3636 H3612 0.950 . S
C3636 C3631 1.363 . S
C3636 C3635 1.415 . S
C3637 H3613 0.951 . S
C3637 C3638 1.366 . S
C3637 C3639 1.388 . S
C3638 C3637 1.366 . S
C3638 C3642 1.385 . S
C3639 H3614 0.951 . S
C3639 C3637 1.388 . S
C3639 C3640 1.366 . S
C3640 C3639 1.366 . S
C3640 C3641 1.414 . S
C3640 C3643 1.499 . S
C3641 H3615 0.950 . S
C3641 C3640 1.414 . S
C3641 C3642 1.374 . S
C3642 H3616 0.950 . S
C3642 C3638 1.385 . S
C3642 C3641 1.374 . S
C3643 C3640 1.499 . S
C3643 C3644 1.373 . S
C3643 C3645 1.389 . S
C3644 H3617 0.950 . S
C3644 C3630 1.377 . S
C3644 C3643 1.373 . S
C3645 C3629 1.377 . S
C3645 C3643 1.389 . S
C3645 C3646 1.524 . S
C3646 C3645 1.524 . S
C3646 C3647 1.397 . S
C3646 C3651 1.363 . S
C3647 H3618 0.950 . S
C3647 C3646 1.397 . S
C3647 C3648 1.334 . S
C3648 H3619 0.950 . S
C3648 C3647 1.334 . S
C3648 C3649 1.287 . S
C3649 C3648 1.287 . S
C3649 C3650 1.524 . S
C3649 H3652 0.999 . S
C3650 H3620 0.950 . S
C3650 C3649 1.524 . S
C3650 C3651 1.415 . S
C3651 H3621 0.950 . S
C3651 C3646 1.363 . S
C3651 C3650 1.415 . S
H3652 C3649 0.999 . S
H3653 C3634 0.913 . S
C973 C147 1.431 . S
C988 C254 1.374 . S
C1023 C158 1.458 . S
C1038 C338 1.403 . S
C1073 C136 1.426 . S
C1088 C432 1.418 . S
C1123 C125 1.402 . S
C1138 C348 1.396 1_556 S
C1188 C422 1.352 . S
C1173 C103 1.410 . S
C1223 C114 1.379 . S
C1238 C264 1.370 1_556 S
C1288 C265 1.429 . S
C1273 C131 1.491 . S
C1338 C349 1.457 . S
C1323 C109 1.516 . S
C1373 C120 1.509 . S
C1388 C441 1.462 1_556 S
C1423 C153 1.476 . S
C1438 C357 1.444 . S
C1473 C164 1.461 . S
C1488 C433 1.398 . S
C1538 C273 1.420 . S
C1523 C142 1.453 . S
C1588 C506 1.374 . S
C1573 C15 1.431 . S
C1623 C26 1.458 . S
C1638 C590 1.404 . S
C1673 C4 1.427 . S
C1688 C684 1.419 . S
C1723 C191 1.403 . S
C1738 C600 1.396 . S
C1773 C169 1.409 . S
C1788 C674 1.351 . S
C1823 C180 1.378 . S
C1838 C516 1.370 . S
C1873 C197 1.491 . S
C1888 C517 1.430 . S
C1923 C175 1.516 . S
C1938 C601 1.456 . S
C1988 C693 1.476 . S
C1973 C186 1.509 . S
C2023 C21 1.476 . S
C2038 C609 1.443 . S
C2088 C685 1.400 . S
C2073 C32 1.461 . S
C2123 C10 1.453 . S
C2138 C525 1.421 . S
C2188 C758 1.373 . S
C2173 C81 1.432 . S
C2223 C92 1.458 . S
C2238 C842 1.404 . S
C2288 C936 1.418 . S
C2273 C70 1.426 . S
C2338 C852 1.396 . S
C2323 C59 1.402 . S
C2388 C926 1.352 . S
C2373 C37 1.409 . S
C2423 C48 1.378 . S
C2438 C768 1.370 . S
C2473 C65 1.491 . S
C2488 C769 1.428 . S
C2523 C43 1.516 . S
C2538 C853 1.456 . S
C2588 C945 1.476 . S
C2573 C54 1.509 . S
C2623 C87 1.476 . S
C2638 C861 1.444 . S
C2673 C98 1.461 . S
C2688 C937 1.399 . S
C2723 C76 1.453 . S
C2738 C777 1.420 . S
C2773 C170 1.546 . S
C2788 C261 1.422 . S
C2838 C345 1.476 . S
C2823 C181 1.621 . S
C2873 C192 1.562 . S
C2888 C438 1.385 . S
C2923 C71 1.594 . S
C2938 C354 1.408 . S
C2973 C82 1.577 . S
C2988 C429 1.439 . S
C3038 C270 1.355 . S
C3023 C93 1.519 . S
C3073 C38 1.547 . S
C3088 C513 1.422 . S
C3123 C49 1.621 . S
C3138 C597 1.475 . S
C3173 C60 1.563 . S
C3188 C690 1.386 . S
C3223 C137 1.594 . S
C3238 C606 1.407 . S
C3288 C681 1.439 . S
C3273 C148 1.577 . S
C3323 C159 1.519 . S
C3338 C522 1.357 . S
C3373 C104 1.547 . S
C3388 C765 1.422 . S
C3423 C115 1.621 . S
C3438 C849 1.477 . S
C3488 C942 1.385 . S
C3473 C126 1.562 . S
C3523 C5 1.594 . S
C3538 C858 1.408 . S
C3573 C16 1.576 . S
C3588 C933 1.440 . S
C3623 C27 1.519 . S
C3638 C774 1.355 . S
