# Generated by pormake.
# Topology pto, (3,4)-cn, num edge types: 1
# Building blocks:
#     Node 0, Type 0, BuildingBlock: VETTIZ_charged_linker_0, # of connection points: 3
#     Node 1, Type 0, BuildingBlock: VETTIZ_charged_linker_0, # of connection points: 3
#     Node 2, Type 0, BuildingBlock: VETTIZ_charged_linker_0, # of connection points: 3
#     Node 3, Type 0, BuildingBlock: VETTIZ_charged_linker_0, # of connection points: 3
#     Node 4, Type 0, BuildingBlock: VETTIZ_charged_linker_0, # of connection points: 3
#     Node 5, Type 0, BuildingBlock: VETTIZ_charged_linker_0, # of connection points: 3
#     Node 6, Type 0, BuildingBlock: VETTIZ_charged_linker_0, # of connection points: 3
#     Node 7, Type 0, BuildingBlock: VETTIZ_charged_linker_0, # of connection points: 3
#     Node 8, Type 1, BuildingBlock: KOZSID_clean_sbu_0, # of connection points: 4
#     Node 9, Type 1, BuildingBlock: KOZSID_clean_sbu_0, # of connection points: 4
#     Node 10, Type 1, BuildingBlock: KOZSID_clean_sbu_0, # of connection points: 4
#     Node 11, Type 1, BuildingBlock: KOZSID_clean_sbu_0, # of connection points: 4
#     Node 12, Type 1, BuildingBlock: KOZSID_clean_sbu_0, # of connection points: 4
#     Node 13, Type 1, BuildingBlock: KOZSID_clean_sbu_0, # of connection points: 4
#     Edge 14, Type (0, 1), BuildingBlock: KIFKEQ_clean_linker_1, # of connection points: 2
#     Edge 15, Type (0, 1), BuildingBlock: KIFKEQ_clean_linker_1, # of connection points: 2
#     Edge 16, Type (0, 1), BuildingBlock: KIFKEQ_clean_linker_1, # of connection points: 2
#     Edge 17, Type (0, 1), BuildingBlock: KIFKEQ_clean_linker_1, # of connection points: 2
#     Edge 18, Type (0, 1), BuildingBlock: KIFKEQ_clean_linker_1, # of connection points: 2
#     Edge 19, Type (0, 1), BuildingBlock: KIFKEQ_clean_linker_1, # of connection points: 2
#     Edge 20, Type (0, 1), BuildingBlock: KIFKEQ_clean_linker_1, # of connection points: 2
#     Edge 21, Type (0, 1), BuildingBlock: KIFKEQ_clean_linker_1, # of connection points: 2
#     Edge 22, Type (0, 1), BuildingBlock: KIFKEQ_clean_linker_1, # of connection points: 2
#     Edge 23, Type (0, 1), BuildingBlock: KIFKEQ_clean_linker_1, # of connection points: 2
#     Edge 24, Type (0, 1), BuildingBlock: KIFKEQ_clean_linker_1, # of connection points: 2
#     Edge 25, Type (0, 1), BuildingBlock: KIFKEQ_clean_linker_1, # of connection points: 2
#     Edge 26, Type (0, 1), BuildingBlock: KIFKEQ_clean_linker_1, # of connection points: 2
#     Edge 27, Type (0, 1), BuildingBlock: KIFKEQ_clean_linker_1, # of connection points: 2
#     Edge 28, Type (0, 1), BuildingBlock: KIFKEQ_clean_linker_1, # of connection points: 2
#     Edge 29, Type (0, 1), BuildingBlock: KIFKEQ_clean_linker_1, # of connection points: 2
#     Edge 30, Type (0, 1), BuildingBlock: KIFKEQ_clean_linker_1, # of connection points: 2
#     Edge 31, Type (0, 1), BuildingBlock: KIFKEQ_clean_linker_1, # of connection points: 2
#     Edge 32, Type (0, 1), BuildingBlock: KIFKEQ_clean_linker_1, # of connection points: 2
#     Edge 33, Type (0, 1), BuildingBlock: KIFKEQ_clean_linker_1, # of connection points: 2
#     Edge 34, Type (0, 1), BuildingBlock: KIFKEQ_clean_linker_1, # of connection points: 2
#     Edge 35, Type (0, 1), BuildingBlock: KIFKEQ_clean_linker_1, # of connection points: 2
#     Edge 36, Type (0, 1), BuildingBlock: KIFKEQ_clean_linker_1, # of connection points: 2
#     Edge 37, Type (0, 1), BuildingBlock: KIFKEQ_clean_linker_1, # of connection points: 2
# Relax obj value: 0.000
# Max RMSD: 0.022
# Mean RMSD: 0.009
data_MOF--net-pto--node1-KOZSID_clean_sbu_0--node2-VETTIZ_charged_linker_0--edge1-KIFKEQ_clean_linker_1
_symmetry_space_group_name_H-M    P1
_symmetry_Int_Tables_number       1
_symmetry_cell_setting            triclinic
loop_
_symmetry_equiv_pos_as_xyz
'x, y, z'
_cell_length_a     47.197562
_cell_length_b     63.572516
_cell_length_c     55.494572
_cell_angle_alpha  87.746528
_cell_angle_beta   87.383993
_cell_angle_gamma 92.50642
loop_
_atom_site_label
_atom_site_type_symbol
_atom_site_fract_x
_atom_site_fract_y
_atom_site_fract_z
_atom_type_partial_charge
C0 C 0.24737 0.20129 0.36007 0.0
C1 C 0.26288 0.183 0.35742 0.0
C2 C 0.28407 0.18286 0.33863 0.0
C3 C 0.27318 0.21817 0.32511 0.0
C4 C 0.25298 0.21865 0.34388 0.0
C5 C 0.23876 0.2394 0.34429 0.0
H6 H 0.22279 0.33628 0.29238 0.0
C7 C 0.27341 0.23848 0.31118 0.0
C8 C 0.25345 0.2511 0.32244 0.0
H9 H 0.17901 0.30834 0.35679 0.0
H10 H 0.20606 0.27714 0.35319 0.0
H11 H 0.21875 0.29541 0.26206 0.0
H12 H 0.28502 0.32102 0.30447 0.0
H13 H 0.30138 0.31196 0.278 0.0
H14 H 0.27651 0.33263 0.27584 0.0
H15 H 0.24092 0.31791 0.25176 0.0
H16 H 0.25095 0.2914 0.24623 0.0
C17 C 0.20667 0.23515 0.34086 0.0
C18 C 0.24563 0.24999 0.36814 0.0
C19 C 0.33567 0.24946 0.23402 0.0
C20 C 0.33936 0.26621 0.21664 0.0
C21 C 0.32462 0.28474 0.22025 0.0
C22 C 0.30628 0.28647 0.24057 0.0
C23 C 0.30242 0.26947 0.25754 0.0
C24 C 0.31714 0.25142 0.2542 0.0
C25 C 0.31025 0.23492 0.27404 0.0
C26 C 0.28877 0.24599 0.28971 0.0
C27 C 0.28428 0.2662 0.27993 0.0
C28 C 0.2968 0.21525 0.26259 0.0
C29 C 0.33779 0.23084 0.28736 0.0
C30 C 0.21888 0.32341 0.30567 0.0
C31 C 0.19861 0.32481 0.32485 0.0
C32 C 0.19466 0.3078 0.34196 0.0
C33 C 0.21028 0.28961 0.33975 0.0
C34 C 0.23011 0.28836 0.32022 0.0
C35 C 0.23425 0.30517 0.3037 0.0
C36 C 0.25601 0.30111 0.28401 0.0
C37 C 0.26437 0.2791 0.29144 0.0
C38 C 0.2491 0.27164 0.31262 0.0
C39 C 0.24117 0.30159 0.25964 0.0
C40 C 0.28106 0.31755 0.28538 0.0
H41 H 0.30552 0.19903 0.30859 0.0
H42 H 0.2309 0.20205 0.3742 0.0
H43 H 0.26734 0.24639 0.37363 0.0
H44 H 0.24578 0.26736 0.36653 0.0
H45 H 0.23042 0.24431 0.38309 0.0
H46 H 0.20329 0.22295 0.32731 0.0
H47 H 0.1955 0.22937 0.35807 0.0
H48 H 0.19612 0.24911 0.33384 0.0
H49 H 0.34648 0.23494 0.23173 0.0
H50 H 0.32741 0.298 0.20737 0.0
H51 H 0.29568 0.30097 0.24219 0.0
H52 H 0.2821 0.21998 0.24843 0.0
H53 H 0.31336 0.20577 0.25395 0.0
H54 H 0.28371 0.20498 0.27559 0.0
H55 H 0.35209 0.24525 0.28691 0.0
H56 H 0.33366 0.22675 0.30679 0.0
H57 H 0.3498 0.21819 0.27892 0.0
H58 H 0.29696 0.16933 0.33644 0.0
C59 C 0.28922 0.20025 0.3225 0.0
C60 C 0.20407 0.70059 0.72279 0.0
C61 C 0.18593 0.698 0.70364 0.0
C62 C 0.18431 0.71461 0.68623 0.0
C63 C 0.21742 0.73626 0.70791 0.0
C64 C 0.21962 0.71968 0.7245 0.0
C65 C 0.24005 0.72479 0.74366 0.0
H66 H 0.32474 0.79634 0.79641 0.0
C67 C 0.23551 0.7542 0.71556 0.0
C68 C 0.24885 0.7475 0.73647 0.0
H69 H 0.3116 0.72995 0.81505 0.0
H70 H 0.28006 0.726 0.78222 0.0
H71 H 0.26036 0.80571 0.78384 0.0
H72 H 0.33305 0.78972 0.73986 0.0
H73 H 0.31553 0.80886 0.72332 0.0
H74 H 0.3297 0.81534 0.75188 0.0
H75 H 0.28955 0.82416 0.7762 0.0
H76 H 0.26006 0.82107 0.75686 0.0
C77 C 0.22356 0.72289 0.76848 0.0
C78 C 0.26527 0.71002 0.74127 0.0
C79 C 0.23872 0.82492 0.66861 0.0
C80 C 0.25228 0.84464 0.67241 0.0
C81 C 0.26832 0.84682 0.69311 0.0
C82 C 0.27133 0.82973 0.70933 0.0
C83 C 0.25805 0.81013 0.70508 0.0
C84 C 0.24178 0.80799 0.68517 0.0
C85 C 0.22846 0.78608 0.68414 0.0
C86 C 0.24001 0.77536 0.70638 0.0
C87 C 0.25741 0.78955 0.71849 0.0
C88 C 0.1958 0.78768 0.68643 0.0
C89 C 0.23947 0.7763 0.66058 0.0
C90 C 0.31481 0.78104 0.79342 0.0
C91 C 0.32025 0.76344 0.80831 0.0
C92 C 0.30754 0.74366 0.80372 0.0
C93 C 0.28929 0.74143 0.78467 0.0
C94 C 0.28398 0.75913 0.76985 0.0
C95 C 0.29697 0.77846 0.77413 0.0
C96 C 0.29029 0.79517 0.75556 0.0
C97 C 0.27096 0.78273 0.73958 0.0
C98 C 0.26703 0.76174 0.74827 0.0
C99 C 0.27441 0.8126 0.76863 0.0
C100 C 0.31849 0.8029 0.74194 0.0
H101 H 0.19755 0.74588 0.67463 0.0
H102 H 0.20621 0.68793 0.73614 0.0
H103 H 0.26802 0.70436 0.72262 0.0
H104 H 0.28588 0.71812 0.74462 0.0
H105 H 0.26203 0.69591 0.7537 0.0
H106 H 0.20272 0.73032 0.76742 0.0
H107 H 0.2194 0.7061 0.77441 0.0
H108 H 0.23463 0.73101 0.78278 0.0
H109 H 0.22628 0.82257 0.65294 0.0
H110 H 0.27841 0.86186 0.69696 0.0
H111 H 0.28388 0.8325 0.72462 0.0
H112 H 0.18983 0.79996 0.69923 0.0
H113 H 0.18714 0.792 0.66871 0.0
H114 H 0.18469 0.77306 0.69385 0.0
H115 H 0.26227 0.78091 0.6566 0.0
H116 H 0.23851 0.75891 0.6617 0.0
H117 H 0.22745 0.78175 0.64493 0.0
H118 H 0.17048 0.71295 0.6713 0.0
C119 C 0.19989 0.73374 0.6883 0.0
C120 C 0.83258 0.71192 0.32487 0.0
C121 C 0.83133 0.69363 0.31138 0.0
C122 C 0.81295 0.6927 0.29208 0.0
C123 C 0.79784 0.72788 0.29974 0.0
C124 C 0.8156 0.72873 0.31884 0.0
C125 C 0.81398 0.74918 0.33151 0.0
H126 H 0.75731 0.84493 0.3405 0.0
C127 C 0.78316 0.74793 0.29816 0.0
C128 C 0.79236 0.76044 0.31685 0.0
H129 H 0.81952 0.81715 0.3853 0.0
H130 H 0.81846 0.78602 0.36177 0.0
H131 H 0.71731 0.80326 0.33746 0.0
H132 H 0.78519 0.8305 0.29021 0.0
H133 H 0.75801 0.82169 0.27198 0.0
H134 H 0.75111 0.84185 0.29316 0.0
H135 H 0.71315 0.82637 0.31856 0.0
H136 H 0.70699 0.80023 0.30775 0.0
C137 C 0.80284 0.74415 0.3579 0.0
C138 C 0.84366 0.76067 0.32905 0.0
C139 C 0.71605 0.76115 0.23058 0.0
C140 C 0.69907 0.77808 0.22452 0.0
C141 C 0.69886 0.79554 0.23947 0.0
C142 C 0.71549 0.79629 0.25974 0.0
C143 C 0.73256 0.77938 0.26533 0.0
C144 C 0.73241 0.7621 0.25099 0.0
C145 C 0.75131 0.74535 0.26005 0.0
C146 C 0.76323 0.75561 0.28192 0.0
C147 C 0.75228 0.77558 0.28485 0.0
C148 C 0.7325 0.72526 0.26723 0.0
C149 C 0.77472 0.74223 0.2402 0.0
C150 C 0.77052 0.83206 0.34537 0.0
C151 C 0.78849 0.83351 0.36483 0.0
C152 C 0.8057 0.81653 0.37027 0.0
C153 C 0.80493 0.7984 0.35665 0.0
C154 C 0.78684 0.79719 0.33726 0.0
C155 C 0.77011 0.81389 0.33187 0.0
C156 C 0.75258 0.81003 0.31037 0.0
C157 C 0.76136 0.78819 0.30388 0.0
C158 C 0.78138 0.78071 0.31971 0.0
C159 C 0.7208 0.81009 0.31874 0.0
C160 C 0.76189 0.8269 0.29032 0.0
H161 H 0.78292 0.70802 0.27119 0.0
H162 H 0.84626 0.71304 0.33996 0.0
H163 H 0.85426 0.75804 0.31116 0.0
H164 H 0.84275 0.77795 0.32985 0.0
H165 H 0.85767 0.75483 0.34316 0.0
H166 H 0.78653 0.73093 0.35877 0.0
H167 H 0.82031 0.73945 0.36944 0.0
H168 H 0.79208 0.7574 0.36604 0.0
H169 H 0.71699 0.74753 0.21951 0.0
H170 H 0.68558 0.80861 0.23567 0.0
H171 H 0.71437 0.81004 0.27029 0.0
H172 H 0.71072 0.72932 0.27339 0.0
H173 H 0.73043 0.71485 0.25173 0.0
H174 H 0.7405 0.71616 0.28268 0.0
H175 H 0.78242 0.75766 0.23159 0.0
H176 H 0.79379 0.73517 0.24724 0.0
H177 H 0.76652 0.73228 0.22581 0.0
H178 H 0.81184 0.67892 0.28123 0.0
C179 C 0.79628 0.70969 0.28619 0.0
C180 C 0.71749 0.27313 0.81544 0.0
C181 C 0.69767 0.25623 0.82107 0.0
C182 C 0.696 0.23957 0.80498 0.0
C183 C 0.73354 0.2566 0.77885 0.0
C184 C 0.73477 0.27311 0.79426 0.0
C185 C 0.75572 0.29044 0.78519 0.0
H186 H 0.85262 0.32979 0.69976 0.0
C187 C 0.75453 0.26147 0.75854 0.0
C188 C 0.76733 0.28139 0.76204 0.0
H189 H 0.82129 0.35899 0.76427 0.0
H190 H 0.79139 0.32822 0.77503 0.0
H191 H 0.792 0.30886 0.68511 0.0
H192 H 0.85962 0.28423 0.72587 0.0
H193 H 0.84659 0.26385 0.7084 0.0
H194 H 0.86254 0.28756 0.69358 0.0
H195 H 0.8263 0.30391 0.6717 0.0
H196 H 0.79869 0.28342 0.67541 0.0
C197 C 0.73914 0.31061 0.78028 0.0
C198 C 0.77885 0.2928 0.80396 0.0
C199 C 0.7715 0.20739 0.69502 0.0
C200 C 0.79043 0.20691 0.67474 0.0
C201 C 0.80886 0.22464 0.66891 0.0
C202 C 0.80846 0.24248 0.68302 0.0
C203 C 0.78952 0.24264 0.70331 0.0
C204 C 0.77149 0.22525 0.70902 0.0
C205 C 0.75311 0.22804 0.73142 0.0
C206 C 0.76325 0.24986 0.73837 0.0
C207 C 0.78449 0.25841 0.72177 0.0
C208 C 0.72166 0.22743 0.72442 0.0
C209 C 0.76009 0.21083 0.75051 0.0
C210 C 0.83941 0.32949 0.71626 0.0
C211 C 0.83912 0.34705 0.731 0.0
C212 C 0.82151 0.34595 0.75228 0.0
C213 C 0.80423 0.32797 0.75861 0.0
C214 C 0.80441 0.31073 0.74357 0.0
C215 C 0.8219 0.31157 0.72286 0.0
C216 C 0.81935 0.29154 0.70929 0.0
C217 C 0.79698 0.27883 0.725 0.0
C218 C 0.78842 0.29018 0.74506 0.0
C219 C 0.8087 0.29707 0.68394 0.0
C220 C 0.84849 0.2812 0.70901 0.0
H221 H 0.71151 0.22649 0.77264 0.0
H222 H 0.71978 0.28616 0.82728 0.0
H223 H 0.78427 0.27711 0.81158 0.0
H224 H 0.79911 0.29996 0.79613 0.0
H225 H 0.77143 0.30228 0.81922 0.0
H226 H 0.71701 0.30663 0.77535 0.0
H227 H 0.73791 0.32033 0.79646 0.0
H228 H 0.74835 0.32042 0.76473 0.0
H229 H 0.7573 0.19396 0.7002 0.0
H230 H 0.82343 0.22479 0.65324 0.0
H231 H 0.82293 0.25546 0.67758 0.0
H232 H 0.71967 0.23374 0.70561 0.0
H233 H 0.71229 0.21107 0.72555 0.0
H234 H 0.70838 0.2375 0.73564 0.0
H235 H 0.78338 0.20873 0.75044 0.0
H236 H 0.75397 0.2148 0.76914 0.0
H237 H 0.74962 0.19541 0.74668 0.0
H238 H 0.68059 0.22655 0.80831 0.0
C239 C 0.71385 0.23963 0.78405 0.0
C240 C 0.78562 0.83095 0.67333 0.0
C241 C 0.76882 0.84857 0.67545 0.0
C242 C 0.74752 0.84849 0.69409 0.0
C243 C 0.76013 0.81373 0.70827 0.0
C244 C 0.78069 0.81365 0.68971 0.0
C245 C 0.79562 0.7932 0.68938 0.0
H246 H 0.81139 0.6953 0.7386 0.0
C247 C 0.76029 0.79335 0.72207 0.0
C248 C 0.7808 0.78113 0.71091 0.0
H249 H 0.85719 0.72545 0.67642 0.0
H250 H 0.83028 0.75661 0.681 0.0
H251 H 0.81392 0.73546 0.77074 0.0
H252 H 0.74929 0.71098 0.72584 0.0
H253 H 0.73213 0.71921 0.75239 0.0
H254 H 0.75698 0.69849 0.75422 0.0
H255 H 0.79201 0.7124 0.7795 0.0
H256 H 0.78114 0.73849 0.78611 0.0
C257 C 0.82747 0.79802 0.6934 0.0
C258 C 0.7897 0.78267 0.66529 0.0
C259 C 0.69691 0.78076 0.79837 0.0
C260 C 0.6925 0.7635 0.81499 0.0
C261 C 0.70694 0.74494 0.81083 0.0
C262 C 0.72582 0.74369 0.79074 0.0
C263 C 0.73036 0.76118 0.77451 0.0
C264 C 0.71576 0.77923 0.77831 0.0
C265 C 0.72272 0.79604 0.75883 0.0
C266 C 0.74454 0.78534 0.74313 0.0
C267 C 0.74897 0.76495 0.75244 0.0
C268 C 0.73582 0.81559 0.77076 0.0
C269 C 0.69532 0.80023 0.74533 0.0
C270 C 0.81536 0.70852 0.72579 0.0
C271 C 0.83638 0.70787 0.70706 0.0
C272 C 0.84127 0.7256 0.6911 0.0
C273 C 0.82553 0.74366 0.69373 0.0
C274 C 0.80469 0.7441 0.71262 0.0
C275 C 0.79995 0.72672 0.72827 0.0
C276 C 0.77756 0.7302 0.74769 0.0
C277 C 0.76934 0.75241 0.74093 0.0
C278 C 0.78526 0.76048 0.72035 0.0
C279 C 0.79161 0.72896 0.7724 0.0
C280 C 0.75266 0.71384 0.74518 0.0
H281 H 0.72677 0.83221 0.72442 0.0
H282 H 0.80185 0.83047 0.65894 0.0
H283 H 0.76785 0.78567 0.65967 0.0
H284 H 0.79051 0.76534 0.66662 0.0
H285 H 0.80481 0.78894 0.65055 0.0
H286 H 0.83014 0.81059 0.70662 0.0
H287 H 0.83904 0.80355 0.67628 0.0
H288 H 0.83812 0.78439 0.70118 0.0
H289 H 0.68577 0.79511 0.80083 0.0
H290 H 0.70407 0.73148 0.82343 0.0
H291 H 0.73631 0.72919 0.78874 0.0
H292 H 0.7512 0.81075 0.7843 0.0
H293 H 0.71912 0.82439 0.78023 0.0
H294 H 0.74796 0.82653 0.75782 0.0
H295 H 0.68056 0.78605 0.74619 0.0
H296 H 0.69962 0.80379 0.7258 0.0
H297 H 0.6837 0.8133 0.7533 0.0
H298 H 0.73441 0.86194 0.69607 0.0
C299 C 0.74318 0.83124 0.71055 0.0
C300 C 0.7969 0.20721 0.36458 0.0
C301 C 0.7804 0.18833 0.36291 0.0
C302 C 0.76008 0.1873 0.34503 0.0
C303 C 0.77377 0.22289 0.33045 0.0
C304 C 0.79315 0.22422 0.34832 0.0
C305 C 0.80864 0.24548 0.34777 0.0
H306 H 0.83495 0.34191 0.29251 0.0
C307 C 0.77565 0.24301 0.31606 0.0
C308 C 0.79598 0.25638 0.32617 0.0
H309 H 0.86982 0.31754 0.35806 0.0
H310 H 0.84208 0.28485 0.35538 0.0
H311 H 0.7711 0.32544 0.30659 0.0
H312 H 0.8381 0.2998 0.26327 0.0
H313 H 0.80651 0.29483 0.24855 0.0
H314 H 0.8186 0.3217 0.25281 0.0
H315 H 0.78237 0.33634 0.27721 0.0
H316 H 0.75561 0.3152 0.28111 0.0
C317 C 0.80098 0.25624 0.37165 0.0
C318 C 0.84074 0.24224 0.34331 0.0
C319 C 0.71565 0.25197 0.2427 0.0
C320 C 0.71391 0.26838 0.22509 0.0
C321 C 0.73151 0.28676 0.22665 0.0
C322 C 0.75019 0.28886 0.2454 0.0
C323 C 0.75155 0.27239 0.26288 0.0
C324 C 0.7346 0.25427 0.26126 0.0
C325 C 0.73947 0.2382 0.28112 0.0
C326 C 0.76188 0.24978 0.29505 0.0
C327 C 0.76878 0.26981 0.28431 0.0
C328 C 0.71129 0.23413 0.29638 0.0
C329 C 0.75104 0.21841 0.26932 0.0
C330 C 0.83676 0.32945 0.30617 0.0
C331 C 0.85471 0.33221 0.32542 0.0
C332 C 0.85604 0.31579 0.34312 0.0
C333 C 0.83998 0.29682 0.34148 0.0
C334 C 0.82217 0.29428 0.32206 0.0
C335 C 0.82061 0.31055 0.30496 0.0
C336 C 0.79982 0.30545 0.28608 0.0
C337 C 0.78918 0.28341 0.29459 0.0
C338 C 0.80251 0.27684 0.31554 0.0
C339 C 0.77598 0.32144 0.28755 0.0
C340 C 0.81636 0.30556 0.26128 0.0
H341 H 0.74099 0.20247 0.31568 0.0
H342 H 0.81274 0.20867 0.37799 0.0
H343 H 0.84423 0.2306 0.32914 0.0
H344 H 0.85281 0.25673 0.33669 0.0
H345 H 0.85026 0.2362 0.36002 0.0
H346 H 0.77923 0.25117 0.37876 0.0
H347 H 0.81597 0.25223 0.38581 0.0
H348 H 0.80049 0.27357 0.36929 0.0
H349 H 0.70236 0.23768 0.24227 0.0
H350 H 0.73117 0.2995 0.21314 0.0
H351 H 0.76294 0.30324 0.24548 0.0
H352 H 0.69934 0.2488 0.29754 0.0
H353 H 0.69735 0.22206 0.28829 0.0
H354 H 0.71462 0.22925 0.31533 0.0
H355 H 0.76546 0.22293 0.25336 0.0
H356 H 0.76404 0.20905 0.28139 0.0
H357 H 0.73347 0.2081 0.26307 0.0
H358 H 0.74646 0.17328 0.34364 0.0
C359 C 0.75675 0.20437 0.32884 0.0
C360 C 0.26496 0.2011 0.68644 0.0
C361 C 0.24739 0.20003 0.66668 0.0
C362 C 0.23045 0.21719 0.66132 0.0
C363 C 0.2487 0.23588 0.69505 0.0
C364 C 0.26524 0.21904 0.7003 0.0
C365 C 0.28247 0.22247 0.72206 0.0
H366 H 0.31752 0.28328 0.81448 0.0
C367 C 0.25385 0.25199 0.71311 0.0
C368 C 0.27362 0.24417 0.72899 0.0
H369 H 0.34908 0.22254 0.79704 0.0
H370 H 0.32023 0.22162 0.7624 0.0
H371 H 0.25252 0.27297 0.80275 0.0
H372 H 0.32318 0.30245 0.76063 0.0
H373 H 0.29313 0.316 0.75278 0.0
H374 H 0.30418 0.31607 0.78351 0.0
H375 H 0.26726 0.29872 0.80843 0.0
H376 H 0.23999 0.295 0.78711 0.0
C377 C 0.27288 0.20527 0.74167 0.0
C378 C 0.31434 0.22251 0.71396 0.0
C379 C 0.20162 0.32048 0.71011 0.0
C380 C 0.20175 0.33804 0.72483 0.0
C381 C 0.21993 0.33849 0.7443 0.0
C382 C 0.23724 0.32168 0.74934 0.0
C383 C 0.2365 0.30411 0.73479 0.0
C384 C 0.21908 0.30375 0.71543 0.0
C385 C 0.22118 0.2837 0.70199 0.0
C386 C 0.24269 0.27214 0.7165 0.0
C387 C 0.25148 0.28417 0.73573 0.0
C388 C 0.19161 0.27202 0.70367 0.0
C389 C 0.23271 0.28953 0.6759 0.0
C390 C 0.31847 0.26985 0.80311 0.0
C391 C 0.33557 0.25289 0.80876 0.0
C392 C 0.33576 0.23565 0.79349 0.0
C393 C 0.3191 0.2352 0.77322 0.0
C394 C 0.30201 0.25219 0.76797 0.0
C395 C 0.30207 0.26919 0.78271 0.0
C396 C 0.28299 0.286 0.77412 0.0
C397 C 0.27125 0.27618 0.75192 0.0
C398 C 0.28237 0.25634 0.74848 0.0
C399 C 0.25948 0.28854 0.79408 0.0
C400 C 0.30159 0.30631 0.76753 0.0
H401 H 0.21773 0.24762 0.67028 0.0
H402 H 0.27795 0.1881 0.69129 0.0
H403 H 0.31806 0.22952 0.69534 0.0
H404 H 0.32797 0.23228 0.7252 0.0
H405 H 0.32204 0.20625 0.71401 0.0
H406 H 0.24958 0.20175 0.74152 0.0
H407 H 0.28363 0.19036 0.73855 0.0
H408 H 0.27659 0.21012 0.76018 0.0
H409 H 0.18777 0.31953 0.69513 0.0
H410 H 0.22087 0.35194 0.75567 0.0
H411 H 0.25043 0.32301 0.76448 0.0
H412 H 0.18067 0.27406 0.72156 0.0
H413 H 0.1778 0.27818 0.68959 0.0
H414 H 0.19275 0.2548 0.70222 0.0
H415 H 0.24909 0.30267 0.67575 0.0
H416 H 0.24349 0.27651 0.66728 0.0
H417 H 0.21544 0.29469 0.66439 0.0
H418 H 0.21695 0.21689 0.64606 0.0
C419 C 0.23105 0.23509 0.67534 0.0
C420 C 0.19908 0.70144 0.31941 0.0
C421 C 0.20018 0.68355 0.30524 0.0
C422 C 0.21868 0.6843 0.28449 0.0
C423 C 0.23426 0.72013 0.2922 0.0
C424 C 0.21622 0.71948 0.31256 0.0
C425 C 0.21746 0.73993 0.32538 0.0
H426 H 0.27251 0.83992 0.33083 0.0
C427 C 0.24883 0.74122 0.28987 0.0
C428 C 0.23906 0.75295 0.30924 0.0
H429 H 0.21106 0.807 0.38059 0.0
H430 H 0.21242 0.77622 0.35652 0.0
H431 H 0.24555 0.82446 0.28306 0.0
H432 H 0.31319 0.80055 0.3242 0.0
H433 H 0.32397 0.80025 0.29348 0.0
H434 H 0.31662 0.82498 0.30674 0.0
H435 H 0.28022 0.83731 0.28213 0.0
H436 H 0.27158 0.81644 0.2622 0.0
C437 C 0.18765 0.74921 0.32527 0.0
C438 C 0.22842 0.7355 0.35089 0.0
C439 C 0.31972 0.7588 0.21944 0.0
C440 C 0.33598 0.77717 0.21198 0.0
C441 C 0.33395 0.79521 0.22584 0.0
C442 C 0.31614 0.79495 0.24679 0.0
C443 C 0.30002 0.77646 0.25401 0.0
C444 C 0.30191 0.75883 0.24034 0.0
C445 C 0.28274 0.74076 0.25039 0.0
C446 C 0.26917 0.7504 0.27245 0.0
C447 C 0.27945 0.77127 0.27453 0.0
C448 C 0.26071 0.73549 0.23136 0.0
C449 C 0.30155 0.72231 0.25741 0.0
C450 C 0.25952 0.82603 0.33667 0.0
C451 C 0.24169 0.82594 0.35771 0.0
C452 C 0.22475 0.8076 0.36435 0.0
C453 C 0.2257 0.78968 0.35042 0.0
C454 C 0.24374 0.79001 0.32952 0.0
C455 C 0.2602 0.80801 0.32295 0.0
C456 C 0.278 0.80561 0.30013 0.0
C457 C 0.26967 0.78316 0.29415 0.0
C458 C 0.2496 0.77406 0.31142 0.0
C459 C 0.26866 0.82183 0.2808 0.0
C460 C 0.30966 0.80809 0.30621 0.0
H461 H 0.24915 0.70191 0.2619 0.0
H462 H 0.18533 0.7014 0.33558 0.0
H463 H 0.24491 0.72352 0.35039 0.0
H464 H 0.23891 0.74947 0.3584 0.0
H465 H 0.21091 0.72937 0.36367 0.0
H466 H 0.17737 0.74613 0.30803 0.0
H467 H 0.17353 0.74203 0.34023 0.0
H468 H 0.18831 0.76651 0.32647 0.0
H469 H 0.32046 0.74477 0.20901 0.0
H470 H 0.34644 0.8095 0.22061 0.0
H471 H 0.31564 0.80916 0.25657 0.0
H472 H 0.25547 0.74989 0.22073 0.0
H473 H 0.26896 0.72406 0.21844 0.0
H474 H 0.2401 0.72926 0.23954 0.0
H475 H 0.32156 0.72831 0.26512 0.0
H476 H 0.29144 0.71145 0.2716 0.0
H477 H 0.30744 0.71319 0.24141 0.0
H478 H 0.21965 0.67097 0.27296 0.0
C479 C 0.23568 0.7024 0.27795 0.0
C480 C 0.0612 0.5428 0.35256 0.0
C481 C 0.06945 0.55004 0.37458 0.0
C482 C 0.05361 0.5386 0.39205 0.0
C483 C 0.03653 0.52518 0.37978 0.0
N484 N 0.04076 0.5271 0.35551 0.0
Co485 Co 0.01868 0.51193 0.33086 0.0
N486 N 0.99451 0.49573 0.35661 0.0
C487 C 0.99638 0.49695 0.38077 0.0
C488 C 0.97871 0.48273 0.39395 0.0
C489 C 0.96505 0.47143 0.37725 0.0
C490 C 0.97504 0.47958 0.3547 0.0
N491 N 0.99614 0.49724 0.3062 0.0
C492 C 0.97566 0.48162 0.30911 0.0
C493 C 0.96522 0.47599 0.28716 0.0
C494 C 0.98024 0.48806 0.26971 0.0
C495 C 0.99874 0.50044 0.28193 0.0
N496 N 0.04338 0.52757 0.30508 0.0
C497 C 0.04244 0.52556 0.28093 0.0
C498 C 0.0622 0.53823 0.26777 0.0
C499 C 0.07641 0.54918 0.28447 0.0
C500 C 0.06428 0.54264 0.30694 0.0
N501 N 0.0456 0.48875 0.3311 0.0
C502 C 0.0802 0.45366 0.33154 0.0
C503 C 0.07053 0.46206 0.30994 0.0
C504 C 0.05351 0.47946 0.31012 0.0
C505 C 0.07299 0.46357 0.35286 0.0
C506 C 0.05581 0.48097 0.35224 0.0
N507 N 0.9917 0.53514 0.33059 0.0
C508 C 0.96871 0.56282 0.3088 0.0
C509 C 0.95618 0.56972 0.33016 0.0
C510 C 0.96116 0.55871 0.35172 0.0
C511 C 0.97892 0.54165 0.35154 0.0
C512 C 0.98605 0.5456 0.30941 0.0
H513 H 0.98226 0.53417 0.36862 0.0
H514 H 0.99481 0.54123 0.29245 0.0
H515 H 0.04672 0.48492 0.29306 0.0
H516 H 0.0507 0.48764 0.36912 0.0
C517 C 0.01595 0.51094 0.39051 0.0
C518 C 0.07243 0.55198 0.32935 0.0
C519 C 0.96663 0.47079 0.33203 0.0
C520 C 0.02095 0.51325 0.27111 0.0
H521 H 0.08489 0.56259 0.37774 0.0
H522 H 0.05406 0.54018 0.41138 0.0
H523 H 0.97669 0.48039 0.41339 0.0
H524 H 0.95003 0.4583 0.38132 0.0
H525 H 0.94905 0.46393 0.28407 0.0
H526 H 0.9787 0.48725 0.25036 0.0
H527 H 0.06525 0.53984 0.24833 0.0
H528 H 0.09331 0.56105 0.28053 0.0
H529 H 0.07606 0.45526 0.29286 0.0
H530 H 0.0799 0.45763 0.37008 0.0
H531 H 0.96503 0.57059 0.29158 0.0
H532 H 0.95193 0.56353 0.36876 0.0
C533 C 0.05997 0.55117 0.72276 0.0
C534 C 0.0707 0.55716 0.74447 0.0
C535 C 0.05551 0.54566 0.76232 0.0
C536 C 0.03664 0.53323 0.75054 0.0
N537 N 0.03913 0.53585 0.7262 0.0
Co538 Co 0.0161 0.52082 0.70209 0.0
N539 N 0.9917 0.50564 0.7284 0.0
C540 C 0.99286 0.50813 0.75245 0.0
C541 C 0.97344 0.4955 0.76603 0.0
C542 C 0.95926 0.48405 0.74973 0.0
C543 C 0.97106 0.49029 0.72706 0.0
N544 N 0.99353 0.50531 0.67802 0.0
C545 C 0.97329 0.48951 0.6815 0.0
C546 C 0.96455 0.48201 0.65975 0.0
C547 C 0.9799 0.49335 0.64189 0.0
C548 C 0.99719 0.50697 0.65369 0.0
N549 N 0.04006 0.53647 0.6758 0.0
C550 C 0.03772 0.53491 0.65173 0.0
C551 C 0.05549 0.54874 0.63808 0.0
C552 C 0.06976 0.5601 0.65438 0.0
C553 C 0.06 0.55239 0.67716 0.0
N554 N 0.04286 0.4975 0.7026 0.0
C555 C 0.07723 0.46226 0.70366 0.0
C556 C 0.07166 0.47259 0.6818 0.0
C557 C 0.05452 0.49004 0.68168 0.0
C558 C 0.06608 0.47031 0.72495 0.0
C559 C 0.04923 0.48777 0.72402 0.0
N560 N 0.98931 0.54413 0.70165 0.0
C561 C 0.96098 0.56864 0.67978 0.0
C562 C 0.95443 0.57907 0.70088 0.0
C563 C 0.96497 0.57136 0.72242 0.0
C564 C 0.98204 0.55398 0.72243 0.0
C565 C 0.9784 0.55138 0.68055 0.0
H566 H 0.98932 0.54898 0.73947 0.0
H567 H 0.98308 0.54436 0.6638 0.0
H568 H 0.05066 0.49704 0.66445 0.0
H569 H 0.04135 0.49293 0.74092 0.0
C570 C 0.01445 0.52067 0.76181 0.0
C571 C 0.06913 0.56137 0.69952 0.0
C572 C 0.96286 0.48043 0.70497 0.0
C573 C 0.01774 0.52097 0.64249 0.0
H574 H 0.08721 0.56908 0.74715 0.0
H575 H 0.05728 0.54683 0.7816 0.0
H576 H 0.97068 0.49419 0.78551 0.0
H577 H 0.94265 0.47204 0.75407 0.0
H578 H 0.94917 0.46931 0.657 0.0
H579 H 0.97909 0.4915 0.62263 0.0
H580 H 0.05723 0.55076 0.6186 0.0
H581 H 0.08505 0.57298 0.64987 0.0
H582 H 0.07986 0.46695 0.66481 0.0
H583 H 0.07035 0.46319 0.74239 0.0
H584 H 0.95334 0.57408 0.66262 0.0
H585 H 0.96003 0.57867 0.73932 0.0
C586 C 0.26785 0.98173 0.54897 0.0
C587 C 0.29416 0.97493 0.5554 0.0
C588 C 0.31412 0.98666 0.54162 0.0
C589 C 0.299 0.99979 0.52747 0.0
N590 N 0.27052 0.99735 0.53152 0.0
Co591 Co 0.24067 0.01217 0.51355 0.0
N592 N 0.27016 0.02864 0.49246 0.0
C593 C 0.29868 0.02744 0.493 0.0
C594 C 0.31351 0.04089 0.47663 0.0
C595 C 0.29331 0.05164 0.46518 0.0
C596 C 0.2672 0.04417 0.47541 0.0
N597 N 0.21082 0.02682 0.49537 0.0
C598 C 0.21349 0.04259 0.47809 0.0
C599 C 0.18718 0.04891 0.4711 0.0
C600 C 0.16722 0.03675 0.4844 0.0
C601 C 0.18234 0.02382 0.49881 0.0
N602 N 0.21119 0.99592 0.53488 0.0
C603 C 0.18269 0.99737 0.53454 0.0
C604 C 0.16786 0.98428 0.5513 0.0
C605 C 0.18804 0.97362 0.5629 0.0
C606 C 0.21413 0.98077 0.55237 0.0
N607 N 0.24142 0.0352 0.53678 0.0
C608 C 0.24279 0.06998 0.56691 0.0
C609 C 0.21703 0.06091 0.56005 0.0
C610 C 0.21684 0.04366 0.5452 0.0
C611 C 0.26782 0.06092 0.55895 0.0
C612 C 0.26665 0.04369 0.54408 0.0
N613 N 0.23992 0.98913 0.49029 0.0
C614 C 0.21402 0.96203 0.46968 0.0
C615 C 0.23926 0.95442 0.46 0.0
C616 C 0.26475 0.96492 0.46519 0.0
C617 C 0.26459 0.98206 0.48017 0.0
C618 C 0.21483 0.97927 0.48457 0.0
H619 H 0.28476 0.98915 0.48347 0.0
H620 H 0.19489 0.98412 0.49154 0.0
H621 H 0.19653 0.03767 0.54046 0.0
H622 H 0.28648 0.03767 0.53851 0.0
C623 C 0.31093 0.0139 0.50953 0.0
C624 C 0.24097 0.97226 0.55922 0.0
C625 C 0.24034 0.05281 0.46882 0.0
C626 C 0.17045 0.01026 0.51732 0.0
H627 H 0.29859 0.96246 0.56831 0.0
H628 H 0.33692 0.98539 0.54148 0.0
H629 H 0.33631 0.04289 0.47365 0.0
H630 H 0.29737 0.06384 0.45114 0.0
H631 H 0.18274 0.06144 0.45826 0.0
H632 H 0.14439 0.0378 0.48429 0.0
H633 H 0.14506 0.98238 0.55436 0.0
H634 H 0.18398 0.96168 0.57724 0.0
H635 H 0.19703 0.06739 0.56558 0.0
H636 H 0.28832 0.06705 0.56416 0.0
H637 H 0.19369 0.95442 0.4663 0.0
H638 H 0.28487 0.95998 0.45771 0.0
C639 C 0.47333 0.79611 0.04719 0.0
C640 C 0.46503 0.81601 0.05315 0.0
C641 C 0.48062 0.83013 0.03826 0.0
C642 C 0.49757 0.81814 0.02415 0.0
N643 N 0.49362 0.79717 0.02899 0.0
Co644 Co 0.51452 0.77414 0.01322 0.0
N645 N 0.53952 0.79509 0.99308 0.0
C646 C 0.53927 0.81635 0.99354 0.0
C647 C 0.55825 0.82661 0.97724 0.0
C648 C 0.5713 0.81101 0.96547 0.0
C649 C 0.55955 0.79202 0.9754 0.0
N650 N 0.53494 0.75109 0.99706 0.0
C651 C 0.55511 0.75218 0.97879 0.0
C652 C 0.56311 0.73229 0.97248 0.0
C653 C 0.54698 0.71811 0.98688 0.0
C654 C 0.53022 0.73008 1.00117 0.0
N655 N 0.49003 0.75319 0.03378 0.0
C656 C 0.49072 0.73192 0.0338 0.0
C657 C 0.47188 0.7217 0.05026 0.0
C658 C 0.45863 0.73736 0.06178 0.0
C659 C 0.47032 0.7563 0.05168 0.0
N660 N 0.48651 0.77356 0.98747 0.0
C661 C 0.44901 0.77225 0.94914 0.0
C662 C 0.45371 0.75418 0.96337 0.0
C663 C 0.47254 0.75514 0.98202 0.0
C664 C 0.46304 0.7911 0.95494 0.0
C665 C 0.48118 0.79145 0.97415 0.0
N666 N 0.54245 0.77469 0.03895 0.0
C667 C 0.56889 0.75645 0.06905 0.0
C668 C 0.57905 0.77553 0.07783 0.0
C669 C 0.57112 0.79417 0.0663 0.0
C670 C 0.55294 0.7934 0.04714 0.0
C671 C 0.55096 0.7564 0.0497 0.0
H672 H 0.54744 0.80817 0.03943 0.0
H673 H 0.54392 0.74134 0.044 0.0
H674 H 0.47555 0.74067 0.99164 0.0
H675 H 0.4909 0.80636 0.97764 0.0
C676 C 0.51914 0.82618 0.00789 0.0
C677 C 0.46245 0.77678 0.06013 0.0
C678 C 0.56688 0.77155 0.96648 0.0
C679 C 0.50958 0.72204 0.0183 0.0
H680 H 0.44984 0.82001 0.06724 0.0
H681 H 0.48037 0.84715 0.0383 0.0
H682 H 0.56145 0.84344 0.97371 0.0
H683 H 0.58708 0.81344 0.95076 0.0
H684 H 0.57876 0.72843 0.95868 0.0
H685 H 0.54718 0.7011 0.98673 0.0
H686 H 0.46845 0.70489 0.05368 0.0
H687 H 0.44243 0.73509 0.0762 0.0
H688 H 0.44293 0.73922 0.96026 0.0
H689 H 0.46059 0.80559 0.94448 0.0
H690 H 0.57412 0.74152 0.0774 0.0
H691 H 0.57887 0.8094 0.07196 0.0
C692 C 0.81838 0.98856 0.55623 0.0
C693 C 0.84434 0.98156 0.56327 0.0
C694 C 0.86485 0.99358 0.55043 0.0
C695 C 0.85038 0.00705 0.53616 0.0
N696 N 0.8218 0.00459 0.53929 0.0
Co697 Co 0.7928 0.0197 0.52058 0.0
N698 N 0.8231 0.03607 0.50018 0.0
C699 C 0.85152 0.03491 0.50174 0.0
C700 C 0.86703 0.04888 0.48643 0.0
C701 C 0.84741 0.05984 0.4745 0.0
C702 C 0.82088 0.05177 0.48314 0.0
N703 N 0.76377 0.03459 0.50176 0.0
C704 C 0.76717 0.04998 0.4841 0.0
C705 C 0.74127 0.05575 0.47561 0.0
C706 C 0.72075 0.04404 0.4888 0.0
C707 C 0.7352 0.0317 0.50439 0.0
N708 N 0.7625 0.00353 0.54109 0.0
C709 C 0.73408 0.00527 0.54018 0.0
C710 C 0.7186 0.99227 0.55662 0.0
C711 C 0.73825 0.98131 0.56853 0.0
C712 C 0.76469 0.98815 0.55845 0.0
N713 N 0.79293 0.04264 0.54398 0.0
C714 C 0.79328 0.07712 0.57454 0.0
C715 C 0.76779 0.06798 0.56725 0.0
C716 C 0.7681 0.05094 0.5521 0.0
C717 C 0.81856 0.06836 0.56675 0.0
C718 C 0.8179 0.05121 0.55174 0.0
N719 N 0.79267 0.99679 0.49718 0.0
C720 C 0.76713 0.97054 0.47507 0.0
C721 C 0.79252 0.96258 0.46624 0.0
C722 C 0.81798 0.97234 0.47275 0.0
C723 C 0.81757 0.98933 0.48798 0.0
C724 C 0.76769 0.98747 0.49039 0.0
H725 H 0.83768 0.99603 0.49222 0.0
H726 H 0.74762 0.99253 0.49679 0.0
H727 H 0.74797 0.04498 0.54692 0.0
H728 H 0.8379 0.04532 0.54647 0.0
C729 C 0.86299 0.02126 0.51863 0.0
C730 C 0.79109 0.97887 0.56527 0.0
C731 C 0.79426 0.06013 0.4754 0.0
C732 C 0.72252 0.01823 0.52264 0.0
H733 H 0.84822 0.96875 0.57592 0.0
H734 H 0.8876 0.99218 0.55087 0.0
H735 H 0.8899 0.05122 0.48463 0.0
H736 H 0.85219 0.07265 0.46134 0.0
H737 H 0.73755 0.06751 0.46162 0.0
H738 H 0.69799 0.04478 0.48757 0.0
H739 H 0.69574 0.99058 0.55921 0.0
H740 H 0.73358 0.9693 0.58269 0.0
H741 H 0.74762 0.07428 0.57267 0.0
H742 H 0.83885 0.07466 0.57226 0.0
H743 H 0.74684 0.96342 0.47068 0.0
H744 H 0.83821 0.96695 0.46605 0.0
C745 C 0.47683 0.277 0.05423 0.0
C746 C 0.46684 0.29639 0.06041 0.0
C747 C 0.48212 0.31128 0.04631 0.0
C748 C 0.50038 0.30019 0.03233 0.0
N749 N 0.49751 0.27906 0.03643 0.0
Co750 Co 0.51999 0.25704 0.02028 0.0
N751 N 0.54427 0.27907 1.0011 0.0
C752 C 0.54283 0.30024 0.00223 0.0
C753 C 0.56123 0.31136 0.98618 0.0
C754 C 0.57513 0.29647 0.97389 0.0
C755 C 0.56453 0.27697 0.98331 0.0
N756 N 0.54209 0.23501 0.00379 0.0
C757 C 0.5627 0.23707 0.9859 0.0
C758 C 0.57234 0.21763 0.9795 0.0
C759 C 0.55672 0.20273 0.99331 0.0
C760 C 0.53866 0.21386 0.00742 0.0
N761 N 0.49606 0.23503 0.03978 0.0
C762 C 0.49804 0.21388 0.03929 0.0
C763 C 0.47967 0.20282 0.05545 0.0
C764 C 0.46531 0.21779 0.06726 0.0
C765 C 0.47575 0.23719 0.05749 0.0
N766 N 0.4927 0.25626 0.99402 0.0
C767 C 0.4568 0.25512 0.95478 0.0
C768 C 0.46325 0.23661 0.96735 0.0
C769 C 0.48117 0.23753 0.98672 0.0
C770 C 0.46805 0.27422 0.96255 0.0
C771 C 0.48562 0.27444 0.9821 0.0
N772 N 0.54729 0.25783 0.04653 0.0
C773 C 0.57579 0.23991 0.07541 0.0
C774 C 0.58368 0.25896 0.08544 0.0
C775 C 0.57351 0.27747 0.07537 0.0
C776 C 0.55569 0.27657 0.056 0.0
C777 C 0.55762 0.23969 0.0562 0.0
H778 H 0.54884 0.29125 0.04914 0.0
H779 H 0.55201 0.22462 0.04971 0.0
H780 H 0.48569 0.22285 0.99527 0.0
H781 H 0.49342 0.28952 0.98705 0.0
C782 C 0.52194 0.30918 0.01666 0.0
C783 C 0.46668 0.2572 0.06642 0.0
C784 C 0.5732 0.25694 0.97392 0.0
C785 C 0.51803 0.2049 0.024 0.0
H786 H 0.45059 0.29945 0.07406 0.0
H787 H 0.48068 0.32821 0.04671 0.0
H788 H 0.5634 0.32828 0.98307 0.0
H789 H 0.59065 0.29975 0.95914 0.0
H790 H 0.58873 0.21451 0.966 0.0
H791 H 0.55813 0.1858 0.99291 0.0
H792 H 0.47744 0.18591 0.05865 0.0
H793 H 0.44938 0.21476 0.08177 0.0
H794 H 0.45511 0.22141 0.96192 0.0
H795 H 0.46323 0.28902 0.95363 0.0
H796 H 0.58305 0.22514 0.08271 0.0
H797 H 0.57945 0.29266 0.0823 0.0
H798 H 0.17467 0.34657 0.28814 0.0
H799 H 0.18301 0.34579 0.36537 0.0
H800 H 0.14661 0.37767 0.29051 0.0
H801 H 0.15389 0.37657 0.36787 0.0
H802 H 0.12686 0.44551 0.35763 0.0
H803 H 0.15531 0.41431 0.35674 0.0
H804 H 0.10005 0.38721 0.30509 0.0
H805 H 0.07177 0.41829 0.30594 0.0
C806 C 0.17058 0.35307 0.30564 0.0
C807 C 0.18119 0.3437 0.32655 0.0
C808 C 0.15417 0.37077 0.30704 0.0
C809 C 0.14786 0.37958 0.3294 0.0
C810 C 0.15853 0.37028 0.35034 0.0
C811 C 0.17496 0.35251 0.34894 0.0
C812 C 0.12067 0.4328 0.34625 0.0
C813 C 0.09719 0.43448 0.33169 0.0
C814 C 0.13696 0.41491 0.34576 0.0
C815 C 0.1301 0.39832 0.3307 0.0
C816 C 0.1063 0.39988 0.3165 0.0
C817 C 0.09008 0.41772 0.31698 0.0
H818 H 0.15311 0.67767 0.73969 0.0
H819 H 0.17921 0.67366 0.6645 0.0
H820 H 0.12466 0.64477 0.7379 0.0
H821 H 0.15071 0.6406 0.66272 0.0
H822 H 0.12382 0.56946 0.68208 0.0
H823 H 0.1518 0.60295 0.68204 0.0
H824 H 0.08056 0.63207 0.71661 0.0
H825 H 0.05255 0.59871 0.71615 0.0
C826 C 0.15279 0.6697 0.7228 0.0
C827 C 0.16839 0.67818 0.70224 0.0
C828 C 0.13636 0.65097 0.72174 0.0
C829 C 0.13548 0.64015 0.70017 0.0
C830 C 0.15115 0.64857 0.6796 0.0
C831 C 0.16727 0.66752 0.68057 0.0
C832 C 0.11417 0.58315 0.68938 0.0
C833 C 0.08607 0.5817 0.69891 0.0
C834 C 0.13009 0.60225 0.68934 0.0
C835 C 0.11831 0.62009 0.6993 0.0
C836 C 0.09021 0.61854 0.70896 0.0
C837 C 0.07419 0.59954 0.70865 0.0
H838 H 0.81597 0.6516 0.31392 0.0
H839 H 0.88758 0.69512 0.32137 0.0
H840 H 0.8464 0.622 0.32044 0.0
H841 H 0.91793 0.66551 0.3283 0.0
H842 H 0.96719 0.60735 0.30544 0.0
H843 H 0.93698 0.63746 0.30304 0.0
H844 H 0.87464 0.60457 0.35185 0.0
H845 H 0.90478 0.57424 0.35396 0.0
C846 C 0.83819 0.65483 0.31706 0.0
C847 C 0.84942 0.67569 0.31699 0.0
C848 C 0.85555 0.63789 0.32103 0.0
C849 C 0.88459 0.64142 0.32482 0.0
C850 C 0.8957 0.66229 0.32522 0.0
C851 C 0.87827 0.67924 0.32145 0.0
C852 C 0.94702 0.60654 0.31564 0.0
C853 C 0.93827 0.58838 0.32977 0.0
C854 C 0.92985 0.62387 0.31446 0.0
C855 C 0.90342 0.62339 0.32725 0.0
C856 C 0.89481 0.60534 0.34165 0.0
C857 C 0.91214 0.58805 0.34301 0.0
H858 H 0.89414 0.3502 0.71238 0.0
H859 H 0.82459 0.38797 0.73497 0.0
H860 H 0.92396 0.38222 0.70375 0.0
H861 H 0.85464 0.41979 0.72744 0.0
H862 H 0.90788 0.4748 0.69265 0.0
H863 H 0.87798 0.44226 0.6963 0.0
H864 H 0.94767 0.40931 0.72575 0.0
H865 H 0.97758 0.44179 0.72127 0.0
C866 C 0.88515 0.36532 0.71536 0.0
C867 C 0.85702 0.36649 0.72453 0.0
C868 C 0.90234 0.38367 0.71069 0.0
C869 C 0.89178 0.40361 0.71503 0.0
C870 C 0.86345 0.40476 0.72366 0.0
C871 C 0.84629 0.38646 0.72829 0.0
C872 C 0.9167 0.46048 0.69967 0.0
C873 C 0.9449 0.4606 0.70658 0.0
C874 C 0.89962 0.44191 0.70194 0.0
C875 C 0.91038 0.42313 0.71136 0.0
C876 C 0.93879 0.42336 0.71809 0.0
C877 C 0.95587 0.44192 0.71572 0.0
H878 H 0.24859 0.18159 0.40614 0.0
H879 H 0.26405 0.14137 0.34637 0.0
H880 H 0.23994 0.15061 0.43307 0.0
H881 H 0.25758 0.11056 0.37352 0.0
H882 H 0.2221 0.05711 0.423 0.0
H883 H 0.22453 0.08887 0.39657 0.0
H884 H 0.26405 0.12367 0.45253 0.0
H885 H 0.25995 0.09208 0.4792 0.0
C886 C 0.2501 0.16617 0.39868 0.0
C887 C 0.25718 0.16409 0.37401 0.0
C888 C 0.24554 0.14835 0.41424 0.0
C889 C 0.24817 0.12797 0.4056 0.0
C890 C 0.25496 0.12592 0.38088 0.0
C891 C 0.25919 0.14369 0.3653 0.0
C892 C 0.23086 0.0717 0.42964 0.0
C893 C 0.24064 0.07232 0.45308 0.0
C894 C 0.23258 0.08985 0.41447 0.0
C895 C 0.24464 0.10893 0.42228 0.0
C896 C 0.25421 0.10945 0.44594 0.0
C897 C 0.2521 0.09135 0.46119 0.0
H898 H 0.37006 0.7445 0.8138 0.0
H899 H 0.31352 0.78704 0.84779 0.0
H900 H 0.40189 0.74756 0.84698 0.0
H901 H 0.34408 0.78911 0.88202 0.0
H902 H 0.41531 0.80308 0.93128 0.0
H903 H 0.38606 0.80189 0.89657 0.0
H904 H 0.40794 0.73738 0.88637 0.0
H905 H 0.4395 0.73933 0.91934 0.0
C906 C 0.36442 0.75436 0.82861 0.0
C907 C 0.3395 0.76554 0.82839 0.0
C908 C 0.38247 0.756 0.84779 0.0
C909 C 0.37562 0.76846 0.86751 0.0
C910 C 0.3505 0.77966 0.86709 0.0
C911 C 0.33281 0.77839 0.8476 0.0
C912 C 0.41442 0.78876 0.92137 0.0
C913 C 0.43003 0.77133 0.92832 0.0
C914 C 0.3971 0.78793 0.9016 0.0
C915 C 0.39439 0.76951 0.88846 0.0
C916 C 0.40974 0.75202 0.8956 0.0
C917 C 0.42752 0.753 0.91501 0.0
H918 H 0.74367 0.8555 0.38166 0.0
H919 H 0.83514 0.8548 0.38091 0.0
H920 H 0.74489 0.88673 0.40577 0.0
H921 H 0.83649 0.88624 0.40471 0.0
H922 H 0.82613 0.92869 0.46897 0.0
H923 H 0.82526 0.89775 0.4444 0.0
H924 H 0.75799 0.92359 0.40377 0.0
H925 H 0.75862 0.95437 0.42865 0.0
C926 C 0.76407 0.86216 0.38645 0.0
C927 C 0.7893 0.85265 0.3794 0.0
C928 C 0.76479 0.88011 0.40024 0.0
C929 C 0.7908 0.88907 0.40722 0.0
C930 C 0.81605 0.87959 0.40004 0.0
C931 C 0.8153 0.86157 0.38636 0.0
C932 C 0.81134 0.92784 0.45464 0.0
C933 C 0.79244 0.94399 0.45077 0.0
C934 C 0.81085 0.9101 0.44052 0.0
C935 C 0.79154 0.90811 0.42207 0.0
C936 C 0.77281 0.92439 0.41808 0.0
C937 C 0.7732 0.94207 0.4323 0.0
H938 H 0.67498 0.29004 0.84342 0.0
H939 H 0.67733 0.22203 0.84986 0.0
H940 H 0.64589 0.28975 0.88089 0.0
H941 H 0.64651 0.22199 0.88643 0.0
H942 H 0.55961 0.24087 0.93101 0.0
H943 H 0.58996 0.23991 0.89391 0.0
H944 H 0.65815 0.27177 0.92917 0.0
H945 H 0.62826 0.27183 0.96662 0.0
C946 C 0.66952 0.27503 0.85274 0.0
C947 C 0.67886 0.25605 0.84348 0.0
C948 C 0.65264 0.27494 0.8741 0.0
C949 C 0.64412 0.25587 0.88636 0.0
C950 C 0.6528 0.23687 0.8771 0.0
C951 C 0.67025 0.23695 0.85602 0.0
C952 C 0.58115 0.24752 0.93079 0.0
C953 C 0.59162 0.25661 0.95146 0.0
C954 C 0.59841 0.24697 0.90969 0.0
C955 C 0.62619 0.25586 0.90884 0.0
C956 C 0.63669 0.26495 0.92948 0.0
C957 C 0.61966 0.26504 0.95076 0.0
H958 H 0.29336 0.87494 0.6581 0.0
H959 H 0.20597 0.8559 0.64717 0.0
H960 H 0.28913 0.90577 0.63134 0.0
H961 H 0.20219 0.88653 0.61967 0.0
H962 H 0.22179 0.93218 0.5515 0.0
H963 H 0.22339 0.90092 0.57875 0.0
H964 H 0.26185 0.93923 0.63209 0.0
H965 H 0.25984 0.97042 0.6049 0.0
C966 C 0.27317 0.87735 0.65016 0.0
C967 C 0.24992 0.86295 0.65508 0.0
C968 C 0.27081 0.89502 0.63474 0.0
C969 C 0.24528 0.89864 0.62356 0.0
C970 C 0.22219 0.88406 0.62795 0.0
C971 C 0.22443 0.86647 0.64363 0.0
C972 C 0.23035 0.93382 0.56915 0.0
C973 C 0.24092 0.95352 0.57615 0.0
C974 C 0.23121 0.91603 0.58473 0.0
C975 C 0.24292 0.91763 0.60746 0.0
C976 C 0.25305 0.93748 0.61455 0.0
C977 C 0.25185 0.95529 0.5991 0.0
H978 H 0.67013 0.74418 0.2064 0.0
H979 H 0.68876 0.81093 0.19302 0.0
H980 H 0.64203 0.74355 0.1706 0.0
H981 H 0.65994 0.8103 0.1577 0.0
H982 H 0.57878 0.80354 0.11422 0.0
H983 H 0.60827 0.8042 0.14909 0.0
H984 H 0.64944 0.74888 0.12524 0.0
H985 H 0.62059 0.74849 0.08987 0.0
C986 C 0.66845 0.75869 0.19579 0.0
C987 C 0.68175 0.77762 0.20271 0.0
C988 C 0.65226 0.75832 0.1753 0.0
C989 C 0.64874 0.77688 0.1614 0.0
C990 C 0.66197 0.7958 0.16827 0.0
C991 C 0.67839 0.79614 0.18859 0.0
C992 C 0.59441 0.79169 0.11611 0.0
C993 C 0.59728 0.77599 0.09908 0.0
C994 C 0.61123 0.79204 0.13619 0.0
C995 C 0.63113 0.77659 0.1399 0.0
C996 C 0.63402 0.76085 0.123 0.0
C997 C 0.6174 0.76061 0.10276 0.0
H998 H 0.83701 0.18771 0.65633 0.0
H999 H 0.74535 0.18317 0.65966 0.0
H1000 H 0.8381 0.15622 0.63265 0.0
H1001 H 0.74636 0.15185 0.63573 0.0
H1002 H 0.75822 0.08436 0.61376 0.0
H1003 H 0.75787 0.1155 0.63804 0.0
H1004 H 0.82813 0.14369 0.59359 0.0
H1005 H 0.82868 0.11242 0.56957 0.0
C1006 C 0.81708 0.18011 0.65178 0.0
C1007 C 0.7911 0.18795 0.65989 0.0
C1008 C 0.81769 0.16205 0.63818 0.0
C1009 C 0.79232 0.15142 0.63228 0.0
C1010 C 0.76633 0.15937 0.6403 0.0
C1011 C 0.76573 0.17737 0.65398 0.0
C1012 C 0.77352 0.09725 0.60913 0.0
C1013 C 0.79348 0.0959 0.58973 0.0
C1014 C 0.77329 0.11514 0.62302 0.0
C1015 C 0.79292 0.13219 0.61777 0.0
C1016 C 0.81298 0.13076 0.59842 0.0
C1017 C 0.81329 0.11282 0.58462 0.0
H1018 H 0.32922 0.27863 0.17023 0.0
H1019 H 0.39182 0.24941 0.21326 0.0
H1020 H 0.36012 0.27606 0.13415 0.0
H1021 H 0.4224 0.24624 0.177 0.0
H1022 H 0.48194 0.26733 0.11119 0.0
H1023 H 0.45116 0.26909 0.14777 0.0
H1024 H 0.37881 0.24951 0.10771 0.0
H1025 H 0.40978 0.24813 0.07116 0.0
C1026 C 0.34961 0.27169 0.17199 0.0
C1027 C 0.35811 0.26431 0.19464 0.0
C1028 C 0.36718 0.26999 0.15127 0.0
C1029 C 0.39371 0.26091 0.15269 0.0
C1030 C 0.4022 0.25348 0.17533 0.0
C1031 C 0.38457 0.25511 0.19606 0.0
C1032 C 0.45945 0.26335 0.1104 0.0
C1033 C 0.44804 0.25755 0.08862 0.0
C1034 C 0.44187 0.26424 0.13127 0.0
C1035 C 0.41253 0.25943 0.13065 0.0
C1036 C 0.40125 0.25353 0.10872 0.0
C1037 C 0.41888 0.25261 0.08788 0.0
H1038 H 0.89377 0.70662 0.69855 0.0
H1039 H 0.81785 0.66639 0.71004 0.0
H1040 H 0.92226 0.67559 0.69563 0.0
H1041 H 0.84643 0.63532 0.7075 0.0
H1042 H 0.90531 0.5853 0.67756 0.0
H1043 H 0.87675 0.61654 0.67771 0.0
H1044 H 0.93601 0.64684 0.72382 0.0
H1045 H 0.96468 0.61583 0.72338 0.0
C1046 C 0.88315 0.69115 0.70026 0.0
C1047 C 0.85356 0.68896 0.70454 0.0
C1048 C 0.89949 0.67338 0.69881 0.0
C1049 C 0.8866 0.65301 0.7014 0.0
C1050 C 0.85695 0.6508 0.70525 0.0
C1051 C 0.84063 0.66858 0.70692 0.0
C1052 C 0.91231 0.59871 0.68755 0.0
C1053 C 0.93719 0.59809 0.70052 0.0
C1054 C 0.89585 0.61651 0.68781 0.0
C1055 C 0.90414 0.63415 0.70078 0.0
C1056 C 0.9292 0.63359 0.71348 0.0
C1057 C 0.94546 0.61575 0.71342 0.0
H1058 H 0.88763 0.35305 0.28967 0.0
H1059 H 0.86029 0.3565 0.36466 0.0
H1060 H 0.91494 0.38646 0.29182 0.0
H1061 H 0.88763 0.38999 0.36681 0.0
H1062 H 0.91196 0.46139 0.34871 0.0
H1063 H 0.88529 0.42742 0.3479 0.0
H1064 H 0.95815 0.4003 0.31334 0.0
H1065 H 0.98484 0.43417 0.31464 0.0
C1066 C 0.88747 0.36098 0.3066 0.0
C1067 C 0.87185 0.3522 0.327 0.0
C1068 C 0.90323 0.38001 0.30787 0.0
C1069 C 0.90339 0.39081 0.32948 0.0
C1070 C 0.88774 0.38205 0.34989 0.0
C1071 C 0.8723 0.36284 0.34871 0.0
C1072 C 0.92224 0.44804 0.34122 0.0
C1073 C 0.95044 0.45019 0.33198 0.0
C1074 C 0.90707 0.42866 0.34076 0.0
C1075 C 0.91969 0.41122 0.33061 0.0
C1076 C 0.94785 0.4135 0.32116 0.0
C1077 C 0.96312 0.43278 0.32194 0.0
H1078 H 0.17089 0.3589 0.7583 0.0
H1079 H 0.18925 0.35701 0.68146 0.0
H1080 H 0.14068 0.38837 0.75167 0.0
H1081 H 0.15802 0.3862 0.67472 0.0
H1082 H 0.12646 0.45481 0.67765 0.0
H1083 H 0.15579 0.42416 0.68145 0.0
H1084 H 0.09541 0.39579 0.73532 0.0
H1085 H 0.06633 0.42632 0.73161 0.0
C1086 C 0.1685 0.3648 0.73996 0.0
C1087 C 0.18264 0.35566 0.72042 0.0
C1088 C 0.15086 0.38155 0.73613 0.0
C1089 C 0.1468 0.38961 0.71265 0.0
C1090 C 0.16085 0.38046 0.69304 0.0
C1091 C 0.17851 0.36361 0.69689 0.0
C1092 C 0.11933 0.4419 0.69008 0.0
C1093 C 0.09426 0.44312 0.70456 0.0
C1094 C 0.13611 0.42433 0.69224 0.0
C1095 C 0.12812 0.40762 0.7089 0.0
C1096 C 0.10254 0.40858 0.72273 0.0
C1097 C 0.08585 0.42609 0.7206 0.0
H1098 H 0.214 0.6423 0.3022 0.0
H1099 H 0.14468 0.68113 0.32257 0.0
H1100 H 0.18303 0.61088 0.30939 0.0
H1101 H 0.11402 0.64959 0.33097 0.0
H1102 H 0.05934 0.59097 0.31295 0.0
H1103 H 0.09031 0.6229 0.30892 0.0
H1104 H 0.15805 0.58868 0.3398 0.0
H1105 H 0.12709 0.55665 0.34293 0.0
C1106 C 0.19217 0.64414 0.30834 0.0
C1107 C 0.1818 0.6643 0.31158 0.0
C1108 C 0.17448 0.62607 0.31279 0.0
C1109 C 0.14595 0.62765 0.3207 0.0
C1110 C 0.13576 0.64778 0.32456 0.0
C1111 C 0.15346 0.66588 0.32004 0.0
C1112 C 0.08085 0.59044 0.31893 0.0
C1113 C 0.09096 0.57154 0.32829 0.0
C1114 C 0.09853 0.6087 0.31681 0.0
C1115 C 0.12672 0.60842 0.32407 0.0
C1116 C 0.13661 0.58943 0.33375 0.0
C1117 C 0.11892 0.57115 0.33574 0.0
H1118 H 0.81839 0.87091 0.66297 0.0
H1119 H 0.72904 0.86773 0.64935 0.0
H1120 H 0.82511 0.90226 0.63569 0.0
H1121 H 0.73582 0.8988 0.62183 0.0
H1122 H 0.76881 0.9404 0.55452 0.0
H1123 H 0.76409 0.90824 0.58059 0.0
H1124 H 0.80598 0.94086 0.63674 0.0
H1125 H 0.80985 0.9732 0.61088 0.0
C1126 C 0.80028 0.87683 0.65397 0.0
C1127 C 0.77319 0.86698 0.65826 0.0
C1128 C 0.80409 0.89478 0.63851 0.0
C1129 C 0.78097 0.9029 0.62669 0.0
C1130 C 0.75401 0.89278 0.63062 0.0
C1131 C 0.7501 0.87511 0.64643 0.0
C1132 C 0.77704 0.94059 0.57242 0.0
C1133 C 0.78985 0.95912 0.58072 0.0
C1134 C 0.77431 0.92228 0.5873 0.0
C1135 C 0.78475 0.9221 0.61061 0.0
C1136 C 0.79803 0.94055 0.61875 0.0
C1137 C 0.80025 0.95898 0.60402 0.0
H1138 H 0.68248 0.29912 0.20487 0.0
H1139 H 0.7001 0.23324 0.2 0.0
H1140 H 0.65151 0.29645 0.17126 0.0
H1141 H 0.66761 0.23024 0.16733 0.0
H1142 H 0.6325 0.23821 0.09195 0.0
H1143 H 0.66347 0.24009 0.1259 0.0
H1144 H 0.60682 0.28257 0.16049 0.0
H1145 H 0.57642 0.28108 0.12623 0.0
C1146 C 0.67974 0.28403 0.19667 0.0
C1147 C 0.694 0.26643 0.20513 0.0
C1148 C 0.66159 0.28242 0.17757 0.0
C1149 C 0.65693 0.26311 0.16653 0.0
C1150 C 0.67093 0.24543 0.17516 0.0
C1151 C 0.68928 0.24709 0.19417 0.0
C1152 C 0.62665 0.24785 0.1069 0.0
C1153 C 0.60215 0.2596 0.10637 0.0
C1154 C 0.64433 0.24888 0.12642 0.0
C1155 C 0.63776 0.26154 0.14598 0.0
C1156 C 0.61293 0.273 0.14556 0.0
C1157 C 0.59543 0.27212 0.12595 0.0
H1158 H 0.20097 0.17952 0.64903 0.0
H1159 H 0.29222 0.17757 0.65079 0.0
H1160 H 0.19989 0.14826 0.62483 0.0
H1161 H 0.29106 0.14598 0.62722 0.0
H1162 H 0.28033 0.10417 0.56233 0.0
H1163 H 0.2814 0.13545 0.58631 0.0
H1164 H 0.20793 0.11037 0.62901 0.0
H1165 H 0.20696 0.07895 0.60516 0.0
C1166 C 0.22081 0.17246 0.64419 0.0
C1167 C 0.24668 0.18105 0.65183 0.0
C1168 C 0.22016 0.15441 0.63055 0.0
C1169 C 0.24539 0.1446 0.62413 0.0
C1170 C 0.27127 0.15326 0.63167 0.0
C1171 C 0.27191 0.17124 0.64539 0.0
C1172 C 0.2646 0.10518 0.57702 0.0
C1173 C 0.24359 0.08897 0.58182 0.0
C1174 C 0.26519 0.12315 0.59074 0.0
C1175 C 0.24475 0.12542 0.60958 0.0
C1176 C 0.22374 0.10925 0.6144 0.0
C1177 C 0.22319 0.09123 0.60071 0.0
H1178 H 0.34249 0.80804 0.17615 0.0
H1179 H 0.3721 0.7471 0.19768 0.0
H1180 H 0.37348 0.80856 0.1396 0.0
H1181 H 0.40269 0.74745 0.16094 0.0
H1182 H 0.47615 0.76658 0.10598 0.0
H1183 H 0.44581 0.767 0.14298 0.0
H1184 H 0.37723 0.78935 0.10131 0.0
H1185 H 0.40775 0.78885 0.06438 0.0
C1186 C 0.3557 0.7948 0.17311 0.0
C1187 C 0.35487 0.77754 0.1898 0.0
C1188 C 0.37324 0.79501 0.15209 0.0
C1189 C 0.39052 0.77804 0.14739 0.0
C1190 C 0.38981 0.76084 0.16416 0.0
C1191 C 0.37211 0.76055 0.18507 0.0
C1192 C 0.45459 0.77163 0.10489 0.0
C1193 C 0.44419 0.77781 0.08255 0.0
C1194 C 0.43721 0.77177 0.12595 0.0
C1195 C 0.40913 0.77821 0.12505 0.0
C1196 C 0.39886 0.78455 0.10262 0.0
C1197 C 0.41621 0.78424 0.08153 0.0
H1198 H 0.79234 0.18788 0.41103 0.0
H1199 H 0.77734 0.14648 0.35254 0.0
H1200 H 0.79834 0.15744 0.43797 0.0
H1201 H 0.78121 0.11612 0.37982 0.0
H1202 H 0.8136 0.06475 0.42831 0.0
H1203 H 0.81272 0.09608 0.40142 0.0
H1204 H 0.77233 0.12953 0.45906 0.0
H1205 H 0.77483 0.09846 0.48608 0.0
C1206 C 0.79035 0.17232 0.40385 0.0
C1207 C 0.78424 0.16975 0.37954 0.0
C1208 C 0.79338 0.15479 0.41944 0.0
C1209 C 0.79015 0.1342 0.4112 0.0
C1210 C 0.78424 0.13166 0.38684 0.0
C1211 C 0.78152 0.14916 0.37122 0.0
C1212 C 0.80492 0.07896 0.43517 0.0
C1213 C 0.79447 0.07936 0.4592 0.0
C1214 C 0.8041 0.09685 0.41976 0.0
C1215 C 0.79234 0.11543 0.42795 0.0
C1216 C 0.78199 0.11572 0.45215 0.0
C1217 C 0.78317 0.0979 0.46761 0.0
H1218 H 0.36498 0.28656 0.82669 0.0
H1219 H 0.34607 0.21987 0.83995 0.0
H1220 H 0.39313 0.28711 0.8623 0.0
H1221 H 0.37566 0.22016 0.87471 0.0
H1222 H 0.4071 0.23217 0.94984 0.0
H1223 H 0.37747 0.23175 0.91493 0.0
H1224 H 0.43704 0.27607 0.87644 0.0
H1225 H 0.46616 0.27681 0.91153 0.0
C1226 C 0.36678 0.272 0.83719 0.0
C1227 C 0.35317 0.25317 0.83038 0.0
C1228 C 0.3833 0.27226 0.85746 0.0
C1229 C 0.38683 0.25366 0.8714 0.0
C1230 C 0.3732 0.23484 0.8646 0.0
C1231 C 0.35652 0.23461 0.84441 0.0
C1232 C 0.41387 0.24174 0.93386 0.0
C1233 C 0.43888 0.25459 0.93347 0.0
C1234 C 0.39694 0.24147 0.91381 0.0
C1235 C 0.40478 0.25391 0.89281 0.0
C1236 C 0.42999 0.26661 0.89242 0.0
C1237 C 0.44675 0.267 0.91252 0.0
H1238 H 0.19529 0.84322 0.37936 0.0
H1239 H 0.28653 0.85137 0.37006 0.0
H1240 H 0.19437 0.87403 0.40428 0.0
H1241 H 0.28552 0.88251 0.39427 0.0
H1242 H 0.2761 0.92236 0.46072 0.0
H1243 H 0.27637 0.8915 0.43611 0.0
H1244 H 0.20231 0.91247 0.40083 0.0
H1245 H 0.20211 0.94349 0.42541 0.0
C1246 C 0.21515 0.85156 0.38266 0.0
C1247 C 0.24099 0.84481 0.37273 0.0
C1248 C 0.21459 0.86935 0.39672 0.0
C1249 C 0.23987 0.88074 0.40127 0.0
C1250 C 0.26569 0.87397 0.39133 0.0
C1251 C 0.26624 0.85625 0.37722 0.0
C1252 C 0.26004 0.92054 0.44754 0.0
C1253 C 0.23917 0.9355 0.44498 0.0
C1254 C 0.26018 0.90282 0.43344 0.0
C1255 C 0.23942 0.89954 0.41643 0.0
C1256 C 0.2184 0.91439 0.41397 0.0
C1257 C 0.21828 0.93217 0.42807 0.0
H1258 H 0.65245 0.73418 0.83368 0.0
H1259 H 0.68944 0.79599 0.84568 0.0
H1260 H 0.62207 0.73608 0.87032 0.0
H1261 H 0.65878 0.79802 0.88214 0.0
H1262 H 0.62349 0.78192 0.96023 0.0
H1263 H 0.65363 0.7802 0.92323 0.0
H1264 H 0.58141 0.75645 0.88576 0.0
H1265 H 0.55142 0.75833 0.92281 0.0
C1266 C 0.65408 0.74816 0.84415 0.0
C1267 C 0.67336 0.76492 0.83682 0.0
C1268 C 0.63653 0.74932 0.86502 0.0
C1269 C 0.63808 0.76718 0.87913 0.0
C1270 C 0.65729 0.78397 0.87175 0.0
C1271 C 0.67464 0.7829 0.85076 0.0
C1272 C 0.6142 0.77643 0.94399 0.0
C1273 C 0.58526 0.77037 0.94414 0.0
C1274 C 0.63132 0.7755 0.92285 0.0
C1275 C 0.61986 0.76824 0.90157 0.0
C1276 C 0.59089 0.76195 0.9019 0.0
C1277 C 0.57373 0.76308 0.92299 0.0
loop_
_geom_bond_atom_site_label_1
_geom_bond_atom_site_label_2
_geom_bond_distance
_geom_bond_site_symmetry_2
_ccdc_geom_bond_type
C0 C1 1.391 . S
C0 C4 1.391 . S
C0 H42 0.948 . S
C1 C0 1.391 . S
C1 C2 1.391 . S
C2 C1 1.391 . S
C2 H58 0.947 . S
C2 C59 1.392 . S
C3 C4 1.391 . S
C3 C7 1.397 . S
C3 C59 1.419 . S
C4 C0 1.391 . S
C4 C3 1.391 . S
C4 C5 1.399 . S
C5 C4 1.399 . S
C5 C8 1.396 . S
C5 C17 1.453 . S
C5 C18 1.684 . S
H6 C30 0.948 . S
C7 C3 1.397 . S
C7 C8 1.394 . S
C7 C26 1.723 . S
C8 C5 1.396 . S
C8 C7 1.394 . S
C8 C38 1.723 . S
H9 C32 0.947 . S
H10 C33 0.948 . S
H11 C39 0.982 . S
H12 C40 0.979 . S
H13 C40 0.980 . S
H14 C40 0.983 . S
H15 C39 0.979 . S
H16 C39 0.977 . S
C17 C5 1.453 . S
C17 H46 0.982 . S
C17 H47 0.979 . S
C17 H48 0.977 . S
C18 C5 1.684 . S
C18 H43 0.979 . S
C18 H44 0.980 . S
C18 H45 0.983 . S
C19 C20 1.391 . S
C19 C24 1.391 . S
C19 H49 0.948 . S
C20 C19 1.391 . S
C20 C21 1.391 . S
C21 C20 1.391 . S
C21 C22 1.392 . S
C21 H50 0.947 . S
C22 C21 1.392 . S
C22 C23 1.419 . S
C22 H51 0.948 . S
C23 C22 1.419 . S
C23 C24 1.391 . S
C23 C27 1.397 . S
C24 C19 1.391 . S
C24 C23 1.391 . S
C24 C25 1.399 . S
C25 C24 1.399 . S
C25 C26 1.396 . S
C25 C28 1.453 . S
C25 C29 1.684 . S
C26 C7 1.723 . S
C26 C25 1.396 . S
C26 C27 1.394 . S
C27 C23 1.397 . S
C27 C26 1.394 . S
C27 C37 1.723 . S
C28 C25 1.453 . S
C28 H52 0.982 . S
C28 H53 0.979 . S
C28 H54 0.977 . S
C29 C25 1.684 . S
C29 H55 0.979 . S
C29 H56 0.980 . S
C29 H57 0.983 . S
C30 H6 0.948 . S
C30 C31 1.391 . S
C30 C35 1.391 . S
C31 C30 1.391 . S
C31 C32 1.391 . S
C32 H9 0.947 . S
C32 C31 1.391 . S
C32 C33 1.392 . S
C33 H10 0.948 . S
C33 C32 1.392 . S
C33 C34 1.419 . S
C34 C33 1.419 . S
C34 C35 1.391 . S
C34 C38 1.397 . S
C35 C30 1.391 . S
C35 C34 1.391 . S
C35 C36 1.399 . S
C36 C35 1.399 . S
C36 C37 1.396 . S
C36 C39 1.453 . S
C36 C40 1.684 . S
C37 C27 1.723 . S
C37 C36 1.396 . S
C37 C38 1.394 . S
C38 C8 1.723 . S
C38 C34 1.397 . S
C38 C37 1.394 . S
C39 H11 0.982 . S
C39 H15 0.979 . S
C39 H16 0.977 . S
C39 C36 1.453 . S
C40 H12 0.979 . S
C40 H13 0.980 . S
C40 H14 0.983 . S
C40 C36 1.684 . S
H41 C59 0.948 . S
H42 C0 0.948 . S
H43 C18 0.979 . S
H44 C18 0.980 . S
H45 C18 0.983 . S
H46 C17 0.982 . S
H47 C17 0.979 . S
H48 C17 0.977 . S
H49 C19 0.948 . S
H50 C21 0.947 . S
H51 C22 0.948 . S
H52 C28 0.982 . S
H53 C28 0.979 . S
H54 C28 0.977 . S
H55 C29 0.979 . S
H56 C29 0.980 . S
H57 C29 0.983 . S
H58 C2 0.947 . S
C59 C2 1.392 . S
C59 C3 1.419 . S
C59 H41 0.948 . S
C60 C61 1.391 . S
C60 C64 1.391 . S
C60 H102 0.948 . S
C61 C60 1.391 . S
C61 C62 1.391 . S
C62 C61 1.391 . S
C62 H118 0.947 . S
C62 C119 1.392 . S
C63 C64 1.391 . S
C63 C67 1.397 . S
C63 C119 1.419 . S
C64 C60 1.391 . S
C64 C63 1.391 . S
C64 C65 1.399 . S
C65 C64 1.399 . S
C65 C68 1.396 . S
C65 C77 1.453 . S
C65 C78 1.684 . S
H66 C90 0.948 . S
C67 C63 1.397 . S
C67 C68 1.394 . S
C67 C86 1.723 . S
C68 C65 1.396 . S
C68 C67 1.394 . S
C68 C98 1.723 . S
H69 C92 0.947 . S
H70 C93 0.948 . S
H71 C99 0.982 . S
H72 C100 0.979 . S
H73 C100 0.980 . S
H74 C100 0.983 . S
H75 C99 0.979 . S
H76 C99 0.977 . S
C77 C65 1.453 . S
C77 H106 0.982 . S
C77 H107 0.979 . S
C77 H108 0.977 . S
C78 C65 1.684 . S
C78 H103 0.979 . S
C78 H104 0.980 . S
C78 H105 0.983 . S
C79 C80 1.391 . S
C79 C84 1.391 . S
C79 H109 0.948 . S
C80 C79 1.391 . S
C80 C81 1.391 . S
C81 C80 1.391 . S
C81 C82 1.392 . S
C81 H110 0.947 . S
C82 C81 1.392 . S
C82 C83 1.419 . S
C82 H111 0.948 . S
C83 C82 1.419 . S
C83 C84 1.391 . S
C83 C87 1.397 . S
C84 C79 1.391 . S
C84 C83 1.391 . S
C84 C85 1.399 . S
C85 C84 1.399 . S
C85 C86 1.396 . S
C85 C88 1.453 . S
C85 C89 1.684 . S
C86 C67 1.723 . S
C86 C85 1.396 . S
C86 C87 1.394 . S
C87 C83 1.397 . S
C87 C86 1.394 . S
C87 C97 1.723 . S
C88 C85 1.453 . S
C88 H112 0.982 . S
C88 H113 0.979 . S
C88 H114 0.977 . S
C89 C85 1.684 . S
C89 H115 0.979 . S
C89 H116 0.980 . S
C89 H117 0.983 . S
C90 H66 0.948 . S
C90 C91 1.391 . S
C90 C95 1.391 . S
C91 C90 1.391 . S
C91 C92 1.391 . S
C92 H69 0.947 . S
C92 C91 1.391 . S
C92 C93 1.392 . S
C93 H70 0.948 . S
C93 C92 1.392 . S
C93 C94 1.419 . S
C94 C93 1.419 . S
C94 C95 1.391 . S
C94 C98 1.397 . S
C95 C90 1.391 . S
C95 C94 1.391 . S
C95 C96 1.399 . S
C96 C95 1.399 . S
C96 C97 1.396 . S
C96 C99 1.453 . S
C96 C100 1.684 . S
C97 C87 1.723 . S
C97 C96 1.396 . S
C97 C98 1.394 . S
C98 C68 1.723 . S
C98 C94 1.397 . S
C98 C97 1.394 . S
C99 H71 0.982 . S
C99 H75 0.979 . S
C99 H76 0.977 . S
C99 C96 1.453 . S
C100 H72 0.979 . S
C100 H73 0.980 . S
C100 H74 0.983 . S
C100 C96 1.684 . S
H101 C119 0.948 . S
H102 C60 0.948 . S
H103 C78 0.979 . S
H104 C78 0.980 . S
H105 C78 0.983 . S
H106 C77 0.982 . S
H107 C77 0.979 . S
H108 C77 0.977 . S
H109 C79 0.948 . S
H110 C81 0.947 . S
H111 C82 0.948 . S
H112 C88 0.982 . S
H113 C88 0.979 . S
H114 C88 0.977 . S
H115 C89 0.979 . S
H116 C89 0.980 . S
H117 C89 0.983 . S
H118 C62 0.947 . S
C119 C62 1.392 . S
C119 C63 1.419 . S
C119 H101 0.948 . S
C120 C121 1.391 . S
C120 C124 1.391 . S
C120 H162 0.948 . S
C121 C120 1.391 . S
C121 C122 1.391 . S
C122 C121 1.391 . S
C122 H178 0.947 . S
C122 C179 1.392 . S
C123 C124 1.391 . S
C123 C127 1.397 . S
C123 C179 1.419 . S
C124 C120 1.391 . S
C124 C123 1.391 . S
C124 C125 1.399 . S
C125 C124 1.399 . S
C125 C128 1.396 . S
C125 C137 1.453 . S
C125 C138 1.684 . S
H126 C150 0.948 . S
C127 C123 1.397 . S
C127 C128 1.394 . S
C127 C146 1.723 . S
C128 C125 1.396 . S
C128 C127 1.394 . S
C128 C158 1.723 . S
H129 C152 0.947 . S
H130 C153 0.948 . S
H131 C159 0.982 . S
H132 C160 0.979 . S
H133 C160 0.980 . S
H134 C160 0.983 . S
H135 C159 0.979 . S
H136 C159 0.977 . S
C137 C125 1.453 . S
C137 H166 0.982 . S
C137 H167 0.979 . S
C137 H168 0.977 . S
C138 C125 1.684 . S
C138 H163 0.979 . S
C138 H164 0.980 . S
C138 H165 0.983 . S
C139 C140 1.391 . S
C139 C144 1.391 . S
C139 H169 0.948 . S
C140 C139 1.391 . S
C140 C141 1.391 . S
C141 C140 1.391 . S
C141 C142 1.392 . S
C141 H170 0.947 . S
C142 C141 1.392 . S
C142 C143 1.419 . S
C142 H171 0.948 . S
C143 C142 1.419 . S
C143 C144 1.391 . S
C143 C147 1.397 . S
C144 C139 1.391 . S
C144 C143 1.391 . S
C144 C145 1.399 . S
C145 C144 1.399 . S
C145 C146 1.396 . S
C145 C148 1.453 . S
C145 C149 1.684 . S
C146 C127 1.723 . S
C146 C145 1.396 . S
C146 C147 1.394 . S
C147 C143 1.397 . S
C147 C146 1.394 . S
C147 C157 1.723 . S
C148 C145 1.453 . S
C148 H172 0.982 . S
C148 H173 0.979 . S
C148 H174 0.977 . S
C149 C145 1.684 . S
C149 H175 0.979 . S
C149 H176 0.980 . S
C149 H177 0.983 . S
C150 H126 0.948 . S
C150 C151 1.391 . S
C150 C155 1.391 . S
C151 C150 1.391 . S
C151 C152 1.391 . S
C152 H129 0.947 . S
C152 C151 1.391 . S
C152 C153 1.392 . S
C153 H130 0.948 . S
C153 C152 1.392 . S
C153 C154 1.419 . S
C154 C153 1.419 . S
C154 C155 1.391 . S
C154 C158 1.397 . S
C155 C150 1.391 . S
C155 C154 1.391 . S
C155 C156 1.399 . S
C156 C155 1.399 . S
C156 C157 1.396 . S
C156 C159 1.453 . S
C156 C160 1.684 . S
C157 C147 1.723 . S
C157 C156 1.396 . S
C157 C158 1.394 . S
C158 C128 1.723 . S
C158 C154 1.397 . S
C158 C157 1.394 . S
C159 H131 0.982 . S
C159 H135 0.979 . S
C159 H136 0.977 . S
C159 C156 1.453 . S
C160 H132 0.979 . S
C160 H133 0.980 . S
C160 H134 0.983 . S
C160 C156 1.684 . S
H161 C179 0.948 . S
H162 C120 0.948 . S
H163 C138 0.979 . S
H164 C138 0.980 . S
H165 C138 0.983 . S
H166 C137 0.982 . S
H167 C137 0.979 . S
H168 C137 0.977 . S
H169 C139 0.948 . S
H170 C141 0.947 . S
H171 C142 0.948 . S
H172 C148 0.982 . S
H173 C148 0.979 . S
H174 C148 0.977 . S
H175 C149 0.979 . S
H176 C149 0.980 . S
H177 C149 0.983 . S
H178 C122 0.947 . S
C179 C122 1.392 . S
C179 C123 1.419 . S
C179 H161 0.948 . S
C180 C181 1.391 . S
C180 C184 1.391 . S
C180 H222 0.948 . S
C181 C180 1.391 . S
C181 C182 1.391 . S
C182 C181 1.391 . S
C182 H238 0.947 . S
C182 C239 1.392 . S
C183 C184 1.391 . S
C183 C187 1.397 . S
C183 C239 1.419 . S
C184 C180 1.391 . S
C184 C183 1.391 . S
C184 C185 1.399 . S
C185 C184 1.399 . S
C185 C188 1.396 . S
C185 C197 1.453 . S
C185 C198 1.684 . S
H186 C210 0.948 . S
C187 C183 1.397 . S
C187 C188 1.394 . S
C187 C206 1.723 . S
C188 C185 1.396 . S
C188 C187 1.394 . S
C188 C218 1.723 . S
H189 C212 0.947 . S
H190 C213 0.948 . S
H191 C219 0.982 . S
H192 C220 0.979 . S
H193 C220 0.980 . S
H194 C220 0.983 . S
H195 C219 0.979 . S
H196 C219 0.977 . S
C197 C185 1.453 . S
C197 H226 0.982 . S
C197 H227 0.979 . S
C197 H228 0.977 . S
C198 C185 1.684 . S
C198 H223 0.979 . S
C198 H224 0.980 . S
C198 H225 0.983 . S
C199 C200 1.391 . S
C199 C204 1.391 . S
C199 H229 0.948 . S
C200 C199 1.391 . S
C200 C201 1.391 . S
C201 C200 1.391 . S
C201 C202 1.392 . S
C201 H230 0.947 . S
C202 C201 1.392 . S
C202 C203 1.419 . S
C202 H231 0.948 . S
C203 C202 1.419 . S
C203 C204 1.391 . S
C203 C207 1.397 . S
C204 C199 1.391 . S
C204 C203 1.391 . S
C204 C205 1.399 . S
C205 C204 1.399 . S
C205 C206 1.396 . S
C205 C208 1.453 . S
C205 C209 1.684 . S
C206 C187 1.723 . S
C206 C205 1.396 . S
C206 C207 1.394 . S
C207 C203 1.397 . S
C207 C206 1.394 . S
C207 C217 1.723 . S
C208 C205 1.453 . S
C208 H232 0.982 . S
C208 H233 0.979 . S
C208 H234 0.977 . S
C209 C205 1.684 . S
C209 H235 0.979 . S
C209 H236 0.980 . S
C209 H237 0.983 . S
C210 H186 0.948 . S
C210 C211 1.391 . S
C210 C215 1.391 . S
C211 C210 1.391 . S
C211 C212 1.391 . S
C212 H189 0.947 . S
C212 C211 1.391 . S
C212 C213 1.392 . S
C213 H190 0.948 . S
C213 C212 1.392 . S
C213 C214 1.419 . S
C214 C213 1.419 . S
C214 C215 1.391 . S
C214 C218 1.397 . S
C215 C210 1.391 . S
C215 C214 1.391 . S
C215 C216 1.399 . S
C216 C215 1.399 . S
C216 C217 1.396 . S
C216 C219 1.453 . S
C216 C220 1.684 . S
C217 C207 1.723 . S
C217 C216 1.396 . S
C217 C218 1.394 . S
C218 C188 1.723 . S
C218 C214 1.397 . S
C218 C217 1.394 . S
C219 H191 0.982 . S
C219 H195 0.979 . S
C219 H196 0.977 . S
C219 C216 1.453 . S
C220 H192 0.979 . S
C220 H193 0.980 . S
C220 H194 0.983 . S
C220 C216 1.684 . S
H221 C239 0.948 . S
H222 C180 0.948 . S
H223 C198 0.979 . S
H224 C198 0.980 . S
H225 C198 0.983 . S
H226 C197 0.982 . S
H227 C197 0.979 . S
H228 C197 0.977 . S
H229 C199 0.948 . S
H230 C201 0.947 . S
H231 C202 0.948 . S
H232 C208 0.982 . S
H233 C208 0.979 . S
H234 C208 0.977 . S
H235 C209 0.979 . S
H236 C209 0.980 . S
H237 C209 0.983 . S
H238 C182 0.947 . S
C239 C182 1.392 . S
C239 C183 1.419 . S
C239 H221 0.948 . S
C240 C241 1.391 . S
C240 C244 1.391 . S
C240 H282 0.948 . S
C241 C240 1.391 . S
C241 C242 1.391 . S
C242 C241 1.391 . S
C242 H298 0.947 . S
C242 C299 1.392 . S
C243 C244 1.391 . S
C243 C247 1.397 . S
C243 C299 1.419 . S
C244 C240 1.391 . S
C244 C243 1.391 . S
C244 C245 1.399 . S
C245 C244 1.399 . S
C245 C248 1.396 . S
C245 C257 1.453 . S
C245 C258 1.684 . S
H246 C270 0.948 . S
C247 C243 1.397 . S
C247 C248 1.394 . S
C247 C266 1.723 . S
C248 C245 1.396 . S
C248 C247 1.394 . S
C248 C278 1.723 . S
H249 C272 0.947 . S
H250 C273 0.948 . S
H251 C279 0.982 . S
H252 C280 0.979 . S
H253 C280 0.980 . S
H254 C280 0.983 . S
H255 C279 0.979 . S
H256 C279 0.977 . S
C257 C245 1.453 . S
C257 H286 0.982 . S
C257 H287 0.979 . S
C257 H288 0.977 . S
C258 C245 1.684 . S
C258 H283 0.979 . S
C258 H284 0.980 . S
C258 H285 0.983 . S
C259 C260 1.391 . S
C259 C264 1.391 . S
C259 H289 0.948 . S
C260 C259 1.391 . S
C260 C261 1.391 . S
C261 C260 1.391 . S
C261 C262 1.392 . S
C261 H290 0.947 . S
C262 C261 1.392 . S
C262 C263 1.419 . S
C262 H291 0.948 . S
C263 C262 1.419 . S
C263 C264 1.391 . S
C263 C267 1.397 . S
C264 C259 1.391 . S
C264 C263 1.391 . S
C264 C265 1.399 . S
C265 C264 1.399 . S
C265 C266 1.396 . S
C265 C268 1.453 . S
C265 C269 1.684 . S
C266 C247 1.723 . S
C266 C265 1.396 . S
C266 C267 1.394 . S
C267 C263 1.397 . S
C267 C266 1.394 . S
C267 C277 1.723 . S
C268 C265 1.453 . S
C268 H292 0.982 . S
C268 H293 0.979 . S
C268 H294 0.977 . S
C269 C265 1.684 . S
C269 H295 0.979 . S
C269 H296 0.980 . S
C269 H297 0.983 . S
C270 H246 0.948 . S
C270 C271 1.391 . S
C270 C275 1.391 . S
C271 C270 1.391 . S
C271 C272 1.391 . S
C272 H249 0.947 . S
C272 C271 1.391 . S
C272 C273 1.392 . S
C273 H250 0.948 . S
C273 C272 1.392 . S
C273 C274 1.419 . S
C274 C273 1.419 . S
C274 C275 1.391 . S
C274 C278 1.397 . S
C275 C270 1.391 . S
C275 C274 1.391 . S
C275 C276 1.399 . S
C276 C275 1.399 . S
C276 C277 1.396 . S
C276 C279 1.453 . S
C276 C280 1.684 . S
C277 C267 1.723 . S
C277 C276 1.396 . S
C277 C278 1.394 . S
C278 C248 1.723 . S
C278 C274 1.397 . S
C278 C277 1.394 . S
C279 H251 0.982 . S
C279 H255 0.979 . S
C279 H256 0.977 . S
C279 C276 1.453 . S
C280 H252 0.979 . S
C280 H253 0.980 . S
C280 H254 0.983 . S
C280 C276 1.684 . S
H281 C299 0.948 . S
H282 C240 0.948 . S
H283 C258 0.979 . S
H284 C258 0.980 . S
H285 C258 0.983 . S
H286 C257 0.982 . S
H287 C257 0.979 . S
H288 C257 0.977 . S
H289 C259 0.948 . S
H290 C261 0.947 . S
H291 C262 0.948 . S
H292 C268 0.982 . S
H293 C268 0.979 . S
H294 C268 0.977 . S
H295 C269 0.979 . S
H296 C269 0.980 . S
H297 C269 0.983 . S
H298 C242 0.947 . S
C299 C242 1.392 . S
C299 C243 1.419 . S
C299 H281 0.948 . S
C300 C301 1.391 . S
C300 C304 1.391 . S
C300 H342 0.948 . S
C301 C300 1.391 . S
C301 C302 1.391 . S
C302 C301 1.391 . S
C302 H358 0.947 . S
C302 C359 1.392 . S
C303 C304 1.391 . S
C303 C307 1.397 . S
C303 C359 1.419 . S
C304 C300 1.391 . S
C304 C303 1.391 . S
C304 C305 1.399 . S
C305 C304 1.399 . S
C305 C308 1.396 . S
C305 C317 1.453 . S
C305 C318 1.684 . S
H306 C330 0.948 . S
C307 C303 1.397 . S
C307 C308 1.394 . S
C307 C326 1.723 . S
C308 C305 1.396 . S
C308 C307 1.394 . S
C308 C338 1.723 . S
H309 C332 0.947 . S
H310 C333 0.948 . S
H311 C339 0.982 . S
H312 C340 0.979 . S
H313 C340 0.980 . S
H314 C340 0.983 . S
H315 C339 0.979 . S
H316 C339 0.977 . S
C317 C305 1.453 . S
C317 H346 0.982 . S
C317 H347 0.979 . S
C317 H348 0.977 . S
C318 C305 1.684 . S
C318 H343 0.979 . S
C318 H344 0.980 . S
C318 H345 0.983 . S
C319 C320 1.391 . S
C319 C324 1.391 . S
C319 H349 0.948 . S
C320 C319 1.391 . S
C320 C321 1.391 . S
C321 C320 1.391 . S
C321 C322 1.392 . S
C321 H350 0.947 . S
C322 C321 1.392 . S
C322 C323 1.419 . S
C322 H351 0.948 . S
C323 C322 1.419 . S
C323 C324 1.391 . S
C323 C327 1.397 . S
C324 C319 1.391 . S
C324 C323 1.391 . S
C324 C325 1.399 . S
C325 C324 1.399 . S
C325 C326 1.396 . S
C325 C328 1.453 . S
C325 C329 1.684 . S
C326 C307 1.723 . S
C326 C325 1.396 . S
C326 C327 1.394 . S
C327 C323 1.397 . S
C327 C326 1.394 . S
C327 C337 1.723 . S
C328 C325 1.453 . S
C328 H352 0.982 . S
C328 H353 0.979 . S
C328 H354 0.977 . S
C329 C325 1.684 . S
C329 H355 0.979 . S
C329 H356 0.980 . S
C329 H357 0.983 . S
C330 H306 0.948 . S
C330 C331 1.391 . S
C330 C335 1.391 . S
C331 C330 1.391 . S
C331 C332 1.391 . S
C332 H309 0.947 . S
C332 C331 1.391 . S
C332 C333 1.392 . S
C333 H310 0.948 . S
C333 C332 1.392 . S
C333 C334 1.419 . S
C334 C333 1.419 . S
C334 C335 1.391 . S
C334 C338 1.397 . S
C335 C330 1.391 . S
C335 C334 1.391 . S
C335 C336 1.399 . S
C336 C335 1.399 . S
C336 C337 1.396 . S
C336 C339 1.453 . S
C336 C340 1.684 . S
C337 C327 1.723 . S
C337 C336 1.396 . S
C337 C338 1.394 . S
C338 C308 1.723 . S
C338 C334 1.397 . S
C338 C337 1.394 . S
C339 H311 0.982 . S
C339 H315 0.979 . S
C339 H316 0.977 . S
C339 C336 1.453 . S
C340 H312 0.979 . S
C340 H313 0.980 . S
C340 H314 0.983 . S
C340 C336 1.684 . S
H341 C359 0.948 . S
H342 C300 0.948 . S
H343 C318 0.979 . S
H344 C318 0.980 . S
H345 C318 0.983 . S
H346 C317 0.982 . S
H347 C317 0.979 . S
H348 C317 0.977 . S
H349 C319 0.948 . S
H350 C321 0.947 . S
H351 C322 0.948 . S
H352 C328 0.982 . S
H353 C328 0.979 . S
H354 C328 0.977 . S
H355 C329 0.979 . S
H356 C329 0.980 . S
H357 C329 0.983 . S
H358 C302 0.947 . S
C359 C302 1.392 . S
C359 C303 1.419 . S
C359 H341 0.948 . S
C360 C361 1.391 . S
C360 C364 1.391 . S
C360 H402 0.948 . S
C361 C360 1.391 . S
C361 C362 1.391 . S
C362 C361 1.391 . S
C362 H418 0.947 . S
C362 C419 1.392 . S
C363 C364 1.391 . S
C363 C367 1.397 . S
C363 C419 1.419 . S
C364 C360 1.391 . S
C364 C363 1.391 . S
C364 C365 1.399 . S
C365 C364 1.399 . S
C365 C368 1.396 . S
C365 C377 1.453 . S
C365 C378 1.684 . S
H366 C390 0.948 . S
C367 C363 1.397 . S
C367 C368 1.394 . S
C367 C386 1.723 . S
C368 C365 1.396 . S
C368 C367 1.394 . S
C368 C398 1.723 . S
H369 C392 0.947 . S
H370 C393 0.948 . S
H371 C399 0.982 . S
H372 C400 0.979 . S
H373 C400 0.980 . S
H374 C400 0.983 . S
H375 C399 0.979 . S
H376 C399 0.977 . S
C377 C365 1.453 . S
C377 H406 0.982 . S
C377 H407 0.979 . S
C377 H408 0.977 . S
C378 C365 1.684 . S
C378 H403 0.979 . S
C378 H404 0.980 . S
C378 H405 0.983 . S
C379 C380 1.391 . S
C379 C384 1.391 . S
C379 H409 0.948 . S
C380 C379 1.391 . S
C380 C381 1.391 . S
C381 C380 1.391 . S
C381 C382 1.392 . S
C381 H410 0.947 . S
C382 C381 1.392 . S
C382 C383 1.419 . S
C382 H411 0.948 . S
C383 C382 1.419 . S
C383 C384 1.391 . S
C383 C387 1.397 . S
C384 C379 1.391 . S
C384 C383 1.391 . S
C384 C385 1.399 . S
C385 C384 1.399 . S
C385 C386 1.396 . S
C385 C388 1.453 . S
C385 C389 1.684 . S
C386 C367 1.723 . S
C386 C385 1.396 . S
C386 C387 1.394 . S
C387 C383 1.397 . S
C387 C386 1.394 . S
C387 C397 1.723 . S
C388 C385 1.453 . S
C388 H412 0.982 . S
C388 H413 0.979 . S
C388 H414 0.977 . S
C389 C385 1.684 . S
C389 H415 0.979 . S
C389 H416 0.980 . S
C389 H417 0.983 . S
C390 H366 0.948 . S
C390 C391 1.391 . S
C390 C395 1.391 . S
C391 C390 1.391 . S
C391 C392 1.391 . S
C392 H369 0.947 . S
C392 C391 1.391 . S
C392 C393 1.392 . S
C393 H370 0.948 . S
C393 C392 1.392 . S
C393 C394 1.419 . S
C394 C393 1.419 . S
C394 C395 1.391 . S
C394 C398 1.397 . S
C395 C390 1.391 . S
C395 C394 1.391 . S
C395 C396 1.399 . S
C396 C395 1.399 . S
C396 C397 1.396 . S
C396 C399 1.453 . S
C396 C400 1.684 . S
C397 C387 1.723 . S
C397 C396 1.396 . S
C397 C398 1.394 . S
C398 C368 1.723 . S
C398 C394 1.397 . S
C398 C397 1.394 . S
C399 H371 0.982 . S
C399 H375 0.979 . S
C399 H376 0.977 . S
C399 C396 1.453 . S
C400 H372 0.979 . S
C400 H373 0.980 . S
C400 H374 0.983 . S
C400 C396 1.684 . S
H401 C419 0.948 . S
H402 C360 0.948 . S
H403 C378 0.979 . S
H404 C378 0.980 . S
H405 C378 0.983 . S
H406 C377 0.982 . S
H407 C377 0.979 . S
H408 C377 0.977 . S
H409 C379 0.948 . S
H410 C381 0.947 . S
H411 C382 0.948 . S
H412 C388 0.982 . S
H413 C388 0.979 . S
H414 C388 0.977 . S
H415 C389 0.979 . S
H416 C389 0.980 . S
H417 C389 0.983 . S
H418 C362 0.947 . S
C419 C362 1.392 . S
C419 C363 1.419 . S
C419 H401 0.948 . S
C420 C421 1.391 . S
C420 C424 1.391 . S
C420 H462 0.948 . S
C421 C420 1.391 . S
C421 C422 1.391 . S
C422 C421 1.391 . S
C422 H478 0.947 . S
C422 C479 1.392 . S
C423 C424 1.391 . S
C423 C427 1.397 . S
C423 C479 1.419 . S
C424 C420 1.391 . S
C424 C423 1.391 . S
C424 C425 1.399 . S
C425 C424 1.399 . S
C425 C428 1.396 . S
C425 C437 1.453 . S
C425 C438 1.684 . S
H426 C450 0.948 . S
C427 C423 1.397 . S
C427 C428 1.394 . S
C427 C446 1.723 . S
C428 C425 1.396 . S
C428 C427 1.394 . S
C428 C458 1.723 . S
H429 C452 0.947 . S
H430 C453 0.948 . S
H431 C459 0.982 . S
H432 C460 0.979 . S
H433 C460 0.980 . S
H434 C460 0.983 . S
H435 C459 0.979 . S
H436 C459 0.977 . S
C437 C425 1.453 . S
C437 H466 0.982 . S
C437 H467 0.979 . S
C437 H468 0.977 . S
C438 C425 1.684 . S
C438 H463 0.979 . S
C438 H464 0.980 . S
C438 H465 0.983 . S
C439 C440 1.391 . S
C439 C444 1.391 . S
C439 H469 0.948 . S
C440 C439 1.391 . S
C440 C441 1.391 . S
C441 C440 1.391 . S
C441 C442 1.392 . S
C441 H470 0.947 . S
C442 C441 1.392 . S
C442 C443 1.419 . S
C442 H471 0.948 . S
C443 C442 1.419 . S
C443 C444 1.391 . S
C443 C447 1.397 . S
C444 C439 1.391 . S
C444 C443 1.391 . S
C444 C445 1.399 . S
C445 C444 1.399 . S
C445 C446 1.396 . S
C445 C448 1.453 . S
C445 C449 1.684 . S
C446 C427 1.723 . S
C446 C445 1.396 . S
C446 C447 1.394 . S
C447 C443 1.397 . S
C447 C446 1.394 . S
C447 C457 1.723 . S
C448 C445 1.453 . S
C448 H472 0.982 . S
C448 H473 0.979 . S
C448 H474 0.977 . S
C449 C445 1.684 . S
C449 H475 0.979 . S
C449 H476 0.980 . S
C449 H477 0.983 . S
C450 H426 0.948 . S
C450 C451 1.391 . S
C450 C455 1.391 . S
C451 C450 1.391 . S
C451 C452 1.391 . S
C452 H429 0.947 . S
C452 C451 1.391 . S
C452 C453 1.392 . S
C453 H430 0.948 . S
C453 C452 1.392 . S
C453 C454 1.419 . S
C454 C453 1.419 . S
C454 C455 1.391 . S
C454 C458 1.397 . S
C455 C450 1.391 . S
C455 C454 1.391 . S
C455 C456 1.399 . S
C456 C455 1.399 . S
C456 C457 1.396 . S
C456 C459 1.453 . S
C456 C460 1.684 . S
C457 C447 1.723 . S
C457 C456 1.396 . S
C457 C458 1.394 . S
C458 C428 1.723 . S
C458 C454 1.397 . S
C458 C457 1.394 . S
C459 H431 0.982 . S
C459 H435 0.979 . S
C459 H436 0.977 . S
C459 C456 1.453 . S
C460 H432 0.979 . S
C460 H433 0.980 . S
C460 H434 0.983 . S
C460 C456 1.684 . S
H461 C479 0.948 . S
H462 C420 0.948 . S
H463 C438 0.979 . S
H464 C438 0.980 . S
H465 C438 0.983 . S
H466 C437 0.982 . S
H467 C437 0.979 . S
H468 C437 0.977 . S
H469 C439 0.948 . S
H470 C441 0.947 . S
H471 C442 0.948 . S
H472 C448 0.982 . S
H473 C448 0.979 . S
H474 C448 0.977 . S
H475 C449 0.979 . S
H476 C449 0.980 . S
H477 C449 0.983 . S
H478 C422 0.947 . S
C479 C422 1.392 . S
C479 C423 1.419 . S
C479 H461 0.948 . S
C480 C481 1.443 . S
C480 N484 1.376 . S
C480 C518 1.389 . S
C481 C480 1.443 . S
C481 C482 1.340 . S
C481 H521 0.951 . S
C482 C481 1.340 . S
C482 C483 1.439 . S
C482 H522 0.950 . S
C483 C482 1.439 . S
C483 N484 1.374 . S
C483 C517 1.395 . S
N484 C480 1.376 . S
N484 C483 1.374 . S
N484 Co485 2.008 . S
Co485 N484 2.008 . S
Co485 N486 1.995 1_455 S
Co485 N491 2.008 . S
Co485 N496 1.995 . S
Co485 N501 2.282 . S
Co485 N507 2.282 1_455 S
N486 Co485 1.995 1_655 S
N486 C487 1.376 . S
N486 C490 1.383 . S
C487 N486 1.376 . S
C487 C488 1.446 . S
C487 C517 1.391 1_655 S
C488 C487 1.446 . S
C488 C489 1.339 . S
C488 H523 0.949 . S
C489 C488 1.339 . S
C489 C490 1.439 . S
C489 H524 0.950 . S
C490 N486 1.383 . S
C490 C489 1.439 . S
C490 C519 1.392 . S
N491 Co485 2.008 . S
N491 C492 1.376 1_455 S
N491 C495 1.374 . S
C492 N491 1.376 1_655 S
C492 C493 1.443 . S
C492 C519 1.389 . S
C493 C492 1.443 . S
C493 C494 1.340 . S
C493 H525 0.951 . S
C494 C493 1.340 . S
C494 C495 1.439 1_655 S
C494 H526 0.950 . S
C495 N491 1.374 . S
C495 C494 1.439 1_455 S
C495 C520 1.395 . S
N496 Co485 1.995 . S
N496 C497 1.376 . S
N496 C500 1.383 . S
C497 N496 1.376 . S
C497 C498 1.446 . S
C497 C520 1.391 . S
C498 C497 1.446 . S
C498 C499 1.339 . S
C498 H527 0.949 . S
C499 C498 1.339 . S
C499 C500 1.439 . S
C499 H528 0.950 . S
C500 N496 1.383 . S
C500 C499 1.439 . S
C500 C518 1.392 . S
N501 Co485 2.282 . S
N501 C504 1.332 . S
N501 C506 1.332 . S
C502 C503 1.386 . S
C502 C505 1.388 . S
C503 C502 1.386 . S
C503 C504 1.382 . S
C503 H529 0.950 . S
C504 N501 1.332 . S
C504 C503 1.382 . S
C504 H515 0.952 . S
C505 C502 1.388 . S
C505 C506 1.382 . S
C505 H530 0.950 . S
C506 N501 1.332 . S
C506 C505 1.382 . S
C506 H516 0.948 . S
N507 Co485 2.282 1_655 S
N507 C511 1.332 . S
N507 C512 1.332 . S
C508 C509 1.388 . S
C508 C512 1.382 . S
C508 H531 0.950 . S
C509 C508 1.388 . S
C509 C510 1.386 . S
C510 C509 1.386 . S
C510 C511 1.382 . S
C510 H532 0.950 . S
C511 N507 1.332 . S
C511 C510 1.382 . S
C511 H513 0.952 . S
C512 N507 1.332 . S
C512 C508 1.382 . S
C512 H514 0.948 . S
H513 C511 0.952 . S
H514 C512 0.948 . S
H515 C504 0.952 . S
H516 C506 0.948 . S
C517 C483 1.395 . S
C517 C487 1.391 1_455 S
C518 C480 1.389 . S
C518 C500 1.392 . S
C519 C490 1.392 . S
C519 C492 1.389 . S
C520 C495 1.395 . S
C520 C497 1.391 . S
H521 C481 0.951 . S
H522 C482 0.950 . S
H523 C488 0.949 . S
H524 C489 0.950 . S
H525 C493 0.951 . S
H526 C494 0.950 . S
H527 C498 0.949 . S
H528 C499 0.950 . S
H529 C503 0.950 . S
H530 C505 0.950 . S
H531 C508 0.950 . S
H532 C510 0.950 . S
C533 C534 1.443 . S
C533 N537 1.376 . S
C533 C571 1.389 . S
C534 C533 1.443 . S
C534 C535 1.340 . S
C534 H574 0.951 . S
C535 C534 1.340 . S
C535 C536 1.439 . S
C535 H575 0.950 . S
C536 C535 1.439 . S
C536 N537 1.374 . S
C536 C570 1.395 . S
N537 C533 1.376 . S
N537 C536 1.374 . S
N537 Co538 2.008 . S
Co538 N537 2.008 . S
Co538 N539 1.995 1_455 S
Co538 N544 2.008 1_455 S
Co538 N549 1.995 . S
Co538 N554 2.282 . S
Co538 N560 2.282 1_455 S
N539 Co538 1.995 1_655 S
N539 C540 1.376 . S
N539 C543 1.383 . S
C540 N539 1.376 . S
C540 C541 1.446 . S
C540 C570 1.391 1_655 S
C541 C540 1.446 . S
C541 C542 1.339 . S
C541 H576 0.949 . S
C542 C541 1.339 . S
C542 C543 1.439 . S
C542 H577 0.950 . S
C543 N539 1.383 . S
C543 C542 1.439 . S
C543 C572 1.392 . S
N544 Co538 2.008 1_655 S
N544 C545 1.376 . S
N544 C548 1.374 1_655 S
C545 N544 1.376 . S
C545 C546 1.443 . S
C545 C572 1.389 . S
C546 C545 1.443 . S
C546 C547 1.340 . S
C546 H578 0.951 . S
C547 C546 1.340 . S
C547 C548 1.439 1_655 S
C547 H579 0.950 . S
C548 N544 1.374 1_455 S
C548 C547 1.439 1_455 S
C548 C573 1.395 . S
N549 Co538 1.995 . S
N549 C550 1.376 . S
N549 C553 1.383 . S
C550 N549 1.376 . S
C550 C551 1.446 . S
C550 C573 1.391 . S
C551 C550 1.446 . S
C551 C552 1.339 . S
C551 H580 0.949 . S
C552 C551 1.339 . S
C552 C553 1.439 . S
C552 H581 0.950 . S
C553 N549 1.383 . S
C553 C552 1.439 . S
C553 C571 1.392 . S
N554 Co538 2.282 . S
N554 C557 1.332 . S
N554 C559 1.332 . S
C555 C556 1.386 . S
C555 C558 1.388 . S
C556 C555 1.386 . S
C556 C557 1.382 . S
C556 H582 0.950 . S
C557 N554 1.332 . S
C557 C556 1.382 . S
C557 H568 0.952 . S
C558 C555 1.388 . S
C558 C559 1.382 . S
C558 H583 0.950 . S
C559 N554 1.332 . S
C559 C558 1.382 . S
C559 H569 0.948 . S
N560 Co538 2.282 1_655 S
N560 C564 1.332 . S
N560 C565 1.332 . S
C561 C562 1.388 . S
C561 C565 1.382 . S
C561 H584 0.950 . S
C562 C561 1.388 . S
C562 C563 1.386 . S
C563 C562 1.386 . S
C563 C564 1.382 . S
C563 H585 0.950 . S
C564 N560 1.332 . S
C564 C563 1.382 . S
C564 H566 0.952 . S
C565 N560 1.332 . S
C565 C561 1.382 . S
C565 H567 0.948 . S
H566 C564 0.952 . S
H567 C565 0.948 . S
H568 C557 0.952 . S
H569 C559 0.948 . S
C570 C536 1.395 . S
C570 C540 1.391 1_455 S
C571 C533 1.389 . S
C571 C553 1.392 . S
C572 C543 1.392 . S
C572 C545 1.389 . S
C573 C548 1.395 . S
C573 C550 1.391 . S
H574 C534 0.951 . S
H575 C535 0.950 . S
H576 C541 0.949 . S
H577 C542 0.950 . S
H578 C546 0.951 . S
H579 C547 0.950 . S
H580 C551 0.949 . S
H581 C552 0.950 . S
H582 C556 0.950 . S
H583 C558 0.950 . S
H584 C561 0.950 . S
H585 C563 0.950 . S
C586 C587 1.443 . S
C586 N590 1.376 . S
C586 C624 1.389 . S
C587 C586 1.443 . S
C587 C588 1.340 . S
C587 H627 0.951 . S
C588 C587 1.340 . S
C588 C589 1.439 . S
C588 H628 0.950 . S
C589 C588 1.439 . S
C589 N590 1.374 . S
C589 C623 1.395 1_565 S
N590 C586 1.376 . S
N590 C589 1.374 . S
N590 Co591 2.008 1_565 S
Co591 N590 2.008 1_545 S
Co591 N592 1.995 . S
Co591 N597 2.008 . S
Co591 N602 1.995 1_545 S
Co591 N607 2.282 . S
Co591 N613 2.282 1_545 S
N592 Co591 1.995 . S
N592 C593 1.376 . S
N592 C596 1.383 . S
C593 N592 1.376 . S
C593 C594 1.446 . S
C593 C623 1.391 . S
C594 C593 1.446 . S
C594 C595 1.339 . S
C594 H629 0.949 . S
C595 C594 1.339 . S
C595 C596 1.439 . S
C595 H630 0.950 . S
C596 N592 1.383 . S
C596 C595 1.439 . S
C596 C625 1.392 . S
N597 Co591 2.008 . S
N597 C598 1.376 . S
N597 C601 1.374 . S
C598 N597 1.376 . S
C598 C599 1.443 . S
C598 C625 1.389 . S
C599 C598 1.443 . S
C599 C600 1.340 . S
C599 H631 0.951 . S
C600 C599 1.340 . S
C600 C601 1.439 . S
C600 H632 0.950 . S
C601 N597 1.374 . S
C601 C600 1.439 . S
C601 C626 1.395 . S
N602 Co591 1.995 1_565 S
N602 C603 1.376 . S
N602 C606 1.383 . S
C603 N602 1.376 . S
C603 C604 1.446 . S
C603 C626 1.391 1_565 S
C604 C603 1.446 . S
C604 C605 1.339 . S
C604 H633 0.949 . S
C605 C604 1.339 . S
C605 C606 1.439 . S
C605 H634 0.950 . S
C606 N602 1.383 . S
C606 C605 1.439 . S
C606 C624 1.392 . S
N607 Co591 2.282 . S
N607 C610 1.332 . S
N607 C612 1.332 . S
C608 C609 1.386 . S
C608 C611 1.388 . S
C609 C608 1.386 . S
C609 C610 1.382 . S
C609 H635 0.950 . S
C610 N607 1.332 . S
C610 C609 1.382 . S
C610 H621 0.952 . S
C611 C608 1.388 . S
C611 C612 1.382 . S
C611 H636 0.950 . S
C612 N607 1.332 . S
C612 C611 1.382 . S
C612 H622 0.948 . S
N613 Co591 2.282 1_565 S
N613 C617 1.332 . S
N613 C618 1.332 . S
C614 C615 1.388 . S
C614 C618 1.382 . S
C614 H637 0.950 . S
C615 C614 1.388 . S
C615 C616 1.386 . S
C616 C615 1.386 . S
C616 C617 1.382 . S
C616 H638 0.950 . S
C617 N613 1.332 . S
C617 C616 1.382 . S
C617 H619 0.952 . S
C618 N613 1.332 . S
C618 C614 1.382 . S
C618 H620 0.948 . S
H619 C617 0.952 . S
H620 C618 0.948 . S
H621 C610 0.952 . S
H622 C612 0.948 . S
C623 C589 1.395 1_545 S
C623 C593 1.391 . S
C624 C586 1.389 . S
C624 C606 1.392 . S
C625 C596 1.392 . S
C625 C598 1.389 . S
C626 C601 1.395 . S
C626 C603 1.391 1_545 S
H627 C587 0.951 . S
H628 C588 0.950 . S
H629 C594 0.949 . S
H630 C595 0.950 . S
H631 C599 0.951 . S
H632 C600 0.950 . S
H633 C604 0.949 . S
H634 C605 0.950 . S
H635 C609 0.950 . S
H636 C611 0.950 . S
H637 C614 0.950 . S
H638 C616 0.950 . S
C639 C640 1.443 . S
C639 N643 1.376 . S
C639 C677 1.389 . S
C640 C639 1.443 . S
C640 C641 1.340 . S
C640 H680 0.951 . S
C641 C640 1.340 . S
C641 C642 1.439 . S
C641 H681 0.950 . S
C642 C641 1.439 . S
C642 N643 1.374 . S
C642 C676 1.395 . S
N643 C639 1.376 . S
N643 C642 1.374 . S
N643 Co644 2.008 . S
Co644 N643 2.008 . S
Co644 N645 1.995 1_554 S
Co644 N650 2.008 1_554 S
Co644 N655 1.995 . S
Co644 N660 2.282 1_554 S
Co644 N666 2.282 . S
N645 Co644 1.995 1_556 S
N645 C646 1.376 . S
N645 C649 1.383 . S
C646 N645 1.376 . S
C646 C647 1.446 . S
C646 C676 1.391 1_556 S
C647 C646 1.446 . S
C647 C648 1.339 . S
C647 H682 0.949 . S
C648 C647 1.339 . S
C648 C649 1.439 . S
C648 H683 0.950 . S
C649 N645 1.383 . S
C649 C648 1.439 . S
C649 C678 1.392 . S
N650 Co644 2.008 1_556 S
N650 C651 1.376 . S
N650 C654 1.374 . S
C651 N650 1.376 . S
C651 C652 1.443 . S
C651 C678 1.389 . S
C652 C651 1.443 . S
C652 C653 1.340 . S
C652 H684 0.951 . S
C653 C652 1.340 . S
C653 C654 1.439 . S
C653 H685 0.950 . S
C654 N650 1.374 . S
C654 C653 1.439 . S
C654 C679 1.395 1_556 S
N655 Co644 1.995 . S
N655 C656 1.376 . S
N655 C659 1.383 . S
C656 N655 1.376 . S
C656 C657 1.446 . S
C656 C679 1.391 . S
C657 C656 1.446 . S
C657 C658 1.339 . S
C657 H686 0.949 . S
C658 C657 1.339 . S
C658 C659 1.439 . S
C658 H687 0.950 . S
C659 N655 1.383 . S
C659 C658 1.439 . S
C659 C677 1.392 . S
N660 Co644 2.282 1_556 S
N660 C663 1.332 . S
N660 C665 1.332 . S
C661 C662 1.386 . S
C661 C664 1.388 . S
C662 C661 1.386 . S
C662 C663 1.382 . S
C662 H688 0.950 . S
C663 N660 1.332 . S
C663 C662 1.382 . S
C663 H674 0.952 . S
C664 C661 1.388 . S
C664 C665 1.382 . S
C664 H689 0.950 . S
C665 N660 1.332 . S
C665 C664 1.382 . S
C665 H675 0.948 . S
N666 Co644 2.282 . S
N666 C670 1.332 . S
N666 C671 1.332 . S
C667 C668 1.388 . S
C667 C671 1.382 . S
C667 H690 0.950 . S
C668 C667 1.388 . S
C668 C669 1.386 . S
C669 C668 1.386 . S
C669 C670 1.382 . S
C669 H691 0.950 . S
C670 N666 1.332 . S
C670 C669 1.382 . S
C670 H672 0.952 . S
C671 N666 1.332 . S
C671 C667 1.382 . S
C671 H673 0.948 . S
H672 C670 0.952 . S
H673 C671 0.948 . S
H674 C663 0.952 . S
H675 C665 0.948 . S
C676 C642 1.395 . S
C676 C646 1.391 1_554 S
C677 C639 1.389 . S
C677 C659 1.392 . S
C678 C649 1.392 . S
C678 C651 1.389 . S
C679 C654 1.395 1_554 S
C679 C656 1.391 . S
H680 C640 0.951 . S
H681 C641 0.950 . S
H682 C647 0.949 . S
H683 C648 0.950 . S
H684 C652 0.951 . S
H685 C653 0.950 . S
H686 C657 0.949 . S
H687 C658 0.950 . S
H688 C662 0.950 . S
H689 C664 0.950 . S
H690 C667 0.950 . S
H691 C669 0.950 . S
C692 C693 1.443 . S
C692 N696 1.376 1_565 S
C692 C730 1.389 . S
C693 C692 1.443 . S
C693 C694 1.340 . S
C693 H733 0.951 . S
C694 C693 1.340 . S
C694 C695 1.439 1_565 S
C694 H734 0.950 . S
C695 C694 1.439 1_545 S
C695 N696 1.374 . S
C695 C729 1.395 . S
N696 C692 1.376 1_545 S
N696 C695 1.374 . S
N696 Co697 2.008 . S
Co697 N696 2.008 . S
Co697 N698 1.995 . S
Co697 N703 2.008 . S
Co697 N708 1.995 . S
Co697 N713 2.282 . S
Co697 N719 2.282 1_545 S
N698 Co697 1.995 . S
N698 C699 1.376 . S
N698 C702 1.383 . S
C699 N698 1.376 . S
C699 C700 1.446 . S
C699 C729 1.391 . S
C700 C699 1.446 . S
C700 C701 1.339 . S
C700 H735 0.949 . S
C701 C700 1.339 . S
C701 C702 1.439 . S
C701 H736 0.950 . S
C702 N698 1.383 . S
C702 C701 1.439 . S
C702 C731 1.392 . S
N703 Co697 2.008 . S
N703 C704 1.376 . S
N703 C707 1.374 . S
C704 N703 1.376 . S
C704 C705 1.443 . S
C704 C731 1.389 . S
C705 C704 1.443 . S
C705 C706 1.340 . S
C705 H737 0.951 . S
C706 C705 1.340 . S
C706 C707 1.439 . S
C706 H738 0.950 . S
C707 N703 1.374 . S
C707 C706 1.439 . S
C707 C732 1.395 . S
N708 Co697 1.995 . S
N708 C709 1.376 . S
N708 C712 1.383 1_545 S
C709 N708 1.376 . S
C709 C710 1.446 1_545 S
C709 C732 1.391 . S
C710 C709 1.446 1_565 S
C710 C711 1.339 . S
C710 H739 0.949 . S
C711 C710 1.339 . S
C711 C712 1.439 . S
C711 H740 0.950 . S
C712 N708 1.383 1_565 S
C712 C711 1.439 . S
C712 C730 1.392 . S
N713 Co697 2.282 . S
N713 C716 1.332 . S
N713 C718 1.332 . S
C714 C715 1.386 . S
C714 C717 1.388 . S
C715 C714 1.386 . S
C715 C716 1.382 . S
C715 H741 0.950 . S
C716 N713 1.332 . S
C716 C715 1.382 . S
C716 H727 0.952 . S
C717 C714 1.388 . S
C717 C718 1.382 . S
C717 H742 0.950 . S
C718 N713 1.332 . S
C718 C717 1.382 . S
C718 H728 0.948 . S
N719 Co697 2.282 1_565 S
N719 C723 1.332 . S
N719 C724 1.332 . S
C720 C721 1.388 . S
C720 C724 1.382 . S
C720 H743 0.950 . S
C721 C720 1.388 . S
C721 C722 1.386 . S
C722 C721 1.386 . S
C722 C723 1.382 . S
C722 H744 0.950 . S
C723 N719 1.332 . S
C723 C722 1.382 . S
C723 H725 0.952 . S
C724 N719 1.332 . S
C724 C720 1.382 . S
C724 H726 0.948 . S
H725 C723 0.952 . S
H726 C724 0.948 . S
H727 C716 0.952 . S
H728 C718 0.948 . S
C729 C695 1.395 . S
C729 C699 1.391 . S
C730 C692 1.389 . S
C730 C712 1.392 . S
C731 C702 1.392 . S
C731 C704 1.389 . S
C732 C707 1.395 . S
C732 C709 1.391 . S
H733 C693 0.951 . S
H734 C694 0.950 . S
H735 C700 0.949 . S
H736 C701 0.950 . S
H737 C705 0.951 . S
H738 C706 0.950 . S
H739 C710 0.949 . S
H740 C711 0.950 . S
H741 C715 0.950 . S
H742 C717 0.950 . S
H743 C720 0.950 . S
H744 C722 0.950 . S
C745 C746 1.443 . S
C745 N749 1.376 . S
C745 C783 1.389 . S
C746 C745 1.443 . S
C746 C747 1.340 . S
C746 H786 0.951 . S
C747 C746 1.340 . S
C747 C748 1.439 . S
C747 H787 0.950 . S
C748 C747 1.439 . S
C748 N749 1.374 . S
C748 C782 1.395 . S
N749 C745 1.376 . S
N749 C748 1.374 . S
N749 Co750 2.008 . S
Co750 N749 2.008 . S
Co750 N751 1.995 . S
Co750 N756 2.023 . S
Co750 N761 1.995 . S
Co750 N766 2.282 1_554 S
Co750 N772 2.282 . S
N751 Co750 1.995 . S
N751 C752 1.376 . S
N751 C755 1.383 1_554 S
C752 N751 1.376 . S
C752 C753 1.446 1_554 S
C752 C782 1.391 . S
C753 C752 1.446 1_556 S
C753 C754 1.339 . S
C753 H788 0.949 . S
C754 C753 1.339 . S
C754 C755 1.439 . S
C754 H789 0.950 . S
C755 N751 1.383 1_556 S
C755 C754 1.439 . S
C755 C784 1.392 . S
N756 Co750 2.023 . S
N756 C757 1.355 1_554 S
N756 C760 1.374 . S
C757 N756 1.355 1_556 S
C757 C758 1.443 . S
C757 C784 1.389 . S
C758 C757 1.443 . S
C758 C759 1.340 . S
C758 H790 0.951 . S
C759 C758 1.340 . S
C759 C760 1.439 1_556 S
C759 H791 0.950 . S
C760 N756 1.374 . S
C760 C759 1.439 1_554 S
C760 C785 1.395 . S
N761 Co750 1.995 . S
N761 C762 1.376 . S
N761 C765 1.383 . S
C762 N761 1.376 . S
C762 C763 1.446 . S
C762 C785 1.391 . S
C763 C762 1.446 . S
C763 C764 1.339 . S
C763 H792 0.949 . S
C764 C763 1.339 . S
C764 C765 1.439 . S
C764 H793 0.950 . S
C765 N761 1.383 . S
C765 C764 1.439 . S
C765 C783 1.392 . S
N766 Co750 2.282 1_556 S
N766 C769 1.332 . S
N766 C771 1.332 . S
C767 C768 1.386 . S
C767 C770 1.388 . S
C768 C767 1.386 . S
C768 C769 1.382 . S
C768 H794 0.950 . S
C769 N766 1.332 . S
C769 C768 1.382 . S
C769 H780 0.952 . S
C770 C767 1.388 . S
C770 C771 1.382 . S
C770 H795 0.950 . S
C771 N766 1.332 . S
C771 C770 1.382 . S
C771 H781 0.948 . S
N772 Co750 2.282 . S
N772 C776 1.332 . S
N772 C777 1.332 . S
C773 C774 1.388 . S
C773 C777 1.382 . S
C773 H796 0.950 . S
C774 C773 1.388 . S
C774 C775 1.386 . S
C775 C774 1.386 . S
C775 C776 1.382 . S
C775 H797 0.950 . S
C776 N772 1.332 . S
C776 C775 1.382 . S
C776 H778 0.952 . S
C777 N772 1.332 . S
C777 C773 1.382 . S
C777 H779 0.948 . S
H778 C776 0.952 . S
H779 C777 0.948 . S
H780 C769 0.952 . S
H781 C771 0.948 . S
C782 C748 1.395 . S
C782 C752 1.391 . S
C783 C745 1.389 . S
C783 C765 1.392 . S
C784 C755 1.392 . S
C784 C757 1.389 . S
C785 C760 1.395 . S
C785 C762 1.391 . S
H786 C746 0.951 . S
H787 C747 0.950 . S
H788 C753 0.949 . S
H789 C754 0.950 . S
H790 C758 0.951 . S
H791 C759 0.950 . S
H792 C763 0.949 . S
H793 C764 0.950 . S
H794 C768 0.950 . S
H795 C770 0.950 . S
H796 C773 0.950 . S
H797 C775 0.950 . S
H798 C806 0.950 . S
H799 C811 0.950 . S
H800 C808 0.950 . S
H801 C810 0.950 . S
H802 C812 0.950 . S
H803 C814 0.950 . S
H804 C816 0.950 . S
H805 C817 0.950 . S
C806 H798 0.950 . S
C806 C807 1.386 . S
C806 C808 1.391 . S
C807 C806 1.386 . S
C807 C811 1.393 . S
C808 H800 0.950 . S
C808 C806 1.391 . S
C808 C809 1.400 . S
C809 C808 1.400 . S
C809 C810 1.398 . S
C809 C815 1.491 . S
C810 H801 0.950 . S
C810 C809 1.398 . S
C810 C811 1.391 . S
C811 H799 0.950 . S
C811 C807 1.393 . S
C811 C810 1.391 . S
C812 H802 0.950 . S
C812 C813 1.386 . S
C812 C814 1.391 . S
C813 C812 1.386 . S
C813 C817 1.393 . S
C814 H803 0.950 . S
C814 C812 1.391 . S
C814 C815 1.400 . S
C815 C809 1.491 . S
C815 C814 1.400 . S
C815 C816 1.398 . S
C816 H804 0.950 . S
C816 C815 1.398 . S
C816 C817 1.391 . S
C817 H805 0.950 . S
C817 C813 1.393 . S
C817 C816 1.391 . S
H818 C826 0.950 . S
H819 C831 0.950 . S
H820 C828 0.950 . S
H821 C830 0.950 . S
H822 C832 0.950 . S
H823 C834 0.950 . S
H824 C836 0.950 . S
H825 C837 0.950 . S
C826 H818 0.950 . S
C826 C827 1.386 . S
C826 C828 1.391 . S
C827 C826 1.386 . S
C827 C831 1.393 . S
C828 H820 0.950 . S
C828 C826 1.391 . S
C828 C829 1.400 . S
C829 C828 1.400 . S
C829 C830 1.398 . S
C829 C835 1.491 . S
C830 H821 0.950 . S
C830 C829 1.398 . S
C830 C831 1.391 . S
C831 H819 0.950 . S
C831 C827 1.393 . S
C831 C830 1.391 . S
C832 H822 0.950 . S
C832 C833 1.386 . S
C832 C834 1.391 . S
C833 C832 1.386 . S
C833 C837 1.393 . S
C834 H823 0.950 . S
C834 C832 1.391 . S
C834 C835 1.400 . S
C835 C829 1.491 . S
C835 C834 1.400 . S
C835 C836 1.398 . S
C836 H824 0.950 . S
C836 C835 1.398 . S
C836 C837 1.391 . S
C837 H825 0.950 . S
C837 C833 1.393 . S
C837 C836 1.391 . S
H838 C846 0.950 . S
H839 C851 0.950 . S
H840 C848 0.950 . S
H841 C850 0.950 . S
H842 C852 0.950 . S
H843 C854 0.950 . S
H844 C856 0.950 . S
H845 C857 0.950 . S
C846 H838 0.950 . S
C846 C847 1.386 . S
C846 C848 1.391 . S
C847 C846 1.386 . S
C847 C851 1.393 . S
C848 H840 0.950 . S
C848 C846 1.391 . S
C848 C849 1.400 . S
C849 C848 1.400 . S
C849 C850 1.398 . S
C849 C855 1.491 . S
C850 H841 0.950 . S
C850 C849 1.398 . S
C850 C851 1.391 . S
C851 H839 0.950 . S
C851 C847 1.393 . S
C851 C850 1.391 . S
C852 H842 0.950 . S
C852 C853 1.386 . S
C852 C854 1.391 . S
C853 C852 1.386 . S
C853 C857 1.393 . S
C854 H843 0.950 . S
C854 C852 1.391 . S
C854 C855 1.400 . S
C855 C849 1.491 . S
C855 C854 1.400 . S
C855 C856 1.398 . S
C856 H844 0.950 . S
C856 C855 1.398 . S
C856 C857 1.391 . S
C857 H845 0.950 . S
C857 C853 1.393 . S
C857 C856 1.391 . S
H858 C866 0.950 . S
H859 C871 0.950 . S
H860 C868 0.950 . S
H861 C870 0.950 . S
H862 C872 0.950 . S
H863 C874 0.950 . S
H864 C876 0.950 . S
H865 C877 0.950 . S
C866 H858 0.950 . S
C866 C867 1.386 . S
C866 C868 1.391 . S
C867 C866 1.386 . S
C867 C871 1.393 . S
C868 H860 0.950 . S
C868 C866 1.391 . S
C868 C869 1.400 . S
C869 C868 1.400 . S
C869 C870 1.398 . S
C869 C875 1.491 . S
C870 H861 0.950 . S
C870 C869 1.398 . S
C870 C871 1.391 . S
C871 H859 0.950 . S
C871 C867 1.393 . S
C871 C870 1.391 . S
C872 H862 0.950 . S
C872 C873 1.386 . S
C872 C874 1.391 . S
C873 C872 1.386 . S
C873 C877 1.393 . S
C874 H863 0.950 . S
C874 C872 1.391 . S
C874 C875 1.400 . S
C875 C869 1.491 . S
C875 C874 1.400 . S
C875 C876 1.398 . S
C876 H864 0.950 . S
C876 C875 1.398 . S
C876 C877 1.391 . S
C877 H865 0.950 . S
C877 C873 1.393 . S
C877 C876 1.391 . S
H878 C886 0.950 . S
H879 C891 0.950 . S
H880 C888 0.950 . S
H881 C890 0.950 . S
H882 C892 0.950 . S
H883 C894 0.950 . S
H884 C896 0.950 . S
H885 C897 0.950 . S
C886 H878 0.950 . S
C886 C887 1.386 . S
C886 C888 1.391 . S
C887 C886 1.386 . S
C887 C891 1.393 . S
C888 H880 0.950 . S
C888 C886 1.391 . S
C888 C889 1.400 . S
C889 C888 1.400 . S
C889 C890 1.398 . S
C889 C895 1.491 . S
C890 H881 0.950 . S
C890 C889 1.398 . S
C890 C891 1.391 . S
C891 H879 0.950 . S
C891 C887 1.393 . S
C891 C890 1.391 . S
C892 H882 0.950 . S
C892 C893 1.386 . S
C892 C894 1.391 . S
C893 C892 1.386 . S
C893 C897 1.393 . S
C894 H883 0.950 . S
C894 C892 1.391 . S
C894 C895 1.400 . S
C895 C889 1.491 . S
C895 C894 1.400 . S
C895 C896 1.398 . S
C896 H884 0.950 . S
C896 C895 1.398 . S
C896 C897 1.391 . S
C897 H885 0.950 . S
C897 C893 1.393 . S
C897 C896 1.391 . S
H898 C906 0.950 . S
H899 C911 0.950 . S
H900 C908 0.950 . S
H901 C910 0.950 . S
H902 C912 0.950 . S
H903 C914 0.950 . S
H904 C916 0.950 . S
H905 C917 0.950 . S
C906 H898 0.950 . S
C906 C907 1.386 . S
C906 C908 1.391 . S
C907 C906 1.386 . S
C907 C911 1.393 . S
C908 H900 0.950 . S
C908 C906 1.391 . S
C908 C909 1.400 . S
C909 C908 1.400 . S
C909 C910 1.398 . S
C909 C915 1.491 . S
C910 H901 0.950 . S
C910 C909 1.398 . S
C910 C911 1.391 . S
C911 H899 0.950 . S
C911 C907 1.393 . S
C911 C910 1.391 . S
C912 H902 0.950 . S
C912 C913 1.386 . S
C912 C914 1.391 . S
C913 C912 1.386 . S
C913 C917 1.393 . S
C914 H903 0.950 . S
C914 C912 1.391 . S
C914 C915 1.400 . S
C915 C909 1.491 . S
C915 C914 1.400 . S
C915 C916 1.398 . S
C916 H904 0.950 . S
C916 C915 1.398 . S
C916 C917 1.391 . S
C917 H905 0.950 . S
C917 C913 1.393 . S
C917 C916 1.391 . S
H918 C926 0.950 . S
H919 C931 0.950 . S
H920 C928 0.950 . S
H921 C930 0.950 . S
H922 C932 0.950 . S
H923 C934 0.950 . S
H924 C936 0.950 . S
H925 C937 0.950 . S
C926 H918 0.950 . S
C926 C927 1.386 . S
C926 C928 1.391 . S
C927 C926 1.386 . S
C927 C931 1.393 . S
C928 H920 0.950 . S
C928 C926 1.391 . S
C928 C929 1.400 . S
C929 C928 1.400 . S
C929 C930 1.398 . S
C929 C935 1.491 . S
C930 H921 0.950 . S
C930 C929 1.398 . S
C930 C931 1.391 . S
C931 H919 0.950 . S
C931 C927 1.393 . S
C931 C930 1.391 . S
C932 H922 0.950 . S
C932 C933 1.386 . S
C932 C934 1.391 . S
C933 C932 1.386 . S
C933 C937 1.393 . S
C934 H923 0.950 . S
C934 C932 1.391 . S
C934 C935 1.400 . S
C935 C929 1.491 . S
C935 C934 1.400 . S
C935 C936 1.398 . S
C936 H924 0.950 . S
C936 C935 1.398 . S
C936 C937 1.391 . S
C937 H925 0.950 . S
C937 C933 1.393 . S
C937 C936 1.391 . S
H938 C946 0.950 . S
H939 C951 0.950 . S
H940 C948 0.950 . S
H941 C950 0.950 . S
H942 C952 0.950 . S
H943 C954 0.950 . S
H944 C956 0.950 . S
H945 C957 0.950 . S
C946 H938 0.950 . S
C946 C947 1.386 . S
C946 C948 1.391 . S
C947 C946 1.386 . S
C947 C951 1.393 . S
C948 H940 0.950 . S
C948 C946 1.391 . S
C948 C949 1.400 . S
C949 C948 1.400 . S
C949 C950 1.398 . S
C949 C955 1.491 . S
C950 H941 0.950 . S
C950 C949 1.398 . S
C950 C951 1.391 . S
C951 H939 0.950 . S
C951 C947 1.393 . S
C951 C950 1.391 . S
C952 H942 0.950 . S
C952 C953 1.386 . S
C952 C954 1.391 . S
C953 C952 1.386 . S
C953 C957 1.393 . S
C954 H943 0.950 . S
C954 C952 1.391 . S
C954 C955 1.400 . S
C955 C949 1.491 . S
C955 C954 1.400 . S
C955 C956 1.398 . S
C956 H944 0.950 . S
C956 C955 1.398 . S
C956 C957 1.391 . S
C957 H945 0.950 . S
C957 C953 1.393 . S
C957 C956 1.391 . S
H958 C966 0.950 . S
H959 C971 0.950 . S
H960 C968 0.950 . S
H961 C970 0.950 . S
H962 C972 0.950 . S
H963 C974 0.950 . S
H964 C976 0.950 . S
H965 C977 0.950 . S
C966 H958 0.950 . S
C966 C967 1.386 . S
C966 C968 1.391 . S
C967 C966 1.386 . S
C967 C971 1.393 . S
C968 H960 0.950 . S
C968 C966 1.391 . S
C968 C969 1.400 . S
C969 C968 1.400 . S
C969 C970 1.398 . S
C969 C975 1.491 . S
C970 H961 0.950 . S
C970 C969 1.398 . S
C970 C971 1.391 . S
C971 H959 0.950 . S
C971 C967 1.393 . S
C971 C970 1.391 . S
C972 H962 0.950 . S
C972 C973 1.386 . S
C972 C974 1.391 . S
C973 C972 1.386 . S
C973 C977 1.393 . S
C974 H963 0.950 . S
C974 C972 1.391 . S
C974 C975 1.400 . S
C975 C969 1.491 . S
C975 C974 1.400 . S
C975 C976 1.398 . S
C976 H964 0.950 . S
C976 C975 1.398 . S
C976 C977 1.391 . S
C977 H965 0.950 . S
C977 C973 1.393 . S
C977 C976 1.391 . S
H978 C986 0.950 . S
H979 C991 0.950 . S
H980 C988 0.950 . S
H981 C990 0.950 . S
H982 C992 0.950 . S
H983 C994 0.950 . S
H984 C996 0.950 . S
H985 C997 0.950 . S
C986 H978 0.950 . S
C986 C987 1.386 . S
C986 C988 1.391 . S
C987 C986 1.386 . S
C987 C991 1.393 . S
C988 H980 0.950 . S
C988 C986 1.391 . S
C988 C989 1.400 . S
C989 C988 1.400 . S
C989 C990 1.398 . S
C989 C995 1.491 . S
C990 H981 0.950 . S
C990 C989 1.398 . S
C990 C991 1.391 . S
C991 H979 0.950 . S
C991 C987 1.393 . S
C991 C990 1.391 . S
C992 H982 0.950 . S
C992 C993 1.386 . S
C992 C994 1.391 . S
C993 C992 1.386 . S
C993 C997 1.393 . S
C994 H983 0.950 . S
C994 C992 1.391 . S
C994 C995 1.400 . S
C995 C989 1.491 . S
C995 C994 1.400 . S
C995 C996 1.398 . S
C996 H984 0.950 . S
C996 C995 1.398 . S
C996 C997 1.391 . S
C997 H985 0.950 . S
C997 C993 1.393 . S
C997 C996 1.391 . S
H998 C1006 0.950 . S
H999 C1011 0.950 . S
H1000 C1008 0.950 . S
H1001 C1010 0.950 . S
H1002 C1012 0.950 . S
H1003 C1014 0.950 . S
H1004 C1016 0.950 . S
H1005 C1017 0.950 . S
C1006 H998 0.950 . S
C1006 C1007 1.386 . S
C1006 C1008 1.391 . S
C1007 C1006 1.386 . S
C1007 C1011 1.393 . S
C1008 H1000 0.950 . S
C1008 C1006 1.391 . S
C1008 C1009 1.400 . S
C1009 C1008 1.400 . S
C1009 C1010 1.398 . S
C1009 C1015 1.491 . S
C1010 H1001 0.950 . S
C1010 C1009 1.398 . S
C1010 C1011 1.391 . S
C1011 H999 0.950 . S
C1011 C1007 1.393 . S
C1011 C1010 1.391 . S
C1012 H1002 0.950 . S
C1012 C1013 1.386 . S
C1012 C1014 1.391 . S
C1013 C1012 1.386 . S
C1013 C1017 1.393 . S
C1014 H1003 0.950 . S
C1014 C1012 1.391 . S
C1014 C1015 1.400 . S
C1015 C1009 1.491 . S
C1015 C1014 1.400 . S
C1015 C1016 1.398 . S
C1016 H1004 0.950 . S
C1016 C1015 1.398 . S
C1016 C1017 1.391 . S
C1017 H1005 0.950 . S
C1017 C1013 1.393 . S
C1017 C1016 1.391 . S
H1018 C1026 0.950 . S
H1019 C1031 0.950 . S
H1020 C1028 0.950 . S
H1021 C1030 0.950 . S
H1022 C1032 0.950 . S
H1023 C1034 0.950 . S
H1024 C1036 0.950 . S
H1025 C1037 0.950 . S
C1026 H1018 0.950 . S
C1026 C1027 1.386 . S
C1026 C1028 1.391 . S
C1027 C1026 1.386 . S
C1027 C1031 1.393 . S
C1028 H1020 0.950 . S
C1028 C1026 1.391 . S
C1028 C1029 1.400 . S
C1029 C1028 1.400 . S
C1029 C1030 1.398 . S
C1029 C1035 1.491 . S
C1030 H1021 0.950 . S
C1030 C1029 1.398 . S
C1030 C1031 1.391 . S
C1031 H1019 0.950 . S
C1031 C1027 1.393 . S
C1031 C1030 1.391 . S
C1032 H1022 0.950 . S
C1032 C1033 1.386 . S
C1032 C1034 1.391 . S
C1033 C1032 1.386 . S
C1033 C1037 1.393 . S
C1034 H1023 0.950 . S
C1034 C1032 1.391 . S
C1034 C1035 1.400 . S
C1035 C1029 1.491 . S
C1035 C1034 1.400 . S
C1035 C1036 1.398 . S
C1036 H1024 0.950 . S
C1036 C1035 1.398 . S
C1036 C1037 1.391 . S
C1037 H1025 0.950 . S
C1037 C1033 1.393 . S
C1037 C1036 1.391 . S
H1038 C1046 0.950 . S
H1039 C1051 0.950 . S
H1040 C1048 0.950 . S
H1041 C1050 0.950 . S
H1042 C1052 0.950 . S
H1043 C1054 0.950 . S
H1044 C1056 0.950 . S
H1045 C1057 0.950 . S
C1046 H1038 0.950 . S
C1046 C1047 1.386 . S
C1046 C1048 1.391 . S
C1047 C1046 1.386 . S
C1047 C1051 1.393 . S
C1048 H1040 0.950 . S
C1048 C1046 1.391 . S
C1048 C1049 1.400 . S
C1049 C1048 1.400 . S
C1049 C1050 1.398 . S
C1049 C1055 1.491 . S
C1050 H1041 0.950 . S
C1050 C1049 1.398 . S
C1050 C1051 1.391 . S
C1051 H1039 0.950 . S
C1051 C1047 1.393 . S
C1051 C1050 1.391 . S
C1052 H1042 0.950 . S
C1052 C1053 1.386 . S
C1052 C1054 1.391 . S
C1053 C1052 1.386 . S
C1053 C1057 1.393 . S
C1054 H1043 0.950 . S
C1054 C1052 1.391 . S
C1054 C1055 1.400 . S
C1055 C1049 1.491 . S
C1055 C1054 1.400 . S
C1055 C1056 1.398 . S
C1056 H1044 0.950 . S
C1056 C1055 1.398 . S
C1056 C1057 1.391 . S
C1057 H1045 0.950 . S
C1057 C1053 1.393 . S
C1057 C1056 1.391 . S
H1058 C1066 0.950 . S
H1059 C1071 0.950 . S
H1060 C1068 0.950 . S
H1061 C1070 0.950 . S
H1062 C1072 0.950 . S
H1063 C1074 0.950 . S
H1064 C1076 0.950 . S
H1065 C1077 0.950 . S
C1066 H1058 0.950 . S
C1066 C1067 1.386 . S
C1066 C1068 1.391 . S
C1067 C1066 1.386 . S
C1067 C1071 1.393 . S
C1068 H1060 0.950 . S
C1068 C1066 1.391 . S
C1068 C1069 1.400 . S
C1069 C1068 1.400 . S
C1069 C1070 1.398 . S
C1069 C1075 1.491 . S
C1070 H1061 0.950 . S
C1070 C1069 1.398 . S
C1070 C1071 1.391 . S
C1071 H1059 0.950 . S
C1071 C1067 1.393 . S
C1071 C1070 1.391 . S
C1072 H1062 0.950 . S
C1072 C1073 1.386 . S
C1072 C1074 1.391 . S
C1073 C1072 1.386 . S
C1073 C1077 1.393 . S
C1074 H1063 0.950 . S
C1074 C1072 1.391 . S
C1074 C1075 1.400 . S
C1075 C1069 1.491 . S
C1075 C1074 1.400 . S
C1075 C1076 1.398 . S
C1076 H1064 0.950 . S
C1076 C1075 1.398 . S
C1076 C1077 1.391 . S
C1077 H1065 0.950 . S
C1077 C1073 1.393 . S
C1077 C1076 1.391 . S
H1078 C1086 0.950 . S
H1079 C1091 0.950 . S
H1080 C1088 0.950 . S
H1081 C1090 0.950 . S
H1082 C1092 0.950 . S
H1083 C1094 0.950 . S
H1084 C1096 0.950 . S
H1085 C1097 0.950 . S
C1086 H1078 0.950 . S
C1086 C1087 1.386 . S
C1086 C1088 1.391 . S
C1087 C1086 1.386 . S
C1087 C1091 1.393 . S
C1088 H1080 0.950 . S
C1088 C1086 1.391 . S
C1088 C1089 1.400 . S
C1089 C1088 1.400 . S
C1089 C1090 1.398 . S
C1089 C1095 1.491 . S
C1090 H1081 0.950 . S
C1090 C1089 1.398 . S
C1090 C1091 1.391 . S
C1091 H1079 0.950 . S
C1091 C1087 1.393 . S
C1091 C1090 1.391 . S
C1092 H1082 0.950 . S
C1092 C1093 1.386 . S
C1092 C1094 1.391 . S
C1093 C1092 1.386 . S
C1093 C1097 1.393 . S
C1094 H1083 0.950 . S
C1094 C1092 1.391 . S
C1094 C1095 1.400 . S
C1095 C1089 1.491 . S
C1095 C1094 1.400 . S
C1095 C1096 1.398 . S
C1096 H1084 0.950 . S
C1096 C1095 1.398 . S
C1096 C1097 1.391 . S
C1097 H1085 0.950 . S
C1097 C1093 1.393 . S
C1097 C1096 1.391 . S
H1098 C1106 0.950 . S
H1099 C1111 0.950 . S
H1100 C1108 0.950 . S
H1101 C1110 0.950 . S
H1102 C1112 0.950 . S
H1103 C1114 0.950 . S
H1104 C1116 0.950 . S
H1105 C1117 0.950 . S
C1106 H1098 0.950 . S
C1106 C1107 1.386 . S
C1106 C1108 1.391 . S
C1107 C1106 1.386 . S
C1107 C1111 1.393 . S
C1108 H1100 0.950 . S
C1108 C1106 1.391 . S
C1108 C1109 1.400 . S
C1109 C1108 1.400 . S
C1109 C1110 1.398 . S
C1109 C1115 1.491 . S
C1110 H1101 0.950 . S
C1110 C1109 1.398 . S
C1110 C1111 1.391 . S
C1111 H1099 0.950 . S
C1111 C1107 1.393 . S
C1111 C1110 1.391 . S
C1112 H1102 0.950 . S
C1112 C1113 1.386 . S
C1112 C1114 1.391 . S
C1113 C1112 1.386 . S
C1113 C1117 1.393 . S
C1114 H1103 0.950 . S
C1114 C1112 1.391 . S
C1114 C1115 1.400 . S
C1115 C1109 1.491 . S
C1115 C1114 1.400 . S
C1115 C1116 1.398 . S
C1116 H1104 0.950 . S
C1116 C1115 1.398 . S
C1116 C1117 1.391 . S
C1117 H1105 0.950 . S
C1117 C1113 1.393 . S
C1117 C1116 1.391 . S
H1118 C1126 0.950 . S
H1119 C1131 0.950 . S
H1120 C1128 0.950 . S
H1121 C1130 0.950 . S
H1122 C1132 0.950 . S
H1123 C1134 0.950 . S
H1124 C1136 0.950 . S
H1125 C1137 0.950 . S
C1126 H1118 0.950 . S
C1126 C1127 1.386 . S
C1126 C1128 1.391 . S
C1127 C1126 1.386 . S
C1127 C1131 1.393 . S
C1128 H1120 0.950 . S
C1128 C1126 1.391 . S
C1128 C1129 1.400 . S
C1129 C1128 1.400 . S
C1129 C1130 1.398 . S
C1129 C1135 1.491 . S
C1130 H1121 0.950 . S
C1130 C1129 1.398 . S
C1130 C1131 1.391 . S
C1131 H1119 0.950 . S
C1131 C1127 1.393 . S
C1131 C1130 1.391 . S
C1132 H1122 0.950 . S
C1132 C1133 1.386 . S
C1132 C1134 1.391 . S
C1133 C1132 1.386 . S
C1133 C1137 1.393 . S
C1134 H1123 0.950 . S
C1134 C1132 1.391 . S
C1134 C1135 1.400 . S
C1135 C1129 1.491 . S
C1135 C1134 1.400 . S
C1135 C1136 1.398 . S
C1136 H1124 0.950 . S
C1136 C1135 1.398 . S
C1136 C1137 1.391 . S
C1137 H1125 0.950 . S
C1137 C1133 1.393 . S
C1137 C1136 1.391 . S
H1138 C1146 0.950 . S
H1139 C1151 0.950 . S
H1140 C1148 0.950 . S
H1141 C1150 0.950 . S
H1142 C1152 0.950 . S
H1143 C1154 0.950 . S
H1144 C1156 0.950 . S
H1145 C1157 0.950 . S
C1146 H1138 0.950 . S
C1146 C1147 1.386 . S
C1146 C1148 1.391 . S
C1147 C1146 1.386 . S
C1147 C1151 1.393 . S
C1148 H1140 0.950 . S
C1148 C1146 1.391 . S
C1148 C1149 1.400 . S
C1149 C1148 1.400 . S
C1149 C1150 1.398 . S
C1149 C1155 1.491 . S
C1150 H1141 0.950 . S
C1150 C1149 1.398 . S
C1150 C1151 1.391 . S
C1151 H1139 0.950 . S
C1151 C1147 1.393 . S
C1151 C1150 1.391 . S
C1152 H1142 0.950 . S
C1152 C1153 1.386 . S
C1152 C1154 1.391 . S
C1153 C1152 1.386 . S
C1153 C1157 1.393 . S
C1154 H1143 0.950 . S
C1154 C1152 1.391 . S
C1154 C1155 1.400 . S
C1155 C1149 1.491 . S
C1155 C1154 1.400 . S
C1155 C1156 1.398 . S
C1156 H1144 0.950 . S
C1156 C1155 1.398 . S
C1156 C1157 1.391 . S
C1157 H1145 0.950 . S
C1157 C1153 1.393 . S
C1157 C1156 1.391 . S
H1158 C1166 0.950 . S
H1159 C1171 0.950 . S
H1160 C1168 0.950 . S
H1161 C1170 0.950 . S
H1162 C1172 0.950 . S
H1163 C1174 0.950 . S
H1164 C1176 0.950 . S
H1165 C1177 0.950 . S
C1166 H1158 0.950 . S
C1166 C1167 1.386 . S
C1166 C1168 1.391 . S
C1167 C1166 1.386 . S
C1167 C1171 1.393 . S
C1168 H1160 0.950 . S
C1168 C1166 1.391 . S
C1168 C1169 1.400 . S
C1169 C1168 1.400 . S
C1169 C1170 1.398 . S
C1169 C1175 1.491 . S
C1170 H1161 0.950 . S
C1170 C1169 1.398 . S
C1170 C1171 1.391 . S
C1171 H1159 0.950 . S
C1171 C1167 1.393 . S
C1171 C1170 1.391 . S
C1172 H1162 0.950 . S
C1172 C1173 1.386 . S
C1172 C1174 1.391 . S
C1173 C1172 1.386 . S
C1173 C1177 1.393 . S
C1174 H1163 0.950 . S
C1174 C1172 1.391 . S
C1174 C1175 1.400 . S
C1175 C1169 1.491 . S
C1175 C1174 1.400 . S
C1175 C1176 1.398 . S
C1176 H1164 0.950 . S
C1176 C1175 1.398 . S
C1176 C1177 1.391 . S
C1177 H1165 0.950 . S
C1177 C1173 1.393 . S
C1177 C1176 1.391 . S
H1178 C1186 0.950 . S
H1179 C1191 0.950 . S
H1180 C1188 0.950 . S
H1181 C1190 0.950 . S
H1182 C1192 0.950 . S
H1183 C1194 0.950 . S
H1184 C1196 0.950 . S
H1185 C1197 0.950 . S
C1186 H1178 0.950 . S
C1186 C1187 1.386 . S
C1186 C1188 1.391 . S
C1187 C1186 1.386 . S
C1187 C1191 1.393 . S
C1188 H1180 0.950 . S
C1188 C1186 1.391 . S
C1188 C1189 1.400 . S
C1189 C1188 1.400 . S
C1189 C1190 1.398 . S
C1189 C1195 1.491 . S
C1190 H1181 0.950 . S
C1190 C1189 1.398 . S
C1190 C1191 1.391 . S
C1191 H1179 0.950 . S
C1191 C1187 1.393 . S
C1191 C1190 1.391 . S
C1192 H1182 0.950 . S
C1192 C1193 1.386 . S
C1192 C1194 1.391 . S
C1193 C1192 1.386 . S
C1193 C1197 1.393 . S
C1194 H1183 0.950 . S
C1194 C1192 1.391 . S
C1194 C1195 1.400 . S
C1195 C1189 1.491 . S
C1195 C1194 1.400 . S
C1195 C1196 1.398 . S
C1196 H1184 0.950 . S
C1196 C1195 1.398 . S
C1196 C1197 1.391 . S
C1197 H1185 0.950 . S
C1197 C1193 1.393 . S
C1197 C1196 1.391 . S
H1198 C1206 0.950 . S
H1199 C1211 0.950 . S
H1200 C1208 0.950 . S
H1201 C1210 0.950 . S
H1202 C1212 0.950 . S
H1203 C1214 0.950 . S
H1204 C1216 0.950 . S
H1205 C1217 0.950 . S
C1206 H1198 0.950 . S
C1206 C1207 1.386 . S
C1206 C1208 1.391 . S
C1207 C1206 1.386 . S
C1207 C1211 1.393 . S
C1208 H1200 0.950 . S
C1208 C1206 1.391 . S
C1208 C1209 1.400 . S
C1209 C1208 1.400 . S
C1209 C1210 1.398 . S
C1209 C1215 1.491 . S
C1210 H1201 0.950 . S
C1210 C1209 1.398 . S
C1210 C1211 1.391 . S
C1211 H1199 0.950 . S
C1211 C1207 1.393 . S
C1211 C1210 1.391 . S
C1212 H1202 0.950 . S
C1212 C1213 1.386 . S
C1212 C1214 1.391 . S
C1213 C1212 1.386 . S
C1213 C1217 1.393 . S
C1214 H1203 0.950 . S
C1214 C1212 1.391 . S
C1214 C1215 1.400 . S
C1215 C1209 1.491 . S
C1215 C1214 1.400 . S
C1215 C1216 1.398 . S
C1216 H1204 0.950 . S
C1216 C1215 1.398 . S
C1216 C1217 1.391 . S
C1217 H1205 0.950 . S
C1217 C1213 1.393 . S
C1217 C1216 1.391 . S
H1218 C1226 0.950 . S
H1219 C1231 0.950 . S
H1220 C1228 0.950 . S
H1221 C1230 0.950 . S
H1222 C1232 0.950 . S
H1223 C1234 0.950 . S
H1224 C1236 0.950 . S
H1225 C1237 0.950 . S
C1226 H1218 0.950 . S
C1226 C1227 1.386 . S
C1226 C1228 1.391 . S
C1227 C1226 1.386 . S
C1227 C1231 1.393 . S
C1228 H1220 0.950 . S
C1228 C1226 1.391 . S
C1228 C1229 1.400 . S
C1229 C1228 1.400 . S
C1229 C1230 1.398 . S
C1229 C1235 1.491 . S
C1230 H1221 0.950 . S
C1230 C1229 1.398 . S
C1230 C1231 1.391 . S
C1231 H1219 0.950 . S
C1231 C1227 1.393 . S
C1231 C1230 1.391 . S
C1232 H1222 0.950 . S
C1232 C1233 1.386 . S
C1232 C1234 1.391 . S
C1233 C1232 1.386 . S
C1233 C1237 1.393 . S
C1234 H1223 0.950 . S
C1234 C1232 1.391 . S
C1234 C1235 1.400 . S
C1235 C1229 1.491 . S
C1235 C1234 1.400 . S
C1235 C1236 1.398 . S
C1236 H1224 0.950 . S
C1236 C1235 1.398 . S
C1236 C1237 1.391 . S
C1237 H1225 0.950 . S
C1237 C1233 1.393 . S
C1237 C1236 1.391 . S
H1238 C1246 0.950 . S
H1239 C1251 0.950 . S
H1240 C1248 0.950 . S
H1241 C1250 0.950 . S
H1242 C1252 0.950 . S
H1243 C1254 0.950 . S
H1244 C1256 0.950 . S
H1245 C1257 0.950 . S
C1246 H1238 0.950 . S
C1246 C1247 1.386 . S
C1246 C1248 1.391 . S
C1247 C1246 1.386 . S
C1247 C1251 1.393 . S
C1248 H1240 0.950 . S
C1248 C1246 1.391 . S
C1248 C1249 1.400 . S
C1249 C1248 1.400 . S
C1249 C1250 1.398 . S
C1249 C1255 1.491 . S
C1250 H1241 0.950 . S
C1250 C1249 1.398 . S
C1250 C1251 1.391 . S
C1251 H1239 0.950 . S
C1251 C1247 1.393 . S
C1251 C1250 1.391 . S
C1252 H1242 0.950 . S
C1252 C1253 1.386 . S
C1252 C1254 1.391 . S
C1253 C1252 1.386 . S
C1253 C1257 1.393 . S
C1254 H1243 0.950 . S
C1254 C1252 1.391 . S
C1254 C1255 1.400 . S
C1255 C1249 1.491 . S
C1255 C1254 1.400 . S
C1255 C1256 1.398 . S
C1256 H1244 0.950 . S
C1256 C1255 1.398 . S
C1256 C1257 1.391 . S
C1257 H1245 0.950 . S
C1257 C1253 1.393 . S
C1257 C1256 1.391 . S
H1258 C1266 0.950 . S
H1259 C1271 0.950 . S
H1260 C1268 0.950 . S
H1261 C1270 0.950 . S
H1262 C1272 0.950 . S
H1263 C1274 0.950 . S
H1264 C1276 0.950 . S
H1265 C1277 0.950 . S
C1266 H1258 0.950 . S
C1266 C1267 1.386 . S
C1266 C1268 1.391 . S
C1267 C1266 1.386 . S
C1267 C1271 1.393 . S
C1268 H1260 0.950 . S
C1268 C1266 1.391 . S
C1268 C1269 1.400 . S
C1269 C1268 1.400 . S
C1269 C1270 1.398 . S
C1269 C1275 1.491 . S
C1270 H1261 0.950 . S
C1270 C1269 1.398 . S
C1270 C1271 1.391 . S
C1271 H1259 0.950 . S
C1271 C1267 1.393 . S
C1271 C1270 1.391 . S
C1272 H1262 0.950 . S
C1272 C1273 1.386 . S
C1272 C1274 1.391 . S
C1273 C1272 1.386 . S
C1273 C1277 1.393 . S
C1274 H1263 0.950 . S
C1274 C1272 1.391 . S
C1274 C1275 1.400 . S
C1275 C1269 1.491 . S
C1275 C1274 1.400 . S
C1275 C1276 1.398 . S
C1276 H1264 0.950 . S
C1276 C1275 1.398 . S
C1276 C1277 1.391 . S
C1277 H1265 0.950 . S
C1277 C1273 1.393 . S
C1277 C1276 1.391 . S
C813 C502 1.551 . S
C807 C31 1.524 . S
C833 C571 1.542 . S
C827 C61 1.519 . S
C853 C509 1.556 . S
C847 C121 1.529 . S
C873 C572 1.547 . S
C867 C211 1.535 . S
C893 C625 1.552 . S
C887 C1 1.549 . S
C913 C661 1.523 . S
C907 C91 1.509 . S
C927 C151 1.516 . S
C933 C721 1.552 . S
C953 C784 1.523 . S
C947 C181 1.493 . S
C973 C624 1.548 . S
C967 C80 1.543 . S
C987 C140 1.493 . S
C993 C668 1.524 . S
C1013 C714 1.553 . S
C1007 C200 1.514 . S
C1033 C783 1.531 . S
C1027 C20 1.508 . S
C1047 C271 1.540 . S
C1053 C562 1.558 . S
C1073 C519 1.550 . S
C1067 C331 1.530 . S
C1087 C380 1.535 . S
C1093 C555 1.554 . S
C1107 C421 1.541 . S
C1113 C518 1.544 . S
C1133 C730 1.552 . S
C1127 C241 1.553 . S
C1153 C774 1.525 . S
C1147 C320 1.487 . S
C1173 C608 1.553 . S
C1167 C361 1.531 . S
C1187 C440 1.498 . S
C1193 C677 1.523 . S
C1213 C731 1.552 . S
C1207 C301 1.520 . S
C1233 C767 1.526 . S
C1227 C391 1.512 . S
C1253 C615 1.554 . S
C1247 C451 1.530 . S
C1267 C260 1.508 . S
C1273 C678 1.531 . S
