# Generated by pormake.
# Topology anh, (6,3)-cn, num edge types: 1
# Building blocks:
#     Node 0, Type 0, BuildingBlock: MIFKUJ_clean_sbu_0, # of connection points: 6
#     Node 1, Type 0, BuildingBlock: MIFKUJ_clean_sbu_0, # of connection points: 6
#     Node 2, Type 0, BuildingBlock: MIFKUJ_clean_sbu_0, # of connection points: 6
#     Node 3, Type 1, BuildingBlock: KAKCAD_clean_linker_0, # of connection points: 3
#     Node 4, Type 1, BuildingBlock: KAKCAD_clean_linker_0, # of connection points: 3
#     Node 5, Type 1, BuildingBlock: KAKCAD_clean_linker_0, # of connection points: 3
#     Node 6, Type 1, BuildingBlock: KAKCAD_clean_linker_0, # of connection points: 3
#     Node 7, Type 1, BuildingBlock: KAKCAD_clean_linker_0, # of connection points: 3
#     Node 8, Type 1, BuildingBlock: KAKCAD_clean_linker_0, # of connection points: 3
#     Edge 9, Type (0, 1), BuildingBlock: TEMPAE_clean_linker_10, # of connection points: 2
#     Edge 10, Type (0, 1), BuildingBlock: TEMPAE_clean_linker_10, # of connection points: 2
#     Edge 11, Type (0, 1), BuildingBlock: TEMPAE_clean_linker_10, # of connection points: 2
#     Edge 12, Type (0, 1), BuildingBlock: TEMPAE_clean_linker_10, # of connection points: 2
#     Edge 13, Type (0, 1), BuildingBlock: TEMPAE_clean_linker_10, # of connection points: 2
#     Edge 14, Type (0, 1), BuildingBlock: TEMPAE_clean_linker_10, # of connection points: 2
#     Edge 15, Type (0, 1), BuildingBlock: TEMPAE_clean_linker_10, # of connection points: 2
#     Edge 16, Type (0, 1), BuildingBlock: TEMPAE_clean_linker_10, # of connection points: 2
#     Edge 17, Type (0, 1), BuildingBlock: TEMPAE_clean_linker_10, # of connection points: 2
#     Edge 18, Type (0, 1), BuildingBlock: TEMPAE_clean_linker_10, # of connection points: 2
#     Edge 19, Type (0, 1), BuildingBlock: TEMPAE_clean_linker_10, # of connection points: 2
#     Edge 20, Type (0, 1), BuildingBlock: TEMPAE_clean_linker_10, # of connection points: 2
#     Edge 21, Type (0, 1), BuildingBlock: TEMPAE_clean_linker_10, # of connection points: 2
#     Edge 22, Type (0, 1), BuildingBlock: TEMPAE_clean_linker_10, # of connection points: 2
#     Edge 23, Type (0, 1), BuildingBlock: TEMPAE_clean_linker_10, # of connection points: 2
#     Edge 24, Type (0, 1), BuildingBlock: TEMPAE_clean_linker_10, # of connection points: 2
#     Edge 25, Type (0, 1), BuildingBlock: TEMPAE_clean_linker_10, # of connection points: 2
#     Edge 26, Type (0, 1), BuildingBlock: TEMPAE_clean_linker_10, # of connection points: 2
# Relax obj value: 0.134
# Max RMSD: 0.184
# Mean RMSD: 0.144
data_MOF--net-anh--node1-MIFKUJ_clean_sbu_0--node2-KAKCAD_clean_linker_0--edge1-TEMPAE_clean_linker_10
_symmetry_space_group_name_H-M    P1
_symmetry_Int_Tables_number       1
_symmetry_cell_setting            triclinic
loop_
_symmetry_equiv_pos_as_xyz
'x, y, z'
_cell_length_a     37.518169
_cell_length_b     37.488403
_cell_length_c     64.616634
_cell_angle_alpha  93.813867
_cell_angle_beta   90.756336
_cell_angle_gamma 120.02035
loop_
_atom_site_label
_atom_site_type_symbol
_atom_site_fract_x
_atom_site_fract_y
_atom_site_fract_z
_atom_type_partial_charge
Zn0 Zn 0.04208 0.57527 0.16803 0.0
Zn1 Zn 0.95074 0.48523 0.16496 0.0
C2 C 0.10765 0.55882 0.17472 0.0
O3 O 0.10816 0.57715 0.19287 0.0
C4 C 0.88796 0.49883 0.14717 0.0
O5 O 0.88828 0.4733 0.13231 0.0
O6 O 0.07921 0.63589 0.16707 0.0
O7 O 0.99801 0.55907 0.1454 0.0
O8 O 0.98694 0.4962 0.14074 0.0
C9 C 0.09093 0.64919 0.14939 0.0
O10 O 0.07608 0.62316 0.13271 0.0
O11 O 0.0799 0.55211 0.16093 0.0
C12 C 0.88094 0.41373 0.17427 0.0
O13 O 0.87894 0.44202 0.18652 0.0
O14 O 0.91127 0.42463 0.16279 0.0
O15 O 0.97573 0.49837 0.19408 0.0
O16 O 0.02538 0.56406 0.19746 0.0
O17 O 0.91421 0.51101 0.16248 0.0
C18 C 0.99522 0.52972 0.13332 0.0
C19 C 1.00145 0.5305 0.20536 0.0
Zn20 Zn 0.52774 0.05976 0.50264 0.0
Zn21 Zn 0.53066 0.97398 0.50237 0.0
C22 C 0.61275 0.11898 0.51321 0.0
O23 O 0.59562 0.12397 0.52992 0.0
C24 C 0.45772 0.89232 0.49631 0.0
O25 O 0.48465 0.88475 0.48726 0.0
O26 O 0.51708 0.10655 0.50152 0.0
O27 O 0.49609 0.0213 0.4778 0.0
O28 O 0.53894 0.99774 0.47457 0.0
C29 C 0.52681 0.12488 0.4849 0.0
O30 O 0.539 0.10965 0.46947 0.0
O31 O 0.59021 0.08981 0.49944 0.0
C32 C 0.56536 0.92822 0.5175 0.0
O33 O 0.54814 0.93232 0.53438 0.0
O34 O 0.56264 0.94454 0.50142 0.0
O35 O 0.5518 0.01044 0.52946 0.0
O36 O 0.51162 0.03757 0.53048 0.0
O37 O 0.46948 0.9291 0.50387 0.0
C38 C 0.51377 0.00669 0.46642 0.0
C39 C 0.53225 0.02448 0.53977 0.0
Zn40 Zn 0.56286 0.51617 0.82982 0.0
Zn41 Zn 0.47446 0.51182 0.82569 0.0
C42 C 0.54435 0.43574 0.842 0.0
O43 O 0.55895 0.4572 0.86005 0.0
C44 C 0.49386 0.59114 0.81444 0.0
O45 O 0.47232 0.56704 0.79792 0.0
O46 O 0.62386 0.5405 0.83257 0.0
O47 O 0.55334 0.53596 0.80325 0.0
O48 O 0.48671 0.49291 0.79827 0.0
C49 C 0.64282 0.53813 0.81686 0.0
O50 O 0.62188 0.52035 0.79912 0.0
O51 O 0.54082 0.45375 0.82669 0.0
C52 C 0.40299 0.5063 0.84021 0.0
O53 O 0.42819 0.52157 0.85685 0.0
O54 O 0.41517 0.49622 0.82377 0.0
O55 O 0.48148 0.48817 0.85162 0.0
O56 O 0.54735 0.53374 0.85675 0.0
O57 O 0.50241 0.57507 0.82912 0.0
C58 C 0.52175 0.5148 0.79102 0.0
C59 C 0.51265 0.51035 0.86395 0.0
C60 C 0.50224 0.03729 0.30163 0.0
C61 C 0.48936 0.99988 0.31062 0.0
C62 C 0.50337 0.03858 0.28013 0.0
C63 C 0.49133 0.00245 0.26713 0.0
C64 C 0.47711 0.96475 0.276 0.0
C65 C 0.47627 0.96349 0.29757 0.0
C66 C 0.49506 0.00463 0.24443 0.0
C67 C 0.53136 0.03538 0.23664 0.0
C68 C 0.5352 0.03897 0.21519 0.0
C69 C 0.50224 0.0109 0.20145 0.0
C70 C 0.46604 0.9794 0.20901 0.0
C71 C 0.46263 0.97645 0.23054 0.0
C72 C 0.43166 0.94948 0.19447 0.0
C73 C 0.41818 0.96286 0.17781 0.0
C74 C 0.4115 0.90726 0.19754 0.0
C75 C 0.37772 0.87903 0.18463 0.0
C76 C 0.36338 0.89236 0.16829 0.0
C77 C 0.57358 0.0723 0.20731 0.0
C78 C 0.59433 0.11161 0.21822 0.0
C79 C 0.59006 0.06516 0.18908 0.0
C80 C 0.62669 0.09667 0.18206 0.0
C81 C 0.64764 0.1354 0.19338 0.0
C82 C 0.63115 0.1427 0.21142 0.0
C83 C 0.38419 0.93451 0.16485 0.0
H84 H 0.51165 0.06569 0.31123 0.0
H85 H 0.51379 0.06792 0.27364 0.0
H86 H 0.46789 0.93651 0.26629 0.0
H87 H 0.46655 0.93426 0.30402 0.0
H88 H 0.55698 0.05615 0.2474 0.0
H89 H 0.43431 0.95288 0.23652 0.0
H90 H 0.50468 0.01346 0.18486 0.0
H91 H 0.43313 0.99534 0.17517 0.0
H92 H 0.42156 0.89607 0.21011 0.0
H93 H 0.36189 0.84688 0.18796 0.0
H94 H 0.582 0.11856 0.23198 0.0
H95 H 0.57508 0.0351 0.18043 0.0
H96 H 0.37379 0.9456 0.15238 0.0
H97 H 0.64653 0.17275 0.22012 0.0
H98 H 0.63903 0.09065 0.16804 0.0
C99 C 0.54557 0.5442 0.62422 0.0
C100 C 0.56628 0.53189 0.63775 0.0
C101 C 0.55599 0.54977 0.60357 0.0
C102 C 0.58725 0.54305 0.59597 0.0
C103 C 0.60761 0.53021 0.60939 0.0
C104 C 0.5973 0.52479 0.63009 0.0
C105 C 0.59854 0.54948 0.57409 0.0
C106 C 0.60235 0.58407 0.56505 0.0
C107 C 0.61114 0.5895 0.54409 0.0
C108 C 0.61683 0.56036 0.53213 0.0
C109 C 0.61264 0.52524 0.54088 0.0
C110 C 0.60386 0.52025 0.56194 0.0
C111 C 0.6135 0.49176 0.52777 0.0
C112 C 0.5925 0.47832 0.50812 0.0
C113 C 0.63184 0.47038 0.53563 0.0
C114 C 0.62686 0.43467 0.52476 0.0
C115 C 0.60369 0.41972 0.50571 0.0
C116 C 0.61157 0.62432 0.53451 0.0
C117 C 0.57874 0.63166 0.53738 0.0
C118 C 0.64471 0.65078 0.52299 0.0
C119 C 0.64564 0.68511 0.51513 0.0
C120 C 0.61309 0.69286 0.51842 0.0
C121 C 0.57945 0.66551 0.52939 0.0
C122 C 0.58774 0.44269 0.49717 0.0
H123 H 0.52108 0.54924 0.62956 0.0
H124 H 0.53926 0.55895 0.59347 0.0
H125 H 0.63206 0.52516 0.60399 0.0
H126 H 0.61423 0.51586 0.6402 0.0
H127 H 0.59841 0.60692 0.57434 0.0
H128 H 0.59905 0.49253 0.56865 0.0
H129 H 0.62314 0.56435 0.51586 0.0
H130 H 0.5778 0.49399 0.50168 0.0
H131 H 0.64871 0.48038 0.55058 0.0
H132 H 0.63926 0.41757 0.53191 0.0
H133 H 0.55265 0.61138 0.54603 0.0
H134 H 0.67034 0.6456 0.52062 0.0
H135 H 0.57022 0.43226 0.4824 0.0
H136 H 0.55424 0.67108 0.53244 0.0
H137 H 0.6719 0.70581 0.50672 0.0
C138 C 0.091 0.60287 0.97504 0.0
C139 C 0.05201 0.58101 0.98337 0.0
C140 C 0.09444 0.61051 0.95405 0.0
C141 C 0.05898 0.59599 0.94081 0.0
C142 C 0.02009 0.57435 0.94924 0.0
C143 C 0.01668 0.56747 0.97022 0.0
C144 C 0.06203 0.60147 0.91814 0.0
C145 C 0.09253 0.59853 0.90704 0.0
C146 C 0.09256 0.59884 0.8853 0.0
C147 C 0.0615 0.60175 0.87455 0.0
C148 C 0.03073 0.60453 0.88536 0.0
C149 C 0.03209 0.60584 0.90713 0.0
C150 C 0.99458 0.60127 0.87397 0.0
C151 C 0.99903 0.62322 0.85645 0.0
C152 C 0.95484 0.57445 0.88028 0.0
C153 C 0.92028 0.56966 0.86942 0.0
C154 C 0.92452 0.59139 0.85188 0.0
C155 C 0.12294 0.59226 0.87383 0.0
C156 C 0.16466 0.6138 0.88072 0.0
C157 C 0.10996 0.56233 0.85685 0.0
C158 C 0.13789 0.55281 0.84754 0.0
C159 C 0.17931 0.57325 0.85497 0.0
C160 C 0.1926 0.60446 0.87135 0.0
C161 C 0.96422 0.61848 0.84554 0.0
H162 H 0.11892 0.61353 0.98463 0.0
H163 H 0.12493 0.62767 0.94821 0.0
H164 H 0.99196 0.56182 0.93958 0.0
H165 H 0.98612 0.55138 0.97609 0.0
H166 H 0.11495 0.59355 0.91512 0.0
H167 H 0.00884 0.60909 0.91545 0.0
H168 H 0.06043 0.60026 0.85772 0.0
H169 H 0.02934 0.64414 0.85127 0.0
H170 H 0.95035 0.55656 0.8935 0.0
H171 H 0.89012 0.54911 0.8749 0.0
H172 H 0.17546 0.6372 0.8937 0.0
H173 H 0.07787 0.54501 0.85134 0.0
H174 H 0.96829 0.6356 0.83207 0.0
H175 H 0.22425 0.6204 0.87757 0.0
H176 H 0.12692 0.52877 0.83487 0.0
C177 C 0.97719 0.50093 0.37198 0.0
C178 C 0.01175 0.51016 0.36033 0.0
C179 C 0.97906 0.49887 0.39347 0.0
C180 C 0.01553 0.50595 0.4038 0.0
C181 C 0.04984 0.51452 0.39209 0.0
C182 C 0.04802 0.51671 0.37064 0.0
C183 C 0.01826 0.50553 0.42678 0.0
C184 C 0.98549 0.47572 0.43721 0.0
C185 C 0.98766 0.4754 0.45898 0.0
C186 C 0.0242 0.50551 0.47038 0.0
C187 C 0.05768 0.53545 0.45997 0.0
C188 C 0.05389 0.53527 0.43831 0.0
C189 C 0.09729 0.56782 0.47082 0.0
C190 C 0.09848 0.59605 0.48669 0.0
C191 C 0.13465 0.57486 0.46266 0.0
C192 C 0.17174 0.61075 0.46889 0.0
C193 C 0.17271 0.64048 0.48365 0.0
C194 C 0.95136 0.44269 0.46906 0.0
C195 C 0.91121 0.43191 0.46214 0.0
C196 C 0.95589 0.41921 0.48388 0.0
C197 C 0.92113 0.38463 0.4908 0.0
C198 C 0.88099 0.37278 0.48311 0.0
C199 C 0.87669 0.39747 0.46893 0.0
C200 C 0.136 0.63208 0.49312 0.0
H201 H 0.94859 0.49518 0.36449 0.0
H202 H 0.95217 0.49252 0.40205 0.0
H203 H 0.07825 0.51959 0.3995 0.0
H204 H 0.07533 0.52428 0.3622 0.0
H205 H 0.95838 0.45195 0.42822 0.0
H206 H 0.07886 0.55912 0.43037 0.0
H207 H 0.02661 0.50563 0.48712 0.0
H208 H 0.07019 0.59162 0.49314 0.0
H209 H 0.13482 0.55352 0.45055 0.0
H210 H 0.19961 0.61599 0.46159 0.0
H211 H 0.90644 0.44953 0.45091 0.0
H212 H 0.98632 0.42651 0.48949 0.0
H213 H 0.13591 0.65444 0.5046 0.0
H214 H 0.84664 0.38942 0.46238 0.0
H215 H 0.92578 0.36689 0.50199 0.0
C216 C 0.49786 0.98343 0.70483 0.0
C217 C 0.53219 0.01483 0.69572 0.0
C218 C 0.49688 0.98223 0.7264 0.0
C219 C 0.52983 0.01278 0.73933 0.0
C220 C 0.56423 0.04393 0.73036 0.0
C221 C 0.5656 0.04473 0.7088 0.0
C222 C 0.52788 0.01309 0.76219 0.0
C223 C 0.52017 0.97825 0.77229 0.0
C224 C 0.51922 0.97873 0.79406 0.0
C225 C 0.52512 0.01476 0.80575 0.0
C226 C 0.53226 0.0499 0.79561 0.0
C227 C 0.53388 0.04858 0.77388 0.0
C228 C 0.53706 0.08823 0.80688 0.0
C229 C 0.5071 0.08678 0.82018 0.0
C230 C 0.56856 0.12706 0.80176 0.0
C231 C 0.56874 0.1633 0.80862 0.0
C232 C 0.53753 0.16195 0.82097 0.0
C233 C 0.51344 0.94149 0.80391 0.0
C234 C 0.48104 0.90214 0.79654 0.0
C235 C 0.54332 0.94414 0.81826 0.0
C236 C 0.54212 0.90812 0.82413 0.0
C237 C 0.51072 0.8687 0.81596 0.0
C238 C 0.47959 0.86627 0.80254 0.0
C239 C 0.50728 0.12325 0.82712 0.0
H240 H 0.47124 0.96026 0.69535 0.0
H241 H 0.46986 0.95811 0.73302 0.0
H242 H 0.5902 0.0676 0.74006 0.0
H243 H 0.59298 0.0688 0.70243 0.0
H244 H 0.51621 0.95103 0.76317 0.0
H245 H 0.53873 0.07505 0.76586 0.0
H246 H 0.5242 0.01543 0.82252 0.0
H247 H 0.48228 0.05733 0.82428 0.0
H248 H 0.59217 0.12925 0.79158 0.0
H249 H 0.59234 0.19219 0.80332 0.0
H250 H 0.45766 0.89914 0.78541 0.0
H251 H 0.56886 0.97403 0.82402 0.0
H252 H 0.48314 0.12097 0.8369 0.0
H253 H 0.45517 0.83662 0.79576 0.0
H254 H 0.56636 0.91114 0.83465 0.0
C255 C 0.48814 0.47749 0.03064 0.0
C256 C 0.49 0.50936 0.0195 0.0
C257 C 0.48812 0.4801 0.05232 0.0
C258 C 0.48921 0.51424 0.06329 0.0
C259 C 0.49036 0.54575 0.05226 0.0
C260 C 0.4911 0.54353 0.03062 0.0
C261 C 0.49008 0.51754 0.08625 0.0
C262 C 0.51932 0.5132 0.09774 0.0
C263 C 0.5218 0.51811 0.11954 0.0
C264 C 0.4937 0.52663 0.12996 0.0
C265 C 0.46348 0.53032 0.11851 0.0
C266 C 0.46235 0.52601 0.09667 0.0
C267 C 0.43199 0.53762 0.1287 0.0
C268 C 0.40853 0.51333 0.14439 0.0
C269 C 0.42188 0.56583 0.12096 0.0
C270 C 0.3879 0.56816 0.12786 0.0
C271 C 0.36306 0.54249 0.14281 0.0
C272 C 0.55536 0.51574 0.13065 0.0
C273 C 0.55967 0.48085 0.1266 0.0
C274 C 0.58702 0.55064 0.14221 0.0
C275 C 0.62345 0.55149 0.14847 0.0
C276 C 0.62865 0.51727 0.14345 0.0
C277 C 0.59575 0.4815 0.13301 0.0
C278 C 0.37436 0.51566 0.15133 0.0
H279 H 0.48646 0.45034 0.02264 0.0
H280 H 0.48687 0.45525 0.06052 0.0
H281 H 0.4917 0.57263 0.06042 0.0
H282 H 0.49339 0.56908 0.02268 0.0
H283 H 0.54131 0.5074 0.08964 0.0
H284 H 0.43908 0.52826 0.08765 0.0
H285 H 0.49541 0.53043 0.14678 0.0
H286 H 0.41539 0.49116 0.15059 0.0
H287 H 0.43954 0.58526 0.10899 0.0
H288 H 0.38017 0.58896 0.12077 0.0
H289 H 0.53585 0.4537 0.11753 0.0
H290 H 0.58466 0.57812 0.14529 0.0
H291 H 0.35638 0.49591 0.16312 0.0
H292 H 0.59875 0.45474 0.1287 0.0
H293 H 0.64806 0.57937 0.15666 0.0
C294 C 0.14933 0.54268 0.14954 0.0
C295 C 0.14152 0.55027 0.17006 0.0
C296 C 0.18411 0.53907 0.14505 0.0
C297 C 0.2115 0.54272 0.16147 0.0
C298 C 0.20279 0.54873 0.18224 0.0
C299 C 0.16812 0.55262 0.18626 0.0
C300 C 0.19232 0.53286 0.12267 0.0
C301 C 0.2308 0.55229 0.20024 0.0
C302 C 0.28812 0.50547 0.15132 0.0
C303 C 0.32462 0.54262 0.14862 0.0
C304 C 0.25114 0.50497 0.15552 0.0
C305 C 0.2504 0.54247 0.15696 0.0
C306 C 0.28716 0.58008 0.15446 0.0
C307 C 0.32373 0.57972 0.15044 0.0
C308 C 0.21275 0.46424 0.15824 0.0
C309 C 0.28786 0.62081 0.15592 0.0
H310 H 0.12907 0.54096 0.13691 0.0
H311 H 0.16224 0.55821 0.20219 0.0
H312 H 0.22129 0.56024 0.1186 0.0
H313 H 0.19664 0.5057 0.1204 0.0
H314 H 0.16691 0.52823 0.11179 0.0
H315 H 0.21827 0.55415 0.2155 0.0
H316 H 0.23558 0.52534 0.1993 0.0
H317 H 0.26146 0.58039 0.1995 0.0
H318 H 0.28816 0.47654 0.14966 0.0
H319 H 0.35177 0.60869 0.14872 0.0
H320 H 0.18853 0.45833 0.14627 0.0
H321 H 0.20039 0.46545 0.17362 0.0
H322 H 0.21855 0.4379 0.15704 0.0
H323 H 0.26517 0.6197 0.14433 0.0
H324 H 0.31874 0.64725 0.15324 0.0
H325 H 0.27873 0.62656 0.1715 0.0
C326 C 0.68208 0.1783 0.52573 0.0
C327 C 0.65562 0.15121 0.50923 0.0
C328 C 0.72057 0.21259 0.52217 0.0
C329 C 0.73286 0.2206 0.50156 0.0
C330 C 0.70691 0.19255 0.48487 0.0
C331 C 0.66879 0.15807 0.48891 0.0
C332 C 0.74738 0.24115 0.54047 0.0
C333 C 0.71847 0.20006 0.46265 0.0
C334 C 0.8058 0.33291 0.49113 0.0
C335 C 0.8437 0.33424 0.48907 0.0
C336 C 0.76972 0.29624 0.49506 0.0
C337 C 0.77133 0.25977 0.49743 0.0
C338 C 0.80959 0.26101 0.49596 0.0
C339 C 0.84516 0.29803 0.49169 0.0
C340 C 0.72971 0.29651 0.49644 0.0
C341 C 0.81285 0.22304 0.49865 0.0
H342 H 0.67228 0.17323 0.5415 0.0
H343 H 0.64845 0.1376 0.47604 0.0
H344 H 0.77925 0.2467 0.53958 0.0
H345 H 0.74912 0.27153 0.54013 0.0
H346 H 0.73536 0.22858 0.55555 0.0
H347 H 0.69651 0.174 0.45154 0.0
H348 H 0.71898 0.22862 0.4586 0.0
H349 H 0.74988 0.20492 0.46068 0.0
H350 H 0.80418 0.36069 0.48962 0.0
H351 H 0.87393 0.29825 0.4899 0.0
H352 H 0.71745 0.28839 0.51202 0.0
H353 H 0.7063 0.27288 0.48486 0.0
H354 H 0.73346 0.32709 0.49366 0.0
H355 H 0.80116 0.21098 0.51383 0.0
H356 H 0.84504 0.22937 0.49784 0.0
H357 H 0.79336 0.19831 0.48639 0.0
C358 C 0.51265 0.6575 0.83597 0.0
C359 C 0.50319 0.63485 0.81652 0.0
C360 C 0.51648 0.69701 0.83808 0.0
C361 C 0.51105 0.71443 0.82031 0.0
C362 C 0.50301 0.69225 0.80057 0.0
C363 C 0.49905 0.65285 0.79895 0.0
C364 C 0.52495 0.71951 0.8594 0.0
C365 C 0.49739 0.70962 0.78116 0.0
C366 C 0.4753 0.79352 0.82311 0.0
C367 C 0.51176 0.83033 0.81994 0.0
C368 C 0.47502 0.75602 0.8243 0.0
C369 C 0.51209 0.75503 0.82217 0.0
C370 C 0.54932 0.79238 0.8199 0.0
C371 C 0.54872 0.8295 0.81885 0.0
C372 C 0.43466 0.71709 0.82695 0.0
C373 C 0.5895 0.79282 0.81751 0.0
H374 H 0.51562 0.64377 0.84966 0.0
H375 H 0.49194 0.63575 0.78383 0.0
H376 H 0.55176 0.75125 0.85938 0.0
H377 H 0.49799 0.7225 0.86375 0.0
H378 H 0.53117 0.7032 0.87144 0.0
H379 H 0.49334 0.68946 0.76688 0.0
H380 H 0.46992 0.71335 0.7822 0.0
H381 H 0.52444 0.74069 0.77964 0.0
H382 H 0.44668 0.79388 0.82427 0.0
H383 H 0.57701 0.85757 0.81618 0.0
H384 H 0.43798 0.70055 0.83978 0.0
H385 H 0.42566 0.69596 0.81257 0.0
H386 H 0.40935 0.72355 0.83026 0.0
H387 H 0.59444 0.77642 0.82991 0.0
H388 H 0.6163 0.82475 0.81804 0.0
H389 H 0.58833 0.77623 0.80241 0.0
C390 C 0.84678 0.52666 0.16526 0.0
C391 C 0.85396 0.50842 0.14731 0.0
C392 C 0.81196 0.53158 0.16618 0.0
C393 C 0.78372 0.51812 0.14871 0.0
C394 C 0.79165 0.50105 0.13033 0.0
C395 C 0.82652 0.49634 0.12988 0.0
C396 C 0.80468 0.5499 0.18607 0.0
C397 C 0.76261 0.48661 0.11128 0.0
C398 C 0.67081 0.48578 0.15432 0.0
C399 C 0.66914 0.51964 0.14738 0.0
C400 C 0.70818 0.48562 0.15564 0.0
C401 C 0.74491 0.52008 0.14978 0.0
C402 C 0.74375 0.55503 0.14355 0.0
C403 C 0.70595 0.55442 0.14247 0.0
C404 C 0.70804 0.44787 0.16257 0.0
C405 C 0.7821 0.59233 0.13712 0.0
H406 H 0.86767 0.53597 0.17885 0.0
H407 H 0.83181 0.48237 0.11591 0.0
H408 H 0.7998 0.57591 0.18288 0.0
H409 H 0.77629 0.52621 0.19282 0.0
H410 H 0.8308 0.5613 0.19778 0.0
H411 H 0.77424 0.47601 0.09789 0.0
H412 H 0.73209 0.46068 0.11483 0.0
H413 H 0.75782 0.51195 0.10666 0.0
H414 H 0.64264 0.45899 0.15838 0.0
H415 H 0.70496 0.58053 0.13685 0.0
H416 H 0.73192 0.45692 0.17527 0.0
H417 H 0.71573 0.43269 0.14946 0.0
H418 H 0.67766 0.42499 0.16807 0.0
H419 H 0.80751 0.60306 0.14915 0.0
H420 H 0.77686 0.61837 0.13446 0.0
H421 H 0.79244 0.58381 0.12256 0.0
C422 C 0.3817 0.86505 0.50055 0.0
C423 C 0.4146 0.85781 0.49755 0.0
C424 C 0.34066 0.8319 0.5001 0.0
C425 C 0.33241 0.79057 0.4969 0.0
C426 C 0.36578 0.78324 0.49474 0.0
C427 C 0.40622 0.8168 0.49492 0.0
C428 C 0.30603 0.84115 0.50223 0.0
C429 C 0.35871 0.73984 0.4916 0.0
C430 C 0.22913 0.69674 0.50786 0.0
C431 C 0.21152 0.68109 0.48769 0.0
C432 C 0.26786 0.73323 0.51126 0.0
C433 C 0.28908 0.7549 0.49412 0.0
C434 C 0.27028 0.74017 0.47385 0.0
C435 C 0.23203 0.70342 0.47089 0.0
C436 C 0.28691 0.74753 0.53308 0.0
C437 C 0.29126 0.76241 0.45513 0.0
H438 H 0.38786 0.8966 0.50257 0.0
H439 H 0.43142 0.81079 0.49285 0.0
H440 H 0.28723 0.83157 0.48737 0.0
H441 H 0.28533 0.82316 0.51432 0.0
H442 H 0.31755 0.87453 0.50629 0.0
H443 H 0.38803 0.73926 0.49187 0.0
H444 H 0.3394 0.72089 0.50384 0.0
H445 H 0.34181 0.72499 0.47642 0.0
H446 H 0.2134 0.67957 0.52087 0.0
H447 H 0.21824 0.69175 0.4553 0.0
H448 H 0.29751 0.78082 0.53657 0.0
H449 H 0.31441 0.74389 0.53452 0.0
H450 H 0.26507 0.72971 0.54486 0.0
H451 H 0.30106 0.79569 0.45768 0.0
H452 H 0.27095 0.74922 0.44073 0.0
H453 H 0.31941 0.76032 0.45275 0.0
C454 C 0.5355 0.37424 0.81937 0.0
C455 C 0.53676 0.39269 0.8392 0.0
C456 C 0.53315 0.33549 0.81682 0.0
C457 C 0.53141 0.31427 0.8345 0.0
C458 C 0.53087 0.33196 0.85448 0.0
C459 C 0.53387 0.37099 0.85659 0.0
C460 C 0.53419 0.31801 0.79526 0.0
C461 C 0.52831 0.31019 0.87371 0.0
C462 C 0.4976 0.19955 0.82576 0.0
C463 C 0.53555 0.20051 0.82618 0.0
C464 C 0.49567 0.23611 0.82882 0.0
C465 C 0.53255 0.27481 0.83219 0.0
C466 C 0.57087 0.27595 0.83306 0.0
C467 C 0.57187 0.23893 0.83022 0.0
C468 C 0.45414 0.2334 0.82804 0.0
C469 C 0.61099 0.31644 0.8366 0.0
H470 H 0.53793 0.3908 0.80584 0.0
H471 H 0.53456 0.38482 0.87197 0.0
H472 H 0.5626 0.31597 0.79403 0.0
H473 H 0.50757 0.28621 0.79217 0.0
H474 H 0.53354 0.33723 0.78305 0.0
H475 H 0.52482 0.32638 0.8879 0.0
H476 H 0.50186 0.27807 0.8719 0.0
H477 H 0.55664 0.30827 0.87596 0.0
H478 H 0.46931 0.1703 0.82239 0.0
H479 H 0.60135 0.24019 0.831 0.0
H480 H 0.45164 0.2492 0.81464 0.0
H481 H 0.45081 0.24947 0.84229 0.0
H482 H 0.42826 0.20091 0.82653 0.0
H483 H 0.61417 0.3366 0.8241 0.0
H484 H 0.6382 0.31211 0.83692 0.0
H485 H 0.61118 0.33298 0.85152 0.0
C486 C 0.57892 0.87669 0.53283 0.0
C487 C 0.58269 0.90048 0.5163 0.0
C488 C 0.59014 0.84624 0.53094 0.0
C489 C 0.60584 0.83976 0.51213 0.0
C490 C 0.61213 0.86538 0.49586 0.0
C491 C 0.60027 0.8954 0.4981 0.0
C492 C 0.58299 0.81947 0.54868 0.0
C493 C 0.6294 0.85974 0.47573 0.0
C494 C 0.64994 0.76955 0.51759 0.0
C495 C 0.61497 0.73089 0.51209 0.0
C496 C 0.64867 0.80605 0.51607 0.0
C497 C 0.61152 0.80346 0.50902 0.0
C498 C 0.57743 0.76473 0.50169 0.0
C499 C 0.57965 0.72886 0.50326 0.0
C500 C 0.68587 0.84692 0.52364 0.0
C501 C 0.53734 0.76072 0.49389 0.0
H502 H 0.56561 0.88063 0.54698 0.0
H503 H 0.60363 0.914 0.48532 0.0
H504 H 0.5588 0.78717 0.54379 0.0
H505 H 0.61152 0.81908 0.55292 0.0
H506 H 0.57308 0.83028 0.5627 0.0
H507 H 0.6384 0.88607 0.46604 0.0
H508 H 0.65668 0.85634 0.47878 0.0
H509 H 0.60585 0.83104 0.4667 0.0
H510 H 0.6773 0.77118 0.52445 0.0
H511 H 0.55287 0.69894 0.49866 0.0
H512 H 0.68058 0.8571 0.53925 0.0
H513 H 0.691 0.87111 0.51314 0.0
H514 H 0.71422 0.84465 0.52485 0.0
H515 H 0.52233 0.76744 0.50707 0.0
H516 H 0.51559 0.72921 0.48659 0.0
H517 H 0.54303 0.78343 0.48238 0.0
C518 C 0.70748 0.56358 0.83872 0.0
C519 C 0.68723 0.55216 0.81899 0.0
C520 C 0.74851 0.57317 0.8413 0.0
C521 C 0.76993 0.57174 0.82368 0.0
C522 C 0.75037 0.56227 0.80361 0.0
C523 C 0.70905 0.55231 0.80149 0.0
C524 C 0.76827 0.58291 0.86301 0.0
C525 C 0.77252 0.56109 0.78447 0.0
C526 C 0.88463 0.62062 0.83581 0.0
C527 C 0.88715 0.58613 0.84085 0.0
C528 C 0.84701 0.61619 0.82867 0.0
C529 C 0.81133 0.57642 0.82673 0.0
C530 C 0.81448 0.54125 0.83033 0.0
C531 C 0.85244 0.54655 0.83723 0.0
C532 C 0.84491 0.65428 0.8246 0.0
C533 C 0.77716 0.49827 0.82837 0.0
H534 H 0.69086 0.56367 0.8523 0.0
H535 H 0.69366 0.54389 0.78617 0.0
H536 H 0.77521 0.55848 0.86677 0.0
H537 H 0.79789 0.61263 0.86404 0.0
H538 H 0.74815 0.58496 0.87493 0.0
H539 H 0.755 0.55869 0.76994 0.0
H540 H 0.80347 0.58919 0.78478 0.0
H541 H 0.77713 0.53405 0.78413 0.0
H542 H 0.91143 0.65128 0.83857 0.0
H543 H 0.85459 0.51974 0.84067 0.0
H544 H 0.82973 0.66154 0.8375 0.0
H545 H 0.82616 0.64892 0.81008 0.0
H546 H 0.87603 0.68158 0.82337 0.0
H547 H 0.75597 0.49566 0.84076 0.0
H548 H 0.78557 0.47398 0.82977 0.0
H549 H 0.76 0.49218 0.81324 0.0
C550 C 0.1479 0.71551 0.16607 0.0
C551 C 0.12586 0.69134 0.14795 0.0
C552 C 0.18538 0.75221 0.16506 0.0
C553 C 0.2008 0.76537 0.14541 0.0
C554 C 0.17703 0.74297 0.12704 0.0
C555 C 0.13986 0.70588 0.12852 0.0
C556 C 0.20983 0.77526 0.18506 0.0
C557 C 0.19185 0.75665 0.10584 0.0
C558 C 0.29332 0.87217 0.15346 0.0
C559 C 0.32451 0.86246 0.15645 0.0
C560 C 0.25296 0.84106 0.14733 0.0
C561 C 0.24382 0.79954 0.14455 0.0
C562 C 0.27611 0.79039 0.14519 0.0
C563 C 0.31623 0.82214 0.15097 0.0
C564 C 0.21952 0.85212 0.14593 0.0
C565 C 0.26772 0.7465 0.14212 0.0
H566 H 0.13708 0.70465 0.18113 0.0
H567 H 0.12264 0.68754 0.11443 0.0
H568 H 0.23881 0.77412 0.18594 0.0
H569 H 0.21846 0.80825 0.18553 0.0
H570 H 0.19246 0.76205 0.19901 0.0
H571 H 0.16603 0.74248 0.09381 0.0
H572 H 0.2075 0.7908 0.10583 0.0
H573 H 0.21446 0.74702 0.10143 0.0
H574 H 0.29957 0.90337 0.15751 0.0
H575 H 0.34062 0.81485 0.15267 0.0
H576 H 0.20309 0.84576 0.16058 0.0
H577 H 0.19655 0.83318 0.13304 0.0
H578 H 0.23241 0.88537 0.14359 0.0
H579 H 0.25191 0.72962 0.15568 0.0
H580 H 0.29653 0.74523 0.14052 0.0
H581 H 0.24707 0.73003 0.12812 0.0
C582 C 0.54266 0.18673 0.46601 0.0
C583 C 0.53127 0.16617 0.48425 0.0
C584 C 0.55259 0.22811 0.46598 0.0
C585 C 0.55145 0.2493 0.48467 0.0
C586 C 0.53817 0.22814 0.50286 0.0
C587 C 0.528 0.18672 0.5024 0.0
C588 C 0.56592 0.24955 0.44621 0.0
C589 C 0.53664 0.2498 0.52313 0.0
C590 C 0.62091 0.36428 0.49681 0.0
C591 C 0.59243 0.37807 0.49621 0.0
C592 C 0.60842 0.32259 0.49185 0.0
C593 C 0.5666 0.29427 0.48581 0.0
C594 C 0.53849 0.3086 0.48344 0.0
C595 C 0.55167 0.35034 0.48882 0.0
C596 C 0.63935 0.30844 0.4945 0.0
C597 C 0.49381 0.27937 0.47669 0.0
H598 H 0.54499 0.1709 0.45189 0.0
H599 H 0.51919 0.17102 0.51653 0.0
H600 H 0.54959 0.26673 0.44337 0.0
H601 H 0.59939 0.27243 0.44774 0.0
H602 H 0.56002 0.22745 0.4325 0.0
H603 H 0.52389 0.22841 0.53561 0.0
H604 H 0.56817 0.27488 0.52835 0.0
H605 H 0.51748 0.2643 0.52097 0.0
H606 H 0.65264 0.38577 0.50207 0.0
H607 H 0.52932 0.3606 0.48844 0.0
H608 H 0.63909 0.29004 0.48027 0.0
H609 H 0.63091 0.28814 0.50747 0.0
H610 H 0.67114 0.33481 0.49793 0.0
H611 H 0.4911 0.25789 0.4633 0.0
H612 H 0.47781 0.29617 0.47232 0.0
H613 H 0.47768 0.26039 0.48961 0.0
C614 C 0.34985 0.51534 0.8585 0.0
C615 C 0.36426 0.50743 0.83986 0.0
C616 C 0.31668 0.52253 0.85847 0.0
C617 C 0.29757 0.5219 0.8393 0.0
C618 C 0.31066 0.51199 0.82045 0.0
C619 C 0.3439 0.50475 0.82095 0.0
C620 C 0.30328 0.53258 0.87893 0.0
C621 C 0.29088 0.51098 0.79976 0.0
C622 C 0.19543 0.51747 0.84537 0.0
C623 C 0.20787 0.55964 0.84717 0.0
C624 C 0.2239 0.50435 0.84142 0.0
C625 C 0.26567 0.53419 0.83924 0.0
C626 C 0.27781 0.57659 0.83959 0.0
C627 C 0.24871 0.58883 0.8436 0.0
C628 C 0.20982 0.45888 0.84108 0.0
C629 C 0.32207 0.6093 0.83708 0.0
H630 H 0.36528 0.51713 0.87316 0.0
H631 H 0.35502 0.49875 0.80648 0.0
H632 H 0.30936 0.56482 0.87979 0.0
H633 H 0.26965 0.51198 0.88016 0.0
H634 H 0.31969 0.52931 0.89247 0.0
H635 H 0.3015 0.49833 0.78676 0.0
H636 H 0.25682 0.49205 0.79993 0.0
H637 H 0.29858 0.54278 0.79674 0.0
H638 H 0.16394 0.49481 0.84828 0.0
H639 H 0.25821 0.6214 0.84467 0.0
H640 H 0.22152 0.45293 0.85555 0.0
H641 H 0.22249 0.44921 0.82785 0.0
H642 H 0.17568 0.43936 0.83995 0.0
H643 H 0.34133 0.61182 0.8509 0.0
H644 H 0.3255 0.64015 0.83537 0.0
H645 H 0.33435 0.60065 0.82332 0.0
C646 C 0.85369 0.33856 0.16446 0.0
C647 C 0.8481 0.37015 0.1738 0.0
C648 C 0.82303 0.29694 0.16482 0.0
C649 C 0.78605 0.28704 0.17457 0.0
C650 C 0.77977 0.31892 0.18339 0.0
C651 C 0.81099 0.3601 0.18299 0.0
C652 C 0.8307 0.26361 0.15538 0.0
C653 C 0.74046 0.30955 0.19376 0.0
C654 C 0.68685 0.18453 0.16723 0.0
C655 C 0.68627 0.1691 0.18642 0.0
C656 C 0.72082 0.22184 0.16234 0.0
C657 C 0.7547 0.24353 0.17699 0.0
C658 C 0.75554 0.22604 0.1956 0.0
C659 C 0.72104 0.18906 0.20017 0.0
C660 C 0.71885 0.23967 0.14238 0.0
C661 C 0.79138 0.248 0.21148 0.0
H662 H 0.88237 0.34629 0.1573 0.0
H663 H 0.80635 0.38445 0.19 0.0
H664 H 0.83297 0.2457 0.16781 0.0
H665 H 0.80452 0.24162 0.14453 0.0
H666 H 0.85954 0.27651 0.14687 0.0
H667 H 0.73952 0.338 0.19871 0.0
H668 H 0.71332 0.2894 0.18302 0.0
H669 H 0.73752 0.29257 0.20765 0.0
H670 H 0.65971 0.16893 0.15668 0.0
H671 H 0.72042 0.17666 0.21494 0.0
H672 H 0.74865 0.25242 0.13478 0.0
H673 H 0.71281 0.26549 0.14588 0.0
H674 H 0.69398 0.21624 0.13129 0.0
H675 H 0.82106 0.25936 0.20388 0.0
H676 H 0.78982 0.22764 0.22359 0.0
H677 H 0.79129 0.27529 0.21921 0.0
C678 C 0.0286 0.52061 0.1019 0.0
C679 C 0.00559 0.53639 0.11155 0.0
C680 C 0.03984 0.52829 0.08134 0.0
C681 C 0.02644 0.55101 0.0701 0.0
C682 C 0.00289 0.56668 0.07982 0.0
C683 C 0.99333 0.55972 0.10058 0.0
C684 C 0.06612 0.51229 0.07169 0.0
C685 C 0.98715 0.59013 0.0682 0.0
C686 C 0.07544 0.60124 0.02118 0.0
C687 C 0.04774 0.57213 0.00562 0.0
C688 C 0.07 0.59394 0.04225 0.0
C689 C 0.03551 0.55716 0.04791 0.0
C690 C 0.00806 0.52725 0.03232 0.0
C691 C 0.01488 0.5348 0.0114 0.0
C692 C 0.10048 0.6261 0.05849 0.0
C693 C 0.97056 0.4879 0.03775 0.0
H694 H 0.03858 0.50311 0.11059 0.0
H695 H 0.97548 0.57183 0.10814 0.0
H696 H 0.04854 0.4891 0.0585 0.0
H697 H 0.09375 0.53794 0.06537 0.0
H698 H 0.07636 0.49774 0.08299 0.0
H699 H 0.96879 0.59976 0.07798 0.0
H700 H 0.01335 0.61813 0.06254 0.0
H701 H 0.96757 0.57058 0.05437 0.0
H702 H 0.10076 0.63029 0.01697 0.0
H703 H 0.994 0.51151 -0.00045 0.0
H704 H 0.11087 0.61143 0.06962 0.0
H705 H 0.08545 0.64068 0.06749 0.0
H706 H 0.12794 0.65075 0.05151 0.0
H707 H 0.97988 0.4705 0.04759 0.0
H708 H 0.95263 0.46745 0.02375 0.0
H709 H 0.95008 0.49558 0.04688 0.0
C710 C 0.52268 0.98232 0.43095 0.0
C711 C 0.50704 0.00261 0.44359 0.0
C712 C 0.51798 0.97971 0.40925 0.0
C713 C 0.49743 0.99812 0.4 0.0
C714 C 0.48093 0.018 0.41266 0.0
C715 C 0.48576 0.01984 0.43432 0.0
C716 C 0.53571 0.95799 0.39621 0.0
C717 C 0.45912 0.03828 0.40332 0.0
C718 C 0.52476 0.03097 0.3456 0.0
C719 C 0.49099 0.99926 0.33355 0.0
C720 C 0.52706 0.03104 0.36724 0.0
C721 C 0.49501 0.99837 0.37709 0.0
C722 C 0.46091 0.96612 0.36506 0.0
C723 C 0.45925 0.96701 0.34341 0.0
C724 C 0.56389 0.06602 0.37958 0.0
C725 C 0.42624 0.93075 0.37508 0.0
H726 H 0.5389 0.96867 0.43801 0.0
H727 H 0.47357 0.03558 0.44397 0.0
H728 H 0.51152 0.93377 0.38515 0.0
H729 H 0.56039 0.98042 0.38688 0.0
H730 H 0.54885 0.94339 0.40581 0.0
H731 H 0.44662 0.05103 0.41532 0.0
H732 H 0.48084 0.06382 0.39425 0.0
H733 H 0.43339 0.01568 0.39242 0.0
H734 H 0.54978 0.05558 0.33806 0.0
H735 H 0.43287 0.94265 0.3342 0.0
H736 H 0.58052 0.05368 0.38824 0.0
H737 H 0.55356 0.0816 0.3912 0.0
H738 H 0.58583 0.08945 0.36956 0.0
H739 H 0.43855 0.91467 0.38405 0.0
H740 H 0.40213 0.90787 0.3635 0.0
H741 H 0.41168 0.94276 0.38621 0.0
C742 C 0.49134 0.49598 0.75445 0.0
C743 C 0.52609 0.51633 0.76832 0.0
C744 C 0.49544 0.49724 0.73291 0.0
C745 C 0.53522 0.51912 0.72512 0.0
C746 C 0.57037 0.53968 0.73903 0.0
C747 C 0.56536 0.5382 0.76044 0.0
C748 C 0.45727 0.47524 0.71849 0.0
C749 C 0.61333 0.56319 0.73129 0.0
C750 C 0.55395 0.49427 0.6699 0.0
C751 C 0.55618 0.52735 0.6599 0.0
C752 C 0.54619 0.49066 0.69105 0.0
C753 C 0.54036 0.52077 0.70241 0.0
C754 C 0.54161 0.5537 0.69232 0.0
C755 C 0.54963 0.55666 0.67118 0.0
C756 C 0.5451 0.45513 0.70133 0.0
C757 C 0.53554 0.5864 0.70396 0.0
H758 H 0.46088 0.47916 0.76041 0.0
H759 H 0.5924 0.55414 0.77102 0.0
H760 H 0.45548 0.49759 0.70872 0.0
H761 H 0.45886 0.45166 0.70784 0.0
H762 H 0.42857 0.45975 0.72703 0.0
H763 H 0.63746 0.57706 0.74418 0.0
H764 H 0.6194 0.54225 0.72091 0.0
H765 H 0.61612 0.58827 0.72204 0.0
H766 H 0.55835 0.47117 0.66117 0.0
H767 H 0.55182 0.58259 0.66362 0.0
H768 H 0.5156 0.43769 0.70899 0.0
H769 H 0.5703 0.46723 0.7136 0.0
H770 H 0.54858 0.43343 0.69012 0.0
H771 H 0.50628 0.57176 0.71205 0.0
H772 H 0.53489 0.60852 0.69355 0.0
H773 H 0.5609 0.60399 0.71601 0.0
C774 C 0.56497 0.02298 0.5734 0.0
C775 C 0.53343 0.02514 0.56269 0.0
C776 C 0.56584 0.0223 0.59508 0.0
C777 C 0.53392 0.02289 0.60626 0.0
C778 C 0.502 0.02508 0.59554 0.0
C779 C 0.50238 0.02662 0.57389 0.0
C780 C 0.60088 0.02087 0.60601 0.0
C781 C 0.46703 0.02499 0.60688 0.0
C782 C 0.51494 0.98048 0.65929 0.0
C783 C 0.53291 0.01682 0.67273 0.0
C784 C 0.51471 0.98201 0.63765 0.0
C785 C 0.53371 0.02081 0.62917 0.0
C786 C 0.55241 0.05761 0.64256 0.0
C787 C 0.55135 0.05518 0.66414 0.0
C788 C 0.49398 0.94207 0.62384 0.0
C789 C 0.57352 0.09958 0.6341 0.0
H790 H 0.58918 0.02206 0.56483 0.0
H791 H 0.47775 0.02796 0.56567 0.0
H792 H 0.61654 0.04723 0.61805 0.0
H793 H 0.58874 0.9921 0.61405 0.0
H794 H 0.62406 0.02205 0.59513 0.0
H795 H 0.44449 0.02665 0.59625 0.0
H796 H 0.45058 0.99646 0.61511 0.0
H797 H 0.47928 0.05161 0.61881 0.0
H798 H 0.50125 0.95069 0.66566 0.0
H799 H 0.56462 0.08349 0.67428 0.0
H800 H 0.51679 0.94003 0.61382 0.0
H801 H 0.46982 0.94132 0.61342 0.0
H802 H 0.47956 0.91445 0.63288 0.0
H803 H 0.59773 0.10207 0.62362 0.0
H804 H 0.58796 0.12522 0.6466 0.0
H805 H 0.55094 0.10357 0.62475 0.0
C806 C 0.53846 0.54129 0.90024 0.0
C807 C 0.50858 0.50905 0.88665 0.0
C808 C 0.53476 0.54089 0.9218 0.0
C809 C 0.50076 0.50703 0.92998 0.0
C810 C 0.47072 0.47415 0.91635 0.0
C811 C 0.47478 0.47575 0.89482 0.0
C812 C 0.56703 0.57688 0.93583 0.0
C813 C 0.43447 0.43717 0.92452 0.0
C814 C 0.51358 0.4908 0.98635 0.0
C815 C 0.49152 0.50741 0.99643 0.0
C816 C 0.51601 0.48958 0.96469 0.0
C817 C 0.49667 0.50617 0.95281 0.0
C818 C 0.47428 0.52287 0.96281 0.0
C819 C 0.4716 0.52288 0.98445 0.0
C820 C 0.53971 0.471 0.95453 0.0
C821 C 0.45364 0.54129 0.95068 0.0
H822 H 0.56451 0.56725 0.894 0.0
H823 H 0.45172 0.45063 0.88438 0.0
H824 H 0.55227 0.59097 0.94547 0.0
H825 H 0.58207 0.56595 0.9466 0.0
H826 H 0.59118 0.60115 0.92698 0.0
H827 H 0.41425 0.41382 0.91187 0.0
H828 H 0.44559 0.42225 0.9351 0.0
H829 H 0.41577 0.4472 0.9337 0.0
H830 H 0.52969 0.47938 0.99541 0.0
H831 H 0.45379 0.53503 0.99197 0.0
H832 H 0.56664 0.49511 0.94703 0.0
H833 H 0.51996 0.44665 0.94216 0.0
H834 H 0.55092 0.45723 0.96581 0.0
H835 H 0.47695 0.5671 0.94228 0.0
H836 H 0.43752 0.55318 0.96081 0.0
H837 H 0.43094 0.51776 0.93884 0.0
C838 C 0.0355 0.56042 0.24087 0.0
C839 C 0.00315 0.52846 0.22817 0.0
C840 C 0.03757 0.55828 0.26244 0.0
C841 C 0.0064 0.52353 0.27154 0.0
C842 C 0.97353 0.49136 0.25884 0.0
C843 C 0.97238 0.49414 0.23733 0.0
C844 C 0.07326 0.59305 0.27549 0.0
C845 C 0.93956 0.45393 0.26797 0.0
C846 C 0.02896 0.49746 0.32417 0.0
C847 C 0.01023 0.51346 0.33755 0.0
C848 C 0.02832 0.50091 0.30269 0.0
C849 C 0.0082 0.52058 0.29434 0.0
C850 C 0.98915 0.53672 0.30772 0.0
C851 C 0.9905 0.53308 0.32916 0.0
C852 C 0.04898 0.4833 0.28891 0.0
C853 C 0.96729 0.55779 0.29937 0.0
H854 H 0.0595 0.58695 0.23393 0.0
H855 H 0.94714 0.46935 0.22769 0.0
H856 H 0.06163 0.60664 0.28749 0.0
H857 H 0.09054 0.5809 0.28374 0.0
H858 H 0.09491 0.61796 0.26605 0.0
H859 H 0.91591 0.43184 0.25599 0.0
H860 H 0.95273 0.43756 0.27602 0.0
H861 H 0.9242 0.46372 0.27974 0.0
H862 H 0.04378 0.48176 0.33046 0.0
H863 H 0.97651 0.5461 0.3394 0.0
H864 H 0.07244 0.50779 0.27992 0.0
H865 H 0.02589 0.4588 0.27755 0.0
H866 H 0.06423 0.46991 0.2979 0.0
H867 H 0.98905 0.5847 0.29108 0.0
H868 H 0.95401 0.56867 0.31184 0.0
H869 H 0.94206 0.53617 0.28796 0.0
loop_
_geom_bond_atom_site_label_1
_geom_bond_atom_site_label_2
_geom_bond_distance
_geom_bond_site_symmetry_2
_ccdc_geom_bond_type
Zn0 O6 1.969 . S
Zn0 O7 1.965 . S
Zn0 O11 2.024 . S
Zn0 O16 1.969 . S
Zn1 O8 1.969 . S
Zn1 O14 1.969 . S
Zn1 O15 1.965 . S
Zn1 O17 2.024 . S
C2 O3 1.229 . S
C2 O11 1.058 . S
O3 C2 1.229 . S
C4 O5 1.229 . S
C4 O17 1.058 . S
O5 C4 1.229 . S
O6 Zn0 1.969 . S
O6 C9 1.267 . S
O7 Zn0 1.965 . S
O7 C18 1.260 1_455 S
O8 Zn1 1.969 . S
O8 C18 1.258 . S
C9 O6 1.267 . S
C9 O10 1.228 . S
O10 C9 1.228 . S
O11 Zn0 2.024 . S
O11 C2 1.058 . S
C12 O13 1.228 . S
C12 O14 1.267 . S
O13 C12 1.228 . S
O14 Zn1 1.969 . S
O14 C12 1.267 . S
O15 Zn1 1.965 . S
O15 C19 1.260 1_655 S
O16 Zn0 1.969 . S
O16 C19 1.258 . S
O17 Zn1 2.024 . S
O17 C4 1.058 . S
C18 O7 1.260 1_655 S
C18 O8 1.258 . S
C19 O15 1.260 1_455 S
C19 O16 1.258 . S
Zn20 O26 1.969 . S
Zn20 O27 1.965 . S
Zn20 O31 2.024 . S
Zn20 O36 1.969 . S
Zn21 O28 1.969 . S
Zn21 O34 1.969 . S
Zn21 O35 1.965 . S
Zn21 O37 2.024 . S
C22 O23 1.229 . S
C22 O31 1.058 . S
O23 C22 1.229 . S
C24 O25 1.229 . S
C24 O37 1.058 . S
O25 C24 1.229 . S
O26 Zn20 1.969 . S
O26 C29 1.267 . S
O27 Zn20 1.965 . S
O27 C38 1.260 . S
O28 Zn21 1.969 . S
O28 C38 1.258 1_565 S
C29 O26 1.267 . S
C29 O30 1.228 . S
O30 C29 1.228 . S
O31 Zn20 2.024 . S
O31 C22 1.058 . S
C32 O33 1.228 . S
C32 O34 1.267 . S
O33 C32 1.228 . S
O34 Zn21 1.969 . S
O34 C32 1.267 . S
O35 Zn21 1.965 . S
O35 C39 1.260 1_565 S
O36 Zn20 1.969 . S
O36 C39 1.258 . S
O37 Zn21 2.024 . S
O37 C24 1.058 . S
C38 O27 1.260 . S
C38 O28 1.258 1_545 S
C39 O35 1.260 1_545 S
C39 O36 1.258 . S
Zn40 O46 1.969 . S
Zn40 O47 1.965 . S
Zn40 O51 2.024 . S
Zn40 O56 1.969 . S
Zn41 O48 1.969 . S
Zn41 O54 1.969 . S
Zn41 O55 1.965 . S
Zn41 O57 2.024 . S
C42 O43 1.229 . S
C42 O51 1.058 . S
O43 C42 1.229 . S
C44 O45 1.229 . S
C44 O57 1.058 . S
O45 C44 1.229 . S
O46 Zn40 1.969 . S
O46 C49 1.267 . S
O47 Zn40 1.965 . S
O47 C58 1.260 . S
O48 Zn41 1.969 . S
O48 C58 1.258 . S
C49 O46 1.267 . S
C49 O50 1.228 . S
O50 C49 1.228 . S
O51 Zn40 2.024 . S
O51 C42 1.058 . S
C52 O53 1.228 . S
C52 O54 1.267 . S
O53 C52 1.228 . S
O54 Zn41 1.969 . S
O54 C52 1.267 . S
O55 Zn41 1.965 . S
O55 C59 1.260 . S
O56 Zn40 1.969 . S
O56 C59 1.258 . S
O57 Zn41 2.024 . S
O57 C44 1.058 . S
C58 O47 1.260 . S
C58 O48 1.258 . S
C59 O55 1.260 . S
C59 O56 1.258 . S
C60 C61 1.386 . S
C60 C62 1.397 . S
C60 H84 0.931 . S
C61 C60 1.386 . S
C61 C65 1.397 1_545 S
C62 C60 1.397 . S
C62 C63 1.384 . S
C62 H85 0.930 . S
C63 C62 1.384 . S
C63 C64 1.377 1_545 S
C63 C66 1.481 . S
C64 C63 1.377 1_565 S
C64 C65 1.389 . S
C64 H86 0.929 . S
C65 C61 1.397 1_565 S
C65 C64 1.389 . S
C65 H87 0.931 . S
C66 C63 1.481 . S
C66 C67 1.387 . S
C66 C71 1.390 . S
C67 C66 1.387 . S
C67 C68 1.401 . S
C67 H88 0.930 . S
C68 C67 1.401 . S
C68 C69 1.376 . S
C68 C77 1.511 . S
C69 C68 1.376 . S
C69 C70 1.392 . S
C69 H90 0.931 . S
C70 C69 1.392 . S
C70 C71 1.361 . S
C70 C72 1.500 1_545 S
C71 C66 1.390 . S
C71 C70 1.361 . S
C71 H89 0.931 1_545 S
C72 C70 1.500 1_565 S
C72 C73 1.371 . S
C72 C74 1.365 . S
C73 C72 1.371 . S
C73 C83 1.386 . S
C73 H91 0.931 . S
C74 C72 1.365 . S
C74 C75 1.409 . S
C74 H92 0.929 . S
C75 C74 1.409 . S
C75 C76 1.380 . S
C75 H93 0.930 . S
C76 C75 1.380 . S
C76 C83 1.357 . S
C77 C68 1.511 . S
C77 C78 1.341 . S
C77 C79 1.371 . S
C78 C77 1.341 . S
C78 C82 1.394 . S
C78 H94 0.930 . S
C79 C77 1.371 . S
C79 C80 1.392 . S
C79 H95 0.931 . S
C80 C79 1.392 . S
C80 C81 1.331 . S
C80 H98 0.932 . S
C81 C80 1.331 . S
C81 C82 1.336 . S
C82 C78 1.394 . S
C82 C81 1.336 . S
C82 H97 0.929 . S
C83 C73 1.386 . S
C83 C76 1.357 . S
C83 H96 0.928 . S
H84 C60 0.931 . S
H85 C62 0.930 . S
H86 C64 0.929 . S
H87 C65 0.931 . S
H88 C67 0.930 . S
H89 C71 0.931 1_565 S
H90 C69 0.931 . S
H91 C73 0.931 . S
H92 C74 0.929 . S
H93 C75 0.930 . S
H94 C78 0.930 . S
H95 C79 0.931 . S
H96 C83 0.928 . S
H97 C82 0.929 . S
H98 C80 0.932 . S
C99 C100 1.386 . S
C99 C101 1.397 . S
C99 H123 0.931 . S
C100 C99 1.386 . S
C100 C104 1.397 . S
C101 C99 1.397 . S
C101 C102 1.384 . S
C101 H124 0.930 . S
C102 C101 1.384 . S
C102 C103 1.377 . S
C102 C105 1.481 . S
C103 C102 1.377 . S
C103 C104 1.389 . S
C103 H125 0.929 . S
C104 C100 1.397 . S
C104 C103 1.389 . S
C104 H126 0.931 . S
C105 C102 1.481 . S
C105 C106 1.387 . S
C105 C110 1.390 . S
C106 C105 1.387 . S
C106 C107 1.401 . S
C106 H127 0.930 . S
C107 C106 1.401 . S
C107 C108 1.376 . S
C107 C116 1.511 . S
C108 C107 1.376 . S
C108 C109 1.392 . S
C108 H129 0.931 . S
C109 C108 1.392 . S
C109 C110 1.361 . S
C109 C111 1.500 . S
C110 C105 1.390 . S
C110 C109 1.361 . S
C110 H128 0.931 . S
C111 C109 1.500 . S
C111 C112 1.371 . S
C111 C113 1.365 . S
C112 C111 1.371 . S
C112 C122 1.386 . S
C112 H130 0.931 . S
C113 C111 1.365 . S
C113 C114 1.409 . S
C113 H131 0.929 . S
C114 C113 1.409 . S
C114 C115 1.380 . S
C114 H132 0.930 . S
C115 C114 1.380 . S
C115 C122 1.357 . S
C116 C107 1.511 . S
C116 C117 1.341 . S
C116 C118 1.371 . S
C117 C116 1.341 . S
C117 C121 1.394 . S
C117 H133 0.930 . S
C118 C116 1.371 . S
C118 C119 1.392 . S
C118 H134 0.931 . S
C119 C118 1.392 . S
C119 C120 1.331 . S
C119 H137 0.932 . S
C120 C119 1.331 . S
C120 C121 1.336 . S
C121 C117 1.394 . S
C121 C120 1.336 . S
C121 H136 0.929 . S
C122 C112 1.386 . S
C122 C115 1.357 . S
C122 H135 0.928 . S
H123 C99 0.931 . S
H124 C101 0.930 . S
H125 C103 0.929 . S
H126 C104 0.931 . S
H127 C106 0.930 . S
H128 C110 0.931 . S
H129 C108 0.931 . S
H130 C112 0.931 . S
H131 C113 0.929 . S
H132 C114 0.930 . S
H133 C117 0.930 . S
H134 C118 0.931 . S
H135 C122 0.928 . S
H136 C121 0.929 . S
H137 C119 0.932 . S
C138 C139 1.386 . S
C138 C140 1.397 . S
C138 H162 0.931 . S
C139 C138 1.386 . S
C139 C143 1.397 1_455 S
C140 C138 1.397 . S
C140 C141 1.384 . S
C140 H163 0.930 . S
C141 C140 1.384 . S
C141 C142 1.377 1_455 S
C141 C144 1.481 . S
C142 C141 1.377 1_655 S
C142 C143 1.389 . S
C142 H164 0.929 . S
C143 C139 1.397 1_655 S
C143 C142 1.389 . S
C143 H165 0.931 . S
C144 C141 1.481 . S
C144 C145 1.387 . S
C144 C149 1.390 . S
C145 C144 1.387 . S
C145 C146 1.401 . S
C145 H166 0.930 . S
C146 C145 1.401 . S
C146 C147 1.376 . S
C146 C155 1.511 . S
C147 C146 1.376 . S
C147 C148 1.392 . S
C147 H168 0.931 . S
C148 C147 1.392 . S
C148 C149 1.361 . S
C148 C150 1.500 1_455 S
C149 C144 1.390 . S
C149 C148 1.361 . S
C149 H167 0.931 1_455 S
C150 C148 1.500 1_655 S
C150 C151 1.371 . S
C150 C152 1.365 . S
C151 C150 1.371 . S
C151 C161 1.386 . S
C151 H169 0.931 . S
C152 C150 1.365 . S
C152 C153 1.409 . S
C152 H170 0.929 . S
C153 C152 1.409 . S
C153 C154 1.380 . S
C153 H171 0.930 . S
C154 C153 1.380 . S
C154 C161 1.357 . S
C155 C146 1.511 . S
C155 C156 1.341 . S
C155 C157 1.371 . S
C156 C155 1.341 . S
C156 C160 1.394 . S
C156 H172 0.930 . S
C157 C155 1.371 . S
C157 C158 1.392 . S
C157 H173 0.931 . S
C158 C157 1.392 . S
C158 C159 1.331 . S
C158 H176 0.932 . S
C159 C158 1.331 . S
C159 C160 1.336 . S
C160 C156 1.394 . S
C160 C159 1.336 . S
C160 H175 0.929 . S
C161 C151 1.386 . S
C161 C154 1.357 . S
C161 H174 0.928 . S
H162 C138 0.931 . S
H163 C140 0.930 . S
H164 C142 0.929 . S
H165 C143 0.931 . S
H166 C145 0.930 . S
H167 C149 0.931 1_655 S
H168 C147 0.931 . S
H169 C151 0.931 . S
H170 C152 0.929 . S
H171 C153 0.930 . S
H172 C156 0.930 . S
H173 C157 0.931 . S
H174 C161 0.928 . S
H175 C160 0.929 . S
H176 C158 0.932 . S
C177 C178 1.386 1_655 S
C177 C179 1.397 . S
C177 H201 0.931 . S
C178 C177 1.386 1_455 S
C178 C182 1.397 . S
C179 C177 1.397 . S
C179 C180 1.384 1_655 S
C179 H202 0.930 . S
C180 C179 1.384 1_455 S
C180 C181 1.377 . S
C180 C183 1.481 . S
C181 C180 1.377 . S
C181 C182 1.389 . S
C181 H203 0.929 . S
C182 C178 1.397 . S
C182 C181 1.389 . S
C182 H204 0.931 . S
C183 C180 1.481 . S
C183 C184 1.387 1_455 S
C183 C188 1.390 . S
C184 C183 1.387 1_655 S
C184 C185 1.401 . S
C184 H205 0.930 . S
C185 C184 1.401 . S
C185 C186 1.376 1_655 S
C185 C194 1.511 . S
C186 C185 1.376 1_455 S
C186 C187 1.392 . S
C186 H207 0.931 . S
C187 C186 1.392 . S
C187 C188 1.361 . S
C187 C189 1.500 . S
C188 C183 1.390 . S
C188 C187 1.361 . S
C188 H206 0.931 . S
C189 C187 1.500 . S
C189 C190 1.371 . S
C189 C191 1.365 . S
C190 C189 1.371 . S
C190 C200 1.386 . S
C190 H208 0.931 . S
C191 C189 1.365 . S
C191 C192 1.409 . S
C191 H209 0.929 . S
C192 C191 1.409 . S
C192 C193 1.380 . S
C192 H210 0.930 . S
C193 C192 1.380 . S
C193 C200 1.357 . S
C194 C185 1.511 . S
C194 C195 1.341 . S
C194 C196 1.371 . S
C195 C194 1.341 . S
C195 C199 1.394 . S
C195 H211 0.930 . S
C196 C194 1.371 . S
C196 C197 1.392 . S
C196 H212 0.931 . S
C197 C196 1.392 . S
C197 C198 1.331 . S
C197 H215 0.932 . S
C198 C197 1.331 . S
C198 C199 1.336 . S
C199 C195 1.394 . S
C199 C198 1.336 . S
C199 H214 0.929 . S
C200 C190 1.386 . S
C200 C193 1.357 . S
C200 H213 0.928 . S
H201 C177 0.931 . S
H202 C179 0.930 . S
H203 C181 0.929 . S
H204 C182 0.931 . S
H205 C184 0.930 . S
H206 C188 0.931 . S
H207 C186 0.931 . S
H208 C190 0.931 . S
H209 C191 0.929 . S
H210 C192 0.930 . S
H211 C195 0.930 . S
H212 C196 0.931 . S
H213 C200 0.928 . S
H214 C199 0.929 . S
H215 C197 0.932 . S
C216 C217 1.386 1_565 S
C216 C218 1.397 . S
C216 H240 0.931 . S
C217 C216 1.386 1_545 S
C217 C221 1.397 . S
C218 C216 1.397 . S
C218 C219 1.384 1_565 S
C218 H241 0.930 . S
C219 C218 1.384 1_545 S
C219 C220 1.377 . S
C219 C222 1.481 . S
C220 C219 1.377 . S
C220 C221 1.389 . S
C220 H242 0.929 . S
C221 C217 1.397 . S
C221 C220 1.389 . S
C221 H243 0.931 . S
C222 C219 1.481 . S
C222 C223 1.387 1_545 S
C222 C227 1.390 . S
C223 C222 1.387 1_565 S
C223 C224 1.401 . S
C223 H244 0.930 . S
C224 C223 1.401 . S
C224 C225 1.376 1_565 S
C224 C233 1.511 . S
C225 C224 1.376 1_545 S
C225 C226 1.392 . S
C225 H246 0.931 . S
C226 C225 1.392 . S
C226 C227 1.361 . S
C226 C228 1.500 . S
C227 C222 1.390 . S
C227 C226 1.361 . S
C227 H245 0.931 . S
C228 C226 1.500 . S
C228 C229 1.371 . S
C228 C230 1.365 . S
C229 C228 1.371 . S
C229 C239 1.386 . S
C229 H247 0.931 . S
C230 C228 1.365 . S
C230 C231 1.409 . S
C230 H248 0.929 . S
C231 C230 1.409 . S
C231 C232 1.380 . S
C231 H249 0.930 . S
C232 C231 1.380 . S
C232 C239 1.357 . S
C233 C224 1.511 . S
C233 C234 1.341 . S
C233 C235 1.371 . S
C234 C233 1.341 . S
C234 C238 1.394 . S
C234 H250 0.930 . S
C235 C233 1.371 . S
C235 C236 1.392 . S
C235 H251 0.931 . S
C236 C235 1.392 . S
C236 C237 1.331 . S
C236 H254 0.932 . S
C237 C236 1.331 . S
C237 C238 1.336 . S
C238 C234 1.394 . S
C238 C237 1.336 . S
C238 H253 0.929 . S
C239 C229 1.386 . S
C239 C232 1.357 . S
C239 H252 0.928 . S
H240 C216 0.931 . S
H241 C218 0.930 . S
H242 C220 0.929 . S
H243 C221 0.931 . S
H244 C223 0.930 . S
H245 C227 0.931 . S
H246 C225 0.931 . S
H247 C229 0.931 . S
H248 C230 0.929 . S
H249 C231 0.930 . S
H250 C234 0.930 . S
H251 C235 0.931 . S
H252 C239 0.928 . S
H253 C238 0.929 . S
H254 C236 0.932 . S
C255 C256 1.386 . S
C255 C257 1.397 . S
C255 H279 0.931 . S
C256 C255 1.386 . S
C256 C260 1.397 . S
C257 C255 1.397 . S
C257 C258 1.384 . S
C257 H280 0.930 . S
C258 C257 1.384 . S
C258 C259 1.377 . S
C258 C261 1.481 . S
C259 C258 1.377 . S
C259 C260 1.389 . S
C259 H281 0.929 . S
C260 C256 1.397 . S
C260 C259 1.389 . S
C260 H282 0.931 . S
C261 C258 1.481 . S
C261 C262 1.387 . S
C261 C266 1.390 . S
C262 C261 1.387 . S
C262 C263 1.401 . S
C262 H283 0.930 . S
C263 C262 1.401 . S
C263 C264 1.376 . S
C263 C272 1.511 . S
C264 C263 1.376 . S
C264 C265 1.392 . S
C264 H285 0.931 . S
C265 C264 1.392 . S
C265 C266 1.361 . S
C265 C267 1.500 . S
C266 C261 1.390 . S
C266 C265 1.361 . S
C266 H284 0.931 . S
C267 C265 1.500 . S
C267 C268 1.371 . S
C267 C269 1.365 . S
C268 C267 1.371 . S
C268 C278 1.386 . S
C268 H286 0.931 . S
C269 C267 1.365 . S
C269 C270 1.409 . S
C269 H287 0.929 . S
C270 C269 1.409 . S
C270 C271 1.380 . S
C270 H288 0.930 . S
C271 C270 1.380 . S
C271 C278 1.357 . S
C272 C263 1.511 . S
C272 C273 1.341 . S
C272 C274 1.371 . S
C273 C272 1.341 . S
C273 C277 1.394 . S
C273 H289 0.930 . S
C274 C272 1.371 . S
C274 C275 1.392 . S
C274 H290 0.931 . S
C275 C274 1.392 . S
C275 C276 1.331 . S
C275 H293 0.932 . S
C276 C275 1.331 . S
C276 C277 1.336 . S
C277 C273 1.394 . S
C277 C276 1.336 . S
C277 H292 0.929 . S
C278 C268 1.386 . S
C278 C271 1.357 . S
C278 H291 0.928 . S
H279 C255 0.931 . S
H280 C257 0.930 . S
H281 C259 0.929 . S
H282 C260 0.931 . S
H283 C262 0.930 . S
H284 C266 0.931 . S
H285 C264 0.931 . S
H286 C268 0.931 . S
H287 C269 0.929 . S
H288 C270 0.930 . S
H289 C273 0.930 . S
H290 C274 0.931 . S
H291 C278 0.928 . S
H292 C277 0.929 . S
H293 C275 0.932 . S
C294 C295 1.391 . S
C294 C296 1.394 . S
C294 H310 0.931 . S
C295 C294 1.391 . S
C295 C299 1.376 . S
C296 C294 1.394 . S
C296 C297 1.369 . S
C296 C300 1.531 . S
C297 C296 1.369 . S
C297 C298 1.410 . S
C297 C305 1.503 . S
C298 C297 1.410 . S
C298 C299 1.392 . S
C298 C301 1.511 . S
C299 C295 1.376 . S
C299 C298 1.392 . S
C299 H311 0.929 . S
C300 C296 1.531 . S
C300 H312 0.960 . S
C300 H313 0.962 . S
C300 H314 0.960 . S
C301 C298 1.511 . S
C301 H315 0.961 . S
C301 H316 0.961 . S
C301 H317 0.961 . S
C302 C303 1.370 . S
C302 C304 1.363 . S
C302 H318 0.931 . S
C303 C302 1.370 . S
C303 C307 1.408 . S
C304 C302 1.363 . S
C304 C305 1.370 . S
C304 C308 1.524 . S
C305 C297 1.503 . S
C305 C304 1.370 . S
C305 C306 1.403 . S
C306 C305 1.403 . S
C306 C307 1.404 . S
C306 C309 1.539 . S
C307 C303 1.408 . S
C307 C306 1.404 . S
C307 H319 0.930 . S
C308 C304 1.524 . S
C308 H320 0.956 . S
C308 H321 0.961 . S
C308 H322 0.961 . S
C309 C306 1.539 . S
C309 H323 0.958 . S
C309 H324 0.961 . S
C309 H325 0.960 . S
H310 C294 0.931 . S
H311 C299 0.929 . S
H312 C300 0.960 . S
H313 C300 0.962 . S
H314 C300 0.960 . S
H315 C301 0.961 . S
H316 C301 0.961 . S
H317 C301 0.961 . S
H318 C302 0.931 . S
H319 C307 0.930 . S
H320 C308 0.956 . S
H321 C308 0.961 . S
H322 C308 0.961 . S
H323 C309 0.958 . S
H324 C309 0.961 . S
H325 C309 0.960 . S
C326 C327 1.391 . S
C326 C328 1.394 . S
C326 H342 0.931 . S
C327 C326 1.391 . S
C327 C331 1.376 . S
C328 C326 1.394 . S
C328 C329 1.369 . S
C328 C332 1.531 . S
C329 C328 1.369 . S
C329 C330 1.410 . S
C329 C337 1.503 . S
C330 C329 1.410 . S
C330 C331 1.392 . S
C330 C333 1.511 . S
C331 C327 1.376 . S
C331 C330 1.392 . S
C331 H343 0.929 . S
C332 C328 1.531 . S
C332 H344 0.960 . S
C332 H345 0.962 . S
C332 H346 0.960 . S
C333 C330 1.511 . S
C333 H347 0.961 . S
C333 H348 0.961 . S
C333 H349 0.961 . S
C334 C335 1.370 . S
C334 C336 1.363 . S
C334 H350 0.931 . S
C335 C334 1.370 . S
C335 C339 1.408 . S
C336 C334 1.363 . S
C336 C337 1.370 . S
C336 C340 1.524 . S
C337 C329 1.503 . S
C337 C336 1.370 . S
C337 C338 1.403 . S
C338 C337 1.403 . S
C338 C339 1.404 . S
C338 C341 1.539 . S
C339 C335 1.408 . S
C339 C338 1.404 . S
C339 H351 0.930 . S
C340 C336 1.524 . S
C340 H352 0.956 . S
C340 H353 0.961 . S
C340 H354 0.961 . S
C341 C338 1.539 . S
C341 H355 0.958 . S
C341 H356 0.961 . S
C341 H357 0.960 . S
H342 C326 0.931 . S
H343 C331 0.929 . S
H344 C332 0.960 . S
H345 C332 0.962 . S
H346 C332 0.960 . S
H347 C333 0.961 . S
H348 C333 0.961 . S
H349 C333 0.961 . S
H350 C334 0.931 . S
H351 C339 0.930 . S
H352 C340 0.956 . S
H353 C340 0.961 . S
H354 C340 0.961 . S
H355 C341 0.958 . S
H356 C341 0.961 . S
H357 C341 0.960 . S
C358 C359 1.391 . S
C358 C360 1.394 . S
C358 H374 0.931 . S
C359 C358 1.391 . S
C359 C363 1.376 . S
C360 C358 1.394 . S
C360 C361 1.369 . S
C360 C364 1.531 . S
C361 C360 1.369 . S
C361 C362 1.410 . S
C361 C369 1.503 . S
C362 C361 1.410 . S
C362 C363 1.392 . S
C362 C365 1.511 . S
C363 C359 1.376 . S
C363 C362 1.392 . S
C363 H375 0.929 . S
C364 C360 1.531 . S
C364 H376 0.960 . S
C364 H377 0.962 . S
C364 H378 0.960 . S
C365 C362 1.511 . S
C365 H379 0.961 . S
C365 H380 0.961 . S
C365 H381 0.961 . S
C366 C367 1.370 . S
C366 C368 1.363 . S
C366 H382 0.931 . S
C367 C366 1.370 . S
C367 C371 1.408 . S
C368 C366 1.363 . S
C368 C369 1.370 . S
C368 C372 1.524 . S
C369 C361 1.503 . S
C369 C368 1.370 . S
C369 C370 1.403 . S
C370 C369 1.403 . S
C370 C371 1.404 . S
C370 C373 1.539 . S
C371 C367 1.408 . S
C371 C370 1.404 . S
C371 H383 0.930 . S
C372 C368 1.524 . S
C372 H384 0.956 . S
C372 H385 0.961 . S
C372 H386 0.961 . S
C373 C370 1.539 . S
C373 H387 0.958 . S
C373 H388 0.961 . S
C373 H389 0.960 . S
H374 C358 0.931 . S
H375 C363 0.929 . S
H376 C364 0.960 . S
H377 C364 0.962 . S
H378 C364 0.960 . S
H379 C365 0.961 . S
H380 C365 0.961 . S
H381 C365 0.961 . S
H382 C366 0.931 . S
H383 C371 0.930 . S
H384 C372 0.956 . S
H385 C372 0.961 . S
H386 C372 0.961 . S
H387 C373 0.958 . S
H388 C373 0.961 . S
H389 C373 0.960 . S
C390 C391 1.391 . S
C390 C392 1.394 . S
C390 H406 0.931 . S
C391 C390 1.391 . S
C391 C395 1.376 . S
C392 C390 1.394 . S
C392 C393 1.369 . S
C392 C396 1.531 . S
C393 C392 1.369 . S
C393 C394 1.410 . S
C393 C401 1.503 . S
C394 C393 1.410 . S
C394 C395 1.392 . S
C394 C397 1.511 . S
C395 C391 1.376 . S
C395 C394 1.392 . S
C395 H407 0.929 . S
C396 C392 1.531 . S
C396 H408 0.960 . S
C396 H409 0.962 . S
C396 H410 0.960 . S
C397 C394 1.511 . S
C397 H411 0.961 . S
C397 H412 0.961 . S
C397 H413 0.961 . S
C398 C399 1.370 . S
C398 C400 1.363 . S
C398 H414 0.931 . S
C399 C398 1.370 . S
C399 C403 1.408 . S
C400 C398 1.363 . S
C400 C401 1.370 . S
C400 C404 1.524 . S
C401 C393 1.503 . S
C401 C400 1.370 . S
C401 C402 1.403 . S
C402 C401 1.403 . S
C402 C403 1.404 . S
C402 C405 1.539 . S
C403 C399 1.408 . S
C403 C402 1.404 . S
C403 H415 0.930 . S
C404 C400 1.524 . S
C404 H416 0.956 . S
C404 H417 0.961 . S
C404 H418 0.961 . S
C405 C402 1.539 . S
C405 H419 0.958 . S
C405 H420 0.961 . S
C405 H421 0.960 . S
H406 C390 0.931 . S
H407 C395 0.929 . S
H408 C396 0.960 . S
H409 C396 0.962 . S
H410 C396 0.960 . S
H411 C397 0.961 . S
H412 C397 0.961 . S
H413 C397 0.961 . S
H414 C398 0.931 . S
H415 C403 0.930 . S
H416 C404 0.956 . S
H417 C404 0.961 . S
H418 C404 0.961 . S
H419 C405 0.958 . S
H420 C405 0.961 . S
H421 C405 0.960 . S
C422 C423 1.391 . S
C422 C424 1.394 . S
C422 H438 0.931 . S
C423 C422 1.391 . S
C423 C427 1.376 . S
C424 C422 1.394 . S
C424 C425 1.369 . S
C424 C428 1.531 . S
C425 C424 1.369 . S
C425 C426 1.410 . S
C425 C433 1.503 . S
C426 C425 1.410 . S
C426 C427 1.392 . S
C426 C429 1.511 . S
C427 C423 1.376 . S
C427 C426 1.392 . S
C427 H439 0.929 . S
C428 C424 1.531 . S
C428 H440 0.960 . S
C428 H441 0.962 . S
C428 H442 0.960 . S
C429 C426 1.511 . S
C429 H443 0.961 . S
C429 H444 0.961 . S
C429 H445 0.961 . S
C430 C431 1.370 . S
C430 C432 1.363 . S
C430 H446 0.931 . S
C431 C430 1.370 . S
C431 C435 1.408 . S
C432 C430 1.363 . S
C432 C433 1.370 . S
C432 C436 1.524 . S
C433 C425 1.503 . S
C433 C432 1.370 . S
C433 C434 1.403 . S
C434 C433 1.403 . S
C434 C435 1.404 . S
C434 C437 1.539 . S
C435 C431 1.408 . S
C435 C434 1.404 . S
C435 H447 0.930 . S
C436 C432 1.524 . S
C436 H448 0.956 . S
C436 H449 0.961 . S
C436 H450 0.961 . S
C437 C434 1.539 . S
C437 H451 0.958 . S
C437 H452 0.961 . S
C437 H453 0.960 . S
H438 C422 0.931 . S
H439 C427 0.929 . S
H440 C428 0.960 . S
H441 C428 0.962 . S
H442 C428 0.960 . S
H443 C429 0.961 . S
H444 C429 0.961 . S
H445 C429 0.961 . S
H446 C430 0.931 . S
H447 C435 0.930 . S
H448 C436 0.956 . S
H449 C436 0.961 . S
H450 C436 0.961 . S
H451 C437 0.958 . S
H452 C437 0.961 . S
H453 C437 0.960 . S
C454 C455 1.391 . S
C454 C456 1.394 . S
C454 H470 0.931 . S
C455 C454 1.391 . S
C455 C459 1.376 . S
C456 C454 1.394 . S
C456 C457 1.369 . S
C456 C460 1.531 . S
C457 C456 1.369 . S
C457 C458 1.410 . S
C457 C465 1.503 . S
C458 C457 1.410 . S
C458 C459 1.392 . S
C458 C461 1.511 . S
C459 C455 1.376 . S
C459 C458 1.392 . S
C459 H471 0.929 . S
C460 C456 1.531 . S
C460 H472 0.960 . S
C460 H473 0.962 . S
C460 H474 0.960 . S
C461 C458 1.511 . S
C461 H475 0.961 . S
C461 H476 0.961 . S
C461 H477 0.961 . S
C462 C463 1.370 . S
C462 C464 1.363 . S
C462 H478 0.931 . S
C463 C462 1.370 . S
C463 C467 1.408 . S
C464 C462 1.363 . S
C464 C465 1.370 . S
C464 C468 1.524 . S
C465 C457 1.503 . S
C465 C464 1.370 . S
C465 C466 1.403 . S
C466 C465 1.403 . S
C466 C467 1.404 . S
C466 C469 1.539 . S
C467 C463 1.408 . S
C467 C466 1.404 . S
C467 H479 0.930 . S
C468 C464 1.524 . S
C468 H480 0.956 . S
C468 H481 0.961 . S
C468 H482 0.961 . S
C469 C466 1.539 . S
C469 H483 0.958 . S
C469 H484 0.961 . S
C469 H485 0.960 . S
H470 C454 0.931 . S
H471 C459 0.929 . S
H472 C460 0.960 . S
H473 C460 0.962 . S
H474 C460 0.960 . S
H475 C461 0.961 . S
H476 C461 0.961 . S
H477 C461 0.961 . S
H478 C462 0.931 . S
H479 C467 0.930 . S
H480 C468 0.956 . S
H481 C468 0.961 . S
H482 C468 0.961 . S
H483 C469 0.958 . S
H484 C469 0.961 . S
H485 C469 0.960 . S
C486 C487 1.391 . S
C486 C488 1.394 . S
C486 H502 0.931 . S
C487 C486 1.391 . S
C487 C491 1.376 . S
C488 C486 1.394 . S
C488 C489 1.369 . S
C488 C492 1.531 . S
C489 C488 1.369 . S
C489 C490 1.410 . S
C489 C497 1.503 . S
C490 C489 1.410 . S
C490 C491 1.392 . S
C490 C493 1.511 . S
C491 C487 1.376 . S
C491 C490 1.392 . S
C491 H503 0.929 . S
C492 C488 1.531 . S
C492 H504 0.960 . S
C492 H505 0.962 . S
C492 H506 0.960 . S
C493 C490 1.511 . S
C493 H507 0.961 . S
C493 H508 0.961 . S
C493 H509 0.961 . S
C494 C495 1.370 . S
C494 C496 1.363 . S
C494 H510 0.931 . S
C495 C494 1.370 . S
C495 C499 1.408 . S
C496 C494 1.363 . S
C496 C497 1.370 . S
C496 C500 1.524 . S
C497 C489 1.503 . S
C497 C496 1.370 . S
C497 C498 1.403 . S
C498 C497 1.403 . S
C498 C499 1.404 . S
C498 C501 1.539 . S
C499 C495 1.408 . S
C499 C498 1.404 . S
C499 H511 0.930 . S
C500 C496 1.524 . S
C500 H512 0.956 . S
C500 H513 0.961 . S
C500 H514 0.961 . S
C501 C498 1.539 . S
C501 H515 0.958 . S
C501 H516 0.961 . S
C501 H517 0.960 . S
H502 C486 0.931 . S
H503 C491 0.929 . S
H504 C492 0.960 . S
H505 C492 0.962 . S
H506 C492 0.960 . S
H507 C493 0.961 . S
H508 C493 0.961 . S
H509 C493 0.961 . S
H510 C494 0.931 . S
H511 C499 0.930 . S
H512 C500 0.956 . S
H513 C500 0.961 . S
H514 C500 0.961 . S
H515 C501 0.958 . S
H516 C501 0.961 . S
H517 C501 0.960 . S
C518 C519 1.391 . S
C518 C520 1.394 . S
C518 H534 0.931 . S
C519 C518 1.391 . S
C519 C523 1.376 . S
C520 C518 1.394 . S
C520 C521 1.369 . S
C520 C524 1.531 . S
C521 C520 1.369 . S
C521 C522 1.410 . S
C521 C529 1.503 . S
C522 C521 1.410 . S
C522 C523 1.392 . S
C522 C525 1.511 . S
C523 C519 1.376 . S
C523 C522 1.392 . S
C523 H535 0.929 . S
C524 C520 1.531 . S
C524 H536 0.960 . S
C524 H537 0.962 . S
C524 H538 0.960 . S
C525 C522 1.511 . S
C525 H539 0.961 . S
C525 H540 0.961 . S
C525 H541 0.961 . S
C526 C527 1.370 . S
C526 C528 1.363 . S
C526 H542 0.931 . S
C527 C526 1.370 . S
C527 C531 1.408 . S
C528 C526 1.363 . S
C528 C529 1.370 . S
C528 C532 1.524 . S
C529 C521 1.503 . S
C529 C528 1.370 . S
C529 C530 1.403 . S
C530 C529 1.403 . S
C530 C531 1.404 . S
C530 C533 1.539 . S
C531 C527 1.408 . S
C531 C530 1.404 . S
C531 H543 0.930 . S
C532 C528 1.524 . S
C532 H544 0.956 . S
C532 H545 0.961 . S
C532 H546 0.961 . S
C533 C530 1.539 . S
C533 H547 0.958 . S
C533 H548 0.961 . S
C533 H549 0.960 . S
H534 C518 0.931 . S
H535 C523 0.929 . S
H536 C524 0.960 . S
H537 C524 0.962 . S
H538 C524 0.960 . S
H539 C525 0.961 . S
H540 C525 0.961 . S
H541 C525 0.961 . S
H542 C526 0.931 . S
H543 C531 0.930 . S
H544 C532 0.956 . S
H545 C532 0.961 . S
H546 C532 0.961 . S
H547 C533 0.958 . S
H548 C533 0.961 . S
H549 C533 0.960 . S
C550 C551 1.391 . S
C550 C552 1.394 . S
C550 H566 0.931 . S
C551 C550 1.391 . S
C551 C555 1.376 . S
C552 C550 1.394 . S
C552 C553 1.369 . S
C552 C556 1.531 . S
C553 C552 1.369 . S
C553 C554 1.410 . S
C553 C561 1.503 . S
C554 C553 1.410 . S
C554 C555 1.392 . S
C554 C557 1.511 . S
C555 C551 1.376 . S
C555 C554 1.392 . S
C555 H567 0.929 . S
C556 C552 1.531 . S
C556 H568 0.960 . S
C556 H569 0.962 . S
C556 H570 0.960 . S
C557 C554 1.511 . S
C557 H571 0.961 . S
C557 H572 0.961 . S
C557 H573 0.961 . S
C558 C559 1.370 . S
C558 C560 1.363 . S
C558 H574 0.931 . S
C559 C558 1.370 . S
C559 C563 1.408 . S
C560 C558 1.363 . S
C560 C561 1.370 . S
C560 C564 1.524 . S
C561 C553 1.503 . S
C561 C560 1.370 . S
C561 C562 1.403 . S
C562 C561 1.403 . S
C562 C563 1.404 . S
C562 C565 1.539 . S
C563 C559 1.408 . S
C563 C562 1.404 . S
C563 H575 0.930 . S
C564 C560 1.524 . S
C564 H576 0.956 . S
C564 H577 0.961 . S
C564 H578 0.961 . S
C565 C562 1.539 . S
C565 H579 0.958 . S
C565 H580 0.961 . S
C565 H581 0.960 . S
H566 C550 0.931 . S
H567 C555 0.929 . S
H568 C556 0.960 . S
H569 C556 0.962 . S
H570 C556 0.960 . S
H571 C557 0.961 . S
H572 C557 0.961 . S
H573 C557 0.961 . S
H574 C558 0.931 . S
H575 C563 0.930 . S
H576 C564 0.956 . S
H577 C564 0.961 . S
H578 C564 0.961 . S
H579 C565 0.958 . S
H580 C565 0.961 . S
H581 C565 0.960 . S
C582 C583 1.391 . S
C582 C584 1.394 . S
C582 H598 0.931 . S
C583 C582 1.391 . S
C583 C587 1.376 . S
C584 C582 1.394 . S
C584 C585 1.369 . S
C584 C588 1.531 . S
C585 C584 1.369 . S
C585 C586 1.410 . S
C585 C593 1.503 . S
C586 C585 1.410 . S
C586 C587 1.392 . S
C586 C589 1.511 . S
C587 C583 1.376 . S
C587 C586 1.392 . S
C587 H599 0.929 . S
C588 C584 1.531 . S
C588 H600 0.960 . S
C588 H601 0.962 . S
C588 H602 0.960 . S
C589 C586 1.511 . S
C589 H603 0.961 . S
C589 H604 0.961 . S
C589 H605 0.961 . S
C590 C591 1.370 . S
C590 C592 1.363 . S
C590 H606 0.931 . S
C591 C590 1.370 . S
C591 C595 1.408 . S
C592 C590 1.363 . S
C592 C593 1.370 . S
C592 C596 1.524 . S
C593 C585 1.503 . S
C593 C592 1.370 . S
C593 C594 1.403 . S
C594 C593 1.403 . S
C594 C595 1.404 . S
C594 C597 1.539 . S
C595 C591 1.408 . S
C595 C594 1.404 . S
C595 H607 0.930 . S
C596 C592 1.524 . S
C596 H608 0.956 . S
C596 H609 0.961 . S
C596 H610 0.961 . S
C597 C594 1.539 . S
C597 H611 0.958 . S
C597 H612 0.961 . S
C597 H613 0.960 . S
H598 C582 0.931 . S
H599 C587 0.929 . S
H600 C588 0.960 . S
H601 C588 0.962 . S
H602 C588 0.960 . S
H603 C589 0.961 . S
H604 C589 0.961 . S
H605 C589 0.961 . S
H606 C590 0.931 . S
H607 C595 0.930 . S
H608 C596 0.956 . S
H609 C596 0.961 . S
H610 C596 0.961 . S
H611 C597 0.958 . S
H612 C597 0.961 . S
H613 C597 0.960 . S
C614 C615 1.391 . S
C614 C616 1.394 . S
C614 H630 0.931 . S
C615 C614 1.391 . S
C615 C619 1.376 . S
C616 C614 1.394 . S
C616 C617 1.369 . S
C616 C620 1.531 . S
C617 C616 1.369 . S
C617 C618 1.410 . S
C617 C625 1.503 . S
C618 C617 1.410 . S
C618 C619 1.392 . S
C618 C621 1.511 . S
C619 C615 1.376 . S
C619 C618 1.392 . S
C619 H631 0.929 . S
C620 C616 1.531 . S
C620 H632 0.960 . S
C620 H633 0.962 . S
C620 H634 0.960 . S
C621 C618 1.511 . S
C621 H635 0.961 . S
C621 H636 0.961 . S
C621 H637 0.961 . S
C622 C623 1.370 . S
C622 C624 1.363 . S
C622 H638 0.931 . S
C623 C622 1.370 . S
C623 C627 1.408 . S
C624 C622 1.363 . S
C624 C625 1.370 . S
C624 C628 1.524 . S
C625 C617 1.503 . S
C625 C624 1.370 . S
C625 C626 1.403 . S
C626 C625 1.403 . S
C626 C627 1.404 . S
C626 C629 1.539 . S
C627 C623 1.408 . S
C627 C626 1.404 . S
C627 H639 0.930 . S
C628 C624 1.524 . S
C628 H640 0.956 . S
C628 H641 0.961 . S
C628 H642 0.961 . S
C629 C626 1.539 . S
C629 H643 0.958 . S
C629 H644 0.961 . S
C629 H645 0.960 . S
H630 C614 0.931 . S
H631 C619 0.929 . S
H632 C620 0.960 . S
H633 C620 0.962 . S
H634 C620 0.960 . S
H635 C621 0.961 . S
H636 C621 0.961 . S
H637 C621 0.961 . S
H638 C622 0.931 . S
H639 C627 0.930 . S
H640 C628 0.956 . S
H641 C628 0.961 . S
H642 C628 0.961 . S
H643 C629 0.958 . S
H644 C629 0.961 . S
H645 C629 0.960 . S
C646 C647 1.391 . S
C646 C648 1.394 . S
C646 H662 0.931 . S
C647 C646 1.391 . S
C647 C651 1.376 . S
C648 C646 1.394 . S
C648 C649 1.369 . S
C648 C652 1.531 . S
C649 C648 1.369 . S
C649 C650 1.410 . S
C649 C657 1.503 . S
C650 C649 1.410 . S
C650 C651 1.392 . S
C650 C653 1.511 . S
C651 C647 1.376 . S
C651 C650 1.392 . S
C651 H663 0.929 . S
C652 C648 1.531 . S
C652 H664 0.960 . S
C652 H665 0.962 . S
C652 H666 0.960 . S
C653 C650 1.511 . S
C653 H667 0.961 . S
C653 H668 0.961 . S
C653 H669 0.961 . S
C654 C655 1.370 . S
C654 C656 1.363 . S
C654 H670 0.931 . S
C655 C654 1.370 . S
C655 C659 1.408 . S
C656 C654 1.363 . S
C656 C657 1.370 . S
C656 C660 1.524 . S
C657 C649 1.503 . S
C657 C656 1.370 . S
C657 C658 1.403 . S
C658 C657 1.403 . S
C658 C659 1.404 . S
C658 C661 1.539 . S
C659 C655 1.408 . S
C659 C658 1.404 . S
C659 H671 0.930 . S
C660 C656 1.524 . S
C660 H672 0.956 . S
C660 H673 0.961 . S
C660 H674 0.961 . S
C661 C658 1.539 . S
C661 H675 0.958 . S
C661 H676 0.961 . S
C661 H677 0.960 . S
H662 C646 0.931 . S
H663 C651 0.929 . S
H664 C652 0.960 . S
H665 C652 0.962 . S
H666 C652 0.960 . S
H667 C653 0.961 . S
H668 C653 0.961 . S
H669 C653 0.961 . S
H670 C654 0.931 . S
H671 C659 0.930 . S
H672 C660 0.956 . S
H673 C660 0.961 . S
H674 C660 0.961 . S
H675 C661 0.958 . S
H676 C661 0.961 . S
H677 C661 0.960 . S
C678 C679 1.391 . S
C678 C680 1.394 . S
C678 H694 0.931 . S
C679 C678 1.391 . S
C679 C683 1.376 1_455 S
C680 C678 1.394 . S
C680 C681 1.369 . S
C680 C684 1.531 . S
C681 C680 1.369 . S
C681 C682 1.410 1_455 S
C681 C689 1.503 . S
C682 C681 1.410 1_655 S
C682 C683 1.392 . S
C682 C685 1.511 . S
C683 C679 1.376 1_655 S
C683 C682 1.392 . S
C683 H695 0.929 . S
C684 C680 1.531 . S
C684 H696 0.960 . S
C684 H697 0.962 . S
C684 H698 0.960 . S
C685 C682 1.511 . S
C685 H699 0.961 . S
C685 H700 0.961 . S
C685 H701 0.961 . S
C686 C687 1.370 . S
C686 C688 1.363 . S
C686 H702 0.931 . S
C687 C686 1.370 . S
C687 C691 1.408 1_455 S
C688 C686 1.363 . S
C688 C689 1.370 . S
C688 C692 1.524 . S
C689 C681 1.503 . S
C689 C688 1.370 . S
C689 C690 1.403 1_455 S
C690 C689 1.403 1_655 S
C690 C691 1.404 . S
C690 C693 1.539 . S
C691 C687 1.408 1_655 S
C691 C690 1.404 . S
C691 H703 0.941 . S
C692 C688 1.524 . S
C692 H704 0.956 . S
C692 H705 0.961 . S
C692 H706 0.961 . S
C693 C690 1.539 . S
C693 H707 0.958 . S
C693 H708 0.961 . S
C693 H709 0.960 . S
H694 C678 0.931 . S
H695 C683 0.929 . S
H696 C684 0.960 . S
H697 C684 0.962 . S
H698 C684 0.960 . S
H699 C685 0.961 . S
H700 C685 0.961 . S
H701 C685 0.961 . S
H702 C686 0.931 . S
H703 C691 0.941 . S
H704 C692 0.956 . S
H705 C692 0.961 . S
H706 C692 0.961 . S
H707 C693 0.958 . S
H708 C693 0.961 . S
H709 C693 0.960 . S
C710 C711 1.391 1_565 S
C710 C712 1.394 . S
C710 H726 0.931 . S
C711 C710 1.391 1_545 S
C711 C715 1.376 . S
C712 C710 1.394 . S
C712 C713 1.369 1_565 S
C712 C716 1.531 . S
C713 C712 1.369 1_545 S
C713 C714 1.410 . S
C713 C721 1.503 . S
C714 C713 1.410 . S
C714 C715 1.392 . S
C714 C717 1.511 . S
C715 C711 1.376 . S
C715 C714 1.392 . S
C715 H727 0.929 . S
C716 C712 1.531 . S
C716 H728 0.960 . S
C716 H729 0.962 . S
C716 H730 0.960 . S
C717 C714 1.511 . S
C717 H731 0.961 . S
C717 H732 0.961 . S
C717 H733 0.961 . S
C718 C719 1.370 . S
C718 C720 1.363 . S
C718 H734 0.931 . S
C719 C718 1.370 . S
C719 C723 1.408 1_545 S
C720 C718 1.363 . S
C720 C721 1.370 . S
C720 C724 1.524 . S
C721 C713 1.503 . S
C721 C720 1.370 . S
C721 C722 1.403 1_545 S
C722 C721 1.403 1_565 S
C722 C723 1.404 . S
C722 C725 1.539 . S
C723 C719 1.408 1_565 S
C723 C722 1.404 . S
C723 H735 0.930 . S
C724 C720 1.524 . S
C724 H736 0.956 . S
C724 H737 0.961 . S
C724 H738 0.961 . S
C725 C722 1.539 . S
C725 H739 0.958 . S
C725 H740 0.961 . S
C725 H741 0.960 . S
H726 C710 0.931 . S
H727 C715 0.929 . S
H728 C716 0.960 . S
H729 C716 0.962 . S
H730 C716 0.960 . S
H731 C717 0.961 . S
H732 C717 0.961 . S
H733 C717 0.961 . S
H734 C718 0.931 . S
H735 C723 0.930 . S
H736 C724 0.956 . S
H737 C724 0.961 . S
H738 C724 0.961 . S
H739 C725 0.958 . S
H740 C725 0.961 . S
H741 C725 0.960 . S
C742 C743 1.391 . S
C742 C744 1.394 . S
C742 H758 0.931 . S
C743 C742 1.391 . S
C743 C747 1.376 . S
C744 C742 1.394 . S
C744 C745 1.369 . S
C744 C748 1.531 . S
C745 C744 1.369 . S
C745 C746 1.410 . S
C745 C753 1.503 . S
C746 C745 1.410 . S
C746 C747 1.392 . S
C746 C749 1.511 . S
C747 C743 1.376 . S
C747 C746 1.392 . S
C747 H759 0.929 . S
C748 C744 1.531 . S
C748 H760 0.960 . S
C748 H761 0.962 . S
C748 H762 0.960 . S
C749 C746 1.511 . S
C749 H763 0.961 . S
C749 H764 0.961 . S
C749 H765 0.961 . S
C750 C751 1.370 . S
C750 C752 1.363 . S
C750 H766 0.931 . S
C751 C750 1.370 . S
C751 C755 1.408 . S
C752 C750 1.363 . S
C752 C753 1.370 . S
C752 C756 1.524 . S
C753 C745 1.503 . S
C753 C752 1.370 . S
C753 C754 1.403 . S
C754 C753 1.403 . S
C754 C755 1.404 . S
C754 C757 1.539 . S
C755 C751 1.408 . S
C755 C754 1.404 . S
C755 H767 0.930 . S
C756 C752 1.524 . S
C756 H768 0.956 . S
C756 H769 0.961 . S
C756 H770 0.961 . S
C757 C754 1.539 . S
C757 H771 0.958 . S
C757 H772 0.961 . S
C757 H773 0.960 . S
H758 C742 0.931 . S
H759 C747 0.929 . S
H760 C748 0.960 . S
H761 C748 0.962 . S
H762 C748 0.960 . S
H763 C749 0.961 . S
H764 C749 0.961 . S
H765 C749 0.961 . S
H766 C750 0.931 . S
H767 C755 0.930 . S
H768 C756 0.956 . S
H769 C756 0.961 . S
H770 C756 0.961 . S
H771 C757 0.958 . S
H772 C757 0.961 . S
H773 C757 0.960 . S
C774 C775 1.391 . S
C774 C776 1.394 . S
C774 H790 0.931 . S
C775 C774 1.391 . S
C775 C779 1.376 . S
C776 C774 1.394 . S
C776 C777 1.369 . S
C776 C780 1.531 . S
C777 C776 1.369 . S
C777 C778 1.410 . S
C777 C785 1.503 . S
C778 C777 1.410 . S
C778 C779 1.392 . S
C778 C781 1.511 1_545 S
C779 C775 1.376 . S
C779 C778 1.392 . S
C779 H791 0.929 1_545 S
C780 C776 1.531 . S
C780 H792 0.960 . S
C780 H793 0.962 . S
C780 H794 0.960 . S
C781 C778 1.511 1_565 S
C781 H795 0.961 . S
C781 H796 0.961 . S
C781 H797 0.961 1_565 S
C782 C783 1.370 1_565 S
C782 C784 1.363 . S
C782 H798 0.931 . S
C783 C782 1.370 1_545 S
C783 C787 1.408 . S
C784 C782 1.363 . S
C784 C785 1.370 1_565 S
C784 C788 1.524 . S
C785 C777 1.503 . S
C785 C784 1.370 1_545 S
C785 C786 1.403 . S
C786 C785 1.403 . S
C786 C787 1.404 . S
C786 C789 1.539 . S
C787 C783 1.408 . S
C787 C786 1.404 . S
C787 H799 0.930 . S
C788 C784 1.524 . S
C788 H800 0.956 . S
C788 H801 0.961 . S
C788 H802 0.961 . S
C789 C786 1.539 . S
C789 H803 0.958 . S
C789 H804 0.961 . S
C789 H805 0.960 . S
H790 C774 0.931 . S
H791 C779 0.929 1_565 S
H792 C780 0.960 . S
H793 C780 0.962 . S
H794 C780 0.960 . S
H795 C781 0.961 . S
H796 C781 0.961 . S
H797 C781 0.961 1_545 S
H798 C782 0.931 . S
H799 C787 0.930 . S
H800 C788 0.956 . S
H801 C788 0.961 . S
H802 C788 0.961 . S
H803 C789 0.958 . S
H804 C789 0.961 . S
H805 C789 0.960 . S
C806 C807 1.391 . S
C806 C808 1.394 . S
C806 H822 0.931 . S
C807 C806 1.391 . S
C807 C811 1.376 . S
C808 C806 1.394 . S
C808 C809 1.369 . S
C808 C812 1.531 . S
C809 C808 1.369 . S
C809 C810 1.410 . S
C809 C817 1.503 . S
C810 C809 1.410 . S
C810 C811 1.392 . S
C810 C813 1.511 . S
C811 C807 1.376 . S
C811 C810 1.392 . S
C811 H823 0.929 . S
C812 C808 1.531 . S
C812 H824 0.960 . S
C812 H825 0.962 . S
C812 H826 0.960 . S
C813 C810 1.511 . S
C813 H827 0.961 . S
C813 H828 0.961 . S
C813 H829 0.961 . S
C814 C815 1.370 . S
C814 C816 1.363 . S
C814 H830 0.931 . S
C815 C814 1.370 . S
C815 C819 1.408 . S
C816 C814 1.363 . S
C816 C817 1.370 . S
C816 C820 1.524 . S
C817 C809 1.503 . S
C817 C816 1.370 . S
C817 C818 1.403 . S
C818 C817 1.403 . S
C818 C819 1.404 . S
C818 C821 1.539 . S
C819 C815 1.408 . S
C819 C818 1.404 . S
C819 H831 0.930 . S
C820 C816 1.524 . S
C820 H832 0.956 . S
C820 H833 0.961 . S
C820 H834 0.961 . S
C821 C818 1.539 . S
C821 H835 0.958 . S
C821 H836 0.961 . S
C821 H837 0.960 . S
H822 C806 0.931 . S
H823 C811 0.929 . S
H824 C812 0.960 . S
H825 C812 0.962 . S
H826 C812 0.960 . S
H827 C813 0.961 . S
H828 C813 0.961 . S
H829 C813 0.961 . S
H830 C814 0.931 . S
H831 C819 0.930 . S
H832 C820 0.956 . S
H833 C820 0.961 . S
H834 C820 0.961 . S
H835 C821 0.958 . S
H836 C821 0.961 . S
H837 C821 0.960 . S
C838 C839 1.391 1_455 S
C838 C840 1.394 . S
C838 H854 0.931 . S
C839 C838 1.391 1_655 S
C839 C843 1.376 . S
C840 C838 1.394 . S
C840 C841 1.369 1_455 S
C840 C844 1.531 . S
C841 C840 1.369 1_655 S
C841 C842 1.410 . S
C841 C849 1.503 . S
C842 C841 1.410 . S
C842 C843 1.392 . S
C842 C845 1.511 . S
C843 C839 1.376 . S
C843 C842 1.392 . S
C843 H855 0.929 . S
C844 C840 1.531 . S
C844 H856 0.960 . S
C844 H857 0.962 . S
C844 H858 0.960 . S
C845 C842 1.511 . S
C845 H859 0.961 . S
C845 H860 0.961 . S
C845 H861 0.961 . S
C846 C847 1.370 . S
C846 C848 1.363 . S
C846 H862 0.931 . S
C847 C846 1.370 . S
C847 C851 1.408 1_455 S
C848 C846 1.363 . S
C848 C849 1.370 1_455 S
C848 C852 1.524 . S
C849 C841 1.503 . S
C849 C848 1.370 1_655 S
C849 C850 1.403 . S
C850 C849 1.403 . S
C850 C851 1.404 . S
C850 C853 1.539 . S
C851 C847 1.408 1_655 S
C851 C850 1.404 . S
C851 H863 0.930 . S
C852 C848 1.524 . S
C852 H864 0.956 . S
C852 H865 0.961 . S
C852 H866 0.961 . S
C853 C850 1.539 . S
C853 H867 0.958 . S
C853 H868 0.961 . S
C853 H869 0.960 . S
H854 C838 0.931 . S
H855 C843 0.929 . S
H856 C844 0.960 . S
H857 C844 0.962 . S
H858 C844 0.960 . S
H859 C845 0.961 . S
H860 C845 0.961 . S
H861 C845 0.961 . S
H862 C846 0.931 . S
H863 C851 0.930 . S
H864 C852 0.956 . S
H865 C852 0.961 . S
H866 C852 0.961 . S
H867 C853 0.958 . S
H868 C853 0.961 . S
H869 C853 0.960 . S
C295 C2 1.327 . S
C303 C271 1.441 . S
C327 C22 1.371 . S
C335 C198 1.437 . S
C359 C44 1.437 . S
C367 C237 1.486 . S
C391 C4 1.559 . S
C399 C276 1.616 . S
C431 C193 1.637 . S
C423 C24 1.576 . S
C463 C232 1.591 . S
C455 C42 1.479 . S
C487 C32 1.343 . S
C495 C120 1.357 . S
C519 C49 1.277 . S
C527 C154 1.290 . S
C551 C9 1.249 . S
C559 C76 1.262 . S
C591 C115 1.274 . S
C583 C29 1.262 . S
C623 C159 1.315 . S
C615 C52 1.225 . S
C647 C12 1.268 . S
C655 C81 1.299 . S
C687 C139 1.439 1_554 S
C679 C18 1.417 1_455 S
C711 C38 1.400 . S
C719 C61 1.440 . S
C743 C58 1.401 . S
C751 C100 1.445 . S
C783 C217 1.503 . S
C775 C39 1.468 . S
C815 C256 1.497 1_556 S
C807 C59 1.488 . S
C839 C19 1.486 1_655 S
C847 C178 1.496 . S
