# Generated by pormake.
# Topology pyr, (3,6)-cn, num edge types: 1
# Building blocks:
#     Node 0, Type 0, BuildingBlock: PAMTOO_clean_linker_0, # of connection points: 3
#     Node 1, Type 0, BuildingBlock: PAMTOO_clean_linker_0, # of connection points: 3
#     Node 2, Type 0, BuildingBlock: PAMTOO_clean_linker_0, # of connection points: 3
#     Node 3, Type 0, BuildingBlock: PAMTOO_clean_linker_0, # of connection points: 3
#     Node 4, Type 0, BuildingBlock: PAMTOO_clean_linker_0, # of connection points: 3
#     Node 5, Type 0, BuildingBlock: PAMTOO_clean_linker_0, # of connection points: 3
#     Node 6, Type 0, BuildingBlock: PAMTOO_clean_linker_0, # of connection points: 3
#     Node 7, Type 0, BuildingBlock: PAMTOO_clean_linker_0, # of connection points: 3
#     Node 8, Type 1, BuildingBlock: BETFAJ_clean_sbu_0, # of connection points: 6
#     Node 9, Type 1, BuildingBlock: BETFAJ_clean_sbu_0, # of connection points: 6
#     Node 10, Type 1, BuildingBlock: BETFAJ_clean_sbu_0, # of connection points: 6
#     Node 11, Type 1, BuildingBlock: BETFAJ_clean_sbu_0, # of connection points: 6
#     Edge 12, Type (0, 1), BuildingBlock: ZUJKAS_clean_linker_0, # of connection points: 2
#     Edge 13, Type (0, 1), BuildingBlock: ZUJKAS_clean_linker_0, # of connection points: 2
#     Edge 14, Type (0, 1), BuildingBlock: ZUJKAS_clean_linker_0, # of connection points: 2
#     Edge 15, Type (0, 1), BuildingBlock: ZUJKAS_clean_linker_0, # of connection points: 2
#     Edge 16, Type (0, 1), BuildingBlock: ZUJKAS_clean_linker_0, # of connection points: 2
#     Edge 17, Type (0, 1), BuildingBlock: ZUJKAS_clean_linker_0, # of connection points: 2
#     Edge 18, Type (0, 1), BuildingBlock: ZUJKAS_clean_linker_0, # of connection points: 2
#     Edge 19, Type (0, 1), BuildingBlock: ZUJKAS_clean_linker_0, # of connection points: 2
#     Edge 20, Type (0, 1), BuildingBlock: ZUJKAS_clean_linker_0, # of connection points: 2
#     Edge 21, Type (0, 1), BuildingBlock: ZUJKAS_clean_linker_0, # of connection points: 2
#     Edge 22, Type (0, 1), BuildingBlock: ZUJKAS_clean_linker_0, # of connection points: 2
#     Edge 23, Type (0, 1), BuildingBlock: ZUJKAS_clean_linker_0, # of connection points: 2
#     Edge 24, Type (0, 1), BuildingBlock: ZUJKAS_clean_linker_0, # of connection points: 2
#     Edge 25, Type (0, 1), BuildingBlock: ZUJKAS_clean_linker_0, # of connection points: 2
#     Edge 26, Type (0, 1), BuildingBlock: ZUJKAS_clean_linker_0, # of connection points: 2
#     Edge 27, Type (0, 1), BuildingBlock: ZUJKAS_clean_linker_0, # of connection points: 2
#     Edge 28, Type (0, 1), BuildingBlock: ZUJKAS_clean_linker_0, # of connection points: 2
#     Edge 29, Type (0, 1), BuildingBlock: ZUJKAS_clean_linker_0, # of connection points: 2
#     Edge 30, Type (0, 1), BuildingBlock: ZUJKAS_clean_linker_0, # of connection points: 2
#     Edge 31, Type (0, 1), BuildingBlock: ZUJKAS_clean_linker_0, # of connection points: 2
#     Edge 32, Type (0, 1), BuildingBlock: ZUJKAS_clean_linker_0, # of connection points: 2
#     Edge 33, Type (0, 1), BuildingBlock: ZUJKAS_clean_linker_0, # of connection points: 2
#     Edge 34, Type (0, 1), BuildingBlock: ZUJKAS_clean_linker_0, # of connection points: 2
#     Edge 35, Type (0, 1), BuildingBlock: ZUJKAS_clean_linker_0, # of connection points: 2
# Relax obj value: 0.136
# Max RMSD: 0.214
# Mean RMSD: 0.147
data_MOF--net-pyr--node1-BETFAJ_clean_sbu_0--node2-PAMTOO_clean_linker_0--edge1-ZUJKAS_clean_linker_0
_symmetry_space_group_name_H-M    P1
_symmetry_Int_Tables_number       1
_symmetry_cell_setting            triclinic
loop_
_symmetry_equiv_pos_as_xyz
'x, y, z'
_cell_length_a     48.226423
_cell_length_b     52.37511
_cell_length_c     46.754975
_cell_angle_alpha  91.699963
_cell_angle_beta   89.693683
_cell_angle_gamma 104.39959
loop_
_atom_site_label
_atom_site_type_symbol
_atom_site_fract_x
_atom_site_fract_y
_atom_site_fract_z
_atom_type_partial_charge
H0 H 0.30759 0.30218 0.25698 0.0
H1 H 0.36401 0.25015 0.25392 0.0
H2 H 0.36511 0.30356 0.18601 0.0
H3 H 0.42055 0.27785 0.23033 0.0
C4 C 0.41475 0.27358 0.20734 0.0
O5 O 0.38548 0.26514 0.20414 0.0
H6 H 0.42283 0.29205 0.19549 0.0
C7 C 0.32508 0.29573 0.24692 0.0
C8 C 0.33569 0.30612 0.22053 0.0
C9 C 0.33509 0.27562 0.25935 0.0
C10 C 0.35622 0.26594 0.24504 0.0
C11 C 0.36698 0.27612 0.21875 0.0
C12 C 0.35686 0.2962 0.20658 0.0
H13 H 0.31873 0.90984 0.65766 0.0
H14 H 0.27574 0.86056 0.58786 0.0
H15 H 0.34068 0.83692 0.63492 0.0
H16 H 0.32007 0.84489 0.55607 0.0
C17 C 0.31546 0.8248 0.5651 0.0
O18 O 0.30397 0.82479 0.59223 0.0
H19 H 0.29932 0.81176 0.55081 0.0
C20 C 0.31592 0.89228 0.64402 0.0
C21 C 0.33218 0.87399 0.64912 0.0
C22 C 0.29564 0.88777 0.62187 0.0
C23 C 0.29171 0.86474 0.60471 0.0
C24 C 0.30819 0.84675 0.60914 0.0
C25 C 0.32834 0.85123 0.63137 0.0
H26 H 0.72878 0.33741 0.91558 0.0
H27 H 0.66318 0.32807 0.85107 0.0
H28 H 0.73066 0.39893 0.85585 0.0
H29 H 0.67347 0.40586 0.84629 0.0
C30 C 0.66514 0.38909 0.83092 0.0
O31 O 0.68472 0.37386 0.82794 0.0
H32 H 0.64491 0.37681 0.83983 0.0
C33 C 0.71924 0.34518 0.89795 0.0
C34 C 0.7328 0.37025 0.88774 0.0
C35 C 0.69408 0.32959 0.88503 0.0
C36 C 0.6826 0.3395 0.8613 0.0
C37 C 0.69583 0.36447 0.85086 0.0
C38 C 0.72086 0.37963 0.86401 0.0
H39 H 0.88006 0.7341 0.41812 0.0
H40 H 0.88002 0.6716 0.35601 0.0
H41 H 0.94873 0.74172 0.35727 0.0
H42 H 0.92916 0.71941 0.29937 0.0
C43 C 0.92269 0.69806 0.30414 0.0
O44 O 0.92873 0.695 0.33258 0.0
H45 H 0.89926 0.69084 0.3003 0.0
C46 C 0.8896 0.72634 0.39988 0.0
C47 C 0.91561 0.74138 0.38889 0.0
C48 C 0.87627 0.70115 0.38831 0.0
C49 C 0.8898 0.69082 0.36553 0.0
C50 C 0.91588 0.70539 0.35438 0.0
C51 C 0.92874 0.73056 0.36615 0.0
H52 H 0.74295 0.84134 0.85745 0.0
H53 H 0.70187 0.78529 0.91967 0.0
H54 H 0.77556 0.77386 0.87463 0.0
H55 H 0.71948 0.72923 0.88069 0.0
C56 C 0.72524 0.72993 0.90382 0.0
O57 O 0.73749 0.75537 0.9135 0.0
H58 H 0.70513 0.72208 0.91584 0.0
C59 C 0.74144 0.82321 0.8686 0.0
C60 C 0.76162 0.8084 0.86293 0.0
C61 C 0.71994 0.81531 0.88923 0.0
C62 C 0.71822 0.7918 0.90366 0.0
C63 C 0.7381 0.77689 0.8981 0.0
C64 C 0.75979 0.78521 0.87796 0.0
H65 H 0.79237 0.16713 0.43182 0.0
H66 H 0.73047 0.21015 0.45783 0.0
H67 H 0.78748 0.19246 0.51975 0.0
H68 H 0.73012 0.19582 0.54827 0.0
C69 C 0.72245 0.2011 0.52741 0.0
O70 O 0.74558 0.2144 0.51169 0.0
H71 H 0.71087 0.18242 0.51623 0.0
C72 C 0.78288 0.17733 0.4482 0.0
C73 C 0.79302 0.17875 0.47646 0.0
C74 C 0.76028 0.18858 0.44108 0.0
C75 C 0.74786 0.20127 0.46272 0.0
C76 C 0.75779 0.20255 0.49092 0.0
C77 C 0.78036 0.19155 0.49771 0.0
H78 H 0.37884 0.74303 0.17012 0.0
H79 H 0.37613 0.68364 0.23268 0.0
H80 H 0.44493 0.75362 0.23423 0.0
H81 H 0.46429 0.70751 0.24866 0.0
C82 C 0.44388 0.6943 0.25597 0.0
O83 O 0.42336 0.70858 0.25886 0.0
H84 H 0.43678 0.67835 0.23936 0.0
C85 C 0.38802 0.73595 0.18846 0.0
C86 C 0.41359 0.75153 0.20059 0.0
C87 C 0.37412 0.7114 0.19972 0.0
C88 C 0.38644 0.70234 0.22344 0.0
C89 C 0.4119 0.71754 0.23585 0.0
C90 C 0.42523 0.74214 0.22456 0.0
H91 H 0.14828 0.35048 0.76437 0.0
H92 H 0.21797 0.42051 0.76062 0.0
H93 H 0.21611 0.35563 0.70258 0.0
H94 H 0.27215 0.3807 0.72645 0.0
C95 C 0.27075 0.40159 0.72746 0.0
O96 O 0.24408 0.40315 0.71816 0.0
H97 H 0.27375 0.40884 0.75013 0.0
C98 C 0.16816 0.36134 0.75502 0.0
C99 C 0.18072 0.34945 0.73253 0.0
C100 C 0.18118 0.3872 0.76539 0.0
C101 C 0.2071 0.4009 0.75287 0.0
C102 C 0.21956 0.38944 0.73043 0.0
C103 C 0.20635 0.36396 0.72029 0.0
Sm104 Sm 0.05169 0.05655 0.53664 0.0
Sm105 Sm 0.04571 1.03012 0.59415 0.0
C106 C 0.05372 0.08706 0.49223 0.0
C107 C 0.07788 0.10503 0.47827 0.0
C108 C 0.07347 0.12522 0.46123 0.0
C109 C 0.09663 0.14178 0.44743 0.0
C110 C 0.12439 0.13812 0.45036 0.0
C111 C 0.12873 0.11818 0.46792 0.0
C112 C 0.1057 0.10189 0.4819 0.0
C113 C 0.09882 0.03971 0.55252 0.0
C114 C 0.06948 0.09281 0.59576 0.0
C115 C 0.0461 0.9999 0.63848 0.0
C116 C 0.02598 0.97691 0.65026 0.0
C117 C 0.03206 0.96696 0.67631 0.0
C118 C 1.01162 0.94692 0.68921 0.0
C119 C 0.98473 0.93665 0.67626 0.0
C120 C 0.97919 0.94606 0.64955 0.0
C121 C 0.99967 0.96604 0.63665 0.0
C122 C 0.99883 0.04732 0.57768 0.0
C123 C 0.02571 0.99385 0.53507 0.0
O124 O 0.04768 0.09415 0.51809 0.0
O125 O 0.05347 0.06209 0.48986 0.0
O126 O 0.08414 0.05045 0.56895 0.0
O127 O 0.09046 0.0396 0.52629 0.0
O128 O 0.05786 0.09138 0.56999 0.0
O129 O 0.07249 0.07128 0.60807 0.0
O130 O 0.05762 0.99619 0.6138 0.0
O131 O 0.0377 1.02178 0.64002 0.0
O132 O 0.01353 0.03619 0.56182 0.0
O133 O 1.007 0.04781 0.60408 0.0
O134 O 0.03646 0.99475 0.5612 0.0
O135 O 0.02404 1.01574 0.52261 0.0
H136 H 0.05214 0.12799 0.45837 0.0
H137 H 0.09276 0.15697 0.43389 0.0
H138 H 0.14996 0.11518 0.47084 0.0
H139 H 0.10958 0.08662 0.49533 0.0
H140 H 0.05225 0.97527 0.68712 0.0
H141 H 0.01641 0.94031 0.70992 0.0
H142 H 0.9588 0.93833 0.63891 0.0
H143 H 0.99469 0.97356 0.61646 0.0
Sm144 Sm 0.58184 0.0468 0.05598 0.0
Sm145 Sm 0.52846 1.0302 1.02186 0.0
C146 C 0.63342 0.06578 0.07854 0.0
C147 C 0.64416 0.08098 0.10474 0.0
C148 C 0.67336 0.08683 0.1114 0.0
C149 C 0.6834 0.10004 0.13717 0.0
C150 C 0.66431 0.10758 0.15664 0.0
C151 C 0.63509 0.10212 0.14948 0.0
C152 C 0.6251 0.0889 0.12375 0.0
C153 C 0.54267 1.00442 0.07837 0.0
C154 C 0.52981 0.06997 0.07778 0.0
C155 C 0.47757 1.01089 0.99814 0.0
C156 C 0.46857 0.99645 0.97101 0.0
C157 C 0.44075 0.98041 0.96782 0.0
C158 C 0.43233 0.9665 0.94201 0.0
C159 C 0.45161 0.96859 0.919 0.0
C160 C 0.47957 0.9845 0.92245 0.0
C161 C 0.48803 0.99819 0.94828 0.0
C162 C 0.56777 0.07291 0.99996 0.0
C163 C 0.58041 1.00706 0.99996 0.0
O164 O 0.62238 0.07815 0.05948 0.0
O165 O 0.61813 0.04179 0.08234 0.0
O166 O 0.54881 1.00742 0.05217 0.0
O167 O 0.5575 1.02411 0.09372 0.0
O168 O 0.55788 0.07438 0.07758 0.0
O169 O 0.51365 0.05139 0.06109 0.0
O170 O 0.48848 0.99823 1.01701 0.0
O171 O 0.49199 0.03542 0.99597 0.0
O172 O 0.5613 0.0696 1.02601 0.0
O173 O 0.55314 0.0533 0.98435 0.0
O174 O 0.55238 1.00273 1.00001 0.0
O175 O 0.5965 1.02552 1.01679 0.0
H176 H 0.68833 0.08086 0.09688 0.0
H177 H 0.70607 0.10424 0.14192 0.0
H178 H 0.61978 0.10731 0.16415 0.0
H179 H 0.60242 0.08438 0.11894 0.0
H180 H 0.42555 0.97871 0.98524 0.0
H181 H 0.41059 0.9545 0.93986 0.0
H182 H 0.49497 0.98621 0.90522 0.0
H183 H 0.50977 1.01018 0.95052 0.0
Sm184 Sm 0.56545 0.52963 0.52509 0.0
Sm185 Sm 0.56463 0.57331 0.56601 0.0
C186 C 0.57822 0.49204 0.49236 0.0
C187 C 0.584 0.46636 0.49719 0.0
C188 C 0.58943 0.45923 0.52488 0.0
C189 C 0.59592 0.43515 0.52932 0.0
C190 C 0.59678 0.41764 0.50613 0.0
C191 C 0.59053 0.42461 0.47848 0.0
C192 C 0.58427 0.44885 0.47406 0.0
C193 C 0.51474 0.52239 0.5551 0.0
C194 C 0.58842 0.5265 0.59123 0.0
C195 C 0.55134 0.61037 0.59906 0.0
C196 C 0.54434 0.63562 0.5948 0.0
C197 C 0.52669 0.64443 0.61459 0.0
C198 C 0.51744 0.66709 0.60954 0.0
C199 C 0.52581 0.68143 0.5846 0.0
C200 C 0.54428 0.6729 0.5652 0.0
C201 C 0.55333 0.65006 0.57018 0.0
C202 C 0.61551 0.58023 0.53658 0.0
C203 C 0.54111 0.57623 0.49997 0.0
O204 O 0.5974 0.51255 0.50241 0.0
O205 O 0.552 0.49359 0.49727 0.0
O206 O 0.53947 0.53092 0.56555 0.0
O207 O 0.51617 0.51676 0.52803 0.0
O208 O 0.59039 0.51942 0.56404 0.0
O209 O 0.57548 0.54515 0.59832 0.0
O210 O 0.53238 0.58958 0.5893 0.0
O211 O 0.5777 0.60944 0.59364 0.0
O212 O 0.5909 0.57196 0.52566 0.0
O213 O 0.61379 0.58578 0.56365 0.0
O214 O 0.54011 0.58406 0.52705 0.0
O215 O 0.55354 0.55722 0.49284 0.0
H216 H 0.58901 0.47242 0.54301 0.0
H217 H 0.60098 0.4306 0.55082 0.0
H218 H 0.59055 0.41138 0.46024 0.0
H219 H 0.57982 0.45398 0.45258 0.0
H220 H 0.51933 0.6333 0.63354 0.0
H221 H 0.50275 0.67268 0.62465 0.0
H222 H 0.55134 0.68358 0.54593 0.0
H223 H 0.56681 0.64337 0.55453 0.0
Sm224 Sm 0.05848 0.51139 0.05451 0.0
Sm225 Sm 0.05363 0.56455 1.02579 0.0
C226 C 0.07486 0.46757 0.06197 0.0
C227 C 0.09558 0.45869 0.07963 0.0
C228 C 0.12159 0.47617 0.08785 0.0
C229 C 0.14246 0.46694 0.10196 0.0
C230 C 0.13755 0.44014 0.10834 0.0
C231 C 0.11101 0.42291 0.10111 0.0
C232 C 0.09023 0.43212 0.08675 0.0
C233 C 0.0379 0.54251 0.09439 0.0
C234 C 0.10999 0.56644 0.06448 0.0
C235 C 0.03875 0.6063 1.00654 0.0
C236 C 0.01242 0.61318 0.9978 0.0
C237 C 0.98544 0.59798 1.00594 0.0
C238 C 0.96055 0.60445 0.99677 0.0
C239 C 0.9623 0.62616 0.97922 0.0
C240 C 0.98944 0.6413 0.97119 0.0
C241 C 0.01427 0.63483 0.9804 0.0
C242 C 0.08146 0.5329 0.99462 0.0
C243 C 0.99882 0.51128 1.02153 0.0
O244 O 0.08596 0.48485 0.04272 0.0
O245 O 0.05252 0.47252 0.075 0.0
O246 O 0.04473 0.5475 0.06874 0.0
O247 O 0.04177 0.51946 0.09996 0.0
O248 O 0.10268 0.54027 0.06376 0.0
O249 O 0.09336 0.58051 0.05389 0.0
O250 O 0.04134 0.60223 0.03378 0.0
O251 O 0.04713 0.5892 0.98986 0.0
O252 O 0.05902 0.52521 1.00926 0.0
O253 O 0.08985 0.55852 0.99564 0.0
O254 O 1.00808 0.53722 1.01939 0.0
O255 O 0.0148 0.49669 0.03235 0.0
H256 H 0.12606 0.49681 0.0827 0.0
H257 H 0.16258 0.4807 0.10759 0.0
H258 H 0.10674 0.40212 0.10559 0.0
H259 H 0.0703 0.41836 0.08052 0.0
H260 H 0.98364 0.58107 1.01926 0.0
H261 H 0.93997 0.59226 1.00308 0.0
H262 H 0.99152 0.65835 0.95804 0.0
H263 H 0.03495 0.64673 0.9739 0.0
H264 H 0.31873 0.30005 0.3068 0.0
H265 H 0.28772 0.27917 0.34554 0.0
H266 H 0.28886 0.20246 0.31028 0.0
H267 H 0.31911 0.22306 0.27099 0.0
H268 H 0.23209 0.24201 0.32967 0.0
H269 H 0.30033 0.19903 0.39992 0.0
H270 H 0.3148 0.22688 0.37769 0.0
H271 H 0.30412 0.19427 0.36194 0.0
C272 C 0.31268 0.27873 0.30749 0.0
C273 C 0.32114 0.26321 0.28563 0.0
C274 C 0.29514 0.26688 0.32971 0.0
C275 C 0.28618 0.23935 0.33074 0.0
C276 C 0.29595 0.22377 0.31001 0.0
H277 H 0.16384 0.12098 0.41845 0.0
H278 H 0.20362 0.14746 0.39125 0.0
C279 C 0.31331 0.2356 0.28762 0.0
C280 C 0.26375 0.2269 0.35112 0.0
H281 H 0.25012 0.18555 0.40724 0.0
C282 C 0.236 0.2299 0.34689 0.0
C283 C 0.26907 0.21101 0.37324 0.0
C284 C 0.29871 0.20764 0.37874 0.0
C285 C 0.21302 0.21658 0.36362 0.0
C286 C 0.21822 0.20046 0.38573 0.0
C287 C 0.2462 0.19797 0.39034 0.0
C288 C 0.19466 0.18485 0.40321 0.0
C289 C 0.18327 0.21894 0.3565 0.0
C290 C 0.17662 0.19711 0.41924 0.0
C291 C 0.15362 0.18196 0.43449 0.0
C292 C 0.14873 0.15438 0.43443 0.0
C293 C 0.16726 0.14223 0.41898 0.0
C294 C 0.18997 0.15732 0.40347 0.0
H295 H 0.18208 0.2262 0.33456 0.0
H296 H 0.16735 0.19967 0.35821 0.0
H297 H 0.17719 0.23323 0.37177 0.0
H298 H 0.18028 0.21837 0.41992 0.0
H299 H 0.13987 0.1918 0.44658 0.0
H300 H 0.37226 0.91878 0.66464 0.0
H301 H 0.39791 0.92839 0.71024 0.0
H302 H 0.36095 0.84881 0.73616 0.0
H303 H 0.33505 0.83911 0.69051 0.0
H304 H 0.35082 0.88969 0.77362 0.0
H305 H 0.46597 0.90605 0.74694 0.0
H306 H 0.44662 0.92289 0.72446 0.0
H307 H 0.43781 0.88746 0.7237 0.0
C308 C 0.37012 0.90319 0.67982 0.0
C309 C 0.35163 0.87825 0.67415 0.0
C310 C 0.38493 0.90863 0.70575 0.0
C311 C 0.38148 0.88923 0.72644 0.0
C312 C 0.36405 0.86394 0.72032 0.0
H313 H 0.42196 0.91727 0.90967 0.0
H314 H 0.40604 0.89492 0.86366 0.0
C315 C 0.3494 0.85841 0.69424 0.0
C316 C 0.39308 0.89654 0.75559 0.0
H317 H 0.45486 0.92307 0.79248 0.0
C318 C 0.37358 0.89657 0.77795 0.0
C319 C 0.42274 0.90569 0.76095 0.0
C320 C 0.44456 0.90535 0.73781 0.0
C321 C 0.38287 0.90673 0.8053 0.0
C322 C 0.41256 0.91646 0.81058 0.0
C323 C 0.43212 0.9156 0.7884 0.0
C324 C 0.42361 0.92917 0.8384 0.0
C325 C 0.36071 0.90823 0.8278 0.0
C326 C 0.43962 0.95552 0.83937 0.0
C327 C 0.44899 0.96818 0.86553 0.0
C328 C 0.44244 0.95475 0.89124 0.0
C329 C 0.42689 0.9282 0.89021 0.0
C330 C 0.41777 0.91545 0.86397 0.0
H331 H 0.33914 0.90603 0.8183 0.0
H332 H 0.35923 0.89205 0.84297 0.0
H333 H 0.36666 0.92727 0.8401 0.0
H334 H 0.44436 0.96648 0.8199 0.0
H335 H 0.46078 0.98869 0.8657 0.0
H336 H 0.70396 0.41933 0.79443 0.0
H337 H 0.69421 0.44132 0.75122 0.0
H338 H 0.60373 0.40747 0.76162 0.0
H339 H 0.61349 0.3851 0.80429 0.0
H340 H 0.61953 0.40599 0.7056 0.0
H341 H 0.66298 0.50639 0.75279 0.0
H342 H 0.68813 0.48622 0.75173 0.0
H343 H 0.65675 0.47717 0.77379 0.0
C344 C 0.68206 0.41631 0.78717 0.0
C345 C 0.65953 0.40033 0.80261 0.0
C346 C 0.67645 0.4291 0.76267 0.0
C347 C 0.64815 0.42648 0.75334 0.0
C348 C 0.62573 0.4099 0.76832 0.0
H349 H 0.58033 0.53051 0.64902 0.0
H350 H 0.59578 0.50583 0.6867 0.0
C351 C 0.63133 0.39708 0.79272 0.0
C352 C 0.64164 0.44139 0.72849 0.0
H353 H 0.64789 0.50369 0.70458 0.0
C354 C 0.62583 0.42735 0.70533 0.0
C355 C 0.64946 0.46932 0.72823 0.0
C356 C 0.66502 0.48573 0.75305 0.0
C357 C 0.61761 0.44038 0.68208 0.0
C358 C 0.62585 0.4683 0.6816 0.0
C359 C 0.64175 0.48231 0.70473 0.0
C360 C 0.61696 0.48346 0.65818 0.0
C361 C 0.59929 0.42408 0.65877 0.0
C362 C 0.624 0.47953 0.62942 0.0
C363 C 0.61501 0.49359 0.60766 0.0
C364 C 0.59903 0.51214 0.6142 0.0
C365 C 0.5926 0.51644 0.64308 0.0
C366 C 0.60144 0.5023 0.66474 0.0
H367 H 0.58869 0.40396 0.66592 0.0
H368 H 0.58253 0.43369 0.65161 0.0
H369 H 0.61297 0.42201 0.64012 0.0
H370 H 0.63656 0.46564 0.62375 0.0
H371 H 0.62065 0.48994 0.58574 0.0
H372 H 0.94921 0.71366 0.25333 0.0
H373 H 0.9692 0.68766 0.21813 0.0
H374 H 0.94959 0.62139 0.27382 0.0
H375 H 0.92884 0.64723 0.30879 0.0
H376 H 0.01304 0.66406 0.21961 0.0
H377 H 0.91169 0.58793 0.20069 0.0
H378 H 0.91305 0.61819 0.22071 0.0
H379 H 0.9228 0.59116 0.23746 0.0
C380 C 0.94946 0.69363 0.25822 0.0
C381 C 0.9379 0.68267 0.2841 0.0
C382 C 0.96083 0.67874 0.23802 0.0
C383 C 0.96061 0.65236 0.24298 0.0
C384 C 0.94954 0.64149 0.2691 0.0
H385 H 0.01892 0.53027 0.14829 0.0
H386 H 1.0008 0.55754 0.18353 0.0
C387 C 0.93801 0.65638 0.28929 0.0
C388 C 0.97178 0.63635 0.22072 0.0
H389 H 0.95347 0.57968 0.17924 0.0
C390 C 0.99994 0.64567 0.21071 0.0
C391 C 0.95472 0.61238 0.20885 0.0
C392 C 0.9238 0.60191 0.21724 0.0
C393 C 1.01165 0.63147 0.18979 0.0
C394 C 0.99469 0.60739 0.1782 0.0
C395 C 0.96652 0.59811 0.18811 0.0
C396 C 1.00595 0.59111 0.15639 0.0
C397 C 0.04234 0.64205 0.18076 0.0
C398 C 0.01468 0.60071 0.12912 0.0
C399 C 0.02502 0.58504 0.1088 0.0
C400 C 0.02678 0.55946 0.11534 0.0
C401 C 0.01789 0.5499 0.14256 0.0
C402 C 1.00747 0.56547 0.16276 0.0
H403 H 0.05433 0.6574 0.19611 0.0
H404 H 0.05354 0.62594 0.17881 0.0
H405 H 0.0428 0.65106 0.15953 0.0
H406 H 0.01329 0.62025 0.12347 0.0
H407 H 0.03169 0.59295 0.08808 0.0
H408 H 0.4231 0.26176 0.1513 0.0
H409 H 0.44156 0.22536 0.13142 0.0
H410 H 0.45396 0.20122 0.21687 0.0
H411 H 0.43483 0.23723 0.23672 0.0
H412 H 0.49365 0.21498 0.13802 0.0
H413 H 0.40824 0.13293 0.17939 0.0
H414 H 0.40517 0.16659 0.17974 0.0
H415 H 0.42592 0.15595 0.20671 0.0
C416 C 0.42996 0.24872 0.16574 0.0
C417 C 0.42799 0.25241 0.19546 0.0
C418 C 0.44039 0.22795 0.15443 0.0
C419 C 0.44878 0.21038 0.17266 0.0
C420 C 0.44708 0.21422 0.20241 0.0
H421 H 0.5554 0.10629 0.11878 0.0
H422 H 0.53524 0.13927 0.14341 0.0
C423 C 0.43649 0.23492 0.21373 0.0
C424 C 0.45982 0.1884 0.16042 0.0
H425 H 0.44841 0.12132 0.15798 0.0
C426 C 0.48374 0.1945 0.14236 0.0
C427 C 0.4466 0.16167 0.1658 0.0
C428 C 0.41989 0.1538 0.18373 0.0
C429 C 0.49501 0.17464 0.12973 0.0
C430 C 0.48239 0.14797 0.13586 0.0
C431 C 0.45825 0.14181 0.15364 0.0
C432 C 0.4936 0.12623 0.12332 0.0
C433 C 0.51994 0.1824 0.10942 0.0
C434 C 0.47639 0.1071 0.10498 0.0
C435 C 0.48776 0.08799 0.09106 0.0
C436 C 0.51654 0.08773 0.09526 0.0
C437 C 0.53325 0.10612 0.11478 0.0
C438 C 0.52182 0.12509 0.12879 0.0
H439 H 0.52215 0.20254 0.10132 0.0
H440 H 0.54002 0.18226 0.12081 0.0
H441 H 0.51754 0.16831 0.09085 0.0
H442 H 0.45447 0.10754 0.10066 0.0
H443 H 0.4743 0.07409 0.07622 0.0
H444 H 0.26899 0.91257 0.66186 0.0
H445 H 0.23711 0.94141 0.65311 0.0
H446 H 0.2503 0.93407 0.56226 0.0
H447 H 0.28243 0.90557 0.57076 0.0
H448 H 0.24703 0.99045 0.62051 0.0
H449 H 0.16193 0.90746 0.57531 0.0
H450 H 0.19099 0.90244 0.59685 0.0
H451 H 0.1968 0.91065 0.55989 0.0
C452 C 0.26544 0.91744 0.64006 0.0
C453 C 0.27797 0.90664 0.61695 0.0
C454 C 0.24719 0.93381 0.63512 0.0
C455 C 0.24117 0.93946 0.60706 0.0
C456 C 0.25442 0.92952 0.58404 0.0
H457 H 0.13249 1.01707 0.51886 0.0
H458 H 0.16827 0.99446 0.53424 0.0
C459 C 0.27265 0.91321 0.58893 0.0
C460 C 0.2202 0.95495 0.60157 0.0
H461 H 0.15568 0.95055 0.56983 0.0
C462 C 0.22693 0.98179 0.60965 0.0
C463 C 0.19402 0.94338 0.58757 0.0
C464 C 0.18528 0.91435 0.57959 0.0
C465 C 0.20848 0.9977 0.603 0.0
C466 C 0.18264 0.98624 0.58831 0.0
C467 C 0.17565 0.95925 0.58093 0.0
C468 C 0.16279 1.00188 0.57944 0.0
C469 C 0.21714 1.02675 0.61083 0.0
C470 C 0.14806 1.01362 0.59984 0.0
C471 C 0.12766 1.02662 0.5911 0.0
C472 C 0.12166 1.02781 0.56187 0.0
C473 C 0.13677 1.01642 0.54152 0.0
C474 C 0.15716 1.00353 0.55025 0.0
H475 H 0.24015 0.03342 0.61675 0.0
H476 H 0.21292 0.0386 0.5928 0.0
H477 H 0.20429 1.03076 0.62941 0.0
H478 H 0.15178 1.01212 0.62248 0.0
H479 H 0.11613 0.03515 0.60718 0.0
H480 H 0.74557 0.37632 0.94514 0.0
H481 H 0.78985 0.40144 0.96794 0.0
H482 H 0.82462 0.42661 0.88538 0.0
H483 H 0.78079 0.4007 0.86226 0.0
H484 H 0.86285 0.40978 0.91801 0.0
H485 H 0.81734 0.48056 0.98151 0.0
H486 H 0.7999 0.44674 0.98788 0.0
H487 H 0.79773 0.45985 0.95306 0.0
C488 C 0.76266 0.38708 0.93176 0.0
C489 C 0.75949 0.38642 0.90178 0.0
C490 C 0.78787 0.40175 0.9449 0.0
C491 C 0.81046 0.41633 0.92847 0.0
C492 C 0.80742 0.41571 0.89856 0.0
H493 H 0.96084 0.53331 0.99355 0.0
H494 H 0.91534 0.51057 0.97109 0.0
C495 C 0.78222 0.40102 0.88538 0.0
C496 C 0.83767 0.43134 0.94233 0.0
H497 H 0.86523 0.47955 0.99272 0.0
C498 C 0.86336 0.42511 0.93425 0.0
C499 C 0.83847 0.45162 0.96328 0.0
C500 C 0.81194 0.46031 0.97178 0.0
C501 C 0.88966 0.43817 0.9469 0.0
C502 C 0.89031 0.45771 0.96867 0.0
C503 C 0.86472 0.46436 0.97632 0.0
C504 C 0.91739 0.47161 0.9835 0.0
C505 C 0.91658 0.43118 0.93646 0.0
C506 C 0.93341 0.45742 0.99864 0.0
C507 C 0.95949 0.47035 1.01148 0.0
C508 C 0.97008 0.49785 1.00971 0.0
C509 C 0.95348 0.51213 0.99535 0.0
C510 C 0.92741 0.49915 0.98245 0.0
H511 H 0.91363 0.42154 0.91481 0.0
H512 H 0.93476 0.44897 0.93572 0.0
H513 H 0.92231 0.41717 0.95133 0.0
H514 H 0.92583 0.43625 1.00037 0.0
H515 H 0.97149 0.45867 1.02251 0.0
H516 H 0.83118 0.72014 0.40781 0.0
H517 H 0.78741 0.69617 0.43082 0.0
H518 H 0.81265 0.62334 0.41729 0.0
H519 H 0.85756 0.64747 0.39585 0.0
H520 H 0.74319 0.65885 0.41316 0.0
H521 H 0.79583 0.61976 0.50113 0.0
H522 H 0.81547 0.64424 0.47732 0.0
H523 H 0.80565 0.60997 0.4662 0.0
C524 C 0.82778 0.69908 0.4101 0.0
C525 C 0.84838 0.68592 0.40036 0.0
C526 C 0.80247 0.68531 0.42304 0.0
C527 C 0.79684 0.65795 0.42644 0.0
C528 C 0.81675 0.64452 0.4157 0.0
H529 H 0.62406 0.57042 0.47973 0.0
H530 H 0.66773 0.58685 0.45177 0.0
C531 C 0.84231 0.65835 0.403 0.0
C532 C 0.77017 0.64381 0.4413 0.0
H533 H 0.74543 0.60508 0.49821 0.0
C534 C 0.7437 0.64705 0.43173 0.0
C535 C 0.77074 0.62864 0.4658 0.0
C536 C 0.79844 0.62561 0.47843 0.0
C537 C 0.71798 0.63591 0.44605 0.0
C538 C 0.71849 0.62031 0.47021 0.0
C539 C 0.74491 0.6168 0.47957 0.0
C540 C 0.69222 0.60886 0.48718 0.0
C541 C 0.69074 0.64196 0.43579 0.0
C542 C 0.69167 0.61467 0.51669 0.0
C543 C 0.66696 0.60485 0.53277 0.0
C544 C 0.64212 0.58912 0.5197 0.0
C545 C 0.6428 0.58273 0.49032 0.0
C546 C 0.66769 0.59231 0.47428 0.0
H547 H 0.69521 0.65974 0.42247 0.0
H548 H 0.67851 0.62508 0.42244 0.0
H549 H 0.67708 0.64517 0.45406 0.0
H550 H 0.71026 0.62725 0.52725 0.0
H551 H 0.66717 0.61006 0.55537 0.0
H552 H 0.31988 0.34816 0.24576 0.0
H553 H 0.28966 0.37411 0.22527 0.0
H554 H 0.29182 0.33438 0.14347 0.0
H555 H 0.32083 0.30736 0.16415 0.0
H556 H 0.29338 0.4077 0.18128 0.0
H557 H 0.20688 0.31693 0.16099 0.0
H558 H 0.2383 0.31707 0.18177 0.0
H559 H 0.2399 0.31654 0.14331 0.0
C560 C 0.31402 0.34501 0.22336 0.0
C561 C 0.3223 0.32532 0.20674 0.0
C562 C 0.29691 0.35998 0.21165 0.0
C563 C 0.28789 0.35568 0.18306 0.0
C564 C 0.29797 0.33754 0.16579 0.0
H565 H 0.19355 0.45022 0.09229 0.0
H566 H 0.23084 0.43107 0.11106 0.0
C567 C 0.31489 0.32235 0.17756 0.0
C568 C 0.26649 0.36893 0.17203 0.0
H569 H 0.19896 0.35669 0.14439 0.0
C570 C 0.27274 0.39659 0.17317 0.0
C571 C 0.23932 0.35435 0.16208 0.0
C572 C 0.23051 0.32459 0.16219 0.0
C573 C 0.25262 0.41009 0.16435 0.0
C574 C 0.22583 0.3955 0.1535 0.0
C575 C 0.21957 0.36785 0.15254 0.0
C576 C 0.20376 0.40833 0.14316 0.0
C577 C 0.26001 0.43977 0.16748 0.0
C578 C 0.17597 0.40153 0.15456 0.0
C579 C 0.15453 0.41217 0.1436 0.0
C580 C 0.16054 0.4299 0.12111 0.0
C581 C 0.18846 0.43696 0.10998 0.0
C582 C 0.20981 0.4261 0.12074 0.0
H583 H 0.27712 0.44714 0.18368 0.0
H584 H 0.26797 0.4484 0.1467 0.0
H585 H 0.24097 0.44696 0.17375 0.0
H586 H 0.17081 0.38778 0.17181 0.0
H587 H 0.13324 0.4065 0.15266 0.0
H588 H 0.68666 0.3152 0.94111 0.0
H589 H 0.66616 0.2714 0.95972 0.0
H590 H 0.6485 0.23991 0.87367 0.0
H591 H 0.66981 0.28355 0.85479 0.0
H592 H 0.61171 0.23868 0.95383 0.0
H593 H 0.69187 0.18988 0.90684 0.0
H594 H 0.69731 0.22526 0.90845 0.0
H595 H 0.67461 0.20577 0.88132 0.0
C596 C 0.67871 0.29894 0.92606 0.0
C597 C 0.68021 0.30298 0.89637 0.0
C598 C 0.6668 0.27389 0.93678 0.0
C599 C 0.65621 0.25216 0.91814 0.0
C600 C 0.65706 0.25619 0.88851 0.0
H601 H 0.57616 0.08568 0.94375 0.0
H602 H 0.59768 0.12908 0.92429 0.0
C603 C 0.66895 0.28128 0.87774 0.0
C604 C 0.64398 0.22547 0.92983 0.0
H605 H 0.65186 0.1623 0.92953 0.0
C606 C 0.62056 0.22201 0.94859 0.0
C607 C 0.65548 0.20364 0.92302 0.0
C608 C 0.68136 0.20626 0.90402 0.0
C609 C 0.60807 0.19734 0.96029 0.0
C610 C 0.61962 0.17552 0.95357 0.0
C611 C 0.64299 0.17896 0.93475 0.0
C612 C 0.60756 0.14894 0.96559 0.0
C613 C 0.58213 0.19474 0.97922 0.0
C614 C 0.60654 0.14537 0.99532 0.0
C615 C 0.59421 0.12056 1.00649 0.0
C616 C 0.58279 0.09872 0.98817 0.0
C617 C 0.58467 0.10212 0.95843 0.0
C618 C 0.59697 0.12694 0.94728 0.0
H619 H 0.57143 0.21094 0.97605 0.0
H620 H 0.56633 0.17561 0.97506 0.0
H621 H 0.58888 0.19565 1.00196 0.0
H622 H 0.61518 0.16183 1.00992 0.0
H623 H 0.59327 0.11856 0.0295 0.0
H624 H 0.97226 0.76398 0.40197 0.0
H625 H 0.99249 0.80674 0.42626 0.0
H626 H 0.90883 0.82228 0.42874 0.0
H627 H 0.88855 0.7798 0.40457 0.0
H628 H 0.9937 0.85836 0.41263 0.0
H629 H 0.93258 0.83162 0.51263 0.0
H630 H 0.93522 0.80749 0.48506 0.0
H631 H 0.91024 0.82763 0.48142 0.0
C632 C 0.95823 0.77662 0.40743 0.0
C633 C 0.92868 0.76822 0.40162 0.0
C634 C 0.9698 0.80103 0.42144 0.0
C635 C 0.9521 0.81753 0.42998 0.0
C636 C 0.92283 0.80964 0.42316 0.0
H637 H 1.00134 0.98404 0.48164 0.0
H638 H 0.98456 0.94148 0.45632 0.0
C639 C 0.91126 0.7853 0.40927 0.0
C640 C 0.96402 0.84291 0.44612 0.0
H641 H 0.95665 0.87687 0.50818 0.0
C642 C 0.9857 0.86236 0.43358 0.0
C643 C 0.95394 0.84807 0.47369 0.0
C644 C 0.93192 0.82752 0.48915 0.0
C645 C 0.99699 0.88698 0.44748 0.0
C646 C 0.98602 0.89254 0.47451 0.0
C647 C 0.96486 0.87282 0.48735 0.0
C648 C 0.99625 0.91858 0.48994 0.0
C649 C 0.02089 0.90665 0.43323 0.0
C650 C 1.00765 0.91999 0.51772 0.0
C651 C 0.01705 0.94434 0.53241 0.0
C652 C 0.01513 0.96789 0.51973 0.0
C653 C 1.00334 0.96638 0.49205 0.0
C654 C 0.99391 0.94202 0.47741 0.0
H655 H 0.03225 0.8969 0.41719 0.0
H656 H 1.0118 0.92105 0.42191 0.0
H657 H 0.0367 0.91765 0.4492 0.0
H658 H 1.00952 0.90221 0.52798 0.0
H659 H 0.02593 0.94466 0.55368 0.0
H660 H 0.3669 0.84483 0.53874 0.0
H661 H 0.40857 0.82582 0.53636 0.0
H662 H 0.36462 0.76254 0.58963 0.0
H663 H 0.32276 0.78106 0.59138 0.0
H664 H 0.44356 0.81455 0.57845 0.0
H665 H 0.38628 0.72361 0.51984 0.0
H666 H 0.37185 0.75217 0.52385 0.0
H667 H 0.36814 0.72901 0.55218 0.0
C668 C 0.36631 0.82695 0.55005 0.0
C669 C 0.34183 0.81446 0.56544 0.0
C670 C 0.39004 0.81614 0.54868 0.0
C671 C 0.38944 0.79259 0.56245 0.0
C672 C 0.36525 0.78046 0.57838 0.0
H673 H 0.51444 0.71907 0.62171 0.0
H674 H 0.48553 0.74996 0.61228 0.0
C675 C 0.3415 0.79114 0.57959 0.0
C676 C 0.41389 0.78035 0.56006 0.0
H677 H 0.43 0.72203 0.5431 0.0
C678 C 0.44079 0.79445 0.57035 0.0
C679 C 0.41041 0.75442 0.54874 0.0
C680 C 0.38268 0.73903 0.53523 0.0
C681 C 0.46392 0.78267 0.57121 0.0
C682 C 0.45971 0.75595 0.56214 0.0
C683 C 0.43323 0.74244 0.55033 0.0
C684 C 0.48131 0.74072 0.56679 0.0
C685 C 0.49249 0.79891 0.58199 0.0
C686 C 0.48864 0.7252 0.5444 0.0
C687 C 0.50442 0.70686 0.54991 0.0
C688 C 0.51331 0.70379 0.57795 0.0
C689 C 0.50752 0.7206 0.59997 0.0
C690 C 0.4914 0.73866 0.59451 0.0
H691 H 0.49524 0.82011 0.57752 0.0
H692 H 0.49354 0.79717 0.60554 0.0
H693 H 0.51051 0.79217 0.57209 0.0
H694 H 0.48095 0.72636 0.52287 0.0
H695 H 0.50817 0.69409 0.53246 0.0
H696 H 0.79345 0.85889 0.8565 0.0
H697 H 0.83169 0.87474 0.82221 0.0
H698 H 0.82293 0.79525 0.78954 0.0
H699 H 0.7837 0.77926 0.82316 0.0
H700 H 0.88337 0.86146 0.8166 0.0
H701 H 0.81851 0.8361 0.71703 0.0
H702 H 0.80246 0.83636 0.75197 0.0
H703 H 0.81704 0.80933 0.74063 0.0
C704 C 0.79929 0.84478 0.84174 0.0
C705 C 0.78526 0.81784 0.84233 0.0
C706 C 0.82134 0.85385 0.82233 0.0
C707 C 0.82989 0.83622 0.8031 0.0
C708 C 0.81631 0.80924 0.80387 0.0
H709 H 0.9891 0.89351 0.70615 0.0
H710 H 0.95209 0.86539 0.73542 0.0
C711 C 0.79412 0.80012 0.82328 0.0
C712 C 0.8533 0.84639 0.78263 0.0
H713 H 0.86777 0.85564 0.71158 0.0
C714 C 0.88008 0.86 0.79361 0.0
C715 C 0.84879 0.84458 0.75269 0.0
C716 C 0.82011 0.831 0.73976 0.0
C717 C 0.90232 0.8725 0.77553 0.0
C718 C 0.89779 0.87083 0.74558 0.0
C719 C 0.87121 0.85667 0.73454 0.0
C720 C 0.91946 0.8857 0.72566 0.0
C721 C 0.92996 0.88841 0.78875 0.0
C722 C 0.913 0.90566 0.70957 0.0
C723 C 0.93397 0.92158 0.69275 0.0
C724 C 0.96183 0.91783 0.69167 0.0
C725 C 0.96794 0.8971 0.70691 0.0
C726 C 0.94686 0.88107 0.72363 0.0
H727 H 0.92771 0.89228 0.81203 0.0
H728 H 0.9467 0.87736 0.78593 0.0
H729 H 0.93744 0.90761 0.77816 0.0
H730 H 0.89198 0.90956 0.71085 0.0
H731 H 0.92865 0.93754 0.68154 0.0
H732 H 0.79087 0.19442 0.3912 0.0
H733 H 0.77228 0.18556 0.34243 0.0
H734 H 0.6859 0.16855 0.37478 0.0
H735 H 0.70432 0.17651 0.42374 0.0
H736 H 0.6955 0.12964 0.33882 0.0
H737 H 0.73417 0.22674 0.2891 0.0
H738 H 0.76211 0.21597 0.30662 0.0
H739 H 0.73317 0.22289 0.32739 0.0
C740 C 0.76791 0.18893 0.38792 0.0
C741 C 0.74906 0.18603 0.41135 0.0
C742 C 0.75732 0.18423 0.36001 0.0
C743 C 0.72772 0.17675 0.35496 0.0
C744 C 0.70883 0.17452 0.37822 0.0
H745 H 0.64898 0.14862 0.1849 0.0
H746 H 0.66327 0.16638 0.23319 0.0
C747 C 0.7194 0.17921 0.40616 0.0
C748 C 0.71659 0.16878 0.32573 0.0
H749 H 0.71903 0.18932 0.25691 0.0
C750 C 0.70037 0.14279 0.32097 0.0
C751 C 0.72274 0.18603 0.30254 0.0
C752 C 0.73876 0.21454 0.30666 0.0
C753 C 0.69099 0.13328 0.29346 0.0
C754 C 0.69844 0.1501 0.27005 0.0
C755 C 0.71371 0.17639 0.2749 0.0
C756 C 0.69097 0.14043 0.24036 0.0
C757 C 0.67323 0.10527 0.28967 0.0
C758 C 0.70234 0.12042 0.22829 0.0
C759 C 0.69415 0.11017 0.20086 0.0
C760 C 0.67451 0.11985 0.18493 0.0
C761 C 0.66383 0.1405 0.19679 0.0
C762 C 0.67209 0.15077 0.22426 0.0
H763 H 0.66317 0.09742 0.31008 0.0
H764 H 0.65613 0.1039 0.27346 0.0
H765 H 0.68721 0.09252 0.28216 0.0
H766 H 0.71727 0.11245 0.24027 0.0
H767 H 0.70258 0.09413 0.19248 0.0
H768 H 0.45337 0.71831 0.30976 0.0
H769 H 0.46812 0.70022 0.3536 0.0
H770 H 0.46368 0.62634 0.30853 0.0
H771 H 0.4489 0.64419 0.26495 0.0
H772 H 0.44037 0.65071 0.38464 0.0
H773 H 0.54768 0.6518 0.34027 0.0
H774 H 0.52512 0.67112 0.32578 0.0
H775 H 0.51793 0.63638 0.3175 0.0
C776 C 0.45501 0.69805 0.30944 0.0
C777 C 0.44949 0.68254 0.28402 0.0
C778 C 0.46353 0.68777 0.33444 0.0
C779 C 0.46721 0.66197 0.33432 0.0
C780 C 0.46119 0.64634 0.30912 0.0
H781 H 0.53262 0.56071 0.44367 0.0
H782 H 0.51392 0.58249 0.4055 0.0
C783 C 0.45255 0.65652 0.28426 0.0
C784 C 0.47836 0.6515 0.36004 0.0
H785 H 0.5351 0.62958 0.38358 0.0
C786 C 0.46117 0.64627 0.38457 0.0
C787 C 0.5055 0.64571 0.35993 0.0
C788 C 0.52531 0.65171 0.33459 0.0
C789 C 0.46994 0.63448 0.40854 0.0
C790 C 0.49697 0.6283 0.40827 0.0
C791 C 0.51436 0.63414 0.3839 0.0
C792 C 0.50734 0.61482 0.43235 0.0
C793 C 0.44964 0.6278 0.43343 0.0
C794 C 0.51005 0.62564 0.46043 0.0
C795 C 0.52058 0.61301 0.48254 0.0
C796 C 0.52904 0.58947 0.47697 0.0
C797 C 0.5264 0.5788 0.44884 0.0
C798 C 0.51569 0.59128 0.42689 0.0
H799 H 0.42726 0.62714 0.4272 0.0
H800 H 0.45015 0.60848 0.44226 0.0
H801 H 0.45612 0.64317 0.45062 0.0
H802 H 0.50451 0.64411 0.46521 0.0
H803 H 0.52256 0.62195 0.50386 0.0
H804 H 0.15345 0.36495 0.81391 0.0
H805 H 0.13382 0.38696 0.85328 0.0
H806 H 0.16123 0.46107 0.81107 0.0
H807 H 0.17943 0.43914 0.77118 0.0
H808 H 0.15984 0.42544 0.89057 0.0
H809 H 0.08038 0.46174 0.82938 0.0
H810 H 0.09806 0.43784 0.81445 0.0
H811 H 0.11553 0.47252 0.8145 0.0
C812 C 0.15479 0.38583 0.81269 0.0
C813 C 0.1681 0.40016 0.78917 0.0
C814 C 0.14375 0.39847 0.8354 0.0
C815 C 0.14558 0.42569 0.8351 0.0
C816 C 0.15887 0.43999 0.81168 0.0
H817 H 0.12375 0.54802 0.95497 0.0
H818 H 0.13886 0.52056 0.91754 0.0
C819 C 0.16972 0.4274 0.78896 0.0
C820 C 0.13462 0.43944 0.85958 0.0
H821 H 0.09274 0.48195 0.87586 0.0
C822 C 0.1449 0.43752 0.88735 0.0
C823 C 0.11494 0.45517 0.85561 0.0
C824 C 0.10136 0.45673 0.82692 0.0
C825 C 0.13686 0.45156 0.91086 0.0
C826 C 0.11814 0.46801 0.90657 0.0
C827 C 0.10735 0.46952 0.87904 0.0
C828 C 0.10987 0.4842 0.93032 0.0
C829 C 0.14889 0.44932 0.9401 0.0
C830 C 0.08863 0.47285 0.95004 0.0
C831 C 0.0798 0.48853 0.97136 0.0
C832 C 0.09217 0.51587 0.97345 0.0
C833 C 0.11385 0.52705 0.95401 0.0
C834 C 0.12248 0.5114 0.93257 0.0
H835 H 0.16458 0.43696 0.93968 0.0
H836 H 0.15951 0.46925 0.94895 0.0
H837 H 0.13118 0.44049 0.95481 0.0
H838 H 0.07851 0.45193 0.94859 0.0
H839 H 0.06293 0.47934 0.98588 0.0
H840 H 0.70456 0.82852 0.94286 0.0
H841 H 0.67689 0.86023 0.95618 0.0
H842 H 0.66526 0.87393 0.86705 0.0
H843 H 0.6929 0.84204 0.85348 0.0
H844 H 0.6846 0.91994 0.89925 0.0
H845 H 0.59124 0.85455 0.95145 0.0
H846 H 0.62476 0.85139 0.96544 0.0
H847 H 0.61552 0.84202 0.92871 0.0
C848 C 0.69555 0.83779 0.92605 0.0
C849 C 0.70084 0.83268 0.8971 0.0
C850 C 0.67976 0.85594 0.93371 0.0
C851 C 0.66873 0.86918 0.9126 0.0
C852 C 0.67353 0.86385 0.88366 0.0
H853 H 0.55441 0.96885 0.96089 0.0
H854 H 0.57542 0.93667 0.93575 0.0
C855 C 0.68938 0.8457 0.87596 0.0
C856 C 0.65377 0.88978 0.92091 0.0
H857 H 0.59873 0.9009 0.96149 0.0
C858 C 0.66561 0.91575 0.91257 0.0
C859 C 0.6288 0.88421 0.93795 0.0
C860 C 0.61415 0.85648 0.94618 0.0
C861 C 0.6538 0.93651 0.9218 0.0
C862 C 0.62983 0.93116 0.94023 0.0
C863 C 0.6173 0.90502 0.94759 0.0
C864 C 0.61796 0.95238 0.95306 0.0
C865 C 0.66713 0.96396 0.9118 0.0
C866 C 0.635 0.97208 0.97091 0.0
C867 C 0.6231 0.99059 0.98526 0.0
C868 C 0.59384 0.98954 0.98227 0.0
C869 C 0.57701 0.9702 0.96375 0.0
C870 C 0.58896 0.95177 0.94935 0.0
H871 H 0.67908 0.96349 0.89149 0.0
H872 H 0.65065 0.97511 0.90855 0.0
H873 H 0.68251 0.97474 0.92823 0.0
H874 H 0.65729 0.97259 0.97456 0.0
H875 H 0.63662 1.0051 0.99948 0.0
H876 H 0.83956 0.1989 0.51055 0.0
H877 H 0.8755 0.17643 0.52607 0.0
H878 H 0.83423 0.10746 0.47533 0.0
H879 H 0.79788 0.12961 0.46014 0.0
H880 H 0.84518 0.09798 0.53356 0.0
H881 H 0.94143 0.15764 0.47923 0.0
H882 H 0.92121 0.17632 0.4997 0.0
H883 H 0.90541 0.15743 0.4686 0.0
C884 C 0.83824 0.17898 0.50263 0.0
C885 C 0.81596 0.16598 0.48415 0.0
C886 C 0.85888 0.16629 0.51131 0.0
C887 C 0.85758 0.14044 0.50159 0.0
C888 C 0.83561 0.12751 0.48287 0.0
H889 H 0.98376 0.0507 0.52238 0.0
H890 H 0.94872 0.07288 0.50418 0.0
C891 C 0.81502 0.14022 0.4741 0.0
C892 C 0.87823 0.12636 0.51222 0.0
H893 H 0.94916 0.12725 0.51315 0.0
C894 C 0.86791 0.10428 0.52905 0.0
C895 C 0.90776 0.13463 0.50607 0.0
C896 C 0.91969 0.15767 0.48722 0.0
C897 C 0.88651 0.09038 0.54028 0.0
C898 C 0.91613 0.09903 0.53472 0.0
C899 C 0.92641 0.12088 0.51754 0.0
C900 C 0.9368 0.0853 0.54602 0.0
C901 C 0.87434 0.06636 0.55768 0.0
C902 C 0.94167 0.08511 0.57557 0.0
C903 C 0.96167 0.07244 0.58604 0.0
C904 C 0.977 0.05988 0.56705 0.0
C905 C 0.97205 0.06011 0.53749 0.0
C906 C 0.95217 0.07281 0.52706 0.0
H907 H 0.85081 0.05906 0.55477 0.0
H908 H 0.8846 0.05018 0.55174 0.0
H909 H 0.87867 0.07148 0.5807 0.0
H910 H 0.93026 0.09502 0.59047 0.0
H911 H 0.96529 0.07268 0.6089 0.0
H912 H 0.35693 0.65759 0.19017 0.0
H913 H 0.31264 0.63201 0.16734 0.0
H914 H 0.28506 0.70337 0.15673 0.0
H915 H 0.32891 0.729 0.17981 0.0
H916 H 0.25459 0.62767 0.18243 0.0
H917 H 0.27888 0.67056 0.07537 0.0
H918 H 0.30578 0.6739 0.10288 0.0
H919 H 0.2811 0.6946 0.10402 0.0
C920 C 0.34135 0.66785 0.18321 0.0
C921 C 0.34675 0.69547 0.18663 0.0
C922 C 0.31608 0.65319 0.17002 0.0
C923 C 0.29574 0.6658 0.1598 0.0
C924 C 0.30073 0.69324 0.16378 0.0
H925 H 0.13135 0.61977 0.07335 0.0
H926 H 0.1762 0.64271 0.09676 0.0
C927 C 0.32591 0.70789 0.17698 0.0
C928 C 0.26916 0.65035 0.14521 0.0
H929 H 0.23176 0.64418 0.08238 0.0
C930 C 0.24967 0.63112 0.16049 0.0
C931 C 0.26271 0.65488 0.11657 0.0
C932 C 0.2833 0.67442 0.09861 0.0
C933 C 0.22358 0.61687 0.14822 0.0
C934 C 0.21702 0.62156 0.11964 0.0
C935 C 0.23668 0.6406 0.10428 0.0
C936 C 0.18971 0.60727 0.10537 0.0
C937 C 0.20289 0.59753 0.16632 0.0
C938 C 0.18242 0.57966 0.10195 0.0
C939 C 0.15668 0.56641 0.08859 0.0
C940 C 0.1377 0.5805 0.07809 0.0
C941 C 0.14533 0.6082 0.08114 0.0
C942 C 0.17103 0.6214 0.09455 0.0
H943 H 0.20752 0.60136 0.18953 0.0
H944 H 0.18047 0.59834 0.16225 0.0
H945 H 0.20476 0.57726 0.16088 0.0
H946 H 0.19674 0.56831 0.10946 0.0
H947 H 0.15173 0.54512 0.08649 0.0
H948 H 0.31948 0.43843 0.74432 0.0
H949 H 0.35944 0.46135 0.71458 0.0
H950 H 0.31563 0.42232 0.63913 0.0
H951 H 0.27551 0.39935 0.6689 0.0
H952 H 0.39319 0.43703 0.67879 0.0
H953 H 0.34013 0.50035 0.61671 0.0
H954 H 0.32525 0.48508 0.64937 0.0
H955 H 0.32184 0.46597 0.61645 0.0
C956 C 0.31817 0.43509 0.72134 0.0
C957 C 0.29415 0.41748 0.70884 0.0
C958 C 0.34105 0.44812 0.70438 0.0
C959 C 0.34039 0.44388 0.67457 0.0
C960 C 0.31636 0.42637 0.662 0.0
H961 H 0.46172 0.49485 0.53684 0.0
H962 H 0.41963 0.4765 0.56617 0.0
C963 C 0.29349 0.41323 0.67899 0.0
C964 C 0.36556 0.45663 0.65694 0.0
H965 H 0.387 0.49902 0.6023 0.0
C966 C 0.39188 0.45071 0.66217 0.0
C967 C 0.3638 0.47433 0.63514 0.0
C968 C 0.33633 0.48205 0.62913 0.0
C969 C 0.41635 0.4616 0.64591 0.0
C970 C 0.4147 0.47949 0.6242 0.0
C971 C 0.38833 0.48541 0.61896 0.0
C972 C 0.43995 0.49183 0.6064 0.0
C973 C 0.44352 0.45321 0.6516 0.0
C974 C 0.46524 0.50716 0.61911 0.0
C975 C 0.48939 0.51755 0.60239 0.0
C976 C 0.48864 0.51304 0.57258 0.0
C977 C 0.46301 0.49856 0.55977 0.0
C978 C 0.43891 0.48808 0.57651 0.0
H979 H 0.43918 0.43431 0.663 0.0
H980 H 0.45493 0.45089 0.63137 0.0
H981 H 0.45792 0.4685 0.6653 0.0
H982 H 0.46638 0.51094 0.64202 0.0
H983 H 0.50875 0.52884 0.61285 0.0
H984 H 0.7669 0.72165 0.86747 0.0
H985 H 0.80494 0.69954 0.87749 0.0
H986 H 0.7701 0.68143 0.96178 0.0
H987 H 0.73191 0.70327 0.95164 0.0
H988 H 0.84473 0.71493 0.92101 0.0
H989 H 0.78416 0.611 0.93366 0.0
H990 H 0.7691 0.63496 0.91654 0.0
H991 H 0.77072 0.63439 0.95492 0.0
C992 C 0.76703 0.71233 0.88782 0.0
C993 C 0.7462 0.71353 0.90856 0.0
C994 C 0.78876 0.69984 0.89358 0.0
C995 C 0.79003 0.68843 0.92018 0.0
C996 C 0.76907 0.68945 0.94084 0.0
H997 H 0.91433 0.62715 1.01042 0.0
H998 H 0.87215 0.64118 0.99485 0.0
C999 C 0.74735 0.70196 0.93509 0.0
C1000 C 0.81465 0.67758 0.92726 0.0
H1001 H 0.83278 0.62229 0.94937 0.0
C1002 C 0.84217 0.69461 0.92693 0.0
C1003 C 0.81117 0.65111 0.93516 0.0
C1004 C 0.78223 0.6317 0.93487 0.0
C1005 C 0.86628 0.68607 0.93494 0.0
C1006 C 0.86281 0.65965 0.943 0.0
C1007 C 0.83533 0.64254 0.94316 0.0
C1008 C 0.88751 0.64962 0.95174 0.0
C1009 C 0.89516 0.70563 0.93551 0.0
C1010 C 0.90975 0.64914 0.93244 0.0
C1011 C 0.93383 0.64114 0.94125 0.0
C1012 C 0.93601 0.63328 0.96948 0.0
C1013 C 0.91322 0.63294 0.98849 0.0
C1014 C 0.88917 0.64101 0.97967 0.0
H1015 H 0.89318 0.72632 0.93551 0.0
H1016 H 0.90765 0.70311 0.95465 0.0
H1017 H 0.90742 0.7023 0.9162 0.0
H1018 H 0.90859 0.65518 0.91061 0.0
H1019 H 0.95075 0.64111 0.92594 0.0
H1020 H 0.4387 0.79843 0.22882 0.0
H1021 H 0.45995 0.8413 0.20799 0.0
H1022 H 0.44212 0.80644 0.1233 0.0
H1023 H 0.421 0.76363 0.14387 0.0
H1024 H 0.50559 0.85719 0.17092 0.0
H1025 H 0.40581 0.86854 0.12028 0.0
H1026 H 0.40587 0.84401 0.14657 0.0
H1027 H 0.41509 0.83843 0.10999 0.0
C1028 C 0.43948 0.79982 0.20575 0.0
C1029 C 0.4278 0.77753 0.18808 0.0
C1030 C 0.45152 0.82441 0.19386 0.0
C1031 C 0.4521 0.82732 0.16405 0.0
C1032 C 0.44121 0.80496 0.14636 0.0
H1033 H 0.51735 0.95795 0.04994 0.0
H1034 H 0.49541 0.91517 0.07082 0.0
C1035 C 0.42914 0.78042 0.1582 0.0
C1036 C 0.46443 0.85359 0.15142 0.0
H1037 H 0.4488 0.89961 0.10792 0.0
C1038 C 0.49311 0.86652 0.15729 0.0
C1039 C 0.44823 0.86583 0.13352 0.0
C1040 C 0.41697 0.85364 0.12739 0.0
C1041 C 0.50613 0.89098 0.14537 0.0
C1042 C 0.48993 0.9032 0.12746 0.0
C1043 C 0.46126 0.89028 0.12158 0.0
C1044 C 0.50234 0.92942 0.11478 0.0
C1045 C 0.53737 0.90321 0.15153 0.0
C1046 C 0.51289 0.95188 0.13244 0.0
C1047 C 0.52539 0.97631 0.12056 0.0
C1048 C 0.5275 0.97889 0.09072 0.0
C1049 C 0.51613 0.9566 0.073 0.0
C1050 C 0.50361 0.93213 0.08493 0.0
H1051 H 0.5485 0.88842 0.15898 0.0
H1052 H 0.54853 0.91258 0.13225 0.0
H1053 H 0.53921 0.91866 0.16867 0.0
H1054 H 0.51158 0.95051 0.1555 0.0
H1055 H 0.53373 0.99313 0.1348 0.0
H1056 H 0.2075 0.31054 0.71795 0.0
H1057 H 0.1867 0.2672 0.69587 0.0
H1058 H 0.10295 0.28248 0.69963 0.0
H1059 H 0.1237 0.32614 0.72173 0.0
H1060 H 0.10298 0.23106 0.71529 0.0
H1061 H 0.15997 0.25547 0.61259 0.0
H1062 H 0.18336 0.26083 0.6431 0.0
H1063 H 0.15772 0.28029 0.63951 0.0
C1064 C 0.18465 0.3048 0.714 0.0
C1065 C 0.16737 0.32209 0.72131 0.0
C1066 C 0.17278 0.27996 0.70132 0.0
C1067 C 0.14333 0.27173 0.69546 0.0
C1068 C 0.12577 0.28843 0.70374 0.0
H1069 H 0.06657 0.14125 0.57705 0.0
H1070 H 0.08287 0.18419 0.6017 0.0
C1071 C 0.13766 0.31337 0.71651 0.0
C1072 C 0.13111 0.24584 0.68039 0.0
H1073 H 0.13651 0.21038 0.61888 0.0
C1074 C 0.11022 0.22658 0.69416 0.0
C1075 C 0.14018 0.24004 0.6526 0.0
C1076 C 0.16133 0.26031 0.63592 0.0
C1077 C 0.09875 0.20152 0.68124 0.0
C1078 C 0.1087 0.19537 0.65394 0.0
C1079 C 0.12907 0.21489 0.63991 0.0
C1080 C 0.09818 0.16894 0.63939 0.0
C1081 C 0.07574 0.18202 0.6968 0.0
C1082 C 0.10158 0.14592 0.65214 0.0
C1083 C 0.09224 0.12125 0.63807 0.0
C1084 C 0.07945 0.119 0.6108 0.0
C1085 C 0.07627 0.14212 0.59801 0.0
C1086 C 0.0856 0.16677 0.6121 0.0
H1087 H 0.06496 0.19197 0.71317 0.0
H1088 H 0.05933 0.17053 0.68167 0.0
H1089 H 0.08558 0.16802 0.70792 0.0
H1090 H 0.11181 0.14706 0.67286 0.0
H1091 H 0.0952 0.10395 0.64855 0.0
H1092 H 0.72197 0.23612 0.57178 0.0
H1093 H 0.69488 0.27003 0.57492 0.0
H1094 H 0.65362 0.24126 0.49449 0.0
H1095 H 0.68039 0.20719 0.49158 0.0
H1096 H 0.70057 0.30816 0.53551 0.0
H1097 H 0.58686 0.25315 0.54266 0.0
H1098 H 0.61606 0.23848 0.5504 0.0
H1099 H 0.60551 0.24113 0.51397 0.0
C1100 C 0.70641 0.2366 0.55531 0.0
C1101 C 0.70265 0.21881 0.53177 0.0
C1102 C 0.69106 0.25595 0.55704 0.0
C1103 C 0.67188 0.25783 0.53519 0.0
C1104 C 0.66768 0.23966 0.51198 0.0
H1105 H 0.63124 0.39537 0.47218 0.0
H1106 H 0.6478 0.35594 0.48102 0.0
C1107 C 0.68299 0.22031 0.51026 0.0
C1108 C 0.65907 0.28067 0.53474 0.0
H1109 H 0.59581 0.2979 0.52729 0.0
C1110 C 0.67763 0.30595 0.53413 0.0
C1111 C 0.62917 0.27773 0.5332 0.0
C1112 C 0.60822 0.25117 0.53538 0.0
C1113 C 0.66716 0.32833 0.53084 0.0
C1114 C 0.63738 0.32523 0.52752 0.0
C1115 C 0.61867 0.30011 0.5294 0.0
C1116 C 0.62547 0.34786 0.52129 0.0
C1117 C 0.68811 0.35507 0.53078 0.0
C1118 C 0.60646 0.35565 0.54044 0.0
C1119 C 0.59653 0.37796 0.53521 0.0
C1120 C 0.60543 0.39279 0.5107 0.0
C1121 C 0.62375 0.38432 0.49112 0.0
C1122 C 0.63354 0.36198 0.49631 0.0
H1123 H 0.70851 0.35483 0.54159 0.0
H1124 H 0.69317 0.36085 0.50834 0.0
H1125 H 0.67898 0.3703 0.54155 0.0
H1126 H 0.5998 0.34481 0.5597 0.0
H1127 H 0.58204 0.3837 0.55045 0.0
loop_
_geom_bond_atom_site_label_1
_geom_bond_atom_site_label_2
_geom_bond_distance
_geom_bond_site_symmetry_2
_ccdc_geom_bond_type
H0 C7 0.929 . S
H1 C10 0.930 . S
H2 C12 0.929 . S
H3 C4 0.969 . S
C4 H3 0.969 . S
C4 O5 1.550 . S
C4 H6 0.973 . S
O5 C4 1.550 . S
O5 C11 1.412 . S
H6 C4 0.973 . S
C7 H0 0.929 . S
C7 C8 1.400 . S
C7 C9 1.364 . S
C8 C7 1.400 . S
C8 C12 1.377 . S
C9 C7 1.364 . S
C9 C10 1.374 . S
C10 H1 0.930 . S
C10 C9 1.374 . S
C10 C11 1.383 . S
C11 O5 1.412 . S
C11 C10 1.383 . S
C11 C12 1.394 . S
C12 H2 0.929 . S
C12 C8 1.377 . S
C12 C11 1.394 . S
H13 C20 0.929 . S
H14 C23 0.930 . S
H15 C25 0.929 . S
H16 C17 0.969 . S
C17 H16 0.969 . S
C17 O18 1.550 . S
C17 H19 0.973 . S
O18 C17 1.550 . S
O18 C24 1.412 . S
H19 C17 0.973 . S
C20 H13 0.929 . S
C20 C21 1.400 . S
C20 C22 1.364 . S
C21 C20 1.400 . S
C21 C25 1.377 . S
C22 C20 1.364 . S
C22 C23 1.374 . S
C23 H14 0.930 . S
C23 C22 1.374 . S
C23 C24 1.383 . S
C24 O18 1.412 . S
C24 C23 1.383 . S
C24 C25 1.394 . S
C25 H15 0.929 . S
C25 C21 1.377 . S
C25 C24 1.394 . S
H26 C33 0.929 . S
H27 C36 0.930 . S
H28 C38 0.929 . S
H29 C30 0.969 . S
C30 H29 0.969 . S
C30 O31 1.550 . S
C30 H32 0.973 . S
O31 C30 1.550 . S
O31 C37 1.412 . S
H32 C30 0.973 . S
C33 H26 0.929 . S
C33 C34 1.400 . S
C33 C35 1.364 . S
C34 C33 1.400 . S
C34 C38 1.377 . S
C35 C33 1.364 . S
C35 C36 1.374 . S
C36 H27 0.930 . S
C36 C35 1.374 . S
C36 C37 1.383 . S
C37 O31 1.412 . S
C37 C36 1.383 . S
C37 C38 1.394 . S
C38 H28 0.929 . S
C38 C34 1.377 . S
C38 C37 1.394 . S
H39 C46 0.929 . S
H40 C49 0.930 . S
H41 C51 0.929 . S
H42 C43 0.969 . S
C43 H42 0.969 . S
C43 O44 1.550 . S
C43 H45 0.973 . S
O44 C43 1.550 . S
O44 C50 1.412 . S
H45 C43 0.973 . S
C46 H39 0.929 . S
C46 C47 1.400 . S
C46 C48 1.364 . S
C47 C46 1.400 . S
C47 C51 1.377 . S
C48 C46 1.364 . S
C48 C49 1.374 . S
C49 H40 0.930 . S
C49 C48 1.374 . S
C49 C50 1.383 . S
C50 O44 1.412 . S
C50 C49 1.383 . S
C50 C51 1.394 . S
C51 H41 0.929 . S
C51 C47 1.377 . S
C51 C50 1.394 . S
H52 C59 0.929 . S
H53 C62 0.930 . S
H54 C64 0.929 . S
H55 C56 0.969 . S
C56 H55 0.969 . S
C56 O57 1.550 . S
C56 H58 0.973 . S
O57 C56 1.550 . S
O57 C63 1.412 . S
H58 C56 0.973 . S
C59 H52 0.929 . S
C59 C60 1.400 . S
C59 C61 1.364 . S
C60 C59 1.400 . S
C60 C64 1.377 . S
C61 C59 1.364 . S
C61 C62 1.374 . S
C62 H53 0.930 . S
C62 C61 1.374 . S
C62 C63 1.383 . S
C63 O57 1.412 . S
C63 C62 1.383 . S
C63 C64 1.394 . S
C64 H54 0.929 . S
C64 C60 1.377 . S
C64 C63 1.394 . S
H65 C72 0.929 . S
H66 C75 0.930 . S
H67 C77 0.929 . S
H68 C69 0.969 . S
C69 H68 0.969 . S
C69 O70 1.550 . S
C69 H71 0.973 . S
O70 C69 1.550 . S
O70 C76 1.412 . S
H71 C69 0.973 . S
C72 H65 0.929 . S
C72 C73 1.400 . S
C72 C74 1.364 . S
C73 C72 1.400 . S
C73 C77 1.377 . S
C74 C72 1.364 . S
C74 C75 1.374 . S
C75 H66 0.930 . S
C75 C74 1.374 . S
C75 C76 1.383 . S
C76 O70 1.412 . S
C76 C75 1.383 . S
C76 C77 1.394 . S
C77 H67 0.929 . S
C77 C73 1.377 . S
C77 C76 1.394 . S
H78 C85 0.929 . S
H79 C88 0.930 . S
H80 C90 0.929 . S
H81 C82 0.969 . S
C82 H81 0.969 . S
C82 O83 1.550 . S
C82 H84 0.973 . S
O83 C82 1.550 . S
O83 C89 1.412 . S
H84 C82 0.973 . S
C85 H78 0.929 . S
C85 C86 1.400 . S
C85 C87 1.364 . S
C86 C85 1.400 . S
C86 C90 1.377 . S
C87 C85 1.364 . S
C87 C88 1.374 . S
C88 H79 0.930 . S
C88 C87 1.374 . S
C88 C89 1.383 . S
C89 O83 1.412 . S
C89 C88 1.383 . S
C89 C90 1.394 . S
C90 H80 0.929 . S
C90 C86 1.377 . S
C90 C89 1.394 . S
H91 C98 0.929 . S
H92 C101 0.930 . S
H93 C103 0.929 . S
H94 C95 0.969 . S
C95 H94 0.969 . S
C95 O96 1.550 . S
C95 H97 0.973 . S
O96 C95 1.550 . S
O96 C102 1.412 . S
H97 C95 0.973 . S
C98 H91 0.929 . S
C98 C99 1.400 . S
C98 C100 1.364 . S
C99 C98 1.400 . S
C99 C103 1.377 . S
C100 C98 1.364 . S
C100 C101 1.374 . S
C101 H92 0.930 . S
C101 C100 1.374 . S
C101 C102 1.383 . S
C102 O96 1.412 . S
C102 C101 1.383 . S
C102 C103 1.394 . S
C103 H93 0.929 . S
C103 C99 1.377 . S
C103 C102 1.394 . S
Sm104 C106 2.846 . S
Sm104 O124 2.543 . S
Sm104 O125 2.450 . S
Sm104 O126 2.681 . S
Sm104 O127 2.464 . S
Sm104 O128 2.396 . S
Sm104 O132 2.386 . S
Sm104 O135 2.408 1_545 S
Sm105 C115 2.846 1_445 S
Sm105 O126 2.386 . S
Sm105 O129 2.408 . S
Sm105 O130 2.543 1_445 S
Sm105 O131 2.450 1_445 S
Sm105 O132 2.681 . S
Sm105 O133 2.464 1_455 S
Sm105 O134 2.396 1_445 S
C106 Sm104 2.846 . S
C106 C107 1.506 . S
C106 O124 1.261 . S
C106 O125 1.242 . S
C107 C106 1.506 . S
C107 C108 1.358 . S
C107 C112 1.382 . S
C108 C107 1.358 . S
C108 C109 1.385 . S
C108 H136 0.930 . S
C109 C108 1.385 . S
C109 C110 1.395 . S
C109 H137 0.929 . S
C110 C109 1.395 . S
C110 C111 1.335 . S
C111 C110 1.335 . S
C111 C112 1.398 . S
C111 H138 0.930 . S
C112 C107 1.382 . S
C112 C111 1.398 . S
C112 H139 0.929 . S
C113 O126 1.271 1_565 S
C113 O127 1.251 1_565 S
C114 O128 1.252 . S
C114 O129 1.272 . S
C115 Sm105 2.846 1_665 S
C115 C116 1.506 . S
C115 O130 1.261 . S
C115 O131 1.242 . S
C116 C115 1.506 . S
C116 C117 1.358 . S
C116 C121 1.382 . S
C117 C116 1.358 . S
C117 C118 1.385 . S
C117 H140 0.930 . S
C118 C117 1.385 . S
C118 C119 1.395 . S
C118 H141 0.929 . S
C119 C118 1.395 . S
C119 C120 1.335 . S
C120 C119 1.335 . S
C120 C121 1.398 . S
C120 H142 0.930 . S
C121 C116 1.382 . S
C121 C120 1.398 . S
C121 H143 0.929 . S
C122 O132 1.271 1_655 S
C122 O133 1.251 . S
C123 O134 1.252 . S
C123 O135 1.272 1_655 S
O124 Sm104 2.543 . S
O124 C106 1.261 . S
O125 Sm104 2.450 . S
O125 C106 1.242 . S
O126 Sm104 2.681 . S
O126 Sm105 2.386 . S
O126 C113 1.271 1_545 S
O127 Sm104 2.464 . S
O127 C113 1.251 1_545 S
O128 Sm104 2.396 . S
O128 C114 1.252 . S
O129 Sm105 2.408 . S
O129 C114 1.272 . S
O130 Sm105 2.543 1_665 S
O130 C115 1.261 . S
O131 Sm105 2.450 1_665 S
O131 C115 1.242 . S
O132 Sm104 2.386 . S
O132 Sm105 2.681 . S
O132 C122 1.271 1_455 S
O133 Sm105 2.464 1_655 S
O133 C122 1.251 . S
O134 Sm105 2.396 1_665 S
O134 C123 1.252 . S
O135 Sm104 2.408 1_565 S
O135 C123 1.272 1_455 S
H136 C108 0.930 . S
H137 C109 0.929 . S
H138 C111 0.930 . S
H139 C112 0.929 . S
H140 C117 0.930 . S
H141 C118 0.929 . S
H142 C120 0.930 . S
H143 C121 0.929 . S
Sm144 C146 2.846 . S
Sm144 O164 2.543 . S
Sm144 O165 2.450 . S
Sm144 O166 2.681 1_545 S
Sm144 O167 2.464 1_545 S
Sm144 O168 2.396 . S
Sm144 O172 2.386 . S
Sm144 O175 2.408 1_544 S
Sm145 C155 2.846 1_545 S
Sm145 O166 2.386 1_546 S
Sm145 O169 2.408 1_556 S
Sm145 O170 2.543 1_545 S
Sm145 O171 2.449 1_545 S
Sm145 O172 2.681 1_556 S
Sm145 O173 2.464 . S
Sm145 O174 2.396 1_545 S
C146 Sm144 2.846 . S
C146 C147 1.506 . S
C146 O164 1.261 . S
C146 O165 1.242 . S
C147 C146 1.506 . S
C147 C148 1.358 . S
C147 C152 1.382 . S
C148 C147 1.358 . S
C148 C149 1.385 . S
C148 H176 0.930 . S
C149 C148 1.385 . S
C149 C150 1.395 . S
C149 H177 0.929 . S
C150 C149 1.395 . S
C150 C151 1.335 . S
C151 C150 1.335 . S
C151 C152 1.398 . S
C151 H178 0.930 . S
C152 C147 1.382 . S
C152 C151 1.398 . S
C152 H179 0.929 . S
C153 O166 1.271 . S
C153 O167 1.251 . S
C154 O168 1.252 . S
C154 O169 1.272 . S
C155 Sm145 2.846 1_565 S
C155 C156 1.506 . S
C155 O170 1.261 . S
C155 O171 1.250 . S
C156 C155 1.506 . S
C156 C157 1.358 . S
C156 C161 1.382 . S
C157 C156 1.358 . S
C157 C158 1.385 . S
C157 H180 0.930 . S
C158 C157 1.385 . S
C158 C159 1.395 . S
C158 H181 0.929 . S
C159 C158 1.395 . S
C159 C160 1.335 . S
C160 C159 1.335 . S
C160 C161 1.398 . S
C160 H182 0.930 . S
C161 C156 1.382 . S
C161 C160 1.398 . S
C161 H183 0.929 . S
C162 O172 1.271 1_556 S
C162 O173 1.251 . S
C163 O174 1.252 . S
C163 O175 1.272 . S
O164 Sm144 2.543 . S
O164 C146 1.261 . S
O165 Sm144 2.450 . S
O165 C146 1.242 . S
O166 Sm144 2.681 1_565 S
O166 Sm145 2.386 1_564 S
O166 C153 1.271 . S
O167 Sm144 2.464 1_565 S
O167 C153 1.251 . S
O168 Sm144 2.396 . S
O168 C154 1.252 . S
O169 Sm145 2.408 1_554 S
O169 C154 1.272 . S
O170 Sm145 2.543 1_565 S
O170 C155 1.261 . S
O171 Sm145 2.449 1_565 S
O171 C155 1.250 . S
O172 Sm144 2.386 . S
O172 Sm145 2.681 1_554 S
O172 C162 1.271 1_554 S
O173 Sm145 2.464 . S
O173 C162 1.251 . S
O174 Sm145 2.396 1_565 S
O174 C163 1.252 . S
O175 Sm144 2.408 1_566 S
O175 C163 1.272 . S
H176 C148 0.930 . S
H177 C149 0.929 . S
H178 C151 0.930 . S
H179 C152 0.929 . S
H180 C157 0.930 . S
H181 C158 0.929 . S
H182 C160 0.930 . S
H183 C161 0.929 . S
Sm184 C186 2.846 . S
Sm184 O204 2.543 . S
Sm184 O205 2.450 . S
Sm184 O206 2.681 . S
Sm184 O207 2.464 . S
Sm184 O208 2.396 . S
Sm184 O212 2.386 . S
Sm184 O215 2.408 . S
Sm185 C195 2.846 . S
Sm185 O206 2.386 . S
Sm185 O209 2.408 . S
Sm185 O210 2.543 . S
Sm185 O211 2.450 . S
Sm185 O212 2.681 . S
Sm185 O213 2.464 . S
Sm185 O214 2.396 . S
C186 Sm184 2.846 . S
C186 C187 1.506 . S
C186 O204 1.261 . S
C186 O205 1.242 . S
C187 C186 1.506 . S
C187 C188 1.358 . S
C187 C192 1.382 . S
C188 C187 1.358 . S
C188 C189 1.385 . S
C188 H216 0.930 . S
C189 C188 1.385 . S
C189 C190 1.395 . S
C189 H217 0.929 . S
C190 C189 1.395 . S
C190 C191 1.335 . S
C191 C190 1.335 . S
C191 C192 1.398 . S
C191 H218 0.930 . S
C192 C187 1.382 . S
C192 C191 1.398 . S
C192 H219 0.929 . S
C193 O206 1.271 . S
C193 O207 1.251 . S
C194 O208 1.252 . S
C194 O209 1.272 . S
C195 Sm185 2.846 . S
C195 C196 1.506 . S
C195 O210 1.261 . S
C195 O211 1.242 . S
C196 C195 1.506 . S
C196 C197 1.358 . S
C196 C201 1.382 . S
C197 C196 1.358 . S
C197 C198 1.385 . S
C197 H220 0.930 . S
C198 C197 1.385 . S
C198 C199 1.395 . S
C198 H221 0.929 . S
C199 C198 1.395 . S
C199 C200 1.335 . S
C200 C199 1.335 . S
C200 C201 1.398 . S
C200 H222 0.930 . S
C201 C196 1.382 . S
C201 C200 1.398 . S
C201 H223 0.929 . S
C202 O212 1.271 . S
C202 O213 1.251 . S
C203 O214 1.252 . S
C203 O215 1.272 . S
O204 Sm184 2.543 . S
O204 C186 1.261 . S
O205 Sm184 2.450 . S
O205 C186 1.242 . S
O206 Sm184 2.681 . S
O206 Sm185 2.386 . S
O206 C193 1.271 . S
O207 Sm184 2.464 . S
O207 C193 1.251 . S
O208 Sm184 2.396 . S
O208 C194 1.252 . S
O209 Sm185 2.408 . S
O209 C194 1.272 . S
O210 Sm185 2.543 . S
O210 C195 1.261 . S
O211 Sm185 2.450 . S
O211 C195 1.242 . S
O212 Sm184 2.386 . S
O212 Sm185 2.681 . S
O212 C202 1.271 . S
O213 Sm185 2.464 . S
O213 C202 1.251 . S
O214 Sm185 2.396 . S
O214 C203 1.252 . S
O215 Sm184 2.408 . S
O215 C203 1.272 . S
H216 C188 0.930 . S
H217 C189 0.929 . S
H218 C191 0.930 . S
H219 C192 0.929 . S
H220 C197 0.930 . S
H221 C198 0.929 . S
H222 C200 0.930 . S
H223 C201 0.929 . S
Sm224 C226 2.846 . S
Sm224 O244 2.543 . S
Sm224 O245 2.450 . S
Sm224 O246 2.681 . S
Sm224 O247 2.464 . S
Sm224 O248 2.396 . S
Sm224 O252 2.386 . S
Sm224 O255 2.408 1_455 S
Sm225 C235 2.846 1_454 S
Sm225 O246 2.386 . S
Sm225 O249 2.408 . S
Sm225 O250 2.543 1_455 S
Sm225 O251 2.450 1_554 S
Sm225 O252 2.681 . S
Sm225 O253 2.464 1_554 S
Sm225 O254 2.405 1_455 S
C226 Sm224 2.846 . S
C226 C227 1.506 . S
C226 O244 1.261 . S
C226 O245 1.242 . S
C227 C226 1.506 . S
C227 C228 1.358 . S
C227 C232 1.382 . S
C228 C227 1.358 . S
C228 C229 1.385 . S
C228 H256 0.930 . S
C229 C228 1.385 . S
C229 C230 1.395 . S
C229 H257 0.929 . S
C230 C229 1.395 . S
C230 C231 1.335 . S
C231 C230 1.335 . S
C231 C232 1.398 . S
C231 H258 0.930 . S
C232 C227 1.382 . S
C232 C231 1.398 . S
C232 H259 0.929 . S
C233 O246 1.271 . S
C233 O247 1.251 . S
C234 O248 1.252 . S
C234 O249 1.272 . S
C235 Sm225 2.846 1_656 S
C235 C236 1.506 . S
C235 O250 1.261 1_556 S
C235 O251 1.242 1_655 S
C236 C235 1.506 . S
C236 C237 1.358 . S
C236 C241 1.382 . S
C237 C236 1.358 . S
C237 C238 1.385 . S
C237 H260 0.930 1_556 S
C238 C237 1.385 . S
C238 C239 1.395 . S
C238 H261 0.929 . S
C239 C238 1.395 . S
C239 C240 1.335 . S
C240 C239 1.335 . S
C240 C241 1.398 . S
C240 H262 0.930 . S
C241 C236 1.382 . S
C241 C240 1.398 . S
C241 H263 0.929 . S
C242 O252 1.271 1_556 S
C242 O253 1.251 . S
C243 O254 1.269 . S
C243 O255 1.272 . S
O244 Sm224 2.543 . S
O244 C226 1.261 . S
O245 Sm224 2.450 . S
O245 C226 1.242 . S
O246 Sm224 2.681 . S
O246 Sm225 2.386 . S
O246 C233 1.271 . S
O247 Sm224 2.464 . S
O247 C233 1.251 . S
O248 Sm224 2.396 . S
O248 C234 1.252 . S
O249 Sm225 2.408 . S
O249 C234 1.272 . S
O250 Sm225 2.543 1_655 S
O250 C235 1.261 1_554 S
O251 Sm225 2.450 1_556 S
O251 C235 1.242 1_455 S
O252 Sm224 2.386 . S
O252 Sm225 2.681 . S
O252 C242 1.271 1_554 S
O253 Sm225 2.464 1_556 S
O253 C242 1.251 . S
O254 Sm225 2.405 1_655 S
O254 C243 1.269 . S
O255 Sm224 2.408 1_655 S
O255 C243 1.272 . S
H256 C228 0.930 . S
H257 C229 0.929 . S
H258 C231 0.930 . S
H259 C232 0.929 . S
H260 C237 0.930 1_554 S
H261 C238 0.929 . S
H262 C240 0.930 . S
H263 C241 0.929 . S
H264 C272 0.929 . S
H265 C274 0.930 . S
H266 C276 0.930 . S
H267 C279 0.929 . S
H268 C282 0.930 . S
H269 C284 0.960 . S
H270 C284 0.960 . S
H271 C284 0.960 . S
C272 H264 0.929 . S
C272 C273 1.377 . S
C272 C274 1.384 . S
C273 C272 1.377 . S
C273 C279 1.390 . S
C274 H265 0.930 . S
C274 C272 1.384 . S
C274 C275 1.372 . S
C275 C274 1.372 . S
C275 C276 1.400 . S
C275 C280 1.490 . S
C276 H266 0.930 . S
C276 C275 1.400 . S
C276 C279 1.386 . S
H277 C293 0.930 . S
H278 C294 0.931 . S
C279 H267 0.929 . S
C279 C273 1.390 . S
C279 C276 1.386 . S
C280 C275 1.490 . S
C280 C282 1.395 . S
C280 C283 1.403 . S
H281 C287 0.930 . S
C282 H268 0.930 . S
C282 C280 1.395 . S
C282 C285 1.403 . S
C283 C280 1.403 . S
C283 C284 1.524 . S
C283 C287 1.400 . S
C284 H269 0.960 . S
C284 H270 0.960 . S
C284 H271 0.960 . S
C284 C283 1.524 . S
C285 C282 1.403 . S
C285 C286 1.392 . S
C285 C289 1.495 . S
C286 C285 1.392 . S
C286 C287 1.385 . S
C286 C288 1.478 . S
C287 H281 0.930 . S
C287 C283 1.400 . S
C287 C286 1.385 . S
C288 C286 1.478 . S
C288 C290 1.381 . S
C288 C294 1.383 . S
C289 C285 1.495 . S
C289 H295 0.959 . S
C289 H296 0.961 . S
C289 H297 0.960 . S
C290 C288 1.381 . S
C290 C291 1.394 . S
C290 H298 0.930 . S
C291 C290 1.394 . S
C291 C292 1.383 . S
C291 H299 0.929 . S
C292 C291 1.383 . S
C292 C293 1.377 . S
C293 H277 0.930 . S
C293 C292 1.377 . S
C293 C294 1.379 . S
C294 H278 0.931 . S
C294 C288 1.383 . S
C294 C293 1.379 . S
H295 C289 0.959 . S
H296 C289 0.961 . S
H297 C289 0.960 . S
H298 C290 0.930 . S
H299 C291 0.929 . S
H300 C308 0.929 . S
H301 C310 0.930 . S
H302 C312 0.930 . S
H303 C315 0.929 . S
H304 C318 0.930 . S
H305 C320 0.960 . S
H306 C320 0.960 . S
H307 C320 0.960 . S
C308 H300 0.929 . S
C308 C309 1.377 . S
C308 C310 1.384 . S
C309 C308 1.377 . S
C309 C315 1.390 . S
C310 H301 0.930 . S
C310 C308 1.384 . S
C310 C311 1.372 . S
C311 C310 1.372 . S
C311 C312 1.400 . S
C311 C316 1.490 . S
C312 H302 0.930 . S
C312 C311 1.400 . S
C312 C315 1.386 . S
H313 C329 0.930 . S
H314 C330 0.931 . S
C315 H303 0.929 . S
C315 C309 1.390 . S
C315 C312 1.386 . S
C316 C311 1.490 . S
C316 C318 1.395 . S
C316 C319 1.403 . S
H317 C323 0.930 . S
C318 H304 0.930 . S
C318 C316 1.395 . S
C318 C321 1.403 . S
C319 C316 1.403 . S
C319 C320 1.524 . S
C319 C323 1.400 . S
C320 H305 0.960 . S
C320 H306 0.960 . S
C320 H307 0.960 . S
C320 C319 1.524 . S
C321 C318 1.403 . S
C321 C322 1.392 . S
C321 C325 1.495 . S
C322 C321 1.392 . S
C322 C323 1.385 . S
C322 C324 1.478 . S
C323 H317 0.930 . S
C323 C319 1.400 . S
C323 C322 1.385 . S
C324 C322 1.478 . S
C324 C326 1.381 . S
C324 C330 1.383 . S
C325 C321 1.495 . S
C325 H331 0.959 . S
C325 H332 0.961 . S
C325 H333 0.960 . S
C326 C324 1.381 . S
C326 C327 1.394 . S
C326 H334 0.930 . S
C327 C326 1.394 . S
C327 C328 1.383 . S
C327 H335 0.929 . S
C328 C327 1.383 . S
C328 C329 1.377 . S
C329 H313 0.930 . S
C329 C328 1.377 . S
C329 C330 1.379 . S
C330 H314 0.931 . S
C330 C324 1.383 . S
C330 C329 1.379 . S
H331 C325 0.959 . S
H332 C325 0.961 . S
H333 C325 0.960 . S
H334 C326 0.930 . S
H335 C327 0.929 . S
H336 C344 0.929 . S
H337 C346 0.930 . S
H338 C348 0.930 . S
H339 C351 0.929 . S
H340 C354 0.930 . S
H341 C356 0.960 . S
H342 C356 0.960 . S
H343 C356 0.960 . S
C344 H336 0.929 . S
C344 C345 1.377 . S
C344 C346 1.384 . S
C345 C344 1.377 . S
C345 C351 1.390 . S
C346 H337 0.930 . S
C346 C344 1.384 . S
C346 C347 1.372 . S
C347 C346 1.372 . S
C347 C348 1.400 . S
C347 C352 1.490 . S
C348 H338 0.930 . S
C348 C347 1.400 . S
C348 C351 1.386 . S
H349 C365 0.930 . S
H350 C366 0.931 . S
C351 H339 0.929 . S
C351 C345 1.390 . S
C351 C348 1.386 . S
C352 C347 1.490 . S
C352 C354 1.395 . S
C352 C355 1.403 . S
H353 C359 0.930 . S
C354 H340 0.930 . S
C354 C352 1.395 . S
C354 C357 1.403 . S
C355 C352 1.403 . S
C355 C356 1.524 . S
C355 C359 1.400 . S
C356 H341 0.960 . S
C356 H342 0.960 . S
C356 H343 0.960 . S
C356 C355 1.524 . S
C357 C354 1.403 . S
C357 C358 1.392 . S
C357 C361 1.495 . S
C358 C357 1.392 . S
C358 C359 1.385 . S
C358 C360 1.478 . S
C359 H353 0.930 . S
C359 C355 1.400 . S
C359 C358 1.385 . S
C360 C358 1.478 . S
C360 C362 1.381 . S
C360 C366 1.383 . S
C361 C357 1.495 . S
C361 H367 0.959 . S
C361 H368 0.961 . S
C361 H369 0.960 . S
C362 C360 1.381 . S
C362 C363 1.394 . S
C362 H370 0.930 . S
C363 C362 1.394 . S
C363 C364 1.383 . S
C363 H371 0.929 . S
C364 C363 1.383 . S
C364 C365 1.377 . S
C365 H349 0.930 . S
C365 C364 1.377 . S
C365 C366 1.379 . S
C366 H350 0.931 . S
C366 C360 1.383 . S
C366 C365 1.379 . S
H367 C361 0.959 . S
H368 C361 0.961 . S
H369 C361 0.960 . S
H370 C362 0.930 . S
H371 C363 0.929 . S
H372 C380 0.929 . S
H373 C382 0.930 . S
H374 C384 0.930 . S
H375 C387 0.929 . S
H376 C390 0.930 . S
H377 C392 0.960 . S
H378 C392 0.960 . S
H379 C392 0.960 . S
C380 H372 0.929 . S
C380 C381 1.377 . S
C380 C382 1.384 . S
C381 C380 1.377 . S
C381 C387 1.390 . S
C382 H373 0.930 . S
C382 C380 1.384 . S
C382 C383 1.372 . S
C383 C382 1.372 . S
C383 C384 1.400 . S
C383 C388 1.490 . S
C384 H374 0.930 . S
C384 C383 1.400 . S
C384 C387 1.386 . S
H385 C401 0.930 . S
H386 C402 0.926 1_455 S
C387 H375 0.929 . S
C387 C381 1.390 . S
C387 C384 1.386 . S
C388 C383 1.490 . S
C388 C390 1.395 . S
C388 C391 1.403 . S
H389 C395 0.930 . S
C390 H376 0.930 . S
C390 C388 1.395 . S
C390 C393 1.403 . S
C391 C388 1.403 . S
C391 C392 1.524 . S
C391 C395 1.400 . S
C392 H377 0.960 . S
C392 H378 0.960 . S
C392 H379 0.960 . S
C392 C391 1.524 . S
C393 C390 1.403 . S
C393 C394 1.392 . S
C393 C397 1.495 . S
C394 C393 1.392 . S
C394 C395 1.385 . S
C394 C396 1.478 . S
C395 H389 0.930 . S
C395 C391 1.400 . S
C395 C394 1.385 . S
C396 C394 1.478 . S
C396 C398 1.381 . S
C396 C402 1.391 . S
C397 C393 1.495 . S
C397 H403 0.959 . S
C397 H404 0.961 . S
C397 H405 0.960 . S
C398 C396 1.381 . S
C398 C399 1.394 . S
C398 H406 0.930 . S
C399 C398 1.394 . S
C399 C400 1.383 . S
C399 H407 0.929 . S
C400 C399 1.383 . S
C400 C401 1.377 1_655 S
C401 H385 0.930 . S
C401 C400 1.377 1_455 S
C401 C402 1.376 1_455 S
C402 H386 0.926 1_655 S
C402 C396 1.391 . S
C402 C401 1.376 1_655 S
H403 C397 0.959 . S
H404 C397 0.961 . S
H405 C397 0.960 . S
H406 C398 0.930 . S
H407 C399 0.929 . S
H408 C416 0.929 . S
H409 C418 0.930 . S
H410 C420 0.930 . S
H411 C423 0.929 . S
H412 C426 0.930 . S
H413 C428 0.960 . S
H414 C428 0.960 . S
H415 C428 0.960 . S
C416 H408 0.929 . S
C416 C417 1.377 . S
C416 C418 1.384 . S
C417 C416 1.377 . S
C417 C423 1.390 . S
C418 H409 0.930 . S
C418 C416 1.384 . S
C418 C419 1.372 . S
C419 C418 1.372 . S
C419 C420 1.400 . S
C419 C424 1.490 . S
C420 H410 0.930 . S
C420 C419 1.400 . S
C420 C423 1.386 . S
H421 C437 0.930 . S
H422 C438 0.931 . S
C423 H411 0.929 . S
C423 C417 1.390 . S
C423 C420 1.386 . S
C424 C419 1.490 . S
C424 C426 1.395 . S
C424 C427 1.403 . S
H425 C431 0.930 . S
C426 H412 0.930 . S
C426 C424 1.395 . S
C426 C429 1.403 . S
C427 C424 1.403 . S
C427 C428 1.524 . S
C427 C431 1.400 . S
C428 H413 0.960 . S
C428 H414 0.960 . S
C428 H415 0.960 . S
C428 C427 1.524 . S
C429 C426 1.403 . S
C429 C430 1.392 . S
C429 C433 1.495 . S
C430 C429 1.392 . S
C430 C431 1.385 . S
C430 C432 1.478 . S
C431 H425 0.930 . S
C431 C427 1.400 . S
C431 C430 1.385 . S
C432 C430 1.478 . S
C432 C434 1.381 . S
C432 C438 1.383 . S
C433 C429 1.495 . S
C433 H439 0.959 . S
C433 H440 0.961 . S
C433 H441 0.960 . S
C434 C432 1.381 . S
C434 C435 1.394 . S
C434 H442 0.930 . S
C435 C434 1.394 . S
C435 C436 1.383 . S
C435 H443 0.929 . S
C436 C435 1.383 . S
C436 C437 1.377 . S
C437 H421 0.930 . S
C437 C436 1.377 . S
C437 C438 1.379 . S
C438 H422 0.931 . S
C438 C432 1.383 . S
C438 C437 1.379 . S
H439 C433 0.959 . S
H440 C433 0.961 . S
H441 C433 0.960 . S
H442 C434 0.930 . S
H443 C435 0.929 . S
H444 C452 0.929 . S
H445 C454 0.930 . S
H446 C456 0.930 . S
H447 C459 0.929 . S
H448 C462 0.930 . S
H449 C464 0.960 . S
H450 C464 0.960 . S
H451 C464 0.960 . S
C452 H444 0.929 . S
C452 C453 1.377 . S
C452 C454 1.384 . S
C453 C452 1.377 . S
C453 C459 1.390 . S
C454 H445 0.930 . S
C454 C452 1.384 . S
C454 C455 1.372 . S
C455 C454 1.372 . S
C455 C456 1.400 . S
C455 C460 1.490 . S
C456 H446 0.930 . S
C456 C455 1.400 . S
C456 C459 1.386 . S
H457 C473 0.930 . S
H458 C474 0.931 . S
C459 H447 0.929 . S
C459 C453 1.390 . S
C459 C456 1.386 . S
C460 C455 1.490 . S
C460 C462 1.395 . S
C460 C463 1.403 . S
H461 C467 0.930 . S
C462 H448 0.930 . S
C462 C460 1.395 . S
C462 C465 1.403 . S
C463 C460 1.403 . S
C463 C464 1.524 . S
C463 C467 1.400 . S
C464 H449 0.960 . S
C464 H450 0.960 . S
C464 H451 0.960 . S
C464 C463 1.524 . S
C465 C462 1.403 . S
C465 C466 1.392 . S
C465 C469 1.495 . S
C466 C465 1.392 . S
C466 C467 1.385 . S
C466 C468 1.478 . S
C467 H461 0.930 . S
C467 C463 1.400 . S
C467 C466 1.385 . S
C468 C466 1.478 . S
C468 C470 1.381 . S
C468 C474 1.383 . S
C469 C465 1.495 . S
C469 H475 0.959 . S
C469 H476 0.961 . S
C469 H477 0.960 . S
C470 C468 1.381 . S
C470 C471 1.394 . S
C470 H478 0.930 . S
C471 C470 1.394 . S
C471 C472 1.383 . S
C471 H479 0.929 . S
C472 C471 1.383 . S
C472 C473 1.377 . S
C473 H457 0.930 . S
C473 C472 1.377 . S
C473 C474 1.379 . S
C474 H458 0.931 . S
C474 C468 1.383 . S
C474 C473 1.379 . S
H475 C469 0.959 . S
H476 C469 0.961 . S
H477 C469 0.960 . S
H478 C470 0.930 . S
H479 C471 0.929 . S
H480 C488 0.929 . S
H481 C490 0.930 . S
H482 C492 0.930 . S
H483 C495 0.929 . S
H484 C498 0.930 . S
H485 C500 0.960 . S
H486 C500 0.960 . S
H487 C500 0.960 . S
C488 H480 0.929 . S
C488 C489 1.377 . S
C488 C490 1.384 . S
C489 C488 1.377 . S
C489 C495 1.390 . S
C490 H481 0.930 . S
C490 C488 1.384 . S
C490 C491 1.372 . S
C491 C490 1.372 . S
C491 C492 1.400 . S
C491 C496 1.490 . S
C492 H482 0.930 . S
C492 C491 1.400 . S
C492 C495 1.386 . S
H493 C509 0.930 . S
H494 C510 0.931 . S
C495 H483 0.929 . S
C495 C489 1.390 . S
C495 C492 1.386 . S
C496 C491 1.490 . S
C496 C498 1.395 . S
C496 C499 1.403 . S
H497 C503 0.930 . S
C498 H484 0.930 . S
C498 C496 1.395 . S
C498 C501 1.403 . S
C499 C496 1.403 . S
C499 C500 1.524 . S
C499 C503 1.400 . S
C500 H485 0.960 . S
C500 H486 0.960 . S
C500 H487 0.960 . S
C500 C499 1.524 . S
C501 C498 1.403 . S
C501 C502 1.392 . S
C501 C505 1.495 . S
C502 C501 1.392 . S
C502 C503 1.385 . S
C502 C504 1.478 . S
C503 H497 0.930 . S
C503 C499 1.400 . S
C503 C502 1.385 . S
C504 C502 1.478 . S
C504 C506 1.381 . S
C504 C510 1.383 . S
C505 C501 1.495 . S
C505 H511 0.959 . S
C505 H512 0.961 . S
C505 H513 0.960 . S
C506 C504 1.381 . S
C506 C507 1.394 1_556 S
C506 H514 0.930 1_556 S
C507 C506 1.394 1_554 S
C507 C508 1.383 . S
C507 H515 0.929 . S
C508 C507 1.383 . S
C508 C509 1.377 1_554 S
C509 H493 0.930 . S
C509 C508 1.377 1_556 S
C509 C510 1.379 . S
C510 H494 0.931 . S
C510 C504 1.383 . S
C510 C509 1.379 . S
H511 C505 0.959 . S
H512 C505 0.961 . S
H513 C505 0.960 . S
H514 C506 0.930 1_554 S
H515 C507 0.929 . S
H516 C524 0.929 . S
H517 C526 0.930 . S
H518 C528 0.930 . S
H519 C531 0.929 . S
H520 C534 0.930 . S
H521 C536 0.960 . S
H522 C536 0.960 . S
H523 C536 0.960 . S
C524 H516 0.929 . S
C524 C525 1.377 . S
C524 C526 1.384 . S
C525 C524 1.377 . S
C525 C531 1.390 . S
C526 H517 0.930 . S
C526 C524 1.384 . S
C526 C527 1.372 . S
C527 C526 1.372 . S
C527 C528 1.400 . S
C527 C532 1.490 . S
C528 H518 0.930 . S
C528 C527 1.400 . S
C528 C531 1.386 . S
H529 C545 0.930 . S
H530 C546 0.931 . S
C531 H519 0.929 . S
C531 C525 1.390 . S
C531 C528 1.386 . S
C532 C527 1.490 . S
C532 C534 1.395 . S
C532 C535 1.403 . S
H533 C539 0.930 . S
C534 H520 0.930 . S
C534 C532 1.395 . S
C534 C537 1.403 . S
C535 C532 1.403 . S
C535 C536 1.524 . S
C535 C539 1.400 . S
C536 H521 0.960 . S
C536 H522 0.960 . S
C536 H523 0.960 . S
C536 C535 1.524 . S
C537 C534 1.403 . S
C537 C538 1.392 . S
C537 C541 1.495 . S
C538 C537 1.392 . S
C538 C539 1.385 . S
C538 C540 1.478 . S
C539 H533 0.930 . S
C539 C535 1.400 . S
C539 C538 1.385 . S
C540 C538 1.478 . S
C540 C542 1.381 . S
C540 C546 1.383 . S
C541 C537 1.495 . S
C541 H547 0.959 . S
C541 H548 0.961 . S
C541 H549 0.960 . S
C542 C540 1.381 . S
C542 C543 1.394 . S
C542 H550 0.930 . S
C543 C542 1.394 . S
C543 C544 1.383 . S
C543 H551 0.929 . S
C544 C543 1.383 . S
C544 C545 1.377 . S
C545 H529 0.930 . S
C545 C544 1.377 . S
C545 C546 1.379 . S
C546 H530 0.931 . S
C546 C540 1.383 . S
C546 C545 1.379 . S
H547 C541 0.959 . S
H548 C541 0.961 . S
H549 C541 0.960 . S
H550 C542 0.930 . S
H551 C543 0.929 . S
H552 C560 0.929 . S
H553 C562 0.930 . S
H554 C564 0.930 . S
H555 C567 0.929 . S
H556 C570 0.930 . S
H557 C572 0.960 . S
H558 C572 0.960 . S
H559 C572 0.960 . S
C560 H552 0.929 . S
C560 C561 1.377 . S
C560 C562 1.384 . S
C561 C560 1.377 . S
C561 C567 1.390 . S
C562 H553 0.930 . S
C562 C560 1.384 . S
C562 C563 1.372 . S
C563 C562 1.372 . S
C563 C564 1.400 . S
C563 C568 1.490 . S
C564 H554 0.930 . S
C564 C563 1.400 . S
C564 C567 1.386 . S
H565 C581 0.930 . S
H566 C582 0.931 . S
C567 H555 0.929 . S
C567 C561 1.390 . S
C567 C564 1.386 . S
C568 C563 1.490 . S
C568 C570 1.395 . S
C568 C571 1.403 . S
H569 C575 0.930 . S
C570 H556 0.930 . S
C570 C568 1.395 . S
C570 C573 1.403 . S
C571 C568 1.403 . S
C571 C572 1.524 . S
C571 C575 1.400 . S
C572 H557 0.960 . S
C572 H558 0.960 . S
C572 H559 0.960 . S
C572 C571 1.524 . S
C573 C570 1.403 . S
C573 C574 1.392 . S
C573 C577 1.495 . S
C574 C573 1.392 . S
C574 C575 1.385 . S
C574 C576 1.478 . S
C575 H569 0.930 . S
C575 C571 1.400 . S
C575 C574 1.385 . S
C576 C574 1.478 . S
C576 C578 1.381 . S
C576 C582 1.383 . S
C577 C573 1.495 . S
C577 H583 0.959 . S
C577 H584 0.961 . S
C577 H585 0.960 . S
C578 C576 1.381 . S
C578 C579 1.394 . S
C578 H586 0.930 . S
C579 C578 1.394 . S
C579 C580 1.383 . S
C579 H587 0.929 . S
C580 C579 1.383 . S
C580 C581 1.377 . S
C581 H565 0.930 . S
C581 C580 1.377 . S
C581 C582 1.379 . S
C582 H566 0.931 . S
C582 C576 1.383 . S
C582 C581 1.379 . S
H583 C577 0.959 . S
H584 C577 0.961 . S
H585 C577 0.960 . S
H586 C578 0.930 . S
H587 C579 0.929 . S
H588 C596 0.929 . S
H589 C598 0.930 . S
H590 C600 0.930 . S
H591 C603 0.929 . S
H592 C606 0.930 . S
H593 C608 0.960 . S
H594 C608 0.960 . S
H595 C608 0.960 . S
C596 H588 0.929 . S
C596 C597 1.377 . S
C596 C598 1.384 . S
C597 C596 1.377 . S
C597 C603 1.390 . S
C598 H589 0.930 . S
C598 C596 1.384 . S
C598 C599 1.372 . S
C599 C598 1.372 . S
C599 C600 1.400 . S
C599 C604 1.490 . S
C600 H590 0.930 . S
C600 C599 1.400 . S
C600 C603 1.386 . S
H601 C617 0.930 . S
H602 C618 0.931 . S
C603 H591 0.929 . S
C603 C597 1.390 . S
C603 C600 1.386 . S
C604 C599 1.490 . S
C604 C606 1.395 . S
C604 C607 1.403 . S
H605 C611 0.930 . S
C606 H592 0.930 . S
C606 C604 1.395 . S
C606 C609 1.403 . S
C607 C604 1.403 . S
C607 C608 1.524 . S
C607 C611 1.400 . S
C608 H593 0.960 . S
C608 H594 0.960 . S
C608 H595 0.960 . S
C608 C607 1.524 . S
C609 C606 1.403 . S
C609 C610 1.392 . S
C609 C613 1.495 . S
C610 C609 1.392 . S
C610 C611 1.385 . S
C610 C612 1.478 . S
C611 H605 0.930 . S
C611 C607 1.400 . S
C611 C610 1.385 . S
C612 C610 1.478 . S
C612 C614 1.381 . S
C612 C618 1.383 . S
C613 C609 1.495 . S
C613 H619 0.959 . S
C613 H620 0.961 . S
C613 H621 0.960 . S
C614 C612 1.381 . S
C614 C615 1.394 . S
C614 H622 0.930 . S
C615 C614 1.394 . S
C615 C616 1.383 . S
C615 H623 0.915 1_556 S
C616 C615 1.383 . S
C616 C617 1.377 . S
C617 H601 0.930 . S
C617 C616 1.377 . S
C617 C618 1.379 . S
C618 H602 0.931 . S
C618 C612 1.383 . S
C618 C617 1.379 . S
H619 C613 0.959 . S
H620 C613 0.961 . S
H621 C613 0.960 . S
H622 C614 0.930 . S
H623 C615 0.915 1_554 S
H624 C632 0.929 . S
H625 C634 0.930 . S
H626 C636 0.930 . S
H627 C639 0.929 . S
H628 C642 0.930 . S
H629 C644 0.960 . S
H630 C644 0.960 . S
H631 C644 0.960 . S
C632 H624 0.929 . S
C632 C633 1.377 . S
C632 C634 1.384 . S
C633 C632 1.377 . S
C633 C639 1.390 . S
C634 H625 0.930 . S
C634 C632 1.384 . S
C634 C635 1.372 . S
C635 C634 1.372 . S
C635 C636 1.400 . S
C635 C640 1.490 . S
C636 H626 0.930 . S
C636 C635 1.400 . S
C636 C639 1.386 . S
H637 C653 0.930 . S
H638 C654 0.931 . S
C639 H627 0.929 . S
C639 C633 1.390 . S
C639 C636 1.386 . S
C640 C635 1.490 . S
C640 C642 1.395 . S
C640 C643 1.403 . S
H641 C647 0.930 . S
C642 H628 0.930 . S
C642 C640 1.395 . S
C642 C645 1.403 . S
C643 C640 1.403 . S
C643 C644 1.524 . S
C643 C647 1.400 . S
C644 H629 0.960 . S
C644 H630 0.960 . S
C644 H631 0.960 . S
C644 C643 1.524 . S
C645 C642 1.403 . S
C645 C646 1.392 . S
C645 C649 1.495 1_655 S
C646 C645 1.392 . S
C646 C647 1.385 . S
C646 C648 1.478 . S
C647 H641 0.930 . S
C647 C643 1.400 . S
C647 C646 1.385 . S
C648 C646 1.478 . S
C648 C650 1.381 . S
C648 C654 1.383 . S
C649 C645 1.495 1_455 S
C649 H655 0.959 . S
C649 H656 0.961 . S
C649 H657 0.960 . S
C650 C648 1.381 . S
C650 C651 1.394 . S
C650 H658 0.930 . S
C651 C650 1.394 . S
C651 C652 1.383 . S
C651 H659 0.929 1_655 S
C652 C651 1.383 . S
C652 C653 1.377 . S
C653 H637 0.930 . S
C653 C652 1.377 . S
C653 C654 1.379 . S
C654 H638 0.931 . S
C654 C648 1.383 . S
C654 C653 1.379 . S
H655 C649 0.959 . S
H656 C649 0.961 . S
H657 C649 0.960 . S
H658 C650 0.930 . S
H659 C651 0.929 1_455 S
H660 C668 0.929 . S
H661 C670 0.930 . S
H662 C672 0.930 . S
H663 C675 0.929 . S
H664 C678 0.930 . S
H665 C680 0.960 . S
H666 C680 0.960 . S
H667 C680 0.960 . S
C668 H660 0.929 . S
C668 C669 1.377 . S
C668 C670 1.384 . S
C669 C668 1.377 . S
C669 C675 1.390 . S
C670 H661 0.930 . S
C670 C668 1.384 . S
C670 C671 1.372 . S
C671 C670 1.372 . S
C671 C672 1.400 . S
C671 C676 1.490 . S
C672 H662 0.930 . S
C672 C671 1.400 . S
C672 C675 1.386 . S
H673 C689 0.930 . S
H674 C690 0.931 . S
C675 H663 0.929 . S
C675 C669 1.390 . S
C675 C672 1.386 . S
C676 C671 1.490 . S
C676 C678 1.395 . S
C676 C679 1.403 . S
H677 C683 0.930 . S
C678 H664 0.930 . S
C678 C676 1.395 . S
C678 C681 1.403 . S
C679 C676 1.403 . S
C679 C680 1.524 . S
C679 C683 1.400 . S
C680 H665 0.960 . S
C680 H666 0.960 . S
C680 H667 0.960 . S
C680 C679 1.524 . S
C681 C678 1.403 . S
C681 C682 1.392 . S
C681 C685 1.495 . S
C682 C681 1.392 . S
C682 C683 1.385 . S
C682 C684 1.478 . S
C683 H677 0.930 . S
C683 C679 1.400 . S
C683 C682 1.385 . S
C684 C682 1.478 . S
C684 C686 1.381 . S
C684 C690 1.383 . S
C685 C681 1.495 . S
C685 H691 0.959 . S
C685 H692 0.961 . S
C685 H693 0.960 . S
C686 C684 1.381 . S
C686 C687 1.394 . S
C686 H694 0.930 . S
C687 C686 1.394 . S
C687 C688 1.383 . S
C687 H695 0.929 . S
C688 C687 1.383 . S
C688 C689 1.377 . S
C689 H673 0.930 . S
C689 C688 1.377 . S
C689 C690 1.379 . S
C690 H674 0.931 . S
C690 C684 1.383 . S
C690 C689 1.379 . S
H691 C685 0.959 . S
H692 C685 0.961 . S
H693 C685 0.960 . S
H694 C686 0.930 . S
H695 C687 0.929 . S
H696 C704 0.929 . S
H697 C706 0.930 . S
H698 C708 0.930 . S
H699 C711 0.929 . S
H700 C714 0.930 . S
H701 C716 0.960 . S
H702 C716 0.960 . S
H703 C716 0.960 . S
C704 H696 0.929 . S
C704 C705 1.377 . S
C704 C706 1.384 . S
C705 C704 1.377 . S
C705 C711 1.390 . S
C706 H697 0.930 . S
C706 C704 1.384 . S
C706 C707 1.372 . S
C707 C706 1.372 . S
C707 C708 1.400 . S
C707 C712 1.490 . S
C708 H698 0.930 . S
C708 C707 1.400 . S
C708 C711 1.386 . S
H709 C725 0.930 . S
H710 C726 0.931 . S
C711 H699 0.929 . S
C711 C705 1.390 . S
C711 C708 1.386 . S
C712 C707 1.490 . S
C712 C714 1.395 . S
C712 C715 1.403 . S
H713 C719 0.930 . S
C714 H700 0.930 . S
C714 C712 1.395 . S
C714 C717 1.403 . S
C715 C712 1.403 . S
C715 C716 1.524 . S
C715 C719 1.400 . S
C716 H701 0.960 . S
C716 H702 0.960 . S
C716 H703 0.960 . S
C716 C715 1.524 . S
C717 C714 1.403 . S
C717 C718 1.392 . S
C717 C721 1.495 . S
C718 C717 1.392 . S
C718 C719 1.385 . S
C718 C720 1.478 . S
C719 H713 0.930 . S
C719 C715 1.400 . S
C719 C718 1.385 . S
C720 C718 1.478 . S
C720 C722 1.381 . S
C720 C726 1.383 . S
C721 C717 1.495 . S
C721 H727 0.959 . S
C721 H728 0.961 . S
C721 H729 0.960 . S
C722 C720 1.381 . S
C722 C723 1.394 . S
C722 H730 0.930 . S
C723 C722 1.394 . S
C723 C724 1.383 . S
C723 H731 0.929 . S
C724 C723 1.383 . S
C724 C725 1.377 . S
C725 H709 0.930 . S
C725 C724 1.377 . S
C725 C726 1.379 . S
C726 H710 0.931 . S
C726 C720 1.383 . S
C726 C725 1.379 . S
H727 C721 0.959 . S
H728 C721 0.961 . S
H729 C721 0.960 . S
H730 C722 0.930 . S
H731 C723 0.929 . S
H732 C740 0.929 . S
H733 C742 0.930 . S
H734 C744 0.930 . S
H735 C747 0.929 . S
H736 C750 0.930 . S
H737 C752 0.960 . S
H738 C752 0.960 . S
H739 C752 0.960 . S
C740 H732 0.929 . S
C740 C741 1.377 . S
C740 C742 1.384 . S
C741 C740 1.377 . S
C741 C747 1.390 . S
C742 H733 0.930 . S
C742 C740 1.384 . S
C742 C743 1.372 . S
C743 C742 1.372 . S
C743 C744 1.400 . S
C743 C748 1.490 . S
C744 H734 0.930 . S
C744 C743 1.400 . S
C744 C747 1.386 . S
H745 C761 0.930 . S
H746 C762 0.931 . S
C747 H735 0.929 . S
C747 C741 1.390 . S
C747 C744 1.386 . S
C748 C743 1.490 . S
C748 C750 1.395 . S
C748 C751 1.403 . S
H749 C755 0.930 . S
C750 H736 0.930 . S
C750 C748 1.395 . S
C750 C753 1.403 . S
C751 C748 1.403 . S
C751 C752 1.524 . S
C751 C755 1.400 . S
C752 H737 0.960 . S
C752 H738 0.960 . S
C752 H739 0.960 . S
C752 C751 1.524 . S
C753 C750 1.403 . S
C753 C754 1.392 . S
C753 C757 1.495 . S
C754 C753 1.392 . S
C754 C755 1.385 . S
C754 C756 1.478 . S
C755 H749 0.930 . S
C755 C751 1.400 . S
C755 C754 1.385 . S
C756 C754 1.478 . S
C756 C758 1.381 . S
C756 C762 1.383 . S
C757 C753 1.495 . S
C757 H763 0.959 . S
C757 H764 0.961 . S
C757 H765 0.960 . S
C758 C756 1.381 . S
C758 C759 1.394 . S
C758 H766 0.930 . S
C759 C758 1.394 . S
C759 C760 1.383 . S
C759 H767 0.929 . S
C760 C759 1.383 . S
C760 C761 1.377 . S
C761 H745 0.930 . S
C761 C760 1.377 . S
C761 C762 1.379 . S
C762 H746 0.931 . S
C762 C756 1.383 . S
C762 C761 1.379 . S
H763 C757 0.959 . S
H764 C757 0.961 . S
H765 C757 0.960 . S
H766 C758 0.930 . S
H767 C759 0.929 . S
H768 C776 0.929 . S
H769 C778 0.930 . S
H770 C780 0.930 . S
H771 C783 0.929 . S
H772 C786 0.930 . S
H773 C788 0.960 . S
H774 C788 0.960 . S
H775 C788 0.960 . S
C776 H768 0.929 . S
C776 C777 1.377 . S
C776 C778 1.384 . S
C777 C776 1.377 . S
C777 C783 1.390 . S
C778 H769 0.930 . S
C778 C776 1.384 . S
C778 C779 1.372 . S
C779 C778 1.372 . S
C779 C780 1.400 . S
C779 C784 1.490 . S
C780 H770 0.930 . S
C780 C779 1.400 . S
C780 C783 1.386 . S
H781 C797 0.930 . S
H782 C798 0.931 . S
C783 H771 0.929 . S
C783 C777 1.390 . S
C783 C780 1.386 . S
C784 C779 1.490 . S
C784 C786 1.395 . S
C784 C787 1.403 . S
H785 C791 0.930 . S
C786 H772 0.930 . S
C786 C784 1.395 . S
C786 C789 1.403 . S
C787 C784 1.403 . S
C787 C788 1.524 . S
C787 C791 1.400 . S
C788 H773 0.960 . S
C788 H774 0.960 . S
C788 H775 0.960 . S
C788 C787 1.524 . S
C789 C786 1.403 . S
C789 C790 1.392 . S
C789 C793 1.495 . S
C790 C789 1.392 . S
C790 C791 1.385 . S
C790 C792 1.478 . S
C791 H785 0.930 . S
C791 C787 1.400 . S
C791 C790 1.385 . S
C792 C790 1.478 . S
C792 C794 1.381 . S
C792 C798 1.383 . S
C793 C789 1.495 . S
C793 H799 0.959 . S
C793 H800 0.961 . S
C793 H801 0.960 . S
C794 C792 1.381 . S
C794 C795 1.394 . S
C794 H802 0.930 . S
C795 C794 1.394 . S
C795 C796 1.383 . S
C795 H803 0.929 . S
C796 C795 1.383 . S
C796 C797 1.377 . S
C797 H781 0.930 . S
C797 C796 1.377 . S
C797 C798 1.379 . S
C798 H782 0.931 . S
C798 C792 1.383 . S
C798 C797 1.379 . S
H799 C793 0.959 . S
H800 C793 0.961 . S
H801 C793 0.960 . S
H802 C794 0.930 . S
H803 C795 0.929 . S
H804 C812 0.929 . S
H805 C814 0.930 . S
H806 C816 0.930 . S
H807 C819 0.929 . S
H808 C822 0.930 . S
H809 C824 0.960 . S
H810 C824 0.960 . S
H811 C824 0.960 . S
C812 H804 0.929 . S
C812 C813 1.377 . S
C812 C814 1.384 . S
C813 C812 1.377 . S
C813 C819 1.390 . S
C814 H805 0.930 . S
C814 C812 1.384 . S
C814 C815 1.372 . S
C815 C814 1.372 . S
C815 C816 1.400 . S
C815 C820 1.490 . S
C816 H806 0.930 . S
C816 C815 1.400 . S
C816 C819 1.386 . S
H817 C833 0.930 . S
H818 C834 0.931 . S
C819 H807 0.929 . S
C819 C813 1.390 . S
C819 C816 1.386 . S
C820 C815 1.490 . S
C820 C822 1.395 . S
C820 C823 1.403 . S
H821 C827 0.930 . S
C822 H808 0.930 . S
C822 C820 1.395 . S
C822 C825 1.403 . S
C823 C820 1.403 . S
C823 C824 1.524 . S
C823 C827 1.400 . S
C824 H809 0.960 . S
C824 H810 0.960 . S
C824 H811 0.960 . S
C824 C823 1.524 . S
C825 C822 1.403 . S
C825 C826 1.392 . S
C825 C829 1.495 . S
C826 C825 1.392 . S
C826 C827 1.385 . S
C826 C828 1.478 . S
C827 H821 0.930 . S
C827 C823 1.400 . S
C827 C826 1.385 . S
C828 C826 1.478 . S
C828 C830 1.381 . S
C828 C834 1.383 . S
C829 C825 1.495 . S
C829 H835 0.959 . S
C829 H836 0.961 . S
C829 H837 0.960 . S
C830 C828 1.381 . S
C830 C831 1.394 . S
C830 H838 0.930 . S
C831 C830 1.394 . S
C831 C832 1.383 . S
C831 H839 0.929 . S
C832 C831 1.383 . S
C832 C833 1.377 . S
C833 H817 0.930 . S
C833 C832 1.377 . S
C833 C834 1.379 . S
C834 H818 0.931 . S
C834 C828 1.383 . S
C834 C833 1.379 . S
H835 C829 0.959 . S
H836 C829 0.961 . S
H837 C829 0.960 . S
H838 C830 0.930 . S
H839 C831 0.929 . S
H840 C848 0.929 . S
H841 C850 0.930 . S
H842 C852 0.930 . S
H843 C855 0.929 . S
H844 C858 0.930 . S
H845 C860 0.960 . S
H846 C860 0.960 . S
H847 C860 0.960 . S
C848 H840 0.929 . S
C848 C849 1.377 . S
C848 C850 1.384 . S
C849 C848 1.377 . S
C849 C855 1.390 . S
C850 H841 0.930 . S
C850 C848 1.384 . S
C850 C851 1.372 . S
C851 C850 1.372 . S
C851 C852 1.400 . S
C851 C856 1.490 . S
C852 H842 0.930 . S
C852 C851 1.400 . S
C852 C855 1.386 . S
H853 C869 0.930 . S
H854 C870 0.931 . S
C855 H843 0.929 . S
C855 C849 1.390 . S
C855 C852 1.386 . S
C856 C851 1.490 . S
C856 C858 1.395 . S
C856 C859 1.403 . S
H857 C863 0.930 . S
C858 H844 0.930 . S
C858 C856 1.395 . S
C858 C861 1.403 . S
C859 C856 1.403 . S
C859 C860 1.524 . S
C859 C863 1.400 . S
C860 H845 0.960 . S
C860 H846 0.960 . S
C860 H847 0.960 . S
C860 C859 1.524 . S
C861 C858 1.403 . S
C861 C862 1.392 . S
C861 C865 1.495 . S
C862 C861 1.392 . S
C862 C863 1.385 . S
C862 C864 1.478 . S
C863 H857 0.930 . S
C863 C859 1.400 . S
C863 C862 1.385 . S
C864 C862 1.478 . S
C864 C866 1.381 . S
C864 C870 1.383 . S
C865 C861 1.495 . S
C865 H871 0.959 . S
C865 H872 0.961 . S
C865 H873 0.960 . S
C866 C864 1.381 . S
C866 C867 1.394 . S
C866 H874 0.930 . S
C867 C866 1.394 . S
C867 C868 1.383 . S
C867 H875 0.929 . S
C868 C867 1.383 . S
C868 C869 1.377 . S
C869 H853 0.930 . S
C869 C868 1.377 . S
C869 C870 1.379 . S
C870 H854 0.931 . S
C870 C864 1.383 . S
C870 C869 1.379 . S
H871 C865 0.959 . S
H872 C865 0.961 . S
H873 C865 0.960 . S
H874 C866 0.930 . S
H875 C867 0.929 . S
H876 C884 0.929 . S
H877 C886 0.930 . S
H878 C888 0.930 . S
H879 C891 0.929 . S
H880 C894 0.930 . S
H881 C896 0.960 . S
H882 C896 0.960 . S
H883 C896 0.960 . S
C884 H876 0.929 . S
C884 C885 1.377 . S
C884 C886 1.384 . S
C885 C884 1.377 . S
C885 C891 1.390 . S
C886 H877 0.930 . S
C886 C884 1.384 . S
C886 C887 1.372 . S
C887 C886 1.372 . S
C887 C888 1.400 . S
C887 C892 1.490 . S
C888 H878 0.930 . S
C888 C887 1.400 . S
C888 C891 1.386 . S
H889 C905 0.930 . S
H890 C906 0.931 . S
C891 H879 0.929 . S
C891 C885 1.390 . S
C891 C888 1.386 . S
C892 C887 1.490 . S
C892 C894 1.395 . S
C892 C895 1.403 . S
H893 C899 0.930 . S
C894 H880 0.930 . S
C894 C892 1.395 . S
C894 C897 1.403 . S
C895 C892 1.403 . S
C895 C896 1.524 . S
C895 C899 1.400 . S
C896 H881 0.960 . S
C896 H882 0.960 . S
C896 H883 0.960 . S
C896 C895 1.524 . S
C897 C894 1.403 . S
C897 C898 1.392 . S
C897 C901 1.495 . S
C898 C897 1.392 . S
C898 C899 1.385 . S
C898 C900 1.478 . S
C899 H893 0.930 . S
C899 C895 1.400 . S
C899 C898 1.385 . S
C900 C898 1.478 . S
C900 C902 1.381 . S
C900 C906 1.383 . S
C901 C897 1.495 . S
C901 H907 0.959 . S
C901 H908 0.961 . S
C901 H909 0.960 . S
C902 C900 1.381 . S
C902 C903 1.394 . S
C902 H910 0.930 . S
C903 C902 1.394 . S
C903 C904 1.383 . S
C903 H911 0.929 . S
C904 C903 1.383 . S
C904 C905 1.377 . S
C905 H889 0.930 . S
C905 C904 1.377 . S
C905 C906 1.379 . S
C906 H890 0.931 . S
C906 C900 1.383 . S
C906 C905 1.379 . S
H907 C901 0.959 . S
H908 C901 0.961 . S
H909 C901 0.960 . S
H910 C902 0.930 . S
H911 C903 0.929 . S
H912 C920 0.929 . S
H913 C922 0.930 . S
H914 C924 0.930 . S
H915 C927 0.929 . S
H916 C930 0.930 . S
H917 C932 0.960 . S
H918 C932 0.960 . S
H919 C932 0.960 . S
C920 H912 0.929 . S
C920 C921 1.377 . S
C920 C922 1.384 . S
C921 C920 1.377 . S
C921 C927 1.390 . S
C922 H913 0.930 . S
C922 C920 1.384 . S
C922 C923 1.372 . S
C923 C922 1.372 . S
C923 C924 1.400 . S
C923 C928 1.490 . S
C924 H914 0.930 . S
C924 C923 1.400 . S
C924 C927 1.386 . S
H925 C941 0.930 . S
H926 C942 0.931 . S
C927 H915 0.929 . S
C927 C921 1.390 . S
C927 C924 1.386 . S
C928 C923 1.490 . S
C928 C930 1.395 . S
C928 C931 1.403 . S
H929 C935 0.930 . S
C930 H916 0.930 . S
C930 C928 1.395 . S
C930 C933 1.403 . S
C931 C928 1.403 . S
C931 C932 1.524 . S
C931 C935 1.400 . S
C932 H917 0.960 . S
C932 H918 0.960 . S
C932 H919 0.960 . S
C932 C931 1.524 . S
C933 C930 1.403 . S
C933 C934 1.392 . S
C933 C937 1.495 . S
C934 C933 1.392 . S
C934 C935 1.385 . S
C934 C936 1.478 . S
C935 H929 0.930 . S
C935 C931 1.400 . S
C935 C934 1.385 . S
C936 C934 1.478 . S
C936 C938 1.381 . S
C936 C942 1.383 . S
C937 C933 1.495 . S
C937 H943 0.959 . S
C937 H944 0.961 . S
C937 H945 0.960 . S
C938 C936 1.381 . S
C938 C939 1.394 . S
C938 H946 0.930 . S
C939 C938 1.394 . S
C939 C940 1.383 . S
C939 H947 0.929 . S
C940 C939 1.383 . S
C940 C941 1.377 . S
C941 H925 0.930 . S
C941 C940 1.377 . S
C941 C942 1.379 . S
C942 H926 0.931 . S
C942 C936 1.383 . S
C942 C941 1.379 . S
H943 C937 0.959 . S
H944 C937 0.961 . S
H945 C937 0.960 . S
H946 C938 0.930 . S
H947 C939 0.929 . S
H948 C956 0.929 . S
H949 C958 0.930 . S
H950 C960 0.930 . S
H951 C963 0.929 . S
H952 C966 0.930 . S
H953 C968 0.960 . S
H954 C968 0.960 . S
H955 C968 0.960 . S
C956 H948 0.929 . S
C956 C957 1.377 . S
C956 C958 1.384 . S
C957 C956 1.377 . S
C957 C963 1.390 . S
C958 H949 0.930 . S
C958 C956 1.384 . S
C958 C959 1.372 . S
C959 C958 1.372 . S
C959 C960 1.400 . S
C959 C964 1.490 . S
C960 H950 0.930 . S
C960 C959 1.400 . S
C960 C963 1.386 . S
H961 C977 0.930 . S
H962 C978 0.931 . S
C963 H951 0.929 . S
C963 C957 1.390 . S
C963 C960 1.386 . S
C964 C959 1.490 . S
C964 C966 1.395 . S
C964 C967 1.403 . S
H965 C971 0.930 . S
C966 H952 0.930 . S
C966 C964 1.395 . S
C966 C969 1.403 . S
C967 C964 1.403 . S
C967 C968 1.524 . S
C967 C971 1.400 . S
C968 H953 0.960 . S
C968 H954 0.960 . S
C968 H955 0.960 . S
C968 C967 1.524 . S
C969 C966 1.403 . S
C969 C970 1.392 . S
C969 C973 1.495 . S
C970 C969 1.392 . S
C970 C971 1.385 . S
C970 C972 1.478 . S
C971 H965 0.930 . S
C971 C967 1.400 . S
C971 C970 1.385 . S
C972 C970 1.478 . S
C972 C974 1.381 . S
C972 C978 1.383 . S
C973 C969 1.495 . S
C973 H979 0.959 . S
C973 H980 0.961 . S
C973 H981 0.960 . S
C974 C972 1.381 . S
C974 C975 1.394 . S
C974 H982 0.930 . S
C975 C974 1.394 . S
C975 C976 1.383 . S
C975 H983 0.929 . S
C976 C975 1.383 . S
C976 C977 1.377 . S
C977 H961 0.930 . S
C977 C976 1.377 . S
C977 C978 1.379 . S
C978 H962 0.931 . S
C978 C972 1.383 . S
C978 C977 1.379 . S
H979 C973 0.959 . S
H980 C973 0.961 . S
H981 C973 0.960 . S
H982 C974 0.930 . S
H983 C975 0.929 . S
H984 C992 0.929 . S
H985 C994 0.930 . S
H986 C996 0.930 . S
H987 C999 0.929 . S
H988 C1002 0.930 . S
H989 C1004 0.960 . S
H990 C1004 0.960 . S
H991 C1004 0.960 . S
C992 H984 0.929 . S
C992 C993 1.377 . S
C992 C994 1.384 . S
C993 C992 1.377 . S
C993 C999 1.390 . S
C994 H985 0.930 . S
C994 C992 1.384 . S
C994 C995 1.372 . S
C995 C994 1.372 . S
C995 C996 1.400 . S
C995 C1000 1.490 . S
C996 H986 0.930 . S
C996 C995 1.400 . S
C996 C999 1.386 . S
H997 C1013 0.930 . S
H998 C1014 0.931 . S
C999 H987 0.929 . S
C999 C993 1.390 . S
C999 C996 1.386 . S
C1000 C995 1.490 . S
C1000 C1002 1.395 . S
C1000 C1003 1.403 . S
H1001 C1007 0.930 . S
C1002 H988 0.930 . S
C1002 C1000 1.395 . S
C1002 C1005 1.403 . S
C1003 C1000 1.403 . S
C1003 C1004 1.524 . S
C1003 C1007 1.400 . S
C1004 H989 0.960 . S
C1004 H990 0.960 . S
C1004 H991 0.960 . S
C1004 C1003 1.524 . S
C1005 C1002 1.403 . S
C1005 C1006 1.392 . S
C1005 C1009 1.495 . S
C1006 C1005 1.392 . S
C1006 C1007 1.385 . S
C1006 C1008 1.478 . S
C1007 H1001 0.930 . S
C1007 C1003 1.400 . S
C1007 C1006 1.385 . S
C1008 C1006 1.478 . S
C1008 C1010 1.381 . S
C1008 C1014 1.383 . S
C1009 C1005 1.495 . S
C1009 H1015 0.959 . S
C1009 H1016 0.961 . S
C1009 H1017 0.960 . S
C1010 C1008 1.381 . S
C1010 C1011 1.394 . S
C1010 H1018 0.930 . S
C1011 C1010 1.394 . S
C1011 C1012 1.383 . S
C1011 H1019 0.929 . S
C1012 C1011 1.383 . S
C1012 C1013 1.377 . S
C1013 H997 0.930 . S
C1013 C1012 1.377 . S
C1013 C1014 1.379 . S
C1014 H998 0.931 . S
C1014 C1008 1.383 . S
C1014 C1013 1.379 . S
H1015 C1009 0.959 . S
H1016 C1009 0.961 . S
H1017 C1009 0.960 . S
H1018 C1010 0.930 . S
H1019 C1011 0.929 . S
H1020 C1028 0.929 . S
H1021 C1030 0.930 . S
H1022 C1032 0.930 . S
H1023 C1035 0.929 . S
H1024 C1038 0.930 . S
H1025 C1040 0.960 . S
H1026 C1040 0.960 . S
H1027 C1040 0.960 . S
C1028 H1020 0.929 . S
C1028 C1029 1.377 . S
C1028 C1030 1.384 . S
C1029 C1028 1.377 . S
C1029 C1035 1.390 . S
C1030 H1021 0.930 . S
C1030 C1028 1.384 . S
C1030 C1031 1.372 . S
C1031 C1030 1.372 . S
C1031 C1032 1.400 . S
C1031 C1036 1.490 . S
C1032 H1022 0.930 . S
C1032 C1031 1.400 . S
C1032 C1035 1.386 . S
H1033 C1049 0.930 . S
H1034 C1050 0.931 . S
C1035 H1023 0.929 . S
C1035 C1029 1.390 . S
C1035 C1032 1.386 . S
C1036 C1031 1.490 . S
C1036 C1038 1.395 . S
C1036 C1039 1.403 . S
H1037 C1043 0.930 . S
C1038 H1024 0.930 . S
C1038 C1036 1.395 . S
C1038 C1041 1.403 . S
C1039 C1036 1.403 . S
C1039 C1040 1.524 . S
C1039 C1043 1.400 . S
C1040 H1025 0.960 . S
C1040 H1026 0.960 . S
C1040 H1027 0.960 . S
C1040 C1039 1.524 . S
C1041 C1038 1.403 . S
C1041 C1042 1.392 . S
C1041 C1045 1.495 . S
C1042 C1041 1.392 . S
C1042 C1043 1.385 . S
C1042 C1044 1.478 . S
C1043 H1037 0.930 . S
C1043 C1039 1.400 . S
C1043 C1042 1.385 . S
C1044 C1042 1.478 . S
C1044 C1046 1.381 . S
C1044 C1050 1.383 . S
C1045 C1041 1.495 . S
C1045 H1051 0.959 . S
C1045 H1052 0.961 . S
C1045 H1053 0.960 . S
C1046 C1044 1.381 . S
C1046 C1047 1.394 . S
C1046 H1054 0.930 . S
C1047 C1046 1.394 . S
C1047 C1048 1.383 . S
C1047 H1055 0.929 . S
C1048 C1047 1.383 . S
C1048 C1049 1.377 . S
C1049 H1033 0.930 . S
C1049 C1048 1.377 . S
C1049 C1050 1.379 . S
C1050 H1034 0.931 . S
C1050 C1044 1.383 . S
C1050 C1049 1.379 . S
H1051 C1045 0.959 . S
H1052 C1045 0.961 . S
H1053 C1045 0.960 . S
H1054 C1046 0.930 . S
H1055 C1047 0.929 . S
H1056 C1064 0.929 . S
H1057 C1066 0.930 . S
H1058 C1068 0.930 . S
H1059 C1071 0.929 . S
H1060 C1074 0.930 . S
H1061 C1076 0.960 . S
H1062 C1076 0.960 . S
H1063 C1076 0.960 . S
C1064 H1056 0.929 . S
C1064 C1065 1.377 . S
C1064 C1066 1.384 . S
C1065 C1064 1.377 . S
C1065 C1071 1.390 . S
C1066 H1057 0.930 . S
C1066 C1064 1.384 . S
C1066 C1067 1.372 . S
C1067 C1066 1.372 . S
C1067 C1068 1.400 . S
C1067 C1072 1.490 . S
C1068 H1058 0.930 . S
C1068 C1067 1.400 . S
C1068 C1071 1.386 . S
H1069 C1085 0.930 . S
H1070 C1086 0.931 . S
C1071 H1059 0.929 . S
C1071 C1065 1.390 . S
C1071 C1068 1.386 . S
C1072 C1067 1.490 . S
C1072 C1074 1.395 . S
C1072 C1075 1.403 . S
H1073 C1079 0.930 . S
C1074 H1060 0.930 . S
C1074 C1072 1.395 . S
C1074 C1077 1.403 . S
C1075 C1072 1.403 . S
C1075 C1076 1.524 . S
C1075 C1079 1.400 . S
C1076 H1061 0.960 . S
C1076 H1062 0.960 . S
C1076 H1063 0.960 . S
C1076 C1075 1.524 . S
C1077 C1074 1.403 . S
C1077 C1078 1.392 . S
C1077 C1081 1.495 . S
C1078 C1077 1.392 . S
C1078 C1079 1.385 . S
C1078 C1080 1.478 . S
C1079 H1073 0.930 . S
C1079 C1075 1.400 . S
C1079 C1078 1.385 . S
C1080 C1078 1.478 . S
C1080 C1082 1.381 . S
C1080 C1086 1.383 . S
C1081 C1077 1.495 . S
C1081 H1087 0.959 . S
C1081 H1088 0.961 . S
C1081 H1089 0.960 . S
C1082 C1080 1.381 . S
C1082 C1083 1.394 . S
C1082 H1090 0.930 . S
C1083 C1082 1.394 . S
C1083 C1084 1.383 . S
C1083 H1091 0.929 . S
C1084 C1083 1.383 . S
C1084 C1085 1.377 . S
C1085 H1069 0.930 . S
C1085 C1084 1.377 . S
C1085 C1086 1.379 . S
C1086 H1070 0.931 . S
C1086 C1080 1.383 . S
C1086 C1085 1.379 . S
H1087 C1081 0.959 . S
H1088 C1081 0.961 . S
H1089 C1081 0.960 . S
H1090 C1082 0.930 . S
H1091 C1083 0.929 . S
H1092 C1100 0.929 . S
H1093 C1102 0.930 . S
H1094 C1104 0.930 . S
H1095 C1107 0.929 . S
H1096 C1110 0.930 . S
H1097 C1112 0.960 . S
H1098 C1112 0.960 . S
H1099 C1112 0.960 . S
C1100 H1092 0.929 . S
C1100 C1101 1.377 . S
C1100 C1102 1.384 . S
C1101 C1100 1.377 . S
C1101 C1107 1.390 . S
C1102 H1093 0.930 . S
C1102 C1100 1.384 . S
C1102 C1103 1.372 . S
C1103 C1102 1.372 . S
C1103 C1104 1.400 . S
C1103 C1108 1.490 . S
C1104 H1094 0.930 . S
C1104 C1103 1.400 . S
C1104 C1107 1.386 . S
H1105 C1121 0.930 . S
H1106 C1122 0.931 . S
C1107 H1095 0.929 . S
C1107 C1101 1.390 . S
C1107 C1104 1.386 . S
C1108 C1103 1.490 . S
C1108 C1110 1.395 . S
C1108 C1111 1.403 . S
H1109 C1115 0.930 . S
C1110 H1096 0.930 . S
C1110 C1108 1.395 . S
C1110 C1113 1.403 . S
C1111 C1108 1.403 . S
C1111 C1112 1.524 . S
C1111 C1115 1.400 . S
C1112 H1097 0.960 . S
C1112 H1098 0.960 . S
C1112 H1099 0.960 . S
C1112 C1111 1.524 . S
C1113 C1110 1.403 . S
C1113 C1114 1.392 . S
C1113 C1117 1.495 . S
C1114 C1113 1.392 . S
C1114 C1115 1.385 . S
C1114 C1116 1.478 . S
C1115 H1109 0.930 . S
C1115 C1111 1.400 . S
C1115 C1114 1.385 . S
C1116 C1114 1.478 . S
C1116 C1118 1.381 . S
C1116 C1122 1.383 . S
C1117 C1113 1.495 . S
C1117 H1123 0.959 . S
C1117 H1124 0.961 . S
C1117 H1125 0.960 . S
C1118 C1116 1.381 . S
C1118 C1119 1.394 . S
C1118 H1126 0.930 . S
C1119 C1118 1.394 . S
C1119 C1120 1.383 . S
C1119 H1127 0.929 . S
C1120 C1119 1.383 . S
C1120 C1121 1.377 . S
C1121 H1105 0.930 . S
C1121 C1120 1.377 . S
C1121 C1122 1.379 . S
C1122 H1106 0.931 . S
C1122 C1116 1.383 . S
C1122 C1121 1.379 . S
H1123 C1117 0.959 . S
H1124 C1117 0.961 . S
H1125 C1117 0.960 . S
H1126 C1118 0.930 . S
H1127 C1119 0.929 . S
C273 C9 1.495 . S
C292 C110 1.527 . S
C309 C21 1.027 . S
C328 C159 1.005 . S
C364 C194 2.107 . S
C345 C30 2.104 . S
C381 C43 2.082 . S
C400 C233 2.157 1_655 S
C436 C154 2.134 . S
C417 C4 1.914 . S
C472 C113 1.669 . S
C453 C22 1.739 . S
C508 C243 1.445 . S
C489 C34 1.490 . S
C544 C202 1.380 . S
C525 C48 1.404 . S
C561 C8 1.609 . S
C580 C230 1.650 . S
C616 C162 2.232 . S
C597 C35 2.319 . S
C633 C47 2.581 . S
C652 C123 2.565 . S
C669 C17 0.650 . S
C688 C199 0.675 . S
C724 C119 1.030 . S
C705 C60 1.026 . S
C741 C74 1.106 . S
C760 C150 1.080 . S
C777 C82 1.830 . S
C796 C203 1.880 . S
C813 C100 2.711 . S
C832 C242 2.651 . S
C849 C61 2.591 . S
C868 C163 2.663 . S
C904 C122 0.841 . S
C885 C73 0.894 . S
C940 C234 2.134 . S
C921 C87 2.182 . S
C976 C193 1.122 . S
C957 C95 1.118 . S
C993 C56 1.561 . S
C1012 C239 1.560 . S
C1048 C153 2.445 . S
C1029 C86 2.534 . S
C1084 C114 2.285 . S
C1065 C99 2.303 . S
C1101 C69 0.635 . S
C1120 C190 0.574 . S
