# Generated by pormake.
# Topology anh, (6,3)-cn, num edge types: 1
# Building blocks:
#     Node 0, Type 0, BuildingBlock: BETFEN_clean_sbu_0, # of connection points: 6
#     Node 1, Type 0, BuildingBlock: BETFEN_clean_sbu_0, # of connection points: 6
#     Node 2, Type 0, BuildingBlock: BETFEN_clean_sbu_0, # of connection points: 6
#     Node 3, Type 1, BuildingBlock: PAMTOO_clean_linker_0, # of connection points: 3
#     Node 4, Type 1, BuildingBlock: PAMTOO_clean_linker_0, # of connection points: 3
#     Node 5, Type 1, BuildingBlock: PAMTOO_clean_linker_0, # of connection points: 3
#     Node 6, Type 1, BuildingBlock: PAMTOO_clean_linker_0, # of connection points: 3
#     Node 7, Type 1, BuildingBlock: PAMTOO_clean_linker_0, # of connection points: 3
#     Node 8, Type 1, BuildingBlock: PAMTOO_clean_linker_0, # of connection points: 3
#     Edge 9, Type (0, 1), BuildingBlock: TEMPAE_clean_linker_10, # of connection points: 2
#     Edge 10, Type (0, 1), BuildingBlock: TEMPAE_clean_linker_10, # of connection points: 2
#     Edge 11, Type (0, 1), BuildingBlock: TEMPAE_clean_linker_10, # of connection points: 2
#     Edge 12, Type (0, 1), BuildingBlock: TEMPAE_clean_linker_10, # of connection points: 2
#     Edge 13, Type (0, 1), BuildingBlock: TEMPAE_clean_linker_10, # of connection points: 2
#     Edge 14, Type (0, 1), BuildingBlock: TEMPAE_clean_linker_10, # of connection points: 2
#     Edge 15, Type (0, 1), BuildingBlock: TEMPAE_clean_linker_10, # of connection points: 2
#     Edge 16, Type (0, 1), BuildingBlock: TEMPAE_clean_linker_10, # of connection points: 2
#     Edge 17, Type (0, 1), BuildingBlock: TEMPAE_clean_linker_10, # of connection points: 2
#     Edge 18, Type (0, 1), BuildingBlock: TEMPAE_clean_linker_10, # of connection points: 2
#     Edge 19, Type (0, 1), BuildingBlock: TEMPAE_clean_linker_10, # of connection points: 2
#     Edge 20, Type (0, 1), BuildingBlock: TEMPAE_clean_linker_10, # of connection points: 2
#     Edge 21, Type (0, 1), BuildingBlock: TEMPAE_clean_linker_10, # of connection points: 2
#     Edge 22, Type (0, 1), BuildingBlock: TEMPAE_clean_linker_10, # of connection points: 2
#     Edge 23, Type (0, 1), BuildingBlock: TEMPAE_clean_linker_10, # of connection points: 2
#     Edge 24, Type (0, 1), BuildingBlock: TEMPAE_clean_linker_10, # of connection points: 2
#     Edge 25, Type (0, 1), BuildingBlock: TEMPAE_clean_linker_10, # of connection points: 2
#     Edge 26, Type (0, 1), BuildingBlock: TEMPAE_clean_linker_10, # of connection points: 2
# Relax obj value: 0.158
# Max RMSD: 0.180
# Mean RMSD: 0.117
data_MOF--net-anh--node1-BETFEN_clean_sbu_0--node2-PAMTOO_clean_linker_0--edge1-TEMPAE_clean_linker_10
_symmetry_space_group_name_H-M    P1
_symmetry_Int_Tables_number       1
_symmetry_cell_setting            triclinic
loop_
_symmetry_equiv_pos_as_xyz
'x, y, z'
_cell_length_a     30.03687
_cell_length_b     31.181594
_cell_length_c     49.929591
_cell_angle_alpha  86.17185
_cell_angle_beta   93.842743
_cell_angle_gamma 102.98302
loop_
_atom_site_label
_atom_site_type_symbol
_atom_site_fract_x
_atom_site_fract_y
_atom_site_fract_z
_atom_type_partial_charge
Pr0 Pr 0.11675 0.55067 0.15146 0.0
Pr1 Pr 0.13332 0.64612 0.134 0.0
C2 C 0.08703 0.4708 0.17616 0.0
C3 C 0.04335 0.43841 0.17956 0.0
C4 C 1.01544 0.42109 0.15735 0.0
C5 C 0.97414 0.39058 0.16116 0.0
C6 C 0.95975 0.37698 0.18724 0.0
C7 C 0.98769 0.39472 0.20938 0.0
C8 C 1.02908 0.42494 0.20556 0.0
C9 C 0.11978 0.56583 0.09578 0.0
C10 C 1.02711 0.59731 0.13752 0.0
C11 C 0.16259 0.72906 0.11347 0.0
C12 C 0.20346 0.76494 0.11763 0.0
C13 C 0.198 0.80643 0.12415 0.0
C14 C 0.23615 0.83997 0.13014 0.0
C15 C 0.28069 0.83277 0.12962 0.0
C16 C 0.2861 0.79137 0.12255 0.0
C17 C 0.24788 0.75778 0.11664 0.0
C18 C 0.12904 0.62925 0.18934 0.0
C19 C 0.22316 0.59827 0.14483 0.0
O20 O 0.09192 0.50767 0.18822 0.0
O21 O 0.10372 0.4763 0.15232 0.0
O22 O 0.09952 0.58521 0.11086 0.0
O23 O 0.13828 0.53658 0.10923 0.0
O24 O 0.05476 0.62864 0.12377 0.0
O25 O 0.04356 0.56722 0.1525 0.0
O26 O 0.16791 0.6943 0.10178 0.0
O27 O 0.13564 0.71924 0.13352 0.0
O28 O 0.15105 0.61162 0.17434 0.0
O29 O 0.10829 0.65679 0.176 0.0
O30 O 0.19619 0.56495 0.15747 0.0
O31 O 0.20648 0.63037 0.13222 0.0
H32 H 1.02546 0.43099 0.13703 0.0
H33 H 0.95378 0.37726 0.14367 0.0
H34 H 0.97736 0.38565 0.22972 0.0
H35 H 0.04991 0.43804 0.22298 0.0
H36 H 0.16409 0.81263 0.12518 0.0
H37 H 0.23066 0.87119 0.13586 0.0
H38 H 0.31988 0.78486 0.12159 0.0
H39 H 0.25314 0.72612 0.11163 0.0
Pr40 Pr 0.63819 0.11059 0.50457 0.0
Pr41 Pr 0.54037 0.08968 0.51718 0.0
C42 C 0.71887 0.14302 0.48217 0.0
C43 C 0.75329 0.18477 0.47918 0.0
C44 C 0.77147 0.20977 0.50138 0.0
C45 C 0.80458 0.24894 0.49791 0.0
C46 C 0.81972 0.26397 0.47219 0.0
C47 C 0.80108 0.23907 0.45004 0.0
C48 C 0.7683 0.19982 0.45353 0.0
C49 C 0.62583 0.09952 0.5595 0.0
C50 C 0.58723 0.19603 0.51336 0.0
C51 C 0.45633 1.05442 0.53449 0.0
C52 C 0.4237 1.01166 0.53134 0.0
C53 C 0.37899 1.01089 0.52098 0.0
C54 C 0.34885 0.97091 0.51546 0.0
C55 C 0.36276 0.93074 0.52029 0.0
C56 C 0.4073 0.93156 0.53129 0.0
C57 C 0.43747 0.97159 0.5367 0.0
C58 C 0.55528 0.09922 0.46245 0.0
C59 C 0.59221 1.00418 0.51149 0.0
O60 O 0.67935 0.14141 0.46906 0.0
O61 O 0.71538 0.12299 0.50607 0.0
O62 O 0.60374 0.1206 0.54309 0.0
O63 O 0.65653 0.08494 0.54789 0.0
O64 O 0.55294 0.16621 0.52345 0.0
O65 O 0.62126 0.18284 0.50296 0.0
O66 O 0.4939 1.05428 0.54938 0.0
O67 O 0.46328 0.07995 0.51263 0.0
O68 O 0.57503 0.0775 0.47961 0.0
O69 O 0.52661 0.11753 0.47321 0.0
O70 O 0.62587 1.03337 0.50034 0.0
O71 O 0.55853 1.01808 0.52169 0.0
H72 H 0.7602 0.1991 0.52138 0.0
H73 H 0.81806 0.26767 0.5153 0.0
H74 H 0.81245 0.24954 0.43003 0.0
H75 H 0.75475 0.18104 0.43615 0.0
H76 H 0.36772 1.04138 0.5165 0.0
H77 H 0.31508 0.97164 0.50665 0.0
H78 H 0.41897 0.90127 0.53562 0.0
H79 H 0.47178 0.97114 0.54467 0.0
Pr80 Pr 0.53921 0.52064 0.81552 0.0
Pr81 Pr 0.56495 0.62235 0.83494 0.0
C82 C 0.51694 0.44374 0.79157 0.0
C83 C 0.5384 0.40568 0.79357 0.0
C84 C 0.56469 0.39766 0.81688 0.0
C85 C 0.58936 0.36466 0.81794 0.0
C86 C 0.5887 0.33935 0.79559 0.0
C87 C 0.56137 0.34669 0.77248 0.0
C88 C 0.53647 0.37977 0.77146 0.0
C89 C 0.55342 0.5316 0.87037 0.0
C90 C 0.64895 0.5697 0.8272 0.0
C91 C 0.58161 0.69179 0.866 0.0
C92 C 0.55598 0.71519 0.88168 0.0
C93 C 0.58011 0.75105 0.89586 0.0
C94 C 0.55778 0.78295 0.90299 0.0
C95 C 0.51099 0.77962 0.89565 0.0
C96 C 0.48571 0.74007 0.88517 0.0
C97 C 0.50819 0.70811 0.87803 0.0
C98 C 0.56902 0.61979 0.77897 0.0
C99 C 0.45555 0.57618 0.82004 0.0
O100 O 0.54136 0.47965 0.78016 0.0
O101 O 0.4977 0.45088 0.81319 0.0
O102 O 0.53318 0.55426 0.85396 0.0
O103 O 0.56474 0.4997 0.85882 0.0
O104 O 0.6363 0.60267 0.83784 0.0
O105 O 0.61958 0.5369 0.81568 0.0
O106 O 0.58638 0.65267 0.87524 0.0
O107 O 0.57298 0.69467 0.83996 0.0
O108 O 0.55879 0.58835 0.79599 0.0
O109 O 0.57859 0.65657 0.79118 0.0
O110 O 0.46832 0.54227 0.81043 0.0
O111 O 0.48497 0.60871 0.8317 0.0
H112 H 0.56705 0.41763 0.83408 0.0
H113 H 0.60948 0.35935 0.83619 0.0
H114 H 0.56049 0.32795 0.75488 0.0
H115 H 0.51679 0.38594 0.7532 0.0
H116 H 0.61699 0.75681 0.89898 0.0
H117 H 0.57866 0.8127 0.91109 0.0
H118 H 0.44952 0.73599 0.87979 0.0
H119 H 0.48896 0.68014 0.86735 0.0
H120 H 0.67692 0.17551 0.26993 0.0
H121 H 0.5639 1.06639 0.25296 0.0
H122 H 0.64671 0.13153 0.18952 0.0
H123 H 0.55282 0.10329 0.16861 0.0
C124 C 0.53939 0.08346 0.18686 0.0
O125 O 0.575 0.07038 0.20163 0.0
H126 H 0.52379 0.10493 0.19862 0.0
C127 C 0.65617 0.15314 0.25599 0.0
C128 C 0.66707 0.15717 0.22882 0.0
C129 C 0.61914 0.1205 0.2653 0.0
C130 C 0.59231 0.09226 0.24662 0.0
C131 C 0.60212 0.09669 0.21944 0.0
C132 C 0.63967 0.12858 0.21065 0.0
H133 H 0.5797 0.68895 0.57844 0.0
H134 H 0.58824 0.55458 0.57209 0.0
H135 H 0.59927 0.64286 0.50128 0.0
H136 H 0.54927 0.53173 0.49363 0.0
C137 C 0.56416 0.52298 0.51367 0.0
O138 O 0.59936 0.55869 0.52102 0.0
H139 H 0.53614 0.51815 0.52783 0.0
C140 C 0.58336 0.66288 0.56597 0.0
C141 C 0.59037 0.6725 0.53845 0.0
C142 C 0.58252 0.62088 0.57813 0.0
C143 C 0.58817 0.58687 0.56261 0.0
C144 C 0.59288 0.5935 0.53482 0.0
C145 C 0.59393 0.63678 0.52255 0.0
H146 H 0.97755 0.56472 0.90285 0.0
H147 H 0.11692 0.58342 0.88135 0.0
H148 H 1.01226 0.5916 0.81987 0.0
H149 H 0.0996 0.56057 0.79667 0.0
C150 C 0.11344 0.56134 0.81789 0.0
O151 O 0.10007 0.59471 0.83005 0.0
H152 H 0.09864 0.52844 0.82762 0.0
C153 C 1.00238 0.57145 0.88753 0.0
C154 C 0.98803 0.57816 0.86036 0.0
C155 C 0.04871 0.57415 0.89546 0.0
C156 C 0.08112 0.58176 0.87574 0.0
C157 C 0.06778 0.587 0.84858 0.0
C158 C 1.02152 0.58575 0.8409 0.0
H159 H 0.05378 0.5165 0.38586 0.0
H160 H 0.16133 0.63061 0.40254 0.0
H161 H 0.09019 0.55369 0.4671 0.0
H162 H 0.11162 0.64567 0.47978 0.0
C163 C 0.13318 0.65837 0.46247 0.0
O164 O 0.15117 0.62483 0.45403 0.0
H165 H 0.11058 0.66986 0.44623 0.0
C166 C 0.0757 0.53792 0.39988 0.0
C167 C 0.06897 0.52984 0.4275 0.0
C168 C 0.10907 0.574 0.39025 0.0
C169 C 0.13507 0.60271 0.409 0.0
C170 C 0.12758 0.59571 0.43649 0.0
C171 C 0.0951 0.55908 0.44574 0.0
H172 H 0.58112 1.04091 0.77262 0.0
H173 H 0.72007 0.09704 0.75182 0.0
H174 H 0.69418 1.03205 0.82906 0.0
H175 H 0.81547 0.12246 0.80351 0.0
C176 C 0.7811 0.11091 0.81173 0.0
O177 O 0.75733 0.07513 0.79769 0.0
H178 H 0.78658 0.09989 0.83309 0.0
C179 C 0.61748 1.04894 0.77801 0.0
C180 C 0.63372 1.03394 0.80318 0.0
C181 C 0.64833 0.07184 0.75918 0.0
C182 C 0.6955 0.08054 0.76618 0.0
C183 C 0.71174 1.06652 0.79135 0.0
C184 C 0.68102 1.04332 0.80976 0.0
H185 H 0.69954 0.57834 0.0621 0.0
H186 H 0.5614 0.57841 0.07945 0.0
H187 H 0.664 0.58358 0.14394 0.0
H188 H 0.57514 0.64727 0.12218 0.0
C189 C 0.56494 0.62027 0.13782 0.0
O190 O 0.5769 0.58205 0.13126 0.0
H191 H 0.5838 0.6312 0.15697 0.0
C192 C 0.67448 0.57925 0.07657 0.0
C193 C 0.68782 0.58075 0.10413 0.0
C194 C 0.62904 0.57825 0.06743 0.0
C195 C 0.59657 0.5792 0.08617 0.0
C196 C 0.60921 0.58179 0.1136 0.0
C197 C 0.65479 0.58259 0.12261 0.0
C198 C 0.29112 0.56383 0.15456 0.0
C199 C 0.27314 0.60008 0.14479 0.0
C200 C 0.33822 0.56504 0.15414 0.0
C201 C 0.36824 0.60353 0.14391 0.0
C202 C 0.35035 0.64036 0.13429 0.0
C203 C 0.30314 0.63811 0.13474 0.0
C204 C 0.35582 0.525 0.16447 0.0
C205 C 0.38108 0.68221 0.12342 0.0
C206 C 0.49598 0.6243 0.16336 0.0
C207 C 0.51372 0.61267 0.14028 0.0
C208 C 0.44869 0.62077 0.16502 0.0
C209 C 0.41831 0.60531 0.14303 0.0
C210 C 0.43603 0.59295 0.11982 0.0
C211 C 0.48347 0.59705 0.11868 0.0
C212 C 0.43135 0.63456 0.19006 0.0
C213 C 0.40494 0.57624 0.09595 0.0
H214 H 0.26833 0.53423 0.16232 0.0
H215 H 0.28979 0.66637 0.12727 0.0
H216 H 0.37256 0.51296 0.14824 0.0
H217 H 0.38207 0.53385 0.18108 0.0
H218 H 0.32814 0.49771 0.1719 0.0
H219 H 0.36199 0.70824 0.11724 0.0
H220 H 0.4082 0.69518 0.13886 0.0
H221 H 0.39837 0.67519 0.10578 0.0
H222 H 0.51924 0.63691 0.17999 0.0
H223 H 0.49703 0.58865 0.10067 0.0
H224 H 0.40496 0.60717 0.19857 0.0
H225 H 0.41487 0.66274 0.18495 0.0
H226 H 0.45916 0.6444 0.20574 0.0
H227 H 0.3778 0.54768 0.10238 0.0
H228 H 0.42379 0.56606 0.07996 0.0
H229 H 0.3877 0.60236 0.0873 0.0
C230 C 0.89532 0.31295 0.48526 0.0
C231 C 0.85543 0.30507 0.46836 0.0
C232 C 0.93066 0.35025 0.48069 0.0
C233 C 0.92581 0.38047 0.45881 0.0
C234 C 0.885 0.37336 0.44221 0.0
C235 C 0.85039 0.33568 0.44713 0.0
C236 C 0.97377 0.35655 0.49872 0.0
C237 C 0.87831 0.40503 0.41884 0.0
C238 C 1.00262 0.49556 0.45563 0.0
C239 C 1.03398 0.49111 0.43698 0.0
C240 C 0.96766 0.45961 0.46336 0.0
C241 C 0.96426 0.41827 0.45229 0.0
C242 C 0.99664 0.41335 0.43404 0.0
C243 C 1.031 0.44984 0.42656 0.0
C244 C 0.93363 0.46617 0.48277 0.0
C245 C 0.99448 0.36972 0.42199 0.0
H246 H 0.89952 0.28919 0.50156 0.0
H247 H 0.81933 0.33001 0.43426 0.0
H248 H 1.00309 0.35433 0.48691 0.0
H249 H 0.98157 0.38982 0.50687 0.0
H250 H 0.9711 0.33152 0.51579 0.0
H251 H 0.84359 0.39606 0.40881 0.0
H252 H 0.88378 0.43898 0.42578 0.0
H253 H 0.90395 0.40545 0.40377 0.0
H254 H 1.00459 0.52749 0.46356 0.0
H255 H 0.05557 0.44615 0.41242 0.0
H256 H 0.93202 0.44163 0.50001 0.0
H257 H 0.89897 0.46083 0.47262 0.0
H258 H 0.94234 0.49975 0.49058 0.0
H259 H 0.99477 0.34359 0.43816 0.0
H260 H 1.02347 0.37091 0.40905 0.0
H261 H 0.96202 0.36005 0.40969 0.0
C262 C 0.47417 0.82986 0.86567 0.0
C263 C 0.49413 0.82108 0.89113 0.0
C264 C 0.48197 0.87295 0.85418 0.0
C265 C 0.50996 0.90733 0.86869 0.0
C266 C 0.51951 0.90001 0.89652 0.0
C267 C 0.51142 0.85653 0.90759 0.0
C268 C 0.4682 0.87987 0.82488 0.0
C269 C 0.5457 0.93676 0.91329 0.0
C270 C 0.61328 0.96383 0.83049 0.0
C271 C 0.60229 1.00364 0.82116 0.0
C272 C 0.58383 0.93302 0.84641 0.0
C273 C 0.54205 0.94227 0.85344 0.0
C274 C 0.53096 0.98288 0.84449 0.0
C275 C 0.56126 1.01313 0.82827 0.0
C276 C 0.59736 0.89007 0.85515 0.0
C277 C 0.48786 0.99496 0.85228 0.0
H278 H 0.45897 0.80301 0.85294 0.0
H279 H 0.52464 0.85016 0.92785 0.0
H280 H 0.45987 0.91265 0.82071 0.0
H281 H 0.49716 0.87833 0.81254 0.0
H282 H 0.43821 0.85396 0.8185 0.0
H283 H 0.53978 0.92914 0.93499 0.0
H284 H 0.58286 0.94115 0.91055 0.0
H285 H 0.5358 0.96828 0.90694 0.0
H286 H 0.64465 0.95619 0.82466 0.0
H287 H 0.55303 1.04424 0.82125 0.0
H288 H 0.57102 0.86182 0.84772 0.0
H289 H 0.60001 0.88628 0.8774 0.0
H290 H 0.63073 0.88811 0.84755 0.0
H291 H 0.47731 1.01964 0.83758 0.0
H292 H 0.49445 1.00973 0.87217 0.0
H293 H 0.45908 0.96576 0.85405 0.0
C294 C 0.95845 0.62255 0.11655 0.0
C295 C 0.97693 0.59485 0.13532 0.0
C296 C 0.91103 0.61978 0.11356 0.0
C297 C 0.88112 0.58879 0.12988 0.0
C298 C 0.89958 0.56129 0.14924 0.0
C299 C 0.94718 0.5645 0.15165 0.0
C300 C 0.89286 0.6494 0.09245 0.0
C301 C 0.86898 0.528 0.16715 0.0
C302 C 0.76028 0.60791 0.13254 0.0
C303 C 0.73615 0.57989 0.11304 0.0
C304 C 0.80713 0.61006 0.13898 0.0
C305 C 0.83048 0.58374 0.12553 0.0
C306 C 0.80584 0.55419 0.10663 0.0
C307 C 0.75911 0.55243 0.10078 0.0
C308 C 0.832 0.6416 0.1595 0.0
C309 C 0.82921 0.52547 0.09182 0.0
H310 H 0.98101 0.64605 0.10378 0.0
H311 H 0.96104 0.54305 0.1663 0.0
H312 H 0.87038 0.6291 0.07731 0.0
H313 H 0.87177 0.66874 0.10179 0.0
H314 H 0.92066 0.67263 0.08193 0.0
H315 H 0.88877 0.51084 0.18221 0.0
H316 H 0.84683 0.54446 0.17788 0.0
H317 H 0.8461 0.50296 0.15476 0.0
H318 H 0.74299 0.62933 0.14208 0.0
H319 H 0.74058 0.52985 0.08618 0.0
H320 H 0.85735 0.66822 0.14948 0.0
H321 H 0.85116 0.62428 0.17479 0.0
H322 H 0.80831 0.65684 0.16987 0.0
H323 H 0.85566 0.54649 0.07927 0.0
H324 H 0.80483 0.50287 0.07859 0.0
H325 H 0.84686 0.50548 0.10631 0.0
C326 C 0.28445 0.88089 0.51749 0.0
C327 C 0.3313 0.88841 0.51311 0.0
C328 C 0.254 0.84218 0.50955 0.0
C329 C 0.27075 0.80992 0.49709 0.0
C330 C 0.31812 0.81676 0.49315 0.0
C331 C 0.34778 0.85597 0.5011 0.0
C332 C 0.20372 0.83611 0.51413 0.0
C333 C 0.33735 0.78306 0.48006 0.0
C334 C 0.19306 0.69538 0.49638 0.0
C335 C 0.17109 0.69635 0.47077 0.0
C336 C 0.22656 0.73168 0.505 0.0
C337 C 0.23831 0.7697 0.48752 0.0
C338 C 0.2174 0.77007 0.46124 0.0
C339 C 0.18421 0.73323 0.45312 0.0
C340 C 0.24847 0.7298 0.53304 0.0
C341 C 0.22906 0.80989 0.44197 0.0
H342 H 0.27149 0.90536 0.52716 0.0
H343 H 0.38379 0.86166 0.49729 0.0
H344 H 0.18368 0.83311 0.49459 0.0
H345 H 0.1916 0.80518 0.52638 0.0
H346 H 0.19629 0.86397 0.52449 0.0
H347 H 0.37528 0.79216 0.47988 0.0
H348 H 0.32708 0.75032 0.49077 0.0
H349 H 0.32313 0.77964 0.45903 0.0
H350 H 0.18326 0.6665 0.50984 0.0
H351 H 0.16764 0.73363 0.43317 0.0
H352 H 0.23913 0.75477 0.5451 0.0
H353 H 0.28628 0.73789 0.53231 0.0
H354 H 0.23765 0.69687 0.54351 0.0
H355 H 0.21928 0.83841 0.45026 0.0
H356 H 0.21127 0.80414 0.42186 0.0
H357 H 0.26648 0.81905 0.43949 0.0
C358 C 0.6629 0.31748 0.80745 0.0
C359 C 0.61794 0.30672 0.79628 0.0
C360 C 0.69073 0.28679 0.80933 0.0
C361 C 0.67329 0.24436 0.79964 0.0
C362 C 0.62833 0.2335 0.78773 0.0
C363 C 0.60112 0.26489 0.78619 0.0
C364 C 0.73855 0.29956 0.8221 0.0
C365 C 0.60877 0.18851 0.77708 0.0
C366 C 0.75878 0.17631 0.78645 0.0
C367 C 0.75668 0.14852 0.80976 0.0
C368 C 0.73148 0.2075 0.78272 0.0
C369 C 0.70172 0.21095 0.8029 0.0
C370 C 0.69971 0.18302 0.82655 0.0
C371 C 0.72711 0.15194 0.82962 0.0
C372 C 0.73396 0.23625 0.75706 0.0
C373 C 0.66819 0.18558 0.84843 0.0
H374 H 0.67643 0.35008 0.81476 0.0
H375 H 0.56634 0.25636 0.77765 0.0
H376 H 0.74193 0.27775 0.84026 0.0
H377 H 0.76388 0.29507 0.80795 0.0
H378 H 0.74731 0.3343 0.82802 0.0
H379 H 0.5738 0.18579 0.7676 0.0
H380 H 0.63123 0.18127 0.76203 0.0
H381 H 0.60741 0.16281 0.79368 0.0
H382 H 0.78085 0.17266 0.77083 0.0
H383 H 0.72476 0.12957 0.8473 0.0
H384 H 0.74462 0.27147 0.76179 0.0
H385 H 0.69967 0.23152 0.74649 0.0
H386 H 0.75839 0.22892 0.7432 0.0
H387 H 0.67621 0.21928 0.85598 0.0
H388 H 0.67099 0.16166 0.86563 0.0
H389 H 0.6322 0.17893 0.84022 0.0
C390 C 0.56047 0.92414 0.52772 0.0
C391 C 0.59178 0.95507 0.51242 0.0
C392 C 0.56028 0.87837 0.52933 0.0
C393 C 0.59187 0.86187 0.51511 0.0
C394 C 0.62288 0.8928 0.49914 0.0
C395 C 0.62268 0.93851 0.49814 0.0
C396 C 0.52671 0.84767 0.54689 0.0
C397 C 0.65685 0.87761 0.4832 0.0
C398 C 0.6243 0.7539 0.54367 0.0
C399 C 0.59572 0.72075 0.52853 0.0
C400 C 0.62388 0.79916 0.53917 0.0
C401 C 0.59459 0.8132 0.51857 0.0
C402 C 0.56724 0.78028 0.50221 0.0
C403 C 0.56794 0.73477 0.5074 0.0
C404 C 0.6537 0.83192 0.55742 0.0
C405 C 0.53589 0.79296 0.47972 0.0
H406 H 0.53637 0.9358 0.53898 0.0
H407 H 0.64696 0.96139 0.48603 0.0
H408 H 0.50619 0.82048 0.53507 0.0
H409 H 0.54556 0.83255 0.56345 0.0
H410 H 0.50301 0.86484 0.55577 0.0
H411 H 0.6763 0.90469 0.47016 0.0
H412 H 0.68148 0.86434 0.49709 0.0
H413 H 0.63892 0.85052 0.47043 0.0
H414 H 0.64614 0.74408 0.56001 0.0
H415 H 0.54522 0.71005 0.49566 0.0
H416 H 0.6319 0.84786 0.56879 0.0
H417 H 0.67603 0.85833 0.54537 0.0
H418 H 0.67561 0.81629 0.57201 0.0
H419 H 0.50782 0.80462 0.48824 0.0
H420 H 0.5206 0.76491 0.467 0.0
H421 H 0.5548 0.82055 0.46685 0.0
C422 C 0.7137 0.53129 0.83665 0.0
C423 C 0.69844 0.56969 0.82857 0.0
C424 C 0.7608 0.53196 0.84022 0.0
C425 C 0.79346 0.5716 0.83457 0.0
C426 C 0.77797 0.60989 0.82509 0.0
C427 C 0.73074 0.60871 0.82279 0.0
C428 C 0.77556 0.49077 0.85126 0.0
C429 C 0.8113 0.65239 0.81781 0.0
C430 C 0.91119 0.5914 0.87117 0.0
C431 C 0.93844 0.57789 0.85291 0.0
C432 C 0.86415 0.58855 0.86565 0.0
C433 C 0.84356 0.574 0.84057 0.0
C434 C 0.87093 0.56216 0.82147 0.0
C435 C 0.91768 0.56348 0.82801 0.0
C436 C 0.83635 0.60074 0.88691 0.0
C437 C 0.85082 0.54807 0.79408 0.0
H438 H 0.68875 0.50116 0.84131 0.0
H439 H 0.71899 0.63835 0.81628 0.0
H440 H 0.7996 0.48189 0.83781 0.0
H441 H 0.79405 0.49693 0.87112 0.0
H442 H 0.74611 0.46226 0.85372 0.0
H443 H 0.79387 0.67742 0.80767 0.0
H444 H 0.83026 0.66631 0.83621 0.0
H445 H 0.83686 0.64617 0.80435 0.0
H446 H 0.92646 0.60441 0.89003 0.0
H447 H 0.93768 0.55261 0.81364 0.0
H448 H 0.80662 0.57326 0.89106 0.0
H449 H 0.82269 0.62988 0.87965 0.0
H450 H 0.85676 0.60846 0.90607 0.0
H451 H 0.82461 0.51689 0.79615 0.0
H452 H 0.87719 0.543 0.78079 0.0
H453 H 0.83345 0.57331 0.78422 0.0
C454 C 0.35791 0.8578 0.15321 0.0
C455 C 0.32115 0.86803 0.13711 0.0
C456 C 0.39536 0.891 0.16136 0.0
C457 C 0.39597 0.93554 0.15336 0.0
C458 C 0.35934 0.94602 0.1368 0.0
C459 C 0.3225 0.91217 0.12881 0.0
C460 C 0.43385 0.87849 0.17893 0.0
C461 C 0.35874 0.99312 0.1278 0.0
C462 C 0.46616 1.02742 0.19485 0.0
C463 C 0.5035 1.0437 0.17889 0.0
C464 C 0.43129 0.99167 0.18703 0.0
C465 C 0.43424 0.97144 0.16282 0.0
C466 C 0.47288 0.98672 0.14718 0.0
C467 C 0.50716 1.02267 0.15546 0.0
C468 C 0.39076 0.97628 0.2043 0.0
C469 C 0.47752 0.96573 0.12142 0.0
H470 H 0.35694 0.82388 0.16001 0.0
H471 H 0.29466 0.92032 0.11601 0.0
H472 H 0.46704 0.89187 0.16967 0.0
H473 H 0.43587 0.89318 0.19873 0.0
H474 H 0.42931 0.84222 0.18228 0.0
H475 H 0.32807 0.99568 0.1146 0.0
H476 H 0.35931 1.01277 0.1456 0.0
H477 H 0.38977 1.00817 0.11676 0.0
H478 H 0.46383 1.04332 0.21321 0.0
H479 H 0.53651 1.03492 0.14339 0.0
H480 H 0.38618 0.94056 0.20981 0.0
H481 H 0.35912 0.98097 0.19282 0.0
H482 H 0.39453 0.99439 0.22303 0.0
H483 H 0.47437 0.92974 0.12522 0.0
H484 H 0.51073 0.98003 0.11233 0.0
H485 H 0.44945 0.97026 0.10665 0.0
C486 C 0.54971 0.25958 0.52191 0.0
C487 C 0.58779 0.24506 0.51395 0.0
C488 C 0.54928 0.3051 0.52221 0.0
C489 C 0.58804 0.33811 0.51464 0.0
C490 C 0.62684 0.32369 0.50692 0.0
C491 C 0.62617 0.27789 0.50653 0.0
C492 C 0.50674 0.31786 0.53035 0.0
C493 C 0.66929 0.3568 0.49889 0.0
C494 C 0.56729 0.45305 0.49008 0.0
C495 C 0.57846 0.47815 0.51304 0.0
C496 C 0.57138 0.40852 0.49016 0.0
C497 C 0.58709 0.38726 0.51385 0.0
C498 C 0.5998 0.4128 0.53692 0.0
C499 C 0.59504 0.45738 0.53631 0.0
C500 C 0.557 0.3836 0.46499 0.0
C501 C 0.61711 0.39253 0.56267 0.0
H502 H 0.51965 0.23521 0.5277 0.0
H503 H 0.65607 0.26783 0.50041 0.0
H504 H 0.5152 0.33943 0.54761 0.0
H505 H 0.49295 0.33698 0.51351 0.0
H506 H 0.47961 0.28874 0.53605 0.0
H507 H 0.69737 0.34085 0.49452 0.0
H508 H 0.66121 0.3768 0.48076 0.0
H509 H 0.68156 0.37982 0.51518 0.0
H510 H 0.55351 0.46785 0.47205 0.0
H511 H 0.60284 0.47558 0.55441 0.0
H512 H 0.52708 0.35618 0.46885 0.0
H513 H 0.585 0.36876 0.4592 0.0
H514 H 0.54767 0.40498 0.44781 0.0
H515 H 0.58934 0.36626 0.57092 0.0
H516 H 0.62926 0.41719 0.57811 0.0
H517 H 0.64557 0.37687 0.55871 0.0
C518 C 0.37281 0.54223 0.80796 0.0
C519 C 0.40588 0.57698 0.81873 0.0
C520 C 0.32577 0.54168 0.80782 0.0
C521 C 0.3111 0.57673 0.81868 0.0
C522 C 0.34427 0.61222 0.82923 0.0
C523 C 0.39108 0.61193 0.82914 0.0
C524 C 0.29166 0.5032 0.79632 0.0
C525 C 0.33031 0.65035 0.84093 0.0
C526 C 0.19021 0.59024 0.79743 0.0
C527 C 0.16514 0.56849 0.81898 0.0
C528 C 0.23782 0.594 0.79729 0.0
C529 C 0.26104 0.57578 0.81932 0.0
C530 C 0.23603 0.5553 0.84161 0.0
C531 C 0.18846 0.55207 0.84121 0.0
C532 C 0.26307 0.61647 0.77325 0.0
C533 C 0.25931 0.53573 0.8656 0.0
H534 H 0.38359 0.51501 0.79986 0.0
H535 H 0.41607 0.63905 0.83751 0.0
H536 H 0.26871 0.48618 0.81211 0.0
H537 H 0.26989 0.51512 0.77995 0.0
H538 H 0.3085 0.4789 0.78822 0.0
H539 H 0.36025 0.67587 0.84784 0.0
H540 H 0.30941 0.66594 0.82572 0.0
H541 H 0.30873 0.63824 0.85823 0.0
H542 H 0.17232 0.60341 0.78035 0.0
H543 H 0.16918 0.53567 0.85801 0.0
H544 H 0.27755 0.59241 0.76318 0.0
H545 H 0.29214 0.64311 0.77976 0.0
H546 H 0.24055 0.63082 0.75836 0.0
H547 H 0.27378 0.50846 0.8593 0.0
H548 H 0.23549 0.52271 0.8818 0.0
H549 H 0.2882 0.56091 0.87391 0.0
C550 C 0.87676 0.34597 0.17468 0.0
C551 C 0.9159 0.34437 0.19142 0.0
C552 C 0.83508 0.31579 0.17878 0.0
C553 C 0.83232 0.28353 0.20031 0.0
C554 C 0.87171 0.28153 0.21715 0.0
C555 C 0.91301 0.31176 0.21241 0.0
C556 C 0.79389 0.31872 0.16028 0.0
C557 C 0.87012 0.24773 0.2404 0.0
C558 C 0.71798 0.23296 0.22996 0.0
C559 C 0.70754 0.19078 0.21975 0.0
C560 C 0.75798 0.26378 0.22334 0.0
C561 C 0.78806 0.25243 0.20576 0.0
C562 C 0.77692 0.21059 0.19454 0.0
C563 C 0.73693 0.18018 0.20177 0.0
C564 C 0.7687 0.30802 0.23579 0.0
C565 C 0.80792 0.19746 0.17551 0.0
H566 H 0.87844 0.37135 0.15863 0.0
H567 H 0.94321 0.30968 0.22514 0.0
H568 H 0.77971 0.28654 0.15131 0.0
H569 H 0.76664 0.32633 0.17187 0.0
H570 H 0.80218 0.34448 0.14379 0.0
H571 H 0.90383 0.25047 0.25155 0.0
H572 H 0.84469 0.25179 0.25461 0.0
H573 H 0.85895 0.21403 0.233 0.0
H574 H 0.695 0.24182 0.24339 0.0
H575 H 0.72942 0.14759 0.19396 0.0
H576 H 0.77434 0.33496 0.21989 0.0
H577 H 0.8008 0.31155 0.24863 0.0
H578 H 0.74093 0.31234 0.24828 0.0
H579 H 0.81553 0.22279 0.15876 0.0
H580 H 0.79267 0.16512 0.16693 0.0
H581 H 0.84098 0.19542 0.18626 0.0
C582 C 0.13426 0.54331 0.05061 0.0
C583 C 0.11377 0.56857 0.06614 0.0
C584 C 0.12664 0.54378 0.02253 0.0
C585 C 0.09769 0.57 0.00977 0.0
C586 C 0.07766 0.59624 0.02536 0.0
C587 C 0.08607 0.59531 0.05336 0.0
C588 C 0.14889 0.51566 0.00656 0.0
C589 C 0.04654 0.62459 0.01254 0.0
C590 C 0.10184 0.60062 0.93485 0.0
C591 C 0.06326 0.5709 0.92449 0.0
C592 C 0.11416 0.60002 0.96249 0.0
C593 C 0.08712 0.5691 0.98022 0.0
C594 C 0.0488 0.53832 0.96983 0.0
C595 C 1.03743 0.53951 0.9421 0.0
C596 C 0.15535 0.63326 0.97279 0.0
C597 C 1.01917 0.50476 0.98808 0.0
H598 H 0.15586 0.52274 0.06043 0.0
H599 H 0.07024 0.61497 0.0653 0.0
H600 H 0.1222 0.49048 -0.00356 0.0
H601 H 0.16891 0.53626 0.99061 0.0
H602 H 0.172 0.4986 0.01937 0.0
H603 H 1.03459 0.64387 0.02742 0.0
H604 H 0.06456 0.64781 -0.00308 0.0
H605 H 1.01619 0.60355 0.00241 0.0
H606 H 0.1217 0.6253 0.92144 0.0
H607 H 1.00802 0.51598 0.9342 0.0
H608 H 0.17897 0.61631 0.98517 0.0
H609 H 0.14431 0.65583 0.98592 0.0
H610 H 0.17442 0.65325 0.95623 0.0
H611 H 1.04034 0.48479 0.00013 0.0
H612 H 0.99148 0.4822 0.97673 0.0
H613 H 1.00336 0.52185 0.0024 0.0
C614 C 0.55818 0.13909 0.41746 0.0
C615 C 0.56257 0.10156 0.43349 0.0
C616 C 0.56711 0.14241 0.39005 0.0
C617 C 0.57894 0.10661 0.37833 0.0
C618 C 0.58214 0.06812 0.3944 0.0
C619 C 0.57482 1.06645 0.42194 0.0
C620 C 0.56502 0.1846 0.37381 0.0
C621 C 0.59315 1.02869 0.3825 0.0
C622 C 0.56339 0.10251 0.30226 0.0
C623 C 0.6087 0.11617 0.29438 0.0
C624 C 0.55329 0.09837 0.3295 0.0
C625 C 0.58909 0.10979 0.3494 0.0
C626 C 0.63475 0.1241 0.34171 0.0
C627 C 0.64408 0.12614 0.31444 0.0
C628 C 0.50429 0.08168 0.33699 0.0
C629 C 0.67382 0.13757 0.36229 0.0
H630 H 0.54912 0.16638 0.42654 0.0
H631 H 0.57793 1.03731 0.43441 0.0
H632 H 0.59862 0.19877 0.36519 0.0
H633 H 0.53933 0.17779 0.35674 0.0
H634 H 0.55603 0.2096 0.38606 0.0
H635 H 0.59145 1.00033 0.39739 0.0
H636 H 0.56887 1.01816 0.3652 0.0
H637 H 0.62799 1.0376 0.3748 0.0
H638 H 0.53552 0.09542 0.28716 0.0
H639 H 0.67935 0.13547 0.30895 0.0
H640 H 0.4925 0.10763 0.34688 0.0
H641 H 0.50175 1.05293 0.35162 0.0
H642 H 0.4808 0.07171 0.31924 0.0
H643 H 0.66684 0.16333 0.37469 0.0
H644 H 0.707 0.15053 0.35287 0.0
H645 H 0.67715 0.10896 0.37609 0.0
C646 C 0.59406 0.65197 0.73404 0.0
C647 C 0.57098 0.61605 0.74979 0.0
C648 C 0.59583 0.64949 0.70618 0.0
C649 C 0.57333 0.61035 0.69374 0.0
C650 C 0.55005 0.57388 0.70962 0.0
C651 C 0.54933 0.57714 0.73753 0.0
C652 C 0.62147 0.68895 0.69004 0.0
C653 C 0.52513 0.53182 0.69708 0.0
C654 C 0.54206 0.62671 0.61943 0.0
C655 C 0.57747 0.61357 0.60754 0.0
C656 C 0.53921 0.62403 0.64744 0.0
C657 C 0.57301 0.60845 0.664 0.0
C658 C 0.60809 0.59388 0.65205 0.0
C659 C 0.60972 0.59634 0.62391 0.0
C660 C 0.50086 0.63925 0.65935 0.0
C661 C 0.64503 0.57752 0.66901 0.0
H662 H 0.61093 0.68206 0.74353 0.0
H663 H 0.53089 0.54961 0.74966 0.0
H664 H 0.64755 0.67924 0.67844 0.0
H665 H 0.59748 0.70154 0.67533 0.0
H666 H 0.63883 0.71615 0.70292 0.0
H667 H 0.51027 0.5059 0.71234 0.0
H668 H 0.49712 0.53863 0.68295 0.0
H669 H 0.54872 0.51889 0.68524 0.0
H670 H 0.51689 0.6397 0.60674 0.0
H671 H 0.63733 0.58651 0.61473 0.0
H672 H 0.51507 0.66925 0.67059 0.0
H673 H 0.48317 0.61356 0.67385 0.0
H674 H 0.47528 0.64697 0.64373 0.0
H675 H 0.66593 0.60486 0.68058 0.0
H676 H 0.66804 0.56461 0.65667 0.0
H677 H 0.62961 0.5511 0.68377 0.0
C678 C 0.58962 0.11509 0.60049 0.0
C679 C 0.62268 0.09782 0.58893 0.0
C680 C 0.5872 0.11401 0.62857 0.0
C681 C 0.6187 0.09544 0.6453 0.0
C682 C 0.65196 0.07782 0.63362 0.0
C683 C 0.65339 0.07909 0.6056 0.0
C684 C 0.55106 0.13271 0.64032 0.0
C685 C 0.68627 1.05777 0.65074 0.0
C686 C 0.65309 0.12185 0.7176 0.0
C687 C 0.63257 0.08223 0.73117 0.0
C688 C 0.646 0.12817 0.68971 0.0
C689 C 0.61758 0.09406 0.67508 0.0
C690 C 0.59357 1.05567 0.689 0.0
C691 C 0.60146 1.05014 0.7169 0.0
C692 C 0.67196 0.16979 0.6757 0.0
C693 C 0.56255 1.01874 0.6742 0.0
H694 H 0.56572 0.12943 0.58761 0.0
H695 H 0.67895 1.06562 0.59673 0.0
H696 H 0.52921 0.10692 0.65303 0.0
H697 H 0.56748 0.15977 0.65349 0.0
H698 H 0.52891 0.14567 0.62455 0.0
H699 H 0.71009 1.0458 0.63849 0.0
H700 H 0.7067 0.08248 0.66432 0.0
H701 H 0.66819 1.02967 0.66357 0.0
H702 H 0.67656 0.14708 0.72864 0.0
H703 H 0.58564 1.01931 0.72718 0.0
H704 H 0.64938 0.18322 0.66048 0.0
H705 H 0.70023 0.16215 0.665 0.0
H706 H 0.68688 0.19559 0.69008 0.0
H707 H 0.54011 1.03191 0.65875 0.0
H708 H 0.54079 0.99481 0.68804 0.0
H709 H 0.58362 1.00083 0.66367 0.0
C710 C 0.54445 0.5713 0.91082 0.0
C711 C 0.56305 0.5401 0.89912 0.0
C712 C 0.5541 0.58012 0.93807 0.0
C713 C 0.58232 0.55652 0.95401 0.0
C714 C 0.60082 0.52467 0.94229 0.0
C715 C 0.59101 0.51692 0.91495 0.0
C716 C 0.53408 0.6146 0.94975 0.0
C717 C 0.63097 0.49875 0.95864 0.0
C718 C 0.64295 0.60065 0.01899 0.0
C719 C 0.61541 0.57489 0.03835 0.0
C720 C 0.63187 0.59594 0.99143 0.0
C721 C 0.59236 0.56464 0.98304 0.0
C722 C 0.56376 0.53938 0.00246 0.0
C723 C 0.57562 0.54483 0.02989 0.0
C724 C 0.66298 0.62374 0.9713 0.0
C725 C 0.5214 0.50561 -0.00571 0.0
H726 H 0.5223 0.58885 0.89867 0.0
H727 H 0.60539 0.49273 0.90594 0.0
H728 H 0.51101 0.59911 0.96584 0.0
H729 H 0.56174 0.63986 0.95909 0.0
H730 H 0.51446 0.63134 0.93435 0.0
H731 H 0.64256 0.47514 0.94649 0.0
H732 H 0.66156 0.52156 0.9673 0.0
H733 H 0.61219 0.48011 0.97568 0.0
H734 H 0.67336 0.62441 0.02543 0.0
H735 H 0.55444 0.52455 0.04475 0.0
H736 H 0.64303 0.64137 0.95666 0.0
H737 H 0.67859 0.60223 0.95976 0.0
H738 H 0.69087 0.64835 0.98106 0.0
H739 H 0.49895 0.52104 0.98001 0.0
H740 H 0.50149 0.49038 0.0118 0.0
H741 H 0.53123 0.47915 0.98379 0.0
C742 C 0.16559 0.61045 0.23355 0.0
C743 C 0.12773 0.62043 0.21862 0.0
C744 C 0.16511 0.60349 0.26162 0.0
C745 C 0.12512 0.60477 0.27479 0.0
C746 C 0.08637 0.61367 0.25958 0.0
C747 C 0.0885 0.62229 0.2317 0.0
C748 C 0.20763 0.59564 0.27723 0.0
C749 C 0.0425 0.61366 0.2727 0.0
C750 C 0.10798 0.54639 0.3438 0.0
C751 C 0.11569 0.58193 0.36073 0.0
C752 C 0.11075 0.55333 0.31584 0.0
C753 C 0.12361 0.59681 0.30448 0.0
C754 C 0.13348 0.63276 0.3214 0.0
C755 C 0.12853 0.62499 0.34919 0.0
C756 C 0.09876 0.51415 0.2984 0.0
C757 C 0.14862 0.67957 0.31012 0.0
H758 H 0.19601 0.6093 0.22333 0.0
H759 H 0.0591 0.62959 0.22001 0.0
H760 H 0.21879 0.6208 0.29244 0.0
H761 H 0.20022 0.56297 0.28824 0.0
H762 H 0.23631 0.59698 0.26403 0.0
H763 H 1.01479 0.61895 0.25782 0.0
H764 H 1.03065 0.58179 0.28412 0.0
H765 H 0.04852 0.63997 0.28726 0.0
H766 H 0.09941 0.51289 0.3523 0.0
H767 H 0.1339 0.65292 0.36172 0.0
H768 H 0.12837 0.51256 0.28668 0.0
H769 H 0.07021 0.51775 0.28374 0.0
H770 H 0.08847 0.48249 0.31034 0.0
H771 H 0.17765 0.68224 0.29701 0.0
H772 H 0.1593 0.70339 0.32616 0.0
H773 H 0.12024 0.68918 0.29752 0.0
loop_
_geom_bond_atom_site_label_1
_geom_bond_atom_site_label_2
_geom_bond_distance
_geom_bond_site_symmetry_2
_ccdc_geom_bond_type
Pr0 C2 2.880 . S
Pr0 O20 2.562 . S
Pr0 O21 2.490 . S
Pr0 O22 2.695 1_655 S
Pr0 O23 2.512 . S
Pr0 O25 2.437 . S
Pr0 O28 2.436 . S
Pr0 O30 2.438 1_655 S
Pr1 C11 2.880 . S
Pr1 O22 2.436 . S
Pr1 O24 2.438 1_455 S
Pr1 O26 2.562 . S
Pr1 O27 2.490 . S
Pr1 O28 2.695 1_455 S
Pr1 O29 2.512 . S
Pr1 O31 2.437 . S
C2 Pr0 2.880 . S
C2 C3 1.491 . S
C2 O20 1.254 . S
C2 O21 1.225 . S
C3 C2 1.491 . S
C3 C4 1.392 . S
C3 C8 1.356 . S
C4 C3 1.392 . S
C4 C5 1.368 . S
C4 H32 0.929 . S
C5 C4 1.368 . S
C5 C6 1.386 . S
C5 H33 0.929 . S
C6 C5 1.386 . S
C6 C7 1.373 . S
C7 C6 1.373 . S
C7 C8 1.409 . S
C7 H34 0.931 . S
C8 C3 1.356 . S
C8 C7 1.409 . S
C8 H35 0.930 . S
C9 O22 1.270 . S
C9 O23 1.248 1_455 S
C10 O24 1.267 . S
C10 O25 1.278 . S
C11 Pr1 2.880 . S
C11 C12 1.491 . S
C11 O26 1.254 . S
C11 O27 1.225 . S
C12 C11 1.491 . S
C12 C13 1.392 . S
C12 C17 1.356 . S
C13 C12 1.392 . S
C13 C14 1.368 . S
C13 H36 0.929 . S
C14 C13 1.368 . S
C14 C15 1.386 . S
C14 H37 0.929 . S
C15 C14 1.386 . S
C15 C16 1.373 . S
C16 C15 1.373 . S
C16 C17 1.409 . S
C16 H38 0.931 . S
C17 C12 1.356 . S
C17 C16 1.409 . S
C17 H39 0.930 . S
C18 O28 1.270 1_455 S
C18 O29 1.248 . S
C19 O30 1.267 . S
C19 O31 1.278 . S
O20 Pr0 2.562 . S
O20 C2 1.254 . S
O21 Pr0 2.490 . S
O21 C2 1.225 . S
O22 Pr0 2.695 1_455 S
O22 Pr1 2.436 . S
O22 C9 1.270 . S
O23 Pr0 2.512 . S
O23 C9 1.248 1_655 S
O24 Pr1 2.438 1_655 S
O24 C10 1.267 . S
O25 Pr0 2.437 . S
O25 C10 1.278 . S
O26 Pr1 2.562 . S
O26 C11 1.254 . S
O27 Pr1 2.490 . S
O27 C11 1.225 . S
O28 Pr0 2.436 . S
O28 Pr1 2.695 1_655 S
O28 C18 1.270 1_655 S
O29 Pr1 2.512 . S
O29 C18 1.248 . S
O30 Pr0 2.438 1_455 S
O30 C19 1.267 . S
O31 Pr1 2.437 . S
O31 C19 1.278 . S
H32 C4 0.929 . S
H33 C5 0.929 . S
H34 C7 0.931 . S
H35 C8 0.930 . S
H36 C13 0.929 . S
H37 C14 0.929 . S
H38 C16 0.931 . S
H39 C17 0.930 . S
Pr40 C42 2.880 . S
Pr40 O60 2.562 . S
Pr40 O61 2.490 . S
Pr40 O62 2.695 . S
Pr40 O63 2.512 . S
Pr40 O65 2.437 . S
Pr40 O68 2.436 . S
Pr40 O70 2.438 1_545 S
Pr41 C51 2.880 . S
Pr41 O62 2.436 1_565 S
Pr41 O64 2.438 1_565 S
Pr41 O66 2.562 . S
Pr41 O67 2.490 . S
Pr41 O68 2.695 1_565 S
Pr41 O69 2.511 . S
Pr41 O71 2.437 . S
C42 Pr40 2.880 . S
C42 C43 1.491 . S
C42 O60 1.254 . S
C42 O61 1.225 . S
C43 C42 1.491 . S
C43 C44 1.392 . S
C43 C48 1.356 . S
C44 C43 1.392 . S
C44 C45 1.368 . S
C44 H72 0.929 . S
C45 C44 1.368 . S
C45 C46 1.386 . S
C45 H73 0.929 . S
C46 C45 1.386 . S
C46 C47 1.373 . S
C47 C46 1.373 . S
C47 C48 1.409 . S
C47 H74 0.931 . S
C48 C43 1.356 . S
C48 C47 1.409 . S
C48 H75 0.930 . S
C49 O62 1.270 . S
C49 O63 1.248 . S
C50 O64 1.267 . S
C50 O65 1.278 . S
C51 Pr41 2.880 . S
C51 C52 1.491 . S
C51 O66 1.254 . S
C51 O67 1.225 . S
C52 C51 1.491 . S
C52 C53 1.392 . S
C52 C57 1.356 . S
C53 C52 1.392 . S
C53 C54 1.368 . S
C53 H76 0.929 . S
C54 C53 1.368 . S
C54 C55 1.386 . S
C54 H77 0.929 . S
C55 C54 1.386 . S
C55 C56 1.373 . S
C56 C55 1.373 . S
C56 C57 1.409 . S
C56 H78 0.931 . S
C57 C52 1.356 . S
C57 C56 1.409 . S
C57 H79 0.930 . S
C58 O68 1.270 . S
C58 O69 1.244 1_545 S
C59 O70 1.267 . S
C59 O71 1.278 . S
O60 Pr40 2.562 . S
O60 C42 1.254 . S
O61 Pr40 2.490 . S
O61 C42 1.225 . S
O62 Pr40 2.695 . S
O62 Pr41 2.436 1_545 S
O62 C49 1.270 . S
O63 Pr40 2.512 . S
O63 C49 1.248 . S
O64 Pr41 2.438 1_545 S
O64 C50 1.267 . S
O65 Pr40 2.437 . S
O65 C50 1.278 . S
O66 Pr41 2.562 . S
O66 C51 1.254 . S
O67 Pr41 2.490 . S
O67 C51 1.225 . S
O68 Pr40 2.436 . S
O68 Pr41 2.695 1_545 S
O68 C58 1.270 . S
O69 Pr41 2.511 . S
O69 C58 1.244 1_565 S
O70 Pr40 2.438 1_565 S
O70 C59 1.267 . S
O71 Pr41 2.437 . S
O71 C59 1.278 . S
H72 C44 0.929 . S
H73 C45 0.929 . S
H74 C47 0.931 . S
H75 C48 0.930 . S
H76 C53 0.929 . S
H77 C54 0.929 . S
H78 C56 0.931 . S
H79 C57 0.930 . S
Pr80 C82 2.880 . S
Pr80 O100 2.562 . S
Pr80 O101 2.490 . S
Pr80 O102 2.695 . S
Pr80 O103 2.512 . S
Pr80 O105 2.437 . S
Pr80 O108 2.436 . S
Pr80 O110 2.438 . S
Pr81 C91 2.880 . S
Pr81 O102 2.436 . S
Pr81 O104 2.438 . S
Pr81 O106 2.562 . S
Pr81 O107 2.490 . S
Pr81 O108 2.695 . S
Pr81 O109 2.512 . S
Pr81 O111 2.437 . S
C82 Pr80 2.880 . S
C82 C83 1.491 . S
C82 O100 1.254 . S
C82 O101 1.225 . S
C83 C82 1.491 . S
C83 C84 1.392 . S
C83 C88 1.356 . S
C84 C83 1.392 . S
C84 C85 1.368 . S
C84 H112 0.929 . S
C85 C84 1.368 . S
C85 C86 1.386 . S
C85 H113 0.929 . S
C86 C85 1.386 . S
C86 C87 1.373 . S
C87 C86 1.373 . S
C87 C88 1.409 . S
C87 H114 0.931 . S
C88 C83 1.356 . S
C88 C87 1.409 . S
C88 H115 0.930 . S
C89 O102 1.270 . S
C89 O103 1.248 . S
C90 O104 1.267 . S
C90 O105 1.278 . S
C91 Pr81 2.880 . S
C91 C92 1.491 . S
C91 O106 1.254 . S
C91 O107 1.225 . S
C92 C91 1.491 . S
C92 C93 1.392 . S
C92 C97 1.356 . S
C93 C92 1.392 . S
C93 C94 1.368 . S
C93 H116 0.929 . S
C94 C93 1.368 . S
C94 C95 1.386 . S
C94 H117 0.929 . S
C95 C94 1.386 . S
C95 C96 1.373 . S
C96 C95 1.373 . S
C96 C97 1.409 . S
C96 H118 0.931 . S
C97 C92 1.356 . S
C97 C96 1.409 . S
C97 H119 0.930 . S
C98 O108 1.270 . S
C98 O109 1.248 . S
C99 O110 1.267 . S
C99 O111 1.278 . S
O100 Pr80 2.562 . S
O100 C82 1.254 . S
O101 Pr80 2.490 . S
O101 C82 1.225 . S
O102 Pr80 2.695 . S
O102 Pr81 2.436 . S
O102 C89 1.270 . S
O103 Pr80 2.512 . S
O103 C89 1.248 . S
O104 Pr81 2.438 . S
O104 C90 1.267 . S
O105 Pr80 2.437 . S
O105 C90 1.278 . S
O106 Pr81 2.562 . S
O106 C91 1.254 . S
O107 Pr81 2.490 . S
O107 C91 1.225 . S
O108 Pr80 2.436 . S
O108 Pr81 2.695 . S
O108 C98 1.270 . S
O109 Pr81 2.512 . S
O109 C98 1.248 . S
O110 Pr80 2.438 . S
O110 C99 1.267 . S
O111 Pr81 2.437 . S
O111 C99 1.278 . S
H112 C84 0.929 . S
H113 C85 0.929 . S
H114 C87 0.931 . S
H115 C88 0.930 . S
H116 C93 0.929 . S
H117 C94 0.929 . S
H118 C96 0.931 . S
H119 C97 0.930 . S
H120 C127 0.929 . S
H121 C130 0.930 1_565 S
H122 C132 0.929 . S
H123 C124 0.969 . S
C124 H123 0.969 . S
C124 O125 1.550 . S
C124 H126 0.973 . S
O125 C124 1.550 . S
O125 C131 1.412 1_565 S
H126 C124 0.973 . S
C127 H120 0.929 . S
C127 C128 1.400 . S
C127 C129 1.364 . S
C128 C127 1.400 . S
C128 C132 1.377 . S
C129 C127 1.364 . S
C129 C130 1.374 . S
C130 H121 0.930 1_545 S
C130 C129 1.374 . S
C130 C131 1.383 . S
C131 O125 1.412 1_545 S
C131 C130 1.383 . S
C131 C132 1.394 . S
C132 H122 0.929 . S
C132 C128 1.377 . S
C132 C131 1.394 . S
H133 C140 0.929 . S
H134 C143 0.930 . S
H135 C145 0.929 . S
H136 C137 0.969 . S
C137 H136 0.969 . S
C137 O138 1.550 . S
C137 H139 0.973 . S
O138 C137 1.550 . S
O138 C144 1.412 . S
H139 C137 0.973 . S
C140 H133 0.929 . S
C140 C141 1.400 . S
C140 C142 1.364 . S
C141 C140 1.400 . S
C141 C145 1.377 . S
C142 C140 1.364 . S
C142 C143 1.374 . S
C143 H134 0.930 . S
C143 C142 1.374 . S
C143 C144 1.383 . S
C144 O138 1.412 . S
C144 C143 1.383 . S
C144 C145 1.394 . S
C145 H135 0.929 . S
C145 C141 1.377 . S
C145 C144 1.394 . S
H146 C153 0.929 1_655 S
H147 C156 0.930 . S
H148 C158 0.929 . S
H149 C150 0.969 . S
C150 H149 0.969 . S
C150 O151 1.550 . S
C150 H152 0.973 . S
O151 C150 1.550 . S
O151 C157 1.412 . S
H152 C150 0.973 . S
C153 H146 0.929 1_455 S
C153 C154 1.400 . S
C153 C155 1.364 . S
C154 C153 1.400 . S
C154 C158 1.377 . S
C155 C153 1.364 . S
C155 C156 1.374 . S
C156 H147 0.930 . S
C156 C155 1.374 . S
C156 C157 1.383 . S
C157 O151 1.412 . S
C157 C156 1.383 . S
C157 C158 1.394 . S
C158 H148 0.929 . S
C158 C154 1.377 . S
C158 C157 1.394 . S
H159 C166 0.929 1_655 S
H160 C169 0.930 . S
H161 C171 0.929 . S
H162 C163 0.969 . S
C163 H162 0.969 . S
C163 O164 1.550 . S
C163 H165 0.973 . S
O164 C163 1.550 . S
O164 C170 1.412 . S
H165 C163 0.973 . S
C166 H159 0.929 1_455 S
C166 C167 1.400 . S
C166 C168 1.364 . S
C167 C166 1.400 . S
C167 C171 1.377 . S
C168 C166 1.364 . S
C168 C169 1.374 . S
C169 H160 0.930 . S
C169 C168 1.374 . S
C169 C170 1.383 . S
C170 O164 1.412 . S
C170 C169 1.383 . S
C170 C171 1.394 . S
C171 H161 0.929 . S
C171 C167 1.377 . S
C171 C170 1.394 . S
H172 C179 0.929 . S
H173 C182 0.930 . S
H174 C184 0.929 . S
H175 C176 0.969 . S
C176 H175 0.969 . S
C176 O177 1.550 . S
C176 H178 0.973 . S
O177 C176 1.550 . S
O177 C183 1.412 . S
H178 C176 0.973 . S
C179 H172 0.929 . S
C179 C180 1.400 . S
C179 C181 1.364 1_565 S
C180 C179 1.400 . S
C180 C184 1.377 . S
C181 C179 1.364 1_545 S
C181 C182 1.374 . S
C182 H173 0.930 . S
C182 C181 1.374 . S
C182 C183 1.383 . S
C183 O177 1.412 . S
C183 C182 1.383 . S
C183 C184 1.394 1_545 S
C184 H174 0.929 . S
C184 C180 1.377 . S
C184 C183 1.394 1_565 S
H185 C192 0.929 . S
H186 C195 0.930 . S
H187 C197 0.929 . S
H188 C189 0.969 . S
C189 H188 0.969 . S
C189 O190 1.550 . S
C189 H191 0.973 . S
O190 C189 1.550 . S
O190 C196 1.412 . S
H191 C189 0.973 . S
C192 H185 0.929 . S
C192 C193 1.400 . S
C192 C194 1.364 . S
C193 C192 1.400 . S
C193 C197 1.377 . S
C194 C192 1.364 . S
C194 C195 1.374 . S
C195 H186 0.930 . S
C195 C194 1.374 . S
C195 C196 1.383 . S
C196 O190 1.412 . S
C196 C195 1.383 . S
C196 C197 1.394 . S
C197 H187 0.929 . S
C197 C193 1.377 . S
C197 C196 1.394 . S
C198 C199 1.391 . S
C198 C200 1.394 . S
C198 H214 0.931 . S
C199 C198 1.391 . S
C199 C203 1.376 . S
C200 C198 1.394 . S
C200 C201 1.369 . S
C200 C204 1.531 . S
C201 C200 1.369 . S
C201 C202 1.410 . S
C201 C209 1.503 . S
C202 C201 1.410 . S
C202 C203 1.392 . S
C202 C205 1.511 . S
C203 C199 1.376 . S
C203 C202 1.392 . S
C203 H215 0.929 . S
C204 C200 1.531 . S
C204 H216 0.960 . S
C204 H217 0.962 . S
C204 H218 0.960 . S
C205 C202 1.511 . S
C205 H219 0.961 . S
C205 H220 0.961 . S
C205 H221 0.961 . S
C206 C207 1.370 . S
C206 C208 1.363 . S
C206 H222 0.931 . S
C207 C206 1.370 . S
C207 C211 1.408 . S
C208 C206 1.363 . S
C208 C209 1.370 . S
C208 C212 1.524 . S
C209 C201 1.503 . S
C209 C208 1.370 . S
C209 C210 1.403 . S
C210 C209 1.403 . S
C210 C211 1.404 . S
C210 C213 1.539 . S
C211 C207 1.408 . S
C211 C210 1.404 . S
C211 H223 0.930 . S
C212 C208 1.524 . S
C212 H224 0.956 . S
C212 H225 0.961 . S
C212 H226 0.961 . S
C213 C210 1.539 . S
C213 H227 0.958 . S
C213 H228 0.961 . S
C213 H229 0.960 . S
H214 C198 0.931 . S
H215 C203 0.929 . S
H216 C204 0.960 . S
H217 C204 0.962 . S
H218 C204 0.960 . S
H219 C205 0.961 . S
H220 C205 0.961 . S
H221 C205 0.961 . S
H222 C206 0.931 . S
H223 C211 0.930 . S
H224 C212 0.956 . S
H225 C212 0.961 . S
H226 C212 0.961 . S
H227 C213 0.958 . S
H228 C213 0.961 . S
H229 C213 0.960 . S
C230 C231 1.391 . S
C230 C232 1.394 . S
C230 H246 0.931 . S
C231 C230 1.391 . S
C231 C235 1.376 . S
C232 C230 1.394 . S
C232 C233 1.369 . S
C232 C236 1.531 . S
C233 C232 1.369 . S
C233 C234 1.410 . S
C233 C241 1.503 . S
C234 C233 1.410 . S
C234 C235 1.392 . S
C234 C237 1.511 . S
C235 C231 1.376 . S
C235 C234 1.392 . S
C235 H247 0.929 . S
C236 C232 1.531 . S
C236 H248 0.960 . S
C236 H249 0.962 . S
C236 H250 0.960 . S
C237 C234 1.511 . S
C237 H251 0.961 . S
C237 H252 0.961 . S
C237 H253 0.961 . S
C238 C239 1.370 . S
C238 C240 1.363 . S
C238 H254 0.931 . S
C239 C238 1.370 . S
C239 C243 1.408 1_655 S
C240 C238 1.363 . S
C240 C241 1.370 . S
C240 C244 1.524 . S
C241 C233 1.503 . S
C241 C240 1.370 . S
C241 C242 1.403 . S
C242 C241 1.403 . S
C242 C243 1.404 1_655 S
C242 C245 1.539 . S
C243 C239 1.408 1_455 S
C243 C242 1.404 1_455 S
C243 H255 0.930 . S
C244 C240 1.524 . S
C244 H256 0.956 . S
C244 H257 0.961 . S
C244 H258 0.961 . S
C245 C242 1.539 . S
C245 H259 0.958 1_655 S
C245 H260 0.961 1_655 S
C245 H261 0.960 . S
H246 C230 0.931 . S
H247 C235 0.929 . S
H248 C236 0.960 . S
H249 C236 0.962 . S
H250 C236 0.960 . S
H251 C237 0.961 . S
H252 C237 0.961 . S
H253 C237 0.961 . S
H254 C238 0.931 . S
H255 C243 0.930 . S
H256 C244 0.956 . S
H257 C244 0.961 . S
H258 C244 0.961 . S
H259 C245 0.958 1_455 S
H260 C245 0.961 1_455 S
H261 C245 0.960 . S
C262 C263 1.391 . S
C262 C264 1.394 . S
C262 H278 0.931 . S
C263 C262 1.391 . S
C263 C267 1.376 . S
C264 C262 1.394 . S
C264 C265 1.369 . S
C264 C268 1.531 . S
C265 C264 1.369 . S
C265 C266 1.410 . S
C265 C273 1.503 . S
C266 C265 1.410 . S
C266 C267 1.392 . S
C266 C269 1.511 . S
C267 C263 1.376 . S
C267 C266 1.392 . S
C267 H279 0.929 . S
C268 C264 1.531 . S
C268 H280 0.960 . S
C268 H281 0.962 . S
C268 H282 0.960 . S
C269 C266 1.511 . S
C269 H283 0.961 . S
C269 H284 0.961 . S
C269 H285 0.961 . S
C270 C271 1.370 . S
C270 C272 1.363 . S
C270 H286 0.931 . S
C271 C270 1.370 . S
C271 C275 1.408 . S
C272 C270 1.363 . S
C272 C273 1.370 . S
C272 C276 1.524 . S
C273 C265 1.503 . S
C273 C272 1.370 . S
C273 C274 1.403 . S
C274 C273 1.403 . S
C274 C275 1.404 . S
C274 C277 1.539 . S
C275 C271 1.408 . S
C275 C274 1.404 . S
C275 H287 0.930 . S
C276 C272 1.524 . S
C276 H288 0.956 . S
C276 H289 0.961 . S
C276 H290 0.961 . S
C277 C274 1.539 . S
C277 H291 0.958 . S
C277 H292 0.961 . S
C277 H293 0.960 . S
H278 C262 0.931 . S
H279 C267 0.929 . S
H280 C268 0.960 . S
H281 C268 0.962 . S
H282 C268 0.960 . S
H283 C269 0.961 . S
H284 C269 0.961 . S
H285 C269 0.961 . S
H286 C270 0.931 . S
H287 C275 0.930 . S
H288 C276 0.956 . S
H289 C276 0.961 . S
H290 C276 0.961 . S
H291 C277 0.958 . S
H292 C277 0.961 . S
H293 C277 0.960 . S
C294 C295 1.391 . S
C294 C296 1.394 . S
C294 H310 0.931 . S
C295 C294 1.391 . S
C295 C299 1.376 . S
C296 C294 1.394 . S
C296 C297 1.369 . S
C296 C300 1.531 . S
C297 C296 1.369 . S
C297 C298 1.410 . S
C297 C305 1.503 . S
C298 C297 1.410 . S
C298 C299 1.392 . S
C298 C301 1.511 . S
C299 C295 1.376 . S
C299 C298 1.392 . S
C299 H311 0.929 . S
C300 C296 1.531 . S
C300 H312 0.960 . S
C300 H313 0.962 . S
C300 H314 0.960 . S
C301 C298 1.511 . S
C301 H315 0.961 . S
C301 H316 0.961 . S
C301 H317 0.961 . S
C302 C303 1.370 . S
C302 C304 1.363 . S
C302 H318 0.931 . S
C303 C302 1.370 . S
C303 C307 1.408 . S
C304 C302 1.363 . S
C304 C305 1.370 . S
C304 C308 1.524 . S
C305 C297 1.503 . S
C305 C304 1.370 . S
C305 C306 1.403 . S
C306 C305 1.403 . S
C306 C307 1.404 . S
C306 C309 1.539 . S
C307 C303 1.408 . S
C307 C306 1.404 . S
C307 H319 0.930 . S
C308 C304 1.524 . S
C308 H320 0.956 . S
C308 H321 0.961 . S
C308 H322 0.961 . S
C309 C306 1.539 . S
C309 H323 0.958 . S
C309 H324 0.961 . S
C309 H325 0.960 . S
H310 C294 0.931 . S
H311 C299 0.929 . S
H312 C300 0.960 . S
H313 C300 0.962 . S
H314 C300 0.960 . S
H315 C301 0.961 . S
H316 C301 0.961 . S
H317 C301 0.961 . S
H318 C302 0.931 . S
H319 C307 0.930 . S
H320 C308 0.956 . S
H321 C308 0.961 . S
H322 C308 0.961 . S
H323 C309 0.958 . S
H324 C309 0.961 . S
H325 C309 0.960 . S
C326 C327 1.391 . S
C326 C328 1.394 . S
C326 H342 0.931 . S
C327 C326 1.391 . S
C327 C331 1.376 . S
C328 C326 1.394 . S
C328 C329 1.369 . S
C328 C332 1.531 . S
C329 C328 1.369 . S
C329 C330 1.410 . S
C329 C337 1.503 . S
C330 C329 1.410 . S
C330 C331 1.392 . S
C330 C333 1.511 . S
C331 C327 1.376 . S
C331 C330 1.392 . S
C331 H343 0.929 . S
C332 C328 1.531 . S
C332 H344 0.960 . S
C332 H345 0.962 . S
C332 H346 0.960 . S
C333 C330 1.511 . S
C333 H347 0.961 . S
C333 H348 0.961 . S
C333 H349 0.961 . S
C334 C335 1.370 . S
C334 C336 1.363 . S
C334 H350 0.931 . S
C335 C334 1.370 . S
C335 C339 1.408 . S
C336 C334 1.363 . S
C336 C337 1.370 . S
C336 C340 1.524 . S
C337 C329 1.503 . S
C337 C336 1.370 . S
C337 C338 1.403 . S
C338 C337 1.403 . S
C338 C339 1.404 . S
C338 C341 1.539 . S
C339 C335 1.408 . S
C339 C338 1.404 . S
C339 H351 0.930 . S
C340 C336 1.524 . S
C340 H352 0.956 . S
C340 H353 0.961 . S
C340 H354 0.961 . S
C341 C338 1.539 . S
C341 H355 0.958 . S
C341 H356 0.961 . S
C341 H357 0.960 . S
H342 C326 0.931 . S
H343 C331 0.929 . S
H344 C332 0.960 . S
H345 C332 0.962 . S
H346 C332 0.960 . S
H347 C333 0.961 . S
H348 C333 0.961 . S
H349 C333 0.961 . S
H350 C334 0.931 . S
H351 C339 0.930 . S
H352 C340 0.956 . S
H353 C340 0.961 . S
H354 C340 0.961 . S
H355 C341 0.958 . S
H356 C341 0.961 . S
H357 C341 0.960 . S
C358 C359 1.391 . S
C358 C360 1.394 . S
C358 H374 0.931 . S
C359 C358 1.391 . S
C359 C363 1.376 . S
C360 C358 1.394 . S
C360 C361 1.369 . S
C360 C364 1.531 . S
C361 C360 1.369 . S
C361 C362 1.410 . S
C361 C369 1.503 . S
C362 C361 1.410 . S
C362 C363 1.392 . S
C362 C365 1.511 . S
C363 C359 1.376 . S
C363 C362 1.392 . S
C363 H375 0.929 . S
C364 C360 1.531 . S
C364 H376 0.960 . S
C364 H377 0.962 . S
C364 H378 0.960 . S
C365 C362 1.511 . S
C365 H379 0.961 . S
C365 H380 0.961 . S
C365 H381 0.961 . S
C366 C367 1.370 . S
C366 C368 1.363 . S
C366 H382 0.931 . S
C367 C366 1.370 . S
C367 C371 1.408 . S
C368 C366 1.363 . S
C368 C369 1.370 . S
C368 C372 1.524 . S
C369 C361 1.503 . S
C369 C368 1.370 . S
C369 C370 1.403 . S
C370 C369 1.403 . S
C370 C371 1.404 . S
C370 C373 1.539 . S
C371 C367 1.408 . S
C371 C370 1.404 . S
C371 H383 0.930 . S
C372 C368 1.524 . S
C372 H384 0.956 . S
C372 H385 0.961 . S
C372 H386 0.961 . S
C373 C370 1.539 . S
C373 H387 0.958 . S
C373 H388 0.961 . S
C373 H389 0.960 . S
H374 C358 0.931 . S
H375 C363 0.929 . S
H376 C364 0.960 . S
H377 C364 0.962 . S
H378 C364 0.960 . S
H379 C365 0.961 . S
H380 C365 0.961 . S
H381 C365 0.961 . S
H382 C366 0.931 . S
H383 C371 0.930 . S
H384 C372 0.956 . S
H385 C372 0.961 . S
H386 C372 0.961 . S
H387 C373 0.958 . S
H388 C373 0.961 . S
H389 C373 0.960 . S
C390 C391 1.391 . S
C390 C392 1.394 . S
C390 H406 0.931 . S
C391 C390 1.391 . S
C391 C395 1.376 . S
C392 C390 1.394 . S
C392 C393 1.369 . S
C392 C396 1.531 . S
C393 C392 1.369 . S
C393 C394 1.410 . S
C393 C401 1.503 . S
C394 C393 1.410 . S
C394 C395 1.392 . S
C394 C397 1.511 . S
C395 C391 1.376 . S
C395 C394 1.392 . S
C395 H407 0.929 . S
C396 C392 1.531 . S
C396 H408 0.960 . S
C396 H409 0.962 . S
C396 H410 0.960 . S
C397 C394 1.511 . S
C397 H411 0.961 . S
C397 H412 0.961 . S
C397 H413 0.961 . S
C398 C399 1.370 . S
C398 C400 1.363 . S
C398 H414 0.931 . S
C399 C398 1.370 . S
C399 C403 1.408 . S
C400 C398 1.363 . S
C400 C401 1.370 . S
C400 C404 1.524 . S
C401 C393 1.503 . S
C401 C400 1.370 . S
C401 C402 1.403 . S
C402 C401 1.403 . S
C402 C403 1.404 . S
C402 C405 1.539 . S
C403 C399 1.408 . S
C403 C402 1.404 . S
C403 H415 0.930 . S
C404 C400 1.524 . S
C404 H416 0.956 . S
C404 H417 0.961 . S
C404 H418 0.961 . S
C405 C402 1.539 . S
C405 H419 0.958 . S
C405 H420 0.961 . S
C405 H421 0.960 . S
H406 C390 0.931 . S
H407 C395 0.929 . S
H408 C396 0.960 . S
H409 C396 0.962 . S
H410 C396 0.960 . S
H411 C397 0.961 . S
H412 C397 0.961 . S
H413 C397 0.961 . S
H414 C398 0.931 . S
H415 C403 0.930 . S
H416 C404 0.956 . S
H417 C404 0.961 . S
H418 C404 0.961 . S
H419 C405 0.958 . S
H420 C405 0.961 . S
H421 C405 0.960 . S
C422 C423 1.391 . S
C422 C424 1.394 . S
C422 H438 0.931 . S
C423 C422 1.391 . S
C423 C427 1.376 . S
C424 C422 1.394 . S
C424 C425 1.369 . S
C424 C428 1.531 . S
C425 C424 1.369 . S
C425 C426 1.410 . S
C425 C433 1.503 . S
C426 C425 1.410 . S
C426 C427 1.392 . S
C426 C429 1.511 . S
C427 C423 1.376 . S
C427 C426 1.392 . S
C427 H439 0.929 . S
C428 C424 1.531 . S
C428 H440 0.960 . S
C428 H441 0.962 . S
C428 H442 0.960 . S
C429 C426 1.511 . S
C429 H443 0.961 . S
C429 H444 0.961 . S
C429 H445 0.961 . S
C430 C431 1.370 . S
C430 C432 1.363 . S
C430 H446 0.931 . S
C431 C430 1.370 . S
C431 C435 1.408 . S
C432 C430 1.363 . S
C432 C433 1.370 . S
C432 C436 1.524 . S
C433 C425 1.503 . S
C433 C432 1.370 . S
C433 C434 1.403 . S
C434 C433 1.403 . S
C434 C435 1.404 . S
C434 C437 1.539 . S
C435 C431 1.408 . S
C435 C434 1.404 . S
C435 H447 0.930 . S
C436 C432 1.524 . S
C436 H448 0.956 . S
C436 H449 0.961 . S
C436 H450 0.961 . S
C437 C434 1.539 . S
C437 H451 0.958 . S
C437 H452 0.961 . S
C437 H453 0.960 . S
H438 C422 0.931 . S
H439 C427 0.929 . S
H440 C428 0.960 . S
H441 C428 0.962 . S
H442 C428 0.960 . S
H443 C429 0.961 . S
H444 C429 0.961 . S
H445 C429 0.961 . S
H446 C430 0.931 . S
H447 C435 0.930 . S
H448 C436 0.956 . S
H449 C436 0.961 . S
H450 C436 0.961 . S
H451 C437 0.958 . S
H452 C437 0.961 . S
H453 C437 0.960 . S
C454 C455 1.391 . S
C454 C456 1.394 . S
C454 H470 0.931 . S
C455 C454 1.391 . S
C455 C459 1.376 . S
C456 C454 1.394 . S
C456 C457 1.369 . S
C456 C460 1.531 . S
C457 C456 1.369 . S
C457 C458 1.410 . S
C457 C465 1.503 . S
C458 C457 1.410 . S
C458 C459 1.392 . S
C458 C461 1.511 . S
C459 C455 1.376 . S
C459 C458 1.392 . S
C459 H471 0.929 . S
C460 C456 1.531 . S
C460 H472 0.960 . S
C460 H473 0.962 . S
C460 H474 0.960 . S
C461 C458 1.511 . S
C461 H475 0.961 . S
C461 H476 0.961 . S
C461 H477 0.961 . S
C462 C463 1.370 . S
C462 C464 1.363 . S
C462 H478 0.931 . S
C463 C462 1.370 . S
C463 C467 1.408 . S
C464 C462 1.363 . S
C464 C465 1.370 . S
C464 C468 1.524 . S
C465 C457 1.503 . S
C465 C464 1.370 . S
C465 C466 1.403 . S
C466 C465 1.403 . S
C466 C467 1.404 . S
C466 C469 1.539 . S
C467 C463 1.408 . S
C467 C466 1.404 . S
C467 H479 0.930 . S
C468 C464 1.524 . S
C468 H480 0.956 . S
C468 H481 0.961 . S
C468 H482 0.961 . S
C469 C466 1.539 . S
C469 H483 0.958 . S
C469 H484 0.961 . S
C469 H485 0.960 . S
H470 C454 0.931 . S
H471 C459 0.929 . S
H472 C460 0.960 . S
H473 C460 0.962 . S
H474 C460 0.960 . S
H475 C461 0.961 . S
H476 C461 0.961 . S
H477 C461 0.961 . S
H478 C462 0.931 . S
H479 C467 0.930 . S
H480 C468 0.956 . S
H481 C468 0.961 . S
H482 C468 0.961 . S
H483 C469 0.958 . S
H484 C469 0.961 . S
H485 C469 0.960 . S
C486 C487 1.391 . S
C486 C488 1.394 . S
C486 H502 0.931 . S
C487 C486 1.391 . S
C487 C491 1.376 . S
C488 C486 1.394 . S
C488 C489 1.369 . S
C488 C492 1.531 . S
C489 C488 1.369 . S
C489 C490 1.410 . S
C489 C497 1.503 . S
C490 C489 1.410 . S
C490 C491 1.392 . S
C490 C493 1.511 . S
C491 C487 1.376 . S
C491 C490 1.392 . S
C491 H503 0.929 . S
C492 C488 1.531 . S
C492 H504 0.960 . S
C492 H505 0.962 . S
C492 H506 0.960 . S
C493 C490 1.511 . S
C493 H507 0.961 . S
C493 H508 0.961 . S
C493 H509 0.961 . S
C494 C495 1.370 . S
C494 C496 1.363 . S
C494 H510 0.931 . S
C495 C494 1.370 . S
C495 C499 1.408 . S
C496 C494 1.363 . S
C496 C497 1.370 . S
C496 C500 1.524 . S
C497 C489 1.503 . S
C497 C496 1.370 . S
C497 C498 1.403 . S
C498 C497 1.403 . S
C498 C499 1.404 . S
C498 C501 1.539 . S
C499 C495 1.408 . S
C499 C498 1.404 . S
C499 H511 0.930 . S
C500 C496 1.524 . S
C500 H512 0.956 . S
C500 H513 0.961 . S
C500 H514 0.961 . S
C501 C498 1.539 . S
C501 H515 0.958 . S
C501 H516 0.961 . S
C501 H517 0.960 . S
H502 C486 0.931 . S
H503 C491 0.929 . S
H504 C492 0.960 . S
H505 C492 0.962 . S
H506 C492 0.960 . S
H507 C493 0.961 . S
H508 C493 0.961 . S
H509 C493 0.961 . S
H510 C494 0.931 . S
H511 C499 0.930 . S
H512 C500 0.956 . S
H513 C500 0.961 . S
H514 C500 0.961 . S
H515 C501 0.958 . S
H516 C501 0.961 . S
H517 C501 0.960 . S
C518 C519 1.391 . S
C518 C520 1.394 . S
C518 H534 0.931 . S
C519 C518 1.391 . S
C519 C523 1.376 . S
C520 C518 1.394 . S
C520 C521 1.369 . S
C520 C524 1.531 . S
C521 C520 1.369 . S
C521 C522 1.410 . S
C521 C529 1.503 . S
C522 C521 1.410 . S
C522 C523 1.392 . S
C522 C525 1.511 . S
C523 C519 1.376 . S
C523 C522 1.392 . S
C523 H535 0.929 . S
C524 C520 1.531 . S
C524 H536 0.960 . S
C524 H537 0.962 . S
C524 H538 0.960 . S
C525 C522 1.511 . S
C525 H539 0.961 . S
C525 H540 0.961 . S
C525 H541 0.961 . S
C526 C527 1.370 . S
C526 C528 1.363 . S
C526 H542 0.931 . S
C527 C526 1.370 . S
C527 C531 1.408 . S
C528 C526 1.363 . S
C528 C529 1.370 . S
C528 C532 1.524 . S
C529 C521 1.503 . S
C529 C528 1.370 . S
C529 C530 1.403 . S
C530 C529 1.403 . S
C530 C531 1.404 . S
C530 C533 1.539 . S
C531 C527 1.408 . S
C531 C530 1.404 . S
C531 H543 0.930 . S
C532 C528 1.524 . S
C532 H544 0.956 . S
C532 H545 0.961 . S
C532 H546 0.961 . S
C533 C530 1.539 . S
C533 H547 0.958 . S
C533 H548 0.961 . S
C533 H549 0.960 . S
H534 C518 0.931 . S
H535 C523 0.929 . S
H536 C524 0.960 . S
H537 C524 0.962 . S
H538 C524 0.960 . S
H539 C525 0.961 . S
H540 C525 0.961 . S
H541 C525 0.961 . S
H542 C526 0.931 . S
H543 C531 0.930 . S
H544 C532 0.956 . S
H545 C532 0.961 . S
H546 C532 0.961 . S
H547 C533 0.958 . S
H548 C533 0.961 . S
H549 C533 0.960 . S
C550 C551 1.391 . S
C550 C552 1.394 . S
C550 H566 0.931 . S
C551 C550 1.391 . S
C551 C555 1.376 . S
C552 C550 1.394 . S
C552 C553 1.369 . S
C552 C556 1.531 . S
C553 C552 1.369 . S
C553 C554 1.410 . S
C553 C561 1.503 . S
C554 C553 1.410 . S
C554 C555 1.392 . S
C554 C557 1.511 . S
C555 C551 1.376 . S
C555 C554 1.392 . S
C555 H567 0.929 . S
C556 C552 1.531 . S
C556 H568 0.960 . S
C556 H569 0.962 . S
C556 H570 0.960 . S
C557 C554 1.511 . S
C557 H571 0.961 . S
C557 H572 0.961 . S
C557 H573 0.961 . S
C558 C559 1.370 . S
C558 C560 1.363 . S
C558 H574 0.931 . S
C559 C558 1.370 . S
C559 C563 1.408 . S
C560 C558 1.363 . S
C560 C561 1.370 . S
C560 C564 1.524 . S
C561 C553 1.503 . S
C561 C560 1.370 . S
C561 C562 1.403 . S
C562 C561 1.403 . S
C562 C563 1.404 . S
C562 C565 1.539 . S
C563 C559 1.408 . S
C563 C562 1.404 . S
C563 H575 0.930 . S
C564 C560 1.524 . S
C564 H576 0.956 . S
C564 H577 0.961 . S
C564 H578 0.961 . S
C565 C562 1.539 . S
C565 H579 0.958 . S
C565 H580 0.961 . S
C565 H581 0.960 . S
H566 C550 0.931 . S
H567 C555 0.929 . S
H568 C556 0.960 . S
H569 C556 0.962 . S
H570 C556 0.960 . S
H571 C557 0.961 . S
H572 C557 0.961 . S
H573 C557 0.961 . S
H574 C558 0.931 . S
H575 C563 0.930 . S
H576 C564 0.956 . S
H577 C564 0.961 . S
H578 C564 0.961 . S
H579 C565 0.958 . S
H580 C565 0.961 . S
H581 C565 0.960 . S
C582 C583 1.391 . S
C582 C584 1.394 . S
C582 H598 0.931 . S
C583 C582 1.391 . S
C583 C587 1.376 1_455 S
C584 C582 1.394 . S
C584 C585 1.369 . S
C584 C588 1.531 . S
C585 C584 1.369 . S
C585 C586 1.410 1_455 S
C585 C593 1.503 1_554 S
C586 C585 1.410 1_655 S
C586 C587 1.392 . S
C586 C589 1.511 . S
C587 C583 1.376 1_655 S
C587 C586 1.392 . S
C587 H599 0.929 . S
C588 C584 1.531 . S
C588 H600 0.960 . S
C588 H601 0.962 . S
C588 H602 0.960 . S
C589 C586 1.511 . S
C589 H603 0.961 . S
C589 H604 0.961 1_554 S
C589 H605 0.961 . S
C590 C591 1.370 . S
C590 C592 1.363 . S
C590 H606 0.931 . S
C591 C590 1.370 . S
C591 C595 1.408 . S
C592 C590 1.363 . S
C592 C593 1.370 . S
C592 C596 1.524 . S
C593 C585 1.503 1_556 S
C593 C592 1.370 . S
C593 C594 1.403 . S
C594 C593 1.403 . S
C594 C595 1.404 . S
C594 C597 1.539 . S
C595 C591 1.408 . S
C595 C594 1.404 . S
C595 H607 0.930 . S
C596 C592 1.524 . S
C596 H608 0.956 1_556 S
C596 H609 0.956 1_456 S
C596 H610 0.961 . S
C597 C594 1.539 . S
C597 H611 0.953 1_556 S
C597 H612 0.961 . S
C597 H613 0.960 1_556 S
H598 C582 0.931 . S
H599 C587 0.929 . S
H600 C588 0.960 . S
H601 C588 0.962 . S
H602 C588 0.960 . S
H603 C589 0.961 . S
H604 C589 0.961 1_556 S
H605 C589 0.961 . S
H606 C590 0.931 . S
H607 C595 0.930 . S
H608 C596 0.956 1_554 S
H609 C596 0.956 1_654 S
H610 C596 0.961 . S
H611 C597 0.953 1_554 S
H612 C597 0.961 . S
H613 C597 0.960 1_554 S
C614 C615 1.391 . S
C614 C616 1.394 . S
C614 H630 0.931 . S
C615 C614 1.391 . S
C615 C619 1.376 . S
C616 C614 1.394 . S
C616 C617 1.369 . S
C616 C620 1.531 . S
C617 C616 1.369 . S
C617 C618 1.410 . S
C617 C625 1.503 . S
C618 C617 1.410 . S
C618 C619 1.392 . S
C618 C621 1.511 1_545 S
C619 C615 1.376 . S
C619 C618 1.392 . S
C619 H631 0.929 1_545 S
C620 C616 1.531 . S
C620 H632 0.960 . S
C620 H633 0.962 . S
C620 H634 0.960 . S
C621 C618 1.511 1_565 S
C621 H635 0.961 . S
C621 H636 0.961 . S
C621 H637 0.961 1_565 S
C622 C623 1.370 . S
C622 C624 1.363 . S
C622 H638 0.931 1_545 S
C623 C622 1.370 . S
C623 C627 1.408 . S
C624 C622 1.363 . S
C624 C625 1.370 . S
C624 C628 1.524 1_545 S
C625 C617 1.503 . S
C625 C624 1.370 . S
C625 C626 1.403 . S
C626 C625 1.403 . S
C626 C627 1.404 . S
C626 C629 1.539 . S
C627 C623 1.408 . S
C627 C626 1.404 . S
C627 H639 0.930 . S
C628 C624 1.524 1_565 S
C628 H640 0.956 . S
C628 H641 0.961 . S
C628 H642 0.961 . S
C629 C626 1.539 . S
C629 H643 0.958 . S
C629 H644 0.961 . S
C629 H645 0.960 . S
H630 C614 0.931 . S
H631 C619 0.929 1_565 S
H632 C620 0.960 . S
H633 C620 0.962 . S
H634 C620 0.960 . S
H635 C621 0.961 . S
H636 C621 0.961 . S
H637 C621 0.961 1_545 S
H638 C622 0.931 1_565 S
H639 C627 0.930 . S
H640 C628 0.956 . S
H641 C628 0.961 . S
H642 C628 0.961 . S
H643 C629 0.958 . S
H644 C629 0.961 . S
H645 C629 0.960 . S
C646 C647 1.391 . S
C646 C648 1.394 . S
C646 H662 0.931 . S
C647 C646 1.391 . S
C647 C651 1.376 . S
C648 C646 1.394 . S
C648 C649 1.369 . S
C648 C652 1.531 . S
C649 C648 1.369 . S
C649 C650 1.410 . S
C649 C657 1.503 . S
C650 C649 1.410 . S
C650 C651 1.392 . S
C650 C653 1.511 . S
C651 C647 1.376 . S
C651 C650 1.392 . S
C651 H663 0.929 . S
C652 C648 1.531 . S
C652 H664 0.960 . S
C652 H665 0.962 . S
C652 H666 0.960 . S
C653 C650 1.511 . S
C653 H667 0.961 . S
C653 H668 0.961 . S
C653 H669 0.961 . S
C654 C655 1.370 . S
C654 C656 1.363 . S
C654 H670 0.931 . S
C655 C654 1.370 . S
C655 C659 1.408 . S
C656 C654 1.363 . S
C656 C657 1.370 . S
C656 C660 1.524 . S
C657 C649 1.503 . S
C657 C656 1.370 . S
C657 C658 1.403 . S
C658 C657 1.403 . S
C658 C659 1.404 . S
C658 C661 1.539 . S
C659 C655 1.408 . S
C659 C658 1.404 . S
C659 H671 0.930 . S
C660 C656 1.524 . S
C660 H672 0.956 . S
C660 H673 0.961 . S
C660 H674 0.961 . S
C661 C658 1.539 . S
C661 H675 0.958 . S
C661 H676 0.961 . S
C661 H677 0.960 . S
H662 C646 0.931 . S
H663 C651 0.929 . S
H664 C652 0.960 . S
H665 C652 0.962 . S
H666 C652 0.960 . S
H667 C653 0.961 . S
H668 C653 0.961 . S
H669 C653 0.961 . S
H670 C654 0.931 . S
H671 C659 0.930 . S
H672 C660 0.956 . S
H673 C660 0.961 . S
H674 C660 0.961 . S
H675 C661 0.958 . S
H676 C661 0.961 . S
H677 C661 0.960 . S
C678 C679 1.391 1_565 S
C678 C680 1.394 . S
C678 H694 0.931 . S
C679 C678 1.391 1_545 S
C679 C683 1.376 . S
C680 C678 1.394 . S
C680 C681 1.378 . S
C680 C684 1.531 . S
C681 C680 1.378 . S
C681 C682 1.404 1_565 S
C681 C689 1.497 1_565 S
C682 C681 1.404 1_545 S
C682 C683 1.392 . S
C682 C685 1.511 . S
C683 C679 1.376 . S
C683 C682 1.392 . S
C683 H695 0.929 . S
C684 C680 1.531 . S
C684 H696 0.960 . S
C684 H697 0.962 . S
C684 H698 0.960 . S
C685 C682 1.511 . S
C685 H699 0.961 . S
C685 H700 0.961 . S
C685 H701 0.961 . S
C686 C687 1.370 . S
C686 C688 1.363 . S
C686 H702 0.931 . S
C687 C686 1.370 . S
C687 C691 1.408 1_545 S
C688 C686 1.363 . S
C688 C689 1.370 . S
C688 C692 1.524 . S
C689 C681 1.497 1_545 S
C689 C688 1.370 . S
C689 C690 1.403 1_545 S
C690 C689 1.403 1_565 S
C690 C691 1.404 . S
C690 C693 1.539 . S
C691 C687 1.408 1_565 S
C691 C690 1.404 . S
C691 H703 0.930 . S
C692 C688 1.524 . S
C692 H704 0.956 . S
C692 H705 0.961 . S
C692 H706 0.961 . S
C693 C690 1.539 . S
C693 H707 0.958 . S
C693 H708 0.961 . S
C693 H709 0.960 . S
H694 C678 0.931 . S
H695 C683 0.929 . S
H696 C684 0.960 . S
H697 C684 0.962 . S
H698 C684 0.960 . S
H699 C685 0.961 . S
H700 C685 0.961 . S
H701 C685 0.961 . S
H702 C686 0.931 . S
H703 C691 0.930 . S
H704 C692 0.956 . S
H705 C692 0.961 . S
H706 C692 0.961 . S
H707 C693 0.958 . S
H708 C693 0.961 . S
H709 C693 0.960 . S
C710 C711 1.391 . S
C710 C712 1.394 . S
C710 H726 0.931 . S
C711 C710 1.391 . S
C711 C715 1.376 . S
C712 C710 1.394 . S
C712 C713 1.369 . S
C712 C716 1.531 . S
C713 C712 1.369 . S
C713 C714 1.410 . S
C713 C721 1.503 1_556 S
C714 C713 1.410 . S
C714 C715 1.392 . S
C714 C717 1.511 . S
C715 C711 1.376 . S
C715 C714 1.392 . S
C715 H727 0.929 . S
C716 C712 1.531 . S
C716 H728 0.960 . S
C716 H729 0.962 . S
C716 H730 0.960 . S
C717 C714 1.511 . S
C717 H731 0.961 . S
C717 H732 0.961 1_556 S
C717 H733 0.961 . S
C718 C719 1.370 . S
C718 C720 1.363 . S
C718 H734 0.931 . S
C719 C718 1.370 . S
C719 C723 1.408 . S
C720 C718 1.363 . S
C720 C721 1.370 . S
C720 C724 1.524 . S
C721 C713 1.503 1_554 S
C721 C720 1.370 . S
C721 C722 1.403 . S
C722 C721 1.403 . S
C722 C723 1.404 . S
C722 C725 1.539 . S
C723 C719 1.408 . S
C723 C722 1.404 . S
C723 H735 0.930 . S
C724 C720 1.524 . S
C724 H736 0.956 1_554 S
C724 H737 0.961 1_554 S
C724 H738 0.961 . S
C725 C722 1.539 . S
C725 H739 0.958 . S
C725 H740 0.961 . S
C725 H741 0.960 1_554 S
H726 C710 0.931 . S
H727 C715 0.929 . S
H728 C716 0.960 . S
H729 C716 0.962 . S
H730 C716 0.960 . S
H731 C717 0.961 . S
H732 C717 0.961 1_554 S
H733 C717 0.961 . S
H734 C718 0.931 . S
H735 C723 0.930 . S
H736 C724 0.956 1_556 S
H737 C724 0.961 1_556 S
H738 C724 0.961 . S
H739 C725 0.958 . S
H740 C725 0.961 . S
H741 C725 0.960 1_556 S
C742 C743 1.391 . S
C742 C744 1.394 . S
C742 H758 0.931 . S
C743 C742 1.391 . S
C743 C747 1.376 1_455 S
C744 C742 1.394 . S
C744 C745 1.369 . S
C744 C748 1.531 . S
C745 C744 1.369 . S
C745 C746 1.410 1_455 S
C745 C753 1.503 . S
C746 C745 1.410 1_655 S
C746 C747 1.392 . S
C746 C749 1.511 . S
C747 C743 1.376 1_655 S
C747 C746 1.392 . S
C747 H759 0.929 . S
C748 C744 1.531 . S
C748 H760 0.960 . S
C748 H761 0.962 . S
C748 H762 0.960 . S
C749 C746 1.511 . S
C749 H763 0.961 . S
C749 H764 0.961 . S
C749 H765 0.961 . S
C750 C751 1.370 . S
C750 C752 1.363 . S
C750 H766 0.931 . S
C751 C750 1.370 . S
C751 C755 1.408 . S
C752 C750 1.363 . S
C752 C753 1.370 . S
C752 C756 1.524 . S
C753 C745 1.503 . S
C753 C752 1.370 . S
C753 C754 1.403 . S
C754 C753 1.403 . S
C754 C755 1.404 . S
C754 C757 1.539 1_455 S
C755 C751 1.408 . S
C755 C754 1.404 . S
C755 H767 0.930 . S
C756 C752 1.524 . S
C756 H768 0.956 . S
C756 H769 0.961 . S
C756 H770 0.961 . S
C757 C754 1.539 1_655 S
C757 H771 0.958 1_655 S
C757 H772 0.961 . S
C757 H773 0.960 . S
H758 C742 0.931 . S
H759 C747 0.929 . S
H760 C748 0.960 . S
H761 C748 0.962 . S
H762 C748 0.960 . S
H763 C749 0.961 . S
H764 C749 0.961 . S
H765 C749 0.961 . S
H766 C750 0.931 . S
H767 C755 0.930 . S
H768 C756 0.956 . S
H769 C756 0.961 . S
H770 C756 0.961 . S
H771 C757 0.958 1_455 S
H772 C757 0.961 . S
H773 C757 0.960 . S
C199 C19 1.933 . S
C207 C189 1.755 . S
C231 C46 1.196 . S
C239 C167 1.186 1_655 S
C263 C95 0.381 . S
C271 C180 0.210 . S
C295 C10 1.861 . S
C303 C193 1.846 . S
C335 C163 1.266 . S
C327 C55 1.314 . S
C367 C176 0.729 . S
C359 C86 0.677 . S
C391 C59 3.023 . S
C399 C141 2.991 . S
C423 C90 1.893 . S
C431 C154 1.876 1_655 S
C455 C15 1.329 . S
C463 C124 1.277 . S
C495 C137 2.877 . S
C487 C50 3.041 . S
C527 C150 1.799 . S
C519 C99 1.953 . S
C551 C6 1.103 . S
C559 C128 1.111 . S
C591 C155 1.469 . S
C583 C9 1.391 . S
C615 C58 1.528 . S
C623 C129 1.594 . S
C647 C98 1.666 . S
C655 C142 1.731 . S
C687 C181 1.302 . S
C679 C49 1.304 . S
C719 C194 1.440 . S
C711 C89 1.350 . S
C743 C18 1.453 . S
C751 C168 1.548 . S
