# Generated by pormake.
# Topology tsx, (6,3)-cn, num edge types: 1
# Building blocks:
#     Node 0, Type 0, BuildingBlock: JUFBIX_clean_sbu_0, # of connection points: 6
#     Node 1, Type 0, BuildingBlock: JUFBIX_clean_sbu_0, # of connection points: 6
#     Node 2, Type 1, BuildingBlock: BETDAH_clean_linker_0, # of connection points: 3
#     Node 3, Type 1, BuildingBlock: BETDAH_clean_linker_0, # of connection points: 3
#     Node 4, Type 1, BuildingBlock: BETDAH_clean_linker_0, # of connection points: 3
#     Node 5, Type 1, BuildingBlock: BETDAH_clean_linker_0, # of connection points: 3
#     Edge 6, Type (0, 1), BuildingBlock: ZUJKAS_clean_linker_0, # of connection points: 2
#     Edge 7, Type (0, 1), BuildingBlock: ZUJKAS_clean_linker_0, # of connection points: 2
#     Edge 8, Type (0, 1), BuildingBlock: ZUJKAS_clean_linker_0, # of connection points: 2
#     Edge 9, Type (0, 1), BuildingBlock: ZUJKAS_clean_linker_0, # of connection points: 2
#     Edge 10, Type (0, 1), BuildingBlock: ZUJKAS_clean_linker_0, # of connection points: 2
#     Edge 11, Type (0, 1), BuildingBlock: ZUJKAS_clean_linker_0, # of connection points: 2
#     Edge 12, Type (0, 1), BuildingBlock: ZUJKAS_clean_linker_0, # of connection points: 2
#     Edge 13, Type (0, 1), BuildingBlock: ZUJKAS_clean_linker_0, # of connection points: 2
#     Edge 14, Type (0, 1), BuildingBlock: ZUJKAS_clean_linker_0, # of connection points: 2
#     Edge 15, Type (0, 1), BuildingBlock: ZUJKAS_clean_linker_0, # of connection points: 2
#     Edge 16, Type (0, 1), BuildingBlock: ZUJKAS_clean_linker_0, # of connection points: 2
#     Edge 17, Type (0, 1), BuildingBlock: ZUJKAS_clean_linker_0, # of connection points: 2
# Relax obj value: 0.101
# Max RMSD: 0.124
# Mean RMSD: 0.113
data_MOF--net-tsx--node1-JUFBIX_clean_sbu_0--node2-BETDAH_clean_linker_0--edge1-ZUJKAS_clean_linker_0
_symmetry_space_group_name_H-M    P1
_symmetry_Int_Tables_number       1
_symmetry_cell_setting            triclinic
loop_
_symmetry_equiv_pos_as_xyz
'x, y, z'
_cell_length_a     26.137538
_cell_length_b     30.864253
_cell_length_c     42.470642
_cell_angle_alpha  92.185299
_cell_angle_beta   98.404535
_cell_angle_gamma 97.273882
loop_
_atom_site_label
_atom_site_type_symbol
_atom_site_fract_x
_atom_site_fract_y
_atom_site_fract_z
_atom_type_partial_charge
Co0 Co 0.0514 0.98974 0.00224 0.0
C1 C 0.00669 0.01098 0.94117 0.0
Co2 Co 0.98174 0.02418 0.00034 0.0
C3 C 0.12338 0.92371 0.00746 0.0
C4 C 0.15388 0.98307 0.98841 0.0
N5 N 0.11198 0.96416 0.00038 0.0
N6 N 0.17086 0.91708 0.00057 0.0
C7 C 0.19001 0.9545 0.98868 0.0
H8 H 0.09713 0.89941 0.01699 0.0
H9 H 0.15734 0.01512 0.97888 0.0
C10 C 0.0267 0.0045 0.06146 0.0
N11 N 0.92159 0.04951 0.00235 0.0
C12 C 0.90871 0.08841 0.9926 0.0
C13 C 0.88244 0.0331 0.01775 0.0
N14 N 0.86337 0.09695 0.00168 0.0
C15 C 0.8467 0.06204 0.01734 0.0
C16 C 0.96097 0.93227 0.99583 0.0
O17 O 0.05955 0.98704 0.04749 0.0
O18 O 0.99091 0.02173 0.04498 0.0
O19 O 0.94147 0.96792 0.99592 0.0
O20 O 0.01015 0.93362 -0.00227 0.0
O21 O 0.9733 0.02684 0.95557 0.0
H22 H 0.88078 0.00257 0.02949 0.0
H23 H 0.93316 0.11081 0.98031 0.0
O24 O 0.04267 0.99311 0.95711 0.0
O25 O 0.09161 0.04634 0.00712 0.0
O26 O 0.02249 0.08013 0.00486 0.0
C27 C 0.07172 0.08181 0.00747 0.0
H28 H 0.2266 0.96016 0.97944 0.0
H29 H 0.81142 0.0579 0.02807 0.0
Co30 Co 0.56223 0.48913 0.50318 0.0
C31 C 0.51611 0.50815 0.44171 0.0
Co32 Co 0.49247 0.52348 0.50084 0.0
C33 C 0.63435 0.42335 0.50864 0.0
C34 C 0.66481 0.48251 0.48933 0.0
N35 N 0.62296 0.46375 0.50143 0.0
N36 N 0.68174 0.41659 0.50171 0.0
C37 C 0.7009 0.45389 0.48966 0.0
H38 H 0.60812 0.39913 0.51826 0.0
H39 H 0.66825 0.51444 0.47963 0.0
C40 C 0.53904 0.50659 0.56234 0.0
N41 N 0.43215 0.54855 0.50291 0.0
C42 C 0.41895 0.5874 0.49326 0.0
C43 C 0.39362 0.53221 0.51883 0.0
N44 N 0.37407 0.59596 0.50296 0.0
C45 C 0.35797 0.56116 0.51886 0.0
C46 C 0.47241 0.4315 0.4981 0.0
O47 O 0.57141 0.48809 0.54864 0.0
O48 O 0.50284 0.52293 0.54554 0.0
O49 O 0.45275 0.46707 0.49773 0.0
O50 O 0.52155 0.43293 0.49984 0.0
O51 O 0.48289 0.52441 0.45602 0.0
H52 H 0.3925 0.50187 0.53079 0.0
H53 H 0.44297 0.60986 0.48076 0.0
O54 O 0.55254 0.49097 0.45783 0.0
O55 O 0.60188 0.54578 0.50689 0.0
O56 O 0.53269 0.57957 0.50402 0.0
C57 C 0.58192 0.58123 0.50659 0.0
H58 H 0.73742 0.45939 0.48033 0.0
H59 H 0.32329 0.55721 0.53019 0.0
H60 H 0.07296 0.93315 0.38992 0.0
H61 H 0.98324 0.03466 0.41219 0.0
H62 H 0.05622 0.96251 0.48706 0.0
C63 C 0.05672 0.95167 0.40735 0.0
C64 C 0.06798 0.94366 0.43966 0.0
C65 C 0.02598 0.9841 0.39722 0.0
C66 C 0.00689 0.00953 0.41994 0.0
C67 C 0.01789 0.00169 0.45255 0.0
C68 C 0.0484 0.96889 0.46208 0.0
N69 N 0.99894 0.0256 0.47658 0.0
C70 C 0.96679 0.05798 0.47144 0.0
H71 H 0.92938 0.97926 0.60955 0.0
H72 H 0.07371 0.05557 0.59675 0.0
H73 H 0.99194 0.96277 0.5226 0.0
C74 C 0.9583 0.98936 0.59447 0.0
C75 C 0.95462 0.96817 0.56429 0.0
C76 C 1.00131 0.02059 0.60652 0.0
C77 C 0.04014 0.03192 0.58745 0.0
C78 C 0.03643 0.01124 0.55695 0.0
C79 C 0.99409 0.97922 0.54582 0.0
N80 N 0.07564 0.02002 0.53737 0.0
C81 C 0.11252 0.05708 0.54075 0.0
H82 H 0.57213 0.44278 0.88746 0.0
H83 H 0.47978 0.54149 0.91127 0.0
H84 H 0.5453 0.46203 0.98392 0.0
C85 C 0.55441 0.45959 0.90508 0.0
C86 C 0.56261 0.4485 0.93689 0.0
C87 C 0.52438 0.49273 0.89568 0.0
C88 C 0.50291 0.51584 0.91857 0.0
C89 C 0.51055 0.50474 0.95065 0.0
C90 C 0.54031 0.47117 0.95945 0.0
N91 N 0.48862 0.52586 0.97475 0.0
C92 C 0.45705 0.55877 0.97013 0.0
H93 H 0.4266 0.47666 0.10993 0.0
H94 H 0.57082 0.55115 0.09472 0.0
H95 H 0.48334 0.46037 0.021 0.0
C96 C 0.45474 0.48651 0.09429 0.0
C97 C 0.4489 0.46576 0.06381 0.0
C98 C 0.49881 0.51697 0.1058 0.0
C99 C 0.53646 0.52807 0.08588 0.0
C100 C 0.53053 0.50787 0.05507 0.0
C101 C 0.48721 0.47649 0.04449 0.0
N102 N 0.56844 0.51632 0.03459 0.0
C103 C 0.60598 0.5529 0.03719 0.0
H104 H 0.04458 0.16381 0.0168 0.0
H105 H 0.10229 0.23379 0.02261 0.0
H106 H 0.23317 0.16581 0.01099 0.0
H107 H 0.17628 0.09596 0.0054 0.0
H108 H 0.19866 0.25475 0.07067 0.0
H109 H 0.23435 0.26473 0.94519 0.0
H110 H 0.17834 0.2316 0.95624 0.0
H111 H 0.24123 0.21303 0.9624 0.0
C112 C 0.08561 0.1638 0.01536 0.0
C113 C 0.10585 0.12432 0.01063 0.0
C114 C 0.11844 0.20375 0.01867 0.0
C115 C 0.17174 0.20486 0.01683 0.0
C116 C 0.19197 0.1656 0.01203 0.0
H117 H 0.45299 0.3852 0.03621 0.0
H118 H 0.382 0.32462 0.02358 0.0
C119 C 0.1594 0.12571 0.009 0.0
C120 C 0.20707 0.24673 0.02125 0.0
H121 H 0.28924 0.31441 0.98366 0.0
C122 C 0.21805 0.26824 0.05162 0.0
C123 C 0.23237 0.26384 0.99633 0.0
C124 C 0.22083 0.2424 0.96309 0.0
C125 C 0.25542 0.3056 0.05811 0.0
C126 C 0.28137 0.32249 0.03325 0.0
C127 C 0.26931 0.30148 0.00266 0.0
C128 C 0.32314 0.36048 0.03894 0.0
C129 C 0.26844 0.32534 0.09185 0.0
C130 C 0.31335 0.40114 0.05094 0.0
C131 C 0.35395 0.43574 0.05835 0.0
C132 C 0.40488 0.43048 0.05339 0.0
C133 C 0.41408 0.39034 0.04006 0.0
C134 C 0.3736 0.35566 0.03294 0.0
H135 H 0.25504 0.30221 0.10931 0.0
H136 H 0.31112 0.33526 0.09852 0.0
H137 H 0.24866 0.35487 0.09382 0.0
H138 H 0.27444 0.40597 0.05494 0.0
H139 H 0.34564 0.46654 0.06818 0.0
H140 H 0.12295 0.83307 0.99296 0.0
H141 H 0.16567 0.76678 0.99031 0.0
H142 H 0.31628 0.84597 0.00828 0.0
H143 H 0.27407 0.91175 0.01159 0.0
H144 H 0.23265 0.74908 0.94658 0.0
H145 H 0.33409 0.74962 0.07054 0.0
H146 H 0.28124 0.78119 0.05957 0.0
H147 H 0.34635 0.80121 0.05306 0.0
C148 C 0.16514 0.83615 0.99707 0.0
C149 C 0.19517 0.87764 0.00243 0.0
C150 C 0.18948 0.79834 0.99533 0.0
C151 C 0.24418 0.8014 -0.00059 0.0
C152 C 0.27408 0.84269 0.00559 0.0
H153 H 0.48874 0.64518 0.98008 0.0
H154 H 0.4333 0.70274 0.98587 0.0
C155 C 0.24989 0.88033 0.00717 0.0
C156 C 0.27049 0.76213 0.99515 0.0
H157 H 0.36522 0.70608 0.03134 0.0
C158 C 0.26108 0.73919 0.96523 0.0
C159 C 0.30766 0.74941 0.01949 0.0
C160 C 0.31762 0.77137 0.05256 0.0
C161 C 0.28954 0.70509 0.95857 0.0
C162 C 0.32785 0.69331 0.98264 0.0
C163 C 0.33616 0.71543 0.01282 0.0
C164 C 0.36067 0.65875 0.97693 0.0
C165 C 0.27984 0.68313 0.9255 0.0
C166 C 0.33821 0.61502 0.9698 0.0
C167 C 0.36984 0.5823 0.96636 0.0
C168 C 0.4242 0.59293 0.97003 0.0
C169 C 0.44672 0.63655 0.97675 0.0
C170 C 0.41516 0.66927 0.98021 0.0
H171 H 0.25785 0.70239 0.90795 0.0
H172 H 0.31722 0.67818 0.91729 0.0
H173 H 0.25656 0.65054 0.92589 0.0
H174 H 0.29639 0.60603 0.96779 0.0
H175 H 0.35195 0.54859 0.96169 0.0
H176 H 0.85488 0.91979 0.99054 0.0
H177 H 0.79844 0.85256 0.99694 0.0
H178 H 0.93177 0.78223 0.00859 0.0
H179 H 0.98907 0.84984 0.00263 0.0
H180 H 0.78028 0.77226 0.9629 0.0
H181 H 0.86552 0.75673 0.0891 0.0
H182 H 0.87818 0.80613 0.0685 0.0
H183 H 0.91139 0.76002 0.06134 0.0
C184 C 0.87235 0.89003 0.99424 0.0
C185 C 0.92662 0.89029 0.99626 0.0
C186 C 0.83993 0.85159 -0.0021 0.0
C187 C 0.86097 0.81257 0.0038 0.0
C188 C 0.91487 0.81221 0.00469 0.0
H189 H 0.67377 0.5566 0.99567 0.0
H190 H 0.73772 0.61911 0.98781 0.0
C191 C 0.94748 0.85078 0.00101 0.0
C192 C 0.82611 0.77267 0.00937 0.0
H193 H 0.7999 0.70015 0.06561 0.0
C194 C 0.78469 0.75636 0.9853 0.0
C195 C 0.83144 0.75247 0.03883 0.0
C196 C 0.87371 0.76984 0.06609 0.0
C197 C 0.74857 0.72028 0.98981 0.0
C198 C 0.7545 0.69954 0.01902 0.0
C199 C 0.79573 0.71595 0.04317 0.0
C200 C 0.71784 0.66102 0.02496 0.0
C201 C 0.70362 0.70531 0.96354 0.0
C202 C 0.6866 0.66343 0.0491 0.0
C203 C 0.6503 0.62765 0.0537 0.0
C204 C 0.64532 0.58908 0.03438 0.0
C205 C 0.67727 0.58623 0.01082 0.0
C206 C 0.71345 0.6219 0.0062 0.0
H207 H 0.69743 0.73087 0.94617 0.0
H208 H 0.71205 0.67587 0.95044 0.0
H209 H 0.66691 0.69643 0.97346 0.0
H210 H 0.68954 0.6933 0.06389 0.0
H211 H 0.62569 0.63032 0.07193 0.0
H212 H 0.86436 0.14982 0.95218 0.0
H213 H 0.81723 0.21331 0.9437 0.0
H214 H 0.76025 0.19576 0.03332 0.0
H215 H 0.80672 0.13246 0.04173 0.0
H216 H 0.68258 0.20331 0.9849 0.0
H217 H 0.84596 0.33699 0.98512 0.0
H218 H 0.84662 0.29176 0.95737 0.0
H219 H 0.85572 0.28386 -0.00055 0.0
C220 C 0.8424 0.15999 0.97023 0.0
C221 C 0.83883 0.13597 0.99746 0.0
C222 C 0.81565 0.1963 0.96544 0.0
C223 C 0.78561 0.20947 0.98804 0.0
C224 C 0.78312 0.18612 0.01556 0.0
H225 H 0.63704 0.44752 0.98944 0.0
H226 H 0.69073 0.3894 0.00353 0.0
C227 C 0.80945 0.1498 0.02024 0.0
C228 C 0.75379 0.24564 0.9822 0.0
H229 H 0.76022 0.3542 0.96802 0.0
C230 C 0.69961 0.23636 0.98138 0.0
C231 C 0.77616 0.28882 0.97803 0.0
C232 C 0.83436 0.30119 0.98033 0.0
C233 C 0.66703 0.26888 0.97591 0.0
C234 C 0.68912 0.31165 0.97047 0.0
C235 C 0.74341 0.32125 0.97196 0.0
C236 C 0.65624 0.3465 0.96237 0.0
C237 C 0.60927 0.25723 0.97629 0.0
C238 C 0.61932 0.34157 0.93456 0.0
C239 C 0.58842 0.37438 0.92663 0.0
C240 C 0.59419 0.41302 0.9462 0.0
C241 C 0.63126 0.4179 0.9741 0.0
C242 C 0.6622 0.38495 0.98204 0.0
H243 H 0.60087 0.22743 0.98953 0.0
H244 H 0.59284 0.28452 0.98731 0.0
H245 H 0.58891 0.25058 0.95144 0.0
H246 H 0.61467 0.31243 0.91882 0.0
H247 H 0.55989 0.36943 0.90515 0.0
H248 H 0.55458 0.66364 0.51361 0.0
H249 H 0.61289 0.73319 0.52068 0.0
H250 H 0.74434 0.66408 0.51277 0.0
H251 H 0.68689 0.59469 0.50643 0.0
H252 H 0.76168 0.72215 0.56447 0.0
H253 H 0.68476 0.80205 0.45564 0.0
H254 H 0.63692 0.78375 0.48029 0.0
H255 H 0.66841 0.74437 0.46064 0.0
C256 C 0.59586 0.66334 0.51315 0.0
C257 C 0.61612 0.62364 0.5095 0.0
C258 C 0.62906 0.70311 0.51697 0.0
C259 C 0.68285 0.70382 0.51683 0.0
C260 C 0.70294 0.66427 0.51286 0.0
H261 H 0.96243 0.88837 0.53673 0.0
H262 H 0.89368 0.82609 0.52376 0.0
C263 C 0.66998 0.62462 0.50924 0.0
C264 C 0.71907 0.74528 0.52254 0.0
H265 H 0.75061 0.84469 0.49252 0.0
C266 C 0.75923 0.74891 0.54872 0.0
C267 C 0.71565 0.7802 0.502 0.0
C268 C 0.67442 0.77745 0.47289 0.0
C269 C 0.79627 0.78637 0.55483 0.0
C270 C 0.79327 0.82096 0.5341 0.0
C271 C 0.75264 0.81791 0.50827 0.0
C272 C 0.83308 0.86003 0.53875 0.0
C273 C 0.83849 0.7888 0.58342 0.0
C274 C 0.82117 0.89994 0.55063 0.0
C275 C 0.86035 0.93563 0.55804 0.0
C276 C 0.91189 0.93197 0.55343 0.0
C277 C 0.92305 0.89237 0.54026 0.0
C278 C 0.88395 0.8567 0.53303 0.0
H279 H 0.82979 0.76312 0.60023 0.0
H280 H 0.87604 0.78432 0.57528 0.0
H281 H 0.84359 0.82137 0.59638 0.0
H282 H 0.78199 0.90301 0.55509 0.0
H283 H 0.85054 0.96589 0.56785 0.0
H284 H 0.63333 0.33278 0.49397 0.0
H285 H 0.6756 0.26626 0.49121 0.0
H286 H 0.8266 0.34483 0.50935 0.0
H287 H 0.78483 0.41086 0.51271 0.0
H288 H 0.74304 0.2488 0.44731 0.0
H289 H 0.84291 0.24785 0.57156 0.0
H290 H 0.79015 0.2795 0.56054 0.0
H291 H 0.85538 0.29963 0.55435 0.0
C292 C 0.67551 0.33567 0.49809 0.0
C293 C 0.7058 0.37704 0.50352 0.0
C294 C 0.69959 0.29774 0.49628 0.0
C295 C 0.75426 0.30058 0.50037 0.0
C296 C 0.78442 0.34175 0.50663 0.0
H297 H 0.99842 0.14424 0.4818 0.0
H298 H 0.94287 0.20175 0.48738 0.0
C299 C 0.76048 0.37952 0.50826 0.0
C300 C 0.78027 0.26121 0.49605 0.0
H301 H 0.87411 0.20442 0.53236 0.0
C302 C 0.77114 0.2386 0.46601 0.0
C303 C 0.81699 0.24809 0.52047 0.0
C304 C 0.82663 0.26975 0.55364 0.0
C305 C 0.79949 0.20445 0.45933 0.0
C306 C 0.83739 0.19229 0.48349 0.0
C307 C 0.84536 0.21406 0.51379 0.0
C308 C 0.87024 0.15781 0.47775 0.0
C309 C 0.79017 0.18286 0.42615 0.0
C310 C 0.84779 0.11414 0.47028 0.0
C311 C 0.87949 0.08144 0.46693 0.0
C312 C 0.93388 0.09208 0.47105 0.0
C313 C 0.95638 0.13564 0.47809 0.0
C314 C 0.92476 0.16832 0.48144 0.0
H315 H 0.76847 0.20235 0.40863 0.0
H316 H 0.82769 0.17796 0.4181 0.0
H317 H 0.76677 0.15027 0.42625 0.0
H318 H 0.80594 0.10517 0.46795 0.0
H319 H 0.86163 0.04776 0.46203 0.0
H320 H 0.36626 0.4186 0.49146 0.0
H321 H 0.30983 0.35149 0.49823 0.0
H322 H 0.4438 0.28223 0.51367 0.0
H323 H 0.50107 0.34969 0.50722 0.0
H324 H 0.29566 0.26873 0.46503 0.0
H325 H 0.37299 0.26061 0.5936 0.0
H326 H 0.38547 0.30924 0.57211 0.0
H327 H 0.42045 0.26369 0.56682 0.0
C328 C 0.38388 0.38908 0.49607 0.0
C329 C 0.43827 0.38957 0.49898 0.0
C330 C 0.35148 0.35074 0.49993 0.0
C331 C 0.3727 0.31211 0.50695 0.0
C332 C 0.42678 0.31195 0.50881 0.0
H333 H 0.21671 0.05818 0.5493 0.0
H334 H 0.28198 0.11981 0.54117 0.0
C335 C 0.45936 0.35041 0.50488 0.0
C336 C 0.33779 0.27247 0.51276 0.0
H337 H 0.30685 0.20444 0.57075 0.0
C338 C 0.29819 0.25453 0.4881 0.0
C339 C 0.34125 0.25408 0.54289 0.0
C340 C 0.38202 0.27296 0.57053 0.0
C341 C 0.26182 0.21873 0.49275 0.0
C342 C 0.26451 0.20098 0.52309 0.0
C343 C 0.30476 0.2183 0.54758 0.0
C344 C 0.22552 0.16468 0.52988 0.0
C345 C 0.2211 0.19999 0.46504 0.0
C346 C 0.17244 0.16992 0.5271 0.0
C347 C 0.13538 0.13489 0.5318 0.0
C348 C 0.15107 0.09443 0.53967 0.0
C349 C 0.20412 0.08943 0.54349 0.0
C350 C 0.24122 0.12445 0.53877 0.0
H351 H 0.23284 0.20923 0.44184 0.0
H352 H 0.21383 0.16375 0.46502 0.0
H353 H 0.18393 0.21294 0.46706 0.0
H354 H 0.15963 0.20093 0.52086 0.0
H355 H 0.09443 0.13911 0.52858 0.0
H356 H 0.37066 0.64756 0.45274 0.0
H357 H 0.32298 0.71091 0.44523 0.0
H358 H 0.27555 0.69619 0.5378 0.0
H359 H 0.3223 0.63284 0.5451 0.0
H360 H 0.19412 0.70245 0.49263 0.0
H361 H 0.354 0.83557 0.48352 0.0
H362 H 0.35194 0.78965 0.45591 0.0
H363 H 0.36596 0.783 0.49806 0.0
C364 C 0.35068 0.65837 0.4716 0.0
C365 C 0.34973 0.63511 0.49934 0.0
C366 C 0.32366 0.6946 0.46739 0.0
C367 C 0.29611 0.70851 0.49111 0.0
C368 C 0.29646 0.68599 0.51918 0.0
H369 H 0.14701 0.9468 0.49021 0.0
H370 H 0.20196 0.88976 0.50503 0.0
C371 C 0.32294 0.64967 0.52324 0.0
C372 C 0.26368 0.74438 0.48593 0.0
H373 H 0.26701 0.85165 0.46844 0.0
C374 C 0.21016 0.73516 0.48756 0.0
C375 C 0.28478 0.78717 0.47977 0.0
C376 C 0.34241 0.79966 0.47951 0.0
C377 C 0.17692 0.76726 0.4825 0.0
C378 C 0.19755 0.80947 0.47488 0.0
C379 C 0.25127 0.81911 0.47403 0.0
C380 C 0.16361 0.84353 0.46663 0.0
C381 C 0.12006 0.75574 0.48557 0.0
C382 C 0.12405 0.83635 0.44016 0.0
C383 C 0.09244 0.86854 0.43185 0.0
C384 C 0.10015 0.90882 0.44965 0.0
C385 C 0.13975 0.91592 0.47627 0.0
C386 C 0.17138 0.88357 0.4846 0.0
H387 H 0.11387 0.72728 0.50048 0.0
H388 H 0.10452 0.78383 0.4962 0.0
H389 H 0.09722 0.74687 0.46155 0.0
H390 H 0.11795 0.80594 0.42569 0.0
H391 H 0.06195 0.86189 0.41142 0.0
H392 H 0.08533 0.95973 0.105 0.0
H393 H 0.08289 0.95886 0.16265 0.0
H394 H 0.97107 0.05081 0.15411 0.0
H395 H 0.97246 0.05137 0.09701 0.0
H396 H 0.10342 0.02716 0.21074 0.0
H397 H 0.89756 0.94921 0.19651 0.0
H398 H 0.93539 0.95076 0.16417 0.0
H399 H 0.9065 0.99794 0.1751 0.0
C400 C 0.06039 0.97979 0.1155 0.0
C401 C 0.02865 0.00517 0.09641 0.0
C402 C 0.05903 0.97928 0.14834 0.0
C403 C 0.02596 0.0041 0.16242 0.0
C404 C 0.99584 0.03061 0.14357 0.0
H405 H 0.03857 0.06096 0.3673 0.0
H406 H 0.03537 0.06899 0.30969 0.0
C407 C 0.99691 0.03096 0.11092 0.0
C408 C 0.02222 0.00228 0.19677 0.0
H409 H 0.93592 0.97767 0.24856 0.0
C410 C 0.06691 0.01624 0.21908 0.0
C411 C 0.97453 0.98769 0.20747 0.0
C412 C 0.92586 0.97014 0.18459 0.0
C413 C 0.06507 0.01636 0.25196 0.0
C414 C 0.017 0.00296 0.26263 0.0
C415 C 0.97246 0.98867 0.24027 0.0
C416 C 0.01312 0.99986 0.2969 0.0
C417 C 0.11484 0.02969 0.27495 0.0
C418 C 0.99879 0.95885 0.30844 0.0
C419 C 0.99991 0.95436 0.34102 0.0
C420 C 0.01537 0.99083 0.3627 0.0
C421 C 0.02648 0.0324 0.35103 0.0
C422 C 0.02532 0.03689 0.31826 0.0
H423 H 0.14998 0.02976 0.26304 0.0
H424 H 0.11474 0.06325 0.28527 0.0
H425 H 0.11795 0.00735 0.29483 0.0
H426 H 0.98875 0.92995 0.29232 0.0
H427 H 0.99057 0.92202 0.34942 0.0
H428 H 0.93246 0.04215 0.89873 0.0
H429 H 0.93305 0.05062 0.84163 0.0
H430 H 0.0804 0.99987 0.84875 0.0
H431 H 0.07961 0.99033 0.9054 0.0
H432 H 1.00428 0.09965 0.81059 0.0
H433 H 0.99267 0.92327 0.77602 0.0
H434 H 0.98015 0.94254 0.81443 0.0
H435 H 0.04612 0.94198 0.807 0.0
C436 C 0.96474 0.03243 0.88805 0.0
C437 C 0.00569 0.0151 0.90652 0.0
C438 C 0.96511 0.03747 0.85548 0.0
C439 C 0.00636 0.02525 0.84088 0.0
C440 C 0.04758 0.00855 0.85937 0.0
H441 H 0.08757 0.02186 0.65122 0.0
H442 H 0.09179 0.03073 0.70911 0.0
C443 C 0.0471 0.00322 0.8918 0.0
C444 C 0.00678 0.03017 0.80636 0.0
H445 H 0.01395 0.97312 0.73708 0.0
C446 C 0.00609 0.07199 0.79444 0.0
C447 C 0.0089 0.99397 0.78535 0.0
C448 C 0.00647 0.94786 0.79625 0.0
C449 C 0.00868 0.07865 0.76213 0.0
C450 C 0.01198 0.04258 0.74141 0.0
C451 C 0.0122 0.0008 0.75325 0.0
C452 C 0.01314 0.0466 0.70697 0.0
C453 C 0.00868 0.12412 0.75037 0.0
C454 C 0.96806 0.05398 0.68673 0.0
C455 C 0.96554 0.04889 0.65369 0.0
C456 C 0.00807 0.03634 0.64044 0.0
C457 C 0.05445 0.03205 0.66074 0.0
C458 C 0.05682 0.03685 0.69378 0.0
H459 H 0.0156 0.14952 0.77033 0.0
H460 H 0.03906 0.13103 0.73481 0.0
H461 H 0.97027 0.12655 0.73594 0.0
H462 H 0.93376 0.061 0.6965 0.0
H463 H 0.92937 0.05244 0.63853 0.0
H464 H 0.49398 0.56275 0.59647 0.0
H465 H 0.49363 0.56755 0.65367 0.0
H466 H 0.58986 0.46381 0.6651 0.0
H467 H 0.59148 0.45947 0.60732 0.0
H468 H 0.45302 0.50373 0.68755 0.0
H469 H 0.66228 0.55383 0.73542 0.0
H470 H 0.63619 0.55697 0.69391 0.0
H471 H 0.65008 0.50546 0.70912 0.0
C472 C 0.51555 0.54111 0.6111 0.0
C473 C 0.54257 0.51049 0.59737 0.0
C474 C 0.51534 0.54401 0.64384 0.0
C475 C 0.54193 0.51629 0.66369 0.0
C476 C 0.56987 0.48611 0.65026 0.0
H477 H 0.48341 0.43514 0.84622 0.0
H478 H 0.48436 0.44554 0.78957 0.0
C479 C 0.57055 0.48346 0.61729 0.0
C480 C 0.5369 0.5173 0.69798 0.0
H481 H 0.6061 0.53201 0.7731 0.0
C482 C 0.48652 0.51021 0.70624 0.0
C483 C 0.58053 0.52644 0.72231 0.0
C484 C 0.63531 0.53654 0.71484 0.0
C485 C 0.47863 0.51094 0.73817 0.0
C486 C 0.52233 0.51818 0.76249 0.0
C487 C 0.57267 0.52641 0.75433 0.0
C488 C 0.51684 0.51389 0.79642 0.0
C489 C 0.42356 0.50394 0.74561 0.0
C490 C 0.53436 0.54906 0.819 0.0
C491 C 0.53359 0.54319 0.85147 0.0
C492 C 0.51603 0.50192 0.86162 0.0
C493 C 0.49685 0.46731 0.83885 0.0
C494 C 0.4973 0.47323 0.80655 0.0
H495 H 0.395 0.5118 0.72529 0.0
H496 H 0.41329 0.46906 0.7504 0.0
H497 H 0.41972 0.52429 0.76706 0.0
H498 H 0.54981 0.58063 0.81156 0.0
H499 H 0.54918 0.57012 0.86871 0.0
H500 H 0.4411 0.53814 0.39922 0.0
H501 H 0.44089 0.54579 0.342 0.0
H502 H 0.58829 0.49514 0.34882 0.0
H503 H 0.58829 0.48642 0.40566 0.0
H504 H 0.51152 0.59481 0.31086 0.0
H505 H 0.50059 0.41847 0.27616 0.0
H506 H 0.48842 0.43764 0.31469 0.0
H507 H 0.55427 0.43758 0.30691 0.0
C508 C 0.4732 0.52822 0.38845 0.0
C509 C 0.51445 0.51126 0.40692 0.0
C510 C 0.47312 0.53278 0.35581 0.0
C511 C 0.5142 0.52045 0.34109 0.0
C512 C 0.55561 0.50391 0.35953 0.0
H513 H 0.58678 0.51621 0.14881 0.0
H514 H 0.59436 0.52449 0.20695 0.0
C515 C 0.55558 0.49907 0.39207 0.0
C516 C 0.51428 0.52538 0.30653 0.0
H517 H 0.51972 0.46838 0.23693 0.0
C518 C 0.51308 0.56717 0.29464 0.0
C519 C 0.51616 0.48922 0.28542 0.0
C520 C 0.51441 0.44314 0.29634 0.0
C521 C 0.51466 0.57383 0.26223 0.0
C522 C 0.51736 0.53778 0.24134 0.0
C523 C 0.51838 0.49605 0.25319 0.0
C524 C 0.51663 0.54173 0.2067 0.0
C525 C 0.51407 0.61932 0.25056 0.0
C526 C 0.471 0.55004 0.18744 0.0
C527 C 0.46658 0.54533 0.15427 0.0
C528 C 0.50774 0.5322 0.1399 0.0
C529 C 0.5547 0.52687 0.15922 0.0
C530 C 0.55896 0.5313 0.1924 0.0
H531 H 0.52296 0.64473 0.27054 0.0
H532 H 0.54276 0.62599 0.23389 0.0
H533 H 0.47478 0.62207 0.23742 0.0
H534 H 0.43768 0.55756 0.19805 0.0
H535 H 0.42998 0.54966 0.13989 0.0
loop_
_geom_bond_atom_site_label_1
_geom_bond_atom_site_label_2
_geom_bond_distance
_geom_bond_site_symmetry_2
_ccdc_geom_bond_type
Co0 N5 2.057 . S
Co0 O17 2.021 . S
Co0 O20 2.062 1_455 S
Co0 O24 2.117 1_554 S
Co0 O25 2.020 1_565 S
C1 O21 1.259 1_455 S
C1 O24 1.258 1_545 S
Co2 N11 2.057 . S
Co2 O18 2.117 1_655 S
Co2 O19 2.019 1_545 S
Co2 O21 2.021 1_554 S
Co2 O26 2.062 1_655 S
C3 N5 1.316 . S
C3 N6 1.347 . S
C3 H8 0.931 . S
C4 N5 1.375 1_556 S
C4 C7 1.350 . S
C4 H9 0.930 . S
N5 Co0 2.057 . S
N5 C3 1.316 . S
N5 C4 1.375 1_554 S
N6 C3 1.347 . S
N6 C7 1.373 1_554 S
C7 C4 1.350 . S
C7 N6 1.373 1_556 S
C7 H28 0.931 . S
H8 C3 0.931 . S
H9 C4 0.930 . S
C10 O17 1.259 1_545 S
C10 O18 1.258 . S
N11 Co2 2.057 . S
N11 C12 1.316 1_554 S
N11 C13 1.375 . S
C12 N11 1.316 1_556 S
C12 N14 1.347 1_556 S
C12 H23 0.931 . S
C13 N11 1.375 . S
C13 C15 1.350 . S
C13 H22 0.930 . S
N14 C12 1.347 1_554 S
N14 C15 1.373 . S
C15 C13 1.350 . S
C15 N14 1.373 . S
C15 H29 0.931 . S
C16 O19 1.256 . S
C16 O20 1.255 . S
O17 Co0 2.021 . S
O17 C10 1.259 1_565 S
O18 Co2 2.117 1_455 S
O18 C10 1.258 . S
O19 Co2 2.019 1_565 S
O19 C16 1.256 . S
O20 Co0 2.062 1_655 S
O20 C16 1.255 . S
O21 C1 1.259 1_655 S
O21 Co2 2.021 1_556 S
H22 C13 0.930 . S
H23 C12 0.931 . S
O24 Co0 2.117 1_556 S
O24 C1 1.258 1_565 S
O25 Co0 2.020 1_545 S
O25 C27 1.256 . S
O26 Co2 2.062 1_455 S
O26 C27 1.255 . S
C27 O25 1.256 . S
C27 O26 1.255 . S
H28 C7 0.931 . S
H29 C15 0.931 . S
Co30 N35 2.057 . S
Co30 O47 2.021 . S
Co30 O50 2.062 . S
Co30 O54 2.117 . S
Co30 O55 2.020 . S
C31 O51 1.259 . S
C31 O54 1.258 . S
Co32 N41 2.057 . S
Co32 O48 2.117 . S
Co32 O49 2.020 . S
Co32 O51 2.021 . S
Co32 O56 2.062 . S
C33 N35 1.316 . S
C33 N36 1.347 . S
C33 H38 0.931 . S
C34 N35 1.375 . S
C34 C37 1.350 . S
C34 H39 0.930 . S
N35 Co30 2.057 . S
N35 C33 1.316 . S
N35 C34 1.375 . S
N36 C33 1.347 . S
N36 C37 1.373 . S
C37 C34 1.350 . S
C37 N36 1.373 . S
C37 H58 0.931 . S
H38 C33 0.931 . S
H39 C34 0.930 . S
C40 O47 1.259 . S
C40 O48 1.258 . S
N41 Co32 2.057 . S
N41 C42 1.316 . S
N41 C43 1.375 . S
C42 N41 1.316 . S
C42 N44 1.347 . S
C42 H53 0.931 . S
C43 N41 1.375 . S
C43 C45 1.350 . S
C43 H52 0.930 . S
N44 C42 1.347 . S
N44 C45 1.373 . S
C45 C43 1.350 . S
C45 N44 1.373 . S
C45 H59 0.931 . S
C46 O49 1.256 . S
C46 O50 1.255 . S
O47 Co30 2.021 . S
O47 C40 1.259 . S
O48 Co32 2.117 . S
O48 C40 1.258 . S
O49 Co32 2.020 . S
O49 C46 1.256 . S
O50 Co30 2.062 . S
O50 C46 1.255 . S
O51 C31 1.259 . S
O51 Co32 2.021 . S
H52 C43 0.930 . S
H53 C42 0.931 . S
O54 Co30 2.117 . S
O54 C31 1.258 . S
O55 Co30 2.020 . S
O55 C57 1.256 . S
O56 Co32 2.062 . S
O56 C57 1.255 . S
C57 O55 1.256 . S
C57 O56 1.255 . S
H58 C37 0.931 . S
H59 C45 0.931 . S
H60 C63 0.929 . S
H61 C66 0.929 1_655 S
H62 C68 0.930 . S
C63 H60 0.929 . S
C63 C64 1.398 . S
C63 C65 1.396 . S
C64 C63 1.398 . S
C64 C68 1.407 . S
C65 C63 1.396 . S
C65 C66 1.394 1_565 S
C66 H61 0.929 1_455 S
C66 C65 1.394 1_545 S
C66 C67 1.382 . S
C67 C66 1.382 . S
C67 C68 1.392 1_545 S
C67 N69 1.420 1_455 S
C68 H62 0.930 . S
C68 C64 1.407 . S
C68 C67 1.392 1_565 S
N69 C67 1.420 1_655 S
N69 C70 1.244 . S
C70 N69 1.244 . S
H71 C74 0.929 . S
H72 C77 0.929 . S
H73 C79 0.930 . S
C74 H71 0.929 . S
C74 C75 1.398 . S
C74 C76 1.396 1_565 S
C75 C74 1.398 . S
C75 C79 1.407 . S
C76 C74 1.396 1_545 S
C76 C77 1.394 1_655 S
C77 H72 0.929 . S
C77 C76 1.394 1_455 S
C77 C78 1.382 . S
C78 C77 1.382 . S
C78 C79 1.392 1_445 S
C78 N80 1.420 . S
C79 H73 0.930 . S
C79 C75 1.407 . S
C79 C78 1.392 1_665 S
N80 C78 1.420 . S
N80 C81 1.244 . S
C81 N80 1.244 . S
H82 C85 0.929 . S
H83 C88 0.929 . S
H84 C90 0.930 . S
C85 H82 0.929 . S
C85 C86 1.398 . S
C85 C87 1.396 . S
C86 C85 1.398 . S
C86 C90 1.407 . S
C87 C85 1.396 . S
C87 C88 1.394 . S
C88 H83 0.929 . S
C88 C87 1.394 . S
C88 C89 1.382 . S
C89 C88 1.382 . S
C89 C90 1.392 . S
C89 N91 1.420 . S
C90 H84 0.930 . S
C90 C86 1.407 . S
C90 C89 1.392 . S
N91 C89 1.420 . S
N91 C92 1.244 . S
C92 N91 1.244 . S
H93 C96 0.929 . S
H94 C99 0.929 . S
H95 C101 0.930 . S
C96 H93 0.929 . S
C96 C97 1.398 . S
C96 C98 1.396 . S
C97 C96 1.398 . S
C97 C101 1.407 . S
C98 C96 1.396 . S
C98 C99 1.394 . S
C99 H94 0.929 . S
C99 C98 1.394 . S
C99 C100 1.382 . S
C100 C99 1.382 . S
C100 C101 1.392 . S
C100 N102 1.420 . S
C101 H95 0.930 . S
C101 C97 1.407 . S
C101 C100 1.392 . S
N102 C100 1.420 . S
N102 C103 1.244 . S
C103 N102 1.244 . S
H104 C112 0.929 . S
H105 C114 0.930 . S
H106 C116 0.930 . S
H107 C119 0.929 . S
H108 C122 0.930 . S
H109 C124 0.960 . S
H110 C124 0.960 . S
H111 C124 0.960 . S
C112 H104 0.929 . S
C112 C113 1.377 . S
C112 C114 1.384 . S
C113 C112 1.377 . S
C113 C119 1.390 . S
C114 H105 0.930 . S
C114 C112 1.384 . S
C114 C115 1.372 . S
C115 C114 1.372 . S
C115 C116 1.400 . S
C115 C120 1.490 . S
C116 H106 0.930 . S
C116 C115 1.400 . S
C116 C119 1.386 . S
H117 C133 0.930 . S
H118 C134 0.931 . S
C119 H107 0.929 . S
C119 C113 1.390 . S
C119 C116 1.386 . S
C120 C115 1.490 . S
C120 C122 1.395 . S
C120 C123 1.403 . S
H121 C127 0.922 1_556 S
C122 H108 0.930 . S
C122 C120 1.395 . S
C122 C125 1.403 . S
C123 C120 1.403 . S
C123 C124 1.524 1_554 S
C123 C127 1.400 . S
C124 H109 0.960 . S
C124 H110 0.960 . S
C124 H111 0.960 . S
C124 C123 1.524 1_556 S
C125 C122 1.403 . S
C125 C126 1.392 . S
C125 C129 1.495 . S
C126 C125 1.392 . S
C126 C127 1.385 . S
C126 C128 1.478 . S
C127 H121 0.922 1_554 S
C127 C123 1.400 . S
C127 C126 1.385 . S
C128 C126 1.478 . S
C128 C130 1.381 . S
C128 C134 1.383 . S
C129 C125 1.495 . S
C129 H135 0.959 . S
C129 H136 0.961 . S
C129 H137 0.960 . S
C130 C128 1.381 . S
C130 C131 1.394 . S
C130 H138 0.930 . S
C131 C130 1.394 . S
C131 C132 1.383 . S
C131 H139 0.929 . S
C132 C131 1.383 . S
C132 C133 1.377 . S
C133 H117 0.930 . S
C133 C132 1.377 . S
C133 C134 1.379 . S
C134 H118 0.931 . S
C134 C128 1.383 . S
C134 C133 1.379 . S
H135 C129 0.959 . S
H136 C129 0.961 . S
H137 C129 0.960 . S
H138 C130 0.930 . S
H139 C131 0.929 . S
H140 C148 0.929 . S
H141 C150 0.930 . S
H142 C152 0.930 . S
H143 C155 0.929 . S
H144 C158 0.930 . S
H145 C160 0.960 . S
H146 C160 0.960 . S
H147 C160 0.960 . S
C148 H140 0.929 . S
C148 C149 1.377 . S
C148 C150 1.384 . S
C149 C148 1.377 . S
C149 C155 1.390 1_554 S
C150 H141 0.930 . S
C150 C148 1.384 . S
C150 C151 1.372 . S
C151 C150 1.372 . S
C151 C152 1.400 1_554 S
C151 C156 1.490 . S
C152 H142 0.930 . S
C152 C151 1.400 1_556 S
C152 C155 1.386 . S
H153 C169 0.930 . S
H154 C170 0.931 . S
C155 H143 0.929 . S
C155 C149 1.390 1_556 S
C155 C152 1.386 . S
C156 C151 1.490 . S
C156 C158 1.395 1_554 S
C156 C159 1.403 . S
H157 C163 0.930 . S
C158 H144 0.930 . S
C158 C156 1.395 1_556 S
C158 C161 1.403 . S
C159 C156 1.403 . S
C159 C160 1.524 . S
C159 C163 1.400 . S
C160 H145 0.960 . S
C160 H146 0.960 . S
C160 H147 0.960 . S
C160 C159 1.524 . S
C161 C158 1.403 . S
C161 C162 1.392 . S
C161 C165 1.495 . S
C162 C161 1.392 . S
C162 C163 1.385 1_556 S
C162 C164 1.478 . S
C163 H157 0.930 . S
C163 C159 1.400 . S
C163 C162 1.385 1_554 S
C164 C162 1.478 . S
C164 C166 1.381 1_556 S
C164 C170 1.383 . S
C165 C161 1.495 . S
C165 H171 0.959 . S
C165 H172 0.961 . S
C165 H173 0.960 . S
C166 C164 1.381 1_554 S
C166 C167 1.394 1_554 S
C166 H174 0.930 . S
C167 C166 1.394 1_556 S
C167 C168 1.383 . S
C167 H175 0.929 1_556 S
C168 C167 1.383 . S
C168 C169 1.377 . S
C169 H153 0.930 . S
C169 C168 1.377 . S
C169 C170 1.379 . S
C170 H154 0.931 . S
C170 C164 1.383 . S
C170 C169 1.379 . S
H171 C165 0.959 . S
H172 C165 0.961 . S
H173 C165 0.960 . S
H174 C166 0.930 . S
H175 C167 0.929 1_554 S
H176 C184 0.929 . S
H177 C186 0.930 . S
H178 C188 0.930 . S
H179 C191 0.929 . S
H180 C194 0.930 . S
H181 C196 0.960 . S
H182 C196 0.960 . S
H183 C196 0.960 1_556 S
C184 H176 0.929 . S
C184 C185 1.377 . S
C184 C186 1.384 . S
C185 C184 1.377 . S
C185 C191 1.390 1_554 S
C186 H177 0.930 . S
C186 C184 1.384 . S
C186 C187 1.372 . S
C187 C186 1.372 . S
C187 C188 1.400 1_554 S
C187 C192 1.490 . S
C188 H178 0.930 . S
C188 C187 1.400 1_556 S
C188 C191 1.386 . S
H189 C205 0.930 1_556 S
H190 C206 0.931 . S
C191 H179 0.929 . S
C191 C185 1.390 1_556 S
C191 C188 1.386 . S
C192 C187 1.490 . S
C192 C194 1.395 . S
C192 C195 1.403 . S
H193 C199 0.930 . S
C194 H180 0.930 . S
C194 C192 1.395 . S
C194 C197 1.403 . S
C195 C192 1.403 . S
C195 C196 1.524 . S
C195 C199 1.400 . S
C196 H181 0.960 . S
C196 H182 0.960 . S
C196 H183 0.960 1_554 S
C196 C195 1.524 . S
C197 C194 1.403 . S
C197 C198 1.392 . S
C197 C201 1.495 . S
C198 C197 1.392 . S
C198 C199 1.385 . S
C198 C200 1.478 . S
C199 H193 0.930 . S
C199 C195 1.400 . S
C199 C198 1.385 . S
C200 C198 1.478 . S
C200 C202 1.381 . S
C200 C206 1.383 1_554 S
C201 C197 1.495 . S
C201 H207 0.959 . S
C201 H208 0.961 . S
C201 H209 0.960 . S
C202 C200 1.381 . S
C202 C203 1.394 . S
C202 H210 0.930 . S
C203 C202 1.394 . S
C203 C204 1.383 . S
C203 H211 0.929 . S
C204 C203 1.383 . S
C204 C205 1.377 . S
C205 H189 0.930 1_554 S
C205 C204 1.377 . S
C205 C206 1.379 1_554 S
C206 H190 0.931 . S
C206 C200 1.383 1_556 S
C206 C205 1.379 1_556 S
H207 C201 0.959 . S
H208 C201 0.961 . S
H209 C201 0.960 . S
H210 C202 0.930 . S
H211 C203 0.929 . S
H212 C220 0.929 . S
H213 C222 0.930 . S
H214 C224 0.930 . S
H215 C227 0.929 . S
H216 C230 0.930 . S
H217 C232 0.960 . S
H218 C232 0.953 1_556 S
H219 C232 0.960 . S
C220 H212 0.929 . S
C220 C221 1.377 . S
C220 C222 1.384 . S
C221 C220 1.377 . S
C221 C227 1.390 1_556 S
C222 H213 0.930 . S
C222 C220 1.384 . S
C222 C223 1.372 . S
C223 C222 1.372 . S
C223 C224 1.400 1_556 S
C223 C228 1.490 . S
C224 H214 0.930 . S
C224 C223 1.400 1_554 S
C224 C227 1.386 . S
H225 C241 0.930 1_554 S
H226 C242 0.931 1_554 S
C227 H215 0.929 . S
C227 C221 1.390 1_554 S
C227 C224 1.386 . S
C228 C223 1.490 . S
C228 C230 1.395 . S
C228 C231 1.403 . S
H229 C235 0.930 . S
C230 H216 0.930 . S
C230 C228 1.395 . S
C230 C233 1.403 . S
C231 C228 1.403 . S
C231 C232 1.524 1_556 S
C231 C235 1.400 . S
C232 H217 0.960 . S
C232 H218 0.953 1_554 S
C232 H219 0.960 . S
C232 C231 1.524 1_554 S
C233 C230 1.403 . S
C233 C234 1.392 . S
C233 C237 1.495 . S
C234 C233 1.392 . S
C234 C235 1.385 . S
C234 C236 1.478 . S
C235 H229 0.930 . S
C235 C231 1.400 . S
C235 C234 1.385 . S
C236 C234 1.478 . S
C236 C238 1.381 . S
C236 C242 1.383 . S
C237 C233 1.495 . S
C237 H243 0.959 . S
C237 H244 0.961 . S
C237 H245 0.960 . S
C238 C236 1.381 . S
C238 C239 1.394 . S
C238 H246 0.930 . S
C239 C238 1.394 . S
C239 C240 1.383 . S
C239 H247 0.929 . S
C240 C239 1.383 . S
C240 C241 1.377 . S
C241 H225 0.930 1_556 S
C241 C240 1.377 . S
C241 C242 1.379 . S
C242 H226 0.931 1_556 S
C242 C236 1.383 . S
C242 C241 1.379 . S
H243 C237 0.959 . S
H244 C237 0.961 . S
H245 C237 0.960 . S
H246 C238 0.930 . S
H247 C239 0.929 . S
H248 C256 0.929 . S
H249 C258 0.930 . S
H250 C260 0.930 . S
H251 C263 0.929 . S
H252 C266 0.930 . S
H253 C268 0.960 . S
H254 C268 0.960 . S
H255 C268 0.960 . S
C256 H248 0.929 . S
C256 C257 1.377 . S
C256 C258 1.384 . S
C257 C256 1.377 . S
C257 C263 1.390 . S
C258 H249 0.930 . S
C258 C256 1.384 . S
C258 C259 1.372 . S
C259 C258 1.372 . S
C259 C260 1.400 . S
C259 C264 1.490 . S
C260 H250 0.930 . S
C260 C259 1.400 . S
C260 C263 1.386 . S
H261 C277 0.930 . S
H262 C278 0.931 . S
C263 H251 0.929 . S
C263 C257 1.390 . S
C263 C260 1.386 . S
C264 C259 1.490 . S
C264 C266 1.395 . S
C264 C267 1.403 . S
H265 C271 0.930 . S
C266 H252 0.930 . S
C266 C264 1.395 . S
C266 C269 1.403 . S
C267 C264 1.403 . S
C267 C268 1.524 . S
C267 C271 1.400 . S
C268 H253 0.960 . S
C268 H254 0.960 . S
C268 H255 0.960 . S
C268 C267 1.524 . S
C269 C266 1.403 . S
C269 C270 1.392 . S
C269 C273 1.495 . S
C270 C269 1.392 . S
C270 C271 1.385 . S
C270 C272 1.478 . S
C271 H265 0.930 . S
C271 C267 1.400 . S
C271 C270 1.385 . S
C272 C270 1.478 . S
C272 C274 1.381 . S
C272 C278 1.383 . S
C273 C269 1.495 . S
C273 H279 0.959 . S
C273 H280 0.961 . S
C273 H281 0.960 . S
C274 C272 1.381 . S
C274 C275 1.394 . S
C274 H282 0.930 . S
C275 C274 1.394 . S
C275 C276 1.383 . S
C275 H283 0.929 . S
C276 C275 1.383 . S
C276 C277 1.377 . S
C277 H261 0.930 . S
C277 C276 1.377 . S
C277 C278 1.379 . S
C278 H262 0.931 . S
C278 C272 1.383 . S
C278 C277 1.379 . S
H279 C273 0.959 . S
H280 C273 0.961 . S
H281 C273 0.960 . S
H282 C274 0.930 . S
H283 C275 0.929 . S
H284 C292 0.929 . S
H285 C294 0.930 . S
H286 C296 0.930 . S
H287 C299 0.929 . S
H288 C302 0.930 . S
H289 C304 0.960 . S
H290 C304 0.960 . S
H291 C304 0.960 . S
C292 H284 0.929 . S
C292 C293 1.377 . S
C292 C294 1.384 . S
C293 C292 1.377 . S
C293 C299 1.390 . S
C294 H285 0.930 . S
C294 C292 1.384 . S
C294 C295 1.372 . S
C295 C294 1.372 . S
C295 C296 1.400 . S
C295 C300 1.490 . S
C296 H286 0.930 . S
C296 C295 1.400 . S
C296 C299 1.386 . S
H297 C313 0.930 . S
H298 C314 0.931 . S
C299 H287 0.929 . S
C299 C293 1.390 . S
C299 C296 1.386 . S
C300 C295 1.490 . S
C300 C302 1.395 . S
C300 C303 1.403 . S
H301 C307 0.930 . S
C302 H288 0.930 . S
C302 C300 1.395 . S
C302 C305 1.403 . S
C303 C300 1.403 . S
C303 C304 1.524 . S
C303 C307 1.400 . S
C304 H289 0.960 . S
C304 H290 0.960 . S
C304 H291 0.960 . S
C304 C303 1.524 . S
C305 C302 1.403 . S
C305 C306 1.392 . S
C305 C309 1.495 . S
C306 C305 1.392 . S
C306 C307 1.385 . S
C306 C308 1.478 . S
C307 H301 0.930 . S
C307 C303 1.400 . S
C307 C306 1.385 . S
C308 C306 1.478 . S
C308 C310 1.381 . S
C308 C314 1.383 . S
C309 C305 1.495 . S
C309 H315 0.959 . S
C309 H316 0.961 . S
C309 H317 0.960 . S
C310 C308 1.381 . S
C310 C311 1.394 . S
C310 H318 0.930 . S
C311 C310 1.394 . S
C311 C312 1.383 . S
C311 H319 0.929 . S
C312 C311 1.383 . S
C312 C313 1.377 . S
C313 H297 0.930 . S
C313 C312 1.377 . S
C313 C314 1.379 . S
C314 H298 0.931 . S
C314 C308 1.383 . S
C314 C313 1.379 . S
H315 C309 0.959 . S
H316 C309 0.961 . S
H317 C309 0.960 . S
H318 C310 0.930 . S
H319 C311 0.929 . S
H320 C328 0.929 . S
H321 C330 0.930 . S
H322 C332 0.930 . S
H323 C335 0.929 . S
H324 C338 0.930 . S
H325 C340 0.960 . S
H326 C340 0.960 . S
H327 C340 0.960 . S
C328 H320 0.929 . S
C328 C329 1.377 . S
C328 C330 1.384 . S
C329 C328 1.377 . S
C329 C335 1.390 . S
C330 H321 0.930 . S
C330 C328 1.384 . S
C330 C331 1.372 . S
C331 C330 1.372 . S
C331 C332 1.400 . S
C331 C336 1.490 . S
C332 H322 0.930 . S
C332 C331 1.400 . S
C332 C335 1.386 . S
H333 C349 0.930 . S
H334 C350 0.931 . S
C335 H323 0.929 . S
C335 C329 1.390 . S
C335 C332 1.386 . S
C336 C331 1.490 . S
C336 C338 1.395 . S
C336 C339 1.403 . S
H337 C343 0.930 . S
C338 H324 0.930 . S
C338 C336 1.395 . S
C338 C341 1.403 . S
C339 C336 1.403 . S
C339 C340 1.524 . S
C339 C343 1.400 . S
C340 H325 0.960 . S
C340 H326 0.960 . S
C340 H327 0.960 . S
C340 C339 1.524 . S
C341 C338 1.403 . S
C341 C342 1.392 . S
C341 C345 1.495 . S
C342 C341 1.392 . S
C342 C343 1.385 . S
C342 C344 1.478 . S
C343 H337 0.930 . S
C343 C339 1.400 . S
C343 C342 1.385 . S
C344 C342 1.478 . S
C344 C346 1.381 . S
C344 C350 1.383 . S
C345 C341 1.495 . S
C345 H351 0.959 . S
C345 H352 0.961 . S
C345 H353 0.960 . S
C346 C344 1.381 . S
C346 C347 1.394 . S
C346 H354 0.930 . S
C347 C346 1.394 . S
C347 C348 1.383 . S
C347 H355 0.929 . S
C348 C347 1.383 . S
C348 C349 1.377 . S
C349 H333 0.930 . S
C349 C348 1.377 . S
C349 C350 1.379 . S
C350 H334 0.931 . S
C350 C344 1.383 . S
C350 C349 1.379 . S
H351 C345 0.959 . S
H352 C345 0.961 . S
H353 C345 0.960 . S
H354 C346 0.930 . S
H355 C347 0.929 . S
H356 C364 0.929 . S
H357 C366 0.930 . S
H358 C368 0.930 . S
H359 C371 0.929 . S
H360 C374 0.930 . S
H361 C376 0.960 . S
H362 C376 0.960 . S
H363 C376 0.960 . S
C364 H356 0.929 . S
C364 C365 1.377 . S
C364 C366 1.384 . S
C365 C364 1.377 . S
C365 C371 1.390 . S
C366 H357 0.930 . S
C366 C364 1.384 . S
C366 C367 1.372 . S
C367 C366 1.372 . S
C367 C368 1.400 . S
C367 C372 1.490 . S
C368 H358 0.930 . S
C368 C367 1.400 . S
C368 C371 1.386 . S
H369 C385 0.930 . S
H370 C386 0.931 . S
C371 H359 0.929 . S
C371 C365 1.390 . S
C371 C368 1.386 . S
C372 C367 1.490 . S
C372 C374 1.395 . S
C372 C375 1.403 . S
H373 C379 0.930 . S
C374 H360 0.930 . S
C374 C372 1.395 . S
C374 C377 1.403 . S
C375 C372 1.403 . S
C375 C376 1.524 . S
C375 C379 1.400 . S
C376 H361 0.960 . S
C376 H362 0.960 . S
C376 H363 0.960 . S
C376 C375 1.524 . S
C377 C374 1.403 . S
C377 C378 1.392 . S
C377 C381 1.495 . S
C378 C377 1.392 . S
C378 C379 1.385 . S
C378 C380 1.478 . S
C379 H373 0.930 . S
C379 C375 1.400 . S
C379 C378 1.385 . S
C380 C378 1.478 . S
C380 C382 1.381 . S
C380 C386 1.383 . S
C381 C377 1.495 . S
C381 H387 0.959 . S
C381 H388 0.961 . S
C381 H389 0.960 . S
C382 C380 1.381 . S
C382 C383 1.394 . S
C382 H390 0.930 . S
C383 C382 1.394 . S
C383 C384 1.383 . S
C383 H391 0.929 . S
C384 C383 1.383 . S
C384 C385 1.377 . S
C385 H369 0.930 . S
C385 C384 1.377 . S
C385 C386 1.379 . S
C386 H370 0.931 . S
C386 C380 1.383 . S
C386 C385 1.379 . S
H387 C381 0.959 . S
H388 C381 0.961 . S
H389 C381 0.960 . S
H390 C382 0.930 . S
H391 C383 0.929 . S
H392 C400 0.929 . S
H393 C402 0.930 . S
H394 C404 0.930 . S
H395 C407 0.929 . S
H396 C410 0.930 . S
H397 C412 0.960 . S
H398 C412 0.960 . S
H399 C412 0.960 . S
C400 H392 0.929 . S
C400 C401 1.377 1_565 S
C400 C402 1.384 . S
C401 C400 1.377 1_545 S
C401 C407 1.390 . S
C402 H393 0.930 . S
C402 C400 1.384 . S
C402 C403 1.364 1_565 S
C403 C402 1.364 1_545 S
C403 C404 1.408 . S
C403 C408 1.489 1_545 S
C404 H394 0.930 . S
C404 C403 1.408 . S
C404 C407 1.386 . S
H405 C421 0.930 . S
H406 C422 0.931 . S
C407 H395 0.929 . S
C407 C401 1.390 . S
C407 C404 1.386 . S
C408 C403 1.489 1_565 S
C408 C410 1.407 . S
C408 C411 1.392 1_465 S
H409 C415 0.930 1_655 S
C410 H396 0.930 . S
C410 C408 1.407 . S
C410 C413 1.403 . S
C411 C408 1.392 1_645 S
C411 C412 1.524 . S
C411 C415 1.400 1_655 S
C412 H397 0.960 . S
C412 H398 0.960 . S
C412 H399 0.960 . S
C412 C411 1.524 . S
C413 C410 1.403 . S
C413 C414 1.392 . S
C413 C417 1.495 . S
C414 C413 1.392 . S
C414 C415 1.385 1_565 S
C414 C416 1.478 . S
C415 H409 0.930 1_455 S
C415 C411 1.400 1_455 S
C415 C414 1.385 1_545 S
C416 C414 1.478 . S
C416 C418 1.381 . S
C416 C422 1.383 1_565 S
C417 C413 1.495 . S
C417 H423 0.959 . S
C417 H424 0.961 . S
C417 H425 0.960 . S
C418 C416 1.381 . S
C418 C419 1.394 . S
C418 H426 0.930 . S
C419 C418 1.394 . S
C419 C420 1.385 1_565 S
C419 H427 0.929 . S
C420 C419 1.385 1_545 S
C420 C421 1.375 . S
C421 H405 0.930 . S
C421 C420 1.375 . S
C421 C422 1.379 . S
C422 H406 0.931 . S
C422 C416 1.383 1_545 S
C422 C421 1.379 . S
H423 C417 0.959 . S
H424 C417 0.961 . S
H425 C417 0.960 . S
H426 C418 0.930 . S
H427 C419 0.929 . S
H428 C436 0.929 . S
H429 C438 0.930 . S
H430 C440 0.930 . S
H431 C443 0.929 . S
H432 C446 0.930 . S
H433 C448 0.960 . S
H434 C448 0.960 . S
H435 C448 0.960 . S
C436 H428 0.929 . S
C436 C437 1.377 1_665 S
C436 C438 1.384 . S
C437 C436 1.377 1_445 S
C437 C443 1.390 . S
C438 H429 0.930 . S
C438 C436 1.384 . S
C438 C439 1.372 1_665 S
C439 C438 1.372 1_445 S
C439 C440 1.400 . S
C439 C444 1.490 1_455 S
C440 H430 0.930 . S
C440 C439 1.400 . S
C440 C443 1.386 . S
H441 C457 0.930 . S
H442 C458 0.931 . S
C443 H431 0.929 . S
C443 C437 1.390 . S
C443 C440 1.386 . S
C444 C439 1.490 1_655 S
C444 C446 1.395 . S
C444 C447 1.403 1_645 S
H445 C451 0.930 . S
C446 H432 0.930 . S
C446 C444 1.395 . S
C446 C449 1.403 . S
C447 C444 1.403 1_465 S
C447 C448 1.524 . S
C447 C451 1.400 . S
C448 H433 0.960 . S
C448 H434 0.960 . S
C448 H435 0.960 . S
C448 C447 1.524 . S
C449 C446 1.403 . S
C449 C450 1.392 . S
C449 C453 1.495 . S
C450 C449 1.392 . S
C450 C451 1.385 1_645 S
C450 C452 1.478 . S
C451 H445 0.930 . S
C451 C447 1.400 . S
C451 C450 1.385 1_465 S
C452 C450 1.478 . S
C452 C454 1.381 1_545 S
C452 C458 1.383 1_655 S
C453 C449 1.495 . S
C453 H459 0.959 . S
C453 H460 0.961 . S
C453 H461 0.960 . S
C454 C452 1.381 1_565 S
C454 C455 1.394 . S
C454 H462 0.930 . S
C455 C454 1.394 . S
C455 C456 1.383 1_565 S
C455 H463 0.929 . S
C456 C455 1.383 1_545 S
C456 C457 1.377 1_655 S
C457 H441 0.930 . S
C457 C456 1.377 1_455 S
C457 C458 1.379 . S
C458 H442 0.931 . S
C458 C452 1.383 1_455 S
C458 C457 1.379 . S
H459 C453 0.959 . S
H460 C453 0.961 . S
H461 C453 0.960 . S
H462 C454 0.930 . S
H463 C455 0.929 . S
H464 C472 0.929 . S
H465 C474 0.930 . S
H466 C476 0.930 . S
H467 C479 0.929 . S
H468 C482 0.930 . S
H469 C484 0.960 . S
H470 C484 0.960 . S
H471 C484 0.960 . S
C472 H464 0.929 . S
C472 C473 1.377 . S
C472 C474 1.384 . S
C473 C472 1.377 . S
C473 C479 1.390 . S
C474 H465 0.930 . S
C474 C472 1.384 . S
C474 C475 1.372 . S
C475 C474 1.372 . S
C475 C476 1.400 . S
C475 C480 1.490 . S
C476 H466 0.930 . S
C476 C475 1.400 . S
C476 C479 1.386 . S
H477 C493 0.930 . S
H478 C494 0.931 . S
C479 H467 0.929 . S
C479 C473 1.390 . S
C479 C476 1.386 . S
C480 C475 1.490 . S
C480 C482 1.395 . S
C480 C483 1.403 . S
H481 C487 0.930 . S
C482 H468 0.930 . S
C482 C480 1.395 . S
C482 C485 1.403 . S
C483 C480 1.403 . S
C483 C484 1.524 . S
C483 C487 1.400 . S
C484 H469 0.960 . S
C484 H470 0.960 . S
C484 H471 0.960 . S
C484 C483 1.524 . S
C485 C482 1.403 . S
C485 C486 1.392 . S
C485 C489 1.495 . S
C486 C485 1.392 . S
C486 C487 1.385 . S
C486 C488 1.478 . S
C487 H481 0.930 . S
C487 C483 1.400 . S
C487 C486 1.385 . S
C488 C486 1.478 . S
C488 C490 1.381 . S
C488 C494 1.383 . S
C489 C485 1.495 . S
C489 H495 0.959 . S
C489 H496 0.961 . S
C489 H497 0.960 . S
C490 C488 1.381 . S
C490 C491 1.394 . S
C490 H498 0.930 . S
C491 C490 1.394 . S
C491 C492 1.383 . S
C491 H499 0.929 . S
C492 C491 1.383 . S
C492 C493 1.377 . S
C493 H477 0.930 . S
C493 C492 1.377 . S
C493 C494 1.379 . S
C494 H478 0.931 . S
C494 C488 1.383 . S
C494 C493 1.379 . S
H495 C489 0.959 . S
H496 C489 0.961 . S
H497 C489 0.960 . S
H498 C490 0.930 . S
H499 C491 0.929 . S
H500 C508 0.929 . S
H501 C510 0.930 . S
H502 C512 0.930 . S
H503 C515 0.929 . S
H504 C518 0.930 . S
H505 C520 0.960 . S
H506 C520 0.960 . S
H507 C520 0.960 . S
C508 H500 0.929 . S
C508 C509 1.377 . S
C508 C510 1.384 . S
C509 C508 1.377 . S
C509 C515 1.390 . S
C510 H501 0.930 . S
C510 C508 1.384 . S
C510 C511 1.372 . S
C511 C510 1.372 . S
C511 C512 1.400 . S
C511 C516 1.490 . S
C512 H502 0.930 . S
C512 C511 1.400 . S
C512 C515 1.386 . S
H513 C529 0.930 . S
H514 C530 0.931 . S
C515 H503 0.929 . S
C515 C509 1.390 . S
C515 C512 1.386 . S
C516 C511 1.490 . S
C516 C518 1.395 . S
C516 C519 1.403 . S
H517 C523 0.930 . S
C518 H504 0.930 . S
C518 C516 1.395 . S
C518 C521 1.403 . S
C519 C516 1.403 . S
C519 C520 1.524 . S
C519 C523 1.400 . S
C520 H505 0.960 . S
C520 H506 0.960 . S
C520 H507 0.960 . S
C520 C519 1.524 . S
C521 C518 1.403 . S
C521 C522 1.392 . S
C521 C525 1.495 . S
C522 C521 1.392 . S
C522 C523 1.385 . S
C522 C524 1.478 . S
C523 H517 0.930 . S
C523 C519 1.400 . S
C523 C522 1.385 . S
C524 C522 1.478 . S
C524 C526 1.381 . S
C524 C530 1.383 . S
C525 C521 1.495 . S
C525 H531 0.959 . S
C525 H532 0.961 . S
C525 H533 0.960 . S
C526 C524 1.381 . S
C526 C527 1.394 . S
C526 H534 0.930 . S
C527 C526 1.394 . S
C527 C528 1.383 . S
C527 H535 0.929 . S
C528 C527 1.383 . S
C528 C529 1.377 . S
C529 H513 0.930 . S
C529 C528 1.377 . S
C529 C530 1.379 . S
C530 H514 0.931 . S
C530 C524 1.383 . S
C530 C529 1.379 . S
H531 C525 0.959 . S
H532 C525 0.961 . S
H533 C525 0.960 . S
H534 C526 0.930 . S
H535 C527 0.929 . S
C132 C97 1.417 . S
C113 C27 1.463 . S
C149 N6 1.304 . S
C168 C92 1.310 . S
C185 C16 1.373 . S
C204 C103 1.334 . S
C221 N14 1.425 1_556 S
C240 C86 1.408 . S
C257 C57 1.462 . S
C276 C75 1.415 . S
C293 N36 1.303 . S
C312 C70 1.292 . S
C348 C81 1.364 . S
C329 C46 1.373 . S
C384 C64 1.417 . S
C365 N44 1.426 . S
C401 C10 1.473 . S
C420 C65 1.460 1_545 S
C437 C1 1.541 . S
C456 C76 1.536 . S
C492 C87 1.474 . S
C473 C40 1.472 . S
C509 C31 1.541 . S
C528 C98 1.537 . S
