# Generated by pormake.
# Topology zzz, (3,6)-cn, num edge types: 1
# Building blocks:
#     Node 0, Type 0, BuildingBlock: MIDCAF_clean_linker_0, # of connection points: 3
#     Node 1, Type 0, BuildingBlock: MIDCAF_clean_linker_0, # of connection points: 3
#     Node 2, Type 0, BuildingBlock: MIDCAF_clean_linker_0, # of connection points: 3
#     Node 3, Type 0, BuildingBlock: MIDCAF_clean_linker_0, # of connection points: 3
#     Node 4, Type 0, BuildingBlock: MIDCAF_clean_linker_0, # of connection points: 3
#     Node 5, Type 0, BuildingBlock: MIDCAF_clean_linker_0, # of connection points: 3
#     Node 6, Type 0, BuildingBlock: MIDCAF_clean_linker_0, # of connection points: 3
#     Node 7, Type 0, BuildingBlock: MIDCAF_clean_linker_0, # of connection points: 3
#     Node 8, Type 1, BuildingBlock: CUWYAW_clean_sbu_0, # of connection points: 6
#     Node 9, Type 1, BuildingBlock: CUWYAW_clean_sbu_0, # of connection points: 6
#     Node 10, Type 1, BuildingBlock: CUWYAW_clean_sbu_0, # of connection points: 6
#     Node 11, Type 1, BuildingBlock: CUWYAW_clean_sbu_0, # of connection points: 6
#     Edge 12, Type (0, 1), BuildingBlock: ZUJKAS_clean_linker_0, # of connection points: 2
#     Edge 13, Type (0, 1), BuildingBlock: ZUJKAS_clean_linker_0, # of connection points: 2
#     Edge 14, Type (0, 1), BuildingBlock: ZUJKAS_clean_linker_0, # of connection points: 2
#     Edge 15, Type (0, 1), BuildingBlock: ZUJKAS_clean_linker_0, # of connection points: 2
#     Edge 16, Type (0, 1), BuildingBlock: ZUJKAS_clean_linker_0, # of connection points: 2
#     Edge 17, Type (0, 1), BuildingBlock: ZUJKAS_clean_linker_0, # of connection points: 2
#     Edge 18, Type (0, 1), BuildingBlock: ZUJKAS_clean_linker_0, # of connection points: 2
#     Edge 19, Type (0, 1), BuildingBlock: ZUJKAS_clean_linker_0, # of connection points: 2
#     Edge 20, Type (0, 1), BuildingBlock: ZUJKAS_clean_linker_0, # of connection points: 2
#     Edge 21, Type (0, 1), BuildingBlock: ZUJKAS_clean_linker_0, # of connection points: 2
#     Edge 22, Type (0, 1), BuildingBlock: ZUJKAS_clean_linker_0, # of connection points: 2
#     Edge 23, Type (0, 1), BuildingBlock: ZUJKAS_clean_linker_0, # of connection points: 2
#     Edge 24, Type (0, 1), BuildingBlock: ZUJKAS_clean_linker_0, # of connection points: 2
#     Edge 25, Type (0, 1), BuildingBlock: ZUJKAS_clean_linker_0, # of connection points: 2
#     Edge 26, Type (0, 1), BuildingBlock: ZUJKAS_clean_linker_0, # of connection points: 2
#     Edge 27, Type (0, 1), BuildingBlock: ZUJKAS_clean_linker_0, # of connection points: 2
#     Edge 28, Type (0, 1), BuildingBlock: ZUJKAS_clean_linker_0, # of connection points: 2
#     Edge 29, Type (0, 1), BuildingBlock: ZUJKAS_clean_linker_0, # of connection points: 2
#     Edge 30, Type (0, 1), BuildingBlock: ZUJKAS_clean_linker_0, # of connection points: 2
#     Edge 31, Type (0, 1), BuildingBlock: ZUJKAS_clean_linker_0, # of connection points: 2
#     Edge 32, Type (0, 1), BuildingBlock: ZUJKAS_clean_linker_0, # of connection points: 2
#     Edge 33, Type (0, 1), BuildingBlock: ZUJKAS_clean_linker_0, # of connection points: 2
#     Edge 34, Type (0, 1), BuildingBlock: ZUJKAS_clean_linker_0, # of connection points: 2
#     Edge 35, Type (0, 1), BuildingBlock: ZUJKAS_clean_linker_0, # of connection points: 2
# Relax obj value: 0.396
# Max RMSD: 0.254
# Mean RMSD: 0.230
data_MOF--net-zzz--node1-CUWYAW_clean_sbu_0--node2-MIDCAF_clean_linker_0--edge1-ZUJKAS_clean_linker_0
_symmetry_space_group_name_H-M    P1
_symmetry_Int_Tables_number       1
_symmetry_cell_setting            triclinic
loop_
_symmetry_equiv_pos_as_xyz
'x, y, z'
_cell_length_a     73.304817
_cell_length_b     73.316118
_cell_length_c     23.702059
_cell_angle_alpha  89.906009
_cell_angle_beta   89.964329
_cell_angle_gamma 89.982082
loop_
_atom_site_label
_atom_site_type_symbol
_atom_site_fract_x
_atom_site_fract_y
_atom_site_fract_z
_atom_type_partial_charge
C0 C 0.79519 0.5285 0.34515 0.0
C1 C 0.7957 0.51524 0.388 0.0
C2 C 0.78135 0.50249 0.3913 0.0
C3 C 0.76711 0.50271 0.35151 0.0
H4 H 0.70297 0.53906 0.23137 0.0
H5 H 0.67206 0.54106 0.19256 0.0
H6 H 0.67316 0.48328 0.15769 0.0
H7 H 0.7039 0.48144 0.19653 0.0
H8 H 0.73443 0.50761 0.0573 0.0
H9 H 0.74808 0.50588 0.96372 0.0
H10 H 0.80173 0.50961 0.03813 0.0
H11 H 0.7882 0.51172 0.13142 0.0
H12 H 0.78181 0.53824 0.27062 0.0
H13 H 0.8061 0.53838 0.34105 0.0
H14 H 0.78137 0.49212 0.42391 0.0
H15 H 0.75662 0.49233 0.35361 0.0
N16 N 0.73631 0.51227 0.26368 0.0
N17 N 0.73367 0.5095 0.16507 0.0
N18 N 0.76246 0.51279 0.20567 0.0
C19 C 0.72573 0.51031 0.21659 0.0
C20 C 0.75196 0.51072 0.15905 0.0
C21 C 0.75486 0.51346 0.25797 0.0
C22 C 0.70565 0.51003 0.21793 0.0
C23 C 0.69615 0.52665 0.21832 0.0
C24 C 0.67859 0.52783 0.1951 0.0
C25 C 0.67021 0.51238 0.17113 0.0
C26 C 0.67907 0.49543 0.17606 0.0
C27 C 0.69666 0.49431 0.19879 0.0
C28 C 0.76023 0.50983 0.10208 0.0
C29 C 0.74915 0.50814 0.05379 0.0
C30 C 0.75694 0.50708 1.00006 0.0
C31 C 0.77595 0.50774 0.99344 0.0
C32 C 0.787 0.50944 0.04168 0.0
C33 C 0.77924 0.51051 0.09531 0.0
C34 C 0.76724 0.5154 0.30703 0.0
C35 C 0.78128 0.52843 0.30482 0.0
C36 C 0.96557 0.79153 0.36128 0.0
C37 C 0.98095 0.79107 0.39663 0.0
C38 C 0.99292 0.77605 0.39226 0.0
C39 C 0.98982 0.7622 0.35228 0.0
H40 H 0.96375 0.69076 0.25533 0.0
H41 H 0.97035 0.66082 0.2144 0.0
H42 H 0.01572 0.68421 0.12298 0.0
H43 H 0.00923 0.71379 0.16499 0.0
H44 H 0.96288 0.73163 0.06741 0.0
H45 H 0.95543 0.74704 0.97925 0.0
H46 H 0.93568 0.79353 0.07269 0.0
H47 H 0.94306 0.77823 0.16094 0.0
H48 H 0.9508 0.77912 0.29408 0.0
H49 H 0.95616 0.80292 0.36256 0.0
H50 H 1.00482 0.77513 0.41914 0.0
H51 H 0.99957 0.75116 0.34867 0.0
N52 N 0.98014 0.73343 0.2662 0.0
N53 N 0.96932 0.72935 0.17352 0.0
N54 N 0.96355 0.75665 0.22053 0.0
C55 C 0.97825 0.72279 0.21925 0.0
C56 C 0.96187 0.74621 0.17372 0.0
C57 C 0.97258 0.7505 0.26694 0.0
C58 C 0.98624 0.70444 0.21424 0.0
C59 C 0.9757 0.68918 0.22887 0.0
C60 C 0.97929 0.67214 0.20446 0.0
C61 C 0.9934 0.67009 0.1645 0.0
C62 C 1.00487 0.68511 0.15385 0.0
C63 C 1.00126 0.7021 0.17825 0.0
C64 C 0.95396 0.75388 0.12132 0.0
C65 C 0.95653 0.74495 0.06937 0.0
C66 C 0.95225 0.75374 0.01876 0.0
C67 C 0.94513 0.77151 0.01912 0.0
C68 C 0.94103 0.77976 0.07109 0.0
C69 C 0.94545 0.77106 0.12171 0.0
C70 C 0.97482 0.76322 0.31542 0.0
C71 C 0.96257 0.77787 0.32144 0.0
C72 C 0.73061 0.96986 0.35747 0.0
C73 C 0.72758 0.98466 0.39403 0.0
C74 C 0.74135 0.99804 0.39868 0.0
C75 C 0.757 0.99731 0.36431 0.0
H76 H 0.82712 0.96495 0.26406 0.0
H77 H 0.85855 0.96562 0.22895 0.0
H78 H 0.85066 0.02132 0.17412 0.0
H79 H 0.81964 0.02056 0.21018 0.0
H80 H 0.79262 0.99578 0.0786 0.0
H81 H 0.77848 0.99958 0.9862 0.0
H82 H 0.72672 0.98259 0.05599 0.0
H83 H 0.74076 0.97852 0.14767 0.0
H84 H 0.74729 0.95831 0.29253 0.0
H85 H 0.72065 0.95902 0.35379 0.0
H86 H 0.73952 0.00966 0.42621 0.0
H87 H 0.7667 0.00844 0.36573 0.0
N88 N 0.79033 0.98799 0.28416 0.0
N89 N 0.79378 0.98957 0.1854 0.0
N90 N 0.76502 0.98429 0.22399 0.0
C91 C 0.80121 0.99013 0.23769 0.0
C92 C 0.77576 0.98662 0.17806 0.0
C93 C 0.77205 0.98501 0.27693 0.0
C94 C 0.8211 0.99281 0.24068 0.0
C95 C 0.83253 0.97761 0.24742 0.0
C96 C 0.85041 0.97791 0.22618 0.0
C97 C 0.85712 0.99341 0.19759 0.0
C98 C 0.84616 0.00917 0.19615 0.0
C99 C 0.82835 0.00883 0.21722 0.0
C100 C 0.76777 0.98703 0.12079 0.0
C101 C 0.77828 0.99256 0.07405 0.0
C102 C 0.77021 0.99479 0.02109 0.0
C103 C 0.75152 0.99139 0.01378 0.0
C104 C 0.74123 0.98505 0.05993 0.0
C105 C 0.74926 0.9829 0.11279 0.0
C106 C 0.7591 0.98326 0.32461 0.0
C107 C 0.74603 0.96928 0.3229 0.0
C108 C 0.48618 0.73168 0.07147 0.0
C109 C 0.48407 0.74162 0.02113 0.0
C110 C 0.48851 0.76023 0.02046 0.0
C111 C 0.49484 0.76876 0.06937 0.0
H112 H 0.48599 0.81916 0.20028 0.0
H113 H 0.4901 0.84963 0.16184 0.0
H114 H 0.54828 0.84511 0.18763 0.0
H115 H 0.54396 0.81426 0.22591 0.0
H116 H 0.49143 0.76009 0.35389 0.0
H117 H 0.49271 0.7343 0.41985 0.0
H118 H 0.5449 0.7186 0.35065 0.0
H119 H 0.54342 0.74431 0.28472 0.0
H120 H 0.4941 0.73203 0.15813 0.0
H121 H 0.48319 0.71722 0.07298 0.0
H122 H 0.48698 0.76821 0.98225 0.0
H123 H 0.49813 0.78315 0.06744 0.0
N124 N 0.50608 0.78605 0.1728 0.0
N125 N 0.51655 0.78452 0.26659 0.0
N126 N 0.50789 0.75784 0.21812 0.0
C127 C 0.51241 0.79453 0.21962 0.0
C128 C 0.51418 0.76603 0.2656 0.0
C129 C 0.50384 0.76776 0.17149 0.0
C130 C 0.51463 0.81449 0.21664 0.0
C131 C 0.49956 0.82502 0.20008 0.0
C132 C 0.50196 0.84251 0.17786 0.0
C133 C 0.51956 0.84982 0.17094 0.0
C134 C 0.53456 0.83981 0.19175 0.0
C135 C 0.5321 0.82228 0.21452 0.0
C136 C 0.51753 0.75438 0.31529 0.0
C137 C 0.50347 0.75152 0.35452 0.0
C138 C 0.5041 0.73661 0.39162 0.0
C139 C 0.51885 0.7243 0.39027 0.0
C140 C 0.53344 0.7279 0.35327 0.0
C141 C 0.53268 0.74267 0.31573 0.0
C142 C 0.497 0.75879 0.11977 0.0
C143 C 0.49259 0.74015 0.1202 0.0
C144 C 0.2339 0.51773 0.96752 0.0
C145 C 0.2314 0.50222 0.93363 0.0
C146 C 0.24433 0.48802 0.937 0.0
C147 C 0.259 0.48904 0.97513 0.0
H148 H 0.32871 0.52275 0.07339 0.0
H149 H 0.36006 0.52169 0.10913 0.0
H150 H 0.35001 0.46784 0.17653 0.0
H151 H 0.31892 0.469 0.14038 0.0
H152 H 0.29375 0.51463 0.25824 0.0
H153 H 0.28012 0.51921 0.3514 0.0
H154 H 0.22663 0.51025 0.28064 0.0
H155 H 0.24006 0.50574 0.18777 0.0
H156 H 0.24917 0.53025 0.03399 0.0
H157 H 0.22412 0.52881 0.96652 0.0
H158 H 0.2428 0.47591 0.91131 0.0
H159 H 0.26826 0.47758 0.97885 0.0
N160 N 0.29127 0.49967 0.05625 0.0
N161 N 0.2941 0.50271 0.1548 0.0
N162 N 0.26574 0.50703 0.11225 0.0
C163 C 0.30178 0.49931 0.10389 0.0
C164 C 0.27614 0.50655 0.15945 0.0
C165 C 0.27308 0.50361 0.0607 0.0
C166 C 0.32156 0.49581 0.1032 0.0
C167 C 0.33359 0.51033 0.09315 0.0
C168 C 0.35142 0.50983 0.11457 0.0
C169 C 0.35751 0.49479 0.14653 0.0
C170 C 0.34592 0.47958 0.15179 0.0
C171 C 0.32811 0.48016 0.13071 0.0
C172 C 0.26797 0.50978 0.21558 0.0
C173 C 0.27907 0.51362 0.26257 0.0
C174 C 0.27132 0.51629 0.31583 0.0
C175 C 0.2524 0.51487 0.32314 0.0
C176 C 0.24131 0.51112 0.27622 0.0
C177 C 0.249 0.5087 0.22296 0.0
C178 C 0.26073 0.5041 0.01128 0.0
C179 C 0.24825 0.51856 0.00622 0.0
C180 C 0.99941 0.22575 0.9772 0.0
C181 C 0.01726 0.22181 0.95938 0.0
C182 C 0.03148 0.23351 0.97657 0.0
C183 C 0.02796 0.24833 0.01264 0.0
H184 H 0.99769 0.32375 0.09146 0.0
H185 H 1.00378 0.35375 0.13255 0.0
H186 H 0.04712 0.33037 0.23266 0.0
H187 H 0.04102 0.30052 0.19098 0.0
H188 H 0.98272 0.28627 0.26642 0.0
H189 H 0.96714 0.27297 0.34758 0.0
H190 H 0.95902 0.22309 0.25392 0.0
H191 H 0.97399 0.23642 0.17286 0.0
H192 H 0.98214 0.24236 0.0285 0.0
H193 H 0.98814 0.21698 0.96549 0.0
H194 H 0.04538 0.23093 0.96326 0.0
H195 H 0.03924 0.25661 0.02723 0.0
N196 N 0.01492 0.28087 0.08449 0.0
N197 N 0.99955 0.2858 0.17054 0.0
N198 N 0.99492 0.25871 0.12115 0.0
C199 C 0.01115 0.29172 0.12989 0.0
C200 C 0.99138 0.26931 0.1666 0.0
C201 C 0.00658 0.26426 0.08003 0.0
C202 C 0.01916 0.30997 0.13723 0.0
C203 C 0.0091 0.32528 0.12011 0.0
C204 C 0.01241 0.34238 0.14438 0.0
C205 C 0.02578 0.34444 0.18653 0.0
C206 C 0.03684 0.32935 0.20002 0.0
C207 C 0.03346 0.31225 0.1759 0.0
C208 C 0.97986 0.26233 0.21326 0.0
C209 C 0.97731 0.27258 0.26281 0.0
C210 C 0.96842 0.26495 0.30945 0.0
C211 C 0.9619 0.24694 0.3075 0.0
C212 C 0.96359 0.2371 0.25685 0.0
C213 C 0.9724 0.24471 0.21032 0.0
C214 C 0.01022 0.25149 0.03285 0.0
C215 C 0.99597 0.24029 0.0136 0.0
C216 C 0.27887 0.00872 0.94189 0.0
C217 C 0.29229 0.02232 0.93538 0.0
C218 C 0.29144 0.03784 0.96997 0.0
C219 C 0.27821 0.03926 0.01219 0.0
H220 H 0.20791 0.99111 0.12992 0.0
H221 H 0.17756 0.98732 0.17145 0.0
H222 H 0.17037 0.04581 0.17064 0.0
H223 H 0.20059 0.04939 0.12858 0.0
H224 H 0.23925 0.03069 0.27823 0.0
H225 H 0.25539 0.02787 0.36772 0.0
H226 H 0.3063 0.02214 0.27723 0.0
H227 H 0.2904 0.0256 0.1886 0.0
H228 H 0.25562 0.99936 0.98947 0.0
H229 H 0.27916 0.99662 0.91577 0.0
H230 H 0.30167 0.04846 0.96654 0.0
H231 H 0.27856 0.05092 0.04025 0.0
N232 N 0.23563 0.02283 0.07177 0.0
N233 N 0.23531 0.0253 0.17087 0.0
N234 N 0.26287 0.02776 0.12214 0.0
C235 C 0.22623 0.02304 0.12159 0.0
C236 C 0.25362 0.02758 0.17166 0.0
C237 C 0.25409 0.02545 0.07222 0.0
C238 C 0.20636 0.0205 0.12497 0.0
C239 C 0.19941 1.00304 0.13602 0.0
C240 C 0.18216 1.00093 0.16071 0.0
C241 C 0.17161 0.01628 0.17523 0.0
C242 C 0.17801 0.03367 0.15966 0.0
C243 C 0.19528 0.03575 0.13516 0.0
C244 C 0.2635 0.02821 0.22609 0.0
C245 C 0.25394 0.02913 0.27754 0.0
C246 C 0.26317 0.02743 0.3289 0.0
C247 C 0.28214 0.02469 0.32991 0.0
C248 C 0.29174 0.02457 0.27844 0.0
C249 C 0.28256 0.02641 0.22727 0.0
C250 C 0.26521 0.02542 0.0201 0.0
C251 C 0.2653 0.01036 0.98356 0.0
C252 C 0.51344 0.28384 0.28474 0.0
C253 C 0.51366 0.2738 0.33529 0.0
C254 C 0.51028 0.25496 0.33348 0.0
C255 C 0.50668 0.24637 0.28201 0.0
H256 H 0.46638 0.20539 0.17259 0.0
H257 H 0.46437 0.17392 0.20537 0.0
H258 H 0.51465 0.16137 0.1186 0.0
H259 H 0.51647 0.19307 0.08543 0.0
H260 H 0.5324 0.26871 0.05049 0.0
H261 H 0.5342 0.29342 0.98206 0.0
H262 H 0.48001 0.28026 0.92316 0.0
H263 H 0.47862 0.25491 0.99093 0.0
H264 H 0.51003 0.28349 0.19541 0.0
H265 H 0.51633 0.29833 0.28464 0.0
H266 H 0.51032 0.24691 0.37184 0.0
H267 H 0.50416 0.23181 0.28197 0.0
N268 N 0.49831 0.22966 0.17434 0.0
N269 N 0.49796 0.23062 0.07491 0.0
N270 N 0.50561 0.25671 0.12762 0.0
C271 C 0.49567 0.22117 0.1242 0.0
C272 C 0.5029 0.24858 0.07692 0.0
C273 C 0.50331 0.2474 0.17648 0.0
C274 C 0.49143 0.20153 0.12588 0.0
C275 C 0.47652 0.19567 0.15835 0.0
C276 C 0.47543 0.17764 0.17729 0.0
C277 C 0.48945 0.16516 0.1651 0.0
C278 C 0.50371 0.17071 0.12904 0.0
C279 C 0.50463 0.18875 0.10935 0.0
C280 C 0.50541 0.25988 0.02579 0.0
C281 C 0.52112 0.27074 0.02163 0.0
C282 C 0.52202 0.28507 0.98289 0.0
C283 C 0.50706 0.28921 0.94798 0.0
C284 C 0.4918 0.27749 0.94929 0.0
C285 C 0.49101 0.2629 0.98787 0.0
C286 C 0.50658 0.25644 0.23136 0.0
C287 C 0.50996 0.27528 0.23345 0.0
C288 C 0.98326 0.02944 0.56156 0.0
Eu289 Eu 0.99964 0.01098 0.64023 0.0
C290 C 0.9777 0.04872 0.55816 0.0
C291 C 0.95967 0.05321 0.5441 0.0
C292 C 0.9539 0.07139 0.54496 0.0
C293 C 0.96609 0.08537 0.56006 0.0
C294 C 0.98417 0.08081 0.57374 0.0
C295 C 0.98992 0.06269 0.57281 0.0
C296 C 0.98348 0.99969 0.7372 0.0
C297 C 0.01937 0.04073 0.72545 0.0
C298 C 0.03989 0.9781 0.80479 0.0
Eu299 Eu 0.02581 0.99809 0.72615 0.0
C300 C 0.0332 0.95983 0.82142 0.0
C301 C 0.04204 0.94411 0.80121 0.0
C302 C 0.03311 0.92725 0.80186 0.0
C303 C 0.01521 0.92588 0.82262 0.0
C304 C 0.00708 0.94124 0.8475 0.0
C305 C 0.01599 0.95801 0.8471 0.0
C306 C 0.04203 0.00912 0.62916 0.0
C307 C 1.00532 0.96875 0.64386 0.0
O308 O 1.00082 0.02617 0.56137 0.0
O309 O 0.9745 0.01962 0.59883 0.0
O310 O 0.97688 0.99669 0.68729 0.0
O311 O 0.99788 0.00906 0.73378 0.0
O312 O 0.00969 0.03759 0.67935 0.0
O313 O 0.02663 0.02726 0.75477 0.0
O314 O 0.02894 0.99178 0.81548 0.0
O315 O 0.04692 0.97913 0.75411 0.0
O316 O 0.0487 0.01206 0.67911 0.0
O317 O 0.02756 0.99982 0.63259 0.0
O318 O 0.0117 0.97216 0.69494 0.0
O319 O 1.00175 0.98223 0.60876 0.0
H320 H 0.94999 0.04262 0.53322 0.0
H321 H 0.93986 0.07447 0.53447 0.0
H322 H 0.99399 0.09128 0.5845 0.0
H323 H 1.00391 0.05965 0.58413 0.0
H324 H 0.0553 0.94508 0.78122 0.0
H325 H 0.03975 0.91558 0.78281 0.0
H326 H 0.99352 0.94044 0.86556 0.0
H327 H 0.0088 0.96974 0.86369 0.0
C328 C 0.48991 0.97334 0.52553 0.0
Eu329 Eu 0.50185 0.99133 0.6114 0.0
C330 C 0.47177 0.96494 0.5199 0.0
C331 C 0.46404 0.9554 0.56559 0.0
C332 C 0.44524 0.95251 0.56818 0.0
C333 C 0.43381 0.95925 0.52541 0.0
C334 C 0.4418 0.96736 0.47746 0.0
C335 C 0.46062 0.97012 0.4747 0.0
C336 C 0.50532 0.97657 0.71574 0.0
C337 C 0.47166 0.00961 0.69328 0.0
C338 C 0.53007 0.02979 0.79962 0.0
Eu339 Eu 0.51488 0.0179 0.70825 0.0
C340 C 0.54916 0.02746 0.81659 0.0
C341 C 0.55851 0.04169 0.84339 0.0
C342 C 0.57756 0.04129 0.84704 0.0
C343 C 0.58747 0.02668 0.82364 0.0
C344 C 0.57792 0.01212 0.79913 0.0
C345 C 0.559 0.01255 0.79552 0.0
C346 C 0.50545 0.0374 0.6139 0.0
C347 C 0.54494 1.00199 0.61917 0.0
O348 O 0.48951 0.99119 0.52808 0.0
O349 O 0.50093 0.96607 0.56295 0.0
O350 O 0.49246 0.97238 0.68066 0.0
O351 O 0.51614 0.98797 0.69368 0.0
O352 O 0.4751 1.00309 0.64223 0.0
O353 O 0.48485 0.01427 0.72886 0.0
O354 O 0.52 0.01499 0.79857 0.0
O355 O 0.52813 0.03978 0.75429 0.0
O356 O 0.51058 0.04484 0.66084 0.0
O357 O 0.50511 0.02046 0.62129 0.0
O358 O 0.54178 0.01017 0.66795 0.0
O359 O 0.53169 0.99485 0.58819 0.0
H360 H 0.47229 0.95131 0.60133 0.0
H361 H 0.43957 0.94589 0.60511 0.0
H362 H 0.43346 0.97292 0.44389 0.0
H363 H 0.46624 0.9777 0.43945 0.0
H364 H 0.55116 0.05349 0.85889 0.0
H365 H 0.58456 0.05261 0.86683 0.0
H366 H 0.58509 1.00083 0.77976 0.0
H367 H 0.55218 1.00175 0.7729 0.0
C368 C 0.54481 0.48252 0.53479 0.0
Eu369 Eu 0.52748 0.49991 0.61331 0.0
C370 C 0.55263 0.46407 0.53619 0.0
C371 C 0.56055 0.45728 0.58599 0.0
C372 C 0.56502 0.43884 0.59075 0.0
C373 C 0.56141 0.42678 0.54611 0.0
C374 C 0.55416 0.43382 0.49549 0.0
C375 C 0.54985 0.45231 0.4906 0.0
C376 C 0.54268 0.51089 0.71201 0.0
C377 C 0.50978 0.46856 0.69858 0.0
C378 C 0.48778 0.52775 0.79658 0.0
Eu379 Eu 0.50028 0.5112 0.70875 0.0
C380 C 0.47835 0.54536 0.797 0.0
C381 C 0.47154 0.5524 0.74604 0.0
C382 C 0.46607 0.57056 0.74228 0.0
C383 C 0.46738 0.58203 0.78941 0.0
C384 C 0.47336 0.57469 0.8412 0.0
C385 C 0.47889 0.55648 0.84487 0.0
C386 C 0.4817 0.5074 0.6092 0.0
C387 C 0.5153 0.54132 0.61734 0.0
O388 O 0.52699 0.48308 0.53768 0.0
O389 O 0.55264 0.49465 0.56721 0.0
O390 O 0.54922 0.51494 0.66264 0.0
O391 O 0.52873 0.50094 0.70698 0.0
O392 O 0.51953 0.4726 0.65298 0.0
O393 O 0.50176 0.48126 0.72961 0.0
O394 O 0.50489 0.52887 0.78077 0.0
O395 O 0.479 0.51427 0.77226 0.0
O396 O 0.47395 0.51135 0.65677 0.0
O397 O 0.49845 0.50535 0.61823 0.0
O398 O 0.5101 0.53793 0.66989 0.0
O399 O 0.52026 0.52809 0.58268 0.0
H400 H 0.56258 0.46606 0.62219 0.0
H401 H 0.57076 0.43394 0.63004 0.0
H402 H 0.55085 0.42492 0.46057 0.0
H403 H 0.54349 0.45723 0.45224 0.0
H404 H 0.47133 0.54412 0.70828 0.0
H405 H 0.4614 0.57579 0.70202 0.0
H406 H 0.47476 0.58328 0.87808 0.0
H407 H 0.48445 0.55136 0.88417 0.0
C408 C 0.0362 0.53574 0.54551 0.0
Eu409 Eu 0.01758 0.52072 0.62574 0.0
C410 C 0.05609 0.53525 0.53753 0.0
C411 C 0.06575 0.55158 0.5302 0.0
C412 C 0.08477 0.55176 0.53423 0.0
C413 C 0.0944 0.53557 0.54569 0.0
C414 C 0.08471 0.51914 0.55104 0.0
C415 C 0.06575 0.51898 0.54708 0.0
C416 C 1.00506 0.53768 0.71936 0.0
C417 C 0.04836 0.50234 0.71299 0.0
C418 C 0.98817 0.48703 0.81825 0.0
Eu419 Eu 1.00564 0.49534 0.7273 0.0
C420 C 0.96807 0.48704 0.82382 0.0
C421 C 0.95819 0.47078 0.81686 0.0
C422 C 0.93944 0.47129 0.80628 0.0
C423 C 0.9302 0.48807 0.80239 0.0
C424 C 0.93989 0.50421 0.81368 0.0
C425 C 0.95853 0.50369 0.82466 0.0
C426 C 0.01191 0.47479 0.63329 0.0
C427 C 0.97578 0.50954 0.63234 0.0
O428 O 0.02748 0.52028 0.53902 0.0
O429 O 0.03095 0.54465 0.59043 0.0
O430 O 1.00147 0.5432 0.66839 0.0
O431 O 0.01527 0.52381 0.71808 0.0
O432 O 0.04441 0.51143 0.66594 0.0
O433 O 0.03567 0.49519 0.74615 0.0
O434 O 0.99569 0.50304 0.81034 0.0
O435 O 0.99501 0.47458 0.78472 0.0
O436 O 0.00727 0.46791 0.68176 0.0
O437 O 0.01317 0.4918 0.63874 0.0
O438 O 0.97909 0.50453 0.68524 0.0
O439 O 0.989 0.51442 0.59731 0.0
H440 H 0.05854 0.56431 0.52363 0.0
H441 H 0.09193 0.56457 0.52897 0.0
H442 H 0.09171 0.50649 0.56052 0.0
H443 H 0.05865 0.50622 0.55412 0.0
H444 H 0.96513 0.45773 0.81638 0.0
H445 H 0.93229 0.45855 0.79972 0.0
H446 H 0.93335 0.51742 0.81082 0.0
H447 H 0.96563 0.51654 0.83 0.0
H448 H 0.13872 0.03444 0.16924 0.0
H449 H 0.11365 0.03355 0.23778 0.0
H450 H 0.14299 0.99359 0.33584 0.0
H451 H 0.16789 0.99425 0.2676 0.0
H452 H 0.10712 0.98537 0.33033 0.0
H453 H 0.11577 0.05804 0.39035 0.0
H454 H 0.11105 0.05444 0.3169 0.0
H455 H 0.13203 0.04616 0.34671 0.0
C456 C 0.13976 0.02538 0.20525 0.0
C457 C 0.15535 0.01442 0.21281 0.0
C458 C 0.12546 0.02495 0.24457 0.0
C459 C 0.12656 0.01377 0.29269 0.0
C460 C 0.1418 1.00236 0.29918 0.0
H461 H 0.07639 0.02282 0.61883 0.0
H462 H 0.09533 0.02419 0.53402 0.0
C463 C 0.15601 1.00268 0.25981 0.0
C464 C 0.11222 0.01418 0.33736 0.0
H465 H 0.09194 0.04192 0.43486 0.0
C466 C 0.10371 0.99776 0.35295 0.0
C467 C 0.10793 0.03031 0.36746 0.0
C468 C 0.11727 0.04822 0.355 0.0
C469 C 0.09128 0.99694 0.39816 0.0
C470 C 0.08687 0.0131 0.42793 0.0
C471 C 0.09518 0.02957 0.41177 0.0
C472 C 0.07476 0.01299 0.47851 0.0
C473 C 0.08361 0.97863 0.41507 0.0
C474 C 0.05669 0.00663 0.47556 0.0
C475 C 0.04585 1.0057 0.52428 0.0
C476 C 0.05283 0.01131 0.5767 0.0
C477 C 0.07065 0.01832 0.57913 0.0
C478 C 0.08149 0.01913 0.5306 0.0
H479 H 0.09171 0.96718 0.3973 0.0
H480 H 0.08323 0.97715 0.46168 0.0
H481 H 0.06946 0.9774 0.39891 0.0
H482 H 0.051 1.00225 0.43568 0.0
H483 H 0.0321 1.00038 0.52104 0.0
H484 H 0.51896 0.15016 0.21779 0.0
H485 H 0.51944 0.12425 0.28237 0.0
H486 H 0.4624 0.11447 0.24966 0.0
H487 H 0.46177 0.14074 0.18559 0.0
H488 H 0.46819 0.11549 0.35836 0.0
H489 H 0.52042 0.07011 0.26694 0.0
H490 H 0.52935 0.09265 0.2762 0.0
H491 H 0.51074 0.08892 0.22789 0.0
C492 C 0.50664 0.14217 0.22292 0.0
C493 C 0.49034 0.14749 0.19626 0.0
C494 C 0.50694 0.12728 0.25993 0.0
C495 C 0.49103 0.11715 0.2705 0.0
C496 C 0.47489 0.122 0.24218 0.0
H497 H 0.49834 0.02408 0.50754 0.0
H498 H 0.49258 0.04185 0.42128 0.0
C499 C 0.47453 0.13702 0.20553 0.0
C500 C 0.49083 0.10286 0.31543 0.0
H501 H 0.51448 0.06621 0.36681 0.0
C502 C 0.47814 0.10454 0.35959 0.0
C503 C 0.50357 0.08832 0.317 0.0
C504 C 0.51664 0.08477 0.26909 0.0
C505 C 0.47844 0.09275 0.40637 0.0
C506 C 0.49211 0.07915 0.41005 0.0
C507 C 0.50417 0.0768 0.36455 0.0
C508 C 0.49484 0.06813 0.46224 0.0
C509 C 0.46414 0.09511 0.45161 0.0
C510 C 0.49819 0.07691 0.51378 0.0
C511 C 0.50128 0.0668 0.56284 0.0
C512 C 0.50127 0.04764 0.56156 0.0
C513 C 0.49807 0.03879 0.50999 0.0
C514 C 0.49492 0.04895 0.46066 0.0
H515 H 0.4515 0.1013 0.43422 0.0
H516 H 0.4606 0.08188 0.47167 0.0
H517 H 0.46944 0.10441 0.48463 0.0
H518 H 0.49873 0.09165 0.51596 0.0
H519 H 0.50391 0.07404 0.6018 0.0
H520 H 0.38315 0.46799 0.16589 0.0
H521 H 0.40822 0.46864 0.23429 0.0
H522 H 0.39513 0.5244 0.27508 0.0
H523 H 0.3702 0.52391 0.20691 0.0
H524 H 0.43237 0.51843 0.27217 0.0
H525 H 0.39759 0.4658 0.40255 0.0
H526 H 0.40263 0.45898 0.33151 0.0
H527 H 0.38651 0.477 0.34411 0.0
C528 C 0.38574 0.48045 0.189 0.0
C529 C 0.37455 0.49586 0.18097 0.0
C530 C 0.40004 0.48079 0.22824 0.0
C531 C 0.40335 0.49645 0.26076 0.0
C532 C 0.39285 0.51214 0.25063 0.0
H533 H 0.44536 0.5103 0.59264 0.0
H534 H 0.42832 0.50692 0.50499 0.0
C535 C 0.37863 0.51186 0.21127 0.0
C536 C 0.41686 0.49631 0.30779 0.0
H537 H 0.42556 0.47696 0.43632 0.0
C538 C 0.43101 0.50925 0.30784 0.0
C539 C 0.41494 0.48447 0.35473 0.0
C540 C 0.39953 0.47087 0.35876 0.0
C541 C 0.44306 0.51088 0.35386 0.0
C542 C 0.44107 0.49908 0.40081 0.0
C543 C 0.42718 0.4859 0.40015 0.0
C544 C 0.452 0.50126 0.4534 0.0
C545 C 0.45729 0.52574 0.35294 0.0
C546 C 0.47109 0.49916 0.4539 0.0
C547 C 0.48095 0.50115 0.50439 0.0
C548 C 0.47185 0.50515 0.5551 0.0
C549 C 0.45279 0.50718 0.55431 0.0
C550 C 0.443 0.50523 0.50417 0.0
H551 H 0.45472 0.53587 0.31896 0.0
H552 H 0.45771 0.53298 0.39403 0.0
H553 H 0.4709 0.51956 0.34555 0.0
H554 H 0.47834 0.49583 0.41546 0.0
H555 H 0.49563 0.49958 0.50375 0.0
H556 H 0.05601 0.36298 0.22494 0.0
H557 H 0.05672 0.3884 0.29209 0.0
H558 H 0.99792 0.38891 0.29649 0.0
H559 H 0.99711 0.36384 0.22906 0.0
H560 H 0.01138 0.42323 0.29775 0.0
H561 H 0.0471 0.38093 0.45799 0.0
H562 H 0.05927 0.3836 0.39279 0.0
H563 H 0.03799 0.3714 0.39388 0.0
C564 C 0.04324 0.36864 0.23987 0.0
C565 C 0.02651 0.36131 0.22163 0.0
C566 C 0.04366 0.38312 0.27846 0.0
C567 C 0.02737 0.39036 0.30039 0.0
C568 C 0.01068 0.38358 0.28035 0.0
H569 H 1.00399 0.43915 0.61846 0.0
H570 H 0.00892 0.42036 0.53505 0.0
C571 C 0.01025 0.36926 0.24147 0.0
C572 C 0.02748 0.4043 0.34618 0.0
H573 H 0.04021 0.41114 0.48325 0.0
C574 C 0.0178 0.42066 0.3382 0.0
C575 C 0.03569 0.40087 0.39926 0.0
C576 C 0.04546 0.3832 0.4119 0.0
C577 C 0.01577 0.43346 0.38202 0.0
C578 C 0.02396 0.42999 0.43506 0.0
C579 C 0.03402 0.41386 0.44253 0.0
C580 C 0.02092 0.44197 0.48502 0.0
C581 C 1.00417 0.45015 0.37188 0.0
C582 C 0.02606 0.46047 0.48508 0.0
C583 C 0.02308 0.47134 0.53298 0.0
C584 C 0.0151 0.46385 0.58168 0.0
C585 C 0.01016 0.44534 0.58158 0.0
C586 C 0.01301 0.43456 0.53387 0.0
H587 H 0.9956 0.44876 0.33347 0.0
H588 H 0.99511 0.45282 0.40851 0.0
H589 H 0.01316 0.46218 0.36608 0.0
H590 H 0.03257 0.46644 0.44844 0.0
H591 H 0.02726 0.48547 0.53218 0.0
H592 H 0.88306 0.0201 0.1803 0.0
H593 H 0.9074 0.02024 0.10944 0.0
H594 H 0.89399 0.96499 0.06385 0.0
H595 H 0.86943 0.9648 0.13347 0.0
H596 H 0.93335 0.97354 0.06856 0.0
H597 H 0.89262 0.02194 0.93859 0.0
H598 H 0.89673 0.02862 0.01043 0.0
H599 H 0.8828 0.00905 0.996 0.0
C600 C 0.88537 0.0079 0.15562 0.0
C601 C 0.87409 0.99249 0.16252 0.0
C602 C 0.89932 0.00801 0.11517 0.0
C603 C 0.90234 0.99271 0.08083 0.0
C604 C 0.89191 0.97694 0.0899 0.0
H605 H 0.94953 0.98504 0.74802 0.0
H606 H 0.931 0.9826 0.83366 0.0
C607 C 0.87791 0.97684 0.13014 0.0
C608 C 0.91532 0.99359 0.03258 0.0
H609 H 0.92144 0.01345 0.90338 0.0
C610 C 0.93084 0.98233 0.03256 0.0
C611 C 0.91186 1.00488 0.98528 0.0
C612 C 0.89505 0.01673 0.98199 0.0
C613 C 0.94304 0.98219 0.98659 0.0
C614 C 0.93962 0.99361 0.93958 0.0
C615 C 0.92408 1.00479 0.93961 0.0
C616 C 0.95161 0.9938 0.88891 0.0
C617 C 0.95927 0.96955 0.98788 0.0
C618 C 0.96944 1.00078 0.89154 0.0
C619 C 0.98004 1.0023 0.84245 0.0
C620 C 0.97298 0.99684 0.78995 0.0
C621 C 0.95533 0.98939 0.78778 0.0
C622 C 0.94472 0.988 0.83669 0.0
H623 H 0.95823 0.95932 0.02238 0.0
H624 H 0.96067 0.96228 0.94703 0.0
H625 H 0.97186 0.97766 0.99448 0.0
H626 H 0.97496 1.00553 0.93125 0.0
H627 H 0.99359 0.00809 0.84541 0.0
H628 H 0.54571 0.8559 0.09052 0.0
H629 H 0.54684 0.88054 0.02118 0.0
H630 H 0.49972 0.90546 0.09806 0.0
H631 H 0.49886 0.88117 0.16882 0.0
H632 H 0.51955 0.88662 0.94579 0.0
H633 H 0.53199 0.94965 0.0685 0.0
H634 H 0.53618 0.92715 0.09691 0.0
H635 H 0.5134 0.93626 0.09531 0.0
C636 C 0.53596 0.86694 0.09406 0.0
C637 C 0.52218 0.86649 0.13543 0.0
C638 C 0.53653 0.88097 0.05395 0.0
C639 C 0.52344 0.89495 0.05444 0.0
C640 C 0.51018 0.89503 0.09724 0.0
H641 H 0.48112 0.955 0.77092 0.0
H642 H 0.48641 0.93616 0.8546 0.0
C643 C 0.50959 0.881 0.13741 0.0
C644 C 0.52241 0.90818 0.00675 0.0
H645 H 0.52101 0.95365 0.97397 0.0
C646 C 0.52006 0.90127 0.95201 0.0
C647 C 0.52317 0.92732 0.01463 0.0
C648 C 0.5265 0.93556 0.07194 0.0
C649 C 0.51792 0.91289 0.90534 0.0
C650 C 0.51791 0.932 0.91351 0.0
C651 C 0.52084 0.93899 0.96788 0.0
C652 C 0.51439 0.94476 0.86594 0.0
C653 C 0.51563 0.90462 0.84751 0.0
C654 C 0.5282 0.95628 0.84544 0.0
C655 C 0.5252 0.96708 0.79738 0.0
C656 C 0.5083 0.96665 0.76946 0.0
C657 C 0.49433 0.95558 0.79137 0.0
C658 C 0.49732 0.94479 0.83914 0.0
H659 H 0.52025 0.89019 0.84638 0.0
H660 H 0.50099 0.90497 0.83567 0.0
H661 H 0.52338 0.91249 0.81539 0.0
H662 H 0.54149 0.95644 0.86543 0.0
H663 H 0.53628 0.97519 0.78088 0.0
H664 H 0.6636 0.53873 0.09211 0.0
H665 H 0.63931 0.53953 0.02157 0.0
H666 H 0.6159 0.49075 0.09265 0.0
H667 H 0.6402 0.48984 0.16395 0.0
H668 H 0.63322 0.50633 0.94579 0.0
H669 H 0.57209 0.52923 0.06605 0.0
H670 H 0.59498 0.53525 0.08739 0.0
H671 H 0.58691 0.5124 0.09739 0.0
C672 C 0.65303 0.52843 0.09393 0.0
C673 C 0.65384 0.51425 0.13403 0.0
C674 C 0.63921 0.52886 0.05322 0.0
C675 C 0.62576 0.51526 0.05201 0.0
C676 C 0.62606 0.50146 0.09315 0.0
H677 H 0.53672 0.49439 0.8143 0.0
H678 H 0.5564 0.49551 0.89802 0.0
C679 C 0.64 0.50093 0.1337 0.0
C680 C 0.6125 0.51467 1.00461 0.0
H681 H 0.56787 0.52218 0.96982 0.0
C682 C 0.61893 0.5098 0.95096 0.0
C683 C 0.59385 0.51897 0.01171 0.0
C684 C 0.58641 0.52435 0.06859 0.0
C685 C 0.60721 0.5091 0.90411 0.0
C686 C 0.58861 0.51399 0.9106 0.0
C687 C 0.58212 0.51858 0.96462 0.0
C688 C 0.57582 0.51443 0.86164 0.0
C689 C 0.61485 0.5027 0.84839 0.0
C690 C 0.57976 0.52516 0.81398 0.0
C691 C 0.56866 0.52439 0.76603 0.0
C692 C 0.55317 0.51312 0.76501 0.0
C693 C 0.54861 0.50315 0.81378 0.0
C694 C 0.55986 0.50379 0.86164 0.0
H695 H 0.62733 0.4943 0.85431 0.0
H696 H 0.60469 0.49455 0.82461 0.0
H697 H 0.61866 0.51474 0.82249 0.0
H698 H 0.59166 0.53391 0.81344 0.0
H699 H 0.5724 0.53238 0.72933 0.0
H700 H 0.02431 0.65265 0.12586 0.0
H701 H 0.02607 0.62811 0.05605 0.0
H702 H 0.96738 0.62516 0.05137 0.0
H703 H 0.96544 0.64978 0.12032 0.0
H704 H 0.98487 0.59042 0.05016 0.0
H705 H 0.01325 0.63764 0.88886 0.0
H706 H 0.02578 0.63663 0.95391 0.0
H707 H 1.00298 0.64563 0.95349 0.0
C708 C 0.01176 0.64673 0.11026 0.0
C709 C 0.99473 0.65335 0.1287 0.0
C710 C 0.0128 0.63269 0.0703 0.0
C711 C 0.99685 0.625 0.04775 0.0
C712 C 0.97987 0.6309 0.06809 0.0
H713 H 0.98477 0.56872 0.72797 0.0
H714 H 0.98198 0.58898 0.80966 0.0
C715 C 0.97881 0.64494 0.10794 0.0
C716 C 0.99776 0.61149 1.00097 0.0
H717 H 0.01078 0.60663 0.86329 0.0
C718 C 0.99058 0.59393 0.00934 0.0
C719 C 1.00493 0.61618 0.94739 0.0
C720 C 0.01204 0.63508 0.93493 0.0
C721 C 0.99058 0.58087 0.96578 0.0
C722 C 0.99809 0.58547 0.91258 0.0
C723 C 1.00511 0.60308 0.90414 0.0
C724 C 0.99867 0.57234 0.8647 0.0
C725 C 0.98221 0.56241 0.97667 0.0
C726 C 0.00889 0.55617 0.86845 0.0
C727 C 0.01051 0.54458 0.82175 0.0
C728 C 1.00197 0.54896 0.77035 0.0
C729 C 0.99146 0.56496 0.76702 0.0
C730 C 0.98989 0.57656 0.81365 0.0
H731 H 0.97314 0.56255 0.01426 0.0
H732 H 0.97421 0.55775 0.93961 0.0
H733 H 0.99323 0.55234 0.98439 0.0
H734 H 0.01609 0.55279 0.90696 0.0
H735 H 0.01891 0.53248 0.82543 0.0
H736 H 0.93393 0.22234 0.31734 0.0
H737 H 0.92949 0.20076 0.39402 0.0
H738 H 0.97014 0.2288 0.49287 0.0
H739 H 0.97553 0.24975 0.41468 0.0
H740 H 0.97958 0.19545 0.47858 0.0
H741 H 0.90789 0.19363 0.54561 0.0
H742 H 0.90864 0.19264 0.47021 0.0
H743 H 0.91713 0.2126 0.50615 0.0
C744 C 0.94166 0.22417 0.35585 0.0
C745 C 0.95539 0.2375 0.35927 0.0
C746 C 0.93886 0.21199 0.40027 0.0
C747 C 0.94942 0.21315 0.44954 0.0
C748 C 0.96179 0.22766 0.45534 0.0
H749 H 0.97437 0.1122 0.63635 0.0
H750 H 0.96859 0.14498 0.62658 0.0
C751 C 0.96479 0.23971 0.41056 0.0
C752 C 0.95038 0.19723 0.48813 0.0
H753 H 0.92395 0.16385 0.5466 0.0
C754 C 0.96747 0.18886 0.49525 0.0
C755 C 0.93462 0.1886 0.51 0.0
C756 C 0.9161 0.1975 0.50804 0.0
C757 C 0.96903 0.17139 0.51861 0.0
C758 C 0.95307 0.1621 0.53577 0.0
C759 C 0.93614 0.17098 0.53289 0.0
C760 C 0.95358 0.14238 0.54847 0.0
C761 C 0.98758 0.1624 0.52045 0.0
C762 C 0.94642 0.13012 0.50894 0.0
C763 C 0.94977 0.11146 0.51414 0.0
C764 C 0.96034 0.10477 0.55908 0.0
C765 C 0.96649 0.11701 0.60065 0.0
C766 C 0.96311 0.13569 0.5954 0.0
H767 H 0.99825 0.17074 0.49937 0.0
H768 H 0.9917 0.1603 0.56502 0.0
H769 H 0.98708 0.14883 0.49977 0.0
H770 H 0.93912 0.13508 0.47225 0.0
H771 H 0.94495 0.10244 0.48125 0.0
H772 H 0.31642 0.03527 0.36167 0.0
H773 H 0.33497 0.02179 0.43559 0.0
H774 H 0.28825 0.99196 0.49708 0.0
H775 H 0.26992 1.00417 0.4197 0.0
H776 H 0.33677 0.01845 0.54612 0.0
H777 H 0.32002 0.95035 0.45494 0.0
H778 H 0.31242 0.9711 0.42187 0.0
H779 H 0.30168 0.96315 0.48561 0.0
C780 C 0.31003 0.02585 0.39085 0.0
C781 C 0.29186 0.02029 0.3833 0.0
C782 C 0.32061 0.01832 0.43376 0.0
C783 C 0.31317 1.00533 0.47082 0.0
C784 C 0.29446 1.00143 0.46774 0.0
H785 H 0.41481 0.96614 0.62319 0.0
H786 H 0.38233 0.97289 0.63211 0.0
C787 C 0.28392 0.00867 0.42385 0.0
C788 C 0.32582 0.99449 0.50647 0.0
H789 H 0.34607 0.95258 0.50938 0.0
C790 C 0.33864 1.00394 0.53929 0.0
C791 C 0.328 0.97546 0.49832 0.0
C792 C 0.3149 0.96436 0.46314 0.0
C793 C 0.35483 0.99555 0.55734 0.0
C794 C 0.35785 0.97694 0.54402 0.0
C795 C 0.34381 0.9669 0.51856 0.0
C796 C 0.37646 0.96896 0.54347 0.0
C797 C 0.36924 0.0072 0.58513 0.0
C798 C 0.38365 0.96294 0.49177 0.0
C799 C 0.40202 0.95836 0.48693 0.0
C800 C 0.41372 0.96002 0.53347 0.0
C801 C 0.40622 0.96467 0.58635 0.0
C802 C 0.38767 0.96887 0.59142 0.0
H803 H 0.36552 0.0219 0.58539 0.0
H804 H 0.37103 1.0028 0.62955 0.0
H805 H 0.38253 1.00572 0.56311 0.0
H806 H 0.37527 0.96271 0.45413 0.0
H807 H 0.40722 0.95437 0.44599 0.0
H808 H 0.53692 0.26256 0.419 0.0
H809 H 0.54766 0.28061 0.49943 0.0
H810 H 0.51162 0.32442 0.45026 0.0
H811 H 0.50039 0.30626 0.37222 0.0
H812 H 0.56629 0.31013 0.48939 0.0
H813 H 0.50691 0.32894 0.61566 0.0
H814 H 0.50616 0.30998 0.56709 0.0
H815 H 0.50059 0.33281 0.54378 0.0
C816 C 0.53085 0.27578 0.42677 0.0
C817 C 0.51797 0.28312 0.38905 0.0
C818 C 0.53703 0.2861 0.47261 0.0
C819 C 0.5303 0.30381 0.48156 0.0
C820 C 0.51668 0.31063 0.44558 0.0
H821 H 0.5729 0.40168 0.46846 0.0
H822 H 0.56969 0.36882 0.4742 0.0
C823 C 0.51048 0.30035 0.40018 0.0
C824 C 0.53942 0.31653 0.52111 0.0
H825 H 0.52888 0.35461 0.59604 0.0
C826 C 0.55823 0.31949 0.51453 0.0
C827 C 0.52928 0.32836 0.55623 0.0
C828 C 0.50966 0.32464 0.57153 0.0
C829 C 0.56645 0.33545 0.5348 0.0
C830 C 0.55541 0.34896 0.56026 0.0
C831 C 0.53731 0.34464 0.57459 0.0
C832 C 0.56097 0.36843 0.56169 0.0
C833 C 0.58663 0.33809 0.5256 0.0
C834 C 0.55713 0.37937 0.60879 0.0
C835 C 0.55837 0.39836 0.60486 0.0
C836 C 0.56347 0.40675 0.55375 0.0
C837 C 0.5686 0.3957 0.5081 0.0
C838 C 0.56714 0.37679 0.5118 0.0
H839 H 0.59402 0.32506 0.53265 0.0
H840 H 0.58911 0.3422 0.48116 0.0
H841 H 0.59237 0.34863 0.55411 0.0
H842 H 0.55222 0.37328 0.6476 0.0
H843 H 0.55423 0.40644 0.64081 0.0
H844 H 0.25786 0.54298 0.3969 0.0
H845 H 0.23926 0.55024 0.48008 0.0
H846 H 0.20891 0.5004 0.45621 0.0
H847 H 0.22755 0.49305 0.37445 0.0
H848 H 0.20414 0.55668 0.46531 0.0
H849 H 0.20893 0.50274 0.62497 0.0
H850 H 0.22671 0.5064 0.5732 0.0
H851 H 0.20734 0.4921 0.55724 0.0
C852 C 0.24764 0.5333 0.41088 0.0
C853 C 0.24391 0.51759 0.37906 0.0
C854 C 0.23707 0.53743 0.45837 0.0
C855 C 0.22284 0.52576 0.47493 0.0
C856 C 0.2201 0.5094 0.44541 0.0
H857 H 0.11865 0.51101 0.50347 0.0
H858 H 0.1518 0.51184 0.50949 0.0
C859 C 0.23055 0.50534 0.39803 0.0
C860 C 0.20832 0.53212 0.51364 0.0
H861 H 0.17729 0.514 0.60479 0.0
C862 C 0.19862 0.54782 0.49778 0.0
C863 C 0.20125 0.52074 0.55661 0.0
C864 C 0.21179 0.50468 0.5793 0.0
C865 C 0.18084 0.55088 0.51734 0.0
C866 C 0.1728 0.53798 0.55408 0.0
C867 C 0.18342 0.52371 0.57592 0.0
C868 C 0.15278 0.53662 0.55891 0.0
C869 C 0.17008 0.56666 0.49348 0.0
C870 C 0.14238 0.55015 0.58558 0.0
C871 C 0.12334 0.54972 0.58207 0.0
C872 C 0.1145 0.53573 0.55198 0.0
C873 C 0.12502 0.52188 0.52727 0.0
C874 C 0.14396 0.52232 0.53079 0.0
H875 H 0.17821 0.57501 0.46346 0.0
H876 H 0.15777 0.56154 0.47126 0.0
H877 H 0.16544 0.57563 0.52832 0.0
H878 H 0.14899 0.56121 0.60785 0.0
H879 H 0.11553 0.56038 0.60252 0.0
H880 H 0.91826 0.79427 0.97982 0.0
H881 H 0.92218 0.81855 0.90971 0.0
H882 H 0.97662 0.79905 0.87513 0.0
H883 H 0.97249 0.77463 0.94294 0.0
H884 H 0.94516 0.84339 0.9324 0.0
H885 H 0.96507 0.81799 0.72361 0.0
H886 H 0.95413 0.8034 0.77498 0.0
H887 H 0.9786 0.80638 0.77519 0.0
C888 C 0.93074 0.79478 0.95539 0.0
C889 C 0.94511 0.78268 0.96704 0.0
C890 C 0.93297 0.8086 0.91526 0.0
C891 C 0.94969 0.81066 0.88678 0.0
C892 C 0.96341 0.79756 0.89503 0.0
H893 H 0.02666 0.89087 0.84172 0.0
H894 H 0.00792 0.86322 0.84166 0.0
C895 C 0.96108 0.7836 0.93436 0.0
C896 C 0.95448 0.8283 0.85981 0.0
H897 H 0.98062 0.84647 0.75435 0.0
C898 C 0.95232 0.84414 0.89241 0.0
C899 C 0.96389 0.8294 0.80768 0.0
C900 C 0.96535 0.81336 0.76826 0.0
C901 C 0.96069 0.86056 0.87703 0.0
C902 C 0.97144 0.86117 0.82763 0.0
C903 C 0.97253 0.84581 0.79264 0.0
C904 C 0.98319 0.87704 0.81607 0.0
C905 C 0.9591 0.87679 0.91589 0.0
C906 C 0.97552 0.89375 0.80002 0.0
C907 C 0.98616 0.90952 0.80007 0.0
C908 C 1.0046 0.90881 0.81654 0.0
C909 C 0.0125 0.89183 0.82907 0.0
C910 C 1.00184 0.87605 0.82885 0.0
H911 H 0.95148 0.87354 0.95519 0.0
H912 H 0.97287 0.88184 0.92753 0.0
H913 H 0.95187 0.88802 0.89379 0.0
H914 H 0.96116 0.89469 0.78969 0.0
H915 H 0.97985 0.92236 0.78859 0.0
H916 H 0.75639 0.02192 0.94885 0.0
H917 H 0.73538 0.03351 0.8771 0.0
H918 H 0.70385 0.98399 0.88943 0.0
H919 H 0.72523 0.97198 0.95882 0.0
H920 H 0.70237 0.99984 0.78174 0.0
H921 H 0.68851 0.05054 0.95233 0.0
H922 H 0.7109 0.05016 0.92154 0.0
H923 H 0.70332 0.0313 0.96402 0.0
C924 C 0.74542 0.01319 0.93451 0.0
C925 C 0.74212 0.99624 0.96053 0.0
C926 C 0.73336 0.01991 0.89383 0.0
C927 C 0.71778 0.00985 0.87939 0.0
C928 C 0.71571 0.99207 0.90042 0.0
H929 H 0.61051 0.99809 0.842 0.0
H930 H 0.64365 0.99791 0.83609 0.0
C931 C 0.72782 0.98528 0.94053 0.0
C932 C 0.70194 0.01855 0.85175 0.0
H933 H 0.66582 0.0457 0.88605 0.0
C934 C 0.6946 0.01029 0.80344 0.0
C935 C 0.69188 0.03233 0.87989 0.0
C936 C 0.69892 0.0416 0.93243 0.0
C937 C 0.67675 0.01417 0.78588 0.0
C938 C 0.66606 0.0264 0.8179 0.0
C939 C 0.67409 0.03621 0.86202 0.0
C940 C 0.64598 0.0265 0.81422 0.0
C941 C 0.66909 1.00429 0.73543 0.0
C942 C 0.63632 0.04278 0.80547 0.0
C943 C 0.61728 0.04293 0.80892 0.0
C944 C 0.60767 0.02684 0.82192 0.0
C945 C 0.61747 0.01063 0.83098 0.0
C946 C 0.63641 0.01047 0.82714 0.0
H947 H 0.68002 1.00102 0.70453 0.0
H948 H 0.66293 0.99123 0.74951 0.0
H949 H 0.65839 0.0125 0.71404 0.0
H950 H 0.64353 0.05535 0.79646 0.0
H951 H 0.6101 0.05558 0.80093 0.0
H952 H 0.49816 0.74434 0.91442 0.0
H953 H 0.49099 0.72487 0.83345 0.0
H954 H 0.44943 0.69779 0.93173 0.0
H955 H 0.45606 0.71752 0.01142 0.0
H956 H 0.49708 0.68984 0.83864 0.0
H957 H 0.42508 0.69772 0.78145 0.0
H958 H 0.43715 0.7149 0.82132 0.0
H959 H 0.42643 0.69586 0.85663 0.0
C960 C 0.48704 0.73467 0.9179 0.0
C961 C 0.4778 0.73225 0.96938 0.0
C962 C 0.48297 0.72357 0.87164 0.0
C963 C 0.4695 0.71002 0.87613 0.0
C964 C 0.45952 0.70845 0.92648 0.0
H965 H 0.4492 0.60448 0.86199 0.0
H966 H 0.4485 0.63778 0.86019 0.0
C967 C 0.46355 0.71951 0.97249 0.0
C968 C 0.46823 0.6952 0.83394 0.0
H969 H 0.43684 0.6657 0.78 0.0
C970 C 0.48402 0.68489 0.82367 0.0
C971 C 0.45124 0.68886 0.81366 0.0
C972 C 0.43409 0.7001 0.8184 0.0
C973 C 0.48293 0.66733 0.80069 0.0
C974 C 0.46559 0.66007 0.78729 0.0
C975 C 0.45008 0.67121 0.7912 0.0
C976 C 0.46304 0.64021 0.781 0.0
C977 C 0.5001 0.65601 0.79649 0.0
C978 C 0.47091 0.6306 0.73607 0.0
C979 C 0.47152 0.61155 0.73738 0.0
C980 C 0.46419 0.60189 0.78356 0.0
C981 C 0.45521 0.61157 0.82641 0.0
C982 C 0.45464 0.63056 0.82509 0.0
H983 H 0.51226 0.66329 0.81301 0.0
H984 H 0.49847 0.64307 0.82037 0.0
H985 H 0.50271 0.65251 0.75169 0.0
H986 H 0.47736 0.63783 0.70153 0.0
H987 H 0.47863 0.60448 0.70384 0.0
H988 H 0.76646 0.48479 0.90659 0.0
H989 H 0.78386 0.47904 0.82003 0.0
H990 H 0.82236 0.52075 0.86793 0.0
H991 H 0.80462 0.5272 0.95217 0.0
H992 H 0.81797 0.51883 0.75196 0.0
H993 H 0.82962 0.44945 0.84326 0.0
H994 H 0.80692 0.45635 0.82421 0.0
H995 H 0.81797 0.46661 0.88392 0.0
C996 C 0.77834 0.49309 0.89769 0.0
C997 C 0.78447 0.50613 0.93691 0.0
C998 C 0.78833 0.48969 0.84841 0.0
C999 C 0.80464 0.49915 0.83819 0.0
C1000 C 0.80985 0.51321 0.87496 0.0
H1001 H 0.90404 0.51163 0.84051 0.0
H1002 H 0.87204 0.51266 0.81523 0.0
C1003 C 0.79984 0.51672 0.92363 0.0
C1004 C 0.81809 0.493 0.7956 0.0
H1005 H 0.85304 0.46241 0.79094 0.0
C1006 C 0.82528 0.50614 0.75852 0.0
C1007 C 0.82743 0.47622 0.80279 0.0
C1008 C 0.82019 0.46129 0.84062 0.0
C1009 C 0.84293 0.50425 0.7365 0.0
C1010 C 0.85341 0.4889 0.75207 0.0
C1011 C 0.845 0.47433 0.78014 0.0
C1012 C 0.87344 0.49013 0.75646 0.0
C1013 C 0.85098 0.51963 0.70238 0.0
C1014 C 0.88488 0.47704 0.73192 0.0
C1015 C 0.90344 0.47659 0.74572 0.0
C1016 C 0.91069 0.48891 0.78547 0.0
C1017 C 0.89913 0.50215 0.80904 0.0
C1018 C 0.88077 0.50281 0.79439 0.0
H1019 H 0.84052 0.5256 0.67391 0.0
H1020 H 0.85561 0.53056 0.73139 0.0
H1021 H 0.86281 0.51503 0.67681 0.0
H1022 H 0.87938 0.46695 0.70328 0.0
H1023 H 0.91203 0.46647 0.72572 0.0
H1024 H 0.9976 0.20759 0.87128 0.0
H1025 H 1.00083 0.17744 0.82821 0.0
H1026 H 0.04828 0.16704 0.93065 0.0
H1027 H 0.04491 0.19705 0.97489 0.0
H1028 H 0.02998 0.16003 0.76927 0.0
H1029 H 0.01341 0.12475 0.97061 0.0
H1030 H 0.0094 0.1488 0.96007 0.0
H1031 H 0.03206 0.14061 0.97391 0.0
C1032 C 0.0088 0.19894 0.88447 0.0
C1033 C 0.02089 0.20471 0.927 0.0
C1034 C 0.01066 0.18172 0.85962 0.0
C1035 C 0.02458 0.16982 0.87693 0.0
C1036 C 0.03724 0.17586 0.9173 0.0
H1037 H 0.04268 0.054 0.80635 0.0
H1038 H 0.04525 0.08544 0.84033 0.0
C1039 C 0.03542 0.19313 0.94209 0.0
C1040 C 0.02533 0.15088 0.85435 0.0
H1041 H 0.02065 0.10616 0.89283 0.0
C1042 C 0.02799 0.14824 0.79626 0.0
C1043 C 0.02271 0.13548 0.88956 0.0
C1044 C 0.01908 0.13745 0.95194 0.0
C1045 C 0.02828 0.13064 0.77252 0.0
C1046 C 0.0254 0.11523 0.80764 0.0
C1047 C 0.02292 0.1179 0.86584 0.0
C1048 C 0.02439 0.09626 0.78495 0.0
C1049 C 0.03199 0.12877 0.71016 0.0
C1050 C 0.01171 0.09172 0.74282 0.0
C1051 C 0.01032 0.07379 0.72305 0.0
C1052 C 0.02139 0.05986 0.74546 0.0
C1053 C 0.03397 0.06437 0.78801 0.0
C1054 C 0.03546 0.08236 0.80749 0.0
H1055 H 0.0396 0.14073 0.69349 0.0
H1056 H 0.03993 0.11624 0.70086 0.0
H1057 H 0.01881 0.12801 0.68723 0.0
H1058 H 1.00259 0.10198 0.72589 0.0
H1059 H 1.00024 0.0708 0.69106 0.0
H1060 H 0.30647 0.04696 0.86025 0.0
H1061 H 0.33484 0.04442 0.80626 0.0
H1062 H 0.34296 0.99011 0.872 0.0
H1063 H 0.31431 0.99242 0.92444 0.0
H1064 H 0.36736 0.04202 0.84543 0.0
H1065 H 0.35697 0.98128 0.71226 0.0
H1066 H 0.33845 0.9921 0.74954 0.0
H1067 H 0.35297 0.97588 0.78498 0.0
C1068 C 0.31413 0.03434 0.8622 0.0
C1069 C 0.3081 0.01986 0.89644 0.0
C1070 C 0.33038 0.03289 0.83136 0.0
C1071 C 0.34109 0.01699 0.83432 0.0
C1072 C 0.33481 1.00233 0.86744 0.0
H1073 H 0.45867 0.01576 0.79995 0.0
H1074 H 0.42696 0.01759 0.83074 0.0
C1075 C 0.31841 1.00368 0.89768 0.0
C1076 C 0.35957 0.01648 0.80752 0.0
H1077 H 0.38825 0.99023 0.7277 0.0
C1078 C 0.37179 0.03077 0.8191 0.0
C1079 C 0.36544 1.00204 0.77214 0.0
C1080 C 0.35268 0.98709 0.75348 0.0
C1081 C 0.38973 0.03075 0.79809 0.0
C1082 C 0.39602 0.01564 0.76634 0.0
C1083 C 0.38364 1.00166 0.75295 0.0
C1084 C 0.41542 0.01403 0.74739 0.0
C1085 C 0.40159 0.04715 0.80959 0.0
C1086 C 0.41967 0.01057 0.69055 0.0
C1087 C 0.43789 0.00916 0.67292 0.0
C1088 C 0.4523 0.01125 0.71171 0.0
C1089 C 0.44799 0.01443 0.76868 0.0
C1090 C 0.42979 0.01559 0.78635 0.0
H1091 H 0.39324 0.05963 0.81607 0.0
H1092 H 0.40951 0.04478 0.8488 0.0
H1093 H 0.41127 0.04973 0.77443 0.0
H1094 H 0.40889 0.0091 0.65962 0.0
H1095 H 0.44065 0.00653 0.62877 0.0
H1096 H 0.51996 0.32255 0.98035 0.0
H1097 H 0.51978 0.3511 0.92785 0.0
H1098 H 0.49326 0.32444 0.78826 0.0
H1099 H 0.49354 0.29549 0.84067 0.0
H1100 H 0.5356 0.35946 0.82395 0.0
H1101 H 0.46033 0.36888 0.81906 0.0
H1102 H 0.47127 0.35261 0.8652 0.0
H1103 H 0.46874 0.34765 0.79147 0.0
C1104 C 0.51429 0.32259 0.93817 0.0
C1105 C 0.50692 0.30656 0.91465 0.0
C1106 C 0.5141 0.33902 0.9083 0.0
C1107 C 0.5064 0.34001 0.85425 0.0
C1108 C 0.49903 0.3241 0.83028 0.0
H1109 H 0.5235 0.43819 0.64533 0.0
H1110 H 0.52215 0.40645 0.67731 0.0
C1111 C 0.49922 0.30754 0.86029 0.0
C1112 C 0.5063 0.3578 0.82373 0.0
H1113 H 0.47818 0.39163 0.77551 0.0
C1114 C 0.52305 0.36643 0.81286 0.0
C1115 C 0.48991 0.36698 0.80983 0.0
C1116 C 0.4715 0.35869 0.82226 0.0
C1117 C 0.52388 0.38406 0.78952 0.0
C1118 C 0.50749 0.39327 0.77576 0.0
C1119 C 0.49073 0.38453 0.78574 0.0
C1120 C 0.50745 0.41239 0.75426 0.0
C1121 C 0.54228 0.39297 0.78204 0.0
C1122 C 0.49908 0.42626 0.78583 0.0
C1123 C 0.49964 0.44441 0.76745 0.0
C1124 C 0.50858 0.44914 0.71691 0.0
C1125 C 0.51662 0.43514 0.68468 0.0
C1126 C 0.51597 0.41696 0.70304 0.0
H1127 H 0.55312 0.38578 0.8061 0.0
H1128 H 0.54607 0.3927 0.73677 0.0
H1129 H 0.54189 0.40743 0.79581 0.0
H1130 H 0.49238 0.42308 0.8254 0.0
H1131 H 0.49326 0.45476 0.79337 0.0
H1132 H 0.20828 0.47299 0.92785 0.0
H1133 H 0.17825 0.47161 0.88238 0.0
H1134 H 0.18578 0.52604 0.81767 0.0
H1135 H 0.21578 0.52759 0.86336 0.0
H1136 H 0.14959 0.50129 0.90814 0.0
H1137 H 0.16633 0.49197 0.68108 0.0
H1138 H 0.18187 0.48541 0.73671 0.0
H1139 H 0.17891 0.50904 0.71942 0.0
C1140 C 0.20374 0.48451 0.90283 0.0
C1141 C 0.21445 0.5004 0.89919 0.0
C1142 C 0.18653 0.48373 0.87714 0.0
C1143 C 0.17982 0.49869 0.84645 0.0
C1144 C 0.19076 0.51429 0.84078 0.0
H1145 H 0.07731 0.52266 0.67531 0.0
H1146 H 0.10903 0.52135 0.70679 0.0
C1147 C 0.20787 0.51518 0.86707 0.0
C1148 C 0.16078 0.49861 0.82472 0.0
H1149 H 0.13531 0.49672 0.70411 0.0
C1150 C 0.14643 0.50017 0.86357 0.0
C1151 C 0.15673 0.49747 0.76655 0.0
C1152 C 0.17171 0.49578 0.72325 0.0
C1153 C 0.12813 0.50086 0.84589 0.0
C1154 C 0.12395 0.49925 0.78765 0.0
C1155 C 0.13839 0.49778 0.74873 0.0
C1156 C 0.10473 0.49936 0.76644 0.0
C1157 C 0.11355 0.50397 0.88986 0.0
C1158 C 0.09168 0.48714 0.78812 0.0
C1159 C 0.07344 0.48799 0.7706 0.0
C1160 C 0.06787 0.50083 0.72995 0.0
C1161 C 0.08109 0.51256 0.70657 0.0
C1162 C 0.09928 0.51184 0.72463 0.0
H1163 H 0.11919 0.51063 0.92814 0.0
H1164 H 0.10233 0.51261 0.87317 0.0
H1165 H 0.10776 0.49064 0.90296 0.0
H1166 H 0.09558 0.47695 0.81896 0.0
H1167 H 0.06371 0.47858 0.78893 0.0
H1168 H 0.95663 0.81105 0.45964 0.0
H1169 H 0.96218 0.83969 0.50923 0.0
H1170 H 0.0196 0.8354 0.4721 0.0
H1171 H 0.01405 0.80713 0.42005 0.0
H1172 H 0.9828 0.85061 0.59865 0.0
H1173 H 0.0072 0.88428 0.40273 0.0
H1174 H 0.99659 0.8621 0.40239 0.0
H1175 H 0.02012 0.86449 0.42253 0.0
C1176 C 0.97047 0.81617 0.46188 0.0
C1177 C 0.98483 0.80687 0.43475 0.0
C1178 C 0.97364 0.83252 0.49073 0.0
C1179 C 0.99124 0.84 0.49334 0.0
C1180 C 1.00581 0.83017 0.46953 0.0
H1181 H 0.01703 0.9375 0.69607 0.0
H1182 H 0.01394 0.90605 0.66334 0.0
C1183 C 1.00264 0.81384 0.44035 0.0
C1184 C 0.99405 0.85849 0.51832 0.0
H1185 H 0.00838 0.90163 0.48619 0.0
C1186 C 0.98843 0.86177 0.57413 0.0
C1187 C 1.00114 0.87317 0.48615 0.0
C1188 C 0.00646 0.87095 0.42499 0.0
C1189 C 0.98964 0.87926 0.59849 0.0
C1190 C 0.99701 0.89388 0.56651 0.0
C1191 C 1.00275 0.89051 0.51089 0.0
C1192 C 0.99837 0.91295 0.58859 0.0
C1193 C 0.9825 0.88193 0.65763 0.0
C1194 C 0.99104 0.92752 0.55727 0.0
C1195 C 0.9931 0.94557 0.57547 0.0
C1196 C 1.00247 0.94953 0.62571 0.0
C1197 C 0.00959 0.93494 0.65751 0.0
C1198 C 0.00771 0.91688 0.63894 0.0
H1199 H 0.97255 0.87115 0.66951 0.0
H1200 H 0.99405 0.88117 0.68776 0.0
H1201 H 0.9758 0.89543 0.66241 0.0
H1202 H 0.98378 0.92495 0.51829 0.0
H1203 H 0.9874 0.95643 0.54994 0.0
H1204 H 0.69373 0.97685 0.35185 0.0
H1205 H 0.66416 0.98001 0.39765 0.0
H1206 H 0.69031 1.00085 0.54704 0.0
H1207 H 0.72024 0.99748 0.50154 0.0
H1208 H 0.65165 0.9637 0.49792 0.0
H1209 H 0.65085 0.03939 0.51313 0.0
H1210 H 0.66674 0.02732 0.4685 0.0
H1211 H 0.67031 0.02811 0.5434 0.0
C1212 C 0.69334 0.98189 0.39475 0.0
C1213 C 0.70953 0.98673 0.42307 0.0
C1214 C 0.67632 0.98382 0.42076 0.0
C1215 C 0.67493 0.99081 0.47563 0.0
C1216 C 0.69099 0.9957 0.50429 0.0
H1217 H 0.57604 0.01358 0.67283 0.0
H1218 H 0.60766 0.01035 0.6417 0.0
C1219 C 0.70812 0.99375 0.47822 0.0
C1220 C 0.65658 0.9926 0.50236 0.0
H1221 H 0.62536 0.02373 0.54962 0.0
C1222 C 0.64593 0.97683 0.5094 0.0
C1223 C 0.64912 0.0097 0.51775 0.0
C1224 C 0.65973 0.02716 0.51005 0.0
C1225 C 0.62805 0.97768 0.53088 0.0
C1226 C 0.62035 0.99485 0.54446 0.0
C1227 C 0.63117 0.01058 0.53887 0.0
C1228 C 0.601 0.99678 0.56339 0.0
C1229 C 0.61769 0.96011 0.53943 0.0
C1230 C 0.58657 0.99049 0.5295 0.0
C1231 C 0.56842 0.9922 0.5474 0.0
C1232 C 0.56421 1.00042 0.59942 0.0
C1233 C 0.57869 0.00705 0.63274 0.0
C1234 C 0.59684 1.00526 0.61491 0.0
H1235 H 0.62707 0.9483 0.54396 0.0
H1236 H 0.60884 0.9608 0.57741 0.0
H1237 H 0.60892 0.95759 0.50212 0.0
H1238 H 0.58934 0.98434 0.48889 0.0
H1239 H 0.55769 0.98708 0.52032 0.0
H1240 H 0.49026 0.70064 0.40071 0.0
H1241 H 0.48992 0.67075 0.44626 0.0
H1242 H 0.54569 0.67841 0.49909 0.0
H1243 H 0.54624 0.7082 0.45195 0.0
H1244 H 0.54217 0.64609 0.45686 0.0
H1245 H 0.48518 0.65533 0.60633 0.0
H1246 H 0.47797 0.66007 0.53559 0.0
H1247 H 0.49511 0.67419 0.56823 0.0
C1248 C 0.50235 0.69614 0.42303 0.0
C1249 C 0.51824 0.7069 0.42303 0.0
C1250 C 0.50212 0.67901 0.44932 0.0
C1251 C 0.51766 0.67234 0.47729 0.0
C1252 C 0.53348 0.68321 0.47808 0.0
H1253 H 0.51292 0.57242 0.68101 0.0
H1254 H 0.51429 0.60406 0.64883 0.0
C1255 C 0.53379 0.70025 0.45112 0.0
C1256 C 0.5178 0.65356 0.50211 0.0
H1257 H 0.49376 0.62433 0.58673 0.0
C1258 C 0.53166 0.64142 0.48571 0.0
C1259 C 0.50434 0.64741 0.54069 0.0
C1260 C 0.48995 0.66001 0.56421 0.0
C1261 C 0.53217 0.62331 0.50536 0.0
C1262 C 0.51801 0.6168 0.54085 0.0
C1263 C 0.50445 0.62909 0.55867 0.0
C1264 C 0.51709 0.59739 0.56025 0.0
C1265 C 0.54817 0.61153 0.48865 0.0
C1266 C 0.51783 0.58293 0.52137 0.0
C1267 C 0.51739 0.56476 0.53981 0.0
C1268 C 0.51573 0.56059 0.59752 0.0
C1269 C 0.51435 0.57508 0.63625 0.0
C1270 C 0.51509 0.59324 0.61786 0.0
H1271 H 0.56037 0.61992 0.47867 0.0
H1272 H 0.55183 0.60176 0.52264 0.0
H1273 H 0.54462 0.60372 0.45015 0.0
H1274 H 0.51868 0.58566 0.47656 0.0
H1275 H 0.51815 0.55398 0.5087 0.0
H1276 H 0.81653 0.48527 0.41225 0.0
H1277 H 0.84557 0.48429 0.46304 0.0
H1278 H 0.84061 0.54166 0.50043 0.0
H1279 H 0.81194 0.54278 0.44753 0.0
H1280 H 0.87268 0.5357 0.46272 0.0
H1281 H 0.86029 0.4826 0.62368 0.0
H1282 H 0.85545 0.47428 0.55433 0.0
H1283 H 0.84206 0.49267 0.58323 0.0
C1284 C 0.82144 0.49757 0.43241 0.0
C1285 C 0.8119 0.51409 0.42598 0.0
C1286 C 0.83805 0.49699 0.4618 0.0
C1287 C 0.84531 0.51283 0.48664 0.0
C1288 C 0.83541 0.52921 0.48185 0.0
H1289 H 0.94451 0.50984 0.69592 0.0
H1290 H 0.91288 0.51117 0.66316 0.0
C1291 C 0.81898 0.52986 0.45166 0.0
C1292 C 0.86393 0.51277 0.51284 0.0
H1293 H 0.89167 0.48987 0.60504 0.0
C1294 C 0.87671 0.52576 0.49426 0.0
C1295 C 0.8693 0.50008 0.55489 0.0
C1296 C 0.85598 0.48677 0.58064 0.0
C1297 C 0.89467 0.52612 0.51508 0.0
C1298 C 0.90043 0.51262 0.55411 0.0
C1299 C 0.8875 0.49999 0.57423 0.0
C1300 C 0.91976 0.5114 0.57428 0.0
C1301 C 0.90712 0.54128 0.49566 0.0
C1302 C 0.93433 0.5107 0.53561 0.0
C1303 C 0.95246 0.51025 0.55436 0.0
C1304 C 0.95651 0.51 0.61234 0.0
C1305 C 0.94192 0.51005 0.65103 0.0
C1306 C 0.92378 0.5108 0.63227 0.0
H1307 H 0.89921 0.55353 0.48273 0.0
H1308 H 0.91684 0.54533 0.52927 0.0
H1309 H 0.91499 0.53663 0.45836 0.0
H1310 H 0.9317 0.51047 0.49068 0.0
H1311 H 0.9633 0.50989 0.52333 0.0
loop_
_geom_bond_atom_site_label_1
_geom_bond_atom_site_label_2
_geom_bond_distance
_geom_bond_site_symmetry_2
_ccdc_geom_bond_type
C0 C1 1.384 . S
C0 H13 0.947 . S
C0 C35 1.382 . S
C1 C0 1.384 . S
C1 C2 1.378 . S
C2 C1 1.378 . S
C2 C3 1.378 . S
C2 H14 0.952 . S
C3 C2 1.378 . S
C3 H15 0.950 . S
C3 C34 1.383 . S
H4 C23 0.947 . S
H5 C24 0.946 . S
H6 C26 0.953 . S
H7 C27 0.945 . S
H8 C29 0.952 . S
H9 C30 0.949 . S
H10 C32 0.950 . S
H11 C33 0.948 . S
H12 C35 0.951 . S
H13 C0 0.947 . S
H14 C2 0.952 . S
H15 C3 0.950 . S
N16 C19 1.382 . S
N16 C21 1.363 . S
N17 C19 1.371 . S
N17 C20 1.372 . S
N18 C20 1.361 . S
N18 C21 1.377 . S
C19 N16 1.382 . S
C19 N17 1.371 . S
C19 C22 1.480 . S
C20 N17 1.372 . S
C20 N18 1.361 . S
C20 C28 1.457 . S
C21 N16 1.363 . S
C21 N18 1.377 . S
C21 C34 1.479 . S
C22 C19 1.480 . S
C22 C23 1.383 . S
C22 C27 1.385 . S
C23 H4 0.947 . S
C23 C22 1.383 . S
C23 C24 1.388 . S
C24 H5 0.946 . S
C24 C23 1.388 . S
C24 C25 1.384 . S
C25 C24 1.384 . S
C25 C26 1.377 . S
C26 H6 0.953 . S
C26 C25 1.377 . S
C26 C27 1.369 . S
C27 H7 0.945 . S
C27 C22 1.385 . S
C27 C26 1.369 . S
C28 C20 1.457 . S
C28 C29 1.372 . S
C28 C33 1.364 . S
C29 H8 0.952 . S
C29 C28 1.372 . S
C29 C30 1.389 . S
C30 H9 0.949 . S
C30 C29 1.389 . S
C30 C31 1.387 . S
C31 C30 1.387 . S
C31 C32 1.372 . S
C32 H10 0.950 . S
C32 C31 1.372 . S
C32 C33 1.379 . S
C33 H11 0.948 . S
C33 C28 1.364 . S
C33 C32 1.379 . S
C34 C3 1.383 . S
C34 C21 1.479 . S
C34 C35 1.398 . S
C35 C0 1.382 . S
C35 H12 0.951 . S
C35 C34 1.398 . S
C36 C37 1.381 1_655 S
C36 H49 0.948 . S
C36 C71 1.382 1_655 S
C37 C36 1.381 1_455 S
C37 C38 1.387 . S
C38 C37 1.387 . S
C38 C39 1.378 . S
C38 H50 0.952 . S
C39 C38 1.378 . S
C39 H51 0.950 . S
C39 C70 1.383 . S
H40 C59 0.947 . S
H41 C60 0.952 . S
H42 C62 0.953 . S
H43 C63 0.945 . S
H44 C65 0.949 1_655 S
H45 C66 0.956 . S
H46 C68 0.950 . S
H47 C69 0.948 . S
H48 C71 0.952 1_655 S
H49 C36 0.948 . S
H50 C38 0.952 . S
H51 C39 0.950 . S
N52 C55 1.382 . S
N52 C57 1.363 . S
N53 C55 1.371 . S
N53 C56 1.372 . S
N54 C56 1.361 . S
N54 C57 1.377 . S
C55 N52 1.382 . S
C55 N53 1.371 . S
C55 C58 1.480 . S
C56 N53 1.372 . S
C56 N54 1.361 . S
C56 C64 1.457 . S
C57 N52 1.363 . S
C57 N54 1.377 . S
C57 C70 1.479 . S
C58 C55 1.480 . S
C58 C59 1.383 . S
C58 C63 1.385 . S
C59 H40 0.947 . S
C59 C58 1.383 . S
C59 C60 1.386 1_455 S
C60 H41 0.952 . S
C60 C59 1.386 1_655 S
C60 C61 1.381 1_655 S
C61 C60 1.381 1_455 S
C61 C62 1.377 . S
C62 H42 0.953 . S
C62 C61 1.377 . S
C62 C63 1.369 . S
C63 H43 0.945 . S
C63 C58 1.385 . S
C63 C62 1.369 . S
C64 C56 1.457 . S
C64 C65 1.376 . S
C64 C69 1.364 . S
C65 H44 0.949 1_455 S
C65 C64 1.376 . S
C65 C66 1.387 1_455 S
C66 H45 0.956 . S
C66 C65 1.387 1_655 S
C66 C67 1.383 1_655 S
C67 C66 1.383 1_455 S
C67 C68 1.372 . S
C68 H46 0.950 . S
C68 C67 1.372 . S
C68 C69 1.379 . S
C69 H47 0.948 . S
C69 C64 1.364 . S
C69 C68 1.379 . S
C70 C39 1.383 . S
C70 C57 1.479 . S
C70 C71 1.398 . S
C71 C36 1.382 1_455 S
C71 H48 0.952 1_455 S
C71 C70 1.398 . S
C72 C73 1.381 1_565 S
C72 H85 0.948 . S
C72 C107 1.382 1_565 S
C73 C72 1.381 1_545 S
C73 C74 1.387 . S
C74 C73 1.387 . S
C74 C75 1.378 . S
C74 H86 0.952 . S
C75 C74 1.378 . S
C75 H87 0.950 . S
C75 C106 1.383 . S
H76 C95 0.947 . S
H77 C96 0.952 . S
H78 C98 0.953 . S
H79 C99 0.945 . S
H80 C101 0.949 1_565 S
H81 C102 0.956 . S
H82 C104 0.950 . S
H83 C105 0.948 . S
H84 C107 0.952 1_565 S
H85 C72 0.948 . S
H86 C74 0.952 . S
H87 C75 0.950 . S
N88 C91 1.382 . S
N88 C93 1.363 . S
N89 C91 1.371 . S
N89 C92 1.372 . S
N90 C92 1.361 . S
N90 C93 1.377 . S
C91 N88 1.382 . S
C91 N89 1.371 . S
C91 C94 1.480 . S
C92 N89 1.372 . S
C92 N90 1.361 . S
C92 C100 1.457 . S
C93 N88 1.363 . S
C93 N90 1.377 . S
C93 C106 1.479 . S
C94 C91 1.480 . S
C94 C95 1.383 . S
C94 C99 1.385 . S
C95 H76 0.947 . S
C95 C94 1.383 . S
C95 C96 1.386 1_545 S
C96 H77 0.952 . S
C96 C95 1.386 1_565 S
C96 C97 1.381 1_565 S
C97 C96 1.381 1_545 S
C97 C98 1.377 . S
C98 H78 0.953 . S
C98 C97 1.377 . S
C98 C99 1.369 . S
C99 H79 0.945 . S
C99 C94 1.385 . S
C99 C98 1.369 . S
C100 C92 1.457 . S
C100 C101 1.376 . S
C100 C105 1.364 . S
C101 H80 0.949 1_545 S
C101 C100 1.376 . S
C101 C102 1.386 1_545 S
C102 H81 0.956 . S
C102 C101 1.386 1_565 S
C102 C103 1.383 1_565 S
C103 C102 1.383 1_545 S
C103 C104 1.372 . S
C104 H82 0.950 . S
C104 C103 1.372 . S
C104 C105 1.379 . S
C105 H83 0.948 . S
C105 C100 1.364 . S
C105 C104 1.379 . S
C106 C75 1.383 . S
C106 C93 1.479 . S
C106 C107 1.398 . S
C107 C72 1.382 1_545 S
C107 H84 0.952 1_545 S
C107 C106 1.398 . S
C108 C109 1.384 . S
C108 H121 0.947 . S
C108 C143 1.382 . S
C109 C108 1.384 . S
C109 C110 1.378 . S
C110 C109 1.378 . S
C110 C111 1.378 . S
C110 H122 0.952 . S
C111 C110 1.378 . S
C111 H123 0.950 . S
C111 C142 1.383 . S
H112 C131 0.947 . S
H113 C132 0.946 . S
H114 C134 0.953 . S
H115 C135 0.945 . S
H116 C137 0.952 . S
H117 C138 0.949 . S
H118 C140 0.950 . S
H119 C141 0.948 . S
H120 C143 0.951 . S
H121 C108 0.947 . S
H122 C110 0.952 . S
H123 C111 0.950 . S
N124 C127 1.382 . S
N124 C129 1.363 . S
N125 C127 1.371 . S
N125 C128 1.372 . S
N126 C128 1.361 . S
N126 C129 1.377 . S
C127 N124 1.382 . S
C127 N125 1.371 . S
C127 C130 1.480 . S
C128 N125 1.372 . S
C128 N126 1.361 . S
C128 C136 1.457 . S
C129 N124 1.363 . S
C129 N126 1.377 . S
C129 C142 1.479 . S
C130 C127 1.480 . S
C130 C131 1.383 . S
C130 C135 1.385 . S
C131 H112 0.947 . S
C131 C130 1.383 . S
C131 C132 1.388 . S
C132 H113 0.946 . S
C132 C131 1.388 . S
C132 C133 1.384 . S
C133 C132 1.384 . S
C133 C134 1.377 . S
C134 H114 0.953 . S
C134 C133 1.377 . S
C134 C135 1.369 . S
C135 H115 0.945 . S
C135 C130 1.385 . S
C135 C134 1.369 . S
C136 C128 1.457 . S
C136 C137 1.372 . S
C136 C141 1.364 . S
C137 H116 0.952 . S
C137 C136 1.372 . S
C137 C138 1.389 . S
C138 H117 0.949 . S
C138 C137 1.389 . S
C138 C139 1.387 . S
C139 C138 1.387 . S
C139 C140 1.372 . S
C140 H118 0.950 . S
C140 C139 1.372 . S
C140 C141 1.379 . S
C141 H119 0.948 . S
C141 C136 1.364 . S
C141 C140 1.379 . S
C142 C111 1.383 . S
C142 C129 1.479 . S
C142 C143 1.398 . S
C143 C108 1.382 . S
C143 H120 0.951 . S
C143 C142 1.398 . S
C144 C145 1.384 . S
C144 H157 0.947 . S
C144 C179 1.382 . S
C145 C144 1.384 . S
C145 C146 1.378 . S
C146 C145 1.378 . S
C146 C147 1.378 . S
C146 H158 0.952 . S
C147 C146 1.378 . S
C147 H159 0.950 . S
C147 C178 1.383 . S
H148 C167 0.947 1_556 S
H149 C168 0.946 . S
H150 C170 0.953 . S
H151 C171 0.945 . S
H152 C173 0.952 . S
H153 C174 0.949 . S
H154 C176 0.950 . S
H155 C177 0.948 . S
H156 C179 0.951 . S
H157 C144 0.947 . S
H158 C146 0.952 . S
H159 C147 0.950 . S
N160 C163 1.382 . S
N160 C165 1.363 1_554 S
N161 C163 1.371 . S
N161 C164 1.372 . S
N162 C164 1.361 . S
N162 C165 1.377 1_554 S
C163 N160 1.382 . S
C163 N161 1.371 . S
C163 C166 1.480 . S
C164 N161 1.372 . S
C164 N162 1.361 . S
C164 C172 1.457 . S
C165 N160 1.363 1_556 S
C165 N162 1.377 1_556 S
C165 C178 1.479 . S
C166 C163 1.480 . S
C166 C167 1.383 . S
C166 C171 1.385 . S
C167 H148 0.947 1_554 S
C167 C166 1.383 . S
C167 C168 1.388 . S
C168 H149 0.946 . S
C168 C167 1.388 . S
C168 C169 1.384 . S
C169 C168 1.384 . S
C169 C170 1.377 . S
C170 H150 0.953 . S
C170 C169 1.377 . S
C170 C171 1.369 . S
C171 H151 0.945 . S
C171 C166 1.385 . S
C171 C170 1.369 . S
C172 C164 1.457 . S
C172 C173 1.372 . S
C172 C177 1.364 . S
C173 H152 0.952 . S
C173 C172 1.372 . S
C173 C174 1.389 . S
C174 H153 0.949 . S
C174 C173 1.389 . S
C174 C175 1.387 . S
C175 C174 1.387 . S
C175 C176 1.372 . S
C176 H154 0.950 . S
C176 C175 1.372 . S
C176 C177 1.379 . S
C177 H155 0.948 . S
C177 C172 1.364 . S
C177 C176 1.379 . S
C178 C147 1.383 . S
C178 C165 1.479 . S
C178 C179 1.398 . S
C179 C144 1.382 . S
C179 H156 0.951 . S
C179 C178 1.398 . S
C180 C181 1.384 . S
C180 H193 0.948 1_455 S
C180 C215 1.382 . S
C181 C180 1.384 . S
C181 C182 1.378 . S
C182 C181 1.378 . S
C182 C183 1.378 . S
C182 H194 0.952 . S
C183 C182 1.378 . S
C183 H195 0.950 . S
C183 C214 1.383 . S
H184 C203 0.947 1_556 S
H185 C204 0.948 . S
H186 C206 0.953 . S
H187 C207 0.945 . S
H188 C209 0.947 1_655 S
H189 C210 0.954 . S
H190 C212 0.950 . S
H191 C213 0.948 . S
H192 C215 0.950 1_655 S
H193 C180 0.948 1_655 S
H194 C182 0.952 . S
H195 C183 0.950 . S
N196 C199 1.382 . S
N196 C201 1.359 1_554 S
N197 C199 1.371 . S
N197 C200 1.372 . S
N198 C200 1.361 . S
N198 C201 1.361 1_554 S
C199 N196 1.382 . S
C199 N197 1.371 . S
C199 C202 1.480 . S
C200 N197 1.372 . S
C200 N198 1.361 . S
C200 C208 1.457 . S
C201 N196 1.359 1_556 S
C201 N198 1.361 1_556 S
C201 C214 1.499 . S
C202 C199 1.480 . S
C202 C203 1.383 . S
C202 C207 1.385 . S
C203 H184 0.947 1_554 S
C203 C202 1.383 . S
C203 C204 1.387 1_455 S
C204 H185 0.948 . S
C204 C203 1.387 1_655 S
C204 C205 1.383 1_655 S
C205 C204 1.383 1_455 S
C205 C206 1.377 . S
C206 H186 0.953 . S
C206 C205 1.377 . S
C206 C207 1.369 . S
C207 H187 0.945 . S
C207 C202 1.385 . S
C207 C206 1.369 . S
C208 C200 1.457 . S
C208 C209 1.379 . S
C208 C213 1.364 . S
C209 H188 0.947 1_455 S
C209 C208 1.379 . S
C209 C210 1.387 1_455 S
C210 H189 0.954 . S
C210 C209 1.387 1_655 S
C210 C211 1.384 1_655 S
C211 C210 1.384 1_455 S
C211 C212 1.372 . S
C212 H190 0.950 . S
C212 C211 1.372 . S
C212 C213 1.379 . S
C213 H191 0.948 . S
C213 C208 1.364 . S
C213 C212 1.379 . S
C214 C183 1.383 . S
C214 C201 1.499 . S
C214 C215 1.399 . S
C215 C180 1.382 . S
C215 H192 0.950 1_455 S
C215 C214 1.399 . S
C216 C217 1.384 . S
C216 H229 0.948 1_545 S
C216 C251 1.382 . S
C217 C216 1.384 . S
C217 C218 1.378 . S
C218 C217 1.378 . S
C218 C219 1.378 . S
C218 H230 0.952 . S
C219 C218 1.378 . S
C219 H231 0.950 . S
C219 C250 1.383 . S
H220 C239 0.947 1_556 S
H221 C240 0.948 . S
H222 C242 0.953 . S
H223 C243 0.945 . S
H224 C245 0.947 1_565 S
H225 C246 0.953 . S
H226 C248 0.950 . S
H227 C249 0.948 . S
H228 C251 0.950 1_565 S
H229 C216 0.948 1_565 S
H230 C218 0.952 . S
H231 C219 0.950 . S
N232 C235 1.382 . S
N232 C237 1.359 1_554 S
N233 C235 1.371 . S
N233 C236 1.372 . S
N234 C236 1.361 . S
N234 C237 1.361 1_554 S
C235 N232 1.382 . S
C235 N233 1.371 . S
C235 C238 1.480 . S
C236 N233 1.372 . S
C236 N234 1.361 . S
C236 C244 1.457 . S
C237 N232 1.359 1_556 S
C237 N234 1.361 1_556 S
C237 C250 1.499 . S
C238 C235 1.480 . S
C238 C239 1.383 . S
C238 C243 1.385 . S
C239 H220 0.947 1_554 S
C239 C238 1.383 . S
C239 C240 1.387 1_545 S
C240 H221 0.948 . S
C240 C239 1.387 1_565 S
C240 C241 1.383 1_565 S
C241 C240 1.383 1_545 S
C241 C242 1.377 . S
C242 H222 0.953 . S
C242 C241 1.377 . S
C242 C243 1.369 . S
C243 H223 0.945 . S
C243 C238 1.385 . S
C243 C242 1.369 . S
C244 C236 1.457 . S
C244 C245 1.379 . S
C244 C249 1.364 . S
C245 H224 0.947 1_545 S
C245 C244 1.379 . S
C245 C246 1.387 1_545 S
C246 H225 0.953 . S
C246 C245 1.387 1_565 S
C246 C247 1.384 1_565 S
C247 C246 1.384 1_545 S
C247 C248 1.372 . S
C248 H226 0.950 . S
C248 C247 1.372 . S
C248 C249 1.379 . S
C249 H227 0.948 . S
C249 C244 1.364 . S
C249 C248 1.379 . S
C250 C219 1.383 . S
C250 C237 1.499 . S
C250 C251 1.399 . S
C251 C216 1.382 . S
C251 H228 0.950 1_545 S
C251 C250 1.399 . S
C252 C253 1.384 . S
C252 H265 0.947 . S
C252 C287 1.382 . S
C253 C252 1.384 . S
C253 C254 1.378 . S
C254 C253 1.378 . S
C254 C255 1.378 . S
C254 H266 0.952 . S
C255 C254 1.378 . S
C255 H267 0.950 . S
C255 C286 1.383 . S
H256 C275 0.947 . S
H257 C276 0.946 . S
H258 C278 0.953 . S
H259 C279 0.945 1_556 S
H260 C281 0.952 . S
H261 C282 0.949 . S
H262 C284 0.950 . S
H263 C285 0.948 . S
H264 C287 0.951 . S
H265 C252 0.947 . S
H266 C254 0.952 . S
H267 C255 0.950 . S
N268 C271 1.382 . S
N268 C273 1.363 . S
N269 C271 1.371 . S
N269 C272 1.372 1_554 S
N270 C272 1.361 1_554 S
N270 C273 1.377 . S
C271 N268 1.382 . S
C271 N269 1.371 . S
C271 C274 1.480 . S
C272 N269 1.372 1_556 S
C272 N270 1.361 1_556 S
C272 C280 1.457 . S
C273 N268 1.363 . S
C273 N270 1.377 . S
C273 C286 1.479 . S
C274 C271 1.480 . S
C274 C275 1.383 . S
C274 C279 1.385 . S
C275 H256 0.947 . S
C275 C274 1.383 . S
C275 C276 1.388 . S
C276 H257 0.946 . S
C276 C275 1.388 . S
C276 C277 1.384 . S
C277 C276 1.384 . S
C277 C278 1.377 . S
C278 H258 0.953 . S
C278 C277 1.377 . S
C278 C279 1.369 . S
C279 H259 0.945 1_554 S
C279 C274 1.385 . S
C279 C278 1.369 . S
C280 C272 1.457 . S
C280 C281 1.372 . S
C280 C285 1.364 . S
C281 H260 0.952 . S
C281 C280 1.372 . S
C281 C282 1.389 . S
C282 H261 0.949 . S
C282 C281 1.389 . S
C282 C283 1.387 . S
C283 C282 1.387 . S
C283 C284 1.372 . S
C284 H262 0.950 . S
C284 C283 1.372 . S
C284 C285 1.379 . S
C285 H263 0.948 . S
C285 C280 1.364 . S
C285 C284 1.379 . S
C286 C255 1.383 . S
C286 C273 1.479 . S
C286 C287 1.398 . S
C287 C252 1.382 . S
C287 H264 0.951 . S
C287 C286 1.398 . S
C288 Eu289 2.835 . S
C288 C290 1.500 . S
C288 O308 1.257 . S
C288 O309 1.260 . S
Eu289 C288 2.835 . S
Eu289 O308 2.473 . S
Eu289 O309 2.480 . S
Eu289 O310 2.430 . S
Eu289 O311 2.670 1_545 S
Eu289 O312 2.394 . S
Eu289 O317 2.355 1_655 S
Eu289 O319 2.374 1_545 S
C290 C288 1.500 . S
C290 C291 1.377 . S
C290 C295 1.377 . S
C291 C290 1.377 . S
C291 C292 1.395 . S
C291 H320 0.931 . S
C292 C291 1.395 . S
C292 C293 1.383 . S
C292 H321 0.931 . S
C293 C292 1.383 . S
C293 C294 1.394 . S
C294 C293 1.394 . S
C294 C295 1.378 . S
C294 H322 0.931 1_655 S
C295 C290 1.377 . S
C295 C294 1.378 . S
C295 H323 0.931 1_655 S
C296 O310 1.281 . S
C296 O311 1.254 1_545 S
C297 O312 1.251 1_455 S
C297 O313 1.251 . S
C298 Eu299 2.835 . S
C298 C300 1.500 . S
C298 O314 1.257 . S
C298 O315 1.260 . S
Eu299 C298 2.835 . S
Eu299 O311 2.355 1_455 S
Eu299 O313 2.374 1_565 S
Eu299 O314 2.473 . S
Eu299 O315 2.480 . S
Eu299 O316 2.430 . S
Eu299 O317 2.670 1_565 S
Eu299 O318 2.394 . S
C300 C298 1.500 . S
C300 C301 1.377 . S
C300 C305 1.377 . S
C301 C300 1.377 . S
C301 C302 1.395 . S
C301 H324 0.931 . S
C302 C301 1.395 . S
C302 C303 1.383 . S
C302 H325 0.931 . S
C303 C302 1.383 . S
C303 C304 1.394 . S
C304 C303 1.394 . S
C304 C305 1.378 . S
C304 H326 0.931 1_455 S
C305 C300 1.377 . S
C305 C304 1.378 . S
C305 H327 0.931 1_455 S
C306 O316 1.274 . S
C306 O317 1.259 1_565 S
C307 O318 1.251 1_655 S
C307 O319 1.251 . S
O308 C288 1.257 . S
O308 Eu289 2.473 . S
O309 C288 1.260 . S
O309 Eu289 2.480 . S
O310 Eu289 2.430 . S
O310 C296 1.281 . S
O311 Eu289 2.670 1_565 S
O311 C296 1.254 1_565 S
O311 Eu299 2.355 1_655 S
O312 Eu289 2.394 . S
O312 C297 1.251 1_655 S
O313 C297 1.251 . S
O313 Eu299 2.374 1_545 S
O314 C298 1.257 . S
O314 Eu299 2.473 . S
O315 C298 1.260 . S
O315 Eu299 2.480 . S
O316 Eu299 2.430 . S
O316 C306 1.274 . S
O317 Eu289 2.355 1_455 S
O317 Eu299 2.670 1_545 S
O317 C306 1.259 1_545 S
O318 Eu299 2.394 . S
O318 C307 1.251 1_455 S
O319 Eu289 2.374 1_565 S
O319 C307 1.251 . S
H320 C291 0.931 . S
H321 C292 0.931 . S
H322 C294 0.931 1_455 S
H323 C295 0.931 1_455 S
H324 C301 0.931 . S
H325 C302 0.931 . S
H326 C304 0.931 1_655 S
H327 C305 0.931 1_655 S
C328 Eu329 2.835 . S
C328 C330 1.500 . S
C328 O348 1.257 . S
C328 O349 1.260 . S
Eu329 C328 2.835 . S
Eu329 O348 2.473 . S
Eu329 O349 2.480 . S
Eu329 O350 2.430 . S
Eu329 O351 2.670 . S
Eu329 O352 2.394 . S
Eu329 O357 2.355 1_565 S
Eu329 O359 2.374 . S
C330 C328 1.500 . S
C330 C331 1.377 . S
C330 C335 1.377 . S
C331 C330 1.377 . S
C331 C332 1.395 . S
C331 H360 0.931 . S
C332 C331 1.395 . S
C332 C333 1.383 . S
C332 H361 0.931 . S
C333 C332 1.383 . S
C333 C334 1.394 . S
C334 C333 1.394 . S
C334 C335 1.378 . S
C334 H362 0.931 1_565 S
C335 C330 1.377 . S
C335 C334 1.378 . S
C335 H363 0.931 1_565 S
C336 O350 1.259 . S
C336 O351 1.270 . S
C337 O352 1.251 1_545 S
C337 O353 1.251 . S
C338 Eu339 2.835 . S
C338 C340 1.500 . S
C338 O354 1.257 . S
C338 O355 1.260 . S
Eu339 C338 2.835 . S
Eu339 O351 2.355 1_545 S
Eu339 O353 2.374 . S
Eu339 O354 2.473 . S
Eu339 O355 2.480 . S
Eu339 O356 2.430 . S
Eu339 O357 2.670 . S
Eu339 O358 2.394 . S
C340 C338 1.500 . S
C340 C341 1.377 . S
C340 C345 1.377 . S
C341 C340 1.377 . S
C341 C342 1.395 . S
C341 H364 0.931 . S
C342 C341 1.395 . S
C342 C343 1.383 . S
C342 H365 0.931 . S
C343 C342 1.383 . S
C343 C344 1.394 . S
C344 C343 1.394 . S
C344 C345 1.378 . S
C344 H366 0.931 1_545 S
C345 C340 1.377 . S
C345 C344 1.378 . S
C345 H367 0.931 1_545 S
C346 O356 1.259 . S
C346 O357 1.270 . S
C347 O358 1.251 1_565 S
C347 O359 1.251 . S
O348 C328 1.257 . S
O348 Eu329 2.473 . S
O349 C328 1.260 . S
O349 Eu329 2.480 . S
O350 Eu329 2.430 . S
O350 C336 1.259 . S
O351 Eu329 2.670 . S
O351 C336 1.270 . S
O351 Eu339 2.355 1_565 S
O352 Eu329 2.394 . S
O352 C337 1.251 1_565 S
O353 C337 1.251 . S
O353 Eu339 2.374 . S
O354 C338 1.257 . S
O354 Eu339 2.473 . S
O355 C338 1.260 . S
O355 Eu339 2.480 . S
O356 Eu339 2.430 . S
O356 C346 1.259 . S
O357 Eu329 2.355 1_545 S
O357 Eu339 2.670 . S
O357 C346 1.270 . S
O358 Eu339 2.394 . S
O358 C347 1.251 1_545 S
O359 Eu329 2.374 . S
O359 C347 1.251 . S
H360 C331 0.931 . S
H361 C332 0.931 . S
H362 C334 0.931 1_545 S
H363 C335 0.931 1_545 S
H364 C341 0.931 . S
H365 C342 0.931 . S
H366 C344 0.931 1_565 S
H367 C345 0.931 1_565 S
C368 Eu369 2.835 . S
C368 C370 1.500 . S
C368 O388 1.257 . S
C368 O389 1.260 . S
Eu369 C368 2.835 . S
Eu369 O388 2.473 . S
Eu369 O389 2.480 . S
Eu369 O390 2.430 . S
Eu369 O391 2.670 . S
Eu369 O392 2.394 . S
Eu369 O397 2.355 . S
Eu369 O399 2.374 . S
C370 C368 1.500 . S
C370 C371 1.377 . S
C370 C375 1.377 . S
C371 C370 1.377 . S
C371 C372 1.395 . S
C371 H400 0.931 . S
C372 C371 1.395 . S
C372 C373 1.383 . S
C372 H401 0.931 . S
C373 C372 1.383 . S
C373 C374 1.394 . S
C374 C373 1.394 . S
C374 C375 1.378 . S
C374 H402 0.931 . S
C375 C370 1.377 . S
C375 C374 1.378 . S
C375 H403 0.931 . S
C376 O390 1.259 . S
C376 O391 1.270 . S
C377 O392 1.251 . S
C377 O393 1.251 . S
C378 Eu379 2.835 . S
C378 C380 1.500 . S
C378 O394 1.257 . S
C378 O395 1.260 . S
Eu379 C378 2.835 . S
Eu379 O391 2.355 . S
Eu379 O393 2.374 . S
Eu379 O394 2.473 . S
Eu379 O395 2.480 . S
Eu379 O396 2.430 . S
Eu379 O397 2.670 . S
Eu379 O398 2.394 . S
C380 C378 1.500 . S
C380 C381 1.377 . S
C380 C385 1.377 . S
C381 C380 1.377 . S
C381 C382 1.395 . S
C381 H404 0.931 . S
C382 C381 1.395 . S
C382 C383 1.383 . S
C382 H405 0.931 . S
C383 C382 1.383 . S
C383 C384 1.394 . S
C384 C383 1.394 . S
C384 C385 1.378 . S
C384 H406 0.931 . S
C385 C380 1.377 . S
C385 C384 1.378 . S
C385 H407 0.931 . S
C386 O396 1.259 . S
C386 O397 1.270 . S
C387 O398 1.251 . S
C387 O399 1.251 . S
O388 C368 1.257 . S
O388 Eu369 2.473 . S
O389 C368 1.260 . S
O389 Eu369 2.480 . S
O390 Eu369 2.430 . S
O390 C376 1.259 . S
O391 Eu369 2.670 . S
O391 C376 1.270 . S
O391 Eu379 2.355 . S
O392 Eu369 2.394 . S
O392 C377 1.251 . S
O393 C377 1.251 . S
O393 Eu379 2.374 . S
O394 C378 1.257 . S
O394 Eu379 2.473 . S
O395 C378 1.260 . S
O395 Eu379 2.480 . S
O396 Eu379 2.430 . S
O396 C386 1.259 . S
O397 Eu369 2.355 . S
O397 Eu379 2.670 . S
O397 C386 1.270 . S
O398 Eu379 2.394 . S
O398 C387 1.251 . S
O399 Eu369 2.374 . S
O399 C387 1.251 . S
H400 C371 0.931 . S
H401 C372 0.931 . S
H402 C374 0.931 . S
H403 C375 0.931 . S
H404 C381 0.931 . S
H405 C382 0.931 . S
H406 C384 0.931 . S
H407 C385 0.931 . S
C408 Eu409 2.835 . S
C408 C410 1.500 . S
C408 O428 1.257 . S
C408 O429 1.260 . S
Eu409 C408 2.835 . S
Eu409 O428 2.473 . S
Eu409 O429 2.480 . S
Eu409 O430 2.430 . S
Eu409 O431 2.670 1_455 S
Eu409 O432 2.394 . S
Eu409 O437 2.355 . S
Eu409 O439 2.374 1_455 S
C410 C408 1.500 . S
C410 C411 1.377 . S
C410 C415 1.377 . S
C411 C410 1.377 . S
C411 C412 1.395 . S
C411 H440 0.931 . S
C412 C411 1.395 . S
C412 C413 1.383 . S
C412 H441 0.931 . S
C413 C412 1.383 . S
C413 C414 1.394 . S
C414 C413 1.394 . S
C414 C415 1.378 . S
C414 H442 0.931 . S
C415 C410 1.377 . S
C415 C414 1.378 . S
C415 H443 0.931 . S
C416 O430 1.277 . S
C416 O431 1.258 1_455 S
C417 O432 1.251 . S
C417 O433 1.251 . S
C418 Eu419 2.835 . S
C418 C420 1.500 . S
C418 O434 1.257 . S
C418 O435 1.260 . S
Eu419 C418 2.835 . S
Eu419 O431 2.355 . S
Eu419 O433 2.374 1_655 S
Eu419 O434 2.473 . S
Eu419 O435 2.480 . S
Eu419 O436 2.430 . S
Eu419 O437 2.670 1_655 S
Eu419 O438 2.394 . S
C420 C418 1.500 . S
C420 C421 1.377 . S
C420 C425 1.377 . S
C421 C420 1.377 . S
C421 C422 1.395 . S
C421 H444 0.931 . S
C422 C421 1.395 . S
C422 C423 1.383 . S
C422 H445 0.931 . S
C423 C422 1.383 . S
C423 C424 1.394 . S
C424 C423 1.394 . S
C424 C425 1.378 . S
C424 H446 0.931 . S
C425 C420 1.377 . S
C425 C424 1.378 . S
C425 H447 0.931 . S
C426 O436 1.269 . S
C426 O437 1.263 1_655 S
C427 O438 1.251 . S
C427 O439 1.251 . S
O428 C408 1.257 . S
O428 Eu409 2.473 . S
O429 C408 1.260 . S
O429 Eu409 2.480 . S
O430 Eu409 2.430 . S
O430 C416 1.277 . S
O431 Eu409 2.670 1_655 S
O431 C416 1.258 1_655 S
O431 Eu419 2.355 . S
O432 Eu409 2.394 . S
O432 C417 1.251 . S
O433 C417 1.251 . S
O433 Eu419 2.374 1_455 S
O434 C418 1.257 . S
O434 Eu419 2.473 . S
O435 C418 1.260 . S
O435 Eu419 2.480 . S
O436 Eu419 2.430 . S
O436 C426 1.269 . S
O437 Eu409 2.355 . S
O437 Eu419 2.670 1_455 S
O437 C426 1.263 1_455 S
O438 Eu419 2.394 . S
O438 C427 1.251 . S
O439 Eu409 2.374 1_655 S
O439 C427 1.251 . S
H440 C411 0.931 . S
H441 C412 0.931 . S
H442 C414 0.931 . S
H443 C415 0.931 . S
H444 C421 0.931 . S
H445 C422 0.931 . S
H446 C424 0.931 . S
H447 C425 0.931 . S
H448 C456 0.929 . S
H449 C458 0.930 . S
H450 C460 0.930 . S
H451 C463 0.929 . S
H452 C466 0.930 . S
H453 C468 0.960 . S
H454 C468 0.960 . S
H455 C468 0.960 1_565 S
C456 H448 0.929 . S
C456 C457 1.396 . S
C456 C458 1.384 . S
C457 C456 1.396 . S
C457 C463 1.372 1_545 S
C458 H449 0.930 . S
C458 C456 1.384 . S
C458 C459 1.372 . S
C459 C458 1.372 . S
C459 C460 1.400 1_545 S
C459 C464 1.490 . S
C460 H450 0.930 . S
C460 C459 1.400 1_565 S
C460 C463 1.386 . S
H461 C477 0.930 . S
H462 C478 0.931 . S
C463 H451 0.929 . S
C463 C457 1.372 1_565 S
C463 C460 1.386 . S
C464 C459 1.490 . S
C464 C466 1.395 . S
C464 C467 1.403 . S
H465 C471 0.930 . S
C466 H452 0.930 . S
C466 C464 1.395 . S
C466 C469 1.403 . S
C467 C464 1.403 . S
C467 C468 1.524 . S
C467 C471 1.402 . S
C468 H453 0.960 . S
C468 H454 0.960 . S
C468 H455 0.960 1_545 S
C468 C467 1.524 . S
C469 C466 1.403 . S
C469 C470 1.392 . S
C469 C473 1.495 . S
C470 C469 1.392 . S
C470 C471 1.387 . S
C470 C472 1.479 . S
C471 H465 0.930 . S
C471 C467 1.402 . S
C471 C470 1.387 . S
C472 C470 1.479 . S
C472 C474 1.412 . S
C472 C478 1.352 1_545 S
C473 C469 1.495 . S
C473 H479 0.959 . S
C473 H480 0.961 1_545 S
C473 H481 0.960 . S
C474 C472 1.412 . S
C474 C475 1.394 . S
C474 H482 0.930 . S
C475 C474 1.394 . S
C475 C476 1.411 . S
C475 H483 0.929 . S
C476 C475 1.411 . S
C476 C477 1.350 1_545 S
C477 H461 0.930 . S
C477 C476 1.350 1_565 S
C477 C478 1.379 . S
C478 H462 0.931 . S
C478 C472 1.352 1_565 S
C478 C477 1.379 . S
H479 C473 0.959 . S
H480 C473 0.961 1_565 S
H481 C473 0.960 . S
H482 C474 0.930 . S
H483 C475 0.929 . S
H484 C492 0.929 . S
H485 C494 0.930 . S
H486 C496 0.930 . S
H487 C499 0.929 . S
H488 C502 0.930 . S
H489 C504 0.960 . S
H490 C504 0.960 . S
H491 C504 0.960 . S
C492 H484 0.929 . S
C492 C493 1.377 . S
C492 C494 1.384 . S
C493 C492 1.377 . S
C493 C499 1.390 . S
C494 H485 0.930 . S
C494 C492 1.384 . S
C494 C495 1.372 . S
C495 C494 1.372 . S
C495 C496 1.400 . S
C495 C500 1.490 . S
C496 H486 0.930 . S
C496 C495 1.400 . S
C496 C499 1.386 . S
H497 C513 0.930 . S
H498 C514 0.931 . S
C499 H487 0.929 . S
C499 C493 1.390 . S
C499 C496 1.386 . S
C500 C495 1.490 . S
C500 C502 1.395 . S
C500 C503 1.403 . S
H501 C507 0.930 . S
C502 H488 0.930 . S
C502 C500 1.395 . S
C502 C505 1.403 . S
C503 C500 1.403 . S
C503 C504 1.524 . S
C503 C507 1.400 . S
C504 H489 0.960 . S
C504 H490 0.960 . S
C504 H491 0.960 . S
C504 C503 1.524 . S
C505 C502 1.403 . S
C505 C506 1.392 . S
C505 C509 1.495 . S
C506 C505 1.392 . S
C506 C507 1.385 . S
C506 C508 1.478 . S
C507 H501 0.930 . S
C507 C503 1.400 . S
C507 C506 1.385 . S
C508 C506 1.478 . S
C508 C510 1.381 . S
C508 C514 1.383 . S
C509 C505 1.495 . S
C509 H515 0.959 . S
C509 H516 0.961 . S
C509 H517 0.960 . S
C510 C508 1.381 . S
C510 C511 1.394 . S
C510 H518 0.930 . S
C511 C510 1.394 . S
C511 C512 1.383 . S
C511 H519 0.929 . S
C512 C511 1.383 . S
C512 C513 1.377 . S
C513 H497 0.930 . S
C513 C512 1.377 . S
C513 C514 1.379 . S
C514 H498 0.931 . S
C514 C508 1.383 . S
C514 C513 1.379 . S
H515 C509 0.959 . S
H516 C509 0.961 . S
H517 C509 0.960 . S
H518 C510 0.930 . S
H519 C511 0.929 . S
H520 C528 0.929 . S
H521 C530 0.930 . S
H522 C532 0.930 . S
H523 C535 0.929 . S
H524 C538 0.930 . S
H525 C540 0.960 . S
H526 C540 0.960 . S
H527 C540 0.960 . S
C528 H520 0.929 . S
C528 C529 1.377 . S
C528 C530 1.384 . S
C529 C528 1.377 . S
C529 C535 1.390 . S
C530 H521 0.930 . S
C530 C528 1.384 . S
C530 C531 1.372 . S
C531 C530 1.372 . S
C531 C532 1.400 . S
C531 C536 1.490 . S
C532 H522 0.930 . S
C532 C531 1.400 . S
C532 C535 1.386 . S
H533 C549 0.930 . S
H534 C550 0.931 . S
C535 H523 0.929 . S
C535 C529 1.390 . S
C535 C532 1.386 . S
C536 C531 1.490 . S
C536 C538 1.395 . S
C536 C539 1.403 . S
H537 C543 0.930 . S
C538 H524 0.930 . S
C538 C536 1.395 . S
C538 C541 1.403 . S
C539 C536 1.403 . S
C539 C540 1.524 . S
C539 C543 1.400 . S
C540 H525 0.960 . S
C540 H526 0.960 . S
C540 H527 0.960 . S
C540 C539 1.524 . S
C541 C538 1.403 . S
C541 C542 1.392 . S
C541 C545 1.495 . S
C542 C541 1.392 . S
C542 C543 1.385 . S
C542 C544 1.478 . S
C543 H537 0.930 . S
C543 C539 1.400 . S
C543 C542 1.385 . S
C544 C542 1.478 . S
C544 C546 1.381 . S
C544 C550 1.383 . S
C545 C541 1.495 . S
C545 H551 0.959 . S
C545 H552 0.961 . S
C545 H553 0.960 . S
C546 C544 1.381 . S
C546 C547 1.394 . S
C546 H554 0.930 . S
C547 C546 1.394 . S
C547 C548 1.383 . S
C547 H555 0.929 . S
C548 C547 1.383 . S
C548 C549 1.377 . S
C549 H533 0.930 . S
C549 C548 1.377 . S
C549 C550 1.379 . S
C550 H534 0.931 . S
C550 C544 1.383 . S
C550 C549 1.379 . S
H551 C545 0.959 . S
H552 C545 0.961 . S
H553 C545 0.960 . S
H554 C546 0.930 . S
H555 C547 0.929 . S
H556 C564 0.929 . S
H557 C566 0.930 . S
H558 C568 0.930 . S
H559 C571 0.929 . S
H560 C574 0.930 . S
H561 C576 0.961 . S
H562 C576 0.950 1_455 S
H563 C576 0.970 . S
C564 H556 0.929 . S
C564 C565 1.396 . S
C564 C566 1.384 . S
C565 C564 1.396 . S
C565 C571 1.372 1_455 S
C566 H557 0.930 . S
C566 C564 1.384 . S
C566 C567 1.372 . S
C567 C566 1.372 . S
C567 C568 1.400 1_455 S
C567 C572 1.490 . S
C568 H558 0.930 . S
C568 C567 1.400 1_655 S
C568 C571 1.386 . S
H569 C585 0.930 . S
H570 C586 0.931 . S
C571 H559 0.929 . S
C571 C565 1.372 1_655 S
C571 C568 1.386 . S
C572 C567 1.490 . S
C572 C574 1.395 . S
C572 C575 1.404 . S
H573 C579 0.927 1_655 S
C574 H560 0.930 . S
C574 C572 1.395 . S
C574 C577 1.403 . S
C575 C572 1.404 . S
C575 C576 1.523 1_455 S
C575 C579 1.400 . S
C576 H561 0.961 . S
C576 H562 0.950 1_655 S
C576 H563 0.970 . S
C576 C575 1.523 1_655 S
C577 C574 1.403 . S
C577 C578 1.392 . S
C577 C581 1.495 . S
C578 C577 1.392 . S
C578 C579 1.385 . S
C578 C580 1.480 . S
C579 H573 0.927 1_455 S
C579 C575 1.400 . S
C579 C578 1.385 . S
C580 C578 1.480 . S
C580 C582 1.434 . S
C580 C586 1.330 1_455 S
C581 C577 1.495 . S
C581 H587 0.959 . S
C581 H588 0.961 1_455 S
C581 H589 0.960 . S
C582 C580 1.434 . S
C582 C583 1.394 . S
C582 H590 0.930 . S
C583 C582 1.394 . S
C583 C584 1.424 . S
C583 H591 0.929 . S
C584 C583 1.424 . S
C584 C585 1.337 1_455 S
C585 H569 0.930 . S
C585 C584 1.337 1_655 S
C585 C586 1.379 . S
C586 H570 0.931 . S
C586 C580 1.330 1_655 S
C586 C585 1.379 . S
H587 C581 0.959 . S
H588 C581 0.961 1_655 S
H589 C581 0.960 . S
H590 C582 0.930 . S
H591 C583 0.929 . S
H592 C600 0.929 . S
H593 C602 0.930 . S
H594 C604 0.930 . S
H595 C607 0.929 . S
H596 C610 0.930 . S
H597 C612 0.960 . S
H598 C612 0.960 . S
H599 C612 0.960 . S
C600 H592 0.929 . S
C600 C601 1.387 . S
C600 C602 1.384 . S
C601 C600 1.387 . S
C601 C607 1.381 1_545 S
C602 H593 0.930 . S
C602 C600 1.384 . S
C602 C603 1.398 . S
C603 C602 1.398 . S
C603 C604 1.374 1_545 S
C603 C608 1.490 . S
C604 H594 0.930 . S
C604 C603 1.374 1_565 S
C604 C607 1.386 . S
H605 C621 0.930 . S
H606 C622 0.931 . S
C607 H595 0.929 . S
C607 C601 1.381 1_565 S
C607 C604 1.386 . S
C608 C603 1.490 . S
C608 C610 1.388 1_545 S
C608 C611 1.409 1_554 S
H609 C615 0.930 . S
C610 H596 0.930 . S
C610 C608 1.388 1_565 S
C610 C613 1.403 1_554 S
C611 C608 1.409 1_556 S
C611 C612 1.524 . S
C611 C615 1.400 . S
C612 H597 0.960 . S
C612 H598 0.960 . S
C612 H599 0.960 . S
C612 C611 1.524 . S
C613 C610 1.403 1_556 S
C613 C614 1.409 . S
C613 C617 1.495 . S
C614 C613 1.409 . S
C614 C615 1.368 1_565 S
C614 C616 1.481 . S
C615 H609 0.930 . S
C615 C611 1.400 . S
C615 C614 1.368 1_545 S
C616 C614 1.481 . S
C616 C618 1.381 1_565 S
C616 C622 1.383 . S
C617 C613 1.495 . S
C617 H623 0.959 1_556 S
C617 H624 0.961 . S
C617 H625 0.960 . S
C618 C616 1.381 1_545 S
C618 C619 1.394 . S
C618 H626 0.930 . S
C619 C618 1.394 . S
C619 C620 1.383 1_545 S
C619 H627 0.929 . S
C620 C619 1.383 1_565 S
C620 C621 1.377 . S
C621 H605 0.930 . S
C621 C620 1.377 . S
C621 C622 1.379 . S
C622 H606 0.931 . S
C622 C616 1.383 . S
C622 C621 1.379 . S
H623 C617 0.959 1_554 S
H624 C617 0.961 . S
H625 C617 0.960 . S
H626 C618 0.930 . S
H627 C619 0.929 . S
H628 C636 0.929 . S
H629 C638 0.930 . S
H630 C640 0.930 . S
H631 C643 0.929 . S
H632 C646 0.931 . S
H633 C648 0.960 . S
H634 C648 0.960 . S
H635 C648 0.960 . S
C636 H628 0.929 . S
C636 C637 1.377 . S
C636 C638 1.384 . S
C637 C636 1.377 . S
C637 C643 1.390 . S
C638 H629 0.930 . S
C638 C636 1.384 . S
C638 C639 1.372 . S
C639 C638 1.372 . S
C639 C640 1.400 . S
C639 C644 1.490 . S
C640 H630 0.930 . S
C640 C639 1.400 . S
C640 C643 1.386 . S
H641 C657 0.930 . S
H642 C658 0.931 . S
C643 H631 0.929 . S
C643 C637 1.390 . S
C643 C640 1.386 . S
C644 C639 1.490 . S
C644 C646 1.395 1_554 S
C644 C647 1.403 . S
H645 C651 0.930 . S
C646 H632 0.931 . S
C646 C644 1.395 1_556 S
C646 C649 1.403 . S
C647 C644 1.403 . S
C647 C648 1.524 . S
C647 C651 1.400 1_554 S
C648 H633 0.960 . S
C648 H634 0.960 . S
C648 H635 0.960 . S
C648 C647 1.524 . S
C649 C646 1.403 . S
C649 C650 1.392 . S
C649 C653 1.495 . S
C650 C649 1.392 . S
C650 C651 1.385 . S
C650 C652 1.478 . S
C651 H645 0.930 . S
C651 C647 1.400 1_556 S
C651 C650 1.385 . S
C652 C650 1.478 . S
C652 C654 1.381 . S
C652 C658 1.383 . S
C653 C649 1.495 . S
C653 H659 0.959 . S
C653 H660 0.961 . S
C653 H661 0.960 . S
C654 C652 1.381 . S
C654 C655 1.394 . S
C654 H662 0.930 . S
C655 C654 1.394 . S
C655 C656 1.383 . S
C655 H663 0.929 . S
C656 C655 1.383 . S
C656 C657 1.377 . S
C657 H641 0.930 . S
C657 C656 1.377 . S
C657 C658 1.379 . S
C658 H642 0.931 . S
C658 C652 1.383 . S
C658 C657 1.379 . S
H659 C653 0.959 . S
H660 C653 0.961 . S
H661 C653 0.960 . S
H662 C654 0.930 . S
H663 C655 0.929 . S
H664 C672 0.929 . S
H665 C674 0.930 . S
H666 C676 0.930 . S
H667 C679 0.929 . S
H668 C682 0.930 . S
H669 C684 0.960 . S
H670 C684 0.960 . S
H671 C684 0.960 . S
C672 H664 0.929 . S
C672 C673 1.377 . S
C672 C674 1.384 . S
C673 C672 1.377 . S
C673 C679 1.390 . S
C674 H665 0.930 . S
C674 C672 1.384 . S
C674 C675 1.372 . S
C675 C674 1.372 . S
C675 C676 1.400 . S
C675 C680 1.490 . S
C676 H666 0.930 . S
C676 C675 1.400 . S
C676 C679 1.386 . S
H677 C693 0.930 . S
H678 C694 0.931 . S
C679 H667 0.929 . S
C679 C673 1.390 . S
C679 C676 1.386 . S
C680 C675 1.490 . S
C680 C682 1.395 1_554 S
C680 C683 1.403 . S
H681 C687 0.930 . S
C682 H668 0.930 . S
C682 C680 1.395 1_556 S
C682 C685 1.403 . S
C683 C680 1.403 . S
C683 C684 1.524 . S
C683 C687 1.400 1_554 S
C684 H669 0.960 . S
C684 H670 0.960 . S
C684 H671 0.960 . S
C684 C683 1.524 . S
C685 C682 1.403 . S
C685 C686 1.392 . S
C685 C689 1.495 . S
C686 C685 1.392 . S
C686 C687 1.385 . S
C686 C688 1.478 . S
C687 H681 0.930 . S
C687 C683 1.400 1_556 S
C687 C686 1.385 . S
C688 C686 1.478 . S
C688 C690 1.381 . S
C688 C694 1.383 . S
C689 C685 1.495 . S
C689 H695 0.959 . S
C689 H696 0.961 . S
C689 H697 0.960 . S
C690 C688 1.381 . S
C690 C691 1.394 . S
C690 H698 0.930 . S
C691 C690 1.394 . S
C691 C692 1.383 . S
C691 H699 0.929 . S
C692 C691 1.383 . S
C692 C693 1.377 . S
C693 H677 0.930 . S
C693 C692 1.377 . S
C693 C694 1.379 . S
C694 H678 0.931 . S
C694 C688 1.383 . S
C694 C693 1.379 . S
H695 C689 0.959 . S
H696 C689 0.961 . S
H697 C689 0.960 . S
H698 C690 0.930 . S
H699 C691 0.929 . S
H700 C708 0.929 . S
H701 C710 0.930 . S
H702 C712 0.930 . S
H703 C715 0.929 . S
H704 C718 0.932 . S
H705 C720 0.960 . S
H706 C720 0.960 . S
H707 C720 0.960 1_655 S
C708 H700 0.929 . S
C708 C709 1.377 . S
C708 C710 1.384 . S
C709 C708 1.377 . S
C709 C715 1.390 1_455 S
C710 H701 0.930 . S
C710 C708 1.384 . S
C710 C711 1.399 . S
C711 C710 1.399 . S
C711 C712 1.373 1_455 S
C711 C716 1.490 . S
C712 H702 0.930 . S
C712 C711 1.373 1_655 S
C712 C715 1.386 . S
H713 C729 0.930 . S
H714 C730 0.931 . S
C715 H703 0.929 . S
C715 C709 1.390 1_655 S
C715 C712 1.386 . S
C716 C711 1.490 . S
C716 C718 1.392 1_455 S
C716 C719 1.405 1_554 S
H717 C723 0.935 . S
C718 H704 0.932 . S
C718 C716 1.392 1_655 S
C718 C721 1.405 1_554 S
C719 C716 1.405 1_556 S
C719 C720 1.524 . S
C719 C723 1.403 . S
C720 H705 0.960 . S
C720 H706 0.960 . S
C720 H707 0.960 1_455 S
C720 C719 1.524 . S
C721 C718 1.405 1_556 S
C721 C722 1.393 . S
C721 C725 1.496 . S
C722 C721 1.393 . S
C722 C723 1.382 1_655 S
C722 C724 1.477 . S
C723 H717 0.935 . S
C723 C719 1.403 . S
C723 C722 1.382 1_455 S
C724 C722 1.477 . S
C724 C726 1.341 1_655 S
C724 C730 1.424 . S
C725 C721 1.496 . S
C725 H731 0.956 1_556 S
C725 H732 0.962 . S
C725 H733 0.961 1_655 S
C726 C724 1.341 1_455 S
C726 C727 1.394 . S
C726 H734 0.930 . S
C727 C726 1.394 . S
C727 C728 1.333 1_455 S
C727 H735 0.929 . S
C728 C727 1.333 1_655 S
C728 C729 1.428 . S
C729 H713 0.930 . S
C729 C728 1.428 . S
C729 C730 1.379 . S
C730 H714 0.931 . S
C730 C724 1.424 . S
C730 C729 1.379 . S
H731 C725 0.956 1_554 S
H732 C725 0.962 . S
H733 C725 0.961 1_455 S
H734 C726 0.930 . S
H735 C727 0.929 . S
H736 C744 0.927 1_455 S
H737 C746 0.930 . S
H738 C748 0.930 . S
H739 C751 0.926 1_455 S
H740 C754 0.930 . S
H741 C756 0.960 . S
H742 C756 0.960 . S
H743 C756 0.960 . S
C744 H736 0.927 1_655 S
C744 C745 1.376 1_655 S
C744 C746 1.386 . S
C745 C744 1.376 1_455 S
C745 C751 1.389 1_455 S
C746 H737 0.930 . S
C746 C744 1.386 . S
C746 C747 1.372 . S
C747 C746 1.372 . S
C747 C748 1.400 . S
C747 C752 1.490 . S
C748 H738 0.930 . S
C748 C747 1.400 . S
C748 C751 1.388 . S
H749 C765 0.930 . S
H750 C766 0.931 . S
C751 H739 0.926 1_655 S
C751 C745 1.389 1_655 S
C751 C748 1.388 . S
C752 C747 1.490 . S
C752 C754 1.395 1_655 S
C752 C755 1.403 . S
H753 C759 0.930 . S
C754 H740 0.930 . S
C754 C752 1.395 1_455 S
C754 C757 1.403 . S
C755 C752 1.403 . S
C755 C756 1.524 . S
C755 C759 1.400 . S
C756 H741 0.960 . S
C756 H742 0.960 . S
C756 H743 0.960 . S
C756 C755 1.524 . S
C757 C754 1.403 . S
C757 C758 1.392 1_455 S
C757 C761 1.495 . S
C758 C757 1.392 1_655 S
C758 C759 1.385 . S
C758 C760 1.478 . S
C759 H753 0.930 . S
C759 C755 1.400 . S
C759 C758 1.385 . S
C760 C758 1.478 . S
C760 C762 1.381 . S
C760 C766 1.383 . S
C761 C757 1.495 . S
C761 H767 0.959 . S
C761 H768 0.961 . S
C761 H769 0.960 . S
C762 C760 1.381 . S
C762 C763 1.394 . S
C762 H770 0.930 . S
C763 C762 1.394 . S
C763 C764 1.383 . S
C763 H771 0.929 . S
C764 C763 1.383 . S
C764 C765 1.377 . S
C765 H749 0.930 . S
C765 C764 1.377 . S
C765 C766 1.379 . S
C766 H750 0.931 . S
C766 C760 1.383 . S
C766 C765 1.379 . S
H767 C761 0.959 . S
H768 C761 0.961 . S
H769 C761 0.960 . S
H770 C762 0.930 . S
H771 C763 0.929 . S
H772 C780 0.929 . S
H773 C782 0.930 . S
H774 C784 0.930 . S
H775 C787 0.929 . S
H776 C790 0.930 . S
H777 C792 0.960 . S
H778 C792 0.960 . S
H779 C792 0.960 . S
C780 H772 0.929 . S
C780 C781 1.377 . S
C780 C782 1.384 . S
C781 C780 1.377 . S
C781 C787 1.390 1_545 S
C782 H773 0.930 . S
C782 C780 1.384 . S
C782 C783 1.372 1_545 S
C783 C782 1.372 1_565 S
C783 C784 1.400 . S
C783 C788 1.490 . S
C784 H774 0.930 . S
C784 C783 1.400 . S
C784 C787 1.386 . S
H785 C801 0.930 . S
H786 C802 0.931 . S
C787 H775 0.929 . S
C787 C781 1.390 1_565 S
C787 C784 1.386 . S
C788 C783 1.490 . S
C788 C790 1.395 1_565 S
C788 C791 1.403 . S
H789 C795 0.930 . S
C790 H776 0.930 . S
C790 C788 1.395 1_545 S
C790 C793 1.403 . S
C791 C788 1.403 . S
C791 C792 1.524 . S
C791 C795 1.400 . S
C792 H777 0.960 . S
C792 H778 0.960 . S
C792 H779 0.960 . S
C792 C791 1.524 . S
C793 C790 1.403 . S
C793 C794 1.392 1_545 S
C793 C797 1.495 . S
C794 C793 1.392 1_565 S
C794 C795 1.385 . S
C794 C796 1.478 . S
C795 H789 0.930 . S
C795 C791 1.400 . S
C795 C794 1.385 . S
C796 C794 1.478 . S
C796 C798 1.381 . S
C796 C802 1.383 . S
C797 C793 1.495 . S
C797 H803 0.959 . S
C797 H804 0.961 . S
C797 H805 0.960 . S
C798 C796 1.381 . S
C798 C799 1.394 . S
C798 H806 0.930 1_565 S
C799 C798 1.394 . S
C799 C800 1.383 . S
C799 H807 0.929 . S
C800 C799 1.383 . S
C800 C801 1.377 . S
C801 H785 0.930 . S
C801 C800 1.377 . S
C801 C802 1.379 . S
C802 H786 0.931 . S
C802 C796 1.383 . S
C802 C801 1.379 . S
H803 C797 0.959 . S
H804 C797 0.961 . S
H805 C797 0.960 . S
H806 C798 0.930 1_545 S
H807 C799 0.929 . S
H808 C816 0.929 . S
H809 C818 0.930 . S
H810 C820 0.930 . S
H811 C823 0.929 . S
H812 C826 0.930 . S
H813 C828 0.960 . S
H814 C828 0.960 . S
H815 C828 0.960 . S
C816 H808 0.929 . S
C816 C817 1.377 . S
C816 C818 1.384 . S
C817 C816 1.377 . S
C817 C823 1.390 . S
C818 H809 0.930 . S
C818 C816 1.384 . S
C818 C819 1.372 . S
C819 C818 1.372 . S
C819 C820 1.400 . S
C819 C824 1.490 . S
C820 H810 0.930 . S
C820 C819 1.400 . S
C820 C823 1.386 . S
H821 C837 0.930 . S
H822 C838 0.931 . S
C823 H811 0.929 . S
C823 C817 1.390 . S
C823 C820 1.386 . S
C824 C819 1.490 . S
C824 C826 1.395 . S
C824 C827 1.403 . S
H825 C831 0.930 . S
C826 H812 0.930 . S
C826 C824 1.395 . S
C826 C829 1.403 . S
C827 C824 1.403 . S
C827 C828 1.524 . S
C827 C831 1.400 . S
C828 H813 0.960 . S
C828 H814 0.960 . S
C828 H815 0.960 . S
C828 C827 1.524 . S
C829 C826 1.403 . S
C829 C830 1.392 . S
C829 C833 1.495 . S
C830 C829 1.392 . S
C830 C831 1.385 . S
C830 C832 1.478 . S
C831 H825 0.930 . S
C831 C827 1.400 . S
C831 C830 1.385 . S
C832 C830 1.478 . S
C832 C834 1.381 . S
C832 C838 1.383 . S
C833 C829 1.495 . S
C833 H839 0.959 . S
C833 H840 0.961 . S
C833 H841 0.960 . S
C834 C832 1.381 . S
C834 C835 1.394 . S
C834 H842 0.930 . S
C835 C834 1.394 . S
C835 C836 1.383 . S
C835 H843 0.929 . S
C836 C835 1.383 . S
C836 C837 1.377 . S
C837 H821 0.930 . S
C837 C836 1.377 . S
C837 C838 1.379 . S
C838 H822 0.931 . S
C838 C832 1.383 . S
C838 C837 1.379 . S
H839 C833 0.959 . S
H840 C833 0.961 . S
H841 C833 0.960 . S
H842 C834 0.930 . S
H843 C835 0.929 . S
H844 C852 0.929 . S
H845 C854 0.930 . S
H846 C856 0.930 . S
H847 C859 0.929 . S
H848 C862 0.930 . S
H849 C864 0.960 . S
H850 C864 0.960 . S
H851 C864 0.960 . S
C852 H844 0.929 . S
C852 C853 1.377 . S
C852 C854 1.384 . S
C853 C852 1.377 . S
C853 C859 1.390 . S
C854 H845 0.930 . S
C854 C852 1.384 . S
C854 C855 1.372 . S
C855 C854 1.372 . S
C855 C856 1.400 . S
C855 C860 1.490 . S
C856 H846 0.930 . S
C856 C855 1.400 . S
C856 C859 1.386 . S
H857 C873 0.930 . S
H858 C874 0.931 . S
C859 H847 0.929 . S
C859 C853 1.390 . S
C859 C856 1.386 . S
C860 C855 1.490 . S
C860 C862 1.395 . S
C860 C863 1.403 . S
H861 C867 0.930 . S
C862 H848 0.930 . S
C862 C860 1.395 . S
C862 C865 1.403 . S
C863 C860 1.403 . S
C863 C864 1.524 . S
C863 C867 1.400 . S
C864 H849 0.960 . S
C864 H850 0.960 . S
C864 H851 0.960 . S
C864 C863 1.524 . S
C865 C862 1.403 . S
C865 C866 1.392 . S
C865 C869 1.495 . S
C866 C865 1.392 . S
C866 C867 1.385 . S
C866 C868 1.478 . S
C867 H861 0.930 . S
C867 C863 1.400 . S
C867 C866 1.385 . S
C868 C866 1.478 . S
C868 C870 1.381 . S
C868 C874 1.383 . S
C869 C865 1.495 . S
C869 H875 0.959 . S
C869 H876 0.961 . S
C869 H877 0.960 . S
C870 C868 1.381 . S
C870 C871 1.394 . S
C870 H878 0.930 . S
C871 C870 1.394 . S
C871 C872 1.383 . S
C871 H879 0.929 . S
C872 C871 1.383 . S
C872 C873 1.377 . S
C873 H857 0.930 . S
C873 C872 1.377 . S
C873 C874 1.379 . S
C874 H858 0.931 . S
C874 C868 1.383 . S
C874 C873 1.379 . S
H875 C869 0.959 . S
H876 C869 0.961 . S
H877 C869 0.960 . S
H878 C870 0.930 . S
H879 C871 0.929 . S
H880 C888 0.929 . S
H881 C890 0.930 . S
H882 C892 0.930 . S
H883 C895 0.929 . S
H884 C898 0.930 1_655 S
H885 C900 0.960 . S
H886 C900 0.960 . S
H887 C900 0.960 . S
C888 H880 0.929 . S
C888 C889 1.377 . S
C888 C890 1.384 . S
C889 C888 1.377 . S
C889 C895 1.390 1_655 S
C890 H881 0.930 . S
C890 C888 1.384 . S
C890 C891 1.372 1_655 S
C891 C890 1.372 1_455 S
C891 C892 1.400 . S
C891 C896 1.490 . S
C892 H882 0.930 . S
C892 C891 1.400 . S
C892 C895 1.386 . S
H893 C909 0.930 . S
H894 C910 0.931 . S
C895 H883 0.929 . S
C895 C889 1.390 1_455 S
C895 C892 1.386 . S
C896 C891 1.490 . S
C896 C898 1.395 . S
C896 C899 1.403 1_554 S
H897 C903 0.930 . S
C898 H884 0.930 1_455 S
C898 C896 1.395 . S
C898 C901 1.403 . S
C899 C896 1.403 1_556 S
C899 C900 1.524 . S
C899 C903 1.400 . S
C900 H885 0.960 . S
C900 H886 0.960 . S
C900 H887 0.960 . S
C900 C899 1.524 . S
C901 C898 1.403 . S
C901 C902 1.392 1_554 S
C901 C905 1.511 . S
C902 C901 1.392 1_556 S
C902 C903 1.385 . S
C902 C904 1.478 . S
C903 H897 0.930 . S
C903 C899 1.400 . S
C903 C902 1.385 . S
C904 C902 1.478 . S
C904 C906 1.381 . S
C904 C910 1.383 . S
C905 C901 1.511 . S
C905 H911 0.937 1_455 S
C905 H912 1.015 . S
C905 H913 0.917 1_455 S
C906 C904 1.381 . S
C906 C907 1.394 . S
C906 H914 0.930 1_455 S
C907 C906 1.394 . S
C907 C908 1.383 . S
C907 H915 0.929 1_455 S
C908 C907 1.383 . S
C908 C909 1.377 . S
C909 H893 0.930 . S
C909 C908 1.377 . S
C909 C910 1.379 . S
C910 H894 0.931 . S
C910 C904 1.383 . S
C910 C909 1.379 . S
H911 C905 0.937 1_655 S
H912 C905 1.015 . S
H913 C905 0.917 1_655 S
H914 C906 0.930 1_655 S
H915 C907 0.929 1_655 S
H916 C924 0.929 . S
H917 C926 0.930 1_556 S
H918 C928 0.930 . S
H919 C931 0.929 . S
H920 C934 0.930 1_565 S
H921 C936 0.960 . S
H922 C936 0.960 . S
H923 C936 0.960 . S
C924 H916 0.929 . S
C924 C925 1.377 1_545 S
C924 C926 1.384 . S
C925 C924 1.377 1_565 S
C925 C931 1.390 . S
C926 H917 0.930 1_554 S
C926 C924 1.384 . S
C926 C927 1.372 . S
C927 C926 1.372 . S
C927 C928 1.400 1_545 S
C927 C932 1.490 . S
C928 H918 0.930 . S
C928 C927 1.400 1_565 S
C928 C931 1.386 . S
H929 C945 0.930 . S
H930 C946 0.931 . S
C931 H919 0.929 . S
C931 C925 1.390 . S
C931 C928 1.386 . S
C932 C927 1.490 . S
C932 C934 1.395 1_554 S
C932 C935 1.403 . S
H933 C939 0.930 1_554 S
C934 H920 0.930 1_545 S
C934 C932 1.395 1_556 S
C934 C937 1.403 . S
C935 C932 1.403 . S
C935 C936 1.524 . S
C935 C939 1.400 1_554 S
C936 H921 0.960 . S
C936 H922 0.960 . S
C936 H923 0.960 . S
C936 C935 1.524 . S
C937 C934 1.403 . S
C937 C938 1.392 . S
C937 C941 1.495 1_545 S
C938 C937 1.392 . S
C938 C939 1.385 . S
C938 C940 1.478 . S
C939 H933 0.930 1_556 S
C939 C935 1.400 1_556 S
C939 C938 1.385 . S
C940 C938 1.478 . S
C940 C942 1.381 . S
C940 C946 1.383 . S
C941 C937 1.495 1_565 S
C941 H947 0.959 . S
C941 H948 0.961 . S
C941 H949 0.960 1_565 S
C942 C940 1.381 . S
C942 C943 1.394 . S
C942 H950 0.930 . S
C943 C942 1.394 . S
C943 C944 1.383 . S
C943 H951 0.929 . S
C944 C943 1.383 . S
C944 C945 1.377 . S
C945 H929 0.930 . S
C945 C944 1.377 . S
C945 C946 1.379 . S
C946 H930 0.931 . S
C946 C940 1.383 . S
C946 C945 1.379 . S
H947 C941 0.959 . S
H948 C941 0.961 . S
H949 C941 0.960 1_545 S
H950 C942 0.930 . S
H951 C943 0.929 . S
H952 C960 0.929 . S
H953 C962 0.930 . S
H954 C964 0.930 . S
H955 C967 0.929 . S
H956 C970 0.930 . S
H957 C972 0.960 . S
H958 C972 0.960 . S
H959 C972 0.960 1_554 S
C960 H952 0.929 . S
C960 C961 1.377 . S
C960 C962 1.384 . S
C961 C960 1.377 . S
C961 C967 1.390 . S
C962 H953 0.930 . S
C962 C960 1.384 . S
C962 C963 1.372 . S
C963 C962 1.372 . S
C963 C964 1.400 . S
C963 C968 1.490 . S
C964 H954 0.930 . S
C964 C963 1.400 . S
C964 C967 1.386 . S
H965 C981 0.930 . S
H966 C982 0.931 . S
C967 H955 0.929 . S
C967 C961 1.390 . S
C967 C964 1.386 . S
C968 C963 1.490 . S
C968 C970 1.395 . S
C968 C971 1.403 1_554 S
H969 C975 0.930 . S
C970 H956 0.930 . S
C970 C968 1.395 . S
C970 C973 1.403 1_554 S
C971 C968 1.403 1_556 S
C971 C972 1.524 . S
C971 C975 1.400 . S
C972 H957 0.960 . S
C972 H958 0.960 . S
C972 H959 0.960 1_556 S
C972 C971 1.524 . S
C973 C970 1.403 1_556 S
C973 C974 1.392 . S
C973 C977 1.495 . S
C974 C973 1.392 . S
C974 C975 1.385 . S
C974 C976 1.478 . S
C975 H969 0.930 . S
C975 C971 1.400 . S
C975 C974 1.385 . S
C976 C974 1.478 . S
C976 C978 1.381 . S
C976 C982 1.383 . S
C977 C973 1.495 . S
C977 H983 0.959 1_556 S
C977 H984 0.961 1_556 S
C977 H985 0.960 . S
C978 C976 1.381 . S
C978 C979 1.394 . S
C978 H986 0.930 . S
C979 C978 1.394 . S
C979 C980 1.383 . S
C979 H987 0.929 . S
C980 C979 1.383 . S
C980 C981 1.377 . S
C981 H965 0.930 . S
C981 C980 1.377 . S
C981 C982 1.379 . S
C982 H966 0.931 . S
C982 C976 1.383 . S
C982 C981 1.379 . S
H983 C977 0.959 1_554 S
H984 C977 0.961 1_554 S
H985 C977 0.960 . S
H986 C978 0.930 . S
H987 C979 0.929 . S
H988 C996 0.929 . S
H989 C998 0.930 . S
H990 C1000 0.930 . S
H991 C1003 0.929 . S
H992 C1006 0.930 . S
H993 C1008 0.960 . S
H994 C1008 0.960 . S
H995 C1008 0.960 . S
C996 H988 0.929 . S
C996 C997 1.377 . S
C996 C998 1.384 . S
C997 C996 1.377 . S
C997 C1003 1.390 . S
C998 H989 0.930 . S
C998 C996 1.384 . S
C998 C999 1.372 . S
C999 C998 1.372 . S
C999 C1000 1.400 . S
C999 C1004 1.490 . S
C1000 H990 0.930 . S
C1000 C999 1.400 . S
C1000 C1003 1.386 . S
H1001 C1017 0.930 . S
H1002 C1018 0.931 . S
C1003 H991 0.929 . S
C1003 C997 1.390 . S
C1003 C1000 1.386 . S
C1004 C999 1.490 . S
C1004 C1006 1.395 1_554 S
C1004 C1007 1.403 . S
H1005 C1011 0.930 1_554 S
C1006 H992 0.930 . S
C1006 C1004 1.395 1_556 S
C1006 C1009 1.403 . S
C1007 C1004 1.403 . S
C1007 C1008 1.524 . S
C1007 C1011 1.400 1_554 S
C1008 H993 0.960 . S
C1008 H994 0.960 . S
C1008 H995 0.960 . S
C1008 C1007 1.524 . S
C1009 C1006 1.403 . S
C1009 C1010 1.392 . S
C1009 C1013 1.495 . S
C1010 C1009 1.392 . S
C1010 C1011 1.385 . S
C1010 C1012 1.478 . S
C1011 H1005 0.930 1_556 S
C1011 C1007 1.400 1_556 S
C1011 C1010 1.385 . S
C1012 C1010 1.478 . S
C1012 C1014 1.381 . S
C1012 C1018 1.383 . S
C1013 C1009 1.495 . S
C1013 H1019 0.959 . S
C1013 H1020 0.961 . S
C1013 H1021 0.960 . S
C1014 C1012 1.381 . S
C1014 C1015 1.394 . S
C1014 H1022 0.930 . S
C1015 C1014 1.394 . S
C1015 C1016 1.383 . S
C1015 H1023 0.929 . S
C1016 C1015 1.383 . S
C1016 C1017 1.377 . S
C1017 H1001 0.930 . S
C1017 C1016 1.377 . S
C1017 C1018 1.379 . S
C1018 H1002 0.931 . S
C1018 C1012 1.383 . S
C1018 C1017 1.379 . S
H1019 C1013 0.959 . S
H1020 C1013 0.961 . S
H1021 C1013 0.960 . S
H1022 C1014 0.930 . S
H1023 C1015 0.929 . S
H1024 C1032 0.929 . S
H1025 C1034 0.930 . S
H1026 C1036 0.930 . S
H1027 C1039 0.929 . S
H1028 C1042 0.930 . S
H1029 C1044 0.960 . S
H1030 C1044 0.960 . S
H1031 C1044 0.960 . S
C1032 H1024 0.929 . S
C1032 C1033 1.377 1_655 S
C1032 C1034 1.384 . S
C1033 C1032 1.377 1_455 S
C1033 C1039 1.390 . S
C1034 H1025 0.930 . S
C1034 C1032 1.384 . S
C1034 C1035 1.372 1_655 S
C1035 C1034 1.372 1_455 S
C1035 C1036 1.400 . S
C1035 C1040 1.490 . S
C1036 H1026 0.930 . S
C1036 C1035 1.400 . S
C1036 C1039 1.386 . S
H1037 C1053 0.930 . S
H1038 C1054 0.931 . S
C1039 H1027 0.929 . S
C1039 C1033 1.390 . S
C1039 C1036 1.386 . S
C1040 C1035 1.490 . S
C1040 C1042 1.395 1_455 S
C1040 C1043 1.403 . S
H1041 C1047 0.930 . S
C1042 H1028 0.930 . S
C1042 C1040 1.395 1_655 S
C1042 C1045 1.403 . S
C1043 C1040 1.403 . S
C1043 C1044 1.524 . S
C1043 C1047 1.400 . S
C1044 H1029 0.960 . S
C1044 H1030 0.960 . S
C1044 H1031 0.960 . S
C1044 C1043 1.524 . S
C1045 C1042 1.403 . S
C1045 C1046 1.392 1_655 S
C1045 C1049 1.495 . S
C1046 C1045 1.392 1_455 S
C1046 C1047 1.385 . S
C1046 C1048 1.478 . S
C1047 H1041 0.930 . S
C1047 C1043 1.400 . S
C1047 C1046 1.385 . S
C1048 C1046 1.478 . S
C1048 C1050 1.381 1_455 S
C1048 C1054 1.383 . S
C1049 C1045 1.495 . S
C1049 H1055 0.959 . S
C1049 H1056 0.961 . S
C1049 H1057 0.960 . S
C1050 C1048 1.381 1_655 S
C1050 C1051 1.394 . S
C1050 H1058 0.930 . S
C1051 C1050 1.394 . S
C1051 C1052 1.383 1_655 S
C1051 H1059 0.929 . S
C1052 C1051 1.383 1_455 S
C1052 C1053 1.377 . S
C1053 H1037 0.930 . S
C1053 C1052 1.377 . S
C1053 C1054 1.379 . S
C1054 H1038 0.931 . S
C1054 C1048 1.383 . S
C1054 C1053 1.379 . S
H1055 C1049 0.959 . S
H1056 C1049 0.961 . S
H1057 C1049 0.960 . S
H1058 C1050 0.930 . S
H1059 C1051 0.929 . S
H1060 C1068 0.927 1_565 S
H1061 C1070 0.930 . S
H1062 C1072 0.930 . S
H1063 C1075 0.929 . S
H1064 C1078 0.930 . S
H1065 C1080 0.960 . S
H1066 C1080 0.960 . S
H1067 C1080 0.960 . S
C1068 H1060 0.927 1_545 S
C1068 C1069 1.377 . S
C1068 C1070 1.385 . S
C1069 C1068 1.377 . S
C1069 C1075 1.395 . S
C1070 H1061 0.930 . S
C1070 C1068 1.385 . S
C1070 C1071 1.372 . S
C1071 C1070 1.372 . S
C1071 C1072 1.400 . S
C1071 C1076 1.490 . S
C1072 H1062 0.930 . S
C1072 C1071 1.400 . S
C1072 C1075 1.386 . S
H1073 C1089 0.930 . S
H1074 C1090 0.931 . S
C1075 H1063 0.929 . S
C1075 C1069 1.395 . S
C1075 C1072 1.386 . S
C1076 C1071 1.490 . S
C1076 C1078 1.395 . S
C1076 C1079 1.403 1_545 S
H1077 C1083 0.930 . S
C1078 H1064 0.930 . S
C1078 C1076 1.395 . S
C1078 C1081 1.403 . S
C1079 C1076 1.403 1_565 S
C1079 C1080 1.524 . S
C1079 C1083 1.400 . S
C1080 H1065 0.960 . S
C1080 H1066 0.960 . S
C1080 H1067 0.960 . S
C1080 C1079 1.524 . S
C1081 C1078 1.403 . S
C1081 C1082 1.392 . S
C1081 C1085 1.495 . S
C1082 C1081 1.392 . S
C1082 C1083 1.385 1_545 S
C1082 C1084 1.478 . S
C1083 H1077 0.930 . S
C1083 C1079 1.400 . S
C1083 C1082 1.385 1_565 S
C1084 C1082 1.478 . S
C1084 C1086 1.381 . S
C1084 C1090 1.383 . S
C1085 C1081 1.495 . S
C1085 H1091 0.959 . S
C1085 H1092 0.961 . S
C1085 H1093 0.960 . S
C1086 C1084 1.381 . S
C1086 C1087 1.394 . S
C1086 H1094 0.930 . S
C1087 C1086 1.394 . S
C1087 C1088 1.383 . S
C1087 H1095 0.929 . S
C1088 C1087 1.383 . S
C1088 C1089 1.377 . S
C1089 H1073 0.930 . S
C1089 C1088 1.377 . S
C1089 C1090 1.379 . S
C1090 H1074 0.931 . S
C1090 C1084 1.383 . S
C1090 C1089 1.379 . S
H1091 C1085 0.959 . S
H1092 C1085 0.961 . S
H1093 C1085 0.960 . S
H1094 C1086 0.930 . S
H1095 C1087 0.929 . S
H1096 C1104 0.929 . S
H1097 C1106 0.930 . S
H1098 C1108 0.930 . S
H1099 C1111 0.929 . S
H1100 C1114 0.930 . S
H1101 C1116 0.960 . S
H1102 C1116 0.960 . S
H1103 C1116 0.960 . S
C1104 H1096 0.929 . S
C1104 C1105 1.377 . S
C1104 C1106 1.384 . S
C1105 C1104 1.377 . S
C1105 C1111 1.390 . S
C1106 H1097 0.930 . S
C1106 C1104 1.384 . S
C1106 C1107 1.372 . S
C1107 C1106 1.372 . S
C1107 C1108 1.400 . S
C1107 C1112 1.490 . S
C1108 H1098 0.930 . S
C1108 C1107 1.400 . S
C1108 C1111 1.386 . S
H1109 C1125 0.930 . S
H1110 C1126 0.931 . S
C1111 H1099 0.929 . S
C1111 C1105 1.390 . S
C1111 C1108 1.386 . S
C1112 C1107 1.490 . S
C1112 C1114 1.395 . S
C1112 C1115 1.403 . S
H1113 C1119 0.930 . S
C1114 H1100 0.930 . S
C1114 C1112 1.395 . S
C1114 C1117 1.403 . S
C1115 C1112 1.403 . S
C1115 C1116 1.524 . S
C1115 C1119 1.400 . S
C1116 H1101 0.960 . S
C1116 H1102 0.960 . S
C1116 H1103 0.960 . S
C1116 C1115 1.524 . S
C1117 C1114 1.403 . S
C1117 C1118 1.392 . S
C1117 C1121 1.495 . S
C1118 C1117 1.392 . S
C1118 C1119 1.385 . S
C1118 C1120 1.478 . S
C1119 H1113 0.930 . S
C1119 C1115 1.400 . S
C1119 C1118 1.385 . S
C1120 C1118 1.478 . S
C1120 C1122 1.381 . S
C1120 C1126 1.383 . S
C1121 C1117 1.495 . S
C1121 H1127 0.959 . S
C1121 H1128 0.961 . S
C1121 H1129 0.960 . S
C1122 C1120 1.381 . S
C1122 C1123 1.394 . S
C1122 H1130 0.930 . S
C1123 C1122 1.394 . S
C1123 C1124 1.383 . S
C1123 H1131 0.929 . S
C1124 C1123 1.383 . S
C1124 C1125 1.377 . S
C1125 H1109 0.930 . S
C1125 C1124 1.377 . S
C1125 C1126 1.379 . S
C1126 H1110 0.931 . S
C1126 C1120 1.383 . S
C1126 C1125 1.379 . S
H1127 C1121 0.959 . S
H1128 C1121 0.961 . S
H1129 C1121 0.960 . S
H1130 C1122 0.930 . S
H1131 C1123 0.929 . S
H1132 C1140 0.929 . S
H1133 C1142 0.930 . S
H1134 C1144 0.930 . S
H1135 C1147 0.929 . S
H1136 C1150 0.930 . S
H1137 C1152 0.960 . S
H1138 C1152 0.960 . S
H1139 C1152 0.960 . S
C1140 H1132 0.929 . S
C1140 C1141 1.377 . S
C1140 C1142 1.384 . S
C1141 C1140 1.377 . S
C1141 C1147 1.390 . S
C1142 H1133 0.930 . S
C1142 C1140 1.384 . S
C1142 C1143 1.372 . S
C1143 C1142 1.372 . S
C1143 C1144 1.400 . S
C1143 C1148 1.490 . S
C1144 H1134 0.930 . S
C1144 C1143 1.400 . S
C1144 C1147 1.386 . S
H1145 C1161 0.930 . S
H1146 C1162 0.931 . S
C1147 H1135 0.929 . S
C1147 C1141 1.390 . S
C1147 C1144 1.386 . S
C1148 C1143 1.490 . S
C1148 C1150 1.395 . S
C1148 C1151 1.403 . S
H1149 C1155 0.930 . S
C1150 H1136 0.930 . S
C1150 C1148 1.395 . S
C1150 C1153 1.403 . S
C1151 C1148 1.403 . S
C1151 C1152 1.524 . S
C1151 C1155 1.400 . S
C1152 H1137 0.960 . S
C1152 H1138 0.960 . S
C1152 H1139 0.960 . S
C1152 C1151 1.524 . S
C1153 C1150 1.403 . S
C1153 C1154 1.392 . S
C1153 C1157 1.495 . S
C1154 C1153 1.392 . S
C1154 C1155 1.385 . S
C1154 C1156 1.478 . S
C1155 H1149 0.930 . S
C1155 C1151 1.400 . S
C1155 C1154 1.385 . S
C1156 C1154 1.478 . S
C1156 C1158 1.381 . S
C1156 C1162 1.383 . S
C1157 C1153 1.495 . S
C1157 H1163 0.959 . S
C1157 H1164 0.961 . S
C1157 H1165 0.960 . S
C1158 C1156 1.381 . S
C1158 C1159 1.394 . S
C1158 H1166 0.930 . S
C1159 C1158 1.394 . S
C1159 C1160 1.383 . S
C1159 H1167 0.929 . S
C1160 C1159 1.383 . S
C1160 C1161 1.377 . S
C1161 H1145 0.930 . S
C1161 C1160 1.377 . S
C1161 C1162 1.379 . S
C1162 H1146 0.931 . S
C1162 C1156 1.383 . S
C1162 C1161 1.379 . S
H1163 C1157 0.959 . S
H1164 C1157 0.961 . S
H1165 C1157 0.960 . S
H1166 C1158 0.930 . S
H1167 C1159 0.929 . S
H1168 C1176 0.929 . S
H1169 C1178 0.930 . S
H1170 C1180 0.930 . S
H1171 C1183 0.929 . S
H1172 C1186 0.930 . S
H1173 C1188 0.960 . S
H1174 C1188 0.931 1_655 S
H1175 C1188 0.960 . S
C1176 H1168 0.929 . S
C1176 C1177 1.377 . S
C1176 C1178 1.384 . S
C1177 C1176 1.377 . S
C1177 C1183 1.390 1_655 S
C1178 H1169 0.930 . S
C1178 C1176 1.384 . S
C1178 C1179 1.372 . S
C1179 C1178 1.372 . S
C1179 C1180 1.400 1_655 S
C1179 C1184 1.490 . S
C1180 H1170 0.930 . S
C1180 C1179 1.400 1_455 S
C1180 C1183 1.386 . S
H1181 C1197 0.930 . S
H1182 C1198 0.931 . S
C1183 H1171 0.929 . S
C1183 C1177 1.390 1_455 S
C1183 C1180 1.386 . S
C1184 C1179 1.490 . S
C1184 C1186 1.395 . S
C1184 C1187 1.403 1_655 S
H1185 C1191 0.935 . S
C1186 H1172 0.930 . S
C1186 C1184 1.395 . S
C1186 C1189 1.403 . S
C1187 C1184 1.403 1_455 S
C1187 C1188 1.524 . S
C1187 C1191 1.401 . S
C1188 H1173 0.960 . S
C1188 H1174 0.931 1_455 S
C1188 H1175 0.960 . S
C1188 C1187 1.524 . S
C1189 C1186 1.403 . S
C1189 C1190 1.392 . S
C1189 C1193 1.495 . S
C1190 C1189 1.392 . S
C1190 C1191 1.380 1_655 S
C1190 C1192 1.478 . S
C1191 H1185 0.935 . S
C1191 C1187 1.401 . S
C1191 C1190 1.380 1_455 S
C1192 C1190 1.478 . S
C1192 C1194 1.381 . S
C1192 C1198 1.383 1_655 S
C1193 C1189 1.495 . S
C1193 H1199 0.959 . S
C1193 H1200 0.961 . S
C1193 H1201 0.960 . S
C1194 C1192 1.381 . S
C1194 C1195 1.394 . S
C1194 H1202 0.930 . S
C1195 C1194 1.394 . S
C1195 C1196 1.383 . S
C1195 H1203 0.929 . S
C1196 C1195 1.383 . S
C1196 C1197 1.377 1_655 S
C1197 H1181 0.930 . S
C1197 C1196 1.377 1_455 S
C1197 C1198 1.379 . S
C1198 H1182 0.931 . S
C1198 C1192 1.383 1_455 S
C1198 C1197 1.379 . S
H1199 C1193 0.959 . S
H1200 C1193 0.961 . S
H1201 C1193 0.960 . S
H1202 C1194 0.930 . S
H1203 C1195 0.929 . S
H1204 C1212 0.928 1_545 S
H1205 C1214 0.930 . S
H1206 C1216 0.930 . S
H1207 C1219 0.929 . S
H1208 C1222 0.930 . S
H1209 C1224 0.960 . S
H1210 C1224 0.960 . S
H1211 C1224 0.960 . S
C1212 H1204 0.928 1_565 S
C1212 C1213 1.377 . S
C1212 C1214 1.386 . S
C1213 C1212 1.377 . S
C1213 C1219 1.392 . S
C1214 H1205 0.930 . S
C1214 C1212 1.386 . S
C1214 C1215 1.372 . S
C1215 C1214 1.372 . S
C1215 C1216 1.400 . S
C1215 C1220 1.490 . S
C1216 H1206 0.930 . S
C1216 C1215 1.400 . S
C1216 C1219 1.386 . S
H1217 C1233 0.930 . S
H1218 C1234 0.931 . S
C1219 H1207 0.929 . S
C1219 C1213 1.392 . S
C1219 C1216 1.386 . S
C1220 C1215 1.490 . S
C1220 C1222 1.395 . S
C1220 C1223 1.403 1_565 S
H1221 C1227 0.930 . S
C1222 H1208 0.930 . S
C1222 C1220 1.395 . S
C1222 C1225 1.403 . S
C1223 C1220 1.403 1_545 S
C1223 C1224 1.524 . S
C1223 C1227 1.400 . S
C1224 H1209 0.960 . S
C1224 H1210 0.960 . S
C1224 H1211 0.960 . S
C1224 C1223 1.524 . S
C1225 C1222 1.403 . S
C1225 C1226 1.392 . S
C1225 C1229 1.495 . S
C1226 C1225 1.392 . S
C1226 C1227 1.385 1_565 S
C1226 C1228 1.478 . S
C1227 H1221 0.930 . S
C1227 C1223 1.400 . S
C1227 C1226 1.385 1_545 S
C1228 C1226 1.478 . S
C1228 C1230 1.381 . S
C1228 C1234 1.383 . S
C1229 C1225 1.495 . S
C1229 H1235 0.959 . S
C1229 H1236 0.961 . S
C1229 H1237 0.960 . S
C1230 C1228 1.381 . S
C1230 C1231 1.394 . S
C1230 H1238 0.930 . S
C1231 C1230 1.394 . S
C1231 C1232 1.383 . S
C1231 H1239 0.929 . S
C1232 C1231 1.383 . S
C1232 C1233 1.377 . S
C1233 H1217 0.930 . S
C1233 C1232 1.377 . S
C1233 C1234 1.379 . S
C1234 H1218 0.931 . S
C1234 C1228 1.383 . S
C1234 C1233 1.379 . S
H1235 C1229 0.959 . S
H1236 C1229 0.961 . S
H1237 C1229 0.960 . S
H1238 C1230 0.930 . S
H1239 C1231 0.929 . S
H1240 C1248 0.929 . S
H1241 C1250 0.930 . S
H1242 C1252 0.930 . S
H1243 C1255 0.929 . S
H1244 C1258 0.930 . S
H1245 C1260 0.960 . S
H1246 C1260 0.960 . S
H1247 C1260 0.960 . S
C1248 H1240 0.929 . S
C1248 C1249 1.377 . S
C1248 C1250 1.384 . S
C1249 C1248 1.377 . S
C1249 C1255 1.390 . S
C1250 H1241 0.930 . S
C1250 C1248 1.384 . S
C1250 C1251 1.372 . S
C1251 C1250 1.372 . S
C1251 C1252 1.400 . S
C1251 C1256 1.490 . S
C1252 H1242 0.930 . S
C1252 C1251 1.400 . S
C1252 C1255 1.386 . S
H1253 C1269 0.930 . S
H1254 C1270 0.931 . S
C1255 H1243 0.929 . S
C1255 C1249 1.390 . S
C1255 C1252 1.386 . S
C1256 C1251 1.490 . S
C1256 C1258 1.395 . S
C1256 C1259 1.403 . S
H1257 C1263 0.930 . S
C1258 H1244 0.930 . S
C1258 C1256 1.395 . S
C1258 C1261 1.403 . S
C1259 C1256 1.403 . S
C1259 C1260 1.524 . S
C1259 C1263 1.400 . S
C1260 H1245 0.960 . S
C1260 H1246 0.960 . S
C1260 H1247 0.960 . S
C1260 C1259 1.524 . S
C1261 C1258 1.403 . S
C1261 C1262 1.392 . S
C1261 C1265 1.495 . S
C1262 C1261 1.392 . S
C1262 C1263 1.385 . S
C1262 C1264 1.478 . S
C1263 H1257 0.930 . S
C1263 C1259 1.400 . S
C1263 C1262 1.385 . S
C1264 C1262 1.478 . S
C1264 C1266 1.381 . S
C1264 C1270 1.383 . S
C1265 C1261 1.495 . S
C1265 H1271 0.959 . S
C1265 H1272 0.961 . S
C1265 H1273 0.960 . S
C1266 C1264 1.381 . S
C1266 C1267 1.394 . S
C1266 H1274 0.930 . S
C1267 C1266 1.394 . S
C1267 C1268 1.383 . S
C1267 H1275 0.929 . S
C1268 C1267 1.383 . S
C1268 C1269 1.377 . S
C1269 H1253 0.930 . S
C1269 C1268 1.377 . S
C1269 C1270 1.379 . S
C1270 H1254 0.931 . S
C1270 C1264 1.383 . S
C1270 C1269 1.379 . S
H1271 C1265 0.959 . S
H1272 C1265 0.961 . S
H1273 C1265 0.960 . S
H1274 C1266 0.930 . S
H1275 C1267 0.929 . S
H1276 C1284 0.929 . S
H1277 C1286 0.930 . S
H1278 C1288 0.930 . S
H1279 C1291 0.929 . S
H1280 C1294 0.930 . S
H1281 C1296 0.960 . S
H1282 C1296 0.960 . S
H1283 C1296 0.960 . S
C1284 H1276 0.929 . S
C1284 C1285 1.377 . S
C1284 C1286 1.384 . S
C1285 C1284 1.377 . S
C1285 C1291 1.390 . S
C1286 H1277 0.930 . S
C1286 C1284 1.384 . S
C1286 C1287 1.372 . S
C1287 C1286 1.372 . S
C1287 C1288 1.400 . S
C1287 C1292 1.490 . S
C1288 H1278 0.930 . S
C1288 C1287 1.400 . S
C1288 C1291 1.386 . S
H1289 C1305 0.930 . S
H1290 C1306 0.931 . S
C1291 H1279 0.929 . S
C1291 C1285 1.390 . S
C1291 C1288 1.386 . S
C1292 C1287 1.490 . S
C1292 C1294 1.395 . S
C1292 C1295 1.403 . S
H1293 C1299 0.930 . S
C1294 H1280 0.930 . S
C1294 C1292 1.395 . S
C1294 C1297 1.403 . S
C1295 C1292 1.403 . S
C1295 C1296 1.524 . S
C1295 C1299 1.400 . S
C1296 H1281 0.960 . S
C1296 H1282 0.960 . S
C1296 H1283 0.960 . S
C1296 C1295 1.524 . S
C1297 C1294 1.403 . S
C1297 C1298 1.392 . S
C1297 C1301 1.495 . S
C1298 C1297 1.392 . S
C1298 C1299 1.385 . S
C1298 C1300 1.478 . S
C1299 H1293 0.930 . S
C1299 C1295 1.400 . S
C1299 C1298 1.385 . S
C1300 C1298 1.478 . S
C1300 C1302 1.381 . S
C1300 C1306 1.383 . S
C1301 C1297 1.495 . S
C1301 H1307 0.959 . S
C1301 H1308 0.961 . S
C1301 H1309 0.960 . S
C1302 C1300 1.381 . S
C1302 C1303 1.394 . S
C1302 H1310 0.930 . S
C1303 C1302 1.394 . S
C1303 C1304 1.383 . S
C1303 H1311 0.929 . S
C1304 C1303 1.383 . S
C1304 C1305 1.377 . S
C1305 H1289 0.930 . S
C1305 C1304 1.377 . S
C1305 C1306 1.379 . S
C1306 H1290 0.931 . S
C1306 C1300 1.383 . S
C1306 C1305 1.379 . S
H1307 C1301 0.959 . S
H1308 C1301 0.961 . S
H1309 C1301 0.960 . S
H1310 C1302 0.930 . S
H1311 C1303 0.929 . S
C457 C241 1.909 . S
C476 C306 2.067 1_545 S
C512 C346 2.084 . S
C493 C277 1.966 . S
C548 C386 2.073 . S
C529 C169 1.912 . S
C584 C426 2.082 1_455 S
C565 C205 1.920 . S
C620 C296 2.072 1_565 S
C601 C97 1.916 . S
C637 C133 1.977 . S
C656 C336 2.091 . S
C673 C25 1.915 . S
C692 C376 2.068 . S
C709 C61 1.920 . S
C728 C416 2.082 1_655 S
C764 C293 0.144 . S
C745 C211 0.230 . S
C800 C333 0.128 . S
C781 C247 0.221 . S
C836 C373 0.315 . S
C817 C253 0.267 . S
C853 C175 0.261 . S
C872 C413 0.303 . S
C889 C67 0.344 1_655 S
C908 C303 0.217 . S
C944 C343 0.170 . S
C925 C103 0.302 1_565 S
C980 C383 0.153 . S
C961 C109 0.184 . S
C997 C31 0.302 . S
C1016 C423 0.208 . S
C1033 C181 2.530 . S
C1052 C297 2.778 . S
C1069 C217 2.521 . S
C1088 C337 2.782 . S
C1124 C377 2.770 . S
C1105 C283 2.456 . S
C1160 C417 2.775 . S
C1141 C145 2.514 . S
C1177 C37 2.532 1_655 S
C1196 C307 2.803 . S
C1232 C347 2.784 . S
C1213 C73 2.514 1_565 S
C1268 C387 2.788 . S
C1249 C139 2.453 . S
C1285 C1 2.523 . S
C1304 C427 2.789 . S
