# Generated by pormake.
# Topology pts, (4,4)-cn, num edge types: 1
# Building blocks:
#     Node 0, Type 0, BuildingBlock: NAHDIM_clean_linker_0, # of connection points: 4
#     Node 1, Type 0, BuildingBlock: NAHDIM_clean_linker_0, # of connection points: 4
#     Node 2, Type 1, BuildingBlock: AZAVOO_clean_sbu_0, # of connection points: 4
#     Node 3, Type 1, BuildingBlock: AZAVOO_clean_sbu_0, # of connection points: 4
#     Edge 4, Type (0, 1), BuildingBlock: CIFDUS_clean_linker_0, # of connection points: 2
#     Edge 5, Type (0, 1), BuildingBlock: CIFDUS_clean_linker_0, # of connection points: 2
#     Edge 6, Type (0, 1), BuildingBlock: CIFDUS_clean_linker_0, # of connection points: 2
#     Edge 7, Type (0, 1), BuildingBlock: CIFDUS_clean_linker_0, # of connection points: 2
#     Edge 8, Type (0, 1), BuildingBlock: CIFDUS_clean_linker_0, # of connection points: 2
#     Edge 9, Type (0, 1), BuildingBlock: CIFDUS_clean_linker_0, # of connection points: 2
#     Edge 10, Type (0, 1), BuildingBlock: CIFDUS_clean_linker_0, # of connection points: 2
#     Edge 11, Type (0, 1), BuildingBlock: CIFDUS_clean_linker_0, # of connection points: 2
# Relax obj value: 0.016
# Max RMSD: 0.067
# Mean RMSD: 0.062
data_MOF--net-pts--node1-AZAVOO_clean_sbu_0--node2-NAHDIM_clean_linker_0--edge1-CIFDUS_clean_linker_0
_symmetry_space_group_name_H-M    P1
_symmetry_Int_Tables_number       1
_symmetry_cell_setting            triclinic
loop_
_symmetry_equiv_pos_as_xyz
'x, y, z'
_cell_length_a     28.900592
_cell_length_b     29.502894
_cell_length_c     48.047906
_cell_angle_alpha  90.527058
_cell_angle_beta   95.731521
_cell_angle_gamma 89.910369
loop_
_atom_site_label
_atom_site_type_symbol
_atom_site_fract_x
_atom_site_fract_y
_atom_site_fract_z
_atom_type_partial_charge
C0 C 0.79835 0.12987 0.12729 0.0
C1 C 0.77955 0.09229 0.14494 0.0
C2 C 0.71789 0.05487 0.11361 0.0
C3 C 0.7056 0.01464 0.09921 0.0
C4 C 0.66195 0.00947 0.08388 0.0
C5 C 0.62989 0.0459 0.08255 0.0
C6 C 0.64193 0.0868 0.09708 0.0
C7 C 0.68568 0.09085 0.11257 0.0
C8 C 0.65016 0.96503 0.06905 0.0
C9 C 0.60868 0.12637 0.09598 0.0
C10 C 0.30133 0.92515 0.11445 0.0
C11 C 0.3329 0.94908 0.13761 0.0
C12 C 0.38605 0.99544 0.11257 0.0
C13 C 0.39717 0.03962 0.10539 0.0
C14 C 0.43464 0.04842 0.08973 0.0
C15 C 0.46189 0.012 0.08107 0.0
C16 C 0.45096 0.96714 0.08818 0.0
C17 C 0.41306 0.95923 0.10367 0.0
C18 C 0.44521 0.0967 0.08244 0.0
C19 C 0.47939 0.92755 0.07932 0.0
C20 C 0.36611 0.97419 0.89426 0.0
C21 C 0.36611 0.01855 0.90505 0.0
C22 C 0.40475 0.0354 0.9221 0.0
C23 C 0.44383 0.00706 0.92868 0.0
C24 C 0.44391 0.96243 0.91759 0.0
C25 C 0.40523 0.94685 0.90017 0.0
C26 C 0.40416 0.08365 0.93274 0.0
C27 C 0.48498 0.93128 0.92401 0.0
C28 C 0.7696 0.1698 0.90485 0.0
C29 C 0.74974 0.12613 0.89104 0.0
C30 C 0.66986 0.11146 0.90122 0.0
C31 C 0.63205 0.1377 0.9076 0.0
C32 C 0.59774 0.11982 0.92304 0.0
C33 C 0.60075 0.07403 0.9316 0.0
C34 C 0.63821 0.04677 0.92437 0.0
C35 C 0.67259 0.06588 0.90935 0.0
C36 C 0.55822 0.14987 0.93019 0.0
C37 C 0.64159 0.99742 0.93226 0.0
C38 C 0.58401 0.04105 0.06576 0.0
C39 C 0.54535 0.02975 0.07964 0.0
C40 C 0.50204 0.02107 0.06482 0.0
C41 C 0.49747 0.02178 0.03521 0.0
C42 C 0.45554 0.00971 0.0195 0.0
C43 C 0.45174 0.00973 0.99036 0.0
C44 C 0.48912 0.02356 0.97583 0.0
C45 C 0.48548 0.02434 0.94624 0.0
C46 C 0.52265 0.04034 0.93258 0.0
C47 C 0.56404 0.05474 0.94758 0.0
C48 C 0.56917 0.05208 0.97712 0.0
C49 C 0.61097 0.06443 0.99286 0.0
C50 C 0.61605 0.06054 0.02186 0.0
C51 C 0.57904 0.04556 0.03631 0.0
C52 C 0.53595 0.03477 0.02096 0.0
C53 C 0.53139 0.03684 0.99128 0.0
C54 C 0.27046 0.91646 0.89657 0.0
C55 C 0.28343 0.95978 0.88192 0.0
O56 O 0.76105 0.05729 0.12787 0.0
O57 O 0.70183 0.1306 0.88612 0.0
O58 O 0.32989 0.95754 0.87705 0.0
O59 O 0.34924 0.98959 0.12791 0.0
H60 H 0.75206 0.10697 0.15696 0.0
H61 H 0.76979 0.14515 0.11329 0.0
H62 H 0.82466 0.11625 0.11407 0.0
H63 H 0.81451 0.15714 0.14109 0.0
H64 H 0.73049 0.98704 0.1001 0.0
H65 H 0.69435 0.12234 0.12352 0.0
H66 H 0.61605 0.95244 0.07453 0.0
H67 H 0.67695 0.93863 0.0744 0.0
H68 H 0.64715 0.97024 0.04609 0.0
H69 H 0.62436 0.15696 0.10678 0.0
H70 H 0.57716 0.11688 0.10603 0.0
H71 H 0.59739 0.13494 0.07388 0.0
H72 H 0.36265 0.92623 0.14394 0.0
H73 H 0.28692 0.89354 0.12255 0.0
H74 H 0.32136 0.91587 0.0967 0.0
H75 H 0.27216 0.94751 0.10638 0.0
H76 H 0.37626 0.06738 0.11217 0.0
H77 H 0.40501 0.92465 0.10859 0.0
H78 H 0.44419 0.10001 0.05939 0.0
H79 H 0.48086 0.10577 0.09153 0.0
H80 H 0.42022 0.12122 0.09028 0.0
H81 H 0.46697 0.89467 0.08684 0.0
H82 H 0.51639 0.93219 0.08755 0.0
H83 H 0.47792 0.92616 0.05615 0.0
H84 H 0.27719 0.98898 0.89589 0.0
H85 H 0.33654 0.04041 0.89955 0.0
H86 H 0.40509 0.91289 0.89136 0.0
H87 H 0.40647 0.08388 0.95594 0.0
H88 H 0.37216 0.10207 0.9246 0.0
H89 H 0.43492 0.10217 0.92658 0.0
H90 H 0.47802 0.89641 0.91572 0.0
H91 H 0.49422 0.92955 0.94697 0.0
H92 H 0.51556 0.945 0.91462 0.0
H93 H 0.75923 0.09784 0.90569 0.0
H94 H 0.80787 0.16697 0.90983 0.0
H95 H 0.75383 0.17614 0.92469 0.0
H96 H 0.76181 0.19916 0.89082 0.0
H97 H 0.62992 0.17262 0.90079 0.0
H98 H 0.70087 0.04495 0.90341 0.0
H99 H 0.55519 0.14901 0.95304 0.0
H100 H 0.52502 0.13698 0.91938 0.0
H101 H 0.56287 0.1856 0.92391 0.0
H102 H 0.67108 0.98005 0.92347 0.0
H103 H 0.60879 0.97967 0.92471 0.0
H104 H 0.64626 0.99445 0.95538 0.0
H105 H 0.54907 0.02747 0.10228 0.0
H106 H 0.42542 0.99936 0.02956 0.0
H107 H 0.41889 0.99934 0.97937 0.0
H108 H 0.51929 0.04165 0.9099 0.0
H109 H 0.64051 0.07657 0.9829 0.0
H110 H 0.64924 0.06991 0.03285 0.0
H111 H 0.2758 0.88622 0.88329 0.0
H112 H 0.23352 0.91768 0.90111 0.0
H113 H 0.29259 0.91295 0.91671 0.0
C114 C 0.17041 0.36788 0.69001 0.0
C115 C 0.13529 0.35418 0.66547 0.0
C116 C 0.13602 0.38687 0.61908 0.0
C117 C 0.0884 0.38509 0.61007 0.0
C118 C 0.06914 0.41346 0.58862 0.0
C119 C 0.09804 0.44465 0.57627 0.0
C120 C 0.14639 0.44535 0.58475 0.0
C121 C 0.16488 0.41566 0.60569 0.0
C122 C 0.01762 0.41105 0.57975 0.0
C123 C 0.17822 0.47866 0.57253 0.0
C124 C 0.89842 0.7266 0.60173 0.0
C125 C 0.93945 0.71576 0.62342 0.0
C126 C 0.99092 0.66945 0.59646 0.0
C127 C 0.03297 0.66958 0.58447 0.0
C128 C 0.04772 0.63159 0.56997 0.0
C129 C 0.01923 0.59253 0.56711 0.0
C130 C 0.97642 0.5921 0.57905 0.0
C131 C 0.96277 0.63045 0.59376 0.0
C132 C 0.094 0.6331 0.55795 0.0
C133 C 0.94524 0.551 0.57637 0.0
C134 C 0.95499 0.63765 0.3815 0.0
C135 C 0.99728 0.64918 0.39667 0.0
C136 C 0.02258 0.61688 0.41327 0.0
C137 C 0.00396 0.57276 0.41563 0.0
C138 C 0.96139 0.56111 0.39997 0.0
C139 C 0.93794 0.59357 0.38263 0.0
C140 C 0.06901 0.63012 0.42832 0.0
C141 C 0.94024 0.51462 0.40182 0.0
C142 C 0.24036 0.28693 0.40146 0.0
C143 C 0.18756 0.29346 0.39779 0.0
C144 C 0.15158 0.36762 0.39793 0.0
C145 C 0.16893 0.41167 0.40108 0.0
C146 C 0.14483 0.44526 0.41467 0.0
C147 C 0.10141 0.43474 0.42438 0.0
C148 C 0.08259 0.39064 0.4199 0.0
C149 C 0.10831 0.3573 0.40712 0.0
C150 C 0.16607 0.49182 0.41892 0.0
C151 C 0.03541 0.37868 0.42861 0.0
C152 C 0.0768 0.4797 0.55694 0.0
C153 C 0.05712 0.51746 0.56903 0.0
C154 C 0.03536 0.55162 0.55259 0.0
C155 C 0.03186 0.54767 0.52312 0.0
C156 C 0.00754 0.5799 0.50596 0.0
C157 C 0.00535 0.57642 0.47697 0.0
C158 C 0.02861 0.54135 0.464 0.0
C159 C 0.02859 0.53887 0.43454 0.0
C160 C 0.05221 0.50353 0.42246 0.0
C161 C 0.07569 0.47014 0.43886 0.0
C162 C 0.07561 0.47178 0.46834 0.0
C163 C 0.09835 0.43858 0.48558 0.0
C164 C 0.0978 0.4404 0.51454 0.0
C165 C 0.07613 0.47648 0.52747 0.0
C166 C 0.05334 0.51056 0.51052 0.0
C167 C 0.0524 0.50781 0.48092 0.0
C168 C 0.86238 0.71403 0.36675 0.0
C169 C 0.91424 0.70912 0.37613 0.0
O170 O 0.15503 0.3615 0.64071 0.0
O171 O 0.17734 0.33555 0.38617 0.0
O172 O 0.93008 0.66866 0.36567 0.0
O173 O 0.97926 0.70763 0.61027 0.0
H174 H 0.10411 0.37617 0.6666 0.0
H175 H 0.17986 0.40415 0.68818 0.0
H176 H 0.20255 0.34711 0.69013 0.0
H177 H 0.15524 0.36337 0.71016 0.0
H178 H 0.06631 0.36172 0.6199 0.0
H179 H 0.20172 0.41628 0.61264 0.0
H180 H 1.00042 0.44162 0.58758 0.0
H181 H 1.00139 0.38058 0.58809 0.0
H182 H 0.01109 0.41064 0.55657 0.0
H183 H 0.21457 0.47635 0.5824 0.0
H184 H 0.1654 0.51377 0.5753 0.0
H185 H 0.1782 0.47227 0.54975 0.0
H186 H 0.93108 0.68542 0.63557 0.0
H187 H 0.86662 0.73348 0.6123 0.0
H188 H 0.89099 0.69761 0.58711 0.0
H189 H 0.90627 0.75674 0.58931 0.0
H190 H 0.05448 0.69972 0.58668 0.0
H191 H 0.93017 0.62953 0.60299 0.0
H192 H 0.08835 0.63081 0.53479 0.0
H193 H 0.11564 0.60362 0.56535 0.0
H194 H 0.11354 0.66473 0.56381 0.0
H195 H 0.9109 0.55766 0.58412 0.0
H196 H 0.96233 0.52277 0.58858 0.0
H197 H 0.93966 0.53971 0.55417 0.0
H198 H 0.91784 0.70847 0.39948 0.0
H199 H 0.01064 0.68329 0.39522 0.0
H200 H 0.90534 0.58511 0.37057 0.0
H201 H 0.06496 0.63666 0.45072 0.0
H202 H 0.08303 0.66134 0.41951 0.0
H203 H 0.09474 0.60234 0.42713 0.0
H204 H 0.90429 0.5129 0.39124 0.0
H205 H 0.93952 0.50487 0.42404 0.0
H206 H 0.9619 0.48934 0.3918 0.0
H207 H 0.17621 0.29201 0.4193 0.0
H208 H 0.24926 0.25292 0.41021 0.0
H209 H 0.25644 0.31299 0.4162 0.0
H210 H 0.25546 0.29045 0.38122 0.0
H211 H 0.20223 0.41925 0.39365 0.0
H212 H 0.09453 0.3233 0.40403 0.0
H213 H 0.16602 0.50272 0.44111 0.0
H214 H 0.14491 0.51659 0.40586 0.0
H215 H 0.20232 0.49297 0.41313 0.0
H216 H 0.02283 0.34541 0.41989 0.0
H217 H 0.00957 0.40518 0.42163 0.0
H218 H 0.03734 0.37711 0.45175 0.0
H219 H 0.05922 0.52055 0.59165 0.0
H220 H 0.98972 0.60807 0.5148 0.0
H221 H 0.98574 0.60203 0.46487 0.0
H222 H 0.05248 0.50209 0.3999 0.0
H223 H 0.11661 0.41059 0.47687 0.0
H224 H 0.11534 0.41362 0.52673 0.0
H225 H 0.84866 0.74596 0.37525 0.0
H226 H 0.84302 0.68513 0.37466 0.0
H227 H 0.85613 0.7143 0.34355 0.0
Mg228 Mg 0.07422 0.98493 0.28773 0.0
O229 O 0.00374 0.00767 0.26505 0.0
O230 O 0.95311 0.00723 0.29738 0.0
Mg231 Mg 0.98836 0.98119 0.33889 0.0
C232 C 0.96296 0.01447 0.27247 0.0
C233 C 0.15515 0.98929 0.25336 0.0
O234 O 0.16841 0.9651 0.27559 0.0
O235 O 0.08271 0.05405 0.31037 0.0
O236 O 0.03316 0.04543 0.34284 0.0
O237 O 0.05721 0.91187 0.27783 0.0
O238 O 0.04047 0.94735 0.3161 0.0
C239 C 0.06408 0.06834 0.3319 0.0
C240 C 0.03829 0.91096 0.30112 0.0
O241 O 0.11464 0.00668 0.25142 0.0
Mg242 Mg 0.97847 0.02989 0.72798 0.0
O243 O 0.04378 0.01191 0.75659 0.0
O244 O 0.10148 0.99399 0.73096 0.0
Mg245 Mg 0.0719 0.0003 0.68494 0.0
C246 C 0.08575 0.99988 0.75464 0.0
C247 C 0.9036 0.06858 0.76503 0.0
O248 O 0.87848 0.06806 0.74067 0.0
O249 O 0.01064 0.09826 0.71887 0.0
O250 O 0.06462 0.07758 0.69094 0.0
O251 O 0.95646 0.95735 0.725 0.0
O252 O 1.00035 0.98968 0.69579 0.0
C253 C 0.04266 0.10814 0.70338 0.0
C254 C 0.98016 0.95374 0.7036 0.0
O255 O 0.94609 0.05683 0.76628 0.0
H256 H 0.25519 0.00224 0.14222 0.0
H257 H 0.35258 0.91538 0.19035 0.0
H258 H 0.30825 0.92325 0.23067 0.0
H259 H 0.23946 0.95009 0.25129 0.0
H260 H 0.1389 0.0338 0.20322 0.0
H261 H 0.18675 0.03184 0.16388 0.0
C262 C 0.2667 0.98521 0.16158 0.0
C263 C 0.30693 0.95783 0.16312 0.0
C264 C 0.24035 0.98906 0.18464 0.0
C265 C 0.32169 0.9364 0.18849 0.0
C266 C 0.29628 0.9408 0.21157 0.0
C267 C 0.228 0.96827 0.23232 0.0
C268 C 0.18545 0.99186 0.23021 0.0
C269 C 0.25517 0.96631 0.20972 0.0
C270 C 0.17142 0.01526 0.20542 0.0
C271 C 0.19874 0.01407 0.18289 0.0
H272 H 0.06569 0.32055 0.6933 0.0
H273 H 0.17658 0.27763 0.64534 0.0
H274 H 0.1575 0.19831 0.65284 0.0
H275 H 0.11034 0.14132 0.67364 0.0
H276 H 1.00067 0.1839 0.72292 0.0
H277 H 0.01848 0.26317 0.71442 0.0
C278 C 0.0852 0.29373 0.68421 0.0
C279 C 0.12164 0.30496 0.66817 0.0
C280 C 0.07459 0.2482 0.68906 0.0
C281 C 0.14762 0.26995 0.65716 0.0
C282 C 0.13693 0.22459 0.66162 0.0
C283 C 0.09023 0.16783 0.68257 0.0
C284 C 0.05415 0.15643 0.69892 0.0
C285 C 0.10063 0.21334 0.67763 0.0
C286 C 0.02868 0.19149 0.71032 0.0
C287 C 0.03876 0.2369 0.70541 0.0
H288 H 0.7877 0.09817 0.20204 0.0
H289 H 0.85788 0.04477 0.13375 0.0
H290 H 0.92154 0.01737 0.16681 0.0
H291 H 0.95724 0.0086 0.21536 0.0
H292 H 0.88431 0.05914 0.28343 0.0
H293 H 0.82189 0.08746 0.25028 0.0
C294 C 0.81686 0.08041 0.1944 0.0
C295 C 0.81817 0.07379 0.16547 0.0
C296 C 0.85293 0.06424 0.21351 0.0
C297 C 0.85619 0.05053 0.15592 0.0
C298 C 0.89256 0.03485 0.17481 0.0
C299 C 0.92776 0.02596 0.2229 0.0
C300 C 0.92561 0.0318 0.25186 0.0
C301 C 0.89139 0.04162 0.20368 0.0
C302 C 0.88687 0.05397 0.26129 0.0
C303 C 0.8511 0.07028 0.24234 0.0
H304 H 0.98932 0.79331 0.61681 0.0
H305 H 0.90583 0.72816 0.6743 0.0
H306 H 0.91346 0.79471 0.70521 0.0
H307 H 0.94062 0.87289 0.71459 0.0
H308 H 0.02342 0.9379 0.6565 0.0
H309 H 0.02012 0.8696 0.62748 0.0
C310 C 0.97351 0.79337 0.63635 0.0
C311 C 0.94774 0.75551 0.64351 0.0
C312 C 0.97791 0.83173 0.65392 0.0
C313 C 0.92645 0.7566 0.66857 0.0
C314 C 0.93068 0.79467 0.68618 0.0
C315 C 0.95841 0.87194 0.69576 0.0
C316 C 0.9822 0.91056 0.68778 0.0
C317 C 0.95594 0.83262 0.67892 0.0
C318 C 0.00498 0.90871 0.66326 0.0
C319 C 0.00293 0.86969 0.64653 0.0
H320 H 0.19699 0.99638 0.87478 0.0
H321 H 0.29968 0.93239 0.82828 0.0
H322 H 0.24797 0.93934 0.78509 0.0
H323 H 0.17329 0.96351 0.76047 0.0
H324 H 0.0694 0.02443 0.80769 0.0
H325 H 0.12166 0.01846 0.85051 0.0
C326 C 0.20813 0.98438 0.85511 0.0
C327 C 0.25261 0.96518 0.85468 0.0
C328 C 0.17787 0.98761 0.83046 0.0
C329 C 0.26614 0.94846 0.82917 0.0
C330 C 0.23645 0.95215 0.80446 0.0
C331 C 0.16204 0.97548 0.78011 0.0
C332 C 0.11741 0.9945 0.78072 0.0
C333 C 0.19222 0.97172 0.80484 0.0
C334 C 0.10342 0.00952 0.80648 0.0
C335 C 0.13336 0.00626 0.83105 0.0
H336 H 0.12411 0.2324 0.41236 0.0
H337 H 0.19775 0.27131 0.34264 0.0
H338 H 0.16553 0.20579 0.3156 0.0
H339 H 0.11958 0.13475 0.31299 0.0
H340 H 0.0443 0.0989 0.38294 0.0
H341 H 0.0737 0.16593 0.4084 0.0
C342 C 0.13284 0.22674 0.39117 0.0
C343 C 0.16399 0.25608 0.37974 0.0
C344 C 0.11399 0.18937 0.37576 0.0
C345 C 0.17441 0.24871 0.35207 0.0
C346 C 0.15599 0.21129 0.33662 0.0
C347 C 0.10944 0.14175 0.33373 0.0
C348 C 0.08005 0.11137 0.34601 0.0
C349 C 0.12634 0.18087 0.34844 0.0
C350 C 0.06691 0.12139 0.37285 0.0
C351 C 0.08378 0.15979 0.38756 0.0
H352 H 0.83524 0.09153 0.88525 0.0
H353 H 0.71362 0.14305 0.8362 0.0
H354 H 0.75056 0.13002 0.79335 0.0
H355 H 0.81745 0.10379 0.76964 0.0
H356 H 0.94067 0.05598 0.81893 0.0
H357 H 0.90333 0.06829 0.86173 0.0
C358 C 0.81679 0.0996 0.86513 0.0
C359 C 0.77134 0.1171 0.86398 0.0
C360 C 0.83866 0.09306 0.84058 0.0
C361 C 0.74819 0.12851 0.83779 0.0
C362 C 0.76942 0.12134 0.81322 0.0
C363 C 0.8362 0.09618 0.78974 0.0
C364 C 0.88175 0.07882 0.79101 0.0
C365 C 0.81462 0.10358 0.81436 0.0
C366 C 0.90563 0.06946 0.81729 0.0
C367 C 0.88424 0.07632 0.84181 0.0
H368 H 0.94243 0.72405 0.32393 0.0
H369 H 0.94308 0.78473 0.40596 0.0
H370 H 0.98045 0.85254 0.38991 0.0
H371 H 0.01206 0.89485 0.35261 0.0
H372 H 0.0129 0.83461 0.2705 0.0
H373 H 0.97587 0.7663 0.2865 0.0
C374 C 0.95137 0.75193 0.33831 0.0
C375 C 0.94078 0.74912 0.36623 0.0
C376 C 0.97273 0.79095 0.32889 0.0
C377 C 0.95159 0.78585 0.38452 0.0
C378 C 0.97271 0.82468 0.37532 0.0
C379 C 0.0039 0.86692 0.33812 0.0
C380 C 0.01487 0.86997 0.31034 0.0
C381 C 0.9832 0.82769 0.34754 0.0
C382 C 0.00467 0.83317 0.29198 0.0
C383 C 0.98356 0.79409 0.30113 0.0
loop_
_geom_bond_atom_site_label_1
_geom_bond_atom_site_label_2
_geom_bond_distance
_geom_bond_site_symmetry_2
_ccdc_geom_bond_type
C0 C1 1.560 . S
C0 H61 0.959 . S
C0 H62 0.959 . S
C0 H63 0.960 . S
C1 C0 1.560 . S
C1 O56 1.426 . S
C1 H60 0.980 . S
C2 C3 1.407 1_545 S
C2 C7 1.418 . S
C2 O56 1.334 . S
C3 C2 1.407 1_565 S
C3 C4 1.360 . S
C3 H64 0.929 . S
C4 C3 1.360 . S
C4 C5 1.401 1_565 S
C4 C8 1.527 . S
C5 C4 1.401 1_545 S
C5 C6 1.405 . S
C5 C38 1.587 1_545 S
C6 C5 1.405 . S
C6 C7 1.332 . S
C6 C9 1.496 . S
C7 C2 1.418 . S
C7 C6 1.332 . S
C7 H65 0.929 . S
C8 C4 1.527 . S
C8 H66 0.959 . S
C8 H67 0.961 . S
C8 H68 0.961 . S
C9 C6 1.496 . S
C9 H69 0.960 . S
C9 H70 0.960 . S
C9 H71 0.961 . S
C10 C11 1.517 . S
C10 H73 0.943 1_565 S
C10 H74 0.960 . S
C10 H75 0.959 . S
C11 C10 1.517 . S
C11 O59 1.468 . S
C11 H72 0.980 1_565 S
C12 C13 1.338 1_565 S
C12 C17 1.367 . S
C12 O59 1.408 . S
C13 C12 1.338 1_545 S
C13 C14 1.410 . S
C13 H76 0.940 . S
C14 C13 1.410 . S
C14 C15 1.449 1_545 S
C14 C18 1.535 . S
C15 C14 1.449 1_565 S
C15 C16 1.384 . S
C15 C40 1.553 . S
C16 C15 1.384 . S
C16 C17 1.364 . S
C16 C19 1.450 . S
C17 C12 1.367 . S
C17 C16 1.364 . S
C17 H77 0.931 . S
C18 C14 1.535 . S
C18 H78 0.959 . S
C18 H79 0.961 . S
C18 H80 0.959 . S
C19 C16 1.450 . S
C19 H81 0.960 . S
C19 H82 0.960 . S
C19 H83 0.960 . S
C20 C21 1.309 1_565 S
C20 C25 1.304 . S
C20 O58 1.435 . S
C21 C20 1.309 1_545 S
C21 C22 1.476 . S
C21 H85 0.930 . S
C22 C21 1.476 . S
C22 C23 1.400 1_545 S
C22 C26 1.567 . S
C23 C22 1.400 1_565 S
C23 C24 1.373 . S
C23 C45 1.432 . S
C24 C23 1.373 . S
C24 C25 1.339 . S
C24 C27 1.530 . S
C25 C20 1.304 . S
C25 C24 1.339 . S
C25 H86 0.930 . S
C26 C22 1.567 . S
C26 H87 0.961 . S
C26 H88 0.960 . S
C26 H89 0.958 . S
C27 C24 1.530 . S
C27 H90 0.961 . S
C27 H91 0.960 . S
C27 H92 0.960 . S
C28 C29 1.530 . S
C28 H94 0.961 . S
C28 H95 0.961 . S
C28 H96 0.959 . S
C29 C28 1.530 . S
C29 O57 1.412 . S
C29 H93 0.980 . S
C30 C31 1.288 . S
C30 C35 1.377 1_545 S
C30 O57 1.393 . S
C31 C30 1.288 . S
C31 C32 1.369 . S
C31 H97 0.932 . S
C32 C31 1.369 . S
C32 C33 1.398 . S
C32 C36 1.527 . S
C33 C32 1.398 . S
C33 C34 1.380 1_545 S
C33 C47 1.497 . S
C34 C33 1.380 1_565 S
C34 C35 1.383 . S
C34 C37 1.603 . S
C35 C30 1.377 1_565 S
C35 C34 1.383 . S
C35 H98 0.929 . S
C36 C32 1.527 . S
C36 H99 0.961 . S
C36 H100 0.959 . S
C36 H101 0.959 . S
C37 C34 1.603 . S
C37 H102 0.960 . S
C37 H103 0.962 . S
C37 H104 0.961 . S
C38 C5 1.587 1_565 S
C38 C39 1.360 . S
C38 C51 1.412 . S
C39 C38 1.360 . S
C39 C40 1.365 . S
C39 H105 0.929 . S
C40 C15 1.553 . S
C40 C39 1.365 . S
C40 C41 1.404 . S
C41 C40 1.404 . S
C41 C42 1.395 . S
C41 C52 1.451 . S
C42 C41 1.395 . S
C42 C43 1.322 1_554 S
C42 H106 0.930 . S
C43 C42 1.322 1_556 S
C43 C44 1.459 . S
C43 H107 0.929 . S
C44 C43 1.459 . S
C44 C45 1.445 . S
C44 C53 1.395 . S
C45 C23 1.432 . S
C45 C44 1.445 . S
C45 C46 1.370 . S
C46 C45 1.370 . S
C46 C47 1.438 1_565 S
C46 H108 0.930 . S
C47 C33 1.497 . S
C47 C46 1.438 1_545 S
C47 C48 1.360 1_545 S
C48 C47 1.360 1_565 S
C48 C49 1.401 1_565 S
C48 C53 1.446 . S
C49 C48 1.401 1_545 S
C49 C50 1.347 1_556 S
C49 H109 0.929 . S
C50 C49 1.347 1_554 S
C50 C51 1.455 1_545 S
C50 H110 0.930 . S
C51 C38 1.412 . S
C51 C50 1.455 1_565 S
C51 C52 1.331 . S
C52 C41 1.451 . S
C52 C51 1.331 . S
C52 C53 1.497 1_554 S
C53 C44 1.395 . S
C53 C48 1.446 . S
C53 C52 1.497 1_556 S
C54 C55 1.579 1_565 S
C54 H111 0.962 . S
C54 H112 0.959 . S
C54 H113 0.958 . S
C55 C54 1.579 1_545 S
C55 O58 1.454 1_545 S
C55 H84 0.981 . S
O56 C1 1.426 . S
O56 C2 1.334 . S
O57 C29 1.412 . S
O57 C30 1.393 . S
O58 C20 1.435 . S
O58 C55 1.454 1_565 S
O59 C11 1.468 . S
O59 C12 1.408 . S
H60 C1 0.980 . S
H61 C0 0.959 . S
H62 C0 0.959 . S
H63 C0 0.960 . S
H64 C3 0.929 . S
H65 C7 0.929 . S
H66 C8 0.959 . S
H67 C8 0.961 . S
H68 C8 0.961 . S
H69 C9 0.960 . S
H70 C9 0.960 . S
H71 C9 0.961 . S
H72 C11 0.980 1_545 S
H73 C10 0.943 1_545 S
H74 C10 0.960 . S
H75 C10 0.959 . S
H76 C13 0.940 . S
H77 C17 0.931 . S
H78 C18 0.959 . S
H79 C18 0.961 . S
H80 C18 0.959 . S
H81 C19 0.960 . S
H82 C19 0.960 . S
H83 C19 0.960 . S
H84 C55 0.981 . S
H85 C21 0.930 . S
H86 C25 0.930 . S
H87 C26 0.961 . S
H88 C26 0.960 . S
H89 C26 0.958 . S
H90 C27 0.961 . S
H91 C27 0.960 . S
H92 C27 0.960 . S
H93 C29 0.980 . S
H94 C28 0.961 . S
H95 C28 0.961 . S
H96 C28 0.959 . S
H97 C31 0.932 . S
H98 C35 0.929 . S
H99 C36 0.961 . S
H100 C36 0.959 . S
H101 C36 0.959 . S
H102 C37 0.960 . S
H103 C37 0.962 . S
H104 C37 0.961 . S
H105 C39 0.929 . S
H106 C42 0.930 . S
H107 C43 0.929 . S
H108 C46 0.930 . S
H109 C49 0.929 . S
H110 C50 0.930 . S
H111 C54 0.962 . S
H112 C54 0.959 . S
H113 C54 0.958 . S
C114 C115 1.560 . S
C114 H175 0.959 . S
C114 H176 0.959 . S
C114 H177 0.960 . S
C115 C114 1.560 . S
C115 O170 1.426 . S
C115 H174 0.980 . S
C116 C117 1.407 . S
C116 C121 1.418 . S
C116 O170 1.334 . S
C117 C116 1.407 . S
C117 C118 1.360 1_455 S
C117 H178 0.929 1_455 S
C118 C117 1.360 1_655 S
C118 C119 1.401 1_655 S
C118 C122 1.527 . S
C119 C118 1.401 1_455 S
C119 C120 1.405 . S
C119 C152 1.587 . S
C120 C119 1.405 . S
C120 C121 1.332 . S
C120 C123 1.496 . S
C121 C116 1.418 . S
C121 C120 1.332 . S
C121 H179 0.929 . S
C122 C118 1.527 . S
C122 H180 0.959 . S
C122 H181 0.961 . S
C122 H182 0.961 . S
C123 C120 1.496 . S
C123 H183 0.960 . S
C123 H184 0.960 . S
C123 H185 0.961 . S
C124 C125 1.517 1_655 S
C124 H187 0.961 1_655 S
C124 H188 0.960 . S
C124 H189 0.959 . S
C125 C124 1.517 1_455 S
C125 O173 1.468 1_455 S
C125 H186 0.980 . S
C126 C127 1.349 1_655 S
C126 C131 1.367 . S
C126 O173 1.408 . S
C127 C126 1.349 1_455 S
C127 C128 1.407 . S
C127 H190 0.930 . S
C128 C127 1.407 . S
C128 C129 1.449 1_455 S
C128 C132 1.535 . S
C129 C128 1.449 1_655 S
C129 C130 1.384 . S
C129 C154 1.560 . S
C130 C129 1.384 . S
C130 C131 1.364 . S
C130 C133 1.450 . S
C131 C126 1.367 . S
C131 C130 1.364 . S
C131 H191 0.931 . S
C132 C128 1.535 . S
C132 H192 0.959 . S
C132 H193 0.961 . S
C132 H194 0.959 . S
C133 C130 1.450 . S
C133 H195 0.960 . S
C133 H196 0.960 . S
C133 H197 0.960 . S
C134 C135 1.309 . S
C134 C139 1.304 1_455 S
C134 O172 1.435 . S
C135 C134 1.309 . S
C135 C136 1.476 . S
C135 H199 0.930 . S
C136 C135 1.476 . S
C136 C137 1.400 . S
C136 C140 1.567 . S
C137 C136 1.400 . S
C137 C138 1.373 1_455 S
C137 C159 1.432 . S
C138 C137 1.373 1_655 S
C138 C139 1.339 . S
C138 C141 1.530 . S
C139 C134 1.304 1_655 S
C139 C138 1.339 . S
C139 H200 0.930 . S
C140 C136 1.567 . S
C140 H201 0.961 . S
C140 H202 0.960 . S
C140 H203 0.958 . S
C141 C138 1.530 . S
C141 H204 0.961 . S
C141 H205 0.960 . S
C141 H206 0.960 . S
C142 C143 1.530 . S
C142 H208 0.961 . S
C142 H209 0.961 . S
C142 H210 0.959 . S
C143 C142 1.530 . S
C143 O171 1.412 . S
C143 H207 0.980 . S
C144 C145 1.288 . S
C144 C149 1.377 . S
C144 O171 1.393 . S
C145 C144 1.288 . S
C145 C146 1.369 . S
C145 H211 0.932 . S
C146 C145 1.369 . S
C146 C147 1.398 . S
C146 C150 1.527 . S
C147 C146 1.398 . S
C147 C148 1.380 . S
C147 C161 1.497 . S
C148 C147 1.380 . S
C148 C149 1.383 . S
C148 C151 1.603 1_455 S
C149 C144 1.377 . S
C149 C148 1.383 . S
C149 H212 0.929 . S
C150 C146 1.527 . S
C150 H213 0.961 . S
C150 H214 0.959 . S
C150 H215 0.959 . S
C151 C148 1.603 1_655 S
C151 H216 0.960 . S
C151 H217 0.962 . S
C151 H218 0.961 . S
C152 C119 1.587 . S
C152 C153 1.360 . S
C152 C165 1.412 . S
C153 C152 1.360 . S
C153 C154 1.363 1_455 S
C153 H219 0.929 . S
C154 C129 1.560 . S
C154 C153 1.363 1_655 S
C154 C155 1.400 1_655 S
C155 C154 1.400 1_455 S
C155 C156 1.395 . S
C155 C166 1.451 . S
C156 C155 1.395 . S
C156 C157 1.322 . S
C156 H220 0.930 1_455 S
C157 C156 1.322 . S
C157 C158 1.459 . S
C157 H221 0.929 . S
C158 C157 1.459 . S
C158 C159 1.445 . S
C158 C167 1.395 . S
C159 C137 1.432 . S
C159 C158 1.445 . S
C159 C160 1.370 . S
C160 C159 1.370 . S
C160 C161 1.438 . S
C160 H222 0.930 . S
C161 C147 1.497 . S
C161 C160 1.438 . S
C161 C162 1.360 . S
C162 C161 1.360 . S
C162 C163 1.401 . S
C162 C167 1.446 . S
C163 C162 1.401 . S
C163 C164 1.347 . S
C163 H223 0.929 . S
C164 C163 1.347 . S
C164 C165 1.455 . S
C164 H224 0.930 . S
C165 C152 1.412 . S
C165 C164 1.455 . S
C165 C166 1.331 . S
C166 C155 1.451 . S
C166 C165 1.331 . S
C166 C167 1.497 . S
C167 C158 1.395 . S
C167 C162 1.446 . S
C167 C166 1.497 . S
C168 C169 1.582 . S
C168 H225 0.962 . S
C168 H226 0.959 . S
C168 H227 0.958 1_455 S
C169 C168 1.582 . S
C169 O172 1.458 . S
C169 H198 0.980 . S
O170 C115 1.426 . S
O170 C116 1.334 . S
O171 C143 1.412 . S
O171 C144 1.393 . S
O172 C134 1.435 . S
O172 C169 1.458 . S
O173 C125 1.468 1_655 S
O173 C126 1.408 . S
H174 C115 0.980 . S
H175 C114 0.959 . S
H176 C114 0.959 . S
H177 C114 0.960 . S
H178 C117 0.929 1_655 S
H179 C121 0.929 . S
H180 C122 0.959 . S
H181 C122 0.961 . S
H182 C122 0.961 . S
H183 C123 0.960 . S
H184 C123 0.960 . S
H185 C123 0.961 . S
H186 C125 0.980 . S
H187 C124 0.961 1_455 S
H188 C124 0.960 . S
H189 C124 0.959 . S
H190 C127 0.930 . S
H191 C131 0.931 . S
H192 C132 0.959 . S
H193 C132 0.961 . S
H194 C132 0.959 . S
H195 C133 0.960 . S
H196 C133 0.960 . S
H197 C133 0.960 . S
H198 C169 0.980 . S
H199 C135 0.930 . S
H200 C139 0.930 . S
H201 C140 0.961 . S
H202 C140 0.960 . S
H203 C140 0.958 . S
H204 C141 0.961 . S
H205 C141 0.960 . S
H206 C141 0.960 . S
H207 C143 0.980 . S
H208 C142 0.961 . S
H209 C142 0.961 . S
H210 C142 0.959 . S
H211 C145 0.932 . S
H212 C149 0.929 . S
H213 C150 0.961 . S
H214 C150 0.959 . S
H215 C150 0.959 . S
H216 C151 0.960 . S
H217 C151 0.962 . S
H218 C151 0.961 . S
H219 C153 0.929 . S
H220 C156 0.930 1_655 S
H221 C157 0.929 . S
H222 C160 0.930 . S
H223 C163 0.929 . S
H224 C164 0.930 . S
H225 C168 0.962 . S
H226 C168 0.959 . S
H227 C168 0.958 1_655 S
Mg228 O229 2.028 . S
Mg228 O235 1.986 . S
Mg228 O237 2.114 1_545 S
Mg228 O238 2.251 1_545 S
Mg228 O241 2.010 . S
O229 Mg228 2.028 . S
O229 C232 1.251 1_455 S
O230 Mg231 2.028 . S
O230 C232 1.247 . S
Mg231 O230 2.028 . S
Mg231 O236 2.032 1_655 S
Mg231 O238 2.079 1_645 S
C232 O229 1.251 1_655 S
C232 O230 1.247 . S
C233 O234 1.264 . S
C233 O241 1.249 . S
O234 C233 1.264 . S
O235 Mg228 1.986 . S
O235 C239 1.246 . S
O236 Mg231 2.032 1_455 S
O236 C239 1.259 . S
O237 Mg228 2.114 1_565 S
O237 C240 1.252 . S
O238 Mg228 2.251 1_565 S
O238 Mg231 2.079 1_465 S
O238 C240 1.273 . S
C239 O235 1.246 . S
C239 O236 1.259 . S
C240 O237 1.252 . S
C240 O238 1.273 . S
O241 Mg228 2.010 . S
O241 C233 1.249 . S
Mg242 O243 2.028 1_655 S
Mg242 O249 1.986 . S
Mg242 O251 2.114 1_545 S
Mg242 O252 2.251 1_645 S
Mg242 O255 2.010 . S
O243 Mg242 2.028 1_455 S
O243 C246 1.250 . S
O244 Mg245 2.028 . S
O244 C246 1.248 . S
Mg245 O244 2.028 . S
Mg245 O250 2.032 . S
Mg245 O252 2.079 1_545 S
C246 O243 1.250 . S
C246 O244 1.248 . S
C247 O248 1.264 . S
C247 O255 1.249 . S
O248 C247 1.264 . S
O249 Mg242 1.986 . S
O249 C253 1.246 1_655 S
O250 Mg245 2.032 . S
O250 C253 1.259 . S
O251 Mg242 2.114 1_565 S
O251 C254 1.252 1_655 S
O252 Mg242 2.251 1_465 S
O252 Mg245 2.079 1_565 S
O252 C254 1.273 . S
C253 O249 1.246 1_455 S
C253 O250 1.259 . S
C254 O251 1.252 1_455 S
C254 O252 1.273 . S
O255 Mg242 2.010 . S
O255 C247 1.249 . S
H256 C262 0.930 . S
H257 C265 0.930 . S
H258 C266 0.930 . S
H259 C267 0.930 . S
H260 C270 0.930 . S
H261 C271 0.930 . S
C262 H256 0.930 . S
C262 C263 1.355 1_565 S
C262 C264 1.411 1_565 S
C263 C262 1.355 1_545 S
C263 C265 1.419 . S
C264 C262 1.411 1_545 S
C264 C269 1.439 . S
C264 C271 1.400 1_545 S
C265 H257 0.930 . S
C265 C263 1.419 . S
C265 C266 1.362 . S
C266 H258 0.930 . S
C266 C265 1.362 . S
C266 C269 1.409 . S
C267 H259 0.930 . S
C267 C268 1.355 . S
C267 C269 1.415 . S
C268 C267 1.355 . S
C268 C270 1.419 1_545 S
C269 C264 1.439 . S
C269 C266 1.409 . S
C269 C267 1.415 . S
C270 H260 0.930 . S
C270 C268 1.419 1_565 S
C270 C271 1.362 . S
C271 H261 0.930 . S
C271 C264 1.400 1_565 S
C271 C270 1.362 . S
H272 C278 0.930 1_655 S
H273 C281 0.930 . S
H274 C282 0.930 . S
H275 C283 0.930 . S
H276 C286 0.930 . S
H277 C287 0.930 . S
C278 H272 0.930 1_455 S
C278 C279 1.355 . S
C278 C280 1.415 . S
C279 C278 1.355 . S
C279 C281 1.419 . S
C280 C278 1.415 . S
C280 C285 1.425 . S
C280 C287 1.409 1_455 S
C281 H273 0.930 . S
C281 C279 1.419 . S
C281 C282 1.362 . S
C282 H274 0.930 . S
C282 C281 1.362 . S
C282 C285 1.409 . S
C283 H275 0.930 . S
C283 C284 1.355 . S
C283 C285 1.415 . S
C284 C283 1.355 . S
C284 C286 1.419 1_455 S
C285 C280 1.425 . S
C285 C282 1.409 . S
C285 C283 1.415 . S
C286 H276 0.930 . S
C286 C284 1.419 1_655 S
C286 C287 1.362 . S
C287 H277 0.930 . S
C287 C280 1.409 1_655 S
C287 C286 1.362 . S
H288 C294 0.930 . S
H289 C297 0.930 . S
H290 C298 0.930 . S
H291 C299 0.930 . S
H292 C302 0.930 . S
H293 C303 0.931 1_565 S
C294 H288 0.930 . S
C294 C295 1.355 . S
C294 C296 1.415 . S
C295 C294 1.355 . S
C295 C297 1.419 . S
C296 C294 1.415 . S
C296 C301 1.425 . S
C296 C303 1.409 . S
C297 H289 0.930 . S
C297 C295 1.419 . S
C297 C298 1.362 . S
C298 H290 0.930 . S
C298 C297 1.362 . S
C298 C301 1.409 . S
C299 H291 0.930 . S
C299 C300 1.355 . S
C299 C301 1.415 . S
C300 C299 1.355 . S
C300 C302 1.419 . S
C301 C296 1.425 . S
C301 C298 1.409 . S
C301 C299 1.415 . S
C302 H292 0.930 . S
C302 C300 1.419 . S
C302 C303 1.362 . S
C303 H293 0.931 1_545 S
C303 C296 1.409 . S
C303 C302 1.362 . S
H304 C310 0.930 . S
H305 C313 0.930 . S
H306 C314 0.930 . S
H307 C315 0.930 . S
H308 C318 0.930 . S
H309 C319 0.930 . S
C310 H304 0.930 . S
C310 C311 1.355 1_655 S
C310 C312 1.415 . S
C311 C310 1.355 1_455 S
C311 C313 1.419 . S
C312 C310 1.415 . S
C312 C317 1.422 1_655 S
C312 C319 1.412 . S
C313 H305 0.930 . S
C313 C311 1.419 . S
C313 C314 1.362 . S
C314 H306 0.930 . S
C314 C313 1.362 . S
C314 C317 1.409 . S
C315 H307 0.930 . S
C315 C316 1.355 . S
C315 C317 1.415 . S
C316 C315 1.355 . S
C316 C318 1.419 1_455 S
C317 C312 1.422 1_455 S
C317 C314 1.409 . S
C317 C315 1.415 . S
C318 H308 0.930 . S
C318 C316 1.419 1_655 S
C318 C319 1.362 . S
C319 H309 0.930 . S
C319 C312 1.412 . S
C319 C318 1.362 . S
H320 C326 0.930 1_565 S
H321 C329 0.930 . S
H322 C330 0.930 . S
H323 C331 0.930 . S
H324 C334 0.930 1_565 S
H325 C335 0.930 . S
C326 H320 0.930 1_545 S
C326 C327 1.355 . S
C326 C328 1.415 . S
C327 C326 1.355 . S
C327 C329 1.419 . S
C328 C326 1.415 . S
C328 C333 1.425 . S
C328 C335 1.409 1_545 S
C329 H321 0.930 . S
C329 C327 1.419 . S
C329 C330 1.362 . S
C330 H322 0.930 . S
C330 C329 1.362 . S
C330 C333 1.409 . S
C331 H323 0.930 . S
C331 C332 1.355 . S
C331 C333 1.415 . S
C332 C331 1.355 . S
C332 C334 1.419 . S
C333 C328 1.425 . S
C333 C330 1.409 . S
C333 C331 1.415 . S
C334 H324 0.930 1_545 S
C334 C332 1.419 . S
C334 C335 1.362 1_545 S
C335 H325 0.930 . S
C335 C328 1.409 1_565 S
C335 C334 1.362 1_565 S
H336 C342 0.930 . S
H337 C345 0.930 . S
H338 C346 0.930 . S
H339 C347 0.930 . S
H340 C350 0.930 . S
H341 C351 0.930 1_655 S
C342 H336 0.930 . S
C342 C343 1.355 . S
C342 C344 1.415 . S
C343 C342 1.355 . S
C343 C345 1.419 . S
C344 C342 1.415 . S
C344 C349 1.425 . S
C344 C351 1.409 . S
C345 H337 0.930 . S
C345 C343 1.419 . S
C345 C346 1.362 . S
C346 H338 0.930 . S
C346 C345 1.362 . S
C346 C349 1.409 . S
C347 H339 0.930 . S
C347 C348 1.355 . S
C347 C349 1.415 . S
C348 C347 1.355 . S
C348 C350 1.419 . S
C349 C344 1.425 . S
C349 C346 1.409 . S
C349 C347 1.415 . S
C350 H340 0.930 . S
C350 C348 1.419 . S
C350 C351 1.362 . S
C351 H341 0.930 1_455 S
C351 C344 1.409 . S
C351 C350 1.362 . S
H352 C358 0.930 . S
H353 C361 0.930 . S
H354 C362 0.930 . S
H355 C363 0.930 . S
H356 C366 0.930 . S
H357 C367 0.930 . S
C358 H352 0.930 . S
C358 C359 1.355 . S
C358 C360 1.415 . S
C359 C358 1.355 . S
C359 C361 1.419 . S
C360 C358 1.415 . S
C360 C365 1.425 . S
C360 C367 1.409 . S
C361 H353 0.930 . S
C361 C359 1.419 . S
C361 C362 1.362 . S
C362 H354 0.930 . S
C362 C361 1.362 . S
C362 C365 1.409 . S
C363 H355 0.930 . S
C363 C364 1.355 . S
C363 C365 1.415 . S
C364 C363 1.355 . S
C364 C366 1.419 . S
C365 C360 1.425 . S
C365 C362 1.409 . S
C365 C363 1.415 . S
C366 H356 0.930 . S
C366 C364 1.419 . S
C366 C367 1.362 . S
C367 H357 0.930 . S
C367 C360 1.409 . S
C367 C366 1.362 . S
H368 C374 0.930 . S
H369 C377 0.930 . S
H370 C378 0.930 . S
H371 C379 0.930 . S
H372 C382 0.930 1_655 S
H373 C383 0.930 1_655 S
C374 H368 0.930 . S
C374 C375 1.355 . S
C374 C376 1.415 . S
C375 C374 1.355 . S
C375 C377 1.419 . S
C376 C374 1.415 . S
C376 C381 1.425 . S
C376 C383 1.409 . S
C377 H369 0.930 . S
C377 C375 1.419 . S
C377 C378 1.362 . S
C378 H370 0.930 . S
C378 C377 1.362 . S
C378 C381 1.409 . S
C379 H371 0.930 . S
C379 C380 1.355 . S
C379 C381 1.415 . S
C380 C379 1.355 . S
C380 C382 1.419 . S
C381 C376 1.425 . S
C381 C378 1.409 . S
C381 C379 1.415 . S
C382 H372 0.930 1_455 S
C382 C380 1.419 . S
C382 C383 1.362 . S
C383 H373 0.930 1_455 S
C383 C376 1.409 . S
C383 C382 1.362 . S
C268 C233 1.314 . S
C263 C11 0.971 1_545 S
C284 C253 1.353 . S
C279 C115 1.076 . S
C300 C232 1.291 . S
C295 C1 1.119 . S
C316 C254 1.488 . S
C311 C125 0.977 . S
C332 C246 1.567 . S
C327 C55 1.229 . S
C348 C239 1.384 . S
C343 C143 1.102 . S
C364 C247 1.274 . S
C359 C29 1.151 . S
C375 C169 1.212 . S
C380 C240 1.583 . S
