# Generated by pormake.
# Topology pyr, (3,6)-cn, num edge types: 1
# Building blocks:
#     Node 0, Type 0, BuildingBlock: MIDCAF_clean_linker_0, # of connection points: 3
#     Node 1, Type 0, BuildingBlock: MIDCAF_clean_linker_0, # of connection points: 3
#     Node 2, Type 0, BuildingBlock: MIDCAF_clean_linker_0, # of connection points: 3
#     Node 3, Type 0, BuildingBlock: MIDCAF_clean_linker_0, # of connection points: 3
#     Node 4, Type 0, BuildingBlock: MIDCAF_clean_linker_0, # of connection points: 3
#     Node 5, Type 0, BuildingBlock: MIDCAF_clean_linker_0, # of connection points: 3
#     Node 6, Type 0, BuildingBlock: MIDCAF_clean_linker_0, # of connection points: 3
#     Node 7, Type 0, BuildingBlock: MIDCAF_clean_linker_0, # of connection points: 3
#     Node 8, Type 1, BuildingBlock: MIFKUJ_clean_sbu_0, # of connection points: 6
#     Node 9, Type 1, BuildingBlock: MIFKUJ_clean_sbu_0, # of connection points: 6
#     Node 10, Type 1, BuildingBlock: MIFKUJ_clean_sbu_0, # of connection points: 6
#     Node 11, Type 1, BuildingBlock: MIFKUJ_clean_sbu_0, # of connection points: 6
#     Edge 12, Type (0, 1), BuildingBlock: CIFDUS_clean_linker_0, # of connection points: 2
#     Edge 13, Type (0, 1), BuildingBlock: CIFDUS_clean_linker_0, # of connection points: 2
#     Edge 14, Type (0, 1), BuildingBlock: CIFDUS_clean_linker_0, # of connection points: 2
#     Edge 15, Type (0, 1), BuildingBlock: CIFDUS_clean_linker_0, # of connection points: 2
#     Edge 16, Type (0, 1), BuildingBlock: CIFDUS_clean_linker_0, # of connection points: 2
#     Edge 17, Type (0, 1), BuildingBlock: CIFDUS_clean_linker_0, # of connection points: 2
#     Edge 18, Type (0, 1), BuildingBlock: CIFDUS_clean_linker_0, # of connection points: 2
#     Edge 19, Type (0, 1), BuildingBlock: CIFDUS_clean_linker_0, # of connection points: 2
#     Edge 20, Type (0, 1), BuildingBlock: CIFDUS_clean_linker_0, # of connection points: 2
#     Edge 21, Type (0, 1), BuildingBlock: CIFDUS_clean_linker_0, # of connection points: 2
#     Edge 22, Type (0, 1), BuildingBlock: CIFDUS_clean_linker_0, # of connection points: 2
#     Edge 23, Type (0, 1), BuildingBlock: CIFDUS_clean_linker_0, # of connection points: 2
#     Edge 24, Type (0, 1), BuildingBlock: CIFDUS_clean_linker_0, # of connection points: 2
#     Edge 25, Type (0, 1), BuildingBlock: CIFDUS_clean_linker_0, # of connection points: 2
#     Edge 26, Type (0, 1), BuildingBlock: CIFDUS_clean_linker_0, # of connection points: 2
#     Edge 27, Type (0, 1), BuildingBlock: CIFDUS_clean_linker_0, # of connection points: 2
#     Edge 28, Type (0, 1), BuildingBlock: CIFDUS_clean_linker_0, # of connection points: 2
#     Edge 29, Type (0, 1), BuildingBlock: CIFDUS_clean_linker_0, # of connection points: 2
#     Edge 30, Type (0, 1), BuildingBlock: CIFDUS_clean_linker_0, # of connection points: 2
#     Edge 31, Type (0, 1), BuildingBlock: CIFDUS_clean_linker_0, # of connection points: 2
#     Edge 32, Type (0, 1), BuildingBlock: CIFDUS_clean_linker_0, # of connection points: 2
#     Edge 33, Type (0, 1), BuildingBlock: CIFDUS_clean_linker_0, # of connection points: 2
#     Edge 34, Type (0, 1), BuildingBlock: CIFDUS_clean_linker_0, # of connection points: 2
#     Edge 35, Type (0, 1), BuildingBlock: CIFDUS_clean_linker_0, # of connection points: 2
# Relax obj value: 0.028
# Max RMSD: 0.081
# Mean RMSD: 0.048
data_MOF--net-pyr--node1-MIFKUJ_clean_sbu_0--node2-MIDCAF_clean_linker_0--edge1-CIFDUS_clean_linker_0
_symmetry_space_group_name_H-M    P1
_symmetry_Int_Tables_number       1
_symmetry_cell_setting            triclinic
loop_
_symmetry_equiv_pos_as_xyz
'x, y, z'
_cell_length_a     43.302164
_cell_length_b     38.941617
_cell_length_c     41.644835
_cell_angle_alpha  86.296642
_cell_angle_beta   88.419247
_cell_angle_gamma 96.39386
loop_
_atom_site_label
_atom_site_type_symbol
_atom_site_fract_x
_atom_site_fract_y
_atom_site_fract_z
_atom_type_partial_charge
C0 C 0.14332 0.16536 0.30181 0.0
C1 C 0.15564 0.14125 0.32295 0.0
C2 C 0.18508 0.13116 0.31545 0.0
C3 C 0.20168 0.14479 0.28731 0.0
H4 H 0.25956 0.1157 0.20929 0.0
H5 H 0.29794 0.08616 0.18122 0.0
H6 H 0.32551 0.17945 0.12058 0.0
H7 H 0.28663 0.20856 0.14784 0.0
H8 H 0.22811 0.25248 0.13106 0.0
H9 H 0.20457 0.29718 0.09982 0.0
H10 H 0.14388 0.30957 0.18133 0.0
H11 H 0.16681 0.26456 0.21239 0.0
H12 H 0.14949 0.19752 0.25825 0.0
H13 H 0.12044 0.17314 0.30635 0.0
H14 H 0.19541 0.11293 0.33141 0.0
H15 H 0.22427 0.13655 0.28217 0.0
N16 N 0.23027 0.16844 0.22379 0.0
N17 N 0.23505 0.20995 0.17992 0.0
N18 N 0.19692 0.2119 0.22035 0.0
C19 C 0.24483 0.18164 0.19555 0.0
C20 C 0.21114 0.22526 0.19221 0.0
C21 C 0.20629 0.18365 0.23636 0.0
C22 C 0.26986 0.16441 0.18066 0.0
C23 C 0.27397 0.12997 0.19013 0.0
C24 C 0.29604 0.11305 0.17407 0.0
C25 C 0.31461 0.13033 0.14842 0.0
C26 C 0.3111 0.16511 0.1397 0.0
C27 C 0.28892 0.18188 0.15552 0.0
C28 C 0.19914 0.25463 0.17415 0.0
C29 C 0.20993 0.26491 0.14244 0.0
C30 C 0.19652 0.29061 0.12454 0.0
C31 C 0.17215 0.30656 0.13802 0.0
C32 C 0.16218 0.2972 0.17007 0.0
C33 C 0.17549 0.2715 0.18793 0.0
C34 C 0.18929 0.16902 0.26633 0.0
C35 C 0.15998 0.17921 0.274 0.0
C36 C 0.25815 0.9162 0.66986 0.0
C37 C 0.24515 0.90434 0.64148 0.0
C38 C 0.25602 0.87553 0.62818 0.0
C39 C 0.27942 0.85898 0.64278 0.0
H40 H 0.32343 0.77589 0.63579 0.0
H41 H 0.33871 0.72593 0.61034 0.0
H42 H 0.41268 0.71892 0.67708 0.0
H43 H 0.39765 0.7697 0.70267 0.0
H44 H 0.40085 0.82137 0.76029 0.0
H45 H 0.42601 0.84337 0.80754 0.0
H46 H 0.36675 0.92556 0.807 0.0
H47 H 0.34185 0.90406 0.75941 0.0
H48 H 0.29134 0.90949 0.70628 0.0
H49 H 0.25036 0.9385 0.68054 0.0
H50 H 0.2461 0.86541 0.60663 0.0
H51 H 0.28707 0.83681 0.63175 0.0
N52 N 0.32691 0.82466 0.67327 0.0
N53 N 0.36343 0.81961 0.71321 0.0
N54 N 0.33134 0.86448 0.71306 0.0
C55 C 0.34974 0.8078 0.68644 0.0
C56 C 0.35431 0.84797 0.7267 0.0
C57 C 0.31754 0.85294 0.68629 0.0
C58 C 0.35928 0.77694 0.6714 0.0
C59 C 0.34298 0.76387 0.64523 0.0
C60 C 0.35159 0.73499 0.63067 0.0
C61 C 0.37676 0.71835 0.64182 0.0
C62 C 0.39328 0.73138 0.66786 0.0
C63 C 0.38455 0.76034 0.6826 0.0
C64 C 0.36931 0.86093 0.75588 0.0
C65 C 0.39309 0.84411 0.7702 0.0
C66 C 0.40741 0.85658 0.79746 0.0
C67 C 0.39834 0.88618 0.81107 0.0
C68 C 0.3745 0.90292 0.79689 0.0
C69 C 0.36013 0.89044 0.76965 0.0
C70 C 0.29262 0.87082 0.67111 0.0
C71 C 0.28172 0.89965 0.68451 0.0
C72 C 0.59988 0.25735 0.90445 0.0
C73 C 0.58559 0.22955 0.88839 0.0
C74 C 0.58586 0.23179 0.85462 0.0
C75 C 0.60013 0.2615 0.83712 0.0
H76 H 0.59067 0.32454 0.75329 0.0
H77 H 0.57079 0.34369 0.70189 0.0
H78 H 0.63707 0.43544 0.69745 0.0
H79 H 0.6569 0.41657 0.74918 0.0
H80 H 0.7198 0.40545 0.79611 0.0
H81 H 0.76689 0.4343 0.81705 0.0
H82 H 0.7346 0.39862 0.91397 0.0
H83 H 0.68817 0.36818 0.89266 0.0
H84 H 0.62603 0.3076 0.89994 0.0
H85 H 0.60001 0.25603 0.93051 0.0
H86 H 0.57494 0.21059 0.84181 0.0
H87 H 0.60007 0.26251 0.81107 0.0
N88 N 0.62182 0.3297 0.80489 0.0
N89 N 0.66212 0.37546 0.79998 0.0
N90 N 0.65632 0.33817 0.84687 0.0
C91 C 0.63687 0.3577 0.78752 0.0
C92 C 0.67202 0.36581 0.82962 0.0
C93 C 0.63134 0.31987 0.83458 0.0
C94 C 0.62544 0.36897 0.75557 0.0
C95 C 0.60114 0.34879 0.74144 0.0
C96 C 0.58979 0.35968 0.7118 0.0
C97 C 0.60232 0.39111 0.69552 0.0
C98 C 0.62668 0.41127 0.70953 0.0
C99 C 0.63818 0.40029 0.73912 0.0
C100 C 0.70015 0.38456 0.84268 0.0
C101 C 0.72269 0.40384 0.8219 0.0
C102 C 0.74971 0.42059 0.83403 0.0
C103 C 0.75471 0.41913 0.86737 0.0
C104 C 0.73197 0.39997 0.88816 0.0
C105 C 0.70516 0.38269 0.87595 0.0
C106 C 0.61506 0.28909 0.85311 0.0
C107 C 0.61483 0.2867 0.88696 0.0
C108 C 0.75669 0.6238 0.38704 0.0
C109 C 0.73984 0.59626 0.37273 0.0
C110 C 0.75197 0.58467 0.34417 0.0
C111 C 0.78043 0.60024 0.33035 0.0
H112 H 0.85405 0.58583 0.26661 0.0
H113 H 0.87613 0.56423 0.21846 0.0
H114 H 0.93939 0.65812 0.20395 0.0
H115 H 0.91726 0.67999 0.25213 0.0
H116 H 0.92984 0.71859 0.33093 0.0
H117 H 0.95143 0.76651 0.36228 0.0
H118 H 0.8585 0.7819 0.39408 0.0
H119 H 0.83728 0.7343 0.36381 0.0
H120 H 0.79706 0.6607 0.38501 0.0
H121 H 0.74782 0.63366 0.40878 0.0
H122 H 0.73963 0.56329 0.3327 0.0
H123 H 0.78913 0.59067 0.30841 0.0
N124 N 0.84144 0.63254 0.3047 0.0
N125 N 0.88241 0.67776 0.30485 0.0
N126 N 0.84082 0.67418 0.34263 0.0
C127 C 0.869 0.64864 0.29181 0.0
C128 C 0.86823 0.69068 0.33031 0.0
C129 C 0.82724 0.64517 0.33022 0.0
C130 C 0.88372 0.63482 0.26332 0.0
C131 C 0.87277 0.60192 0.25332 0.0
C132 C 0.88557 0.58935 0.22578 0.0
C133 C 0.90949 0.60945 0.2073 0.0
C134 C 0.92078 0.64212 0.21749 0.0
C135 C 0.90818 0.65458 0.24524 0.0
C136 C 0.88189 0.7222 0.34533 0.0
C137 C 0.91412 0.73255 0.34437 0.0
C138 C 0.92646 0.75997 0.3623 0.0
C139 C 0.90673 0.7775 0.38132 0.0
C140 C 0.87447 0.7683 0.38057 0.0
C141 C 0.86227 0.74102 0.36301 0.0
C142 C 0.79722 0.62793 0.34467 0.0
C143 C 0.78492 0.63946 0.37319 0.0
C144 C 0.70741 0.87905 0.80987 0.0
C145 C 0.69382 0.86402 0.83922 0.0
C146 C 0.70458 0.8338 0.85289 0.0
C147 C 0.72878 0.81929 0.8378 0.0
H148 H 0.78994 0.74589 0.85264 0.0
H149 H 0.81774 0.70386 0.88253 0.0
H150 H 0.89025 0.71615 0.80796 0.0
H151 H 0.86226 0.75734 0.77767 0.0
H152 H 0.85295 0.80146 0.71369 0.0
H153 H 0.8823 0.83337 0.66857 0.0
H154 H 0.82688 0.9182 0.67699 0.0
H155 H 0.79688 0.88596 0.72177 0.0
H156 H 0.74165 0.8772 0.7724 0.0
H157 H 0.69997 0.9026 0.79891 0.0
H158 H 0.69428 0.82132 0.87525 0.0
H159 H 0.73668 0.79618 0.84915 0.0
N160 N 0.78262 0.7941 0.80855 0.0
N161 N 0.82038 0.79721 0.76678 0.0
N162 N 0.78222 0.83531 0.76495 0.0
C163 C 0.80811 0.78226 0.79531 0.0
C164 C 0.80757 0.82364 0.75139 0.0
C165 C 0.76946 0.82055 0.79342 0.0
C166 C 0.82385 0.75516 0.81276 0.0
C167 C 0.81169 0.73947 0.84248 0.0
C168 C 0.82774 0.71555 0.85974 0.0
C169 C 0.85632 0.70685 0.84773 0.0
C170 C 0.86814 0.722 0.81774 0.0
C171 C 0.85209 0.7458 0.80044 0.0
C172 C 0.82283 0.84134 0.72166 0.0
C173 C 0.84675 0.82677 0.70577 0.0
C174 C 0.86369 0.84511 0.67998 0.0
C175 C 0.85725 0.87853 0.66959 0.0
C176 C 0.83231 0.89244 0.68437 0.0
C177 C 0.81521 0.87398 0.71013 0.0
C178 C 0.7427 0.83467 0.80868 0.0
C179 C 0.73149 0.86452 0.79475 0.0
C180 C 0.65276 0.0833 0.23302 0.0
C181 C 0.64099 0.10656 0.21042 0.0
C182 C 0.64462 0.1421 0.21582 0.0
C183 C 0.65809 0.1538 0.24374 0.0
H184 H 0.63985 0.22356 0.31372 0.0
H185 H 0.61968 0.27177 0.33885 0.0
H186 H 0.67146 0.25059 0.4237 0.0
H187 H 0.69219 0.20318 0.39849 0.0
H188 H 0.74102 0.15248 0.39746 0.0
H189 H 0.78559 0.1299 0.42167 0.0
H190 H 0.79529 0.06675 0.34127 0.0
H191 H 0.75078 0.0898 0.31649 0.0
H192 H 0.67522 0.07661 0.2779 0.0
H193 H 0.65012 0.05573 0.23005 0.0
H194 H 0.63684 0.16103 0.1986 0.0
H195 H 0.65991 0.18123 0.24748 0.0
N196 N 0.67002 0.16958 0.31043 0.0
N197 N 0.70398 0.16517 0.35287 0.0
N198 N 0.70477 0.1273 0.31142 0.0
C199 C 0.68088 0.18075 0.33865 0.0
C200 C 0.71618 0.1386 0.33944 0.0
C201 C 0.68174 0.14278 0.2968 0.0
C202 C 0.66784 0.20957 0.35395 0.0
C203 C 0.64691 0.22915 0.33775 0.0
C204 C 0.6352 0.25669 0.35222 0.0
C205 C 0.64408 0.26515 0.38322 0.0
C206 C 0.6646 0.2452 0.39956 0.0
C207 C 0.67639 0.21785 0.38509 0.0
C208 C 0.74229 0.1231 0.35489 0.0
C209 C 0.75247 0.13369 0.38487 0.0
C210 C 0.77797 0.12057 0.39892 0.0
C211 C 0.79398 0.09656 0.38339 0.0
C212 C 0.78361 0.08553 0.35364 0.0
C213 C 0.75798 0.09859 0.33956 0.0
C214 C 0.66913 0.13044 0.26652 0.0
C215 C 0.66699 0.09519 0.2606 0.0
C216 C 0.23138 0.58124 0.1657 0.0
C217 C 0.22109 0.59811 0.13772 0.0
C218 C 0.23927 0.62775 0.1239 0.0
C219 C 0.26718 0.64003 0.13737 0.0
H220 H 0.3332 0.71934 0.12578 0.0
H221 H 0.35879 0.77413 0.10229 0.0
H222 H 0.43299 0.76857 0.16897 0.0
H223 H 0.40761 0.71305 0.19236 0.0
H224 H 0.41118 0.63247 0.22519 0.0
H225 H 0.43597 0.60246 0.26885 0.0
H226 H 0.34619 0.55523 0.30616 0.0
H227 H 0.3211 0.58496 0.26189 0.0
H228 H 0.26699 0.57964 0.20046 0.0
H229 H 0.21795 0.55819 0.17681 0.0
H230 H 0.23182 0.64165 0.10264 0.0
H231 H 0.28045 0.66289 0.12573 0.0
N232 N 0.32386 0.66603 0.16514 0.0
N233 N 0.36461 0.66048 0.20007 0.0
N234 N 0.32105 0.61833 0.20292 0.0
C235 C 0.35193 0.67854 0.17582 0.0
C236 C 0.34939 0.63042 0.2138 0.0
C237 C 0.30822 0.63606 0.17833 0.0
C238 C 0.3682 0.71169 0.16115 0.0
C239 C 0.35499 0.72961 0.13554 0.0
C240 C 0.36959 0.76123 0.12212 0.0
C241 C 0.39779 0.77591 0.13395 0.0
C242 C 0.41137 0.75783 0.15919 0.0
C243 C 0.39672 0.72608 0.17269 0.0
C244 C 0.36412 0.61115 0.24005 0.0
C245 C 0.39663 0.61563 0.24259 0.0
C246 C 0.41089 0.59829 0.26749 0.0
C247 C 0.39301 0.5765 0.29084 0.0
C248 C 0.36049 0.57198 0.28849 0.0
C249 C 0.34619 0.58884 0.2631 0.0
C250 C 0.2779 0.62295 0.16504 0.0
C251 C 0.25956 0.59344 0.17915 0.0
C252 C 0.14192 0.24703 0.64155 0.0
C253 C 0.11088 0.23309 0.64826 0.0
C254 C 0.09379 0.24747 0.67229 0.0
C255 C 0.10747 0.2751 0.68908 0.0
H256 H 0.09273 0.34838 0.76083 0.0
H257 H 0.06866 0.37186 0.80737 0.0
H258 H 0.159 0.41635 0.83498 0.0
H259 H 0.18302 0.39322 0.78876 0.0
H260 H 0.2435 0.39168 0.741 0.0
H261 H 0.29531 0.41701 0.72212 0.0
H262 H 0.27526 0.38607 0.62628 0.0
H263 H 0.22432 0.35916 0.64569 0.0
H264 H 0.17949 0.2842 0.65213 0.0
H265 H 0.15616 0.23621 0.62388 0.0
H266 H 0.06977 0.23757 0.67798 0.0
H267 H 0.09368 0.28554 0.7074 0.0
N268 N 0.13975 0.32984 0.72594 0.0
N269 N 0.18411 0.36918 0.73244 0.0
N270 N 0.18291 0.33238 0.69016 0.0
C271 C 0.15484 0.35552 0.7424 0.0
C272 C 0.1982 0.3579 0.70621 0.0
C273 C 0.15386 0.31796 0.69983 0.0
C274 C 0.13985 0.36885 0.77096 0.0
C275 C 0.10746 0.36307 0.77688 0.0
C276 C 0.09364 0.37672 0.8034 0.0
C277 C 0.11194 0.39594 0.82486 0.0
C278 C 0.14428 0.40143 0.81906 0.0
C279 C 0.15802 0.38826 0.79241 0.0
C280 C 0.22976 0.37341 0.69487 0.0
C281 C 0.25026 0.39021 0.71593 0.0
C282 C 0.27997 0.40491 0.705 0.0
C283 C 0.28973 0.4038 0.67254 0.0
C284 C 0.26907 0.38691 0.65156 0.0
C285 C 0.23963 0.37166 0.66264 0.0
C286 C 0.13853 0.28901 0.68215 0.0
C287 C 0.15545 0.27458 0.65808 0.0
Zn288 Zn 0.05501 0.00309 0.53079 0.0
Zn289 Zn 0.9939 0.01253 0.487 0.0
C290 C 0.07617 0.07448 0.53757 0.0
O291 O 0.09733 0.0669 0.51678 0.0
C292 C 0.9718 0.94417 0.47136 0.0
O293 O 0.9504 0.94969 0.49282 0.0
O294 O 0.09187 0.98554 0.55151 0.0
O295 O 0.01854 0.9711 0.54872 0.0
O296 O 0.98115 0.00223 0.53387 0.0
C297 C 0.09301 0.98416 0.58202 0.0
O298 O 0.06989 0.99399 0.59894 0.0
O299 O 0.05403 0.05135 0.54675 0.0
C300 C 0.9572 0.03831 0.43674 0.0
O301 O 0.98066 0.03097 0.41873 0.0
O302 O 0.95813 0.03353 0.46715 0.0
O303 O 0.03255 0.04478 0.47381 0.0
O304 O 0.06378 0.00481 0.48304 0.0
O305 O 0.99467 0.96736 0.46522 0.0
C306 C 0.99101 0.9788 0.55221 0.0
C307 C 0.05682 0.03109 0.46642 0.0
Zn308 Zn 0.53773 0.97338 0.99856 0.0
Zn309 Zn 0.49108 0.01489 0.03102 0.0
C310 C 0.49517 0.92742 0.96693 0.0
O311 O 0.50904 0.9052 0.98491 0.0
C312 C 0.52748 0.06021 0.06727 0.0
O313 O 0.50976 0.08066 0.05194 0.0
O314 O 0.57339 0.95032 0.98146 0.0
O315 O 0.55087 0.02463 0.9908 0.0
O316 O 0.50349 0.0399 0.98799 0.0
C317 C 0.57796 0.95344 0.95108 0.0
O318 O 0.56037 0.97217 0.93362 0.0
O319 O 0.50268 0.95966 0.96927 0.0
C320 C 0.44686 0.02548 0.07851 0.0
O321 O 0.46317 0.00356 0.09392 0.0
O322 O 0.45394 0.03463 0.04913 0.0
O323 O 0.47865 0.96352 0.0352 0.0
O324 O 0.52608 0.95125 0.04312 0.0
O325 O 0.52512 0.02838 0.06148 0.0
C326 C 0.53232 0.04551 0.98034 0.0
C327 C 0.49697 0.94393 0.04822 0.0
Zn328 Zn 0.52537 0.47072 0.47 0.0
Zn329 Zn 0.48304 0.52014 0.52501 0.0
C330 C 0.56823 0.50889 0.42557 0.0
O331 O 0.54704 0.49536 0.40663 0.0
C332 C 0.44783 0.48387 0.57896 0.0
O333 O 0.46357 0.50808 0.5944 0.0
O334 O 0.53293 0.42659 0.44999 0.0
O335 O 0.52498 0.45865 0.51825 0.0
O336 O 0.5273 0.51177 0.53345 0.0
C337 C 0.5592 0.41639 0.45591 0.0
O338 O 0.57774 0.43408 0.47491 0.0
O339 O 0.56379 0.50344 0.45591 0.0
C340 C 0.4478 0.5709 0.54827 0.0
O341 O 0.42561 0.54973 0.53688 0.0
O342 O 0.47578 0.56428 0.54527 0.0
O343 O 0.46863 0.52555 0.47954 0.0
O344 O 0.48886 0.48929 0.44808 0.0
O345 O 0.45342 0.48237 0.54894 0.0
C346 C 0.53225 0.48047 0.53894 0.0
C347 C 0.47033 0.51178 0.45278 0.0
Zn348 Zn 0.9619 0.52092 0.98326 0.0
Zn349 Zn 0.02101 0.4793 0.03623 0.0
C350 C 0.9121 0.49287 0.94827 0.0
O351 O 0.92955 0.51242 0.92638 0.0
C352 C 0.05456 0.51703 0.08227 0.0
O353 O 0.03382 0.49721 0.10077 0.0
O354 O 0.95472 0.56606 0.96006 0.0
O355 O 0.96655 0.53202 0.03019 0.0
O356 O 0.97836 0.48395 0.05546 0.0
C357 C 0.93664 0.58496 0.9733 0.0
O358 O 0.92588 0.57628 1.00285 0.0
O359 O 0.92141 0.49044 0.97702 0.0
C360 C 0.06335 0.43282 0.05051 0.0
O361 O 0.07962 0.45613 0.03074 0.0
O362 O 0.03496 0.43609 0.05669 0.0
O363 O 0.02727 0.47442 0.98864 0.0
O364 O 0.99501 0.50058 0.95761 0.0
O365 O 0.05267 0.51641 0.05184 0.0
C366 C 0.96886 0.51359 0.05614 0.0
C367 C 0.01782 0.48289 0.96095 0.0
H368 H 0.15048 0.07459 0.34872 0.0
H369 H 0.11933 0.17424 0.36305 0.0
H370 H 0.0855 0.14875 0.4081 0.0
H371 H 0.06382 0.09797 0.44272 0.0
H372 H 0.09729 -0.00085 0.43076 0.0
H373 H 0.13158 0.02468 0.38579 0.0
C374 C 0.13674 0.0909 0.36201 0.0
C375 C 0.13724 0.12621 0.35217 0.0
C376 C 0.11766 0.07622 0.38825 0.0
C377 C 0.11893 0.14681 0.36956 0.0
C378 C 0.09967 0.13232 0.39547 0.0
C379 C 0.07858 0.08205 0.43018 0.0
C380 C 0.07785 0.04672 0.43972 0.0
C381 C 0.09857 0.09699 0.40477 0.0
C382 C 0.09746 0.02645 0.42374 0.0
C383 C 0.11703 0.041 0.39804 0.0
H384 H 0.4148 0.84942 0.86443 0.0
H385 H 0.41733 0.95371 0.82177 0.0
H386 H 0.44538 0.97602 0.86751 0.0
H387 H 0.47189 0.96558 0.91806 0.0
H388 H 0.47072 0.86096 0.95969 0.0
H389 H 0.43955 0.83918 0.91589 0.0
C390 C 0.4216 0.87702 0.86508 0.0
C391 C 0.41412 0.89981 0.83962 0.0
C392 C 0.43803 0.88964 0.89125 0.0
C393 C 0.42256 0.93559 0.84116 0.0
C394 C 0.43876 0.94837 0.86723 0.0
C395 C 0.46454 0.93805 0.91774 0.0
C396 C 0.47377 0.91494 0.94204 0.0
C397 C 0.44694 0.9256 0.89223 0.0
C398 C 0.46409 0.87933 0.94121 0.0
C399 C 0.44629 0.86681 0.91614 0.0
H400 H 0.58935 0.45602 0.67579 0.0
H401 H 0.58708 0.35223 0.6447 0.0
H402 H 0.56532 0.37059 0.59376 0.0
H403 H 0.54665 0.41598 0.55806 0.0
H404 H 0.54877 0.51985 0.58916 0.0
H405 H 0.57109 0.50163 0.6398 0.0
C406 C 0.58438 0.4375 0.65774 0.0
C407 C 0.58983 0.40276 0.66415 0.0
C408 C 0.5718 0.44822 0.62845 0.0
C409 C 0.5828 0.37901 0.64062 0.0
C410 C 0.57046 0.38953 0.61139 0.0
C411 C 0.55199 0.43469 0.57588 0.0
C412 C 0.54601 0.46928 0.56967 0.0
C413 C 0.56475 0.42403 0.60508 0.0
C414 C 0.55313 0.49308 0.59315 0.0
C415 C 0.56591 0.48268 0.62219 0.0
H416 H 0.92505 0.54482 0.19681 0.0
H417 H 0.92118 0.64592 0.14923 0.0
H418 H 0.9393 0.62535 0.09863 0.0
H419 H 0.95522 0.57847 0.06752 0.0
H420 H 0.95996 0.47742 0.115 0.0
H421 H 0.94245 0.49812 0.16583 0.0
C422 C 0.92811 0.56231 0.17533 0.0
C423 C 0.92172 0.59689 0.17687 0.0
C424 C 0.93861 0.5503 0.14623 0.0
C425 C 0.92622 0.61932 0.14888 0.0
C426 C 0.93641 0.60751 0.11985 0.0
C427 C 0.95237 0.56088 0.08894 0.0
C428 C 0.95867 0.52629 0.08724 0.0
C429 C 0.94252 0.57302 0.11819 0.0
C430 C 0.9552 0.50411 0.11546 0.0
C431 C 0.94516 0.51594 0.14459 0.0
H432 H 0.35264 0.08457 0.17275 0.0
H433 H 0.32748 0.13522 0.08352 0.0
H434 H 0.36593 0.10715 0.05402 0.0
H435 H 0.40719 0.06883 0.05357 0.0
H436 H 0.43116 0.01676 0.14259 0.0
H437 H 0.39221 0.04423 0.17198 0.0
C438 C 0.35525 0.08914 0.14681 0.0
C439 C 0.33733 0.11221 0.13047 0.0
C440 C 0.37715 0.07258 0.12989 0.0
C441 C 0.34137 0.11813 0.09685 0.0
C442 C 0.36321 0.10189 0.07988 0.0
C443 C 0.40381 0.06338 0.07938 0.0
C444 C 0.42214 0.04088 0.09584 0.0
C445 C 0.38135 0.07923 0.09618 0.0
C446 C 0.41738 0.03399 0.12928 0.0
C447 C 0.39514 0.04974 0.14616 0.0
H448 H 0.19433 0.92626 0.67022 0.0
H449 H 0.23961 0.92062 0.57739 0.0
H450 H 0.19671 0.94513 0.55089 0.0
H451 H 0.1458 0.96661 0.55392 0.0
H452 H 0.10044 0.97285 0.64665 0.0
H453 H 0.14411 0.95003 0.67336 0.0
C454 C 0.19498 0.93086 0.64423 0.0
C455 C 0.22002 0.92145 0.6258 0.0
C456 C 0.17021 0.94494 0.62912 0.0
C457 C 0.22038 0.92717 0.5921 0.0
C458 C 0.19592 0.9413 0.57692 0.0
C459 C 0.14545 0.96305 0.57998 0.0
C460 C 0.11981 0.97125 0.59823 0.0
C461 C 0.17058 0.94992 0.59517 0.0
C462 C 0.11985 0.96667 0.63199 0.0
C463 C 0.14481 0.95361 0.64731 0.0
H464 H 0.78828 0.39946 0.91935 0.0
H465 H 0.78589 0.48141 0.8446 0.0
H466 H 0.83409 0.51056 0.8629 0.0
H467 H 0.87739 0.51281 0.8993 0.0
H468 H 0.87875 0.43404 0.97675 0.0
H469 H 0.82999 0.40414 0.95871 0.0
C470 C 0.79795 0.42395 0.9073 0.0
C471 C 0.78343 0.43772 0.88014 0.0
C472 C 0.82549 0.44126 0.91849 0.0
C473 C 0.79677 0.46944 0.86486 0.0
C474 C 0.82429 0.48642 0.87551 0.0
C475 C 0.86703 0.48907 0.91228 0.0
C476 C 0.8818 0.47541 0.9391 0.0
C477 C 0.83897 0.47243 0.90206 0.0
C478 C 0.86782 0.44502 0.956 0.0
C479 C 0.84002 0.4279 0.94562 0.0
H480 H 0.68594 0.57806 0.3427 0.0
H481 H 0.72591 0.57818 0.43643 0.0
H482 H 0.67613 0.55282 0.46134 0.0
H483 H 0.62132 0.52958 0.45644 0.0
H484 H 0.58174 0.52894 0.36243 0.0
H485 H 0.63114 0.55542 0.33784 0.0
C486 C 0.68382 0.57225 0.36854 0.0
C487 C 0.70964 0.57998 0.38763 0.0
C488 C 0.6551 0.55767 0.38273 0.0
C489 C 0.70633 0.57279 0.42118 0.0
C490 C 0.67789 0.55819 0.43545 0.0
C491 C 0.62343 0.53549 0.43061 0.0
C492 C 0.59779 0.52725 0.41137 0.0
C493 C 0.65208 0.55052 0.41648 0.0
C494 C 0.60105 0.53493 0.37789 0.0
C495 C 0.62935 0.55004 0.36373 0.0
H496 H 0.11019 0.31074 0.13564 0.0
H497 H 0.19881 0.35939 0.09634 0.0
H498 H 0.17264 0.40164 0.06444 0.0
H499 H 0.12485 0.4257 0.04918 0.0
H500 H 0.03631 0.37825 0.08991 0.0
H501 H 0.06232 0.33457 0.12007 0.0
C502 C 0.1238 0.3308 0.12032 0.0
C503 C 0.15639 0.33209 0.11849 0.0
C504 C 0.10865 0.35512 0.10235 0.0
C505 C 0.17368 0.35772 0.09799 0.0
C506 C 0.15875 0.38195 0.07987 0.0
C507 C 0.11118 0.40568 0.06448 0.0
C508 C 0.0787 0.40522 0.06732 0.0
C509 C 0.12628 0.38097 0.08201 0.0
C510 C 0.06135 0.37919 0.08735 0.0
C511 C 0.0762 0.35425 0.10462 0.0
H512 H 0.60263 0.16503 0.88708 0.0
H513 H 0.53653 0.22381 0.93135 0.0
H514 H 0.51279 0.17147 0.9626 0.0
H515 H 0.51175 0.10906 0.9781 0.0
H516 H 0.58094 0.05166 0.93706 0.0
H517 H 0.60258 0.10316 0.90371 0.0
C518 C 0.58292 0.16617 0.90348 0.0
C519 C 0.57108 0.19791 0.90688 0.0
C520 C 0.57004 0.13625 0.92192 0.0
C521 C 0.54588 0.19948 0.92846 0.0
C522 C 0.53235 0.16962 0.94624 0.0
C523 C 0.53142 0.10787 0.96166 0.0
C524 C 0.54464 0.07664 0.95982 0.0
C525 C 0.54432 0.13787 0.94327 0.0
C526 C 0.57044 0.07548 0.93888 0.0
C527 C 0.58279 0.10488 0.9198 0.0
H528 H 0.95412 0.83049 0.36936 0.0
H529 H 0.88732 0.78425 0.44295 0.0
H530 H 0.90277 0.83054 0.47769 0.0
H531 H 0.93259 0.88595 0.48614 0.0
H532 H 1.00034 0.93275 0.41389 0.0
H533 H 0.98768 0.88424 0.38008 0.0
C534 C 0.9433 0.83032 0.39317 0.0
C535 C 0.91909 0.80424 0.40317 0.0
C536 C 0.95241 0.85718 0.41331 0.0
C537 C 0.90538 0.80444 0.4342 0.0
C538 C 0.91432 0.83083 0.45423 0.0
C539 C 0.94481 0.88545 0.46311 0.0
C540 C 0.96716 0.9131 0.45246 0.0
C541 C 0.93733 0.85767 0.44381 0.0
C542 C 0.98302 0.91179 0.4227 0.0
C543 C 0.97567 0.88413 0.40327 0.0
H544 H 0.43493 0.70415 0.6244 0.0
H545 H 0.33808 0.66359 0.62355 0.0
H546 H 0.35156 0.61485 0.59418 0.0
H547 H 0.39052 0.58432 0.56795 0.0
H548 H 0.48763 0.62374 0.56929 0.0
H549 H 0.47438 0.67226 0.59943 0.0
C550 C 0.41685 0.6844 0.61812 0.0
C551 C 0.38554 0.68762 0.62596 0.0
C552 C 0.42477 0.65637 0.60118 0.0
C553 C 0.36232 0.66199 0.61738 0.0
C554 C 0.37 0.63406 0.60067 0.0
C555 C 0.40883 0.60356 0.57471 0.0
C556 C 0.43998 0.60054 0.56617 0.0
C557 C 0.40109 0.63118 0.59217 0.0
C558 C 0.46342 0.62552 0.57547 0.0
C559 C 0.45588 0.65325 0.59274 0.0
H560 H 0.92005 0.88417 0.66515 0.0
H561 H 0.84063 0.92062 0.6191 0.0
H562 H 0.87515 0.95609 0.57935 0.0
H563 H 0.92793 0.97586 0.55732 0.0
H564 H 0.0069 0.93753 0.60295 0.0
H565 H 0.97236 0.90334 0.64312 0.0
C566 C 0.91022 0.89949 0.64616 0.0
C567 C 0.87783 0.89955 0.64492 0.0
C568 C 0.93011 0.91951 0.62339 0.0
C569 C 0.86552 0.92027 0.62066 0.0
C570 C 0.88523 0.94045 0.59789 0.0
C571 C 0.93758 0.96018 0.57617 0.0
C572 C 0.96994 0.95926 0.57714 0.0
C573 C 0.91757 0.94024 0.59903 0.0
C574 C 0.98208 0.93861 0.60157 0.0
C575 C 0.96236 0.91904 0.62456 0.0
H576 H 0.59142 0.13241 0.1827 0.0
H577 H 0.65137 0.05161 0.17441 0.0
H578 H 0.62127 0.02958 0.12991 0.0
H579 H 0.57752 0.03319 0.09329 0.0
H580 H 0.52101 0.11728 0.09958 0.0
H581 H 0.5509 0.13864 0.14426 0.0
C582 C 0.59854 0.11045 0.17084 0.0
C583 C 0.62377 0.09382 0.18216 0.0
C584 C 0.58175 0.09851 0.14472 0.0
C585 C 0.63178 0.06472 0.16677 0.0
C586 C 0.61471 0.0522 0.14108 0.0
C587 C 0.57189 0.05624 0.10442 0.0
C588 C 0.54705 0.07355 0.09321 0.0
C589 C 0.58954 0.06881 0.12993 0.0
C590 C 0.54012 0.10355 0.10764 0.0
C591 C 0.55712 0.11574 0.1333 0.0
H592 H 0.37975 0.57671 0.35506 0.0
H593 H 0.4416 0.53807 0.28668 0.0
H594 H 0.46993 0.51287 0.33069 0.0
H595 H 0.47865 0.50417 0.38857 0.0
H596 H 0.41851 0.54561 0.45702 0.0
H597 H 0.38799 0.56714 0.41318 0.0
C598 C 0.39919 0.56237 0.34989 0.0
C599 C 0.40856 0.55916 0.31772 0.0
C600 C 0.4158 0.54861 0.37534 0.0
C601 C 0.43407 0.54098 0.31128 0.0
C602 C 0.45025 0.52657 0.33642 0.0
C603 C 0.4587 0.51762 0.39395 0.0
C604 C 0.45092 0.5232 0.42611 0.0
C605 C 0.44157 0.53058 0.36855 0.0
C606 C 0.42514 0.54103 0.43252 0.0
C607 C 0.40762 0.55336 0.40745 0.0
H608 H 0.06112 0.43159 0.82713 0.0
H609 H 0.13093 0.39227 0.88674 0.0
H610 H 0.1086 0.41626 0.93372 0.0
H611 H 0.06909 0.44803 0.95807 0.0
H612 H 0.99958 0.48834 0.89846 0.0
H613 H 0.02198 0.46451 0.85147 0.0
C614 C 0.07128 0.4281 0.85047 0.0
C615 C 0.09763 0.41009 0.85341 0.0
C616 C 0.05847 0.4423 0.87741 0.0
C617 C 0.11079 0.40622 0.88374 0.0
C618 C 0.09799 0.41987 0.91065 0.0
C619 C 0.05884 0.45177 0.93481 0.0
C620 C 0.03259 0.47002 0.93199 0.0
C621 C 0.07186 0.43801 0.90779 0.0
C622 C 0.01981 0.47456 0.90149 0.0
C623 C 0.03255 0.4608 0.87454 0.0
H624 H 0.68704 0.87251 0.90334 0.0
H625 H 0.64502 0.89262 0.81221 0.0
H626 H 0.60599 0.9226 0.8388 0.0
H627 H 0.58413 0.94355 0.88764 0.0
H628 H 0.62472 0.92187 0.97921 0.0
H629 H 0.66382 0.89161 0.95272 0.0
C630 C 0.66909 0.88301 0.88936 0.0
C631 C 0.66907 0.88046 0.8558 0.0
C632 C 0.64655 0.9 0.90483 0.0
C633 C 0.64588 0.89469 0.83799 0.0
C634 C 0.62346 0.9117 0.85318 0.0
C635 C 0.60158 0.9323 0.90183 0.0
C636 C 0.60167 0.93515 0.9353 0.0
C637 C 0.62373 0.91472 0.88652 0.0
C638 C 0.6242 0.92007 0.95338 0.0
C639 C 0.64655 0.90278 0.93826 0.0
H640 H 0.84907 0.08857 0.35333 0.0
H641 H 0.80135 0.0762 0.44641 0.0
H642 H 0.84785 0.058 0.47117 0.0
H643 H 0.90199 0.04583 0.46647 0.0
H644 H 0.94963 0.057 0.37331 0.0
H645 H 0.90312 0.07524 0.34847 0.0
C646 C 0.84874 0.08147 0.37896 0.0
C647 C 0.8218 0.08381 0.398 0.0
C648 C 0.87555 0.07097 0.39305 0.0
C649 C 0.8219 0.07503 0.43128 0.0
C650 C 0.84844 0.06451 0.44544 0.0
C651 C 0.90228 0.05237 0.44074 0.0
C652 C 0.9293 0.05017 0.42181 0.0
C653 C 0.87543 0.06258 0.42659 0.0
C654 C 0.92916 0.0585 0.38846 0.0
C655 C 0.90256 0.0689 0.37422 0.0
H656 H 0.16463 0.57562 0.16705 0.0
H657 H 0.21191 0.59084 0.07384 0.0
H658 H 0.16414 0.56972 0.04814 0.0
H659 H 0.10928 0.54499 0.05219 0.0
H660 H 0.06215 0.52884 0.14551 0.0
H661 H 0.10928 0.55236 0.17095 0.0
C662 C 0.16449 0.57411 0.14114 0.0
C663 C 0.19185 0.58478 0.12245 0.0
C664 C 0.13687 0.56192 0.12646 0.0
C665 C 0.19114 0.58311 0.08881 0.0
C666 C 0.16383 0.57094 0.07407 0.0
C667 C 0.10918 0.54705 0.07803 0.0
C668 C 0.08216 0.53515 0.09686 0.0
C669 C 0.13655 0.56018 0.09264 0.0
C670 C 0.0826 0.53775 0.13039 0.0
C671 C 0.1096 0.5511 0.14502 0.0
H672 H 0.32836 0.38334 0.62575 0.0
H673 H 0.32134 0.46378 0.69153 0.0
H674 H 0.37096 0.49328 0.67062 0.0
H675 H 0.41476 0.49857 0.63144 0.0
H676 H 0.41953 0.42164 0.562 0.0
H677 H 0.37213 0.38882 0.58622 0.0
C678 C 0.33742 0.40749 0.63539 0.0
C679 C 0.32081 0.42109 0.66035 0.0
C680 C 0.36559 0.42511 0.62247 0.0
C681 C 0.3336 0.45211 0.67283 0.0
C682 C 0.36195 0.46929 0.66065 0.0
C683 C 0.40567 0.47438 0.62185 0.0
C684 C 0.42073 0.46244 0.59508 0.0
C685 C 0.37797 0.45624 0.63527 0.0
C686 C 0.40836 0.43135 0.58262 0.0
C687 C 0.38125 0.41263 0.59643 0.0
H688 H 0.86494 0.70368 0.91223 0.0
H689 H 0.88773 0.65551 0.82548 0.0
H690 H 0.91716 0.61572 0.85641 0.0
H691 H 0.9344 0.59291 0.90831 0.0
H692 H 0.90904 0.63874 0.99548 0.0
H693 H 0.88258 0.68119 0.96413 0.0
C694 C 0.8761 0.68428 0.90012 0.0
C695 C 0.87404 0.68254 0.86661 0.0
C696 C 0.89262 0.66117 0.91809 0.0
C697 C 0.88919 0.65766 0.85121 0.0
C698 C 0.90593 0.6348 0.86888 0.0
C699 C 0.92348 0.61252 0.9204 0.0
C700 C 0.92377 0.61283 0.95412 0.0
C701 C 0.90766 0.63622 0.90234 0.0
C702 C 0.90913 0.63803 0.96951 0.0
C703 C 0.89392 0.66221 0.95163 0.0
H704 H 0.45937 0.79587 0.11893 0.0
H705 H 0.36915 0.83317 0.11792 0.0
H706 H 0.39208 0.88845 0.09219 0.0
H707 H 0.43716 0.92555 0.06846 0.0
H708 H 0.52779 0.88935 0.06949 0.0
H709 H 0.50535 0.83454 0.09723 0.0
C710 C 0.44481 0.81626 0.11343 0.0
C711 C 0.41251 0.81018 0.12005 0.0
C712 C 0.45819 0.84817 0.09863 0.0
C713 C 0.39396 0.83684 0.11253 0.0
C714 C 0.40707 0.86856 0.09796 0.0
C715 C 0.45209 0.90574 0.07479 0.0
C716 C 0.48408 0.91148 0.06671 0.0
C717 C 0.43906 0.87435 0.09057 0.0
C718 C 0.50308 0.88562 0.07541 0.0
C719 C 0.49025 0.85422 0.0912 0.0
H720 H 0.11958 0.22184 0.58483 0.0
H721 H 0.07123 0.17646 0.67206 0.0
H722 H 0.05315 0.12485 0.64443 0.0
H723 H 0.05519 0.0902 0.59679 0.0
H724 H 0.10714 0.13451 0.5113 0.0
H725 H 0.1199 0.18861 0.53701 0.0
C726 C 0.10519 0.20065 0.59794 0.0
C727 C 0.09716 0.20306 0.63068 0.0
C728 C 0.09564 0.17063 0.5822 0.0
C729 C 0.0777 0.1756 0.64684 0.0
C730 C 0.06752 0.14587 0.63111 0.0
C731 C 0.06887 0.11193 0.58366 0.0
C732 C 0.08027 0.10832 0.55218 0.0
C733 C 0.07688 0.14278 0.59896 0.0
C734 C 0.09824 0.13656 0.53559 0.0
C735 C 0.10557 0.16751 0.55029 0.0
H736 H 0.58545 0.2849 0.38257 0.0
H737 H 0.67707 0.31279 0.41788 0.0
H738 H 0.65852 0.36108 0.44413 0.0
H739 H 0.61673 0.39563 0.4568 0.0
H740 H 0.52534 0.36976 0.42029 0.0
H741 H 0.5435 0.32063 0.39446 0.0
C742 C 0.60142 0.30175 0.39575 0.0
C743 C 0.63257 0.29502 0.39841 0.0
C744 C 0.59068 0.32981 0.41057 0.0
C745 C 0.65285 0.31692 0.41591 0.0
C746 C 0.64233 0.3447 0.43078 0.0
C747 C 0.60068 0.37921 0.4433 0.0
C748 C 0.56969 0.38628 0.44059 0.0
C749 C 0.61131 0.35132 0.42834 0.0
C750 C 0.54932 0.36487 0.42278 0.0
C751 C 0.55969 0.33678 0.40799 0.0
loop_
_geom_bond_atom_site_label_1
_geom_bond_atom_site_label_2
_geom_bond_distance
_geom_bond_site_symmetry_2
_ccdc_geom_bond_type
C0 C1 1.384 . S
C0 H13 0.947 . S
C0 C35 1.382 . S
C1 C0 1.384 . S
C1 C2 1.378 . S
C2 C1 1.378 . S
C2 C3 1.378 . S
C2 H14 0.952 . S
C3 C2 1.378 . S
C3 H15 0.950 . S
C3 C34 1.383 . S
H4 C23 0.947 . S
H5 C24 0.946 . S
H6 C26 0.953 . S
H7 C27 0.945 . S
H8 C29 0.952 . S
H9 C30 0.949 . S
H10 C32 0.950 . S
H11 C33 0.948 . S
H12 C35 0.951 . S
H13 C0 0.947 . S
H14 C2 0.952 . S
H15 C3 0.950 . S
N16 C19 1.382 . S
N16 C21 1.363 . S
N17 C19 1.371 . S
N17 C20 1.372 . S
N18 C20 1.361 . S
N18 C21 1.377 . S
C19 N16 1.382 . S
C19 N17 1.371 . S
C19 C22 1.480 . S
C20 N17 1.372 . S
C20 N18 1.361 . S
C20 C28 1.457 . S
C21 N16 1.363 . S
C21 N18 1.377 . S
C21 C34 1.479 . S
C22 C19 1.480 . S
C22 C23 1.383 . S
C22 C27 1.385 . S
C23 H4 0.947 . S
C23 C22 1.383 . S
C23 C24 1.388 . S
C24 H5 0.946 . S
C24 C23 1.388 . S
C24 C25 1.384 . S
C25 C24 1.384 . S
C25 C26 1.377 . S
C26 H6 0.953 . S
C26 C25 1.377 . S
C26 C27 1.369 . S
C27 H7 0.945 . S
C27 C22 1.385 . S
C27 C26 1.369 . S
C28 C20 1.457 . S
C28 C29 1.372 . S
C28 C33 1.364 . S
C29 H8 0.952 . S
C29 C28 1.372 . S
C29 C30 1.389 . S
C30 H9 0.949 . S
C30 C29 1.389 . S
C30 C31 1.387 . S
C31 C30 1.387 . S
C31 C32 1.372 . S
C32 H10 0.950 . S
C32 C31 1.372 . S
C32 C33 1.379 . S
C33 H11 0.948 . S
C33 C28 1.364 . S
C33 C32 1.379 . S
C34 C3 1.383 . S
C34 C21 1.479 . S
C34 C35 1.398 . S
C35 C0 1.382 . S
C35 H12 0.951 . S
C35 C34 1.398 . S
C36 C37 1.384 . S
C36 H49 0.947 . S
C36 C71 1.382 . S
C37 C36 1.384 . S
C37 C38 1.378 . S
C38 C37 1.378 . S
C38 C39 1.378 . S
C38 H50 0.952 . S
C39 C38 1.378 . S
C39 H51 0.950 . S
C39 C70 1.383 . S
H40 C59 0.947 . S
H41 C60 0.946 . S
H42 C62 0.953 . S
H43 C63 0.945 . S
H44 C65 0.952 . S
H45 C66 0.949 . S
H46 C68 0.950 . S
H47 C69 0.948 . S
H48 C71 0.951 . S
H49 C36 0.947 . S
H50 C38 0.952 . S
H51 C39 0.950 . S
N52 C55 1.382 . S
N52 C57 1.363 . S
N53 C55 1.371 . S
N53 C56 1.372 . S
N54 C56 1.361 . S
N54 C57 1.377 . S
C55 N52 1.382 . S
C55 N53 1.371 . S
C55 C58 1.480 . S
C56 N53 1.372 . S
C56 N54 1.361 . S
C56 C64 1.457 . S
C57 N52 1.363 . S
C57 N54 1.377 . S
C57 C70 1.479 . S
C58 C55 1.480 . S
C58 C59 1.383 . S
C58 C63 1.385 . S
C59 H40 0.947 . S
C59 C58 1.383 . S
C59 C60 1.388 . S
C60 H41 0.946 . S
C60 C59 1.388 . S
C60 C61 1.384 . S
C61 C60 1.384 . S
C61 C62 1.377 . S
C62 H42 0.953 . S
C62 C61 1.377 . S
C62 C63 1.369 . S
C63 H43 0.945 . S
C63 C58 1.385 . S
C63 C62 1.369 . S
C64 C56 1.457 . S
C64 C65 1.372 . S
C64 C69 1.364 . S
C65 H44 0.952 . S
C65 C64 1.372 . S
C65 C66 1.389 . S
C66 H45 0.949 . S
C66 C65 1.389 . S
C66 C67 1.387 . S
C67 C66 1.387 . S
C67 C68 1.372 . S
C68 H46 0.950 . S
C68 C67 1.372 . S
C68 C69 1.379 . S
C69 H47 0.948 . S
C69 C64 1.364 . S
C69 C68 1.379 . S
C70 C39 1.383 . S
C70 C57 1.479 . S
C70 C71 1.398 . S
C71 C36 1.382 . S
C71 H48 0.951 . S
C71 C70 1.398 . S
C72 C73 1.384 . S
C72 H85 0.947 . S
C72 C107 1.382 . S
C73 C72 1.384 . S
C73 C74 1.378 . S
C74 C73 1.378 . S
C74 C75 1.378 . S
C74 H86 0.952 . S
C75 C74 1.378 . S
C75 H87 0.950 . S
C75 C106 1.383 . S
H76 C95 0.947 . S
H77 C96 0.946 . S
H78 C98 0.953 . S
H79 C99 0.945 . S
H80 C101 0.952 . S
H81 C102 0.949 . S
H82 C104 0.950 . S
H83 C105 0.948 . S
H84 C107 0.951 . S
H85 C72 0.947 . S
H86 C74 0.952 . S
H87 C75 0.950 . S
N88 C91 1.382 . S
N88 C93 1.363 . S
N89 C91 1.371 . S
N89 C92 1.372 . S
N90 C92 1.361 . S
N90 C93 1.377 . S
C91 N88 1.382 . S
C91 N89 1.371 . S
C91 C94 1.480 . S
C92 N89 1.372 . S
C92 N90 1.361 . S
C92 C100 1.457 . S
C93 N88 1.363 . S
C93 N90 1.377 . S
C93 C106 1.479 . S
C94 C91 1.480 . S
C94 C95 1.383 . S
C94 C99 1.385 . S
C95 H76 0.947 . S
C95 C94 1.383 . S
C95 C96 1.388 . S
C96 H77 0.946 . S
C96 C95 1.388 . S
C96 C97 1.384 . S
C97 C96 1.384 . S
C97 C98 1.377 . S
C98 H78 0.953 . S
C98 C97 1.377 . S
C98 C99 1.369 . S
C99 H79 0.945 . S
C99 C94 1.385 . S
C99 C98 1.369 . S
C100 C92 1.457 . S
C100 C101 1.372 . S
C100 C105 1.364 . S
C101 H80 0.952 . S
C101 C100 1.372 . S
C101 C102 1.389 . S
C102 H81 0.949 . S
C102 C101 1.389 . S
C102 C103 1.387 . S
C103 C102 1.387 . S
C103 C104 1.372 . S
C104 H82 0.950 . S
C104 C103 1.372 . S
C104 C105 1.379 . S
C105 H83 0.948 . S
C105 C100 1.364 . S
C105 C104 1.379 . S
C106 C75 1.383 . S
C106 C93 1.479 . S
C106 C107 1.398 . S
C107 C72 1.382 . S
C107 H84 0.951 . S
C107 C106 1.398 . S
C108 C109 1.384 . S
C108 H121 0.947 . S
C108 C143 1.382 . S
C109 C108 1.384 . S
C109 C110 1.378 . S
C110 C109 1.378 . S
C110 C111 1.378 . S
C110 H122 0.952 . S
C111 C110 1.378 . S
C111 H123 0.950 . S
C111 C142 1.383 . S
H112 C131 0.947 . S
H113 C132 0.946 . S
H114 C134 0.953 . S
H115 C135 0.945 . S
H116 C137 0.952 . S
H117 C138 0.949 . S
H118 C140 0.950 . S
H119 C141 0.948 . S
H120 C143 0.951 . S
H121 C108 0.947 . S
H122 C110 0.952 . S
H123 C111 0.950 . S
N124 C127 1.382 . S
N124 C129 1.363 . S
N125 C127 1.371 . S
N125 C128 1.372 . S
N126 C128 1.361 . S
N126 C129 1.377 . S
C127 N124 1.382 . S
C127 N125 1.371 . S
C127 C130 1.480 . S
C128 N125 1.372 . S
C128 N126 1.361 . S
C128 C136 1.457 . S
C129 N124 1.363 . S
C129 N126 1.377 . S
C129 C142 1.479 . S
C130 C127 1.480 . S
C130 C131 1.383 . S
C130 C135 1.385 . S
C131 H112 0.947 . S
C131 C130 1.383 . S
C131 C132 1.388 . S
C132 H113 0.946 . S
C132 C131 1.388 . S
C132 C133 1.384 . S
C133 C132 1.384 . S
C133 C134 1.377 . S
C134 H114 0.953 . S
C134 C133 1.377 . S
C134 C135 1.369 . S
C135 H115 0.945 . S
C135 C130 1.385 . S
C135 C134 1.369 . S
C136 C128 1.457 . S
C136 C137 1.372 . S
C136 C141 1.364 . S
C137 H116 0.952 . S
C137 C136 1.372 . S
C137 C138 1.389 . S
C138 H117 0.949 . S
C138 C137 1.389 . S
C138 C139 1.387 . S
C139 C138 1.387 . S
C139 C140 1.372 . S
C140 H118 0.950 . S
C140 C139 1.372 . S
C140 C141 1.379 . S
C141 H119 0.948 . S
C141 C136 1.364 . S
C141 C140 1.379 . S
C142 C111 1.383 . S
C142 C129 1.479 . S
C142 C143 1.398 . S
C143 C108 1.382 . S
C143 H120 0.951 . S
C143 C142 1.398 . S
C144 C145 1.384 . S
C144 H157 0.947 . S
C144 C179 1.382 . S
C145 C144 1.384 . S
C145 C146 1.378 . S
C146 C145 1.378 . S
C146 C147 1.378 . S
C146 H158 0.952 . S
C147 C146 1.378 . S
C147 H159 0.950 . S
C147 C178 1.383 . S
H148 C167 0.947 . S
H149 C168 0.946 . S
H150 C170 0.953 . S
H151 C171 0.945 . S
H152 C173 0.952 . S
H153 C174 0.949 . S
H154 C176 0.950 . S
H155 C177 0.948 . S
H156 C179 0.951 . S
H157 C144 0.947 . S
H158 C146 0.952 . S
H159 C147 0.950 . S
N160 C163 1.382 . S
N160 C165 1.363 . S
N161 C163 1.371 . S
N161 C164 1.372 . S
N162 C164 1.361 . S
N162 C165 1.377 . S
C163 N160 1.382 . S
C163 N161 1.371 . S
C163 C166 1.480 . S
C164 N161 1.372 . S
C164 N162 1.361 . S
C164 C172 1.457 . S
C165 N160 1.363 . S
C165 N162 1.377 . S
C165 C178 1.479 . S
C166 C163 1.480 . S
C166 C167 1.383 . S
C166 C171 1.385 . S
C167 H148 0.947 . S
C167 C166 1.383 . S
C167 C168 1.388 . S
C168 H149 0.946 . S
C168 C167 1.388 . S
C168 C169 1.384 . S
C169 C168 1.384 . S
C169 C170 1.377 . S
C170 H150 0.953 . S
C170 C169 1.377 . S
C170 C171 1.369 . S
C171 H151 0.945 . S
C171 C166 1.385 . S
C171 C170 1.369 . S
C172 C164 1.457 . S
C172 C173 1.372 . S
C172 C177 1.364 . S
C173 H152 0.952 . S
C173 C172 1.372 . S
C173 C174 1.389 . S
C174 H153 0.949 . S
C174 C173 1.389 . S
C174 C175 1.387 . S
C175 C174 1.387 . S
C175 C176 1.372 . S
C176 H154 0.950 . S
C176 C175 1.372 . S
C176 C177 1.379 . S
C177 H155 0.948 . S
C177 C172 1.364 . S
C177 C176 1.379 . S
C178 C147 1.383 . S
C178 C165 1.479 . S
C178 C179 1.398 . S
C179 C144 1.382 . S
C179 H156 0.951 . S
C179 C178 1.398 . S
C180 C181 1.384 . S
C180 H193 0.947 . S
C180 C215 1.382 . S
C181 C180 1.384 . S
C181 C182 1.378 . S
C182 C181 1.378 . S
C182 C183 1.378 . S
C182 H194 0.952 . S
C183 C182 1.378 . S
C183 H195 0.950 . S
C183 C214 1.383 . S
H184 C203 0.947 . S
H185 C204 0.946 . S
H186 C206 0.953 . S
H187 C207 0.945 . S
H188 C209 0.952 . S
H189 C210 0.949 . S
H190 C212 0.950 . S
H191 C213 0.948 . S
H192 C215 0.951 . S
H193 C180 0.947 . S
H194 C182 0.952 . S
H195 C183 0.950 . S
N196 C199 1.382 . S
N196 C201 1.363 . S
N197 C199 1.371 . S
N197 C200 1.372 . S
N198 C200 1.361 . S
N198 C201 1.377 . S
C199 N196 1.382 . S
C199 N197 1.371 . S
C199 C202 1.480 . S
C200 N197 1.372 . S
C200 N198 1.361 . S
C200 C208 1.457 . S
C201 N196 1.363 . S
C201 N198 1.377 . S
C201 C214 1.479 . S
C202 C199 1.480 . S
C202 C203 1.383 . S
C202 C207 1.385 . S
C203 H184 0.947 . S
C203 C202 1.383 . S
C203 C204 1.388 . S
C204 H185 0.946 . S
C204 C203 1.388 . S
C204 C205 1.384 . S
C205 C204 1.384 . S
C205 C206 1.377 . S
C206 H186 0.953 . S
C206 C205 1.377 . S
C206 C207 1.369 . S
C207 H187 0.945 . S
C207 C202 1.385 . S
C207 C206 1.369 . S
C208 C200 1.457 . S
C208 C209 1.372 . S
C208 C213 1.364 . S
C209 H188 0.952 . S
C209 C208 1.372 . S
C209 C210 1.389 . S
C210 H189 0.949 . S
C210 C209 1.389 . S
C210 C211 1.387 . S
C211 C210 1.387 . S
C211 C212 1.372 . S
C212 H190 0.950 . S
C212 C211 1.372 . S
C212 C213 1.379 . S
C213 H191 0.948 . S
C213 C208 1.364 . S
C213 C212 1.379 . S
C214 C183 1.383 . S
C214 C201 1.479 . S
C214 C215 1.398 . S
C215 C180 1.382 . S
C215 H192 0.951 . S
C215 C214 1.398 . S
C216 C217 1.384 . S
C216 H229 0.947 . S
C216 C251 1.382 . S
C217 C216 1.384 . S
C217 C218 1.378 . S
C218 C217 1.378 . S
C218 C219 1.378 . S
C218 H230 0.952 . S
C219 C218 1.378 . S
C219 H231 0.950 . S
C219 C250 1.383 . S
H220 C239 0.947 . S
H221 C240 0.946 . S
H222 C242 0.953 . S
H223 C243 0.945 . S
H224 C245 0.952 . S
H225 C246 0.949 . S
H226 C248 0.950 . S
H227 C249 0.948 . S
H228 C251 0.951 . S
H229 C216 0.947 . S
H230 C218 0.952 . S
H231 C219 0.950 . S
N232 C235 1.382 . S
N232 C237 1.363 . S
N233 C235 1.371 . S
N233 C236 1.372 . S
N234 C236 1.361 . S
N234 C237 1.377 . S
C235 N232 1.382 . S
C235 N233 1.371 . S
C235 C238 1.480 . S
C236 N233 1.372 . S
C236 N234 1.361 . S
C236 C244 1.457 . S
C237 N232 1.363 . S
C237 N234 1.377 . S
C237 C250 1.479 . S
C238 C235 1.480 . S
C238 C239 1.383 . S
C238 C243 1.385 . S
C239 H220 0.947 . S
C239 C238 1.383 . S
C239 C240 1.388 . S
C240 H221 0.946 . S
C240 C239 1.388 . S
C240 C241 1.384 . S
C241 C240 1.384 . S
C241 C242 1.377 . S
C242 H222 0.953 . S
C242 C241 1.377 . S
C242 C243 1.369 . S
C243 H223 0.945 . S
C243 C238 1.385 . S
C243 C242 1.369 . S
C244 C236 1.457 . S
C244 C245 1.372 . S
C244 C249 1.364 . S
C245 H224 0.952 . S
C245 C244 1.372 . S
C245 C246 1.389 . S
C246 H225 0.949 . S
C246 C245 1.389 . S
C246 C247 1.387 . S
C247 C246 1.387 . S
C247 C248 1.372 . S
C248 H226 0.950 . S
C248 C247 1.372 . S
C248 C249 1.379 . S
C249 H227 0.948 . S
C249 C244 1.364 . S
C249 C248 1.379 . S
C250 C219 1.383 . S
C250 C237 1.479 . S
C250 C251 1.398 . S
C251 C216 1.382 . S
C251 H228 0.951 . S
C251 C250 1.398 . S
C252 C253 1.384 . S
C252 H265 0.947 . S
C252 C287 1.382 . S
C253 C252 1.384 . S
C253 C254 1.378 . S
C254 C253 1.378 . S
C254 C255 1.378 . S
C254 H266 0.952 . S
C255 C254 1.378 . S
C255 H267 0.950 . S
C255 C286 1.383 . S
H256 C275 0.947 . S
H257 C276 0.946 . S
H258 C278 0.953 . S
H259 C279 0.945 . S
H260 C281 0.952 . S
H261 C282 0.949 . S
H262 C284 0.950 . S
H263 C285 0.948 . S
H264 C287 0.951 . S
H265 C252 0.947 . S
H266 C254 0.952 . S
H267 C255 0.950 . S
N268 C271 1.382 . S
N268 C273 1.363 . S
N269 C271 1.371 . S
N269 C272 1.372 . S
N270 C272 1.361 . S
N270 C273 1.377 . S
C271 N268 1.382 . S
C271 N269 1.371 . S
C271 C274 1.480 . S
C272 N269 1.372 . S
C272 N270 1.361 . S
C272 C280 1.457 . S
C273 N268 1.363 . S
C273 N270 1.377 . S
C273 C286 1.479 . S
C274 C271 1.480 . S
C274 C275 1.383 . S
C274 C279 1.385 . S
C275 H256 0.947 . S
C275 C274 1.383 . S
C275 C276 1.388 . S
C276 H257 0.946 . S
C276 C275 1.388 . S
C276 C277 1.384 . S
C277 C276 1.384 . S
C277 C278 1.377 . S
C278 H258 0.953 . S
C278 C277 1.377 . S
C278 C279 1.369 . S
C279 H259 0.945 . S
C279 C274 1.385 . S
C279 C278 1.369 . S
C280 C272 1.457 . S
C280 C281 1.372 . S
C280 C285 1.364 . S
C281 H260 0.952 . S
C281 C280 1.372 . S
C281 C282 1.389 . S
C282 H261 0.949 . S
C282 C281 1.389 . S
C282 C283 1.387 . S
C283 C282 1.387 . S
C283 C284 1.372 . S
C284 H262 0.950 . S
C284 C283 1.372 . S
C284 C285 1.379 . S
C285 H263 0.948 . S
C285 C280 1.364 . S
C285 C284 1.379 . S
C286 C255 1.383 . S
C286 C273 1.479 . S
C286 C287 1.398 . S
C287 C252 1.382 . S
C287 H264 0.951 . S
C287 C286 1.398 . S
Zn288 O294 1.969 1_545 S
Zn288 O295 1.965 1_545 S
Zn288 O299 2.024 . S
Zn288 O304 1.969 . S
Zn289 O296 1.969 . S
Zn289 O302 1.969 1_565 S
Zn289 O303 1.965 1_665 S
Zn289 O305 2.024 . S
C290 O291 1.229 . S
C290 O299 1.058 . S
O291 C290 1.229 . S
C292 O293 1.229 . S
C292 O305 1.058 . S
O293 C292 1.229 . S
O294 Zn288 1.969 1_565 S
O294 C297 1.267 . S
O295 Zn288 1.965 1_565 S
O295 C306 1.260 1_455 S
O296 Zn289 1.969 . S
O296 C306 1.258 . S
C297 O294 1.267 . S
C297 O298 1.228 . S
O298 C297 1.228 . S
O299 Zn288 2.024 . S
O299 C290 1.058 . S
C300 O301 1.228 . S
C300 O302 1.267 . S
O301 C300 1.228 . S
O302 Zn289 1.969 1_545 S
O302 C300 1.267 . S
O303 Zn289 1.965 1_445 S
O303 C307 1.260 . S
O304 Zn288 1.969 . S
O304 C307 1.258 . S
O305 Zn289 2.024 . S
O305 C292 1.058 . S
C306 O295 1.260 1_655 S
C306 O296 1.258 . S
C307 O303 1.260 . S
C307 O304 1.258 . S
Zn308 O314 1.969 . S
Zn308 O315 1.965 1_565 S
Zn308 O319 2.024 . S
Zn308 O324 1.969 1_556 S
Zn309 O316 1.969 . S
Zn309 O322 1.969 . S
Zn309 O323 1.965 1_545 S
Zn309 O325 2.024 . S
C310 O311 1.229 . S
C310 O319 1.058 . S
O311 C310 1.229 . S
C312 O313 1.229 . S
C312 O325 1.058 . S
O313 C312 1.229 . S
O314 Zn308 1.969 . S
O314 C317 1.267 . S
O315 Zn308 1.965 1_545 S
O315 C326 1.260 . S
O316 Zn309 1.969 . S
O316 C326 1.258 1_554 S
C317 O314 1.267 . S
C317 O318 1.228 . S
O318 C317 1.228 . S
O319 Zn308 2.024 . S
O319 C310 1.058 . S
C320 O321 1.228 . S
C320 O322 1.267 . S
O321 C320 1.228 . S
O322 Zn309 1.969 . S
O322 C320 1.267 . S
O323 Zn309 1.965 1_565 S
O323 C327 1.260 . S
O324 Zn308 1.969 1_554 S
O324 C327 1.258 . S
O325 Zn309 2.024 . S
O325 C312 1.058 . S
C326 O315 1.260 . S
C326 O316 1.258 1_556 S
C327 O323 1.260 . S
C327 O324 1.258 . S
Zn328 O334 1.969 . S
Zn328 O335 1.965 . S
Zn328 O339 2.024 . S
Zn328 O344 1.969 . S
Zn329 O336 1.969 . S
Zn329 O342 1.969 . S
Zn329 O343 1.965 . S
Zn329 O345 2.024 . S
C330 O331 1.229 . S
C330 O339 1.058 . S
O331 C330 1.229 . S
C332 O333 1.229 . S
C332 O345 1.058 . S
O333 C332 1.229 . S
O334 Zn328 1.969 . S
O334 C337 1.267 . S
O335 Zn328 1.965 . S
O335 C346 1.260 . S
O336 Zn329 1.969 . S
O336 C346 1.258 . S
C337 O334 1.267 . S
C337 O338 1.228 . S
O338 C337 1.228 . S
O339 Zn328 2.024 . S
O339 C330 1.058 . S
C340 O341 1.228 . S
C340 O342 1.267 . S
O341 C340 1.228 . S
O342 Zn329 1.969 . S
O342 C340 1.267 . S
O343 Zn329 1.965 . S
O343 C347 1.260 . S
O344 Zn328 1.969 . S
O344 C347 1.258 . S
O345 Zn329 2.024 . S
O345 C332 1.058 . S
C346 O335 1.260 . S
C346 O336 1.258 . S
C347 O343 1.260 . S
C347 O344 1.258 . S
Zn348 O354 1.969 . S
Zn348 O355 1.965 1_556 S
Zn348 O359 2.024 . S
Zn348 O364 1.969 1_655 S
Zn349 O356 1.969 . S
Zn349 O362 1.969 . S
Zn349 O363 1.965 1_554 S
Zn349 O365 2.024 . S
C350 O351 1.229 . S
C350 O359 1.058 . S
O351 C350 1.229 . S
C352 O353 1.229 . S
C352 O365 1.058 . S
O353 C352 1.229 . S
O354 Zn348 1.969 . S
O354 C357 1.267 . S
O355 Zn348 1.965 1_554 S
O355 C366 1.260 . S
O356 Zn349 1.969 . S
O356 C366 1.258 1_455 S
C357 O354 1.267 . S
C357 O358 1.228 . S
O358 C357 1.228 . S
O359 Zn348 2.024 . S
O359 C350 1.058 . S
C360 O361 1.228 . S
C360 O362 1.267 . S
O361 C360 1.228 . S
O362 Zn349 1.969 . S
O362 C360 1.267 . S
O363 Zn349 1.965 1_556 S
O363 C367 1.260 . S
O364 Zn348 1.969 1_455 S
O364 C367 1.258 . S
O365 Zn349 2.024 . S
O365 C352 1.058 . S
C366 O355 1.260 . S
C366 O356 1.258 1_655 S
C367 O363 1.260 . S
C367 O364 1.258 . S
H368 C374 0.930 . S
H369 C377 0.930 . S
H370 C378 0.930 . S
H371 C379 0.930 . S
H372 C382 0.914 1_565 S
H373 C383 0.930 . S
C374 H368 0.930 . S
C374 C375 1.355 . S
C374 C376 1.415 . S
C375 C374 1.355 . S
C375 C377 1.419 . S
C376 C374 1.415 . S
C376 C381 1.425 . S
C376 C383 1.409 . S
C377 H369 0.930 . S
C377 C375 1.419 . S
C377 C378 1.362 . S
C378 H370 0.930 . S
C378 C377 1.362 . S
C378 C381 1.409 . S
C379 H371 0.930 . S
C379 C380 1.355 . S
C379 C381 1.415 . S
C380 C379 1.355 . S
C380 C382 1.419 . S
C381 C376 1.425 . S
C381 C378 1.409 . S
C381 C379 1.415 . S
C382 H372 0.914 1_545 S
C382 C380 1.419 . S
C382 C383 1.362 . S
C383 H373 0.930 . S
C383 C376 1.409 . S
C383 C382 1.362 . S
H384 C390 0.930 . S
H385 C393 0.930 . S
H386 C394 0.930 . S
H387 C395 0.930 . S
H388 C398 0.930 . S
H389 C399 0.930 . S
C390 H384 0.930 . S
C390 C391 1.355 . S
C390 C392 1.415 . S
C391 C390 1.355 . S
C391 C393 1.419 . S
C392 C390 1.415 . S
C392 C397 1.425 . S
C392 C399 1.409 . S
C393 H385 0.930 . S
C393 C391 1.419 . S
C393 C394 1.362 . S
C394 H386 0.930 . S
C394 C393 1.362 . S
C394 C397 1.409 . S
C395 H387 0.930 . S
C395 C396 1.355 . S
C395 C397 1.415 . S
C396 C395 1.355 . S
C396 C398 1.419 . S
C397 C392 1.425 . S
C397 C394 1.409 . S
C397 C395 1.415 . S
C398 H388 0.930 . S
C398 C396 1.419 . S
C398 C399 1.362 . S
C399 H389 0.930 . S
C399 C392 1.409 . S
C399 C398 1.362 . S
H400 C406 0.930 . S
H401 C409 0.930 . S
H402 C410 0.930 . S
H403 C411 0.930 . S
H404 C414 0.930 . S
H405 C415 0.930 . S
C406 H400 0.930 . S
C406 C407 1.355 . S
C406 C408 1.415 . S
C407 C406 1.355 . S
C407 C409 1.419 . S
C408 C406 1.415 . S
C408 C413 1.425 . S
C408 C415 1.409 . S
C409 H401 0.930 . S
C409 C407 1.419 . S
C409 C410 1.362 . S
C410 H402 0.930 . S
C410 C409 1.362 . S
C410 C413 1.409 . S
C411 H403 0.930 . S
C411 C412 1.355 . S
C411 C413 1.415 . S
C412 C411 1.355 . S
C412 C414 1.419 . S
C413 C408 1.425 . S
C413 C410 1.409 . S
C413 C411 1.415 . S
C414 H404 0.930 . S
C414 C412 1.419 . S
C414 C415 1.362 . S
C415 H405 0.930 . S
C415 C408 1.409 . S
C415 C414 1.362 . S
H416 C422 0.930 . S
H417 C425 0.930 . S
H418 C426 0.930 . S
H419 C427 0.930 . S
H420 C430 0.930 . S
H421 C431 0.930 . S
C422 H416 0.930 . S
C422 C423 1.355 . S
C422 C424 1.415 . S
C423 C422 1.355 . S
C423 C425 1.419 . S
C424 C422 1.415 . S
C424 C429 1.425 . S
C424 C431 1.409 . S
C425 H417 0.930 . S
C425 C423 1.419 . S
C425 C426 1.362 . S
C426 H418 0.930 . S
C426 C425 1.362 . S
C426 C429 1.409 . S
C427 H419 0.930 . S
C427 C428 1.355 . S
C427 C429 1.415 . S
C428 C427 1.355 . S
C428 C430 1.419 . S
C429 C424 1.425 . S
C429 C426 1.409 . S
C429 C427 1.415 . S
C430 H420 0.930 . S
C430 C428 1.419 . S
C430 C431 1.362 . S
C431 H421 0.930 . S
C431 C424 1.409 . S
C431 C430 1.362 . S
H432 C438 0.930 . S
H433 C441 0.930 . S
H434 C442 0.930 . S
H435 C443 0.930 . S
H436 C446 0.930 . S
H437 C447 0.930 . S
C438 H432 0.930 . S
C438 C439 1.355 . S
C438 C440 1.415 . S
C439 C438 1.355 . S
C439 C441 1.419 . S
C440 C438 1.415 . S
C440 C445 1.425 . S
C440 C447 1.409 . S
C441 H433 0.930 . S
C441 C439 1.419 . S
C441 C442 1.362 . S
C442 H434 0.930 . S
C442 C441 1.362 . S
C442 C445 1.409 . S
C443 H435 0.930 . S
C443 C444 1.355 . S
C443 C445 1.415 . S
C444 C443 1.355 . S
C444 C446 1.419 . S
C445 C440 1.425 . S
C445 C442 1.409 . S
C445 C443 1.415 . S
C446 H436 0.930 . S
C446 C444 1.419 . S
C446 C447 1.362 . S
C447 H437 0.930 . S
C447 C440 1.409 . S
C447 C446 1.362 . S
H448 C454 0.930 . S
H449 C457 0.930 . S
H450 C458 0.930 . S
H451 C459 0.930 . S
H452 C462 0.930 . S
H453 C463 0.930 . S
C454 H448 0.930 . S
C454 C455 1.355 . S
C454 C456 1.415 . S
C455 C454 1.355 . S
C455 C457 1.419 . S
C456 C454 1.415 . S
C456 C461 1.425 . S
C456 C463 1.409 . S
C457 H449 0.930 . S
C457 C455 1.419 . S
C457 C458 1.362 . S
C458 H450 0.930 . S
C458 C457 1.362 . S
C458 C461 1.409 . S
C459 H451 0.930 . S
C459 C460 1.355 . S
C459 C461 1.415 . S
C460 C459 1.355 . S
C460 C462 1.419 . S
C461 C456 1.425 . S
C461 C458 1.409 . S
C461 C459 1.415 . S
C462 H452 0.930 . S
C462 C460 1.419 . S
C462 C463 1.362 . S
C463 H453 0.930 . S
C463 C456 1.409 . S
C463 C462 1.362 . S
H464 C470 0.930 . S
H465 C473 0.930 . S
H466 C474 0.930 . S
H467 C475 0.930 . S
H468 C478 0.930 . S
H469 C479 0.930 . S
C470 H464 0.930 . S
C470 C471 1.355 . S
C470 C472 1.415 . S
C471 C470 1.355 . S
C471 C473 1.419 . S
C472 C470 1.415 . S
C472 C477 1.425 . S
C472 C479 1.409 . S
C473 H465 0.930 . S
C473 C471 1.419 . S
C473 C474 1.362 . S
C474 H466 0.930 . S
C474 C473 1.362 . S
C474 C477 1.409 . S
C475 H467 0.930 . S
C475 C476 1.355 . S
C475 C477 1.415 . S
C476 C475 1.355 . S
C476 C478 1.419 . S
C477 C472 1.425 . S
C477 C474 1.409 . S
C477 C475 1.415 . S
C478 H468 0.930 . S
C478 C476 1.419 . S
C478 C479 1.362 . S
C479 H469 0.930 . S
C479 C472 1.409 . S
C479 C478 1.362 . S
H480 C486 0.930 . S
H481 C489 0.930 . S
H482 C490 0.930 . S
H483 C491 0.930 . S
H484 C494 0.930 . S
H485 C495 0.930 . S
C486 H480 0.930 . S
C486 C487 1.355 . S
C486 C488 1.415 . S
C487 C486 1.355 . S
C487 C489 1.419 . S
C488 C486 1.415 . S
C488 C493 1.425 . S
C488 C495 1.409 . S
C489 H481 0.930 . S
C489 C487 1.419 . S
C489 C490 1.362 . S
C490 H482 0.930 . S
C490 C489 1.362 . S
C490 C493 1.409 . S
C491 H483 0.930 . S
C491 C492 1.355 . S
C491 C493 1.415 . S
C492 C491 1.355 . S
C492 C494 1.419 . S
C493 C488 1.425 . S
C493 C490 1.409 . S
C493 C491 1.415 . S
C494 H484 0.930 . S
C494 C492 1.419 . S
C494 C495 1.362 . S
C495 H485 0.930 . S
C495 C488 1.409 . S
C495 C494 1.362 . S
H496 C502 0.930 . S
H497 C505 0.930 . S
H498 C506 0.930 . S
H499 C507 0.930 . S
H500 C510 0.930 . S
H501 C511 0.930 . S
C502 H496 0.930 . S
C502 C503 1.355 . S
C502 C504 1.415 . S
C503 C502 1.355 . S
C503 C505 1.419 . S
C504 C502 1.415 . S
C504 C509 1.425 . S
C504 C511 1.409 . S
C505 H497 0.930 . S
C505 C503 1.419 . S
C505 C506 1.362 . S
C506 H498 0.930 . S
C506 C505 1.362 . S
C506 C509 1.409 . S
C507 H499 0.930 . S
C507 C508 1.355 . S
C507 C509 1.415 . S
C508 C507 1.355 . S
C508 C510 1.419 . S
C509 C504 1.425 . S
C509 C506 1.409 . S
C509 C507 1.415 . S
C510 H500 0.930 . S
C510 C508 1.419 . S
C510 C511 1.362 . S
C511 H501 0.930 . S
C511 C504 1.409 . S
C511 C510 1.362 . S
H512 C518 0.930 . S
H513 C521 0.930 . S
H514 C522 0.930 . S
H515 C523 0.930 . S
H516 C526 0.930 . S
H517 C527 0.930 . S
C518 H512 0.930 . S
C518 C519 1.355 . S
C518 C520 1.415 . S
C519 C518 1.355 . S
C519 C521 1.419 . S
C520 C518 1.415 . S
C520 C525 1.425 . S
C520 C527 1.409 . S
C521 H513 0.930 . S
C521 C519 1.419 . S
C521 C522 1.362 . S
C522 H514 0.930 . S
C522 C521 1.362 . S
C522 C525 1.409 . S
C523 H515 0.930 . S
C523 C524 1.355 . S
C523 C525 1.415 . S
C524 C523 1.355 . S
C524 C526 1.419 . S
C525 C520 1.425 . S
C525 C522 1.409 . S
C525 C523 1.415 . S
C526 H516 0.930 . S
C526 C524 1.419 . S
C526 C527 1.362 . S
C527 H517 0.930 . S
C527 C520 1.409 . S
C527 C526 1.362 . S
H528 C534 0.930 . S
H529 C537 0.930 . S
H530 C538 0.930 . S
H531 C539 0.930 . S
H532 C542 0.930 . S
H533 C543 0.930 . S
C534 H528 0.930 . S
C534 C535 1.355 . S
C534 C536 1.415 . S
C535 C534 1.355 . S
C535 C537 1.419 . S
C536 C534 1.415 . S
C536 C541 1.425 . S
C536 C543 1.409 . S
C537 H529 0.930 . S
C537 C535 1.419 . S
C537 C538 1.362 . S
C538 H530 0.930 . S
C538 C537 1.362 . S
C538 C541 1.409 . S
C539 H531 0.930 . S
C539 C540 1.355 . S
C539 C541 1.415 . S
C540 C539 1.355 . S
C540 C542 1.419 . S
C541 C536 1.425 . S
C541 C538 1.409 . S
C541 C539 1.415 . S
C542 H532 0.930 . S
C542 C540 1.419 . S
C542 C543 1.362 . S
C543 H533 0.930 . S
C543 C536 1.409 . S
C543 C542 1.362 . S
H544 C550 0.930 . S
H545 C553 0.930 . S
H546 C554 0.930 . S
H547 C555 0.930 . S
H548 C558 0.930 . S
H549 C559 0.930 . S
C550 H544 0.930 . S
C550 C551 1.355 . S
C550 C552 1.415 . S
C551 C550 1.355 . S
C551 C553 1.419 . S
C552 C550 1.415 . S
C552 C557 1.425 . S
C552 C559 1.409 . S
C553 H545 0.930 . S
C553 C551 1.419 . S
C553 C554 1.362 . S
C554 H546 0.930 . S
C554 C553 1.362 . S
C554 C557 1.409 . S
C555 H547 0.930 . S
C555 C556 1.355 . S
C555 C557 1.415 . S
C556 C555 1.355 . S
C556 C558 1.419 . S
C557 C552 1.425 . S
C557 C554 1.409 . S
C557 C555 1.415 . S
C558 H548 0.930 . S
C558 C556 1.419 . S
C558 C559 1.362 . S
C559 H549 0.930 . S
C559 C552 1.409 . S
C559 C558 1.362 . S
H560 C566 0.930 . S
H561 C569 0.930 . S
H562 C570 0.930 . S
H563 C571 0.930 . S
H564 C574 0.930 . S
H565 C575 0.930 . S
C566 H560 0.930 . S
C566 C567 1.355 . S
C566 C568 1.415 . S
C567 C566 1.355 . S
C567 C569 1.419 . S
C568 C566 1.415 . S
C568 C573 1.425 . S
C568 C575 1.409 . S
C569 H561 0.930 . S
C569 C567 1.419 . S
C569 C570 1.362 . S
C570 H562 0.930 . S
C570 C569 1.362 . S
C570 C573 1.409 . S
C571 H563 0.930 . S
C571 C572 1.355 . S
C571 C573 1.415 . S
C572 C571 1.355 . S
C572 C574 1.419 . S
C573 C568 1.425 . S
C573 C570 1.409 . S
C573 C571 1.415 . S
C574 H564 0.930 . S
C574 C572 1.419 . S
C574 C575 1.362 . S
C575 H565 0.930 . S
C575 C568 1.409 . S
C575 C574 1.362 . S
H576 C582 0.930 . S
H577 C585 0.930 . S
H578 C586 0.930 . S
H579 C587 0.930 . S
H580 C590 0.930 . S
H581 C591 0.930 . S
C582 H576 0.930 . S
C582 C583 1.355 . S
C582 C584 1.415 . S
C583 C582 1.355 . S
C583 C585 1.419 . S
C584 C582 1.415 . S
C584 C589 1.425 . S
C584 C591 1.409 . S
C585 H577 0.930 . S
C585 C583 1.419 . S
C585 C586 1.362 . S
C586 H578 0.930 . S
C586 C585 1.362 . S
C586 C589 1.409 . S
C587 H579 0.930 . S
C587 C588 1.355 . S
C587 C589 1.415 . S
C588 C587 1.355 . S
C588 C590 1.419 . S
C589 C584 1.425 . S
C589 C586 1.409 . S
C589 C587 1.415 . S
C590 H580 0.930 . S
C590 C588 1.419 . S
C590 C591 1.362 . S
C591 H581 0.930 . S
C591 C584 1.409 . S
C591 C590 1.362 . S
H592 C598 0.930 . S
H593 C601 0.930 . S
H594 C602 0.930 . S
H595 C603 0.930 . S
H596 C606 0.930 . S
H597 C607 0.930 . S
C598 H592 0.930 . S
C598 C599 1.355 . S
C598 C600 1.415 . S
C599 C598 1.355 . S
C599 C601 1.419 . S
C600 C598 1.415 . S
C600 C605 1.425 . S
C600 C607 1.409 . S
C601 H593 0.930 . S
C601 C599 1.419 . S
C601 C602 1.362 . S
C602 H594 0.930 . S
C602 C601 1.362 . S
C602 C605 1.409 . S
C603 H595 0.930 . S
C603 C604 1.355 . S
C603 C605 1.415 . S
C604 C603 1.355 . S
C604 C606 1.419 . S
C605 C600 1.425 . S
C605 C602 1.409 . S
C605 C603 1.415 . S
C606 H596 0.930 . S
C606 C604 1.419 . S
C606 C607 1.362 . S
C607 H597 0.930 . S
C607 C600 1.409 . S
C607 C606 1.362 . S
H608 C614 0.930 . S
H609 C617 0.930 . S
H610 C618 0.930 . S
H611 C619 0.930 . S
H612 C622 0.930 . S
H613 C623 0.930 . S
C614 H608 0.930 . S
C614 C615 1.355 . S
C614 C616 1.415 . S
C615 C614 1.355 . S
C615 C617 1.419 . S
C616 C614 1.415 . S
C616 C621 1.425 . S
C616 C623 1.409 . S
C617 H609 0.930 . S
C617 C615 1.419 . S
C617 C618 1.362 . S
C618 H610 0.930 . S
C618 C617 1.362 . S
C618 C621 1.409 . S
C619 H611 0.930 . S
C619 C620 1.355 . S
C619 C621 1.415 . S
C620 C619 1.355 . S
C620 C622 1.419 . S
C621 C616 1.425 . S
C621 C618 1.409 . S
C621 C619 1.415 . S
C622 H612 0.930 . S
C622 C620 1.419 . S
C622 C623 1.362 . S
C623 H613 0.930 . S
C623 C616 1.409 . S
C623 C622 1.362 . S
H624 C630 0.930 . S
H625 C633 0.930 . S
H626 C634 0.930 . S
H627 C635 0.930 . S
H628 C638 0.930 . S
H629 C639 0.930 . S
C630 H624 0.930 . S
C630 C631 1.355 . S
C630 C632 1.415 . S
C631 C630 1.355 . S
C631 C633 1.419 . S
C632 C630 1.415 . S
C632 C637 1.425 . S
C632 C639 1.409 . S
C633 H625 0.930 . S
C633 C631 1.419 . S
C633 C634 1.362 . S
C634 H626 0.930 . S
C634 C633 1.362 . S
C634 C637 1.409 . S
C635 H627 0.930 . S
C635 C636 1.355 . S
C635 C637 1.415 . S
C636 C635 1.355 . S
C636 C638 1.419 . S
C637 C632 1.425 . S
C637 C634 1.409 . S
C637 C635 1.415 . S
C638 H628 0.930 . S
C638 C636 1.419 . S
C638 C639 1.362 . S
C639 H629 0.930 . S
C639 C632 1.409 . S
C639 C638 1.362 . S
H640 C646 0.930 . S
H641 C649 0.930 . S
H642 C650 0.930 . S
H643 C651 0.930 . S
H644 C654 0.930 . S
H645 C655 0.930 . S
C646 H640 0.930 . S
C646 C647 1.355 . S
C646 C648 1.415 . S
C647 C646 1.355 . S
C647 C649 1.419 . S
C648 C646 1.415 . S
C648 C653 1.425 . S
C648 C655 1.409 . S
C649 H641 0.930 . S
C649 C647 1.419 . S
C649 C650 1.362 . S
C650 H642 0.930 . S
C650 C649 1.362 . S
C650 C653 1.409 . S
C651 H643 0.930 . S
C651 C652 1.355 . S
C651 C653 1.415 . S
C652 C651 1.355 . S
C652 C654 1.419 . S
C653 C648 1.425 . S
C653 C650 1.409 . S
C653 C651 1.415 . S
C654 H644 0.930 . S
C654 C652 1.419 . S
C654 C655 1.362 . S
C655 H645 0.930 . S
C655 C648 1.409 . S
C655 C654 1.362 . S
H656 C662 0.930 . S
H657 C665 0.930 . S
H658 C666 0.930 . S
H659 C667 0.930 . S
H660 C670 0.930 . S
H661 C671 0.930 . S
C662 H656 0.930 . S
C662 C663 1.355 . S
C662 C664 1.415 . S
C663 C662 1.355 . S
C663 C665 1.419 . S
C664 C662 1.415 . S
C664 C669 1.425 . S
C664 C671 1.409 . S
C665 H657 0.930 . S
C665 C663 1.419 . S
C665 C666 1.362 . S
C666 H658 0.930 . S
C666 C665 1.362 . S
C666 C669 1.409 . S
C667 H659 0.930 . S
C667 C668 1.355 . S
C667 C669 1.415 . S
C668 C667 1.355 . S
C668 C670 1.419 . S
C669 C664 1.425 . S
C669 C666 1.409 . S
C669 C667 1.415 . S
C670 H660 0.930 . S
C670 C668 1.419 . S
C670 C671 1.362 . S
C671 H661 0.930 . S
C671 C664 1.409 . S
C671 C670 1.362 . S
H672 C678 0.930 . S
H673 C681 0.930 . S
H674 C682 0.930 . S
H675 C683 0.930 . S
H676 C686 0.930 . S
H677 C687 0.930 . S
C678 H672 0.930 . S
C678 C679 1.355 . S
C678 C680 1.415 . S
C679 C678 1.355 . S
C679 C681 1.419 . S
C680 C678 1.415 . S
C680 C685 1.425 . S
C680 C687 1.409 . S
C681 H673 0.930 . S
C681 C679 1.419 . S
C681 C682 1.362 . S
C682 H674 0.930 . S
C682 C681 1.362 . S
C682 C685 1.409 . S
C683 H675 0.930 . S
C683 C684 1.355 . S
C683 C685 1.415 . S
C684 C683 1.355 . S
C684 C686 1.419 . S
C685 C680 1.425 . S
C685 C682 1.409 . S
C685 C683 1.415 . S
C686 H676 0.930 . S
C686 C684 1.419 . S
C686 C687 1.362 . S
C687 H677 0.930 . S
C687 C680 1.409 . S
C687 C686 1.362 . S
H688 C694 0.930 . S
H689 C697 0.930 . S
H690 C698 0.930 . S
H691 C699 0.930 . S
H692 C702 0.930 . S
H693 C703 0.930 . S
C694 H688 0.930 . S
C694 C695 1.355 . S
C694 C696 1.415 . S
C695 C694 1.355 . S
C695 C697 1.419 . S
C696 C694 1.415 . S
C696 C701 1.425 . S
C696 C703 1.409 . S
C697 H689 0.930 . S
C697 C695 1.419 . S
C697 C698 1.362 . S
C698 H690 0.930 . S
C698 C697 1.362 . S
C698 C701 1.409 . S
C699 H691 0.930 . S
C699 C700 1.355 . S
C699 C701 1.415 . S
C700 C699 1.355 . S
C700 C702 1.419 . S
C701 C696 1.425 . S
C701 C698 1.409 . S
C701 C699 1.415 . S
C702 H692 0.930 . S
C702 C700 1.419 . S
C702 C703 1.362 . S
C703 H693 0.930 . S
C703 C696 1.409 . S
C703 C702 1.362 . S
H704 C710 0.930 . S
H705 C713 0.930 . S
H706 C714 0.930 . S
H707 C715 0.930 . S
H708 C718 0.930 . S
H709 C719 0.930 . S
C710 H704 0.930 . S
C710 C711 1.355 . S
C710 C712 1.415 . S
C711 C710 1.355 . S
C711 C713 1.419 . S
C712 C710 1.415 . S
C712 C717 1.425 . S
C712 C719 1.409 . S
C713 H705 0.930 . S
C713 C711 1.419 . S
C713 C714 1.362 . S
C714 H706 0.930 . S
C714 C713 1.362 . S
C714 C717 1.409 . S
C715 H707 0.930 . S
C715 C716 1.355 . S
C715 C717 1.415 . S
C716 C715 1.355 . S
C716 C718 1.419 . S
C717 C712 1.425 . S
C717 C714 1.409 . S
C717 C715 1.415 . S
C718 H708 0.930 . S
C718 C716 1.419 . S
C718 C719 1.362 . S
C719 H709 0.930 . S
C719 C712 1.409 . S
C719 C718 1.362 . S
H720 C726 0.930 . S
H721 C729 0.930 . S
H722 C730 0.930 . S
H723 C731 0.930 . S
H724 C734 0.930 . S
H725 C735 0.930 . S
C726 H720 0.930 . S
C726 C727 1.355 . S
C726 C728 1.415 . S
C727 C726 1.355 . S
C727 C729 1.419 . S
C728 C726 1.415 . S
C728 C733 1.425 . S
C728 C735 1.409 . S
C729 H721 0.930 . S
C729 C727 1.419 . S
C729 C730 1.362 . S
C730 H722 0.930 . S
C730 C729 1.362 . S
C730 C733 1.409 . S
C731 H723 0.930 . S
C731 C732 1.355 . S
C731 C733 1.415 . S
C732 C731 1.355 . S
C732 C734 1.419 . S
C733 C728 1.425 . S
C733 C730 1.409 . S
C733 C731 1.415 . S
C734 H724 0.930 . S
C734 C732 1.419 . S
C734 C735 1.362 . S
C735 H725 0.930 . S
C735 C728 1.409 . S
C735 C734 1.362 . S
H736 C742 0.930 . S
H737 C745 0.930 . S
H738 C746 0.930 . S
H739 C747 0.930 . S
H740 C750 0.930 . S
H741 C751 0.930 . S
C742 H736 0.930 . S
C742 C743 1.355 . S
C742 C744 1.415 . S
C743 C742 1.355 . S
C743 C745 1.419 . S
C744 C742 1.415 . S
C744 C749 1.425 . S
C744 C751 1.409 . S
C745 H737 0.930 . S
C745 C743 1.419 . S
C745 C746 1.362 . S
C746 H738 0.930 . S
C746 C745 1.362 . S
C746 C749 1.409 . S
C747 H739 0.930 . S
C747 C748 1.355 . S
C747 C749 1.415 . S
C748 C747 1.355 . S
C748 C750 1.419 . S
C749 C744 1.425 . S
C749 C746 1.409 . S
C749 C747 1.415 . S
C750 H740 0.930 . S
C750 C748 1.419 . S
C750 C751 1.362 . S
C751 H741 0.930 . S
C751 C744 1.409 . S
C751 C750 1.362 . S
C375 C1 1.520 . S
C380 C307 1.468 . S
C391 C67 1.303 . S
C396 C310 1.214 . S
C412 C346 1.754 . S
C407 C97 1.770 . S
C423 C133 1.656 . S
C428 C366 1.687 . S
C444 C320 1.633 . S
C439 C25 1.693 . S
C460 C297 1.463 . S
C455 C37 1.504 . S
C476 C350 1.555 . S
C471 C103 1.686 . S
C492 C330 1.344 . S
C487 C109 1.468 . S
C503 C31 1.400 . S
C508 C360 1.366 . S
C524 C326 1.622 . S
C519 C73 1.638 . S
C535 C139 1.622 . S
C540 C292 1.593 . S
C551 C61 1.321 . S
C556 C340 1.330 . S
C572 C306 1.482 . S
C567 C175 1.500 . S
C583 C181 1.293 . S
C588 C312 1.201 . S
C599 C247 1.772 . S
C604 C347 1.785 . S
C615 C277 1.654 . S
C620 C367 1.637 . S
C631 C145 1.692 . S
C636 C317 1.667 . S
C652 C300 1.479 . S
C647 C211 1.519 . S
C668 C352 1.557 . S
C663 C217 1.653 . S
C684 C332 1.431 . S
C679 C283 1.463 . S
C695 C169 1.331 . S
C700 C357 1.274 . S
C716 C327 1.606 . S
C711 C241 1.645 . S
C732 C290 1.574 . S
C727 C253 1.653 . S
C743 C205 1.321 . S
C748 C337 1.335 . S
