# Generated by pormake.
# Topology pts, (4,4)-cn, num edge types: 1
# Building blocks:
#     Node 0, Type 0, BuildingBlock: KUFVIS_clean_linker_0, # of connection points: 4
#     Node 1, Type 0, BuildingBlock: KUFVIS_clean_linker_0, # of connection points: 4
#     Node 2, Type 1, BuildingBlock: UXUYUI_clean_sbu_0, # of connection points: 4
#     Node 3, Type 1, BuildingBlock: UXUYUI_clean_sbu_0, # of connection points: 4
#     Edge 4, Type (0, 1), BuildingBlock: KIFKEQ_clean_linker_1, # of connection points: 2
#     Edge 5, Type (0, 1), BuildingBlock: KIFKEQ_clean_linker_1, # of connection points: 2
#     Edge 6, Type (0, 1), BuildingBlock: KIFKEQ_clean_linker_1, # of connection points: 2
#     Edge 7, Type (0, 1), BuildingBlock: KIFKEQ_clean_linker_1, # of connection points: 2
#     Edge 8, Type (0, 1), BuildingBlock: KIFKEQ_clean_linker_1, # of connection points: 2
#     Edge 9, Type (0, 1), BuildingBlock: KIFKEQ_clean_linker_1, # of connection points: 2
#     Edge 10, Type (0, 1), BuildingBlock: KIFKEQ_clean_linker_1, # of connection points: 2
#     Edge 11, Type (0, 1), BuildingBlock: KIFKEQ_clean_linker_1, # of connection points: 2
# Relax obj value: 0.008
# Max RMSD: 0.067
# Mean RMSD: 0.060
data_MOF--net-pts--node1-UXUYUI_clean_sbu_0--node2-KUFVIS_clean_linker_0--edge1-KIFKEQ_clean_linker_1
_symmetry_space_group_name_H-M    P1
_symmetry_Int_Tables_number       1
_symmetry_cell_setting            triclinic
loop_
_symmetry_equiv_pos_as_xyz
'x, y, z'
_cell_length_a     31.521284
_cell_length_b     31.596102
_cell_length_c     43.032613
_cell_angle_alpha  89.93334
_cell_angle_beta   89.867722
_cell_angle_gamma 89.960078
loop_
_atom_site_label
_atom_site_type_symbol
_atom_site_fract_x
_atom_site_fract_y
_atom_site_fract_z
_atom_type_partial_charge
H0 H 0.38654 1.02246 -0.01151 0.0
H1 H 0.50446 0.99962 0.94204 0.0
H2 H 0.50252 0.04907 0.03614 0.0
H3 H 0.56433 1.01386 0.03913 0.0
H4 H 0.68176 0.02729 -0.01002 0.0
H5 H 0.56514 0.03648 0.93963 0.0
C6 C 0.42098 1.02296 -0.01129 0.0
C7 C 0.44217 0.0367 0.01529 0.0
C8 C 0.44329 1.01004 0.96235 0.0
C9 C 0.4878 1.01067 0.9625 0.0
C10 C 0.51027 1.02434 -0.01084 0.0
C11 C 0.4867 0.03736 0.01558 0.0
C12 C 0.55794 0.02513 -0.01064 0.0
C13 C 0.58073 1.01971 0.01742 0.0
C14 C 0.62523 1.02067 0.01756 0.0
C15 C 0.64732 0.02677 -0.01021 0.0
C16 C 0.62574 0.03197 0.96177 0.0
C17 C 0.58121 0.03128 0.9615 0.0
H18 H 0.03684 0.67413 0.48501 0.0
H19 H 1.01503 0.56127 0.53757 0.0
H20 H 0.04792 0.55418 0.43966 0.0
H21 H 1.01071 0.49514 0.44169 0.0
H22 H 1.01396 0.38077 0.4951 0.0
H23 H 0.045 0.49771 0.53928 0.0
C24 C 0.03577 0.63981 0.48614 0.0
C25 C 0.04297 0.61613 0.4593 0.0
C26 C 0.02632 0.61998 0.51429 0.0
C27 C 1.02402 0.5757 0.51572 0.0
C28 C 0.03159 0.55076 0.48892 0.0
C29 C 0.04129 0.57178 0.46066 0.0
C30 C 0.02802 0.50332 0.49034 0.0
C31 C 1.01679 0.47963 0.46366 0.0
C32 C 1.0121 0.43546 0.46519 0.0
C33 C 1.01729 0.41491 0.49371 0.0
C34 C 0.02848 0.43738 0.52035 0.0
C35 C 0.03492 0.48123 0.51855 0.0
Li36 Li 0.0317 0.06633 0.26269 0.0
Li37 Li 0.03634 0.98813 0.26077 0.0
Li38 Li 0.07171 0.03342 0.21939 0.0
Li39 Li 0.99411 1.0245 0.22261 0.0
C40 C 0.11511 0.04073 0.2846 0.0
N41 N 0.17996 0.06191 0.32483 0.0
C42 C 0.11494 0.02552 0.31511 0.0
C43 C 0.14856 0.06637 0.27447 0.0
C44 C 0.14793 0.03667 0.33512 0.0
C45 C 0.18095 0.07682 0.29519 0.0
C46 C 0.96601 1.00793 0.29387 0.0
C47 C 0.92555 0.95267 0.31883 0.0
N48 N 0.9273 0.97441 0.34605 0.0
C49 C 0.96733 0.02978 0.32208 0.0
C50 C 0.94487 0.9691 0.29217 0.0
C51 C 0.94757 1.01228 0.3482 0.0
C52 C 0.99628 0.1443 0.27789 0.0
N53 N 0.02722 0.11694 0.28691 0.0
C54 C 0.04982 0.16494 0.32644 0.0
C55 C 0.05362 0.12637 0.31085 0.0
C56 C 1.01853 0.19414 0.31733 0.0
C57 C 0.99136 0.18325 0.29279 0.0
H58 H 0.97574 0.13603 0.25872 0.0
H59 H 0.0777 0.10423 0.31794 0.0
C60 C 0.05272 0.90089 0.26723 0.0
N61 N 0.04244 0.93622 0.28369 0.0
C62 C 0.05541 0.86155 0.28202 0.0
C63 C 0.0373 0.89562 0.33049 0.0
C64 C 0.0357 0.93435 0.3149 0.0
C65 C 0.04692 0.85856 0.31396 0.0
H66 H 0.05834 0.90316 0.2425 0.0
H67 H 0.02822 0.96276 0.3277 0.0
C68 C 0.04039 0.11635 0.2071 0.0
N69 N 0.06754 0.19493 0.1871 0.0
C70 C 1.0194 0.13688 0.1828 0.0
C71 C 0.07498 0.13589 0.22135 0.0
C72 C 0.03368 0.17656 0.17297 0.0
C73 C 0.08826 0.1756 0.2109 0.0
C74 C 1.01916 0.96003 0.19064 0.0
C75 C 0.03056 0.97 0.1601 0.0
C76 C 0.98727 0.93027 0.19626 0.0
C77 C 1.00954 0.95015 0.13557 0.0
C78 C 0.96696 0.91118 0.17109 0.0
N79 N 0.97841 0.92144 0.14153 0.0
C80 C 0.15568 1.0155 0.2023 0.0
C81 C 0.12196 0.0646 0.16883 0.0
C82 C 0.19353 1.01897 0.18553 0.0
N83 N 0.12105 0.03845 0.19392 0.0
C84 C 0.15918 0.06921 0.15147 0.0
C85 C 0.19576 0.04628 0.15976 0.0
H86 H 0.15394 0.99469 0.22225 0.0
H87 H 0.09389 0.08207 0.16231 0.0
C88 C 0.90698 1.00772 0.21264 0.0
N89 N 0.943 1.02216 0.19881 0.0
C90 C 0.86896 1.00613 0.19613 0.0
C91 C 0.90552 0.03502 0.15148 0.0
C92 C 0.94297 0.0357 0.16881 0.0
C93 C 0.86784 1.02008 0.16517 0.0
H94 H 0.9076 0.99779 0.2366 0.0
H95 H 0.97207 0.04705 0.15837 0.0
O96 O 0.08322 0.0298 0.26461 0.0
O97 O 0.98499 1.0247 0.26803 0.0
O98 O 0.02679 0.07745 0.21693 0.0
O99 O 0.03853 0.97997 0.21492 0.0
H100 H 0.08941 1.00573 0.32338 0.0
H101 H 0.14973 0.07799 0.25086 0.0
H102 H 0.14802 0.02531 0.35884 0.0
H103 H 0.20694 0.09672 0.28766 0.0
H104 H 0.90937 0.92252 0.3179 0.0
H105 H 0.98348 0.05986 0.32383 0.0
H106 H 0.94407 0.95144 0.27066 0.0
H107 H 0.94841 0.0288 0.3702 0.0
H108 H 0.07093 0.17162 0.34563 0.0
H109 H 0.96703 0.20486 0.28481 0.0
H110 H 0.06292 0.83362 0.2685 0.0
H111 H 0.03112 0.89465 0.35526 0.0
H112 H 0.99241 0.12229 0.17162 0.0
H113 H 0.09111 0.12073 0.24044 0.0
H114 H 1.01783 0.19276 0.15412 0.0
H115 H 0.11499 0.19109 0.22176 0.0
H116 H 0.05509 0.99312 0.15542 0.0
H117 H 0.978 0.9224 0.2198 0.0
H118 H 1.01787 0.95768 0.1118 0.0
H119 H 0.94201 0.8883 0.17506 0.0
H120 H 0.22056 1.00006 0.19247 0.0
H121 H 0.15937 0.09091 0.13198 0.0
H122 H 0.84054 0.9949 0.20767 0.0
H123 H 0.90609 0.04568 0.12755 0.0
Li124 Li 0.99516 0.03032 0.75565 0.0
Li125 Li 0.07466 1.02019 0.75992 0.0
Li126 Li 0.03982 0.06743 0.72 0.0
Li127 Li 0.03422 0.99224 0.71642 0.0
C128 C 1.02302 0.08853 0.79312 0.0
N129 N 0.98687 0.11744 0.84769 0.0
C130 C 0.03893 0.07519 0.82179 0.0
C131 C 0.98884 0.11674 0.7922 0.0
C132 C 1.02022 0.09017 0.84912 0.0
C133 C 0.97095 0.13091 0.82004 0.0
C134 C 1.01609 0.93682 0.76142 0.0
C135 C 0.03156 0.8622 0.76478 0.0
N136 N 0.99021 0.8534 0.75857 0.0
C137 C 0.97372 0.92706 0.75516 0.0
C138 C 0.04527 0.90418 0.76635 0.0
C139 C 0.96127 0.88468 0.75379 0.0
C140 C 0.90737 0.04568 0.76537 0.0
N141 N 0.94339 0.03117 0.77907 0.0
C142 C 0.90544 1.01637 0.82604 0.0
C143 C 0.94306 1.01631 0.80874 0.0
C144 C 0.86793 0.03198 0.81263 0.0
C145 C 0.86922 0.04677 0.78189 0.0
H146 H 0.90805 0.05608 0.74151 0.0
H147 H 0.97206 1.00444 0.81895 0.0
C148 C 0.15655 0.03968 0.77995 0.0
N149 N 0.12337 1.0132 0.78529 0.0
C150 C 0.19436 0.03484 0.79641 0.0
C151 C 0.16286 0.97599 0.82399 0.0
C152 C 0.12562 0.98197 0.80695 0.0
C153 C 0.19802 1.00249 0.81869 0.0
H154 H 0.15373 0.06426 0.76255 0.0
H155 H 0.09862 0.96156 0.81085 0.0
C156 C 0.97326 0.05931 0.68687 0.0
N157 N 0.94566 0.11239 0.63991 0.0
C158 C 0.97863 0.04779 0.65574 0.0
C159 C 0.9538 0.0979 0.69405 0.0
C160 C 0.96442 0.07501 0.63236 0.0
C161 C 0.94014 0.1243 0.67001 0.0
C162 C 0.11193 1.00595 0.69359 0.0
C163 C 0.10015 1.00514 0.66231 0.0
C164 C 0.14914 0.98551 0.70296 0.0
C165 C 0.12562 0.98362 0.64092 0.0
C166 C 0.17381 0.96441 0.68085 0.0
N167 N 0.16162 0.96388 0.65055 0.0
C168 C 0.04213 0.15668 0.71575 0.0
C169 C 0.0577 0.12208 0.66828 0.0
C170 C 0.04479 0.19621 0.70133 0.0
N171 N 0.04784 0.12061 0.69905 0.0
C172 C 0.06074 0.16095 0.65292 0.0
C173 C 0.05375 0.19872 0.6694 0.0
H174 H 0.03496 0.15479 0.74025 0.0
H175 H 0.06215 0.09311 0.65545 0.0
C176 C 0.99441 0.93443 0.67536 0.0
N177 N 0.0309 0.94219 0.69113 0.0
C178 C 0.98958 0.89695 0.65856 0.0
C179 C 0.05936 0.8753 0.67542 0.0
C180 C 0.06291 0.91328 0.69174 0.0
C181 C 1.02235 0.86679 0.65846 0.0
H182 H 0.96858 0.9569 0.67643 0.0
H183 H 0.09083 0.91918 0.70554 0.0
O184 O 0.04028 0.0734 0.76611 0.0
O185 O 0.02909 0.9781 0.76196 0.0
O186 O 0.9876 0.03338 0.71014 0.0
O187 O 0.08735 0.02673 0.71494 0.0
H188 H 0.06522 0.05327 0.82298 0.0
H189 H 0.97579 0.12706 0.77024 0.0
H190 H 0.03212 0.07999 0.87147 0.0
H191 H 0.94428 0.15247 0.81966 0.0
H192 H 0.05385 0.83661 0.76832 0.0
H193 H 0.95082 0.95192 0.75093 0.0
H194 H 0.07831 0.91115 0.77076 0.0
H195 H 0.92864 0.87666 0.74878 0.0
H196 H 0.90581 1.00485 0.84975 0.0
H197 H 0.84085 0.05838 0.77055 0.0
H198 H 0.2203 0.05647 0.79193 0.0
H199 H 0.16429 0.95048 0.84079 0.0
H200 H 0.994 1.01839 0.64958 0.0
H201 H 0.9502 0.1079 0.71793 0.0
H202 H 0.96851 0.06651 0.60819 0.0
H203 H 0.9254 0.15438 0.67527 0.0
H204 H 0.07124 1.02023 0.6547 0.0
H205 H 0.15872 0.98558 0.72706 0.0
H206 H 0.11667 0.98249 0.61668 0.0
H207 H 0.20259 0.94834 0.68779 0.0
H208 H 0.03978 0.22451 0.71504 0.0
H209 H 0.0672 0.16131 0.62819 0.0
H210 H 0.96015 0.89123 0.64632 0.0
H211 H 0.0854 0.85295 0.67597 0.0
H212 H 0.4399 1.00014 0.07273 0.0
H213 H 0.38425 0.09986 0.01781 0.0
H214 H 0.3827 1.00754 0.11108 0.0
H215 H 0.32761 0.10792 0.05611 0.0
H216 H 0.20377 0.05393 0.0967 0.0
H217 H 0.26838 0.05936 0.06616 0.0
H218 H 0.34329 0.05179 0.14987 0.0
H219 H 0.27822 0.04707 0.18078 0.0
C220 C 0.41636 1.02476 0.06958 0.0
C221 C 0.41622 0.04934 0.0424 0.0
C222 C 0.38353 0.02892 0.0914 0.0
C223 C 0.35014 0.05771 0.08626 0.0
C224 C 0.35233 0.08481 0.06038 0.0
C225 C 0.38494 0.08057 0.03864 0.0
C226 C 0.23387 0.05421 0.10877 0.0
C227 C 0.23561 0.05023 0.14127 0.0
C228 C 0.27102 0.05735 0.09121 0.0
C229 C 0.31101 0.05643 0.10561 0.0
C230 C 0.31296 0.05242 0.1381 0.0
C231 C 0.27565 0.04953 0.15575 0.0
H232 H 0.96677 0.3968 0.55204 0.0
H233 H 0.10103 0.42254 0.55312 0.0
H234 H 0.97572 0.34448 0.5932 0.0
H235 H 0.11038 0.36998 0.59469 0.0
H236 H 0.10907 0.22643 0.62456 0.0
H237 H 0.10487 0.29154 0.59417 0.0
H238 H 0.99528 0.33049 0.64737 0.0
H239 H 0.99869 0.26484 0.67713 0.0
C240 C 0.99803 0.39206 0.5619 0.0
C241 C 0.03319 0.41365 0.54971 0.0
C242 C 1.00322 0.36216 0.58547 0.0
C243 C 0.04382 0.35288 0.5971 0.0
C244 C 0.07877 0.37621 0.58599 0.0
C245 C 0.07344 0.40653 0.56252 0.0
C246 C 0.0842 0.24898 0.62985 0.0
C247 C 0.05399 0.24023 0.65307 0.0
C248 C 0.08214 0.28657 0.61272 0.0
C249 C 0.04968 0.31618 0.61832 0.0
C250 C 1.02047 0.30817 0.64235 0.0
C251 C 1.02263 0.27068 0.65956 0.0
H252 H 0.63549 0.07877 0.06332 0.0
H253 H 0.67312 0.95353 0.03475 0.0
H254 H 0.69053 0.07814 0.10357 0.0
H255 H 0.72792 0.95253 0.07489 0.0
H256 H 0.80921 0.95641 0.16233 0.0
H257 H 0.74354 0.95478 0.13214 0.0
H258 H 0.77003 0.08043 0.09764 0.0
H259 H 0.83533 0.08224 0.12804 0.0
C260 C 0.65462 0.05059 0.06647 0.0
C261 C 0.65003 1.01602 0.04637 0.0
C262 C 0.68635 0.05036 0.08917 0.0
C263 C 0.71374 1.01541 0.09219 0.0
C264 C 0.70712 0.97974 0.07332 0.0
C265 C 0.67576 0.98021 0.05043 0.0
C266 C 0.80072 0.98384 0.14855 0.0
C267 C 0.82751 1.01938 0.14741 0.0
C268 C 0.76325 0.98282 0.13121 0.0
C269 C 0.75155 1.01753 0.11265 0.0
C270 C 0.7779 0.05341 0.11205 0.0
C271 C 0.81556 0.05425 0.12912 0.0
H272 H 0.95838 0.67036 0.52471 0.0
H273 H 0.07786 0.63161 0.56404 0.0
H274 H 0.95231 0.72645 0.56349 0.0
H275 H 0.07306 0.68874 0.60223 0.0
H276 H 0.04394 0.78641 0.67661 0.0
H277 H 0.03927 0.72132 0.64619 0.0
H278 H 0.98736 0.79247 0.56928 0.0
H279 H 0.99141 0.857 0.5998 0.0
C280 C 0.98283 0.67341 0.54223 0.0
C281 C 1.01842 0.64679 0.54171 0.0
C282 C 0.97973 0.7058 0.56416 0.0
C283 C 1.01259 0.7127 0.58565 0.0
C284 C 0.04701 0.68423 0.58622 0.0
C285 C 0.04983 0.65148 0.56443 0.0
C286 C 0.0315 0.78801 0.6532 0.0
C287 C 1.01811 0.82685 0.64057 0.0
C288 C 0.02879 0.75072 0.63578 0.0
C289 C 1.01279 0.7515 0.60529 0.0
C290 C 0.99895 0.79037 0.5929 0.0
C291 C 1.00143 0.8275 0.61035 0.0
H292 H 0.43907 0.0504 0.90657 0.0
H293 H 0.38955 0.94359 0.95737 0.0
H294 H 0.38236 0.04288 0.86821 0.0
H295 H 0.33355 0.93506 0.91878 0.0
H296 H 0.20639 0.98411 0.88046 0.0
H297 H 0.27125 0.97805 0.91048 0.0
H298 H 0.34543 1.00274 0.82789 0.0
H299 H 0.28015 1.00874 0.79766 0.0
C300 C 0.41709 1.0242 0.9087 0.0
C301 C 0.41848 0.99756 0.93477 0.0
C302 C 0.38449 1.01993 0.88685 0.0
C303 C 0.35287 0.98888 0.89079 0.0
C304 C 0.35678 0.95991 0.91546 0.0
C305 C 0.38911 0.96438 0.93732 0.0
C306 C 0.23648 0.98752 0.86853 0.0
C307 C 0.23797 0.99697 0.83664 0.0
C308 C 0.2738 0.98393 0.88575 0.0
C309 C 0.31367 0.98963 0.87157 0.0
C310 C 0.31526 0.9985 0.83957 0.0
C311 C 0.27784 1.00207 0.82229 0.0
H312 H 0.05437 0.43814 0.40976 0.0
H313 H 0.95321 0.37323 0.45782 0.0
H314 H 0.05211 0.38502 0.36844 0.0
H315 H 0.95157 0.3197 0.41722 0.0
H316 H 0.94528 0.23502 0.33424 0.0
H317 H 0.93828 0.30059 0.36371 0.0
H318 H 0.0748 0.3113 0.36769 0.0
H319 H 0.08175 0.2468 0.33722 0.0
C320 C 0.0309 0.41316 0.41104 0.0
C321 C 1.00424 0.40952 0.43709 0.0
C322 C 0.02993 0.38246 0.38761 0.0
C323 C 1.00211 0.34773 0.38975 0.0
C324 C 0.97325 0.34606 0.41468 0.0
C325 C 0.97432 0.3766 0.43807 0.0
C326 C 0.97378 0.25182 0.34087 0.0
C327 C 1.0141 0.23542 0.33362 0.0
C328 C 0.96977 0.28924 0.35797 0.0
C329 C 1.00596 0.31116 0.36817 0.0
C330 C 0.04623 0.29556 0.35992 0.0
C331 C 0.05024 0.25816 0.34286 0.0
H332 H 0.67697 0.09763 0.94657 0.0
H333 H 0.63363 0.97614 0.9141 0.0
H334 H 0.73158 0.09863 0.90612 0.0
H335 H 0.68861 0.97674 0.87359 0.0
H336 H 0.8339 0.96891 0.84828 0.0
H337 H 0.76877 0.97114 0.87918 0.0
H338 H 0.74566 0.09908 0.84817 0.0
H339 H 0.81098 0.09693 0.81735 0.0
C340 C 0.6784 0.0718 0.93006 0.0
C341 C 0.65107 0.03699 0.93311 0.0
C342 C 0.70963 0.07228 0.90697 0.0
C343 C 0.71456 0.03759 0.88687 0.0
C344 C 0.68571 1.00373 0.88894 0.0
C345 C 0.65403 1.00356 0.91181 0.0
C346 C 0.81484 0.99746 0.84804 0.0
C347 C 0.82763 0.03281 0.83055 0.0
C348 C 0.77732 0.99856 0.8654 0.0
C349 C 0.75202 0.03523 0.86596 0.0
C350 C 0.76455 0.07043 0.84819 0.0
C351 C 0.80181 0.06913 0.83049 0.0
H352 H 0.1116 0.66234 0.442 0.0
H353 H 0.98685 0.6245 0.41214 0.0
H354 H 0.11387 0.71603 0.40093 0.0
H355 H 0.98864 0.67864 0.37126 0.0
H356 H 0.98586 0.82598 0.35171 0.0
H357 H 0.98743 0.7593 0.38048 0.0
H358 H 0.11048 0.73083 0.34148 0.0
H359 H 0.10869 0.79768 0.31234 0.0
C360 C 0.08541 0.66456 0.42582 0.0
C361 C 0.04927 0.63921 0.42984 0.0
C362 C 0.0866 0.69527 0.40242 0.0
C363 C 0.05127 0.70167 0.38311 0.0
C364 C 1.01619 0.67445 0.38595 0.0
C365 C 1.01531 0.64327 0.40905 0.0
C366 C 1.01309 0.80532 0.34913 0.0
C367 C 0.04727 0.81703 0.32999 0.0
C368 C 1.01381 0.76699 0.36531 0.0
C369 C 0.04899 0.73981 0.36305 0.0
C370 C 0.08297 0.7512 0.34356 0.0
C371 C 0.08191 0.7893 0.3269 0.0
loop_
_geom_bond_atom_site_label_1
_geom_bond_atom_site_label_2
_geom_bond_distance
_geom_bond_site_symmetry_2
_ccdc_geom_bond_type
H0 C6 0.928 1_565 S
H1 C9 0.931 . S
H2 C11 0.932 . S
H3 C13 0.930 . S
H4 C15 0.930 . S
H5 C17 0.931 . S
C6 H0 0.928 1_545 S
C6 C7 1.379 1_545 S
C6 C8 1.398 1_554 S
C7 C6 1.379 1_565 S
C7 C11 1.382 . S
C8 C6 1.398 1_556 S
C8 C9 1.400 . S
C9 H1 0.931 . S
C9 C8 1.400 . S
C9 C10 1.375 1_556 S
C10 C9 1.375 1_554 S
C10 C11 1.414 1_545 S
C10 C12 1.501 . S
C11 H2 0.932 . S
C11 C7 1.382 . S
C11 C10 1.414 1_565 S
C12 C10 1.501 . S
C12 C13 1.384 . S
C12 C17 1.408 1_544 S
C13 H3 0.930 . S
C13 C12 1.384 . S
C13 C14 1.389 . S
C14 C13 1.389 . S
C14 C15 1.405 . S
C15 H4 0.930 . S
C15 C14 1.405 . S
C15 C16 1.363 1_544 S
C16 C15 1.363 1_566 S
C16 C17 1.400 . S
C17 H5 0.931 . S
C17 C12 1.408 1_566 S
C17 C16 1.400 . S
H18 C24 0.930 . S
H19 C27 0.931 . S
H20 C29 0.931 . S
H21 C31 0.931 . S
H22 C33 0.930 . S
H23 C35 0.931 . S
C24 H18 0.930 . S
C24 C25 1.380 . S
C24 C26 1.394 . S
C25 C24 1.380 . S
C25 C29 1.382 . S
C26 C24 1.394 . S
C26 C27 1.400 1_455 S
C27 H19 0.931 . S
C27 C26 1.400 1_655 S
C27 C28 1.375 1_655 S
C28 C27 1.375 1_455 S
C28 C29 1.415 . S
C28 C30 1.501 . S
C29 H20 0.931 . S
C29 C25 1.382 . S
C29 C28 1.415 . S
C30 C28 1.501 . S
C30 C31 1.383 1_455 S
C30 C35 1.408 . S
C31 H21 0.931 . S
C31 C30 1.383 1_655 S
C31 C32 1.389 1_655 S
C32 C31 1.389 1_455 S
C32 C33 1.406 . S
C33 H22 0.930 . S
C33 C32 1.406 . S
C33 C34 1.364 . S
C34 C33 1.364 . S
C34 C35 1.400 . S
C35 H23 0.931 . S
C35 C30 1.408 . S
C35 C34 1.400 . S
Li36 N53 1.990 . S
Li36 O96 1.958 1_545 S
Li36 O97 1.970 1_455 S
Li36 O98 1.961 . S
Li37 N61 1.990 . S
Li37 O96 1.969 . S
Li37 O97 1.956 1_465 S
Li37 O99 1.961 . S
Li38 N83 1.990 . S
Li38 O96 1.961 1_545 S
Li38 O98 1.956 . S
Li38 O99 1.970 1_545 S
Li39 N89 1.990 . S
Li39 O97 1.961 1_565 S
Li39 O98 1.969 1_665 S
Li39 O99 1.958 1_655 S
C40 C42 1.348 1_545 S
C40 C43 1.356 . S
C40 O96 1.325 1_545 S
N41 C44 1.314 1_545 S
N41 C45 1.279 . S
C42 C40 1.348 1_565 S
C42 C44 1.353 . S
C42 H100 0.929 . S
C43 C40 1.356 . S
C43 C45 1.358 . S
C43 H101 0.930 . S
C44 N41 1.314 1_565 S
C44 C42 1.353 . S
C44 H102 0.930 . S
C45 N41 1.279 . S
C45 C43 1.358 . S
C45 H103 0.930 . S
C46 C49 1.348 . S
C46 C50 1.356 1_545 S
C46 O97 1.325 . S
C47 N48 1.279 . S
C47 C50 1.358 . S
C47 H104 0.930 . S
N48 C47 1.279 . S
N48 C51 1.314 1_565 S
C49 C46 1.348 . S
C49 C51 1.353 . S
C49 H105 0.929 . S
C50 C46 1.356 1_565 S
C50 C47 1.358 . S
C50 H106 0.930 . S
C51 N48 1.314 1_545 S
C51 C49 1.353 . S
C51 H107 0.930 . S
C52 N53 1.314 1_655 S
C52 C57 1.353 . S
C52 H58 0.930 . S
N53 Li36 1.990 . S
N53 C52 1.314 1_455 S
N53 C55 1.279 . S
C54 C55 1.358 . S
C54 C56 1.356 . S
C54 H108 0.930 . S
C55 N53 1.279 . S
C55 C54 1.358 . S
C55 H59 0.930 . S
C56 C54 1.356 . S
C56 C57 1.348 1_455 S
C57 C52 1.353 . S
C57 C56 1.348 1_655 S
C57 H109 0.929 . S
H58 C52 0.930 . S
H59 C55 0.930 . S
C60 N61 1.314 . S
C60 C62 1.353 . S
C60 H66 0.930 . S
N61 Li37 1.990 . S
N61 C60 1.314 . S
N61 C64 1.279 1_455 S
C62 C60 1.353 . S
C62 C65 1.348 . S
C62 H110 0.929 . S
C63 C64 1.358 . S
C63 C65 1.356 1_655 S
C63 H111 0.930 . S
C64 N61 1.279 1_655 S
C64 C63 1.358 . S
C64 H67 0.930 . S
C65 C62 1.348 . S
C65 C63 1.356 1_455 S
H66 C60 0.930 . S
H67 C64 0.930 . S
C68 C70 1.348 1_455 S
C68 C71 1.356 . S
C68 O98 1.325 . S
N69 C72 1.314 1_455 S
N69 C73 1.279 . S
C70 C68 1.348 1_655 S
C70 C72 1.353 . S
C70 H112 0.929 . S
C71 C68 1.356 . S
C71 C73 1.358 . S
C71 H113 0.930 . S
C72 N69 1.314 1_655 S
C72 C70 1.353 . S
C72 H114 0.930 . S
C73 N69 1.279 . S
C73 C71 1.358 . S
C73 H115 0.930 . S
C74 C75 1.348 . S
C74 C76 1.356 1_455 S
C74 O99 1.325 . S
C75 C74 1.348 . S
C75 C77 1.353 . S
C75 H116 0.929 . S
C76 C74 1.356 1_655 S
C76 C78 1.358 . S
C76 H117 0.930 . S
C77 C75 1.353 . S
C77 N79 1.314 . S
C77 H118 0.930 . S
C78 C76 1.358 . S
C78 N79 1.279 1_655 S
C78 H119 0.930 . S
N79 C77 1.314 . S
N79 C78 1.279 1_455 S
C80 C82 1.353 . S
C80 N83 1.314 1_565 S
C80 H86 0.930 . S
C81 N83 1.279 . S
C81 C84 1.358 . S
C81 H87 0.930 . S
C82 C80 1.353 . S
C82 C85 1.348 1_565 S
C82 H120 0.929 . S
N83 Li38 1.990 . S
N83 C80 1.314 1_545 S
N83 C81 1.279 . S
C84 C81 1.358 . S
C84 C85 1.356 . S
C84 H121 0.930 . S
C85 C82 1.348 1_545 S
C85 C84 1.356 . S
H86 C80 0.930 . S
H87 C81 0.930 . S
C88 N89 1.314 1_545 S
C88 C90 1.353 . S
C88 H94 0.930 . S
N89 Li39 1.990 . S
N89 C88 1.314 1_565 S
N89 C92 1.279 . S
C90 C88 1.353 . S
C90 C93 1.348 . S
C90 H122 0.929 . S
C91 C92 1.358 . S
C91 C93 1.356 1_565 S
C91 H123 0.930 . S
C92 N89 1.279 . S
C92 C91 1.358 . S
C92 H95 0.930 . S
C93 C90 1.348 . S
C93 C91 1.356 1_545 S
H94 C88 0.930 . S
H95 C92 0.930 . S
O96 Li36 1.958 1_565 S
O96 Li37 1.969 . S
O96 Li38 1.961 1_565 S
O96 C40 1.325 1_565 S
O97 Li36 1.970 1_655 S
O97 Li37 1.956 1_645 S
O97 Li39 1.961 1_545 S
O97 C46 1.325 . S
O98 Li36 1.961 . S
O98 Li38 1.956 . S
O98 Li39 1.969 1_445 S
O98 C68 1.325 . S
O99 Li37 1.961 . S
O99 Li38 1.970 1_565 S
O99 Li39 1.958 1_455 S
O99 C74 1.325 . S
H100 C42 0.929 . S
H101 C43 0.930 . S
H102 C44 0.930 . S
H103 C45 0.930 . S
H104 C47 0.930 . S
H105 C49 0.929 . S
H106 C50 0.930 . S
H107 C51 0.930 . S
H108 C54 0.930 . S
H109 C57 0.929 . S
H110 C62 0.929 . S
H111 C63 0.930 . S
H112 C70 0.929 . S
H113 C71 0.930 . S
H114 C72 0.930 . S
H115 C73 0.930 . S
H116 C75 0.929 . S
H117 C76 0.930 . S
H118 C77 0.930 . S
H119 C78 0.930 . S
H120 C82 0.929 . S
H121 C84 0.930 . S
H122 C90 0.929 . S
H123 C91 0.930 . S
Li124 N141 1.990 . S
Li124 O184 1.956 1_655 S
Li124 O185 1.970 1_645 S
Li124 O186 1.961 . S
Li125 N149 1.990 1_545 S
Li125 O184 1.968 . S
Li125 O185 1.958 1_545 S
Li125 O187 1.961 . S
Li126 N171 1.990 . S
Li126 O184 1.961 . S
Li126 O186 1.958 1_455 S
Li126 O187 1.970 . S
Li127 N177 1.990 . S
Li127 O185 1.961 . S
Li127 O186 1.968 1_465 S
Li127 O187 1.956 1_565 S
C128 C130 1.348 . S
C128 C131 1.356 1_455 S
C128 O184 1.325 . S
N129 C132 1.332 . S
N129 C133 1.263 1_455 S
C130 C128 1.348 . S
C130 C132 1.353 . S
C130 H188 0.929 . S
C131 C128 1.356 1_655 S
C131 C133 1.358 . S
C131 H189 0.930 . S
C132 N129 1.332 . S
C132 C130 1.353 . S
C132 H190 0.930 . S
C133 N129 1.263 1_655 S
C133 C131 1.358 . S
C133 H191 0.930 . S
C134 C137 1.348 1_455 S
C134 C138 1.356 . S
C134 O185 1.325 . S
C135 N136 1.279 . S
C135 C138 1.358 . S
C135 H192 0.930 . S
N136 C135 1.279 . S
N136 C139 1.314 1_455 S
C137 C134 1.348 1_655 S
C137 C139 1.353 . S
C137 H193 0.929 . S
C138 C134 1.356 . S
C138 C135 1.358 . S
C138 H194 0.930 . S
C139 N136 1.314 1_655 S
C139 C137 1.353 . S
C139 H195 0.930 . S
C140 N141 1.314 1_565 S
C140 C145 1.353 . S
C140 H146 0.930 . S
N141 Li124 1.990 . S
N141 C140 1.314 1_545 S
N141 C143 1.279 . S
C142 C143 1.358 . S
C142 C144 1.356 . S
C142 H196 0.930 . S
C143 N141 1.279 . S
C143 C142 1.358 . S
C143 H147 0.930 . S
C144 C142 1.356 . S
C144 C145 1.348 1_545 S
C145 C140 1.353 . S
C145 C144 1.348 1_565 S
C145 H197 0.929 . S
H146 C140 0.930 . S
H147 C143 0.930 . S
C148 N149 1.314 1_545 S
C148 C150 1.353 . S
C148 H154 0.930 . S
N149 Li125 1.990 1_565 S
N149 C148 1.314 1_565 S
N149 C152 1.279 . S
C150 C148 1.353 . S
C150 C153 1.348 . S
C150 H198 0.929 . S
C151 C152 1.358 . S
C151 C153 1.356 1_565 S
C151 H199 0.930 . S
C152 N149 1.279 . S
C152 C151 1.358 . S
C152 H155 0.930 . S
C153 C150 1.348 . S
C153 C151 1.356 1_545 S
H154 C148 0.930 . S
H155 C152 0.930 . S
C156 C158 1.348 1_545 S
C156 C159 1.356 . S
C156 O186 1.325 . S
N157 C160 1.314 1_545 S
N157 C161 1.279 . S
C158 C156 1.348 1_565 S
C158 C160 1.353 . S
C158 H200 0.929 . S
C159 C156 1.356 . S
C159 C161 1.358 . S
C159 H201 0.930 . S
C160 N157 1.314 1_565 S
C160 C158 1.353 . S
C160 H202 0.930 . S
C161 N157 1.279 . S
C161 C159 1.358 . S
C161 H203 0.930 . S
C162 C163 1.348 . S
C162 C164 1.356 1_545 S
C162 O187 1.325 . S
C163 C162 1.348 . S
C163 C165 1.353 . S
C163 H204 0.929 . S
C164 C162 1.356 1_565 S
C164 C166 1.358 . S
C164 H205 0.930 . S
C165 C163 1.353 . S
C165 N167 1.314 1_545 S
C165 H206 0.930 . S
C166 C164 1.358 . S
C166 N167 1.279 . S
C166 H207 0.930 . S
N167 C165 1.314 1_565 S
N167 C166 1.279 . S
C168 C170 1.353 . S
C168 N171 1.314 . S
C168 H174 0.930 . S
C169 N171 1.279 1_655 S
C169 C172 1.358 . S
C169 H175 0.930 . S
C170 C168 1.353 . S
C170 C173 1.348 . S
C170 H208 0.929 . S
N171 Li126 1.990 . S
N171 C168 1.314 . S
N171 C169 1.279 1_455 S
C172 C169 1.358 . S
C172 C173 1.356 1_655 S
C172 H209 0.930 . S
C173 C170 1.348 . S
C173 C172 1.356 1_455 S
H174 C168 0.930 . S
H175 C169 0.930 . S
C176 N177 1.314 1_655 S
C176 C178 1.353 . S
C176 H182 0.930 . S
N177 Li127 1.990 . S
N177 C176 1.314 1_455 S
N177 C180 1.279 . S
C178 C176 1.353 . S
C178 C181 1.348 1_655 S
C178 H210 0.929 . S
C179 C180 1.358 . S
C179 C181 1.356 . S
C179 H211 0.930 . S
C180 N177 1.279 . S
C180 C179 1.358 . S
C180 H183 0.930 . S
C181 C178 1.348 1_455 S
C181 C179 1.356 . S
H182 C176 0.930 . S
H183 C180 0.930 . S
O184 Li124 1.956 1_455 S
O184 Li125 1.968 . S
O184 Li126 1.961 . S
O184 C128 1.325 . S
O185 Li124 1.970 1_465 S
O185 Li125 1.958 1_565 S
O185 Li127 1.961 . S
O185 C134 1.325 . S
O186 Li124 1.961 . S
O186 Li126 1.958 1_655 S
O186 Li127 1.968 1_645 S
O186 C156 1.325 . S
O187 Li125 1.961 . S
O187 Li126 1.970 . S
O187 Li127 1.956 1_545 S
O187 C162 1.325 . S
H188 C130 0.929 . S
H189 C131 0.930 . S
H190 C132 0.930 . S
H191 C133 0.930 . S
H192 C135 0.930 . S
H193 C137 0.929 . S
H194 C138 0.930 . S
H195 C139 0.930 . S
H196 C142 0.930 . S
H197 C145 0.929 . S
H198 C150 0.929 . S
H199 C151 0.930 . S
H200 C158 0.929 . S
H201 C159 0.930 . S
H202 C160 0.930 . S
H203 C161 0.930 . S
H204 C163 0.929 . S
H205 C164 0.930 . S
H206 C165 0.930 . S
H207 C166 0.930 . S
H208 C170 0.929 . S
H209 C172 0.930 . S
H210 C178 0.929 . S
H211 C179 0.930 . S
H212 C220 0.950 . S
H213 C225 0.950 . S
H214 C222 0.950 . S
H215 C224 0.950 . S
H216 C226 0.950 . S
H217 C228 0.950 . S
H218 C230 0.950 . S
H219 C231 0.950 . S
C220 H212 0.950 . S
C220 C221 1.386 . S
C220 C222 1.391 . S
C221 C220 1.386 . S
C221 C225 1.393 1_565 S
C222 H214 0.950 . S
C222 C220 1.391 . S
C222 C223 1.400 . S
C223 C222 1.400 . S
C223 C224 1.398 1_565 S
C223 C229 1.491 . S
C224 H215 0.950 . S
C224 C223 1.398 1_545 S
C224 C225 1.391 . S
C225 H213 0.950 . S
C225 C221 1.393 1_545 S
C225 C224 1.391 . S
C226 H216 0.950 . S
C226 C227 1.386 1_545 S
C226 C228 1.391 . S
C227 C226 1.386 1_565 S
C227 C231 1.393 . S
C228 H217 0.950 . S
C228 C226 1.391 . S
C228 C229 1.400 1_545 S
C229 C223 1.491 . S
C229 C228 1.400 1_565 S
C229 C230 1.398 . S
C230 H218 0.950 . S
C230 C229 1.398 . S
C230 C231 1.391 . S
C231 H219 0.950 . S
C231 C227 1.393 . S
C231 C230 1.391 . S
H232 C240 0.950 . S
H233 C245 0.950 . S
H234 C242 0.950 . S
H235 C244 0.950 . S
H236 C246 0.950 . S
H237 C248 0.950 . S
H238 C250 0.950 . S
H239 C251 0.950 . S
C240 H232 0.950 . S
C240 C241 1.386 1_655 S
C240 C242 1.391 . S
C241 C240 1.386 1_455 S
C241 C245 1.393 . S
C242 H234 0.950 . S
C242 C240 1.391 . S
C242 C243 1.400 1_655 S
C243 C242 1.400 1_455 S
C243 C244 1.398 . S
C243 C249 1.491 . S
C244 H235 0.950 . S
C244 C243 1.398 . S
C244 C245 1.391 . S
C245 H233 0.950 . S
C245 C241 1.393 . S
C245 C244 1.391 . S
C246 H236 0.950 . S
C246 C247 1.386 . S
C246 C248 1.391 . S
C247 C246 1.386 . S
C247 C251 1.393 1_455 S
C248 H237 0.950 . S
C248 C246 1.391 . S
C248 C249 1.400 . S
C249 C243 1.491 . S
C249 C248 1.400 . S
C249 C250 1.398 1_455 S
C250 H238 0.950 . S
C250 C249 1.398 1_655 S
C250 C251 1.391 . S
C251 H239 0.950 . S
C251 C247 1.393 1_655 S
C251 C250 1.391 . S
H252 C260 0.950 . S
H253 C265 0.950 . S
H254 C262 0.950 . S
H255 C264 0.950 . S
H256 C266 0.950 . S
H257 C268 0.950 . S
H258 C270 0.950 . S
H259 C271 0.950 . S
C260 H252 0.950 . S
C260 C261 1.386 . S
C260 C262 1.391 . S
C261 C260 1.386 . S
C261 C265 1.393 1_545 S
C262 H254 0.950 . S
C262 C260 1.391 . S
C262 C263 1.400 . S
C263 C262 1.400 . S
C263 C264 1.398 1_545 S
C263 C269 1.491 . S
C264 H255 0.950 . S
C264 C263 1.398 1_565 S
C264 C265 1.391 . S
C265 H253 0.950 . S
C265 C261 1.393 1_565 S
C265 C264 1.391 . S
C266 H256 0.950 . S
C266 C267 1.386 1_565 S
C266 C268 1.391 . S
C267 C266 1.386 1_545 S
C267 C271 1.393 . S
C268 H257 0.950 . S
C268 C266 1.391 . S
C268 C269 1.400 1_565 S
C269 C263 1.491 . S
C269 C268 1.400 1_545 S
C269 C270 1.398 . S
C270 H258 0.950 . S
C270 C269 1.398 . S
C270 C271 1.391 . S
C271 H259 0.950 . S
C271 C267 1.393 . S
C271 C270 1.391 . S
H272 C280 0.950 . S
H273 C285 0.950 . S
H274 C282 0.950 . S
H275 C284 0.950 . S
H276 C286 0.950 . S
H277 C288 0.950 . S
H278 C290 0.950 . S
H279 C291 0.950 . S
C280 H272 0.950 . S
C280 C281 1.385 1_655 S
C280 C282 1.391 . S
C281 C280 1.385 1_455 S
C281 C285 1.393 . S
C282 H274 0.950 . S
C282 C280 1.391 . S
C282 C283 1.400 1_655 S
C283 C282 1.400 1_455 S
C283 C284 1.398 . S
C283 C289 1.491 . S
C284 H275 0.950 . S
C284 C283 1.398 . S
C284 C285 1.391 . S
C285 H273 0.950 . S
C285 C281 1.393 . S
C285 C284 1.391 . S
C286 H276 0.950 . S
C286 C287 1.386 . S
C286 C288 1.391 . S
C287 C286 1.386 . S
C287 C291 1.393 1_455 S
C288 H277 0.950 . S
C288 C286 1.391 . S
C288 C289 1.400 . S
C289 C283 1.491 . S
C289 C288 1.400 . S
C289 C290 1.398 1_455 S
C290 H278 0.950 . S
C290 C289 1.398 1_655 S
C290 C291 1.391 . S
C291 H279 0.950 . S
C291 C287 1.393 1_655 S
C291 C290 1.391 . S
H292 C300 0.950 . S
H293 C305 0.950 . S
H294 C302 0.950 . S
H295 C304 0.950 . S
H296 C306 0.950 . S
H297 C308 0.950 . S
H298 C310 0.950 . S
H299 C311 0.950 . S
C300 H292 0.950 . S
C300 C301 1.386 . S
C300 C302 1.391 . S
C301 C300 1.386 . S
C301 C305 1.393 1_545 S
C302 H294 0.950 . S
C302 C300 1.391 . S
C302 C303 1.400 . S
C303 C302 1.400 . S
C303 C304 1.398 1_545 S
C303 C309 1.491 . S
C304 H295 0.950 . S
C304 C303 1.398 1_565 S
C304 C305 1.391 . S
C305 H293 0.950 . S
C305 C301 1.393 1_565 S
C305 C304 1.391 . S
C306 H296 0.950 . S
C306 C307 1.386 1_565 S
C306 C308 1.391 . S
C307 C306 1.386 1_545 S
C307 C311 1.393 . S
C308 H297 0.950 . S
C308 C306 1.391 . S
C308 C309 1.400 1_565 S
C309 C303 1.491 . S
C309 C308 1.400 1_545 S
C309 C310 1.398 . S
C310 H298 0.950 . S
C310 C309 1.398 . S
C310 C311 1.391 . S
C311 H299 0.950 . S
C311 C307 1.393 . S
C311 C310 1.391 . S
H312 C320 0.950 . S
H313 C325 0.950 . S
H314 C322 0.950 . S
H315 C324 0.950 . S
H316 C326 0.950 . S
H317 C328 0.950 . S
H318 C330 0.950 . S
H319 C331 0.950 . S
C320 H312 0.950 . S
C320 C321 1.386 . S
C320 C322 1.391 . S
C321 C320 1.386 . S
C321 C325 1.393 1_455 S
C322 H314 0.950 . S
C322 C320 1.391 . S
C322 C323 1.400 . S
C323 C322 1.400 . S
C323 C324 1.398 1_455 S
C323 C329 1.491 . S
C324 H315 0.950 . S
C324 C323 1.398 1_655 S
C324 C325 1.391 . S
C325 H313 0.950 . S
C325 C321 1.393 1_655 S
C325 C324 1.391 . S
C326 H316 0.950 . S
C326 C327 1.386 1_655 S
C326 C328 1.391 . S
C327 C326 1.386 1_455 S
C327 C331 1.393 . S
C328 H317 0.950 . S
C328 C326 1.391 . S
C328 C329 1.400 1_655 S
C329 C323 1.491 . S
C329 C328 1.400 1_455 S
C329 C330 1.398 . S
C330 H318 0.950 . S
C330 C329 1.398 . S
C330 C331 1.391 . S
C331 H319 0.950 . S
C331 C327 1.393 . S
C331 C330 1.391 . S
H332 C340 0.950 . S
H333 C345 0.950 . S
H334 C342 0.950 . S
H335 C344 0.950 . S
H336 C346 0.950 . S
H337 C348 0.950 . S
H338 C350 0.950 . S
H339 C351 0.950 1_545 S
C340 H332 0.950 . S
C340 C341 1.385 1_545 S
C340 C342 1.391 . S
C341 C340 1.385 1_565 S
C341 C345 1.393 . S
C342 H334 0.950 . S
C342 C340 1.391 . S
C342 C343 1.400 1_545 S
C343 C342 1.400 1_565 S
C343 C344 1.398 . S
C343 C349 1.491 . S
C344 H335 0.950 . S
C344 C343 1.398 . S
C344 C345 1.391 . S
C345 H333 0.950 . S
C345 C341 1.393 . S
C345 C344 1.391 . S
C346 H336 0.950 . S
C346 C347 1.386 . S
C346 C348 1.391 . S
C347 C346 1.386 . S
C347 C351 1.393 . S
C348 H337 0.950 . S
C348 C346 1.391 . S
C348 C349 1.400 . S
C349 C343 1.491 . S
C349 C348 1.400 . S
C349 C350 1.398 . S
C350 H338 0.950 . S
C350 C349 1.398 . S
C350 C351 1.391 . S
C351 H339 0.950 1_565 S
C351 C347 1.393 . S
C351 C350 1.391 . S
H352 C360 0.950 . S
H353 C365 0.950 . S
H354 C362 0.950 . S
H355 C364 0.950 . S
H356 C366 0.950 . S
H357 C368 0.950 . S
H358 C370 0.950 . S
H359 C371 0.950 . S
C360 H352 0.950 . S
C360 C361 1.386 . S
C360 C362 1.391 . S
C361 C360 1.386 . S
C361 C365 1.393 1_455 S
C362 H354 0.950 . S
C362 C360 1.391 . S
C362 C363 1.400 . S
C363 C362 1.400 . S
C363 C364 1.398 1_455 S
C363 C369 1.491 . S
C364 H355 0.950 . S
C364 C363 1.398 1_655 S
C364 C365 1.391 . S
C365 H353 0.950 . S
C365 C361 1.393 1_655 S
C365 C364 1.391 . S
C366 H356 0.950 . S
C366 C367 1.386 1_655 S
C366 C368 1.391 . S
C367 C366 1.386 1_455 S
C367 C371 1.393 . S
C368 H357 0.950 . S
C368 C366 1.391 . S
C368 C369 1.400 1_655 S
C369 C363 1.491 . S
C369 C368 1.400 1_455 S
C369 C370 1.398 . S
C370 H358 0.950 . S
C370 C369 1.398 . S
C370 C371 1.391 . S
C371 H359 0.950 . S
C371 C367 1.393 . S
C371 C370 1.391 . S
C227 C85 1.554 1_565 S
C221 C7 1.500 . S
C247 C173 1.547 . S
C241 C34 1.483 . S
C267 C93 1.556 . S
C261 C14 1.515 . S
C287 C181 1.546 . S
C281 C26 1.508 . S
C307 C153 1.546 . S
C301 C8 1.503 . S
C327 C56 1.553 . S
C321 C32 1.492 . S
C347 C144 1.548 1_565 S
C341 C16 1.488 . S
C361 C25 1.510 . S
C367 C65 1.554 . S
