# Generated by pormake.
# Topology zzz, (3,6)-cn, num edge types: 1
# Building blocks:
#     Node 0, Type 0, BuildingBlock: CUQRIR_clean_linker_1, # of connection points: 3
#     Node 1, Type 0, BuildingBlock: CUQRIR_clean_linker_1, # of connection points: 3
#     Node 2, Type 0, BuildingBlock: CUQRIR_clean_linker_1, # of connection points: 3
#     Node 3, Type 0, BuildingBlock: CUQRIR_clean_linker_1, # of connection points: 3
#     Node 4, Type 0, BuildingBlock: CUQRIR_clean_linker_1, # of connection points: 3
#     Node 5, Type 0, BuildingBlock: CUQRIR_clean_linker_1, # of connection points: 3
#     Node 6, Type 0, BuildingBlock: CUQRIR_clean_linker_1, # of connection points: 3
#     Node 7, Type 0, BuildingBlock: CUQRIR_clean_linker_1, # of connection points: 3
#     Node 8, Type 1, BuildingBlock: FUNLAD_clean_sbu_0, # of connection points: 6
#     Node 9, Type 1, BuildingBlock: FUNLAD_clean_sbu_0, # of connection points: 6
#     Node 10, Type 1, BuildingBlock: FUNLAD_clean_sbu_0, # of connection points: 6
#     Node 11, Type 1, BuildingBlock: FUNLAD_clean_sbu_0, # of connection points: 6
#     Edge 12, Type (0, 1), BuildingBlock: EZIPEK_clean_linker_0, # of connection points: 2
#     Edge 13, Type (0, 1), BuildingBlock: EZIPEK_clean_linker_0, # of connection points: 2
#     Edge 14, Type (0, 1), BuildingBlock: EZIPEK_clean_linker_0, # of connection points: 2
#     Edge 15, Type (0, 1), BuildingBlock: EZIPEK_clean_linker_0, # of connection points: 2
#     Edge 16, Type (0, 1), BuildingBlock: EZIPEK_clean_linker_0, # of connection points: 2
#     Edge 17, Type (0, 1), BuildingBlock: EZIPEK_clean_linker_0, # of connection points: 2
#     Edge 18, Type (0, 1), BuildingBlock: EZIPEK_clean_linker_0, # of connection points: 2
#     Edge 19, Type (0, 1), BuildingBlock: EZIPEK_clean_linker_0, # of connection points: 2
#     Edge 20, Type (0, 1), BuildingBlock: EZIPEK_clean_linker_0, # of connection points: 2
#     Edge 21, Type (0, 1), BuildingBlock: EZIPEK_clean_linker_0, # of connection points: 2
#     Edge 22, Type (0, 1), BuildingBlock: EZIPEK_clean_linker_0, # of connection points: 2
#     Edge 23, Type (0, 1), BuildingBlock: EZIPEK_clean_linker_0, # of connection points: 2
#     Edge 24, Type (0, 1), BuildingBlock: EZIPEK_clean_linker_0, # of connection points: 2
#     Edge 25, Type (0, 1), BuildingBlock: EZIPEK_clean_linker_0, # of connection points: 2
#     Edge 26, Type (0, 1), BuildingBlock: EZIPEK_clean_linker_0, # of connection points: 2
#     Edge 27, Type (0, 1), BuildingBlock: EZIPEK_clean_linker_0, # of connection points: 2
#     Edge 28, Type (0, 1), BuildingBlock: EZIPEK_clean_linker_0, # of connection points: 2
#     Edge 29, Type (0, 1), BuildingBlock: EZIPEK_clean_linker_0, # of connection points: 2
#     Edge 30, Type (0, 1), BuildingBlock: EZIPEK_clean_linker_0, # of connection points: 2
#     Edge 31, Type (0, 1), BuildingBlock: EZIPEK_clean_linker_0, # of connection points: 2
#     Edge 32, Type (0, 1), BuildingBlock: EZIPEK_clean_linker_0, # of connection points: 2
#     Edge 33, Type (0, 1), BuildingBlock: EZIPEK_clean_linker_0, # of connection points: 2
#     Edge 34, Type (0, 1), BuildingBlock: EZIPEK_clean_linker_0, # of connection points: 2
#     Edge 35, Type (0, 1), BuildingBlock: EZIPEK_clean_linker_0, # of connection points: 2
# Relax obj value: 0.127
# Max RMSD: 0.183
# Mean RMSD: 0.102
data_MOF--net-zzz--node1-FUNLAD_clean_sbu_0--node2-CUQRIR_clean_linker_1--edge1-EZIPEK_clean_linker_0
_symmetry_space_group_name_H-M    P1
_symmetry_Int_Tables_number       1
_symmetry_cell_setting            triclinic
loop_
_symmetry_equiv_pos_as_xyz
'x, y, z'
_cell_length_a     34.778301
_cell_length_b     40.759924
_cell_length_c     11.181842
_cell_angle_alpha  82.679065
_cell_angle_beta   81.717217
_cell_angle_gamma 89.326449
loop_
_atom_site_label
_atom_site_type_symbol
_atom_site_fract_x
_atom_site_fract_y
_atom_site_fract_z
_atom_type_partial_charge
C0 C 0.78705 0.4895 0.43639 0.0
N1 N 0.82618 0.48986 0.43435 0.0
N2 N 0.77807 0.48131 0.32951 0.0
C3 C 0.75801 0.49922 0.53822 0.0
C4 C 0.81285 0.47568 0.26503 0.0
N5 N 0.84205 0.48133 0.32737 0.0
C6 C 0.81849 0.46916 0.1339 0.0
H7 H 0.76684 0.4895 0.62744 0.0
H8 H 0.72857 0.48989 0.53228 0.0
H9 H 0.75709 0.52658 0.53231 0.0
H10 H 0.81527 0.49272 0.07455 0.0
H11 H 0.7961 0.4516 0.11875 0.0
H12 H 0.84772 0.45892 0.10711 0.0
C13 C 0.99235 0.77143 0.16696 0.0
N14 N 0.99728 0.80271 0.19054 0.0
N15 N 0.99695 0.7704 0.04502 0.0
C16 C 0.98664 0.74155 0.26107 0.0
C17 C 1.00512 0.802 0.99547 0.0
N18 N 1.00589 0.82149 0.084 0.0
C19 C 0.01427 0.81331 0.86126 0.0
H20 H 0.01357 0.72661 0.25457 0.0
H21 H 0.96283 0.72595 0.24214 0.0
H22 H 0.9799 0.74853 0.35448 0.0
H23 H 0.99693 0.79897 0.80972 0.0
H24 H 0.04548 0.80888 0.83083 0.0
H25 H 1.00845 0.84012 0.84083 0.0
C26 C 0.77146 0.99724 0.25564 0.0
N27 N 0.73226 -0.00139 0.25512 0.0
N28 N 0.79106 0.00551 0.14123 0.0
C29 C 0.79072 0.98719 0.36611 0.0
C30 C 0.76245 0.01193 0.07169 0.0
N31 N 0.72699 0.00723 0.13985 0.0
C32 C 0.76937 0.02093 0.93565 0.0
H33 H 0.80376 0.00944 0.39248 0.0
H34 H 0.81463 0.96969 0.34438 0.0
H35 H 0.76965 0.97567 0.44368 0.0
H36 H 0.77717 0.99828 0.89225 0.0
H37 H 0.7941 0.03856 0.90913 0.0
H38 H 0.74313 0.03201 0.90131 0.0
C39 C 0.52925 0.69406 0.27164 0.0
N40 N 0.52556 0.66101 0.26938 0.0
N41 N 0.5294 0.71073 0.15871 0.0
C42 C 0.5313 0.71037 0.38361 0.0
C43 C 0.52511 0.68696 0.08788 0.0
N44 N 0.52159 0.65682 0.15521 0.0
C45 C 0.52413 0.69353 0.95292 0.0
H46 H 0.51166 0.73202 0.38443 0.0
H47 H 0.5613 0.71968 0.3809 0.0
H48 H 0.5233 0.69295 0.46801 0.0
H49 H 0.54602 0.71272 0.91052 0.0
H50 H 0.49514 0.70324 0.93676 0.0
H51 H 0.52986 0.67073 0.90876 0.0
C52 C 0.25193 0.49273 0.16661 0.0
N53 N 0.21412 0.49781 0.15154 0.0
N54 N 0.25578 0.4903 0.28681 0.0
C55 C 0.28525 0.49268 0.06543 0.0
C56 C 0.21944 0.49408 0.34357 0.0
N57 N 0.19448 0.49929 0.26185 0.0
C58 C 0.2089 0.49531 0.47844 0.0
H59 H 0.30481 0.47171 0.08698 0.0
H60 H 0.30232 0.51585 0.05837 0.0
H61 H 0.27502 0.49097 0.97691 0.0
H62 H 0.21553 0.52039 0.49888 0.0
H63 H 0.22634 0.47728 0.53064 0.0
H64 H 0.17755 0.49001 0.50891 0.0
C65 C 0.04714 0.24023 0.40314 0.0
N66 N 0.0444 0.20837 0.38349 0.0
N67 N 0.04036 0.24257 0.52411 0.0
C68 C 0.0554 0.26912 0.30555 0.0
C69 C 0.03312 0.21111 0.57718 0.0
N70 N 0.03516 0.19042 0.49136 0.0
C71 C 0.02372 0.20077 0.71194 0.0
H72 H 0.08409 0.27994 0.31149 0.0
H73 H 0.03324 0.28853 0.32107 0.0
H74 H 0.0556 0.26171 0.21338 0.0
H75 H 0.9918 0.20192 0.73879 0.0
H76 H 0.03773 0.21771 0.76318 0.0
H77 H 0.0332 0.17499 0.73642 0.0
C78 C 0.28605 0.99617 0.33443 0.0
N79 N 0.32531 0.99505 0.33426 0.0
N80 N 0.26702 -0.00089 0.44798 0.0
C81 C 0.26605 0.99345 0.22597 0.0
C82 C 0.29594 -0.00056 0.51664 0.0
N83 N 0.33102 0.99621 0.44894 0.0
C84 C 0.28958 0.00232 0.65081 0.0
H85 H 0.25364 0.01784 0.1965 0.0
H86 H 0.24156 0.97554 0.25173 0.0
H87 H 0.28643 0.98559 0.14923 0.0
H88 H 0.27999 0.97797 0.70185 0.0
H89 H 0.26621 0.02037 0.67177 0.0
H90 H 0.31654 0.0101 0.682 0.0
C91 C 0.51288 0.29042 0.32673 0.0
N92 N 0.51773 0.32324 0.32936 0.0
N93 N 0.52725 0.27265 0.42119 0.0
C94 C 0.4944 0.27596 0.23192 0.0
C95 C 0.54159 0.29577 0.4797 0.0
N96 N 0.53597 0.32652 0.42381 0.0
C97 C 0.55749 0.28841 0.59827 0.0
H98 H 0.48751 0.24932 0.25931 0.0
H99 H 0.51471 0.27885 0.14506 0.0
H100 H 0.46755 0.28974 0.21555 0.0
H101 H 0.5752 0.2656 0.5991 0.0
H102 H 0.53286 0.28422 0.67361 0.0
H103 H 0.57541 0.30933 0.61437 0.0
C104 C 0.0397 0.95447 0.9704 0.0
N105 N 0.00918 0.9516 0.62928 0.0
C106 C 0.03172 0.92451 0.65153 0.0
C107 C 0.02708 0.896 0.59942 0.0
C108 C 1.00108 0.8958 0.51539 0.0
C109 C 0.97831 0.92402 0.49149 0.0
C110 C 0.98247 0.95176 0.55136 0.0
Zn111 Zn 0.01936 0.98995 0.72453 0.0
C112 C 0.95078 0.00548 0.90232 0.0
N113 N 0.05084 0.05564 0.95848 0.0
C114 C 0.03471 0.05564 0.07678 0.0
C115 C 0.07092 0.0824 0.89511 0.0
C116 C 0.07363 0.11123 0.94832 0.0
C117 C 0.05615 0.1122 0.0685 0.0
C118 C 0.03722 0.08387 0.13424 0.0
Zn119 Zn 0.03857 0.01865 0.86268 0.0
O120 O 0.02774 0.9542 0.86911 0.0
C121 C 0.10728 0.00266 0.68448 0.0
O122 O 0.04957 0.98147 1.00269 0.0
H123 H 0.08325 0.08204 0.80097 0.0
H124 H 0.05399 0.92476 0.70919 0.0
H125 H 0.01849 0.03428 0.12483 0.0
O126 O 0.07996 0.98878 0.64463 0.0
O127 O 0.09893 0.01745 0.77863 0.0
H128 H 0.96484 0.97343 0.5345 0.0
O129 O 0.02688 0.05544 0.72313 0.0
O130 O 0.01006 0.02723 0.58317 0.0
O131 O 0.97809 0.01868 0.94501 0.0
O132 O 0.95907 0.99185 0.80516 0.0
C133 C 0.01637 0.0547 0.61953 0.0
H134 H 0.04511 0.87474 0.61995 0.0
H135 H 0.95779 0.92458 0.42713 0.0
H136 H 0.08821 0.13283 0.8954 0.0
H137 H 0.02335 0.08407 0.22736 0.0
C138 C 0.47428 0.98359 0.64647 0.0
N139 N 0.52607 0.06936 0.71599 0.0
C140 C 0.52678 0.07761 0.59369 0.0
C141 C 0.52615 0.11062 0.54307 0.0
C142 C 0.52499 0.13549 0.61879 0.0
C143 C 0.5241 0.12662 0.74472 0.0
C144 C 0.52464 0.09309 0.7919 0.0
Zn145 Zn 0.52817 0.0197 0.77599 0.0
C146 C 0.46486 0.99639 0.97731 0.0
N147 N 0.53102 0.91487 0.87199 0.0
C148 C 0.53248 0.89146 0.79476 0.0
C149 C 0.53012 0.90613 0.99413 0.0
C150 C 0.53074 0.87294 0.0431 0.0
C151 C 0.53188 0.8484 0.96596 0.0
C152 C 0.53279 0.85778 0.84032 0.0
Zn153 Zn 0.52952 0.9648 0.81264 0.0
O154 O 0.48516 0.01152 0.66857 0.0
C155 C 0.59243 0.98814 0.61041 0.0
O156 O 0.49083 0.95749 0.68822 0.0
H157 H 0.52879 0.92494 0.05434 0.0
H158 H 0.5281 0.05849 0.53464 0.0
H159 H 0.53323 0.89888 0.69807 0.0
O160 O 0.57491 0.01507 0.62844 0.0
O161 O 0.57935 0.96141 0.67456 0.0
H162 H 0.52417 0.08601 0.88869 0.0
O163 O 0.56877 0.97322 0.93562 0.0
O164 O 0.57124 0.0271 0.88528 0.0
O165 O 0.47922 0.96915 0.94783 0.0
O166 O 0.48153 0.0233 0.92551 0.0
C167 C 0.58368 0.00112 0.9426 0.0
H168 H 0.52685 0.11674 0.4456 0.0
H169 H 0.52318 0.14542 0.80535 0.0
H170 H 0.52989 0.86643 0.14046 0.0
H171 H 0.53365 0.83927 0.77858 0.0
C172 C 0.54028 0.44422 0.65667 0.0
N173 N 0.43323 0.48885 0.7332 0.0
C174 C 0.43969 0.48617 0.61153 0.0
C175 C 0.40946 0.48544 0.54419 0.0
C176 C 0.3715 0.48806 0.60059 0.0
C177 C 0.36451 0.49087 0.72611 0.0
C178 C 0.39624 0.49112 0.79166 0.0
Zn179 Zn 0.4852 0.491 0.80443 0.0
C180 C 0.50127 0.43914 0.98847 0.0
N181 N 0.60112 0.4947 0.87898 0.0
C182 C 0.63859 0.49486 0.82244 0.0
C183 C 0.59328 0.49324 1.0026 0.0
C184 C 0.62255 0.49173 0.07447 0.0
C185 C 0.66101 0.49148 0.02009 0.0
C186 C 0.66943 0.49332 0.89227 0.0
Zn187 Zn 0.54945 0.4929 0.80659 0.0
O188 O 0.5072 0.45623 0.68739 0.0
C189 C 0.53384 0.54509 0.62229 0.0
O190 O 0.56972 0.45582 0.69335 0.0
H191 H 0.56391 0.49214 0.04773 0.0
H192 H 0.46857 0.48512 0.56358 0.0
H193 H 0.64455 0.49559 0.72447 0.0
O194 O 0.50092 0.53232 0.66795 0.0
O195 O 0.56429 0.53211 0.65949 0.0
H196 H 0.39134 0.49357 0.88786 0.0
O197 O 0.52783 0.52963 0.91733 0.0
O198 O 0.46461 0.52531 0.92671 0.0
O199 O 0.53329 0.45382 0.94894 0.0
O200 O 0.47088 0.44971 0.94443 0.0
C201 C 0.49391 0.53909 0.95628 0.0
H202 H 0.41579 0.48354 0.44748 0.0
H203 H 0.33515 0.49312 0.77197 0.0
H204 H 0.61512 0.49027 0.17258 0.0
H205 H 0.69922 0.49319 0.8478 0.0
C206 C 0.05979 0.52135 0.53396 0.0
N207 N 0.02866 0.43246 0.75195 0.0
C208 C 0.02119 0.42422 0.64329 0.0
C209 C 0.02415 0.39165 0.61886 0.0
C210 C 0.03476 0.36716 0.7071 0.0
C211 C 0.04221 0.3759 0.81907 0.0
C212 C 0.03904 0.4091 0.83971 0.0
Zn213 Zn 0.02384 0.4816 0.77202 0.0
C214 C 0.09423 0.50754 0.85867 0.0
N215 N 0.01771 0.58512 0.78646 0.0
C216 C 1.00869 0.60875 0.69729 0.0
C217 C 0.02215 0.59297 0.89845 0.0
C218 C 0.01766 0.62524 0.92473 0.0
C219 C 1.00847 0.64995 0.83524 0.0
C220 C 1.00407 0.64175 0.71979 0.0
Zn221 Zn 0.02258 0.53587 0.765 0.0
O222 O 0.05602 0.49299 0.5968 0.0
C223 C 0.9528 0.50988 0.68 0.0
O224 O 0.04774 0.54659 0.58333 0.0
H225 H 0.02868 0.57419 0.96918 0.0
H226 H 0.01283 0.44296 0.57486 0.0
H227 H 1.00479 0.60201 0.60933 0.0
O228 O 0.97221 0.48345 0.69303 0.0
O229 O 0.9663 0.53636 0.70742 0.0
H230 H 0.04481 0.4162 0.92542 0.0
O231 O 0.99653 0.52423 0.94836 0.0
O232 O 0.98946 0.47119 0.94353 0.0
O233 O 0.07916 0.53461 0.819 0.0
O234 O 0.07626 0.48065 0.85523 0.0
C235 C 0.98188 0.49662 0.99722 0.0
H236 H 0.01808 0.38555 0.53185 0.0
H237 H 0.0503 0.35731 0.88906 0.0
H238 H 0.02129 0.63091 0.01457 0.0
H239 H 0.99708 0.66055 0.64877 0.0
C240 C 0.20646 0.03028 0.49888 0.0
C241 C 0.22559 -0.00041 0.49248 0.0
C242 C 0.16699 0.97066 0.60673 0.0
C243 C 0.14841 0.00167 0.61988 0.0
N244 N 0.15141 0.06134 0.58448 0.0
N245 N 0.22612 0.94078 0.54323 0.0
C246 C 0.16847 0.03159 0.56746 0.0
C247 C 0.20616 0.96981 0.5463 0.0
N248 N 0.22486 0.05817 0.43731 0.0
N249 N 0.14732 0.94198 0.65382 0.0
H250 H 0.25402 0.93952 0.49514 0.0
H251 H 0.21611 0.91825 0.59124 0.0
H252 H 0.12052 0.94147 0.70926 0.0
H253 H 0.15682 0.91858 0.63592 0.0
H254 H 0.21194 0.0813 0.42686 0.0
H255 H 0.25277 0.05762 0.38863 0.0
H256 H 0.16572 0.08402 0.56173 0.0
H257 H 0.12296 0.06354 0.62655 0.0
C258 C 0.55913 0.21841 0.43934 0.0
C259 C 0.52522 0.23751 0.45982 0.0
C260 C 0.48996 0.18902 0.57449 0.0
C261 C 0.52506 0.17077 0.56478 0.0
N262 N 0.59417 0.16862 0.4994 0.0
N263 N 0.45931 0.24286 0.55409 0.0
C264 C 0.55999 0.18556 0.49964 0.0
C265 C 0.49079 0.22326 0.52896 0.0
N266 N 0.59033 0.23193 0.36105 0.0
N267 N 0.45572 0.17336 0.624 0.0
H268 H 0.45864 0.26767 0.51785 0.0
H269 H 0.43482 0.23516 0.61595 0.0
H270 H 0.45405 0.14837 0.65913 0.0
H271 H 0.42862 0.18438 0.62213 0.0
H272 H 0.61494 0.21864 0.33234 0.0
H273 H 0.59016 0.25608 0.31691 0.0
H274 H 0.62121 0.17911 0.46404 0.0
H275 H 0.59594 0.14457 0.54303 0.0
C276 C 0.30088 0.45899 0.40616 0.0
C277 C 0.28999 0.48951 0.34584 0.0
C278 C 0.33218 0.51934 0.45371 0.0
C279 C 0.34031 0.48896 0.52264 0.0
N280 N 0.33201 0.42991 0.56991 0.0
N281 N 0.29282 0.54875 0.31279 0.0
C282 C 0.32461 0.4587 0.50002 0.0
C283 C 0.30538 0.51969 0.36887 0.0
N284 N 0.28789 0.43044 0.37313 0.0
N285 N 0.35083 0.54769 0.46756 0.0
H286 H 0.275 0.54951 0.24508 0.0
H287 H 0.29864 0.57192 0.33611 0.0
H288 H 0.36911 0.54876 0.53324 0.0
H289 H 0.34991 0.56981 0.4102 0.0
H290 H 0.29627 0.40685 0.40639 0.0
H291 H 0.27038 0.43061 0.30463 0.0
H292 H 0.31944 0.40719 0.56499 0.0
H293 H 0.34929 0.429 0.63915 0.0
C294 C 1.00287 0.28614 0.62134 0.0
C295 C 0.03915 0.27212 0.58231 0.0
C296 C 0.07334 0.3187 0.6386 0.0
C297 C 0.03691 0.33246 0.68019 0.0
N298 N 0.96758 0.32644 0.73594 0.0
N299 N 0.10842 0.27064 0.57317 0.0
C300 C 1.0018 0.31515 0.6797 0.0
C301 C 0.0743 0.28707 0.59742 0.0
N302 N 0.96962 0.27241 0.59733 0.0
N303 N 0.10675 0.3365 0.63331 0.0
H304 H 0.1096 0.24758 0.54161 0.0
H305 H 0.13491 0.27852 0.59283 0.0
H306 H 0.10721 0.35944 0.6651 0.0
H307 H 0.13372 0.32951 0.59123 0.0
H308 H 0.94238 0.28327 0.6117 0.0
H309 H 0.96972 0.25119 0.55411 0.0
H310 H 0.94146 0.3134 0.74847 0.0
H311 H 0.96598 0.34763 0.7799 0.0
C312 C 0.85456 0.03403 0.07394 0.0
C313 C 0.83244 0.00441 0.09652 0.0
C314 C 0.88875 0.97471 1.00212 0.0
C315 C 0.90979 0.00511 0.96858 0.0
N316 N 0.91 0.06468 0.95705 0.0
N317 N 0.82642 0.94713 0.07362 0.0
C318 C 0.89207 0.03504 1.00144 0.0
C319 C 0.84908 0.9749 0.05828 0.0
N320 N 0.8393 0.0613 0.1221 0.0
N321 N 0.90707 0.94546 0.98503 0.0
H322 H 0.79823 0.94614 0.12069 0.0
H323 H 0.83457 0.92581 0.03443 0.0
H324 H 0.93624 0.94392 0.94862 0.0
H325 H 0.8944 0.92239 0.01616 0.0
H326 H 0.85493 0.08302 0.1202 0.0
H327 H 0.81169 0.06107 0.17331 0.0
H328 H 0.89707 0.0875 0.96748 0.0
H329 H 0.9365 0.06669 0.8996 0.0
C330 C 0.56626 0.76203 0.07805 0.0
C331 C 0.53022 0.74595 0.12142 0.0
C332 C 0.49533 0.79728 0.0693 0.0
C333 C 0.53135 0.81292 0.01831 0.0
N334 N 0.60103 0.81077 0.9684 0.0
N335 N 0.46061 0.74628 0.15538 0.0
C336 C 0.56689 0.79545 0.02144 0.0
C337 C 0.49478 0.76315 0.11687 0.0
N338 N 0.59974 0.74505 0.09234 0.0
N339 N 0.46181 0.81526 0.07347 0.0
H340 H 0.45962 0.72179 0.19638 0.0
H341 H 0.4334 0.75578 0.14275 0.0
H342 H 0.46083 0.83985 0.03447 0.0
H343 H 0.43514 0.80658 0.12046 0.0
H344 H 0.62742 0.75547 0.0722 0.0
H345 H 0.59961 0.72041 0.1317 0.0
H346 H 0.62771 0.79892 0.95738 0.0
H347 H 0.6026 0.83547 0.92954 0.0
C348 C 0.73396 0.51656 0.21541 0.0
C349 C 0.74245 0.48533 0.27719 0.0
C350 C 0.69909 0.458 0.16569 0.0
C351 C 0.69134 0.48921 0.10144 0.0
N352 N 0.69477 0.54874 0.08083 0.0
N353 N 0.72837 0.42777 0.33197 0.0
C354 C 0.70686 0.51869 0.13096 0.0
C355 C 0.72303 0.45653 0.25933 0.0
N356 N 0.75312 0.544 0.23441 0.0
N357 N 0.68431 0.42982 0.13457 0.0
H358 H 0.74605 0.42676 0.40034 0.0
H359 H 0.71335 0.40587 0.33164 0.0
H360 H 0.66686 0.4301 0.06598 0.0
H361 H 0.69105 0.40603 0.17079 0.0
H362 H 0.75308 0.56672 0.18006 0.0
H363 H 0.76993 0.54376 0.3042 0.0
H364 H 0.70129 0.57113 0.10909 0.0
H365 H 0.67608 0.55132 0.0152 0.0
C366 C 0.9654 0.72749 0.95564 0.0
C367 C 0.9996 0.74161 0.98232 0.0
C368 C 0.03925 0.70112 0.87765 0.0
C369 C 1.0049 0.68426 0.86554 0.0
N370 N 0.93499 0.67975 0.89775 0.0
N371 N 0.06862 0.74047 0.98289 0.0
C372 C 0.96777 0.69719 0.90449 0.0
C373 C 0.03649 0.7282 0.94625 0.0
N374 N 0.93085 0.74333 0.9791 0.0
N375 N 0.0744 0.69112 0.82323 0.0
H376 H 0.06716 0.75981 0.03587 0.0
H377 H 0.09597 0.72974 0.9702 0.0
H378 H 0.07716 0.67136 0.77175 0.0
H379 H 0.10022 0.70414 0.81942 0.0
H380 H 0.90517 0.73622 0.9516 0.0
H381 H 0.92858 0.76519 0.0191 0.0
H382 H 0.90731 0.6859 0.93706 0.0
H383 H 0.9357 0.65793 0.85788 0.0
C384 C 0.0597 0.13365 0.48749 0.0
C385 C 0.02816 0.15524 0.50957 0.0
C386 C 0.98387 0.10784 0.567 0.0
C387 C 0.01569 0.08657 0.54242 0.0
N388 N 0.08008 0.07922 0.44019 0.0
N389 N 0.95917 0.16395 0.5465 0.0
C390 C 0.05225 0.09966 0.4877 0.0
C391 C 0.98973 0.14264 0.54109 0.0
N392 N 0.09681 0.14533 0.47521 0.0
N393 N 0.94878 0.09463 0.62097 0.0
H394 H 0.96297 0.18954 0.53052 0.0
H395 H 0.93028 0.15627 0.55844 0.0
H396 H 0.94375 0.06912 0.63549 0.0
H397 H 0.9255 0.1087 0.65492 0.0
H398 H 0.12111 0.13012 0.46828 0.0
H399 H 0.10285 0.1699 0.48343 0.0
H400 H 0.10644 0.08791 0.39035 0.0
H401 H 0.07482 0.054 0.44116 0.0
C402 C 0.37344 0.96339 0.57868 0.0
C403 C 0.36783 0.99142 0.4942 0.0
C404 C 0.4359 0.00679 0.48376 0.0
C405 C 0.43962 0.98238 0.58387 0.0
N406 N 0.40754 0.94171 0.74406 0.0
N407 N 0.39149 0.04363 0.38607 0.0
C408 C 0.40739 0.96149 0.63578 0.0
C409 C 0.39852 0.01422 0.45193 0.0
N410 N 0.34654 0.93844 0.60381 0.0
N411 N 0.4681 0.02252 0.41812 0.0
H412 H 0.36366 0.05037 0.3682 0.0
H413 H 0.41228 0.06239 0.36087 0.0
H414 H 0.49615 0.01636 0.43564 0.0
H415 H 0.46711 0.0387 0.33855 0.0
H416 H 0.35117 0.91601 0.65569 0.0
H417 H 0.3214 0.93886 0.56299 0.0
H418 H 0.38291 0.929 0.79063 0.0
H419 H 0.43052 0.94044 0.79452 0.0
C420 C 0.50831 0.36226 0.57355 0.0
C421 C 0.53769 0.35655 0.47826 0.0
C422 C 0.5692 0.40916 0.49344 0.0
C423 C 0.5415 0.41345 0.59685 0.0
N424 N 0.48998 0.38864 0.75192 0.0
N425 N 0.6001 0.37042 0.36187 0.0
C426 C 0.51242 0.38858 0.64111 0.0
C427 C 0.56937 0.37884 0.44207 0.0
N428 N 0.47624 0.34219 0.60062 0.0
N429 N 0.59411 0.43432 0.44121 0.0
H430 H 0.60113 0.34783 0.3271 0.0
H431 H 0.62573 0.3842 0.33938 0.0
H432 H 0.59424 0.45707 0.47446 0.0
H433 H 0.61228 0.43366 0.3589 0.0
H434 H 0.45112 0.348 0.65654 0.0
H435 H 0.47345 0.32094 0.56003 0.0
H436 H 0.47234 0.36884 0.79479 0.0
H437 H 0.49191 0.40645 0.80859 0.0
C438 C 0.12447 0.48682 0.29844 0.0
C439 C 0.15505 0.50996 0.28865 0.0
C440 C 0.10993 0.55008 0.37466 0.0
C441 C 0.08275 0.52414 0.41084 0.0
N442 N 0.05522 0.47587 0.35475 0.0
N443 N 0.17765 0.56432 0.30999 0.0
C444 C 0.08702 0.49525 0.35304 0.0
C445 C 0.14774 0.54227 0.32115 0.0
N446 N 0.13226 0.45586 0.26757 0.0
N447 N 0.09934 0.58175 0.39015 0.0
H448 H 0.20581 0.55904 0.27206 0.0
H449 H 0.17513 0.58687 0.34479 0.0
H450 H 0.07065 0.58782 0.42012 0.0
H451 H 0.11738 0.60218 0.35881 0.0
H452 H 0.11187 0.43675 0.28277 0.0
H453 H 0.16017 0.44871 0.23376 0.0
H454 H 0.05553 0.45502 0.30974 0.0
H455 H 0.02764 0.48301 0.39282 0.0
C456 C 0.05662 0.86527 0.03368 0.0
C457 C 0.01707 0.85588 0.06987 0.0
C458 C 1.00086 0.91248 0.1071 0.0
C459 C 0.0382 0.92275 0.04866 0.0
N460 N 0.10295 0.91018 0.96283 0.0
N461 N 0.95078 0.87031 0.13195 0.0
C462 C 0.06681 0.89933 0.01657 0.0
C463 C 0.98899 0.87942 0.10585 0.0
N464 N 0.08424 0.84159 0.01704 0.0
N465 N 0.97643 0.93508 0.15738 0.0
H466 H 0.94135 0.84666 0.12288 0.0
H467 H 0.9283 0.88648 0.15415 0.0
H468 H 0.98526 0.9595 0.15719 0.0
H469 H 0.94922 0.92913 0.20716 0.0
H470 H 0.11396 0.84649 1.00169 0.0
H471 H 0.07742 0.8165 0.02759 0.0
H472 H 0.12408 0.89512 0.92263 0.0
H473 H 0.11108 0.93504 0.95537 0.0
C474 C 0.66114 0.02911 0.11809 0.0
C475 C 0.69045 0.00551 0.09377 0.0
C476 C 0.6513 0.98123 0.96307 0.0
C477 C 0.61983 0.00228 0.9984 0.0
N478 N 0.59275 0.0426 0.12686 0.0
N479 N 0.71029 0.95487 0.01358 0.0
C480 C 0.62412 0.02525 0.08109 0.0
C481 C 0.68443 0.9802 0.02301 0.0
N482 N 0.66934 0.05586 0.17207 0.0
N483 N 0.65108 0.96384 0.86644 0.0
H484 H 0.73542 0.95346 0.0544 0.0
H485 H 0.7049 0.93373 0.97491 0.0
H486 H 0.6287 0.96497 0.81406 0.0
H487 H 0.67525 0.95131 0.82896 0.0
H488 H 0.65031 0.07552 0.1832 0.0
H489 H 0.69682 0.0597 0.19497 0.0
H490 H 0.59344 0.05734 0.19611 0.0
H491 H 0.56508 0.0398 0.10368 0.0
C492 C 0.47598 0.62406 0.063 0.0
C493 C 0.51089 0.62629 0.11434 0.0
C494 C 0.51937 0.56729 0.11149 0.0
C495 C 0.49119 0.56672 0.03221 0.0
N496 N 0.44371 0.5972 0.92389 0.0
N497 N 0.57038 0.60031 0.16101 0.0
C498 C 0.46927 0.59572 0.0062 0.0
C499 C 0.53402 0.59793 0.13096 0.0
N500 N 0.44889 0.64844 0.07109 0.0
N501 N 0.53142 0.53851 0.17005 0.0
H502 H 0.58289 0.6231 0.16662 0.0
H503 H 0.58904 0.58012 0.16713 0.0
H504 H 0.51764 0.51609 0.16655 0.0
H505 H 0.55082 0.53787 0.23334 0.0
H506 H 0.42163 0.64657 0.04398 0.0
H507 H 0.45208 0.66873 0.11693 0.0
H508 H 0.43068 0.6192 0.89274 0.0
H509 H 0.43734 0.57722 0.88066 0.0
C510 C 0.88728 0.51785 0.18529 0.0
C511 C 0.88117 0.48893 0.2694 0.0
C512 C 0.94666 0.47023 0.19855 0.0
C513 C 0.94957 0.49605 0.09949 0.0
N514 N 0.91745 0.54141 0.9884 0.0
N515 N 0.90328 0.43641 0.35486 0.0
C516 C 0.91903 0.5196 0.09136 0.0
C517 C 0.91067 0.46496 0.27728 0.0
N518 N 0.86089 0.54281 0.18966 0.0
N519 N 0.97818 0.45099 0.21727 0.0
H520 H 0.87686 0.43217 0.41189 0.0
H521 H 0.92207 0.41633 0.35678 0.0
H522 H 1.00497 0.45471 0.16177 0.0
H523 H 0.97878 0.4336 0.29376 0.0
H524 H 0.86639 0.56642 0.1425 0.0
H525 H 0.83463 0.54052 0.24715 0.0
H526 H 0.89306 0.55551 0.97295 0.0
H527 H 0.93801 0.54342 0.91138 0.0
C528 C 0.08645 0.18326 0.22531 0.0
C529 C 0.04937 0.19466 0.26989 0.0
C530 C 0.01951 0.16039 0.14424 0.0
C531 C 0.05527 0.14343 0.12352 0.0
N532 N 0.12337 0.13837 0.14369 0.0
N533 N 0.98098 0.19796 0.26453 0.0
C534 C 0.08926 0.15526 0.16109 0.0
C535 C 0.01606 0.18484 0.22477 0.0
N536 N 0.11867 0.19847 0.24946 0.0
N537 N 0.98918 0.15308 0.08661 0.0
H538 H 0.97869 0.21721 0.31842 0.0
H539 H 0.9545 0.18923 0.24793 0.0
H540 H 0.99119 0.13549 0.02589 0.0
H541 H 0.96331 0.16626 0.09068 0.0
H542 H 0.14684 0.19313 0.21184 0.0
H543 H 0.11669 0.21844 0.29979 0.0
H544 H 0.14787 0.14363 0.18168 0.0
H545 H 0.12648 0.11749 0.0982 0.0
C546 C 0.36445 0.02044 0.13843 0.0
C547 C 0.35656 0.99349 0.23249 0.0
C548 C 0.42101 0.97109 0.16832 0.0
C549 C 0.42773 0.99619 0.06649 0.0
N550 N 0.39861 0.03885 0.93715 0.0
N551 N 0.37244 0.93817 0.30882 0.0
C552 C 0.39737 0.01924 0.04622 0.0
C553 C 0.38329 0.96713 0.23755 0.0
N554 N 0.34158 0.04785 0.1393 0.0
N555 N 0.45101 0.9523 0.20455 0.0
H556 H 0.34425 0.93449 0.35513 0.0
H557 H 0.3898 0.91713 0.31024 0.0
H558 H 0.47977 0.95654 0.16458 0.0
H559 H 0.44792 0.93558 0.28409 0.0
H560 H 0.34843 0.06953 0.08005 0.0
H561 H 0.3179 0.04998 0.20637 0.0
H562 H 0.37551 0.05382 0.91492 0.0
H563 H 0.42034 0.03726 0.86363 0.0
C564 C 0.53889 0.3575 0.13428 0.0
C565 C 0.51059 0.34991 0.23726 0.0
C566 C 0.47463 0.40018 0.17821 0.0
C567 C 0.5022 0.4073 0.07122 0.0
N568 N 0.55545 0.38713 0.93381 0.0
N569 N 0.44635 0.35798 0.33894 0.0
C570 C 0.53287 0.38435 0.04532 0.0
C571 C 0.4768 0.36944 0.25367 0.0
N572 N 0.57209 0.33922 0.12245 0.0
N573 N 0.44775 0.42324 0.21163 0.0
H574 H 0.44663 0.33451 0.38827 0.0
H575 H 0.41958 0.3698 0.34981 0.0
H576 H 0.44587 0.44639 0.1612 0.0
H577 H 0.42967 0.42058 0.29514 0.0
H578 H 0.59644 0.34625 0.05887 0.0
H579 H 0.57645 0.31816 0.18229 0.0
H580 H 0.57461 0.36888 0.90558 0.0
H581 H 0.55255 0.4058 0.86377 0.0
C582 C 0.18604 0.47543 0.98596 0.0
C583 C 0.19642 0.50276 0.04109 0.0
C584 C 0.14313 0.53449 0.96824 0.0
C585 C 0.13186 0.50734 0.91114 0.0
N586 N 0.15447 0.45759 0.82564 0.0
N587 N 0.19699 0.56147 0.03258 0.0
C588 C 0.15707 0.47946 0.90703 0.0
C589 C 0.17945 0.53352 0.01154 0.0
N590 N 0.20258 0.44541 0.01269 0.0
N591 N 0.11815 0.55945 0.99455 0.0
H592 H 0.22408 0.5605 0.06284 0.0
H593 H 0.18676 0.58512 0.00706 0.0
H594 H 0.08899 0.55882 0.98539 0.0
H595 H 0.12495 0.57814 0.04373 0.0
H596 H 0.19302 0.42377 0.98544 0.0
H597 H 0.22425 0.4421 0.06854 0.0
H598 H 0.17397 0.43823 0.81435 0.0
H599 H 0.13629 0.46135 0.75877 0.0
C600 C 0.03403 0.8267 0.32648 0.0
C601 C 0.99821 0.81477 0.30573 0.0
C602 C 0.96487 0.84862 0.45392 0.0
C603 C 0.99999 0.86665 0.44817 0.0
N604 N 0.06759 0.87525 0.35956 0.0
N605 N 0.92876 0.81234 0.35343 0.0
C606 C 0.03479 0.85602 0.38102 0.0
C607 C 0.96333 0.82456 0.37292 0.0
N608 N 0.06726 0.81106 0.2858 0.0
N609 N 0.93345 0.85414 0.53708 0.0
H610 H 0.9273 0.79424 0.29609 0.0
H611 H 0.90191 0.82137 0.3885 0.0
H612 H 0.93404 0.87102 0.59953 0.0
H613 H 0.9082 0.83982 0.55162 0.0
H614 H 0.09453 0.81748 0.30428 0.0
H615 H 0.06644 0.78963 0.24389 0.0
H616 H 0.09236 0.86968 0.30155 0.0
H617 H 0.06867 0.8986 0.38769 0.0
C618 C 0.6751 0.96591 0.36577 0.0
C619 C 0.70081 0.99306 0.35725 0.0
C620 C 0.65965 0.01249 0.53189 0.0
C621 C 0.63029 0.98886 0.52517 0.0
N622 N 0.60901 0.94536 0.42145 0.0
N623 N 0.71568 0.04434 0.42599 0.0
C624 C 0.63783 0.96597 0.43871 0.0
C625 C 0.69266 0.01686 0.43917 0.0
N626 N 0.68697 0.93961 0.30619 0.0
N627 N 0.65715 0.02975 0.62978 0.0
H628 H 0.74012 0.04821 0.35987 0.0
H629 H 0.70866 0.06444 0.47376 0.0
H630 H 0.6348 0.02623 0.70299 0.0
H631 H 0.67953 0.04474 0.64514 0.0
H632 H 0.67091 0.91779 0.31521 0.0
H633 H 0.71507 0.93846 0.25956 0.0
H634 H 0.61188 0.93059 0.35123 0.0
H635 H 0.58099 0.94538 0.46941 0.0
C636 C 0.5612 0.62879 0.42516 0.0
C637 C 0.52713 0.63452 0.36881 0.0
C638 C 0.50414 0.5795 0.45622 0.0
C639 C 0.5347 0.57528 0.52884 0.0
N640 N 0.58723 0.60214 0.60181 0.0
N641 N 0.46097 0.61898 0.36623 0.0
C642 C 0.56193 0.6017 0.51938 0.0
C643 C 0.49665 0.61122 0.39786 0.0
N644 N 0.59349 0.648 0.38547 0.0
N645 N 0.48457 0.55283 0.43301 0.0
H646 H 0.45478 0.64269 0.32667 0.0
H647 H 0.43718 0.60294 0.39099 0.0
H648 H 0.49488 0.52901 0.453 0.0
H649 H 0.46324 0.55478 0.37578 0.0
H650 H 0.62004 0.64278 0.4165 0.0
H651 H 0.59483 0.66689 0.31282 0.0
H652 H 0.60512 0.62243 0.60273 0.0
H653 H 0.5873 0.58434 0.67722 0.0
C654 C 0.86625 0.53024 0.50813 0.0
C655 C 0.84833 0.49885 0.52532 0.0
C656 C 0.8893 0.48098 0.68115 0.0
C657 C 0.91421 0.50875 0.63738 0.0
N658 N 0.92688 0.55922 0.49638 0.0
N659 N 0.84087 0.44414 0.63382 0.0
C660 C 0.9026 0.53366 0.54878 0.0
C661 C 0.85897 0.47423 0.61491 0.0
N662 N 0.84811 0.55676 0.45491 0.0
N663 N 0.89389 0.46175 0.78743 0.0
H664 H 0.81774 0.43918 0.58871 0.0
H665 H 0.85027 0.42385 0.68842 0.0
H666 H 0.91411 0.46736 0.8424 0.0
H667 H 0.87471 0.44274 0.82784 0.0
H668 H 0.85874 0.58088 0.44663 0.0
H669 H 0.82001 0.55471 0.43416 0.0
H670 H 0.92045 0.57592 0.42336 0.0
H671 H 0.9549 0.56194 0.51625 0.0
loop_
_geom_bond_atom_site_label_1
_geom_bond_atom_site_label_2
_geom_bond_distance
_geom_bond_site_symmetry_2
_ccdc_geom_bond_type
C0 N1 1.317 . S
C0 N2 1.348 . S
C0 C3 1.485 . S
N1 C0 1.317 . S
N1 N5 1.370 . S
N2 C0 1.348 . S
N2 C4 1.346 . S
C3 C0 1.485 . S
C3 H7 0.960 . S
C3 H8 0.961 . S
C3 H9 0.960 . S
C4 N2 1.346 . S
C4 N5 1.307 . S
C4 C6 1.486 1_554 S
N5 N1 1.370 . S
N5 C4 1.307 . S
C6 C4 1.486 1_556 S
C6 H10 0.960 . S
C6 H11 0.960 . S
C6 H12 0.959 . S
H7 C3 0.960 . S
H8 C3 0.961 . S
H9 C3 0.960 . S
H10 C6 0.960 . S
H11 C6 0.960 . S
H12 C6 0.959 . S
C13 N14 1.317 . S
C13 N15 1.348 1_554 S
C13 C16 1.485 . S
N14 C13 1.317 . S
N14 N18 1.370 1_554 S
N15 C13 1.348 1_556 S
N15 C17 1.346 . S
C16 C13 1.485 . S
C16 H20 0.960 . S
C16 H21 0.961 . S
C16 H22 0.960 . S
C17 N15 1.346 . S
C17 N18 1.307 . S
C17 C19 1.486 . S
N18 N14 1.370 1_556 S
N18 C17 1.307 . S
C19 C17 1.486 . S
C19 H23 0.960 . S
C19 H24 0.960 . S
C19 H25 0.959 . S
H20 C16 0.960 . S
H21 C16 0.961 . S
H22 C16 0.960 . S
H23 C19 0.960 . S
H24 C19 0.960 . S
H25 C19 0.959 . S
C26 N27 1.317 . S
C26 N28 1.348 . S
C26 C29 1.485 . S
N27 C26 1.317 . S
N27 N31 1.369 . S
N28 C26 1.348 . S
N28 C30 1.346 1_565 S
C29 C26 1.485 . S
C29 H33 0.960 1_565 S
C29 H34 0.961 . S
C29 H35 0.960 . S
C30 N28 1.346 1_545 S
C30 N31 1.308 1_545 S
C30 C32 1.486 1_554 S
N31 N27 1.369 . S
N31 C30 1.308 1_565 S
C32 C30 1.486 1_556 S
C32 H36 0.960 1_545 S
C32 H37 0.960 . S
C32 H38 0.959 . S
H33 C29 0.960 1_545 S
H34 C29 0.961 . S
H35 C29 0.960 . S
H36 C32 0.960 1_565 S
H37 C32 0.960 . S
H38 C32 0.959 . S
C39 N40 1.317 . S
C39 N41 1.348 . S
C39 C42 1.485 . S
N40 C39 1.317 . S
N40 N44 1.370 . S
N41 C39 1.348 . S
N41 C43 1.346 . S
C42 C39 1.485 . S
C42 H46 0.960 . S
C42 H47 0.961 . S
C42 H48 0.960 . S
C43 N41 1.346 . S
C43 N44 1.307 . S
C43 C45 1.486 1_554 S
N44 N40 1.370 . S
N44 C43 1.307 . S
C45 C43 1.486 1_556 S
C45 H49 0.960 . S
C45 H50 0.960 . S
C45 H51 0.959 . S
H46 C42 0.960 . S
H47 C42 0.961 . S
H48 C42 0.960 . S
H49 C45 0.960 . S
H50 C45 0.960 . S
H51 C45 0.959 . S
C52 N53 1.317 . S
C52 N54 1.348 . S
C52 C55 1.485 . S
N53 C52 1.317 . S
N53 N57 1.370 . S
N54 C52 1.348 . S
N54 C56 1.346 . S
C55 C52 1.485 . S
C55 H59 0.960 . S
C55 H60 0.961 . S
C55 H61 0.960 . S
C56 N54 1.346 . S
C56 N57 1.307 . S
C56 C58 1.486 . S
N57 N53 1.370 . S
N57 C56 1.307 . S
C58 C56 1.486 . S
C58 H62 0.960 . S
C58 H63 0.960 . S
C58 H64 0.959 . S
H59 C55 0.960 . S
H60 C55 0.961 . S
H61 C55 0.960 . S
H62 C58 0.960 . S
H63 C58 0.960 . S
H64 C58 0.959 . S
C65 N66 1.317 . S
C65 N67 1.348 . S
C65 C68 1.485 . S
N66 C65 1.317 . S
N66 N70 1.370 . S
N67 C65 1.348 . S
N67 C69 1.346 . S
C68 C65 1.485 . S
C68 H72 0.960 . S
C68 H73 0.961 . S
C68 H74 0.960 . S
C69 N67 1.346 . S
C69 N70 1.307 . S
C69 C71 1.486 . S
N70 N66 1.370 . S
N70 C69 1.307 . S
C71 C69 1.486 . S
C71 H75 0.960 . S
C71 H76 0.960 . S
C71 H77 0.959 . S
H72 C68 0.960 . S
H73 C68 0.961 . S
H74 C68 0.960 . S
H75 C71 0.960 . S
H76 C71 0.960 . S
H77 C71 0.959 . S
C78 N79 1.317 . S
C78 N80 1.353 . S
C78 C81 1.485 . S
N79 C78 1.317 . S
N79 N83 1.371 . S
N80 C78 1.353 . S
N80 C82 1.342 1_565 S
C81 C78 1.485 . S
C81 H85 0.960 1_565 S
C81 H86 0.961 . S
C81 H87 0.960 . S
C82 N80 1.342 1_545 S
C82 N83 1.306 1_545 S
C82 C84 1.488 . S
N83 N79 1.371 . S
N83 C82 1.306 1_565 S
C84 C82 1.488 . S
C84 H88 0.960 1_545 S
C84 H89 0.960 . S
C84 H90 0.959 . S
H85 C81 0.960 1_545 S
H86 C81 0.961 . S
H87 C81 0.960 . S
H88 C84 0.960 1_565 S
H89 C84 0.960 . S
H90 C84 0.959 . S
C91 N92 1.317 . S
C91 N93 1.348 . S
C91 C94 1.485 . S
N92 C91 1.317 . S
N92 N96 1.370 . S
N93 C91 1.348 . S
N93 C95 1.346 . S
C94 C91 1.485 . S
C94 H98 0.960 . S
C94 H99 0.961 . S
C94 H100 0.960 . S
C95 N93 1.346 . S
C95 N96 1.307 . S
C95 C97 1.486 . S
N96 N92 1.370 . S
N96 C95 1.307 . S
C97 C95 1.486 . S
C97 H101 0.960 . S
C97 H102 0.960 . S
C97 H103 0.959 . S
H98 C94 0.960 . S
H99 C94 0.961 . S
H100 C94 0.960 . S
H101 C97 0.960 . S
H102 C97 0.960 . S
H103 C97 0.959 . S
C104 O120 1.251 . S
C104 O122 1.254 . S
N105 C106 1.333 1_655 S
N105 C110 1.307 . S
N105 Zn111 2.020 1_655 S
C106 N105 1.333 1_455 S
C106 C107 1.379 . S
C106 H124 0.952 . S
C107 C106 1.379 . S
C107 C108 1.390 1_455 S
C107 H134 0.949 . S
C108 C107 1.390 1_655 S
C108 C109 1.357 . S
C109 C108 1.357 . S
C109 C110 1.370 . S
C109 H135 0.950 . S
C110 N105 1.307 . S
C110 C109 1.370 . S
C110 H128 0.948 1_565 S
Zn111 N105 2.020 1_455 S
Zn111 O120 2.039 . S
Zn111 O126 2.034 . S
Zn111 O130 2.025 1_565 S
Zn111 O132 2.024 1_455 S
C112 O131 1.246 . S
C112 O132 1.249 1_545 S
N113 C114 1.307 . S
N113 C115 1.333 . S
N113 Zn119 2.020 1_554 S
C114 N113 1.307 . S
C114 C118 1.370 . S
C114 H125 0.948 1_545 S
C115 N113 1.333 . S
C115 C116 1.379 . S
C115 H123 0.952 1_554 S
C116 C115 1.379 . S
C116 C117 1.390 . S
C116 H136 0.949 . S
C117 C116 1.390 . S
C117 C118 1.357 . S
C118 C114 1.370 . S
C118 C117 1.357 . S
C118 H137 0.950 . S
Zn119 N113 2.020 1_556 S
Zn119 O122 2.025 1_545 S
Zn119 O127 2.024 . S
Zn119 O129 2.039 . S
Zn119 O131 2.034 1_455 S
O120 C104 1.251 . S
O120 Zn111 2.039 . S
C121 O126 1.246 . S
C121 O127 1.249 1_565 S
O122 C104 1.254 . S
O122 Zn119 2.025 1_565 S
H123 C115 0.952 1_556 S
H124 C106 0.952 . S
H125 C114 0.948 1_565 S
O126 Zn111 2.034 . S
O126 C121 1.246 . S
O127 Zn119 2.024 . S
O127 C121 1.249 1_545 S
H128 C110 0.948 1_545 S
O129 Zn119 2.039 . S
O129 C133 1.251 . S
O130 Zn111 2.025 1_545 S
O130 C133 1.254 . S
O131 C112 1.246 . S
O131 Zn119 2.034 1_655 S
O132 Zn111 2.024 1_655 S
O132 C112 1.249 1_565 S
C133 O129 1.251 . S
C133 O130 1.254 . S
H134 C107 0.949 . S
H135 C109 0.950 . S
H136 C116 0.949 . S
H137 C118 0.950 . S
C138 O154 1.251 1_565 S
C138 O156 1.254 . S
N139 C140 1.333 . S
N139 C144 1.307 . S
N139 Zn145 2.020 . S
C140 N139 1.333 . S
C140 C141 1.379 . S
C140 H158 0.952 . S
C141 C140 1.379 . S
C141 C142 1.390 . S
C141 H168 0.949 . S
C142 C141 1.390 . S
C142 C143 1.357 . S
C143 C142 1.357 . S
C143 C144 1.370 . S
C143 H169 0.950 . S
C144 N139 1.307 . S
C144 C143 1.370 . S
C144 H162 0.948 . S
Zn145 N139 2.020 . S
Zn145 O154 2.039 . S
Zn145 O160 2.034 . S
Zn145 O164 2.025 . S
Zn145 O166 2.024 . S
C146 O165 1.246 1_545 S
C146 O166 1.249 . S
N147 C148 1.307 . S
N147 C149 1.333 . S
N147 Zn153 2.020 . S
C148 N147 1.307 . S
C148 C152 1.370 . S
C148 H159 0.948 . S
C149 N147 1.333 . S
C149 C150 1.379 . S
C149 H157 0.952 . S
C150 C149 1.379 . S
C150 C151 1.390 . S
C150 H170 0.949 1_556 S
C151 C150 1.390 . S
C151 C152 1.357 . S
C152 C148 1.370 . S
C152 C151 1.357 . S
C152 H171 0.950 . S
Zn153 N147 2.020 . S
Zn153 O156 2.025 . S
Zn153 O161 2.024 . S
Zn153 O163 2.039 . S
Zn153 O165 2.034 . S
O154 C138 1.251 1_545 S
O154 Zn145 2.039 . S
C155 O160 1.246 1_565 S
C155 O161 1.249 . S
O156 C138 1.254 . S
O156 Zn153 2.025 . S
H157 C149 0.952 . S
H158 C140 0.952 . S
H159 C148 0.948 . S
O160 Zn145 2.034 . S
O160 C155 1.246 1_545 S
O161 Zn153 2.024 . S
O161 C155 1.249 . S
H162 C144 0.948 . S
O163 Zn153 2.039 . S
O163 C167 1.251 1_565 S
O164 Zn145 2.025 . S
O164 C167 1.254 . S
O165 C146 1.246 1_565 S
O165 Zn153 2.034 . S
O166 Zn145 2.024 . S
O166 C146 1.249 . S
C167 O163 1.251 1_545 S
C167 O164 1.254 . S
H168 C141 0.949 . S
H169 C143 0.950 . S
H170 C150 0.949 1_554 S
H171 C152 0.950 . S
C172 O188 1.251 . S
C172 O190 1.254 . S
N173 C174 1.333 . S
N173 C178 1.307 . S
N173 Zn179 2.020 . S
C174 N173 1.333 . S
C174 C175 1.379 . S
C174 H192 0.952 . S
C175 C174 1.379 . S
C175 C176 1.390 . S
C175 H202 0.949 . S
C176 C175 1.390 . S
C176 C177 1.357 . S
C177 C176 1.357 . S
C177 C178 1.370 . S
C177 H203 0.950 . S
C178 N173 1.307 . S
C178 C177 1.370 . S
C178 H196 0.948 . S
Zn179 N173 2.020 . S
Zn179 O188 2.039 . S
Zn179 O194 2.034 . S
Zn179 O198 2.025 . S
Zn179 O200 2.024 . S
C180 O199 1.246 . S
C180 O200 1.249 . S
N181 C182 1.307 . S
N181 C183 1.333 . S
N181 Zn187 2.020 . S
C182 N181 1.307 . S
C182 C186 1.370 . S
C182 H193 0.948 . S
C183 N181 1.333 . S
C183 C184 1.379 . S
C183 H191 0.952 . S
C184 C183 1.379 . S
C184 C185 1.390 . S
C184 H204 0.949 1_556 S
C185 C184 1.390 . S
C185 C186 1.357 . S
C186 C182 1.370 . S
C186 C185 1.357 . S
C186 H205 0.950 . S
Zn187 N181 2.020 . S
Zn187 O190 2.025 . S
Zn187 O195 2.024 . S
Zn187 O197 2.039 . S
Zn187 O199 2.034 . S
O188 C172 1.251 . S
O188 Zn179 2.039 . S
C189 O194 1.246 . S
C189 O195 1.249 . S
O190 C172 1.254 . S
O190 Zn187 2.025 . S
H191 C183 0.952 . S
H192 C174 0.952 . S
H193 C182 0.948 . S
O194 Zn179 2.034 . S
O194 C189 1.246 . S
O195 Zn187 2.024 . S
O195 C189 1.249 . S
H196 C178 0.948 . S
O197 Zn187 2.039 . S
O197 C201 1.251 . S
O198 Zn179 2.025 . S
O198 C201 1.254 . S
O199 C180 1.246 . S
O199 Zn187 2.034 . S
O200 Zn179 2.024 . S
O200 C180 1.249 . S
C201 O197 1.251 . S
C201 O198 1.254 . S
H202 C175 0.949 . S
H203 C177 0.950 . S
H204 C184 0.949 1_554 S
H205 C186 0.950 . S
C206 O222 1.251 . S
C206 O224 1.254 . S
N207 C208 1.333 . S
N207 C212 1.307 . S
N207 Zn213 2.020 . S
C208 N207 1.333 . S
C208 C209 1.379 . S
C208 H226 0.952 . S
C209 C208 1.379 . S
C209 C210 1.390 . S
C209 H236 0.949 . S
C210 C209 1.390 . S
C210 C211 1.357 . S
C211 C210 1.357 . S
C211 C212 1.370 . S
C211 H237 0.950 . S
C212 N207 1.307 . S
C212 C211 1.370 . S
C212 H230 0.951 . S
Zn213 N207 2.020 . S
Zn213 O222 2.039 . S
Zn213 O228 2.034 1_455 S
Zn213 O232 2.025 1_455 S
Zn213 O234 2.024 . S
C214 O233 1.246 . S
C214 O234 1.249 . S
N215 C216 1.307 . S
N215 C217 1.333 1_455 S
N215 Zn221 2.020 . S
C216 N215 1.307 . S
C216 C220 1.370 . S
C216 H227 0.948 . S
C217 N215 1.333 1_655 S
C217 C218 1.379 . S
C217 H225 0.952 . S
C218 C217 1.379 . S
C218 C219 1.390 1_655 S
C218 H238 0.949 . S
C219 C218 1.390 1_455 S
C219 C220 1.357 . S
C220 C216 1.370 . S
C220 C219 1.357 . S
C220 H239 0.950 . S
Zn221 N215 2.020 . S
Zn221 O224 2.025 . S
Zn221 O229 2.024 1_455 S
Zn221 O231 2.039 1_455 S
Zn221 O233 2.034 . S
O222 C206 1.251 . S
O222 Zn213 2.039 . S
C223 O228 1.246 . S
C223 O229 1.249 . S
O224 C206 1.254 . S
O224 Zn221 2.025 . S
H225 C217 0.952 . S
H226 C208 0.952 . S
H227 C216 0.948 . S
O228 Zn213 2.034 1_655 S
O228 C223 1.246 . S
O229 Zn221 2.024 1_655 S
O229 C223 1.249 . S
H230 C212 0.951 . S
O231 Zn221 2.039 1_655 S
O231 C235 1.251 . S
O232 Zn213 2.025 1_655 S
O232 C235 1.254 . S
O233 C214 1.246 . S
O233 Zn221 2.034 . S
O234 Zn213 2.024 . S
O234 C214 1.249 . S
C235 O231 1.251 . S
C235 O232 1.254 . S
H236 C209 0.949 . S
H237 C211 0.950 . S
H238 C218 0.949 . S
H239 C220 0.950 . S
C240 C241 1.339 1_545 S
C240 C246 1.379 . S
C240 N248 1.356 . S
C241 C240 1.339 1_565 S
C241 C247 1.387 . S
C242 C243 1.363 . S
C242 C247 1.379 . S
C242 N249 1.356 . S
C243 C242 1.363 . S
C243 C246 1.363 1_565 S
N244 C246 1.356 . S
N244 H256 0.984 . S
N244 H257 0.985 . S
N245 C247 1.356 . S
N245 H250 0.984 . S
N245 H251 0.985 . S
C246 C240 1.379 . S
C246 C243 1.363 1_545 S
C246 N244 1.356 . S
C247 C241 1.387 . S
C247 C242 1.379 . S
C247 N245 1.356 . S
N248 C240 1.356 . S
N248 H254 0.984 . S
N248 H255 0.984 . S
N249 C242 1.356 . S
N249 H252 0.984 . S
N249 H253 0.985 . S
H250 N245 0.984 . S
H251 N245 0.985 . S
H252 N249 0.984 . S
H253 N249 0.985 . S
H254 N248 0.984 . S
H255 N248 0.984 . S
H256 N244 0.984 . S
H257 N244 0.985 . S
C258 C259 1.363 . S
C258 C264 1.379 . S
C258 N266 1.356 . S
C259 C258 1.363 . S
C259 C265 1.363 . S
C260 C261 1.363 . S
C260 C265 1.379 . S
C260 N267 1.356 . S
C261 C260 1.363 . S
C261 C264 1.363 . S
N262 C264 1.356 . S
N262 H274 0.984 . S
N262 H275 0.985 . S
N263 C265 1.356 . S
N263 H268 0.984 . S
N263 H269 0.985 . S
C264 C258 1.379 . S
C264 C261 1.363 . S
C264 N262 1.356 . S
C265 C259 1.363 . S
C265 C260 1.379 . S
C265 N263 1.356 . S
N266 C258 1.356 . S
N266 H272 0.984 . S
N266 H273 0.984 . S
N267 C260 1.356 . S
N267 H270 0.984 . S
N267 H271 0.985 . S
H268 N263 0.984 . S
H269 N263 0.985 . S
H270 N267 0.984 . S
H271 N267 0.985 . S
H272 N266 0.984 . S
H273 N266 0.984 . S
H274 N262 0.984 . S
H275 N262 0.985 . S
C276 C277 1.363 . S
C276 C282 1.379 . S
C276 N284 1.356 . S
C277 C276 1.363 . S
C277 C283 1.363 . S
C278 C279 1.363 . S
C278 C283 1.379 . S
C278 N285 1.356 . S
C279 C278 1.363 . S
C279 C282 1.363 . S
N280 C282 1.356 . S
N280 H292 0.984 . S
N280 H293 0.985 . S
N281 C283 1.356 . S
N281 H286 0.984 . S
N281 H287 0.985 . S
C282 C276 1.379 . S
C282 C279 1.363 . S
C282 N280 1.356 . S
C283 C277 1.363 . S
C283 C278 1.379 . S
C283 N281 1.356 . S
N284 C276 1.356 . S
N284 H290 0.984 . S
N284 H291 0.984 . S
N285 C278 1.356 . S
N285 H288 0.984 . S
N285 H289 0.985 . S
H286 N281 0.984 . S
H287 N281 0.985 . S
H288 N285 0.984 . S
H289 N285 0.985 . S
H290 N284 0.984 . S
H291 N284 0.984 . S
H292 N280 0.984 . S
H293 N280 0.985 . S
C294 C295 1.363 . S
C294 C300 1.379 . S
C294 N302 1.356 . S
C295 C294 1.363 . S
C295 C301 1.363 . S
C296 C297 1.363 . S
C296 C301 1.379 . S
C296 N303 1.356 . S
C297 C296 1.363 . S
C297 C300 1.363 . S
N298 C300 1.369 . S
N298 H310 0.973 1_455 S
N298 H311 0.985 . S
N299 C301 1.356 . S
N299 H304 0.984 . S
N299 H305 0.985 . S
C300 C294 1.379 . S
C300 C297 1.363 . S
C300 N298 1.369 . S
C301 C295 1.363 . S
C301 C296 1.379 . S
C301 N299 1.356 . S
N302 C294 1.356 . S
N302 H308 0.984 . S
N302 H309 0.984 . S
N303 C296 1.356 . S
N303 H306 0.984 . S
N303 H307 0.985 . S
H304 N299 0.984 . S
H305 N299 0.985 . S
H306 N303 0.984 . S
H307 N303 0.985 . S
H308 N302 0.984 . S
H309 N302 0.984 . S
H310 N298 0.973 1_655 S
H311 N298 0.985 . S
C312 C313 1.363 1_556 S
C312 C318 1.379 . S
C312 N320 1.356 . S
C313 C312 1.363 1_554 S
C313 C319 1.363 1_545 S
C314 C315 1.363 1_564 S
C314 C319 1.379 . S
C314 N321 1.356 . S
C315 C314 1.363 1_546 S
C315 C318 1.363 . S
N316 C318 1.356 . S
N316 H328 0.984 . S
N316 H329 0.985 . S
N317 C319 1.356 . S
N317 H322 0.984 . S
N317 H323 0.985 . S
C318 C312 1.379 . S
C318 C315 1.363 . S
C318 N316 1.356 . S
C319 C313 1.363 1_565 S
C319 C314 1.379 . S
C319 N317 1.356 . S
N320 C312 1.356 . S
N320 H326 0.984 . S
N320 H327 0.984 1_556 S
N321 C314 1.356 . S
N321 H324 0.984 1_554 S
N321 H325 0.985 . S
H322 N317 0.984 . S
H323 N317 0.985 . S
H324 N321 0.984 1_556 S
H325 N321 0.985 . S
H326 N320 0.984 . S
H327 N320 0.984 1_554 S
H328 N316 0.984 . S
H329 N316 0.985 . S
C330 C331 1.363 1_556 S
C330 C336 1.379 . S
C330 N338 1.356 . S
C331 C330 1.363 1_554 S
C331 C337 1.363 . S
C332 C333 1.363 1_554 S
C332 C337 1.379 . S
C332 N339 1.356 . S
C333 C332 1.363 1_556 S
C333 C336 1.363 . S
N334 C336 1.356 . S
N334 H346 0.984 . S
N334 H347 0.985 . S
N335 C337 1.356 . S
N335 H340 0.984 . S
N335 H341 0.985 . S
C336 C330 1.379 . S
C336 C333 1.363 . S
C336 N334 1.356 . S
C337 C331 1.363 . S
C337 C332 1.379 . S
C337 N335 1.356 . S
N338 C330 1.356 . S
N338 H344 0.984 . S
N338 H345 0.984 . S
N339 C332 1.356 . S
N339 H342 0.984 . S
N339 H343 0.985 . S
H340 N335 0.984 . S
H341 N335 0.985 . S
H342 N339 0.984 . S
H343 N339 0.985 . S
H344 N338 0.984 . S
H345 N338 0.984 . S
H346 N334 0.984 . S
H347 N334 0.985 . S
C348 C349 1.363 . S
C348 C354 1.379 . S
C348 N356 1.356 . S
C349 C348 1.363 . S
C349 C355 1.363 . S
C350 C351 1.363 . S
C350 C355 1.379 1_556 S
C350 N357 1.356 . S
C351 C350 1.363 . S
C351 C354 1.363 1_556 S
N352 C354 1.356 1_556 S
N352 H364 0.984 1_556 S
N352 H365 0.985 . S
N353 C355 1.356 . S
N353 H358 0.984 . S
N353 H359 0.985 . S
C354 C348 1.379 . S
C354 C351 1.363 1_554 S
C354 N352 1.356 1_554 S
C355 C349 1.363 . S
C355 C350 1.379 1_554 S
C355 N353 1.356 . S
N356 C348 1.356 . S
N356 H362 0.984 . S
N356 H363 0.984 . S
N357 C350 1.356 . S
N357 H360 0.984 . S
N357 H361 0.985 . S
H358 N353 0.984 . S
H359 N353 0.985 . S
H360 N357 0.984 . S
H361 N357 0.985 . S
H362 N356 0.984 . S
H363 N356 0.984 . S
H364 N352 0.984 1_554 S
H365 N352 0.985 . S
C366 C367 1.363 . S
C366 C372 1.379 . S
C366 N374 1.356 . S
C367 C366 1.363 . S
C367 C373 1.363 1_655 S
C368 C369 1.363 1_455 S
C368 C373 1.379 . S
C368 N375 1.356 . S
C369 C368 1.363 1_655 S
C369 C372 1.363 . S
N370 C372 1.356 . S
N370 H382 0.984 . S
N370 H383 0.985 . S
N371 C373 1.356 . S
N371 H376 0.984 1_556 S
N371 H377 0.985 . S
C372 C366 1.379 . S
C372 C369 1.363 . S
C372 N370 1.356 . S
C373 C367 1.363 1_455 S
C373 C368 1.379 . S
C373 N371 1.356 . S
N374 C366 1.356 . S
N374 H380 0.984 . S
N374 H381 0.984 . S
N375 C368 1.356 . S
N375 H378 0.984 . S
N375 H379 0.985 . S
H376 N371 0.984 1_554 S
H377 N371 0.985 . S
H378 N375 0.984 . S
H379 N375 0.985 . S
H380 N374 0.984 . S
H381 N374 0.984 . S
H382 N370 0.984 . S
H383 N370 0.985 . S
C384 C385 1.363 . S
C384 C390 1.379 . S
C384 N392 1.356 . S
C385 C384 1.363 . S
C385 C391 1.363 . S
C386 C387 1.363 . S
C386 C391 1.379 . S
C386 N393 1.356 1_455 S
C387 C386 1.363 . S
C387 C390 1.363 . S
N388 C390 1.356 . S
N388 H400 0.984 . S
N388 H401 0.985 . S
N389 C391 1.356 . S
N389 H394 0.984 . S
N389 H395 0.985 1_455 S
C390 C384 1.379 . S
C390 C387 1.363 . S
C390 N388 1.356 . S
C391 C385 1.363 . S
C391 C386 1.379 . S
C391 N389 1.356 . S
N392 C384 1.356 . S
N392 H398 0.984 . S
N392 H399 0.984 . S
N393 C386 1.356 1_655 S
N393 H396 0.984 . S
N393 H397 0.985 . S
H394 N389 0.984 . S
H395 N389 0.985 1_655 S
H396 N393 0.984 . S
H397 N393 0.985 . S
H398 N392 0.984 . S
H399 N392 0.984 . S
H400 N388 0.984 . S
H401 N388 0.985 . S
C402 C403 1.375 . S
C402 C408 1.379 . S
C402 N410 1.356 . S
C403 C402 1.375 . S
C403 C409 1.351 1_565 S
C404 C405 1.363 1_545 S
C404 C409 1.379 . S
C404 N411 1.356 . S
C405 C404 1.363 1_565 S
C405 C408 1.363 . S
N406 C408 1.356 . S
N406 H418 0.984 . S
N406 H419 0.985 . S
N407 C409 1.356 . S
N407 H412 0.984 . S
N407 H413 0.985 . S
C408 C402 1.379 . S
C408 C405 1.363 . S
C408 N406 1.356 . S
C409 C403 1.351 1_545 S
C409 C404 1.379 . S
C409 N407 1.356 . S
N410 C402 1.356 . S
N410 H416 0.984 . S
N410 H417 0.984 . S
N411 C404 1.356 . S
N411 H414 0.984 . S
N411 H415 0.985 . S
H412 N407 0.984 . S
H413 N407 0.985 . S
H414 N411 0.984 . S
H415 N411 0.985 . S
H416 N410 0.984 . S
H417 N410 0.984 . S
H418 N406 0.984 . S
H419 N406 0.985 . S
C420 C421 1.363 . S
C420 C426 1.379 . S
C420 N428 1.356 . S
C421 C420 1.363 . S
C421 C427 1.363 . S
C422 C423 1.363 . S
C422 C427 1.379 . S
C422 N429 1.356 . S
C423 C422 1.363 . S
C423 C426 1.363 . S
N424 C426 1.356 . S
N424 H436 0.984 . S
N424 H437 0.985 . S
N425 C427 1.356 . S
N425 H430 0.984 . S
N425 H431 0.985 . S
C426 C420 1.379 . S
C426 C423 1.363 . S
C426 N424 1.356 . S
C427 C421 1.363 . S
C427 C422 1.379 . S
C427 N425 1.356 . S
N428 C420 1.356 . S
N428 H434 0.984 . S
N428 H435 0.984 . S
N429 C422 1.356 . S
N429 H432 0.984 . S
N429 H433 0.985 . S
H430 N425 0.984 . S
H431 N425 0.985 . S
H432 N429 0.984 . S
H433 N429 0.985 . S
H434 N428 0.984 . S
H435 N428 0.984 . S
H436 N424 0.984 . S
H437 N424 0.985 . S
C438 C439 1.363 . S
C438 C444 1.379 . S
C438 N446 1.356 . S
C439 C438 1.363 . S
C439 C445 1.363 . S
C440 C441 1.363 . S
C440 C445 1.379 . S
C440 N447 1.356 . S
C441 C440 1.363 . S
C441 C444 1.363 . S
N442 C444 1.356 . S
N442 H454 0.984 . S
N442 H455 0.985 . S
N443 C445 1.356 . S
N443 H448 0.984 . S
N443 H449 0.985 . S
C444 C438 1.379 . S
C444 C441 1.363 . S
C444 N442 1.356 . S
C445 C439 1.363 . S
C445 C440 1.379 . S
C445 N443 1.356 . S
N446 C438 1.356 . S
N446 H452 0.984 . S
N446 H453 0.984 . S
N447 C440 1.356 . S
N447 H450 0.984 . S
N447 H451 0.985 . S
H448 N443 0.984 . S
H449 N443 0.985 . S
H450 N447 0.984 . S
H451 N447 0.985 . S
H452 N446 0.984 . S
H453 N446 0.984 . S
H454 N442 0.984 . S
H455 N442 0.985 . S
C456 C457 1.345 1_455 S
C456 C462 1.391 . S
C456 N464 1.357 . S
C457 C456 1.345 1_655 S
C457 C463 1.363 1_556 S
C458 C459 1.363 1_654 S
C458 C463 1.379 . S
C458 N465 1.356 . S
C459 C458 1.363 1_456 S
C459 C462 1.363 . S
N460 C462 1.356 . S
N460 H472 0.984 . S
N460 H473 0.985 . S
N461 C463 1.356 . S
N461 H466 0.984 . S
N461 H467 0.985 . S
C462 C456 1.391 . S
C462 C459 1.363 . S
C462 N460 1.356 . S
C463 C457 1.363 1_554 S
C463 C458 1.379 . S
C463 N461 1.356 . S
N464 C456 1.357 . S
N464 H470 0.984 . S
N464 H471 0.984 1_455 S
N465 C458 1.356 . S
N465 H468 0.984 . S
N465 H469 0.985 . S
H466 N461 0.984 . S
H467 N461 0.985 . S
H468 N465 0.984 . S
H469 N465 0.985 . S
H470 N464 0.984 . S
H471 N464 0.984 1_655 S
H472 N460 0.984 . S
H473 N460 0.985 . S
C474 C475 1.380 . S
C474 C480 1.379 . S
C474 N482 1.356 . S
C475 C474 1.380 . S
C475 C481 1.346 1_544 S
C476 C477 1.363 1_565 S
C476 C481 1.379 . S
C476 N483 1.356 . S
C477 C476 1.363 1_545 S
C477 C480 1.363 1_556 S
N478 C480 1.356 . S
N478 H490 0.984 . S
N478 H491 0.983 1_554 S
N479 C481 1.356 . S
N479 H484 0.984 1_556 S
N479 H485 0.985 . S
C480 C474 1.379 . S
C480 C477 1.363 1_554 S
C480 N478 1.356 . S
C481 C475 1.346 1_566 S
C481 C476 1.379 . S
C481 N479 1.356 . S
N482 C474 1.356 . S
N482 H488 0.984 . S
N482 H489 0.984 . S
N483 C476 1.356 . S
N483 H486 0.984 . S
N483 H487 0.985 . S
H484 N479 0.984 1_554 S
H485 N479 0.985 . S
H486 N483 0.984 . S
H487 N483 0.985 . S
H488 N482 0.984 . S
H489 N482 0.984 . S
H490 N478 0.984 . S
H491 N478 0.983 1_556 S
C492 C493 1.363 1_556 S
C492 C498 1.379 . S
C492 N500 1.356 . S
C493 C492 1.363 1_554 S
C493 C499 1.363 . S
C494 C495 1.363 1_554 S
C494 C499 1.379 . S
C494 N501 1.356 . S
C495 C494 1.363 1_556 S
C495 C498 1.363 . S
N496 C498 1.356 . S
N496 H508 0.984 . S
N496 H509 0.985 . S
N497 C499 1.356 . S
N497 H502 0.984 . S
N497 H503 0.985 . S
C498 C492 1.379 . S
C498 C495 1.363 . S
C498 N496 1.356 . S
C499 C493 1.363 . S
C499 C494 1.379 . S
C499 N497 1.356 . S
N500 C492 1.356 . S
N500 H506 0.984 . S
N500 H507 0.984 . S
N501 C494 1.356 . S
N501 H504 0.984 . S
N501 H505 0.985 . S
H502 N497 0.984 . S
H503 N497 0.985 . S
H504 N501 0.984 . S
H505 N501 0.985 . S
H506 N500 0.984 . S
H507 N500 0.984 . S
H508 N496 0.984 . S
H509 N496 0.985 . S
C510 C511 1.363 . S
C510 C516 1.379 1_554 S
C510 N518 1.356 . S
C511 C510 1.363 . S
C511 C517 1.363 . S
C512 C513 1.363 1_554 S
C512 C517 1.379 . S
C512 N519 1.356 . S
C513 C512 1.363 1_556 S
C513 C516 1.363 . S
N514 C516 1.356 . S
N514 H526 0.984 . S
N514 H527 0.985 . S
N515 C517 1.356 . S
N515 H520 0.984 . S
N515 H521 0.985 . S
C516 C510 1.379 1_556 S
C516 C513 1.363 . S
C516 N514 1.356 . S
C517 C511 1.363 . S
C517 C512 1.379 . S
C517 N515 1.356 . S
N518 C510 1.356 . S
N518 H524 0.984 . S
N518 H525 0.984 . S
N519 C512 1.356 . S
N519 H522 0.984 1_554 S
N519 H523 0.985 . S
H520 N515 0.984 . S
H521 N515 0.985 . S
H522 N519 0.984 1_556 S
H523 N519 0.985 . S
H524 N518 0.984 . S
H525 N518 0.984 . S
H526 N514 0.984 . S
H527 N514 0.985 . S
C528 C529 1.363 . S
C528 C534 1.379 . S
C528 N536 1.356 . S
C529 C528 1.363 . S
C529 C535 1.363 . S
C530 C531 1.363 . S
C530 C535 1.379 . S
C530 N537 1.356 . S
C531 C530 1.363 . S
C531 C534 1.363 . S
N532 C534 1.356 . S
N532 H544 0.984 . S
N532 H545 0.985 . S
N533 C535 1.356 . S
N533 H538 0.984 . S
N533 H539 0.985 . S
C534 C528 1.379 . S
C534 C531 1.363 . S
C534 N532 1.356 . S
C535 C529 1.363 . S
C535 C530 1.379 . S
C535 N533 1.356 . S
N536 C528 1.356 . S
N536 H542 0.984 . S
N536 H543 0.984 . S
N537 C530 1.356 . S
N537 H540 0.984 . S
N537 H541 0.985 . S
H538 N533 0.984 . S
H539 N533 0.985 . S
H540 N537 0.984 . S
H541 N537 0.985 . S
H542 N536 0.984 . S
H543 N536 0.984 . S
H544 N532 0.984 . S
H545 N532 0.985 . S
C546 C547 1.384 . S
C546 C552 1.379 . S
C546 N554 1.356 . S
C547 C546 1.384 . S
C547 C553 1.341 1_545 S
C548 C549 1.363 1_565 S
C548 C553 1.379 . S
C548 N555 1.356 . S
C549 C548 1.363 1_545 S
C549 C552 1.363 . S
N550 C552 1.356 1_556 S
N550 H562 0.984 . S
N550 H563 0.985 . S
N551 C553 1.356 . S
N551 H556 0.984 . S
N551 H557 0.985 . S
C552 C546 1.379 . S
C552 C549 1.363 . S
C552 N550 1.356 1_554 S
C553 C547 1.341 1_565 S
C553 C548 1.379 . S
C553 N551 1.356 . S
N554 C546 1.356 . S
N554 H560 0.984 . S
N554 H561 0.984 . S
N555 C548 1.356 . S
N555 H558 0.984 . S
N555 H559 0.985 . S
H556 N551 0.984 . S
H557 N551 0.985 . S
H558 N555 0.984 . S
H559 N555 0.985 . S
H560 N554 0.984 . S
H561 N554 0.984 . S
H562 N550 0.984 . S
H563 N550 0.985 . S
C564 C565 1.363 . S
C564 C570 1.379 . S
C564 N572 1.356 . S
C565 C564 1.363 . S
C565 C571 1.363 . S
C566 C567 1.363 . S
C566 C571 1.379 . S
C566 N573 1.356 . S
C567 C566 1.363 . S
C567 C570 1.363 . S
N568 C570 1.356 1_556 S
N568 H580 0.984 . S
N568 H581 0.985 . S
N569 C571 1.356 . S
N569 H574 0.984 . S
N569 H575 0.985 . S
C570 C564 1.379 . S
C570 C567 1.363 . S
C570 N568 1.356 1_554 S
C571 C565 1.363 . S
C571 C566 1.379 . S
C571 N569 1.356 . S
N572 C564 1.356 . S
N572 H578 0.984 . S
N572 H579 0.984 . S
N573 C566 1.356 . S
N573 H576 0.984 . S
N573 H577 0.985 . S
H574 N569 0.984 . S
H575 N569 0.985 . S
H576 N573 0.984 . S
H577 N573 0.985 . S
H578 N572 0.984 . S
H579 N572 0.984 . S
H580 N568 0.984 . S
H581 N568 0.985 . S
C582 C583 1.363 . S
C582 C588 1.379 . S
C582 N590 1.356 . S
C583 C582 1.363 . S
C583 C589 1.363 . S
C584 C585 1.363 . S
C584 C589 1.379 . S
C584 N591 1.356 . S
C585 C584 1.363 . S
C585 C588 1.363 . S
N586 C588 1.356 . S
N586 H598 0.984 . S
N586 H599 0.985 1_554 S
N587 C589 1.356 . S
N587 H592 0.984 . S
N587 H593 0.985 . S
C588 C582 1.379 . S
C588 C585 1.363 . S
C588 N586 1.356 . S
C589 C583 1.363 . S
C589 C584 1.379 . S
C589 N587 1.356 . S
N590 C582 1.356 . S
N590 H596 0.984 . S
N590 H597 0.984 . S
N591 C584 1.356 . S
N591 H594 0.984 1_554 S
N591 H595 0.985 . S
H592 N587 0.984 . S
H593 N587 0.985 . S
H594 N591 0.984 1_556 S
H595 N591 0.985 . S
H596 N590 0.984 . S
H597 N590 0.984 . S
H598 N586 0.984 . S
H599 N586 0.985 1_556 S
C600 C601 1.363 . S
C600 C606 1.379 1_655 S
C600 N608 1.356 1_654 S
C601 C600 1.363 . S
C601 C607 1.363 . S
C602 C603 1.363 . S
C602 C607 1.379 . S
C602 N609 1.356 . S
C603 C602 1.363 . S
C603 C606 1.363 1_655 S
N604 C606 1.356 . S
N604 H616 0.984 . S
N604 H617 0.985 . S
N605 C607 1.356 . S
N605 H610 0.984 . S
N605 H611 0.985 . S
C606 C600 1.379 1_455 S
C606 C603 1.363 1_455 S
C606 N604 1.356 . S
C607 C601 1.363 . S
C607 C602 1.379 . S
C607 N605 1.356 . S
N608 C600 1.356 1_456 S
N608 H614 0.984 . S
N608 H615 0.984 . S
N609 C602 1.356 . S
N609 H612 0.984 . S
N609 H613 0.985 . S
H610 N605 0.984 . S
H611 N605 0.985 . S
H612 N609 0.984 . S
H613 N609 0.985 . S
H614 N608 0.984 . S
H615 N608 0.984 . S
H616 N604 0.984 . S
H617 N604 0.985 . S
C618 C619 1.379 . S
C618 C624 1.379 . S
C618 N626 1.356 . S
C619 C618 1.379 . S
C619 C625 1.346 1_565 S
C620 C621 1.363 1_545 S
C620 C625 1.379 . S
C620 N627 1.356 . S
C621 C620 1.363 1_565 S
C621 C624 1.363 . S
N622 C624 1.356 . S
N622 H634 0.984 . S
N622 H635 0.985 . S
N623 C625 1.356 . S
N623 H628 0.984 . S
N623 H629 0.985 . S
C624 C618 1.379 . S
C624 C621 1.363 . S
C624 N622 1.356 . S
C625 C619 1.346 1_545 S
C625 C620 1.379 . S
C625 N623 1.356 . S
N626 C618 1.356 . S
N626 H632 0.984 . S
N626 H633 0.984 . S
N627 C620 1.356 . S
N627 H630 0.984 . S
N627 H631 0.985 . S
H628 N623 0.984 . S
H629 N623 0.985 . S
H630 N627 0.984 . S
H631 N627 0.985 . S
H632 N626 0.984 . S
H633 N626 0.984 . S
H634 N622 0.984 . S
H635 N622 0.985 . S
C636 C637 1.363 . S
C636 C642 1.379 . S
C636 N644 1.356 . S
C637 C636 1.363 . S
C637 C643 1.363 . S
C638 C639 1.363 . S
C638 C643 1.379 . S
C638 N645 1.356 . S
C639 C638 1.363 . S
C639 C642 1.363 . S
N640 C642 1.356 . S
N640 H652 0.984 . S
N640 H653 0.985 . S
N641 C643 1.356 . S
N641 H646 0.984 . S
N641 H647 0.985 . S
C642 C636 1.379 . S
C642 C639 1.363 . S
C642 N640 1.356 . S
C643 C637 1.363 . S
C643 C638 1.379 . S
C643 N641 1.356 . S
N644 C636 1.356 . S
N644 H650 0.984 . S
N644 H651 0.984 . S
N645 C638 1.356 . S
N645 H648 0.984 . S
N645 H649 0.985 . S
H646 N641 0.984 . S
H647 N641 0.985 . S
H648 N645 0.984 . S
H649 N645 0.985 . S
H650 N644 0.984 . S
H651 N644 0.984 . S
H652 N640 0.984 . S
H653 N640 0.985 . S
C654 C655 1.363 . S
C654 C660 1.379 . S
C654 N662 1.356 . S
C655 C654 1.363 . S
C655 C661 1.363 . S
C656 C657 1.363 . S
C656 C661 1.379 . S
C656 N663 1.356 . S
C657 C656 1.363 . S
C657 C660 1.363 . S
N658 C660 1.356 . S
N658 H670 0.984 . S
N658 H671 0.985 . S
N659 C661 1.356 . S
N659 H664 0.984 . S
N659 H665 0.985 . S
C660 C654 1.379 . S
C660 C657 1.363 . S
C660 N658 1.356 . S
C661 C655 1.363 . S
C661 C656 1.379 . S
C661 N659 1.356 . S
N662 C654 1.356 . S
N662 H668 0.984 . S
N662 H669 0.984 . S
N663 C656 1.356 . S
N663 H666 0.984 . S
N663 H667 0.985 . S
H664 N659 0.984 . S
H665 N659 0.985 . S
H666 N663 0.984 . S
H667 N663 0.985 . S
H668 N662 0.984 . S
H669 N662 0.984 . S
H670 N658 0.984 . S
H671 N658 0.985 . S
C241 N80 1.889 . S
C243 C121 1.898 . S
C261 C142 1.534 . S
C259 N93 1.524 . S
C279 C176 1.483 . S
C277 N54 1.473 . S
C297 C210 1.545 . S
C295 N67 1.538 . S
C315 C112 1.898 . S
C313 N28 1.891 1_545 S
C331 N41 1.531 . S
C333 C151 1.538 . S
C349 N2 1.474 . S
C351 C185 1.482 . S
C367 N15 1.546 . S
C369 C219 1.545 1_655 S
C387 C133 0.846 . S
C385 N70 0.838 . S
C405 C138 1.282 . S
C403 N83 1.286 . S
C423 C172 1.189 . S
C421 N96 1.194 . S
C439 N57 0.660 . S
C441 C206 0.656 . S
C457 N18 0.843 . S
C459 C104 0.850 . S
C477 C167 1.281 . S
C475 N31 1.287 1_545 S
C495 C201 1.189 . S
C493 N44 1.196 . S
C511 N5 0.659 . S
C513 C235 0.656 . S
C529 N66 1.429 . S
C531 C117 1.412 . S
C547 N79 1.757 1_545 S
C549 C146 1.762 1_554 S
C567 C180 1.552 1_554 S
C565 N92 1.555 . S
C585 C214 1.604 1_554 S
C583 N53 1.600 . S
C601 N14 1.435 . S
C603 C108 1.417 . S
C621 C155 1.762 . S
C619 N27 1.758 . S
C639 C189 1.552 . S
C637 N40 1.554 . S
C655 N1 1.594 . S
C657 C223 1.605 . S
