# Generated by pormake.
# Topology ant, (3,6)-cn, num edge types: 1
# Building blocks:
#     Node 0, Type 0, BuildingBlock: BELTOD_clean_linker_0, # of connection points: 3
#     Node 1, Type 0, BuildingBlock: BELTOD_clean_linker_0, # of connection points: 3
#     Node 2, Type 0, BuildingBlock: BELTOD_clean_linker_0, # of connection points: 3
#     Node 3, Type 0, BuildingBlock: BELTOD_clean_linker_0, # of connection points: 3
#     Node 4, Type 0, BuildingBlock: BELTOD_clean_linker_0, # of connection points: 3
#     Node 5, Type 0, BuildingBlock: BELTOD_clean_linker_0, # of connection points: 3
#     Node 6, Type 0, BuildingBlock: BELTOD_clean_linker_0, # of connection points: 3
#     Node 7, Type 0, BuildingBlock: BELTOD_clean_linker_0, # of connection points: 3
#     Node 8, Type 1, BuildingBlock: MIDCAF_clean_sbu_0, # of connection points: 6
#     Node 9, Type 1, BuildingBlock: MIDCAF_clean_sbu_0, # of connection points: 6
#     Node 10, Type 1, BuildingBlock: MIDCAF_clean_sbu_0, # of connection points: 6
#     Node 11, Type 1, BuildingBlock: MIDCAF_clean_sbu_0, # of connection points: 6
#     Edge 12, Type (0, 1), BuildingBlock: ZUJKAS_clean_linker_0, # of connection points: 2
#     Edge 13, Type (0, 1), BuildingBlock: ZUJKAS_clean_linker_0, # of connection points: 2
#     Edge 14, Type (0, 1), BuildingBlock: ZUJKAS_clean_linker_0, # of connection points: 2
#     Edge 15, Type (0, 1), BuildingBlock: ZUJKAS_clean_linker_0, # of connection points: 2
#     Edge 16, Type (0, 1), BuildingBlock: ZUJKAS_clean_linker_0, # of connection points: 2
#     Edge 17, Type (0, 1), BuildingBlock: ZUJKAS_clean_linker_0, # of connection points: 2
#     Edge 18, Type (0, 1), BuildingBlock: ZUJKAS_clean_linker_0, # of connection points: 2
#     Edge 19, Type (0, 1), BuildingBlock: ZUJKAS_clean_linker_0, # of connection points: 2
#     Edge 20, Type (0, 1), BuildingBlock: ZUJKAS_clean_linker_0, # of connection points: 2
#     Edge 21, Type (0, 1), BuildingBlock: ZUJKAS_clean_linker_0, # of connection points: 2
#     Edge 22, Type (0, 1), BuildingBlock: ZUJKAS_clean_linker_0, # of connection points: 2
#     Edge 23, Type (0, 1), BuildingBlock: ZUJKAS_clean_linker_0, # of connection points: 2
#     Edge 24, Type (0, 1), BuildingBlock: ZUJKAS_clean_linker_0, # of connection points: 2
#     Edge 25, Type (0, 1), BuildingBlock: ZUJKAS_clean_linker_0, # of connection points: 2
#     Edge 26, Type (0, 1), BuildingBlock: ZUJKAS_clean_linker_0, # of connection points: 2
#     Edge 27, Type (0, 1), BuildingBlock: ZUJKAS_clean_linker_0, # of connection points: 2
#     Edge 28, Type (0, 1), BuildingBlock: ZUJKAS_clean_linker_0, # of connection points: 2
#     Edge 29, Type (0, 1), BuildingBlock: ZUJKAS_clean_linker_0, # of connection points: 2
#     Edge 30, Type (0, 1), BuildingBlock: ZUJKAS_clean_linker_0, # of connection points: 2
#     Edge 31, Type (0, 1), BuildingBlock: ZUJKAS_clean_linker_0, # of connection points: 2
#     Edge 32, Type (0, 1), BuildingBlock: ZUJKAS_clean_linker_0, # of connection points: 2
#     Edge 33, Type (0, 1), BuildingBlock: ZUJKAS_clean_linker_0, # of connection points: 2
#     Edge 34, Type (0, 1), BuildingBlock: ZUJKAS_clean_linker_0, # of connection points: 2
#     Edge 35, Type (0, 1), BuildingBlock: ZUJKAS_clean_linker_0, # of connection points: 2
# Relax obj value: 0.095
# Max RMSD: 0.155
# Mean RMSD: 0.097
data_MOF--net-ant--node1-MIDCAF_clean_sbu_0--node2-BELTOD_clean_linker_0--edge1-ZUJKAS_clean_linker_0
_symmetry_space_group_name_H-M    P1
_symmetry_Int_Tables_number       1
_symmetry_cell_setting            triclinic
loop_
_symmetry_equiv_pos_as_xyz
'x, y, z'
_cell_length_a     41.245097
_cell_length_b     40.545258
_cell_length_c     109.93002
_cell_angle_alpha  90.440223
_cell_angle_beta   96.327659
_cell_angle_gamma 88.309879
loop_
_atom_site_label
_atom_site_type_symbol
_atom_site_fract_x
_atom_site_fract_y
_atom_site_fract_z
_atom_type_partial_charge
P0 P 0.23284 0.23858 0.0582 0.0
H1 H 0.25173 0.28125 0.07903 0.0
H2 H 0.2306 0.33466 0.08548 0.0
H3 H 0.14872 0.32787 0.05751 0.0
H4 H 0.17052 0.27467 0.05096 0.0
H5 H 0.2756 0.18056 0.06135 0.0
H6 H 0.27152 0.12756 0.07128 0.0
H7 H 0.17864 0.15936 0.08277 0.0
H8 H 0.18338 0.21298 0.07295 0.0
H9 H 0.24341 0.27431 0.03625 0.0
H10 H 0.18889 0.19042 0.04522 0.0
O11 O 0.27236 0.24691 0.05872 0.0
H12 H 0.22493 0.26644 0.01456 0.0
H13 H 0.17094 0.18183 0.02352 0.0
C14 C 0.213 0.27419 0.06442 0.0
C15 C 0.22895 0.29101 0.07442 0.0
C16 C 0.21671 0.32159 0.07812 0.0
C17 C 0.18808 0.33592 0.07193 0.0
C18 C 0.17117 0.31797 0.06233 0.0
C19 C 0.18349 0.28736 0.05863 0.0
C20 C 0.23012 0.20093 0.06662 0.0
C21 C 0.25457 0.17636 0.06617 0.0
C22 C 0.25203 0.14587 0.07175 0.0
C23 C 0.22469 0.13905 0.07781 0.0
C24 C 0.20023 0.16391 0.07833 0.0
C25 C 0.20285 0.19456 0.07271 0.0
C26 C 0.21803 0.23264 0.04231 0.0
C27 C 0.22763 0.25405 0.03353 0.0
C28 C 0.21718 0.24939 0.02112 0.0
C29 C 0.19677 0.22322 0.01726 0.0
C30 C 0.18654 0.20228 0.02617 0.0
C31 C 0.19699 0.20703 0.03859 0.0
P32 P 0.07294 0.70465 0.3104 0.0
H33 H 0.10481 0.69939 0.33529 0.0
H34 H 0.15623 0.72054 0.34515 0.0
H35 H 0.16561 0.77897 0.31309 0.0
H36 H 0.11412 0.7582 0.30341 0.0
H37 H 0.01264 0.67038 0.30576 0.0
H38 H 0.95787 0.68065 0.31151 0.0
H39 H -0.00898 0.76771 0.33157 0.0
H40 H 0.04598 0.7575 0.32546 0.0
H41 H 0.10316 0.6713 0.29077 0.0
H42 H 0.03791 0.75491 0.29451 0.0
O43 O 0.08159 0.66455 0.31269 0.0
H44 H 0.09902 0.68 0.26872 0.0
H45 H 0.03418 0.76437 0.27241 0.0
C46 C 0.10584 0.72684 0.31857 0.0
C47 C 0.11756 0.71739 0.33052 0.0
C48 C 0.14705 0.72933 0.3361 0.0
C49 C 0.1653 0.75105 0.32983 0.0
C50 C 0.15215 0.76239 0.3182 0.0
C51 C 0.12268 0.75035 0.31262 0.0
C52 C 0.0334 0.71281 0.31538 0.0
C53 C 0.00818 0.69154 0.31148 0.0
C54 C 0.97688 0.6974 0.31482 0.0
C55 C 0.97008 0.72479 0.32213 0.0
C56 C -0.00459 0.74645 0.32589 0.0
C57 C 0.02688 0.74052 0.32251 0.0
C58 C 0.07034 0.71205 0.29421 0.0
C59 C 0.08794 0.69158 0.28683 0.0
C60 C 0.08576 0.69679 0.27422 0.0
C61 C 0.06619 0.72287 0.26878 0.0
C62 C 0.04903 0.74376 0.27628 0.0
C63 C 0.05122 0.73846 0.28891 0.0
P64 P 0.73369 0.73441 0.56035 0.0
H65 H 0.75087 0.77742 0.58131 0.0
H66 H 0.72941 0.83134 0.58715 0.0
H67 H 0.64954 0.82366 0.55842 0.0
H68 H 0.67146 0.76993 0.55254 0.0
H69 H 0.75637 0.66856 0.55499 0.0
H70 H 0.75305 0.61522 0.56474 0.0
H71 H 0.69885 0.661 0.59215 0.0
H72 H 0.70261 0.71486 0.58229 0.0
H73 H 0.75503 0.76528 0.53884 0.0
H74 H 0.68324 0.69531 0.54641 0.0
O75 O 0.77352 0.74185 0.56191 0.0
H76 H 0.73832 0.75975 0.51692 0.0
H77 H 0.66694 0.68887 0.52447 0.0
C78 C 0.71311 0.76986 0.56638 0.0
C79 C 0.72838 0.78705 0.57643 0.0
C80 C 0.716 0.81792 0.57977 0.0
C81 C 0.68796 0.83217 0.57314 0.0
C82 C 0.67155 0.81378 0.56356 0.0
C83 C 0.68396 0.78287 0.56024 0.0
C84 C 0.72936 0.69555 0.56781 0.0
C85 C 0.74356 0.66714 0.56306 0.0
C86 C 0.74154 0.63659 0.56862 0.0
C87 C 0.7254 0.63371 0.57917 0.0
C88 C 0.71154 0.6624 0.58406 0.0
C89 C 0.71348 0.69314 0.5784 0.0
C90 C 0.72091 0.73013 0.54421 0.0
C91 C 0.73589 0.74844 0.53576 0.0
C92 C 0.7264 0.74512 0.52322 0.0
C93 C 0.70156 0.72353 0.5189 0.0
C94 C 0.68607 0.70579 0.52746 0.0
C95 C 0.69555 0.70922 0.54001 0.0
P96 P 0.57075 0.21687 0.80826 0.0
H97 H 0.60188 0.21366 0.8333 0.0
H98 H 0.65378 0.23419 0.84297 0.0
H99 H 0.66556 0.28819 0.81009 0.0
H100 H 0.6136 0.26807 0.8006 0.0
H101 H 0.51168 0.18018 0.80487 0.0
H102 H 0.45704 0.18976 0.81081 0.0
H103 H 0.48853 0.27949 0.82944 0.0
H104 H 0.54336 0.26996 0.82311 0.0
H105 H 0.60258 0.18768 0.78823 0.0
H106 H 0.53037 0.26457 0.79277 0.0
O107 O 0.58023 0.17681 0.81018 0.0
H108 H 0.59556 0.19644 0.76614 0.0
H109 H 0.5226 0.27302 0.7706 0.0
C110 C 0.60396 0.2391 0.81622 0.0
C111 C 0.61524 0.23063 0.82831 0.0
C112 C 0.64504 0.24216 0.83378 0.0
C113 C 0.66408 0.26246 0.82724 0.0
C114 C 0.65149 0.27276 0.81542 0.0
C115 C 0.62173 0.26112 0.80995 0.0
C116 C 0.53166 0.22396 0.81378 0.0
C117 C 0.50694 0.20172 0.81037 0.0
C118 C 0.47568 0.20722 0.8138 0.0
C119 C 0.46838 0.23522 0.82073 0.0
C120 C 0.49327 0.25774 0.82407 0.0
C121 C 0.52469 0.25219 0.82057 0.0
C122 C 0.56645 0.22492 0.79208 0.0
C123 C 0.58506 0.20633 0.78445 0.0
C124 C 0.58087 0.21126 0.77182 0.0
C125 C 0.55808 0.23504 0.76658 0.0
C126 C 0.54032 0.2545 0.77434 0.0
C127 C 0.54459 0.24955 0.787 0.0
P128 P 0.11909 0.7164 0.92223 0.0
H129 H 0.12597 0.6845 0.89873 0.0
H130 H 0.09913 0.63755 0.88841 0.0
H131 H 0.03019 0.63776 0.91531 0.0
H132 H 0.05765 0.68449 0.92571 0.0
H133 H 0.14959 0.7758 0.93176 0.0
H134 H 0.13949 0.83436 0.9274 0.0
H135 H 0.05721 0.8103 0.90136 0.0
H136 H 0.06731 0.75146 0.90595 0.0
H137 H 0.15206 0.6668 0.93858 0.0
H138 H 0.08105 0.74618 0.9408 0.0
O139 O 0.15769 0.7098 0.91939 0.0
H140 H 0.15037 0.65481 0.96026 0.0
H141 H 0.0798 0.73497 0.96255 0.0
C142 C 0.09425 0.6875 0.91313 0.0
C143 C 0.1047 0.67484 0.90228 0.0
C144 C 0.08917 0.64803 0.89634 0.0
C145 C 0.06275 0.63348 0.90113 0.0
C146 C 0.05088 0.64791 0.91152 0.0
C147 C 0.06645 0.67477 0.91744 0.0
C148 C 0.10934 0.75934 0.91913 0.0
C149 C 0.12928 0.78314 0.92515 0.0
C150 C 0.12357 0.81661 0.9226 0.0
C151 C 0.09771 0.82705 0.91395 0.0
C152 C 0.0772 0.8031 0.90813 0.0
C153 C 0.08303 0.76945 0.91069 0.0
C154 C 0.11731 0.70787 0.93818 0.0
C155 C 0.13631 0.68182 0.94378 0.0
C156 C 0.13536 0.67505 0.95618 0.0
C157 C 0.11516 0.6941 0.96319 0.0
C158 C 0.09545 0.71965 0.95742 0.0
C159 C 0.09641 0.72635 0.94501 0.0
P160 P 0.64693 0.8472 0.17766 0.0
H161 H 0.67742 0.85968 0.15553 0.0
H162 H 0.72902 0.84018 0.14861 0.0
H163 H 0.74225 0.77071 0.17847 0.0
H164 H 0.69035 0.78985 0.18517 0.0
H165 H 0.591 0.89192 0.17162 0.0
H166 H 0.5354 0.88412 0.16245 0.0
H167 H 0.55738 0.78012 0.15787 0.0
H168 H 0.61387 0.78867 0.16662 0.0
H169 H 0.68959 0.86702 0.19914 0.0
H170 H 0.60797 0.80327 0.19131 0.0
O171 O 0.65392 0.88749 0.17717 0.0
H172 H 0.69209 0.85369 0.22088 0.0
H173 H 0.61064 0.78939 0.21297 0.0
C174 C 0.68015 0.82656 0.17094 0.0
C175 C 0.69105 0.83971 0.16042 0.0
C176 C 0.72078 0.82877 0.15655 0.0
C177 C 0.74021 0.80431 0.16312 0.0
C178 C 0.728 0.78955 0.17318 0.0
C179 C 0.69825 0.80058 0.17704 0.0
C180 C 0.60681 0.84097 0.16965 0.0
C181 C 0.58412 0.8675 0.16845 0.0
C182 C 0.55202 0.86289 0.16333 0.0
C183 C 0.5415 0.83141 0.15948 0.0
C184 C 0.56453 0.80483 0.16056 0.0
C185 C 0.59688 0.80961 0.16559 0.0
C186 C 0.64822 0.83667 0.19363 0.0
C187 C 0.67215 0.8502 0.20211 0.0
C188 C 0.67373 0.84234 0.21453 0.0
C189 C 0.65143 0.82063 0.2187 0.0
C190 C 0.6278 0.80668 0.21011 0.0
C191 C 0.6263 0.81453 0.19768 0.0
P192 P 0.62254 0.21402 0.42438 0.0
H193 H 0.62997 0.18659 0.40018 0.0
H194 H 0.60626 0.13908 0.38905 0.0
H195 H 0.54293 0.12584 0.41734 0.0
H196 H 0.56603 0.17387 0.42818 0.0
H197 H 0.62988 0.2746 0.43871 0.0
H198 H 0.61867 0.33257 0.43371 0.0
H199 H 0.57622 0.30465 0.39755 0.0
H200 H 0.5876 0.24641 0.40265 0.0
H201 H 0.66629 0.17457 0.44165 0.0
H202 H 0.57624 0.23109 0.44204 0.0
O203 O 0.66134 0.21137 0.42141 0.0
H204 H 0.66616 0.16219 0.46335 0.0
H205 H 0.57546 0.21824 0.46371 0.0
C206 C 0.60031 0.18336 0.41515 0.0
C207 C 0.61059 0.17378 0.40388 0.0
C208 C 0.59714 0.14645 0.39756 0.0
C209 C 0.5731 0.12816 0.4024 0.0
C210 C 0.56132 0.1393 0.4133 0.0
C211 C 0.57472 0.16674 0.41958 0.0
C212 C 0.60875 0.25604 0.42118 0.0
C213 C 0.61731 0.28082 0.42982 0.0
C214 C 0.61092 0.31406 0.42694 0.0
C215 C 0.59641 0.32332 0.41524 0.0
C216 C 0.58754 0.29837 0.40662 0.0
C217 C 0.59375 0.26502 0.40957 0.0
C218 C 0.62174 0.20448 0.44034 0.0
C219 C 0.64648 0.18434 0.44642 0.0
C220 C 0.64619 0.17698 0.45881 0.0
C221 C 0.62093 0.18941 0.46532 0.0
C222 C 0.59563 0.2088 0.45905 0.0
C223 C 0.59599 0.21615 0.44666 0.0
P224 P 0.15123 0.34163 0.67793 0.0
H225 H 0.18051 0.35733 0.65575 0.0
H226 H 0.23194 0.33964 0.64824 0.0
H227 H 0.24776 0.2676 0.67723 0.0
H228 H 0.19593 0.28462 0.68437 0.0
H229 H 0.08782 0.35402 0.68628 0.0
H230 H 0.03211 0.3476 0.677 0.0
H231 H 0.06832 0.30897 0.64414 0.0
H232 H 0.12448 0.31427 0.65383 0.0
H233 H 0.19144 0.36674 0.69934 0.0
H234 H 0.12126 0.29057 0.69154 0.0
O235 O 0.15555 0.38236 0.67734 0.0
H236 H 0.19653 0.35256 0.72112 0.0
H237 H 0.12595 0.27653 0.71328 0.0
C238 C 0.18449 0.32266 0.67071 0.0
C239 C 0.19469 0.33718 0.6603 0.0
C240 C 0.22435 0.32727 0.65611 0.0
C241 C 0.2445 0.30263 0.66228 0.0
C242 C 0.233 0.28658 0.67221 0.0
C243 C 0.20326 0.29644 0.67635 0.0
C244 C 0.11038 0.3339 0.67088 0.0
C245 C 0.08384 0.34365 0.67714 0.0
C246 C 0.05185 0.34043 0.67172 0.0
C247 C 0.04543 0.32802 0.65973 0.0
C248 C 0.07219 0.31828 0.65343 0.0
C249 C 0.10439 0.32132 0.65895 0.0
C250 C 0.15521 0.33042 0.69389 0.0
C251 C 0.17699 0.3471 0.70233 0.0
C252 C 0.18006 0.33883 0.71475 0.0
C253 C 0.16132 0.31373 0.71892 0.0
C254 C 0.14022 0.29643 0.71037 0.0
C255 C 0.13748 0.30446 0.69794 0.0
Zn256 Zn 0.16453 0.70547 0.13213 0.0
Zn257 Zn 0.09187 0.78574 0.10455 0.0
Zn258 Zn 0.13138 0.74411 0.11813 0.0
C259 C 0.1053 0.73013 0.09001 0.0
C260 C 0.15078 0.81791 0.11157 0.0
O261 O 0.10721 0.73878 0.13499 0.0
O262 O 0.14845 0.71976 0.14779 0.0
C263 C 0.14004 0.6667 0.11305 0.0
O264 O 0.12203 0.72047 0.10001 0.0
O265 O 0.08945 0.75733 0.08963 0.0
O266 O 0.12261 0.82274 0.10601 0.0
O267 O 0.15921 0.78976 0.1165 0.0
O268 O 0.14843 0.66364 0.12439 0.0
O269 O 0.13583 0.69578 0.10834 0.0
O270 O 0.18065 0.76598 0.12242 0.0
O271 O 0.20801 0.72051 0.12864 0.0
C272 C 0.20803 0.75036 0.12545 0.0
O273 O 0.08409 0.75372 0.12644 0.0
O274 O 0.05402 0.78842 0.11413 0.0
C275 C 0.1197 0.73151 0.14593 0.0
C276 C 0.05735 0.7708 0.12362 0.0
Zn277 Zn 0.56159 0.68898 0.34804 0.0
Zn278 Zn 0.63215 0.80199 0.38499 0.0
Zn279 Zn 0.58121 0.73051 0.36451 0.0
C280 C 0.56183 0.79151 0.37362 0.0
C281 C 0.6541 0.77415 0.36186 0.0
O282 O 0.58394 0.68142 0.37383 0.0
O283 O 0.5724 0.64849 0.35792 0.0
C284 C 0.50804 0.73303 0.35195 0.0
O285 O 0.54541 0.77062 0.367 0.0
O286 O 0.5905 0.78206 0.37748 0.0
O287 O 0.65871 0.79526 0.3706 0.0
O288 O 0.62927 0.7546 0.36053 0.0
O289 O 0.51544 0.70721 0.3462 0.0
O290 O 0.53003 0.74709 0.35928 0.0
O291 O 0.61104 0.73688 0.3496 0.0
O292 O 0.59111 0.70099 0.33574 0.0
C293 C 0.61069 0.72361 0.33894 0.0
O294 O 0.59498 0.70648 0.38223 0.0
O295 O 0.61297 0.75562 0.38402 0.0
C296 C 0.58051 0.65219 0.36925 0.0
C297 C 0.61008 0.72798 0.38904 0.0
Zn298 Zn 0.59828 0.27752 0.60308 0.0
Zn299 Zn 0.67208 0.2021 0.63455 0.0
Zn300 Zn 0.6369 0.24056 0.61842 0.0
C301 C 0.70966 0.25734 0.63092 0.0
C302 C 0.65994 0.16415 0.61341 0.0
O303 O 0.58905 0.25202 0.62592 0.0
O304 O 0.56063 0.28512 0.61256 0.0
C305 C 0.65678 0.31122 0.60853 0.0
O306 O 0.68457 0.2651 0.62329 0.0
O307 O 0.70995 0.23136 0.6372 0.0
O308 O 0.67533 0.16256 0.62399 0.0
O309 O 0.6444 0.19106 0.6098 0.0
O310 O 0.6296 0.31326 0.60202 0.0
O311 O 0.6641 0.28594 0.61545 0.0
O312 O 0.62863 0.2128 0.60091 0.0
O313 O 0.59388 0.24527 0.58944 0.0
C314 C 0.61099 0.21894 0.5907 0.0
O315 O 0.61115 0.23671 0.63501 0.0
O316 O 0.64153 0.20213 0.64725 0.0
C317 C 0.56282 0.26926 0.62246 0.0
C318 C 0.61661 0.22093 0.64521 0.0
Zn319 Zn 0.05805 0.19439 0.84625 0.0
Zn320 Zn 0.12852 0.3043 0.8848 0.0
Zn321 Zn 0.07838 0.23459 0.86307 0.0
C322 C 0.10428 0.23072 0.88796 0.0
C323 C 0.05925 0.29597 0.87206 0.0
O324 O 0.11054 0.23963 0.84878 0.0
O325 O 0.08979 0.20496 0.83462 0.0
C326 C 0.07431 0.15646 0.8674 0.0
O327 O 0.0897 0.20971 0.88077 0.0
O328 O 0.10835 0.25845 0.88319 0.0
O329 O 0.08708 0.28557 0.87658 0.0
O330 O 0.04323 0.27557 0.86508 0.0
O331 O 0.06627 0.15345 0.85604 0.0
O332 O 0.07891 0.18534 0.87217 0.0
O333 O 0.02773 0.25262 0.85722 0.0
O334 O 0.0126 0.21409 0.84363 0.0
C335 C 0.00571 0.23982 0.84953 0.0
O336 O 0.1273 0.25809 0.85982 0.0
O337 O 0.1562 0.29781 0.87072 0.0
C338 C 0.11056 0.22622 0.83816 0.0
C339 C 0.15225 0.27739 0.86173 0.0
H340 H 0.1891 0.36493 0.09466 0.0
H341 H 0.17593 0.42243 0.09947 0.0
H342 H 0.14929 0.44222 0.06115 0.0
H343 H 0.16295 0.38493 0.0562 0.0
H344 H 0.20582 0.47813 0.09055 0.0
H345 H 0.07157 0.48221 0.07776 0.0
H346 H 0.09477 0.44398 0.08047 0.0
H347 H 0.09566 0.46566 0.06634 0.0
C348 C 0.1804 0.38143 0.08723 0.0
C349 C 0.17716 0.37014 0.07503 0.0
C350 C 0.17273 0.4143 0.09002 0.0
C351 C 0.16136 0.43659 0.08069 0.0
C352 C 0.15744 0.42534 0.06853 0.0
H353 H 0.16813 0.65106 0.09229 0.0
H354 H 0.1706 0.59661 0.08245 0.0
C355 C 0.16521 0.39248 0.06572 0.0
C356 C 0.15547 0.47195 0.08368 0.0
H357 H 0.09619 0.53278 0.08358 0.0
C358 C 0.18189 0.49013 0.08898 0.0
C359 C 0.12419 0.48751 0.08166 0.0
C360 C 0.09479 0.46888 0.07634 0.0
C361 C 0.17787 0.52334 0.0924 0.0
C362 C 0.14663 0.53899 0.09034 0.0
C363 C 0.12019 0.52087 0.085 0.0
C364 C 0.14065 0.57323 0.09468 0.0
C365 C 0.20692 0.5411 0.09857 0.0
C366 C 0.12177 0.57856 0.10441 0.0
C367 C 0.11995 0.60972 0.10986 0.0
C368 C 0.13655 0.6363 0.10558 0.0
C369 C 0.15403 0.63143 0.09543 0.0
C370 C 0.15596 0.60014 0.08997 0.0
H371 H 0.22765 0.52384 0.10154 0.0
H372 H 0.21531 0.55895 0.09207 0.0
H373 H 0.20019 0.55512 0.10669 0.0
H374 H 0.10982 0.55819 0.10821 0.0
H375 H 0.10663 0.61276 0.11778 0.0
H376 H 0.93524 0.78343 0.32302 0.0
H377 H 0.87947 0.7919 0.32842 0.0
H378 H 0.87303 0.68734 0.33419 0.0
H379 H 0.92892 0.6788 0.32927 0.0
H380 H 0.82141 0.76552 0.31726 0.0
H381 H 0.84542 0.72659 0.36577 0.0
H382 H 0.87775 0.73588 0.35664 0.0
H383 H 0.85861 0.69655 0.35515 0.0
C384 C 0.92212 0.76232 0.32563 0.0
C385 C 0.9366 0.73044 0.32573 0.0
C386 C 0.89017 0.76716 0.3286 0.0
C387 C 0.87223 0.74029 0.33183 0.0
C388 C 0.88658 0.70849 0.33191 0.0
H389 H 0.67868 0.71594 0.35376 0.0
H390 H 0.72966 0.7073 0.3445 0.0
C391 C 0.91845 0.70363 0.32897 0.0
C392 C 0.83835 0.7453 0.33497 0.0
H393 H 0.78984 0.73372 0.35773 0.0
C394 C 0.81451 0.75872 0.32612 0.0
C395 C 0.82941 0.73637 0.34654 0.0
C396 C 0.85417 0.72334 0.35662 0.0
C397 C 0.78185 0.76298 0.3285 0.0
C398 C 0.77295 0.75382 0.34002 0.0
C399 C 0.79674 0.74042 0.34885 0.0
C400 C 0.73943 0.75924 0.34341 0.0
C401 C 0.75694 0.77685 0.31867 0.0
C402 C 0.7277 0.79134 0.34557 0.0
C403 C 0.69866 0.79633 0.35089 0.0
C404 C 0.68075 0.7693 0.35402 0.0
C405 C 0.69165 0.73725 0.35123 0.0
C406 C 0.72085 0.73226 0.34602 0.0
H407 H 0.76623 0.77676 0.30956 0.0
H408 H 0.73428 0.76249 0.31806 0.0
H409 H 0.75058 0.8027 0.32106 0.0
H410 H 0.74192 0.81246 0.34377 0.0
H411 H 0.69091 0.82127 0.35303 0.0
H412 H 0.71202 0.57511 0.56756 0.0
H413 H 0.71142 0.52035 0.57657 0.0
H414 H 0.7333 0.56222 0.61261 0.0
H415 H 0.73402 0.61743 0.60361 0.0
H416 H 0.76247 0.48653 0.59098 0.0
H417 H 0.6533 0.50639 0.61612 0.0
H418 H 0.66272 0.53415 0.60433 0.0
H419 H 0.68572 0.53501 0.61916 0.0
C420 C 0.7168 0.57275 0.57741 0.0
C421 C 0.72319 0.6007 0.58486 0.0
C422 C 0.71641 0.54139 0.58255 0.0
C423 C 0.72222 0.53713 0.59526 0.0
C424 C 0.72831 0.56495 0.60278 0.0
H425 H 0.69135 0.34283 0.62776 0.0
H426 H 0.71613 0.3973 0.62693 0.0
C427 C 0.72865 0.59649 0.59763 0.0
C428 C 0.72191 0.50334 0.60042 0.0
H429 H 0.67652 0.4529 0.61616 0.0
C430 C 0.744 0.47929 0.59666 0.0
C431 C 0.69806 0.49392 0.60794 0.0
C432 C 0.6734 0.51855 0.6121 0.0
C433 C 0.74177 0.44589 0.59968 0.0
C434 C 0.71659 0.43619 0.6065 0.0
C435 C 0.69589 0.46045 0.61096 0.0
C436 C 0.70762 0.40111 0.6072 0.0
C437 C 0.76563 0.421 0.59516 0.0
C438 C 0.69541 0.38498 0.5964 0.0
C439 C 0.68107 0.3544 0.59688 0.0
C440 C 0.67889 0.33907 0.60816 0.0
C441 C 0.6931 0.35402 0.61895 0.0
C442 C 0.70705 0.38513 0.61848 0.0
H443 H 0.78882 0.43263 0.59355 0.0
H444 H 0.77112 0.40053 0.6018 0.0
H445 H 0.75482 0.41037 0.58635 0.0
H446 H 0.69512 0.397 0.58762 0.0
H447 H 0.67014 0.34344 0.58844 0.0
H448 H 0.70985 0.22033 0.83889 0.0
H449 H 0.76738 0.22995 0.84487 0.0
H450 H 0.75395 0.33058 0.83244 0.0
H451 H 0.69601 0.32091 0.82626 0.0
H452 H 0.80454 0.30232 0.82349 0.0
H453 H 0.81703 0.27623 0.87291 0.0
H454 H 0.79793 0.24253 0.86459 0.0
H455 H 0.77772 0.28263 0.86414 0.0
C456 C 0.71884 0.24481 0.83773 0.0
C457 C 0.69821 0.26992 0.83216 0.0
C458 C 0.75185 0.25032 0.84119 0.0
C459 C 0.76502 0.2812 0.83935 0.0
C460 C 0.74435 0.3066 0.83404 0.0
H461 H 0.9765 0.28657 0.8635 0.0
H462 H 0.91892 0.30501 0.86121 0.0
C463 C 0.71126 0.30103 0.83049 0.0
C464 C 0.80086 0.28557 0.84184 0.0
H465 H 0.86635 0.26763 0.86279 0.0
C466 C 0.81797 0.29542 0.83218 0.0
C467 C 0.81858 0.27737 0.85324 0.0
C468 C 0.80177 0.26948 0.86433 0.0
C469 C 0.85224 0.29481 0.83332 0.0
C470 C 0.86992 0.28326 0.84431 0.0
C471 C 0.85287 0.27593 0.85428 0.0
C472 C 0.90548 0.27506 0.84516 0.0
C473 C 0.86912 0.30585 0.82262 0.0
C474 C 0.91709 0.25216 0.83692 0.0
C475 C 0.94981 0.24179 0.83816 0.0
C476 C 0.97182 0.25376 0.84775 0.0
C477 C 0.96036 0.27714 0.85592 0.0
C478 C 0.92741 0.28758 0.85466 0.0
H479 H 0.8541 0.32488 0.81717 0.0
H480 H 0.89337 0.31607 0.82567 0.0
H481 H 0.87256 0.28444 0.8165 0.0
H482 H 0.90058 0.24141 0.82973 0.0
H483 H 0.95766 0.22369 0.83171 0.0
H484 H 0.05167 0.61427 0.87698 0.0
H485 H 0.03825 0.55912 0.86906 0.0
H486 H 0.03272 0.52519 0.90583 0.0
H487 H 0.04616 0.57991 0.91379 0.0
H488 H 0.07587 0.50466 0.8742 0.0
H489 H 0.9535 0.48307 0.88799 0.0
H490 H 0.97019 0.52376 0.88789 0.0
H491 H 0.981 0.49665 0.90069 0.0
C492 C 0.04712 0.59518 0.88336 0.0
C493 C 0.05 0.6016 0.89604 0.0
C494 C 0.03929 0.5637 0.87881 0.0
C495 C 0.03397 0.53806 0.88682 0.0
C496 C 0.03575 0.54472 0.89942 0.0
H497 H 0.08185 0.33723 0.8903 0.0
H498 H 0.07071 0.39633 0.89207 0.0
C499 C 0.04352 0.57613 0.90397 0.0
C500 C 0.03062 0.50353 0.88227 0.0
H501 H 0.98665 0.43402 0.88452 0.0
C502 C 0.05592 0.48948 0.8762 0.0
C503 C 0.00452 0.48362 0.8848 0.0
C504 C 0.97561 0.49767 0.89059 0.0
C505 C 0.05691 0.45571 0.87332 0.0
C506 C 0.0321 0.43542 0.87666 0.0
C507 C 0.00574 0.44967 0.88205 0.0
C508 C 0.03564 0.39904 0.87596 0.0
C509 C 0.0853 0.44153 0.86724 0.0
C510 C 0.01889 0.38084 0.86646 0.0
C511 C 0.02537 0.34679 0.86536 0.0
C512 C 0.04871 0.33073 0.87376 0.0
C513 C 0.06418 0.34895 0.88356 0.0
C514 C 0.05774 0.38271 0.88463 0.0
H515 H 0.09894 0.46104 0.86313 0.0
H516 H 0.10236 0.42816 0.87416 0.0
H517 H 0.07674 0.42358 0.85999 0.0
H518 H 0.00172 0.39313 0.85968 0.0
H519 H 0.01318 0.33339 0.8577 0.0
H520 H 0.78566 0.84687 0.15677 0.0
H521 H 0.8414 0.83424 0.1523 0.0
H522 H 0.82796 0.731 0.15861 0.0
H523 H 0.77168 0.74335 0.16287 0.0
H524 H 0.89324 0.80231 0.16802 0.0
H525 H 0.86236 0.73307 0.12454 0.0
H526 H 0.83292 0.75958 0.13113 0.0
H527 H 0.84385 0.71984 0.13768 0.0
C528 C 0.79428 0.82137 0.15702 0.0
C529 C 0.77394 0.7961 0.16006 0.0
C530 C 0.82632 0.81424 0.15458 0.0
C531 C 0.83883 0.78166 0.15502 0.0
C532 C 0.81873 0.75629 0.15807 0.0
H533 H 0.02932 0.71664 0.13219 0.0
H534 H 0.97838 0.71547 0.14194 0.0
C535 C 0.78662 0.76343 0.16058 0.0
C536 C 0.87297 0.77468 0.15233 0.0
H537 H 0.91798 0.7402 0.13094 0.0
C538 C 0.89868 0.78848 0.15997 0.0
C539 C 0.88012 0.75636 0.14189 0.0
C540 C 0.85345 0.74146 0.13326 0.0
C541 C 0.9312 0.78515 0.15729 0.0
C542 C 0.93816 0.76819 0.14654 0.0
C543 C 0.91264 0.75321 0.13918 0.0
C544 C 0.971 0.76854 0.14212 0.0
C545 C 0.95784 0.8 0.16595 0.0
C546 C 0.98393 0.79867 0.13909 0.0
C547 C 0.01291 0.7993 0.13361 0.0
C548 C 0.02977 0.76985 0.13112 0.0
C549 C 0.01733 0.73969 0.13439 0.0
C550 C 0.9881 0.73902 0.13983 0.0
H551 H 0.95047 0.80264 0.17534 0.0
H552 H 0.98075 0.78474 0.16638 0.0
H553 H 0.96292 0.82496 0.16269 0.0
H554 H 0.97087 0.82171 0.14049 0.0
H555 H 0.0217 0.82284 0.13098 0.0
H556 H 0.57531 0.37496 0.42895 0.0
H557 H 0.57316 0.43386 0.42391 0.0
H558 H 0.60699 0.41108 0.389 0.0
H559 H 0.6097 0.3523 0.39402 0.0
H560 H 0.64208 0.46217 0.40362 0.0
H561 H 0.50729 0.48385 0.39821 0.0
H562 H 0.52514 0.46299 0.41184 0.0
H563 H 0.52579 0.44311 0.39723 0.0
C564 C 0.58218 0.38249 0.42018 0.0
C565 C 0.59259 0.35887 0.41187 0.0
C566 C 0.58073 0.41613 0.41729 0.0
C567 C 0.5897 0.4268 0.40605 0.0
C568 C 0.59982 0.40333 0.39771 0.0
H569 H 0.60945 0.59508 0.36289 0.0
H570 H 0.61356 0.54277 0.37381 0.0
C571 C 0.6011 0.36971 0.40055 0.0
C572 C 0.58975 0.46247 0.40309 0.0
H573 H 0.53963 0.52923 0.39512 0.0
C574 C 0.61971 0.47692 0.40185 0.0
C575 C 0.56058 0.48177 0.40096 0.0
C576 C 0.52776 0.46727 0.40204 0.0
C577 C 0.62122 0.50993 0.39823 0.0
C578 C 0.59195 0.52881 0.39549 0.0
C579 C 0.56206 0.51477 0.39723 0.0
C580 C 0.59157 0.56164 0.38954 0.0
C581 C 0.65421 0.52419 0.39727 0.0
C582 C 0.57743 0.58976 0.39466 0.0
C583 C 0.57497 0.6199 0.38836 0.0
C584 C 0.58639 0.6222 0.37683 0.0
C585 C 0.60076 0.59411 0.37183 0.0
C586 C 0.60333 0.56422 0.3781 0.0
H587 H 0.67356 0.51135 0.40348 0.0
H588 H 0.6605 0.5209 0.38777 0.0
H589 H 0.65426 0.55095 0.3995 0.0
H590 H 0.56773 0.5882 0.4034 0.0
H591 H 0.56275 0.64087 0.39221 0.0
H592 H -0.00664 0.37072 0.66199 0.0
H593 H 0.93604 0.36324 0.65467 0.0
H594 H 0.96157 0.27319 0.63643 0.0
H595 H 0.01888 0.27944 0.64432 0.0
H596 H 0.90014 0.35783 0.63253 0.0
H597 H 0.89724 0.24094 0.65831 0.0
H598 H 0.93155 0.2677 0.66033 0.0
H599 H 0.92647 0.24021 0.64737 0.0
C600 C 0.98688 0.34909 0.65652 0.0
C601 C 0.0109 0.32528 0.65402 0.0
C602 C 0.95402 0.34508 0.6522 0.0
C603 C 0.94425 0.31729 0.6452 0.0
C604 C 0.96832 0.29447 0.64206 0.0
H605 H 0.74174 0.28408 0.61288 0.0
H606 H 0.79844 0.30243 0.61532 0.0
C607 C 0.00124 0.29828 0.64647 0.0
C608 C 0.90879 0.3114 0.6419 0.0
H609 H 0.84924 0.25711 0.64601 0.0
C610 C 0.88898 0.33577 0.63544 0.0
C611 C 0.89407 0.28282 0.64583 0.0
C612 C 0.91331 0.25655 0.65344 0.0
C613 C 0.85494 0.33241 0.63291 0.0
C614 C 0.84038 0.30368 0.63677 0.0
C615 C 0.86032 0.27917 0.64304 0.0
C616 C 0.80443 0.2987 0.6351 0.0
C617 C 0.83478 0.36009 0.6265 0.0
C618 C 0.78852 0.29135 0.64536 0.0
C619 C 0.75656 0.28045 0.64395 0.0
C620 C 0.73947 0.27705 0.63226 0.0
C621 C 0.75426 0.2869 0.62201 0.0
C622 C 0.78669 0.29737 0.62341 0.0
H623 H 0.84817 0.38353 0.62692 0.0
H624 H 0.82876 0.35343 0.61672 0.0
H625 H 0.81153 0.3643 0.63057 0.0
H626 H 0.80148 0.29239 0.65448 0.0
H627 H 0.74573 0.27301 0.65201 0.0
H628 H 0.27788 0.24265 0.6619 0.0
H629 H 0.33448 0.23226 0.65774 0.0
H630 H 0.34391 0.3358 0.65073 0.0
H631 H 0.2881 0.34661 0.65532 0.0
H632 H 0.36452 0.24282 0.63711 0.0
H633 H 0.42281 0.31739 0.67532 0.0
H634 H 0.38063 0.306 0.67438 0.0
H635 H 0.39224 0.34074 0.66589 0.0
C636 C 0.29207 0.26328 0.65958 0.0
C637 C 0.27826 0.29551 0.65899 0.0
C638 C 0.32442 0.25725 0.65715 0.0
C639 C 0.34375 0.28334 0.65418 0.0
C640 C 0.32981 0.31536 0.6533 0.0
H641 H 0.52057 0.32072 0.62499 0.0
H642 H 0.46931 0.3206 0.63424 0.0
C643 C 0.29759 0.32141 0.65573 0.0
C644 C 0.37821 0.27723 0.65165 0.0
H645 H 0.45588 0.30367 0.6592 0.0
C646 C 0.38458 0.25568 0.64207 0.0
C647 C 0.40451 0.2938 0.65819 0.0
C648 C 0.3998 0.3155 0.6691 0.0
C649 C 0.41613 0.25174 0.63843 0.0
C650 C 0.44206 0.26958 0.64458 0.0
C651 C 0.43596 0.2901 0.65446 0.0
C652 C 0.47479 0.26977 0.64012 0.0
C653 C 0.42127 0.22976 0.62763 0.0
C654 C 0.49539 0.24145 0.64064 0.0
C655 C 0.52491 0.24151 0.63538 0.0
C656 C 0.53426 0.26993 0.62956 0.0
C657 C 0.51405 0.29848 0.62943 0.0
C658 C 0.48478 0.29846 0.63473 0.0
H659 H 0.39789 0.22105 0.62286 0.0
H660 H 0.43442 0.24305 0.62096 0.0
H661 H 0.43653 0.20785 0.63082 0.0
H662 H 0.48828 0.21911 0.64485 0.0
H663 H 0.53976 0.21902 0.63545 0.0
H664 H 0.48664 0.86174 0.16711 0.0
H665 H 0.42956 0.85339 0.15951 0.0
H666 H 0.4591 0.78068 0.13385 0.0
H667 H 0.51653 0.78959 0.14108 0.0
H668 H 0.39654 0.85608 0.13281 0.0
H669 H 0.39513 0.73552 0.15659 0.0
H670 H 0.42488 0.76629 0.16121 0.0
H671 H 0.42853 0.74195 0.14771 0.0
C672 C 0.48122 0.84439 0.15969 0.0
C673 C 0.5065 0.8264 0.15472 0.0
C674 C 0.44845 0.83959 0.15539 0.0
C675 C 0.44008 0.81645 0.14612 0.0
C676 C 0.46506 0.79861 0.14105 0.0
H677 H 0.26304 0.72274 0.11827 0.0
H678 H 0.31836 0.74278 0.12201 0.0
C679 C 0.4979 0.80355 0.14528 0.0
C680 C 0.40522 0.80976 0.14221 0.0
H681 H 0.34767 0.75185 0.14405 0.0
C682 C 0.38572 0.83332 0.13524 0.0
C683 C 0.3912 0.78018 0.14546 0.0
C684 C 0.41081 0.75451 0.15323 0.0
C685 C 0.35273 0.82757 0.13113 0.0
C686 C 0.33874 0.79777 0.13433 0.0
C687 C 0.35829 0.7746 0.1415 0.0
C688 C 0.30433 0.7891 0.13015 0.0
C689 C 0.33354 0.85297 0.12311 0.0
C690 C 0.27753 0.80902 0.13296 0.0
C691 C 0.24549 0.79777 0.13054 0.0
C692 C 0.23996 0.76615 0.12554 0.0
C693 C 0.26661 0.74715 0.12218 0.0
C694 C 0.2983 0.75856 0.12437 0.0
H695 H 0.34984 0.86948 0.11873 0.0
H696 H 0.31697 0.84106 0.11584 0.0
H697 H 0.31847 0.86851 0.1288 0.0
H698 H 0.28141 0.83242 0.13761 0.0
H699 H 0.2254 0.81275 0.13333 0.0
H700 H 0.42799 0.18925 0.82844 0.0
H701 H 0.37193 0.19732 0.83319 0.0
H702 H 0.37684 0.30161 0.82648 0.0
H703 H 0.43266 0.29353 0.82116 0.0
H704 H 0.34896 0.23389 0.85112 0.0
H705 H 0.2923 0.27931 0.80598 0.0
H706 H 0.33268 0.26037 0.8081 0.0
H707 H 0.32634 0.30274 0.81242 0.0
C708 C 0.41706 0.21388 0.82779 0.0
C709 C 0.4348 0.24069 0.82428 0.0
C710 C 0.38502 0.21847 0.83059 0.0
C711 C 0.3699 0.24995 0.82996 0.0
C712 C 0.3877 0.27695 0.82673 0.0
H713 H 0.18884 0.32575 0.85365 0.0
H714 H 0.24024 0.3186 0.8445 0.0
C715 C 0.41981 0.27236 0.82388 0.0
C716 C 0.33599 0.25442 0.83318 0.0
H717 H 0.2591 0.28187 0.82235 0.0
C718 C 0.32929 0.2442 0.8448 0.0
C719 C 0.31031 0.2679 0.82491 0.0
C720 C 0.3156 0.27794 0.81211 0.0
C721 C 0.29781 0.24745 0.84843 0.0
C722 C 0.2722 0.26098 0.84019 0.0
C723 C 0.27879 0.27137 0.8286 0.0
C724 C 0.23872 0.26536 0.84375 0.0
C725 C 0.29225 0.23696 0.86117 0.0
C726 C 0.22034 0.23783 0.8459 0.0
C727 C 0.19101 0.24186 0.8511 0.0
C728 C 0.17951 0.2735 0.85412 0.0
C729 C 0.19711 0.30111 0.85135 0.0
C730 C 0.22639 0.29707 0.84611 0.0
H731 H 0.31554 0.23283 0.86713 0.0
H732 H 0.27717 0.25584 0.86552 0.0
H733 H 0.27887 0.21355 0.86062 0.0
H734 H 0.22941 0.21316 0.84406 0.0
H735 H 0.17823 0.22013 0.85333 0.0
H736 H 0.19575 0.81061 0.32985 0.0
H737 H 0.25371 0.82091 0.33579 0.0
H738 H 0.26978 0.71897 0.34631 0.0
H739 H 0.21221 0.70867 0.34058 0.0
H740 H 0.30391 0.76018 0.36236 0.0
H741 H 0.32293 0.79075 0.31443 0.0
H742 H 0.29361 0.81649 0.32123 0.0
H743 H 0.28556 0.77367 0.3183 0.0
C744 C 0.21164 0.7905 0.33353 0.0
C745 C 0.19935 0.7588 0.33471 0.0
C746 C 0.24476 0.79639 0.33689 0.0
C747 C 0.26624 0.77057 0.34129 0.0
C748 C 0.25371 0.73931 0.34295 0.0
H749 H 0.459 0.71232 0.33536 0.0
H750 H 0.40155 0.72857 0.33367 0.0
C751 C 0.22068 0.73348 0.3397 0.0
C752 C 0.30207 0.77499 0.34354 0.0
H753 H 0.36926 0.7876 0.32875 0.0
C754 C 0.31824 0.76667 0.35507 0.0
C755 C 0.32072 0.78334 0.33399 0.0
C756 C 0.30497 0.79134 0.32126 0.0
C757 C 0.3525 0.76478 0.35716 0.0
C758 C 0.3711 0.77209 0.34749 0.0
C759 C 0.35493 0.78217 0.33616 0.0
C760 C 0.40678 0.76464 0.34831 0.0
C761 C 0.3684 0.75292 0.36943 0.0
C762 C 0.42915 0.77996 0.35699 0.0
C763 C 0.46235 0.77046 0.35806 0.0
C764 C 0.47367 0.74565 0.35041 0.0
C765 C 0.45125 0.73135 0.34147 0.0
C766 C 0.41829 0.74072 0.34045 0.0
H767 H 0.35041 0.74308 0.37518 0.0
H768 H 0.38718 0.73332 0.36824 0.0
H769 H 0.38066 0.77379 0.37443 0.0
H770 H 0.42091 0.7989 0.36302 0.0
H771 H 0.47889 0.78195 0.36505 0.0
H772 H 0.68653 0.86323 0.59541 0.0
H773 H 0.67456 0.92154 0.59928 0.0
H774 H 0.65346 0.93825 0.56049 0.0
H775 H 0.66639 0.88019 0.55651 0.0
H776 H 0.69518 0.98324 0.57139 0.0
H777 H 0.58881 0.97418 0.59763 0.0
H778 H 0.62284 0.94875 0.60389 0.0
H779 H 0.60324 0.94013 0.5888 0.0
C780 C 0.67917 0.87923 0.58769 0.0
C781 C 0.67741 0.86689 0.57564 0.0
C782 C 0.67195 0.91255 0.58993 0.0
C783 C 0.66262 0.93426 0.58019 0.0
C784 C 0.66032 0.92194 0.56816 0.0
H785 H 0.6095 0.14106 0.59748 0.0
H786 H 0.6074 0.0871 0.58703 0.0
C787 C 0.66749 0.88862 0.56591 0.0
C788 C 0.6577 0.97019 0.58253 0.0
H789 H 0.61716 0.02536 0.5995 0.0
C790 C 0.67776 0.99248 0.57739 0.0
C791 C 0.63459 0.98245 0.59018 0.0
C792 C 0.61091 0.96017 0.59534 0.0
C793 C 0.67663 0.02631 0.58026 0.0
C794 C 0.65518 0.03815 0.5886 0.0
C795 C 0.6338 0.01624 0.59318 0.0
C796 C 0.657 0.07222 0.59366 0.0
C797 C 0.69886 0.04904 0.57452 0.0
C798 C 0.68558 0.08185 0.60074 0.0
C799 C 0.68678 0.11241 0.60667 0.0
C800 C 0.65947 0.13417 0.60563 0.0
C801 C 0.63109 0.12504 0.59825 0.0
C802 C 0.62981 0.09416 0.59236 0.0
H803 H 0.70604 0.03874 0.56578 0.0
H804 H 0.68702 0.07375 0.57274 0.0
H805 H 0.72143 0.05218 0.58086 0.0
H806 H 0.70665 0.06515 0.60206 0.0
H807 H 0.7089 0.11868 0.61236 0.0
H808 H 0.23992 0.07877 0.06817 0.0
H809 H 0.23469 0.02423 0.07692 0.0
H810 H 0.19708 0.06903 0.10837 0.0
H811 H 0.20239 0.12388 0.09971 0.0
H812 H 0.26193 0.99614 0.09925 0.0
H813 H 0.12648 0.00435 0.09592 0.0
H814 H 0.14996 0.03283 0.0882 0.0
H815 H 0.14688 0.03735 0.10431 0.0
C816 C 0.23083 0.07713 0.07702 0.0
C817 C 0.22151 0.10581 0.08322 0.0
C818 C 0.2278 0.04587 0.08199 0.0
C819 C 0.21522 0.04248 0.09324 0.0
C820 C 0.20634 0.07101 0.09957 0.0
H821 H 0.15241 0.86731 0.12814 0.0
H822 H 0.17428 0.92212 0.12566 0.0
C823 C 0.20931 0.10235 0.09459 0.0
C824 C 0.21064 0.00902 0.09812 0.0
H825 H 0.15206 0.95671 0.10506 0.0
C826 C 0.23794 0.98752 0.10058 0.0
C827 C 0.17933 -0.00223 0.09983 0.0
C828 C 0.14891 0.01909 0.09684 0.0
C829 C 0.23471 0.95511 0.10471 0.0
C830 C 0.20333 0.94379 0.10625 0.0
C831 C 0.17616 0.96547 0.10398 0.0
C832 C 0.19738 0.90907 0.10948 0.0
C833 C 0.26489 0.93334 0.10744 0.0
C834 C 0.20427 0.88309 0.10152 0.0
C835 C 0.19203 0.85168 0.10303 0.0
C836 C 0.1728 0.84586 0.1125 0.0
C837 C 0.16786 0.87111 0.12095 0.0
C838 C 0.18009 0.90246 0.11946 0.0
H839 H 0.28713 0.94815 0.10937 0.0
H840 H 0.26281 0.91707 0.11538 0.0
H841 H 0.26804 0.91748 0.09936 0.0
H842 H 0.21691 0.88768 0.0936 0.0
H843 H 0.19535 0.83276 0.09622 0.0
H844 H 0.61094 0.08061 0.39264 0.0
H845 H 0.59524 0.02613 0.38511 0.0
H846 H 0.49598 0.04749 0.39216 0.0
H847 H 0.51151 0.10252 0.39969 0.0
H848 H 0.51866 0.98897 0.40183 0.0
H849 H 0.54552 0.99356 0.3538 0.0
H850 H 0.57977 0.00644 0.36401 0.0
H851 H 0.54203 0.03031 0.36302 0.0
C852 C 0.58554 0.07421 0.39229 0.0
C853 C 0.56247 0.09616 0.39672 0.0
C854 C 0.57658 0.04294 0.38795 0.0
C855 C 0.54429 0.03285 0.38784 0.0
C856 C 0.521 0.05481 0.39207 0.0
H857 H 0.5151 0.82925 0.35973 0.0
H858 H 0.50205 0.88832 0.36262 0.0
C859 C 0.52996 0.0862 0.39643 0.0
C860 C 0.53596 -0.00169 0.38441 0.0
H861 H 0.5468 0.939 0.36287 0.0
C862 C 0.52413 0.97823 0.39319 0.0
C863 C 0.54242 0.98426 0.37306 0.0
C864 C 0.55279 0.0049 0.36289 0.0
C865 C 0.52106 0.9441 0.39131 0.0
C866 C 0.53056 0.92959 0.38045 0.0
C867 C 0.53989 0.95002 0.37127 0.0
C868 C 0.53521 0.8933 0.37918 0.0
C869 C 0.50868 0.92373 0.40116 0.0
C870 C 0.558 0.87657 0.38752 0.0
C871 C 0.56545 0.84321 0.38588 0.0
C872 C 0.55038 0.82571 0.37582 0.0
C873 C 0.5268 0.84207 0.36763 0.0
C874 C 0.51948 0.87578 0.36924 0.0
H875 H 0.49211 0.93865 0.40649 0.0
H876 H 0.49548 0.90195 0.39722 0.0
H877 H 0.52968 0.91488 0.40761 0.0
H878 H 0.57096 0.88964 0.39511 0.0
H879 H 0.58361 0.83124 0.39238 0.0
H880 H 0.04037 0.86376 0.9104 0.0
H881 H 0.03334 0.92227 0.90493 0.0
H882 H 0.13744 0.9292 0.90484 0.0
H883 H 0.14465 0.87102 0.91034 0.0
H884 H 0.11031 0.9828 0.91627 0.0
H885 H 0.04141 0.95786 0.87093 0.0
H886 H 0.0239 0.94157 0.88379 0.0
H887 H 0.06278 0.92566 0.88009 0.0
C888 C 0.06173 0.87773 0.90915 0.0
C889 C 0.09306 0.86266 0.91078 0.0
C890 C 0.05768 0.91118 0.90605 0.0
C891 C 0.08484 0.93007 0.90435 0.0
C892 C 0.11613 0.91519 0.90614 0.0
H893 H 0.10216 0.09913 0.86081 0.0
H894 H 0.1041 0.04614 0.87123 0.0
C895 C 0.12021 0.88189 0.90931 0.0
C896 C 0.08092 0.96501 0.90029 0.0
H897 H 0.04988 0.01342 0.87626 0.0
C898 C 0.09689 0.9896 0.90757 0.0
C899 C 0.06362 0.97378 0.88889 0.0
C900 C 0.04716 0.94837 0.8804 0.0
C901 C 0.09659 0.02257 0.90362 0.0
C902 C 0.07952 0.0312 0.89217 0.0
C903 C 0.06286 0.00677 0.88507 0.0
C904 C 0.08093 0.06456 0.88676 0.0
C905 C 0.11563 0.0476 0.91148 0.0
C906 C 0.06785 0.09285 0.89214 0.0
C907 C 0.06698 0.12348 0.8862 0.0
C908 C 0.07899 0.12604 0.87478 0.0
C909 C 0.09276 0.09786 0.86962 0.0
C910 C 0.09383 0.06755 0.87555 0.0
H911 H 0.13236 0.03575 0.91889 0.0
H912 H 0.13016 0.0628 0.90584 0.0
H913 H 0.09838 0.06438 0.91576 0.0
H914 H 0.05723 0.09103 0.90068 0.0
H915 H 0.05549 0.14467 0.8902 0.0
H916 H 0.13653 0.20592 0.00634 0.0
H917 H 0.1194 0.19874 0.98446 0.0
H918 H 0.21587 0.2226 0.9763 0.0
H919 H 0.2335 0.22859 -0.00188 0.0
H920 H 0.11776 0.2452 0.96686 0.0
H921 H 0.1986 0.14083 0.95545 0.0
H922 H 0.19252 0.15164 0.97102 0.0
H923 H 0.22094 0.17376 0.96307 0.0
C924 C 0.15428 0.209 -9e-05 0.0
C925 C 0.1864 0.21786 0.004 0.0
C926 C 0.14441 0.20504 0.9874 0.0
C927 C 0.16648 0.20961 0.97874 0.0
C928 C 0.19859 0.21821 0.98281 0.0
H929 H 0.13133 0.27414 0.90481 0.0
H930 H 0.14507 0.26582 0.92671 0.0
C931 C 0.20849 0.22213 -0.00471 0.0
C932 C 0.15542 0.20786 0.96544 0.0
H933 H 0.17389 0.17336 0.93848 0.0
C934 C 0.12977 0.22916 0.96068 0.0
C935 C 0.17074 0.1866 0.95738 0.0
C936 C 0.197 0.16166 0.962 0.0
C937 C 0.12005 0.23089 0.94806 0.0
C938 C 0.1368 0.21122 0.93995 0.0
C939 C 0.16138 0.18875 0.94471 0.0
C940 C 0.13019 0.21509 0.92649 0.0
C941 C 0.09206 0.25403 0.94352 0.0
C942 C 0.11853 0.18885 0.91898 0.0
C943 C 0.11084 0.19348 0.90636 0.0
C944 C 0.11483 0.22434 0.90106 0.0
C945 C 0.12772 0.2501 0.90857 0.0
C946 C 0.1354 0.24548 0.92113 0.0
H947 H 0.07599 0.25969 0.95078 0.0
H948 H 0.10192 0.27762 0.94069 0.0
H949 H 0.07711 0.24344 0.93549 0.0
H950 H 0.1147 0.16507 0.92293 0.0
H951 H 0.10139 0.1731 0.90079 0.0
H952 H 0.01163 0.7395 0.25312 0.0
H953 H 0.0075 0.74453 0.23076 0.0
H954 H 0.11056 0.72216 0.2317 0.0
H955 H 0.11512 0.71779 0.25395 0.0
H956 H 0.04463 0.7863 0.21541 0.0
H957 H 0.06345 0.65192 0.20822 0.0
H958 H 0.05088 0.66905 0.22224 0.0
H959 H 0.09304 0.66934 0.21949 0.0
C960 C 0.0335 0.7361 0.24858 0.0
C961 C 0.06367 0.72788 0.25532 0.0
C962 C 0.03103 0.73883 0.23581 0.0
C963 C 0.05862 0.73316 0.22961 0.0
C964 C 0.08888 0.726 0.23633 0.0
H965 H 0.13635 0.77166 0.16508 0.0
H966 H 0.11165 0.77524 0.1843 0.0
C967 C 0.0914 0.7234 0.24904 0.0
C968 C 0.05623 0.73416 0.2161 0.0
H969 H 0.07274 0.68705 0.1916 0.0
C970 C 0.05014 0.76454 0.21013 0.0
C971 C 0.0627 0.7056 0.20922 0.0
C972 C 0.06757 0.67204 0.21508 0.0
C973 C 0.05282 0.76748 0.19755 0.0
C974 C 0.0622 0.73942 0.19091 0.0
C975 C 0.06579 0.70862 0.19672 0.0
C976 C 0.07276 0.74194 0.17851 0.0
C977 C 0.04653 0.80071 0.19156 0.0
C978 C 0.0591 0.72205 0.16886 0.0
C979 C 0.07336 0.71991 0.15789 0.0
C980 C 0.10139 0.7376 0.15647 0.0
C981 C 0.11439 0.75824 0.16595 0.0
C982 C 0.10013 0.76049 0.17687 0.0
H983 H 0.02925 0.81614 0.1964 0.0
H984 H 0.06983 0.81388 0.19195 0.0
H985 H 0.03649 0.79817 0.18181 0.0
H986 H 0.03835 0.70707 0.17003 0.0
H987 H 0.06376 0.70294 0.15085 0.0
H988 H 0.74129 0.72033 0.5005 0.0
H989 H 0.7252 0.71694 0.47846 0.0
H990 H 0.62415 0.71314 0.48491 0.0
H991 H 0.63988 0.71782 0.50696 0.0
H992 H 0.69099 0.66956 0.46413 0.0
H993 H 0.62464 0.79099 0.46157 0.0
H994 H 0.65145 0.77814 0.47488 0.0
H995 H 0.61089 0.76261 0.47223 0.0
C996 C 0.7156 0.71909 0.49724 0.0
C997 C 0.69185 0.71975 0.50551 0.0
C998 C 0.70648 0.71683 0.48464 0.0
C999 C 0.67347 0.71525 0.48004 0.0
C1000 C 0.64974 0.71488 0.48826 0.0
H1001 H 0.60034 0.67497 0.40346 0.0
H1002 H 0.61612 0.66929 0.42552 0.0
C1003 C 0.65882 0.71723 0.50087 0.0
C1004 C 0.66394 0.71489 0.46662 0.0
H1005 H 0.62187 0.75919 0.44343 0.0
C1006 C 0.67581 0.68909 0.45958 0.0
C1007 C 0.64447 0.74062 0.46071 0.0
C1008 C 0.63232 0.76984 0.46769 0.0
C1009 C 0.66873 0.68835 0.44677 0.0
C1010 C 0.64889 0.71387 0.4409 0.0
C1011 C 0.63694 0.73955 0.44796 0.0
C1012 C 0.64129 0.71548 0.42739 0.0
C1013 C 0.6833 0.66082 0.43962 0.0
C1014 C 0.65008 0.74326 0.42111 0.0
C1015 C 0.64081 0.74663 0.40858 0.0
C1016 C 0.62249 0.7223 0.40203 0.0
C1017 C 0.61451 0.694 0.40824 0.0
C1018 C 0.62367 0.69069 0.42084 0.0
H1019 H 0.70401 0.64787 0.44511 0.0
H1020 H 0.66435 0.6425 0.43692 0.0
H1021 H 0.69201 0.67037 0.43115 0.0
H1022 H 0.6637 0.76268 0.42597 0.0
H1023 H 0.64749 0.76871 0.40409 0.0
H1024 H 0.54995 0.2926 0.75344 0.0
H1025 H 0.54423 0.29872 0.73113 0.0
H1026 H 0.5499 0.19289 0.727 0.0
H1027 H 0.55436 0.18657 0.74915 0.0
H1028 H 0.58931 0.27953 0.71649 0.0
H1029 H 0.47528 0.21609 0.70142 0.0
H1030 H 0.48589 0.22874 0.71711 0.0
H1031 H 0.502 0.19041 0.71152 0.0
C1032 C 0.54922 0.27063 0.74776 0.0
C1033 C 0.55277 0.23909 0.75307 0.0
C1034 C 0.54603 0.27418 0.73502 0.0
C1035 C 0.54603 0.24626 0.72738 0.0
C1036 C 0.54896 0.21478 0.73268 0.0
H1037 H 0.60257 0.17666 0.66208 0.0
H1038 H 0.5774 0.18819 0.68083 0.0
C1039 C 0.5521 0.21122 0.74537 0.0
C1040 C 0.54675 0.24971 0.71399 0.0
H1041 H 0.51486 0.2179 0.68654 0.0
C1042 C 0.57251 0.26685 0.70989 0.0
C1043 C 0.5247 0.23327 0.70538 0.0
C1044 C 0.49522 0.21641 0.70909 0.0
C1045 C 0.5784 0.26573 0.69756 0.0
C1046 C 0.55773 0.24728 0.68911 0.0
C1047 C 0.53071 0.23193 0.69305 0.0
C1048 C 0.56677 0.23973 0.67672 0.0
C1049 C 0.60807 0.2823 0.69384 0.0
C1050 C 0.56794 0.26465 0.66799 0.0
C1051 C 0.58244 0.2581 0.65727 0.0
C1052 C 0.5957 0.22652 0.65513 0.0
C1053 C 0.59256 0.20121 0.66352 0.0
C1054 C 0.57807 0.20773 0.67419 0.0
H1055 H 0.6237 0.2923 0.70182 0.0
H1056 H 0.62299 0.26461 0.68887 0.0
H1057 H 0.60017 0.30302 0.68756 0.0
H1058 H 0.55913 0.28946 0.66976 0.0
H1059 H 0.58494 0.27816 0.65102 0.0
H1060 H 0.1678 0.67978 0.97991 0.0
H1061 H 0.16857 0.67304 0.00202 0.0
H1062 H 0.06422 0.68957 -0.00112 0.0
H1063 H 0.06306 0.69517 0.97671 0.0
H1064 H 0.14979 0.72089 0.0175 0.0
H1065 H 0.0763 0.61019 0.0215 0.0
H1066 H 0.09293 0.62062 0.00754 0.0
H1067 H 0.05595 0.64073 0.01142 0.0
C1068 C 0.14489 0.68119 0.98387 0.0
C1069 C 0.11535 0.68802 0.97653 0.0
C1070 C 0.14541 0.67747 -0.00348 0.0
C1071 C 0.11641 0.6803 0.00208 0.0
C1072 C 0.08681 0.68655 -0.00524 0.0
H1073 H 0.05599 0.72164 0.0719 0.0
H1074 H 0.06111 0.70302 0.05094 0.0
C1075 C 0.08625 0.69024 0.98211 0.0
C1076 C 0.11748 0.68 0.01562 0.0
H1077 H 0.08429 0.64484 0.03935 0.0
C1078 C 0.13593 0.70389 0.02231 0.0
C1079 C 0.0993 0.65785 0.02186 0.0
C1080 C 0.08025 0.63069 0.01522 0.0
C1081 C 0.13552 0.7073 0.03499 0.0
C1082 C 0.11661 0.68575 0.0412 0.0
C1083 C 0.09887 0.66121 0.03457 0.0
C1084 C 0.11267 0.69059 0.05434 0.0
C1085 C 0.15401 0.73504 0.04153 0.0
C1086 C 0.13967 0.68842 0.06331 0.0
C1087 C 0.13679 0.69922 0.07527 0.0
C1088 C 0.10678 0.71177 0.07846 0.0
C1089 C 0.07934 0.7118 0.06968 0.0
C1090 C 0.08223 0.70113 0.05773 0.0
H1091 H 0.16199 0.75323 0.03505 0.0
H1092 H 0.13876 0.74822 0.04785 0.0
H1093 H 0.17608 0.72472 0.04704 0.0
H1094 H 0.16334 0.68016 0.06089 0.0
H1095 H 0.15851 0.70015 0.08174 0.0
H1096 H 0.70555 0.80851 0.23513 0.0
H1097 H 0.70722 0.79418 0.25682 0.0
H1098 H 0.60213 0.80047 0.25394 0.0
H1099 H 0.60021 0.81502 0.23233 0.0
H1100 H 0.68171 0.82795 0.27681 0.0
H1101 H 0.62499 0.70691 0.26707 0.0
H1102 H 0.64135 0.7306 0.25545 0.0
H1103 H 0.60169 0.74104 0.25995 0.0
C1104 C 0.68279 0.80714 0.23914 0.0
C1105 C 0.65271 0.81262 0.23195 0.0
C1106 C 0.68381 0.79889 0.25153 0.0
C1107 C 0.6548 0.79582 0.25694 0.0
C1108 C 0.6248 0.80208 0.24988 0.0
H1109 H 0.61296 0.7874 0.3319 0.0
H1110 H 0.63016 0.80648 0.31261 0.0
C1111 C 0.62374 0.81028 0.23752 0.0
C1112 C 0.65566 0.78529 0.26987 0.0
H1113 H 0.62863 0.72573 0.28764 0.0
C1114 C 0.67045 0.80542 0.27922 0.0
C1115 C 0.6414 0.75569 0.27298 0.0
C1116 C 0.62673 0.73212 0.26334 0.0
C1117 C 0.67034 0.79727 0.29164 0.0
C1118 C 0.65471 0.76833 0.29478 0.0
C1119 C 0.64077 0.74785 0.28535 0.0
C1120 C 0.65079 0.7591 0.30764 0.0
C1121 C 0.6869 0.81998 0.30116 0.0
C1122 C 0.65715 0.72632 0.31149 0.0
C1123 C 0.64627 0.71522 0.32229 0.0
C1124 C 0.62974 0.73692 0.32963 0.0
C1125 C 0.62609 0.77036 0.32644 0.0
C1126 C 0.63605 0.78128 0.31542 0.0
H1127 H 0.70897 0.83047 0.29789 0.0
H1128 H 0.66991 0.8409 0.30276 0.0
H1129 H 0.69414 0.80737 0.30998 0.0
H1130 H 0.66866 0.70873 0.30574 0.0
H1131 H 0.64926 0.68929 0.32459 0.0
H1132 H 0.63834 0.13201 0.47788 0.0
H1133 H 0.6416 0.12311 0.50003 0.0
H1134 H 0.6078 0.22344 0.50501 0.0
H1135 H 0.60549 0.23288 0.48304 0.0
H1136 H 0.6638 0.20454 0.52067 0.0
H1137 H 0.56527 0.11372 0.52112 0.0
H1138 H 0.5968 0.10455 0.51142 0.0
H1139 H 0.56927 0.13914 0.50798 0.0
C1140 C 0.63169 0.1522 0.4837 0.0
C1141 C 0.62156 0.18316 0.47867 0.0
C1142 C 0.63326 0.14695 0.49634 0.0
C1143 C 0.62464 0.17251 0.50414 0.0
C1144 C 0.61443 0.20333 0.49914 0.0
H1145 H 0.56356 0.21026 0.57198 0.0
H1146 H 0.57075 0.18907 0.55162 0.0
C1147 C 0.61286 0.2086 0.48655 0.0
C1148 C 0.62704 0.168 0.51758 0.0
H1149 H 0.59038 0.13149 0.54018 0.0
C1150 C 0.64817 0.18818 0.52498 0.0
C1151 C 0.60658 0.14659 0.52311 0.0
C1152 C 0.583 0.12484 0.51555 0.0
C1153 C 0.64818 0.18893 0.53774 0.0
C1154 C 0.6269 0.16836 0.54328 0.0
C1155 C 0.60692 0.14692 0.53592 0.0
C1156 C 0.6211 0.17315 0.55627 0.0
C1157 C 0.66935 0.21344 0.54506 0.0
C1158 C 0.64646 0.16946 0.56586 0.0
C1159 C 0.64245 0.1819 0.57755 0.0
C1160 C 0.61291 0.19778 0.57979 0.0
C1161 C 0.58666 0.19836 0.57048 0.0
C1162 C 0.59071 0.18612 0.55885 0.0
H1163 H 0.68045 0.23099 0.53912 0.0
H1164 H 0.65492 0.22785 0.55132 0.0
H1165 H 0.68941 0.20002 0.5507 0.0
H1166 H 0.66995 0.15895 0.56411 0.0
H1167 H 0.66316 0.18129 0.58452 0.0
H1168 H 0.21604 0.30531 0.73534 0.0
H1169 H 0.21856 0.29054 0.75706 0.0
H1170 H 0.11339 0.29125 0.75414 0.0
H1171 H 0.11078 0.30524 0.73247 0.0
H1172 H 0.19554 0.31988 0.777 0.0
H1173 H 0.13655 0.20041 0.76757 0.0
H1174 H 0.15098 0.22457 0.75567 0.0
H1175 H 0.11167 0.23384 0.76079 0.0
C1176 C 0.19349 0.30236 0.73937 0.0
C1177 C 0.1632 0.30593 0.73217 0.0
C1178 C 0.19496 0.29394 0.75176 0.0
C1179 C 0.16618 0.28907 0.75716 0.0
C1180 C 0.13595 0.29391 0.75009 0.0
H1181 H 0.11855 0.28893 0.83074 0.0
H1182 H 0.14056 0.30465 0.8119 0.0
C1183 C 0.13447 0.30194 0.73771 0.0
C1184 C 0.16739 0.27844 0.77012 0.0
H1185 H 0.13698 0.22127 0.78801 0.0
C1186 C 0.18314 0.29806 0.77944 0.0
C1187 C 0.15204 0.24951 0.77332 0.0
C1188 C 0.13719 0.22569 0.7638 0.0
C1189 C 0.1824 0.29042 0.79189 0.0
C1190 C 0.16474 0.2629 0.79506 0.0
C1191 C 0.15038 0.24253 0.78569 0.0
C1192 C 0.15873 0.25547 0.80787 0.0
C1193 C 0.20058 0.31193 0.80143 0.0
C1194 C 0.16221 0.22282 0.81215 0.0
C1195 C 0.14866 0.21372 0.82267 0.0
C1196 C 0.13223 0.23726 0.82933 0.0
C1197 C 0.1315 0.27047 0.8258 0.0
C1198 C 0.14427 0.27946 0.81505 0.0
H1199 H 0.22275 0.32175 0.79802 0.0
H1200 H 0.18462 0.33335 0.80344 0.0
H1201 H 0.20796 0.29834 0.81006 0.0
H1202 H 0.17343 0.20386 0.80686 0.0
H1203 H 0.14944 0.18794 0.82524 0.0
loop_
_geom_bond_atom_site_label_1
_geom_bond_atom_site_label_2
_geom_bond_distance
_geom_bond_site_symmetry_2
_ccdc_geom_bond_type
P0 O11 1.490 . S
P0 C14 1.812 . S
P0 C20 1.803 . S
P0 C26 1.819 . S
H1 C15 0.941 . S
H2 C16 0.939 . S
H3 C18 0.940 . S
H4 C19 0.940 . S
H5 C21 0.939 . S
H6 C22 0.942 . S
H7 C24 0.940 . S
H8 C25 0.939 . S
H9 C27 0.941 . S
H10 C31 0.939 . S
O11 P0 1.490 . S
H12 C28 0.939 . S
H13 C30 0.940 . S
C14 P0 1.812 . S
C14 C15 1.389 . S
C14 C19 1.391 . S
C15 H1 0.941 . S
C15 C14 1.389 . S
C15 C16 1.397 . S
C16 H2 0.939 . S
C16 C15 1.397 . S
C16 C17 1.378 . S
C17 C16 1.378 . S
C17 C18 1.378 . S
C18 H3 0.940 . S
C18 C17 1.378 . S
C18 C19 1.396 . S
C19 H4 0.940 . S
C19 C14 1.391 . S
C19 C18 1.396 . S
C20 P0 1.803 . S
C20 C21 1.378 . S
C20 C25 1.400 . S
C21 H5 0.939 . S
C21 C20 1.378 . S
C21 C22 1.361 . S
C22 H6 0.942 . S
C22 C21 1.361 . S
C22 C23 1.369 . S
C23 C22 1.369 . S
C23 C24 1.404 . S
C24 H7 0.940 . S
C24 C23 1.404 . S
C24 C25 1.389 . S
C25 H8 0.939 . S
C25 C20 1.400 . S
C25 C24 1.389 . S
C26 P0 1.819 . S
C26 C27 1.391 . S
C26 C31 1.391 . S
C27 H9 0.941 . S
C27 C26 1.391 . S
C27 C28 1.396 . S
C28 H12 0.939 . S
C28 C27 1.396 . S
C28 C29 1.397 . S
C29 C28 1.397 . S
C29 C30 1.385 . S
C30 H13 0.940 . S
C30 C29 1.385 . S
C30 C31 1.388 . S
C31 H10 0.939 . S
C31 C26 1.391 . S
C31 C30 1.388 . S
P32 O43 1.490 . S
P32 C46 1.812 . S
P32 C52 1.803 . S
P32 C58 1.819 . S
H33 C47 0.941 . S
H34 C48 0.939 . S
H35 C50 0.940 . S
H36 C51 0.940 . S
H37 C53 0.939 . S
H38 C54 0.942 . S
H39 C56 0.940 . S
H40 C57 0.939 . S
H41 C59 0.941 . S
H42 C63 0.939 . S
O43 P32 1.490 . S
H44 C60 0.939 . S
H45 C62 0.940 . S
C46 P32 1.812 . S
C46 C47 1.389 . S
C46 C51 1.391 . S
C47 H33 0.941 . S
C47 C46 1.389 . S
C47 C48 1.397 . S
C48 H34 0.939 . S
C48 C47 1.397 . S
C48 C49 1.378 . S
C49 C48 1.378 . S
C49 C50 1.378 . S
C50 H35 0.940 . S
C50 C49 1.378 . S
C50 C51 1.396 . S
C51 H36 0.940 . S
C51 C46 1.391 . S
C51 C50 1.396 . S
C52 P32 1.803 . S
C52 C53 1.378 . S
C52 C57 1.400 . S
C53 H37 0.939 . S
C53 C52 1.378 . S
C53 C54 1.361 . S
C54 H38 0.942 . S
C54 C53 1.361 . S
C54 C55 1.369 . S
C55 C54 1.369 . S
C55 C56 1.404 . S
C56 H39 0.940 . S
C56 C55 1.404 . S
C56 C57 1.389 . S
C57 H40 0.939 . S
C57 C52 1.400 . S
C57 C56 1.389 . S
C58 P32 1.819 . S
C58 C59 1.391 . S
C58 C63 1.391 . S
C59 H41 0.941 . S
C59 C58 1.391 . S
C59 C60 1.396 . S
C60 H44 0.939 . S
C60 C59 1.396 . S
C60 C61 1.397 . S
C61 C60 1.397 . S
C61 C62 1.385 . S
C62 H45 0.940 . S
C62 C61 1.385 . S
C62 C63 1.388 . S
C63 H42 0.939 . S
C63 C58 1.391 . S
C63 C62 1.388 . S
P64 O75 1.490 . S
P64 C78 1.812 . S
P64 C84 1.803 . S
P64 C90 1.819 . S
H65 C79 0.941 . S
H66 C80 0.939 . S
H67 C82 0.940 . S
H68 C83 0.940 . S
H69 C85 0.939 . S
H70 C86 0.942 . S
H71 C88 0.940 . S
H72 C89 0.939 . S
H73 C91 0.941 . S
H74 C95 0.939 . S
O75 P64 1.490 . S
H76 C92 0.939 . S
H77 C94 0.940 . S
C78 P64 1.812 . S
C78 C79 1.389 . S
C78 C83 1.391 . S
C79 H65 0.941 . S
C79 C78 1.389 . S
C79 C80 1.397 . S
C80 H66 0.939 . S
C80 C79 1.397 . S
C80 C81 1.378 . S
C81 C80 1.378 . S
C81 C82 1.378 . S
C82 H67 0.940 . S
C82 C81 1.378 . S
C82 C83 1.396 . S
C83 H68 0.940 . S
C83 C78 1.391 . S
C83 C82 1.396 . S
C84 P64 1.803 . S
C84 C85 1.378 . S
C84 C89 1.400 . S
C85 H69 0.939 . S
C85 C84 1.378 . S
C85 C86 1.361 . S
C86 H70 0.942 . S
C86 C85 1.361 . S
C86 C87 1.369 . S
C87 C86 1.369 . S
C87 C88 1.404 . S
C88 H71 0.940 . S
C88 C87 1.404 . S
C88 C89 1.389 . S
C89 H72 0.939 . S
C89 C84 1.400 . S
C89 C88 1.389 . S
C90 P64 1.819 . S
C90 C91 1.391 . S
C90 C95 1.391 . S
C91 H73 0.941 . S
C91 C90 1.391 . S
C91 C92 1.396 . S
C92 H76 0.939 . S
C92 C91 1.396 . S
C92 C93 1.397 . S
C93 C92 1.397 . S
C93 C94 1.385 . S
C94 H77 0.940 . S
C94 C93 1.385 . S
C94 C95 1.388 . S
C95 H74 0.939 . S
C95 C90 1.391 . S
C95 C94 1.388 . S
P96 O107 1.490 . S
P96 C110 1.812 . S
P96 C116 1.803 . S
P96 C122 1.819 . S
H97 C111 0.941 . S
H98 C112 0.939 . S
H99 C114 0.940 . S
H100 C115 0.940 . S
H101 C117 0.939 . S
H102 C118 0.942 . S
H103 C120 0.940 . S
H104 C121 0.939 . S
H105 C123 0.941 . S
H106 C127 0.939 . S
O107 P96 1.490 . S
H108 C124 0.939 . S
H109 C126 0.940 . S
C110 P96 1.812 . S
C110 C111 1.389 . S
C110 C115 1.391 . S
C111 H97 0.941 . S
C111 C110 1.389 . S
C111 C112 1.397 . S
C112 H98 0.939 . S
C112 C111 1.397 . S
C112 C113 1.378 . S
C113 C112 1.378 . S
C113 C114 1.378 . S
C114 H99 0.940 . S
C114 C113 1.378 . S
C114 C115 1.396 . S
C115 H100 0.940 . S
C115 C110 1.391 . S
C115 C114 1.396 . S
C116 P96 1.803 . S
C116 C117 1.378 . S
C116 C121 1.400 . S
C117 H101 0.939 . S
C117 C116 1.378 . S
C117 C118 1.361 . S
C118 H102 0.942 . S
C118 C117 1.361 . S
C118 C119 1.369 . S
C119 C118 1.369 . S
C119 C120 1.404 . S
C120 H103 0.940 . S
C120 C119 1.404 . S
C120 C121 1.389 . S
C121 H104 0.939 . S
C121 C116 1.400 . S
C121 C120 1.389 . S
C122 P96 1.819 . S
C122 C123 1.391 . S
C122 C127 1.391 . S
C123 H105 0.941 . S
C123 C122 1.391 . S
C123 C124 1.396 . S
C124 H108 0.939 . S
C124 C123 1.396 . S
C124 C125 1.397 . S
C125 C124 1.397 . S
C125 C126 1.385 . S
C126 H109 0.940 . S
C126 C125 1.385 . S
C126 C127 1.388 . S
C127 H106 0.939 . S
C127 C122 1.391 . S
C127 C126 1.388 . S
P128 O139 1.490 . S
P128 C142 1.812 . S
P128 C148 1.803 . S
P128 C154 1.819 . S
H129 C143 0.941 . S
H130 C144 0.939 . S
H131 C146 0.940 . S
H132 C147 0.940 . S
H133 C149 0.939 . S
H134 C150 0.942 . S
H135 C152 0.940 . S
H136 C153 0.939 . S
H137 C155 0.941 . S
H138 C159 0.939 . S
O139 P128 1.490 . S
H140 C156 0.939 . S
H141 C158 0.940 . S
C142 P128 1.812 . S
C142 C143 1.389 . S
C142 C147 1.391 . S
C143 H129 0.941 . S
C143 C142 1.389 . S
C143 C144 1.397 . S
C144 H130 0.939 . S
C144 C143 1.397 . S
C144 C145 1.378 . S
C145 C144 1.378 . S
C145 C146 1.378 . S
C146 H131 0.940 . S
C146 C145 1.378 . S
C146 C147 1.396 . S
C147 H132 0.940 . S
C147 C142 1.391 . S
C147 C146 1.396 . S
C148 P128 1.803 . S
C148 C149 1.378 . S
C148 C153 1.400 . S
C149 H133 0.939 . S
C149 C148 1.378 . S
C149 C150 1.361 . S
C150 H134 0.942 . S
C150 C149 1.361 . S
C150 C151 1.369 . S
C151 C150 1.369 . S
C151 C152 1.404 . S
C152 H135 0.940 . S
C152 C151 1.404 . S
C152 C153 1.389 . S
C153 H136 0.939 . S
C153 C148 1.400 . S
C153 C152 1.389 . S
C154 P128 1.819 . S
C154 C155 1.391 . S
C154 C159 1.391 . S
C155 H137 0.941 . S
C155 C154 1.391 . S
C155 C156 1.396 . S
C156 H140 0.939 . S
C156 C155 1.396 . S
C156 C157 1.397 . S
C157 C156 1.397 . S
C157 C158 1.385 . S
C158 H141 0.940 . S
C158 C157 1.385 . S
C158 C159 1.388 . S
C159 H138 0.939 . S
C159 C154 1.391 . S
C159 C158 1.388 . S
P160 O171 1.490 . S
P160 C174 1.812 . S
P160 C180 1.803 . S
P160 C186 1.819 . S
H161 C175 0.941 . S
H162 C176 0.939 . S
H163 C178 0.940 . S
H164 C179 0.940 . S
H165 C181 0.939 . S
H166 C182 0.942 . S
H167 C184 0.940 . S
H168 C185 0.939 . S
H169 C187 0.941 . S
H170 C191 0.939 . S
O171 P160 1.490 . S
H172 C188 0.939 . S
H173 C190 0.940 . S
C174 P160 1.812 . S
C174 C175 1.389 . S
C174 C179 1.391 . S
C175 H161 0.941 . S
C175 C174 1.389 . S
C175 C176 1.397 . S
C176 H162 0.939 . S
C176 C175 1.397 . S
C176 C177 1.378 . S
C177 C176 1.378 . S
C177 C178 1.378 . S
C178 H163 0.940 . S
C178 C177 1.378 . S
C178 C179 1.396 . S
C179 H164 0.940 . S
C179 C174 1.391 . S
C179 C178 1.396 . S
C180 P160 1.803 . S
C180 C181 1.378 . S
C180 C185 1.400 . S
C181 H165 0.939 . S
C181 C180 1.378 . S
C181 C182 1.361 . S
C182 H166 0.942 . S
C182 C181 1.361 . S
C182 C183 1.369 . S
C183 C182 1.369 . S
C183 C184 1.404 . S
C184 H167 0.940 . S
C184 C183 1.404 . S
C184 C185 1.389 . S
C185 H168 0.939 . S
C185 C180 1.400 . S
C185 C184 1.389 . S
C186 P160 1.819 . S
C186 C187 1.391 . S
C186 C191 1.391 . S
C187 H169 0.941 . S
C187 C186 1.391 . S
C187 C188 1.396 . S
C188 H172 0.939 . S
C188 C187 1.396 . S
C188 C189 1.397 . S
C189 C188 1.397 . S
C189 C190 1.385 . S
C190 H173 0.940 . S
C190 C189 1.385 . S
C190 C191 1.388 . S
C191 H170 0.939 . S
C191 C186 1.391 . S
C191 C190 1.388 . S
P192 O203 1.490 . S
P192 C206 1.812 . S
P192 C212 1.803 . S
P192 C218 1.819 . S
H193 C207 0.941 . S
H194 C208 0.939 . S
H195 C210 0.940 . S
H196 C211 0.940 . S
H197 C213 0.939 . S
H198 C214 0.942 . S
H199 C216 0.940 . S
H200 C217 0.939 . S
H201 C219 0.941 . S
H202 C223 0.939 . S
O203 P192 1.490 . S
H204 C220 0.939 . S
H205 C222 0.940 . S
C206 P192 1.812 . S
C206 C207 1.389 . S
C206 C211 1.391 . S
C207 H193 0.941 . S
C207 C206 1.389 . S
C207 C208 1.397 . S
C208 H194 0.939 . S
C208 C207 1.397 . S
C208 C209 1.378 . S
C209 C208 1.378 . S
C209 C210 1.378 . S
C210 H195 0.940 . S
C210 C209 1.378 . S
C210 C211 1.396 . S
C211 H196 0.940 . S
C211 C206 1.391 . S
C211 C210 1.396 . S
C212 P192 1.803 . S
C212 C213 1.378 . S
C212 C217 1.400 . S
C213 H197 0.939 . S
C213 C212 1.378 . S
C213 C214 1.361 . S
C214 H198 0.942 . S
C214 C213 1.361 . S
C214 C215 1.369 . S
C215 C214 1.369 . S
C215 C216 1.404 . S
C216 H199 0.940 . S
C216 C215 1.404 . S
C216 C217 1.389 . S
C217 H200 0.939 . S
C217 C212 1.400 . S
C217 C216 1.389 . S
C218 P192 1.819 . S
C218 C219 1.391 . S
C218 C223 1.391 . S
C219 H201 0.941 . S
C219 C218 1.391 . S
C219 C220 1.396 . S
C220 H204 0.939 . S
C220 C219 1.396 . S
C220 C221 1.397 . S
C221 C220 1.397 . S
C221 C222 1.385 . S
C222 H205 0.940 . S
C222 C221 1.385 . S
C222 C223 1.388 . S
C223 H202 0.939 . S
C223 C218 1.391 . S
C223 C222 1.388 . S
P224 O235 1.490 . S
P224 C238 1.812 . S
P224 C244 1.803 . S
P224 C250 1.819 . S
H225 C239 0.941 . S
H226 C240 0.939 . S
H227 C242 0.940 . S
H228 C243 0.940 . S
H229 C245 0.939 . S
H230 C246 0.942 . S
H231 C248 0.940 . S
H232 C249 0.939 . S
H233 C251 0.941 . S
H234 C255 0.939 . S
O235 P224 1.490 . S
H236 C252 0.939 . S
H237 C254 0.940 . S
C238 P224 1.812 . S
C238 C239 1.389 . S
C238 C243 1.391 . S
C239 H225 0.941 . S
C239 C238 1.389 . S
C239 C240 1.397 . S
C240 H226 0.939 . S
C240 C239 1.397 . S
C240 C241 1.378 . S
C241 C240 1.378 . S
C241 C242 1.378 . S
C242 H227 0.940 . S
C242 C241 1.378 . S
C242 C243 1.396 . S
C243 H228 0.940 . S
C243 C238 1.391 . S
C243 C242 1.396 . S
C244 P224 1.803 . S
C244 C245 1.378 . S
C244 C249 1.400 . S
C245 H229 0.939 . S
C245 C244 1.378 . S
C245 C246 1.361 . S
C246 H230 0.942 . S
C246 C245 1.361 . S
C246 C247 1.369 . S
C247 C246 1.369 . S
C247 C248 1.404 . S
C248 H231 0.940 . S
C248 C247 1.404 . S
C248 C249 1.389 . S
C249 H232 0.939 . S
C249 C244 1.400 . S
C249 C248 1.389 . S
C250 P224 1.819 . S
C250 C251 1.391 . S
C250 C255 1.391 . S
C251 H233 0.941 . S
C251 C250 1.391 . S
C251 C252 1.396 . S
C252 H236 0.939 . S
C252 C251 1.396 . S
C252 C253 1.397 . S
C253 C252 1.397 . S
C253 C254 1.385 . S
C254 H237 0.940 . S
C254 C253 1.385 . S
C254 C255 1.388 . S
C255 H234 0.939 . S
C255 C250 1.391 . S
C255 C254 1.388 . S
Zn256 O262 1.920 . S
Zn256 O268 1.898 . S
Zn256 O271 1.905 . S
Zn257 O265 1.905 . S
Zn257 O266 1.898 . S
Zn257 O274 1.920 . S
Zn258 O261 2.080 . S
Zn258 O264 2.114 . S
Zn258 O267 2.120 . S
Zn258 O269 2.120 . S
Zn258 O270 2.114 . S
Zn258 O273 2.080 . S
C259 O264 1.166 . S
C259 O265 1.182 . S
C260 O266 1.167 . S
C260 O267 1.299 . S
O261 Zn258 2.080 . S
O261 C275 1.305 . S
O262 Zn256 1.920 . S
O262 C275 1.234 . S
C263 O268 1.167 . S
C263 O269 1.299 . S
O264 Zn258 2.114 . S
O264 C259 1.166 . S
O265 Zn257 1.905 . S
O265 C259 1.182 . S
O266 Zn257 1.898 . S
O266 C260 1.167 . S
O267 Zn258 2.120 . S
O267 C260 1.299 . S
O268 Zn256 1.898 . S
O268 C263 1.167 . S
O269 Zn258 2.120 . S
O269 C263 1.299 . S
O270 Zn258 2.114 . S
O270 C272 1.166 . S
O271 Zn256 1.905 . S
O271 C272 1.182 . S
C272 O270 1.166 . S
C272 O271 1.182 . S
O273 Zn258 2.080 . S
O273 C276 1.305 . S
O274 Zn257 1.920 . S
O274 C276 1.234 . S
C275 O261 1.305 . S
C275 O262 1.234 . S
C276 O273 1.305 . S
C276 O274 1.234 . S
Zn277 O283 1.920 . S
Zn277 O289 1.898 . S
Zn277 O292 1.905 . S
Zn278 O286 1.905 . S
Zn278 O287 1.898 . S
Zn278 O295 1.920 . S
Zn279 O282 2.080 . S
Zn279 O285 2.114 . S
Zn279 O288 2.120 . S
Zn279 O290 2.120 . S
Zn279 O291 2.114 . S
Zn279 O294 2.080 . S
C280 O285 1.166 . S
C280 O286 1.182 . S
C281 O287 1.167 . S
C281 O288 1.299 . S
O282 Zn279 2.080 . S
O282 C296 1.305 . S
O283 Zn277 1.920 . S
O283 C296 1.234 . S
C284 O289 1.167 . S
C284 O290 1.299 . S
O285 Zn279 2.114 . S
O285 C280 1.166 . S
O286 Zn278 1.905 . S
O286 C280 1.182 . S
O287 Zn278 1.898 . S
O287 C281 1.167 . S
O288 Zn279 2.120 . S
O288 C281 1.299 . S
O289 Zn277 1.898 . S
O289 C284 1.167 . S
O290 Zn279 2.120 . S
O290 C284 1.299 . S
O291 Zn279 2.114 . S
O291 C293 1.166 . S
O292 Zn277 1.905 . S
O292 C293 1.182 . S
C293 O291 1.166 . S
C293 O292 1.182 . S
O294 Zn279 2.080 . S
O294 C297 1.305 . S
O295 Zn278 1.920 . S
O295 C297 1.234 . S
C296 O282 1.305 . S
C296 O283 1.234 . S
C297 O294 1.305 . S
C297 O295 1.234 . S
Zn298 O304 1.920 . S
Zn298 O310 1.898 . S
Zn298 O313 1.905 . S
Zn299 O307 1.905 . S
Zn299 O308 1.898 . S
Zn299 O316 1.920 . S
Zn300 O303 2.080 . S
Zn300 O306 2.114 . S
Zn300 O309 2.120 . S
Zn300 O311 2.120 . S
Zn300 O312 2.114 . S
Zn300 O315 2.080 . S
C301 O306 1.166 . S
C301 O307 1.182 . S
C302 O308 1.167 . S
C302 O309 1.299 . S
O303 Zn300 2.080 . S
O303 C317 1.305 . S
O304 Zn298 1.920 . S
O304 C317 1.234 . S
C305 O310 1.167 . S
C305 O311 1.299 . S
O306 Zn300 2.114 . S
O306 C301 1.166 . S
O307 Zn299 1.905 . S
O307 C301 1.182 . S
O308 Zn299 1.898 . S
O308 C302 1.167 . S
O309 Zn300 2.120 . S
O309 C302 1.299 . S
O310 Zn298 1.898 . S
O310 C305 1.167 . S
O311 Zn300 2.120 . S
O311 C305 1.299 . S
O312 Zn300 2.114 . S
O312 C314 1.166 . S
O313 Zn298 1.905 . S
O313 C314 1.182 . S
C314 O312 1.166 . S
C314 O313 1.182 . S
O315 Zn300 2.080 . S
O315 C318 1.305 . S
O316 Zn299 1.920 . S
O316 C318 1.234 . S
C317 O303 1.305 . S
C317 O304 1.234 . S
C318 O315 1.305 . S
C318 O316 1.234 . S
Zn319 O325 1.920 . S
Zn319 O331 1.898 . S
Zn319 O334 1.905 . S
Zn320 O328 1.905 . S
Zn320 O329 1.898 . S
Zn320 O337 1.920 . S
Zn321 O324 2.080 . S
Zn321 O327 2.114 . S
Zn321 O330 2.120 . S
Zn321 O332 2.120 . S
Zn321 O333 2.114 . S
Zn321 O336 2.080 . S
C322 O327 1.166 . S
C322 O328 1.182 . S
C323 O329 1.167 . S
C323 O330 1.299 . S
O324 Zn321 2.080 . S
O324 C338 1.305 . S
O325 Zn319 1.920 . S
O325 C338 1.234 . S
C326 O331 1.167 . S
C326 O332 1.299 . S
O327 Zn321 2.114 . S
O327 C322 1.166 . S
O328 Zn320 1.905 . S
O328 C322 1.182 . S
O329 Zn320 1.898 . S
O329 C323 1.167 . S
O330 Zn321 2.120 . S
O330 C323 1.299 . S
O331 Zn319 1.898 . S
O331 C326 1.167 . S
O332 Zn321 2.120 . S
O332 C326 1.299 . S
O333 Zn321 2.114 . S
O333 C335 1.166 . S
O334 Zn319 1.905 . S
O334 C335 1.182 . S
C335 O333 1.166 . S
C335 O334 1.182 . S
O336 Zn321 2.080 . S
O336 C339 1.305 . S
O337 Zn320 1.920 . S
O337 C339 1.234 . S
C338 O324 1.305 . S
C338 O325 1.234 . S
C339 O336 1.305 . S
C339 O337 1.234 . S
H340 C348 0.929 . S
H341 C350 0.930 . S
H342 C352 0.930 . S
H343 C355 0.929 . S
H344 C358 0.930 . S
H345 C360 0.960 . S
H346 C360 0.960 . S
H347 C360 0.960 . S
C348 H340 0.929 . S
C348 C349 1.377 . S
C348 C350 1.384 . S
C349 C348 1.377 . S
C349 C355 1.390 . S
C350 H341 0.930 . S
C350 C348 1.384 . S
C350 C351 1.372 . S
C351 C350 1.372 . S
C351 C352 1.400 . S
C351 C356 1.490 . S
C352 H342 0.930 . S
C352 C351 1.400 . S
C352 C355 1.386 . S
H353 C369 0.930 . S
H354 C370 0.931 . S
C355 H343 0.929 . S
C355 C349 1.390 . S
C355 C352 1.386 . S
C356 C351 1.490 . S
C356 C358 1.395 . S
C356 C359 1.403 . S
H357 C363 0.930 . S
C358 H344 0.930 . S
C358 C356 1.395 . S
C358 C361 1.403 . S
C359 C356 1.403 . S
C359 C360 1.524 . S
C359 C363 1.400 . S
C360 H345 0.960 . S
C360 H346 0.960 . S
C360 H347 0.960 . S
C360 C359 1.524 . S
C361 C358 1.403 . S
C361 C362 1.392 . S
C361 C365 1.495 . S
C362 C361 1.392 . S
C362 C363 1.385 . S
C362 C364 1.478 . S
C363 H357 0.930 . S
C363 C359 1.400 . S
C363 C362 1.385 . S
C364 C362 1.478 . S
C364 C366 1.381 . S
C364 C370 1.383 . S
C365 C361 1.495 . S
C365 H371 0.959 . S
C365 H372 0.961 . S
C365 H373 0.960 . S
C366 C364 1.381 . S
C366 C367 1.394 . S
C366 H374 0.930 . S
C367 C366 1.394 . S
C367 C368 1.383 . S
C367 H375 0.929 . S
C368 C367 1.383 . S
C368 C369 1.377 . S
C369 H353 0.930 . S
C369 C368 1.377 . S
C369 C370 1.379 . S
C370 H354 0.931 . S
C370 C364 1.383 . S
C370 C369 1.379 . S
H371 C365 0.959 . S
H372 C365 0.961 . S
H373 C365 0.960 . S
H374 C366 0.930 . S
H375 C367 0.929 . S
H376 C384 0.929 . S
H377 C386 0.930 . S
H378 C388 0.930 . S
H379 C391 0.929 . S
H380 C394 0.930 . S
H381 C396 0.960 . S
H382 C396 0.960 . S
H383 C396 0.960 . S
C384 H376 0.929 . S
C384 C385 1.377 . S
C384 C386 1.384 . S
C385 C384 1.377 . S
C385 C391 1.390 . S
C386 H377 0.930 . S
C386 C384 1.384 . S
C386 C387 1.372 . S
C387 C386 1.372 . S
C387 C388 1.400 . S
C387 C392 1.490 . S
C388 H378 0.930 . S
C388 C387 1.400 . S
C388 C391 1.386 . S
H389 C405 0.930 . S
H390 C406 0.931 . S
C391 H379 0.929 . S
C391 C385 1.390 . S
C391 C388 1.386 . S
C392 C387 1.490 . S
C392 C394 1.395 . S
C392 C395 1.403 . S
H393 C399 0.930 . S
C394 H380 0.930 . S
C394 C392 1.395 . S
C394 C397 1.403 . S
C395 C392 1.403 . S
C395 C396 1.524 . S
C395 C399 1.400 . S
C396 H381 0.960 . S
C396 H382 0.960 . S
C396 H383 0.960 . S
C396 C395 1.524 . S
C397 C394 1.403 . S
C397 C398 1.392 . S
C397 C401 1.495 . S
C398 C397 1.392 . S
C398 C399 1.385 . S
C398 C400 1.478 . S
C399 H393 0.930 . S
C399 C395 1.400 . S
C399 C398 1.385 . S
C400 C398 1.478 . S
C400 C402 1.381 . S
C400 C406 1.383 . S
C401 C397 1.495 . S
C401 H407 0.959 . S
C401 H408 0.961 . S
C401 H409 0.960 . S
C402 C400 1.381 . S
C402 C403 1.394 . S
C402 H410 0.930 . S
C403 C402 1.394 . S
C403 C404 1.383 . S
C403 H411 0.929 . S
C404 C403 1.383 . S
C404 C405 1.377 . S
C405 H389 0.930 . S
C405 C404 1.377 . S
C405 C406 1.379 . S
C406 H390 0.931 . S
C406 C400 1.383 . S
C406 C405 1.379 . S
H407 C401 0.959 . S
H408 C401 0.961 . S
H409 C401 0.960 . S
H410 C402 0.930 . S
H411 C403 0.929 . S
H412 C420 0.929 . S
H413 C422 0.930 . S
H414 C424 0.930 . S
H415 C427 0.929 . S
H416 C430 0.930 . S
H417 C432 0.960 . S
H418 C432 0.960 . S
H419 C432 0.960 . S
C420 H412 0.929 . S
C420 C421 1.377 . S
C420 C422 1.384 . S
C421 C420 1.377 . S
C421 C427 1.390 . S
C422 H413 0.930 . S
C422 C420 1.384 . S
C422 C423 1.372 . S
C423 C422 1.372 . S
C423 C424 1.400 . S
C423 C428 1.490 . S
C424 H414 0.930 . S
C424 C423 1.400 . S
C424 C427 1.386 . S
H425 C441 0.930 . S
H426 C442 0.931 . S
C427 H415 0.929 . S
C427 C421 1.390 . S
C427 C424 1.386 . S
C428 C423 1.490 . S
C428 C430 1.395 . S
C428 C431 1.403 . S
H429 C435 0.930 . S
C430 H416 0.930 . S
C430 C428 1.395 . S
C430 C433 1.403 . S
C431 C428 1.403 . S
C431 C432 1.524 . S
C431 C435 1.400 . S
C432 H417 0.960 . S
C432 H418 0.960 . S
C432 H419 0.960 . S
C432 C431 1.524 . S
C433 C430 1.403 . S
C433 C434 1.392 . S
C433 C437 1.495 . S
C434 C433 1.392 . S
C434 C435 1.385 . S
C434 C436 1.478 . S
C435 H429 0.930 . S
C435 C431 1.400 . S
C435 C434 1.385 . S
C436 C434 1.478 . S
C436 C438 1.381 . S
C436 C442 1.383 . S
C437 C433 1.495 . S
C437 H443 0.959 . S
C437 H444 0.961 . S
C437 H445 0.960 . S
C438 C436 1.381 . S
C438 C439 1.394 . S
C438 H446 0.930 . S
C439 C438 1.394 . S
C439 C440 1.383 . S
C439 H447 0.929 . S
C440 C439 1.383 . S
C440 C441 1.377 . S
C441 H425 0.930 . S
C441 C440 1.377 . S
C441 C442 1.379 . S
C442 H426 0.931 . S
C442 C436 1.383 . S
C442 C441 1.379 . S
H443 C437 0.959 . S
H444 C437 0.961 . S
H445 C437 0.960 . S
H446 C438 0.930 . S
H447 C439 0.929 . S
H448 C456 0.929 . S
H449 C458 0.930 . S
H450 C460 0.930 . S
H451 C463 0.929 . S
H452 C466 0.930 . S
H453 C468 0.960 . S
H454 C468 0.960 . S
H455 C468 0.960 . S
C456 H448 0.929 . S
C456 C457 1.377 . S
C456 C458 1.384 . S
C457 C456 1.377 . S
C457 C463 1.390 . S
C458 H449 0.930 . S
C458 C456 1.384 . S
C458 C459 1.372 . S
C459 C458 1.372 . S
C459 C460 1.400 . S
C459 C464 1.490 . S
C460 H450 0.930 . S
C460 C459 1.400 . S
C460 C463 1.386 . S
H461 C477 0.930 . S
H462 C478 0.931 . S
C463 H451 0.929 . S
C463 C457 1.390 . S
C463 C460 1.386 . S
C464 C459 1.490 . S
C464 C466 1.395 . S
C464 C467 1.403 . S
H465 C471 0.930 . S
C466 H452 0.930 . S
C466 C464 1.395 . S
C466 C469 1.403 . S
C467 C464 1.403 . S
C467 C468 1.524 . S
C467 C471 1.400 . S
C468 H453 0.960 . S
C468 H454 0.960 . S
C468 H455 0.960 . S
C468 C467 1.524 . S
C469 C466 1.403 . S
C469 C470 1.392 . S
C469 C473 1.495 . S
C470 C469 1.392 . S
C470 C471 1.385 . S
C470 C472 1.478 . S
C471 H465 0.930 . S
C471 C467 1.400 . S
C471 C470 1.385 . S
C472 C470 1.478 . S
C472 C474 1.381 . S
C472 C478 1.383 . S
C473 C469 1.495 . S
C473 H479 0.959 . S
C473 H480 0.961 . S
C473 H481 0.960 . S
C474 C472 1.381 . S
C474 C475 1.394 1_655 S
C474 H482 0.930 . S
C475 C474 1.394 1_455 S
C475 C476 1.383 . S
C475 H483 0.929 . S
C476 C475 1.383 . S
C476 C477 1.377 . S
C477 H461 0.930 . S
C477 C476 1.377 . S
C477 C478 1.379 1_455 S
C478 H462 0.931 . S
C478 C472 1.383 . S
C478 C477 1.379 1_655 S
H479 C473 0.959 . S
H480 C473 0.961 . S
H481 C473 0.960 . S
H482 C474 0.930 . S
H483 C475 0.929 . S
H484 C492 0.929 . S
H485 C494 0.930 . S
H486 C496 0.930 . S
H487 C499 0.929 . S
H488 C502 0.930 . S
H489 C504 0.960 . S
H490 C504 0.960 . S
H491 C504 0.960 . S
C492 H484 0.929 . S
C492 C493 1.377 . S
C492 C494 1.384 . S
C493 C492 1.377 . S
C493 C499 1.390 . S
C494 H485 0.930 . S
C494 C492 1.384 . S
C494 C495 1.372 . S
C495 C494 1.372 . S
C495 C496 1.400 . S
C495 C500 1.490 . S
C496 H486 0.930 . S
C496 C495 1.400 . S
C496 C499 1.386 . S
H497 C513 0.930 . S
H498 C514 0.931 . S
C499 H487 0.929 . S
C499 C493 1.390 . S
C499 C496 1.386 . S
C500 C495 1.490 . S
C500 C502 1.395 . S
C500 C503 1.403 . S
H501 C507 0.930 . S
C502 H488 0.930 . S
C502 C500 1.395 . S
C502 C505 1.403 . S
C503 C500 1.403 . S
C503 C504 1.524 . S
C503 C507 1.400 . S
C504 H489 0.960 . S
C504 H490 0.960 . S
C504 H491 0.960 . S
C504 C503 1.524 . S
C505 C502 1.403 . S
C505 C506 1.392 . S
C505 C509 1.495 . S
C506 C505 1.392 . S
C506 C507 1.385 . S
C506 C508 1.478 . S
C507 H501 0.930 . S
C507 C503 1.400 . S
C507 C506 1.385 . S
C508 C506 1.478 . S
C508 C510 1.381 . S
C508 C514 1.383 . S
C509 C505 1.495 . S
C509 H515 0.959 . S
C509 H516 0.961 . S
C509 H517 0.960 . S
C510 C508 1.381 . S
C510 C511 1.394 . S
C510 H518 0.930 . S
C511 C510 1.394 . S
C511 C512 1.383 . S
C511 H519 0.929 . S
C512 C511 1.383 . S
C512 C513 1.377 . S
C513 H497 0.930 . S
C513 C512 1.377 . S
C513 C514 1.379 . S
C514 H498 0.931 . S
C514 C508 1.383 . S
C514 C513 1.379 . S
H515 C509 0.959 . S
H516 C509 0.961 . S
H517 C509 0.960 . S
H518 C510 0.930 . S
H519 C511 0.929 . S
H520 C528 0.929 . S
H521 C530 0.930 . S
H522 C532 0.930 . S
H523 C535 0.929 . S
H524 C538 0.930 . S
H525 C540 0.960 . S
H526 C540 0.960 . S
H527 C540 0.960 . S
C528 H520 0.929 . S
C528 C529 1.377 . S
C528 C530 1.384 . S
C529 C528 1.377 . S
C529 C535 1.390 . S
C530 H521 0.930 . S
C530 C528 1.384 . S
C530 C531 1.372 . S
C531 C530 1.372 . S
C531 C532 1.400 . S
C531 C536 1.490 . S
C532 H522 0.930 . S
C532 C531 1.400 . S
C532 C535 1.386 . S
H533 C549 0.930 . S
H534 C550 0.931 . S
C535 H523 0.929 . S
C535 C529 1.390 . S
C535 C532 1.386 . S
C536 C531 1.490 . S
C536 C538 1.395 . S
C536 C539 1.403 . S
H537 C543 0.930 . S
C538 H524 0.930 . S
C538 C536 1.395 . S
C538 C541 1.403 . S
C539 C536 1.403 . S
C539 C540 1.524 . S
C539 C543 1.400 . S
C540 H525 0.960 . S
C540 H526 0.960 . S
C540 H527 0.960 . S
C540 C539 1.524 . S
C541 C538 1.403 . S
C541 C542 1.392 . S
C541 C545 1.495 . S
C542 C541 1.392 . S
C542 C543 1.385 . S
C542 C544 1.478 . S
C543 H537 0.930 . S
C543 C539 1.400 . S
C543 C542 1.385 . S
C544 C542 1.478 . S
C544 C546 1.381 . S
C544 C550 1.383 . S
C545 C541 1.495 . S
C545 H551 0.959 . S
C545 H552 0.961 . S
C545 H553 0.960 . S
C546 C544 1.381 . S
C546 C547 1.394 1_655 S
C546 H554 0.930 . S
C547 C546 1.394 1_455 S
C547 C548 1.383 . S
C547 H555 0.929 . S
C548 C547 1.383 . S
C548 C549 1.377 . S
C549 H533 0.930 . S
C549 C548 1.377 . S
C549 C550 1.379 1_455 S
C550 H534 0.931 . S
C550 C544 1.383 . S
C550 C549 1.379 1_655 S
H551 C545 0.959 . S
H552 C545 0.961 . S
H553 C545 0.960 . S
H554 C546 0.930 . S
H555 C547 0.929 . S
H556 C564 0.929 . S
H557 C566 0.930 . S
H558 C568 0.930 . S
H559 C571 0.929 . S
H560 C574 0.930 . S
H561 C576 0.960 . S
H562 C576 0.960 . S
H563 C576 0.960 . S
C564 H556 0.929 . S
C564 C565 1.377 . S
C564 C566 1.384 . S
C565 C564 1.377 . S
C565 C571 1.390 . S
C566 H557 0.930 . S
C566 C564 1.384 . S
C566 C567 1.372 . S
C567 C566 1.372 . S
C567 C568 1.400 . S
C567 C572 1.490 . S
C568 H558 0.930 . S
C568 C567 1.400 . S
C568 C571 1.386 . S
H569 C585 0.930 . S
H570 C586 0.931 . S
C571 H559 0.929 . S
C571 C565 1.390 . S
C571 C568 1.386 . S
C572 C567 1.490 . S
C572 C574 1.395 . S
C572 C575 1.403 . S
H573 C579 0.930 . S
C574 H560 0.930 . S
C574 C572 1.395 . S
C574 C577 1.403 . S
C575 C572 1.403 . S
C575 C576 1.524 . S
C575 C579 1.400 . S
C576 H561 0.960 . S
C576 H562 0.960 . S
C576 H563 0.960 . S
C576 C575 1.524 . S
C577 C574 1.403 . S
C577 C578 1.392 . S
C577 C581 1.495 . S
C578 C577 1.392 . S
C578 C579 1.385 . S
C578 C580 1.478 . S
C579 H573 0.930 . S
C579 C575 1.400 . S
C579 C578 1.385 . S
C580 C578 1.478 . S
C580 C582 1.381 . S
C580 C586 1.383 . S
C581 C577 1.495 . S
C581 H587 0.959 . S
C581 H588 0.961 . S
C581 H589 0.960 . S
C582 C580 1.381 . S
C582 C583 1.394 . S
C582 H590 0.930 . S
C583 C582 1.394 . S
C583 C584 1.383 . S
C583 H591 0.929 . S
C584 C583 1.383 . S
C584 C585 1.377 . S
C585 H569 0.930 . S
C585 C584 1.377 . S
C585 C586 1.379 . S
C586 H570 0.931 . S
C586 C580 1.383 . S
C586 C585 1.379 . S
H587 C581 0.959 . S
H588 C581 0.961 . S
H589 C581 0.960 . S
H590 C582 0.930 . S
H591 C583 0.929 . S
H592 C600 0.929 1_455 S
H593 C602 0.930 . S
H594 C604 0.930 . S
H595 C607 0.929 1_455 S
H596 C610 0.930 . S
H597 C612 0.960 . S
H598 C612 0.960 . S
H599 C612 0.960 . S
C600 H592 0.929 1_655 S
C600 C601 1.377 1_655 S
C600 C602 1.384 . S
C601 C600 1.377 1_455 S
C601 C607 1.390 1_455 S
C602 H593 0.930 . S
C602 C600 1.384 . S
C602 C603 1.372 . S
C603 C602 1.372 . S
C603 C604 1.400 . S
C603 C608 1.490 . S
C604 H594 0.930 . S
C604 C603 1.400 . S
C604 C607 1.386 . S
H605 C621 0.930 . S
H606 C622 0.931 . S
C607 H595 0.929 1_655 S
C607 C601 1.390 1_655 S
C607 C604 1.386 . S
C608 C603 1.490 . S
C608 C610 1.395 . S
C608 C611 1.403 . S
H609 C615 0.930 . S
C610 H596 0.930 . S
C610 C608 1.395 . S
C610 C613 1.403 . S
C611 C608 1.403 . S
C611 C612 1.524 . S
C611 C615 1.400 . S
C612 H597 0.960 . S
C612 H598 0.960 . S
C612 H599 0.960 . S
C612 C611 1.524 . S
C613 C610 1.403 . S
C613 C614 1.392 . S
C613 C617 1.495 . S
C614 C613 1.392 . S
C614 C615 1.385 . S
C614 C616 1.478 . S
C615 H609 0.930 . S
C615 C611 1.400 . S
C615 C614 1.385 . S
C616 C614 1.478 . S
C616 C618 1.381 . S
C616 C622 1.383 . S
C617 C613 1.495 . S
C617 H623 0.959 . S
C617 H624 0.961 . S
C617 H625 0.960 . S
C618 C616 1.381 . S
C618 C619 1.394 . S
C618 H626 0.930 . S
C619 C618 1.394 . S
C619 C620 1.383 . S
C619 H627 0.929 . S
C620 C619 1.383 . S
C620 C621 1.377 . S
C621 H605 0.930 . S
C621 C620 1.377 . S
C621 C622 1.379 . S
C622 H606 0.931 . S
C622 C616 1.383 . S
C622 C621 1.379 . S
H623 C617 0.959 . S
H624 C617 0.961 . S
H625 C617 0.960 . S
H626 C618 0.930 . S
H627 C619 0.929 . S
H628 C636 0.929 . S
H629 C638 0.930 . S
H630 C640 0.930 . S
H631 C643 0.929 . S
H632 C646 0.930 . S
H633 C648 0.960 . S
H634 C648 0.960 . S
H635 C648 0.960 . S
C636 H628 0.929 . S
C636 C637 1.377 . S
C636 C638 1.384 . S
C637 C636 1.377 . S
C637 C643 1.390 . S
C638 H629 0.930 . S
C638 C636 1.384 . S
C638 C639 1.372 . S
C639 C638 1.372 . S
C639 C640 1.400 . S
C639 C644 1.490 . S
C640 H630 0.930 . S
C640 C639 1.400 . S
C640 C643 1.386 . S
H641 C657 0.930 . S
H642 C658 0.931 . S
C643 H631 0.929 . S
C643 C637 1.390 . S
C643 C640 1.386 . S
C644 C639 1.490 . S
C644 C646 1.395 . S
C644 C647 1.403 . S
H645 C651 0.930 . S
C646 H632 0.930 . S
C646 C644 1.395 . S
C646 C649 1.403 . S
C647 C644 1.403 . S
C647 C648 1.524 . S
C647 C651 1.400 . S
C648 H633 0.960 . S
C648 H634 0.960 . S
C648 H635 0.960 . S
C648 C647 1.524 . S
C649 C646 1.403 . S
C649 C650 1.392 . S
C649 C653 1.495 . S
C650 C649 1.392 . S
C650 C651 1.385 . S
C650 C652 1.478 . S
C651 H645 0.930 . S
C651 C647 1.400 . S
C651 C650 1.385 . S
C652 C650 1.478 . S
C652 C654 1.381 . S
C652 C658 1.383 . S
C653 C649 1.495 . S
C653 H659 0.959 . S
C653 H660 0.961 . S
C653 H661 0.960 . S
C654 C652 1.381 . S
C654 C655 1.394 . S
C654 H662 0.930 . S
C655 C654 1.394 . S
C655 C656 1.383 . S
C655 H663 0.929 . S
C656 C655 1.383 . S
C656 C657 1.377 . S
C657 H641 0.930 . S
C657 C656 1.377 . S
C657 C658 1.379 . S
C658 H642 0.931 . S
C658 C652 1.383 . S
C658 C657 1.379 . S
H659 C653 0.959 . S
H660 C653 0.961 . S
H661 C653 0.960 . S
H662 C654 0.930 . S
H663 C655 0.929 . S
H664 C672 0.929 . S
H665 C674 0.930 . S
H666 C676 0.930 . S
H667 C679 0.929 . S
H668 C682 0.930 . S
H669 C684 0.960 . S
H670 C684 0.960 . S
H671 C684 0.960 . S
C672 H664 0.929 . S
C672 C673 1.377 . S
C672 C674 1.384 . S
C673 C672 1.377 . S
C673 C679 1.390 . S
C674 H665 0.930 . S
C674 C672 1.384 . S
C674 C675 1.372 . S
C675 C674 1.372 . S
C675 C676 1.400 . S
C675 C680 1.490 . S
C676 H666 0.930 . S
C676 C675 1.400 . S
C676 C679 1.386 . S
H677 C693 0.930 . S
H678 C694 0.931 . S
C679 H667 0.929 . S
C679 C673 1.390 . S
C679 C676 1.386 . S
C680 C675 1.490 . S
C680 C682 1.395 . S
C680 C683 1.403 . S
H681 C687 0.930 . S
C682 H668 0.930 . S
C682 C680 1.395 . S
C682 C685 1.403 . S
C683 C680 1.403 . S
C683 C684 1.524 . S
C683 C687 1.400 . S
C684 H669 0.960 . S
C684 H670 0.960 . S
C684 H671 0.960 . S
C684 C683 1.524 . S
C685 C682 1.403 . S
C685 C686 1.392 . S
C685 C689 1.495 . S
C686 C685 1.392 . S
C686 C687 1.385 . S
C686 C688 1.478 . S
C687 H681 0.930 . S
C687 C683 1.400 . S
C687 C686 1.385 . S
C688 C686 1.478 . S
C688 C690 1.381 . S
C688 C694 1.383 . S
C689 C685 1.495 . S
C689 H695 0.959 . S
C689 H696 0.961 . S
C689 H697 0.960 . S
C690 C688 1.381 . S
C690 C691 1.394 . S
C690 H698 0.930 . S
C691 C690 1.394 . S
C691 C692 1.383 . S
C691 H699 0.929 . S
C692 C691 1.383 . S
C692 C693 1.377 . S
C693 H677 0.930 . S
C693 C692 1.377 . S
C693 C694 1.379 . S
C694 H678 0.931 . S
C694 C688 1.383 . S
C694 C693 1.379 . S
H695 C689 0.959 . S
H696 C689 0.961 . S
H697 C689 0.960 . S
H698 C690 0.930 . S
H699 C691 0.929 . S
H700 C708 0.929 . S
H701 C710 0.930 . S
H702 C712 0.930 . S
H703 C715 0.929 . S
H704 C718 0.930 . S
H705 C720 0.960 . S
H706 C720 0.960 . S
H707 C720 0.960 . S
C708 H700 0.929 . S
C708 C709 1.377 . S
C708 C710 1.384 . S
C709 C708 1.377 . S
C709 C715 1.390 . S
C710 H701 0.930 . S
C710 C708 1.384 . S
C710 C711 1.372 . S
C711 C710 1.372 . S
C711 C712 1.400 . S
C711 C716 1.490 . S
C712 H702 0.930 . S
C712 C711 1.400 . S
C712 C715 1.386 . S
H713 C729 0.930 . S
H714 C730 0.931 . S
C715 H703 0.929 . S
C715 C709 1.390 . S
C715 C712 1.386 . S
C716 C711 1.490 . S
C716 C718 1.395 . S
C716 C719 1.403 . S
H717 C723 0.930 . S
C718 H704 0.930 . S
C718 C716 1.395 . S
C718 C721 1.403 . S
C719 C716 1.403 . S
C719 C720 1.524 . S
C719 C723 1.400 . S
C720 H705 0.960 . S
C720 H706 0.960 . S
C720 H707 0.960 . S
C720 C719 1.524 . S
C721 C718 1.403 . S
C721 C722 1.392 . S
C721 C725 1.495 . S
C722 C721 1.392 . S
C722 C723 1.385 . S
C722 C724 1.478 . S
C723 H717 0.930 . S
C723 C719 1.400 . S
C723 C722 1.385 . S
C724 C722 1.478 . S
C724 C726 1.381 . S
C724 C730 1.383 . S
C725 C721 1.495 . S
C725 H731 0.959 . S
C725 H732 0.961 . S
C725 H733 0.960 . S
C726 C724 1.381 . S
C726 C727 1.394 . S
C726 H734 0.930 . S
C727 C726 1.394 . S
C727 C728 1.383 . S
C727 H735 0.929 . S
C728 C727 1.383 . S
C728 C729 1.377 . S
C729 H713 0.930 . S
C729 C728 1.377 . S
C729 C730 1.379 . S
C730 H714 0.931 . S
C730 C724 1.383 . S
C730 C729 1.379 . S
H731 C725 0.959 . S
H732 C725 0.961 . S
H733 C725 0.960 . S
H734 C726 0.930 . S
H735 C727 0.929 . S
H736 C744 0.929 . S
H737 C746 0.930 . S
H738 C748 0.930 . S
H739 C751 0.929 . S
H740 C754 0.930 . S
H741 C756 0.960 . S
H742 C756 0.960 . S
H743 C756 0.960 . S
C744 H736 0.929 . S
C744 C745 1.377 . S
C744 C746 1.384 . S
C745 C744 1.377 . S
C745 C751 1.390 . S
C746 H737 0.930 . S
C746 C744 1.384 . S
C746 C747 1.372 . S
C747 C746 1.372 . S
C747 C748 1.400 . S
C747 C752 1.490 . S
C748 H738 0.930 . S
C748 C747 1.400 . S
C748 C751 1.386 . S
H749 C765 0.930 . S
H750 C766 0.931 . S
C751 H739 0.929 . S
C751 C745 1.390 . S
C751 C748 1.386 . S
C752 C747 1.490 . S
C752 C754 1.395 . S
C752 C755 1.403 . S
H753 C759 0.930 . S
C754 H740 0.930 . S
C754 C752 1.395 . S
C754 C757 1.403 . S
C755 C752 1.403 . S
C755 C756 1.524 . S
C755 C759 1.400 . S
C756 H741 0.960 . S
C756 H742 0.960 . S
C756 H743 0.960 . S
C756 C755 1.524 . S
C757 C754 1.403 . S
C757 C758 1.392 . S
C757 C761 1.495 . S
C758 C757 1.392 . S
C758 C759 1.385 . S
C758 C760 1.478 . S
C759 H753 0.930 . S
C759 C755 1.400 . S
C759 C758 1.385 . S
C760 C758 1.478 . S
C760 C762 1.381 . S
C760 C766 1.383 . S
C761 C757 1.495 . S
C761 H767 0.959 . S
C761 H768 0.961 . S
C761 H769 0.960 . S
C762 C760 1.381 . S
C762 C763 1.394 . S
C762 H770 0.930 . S
C763 C762 1.394 . S
C763 C764 1.383 . S
C763 H771 0.929 . S
C764 C763 1.383 . S
C764 C765 1.377 . S
C765 H749 0.930 . S
C765 C764 1.377 . S
C765 C766 1.379 . S
C766 H750 0.931 . S
C766 C760 1.383 . S
C766 C765 1.379 . S
H767 C761 0.959 . S
H768 C761 0.961 . S
H769 C761 0.960 . S
H770 C762 0.930 . S
H771 C763 0.929 . S
H772 C780 0.929 . S
H773 C782 0.930 . S
H774 C784 0.930 . S
H775 C787 0.929 . S
H776 C790 0.930 . S
H777 C792 0.960 . S
H778 C792 0.960 . S
H779 C792 0.960 . S
C780 H772 0.929 . S
C780 C781 1.377 . S
C780 C782 1.384 . S
C781 C780 1.377 . S
C781 C787 1.390 . S
C782 H773 0.930 . S
C782 C780 1.384 . S
C782 C783 1.372 . S
C783 C782 1.372 . S
C783 C784 1.400 . S
C783 C788 1.490 . S
C784 H774 0.930 . S
C784 C783 1.400 . S
C784 C787 1.386 . S
H785 C801 0.930 . S
H786 C802 0.931 . S
C787 H775 0.929 . S
C787 C781 1.390 . S
C787 C784 1.386 . S
C788 C783 1.490 . S
C788 C790 1.395 . S
C788 C791 1.403 . S
H789 C795 0.930 . S
C790 H776 0.930 . S
C790 C788 1.395 . S
C790 C793 1.403 1_565 S
C791 C788 1.403 . S
C791 C792 1.524 . S
C791 C795 1.400 1_565 S
C792 H777 0.960 . S
C792 H778 0.960 . S
C792 H779 0.960 . S
C792 C791 1.524 . S
C793 C790 1.403 1_545 S
C793 C794 1.392 . S
C793 C797 1.495 . S
C794 C793 1.392 . S
C794 C795 1.385 . S
C794 C796 1.478 . S
C795 H789 0.930 . S
C795 C791 1.400 1_545 S
C795 C794 1.385 . S
C796 C794 1.478 . S
C796 C798 1.381 . S
C796 C802 1.383 . S
C797 C793 1.495 . S
C797 H803 0.959 . S
C797 H804 0.961 . S
C797 H805 0.960 . S
C798 C796 1.381 . S
C798 C799 1.394 . S
C798 H806 0.930 . S
C799 C798 1.394 . S
C799 C800 1.383 . S
C799 H807 0.929 . S
C800 C799 1.383 . S
C800 C801 1.377 . S
C801 H785 0.930 . S
C801 C800 1.377 . S
C801 C802 1.379 . S
C802 H786 0.931 . S
C802 C796 1.383 . S
C802 C801 1.379 . S
H803 C797 0.959 . S
H804 C797 0.961 . S
H805 C797 0.960 . S
H806 C798 0.930 . S
H807 C799 0.929 . S
H808 C816 0.929 . S
H809 C818 0.930 . S
H810 C820 0.930 . S
H811 C823 0.929 . S
H812 C826 0.930 1_545 S
H813 C828 0.960 1_565 S
H814 C828 0.960 . S
H815 C828 0.960 . S
C816 H808 0.929 . S
C816 C817 1.377 . S
C816 C818 1.384 . S
C817 C816 1.377 . S
C817 C823 1.390 . S
C818 H809 0.930 . S
C818 C816 1.384 . S
C818 C819 1.372 . S
C819 C818 1.372 . S
C819 C820 1.400 . S
C819 C824 1.490 . S
C820 H810 0.930 . S
C820 C819 1.400 . S
C820 C823 1.386 . S
H821 C837 0.930 . S
H822 C838 0.931 . S
C823 H811 0.929 . S
C823 C817 1.390 . S
C823 C820 1.386 . S
C824 C819 1.490 . S
C824 C826 1.395 1_545 S
C824 C827 1.403 1_545 S
H825 C831 0.930 . S
C826 H812 0.930 1_565 S
C826 C824 1.395 1_565 S
C826 C829 1.403 . S
C827 C824 1.403 1_565 S
C827 C828 1.524 1_565 S
C827 C831 1.400 . S
C828 H813 0.960 1_545 S
C828 H814 0.960 . S
C828 H815 0.960 . S
C828 C827 1.524 1_545 S
C829 C826 1.403 . S
C829 C830 1.392 . S
C829 C833 1.495 . S
C830 C829 1.392 . S
C830 C831 1.385 . S
C830 C832 1.478 . S
C831 H825 0.930 . S
C831 C827 1.400 . S
C831 C830 1.385 . S
C832 C830 1.478 . S
C832 C834 1.381 . S
C832 C838 1.383 . S
C833 C829 1.495 . S
C833 H839 0.959 . S
C833 H840 0.961 . S
C833 H841 0.960 . S
C834 C832 1.381 . S
C834 C835 1.394 . S
C834 H842 0.930 . S
C835 C834 1.394 . S
C835 C836 1.383 . S
C835 H843 0.929 . S
C836 C835 1.383 . S
C836 C837 1.377 . S
C837 H821 0.930 . S
C837 C836 1.377 . S
C837 C838 1.379 . S
C838 H822 0.931 . S
C838 C832 1.383 . S
C838 C837 1.379 . S
H839 C833 0.959 . S
H840 C833 0.961 . S
H841 C833 0.960 . S
H842 C834 0.930 . S
H843 C835 0.929 . S
H844 C852 0.929 . S
H845 C854 0.930 . S
H846 C856 0.930 . S
H847 C859 0.929 . S
H848 C862 0.930 . S
H849 C864 0.960 . S
H850 C864 0.960 . S
H851 C864 0.960 . S
C852 H844 0.929 . S
C852 C853 1.377 . S
C852 C854 1.384 . S
C853 C852 1.377 . S
C853 C859 1.390 . S
C854 H845 0.930 . S
C854 C852 1.384 . S
C854 C855 1.372 . S
C855 C854 1.372 . S
C855 C856 1.400 . S
C855 C860 1.490 . S
C856 H846 0.930 . S
C856 C855 1.400 . S
C856 C859 1.386 . S
H857 C873 0.930 . S
H858 C874 0.931 . S
C859 H847 0.929 . S
C859 C853 1.390 . S
C859 C856 1.386 . S
C860 C855 1.490 . S
C860 C862 1.395 1_545 S
C860 C863 1.403 1_545 S
H861 C867 0.930 . S
C862 H848 0.930 . S
C862 C860 1.395 1_565 S
C862 C865 1.403 . S
C863 C860 1.403 1_565 S
C863 C864 1.524 1_565 S
C863 C867 1.400 . S
C864 H849 0.960 . S
C864 H850 0.960 . S
C864 H851 0.960 . S
C864 C863 1.524 1_545 S
C865 C862 1.403 . S
C865 C866 1.392 . S
C865 C869 1.495 . S
C866 C865 1.392 . S
C866 C867 1.385 . S
C866 C868 1.478 . S
C867 H861 0.930 . S
C867 C863 1.400 . S
C867 C866 1.385 . S
C868 C866 1.478 . S
C868 C870 1.381 . S
C868 C874 1.383 . S
C869 C865 1.495 . S
C869 H875 0.959 . S
C869 H876 0.961 . S
C869 H877 0.960 . S
C870 C868 1.381 . S
C870 C871 1.394 . S
C870 H878 0.930 . S
C871 C870 1.394 . S
C871 C872 1.383 . S
C871 H879 0.929 . S
C872 C871 1.383 . S
C872 C873 1.377 . S
C873 H857 0.930 . S
C873 C872 1.377 . S
C873 C874 1.379 . S
C874 H858 0.931 . S
C874 C868 1.383 . S
C874 C873 1.379 . S
H875 C869 0.959 . S
H876 C869 0.961 . S
H877 C869 0.960 . S
H878 C870 0.930 . S
H879 C871 0.929 . S
H880 C888 0.929 . S
H881 C890 0.930 . S
H882 C892 0.930 . S
H883 C895 0.929 . S
H884 C898 0.930 . S
H885 C900 0.960 . S
H886 C900 0.960 . S
H887 C900 0.960 . S
C888 H880 0.929 . S
C888 C889 1.377 . S
C888 C890 1.384 . S
C889 C888 1.377 . S
C889 C895 1.390 . S
C890 H881 0.930 . S
C890 C888 1.384 . S
C890 C891 1.372 . S
C891 C890 1.372 . S
C891 C892 1.400 . S
C891 C896 1.490 . S
C892 H882 0.930 . S
C892 C891 1.400 . S
C892 C895 1.386 . S
H893 C909 0.930 . S
H894 C910 0.931 . S
C895 H883 0.929 . S
C895 C889 1.390 . S
C895 C892 1.386 . S
C896 C891 1.490 . S
C896 C898 1.395 . S
C896 C899 1.403 . S
H897 C903 0.930 . S
C898 H884 0.930 . S
C898 C896 1.395 . S
C898 C901 1.403 1_565 S
C899 C896 1.403 . S
C899 C900 1.524 . S
C899 C903 1.400 1_565 S
C900 H885 0.960 . S
C900 H886 0.960 . S
C900 H887 0.960 . S
C900 C899 1.524 . S
C901 C898 1.403 1_545 S
C901 C902 1.392 . S
C901 C905 1.495 . S
C902 C901 1.392 . S
C902 C903 1.385 . S
C902 C904 1.478 . S
C903 H897 0.930 . S
C903 C899 1.400 1_545 S
C903 C902 1.385 . S
C904 C902 1.478 . S
C904 C906 1.381 . S
C904 C910 1.383 . S
C905 C901 1.495 . S
C905 H911 0.959 . S
C905 H912 0.961 . S
C905 H913 0.960 . S
C906 C904 1.381 . S
C906 C907 1.394 . S
C906 H914 0.930 . S
C907 C906 1.394 . S
C907 C908 1.383 . S
C907 H915 0.929 . S
C908 C907 1.383 . S
C908 C909 1.377 . S
C909 H893 0.930 . S
C909 C908 1.377 . S
C909 C910 1.379 . S
C910 H894 0.931 . S
C910 C904 1.383 . S
C910 C909 1.379 . S
H911 C905 0.959 . S
H912 C905 0.961 . S
H913 C905 0.960 . S
H914 C906 0.930 . S
H915 C907 0.929 . S
H916 C924 0.929 . S
H917 C926 0.928 1_556 S
H918 C928 0.930 . S
H919 C931 0.929 . S
H920 C934 0.930 . S
H921 C936 0.960 . S
H922 C936 0.960 . S
H923 C936 0.960 . S
C924 H916 0.929 . S
C924 C925 1.377 . S
C924 C926 1.392 . S
C925 C924 1.377 . S
C925 C931 1.390 . S
C926 H917 0.928 1_554 S
C926 C924 1.392 . S
C926 C927 1.366 1_554 S
C927 C926 1.366 1_556 S
C927 C928 1.400 . S
C927 C932 1.490 . S
C928 H918 0.930 . S
C928 C927 1.400 . S
C928 C931 1.386 1_556 S
H929 C945 0.930 . S
H930 C946 0.931 . S
C931 H919 0.929 . S
C931 C925 1.390 . S
C931 C928 1.386 1_554 S
C932 C927 1.490 . S
C932 C934 1.395 . S
C932 C935 1.403 . S
H933 C939 0.930 . S
C934 H920 0.930 . S
C934 C932 1.395 . S
C934 C937 1.403 . S
C935 C932 1.403 . S
C935 C936 1.524 . S
C935 C939 1.400 . S
C936 H921 0.960 . S
C936 H922 0.960 . S
C936 H923 0.960 . S
C936 C935 1.524 . S
C937 C934 1.403 . S
C937 C938 1.392 . S
C937 C941 1.495 . S
C938 C937 1.392 . S
C938 C939 1.385 . S
C938 C940 1.478 . S
C939 H933 0.930 . S
C939 C935 1.400 . S
C939 C938 1.385 . S
C940 C938 1.478 . S
C940 C942 1.381 . S
C940 C946 1.383 . S
C941 C937 1.495 . S
C941 H947 0.959 . S
C941 H948 0.961 . S
C941 H949 0.960 . S
C942 C940 1.381 . S
C942 C943 1.394 . S
C942 H950 0.930 . S
C943 C942 1.394 . S
C943 C944 1.383 . S
C943 H951 0.929 . S
C944 C943 1.383 . S
C944 C945 1.377 . S
C945 H929 0.930 . S
C945 C944 1.377 . S
C945 C946 1.379 . S
C946 H930 0.931 . S
C946 C940 1.383 . S
C946 C945 1.379 . S
H947 C941 0.959 . S
H948 C941 0.961 . S
H949 C941 0.960 . S
H950 C942 0.930 . S
H951 C943 0.929 . S
H952 C960 0.929 . S
H953 C962 0.930 . S
H954 C964 0.930 . S
H955 C967 0.929 . S
H956 C970 0.930 . S
H957 C972 0.960 . S
H958 C972 0.960 . S
H959 C972 0.960 . S
C960 H952 0.929 . S
C960 C961 1.377 . S
C960 C962 1.384 . S
C961 C960 1.377 . S
C961 C967 1.390 . S
C962 H953 0.930 . S
C962 C960 1.384 . S
C962 C963 1.372 . S
C963 C962 1.372 . S
C963 C964 1.400 . S
C963 C968 1.490 . S
C964 H954 0.930 . S
C964 C963 1.400 . S
C964 C967 1.386 . S
H965 C981 0.930 . S
H966 C982 0.931 . S
C967 H955 0.929 . S
C967 C961 1.390 . S
C967 C964 1.386 . S
C968 C963 1.490 . S
C968 C970 1.395 . S
C968 C971 1.403 . S
H969 C975 0.930 . S
C970 H956 0.930 . S
C970 C968 1.395 . S
C970 C973 1.403 . S
C971 C968 1.403 . S
C971 C972 1.524 . S
C971 C975 1.400 . S
C972 H957 0.960 . S
C972 H958 0.960 . S
C972 H959 0.960 . S
C972 C971 1.524 . S
C973 C970 1.403 . S
C973 C974 1.392 . S
C973 C977 1.495 . S
C974 C973 1.392 . S
C974 C975 1.385 . S
C974 C976 1.478 . S
C975 H969 0.930 . S
C975 C971 1.400 . S
C975 C974 1.385 . S
C976 C974 1.478 . S
C976 C978 1.381 . S
C976 C982 1.383 . S
C977 C973 1.495 . S
C977 H983 0.959 . S
C977 H984 0.961 . S
C977 H985 0.960 . S
C978 C976 1.381 . S
C978 C979 1.394 . S
C978 H986 0.930 . S
C979 C978 1.394 . S
C979 C980 1.383 . S
C979 H987 0.929 . S
C980 C979 1.383 . S
C980 C981 1.377 . S
C981 H965 0.930 . S
C981 C980 1.377 . S
C981 C982 1.379 . S
C982 H966 0.931 . S
C982 C976 1.383 . S
C982 C981 1.379 . S
H983 C977 0.959 . S
H984 C977 0.961 . S
H985 C977 0.960 . S
H986 C978 0.930 . S
H987 C979 0.929 . S
H988 C996 0.929 . S
H989 C998 0.930 . S
H990 C1000 0.930 . S
H991 C1003 0.929 . S
H992 C1006 0.930 . S
H993 C1008 0.960 . S
H994 C1008 0.960 . S
H995 C1008 0.960 . S
C996 H988 0.929 . S
C996 C997 1.377 . S
C996 C998 1.384 . S
C997 C996 1.377 . S
C997 C1003 1.390 . S
C998 H989 0.930 . S
C998 C996 1.384 . S
C998 C999 1.372 . S
C999 C998 1.372 . S
C999 C1000 1.400 . S
C999 C1004 1.490 . S
C1000 H990 0.930 . S
C1000 C999 1.400 . S
C1000 C1003 1.386 . S
H1001 C1017 0.930 . S
H1002 C1018 0.931 . S
C1003 H991 0.929 . S
C1003 C997 1.390 . S
C1003 C1000 1.386 . S
C1004 C999 1.490 . S
C1004 C1006 1.395 . S
C1004 C1007 1.403 . S
H1005 C1011 0.930 . S
C1006 H992 0.930 . S
C1006 C1004 1.395 . S
C1006 C1009 1.403 . S
C1007 C1004 1.403 . S
C1007 C1008 1.524 . S
C1007 C1011 1.400 . S
C1008 H993 0.960 . S
C1008 H994 0.960 . S
C1008 H995 0.960 . S
C1008 C1007 1.524 . S
C1009 C1006 1.403 . S
C1009 C1010 1.392 . S
C1009 C1013 1.495 . S
C1010 C1009 1.392 . S
C1010 C1011 1.385 . S
C1010 C1012 1.478 . S
C1011 H1005 0.930 . S
C1011 C1007 1.400 . S
C1011 C1010 1.385 . S
C1012 C1010 1.478 . S
C1012 C1014 1.381 . S
C1012 C1018 1.383 . S
C1013 C1009 1.495 . S
C1013 H1019 0.959 . S
C1013 H1020 0.961 . S
C1013 H1021 0.960 . S
C1014 C1012 1.381 . S
C1014 C1015 1.394 . S
C1014 H1022 0.930 . S
C1015 C1014 1.394 . S
C1015 C1016 1.383 . S
C1015 H1023 0.929 . S
C1016 C1015 1.383 . S
C1016 C1017 1.377 . S
C1017 H1001 0.930 . S
C1017 C1016 1.377 . S
C1017 C1018 1.379 . S
C1018 H1002 0.931 . S
C1018 C1012 1.383 . S
C1018 C1017 1.379 . S
H1019 C1013 0.959 . S
H1020 C1013 0.961 . S
H1021 C1013 0.960 . S
H1022 C1014 0.930 . S
H1023 C1015 0.929 . S
H1024 C1032 0.929 . S
H1025 C1034 0.930 . S
H1026 C1036 0.930 . S
H1027 C1039 0.929 . S
H1028 C1042 0.930 . S
H1029 C1044 0.960 . S
H1030 C1044 0.960 . S
H1031 C1044 0.960 . S
C1032 H1024 0.929 . S
C1032 C1033 1.377 . S
C1032 C1034 1.384 . S
C1033 C1032 1.377 . S
C1033 C1039 1.390 . S
C1034 H1025 0.930 . S
C1034 C1032 1.384 . S
C1034 C1035 1.372 . S
C1035 C1034 1.372 . S
C1035 C1036 1.400 . S
C1035 C1040 1.490 . S
C1036 H1026 0.930 . S
C1036 C1035 1.400 . S
C1036 C1039 1.386 . S
H1037 C1053 0.930 . S
H1038 C1054 0.931 . S
C1039 H1027 0.929 . S
C1039 C1033 1.390 . S
C1039 C1036 1.386 . S
C1040 C1035 1.490 . S
C1040 C1042 1.395 . S
C1040 C1043 1.403 . S
H1041 C1047 0.930 . S
C1042 H1028 0.930 . S
C1042 C1040 1.395 . S
C1042 C1045 1.403 . S
C1043 C1040 1.403 . S
C1043 C1044 1.524 . S
C1043 C1047 1.400 . S
C1044 H1029 0.960 . S
C1044 H1030 0.960 . S
C1044 H1031 0.960 . S
C1044 C1043 1.524 . S
C1045 C1042 1.403 . S
C1045 C1046 1.392 . S
C1045 C1049 1.495 . S
C1046 C1045 1.392 . S
C1046 C1047 1.385 . S
C1046 C1048 1.478 . S
C1047 H1041 0.930 . S
C1047 C1043 1.400 . S
C1047 C1046 1.385 . S
C1048 C1046 1.478 . S
C1048 C1050 1.381 . S
C1048 C1054 1.383 . S
C1049 C1045 1.495 . S
C1049 H1055 0.959 . S
C1049 H1056 0.961 . S
C1049 H1057 0.960 . S
C1050 C1048 1.381 . S
C1050 C1051 1.394 . S
C1050 H1058 0.930 . S
C1051 C1050 1.394 . S
C1051 C1052 1.383 . S
C1051 H1059 0.929 . S
C1052 C1051 1.383 . S
C1052 C1053 1.377 . S
C1053 H1037 0.930 . S
C1053 C1052 1.377 . S
C1053 C1054 1.379 . S
C1054 H1038 0.931 . S
C1054 C1048 1.383 . S
C1054 C1053 1.379 . S
H1055 C1049 0.959 . S
H1056 C1049 0.961 . S
H1057 C1049 0.960 . S
H1058 C1050 0.930 . S
H1059 C1051 0.929 . S
H1060 C1068 0.929 . S
H1061 C1070 0.930 1_554 S
H1062 C1072 0.930 . S
H1063 C1075 0.929 . S
H1064 C1078 0.930 . S
H1065 C1080 0.960 . S
H1066 C1080 0.960 . S
H1067 C1080 0.960 . S
C1068 H1060 0.929 . S
C1068 C1069 1.377 . S
C1068 C1070 1.384 . S
C1069 C1068 1.377 . S
C1069 C1075 1.390 . S
C1070 H1061 0.930 1_556 S
C1070 C1068 1.384 . S
C1070 C1071 1.372 1_556 S
C1071 C1070 1.372 1_554 S
C1071 C1072 1.400 . S
C1071 C1076 1.490 . S
C1072 H1062 0.930 . S
C1072 C1071 1.400 . S
C1072 C1075 1.386 1_554 S
H1073 C1089 0.930 . S
H1074 C1090 0.931 . S
C1075 H1063 0.929 . S
C1075 C1069 1.390 . S
C1075 C1072 1.386 1_556 S
C1076 C1071 1.490 . S
C1076 C1078 1.395 . S
C1076 C1079 1.403 . S
H1077 C1083 0.930 . S
C1078 H1064 0.930 . S
C1078 C1076 1.395 . S
C1078 C1081 1.403 . S
C1079 C1076 1.403 . S
C1079 C1080 1.524 . S
C1079 C1083 1.400 . S
C1080 H1065 0.960 . S
C1080 H1066 0.960 . S
C1080 H1067 0.960 . S
C1080 C1079 1.524 . S
C1081 C1078 1.403 . S
C1081 C1082 1.392 . S
C1081 C1085 1.495 . S
C1082 C1081 1.392 . S
C1082 C1083 1.385 . S
C1082 C1084 1.478 . S
C1083 H1077 0.930 . S
C1083 C1079 1.400 . S
C1083 C1082 1.385 . S
C1084 C1082 1.478 . S
C1084 C1086 1.381 . S
C1084 C1090 1.383 . S
C1085 C1081 1.495 . S
C1085 H1091 0.959 . S
C1085 H1092 0.961 . S
C1085 H1093 0.960 . S
C1086 C1084 1.381 . S
C1086 C1087 1.394 . S
C1086 H1094 0.930 . S
C1087 C1086 1.394 . S
C1087 C1088 1.383 . S
C1087 H1095 0.929 . S
C1088 C1087 1.383 . S
C1088 C1089 1.377 . S
C1089 H1073 0.930 . S
C1089 C1088 1.377 . S
C1089 C1090 1.379 . S
C1090 H1074 0.931 . S
C1090 C1084 1.383 . S
C1090 C1089 1.379 . S
H1091 C1085 0.959 . S
H1092 C1085 0.961 . S
H1093 C1085 0.960 . S
H1094 C1086 0.930 . S
H1095 C1087 0.929 . S
H1096 C1104 0.929 . S
H1097 C1106 0.930 . S
H1098 C1108 0.930 . S
H1099 C1111 0.929 . S
H1100 C1114 0.930 . S
H1101 C1116 0.960 . S
H1102 C1116 0.960 . S
H1103 C1116 0.960 . S
C1104 H1096 0.929 . S
C1104 C1105 1.377 . S
C1104 C1106 1.384 . S
C1105 C1104 1.377 . S
C1105 C1111 1.390 . S
C1106 H1097 0.930 . S
C1106 C1104 1.384 . S
C1106 C1107 1.372 . S
C1107 C1106 1.372 . S
C1107 C1108 1.400 . S
C1107 C1112 1.490 . S
C1108 H1098 0.930 . S
C1108 C1107 1.400 . S
C1108 C1111 1.386 . S
H1109 C1125 0.930 . S
H1110 C1126 0.931 . S
C1111 H1099 0.929 . S
C1111 C1105 1.390 . S
C1111 C1108 1.386 . S
C1112 C1107 1.490 . S
C1112 C1114 1.395 . S
C1112 C1115 1.403 . S
H1113 C1119 0.930 . S
C1114 H1100 0.930 . S
C1114 C1112 1.395 . S
C1114 C1117 1.403 . S
C1115 C1112 1.403 . S
C1115 C1116 1.524 . S
C1115 C1119 1.400 . S
C1116 H1101 0.960 . S
C1116 H1102 0.960 . S
C1116 H1103 0.960 . S
C1116 C1115 1.524 . S
C1117 C1114 1.403 . S
C1117 C1118 1.392 . S
C1117 C1121 1.495 . S
C1118 C1117 1.392 . S
C1118 C1119 1.385 . S
C1118 C1120 1.478 . S
C1119 H1113 0.930 . S
C1119 C1115 1.400 . S
C1119 C1118 1.385 . S
C1120 C1118 1.478 . S
C1120 C1122 1.381 . S
C1120 C1126 1.383 . S
C1121 C1117 1.495 . S
C1121 H1127 0.959 . S
C1121 H1128 0.961 . S
C1121 H1129 0.960 . S
C1122 C1120 1.381 . S
C1122 C1123 1.394 . S
C1122 H1130 0.930 . S
C1123 C1122 1.394 . S
C1123 C1124 1.383 . S
C1123 H1131 0.929 . S
C1124 C1123 1.383 . S
C1124 C1125 1.377 . S
C1125 H1109 0.930 . S
C1125 C1124 1.377 . S
C1125 C1126 1.379 . S
C1126 H1110 0.931 . S
C1126 C1120 1.383 . S
C1126 C1125 1.379 . S
H1127 C1121 0.959 . S
H1128 C1121 0.961 . S
H1129 C1121 0.960 . S
H1130 C1122 0.930 . S
H1131 C1123 0.929 . S
H1132 C1140 0.929 . S
H1133 C1142 0.930 . S
H1134 C1144 0.930 . S
H1135 C1147 0.929 . S
H1136 C1150 0.930 . S
H1137 C1152 0.960 . S
H1138 C1152 0.960 . S
H1139 C1152 0.960 . S
C1140 H1132 0.929 . S
C1140 C1141 1.377 . S
C1140 C1142 1.384 . S
C1141 C1140 1.377 . S
C1141 C1147 1.390 . S
C1142 H1133 0.930 . S
C1142 C1140 1.384 . S
C1142 C1143 1.372 . S
C1143 C1142 1.372 . S
C1143 C1144 1.400 . S
C1143 C1148 1.490 . S
C1144 H1134 0.930 . S
C1144 C1143 1.400 . S
C1144 C1147 1.386 . S
H1145 C1161 0.930 . S
H1146 C1162 0.931 . S
C1147 H1135 0.929 . S
C1147 C1141 1.390 . S
C1147 C1144 1.386 . S
C1148 C1143 1.490 . S
C1148 C1150 1.395 . S
C1148 C1151 1.403 . S
H1149 C1155 0.930 . S
C1150 H1136 0.930 . S
C1150 C1148 1.395 . S
C1150 C1153 1.403 . S
C1151 C1148 1.403 . S
C1151 C1152 1.524 . S
C1151 C1155 1.400 . S
C1152 H1137 0.960 . S
C1152 H1138 0.960 . S
C1152 H1139 0.960 . S
C1152 C1151 1.524 . S
C1153 C1150 1.403 . S
C1153 C1154 1.392 . S
C1153 C1157 1.495 . S
C1154 C1153 1.392 . S
C1154 C1155 1.385 . S
C1154 C1156 1.478 . S
C1155 H1149 0.930 . S
C1155 C1151 1.400 . S
C1155 C1154 1.385 . S
C1156 C1154 1.478 . S
C1156 C1158 1.381 . S
C1156 C1162 1.383 . S
C1157 C1153 1.495 . S
C1157 H1163 0.959 . S
C1157 H1164 0.961 . S
C1157 H1165 0.960 . S
C1158 C1156 1.381 . S
C1158 C1159 1.394 . S
C1158 H1166 0.930 . S
C1159 C1158 1.394 . S
C1159 C1160 1.383 . S
C1159 H1167 0.929 . S
C1160 C1159 1.383 . S
C1160 C1161 1.377 . S
C1161 H1145 0.930 . S
C1161 C1160 1.377 . S
C1161 C1162 1.379 . S
C1162 H1146 0.931 . S
C1162 C1156 1.383 . S
C1162 C1161 1.379 . S
H1163 C1157 0.959 . S
H1164 C1157 0.961 . S
H1165 C1157 0.960 . S
H1166 C1158 0.930 . S
H1167 C1159 0.929 . S
H1168 C1176 0.929 . S
H1169 C1178 0.930 . S
H1170 C1180 0.930 . S
H1171 C1183 0.929 . S
H1172 C1186 0.930 . S
H1173 C1188 0.960 . S
H1174 C1188 0.960 . S
H1175 C1188 0.960 . S
C1176 H1168 0.929 . S
C1176 C1177 1.377 . S
C1176 C1178 1.384 . S
C1177 C1176 1.377 . S
C1177 C1183 1.390 . S
C1178 H1169 0.930 . S
C1178 C1176 1.384 . S
C1178 C1179 1.372 . S
C1179 C1178 1.372 . S
C1179 C1180 1.400 . S
C1179 C1184 1.490 . S
C1180 H1170 0.930 . S
C1180 C1179 1.400 . S
C1180 C1183 1.386 . S
H1181 C1197 0.930 . S
H1182 C1198 0.931 . S
C1183 H1171 0.929 . S
C1183 C1177 1.390 . S
C1183 C1180 1.386 . S
C1184 C1179 1.490 . S
C1184 C1186 1.395 . S
C1184 C1187 1.403 . S
H1185 C1191 0.930 . S
C1186 H1172 0.930 . S
C1186 C1184 1.395 . S
C1186 C1189 1.403 . S
C1187 C1184 1.403 . S
C1187 C1188 1.524 . S
C1187 C1191 1.400 . S
C1188 H1173 0.960 . S
C1188 H1174 0.960 . S
C1188 H1175 0.960 . S
C1188 C1187 1.524 . S
C1189 C1186 1.403 . S
C1189 C1190 1.392 . S
C1189 C1193 1.495 . S
C1190 C1189 1.392 . S
C1190 C1191 1.385 . S
C1190 C1192 1.478 . S
C1191 H1185 0.930 . S
C1191 C1187 1.400 . S
C1191 C1190 1.385 . S
C1192 C1190 1.478 . S
C1192 C1194 1.381 . S
C1192 C1198 1.383 . S
C1193 C1189 1.495 . S
C1193 H1199 0.959 . S
C1193 H1200 0.961 . S
C1193 H1201 0.960 . S
C1194 C1192 1.381 . S
C1194 C1195 1.394 . S
C1194 H1202 0.930 . S
C1195 C1194 1.394 . S
C1195 C1196 1.383 . S
C1195 H1203 0.929 . S
C1196 C1195 1.383 . S
C1196 C1197 1.377 . S
C1197 H1181 0.930 . S
C1197 C1196 1.377 . S
C1197 C1198 1.379 . S
C1198 H1182 0.931 . S
C1198 C1192 1.383 . S
C1198 C1197 1.379 . S
H1199 C1193 0.959 . S
H1200 C1193 0.961 . S
H1201 C1193 0.960 . S
H1202 C1194 0.930 . S
H1203 C1195 0.929 . S
C368 C263 1.460 . S
C349 C17 1.626 . S
C404 C281 1.280 . S
C385 C55 1.309 1_655 S
C421 C87 1.339 . S
C440 C305 1.251 . S
C476 C335 1.228 . S
C457 C113 1.404 . S
C512 C323 1.214 . S
C493 C145 1.299 . S
C529 C177 1.380 . S
C548 C276 1.336 . S
C565 C215 1.556 . S
C584 C296 1.514 . S
C601 C247 1.360 . S
C620 C301 1.282 . S
C637 C241 1.371 . S
C656 C317 1.288 . S
C673 C183 1.366 . S
C692 C272 1.270 . S
C728 C339 1.215 . S
C709 C119 1.301 . S
C764 C284 1.296 . S
C745 C49 1.410 . S
C781 C81 1.620 . S
C800 C302 1.454 . S
C817 C23 1.351 . S
C836 C260 1.283 . S
C872 C280 1.187 . S
C853 C209 1.274 . S
C908 C326 1.500 . S
C889 C151 1.572 . S
C944 C322 1.288 . S
C925 C29 1.474 . S
C980 C275 1.341 . S
C961 C61 1.368 . S
C997 C93 1.455 . S
C1016 C297 1.305 . S
C1033 C125 1.404 . S
C1052 C318 1.302 . S
C1088 C259 1.268 . S
C1069 C157 1.414 . S
C1105 C189 1.459 . S
C1124 C293 1.389 . S
C1160 C314 1.336 . S
C1141 C221 1.443 . S
C1196 C338 1.372 . S
C1177 C253 1.436 . S
