# Generated by pormake.
# Topology zzz, (3,6)-cn, num edge types: 1
# Building blocks:
#     Node 0, Type 0, BuildingBlock: ESEHIV_clean_linker_0, # of connection points: 3
#     Node 1, Type 0, BuildingBlock: ESEHIV_clean_linker_0, # of connection points: 3
#     Node 2, Type 0, BuildingBlock: ESEHIV_clean_linker_0, # of connection points: 3
#     Node 3, Type 0, BuildingBlock: ESEHIV_clean_linker_0, # of connection points: 3
#     Node 4, Type 0, BuildingBlock: ESEHIV_clean_linker_0, # of connection points: 3
#     Node 5, Type 0, BuildingBlock: ESEHIV_clean_linker_0, # of connection points: 3
#     Node 6, Type 0, BuildingBlock: ESEHIV_clean_linker_0, # of connection points: 3
#     Node 7, Type 0, BuildingBlock: ESEHIV_clean_linker_0, # of connection points: 3
#     Node 8, Type 1, BuildingBlock: KUMBOL_clean_sbu_0, # of connection points: 6
#     Node 9, Type 1, BuildingBlock: KUMBOL_clean_sbu_0, # of connection points: 6
#     Node 10, Type 1, BuildingBlock: KUMBOL_clean_sbu_0, # of connection points: 6
#     Node 11, Type 1, BuildingBlock: KUMBOL_clean_sbu_0, # of connection points: 6
#     Edge 12, Type (0, 1), BuildingBlock: XUDNAN_clean_linker_2, # of connection points: 2
#     Edge 13, Type (0, 1), BuildingBlock: XUDNAN_clean_linker_2, # of connection points: 2
#     Edge 14, Type (0, 1), BuildingBlock: XUDNAN_clean_linker_2, # of connection points: 2
#     Edge 15, Type (0, 1), BuildingBlock: XUDNAN_clean_linker_2, # of connection points: 2
#     Edge 16, Type (0, 1), BuildingBlock: XUDNAN_clean_linker_2, # of connection points: 2
#     Edge 17, Type (0, 1), BuildingBlock: XUDNAN_clean_linker_2, # of connection points: 2
#     Edge 18, Type (0, 1), BuildingBlock: XUDNAN_clean_linker_2, # of connection points: 2
#     Edge 19, Type (0, 1), BuildingBlock: XUDNAN_clean_linker_2, # of connection points: 2
#     Edge 20, Type (0, 1), BuildingBlock: XUDNAN_clean_linker_2, # of connection points: 2
#     Edge 21, Type (0, 1), BuildingBlock: XUDNAN_clean_linker_2, # of connection points: 2
#     Edge 22, Type (0, 1), BuildingBlock: XUDNAN_clean_linker_2, # of connection points: 2
#     Edge 23, Type (0, 1), BuildingBlock: XUDNAN_clean_linker_2, # of connection points: 2
#     Edge 24, Type (0, 1), BuildingBlock: XUDNAN_clean_linker_2, # of connection points: 2
#     Edge 25, Type (0, 1), BuildingBlock: XUDNAN_clean_linker_2, # of connection points: 2
#     Edge 26, Type (0, 1), BuildingBlock: XUDNAN_clean_linker_2, # of connection points: 2
#     Edge 27, Type (0, 1), BuildingBlock: XUDNAN_clean_linker_2, # of connection points: 2
#     Edge 28, Type (0, 1), BuildingBlock: XUDNAN_clean_linker_2, # of connection points: 2
#     Edge 29, Type (0, 1), BuildingBlock: XUDNAN_clean_linker_2, # of connection points: 2
#     Edge 30, Type (0, 1), BuildingBlock: XUDNAN_clean_linker_2, # of connection points: 2
#     Edge 31, Type (0, 1), BuildingBlock: XUDNAN_clean_linker_2, # of connection points: 2
#     Edge 32, Type (0, 1), BuildingBlock: XUDNAN_clean_linker_2, # of connection points: 2
#     Edge 33, Type (0, 1), BuildingBlock: XUDNAN_clean_linker_2, # of connection points: 2
#     Edge 34, Type (0, 1), BuildingBlock: XUDNAN_clean_linker_2, # of connection points: 2
#     Edge 35, Type (0, 1), BuildingBlock: XUDNAN_clean_linker_2, # of connection points: 2
# Relax obj value: 0.338
# Max RMSD: 0.221
# Mean RMSD: 0.214
data_MOF--net-zzz--node1-KUMBOL_clean_sbu_0--node2-ESEHIV_clean_linker_0--edge1-XUDNAN_clean_linker_2
_symmetry_space_group_name_H-M    P1
_symmetry_Int_Tables_number       1
_symmetry_cell_setting            triclinic
loop_
_symmetry_equiv_pos_as_xyz
'x, y, z'
_cell_length_a     43.559009
_cell_length_b     43.671244
_cell_length_c     15.286567
_cell_angle_alpha  91.184339
_cell_angle_beta   89.804329
_cell_angle_gamma 89.960609
loop_
_atom_site_label
_atom_site_type_symbol
_atom_site_fract_x
_atom_site_fract_y
_atom_site_fract_z
_atom_type_partial_charge
H0 H 0.80096 0.57798 0.2746 0.0
H1 H 0.72253 0.58827 0.10981 0.0
H2 H 0.71428 0.54194 0.35627 0.0
C3 C 0.7768 0.57494 0.26213 0.0
C4 C 0.75995 0.55982 0.32563 0.0
C5 C 0.76379 0.58554 0.18457 0.0
C6 C 0.73275 0.58005 0.16944 0.0
C7 C 0.71448 0.56362 0.22813 0.0
C8 C 0.72811 0.55358 0.30835 0.0
H9 H 0.94122 0.7936 0.33491 0.0
H10 H 0.93605 0.72502 0.14009 0.0
H11 H 0.02095 0.73704 0.2835 0.0
C12 C 0.95258 0.77497 0.3002 0.0
C13 C 0.98328 0.76812 0.31934 0.0
C14 C 0.94004 0.76511 0.22056 0.0
C15 C 0.95028 0.73674 0.18753 0.0
C16 C 0.97975 0.7254 0.20773 0.0
C17 C 0.99716 0.74278 0.27173 0.0
H18 H 0.7316 0.94392 0.30648 0.0
H19 H 0.81586 0.9357 0.16605 0.0
H20 H 0.80762 1.00257 0.37678 0.0
C21 C 0.7558 0.94959 0.30138 0.0
C22 C 0.76781 0.97251 0.35697 0.0
C23 C 0.77188 0.9398 0.2267 0.0
C24 C 0.80353 0.94481 0.22275 0.0
C25 C 0.81659 0.9692 0.27059 0.0
C26 C 0.79843 0.98341 0.3393 0.0
H27 H 0.59986 0.73687 0.27685 0.0
H28 H 0.54007 0.81033 0.36081 0.0
H29 H 0.60571 0.82304 0.15356 0.0
C30 C 0.59434 0.76114 0.27808 0.0
C31 C 0.6031 0.77836 0.20603 0.0
C32 C 0.57104 0.77176 0.3351 0.0
C33 C 0.55999 0.80237 0.32439 0.0
C34 C 0.57415 0.82182 0.26165 0.0
C35 C 0.59751 0.80972 0.20816 0.0
H36 H 0.23394 0.46492 0.14835 0.0
H37 H 0.31944 0.45097 0.27343 0.0
H38 H 0.31755 0.48411 1.00797 0.0
C39 C 0.2588 0.46473 0.14478 0.0
C40 C 0.27297 0.47229 0.0655 0.0
C41 C 0.2759 0.45791 0.21948 0.0
C42 C 0.30754 0.45694 0.21418 0.0
C43 C 0.32352 0.46889 0.14302 0.0
C44 C 0.30594 0.47617 0.06592 0.0
H45 H 0.07291 0.22829 0.1283 0.0
H46 H 0.0907 0.3175 0.23952 0.0
H47 H 0.04005 0.30824 0.99848 0.0
C48 C 0.07205 0.25301 0.12424 0.0
C49 C 0.05875 0.26568 0.04972 0.0
C50 C 0.08206 0.27153 0.19502 0.0
C51 C 0.0816 0.30322 0.18673 0.0
C52 C 0.06411 0.3169 0.12195 0.0
C53 C 0.05308 0.29809 0.05066 0.0
H54 H 0.30856 0.08951 0.09015 0.0
H55 H 0.22812 0.08828 0.24588 0.0
H56 H 0.22359 0.05766 0.97567 0.0
C57 C 0.28373 0.08721 0.09315 0.0
C58 C 0.26824 0.07545 0.0198 0.0
C59 C 0.27012 0.08548 0.17517 0.0
C60 C 0.23828 0.08655 0.18096 0.0
C61 C 0.22058 0.07491 0.11155 0.0
C62 C 0.23597 0.06848 0.02921 0.0
H63 H 0.43143 0.27782 0.98257 0.0
H64 H 0.51363 0.2267 0.03235 0.0
H65 H 0.4303 0.20777 0.17145 0.0
C66 C 0.44306 0.25955 1.01525 0.0
C67 C 0.43019 0.24799 0.09221 0.0
C68 C 0.47427 0.25459 0.99662 0.0
C69 C 0.48917 0.23021 0.04043 0.0
C70 C 0.47219 0.21121 0.09803 0.0
C71 C 0.44195 0.21983 0.1198 0.0
Gd72 Gd 0.98519 0.02563 0.62061 0.0
Gd73 Gd 0.05221 1.00984 0.74763 0.0
C74 C 0.08418 0.08763 0.93257 0.0
C75 C 0.13495 0.09885 0.87634 0.0
C76 C 0.10323 0.05984 0.80479 0.0
C77 C 0.08002 0.06544 0.86488 0.0
C78 C 0.13121 0.07615 0.81099 0.0
C79 C 0.11149 0.10456 0.93707 0.0
C80 C 0.06109 0.09172 0.99524 0.0
C81 C 0.03466 0.07397 0.98985 0.0
N82 N 0.05382 0.04866 0.85906 0.0
C83 C 0.03147 0.05242 0.92172 0.0
H84 H 1.0108 0.03931 0.9205 0.0
C85 C 0.12367 0.02802 0.69239 0.0
N86 N 0.09928 0.03721 0.74373 0.0
C87 C 0.15147 0.04388 0.69477 0.0
C88 C 0.15514 0.06835 0.75361 0.0
H89 H 0.12183 1.00813 0.64933 0.0
H90 H 0.11493 0.1217 0.98835 0.0
H91 H 0.02435 0.99874 0.44298 0.0
H92 H 0.06369 0.10816 0.04873 0.0
H93 H 0.01666 0.0768 0.03837 0.0
H94 H 0.15623 0.11157 0.88191 0.0
H95 H 0.91558 0.02827 0.71986 0.0
H96 H 0.97117 0.92909 0.31849 0.0
H97 H 0.01742 0.9616 0.32369 0.0
H98 H 0.87989 0.92542 0.49045 0.0
H99 H 0.17024 0.03681 0.65237 0.0
H100 H 0.17692 0.08029 0.75648 0.0
H101 H 0.91963 0.91688 0.37872 0.0
H102 H 0.86753 0.99924 0.72121 0.0
N103 N 0.98333 0.98673 0.5111 0.0
C104 C 0.97428 0.94519 0.37252 0.0
C105 C 1.00035 0.96353 0.37511 0.0
C106 C 0.95202 0.94859 0.43795 0.0
C107 C 0.95728 0.96958 0.50799 0.0
C108 C 1.00422 0.98466 0.44398 0.0
N109 N 0.93883 0.99737 0.6318 0.0
C110 C 0.93464 0.97473 0.57072 0.0
C111 C 0.88641 0.99153 0.68014 0.0
C112 C 0.88262 0.96678 0.6226 0.0
C113 C 0.91418 1.00736 0.68106 0.0
C114 C 0.90632 0.95893 0.56448 0.0
H115 H 0.86065 0.95518 0.61971 0.0
O116 O 0.94631 0.05548 0.59955 0.0
O117 O 0.02414 0.04802 0.69398 0.0
O118 O 1.00954 0.99573 0.8272 0.0
O119 O 0.96718 0.01564 0.75708 0.0
O120 O 0.98146 0.06763 0.71098 0.0
O121 O 0.97714 0.04442 0.49251 0.0
O122 O 0.09019 0.97865 0.76806 0.0
O123 O 0.01451 0.98612 0.66776 0.0
O124 O 0.02712 0.04122 0.54088 0.0
O125 O 0.07025 0.02304 0.61256 0.0
O126 O 0.05995 0.97246 0.64852 0.0
O127 O 0.05667 0.98641 0.8706 0.0
C128 C 1.00997 0.07008 0.73241 0.0
C129 C 0.90154 0.93748 0.49648 0.0
C130 C 0.92415 0.93266 0.4328 0.0
C131 C 0.95244 0.05904 0.51725 0.0
C132 C 0.94875 0.08993 0.48545 0.0
C133 C 0.92143 0.09803 0.44359 0.0
C134 C 0.97207 0.11145 0.49738 0.0
C135 C 0.96814 0.14123 0.46777 0.0
C136 C 0.91744 0.12779 0.41403 0.0
C137 C 0.94069 0.14944 0.42623 0.0
C138 C 0.97973 1.00239 0.82496 0.0
C139 C 0.03203 0.96695 0.62585 0.0
C140 C 0.08008 0.97012 0.84369 0.0
C141 C 0.07846 0.93688 0.85555 0.0
C142 C 0.10492 0.91892 0.84297 0.0
C143 C 0.0506 0.92269 0.87659 0.0
C144 C 0.04911 0.89089 0.88442 0.0
C145 C 0.10339 0.88712 0.85006 0.0
C146 C 0.07554 0.87306 0.87031 0.0
C147 C 0.05716 0.03569 0.54407 0.0
H148 H 0.90327 0.08136 0.4339 0.0
H149 H 0.99326 0.10503 0.52943 0.0
H150 H 0.89642 0.13401 0.38122 0.0
H151 H 0.93758 0.17231 0.40149 0.0
H152 H 0.12666 0.92949 0.82691 0.0
H153 H 0.02994 0.93617 0.88622 0.0
H154 H 0.12384 0.87336 0.8401 0.0
H155 H 0.07474 0.84842 0.87673 0.0
Gd156 Gd 0.5118 0.99021 0.63814 0.0
Gd157 Gd 0.52868 0.05598 0.77389 0.0
C158 C 0.44992 0.07877 0.96827 0.0
C159 C 0.43768 0.13114 0.93266 0.0
C160 C 0.47802 0.10353 0.85275 0.0
C161 C 0.47305 0.07804 0.90279 0.0
C162 C 0.46097 0.1307 0.86927 0.0
C163 C 0.43198 0.10514 0.98151 0.0
C164 C 0.44544 0.05307 1.01922 0.0
C165 C 0.46362 0.02741 1.0046 0.0
N166 N 0.49069 0.05266 0.88806 0.0
C167 C 0.48608 0.02763 0.93929 0.0
H168 H 0.49863 1.00709 0.93084 0.0
C169 C 0.50885 0.12893 0.7506 0.0
N170 N 0.50031 0.10239 0.7906 0.0
C171 C 0.49278 0.15624 0.76488 0.0
C172 C 0.46835 0.15702 0.82346 0.0
H173 H 0.52794 0.12924 0.70528 0.0
H174 H 0.41395 0.10583 0.0305 0.0
H175 H 0.53417 0.03671 0.46212 0.0
H176 H 0.42815 0.05286 0.0703 0.0
H177 H 0.46027 1.00722 0.04342 0.0
H178 H 0.42427 0.15167 0.94544 0.0
H179 H 0.53021 0.92419 0.7465 0.0
H180 H 0.59455 0.98521 0.30185 0.0
H181 H 0.56275 0.03098 0.32935 0.0
H182 H 0.62031 0.89885 0.47049 0.0
H183 H 0.4994 0.17669 0.73076 0.0
H184 H 0.45596 0.17827 0.8348 0.0
H185 H 0.61788 0.9379 0.35839 0.0
H186 H 0.56615 0.88231 0.73568 0.0
N187 N 0.54625 0.99313 0.51535 0.0
C188 C 0.58158 0.98739 0.36229 0.0
C189 C 0.56348 0.01305 0.37718 0.0
C190 C 0.58359 0.96536 0.42659 0.0
C191 C 0.56529 0.96859 0.50314 0.0
C192 C 0.54641 0.0158 0.45423 0.0
N193 N 0.54865 0.94946 0.63926 0.0
C194 C 0.56699 0.94665 0.56728 0.0
C195 C 0.56736 0.90062 0.6891 0.0
C196 C 0.58729 0.89844 0.61842 0.0
C197 C 0.5477 0.9257 0.69715 0.0
C198 C 0.58686 0.92111 0.55554 0.0
H199 H 0.60201 0.87852 0.61112 0.0
O200 O 0.49271 0.94488 0.63075 0.0
O201 O 0.49015 0.02968 0.71226 0.0
O202 O 0.54588 0.01418 0.84673 0.0
O203 O 0.52021 0.97421 0.7774 0.0
O204 O 0.46805 0.98845 0.72072 0.0
O205 O 0.4837 0.97649 0.52692 0.0
O206 O 0.55895 0.09438 0.77791 0.0
O207 O 0.55042 0.01676 0.69634 0.0
O208 O 0.49598 0.0329 0.55957 0.0
O209 O 0.51039 0.07485 0.6478 0.0
O210 O 0.56716 0.0596 0.67176 0.0
O211 O 0.5552 0.06623 0.89196 0.0
C212 C 0.46662 0.01684 0.74479 0.0
C213 C 0.6051 0.91829 0.48023 0.0
C214 C 0.60349 0.94035 0.41603 0.0
C215 C 0.47763 0.94968 0.55956 0.0
C216 C 0.44559 0.93944 0.56085 0.0
C217 C 0.43578 0.91607 0.61665 0.0
C218 C 0.42453 0.95306 0.50575 0.0
C219 C 0.39366 0.94474 0.5084 0.0
C220 C 0.40498 0.9072 0.61802 0.0
C221 C 0.38383 0.92158 0.56422 0.0
C222 C 0.53791 0.98488 0.84125 0.0
C223 C 0.5708 0.03088 0.65336 0.0
C224 C 0.56939 0.08906 0.85508 0.0
C225 C 0.60277 0.08999 0.85675 0.0
C226 C 0.61773 0.1167 0.82991 0.0
C227 C 0.61956 0.0633 0.86975 0.0
C228 C 0.65122 0.06293 0.85484 0.0
C229 C 0.64917 0.11631 0.81321 0.0
C230 C 0.66586 0.08948 0.82454 0.0
C231 C 0.49933 0.06321 0.57336 0.0
H232 H 0.45181 0.90476 0.65935 0.0
H233 H 0.43211 0.97039 0.46066 0.0
H234 H 0.39747 0.88937 0.66131 0.0
H235 H 0.35989 0.91497 0.56703 0.0
H236 H 0.60482 0.13743 0.81819 0.0
H237 H 0.60797 0.04296 0.89226 0.0
H238 H 0.66057 0.13675 0.79084 0.0
H239 H 0.6903 0.08966 0.81139 0.0
Gd240 Gd 0.48998 0.52376 0.73048 0.0
Gd241 Gd 0.55719 0.50123 0.61012 0.0
C242 C 0.6522 0.50812 0.73705 0.0
C243 C 0.67498 0.55071 0.66108 0.0
C244 C 0.62355 0.53308 0.62378 0.0
C245 C 0.62471 0.51197 0.68968 0.0
C246 C 0.64923 0.55175 0.60626 0.0
C247 C 0.67654 0.52873 0.7262 0.0
C248 C 0.65575 0.48187 0.78656 0.0
C249 C 0.63281 0.45971 0.78547 0.0
N250 N 0.60121 0.49174 0.69638 0.0
C251 C 0.60595 0.46472 0.73843 0.0
H252 H 0.59012 0.4459 0.73299 0.0
C253 C 0.60078 0.54636 0.48979 0.0
N254 N 0.59927 0.53202 0.56867 0.0
C255 C 0.62531 0.56572 0.47059 0.0
C256 C 0.64933 0.56903 0.53018 0.0
H257 H 0.58231 0.54369 0.4431 0.0
H258 H 0.69749 0.52651 0.76359 0.0
H259 H 0.46993 0.57509 0.57594 0.0
H260 H 0.67705 0.47736 0.82026 0.0
H261 H 0.63614 0.43833 0.81877 0.0
H262 H 0.69469 0.56522 0.64956 0.0
H263 H 0.46437 0.47299 0.87553 0.0
H264 H 0.3787 0.55502 0.49471 0.0
H265 H 0.42531 0.58694 0.48674 0.0
H266 H 0.34791 0.47397 0.67992 0.0
H267 H 0.62583 0.57782 0.40952 0.0
H268 H 0.66865 0.58353 0.51435 0.0
H269 H 0.35018 0.51293 0.56675 0.0
H270 H 0.41697 0.44392 0.90514 0.0
N271 N 0.44995 0.5356 0.63358 0.0
C272 C 0.39846 0.54941 0.53413 0.0
C273 C 0.42466 0.56756 0.52972 0.0
C274 C 0.39758 0.52507 0.59207 0.0
C275 C 0.42398 0.51855 0.6419 0.0
C276 C 0.45013 0.56059 0.58086 0.0
N277 N 0.44764 0.49181 0.75728 0.0
C278 C 0.42277 0.49619 0.70553 0.0
C279 C 0.41843 0.45814 0.84811 0.0
C280 C 0.39336 0.46076 0.79229 0.0
C281 C 0.44521 0.47451 0.83092 0.0
C282 C 0.39504 0.48042 0.72125 0.0
H283 H 0.37239 0.44849 0.80672 0.0
O284 O 0.4774 0.53211 0.86647 0.0
O285 O 0.54181 0.52531 0.73311 0.0
O286 O 0.54307 0.46673 0.71302 0.0
O287 O 0.49076 0.47169 0.71981 0.0
O288 O 0.52072 0.51256 0.84639 0.0
O289 O 0.4632 0.56368 0.76622 0.0
O290 O 0.58497 0.48043 0.5064 0.0
O291 O 0.5056 0.50323 0.60196 0.0
O292 O 0.51034 0.56798 0.6737 0.0
O293 O 0.55189 0.55221 0.58773 0.0
O294 O 0.53005 0.51591 0.4922 0.0
O295 O 0.54965 0.45413 0.56942 0.0
C296 C 0.54718 0.51767 0.81153 0.0
C297 C 0.3693 0.48598 0.66897 0.0
C298 C 0.37057 0.50822 0.60462 0.0
C299 C 0.46274 0.55726 0.84915 0.0
C300 C 0.467 0.5829 0.91004 0.0
C301 C 0.44903 0.5846 0.9862 0.0
C302 C 0.48792 0.60618 0.89148 0.0
C303 C 0.49045 0.63155 0.94815 0.0
C304 C 0.45175 0.6097 0.04343 0.0
C305 C 0.47227 0.63318 0.02452 0.0
C306 C 0.51583 0.45554 0.73263 0.0
C307 C 0.50276 0.51234 0.52334 0.0
C308 C 0.56965 0.45489 0.5063 0.0
C309 C 0.56025 0.4418 0.42094 0.0
C310 C 0.57861 0.44619 0.34659 0.0
C311 C 0.5342 0.42287 0.41443 0.0
C312 C 0.5267 0.40814 0.33488 0.0
C313 C 0.57107 0.43189 0.26717 0.0
C314 C 0.54538 0.41294 0.26115 0.0
C315 C 0.53327 0.57377 0.6187 0.0
H316 H 0.43281 0.5666 1.00102 0.0
H317 H 0.50189 0.60474 0.83267 0.0
H318 H 0.43797 0.61095 0.10247 0.0
H319 H 0.4744 0.65228 0.07046 0.0
H320 H 0.59908 0.46024 0.35015 0.0
H321 H 0.51989 0.41932 0.47144 0.0
H322 H 0.58555 0.43492 0.21047 0.0
H323 H 0.54069 0.4014 0.19926 0.0
Gd324 Gd 1.00276 0.48202 0.74146 0.0
Gd325 Gd 0.02982 0.5439 0.61989 0.0
C326 C 0.04267 0.639 0.74053 0.0
C327 C 1.01006 0.66994 0.64892 0.0
C328 C 1.01036 0.61439 0.63081 0.0
C329 C 0.03197 0.61227 0.69696 0.0
C330 C 0.9993 0.64336 0.60603 0.0
C331 C 0.03199 0.66777 0.7151 0.0
C332 C 0.06444 0.63614 0.80691 0.0
C333 C 0.0758 0.60728 0.82662 0.0
N334 N 0.0436 0.58434 0.71603 0.0
C335 C 0.06552 0.5816 0.77931 0.0
H336 H 0.07479 0.55961 0.79552 0.0
C337 C 0.98423 0.5905 0.51252 0.0
N338 N 1.0018 0.58848 0.58662 0.0
C339 C 0.97173 0.61846 0.48794 0.0
C340 C 0.97907 0.64501 0.53543 0.0
H341 H 0.97969 0.57022 0.47276 0.0
H342 H 0.04041 0.68854 0.74671 0.0
H343 H 0.95795 0.47949 0.54822 0.0
H344 H 0.07285 0.65609 0.84267 0.0
H345 H 0.09275 0.60479 0.87761 0.0
H346 H 1.00203 0.69235 0.63022 0.0
H347 H 0.0555 0.44104 0.85074 0.0
H348 H 0.92761 0.38739 0.51943 0.0
H349 H 0.92372 0.44178 0.48044 0.0
H350 H 1.00027 0.33173 0.68656 0.0
H351 H 0.95715 0.61964 0.4309 0.0
H352 H 0.97003 0.66682 0.51481 0.0
H353 H 0.95738 0.3465 0.59262 0.0
H354 H 0.0705 0.38769 0.86736 0.0
N355 N 0.97786 0.44842 0.63828 0.0
C356 C 0.94201 0.4042 0.55242 0.0
C357 C 0.93958 0.43488 0.53073 0.0
C358 C 0.96497 0.39526 0.61008 0.0
C359 C 0.98306 0.4181 0.65188 0.0
C360 C 0.95838 0.45657 0.57234 0.0
N361 N 0.02384 0.43209 0.74648 0.0
C362 C 1.00749 0.40974 0.70434 0.0
C363 C 0.05324 0.39353 0.81971 0.0
C364 C 0.03769 0.37055 0.77382 0.0
C365 C 0.04529 0.4241 0.80746 0.0
C366 C 0.01394 0.3784 0.71731 0.0
H367 H 0.04329 0.3468 0.78539 0.0
O368 O 1.00908 0.47664 0.88215 0.0
O369 O 0.02 0.53041 0.75534 0.0
O370 O 0.07437 0.52328 0.67664 0.0
O371 O 0.05522 0.48347 0.75909 0.0
O372 O 0.97907 0.52166 0.81498 0.0
O373 O 0.97367 0.45149 0.81296 0.0
O374 O 0.03893 0.55324 0.48313 0.0
O375 O 0.02941 0.49182 0.61814 0.0
O376 O 0.95862 0.503 0.68648 0.0
O377 O 0.97688 0.5482 0.62739 0.0
O378 O 1.0133 0.51292 0.50953 0.0
O379 O 0.07289 0.56515 0.5842 0.0
C380 C 0.99926 0.54263 0.8031 0.0
C381 C 0.9957 0.35582 0.67683 0.0
C382 C 0.97107 0.36422 0.62414 0.0
C383 C 0.98644 0.45721 0.88815 0.0
C384 C 0.96454 0.46197 0.95921 0.0
C385 C 0.96572 0.44419 0.03442 0.0
C386 C 0.94077 0.48288 0.94876 0.0
C387 C 0.91935 0.48785 1.01496 0.0
C388 C 0.94346 0.44822 0.09993 0.0
C389 C 0.92053 0.47039 0.09103 0.0
C390 C 0.0786 0.50039 0.73162 0.0
C391 C 0.02044 0.48656 0.53969 0.0
C392 C 0.06432 0.56725 0.50297 0.0
C393 C 0.08388 0.58053 0.43649 0.0
C394 C 0.07197 0.59153 0.35788 0.0
C395 C 0.11534 0.57826 0.44765 0.0
C396 C 0.13477 0.5811 0.37605 0.0
C397 C 0.09194 0.59806 0.28876 0.0
C398 C 0.12329 0.59164 0.29647 0.0
C399 C 0.95398 0.52912 0.64515 0.0
H400 H 0.98351 0.4271 0.04191 0.0
H401 H 0.9389 0.49565 0.88923 0.0
H402 H 0.94418 0.43441 0.15788 0.0
H403 H 0.90381 0.4739 0.14291 0.0
H404 H 0.04743 0.59393 0.34895 0.0
H405 H 0.12432 0.56876 0.50759 0.0
H406 H 0.08287 0.60576 0.2272 0.0
H407 H 0.13804 0.59285 0.23946 0.0
H408 H 0.2025 0.02609 0.21112 0.0
H409 H 0.16703 0.10678 0.08679 0.0
H410 H 0.12022 0.10407 0.179 0.0
H411 H 0.12435 0.98805 0.2474 0.0
H412 H 0.13653 0.97294 0.35043 0.0
H413 H 0.16398 0.9777 0.26314 0.0
H414 H 0.19776 1.01052 0.36725 0.0
H415 H 0.17019 1.00652 0.45418 0.0
H416 H 0.18166 0.04414 0.42041 0.0
H417 H 0.07892 0.095 0.29716 0.0
H418 H 0.04771 0.0815 0.42654 0.0
H419 H 0.11132 1.00813 0.48193 0.0
C420 C 0.18414 0.04217 0.19957 0.0
C421 C 0.18826 0.06597 0.13778 0.0
C422 C 0.16415 0.08755 0.12964 0.0
C423 C 0.13757 0.08642 0.18329 0.0
C424 C 0.13503 0.06353 0.24596 0.0
C425 C 0.15754 0.04144 0.25328 0.0
C426 C 0.15031 0.0205 0.32979 0.0
C427 C 0.14339 0.98786 0.29568 0.0
C428 C 0.17655 0.02045 0.39685 0.0
C429 C 0.12135 0.03537 0.36801 0.0
C430 C 0.11242 0.05958 0.31701 0.0
C431 C 0.08589 0.07627 0.33758 0.0
C432 C 0.0682 0.06834 0.41151 0.0
C433 C 0.07696 0.04398 0.46617 0.0
C434 C 0.10409 0.02731 0.44325 0.0
H435 H 0.46947 0.14694 0.1039 0.0
H436 H 0.50508 0.22776 0.23823 0.0
H437 H 0.51401 0.19749 0.36963 0.0
H438 H 0.43228 0.11278 0.28126 0.0
H439 H 0.44342 0.07376 0.25653 0.0
H440 H 0.44111 0.10115 0.17042 0.0
H441 H 0.49769 0.08868 0.1278 0.0
H442 H 0.49953 0.06157 0.21507 0.0
H443 H 0.52713 0.09222 0.21001 0.0
H444 H 0.50223 0.16474 0.49262 0.0
H445 H 0.49505 0.12458 0.59578 0.0
H446 H 0.48461 0.05713 0.38785 0.0
C447 C 0.48062 0.15775 0.1596 0.0
C448 C 0.48717 0.18981 0.16007 0.0
C449 C 0.50069 0.20333 0.23531 0.0
C450 C 0.50537 0.18636 0.31079 0.0
C451 C 0.49749 0.15541 0.30963 0.0
C452 C 0.48701 0.14055 0.23527 0.0
C453 C 0.48137 0.10654 0.25443 0.0
C454 C 0.44753 0.09805 0.23977 0.0
C455 C 0.50271 0.08602 0.1985 0.0
C456 C 0.48949 0.10515 0.35184 0.0
C457 C 0.49728 0.13425 0.3813 0.0
C458 C 0.49921 0.14134 0.46946 0.0
C459 C 0.49574 0.11788 0.52876 0.0
C460 C 0.49333 0.08665 0.50282 0.0
C461 C 0.48858 0.0803 0.41157 0.0
H462 H 0.36629 0.43562 0.23731 0.0
H463 H 0.35626 0.52183 0.10417 0.0
H464 H 0.40164 0.54186 0.18507 0.0
H465 H 0.37344 0.47512 0.4423 0.0
H466 H 0.39791 0.44712 0.49225 0.0
H467 H 0.37079 0.43547 0.40916 0.0
H468 H 0.41319 0.41094 0.31891 0.0
H469 H 0.4424 0.42216 0.39573 0.0
H470 H 0.44535 0.43366 0.28314 0.0
H471 H 0.44893 0.55171 0.2859 0.0
H472 H 0.48857 0.5532 0.39875 0.0
H473 H 0.45706 0.46685 0.49889 0.0
C474 C 0.37358 0.45875 0.22382 0.0
C475 C 0.35689 0.47706 0.16335 0.0
C476 C 0.36838 0.50686 0.14788 0.0
C477 C 0.39388 0.51867 0.19545 0.0
C478 C 0.40714 0.50099 0.26122 0.0
C479 C 0.3968 0.47183 0.27644 0.0
C480 C 0.41138 0.45909 0.35904 0.0
C481 C 0.38695 0.45388 0.42998 0.0
C482 C 0.42916 0.42965 0.33794 0.0
C483 C 0.43309 0.48485 0.38586 0.0
C484 C 0.43055 0.50859 0.32744 0.0
C485 C 0.45026 0.53356 0.3329 0.0
C486 C 0.47294 0.53424 0.39825 0.0
C487 C 0.4755 0.51109 0.46184 0.0
C488 C 0.45503 0.48584 0.45485 0.0
H489 H 0.01889 0.33342 0.23522 0.0
H490 H 0.09137 0.37173 0.0781 0.0
H491 H 0.08967 0.41945 0.16953 0.0
H492 H 0.97647 0.40525 0.28713 0.0
H493 H 0.96838 0.39288 0.39614 0.0
H494 H 0.97259 0.365 0.30902 0.0
H495 H 0.01377 0.33788 0.39965 0.0
H496 H 1.01233 0.36657 0.48571 0.0
H497 H 0.0481 0.35824 0.4314 0.0
H498 H 0.08288 0.4621 0.29554 0.0
H499 H 0.06784 0.49477 0.42345 0.0
H500 H 1.00254 0.42565 0.49785 0.0
C501 C 0.03309 0.35257 0.21646 0.0
C502 C 0.05423 0.34908 0.14599 0.0
C503 C 0.07394 0.37412 0.12846 0.0
C504 C 0.07355 0.40117 0.1817 0.0
C505 C 0.05362 0.40297 0.25386 0.0
C506 C 0.03347 0.37928 0.27003 0.0
C507 C 0.01583 0.38526 0.35446 0.0
C508 C 0.98128 0.38723 0.33555 0.0
C509 C 0.02291 0.36049 0.42167 0.0
C510 C 0.02882 0.41612 0.38388 0.0
C511 C 0.0507 0.42611 0.32562 0.0
C512 C 0.06561 0.45415 0.34079 0.0
C513 C 0.05711 0.47255 0.41478 0.0
C514 C 0.03405 0.46316 0.4748 0.0
C515 C 0.02039 0.43412 0.45791 0.0
H516 H 0.82728 1.00929 0.1351 0.0
H517 H 0.8741 0.94952 0.31285 0.0
H518 H 0.9212 0.95263 0.22201 0.0
H519 H 0.85708 0.97777 0.9408 0.0
H520 H 0.86103 0.01339 0.88424 0.0
H521 H 0.83275 1.00983 0.96934 0.0
H522 H 0.85607 0.05701 0.05048 0.0
H523 H 0.88438 0.0604 0.9649 0.0
H524 H 0.89637 0.05712 0.07702 0.0
H525 H 0.96293 0.9597 0.10249 0.0
H526 H 0.9939 0.96835 0.9699 0.0
H527 H 0.9203 0.02374 0.86691 0.0
C528 C 0.84788 0.99808 0.15742 0.0
C529 C 0.84709 0.98031 0.23485 0.0
C530 C 0.87433 0.96458 0.25753 0.0
C531 C 0.90114 0.96581 0.20491 0.0
C532 C 0.90078 0.98279 0.12811 0.0
C533 C 0.87488 0.999 0.10499 0.0
C534 C 0.87997 0.01422 1.01673 0.0
C535 C 0.8563 1.00312 0.9488 0.0
C536 C 0.87914 0.04927 0.02795 0.0
C537 C 0.91224 1.00317 0.99222 0.0
C538 C 0.92398 0.98538 0.05784 0.0
C539 C 0.95348 0.97291 0.05024 0.0
C540 C 0.97114 0.97821 0.97416 0.0
C541 C 0.95979 0.99619 0.90499 0.0
C542 C 0.92978 1.00902 0.91576 0.0
H543 H 0.529 0.83495 0.14258 0.0
H544 H 0.59834 0.87714 0.30711 0.0
H545 H 0.59585 0.92396 0.21879 0.0
H546 H 0.55644 0.86181 0.9463 0.0
H547 H 0.51985 0.8688 0.89573 0.0
H548 H 0.52312 0.84034 0.97869 0.0
H549 H 0.48052 0.86711 0.07053 0.0
H550 H 0.47659 0.8953 0.98678 0.0
H551 H 0.48408 0.90729 0.0982 0.0
H552 H 0.59131 0.96358 0.10009 0.0
H553 H 0.58029 0.99507 0.97148 0.0
H554 H 0.51184 0.92883 0.88625 0.0
C555 C 0.5422 0.85477 0.16348 0.0
C556 C 0.56286 0.85272 0.23506 0.0
C557 C 0.58128 0.87858 0.25598 0.0
C558 C 0.58039 0.90513 0.20506 0.0
C559 C 0.56079 0.90589 0.13305 0.0
C560 C 0.54146 0.88164 0.11333 0.0
C561 C 0.5239 0.88766 0.02917 0.0
C562 C 0.53128 0.86319 0.9583 0.0
C563 C 0.48921 0.88945 0.04727 0.0
C564 C 0.53667 0.91877 1.00417 0.0
C565 C 0.55812 0.92876 0.06464 0.0
C566 C 0.57413 0.95612 0.05332 0.0
C567 C 0.56772 0.97392 0.9796 0.0
C568 C 0.54533 0.96463 0.91723 0.0
C569 C 0.52959 0.93656 0.93073 0.0
H570 H 0.68283 0.51006 0.1765 0.0
H571 H 0.67297 0.60853 0.20194 0.0
H572 H 0.63181 0.60727 0.09198 0.0
H573 H 0.67021 0.49936 0.96222 0.0
H574 H 0.64531 0.46611 0.96593 0.0
H575 H 0.67163 0.47404 0.05338 0.0
H576 H 0.62738 0.47411 0.16442 0.0
H577 H 0.6007 0.46565 0.07723 0.0
H578 H 0.59456 0.4985 0.14853 0.0
H579 H 0.60017 0.5967 0.95517 0.0
H580 H 0.56587 0.57626 0.83876 0.0
H581 H 0.5865 0.48392 0.91797 0.0
C582 C 0.67077 0.53111 0.16299 0.0
C583 C 0.68154 0.55949 0.19884 0.0
C584 C 0.66524 0.58648 0.17681 0.0
C585 C 0.64206 0.58607 0.11283 0.0
C586 C 0.63369 0.55818 0.07391 0.0
C587 C 0.64599 0.53095 0.10233 0.0
C588 C 0.63137 0.5041 0.05207 0.0
C589 C 0.65609 0.48477 1.00533 0.0
C590 C 0.61237 0.48443 0.11429 0.0
C591 C 0.61055 0.52061 0.98726 0.0
C592 C 0.6128 0.5519 1.00052 0.0
C593 C 0.59754 0.57221 0.94595 0.0
C594 C 0.57831 0.56043 0.87916 0.0
C595 C 0.57349 0.52858 0.86801 0.0
C596 C 0.58999 0.50841 0.92334 0.0
H597 H 0.96386 0.70544 0.0379 0.0
H598 H 0.02275 0.68034 0.25368 0.0
H599 H 0.0366 0.63252 0.17151 0.0
H600 H 0.93428 0.6254 0.99995 0.0
H601 H 0.92851 0.6349 0.88749 0.0
H602 H 0.92567 0.66444 0.97138 0.0
H603 H 0.96534 0.6927 0.87594 0.0
H604 H 0.97322 0.6606 0.80361 0.0
H605 H 1.00376 0.67808 0.86795 0.0
H606 H 0.04126 0.58432 0.06336 0.0
H607 H 0.03633 0.54379 0.9478 0.0
H608 H 0.97052 0.59956 0.81186 0.0
C609 C 0.97897 0.68988 0.07094 0.0
C610 C 0.99136 0.69723 0.15541 0.0
C611 C 1.01271 0.67603 0.18994 0.0
C612 C 0.02053 0.64845 0.14361 0.0
C613 C 1.00663 0.6417 0.0626 0.0
C614 C 0.98586 0.66185 0.02786 0.0
C615 C 0.97272 0.64936 0.94204 0.0
C616 C 0.93817 0.64329 0.95077 0.0
C617 C 0.97918 0.67145 0.86765 0.0
C618 C 0.99008 0.61926 0.93094 0.0
C619 C 1.00935 0.61496 1.00169 0.0
C620 C 0.02632 0.58785 1.00804 0.0
C621 C 0.02337 0.56481 0.9419 0.0
C622 C 1.00357 0.56854 0.8693 0.0
C623 C 0.98646 0.59616 0.86499 0.0
H624 H 0.10278 0.21473 0.24236 0.0
H625 H 0.06361 0.29882 0.35029 0.0
H626 H 0.04404 0.27155 0.47384 0.0
H627 H 0.0445 0.17938 0.24405 0.0
H628 H 0.05442 0.14138 0.27666 0.0
H629 H 0.08311 0.16511 0.22925 0.0
H630 H 0.11872 0.16111 0.36025 0.0
H631 H 0.0921 0.13595 0.41385 0.0
H632 H 0.10509 0.17022 0.46921 0.0
H633 H 1.00796 0.2372 0.53437 0.0
H634 H 0.9674 0.19807 0.54393 0.0
H635 H 0.02489 0.13352 0.40109 0.0
C636 C 0.09139 0.2275 0.29446 0.0
C637 C 0.08412 0.25865 0.28423 0.0
C638 C 0.06987 0.27493 0.35485 0.0
C639 C 0.0583 0.25943 0.42642 0.0
C640 C 0.0611 0.22774 0.42697 0.0
C641 C 0.07842 0.21188 0.36449 0.0
C642 C 0.0714 0.17793 0.3656 0.0
C643 C 0.06285 0.16526 0.27361 0.0
C644 C 0.09844 0.16026 0.40446 0.0
C645 C 0.04424 0.17809 0.42749 0.0
C646 C 0.03952 0.20678 0.4653 0.0
C647 C 1.01226 0.21423 0.50935 0.0
C648 C 0.98917 0.19212 0.51357 0.0
C649 C 0.99364 0.16297 0.47447 0.0
C650 C 0.02177 0.15551 0.4339 0.0
H651 H 0.31776 0.09051 0.2926 0.0
H652 H 0.2556 0.02592 0.16556 0.0
H653 H 0.28212 0.9832 0.23184 0.0
H654 H 0.38535 0.04228 0.27029 0.0
H655 H 0.40077 0.05312 0.37572 0.0
H656 H 0.37719 0.07962 0.31709 0.0
H657 H 0.34024 0.08461 0.4501 0.0
H658 H 0.36396 0.05849 0.50947 0.0
H659 H 0.32365 0.05056 0.49527 0.0
H660 H 0.31404 0.94751 0.30808 0.0
H661 H 0.34945 0.91974 0.40416 0.0
H662 H 0.39031 1.00629 0.4871 0.0
C663 C 0.30954 0.06739 0.28081 0.0
C664 C 0.28403 0.06152 0.22724 0.0
C665 C 0.27428 0.03096 0.20999 0.0
C666 C 0.28952 1.00644 0.24576 0.0
C667 C 0.31455 0.01281 0.29822 0.0
C668 C 0.3245 0.04235 0.31671 0.0
C669 C 0.35166 0.04229 0.37761 0.0
C670 C 0.38044 0.05506 0.33246 0.0
C671 C 0.34443 0.06003 0.4632 0.0
C672 C 0.35441 1.00822 0.3921 0.0
C673 C 0.33319 0.99171 0.34399 0.0
C674 C 0.3308 0.95997 0.34685 0.0
C675 C 0.35062 0.94449 0.40196 0.0
C676 C 0.37212 0.961 0.45302 0.0
C677 C 0.37407 0.9932 0.44797 0.0
H678 H 0.41015 0.30854 0.07032 0.0
H679 H 0.42381 0.24228 0.27514 0.0
H680 H 0.4378 0.28368 0.37565 0.0
H681 H 0.45037 0.34154 0.02735 0.0
H682 H 0.48123 0.33346 0.10146 0.0
H683 H 0.47415 0.37211 0.06771 0.0
H684 H 0.40377 0.37214 0.08366 0.0
H685 H 0.42665 0.40173 0.13529 0.0
H686 H 0.39916 0.38046 0.19851 0.0
H687 H 0.46828 0.32669 0.43823 0.0
H688 H 0.50839 0.36605 0.45586 0.0
H689 H 0.48616 0.40098 0.20021 0.0
C690 C 0.41572 0.30218 0.13618 0.0
C691 C 0.41881 0.27111 0.16017 0.0
C692 C 0.42287 0.26529 0.2508 0.0
C693 C 0.43102 0.28899 0.30961 0.0
C694 C 0.4347 0.31839 0.2775 0.0
C695 C 0.42692 0.32509 0.1924 0.0
C696 C 0.44112 0.35503 0.16447 0.0
C697 C 0.46298 0.35024 0.08564 0.0
C698 C 0.41622 0.37879 0.14447 0.0
C699 C 0.45895 0.36352 0.24592 0.0
C700 C 0.45418 0.34274 0.3116 0.0
C701 C 0.47142 0.34365 0.38837 0.0
C702 C 0.4943 0.36605 0.39762 0.0
C703 C 0.50028 0.38676 0.32948 0.0
C704 C 0.48208 0.38552 0.25347 0.0
H705 H 0.22067 0.43557 0.27207 0.0
H706 H 0.29935 0.48692 0.36504 0.0
H707 H 0.26747 0.51536 0.46655 0.0
H708 H 0.18197 0.48263 0.21886 0.0
H709 H 0.1435 0.47563 0.25746 0.0
H710 H 0.16981 0.4445 0.24733 0.0
H711 H 0.16214 0.43152 0.41016 0.0
H712 H 0.13472 0.4624 0.41972 0.0
H713 H 0.16679 0.46085 0.49364 0.0
H714 H 0.23156 0.55635 0.4758 0.0
H715 H 0.19183 0.59468 0.43982 0.0
H716 H 0.13504 0.52265 0.32923 0.0
C717 C 0.23099 0.45149 0.31844 0.0
C718 C 0.26174 0.4601 0.3075 0.0
C719 C 0.27556 0.48004 0.3703 0.0
C720 C 0.2574 0.49664 0.42909 0.0
C721 C 0.22577 0.49305 0.42372 0.0
C722 C 0.21251 0.4693 0.37444 0.0
C723 C 0.17863 0.4752 0.36063 0.0
C724 C 0.16798 0.4692 0.26539 0.0
C725 C 0.15944 0.45641 0.4249 0.0
C726 C 0.17769 0.50869 0.38594 0.0
C727 C 0.20412 0.51803 0.42845 0.0
C728 C 0.21023 0.54903 0.44603 0.0
C729 C 0.18829 0.57076 0.42256 0.0
C730 C 0.16149 0.5613 0.37868 0.0
C731 C 0.15616 0.53009 0.36033 0.0
H732 H 0.94266 0.82874 0.24042 0.0
H733 H 0.91639 0.75818 0.04996 0.0
H734 H 0.93233 0.79188 0.93256 0.0
H735 H 0.93701 0.90111 0.09988 0.0
H736 H 0.97149 0.91294 0.15673 0.0
H737 H 0.94316 0.89047 0.21194 0.0
H738 H 0.98944 0.8549 0.24761 0.0
H739 H 0.0155 0.87554 0.18014 0.0
H740 H 1.00922 0.8353 0.15891 0.0
H741 H 0.96964 0.821 0.84514 0.0
H742 H 0.01602 0.84836 0.79445 0.0
H743 H 0.01948 0.89964 0.03848 0.0
C744 C 0.93881 0.82014 0.17476 0.0
C745 C 0.9306 0.78919 0.15644 0.0
C746 C 0.9245 0.78084 0.0678 0.0
C747 C 0.93342 0.80005 0.9998 0.0
C748 C 0.94733 0.82792 0.02142 0.0
C749 C 0.9491 0.83839 0.10712 0.0
C750 C 0.97129 0.8649 0.11693 0.0
C751 C 0.95464 0.89411 0.14794 0.0
C752 C 0.9979 0.85714 0.17943 0.0
C753 C 0.98254 0.86715 0.02376 0.0
C754 C 0.96841 0.84569 0.96936 0.0
C755 C 0.9797 0.83895 0.88558 0.0
C756 C 1.006 0.85436 0.85719 0.0
C757 C 0.0202 0.87658 0.91147 0.0
C758 C 1.00799 0.88354 0.99479 0.0
H759 H 0.77565 0.99214 0.14703 0.0
H760 H 0.72867 0.90488 0.13369 0.0
H761 H 0.69536 0.925 1.01502 0.0
H762 H 0.70844 0.03142 0.14423 0.0
H763 H 0.72466 0.06444 0.09255 0.0
H764 H 0.74839 0.0407 0.15896 0.0
H765 H 0.78617 0.03281 0.03041 0.0
H766 H 0.76289 0.0561 0.96126 0.0
H767 H 0.77273 0.01758 0.92673 0.0
H768 H 0.66417 0.95863 0.90942 0.0
H769 H 0.63684 1.00124 0.83914 0.0
H770 H 0.70471 0.06511 0.94081 0.0
C771 C 0.75976 0.97641 0.11561 0.0
C772 C 0.75579 0.94646 0.1453 0.0
C773 C 0.73273 0.92752 0.10853 0.0
C774 C 0.71381 0.93883 0.04181 0.0
C775 C 0.71822 0.96907 1.0156 0.0
C776 C 0.74057 0.98749 0.05286 0.0
C777 C 0.73752 0.02051 0.02956 0.0
C778 C 0.72925 0.0404 0.11107 0.0
C779 C 0.76656 0.0324 0.98415 0.0
C780 C 0.71103 0.01793 0.96806 0.0
C781 C 0.69975 0.98835 0.9608 0.0
C782 C 0.67327 0.98167 0.91341 0.0
C783 C 0.65796 1.00598 0.87366 0.0
C784 C 0.66928 0.03637 0.88224 0.0
C785 C 0.6963 0.04205 0.92916 0.0
H786 H 0.55242 0.78275 0.11219 0.0
H787 H 0.64021 0.73659 0.11713 0.0
H788 H 0.62229 0.70085 1.00003 0.0
H789 H 0.51278 0.71788 0.12438 0.0
H790 H 0.48051 0.73235 0.06525 0.0
H791 H 0.50527 0.75858 0.12183 0.0
H792 H 0.51123 0.78565 0.97075 0.0
H793 H 0.48881 0.75647 0.91589 0.0
H794 H 0.52715 0.76471 0.87824 0.0
H795 H 0.5913 0.66259 0.9215 0.0
H796 H 0.55073 0.62374 0.9057 0.0
H797 H 0.48155 0.69279 0.95707 0.0
C798 C 0.56857 0.76639 0.08429 0.0
C799 C 0.59809 0.76303 0.12058 0.0
C800 C 0.61796 0.74006 0.08758 0.0
C801 C 0.60785 0.71978 0.02119 0.0
C802 C 0.57771 0.72253 0.99061 0.0
C803 C 0.55828 0.74534 0.02196 0.0
C804 C 0.52507 0.73891 0.9997 0.0
C805 C 0.50484 0.73687 0.08278 0.0
C806 C 0.51235 0.76286 0.93728 0.0
C807 C 0.52847 0.70802 0.95497 0.0
C808 C 0.55905 0.69937 0.9474 0.0
C809 C 0.56744 0.66944 0.92462 0.0
C810 C 0.54427 0.64744 0.91587 0.0
C811 C 0.51329 0.65552 0.93107 0.0
C812 C 0.50522 0.68637 0.94473 0.0
H813 H 0.81813 0.61697 0.20285 0.0
H814 H 0.75636 0.58186 1.00335 0.0
H815 H 0.79964 0.5711 0.90785 0.0
H816 H 0.89184 0.6243 0.07991 0.0
H817 H 0.91463 0.60071 0.15115 0.0
H818 H 0.88498 0.62547 0.19533 0.0
H819 H 0.85466 0.58483 0.26812 0.0
H820 H 0.88397 0.55784 0.24083 0.0
H821 H 0.84495 0.54978 0.20947 0.0
H822 H 0.84219 0.53906 0.86805 0.0
H823 H 0.87888 0.49636 0.88194 0.0
H824 H 0.91225 0.53608 0.12501 0.0
C825 C 0.81376 0.60762 0.13797 0.0
C826 C 0.78412 0.59761 0.11447 0.0
C827 C 0.77888 0.58853 0.02627 0.0
C828 C 0.80374 0.58198 0.97099 0.0
C829 C 0.83319 0.58335 1.00644 0.0
C830 C 0.83834 0.59612 0.08916 0.0
C831 C 0.86783 0.58424 0.12852 0.0
C832 C 0.89134 0.61014 0.13922 0.0
C833 C 0.86241 0.56823 0.21669 0.0
C834 C 0.87718 0.56131 0.05831 0.0
C835 C 0.85772 0.562 0.98689 0.0
C836 C 0.85819 0.539 0.92207 0.0
C837 C 0.87859 0.51457 0.93117 0.0
C838 C 0.89764 0.51312 1.00554 0.0
C839 C 0.89753 0.53702 0.06815 0.0
H840 H 1.00994 0.22477 0.03541 0.0
H841 H 0.09339 0.25233 0.90486 0.0
H842 H 0.09113 0.20554 0.81044 0.0
H843 H 0.02493 0.14774 0.04253 0.0
H844 H 0.98717 0.13311 1.01786 0.0
H845 H 0.99157 0.17036 0.06909 0.0
H846 H 0.96203 0.19699 0.94763 0.0
H847 H 0.95495 0.16006 0.89691 0.0
H848 H 0.97255 0.19002 0.8348 0.0
H849 H 0.0821 0.15135 0.73864 0.0
H850 H 0.06366 0.10034 0.68607 0.0
H851 H 0.98473 0.10897 0.85767 0.0
C852 C 0.02693 0.22171 0.9841 0.0
C853 C 0.05129 0.24324 0.97581 0.0
C854 C 0.07387 0.23715 0.91061 0.0
C855 C 0.07298 0.21021 0.85736 0.0
C856 C 0.04915 0.18914 0.8687 0.0
C857 C 0.02605 0.19508 0.92911 0.0
C858 C 1.00314 0.16863 0.92936 0.0
C859 C 1.00161 0.15407 0.02003 0.0
C860 C 0.97128 0.17958 0.90045 0.0
C861 C 0.01713 0.14662 0.86121 0.0
C862 C 0.04383 0.1587 0.82718 0.0
C863 C 0.06103 0.14203 0.76464 0.0
C864 C 0.05049 0.11283 0.73532 0.0
C865 C 0.0229 0.1001 0.76818 0.0
C866 C 1.00604 0.11772 0.83144 0.0
H867 H 0.30203 0.02254 0.9937 0.0
H868 H 0.28699 0.11215 0.88681 0.0
H869 H 0.33588 0.10761 0.80416 0.0
H870 H 0.37889 0.02985 0.02926 0.0
H871 H 0.39109 0.9917 0.99791 0.0
H872 H 0.35261 0.99827 0.03758 0.0
H873 H 0.32871 0.97468 0.89842 0.0
H874 H 0.36674 0.96581 0.85842 0.0
H875 H 0.34081 0.98772 0.79264 0.0
H876 H 0.39127 0.09529 0.7458 0.0
H877 H 0.44238 0.07392 0.70516 0.0
H878 H 0.42138 0.992 0.84834 0.0
C879 C 0.30802 0.04038 0.94855 0.0
C880 C 0.28933 0.06714 0.94382 0.0
C881 C 0.29965 0.09082 0.88862 0.0
C882 C 0.32792 0.08862 0.84255 0.0
C883 C 0.34623 0.06249 0.85142 0.0
C884 C 0.3362 0.03843 0.90155 0.0
C885 C 0.36067 0.01336 0.90348 0.0
C886 C 0.37146 1.00797 0.99762 0.0
C887 C 0.34851 0.98363 0.8607 0.0
C888 C 0.38625 0.02718 0.84828 0.0
C889 C 0.37761 0.05562 0.81886 0.0
C890 C 0.3979 0.0729 0.7682 0.0
C891 C 0.42718 0.06067 0.74583 0.0
C892 C 0.43651 0.0314 0.77438 0.0
C893 C 0.41533 0.01457 0.82589 0.0
H894 H 0.45541 0.28672 0.85094 0.0
H895 H 0.52929 0.28219 0.03983 0.0
H896 H 0.54832 0.33233 0.99056 0.0
H897 H 0.4973 0.32847 0.67943 0.0
H898 H 0.46418 0.35104 0.65207 0.0
H899 H 0.45928 0.31293 0.69297 0.0
H900 H 0.42422 0.33452 0.81815 0.0
H901 H 0.42909 0.37237 0.77561 0.0
H902 H 0.43839 0.36514 0.88788 0.0
H903 H 0.55639 0.38587 0.93009 0.0
H904 H 0.55516 0.43574 0.857 0.0
H905 H 0.47357 0.40779 0.71497 0.0
C906 C 0.47604 0.29584 0.88089 0.0
C907 C 0.49086 0.27992 0.94952 0.0
C908 C 0.51781 0.2931 0.98603 0.0
C909 C 0.52854 0.32197 0.95923 0.0
C910 C 0.51216 0.33771 0.89561 0.0
C911 C 0.48664 0.32491 0.8562 0.0
C912 C 0.4721 0.34721 0.79288 0.0
C913 C 0.47329 0.33413 0.69876 0.0
C914 C 0.439 0.35525 0.82033 0.0
C915 C 0.49313 0.37481 0.80352 0.0
C916 C 0.51625 0.36872 0.86265 0.0
C917 C 0.53855 0.39059 0.88315 0.0
C918 C 0.5377 0.41893 0.84097 0.0
C919 C 0.51452 0.42571 0.77932 0.0
C920 C 0.4916 0.4034 0.7617 0.0
H921 H 0.24649 0.52168 0.97039 0.0
H922 H 0.24658 0.42288 0.99121 0.0
H923 H 0.19918 0.4199 0.90466 0.0
H924 H 0.16903 0.53691 0.982 0.0
H925 H 0.16581 0.56392 0.8948 0.0
H926 H 0.20192 0.55918 0.94991 0.0
H927 H 0.22883 0.547 0.80238 0.0
H928 H 0.19282 0.55214 0.74645 0.0
H929 H 0.21395 0.51692 0.73214 0.0
H930 H 0.14855 0.42699 0.83017 0.0
H931 H 0.10085 0.4432 0.76005 0.0
H932 H 0.13044 0.53784 0.77679 0.0
C933 C 0.23741 0.49934 0.95295 0.0
C934 C 0.2514 0.4723 0.9868 0.0
C935 C 0.23744 0.4438 0.96459 0.0
C936 C 0.21005 0.4419 0.91596 0.0
C937 C 0.19649 0.46866 0.88602 0.0
C938 C 0.21012 0.49686 0.90078 0.0
C939 C 0.19028 0.52176 0.85855 0.0
C940 C 0.18122 0.54693 0.92538 0.0
C941 C 0.20749 0.53529 0.78031 0.0
C942 C 0.16214 0.50351 0.82628 0.0
C943 C 0.16689 0.47278 0.84134 0.0
C944 C 0.14477 0.45103 0.81811 0.0
C945 C 0.11719 0.46061 0.77919 0.0
C946 C 0.11067 0.49191 0.7642 0.0
C947 C 0.13415 0.51367 0.78692 0.0
H948 H 0.96391 0.79948 0.47126 0.0
H949 H 0.03959 0.79478 0.28647 0.0
H950 H 0.05879 0.84436 0.34541 0.0
H951 H 0.94875 0.87564 0.44499 0.0
H952 H 0.93901 0.88605 0.55723 0.0
H953 H 0.93323 0.84749 0.51667 0.0
H954 H 0.96605 0.82514 0.63461 0.0
H955 H 0.97278 0.86258 0.68269 0.0
H956 H 1.00477 0.83832 0.65054 0.0
H957 H 0.06694 0.8971 0.41423 0.0
H958 H 0.06737 0.94607 0.49545 0.0
H959 H 0.98477 0.92013 0.63503 0.0
C960 C 0.98503 0.80838 0.44433 0.0
C961 C 1.00022 0.79248 0.37353 0.0
C962 C 0.02772 0.80553 0.34135 0.0
C963 C 0.03854 0.83417 0.37378 0.0
C964 C 0.02177 0.84995 0.43902 0.0
C965 C 0.9959 0.83721 0.4751 0.0
C966 C 0.98126 0.85953 0.54178 0.0
C967 C 0.94859 0.86776 0.51357 0.0
C968 C 0.98119 0.8456 0.63301 0.0
C969 C 1.00282 0.88725 0.53764 0.0
C970 C 0.026 0.88084 0.47755 0.0
C971 C 0.04893 0.90214 0.4613 0.0
C972 C 0.04886 0.93018 0.50816 0.0
C973 C 0.02588 0.93793 0.57122 0.0
C974 C 1.00231 0.91579 0.586 0.0
H975 H 0.72342 0.01822 0.34325 0.0
H976 H 0.75828 0.95068 0.52057 0.0
H977 H 0.71169 0.95692 0.61258 0.0
H978 H 0.68592 0.06892 0.5148 0.0
H979 H 0.65398 0.07743 0.4446 0.0
H980 H 0.69121 0.06935 0.39775 0.0
H981 H 0.66719 0.02704 0.30141 0.0
H982 H 0.62994 0.03364 0.34943 0.0
H983 H 0.64716 0.99596 0.35153 0.0
H984 H 0.65676 0.96556 0.6753 0.0
H985 H 0.6046 0.98315 0.7184 0.0
H986 H 0.60653 0.04928 0.51138 0.0
C987 C 0.72204 1.00597 0.40402 0.0
C988 C 0.74563 0.9848 0.42611 0.0
C989 C 0.74154 0.96791 0.5036 0.0
C990 C 0.7147 0.97096 0.55569 0.0
C991 C 0.6916 0.99129 0.53077 0.0
C992 C 0.69548 1.00926 0.45811 0.0
C993 C 0.6669 0.02902 0.44485 0.0
C994 C 0.675 0.06322 0.4509 0.0
C995 C 0.65186 0.02094 0.3566 0.0
C996 C 0.64646 0.01966 0.5216 0.0
C997 C 0.66086 0.99723 0.56904 0.0
C998 C 0.64576 0.98361 0.6394 0.0
C999 C 0.61593 0.99373 0.66359 0.0
C1000 C 0.60121 0.01794 0.61967 0.0
C1001 C 0.61701 0.03093 0.54732 0.0
H1002 H 0.57357 0.75172 0.51049 0.0
H1003 H 0.53211 0.73288 0.25834 0.0
H1004 H 0.51792 0.68119 0.3052 0.0
H1005 H 0.60321 0.67982 0.5529 0.0
H1006 H 0.59271 0.67759 0.66677 0.0
H1007 H 0.59814 0.71439 0.61793 0.0
H1008 H 0.54343 0.73083 0.66584 0.0
H1009 H 0.5381 0.69418 0.71606 0.0
H1010 H 0.51116 0.70711 0.63553 0.0
H1011 H 0.52117 0.62851 0.36376 0.0
H1012 H 0.52423 0.58146 0.44866 0.0
H1013 H 0.54952 0.63373 0.67991 0.0
C1014 C 0.56007 0.73728 0.46704 0.0
C1015 C 0.5535 0.74679 0.38023 0.0
C1016 C 0.53671 0.72654 0.32495 0.0
C1017 C 0.52897 0.69689 0.35084 0.0
C1018 C 0.53682 0.68776 0.43465 0.0
C1019 C 0.55051 0.70769 0.49401 0.0
C1020 C 0.5552 0.69147 0.58122 0.0
C1021 C 0.58935 0.69079 0.60614 0.0
C1022 C 0.53583 0.70681 0.654 0.0
C1023 C 0.54333 0.65915 0.55968 0.0
C1024 C 0.53372 0.65768 0.47357 0.0
C1025 C 0.5265 0.62983 0.43284 0.0
C1026 C 0.52774 0.60309 0.48188 0.0
C1027 C 0.53413 0.60385 0.57241 0.0
C1028 C 0.54265 0.63246 0.61193 0.0
H1029 H 0.7949 0.50893 0.37348 0.0
H1030 H 0.77089 0.60128 0.45549 0.0
H1031 H 0.81743 0.60401 0.54704 0.0
H1032 H 0.82711 0.48699 0.5961 0.0
H1033 H 0.85632 0.46308 0.54616 0.0
H1034 H 0.81975 0.4676 0.49303 0.0
H1035 H 0.84784 0.48542 0.35336 0.0
H1036 H 0.88432 0.48141 0.40695 0.0
H1037 H 0.87375 0.51753 0.36078 0.0
H1038 H 0.87341 0.60017 0.60577 0.0
H1039 H 0.92529 0.58538 0.65686 0.0
H1040 H 0.90863 0.49264 0.56285 0.0
C1041 C 0.79829 0.52898 0.41513 0.0
C1042 C 0.77799 0.55453 0.40886 0.0
C1043 C 0.78488 0.5809 0.46126 0.0
C1044 C 0.81186 0.58291 0.51229 0.0
C1045 C 0.83193 0.55795 0.51384 0.0
C1046 C 0.82473 0.53092 0.46974 0.0
C1047 C 0.85013 0.50731 0.48365 0.0
C1048 C 0.83758 0.4796 0.53265 0.0
C1049 C 0.86486 0.49734 0.39596 0.0
C1050 C 0.87291 0.52544 0.54039 0.0
C1051 C 0.86242 0.55492 0.55505 0.0
C1052 C 0.88116 0.57675 0.59715 0.0
C1053 C 0.9108 0.56814 0.62613 0.0
C1054 C 0.92162 0.53758 0.61634 0.0
C1055 C 0.90179 0.51606 0.57332 0.0
loop_
_geom_bond_atom_site_label_1
_geom_bond_atom_site_label_2
_geom_bond_distance
_geom_bond_site_symmetry_2
_ccdc_geom_bond_type
H0 C3 0.931 . S
H1 C6 0.928 . S
H2 C8 0.930 . S
C3 H0 0.931 . S
C3 C4 1.413 . S
C3 C5 1.360 . S
C4 C3 1.413 . S
C4 C8 1.429 . S
C5 C3 1.360 . S
C5 C6 1.372 . S
C6 H1 0.928 . S
C6 C5 1.372 . S
C6 C7 1.404 . S
C7 C6 1.404 . S
C7 C8 1.391 . S
C8 H2 0.930 . S
C8 C4 1.429 . S
C8 C7 1.391 . S
H9 C12 0.931 . S
H10 C15 0.928 . S
H11 C17 0.930 . S
C12 H9 0.931 . S
C12 C13 1.413 . S
C12 C14 1.360 . S
C13 C12 1.413 . S
C13 C17 1.429 . S
C14 C12 1.360 . S
C14 C15 1.372 . S
C15 H10 0.928 . S
C15 C14 1.372 . S
C15 C16 1.404 . S
C16 C15 1.404 . S
C16 C17 1.391 . S
C17 H11 0.930 . S
C17 C13 1.429 . S
C17 C16 1.391 . S
H18 C21 0.931 . S
H19 C24 0.928 . S
H20 C26 0.930 . S
C21 H18 0.931 . S
C21 C22 1.413 . S
C21 C23 1.360 . S
C22 C21 1.413 . S
C22 C26 1.429 . S
C23 C21 1.360 . S
C23 C24 1.372 . S
C24 H19 0.928 . S
C24 C23 1.372 . S
C24 C25 1.404 . S
C25 C24 1.404 . S
C25 C26 1.391 . S
C26 H20 0.930 . S
C26 C22 1.429 . S
C26 C25 1.391 . S
H27 C30 0.931 . S
H28 C33 0.928 . S
H29 C35 0.930 . S
C30 H27 0.931 . S
C30 C31 1.413 . S
C30 C32 1.360 . S
C31 C30 1.413 . S
C31 C35 1.429 . S
C32 C30 1.360 . S
C32 C33 1.372 . S
C33 H28 0.928 . S
C33 C32 1.372 . S
C33 C34 1.404 . S
C34 C33 1.404 . S
C34 C35 1.391 . S
C35 H29 0.930 . S
C35 C31 1.429 . S
C35 C34 1.391 . S
H36 C39 0.931 1_556 S
H37 C42 0.928 . S
H38 C44 0.930 . S
C39 H36 0.931 1_554 S
C39 C40 1.413 1_554 S
C39 C41 1.360 . S
C40 C39 1.413 1_556 S
C40 C44 1.429 . S
C41 C39 1.360 . S
C41 C42 1.372 . S
C42 H37 0.928 . S
C42 C41 1.372 . S
C42 C43 1.404 . S
C43 C42 1.404 . S
C43 C44 1.391 1_554 S
C44 H38 0.930 . S
C44 C40 1.429 . S
C44 C43 1.391 1_556 S
H45 C48 0.931 1_556 S
H46 C51 0.928 . S
H47 C53 0.930 . S
C48 H45 0.931 1_554 S
C48 C49 1.413 1_554 S
C48 C50 1.360 . S
C49 C48 1.413 1_556 S
C49 C53 1.429 . S
C50 C48 1.360 . S
C50 C51 1.372 . S
C51 H46 0.928 . S
C51 C50 1.372 . S
C51 C52 1.404 . S
C52 C51 1.404 . S
C52 C53 1.391 1_554 S
C53 H47 0.930 . S
C53 C49 1.429 . S
C53 C52 1.391 1_556 S
H54 C57 0.928 1_556 S
H55 C60 0.928 . S
H56 C62 0.930 . S
C57 H54 0.928 1_554 S
C57 C58 1.403 1_554 S
C57 C59 1.373 . S
C58 C57 1.403 1_556 S
C58 C62 1.429 . S
C59 C57 1.373 . S
C59 C60 1.372 . S
C60 H55 0.928 . S
C60 C59 1.372 . S
C60 C61 1.404 . S
C61 C60 1.404 . S
C61 C62 1.391 1_554 S
C62 H56 0.930 . S
C62 C58 1.429 . S
C62 C61 1.391 1_556 S
H63 C66 0.931 1_556 S
H64 C69 0.928 . S
H65 C71 0.930 . S
C66 H63 0.931 1_554 S
C66 C67 1.413 . S
C66 C68 1.360 1_554 S
C67 C66 1.413 . S
C67 C71 1.429 . S
C68 C66 1.360 1_556 S
C68 C69 1.372 . S
C69 H64 0.928 . S
C69 C68 1.372 . S
C69 C70 1.404 1_556 S
C70 C69 1.404 1_554 S
C70 C71 1.391 . S
C71 H65 0.930 . S
C71 C67 1.429 . S
C71 C70 1.391 . S
Gd72 N103 2.661 1_545 S
Gd72 N109 2.601 . S
Gd72 O116 2.545 . S
Gd72 O117 2.606 1_655 S
Gd72 O119 2.429 . S
Gd72 O120 2.540 1_655 S
Gd72 O121 2.412 . S
Gd72 O123 2.362 1_545 S
Gd72 O124 2.324 1_655 S
Gd72 C131 2.828 . S
Gd73 N82 2.661 1_565 S
Gd73 N86 2.601 . S
Gd73 O117 2.362 1_565 S
Gd73 O118 2.324 1_455 S
Gd73 O122 2.545 . S
Gd73 O123 2.606 1_455 S
Gd73 O125 2.429 . S
Gd73 O126 2.545 . S
Gd73 O127 2.412 . S
Gd73 C140 2.828 . S
C74 C77 1.417 . S
C74 C79 1.431 1_556 S
C74 C80 1.412 1_556 S
C75 C78 1.437 . S
C75 C79 1.317 1_556 S
C75 H94 0.933 . S
C76 C77 1.426 . S
C76 C78 1.413 . S
C76 N86 1.359 1_545 S
C77 C74 1.417 . S
C77 C76 1.426 . S
C77 N82 1.350 . S
C78 C75 1.437 . S
C78 C76 1.413 . S
C78 C88 1.391 . S
C79 C74 1.431 1_554 S
C79 C75 1.317 1_554 S
C79 H90 0.930 . S
C80 C74 1.412 1_554 S
C80 C81 1.355 1_554 S
C80 H92 0.930 . S
C81 C80 1.355 1_556 S
C81 C83 1.402 . S
C81 H93 0.930 1_456 S
N82 Gd73 2.661 1_545 S
N82 C77 1.350 . S
N82 C83 1.307 . S
C83 C81 1.402 . S
C83 N82 1.307 . S
C83 H84 0.930 1_455 S
H84 C83 0.930 1_655 S
C85 N86 1.334 . S
C85 C87 1.394 . S
C85 H89 0.930 . S
N86 Gd73 2.601 . S
N86 C76 1.359 1_565 S
N86 C85 1.334 . S
C87 C85 1.394 . S
C87 C88 1.359 1_565 S
C87 H99 0.930 . S
C88 C78 1.391 . S
C88 C87 1.359 1_545 S
C88 H100 0.929 . S
H89 C85 0.930 . S
H90 C79 0.930 . S
H91 C108 0.930 1_455 S
H92 C80 0.930 . S
H93 C81 0.930 1_654 S
H94 C75 0.933 . S
H95 C113 0.930 . S
H96 C104 0.930 . S
H97 C105 0.930 1_455 S
H98 C129 0.929 . S
H99 C87 0.930 . S
H100 C88 0.929 . S
H101 C130 0.930 . S
H102 C111 0.930 . S
N103 Gd72 2.661 1_565 S
N103 C107 1.350 . S
N103 C108 1.307 . S
C104 H96 0.930 . S
C104 C105 1.355 . S
C104 C106 1.412 . S
C105 H97 0.930 1_655 S
C105 C104 1.355 . S
C105 C108 1.402 . S
C106 C104 1.412 . S
C106 C107 1.417 . S
C106 C130 1.431 . S
C107 N103 1.350 . S
C107 C106 1.417 . S
C107 C110 1.414 1_565 S
C108 H91 0.930 1_655 S
C108 N103 1.307 . S
C108 C105 1.402 . S
N109 Gd72 2.601 . S
N109 C110 1.378 . S
N109 C113 1.334 . S
C110 C107 1.414 1_545 S
C110 N109 1.378 . S
C110 C114 1.408 1_545 S
C111 H102 0.930 . S
C111 C112 1.359 . S
C111 C113 1.394 . S
C112 C111 1.359 . S
C112 C114 1.391 1_545 S
C112 H115 0.929 . S
C113 H95 0.930 . S
C113 N109 1.334 . S
C113 C111 1.394 . S
C114 C110 1.408 1_565 S
C114 C112 1.391 1_565 S
C114 C129 1.437 . S
H115 C112 0.929 . S
O116 Gd72 2.545 . S
O116 C131 1.258 . S
O117 Gd72 2.606 1_455 S
O117 Gd73 2.362 1_545 S
O117 C128 1.284 . S
O118 Gd73 2.324 1_655 S
O118 C138 1.243 1_565 S
O119 Gd72 2.429 . S
O119 C138 1.295 . S
O120 Gd72 2.540 1_455 S
O120 C128 1.259 . S
O121 Gd72 2.412 . S
O121 C131 1.252 . S
O122 Gd73 2.545 . S
O122 C140 1.258 . S
O123 Gd72 2.362 1_565 S
O123 Gd73 2.606 1_655 S
O123 C139 1.284 . S
O124 Gd72 2.324 1_455 S
O124 C147 1.254 . S
O125 Gd73 2.429 . S
O125 C147 1.268 1_565 S
O126 Gd73 2.545 . S
O126 C139 1.250 1_455 S
O127 Gd73 2.412 . S
O127 C140 1.252 . S
C128 O117 1.284 . S
C128 O120 1.259 . S
C129 H98 0.929 . S
C129 C114 1.437 . S
C129 C130 1.317 . S
C130 H101 0.930 . S
C130 C106 1.431 . S
C130 C129 1.317 . S
C131 Gd72 2.828 . S
C131 O116 1.258 . S
C131 O121 1.252 . S
C131 C132 1.497 . S
C132 C131 1.497 . S
C132 C133 1.395 . S
C132 C134 1.380 . S
C133 C132 1.395 . S
C133 C136 1.398 . S
C133 H148 0.930 . S
C134 C132 1.380 . S
C134 C135 1.391 . S
C134 H149 0.930 1_655 S
C135 C134 1.391 . S
C135 C137 1.387 . S
C136 C133 1.398 . S
C136 C137 1.380 . S
C136 H150 0.930 . S
C137 C135 1.387 . S
C137 C136 1.380 . S
C137 H151 0.930 . S
C138 O118 1.243 1_545 S
C138 O119 1.295 . S
C139 O123 1.284 . S
C139 O126 1.250 1_655 S
C140 Gd73 2.828 . S
C140 O122 1.258 . S
C140 O127 1.252 . S
C140 C141 1.497 . S
C141 C140 1.497 . S
C141 C142 1.395 . S
C141 C143 1.380 . S
C142 C141 1.395 . S
C142 C145 1.398 . S
C142 H152 0.930 . S
C143 C141 1.380 . S
C143 C144 1.391 . S
C143 H153 0.930 . S
C144 C143 1.391 . S
C144 C146 1.387 . S
C145 C142 1.398 . S
C145 C146 1.380 . S
C145 H154 0.930 . S
C146 C144 1.387 . S
C146 C145 1.380 . S
C146 H155 0.930 1_556 S
C147 O124 1.254 . S
C147 O125 1.268 1_545 S
H148 C133 0.930 . S
H149 C134 0.930 1_455 S
H150 C136 0.930 . S
H151 C137 0.930 . S
H152 C142 0.930 . S
H153 C143 0.930 . S
H154 C145 0.930 . S
H155 C146 0.930 1_554 S
Gd156 N187 2.661 . S
Gd156 N193 2.601 . S
Gd156 O200 2.545 . S
Gd156 O201 2.606 1_565 S
Gd156 O203 2.429 . S
Gd156 O204 2.545 1_565 S
Gd156 O205 2.412 . S
Gd156 O207 2.362 . S
Gd156 O208 2.324 1_565 S
Gd156 C215 2.828 . S
Gd157 N166 2.661 . S
Gd157 N170 2.601 . S
Gd157 O201 2.362 . S
Gd157 O202 2.324 1_545 S
Gd157 O206 2.545 . S
Gd157 O207 2.606 1_545 S
Gd157 O209 2.429 . S
Gd157 O210 2.545 . S
Gd157 O211 2.412 . S
Gd157 C224 2.828 . S
C158 C161 1.417 . S
C158 C163 1.431 1_556 S
C158 C164 1.412 1_556 S
C159 C162 1.437 . S
C159 C163 1.317 1_556 S
C159 H178 0.929 1_556 S
C160 C161 1.426 . S
C160 C162 1.413 . S
C160 N170 1.359 . S
C161 C158 1.417 . S
C161 C160 1.426 . S
C161 N166 1.350 . S
C162 C159 1.437 . S
C162 C160 1.413 . S
C162 C172 1.391 . S
C163 C158 1.431 1_554 S
C163 C159 1.317 1_554 S
C163 H174 0.930 . S
C164 C158 1.412 1_554 S
C164 C165 1.355 1_554 S
C164 H176 0.930 . S
C165 C164 1.355 1_556 S
C165 C167 1.402 . S
C165 H177 0.930 1_546 S
N166 Gd157 2.661 . S
N166 C161 1.350 . S
N166 C167 1.307 . S
C167 C165 1.402 . S
C167 N166 1.307 . S
C167 H168 0.930 1_545 S
H168 C167 0.930 1_565 S
C169 N170 1.334 . S
C169 C171 1.394 . S
C169 H173 0.930 . S
N170 Gd157 2.601 . S
N170 C160 1.359 . S
N170 C169 1.334 . S
C171 C169 1.394 . S
C171 C172 1.359 . S
C171 H183 0.930 . S
C172 C162 1.391 . S
C172 C171 1.359 . S
C172 H184 0.929 . S
H173 C169 0.930 . S
H174 C163 0.930 . S
H175 C192 0.961 . S
H176 C164 0.930 . S
H177 C165 0.930 1_564 S
H178 C159 0.929 1_554 S
H179 C197 0.930 . S
H180 C188 0.930 . S
H181 C189 0.917 1_545 S
H182 C213 0.929 . S
H183 C171 0.930 . S
H184 C172 0.929 . S
H185 C214 0.930 . S
H186 C195 0.930 . S
N187 Gd156 2.661 . S
N187 C191 1.350 . S
N187 C192 1.280 1_565 S
C188 H180 0.930 . S
C188 C189 1.369 . S
C188 C190 1.412 . S
C189 H181 0.917 1_565 S
C189 C188 1.369 . S
C189 C192 1.401 1_565 S
C190 C188 1.412 . S
C190 C191 1.417 . S
C190 C214 1.431 . S
C191 N187 1.350 . S
C191 C190 1.417 . S
C191 C194 1.426 . S
C192 H175 0.961 . S
C192 N187 1.280 1_545 S
C192 C189 1.401 1_545 S
N193 Gd156 2.601 . S
N193 C194 1.359 . S
N193 C197 1.334 . S
C194 C191 1.426 . S
C194 N193 1.359 . S
C194 C198 1.413 . S
C195 H186 0.930 . S
C195 C196 1.359 . S
C195 C197 1.394 . S
C196 C195 1.359 . S
C196 C198 1.391 . S
C196 H199 0.929 . S
C197 H179 0.930 . S
C197 N193 1.334 . S
C197 C195 1.394 . S
C198 C194 1.413 . S
C198 C196 1.391 . S
C198 C213 1.437 . S
H199 C196 0.929 . S
O200 Gd156 2.545 . S
O200 C215 1.258 . S
O201 Gd156 2.606 1_545 S
O201 Gd157 2.362 . S
O201 C212 1.284 . S
O202 Gd157 2.324 1_565 S
O202 C222 1.254 . S
O203 Gd156 2.429 . S
O203 C222 1.268 . S
O204 Gd156 2.545 1_545 S
O204 C212 1.250 . S
O205 Gd156 2.412 . S
O205 C215 1.252 . S
O206 Gd157 2.545 . S
O206 C224 1.258 . S
O207 Gd156 2.362 . S
O207 Gd157 2.606 1_565 S
O207 C223 1.284 . S
O208 Gd156 2.324 1_545 S
O208 C231 1.254 . S
O209 Gd157 2.429 . S
O209 C231 1.268 . S
O210 Gd157 2.545 . S
O210 C223 1.250 1_545 S
O211 Gd157 2.412 . S
O211 C224 1.252 . S
C212 O201 1.284 . S
C212 O204 1.250 . S
C213 H182 0.929 . S
C213 C198 1.437 . S
C213 C214 1.317 . S
C214 H185 0.930 . S
C214 C190 1.431 . S
C214 C213 1.317 . S
C215 Gd156 2.828 . S
C215 O200 1.258 . S
C215 O205 1.252 . S
C215 C216 1.497 . S
C216 C215 1.497 . S
C216 C217 1.395 . S
C216 C218 1.380 . S
C217 C216 1.395 . S
C217 C220 1.398 . S
C217 H232 0.930 . S
C218 C216 1.380 . S
C218 C219 1.391 . S
C218 H233 0.930 1_565 S
C219 C218 1.391 . S
C219 C221 1.387 . S
C220 C217 1.398 . S
C220 C221 1.380 . S
C220 H234 0.930 . S
C221 C219 1.387 . S
C221 C220 1.380 . S
C221 H235 0.930 . S
C222 O202 1.254 . S
C222 O203 1.268 . S
C223 O207 1.284 . S
C223 O210 1.250 1_565 S
C224 Gd157 2.828 . S
C224 O206 1.258 . S
C224 O211 1.252 . S
C224 C225 1.497 . S
C225 C224 1.497 . S
C225 C226 1.395 . S
C225 C227 1.380 . S
C226 C225 1.395 . S
C226 C229 1.398 . S
C226 H236 0.930 . S
C227 C225 1.380 . S
C227 C228 1.391 . S
C227 H237 0.930 . S
C228 C227 1.391 . S
C228 C230 1.387 . S
C229 C226 1.398 . S
C229 C230 1.380 . S
C229 H238 0.930 . S
C230 C228 1.387 . S
C230 C229 1.380 . S
C230 H239 0.930 1_556 S
C231 O208 1.254 . S
C231 O209 1.268 . S
H232 C217 0.930 . S
H233 C218 0.930 1_545 S
H234 C220 0.930 . S
H235 C221 0.930 . S
H236 C226 0.930 . S
H237 C227 0.930 . S
H238 C229 0.930 . S
H239 C230 0.930 1_554 S
Gd240 N271 2.661 . S
Gd240 N277 2.601 . S
Gd240 O284 2.545 . S
Gd240 O285 2.606 . S
Gd240 O287 2.429 . S
Gd240 O288 2.545 . S
Gd240 O289 2.412 . S
Gd240 O291 2.362 . S
Gd240 O292 2.324 . S
Gd240 C299 2.828 . S
Gd241 N250 2.661 . S
Gd241 N254 2.601 . S
Gd241 O285 2.362 . S
Gd241 O286 2.324 . S
Gd241 O290 2.545 . S
Gd241 O291 2.606 . S
Gd241 O293 2.429 . S
Gd241 O294 2.545 . S
Gd241 O295 2.412 . S
Gd241 C308 2.828 . S
C242 C245 1.417 . S
C242 C247 1.431 . S
C242 C248 1.412 . S
C243 C246 1.437 . S
C243 C247 1.317 . S
C243 H262 0.929 . S
C244 C245 1.426 . S
C244 C246 1.413 . S
C244 N254 1.359 . S
C245 C242 1.417 . S
C245 C244 1.426 . S
C245 N250 1.350 . S
C246 C243 1.437 . S
C246 C244 1.413 . S
C246 C256 1.391 . S
C247 C242 1.431 . S
C247 C243 1.317 . S
C247 H258 0.930 . S
C248 C242 1.412 . S
C248 C249 1.355 . S
C248 H260 0.930 . S
C249 C248 1.355 . S
C249 C251 1.402 . S
C249 H261 0.930 . S
N250 Gd241 2.661 . S
N250 C245 1.350 . S
N250 C251 1.307 . S
C251 C249 1.402 . S
C251 N250 1.307 . S
C251 H252 0.930 . S
H252 C251 0.930 . S
C253 N254 1.334 . S
C253 C255 1.394 . S
C253 H257 0.930 . S
N254 Gd241 2.601 . S
N254 C244 1.359 . S
N254 C253 1.334 . S
C255 C253 1.394 . S
C255 C256 1.359 . S
C255 H267 0.930 . S
C256 C246 1.391 . S
C256 C255 1.359 . S
C256 H268 0.929 . S
H257 C253 0.930 . S
H258 C247 0.930 . S
H259 C276 0.930 . S
H260 C248 0.930 . S
H261 C249 0.930 . S
H262 C243 0.929 . S
H263 C281 0.930 . S
H264 C272 0.930 . S
H265 C273 0.930 . S
H266 C297 0.929 . S
H267 C255 0.930 . S
H268 C256 0.929 . S
H269 C298 0.930 . S
H270 C279 0.930 . S
N271 Gd240 2.661 . S
N271 C275 1.350 . S
N271 C276 1.307 . S
C272 H264 0.930 . S
C272 C273 1.355 . S
C272 C274 1.412 . S
C273 H265 0.930 . S
C273 C272 1.355 . S
C273 C276 1.402 . S
C274 C272 1.412 . S
C274 C275 1.417 . S
C274 C298 1.431 . S
C275 N271 1.350 . S
C275 C274 1.417 . S
C275 C278 1.426 . S
C276 H259 0.930 . S
C276 N271 1.307 . S
C276 C273 1.402 . S
N277 Gd240 2.601 . S
N277 C278 1.359 . S
N277 C281 1.334 . S
C278 C275 1.426 . S
C278 N277 1.359 . S
C278 C282 1.413 . S
C279 H270 0.930 . S
C279 C280 1.359 . S
C279 C281 1.394 . S
C280 C279 1.359 . S
C280 C282 1.391 . S
C280 H283 0.929 . S
C281 H263 0.930 . S
C281 N277 1.334 . S
C281 C279 1.394 . S
C282 C278 1.413 . S
C282 C280 1.391 . S
C282 C297 1.437 . S
H283 C280 0.929 . S
O284 Gd240 2.545 . S
O284 C299 1.258 . S
O285 Gd240 2.606 . S
O285 Gd241 2.362 . S
O285 C296 1.284 . S
O286 Gd241 2.324 . S
O286 C306 1.254 . S
O287 Gd240 2.429 . S
O287 C306 1.268 . S
O288 Gd240 2.545 . S
O288 C296 1.250 . S
O289 Gd240 2.412 . S
O289 C299 1.252 . S
O290 Gd241 2.545 . S
O290 C308 1.258 . S
O291 Gd240 2.362 . S
O291 Gd241 2.606 . S
O291 C307 1.284 . S
O292 Gd240 2.324 . S
O292 C315 1.254 . S
O293 Gd241 2.429 . S
O293 C315 1.268 . S
O294 Gd241 2.545 . S
O294 C307 1.250 . S
O295 Gd241 2.412 . S
O295 C308 1.252 . S
C296 O285 1.284 . S
C296 O288 1.250 . S
C297 H266 0.929 . S
C297 C282 1.437 . S
C297 C298 1.317 . S
C298 H269 0.930 . S
C298 C274 1.431 . S
C298 C297 1.317 . S
C299 Gd240 2.828 . S
C299 O284 1.258 . S
C299 O289 1.252 . S
C299 C300 1.497 . S
C300 C299 1.497 . S
C300 C301 1.395 1_556 S
C300 C302 1.380 . S
C301 C300 1.395 1_554 S
C301 C304 1.398 . S
C301 H316 0.930 . S
C302 C300 1.380 . S
C302 C303 1.391 1_556 S
C302 H317 0.930 . S
C303 C302 1.391 1_554 S
C303 C305 1.387 . S
C304 C301 1.398 . S
C304 C305 1.380 . S
C304 H318 0.930 . S
C305 C303 1.387 . S
C305 C304 1.380 . S
C305 H319 0.930 . S
C306 O286 1.254 . S
C306 O287 1.268 . S
C307 O291 1.284 . S
C307 O294 1.250 . S
C308 Gd241 2.828 . S
C308 O290 1.258 . S
C308 O295 1.252 . S
C308 C309 1.497 . S
C309 C308 1.497 . S
C309 C310 1.395 . S
C309 C311 1.380 . S
C310 C309 1.395 . S
C310 C313 1.398 . S
C310 H320 0.930 . S
C311 C309 1.380 . S
C311 C312 1.391 . S
C311 H321 0.930 . S
C312 C311 1.391 . S
C312 C314 1.387 . S
C313 C310 1.398 . S
C313 C314 1.380 . S
C313 H322 0.930 . S
C314 C312 1.387 . S
C314 C313 1.380 . S
C314 H323 0.930 . S
C315 O292 1.254 . S
C315 O293 1.268 . S
H316 C301 0.930 . S
H317 C302 0.930 . S
H318 C304 0.930 . S
H319 C305 0.930 . S
H320 C310 0.930 . S
H321 C311 0.930 . S
H322 C313 0.930 . S
H323 C314 0.930 . S
Gd324 N355 2.661 . S
Gd324 N361 2.601 . S
Gd324 O368 2.545 . S
Gd324 O369 2.615 . S
Gd324 O371 2.429 1_655 S
Gd324 O372 2.545 . S
Gd324 O373 2.412 . S
Gd324 O375 2.362 1_655 S
Gd324 O376 2.324 . S
Gd324 C383 2.828 . S
Gd325 N334 2.661 . S
Gd325 N338 2.601 . S
Gd325 O369 2.347 1_455 S
Gd325 O370 2.324 . S
Gd325 O374 2.545 . S
Gd325 O375 2.606 . S
Gd325 O377 2.429 1_455 S
Gd325 O378 2.545 . S
Gd325 O379 2.412 . S
Gd325 C392 2.828 . S
C326 C329 1.417 . S
C326 C331 1.431 . S
C326 C332 1.412 . S
C327 C330 1.437 . S
C327 C331 1.317 . S
C327 H346 0.929 . S
C328 C329 1.426 . S
C328 C330 1.413 . S
C328 N338 1.359 . S
C329 C326 1.417 . S
C329 C328 1.426 . S
C329 N334 1.350 . S
C330 C327 1.437 . S
C330 C328 1.413 . S
C330 C340 1.391 . S
C331 C326 1.431 . S
C331 C327 1.317 . S
C331 H342 0.930 . S
C332 C326 1.412 . S
C332 C333 1.355 . S
C332 H344 0.930 . S
C333 C332 1.355 . S
C333 C335 1.402 . S
C333 H345 0.930 . S
N334 Gd325 2.661 . S
N334 C329 1.350 . S
N334 C335 1.307 . S
C335 C333 1.402 . S
C335 N334 1.307 . S
C335 H336 0.930 . S
H336 C335 0.930 . S
C337 N338 1.334 1_655 S
C337 C339 1.394 . S
C337 H341 0.930 . S
N338 Gd325 2.601 . S
N338 C328 1.359 . S
N338 C337 1.334 1_455 S
C339 C337 1.394 . S
C339 C340 1.359 1_655 S
C339 H351 0.930 . S
C340 C330 1.391 . S
C340 C339 1.359 1_455 S
C340 H352 0.929 . S
H341 C337 0.930 . S
H342 C331 0.930 . S
H343 C360 0.930 . S
H344 C332 0.930 . S
H345 C333 0.930 . S
H346 C327 0.929 . S
H347 C365 0.930 . S
H348 C356 0.930 . S
H349 C357 0.930 . S
H350 C381 0.929 . S
H351 C339 0.930 . S
H352 C340 0.929 . S
H353 C382 0.930 . S
H354 C363 0.930 . S
N355 Gd324 2.661 . S
N355 C359 1.350 . S
N355 C360 1.307 . S
C356 H348 0.930 . S
C356 C357 1.355 . S
C356 C358 1.412 . S
C357 H349 0.930 . S
C357 C356 1.355 . S
C357 C360 1.402 . S
C358 C356 1.412 . S
C358 C359 1.417 . S
C358 C382 1.431 . S
C359 N355 1.350 . S
C359 C358 1.417 . S
C359 C362 1.426 . S
C360 H343 0.930 . S
C360 N355 1.307 . S
C360 C357 1.402 . S
N361 Gd324 2.601 . S
N361 C362 1.359 . S
N361 C365 1.334 1_655 S
C362 C359 1.426 . S
C362 N361 1.359 . S
C362 C366 1.413 . S
C363 H354 0.930 . S
C363 C364 1.359 . S
C363 C365 1.394 . S
C364 C363 1.359 . S
C364 C366 1.391 1_455 S
C364 H367 0.929 . S
C365 H347 0.930 . S
C365 N361 1.334 1_455 S
C365 C363 1.394 . S
C366 C362 1.413 . S
C366 C364 1.391 1_655 S
C366 C381 1.437 . S
H367 C364 0.929 . S
O368 Gd324 2.545 . S
O368 C383 1.258 . S
O369 Gd324 2.615 . S
O369 Gd325 2.347 1_655 S
O369 C380 1.296 . S
O370 Gd325 2.324 . S
O370 C390 1.254 . S
O371 Gd324 2.429 1_455 S
O371 C390 1.268 . S
O372 Gd324 2.545 . S
O372 C380 1.250 . S
O373 Gd324 2.412 . S
O373 C383 1.252 . S
O374 Gd325 2.545 . S
O374 C392 1.258 . S
O375 Gd324 2.362 1_455 S
O375 Gd325 2.606 . S
O375 C391 1.284 . S
O376 Gd324 2.324 . S
O376 C399 1.254 . S
O377 Gd325 2.429 1_655 S
O377 C399 1.268 . S
O378 Gd325 2.545 . S
O378 C391 1.250 . S
O379 Gd325 2.412 . S
O379 C392 1.252 . S
C380 O369 1.296 . S
C380 O372 1.250 . S
C381 H350 0.929 . S
C381 C366 1.437 . S
C381 C382 1.317 . S
C382 H353 0.930 . S
C382 C358 1.431 . S
C382 C381 1.317 . S
C383 Gd324 2.828 . S
C383 O368 1.258 . S
C383 O373 1.252 . S
C383 C384 1.497 . S
C384 C383 1.497 . S
C384 C385 1.395 1_556 S
C384 C386 1.380 . S
C385 C384 1.395 1_554 S
C385 C388 1.398 . S
C385 H400 0.930 . S
C386 C384 1.380 . S
C386 C387 1.391 1_556 S
C386 H401 0.930 . S
C387 C386 1.391 1_554 S
C387 C389 1.387 . S
C388 C385 1.398 . S
C388 C389 1.380 . S
C388 H402 0.930 . S
C389 C387 1.387 . S
C389 C388 1.380 . S
C389 H403 0.930 . S
C390 O370 1.254 . S
C390 O371 1.268 . S
C391 O375 1.284 . S
C391 O378 1.250 . S
C392 Gd325 2.828 . S
C392 O374 1.258 . S
C392 O379 1.252 . S
C392 C393 1.497 . S
C393 C392 1.497 . S
C393 C394 1.395 . S
C393 C395 1.380 . S
C394 C393 1.395 . S
C394 C397 1.398 . S
C394 H404 0.930 . S
C395 C393 1.380 . S
C395 C396 1.391 . S
C395 H405 0.930 . S
C396 C395 1.391 . S
C396 C398 1.387 . S
C397 C394 1.398 . S
C397 C398 1.380 . S
C397 H406 0.930 . S
C398 C396 1.387 . S
C398 C397 1.380 . S
C398 H407 0.930 . S
C399 O376 1.254 . S
C399 O377 1.268 . S
H400 C385 0.930 . S
H401 C386 0.930 . S
H402 C388 0.930 . S
H403 C389 0.930 . S
H404 C394 0.930 . S
H405 C395 0.930 . S
H406 C397 0.930 . S
H407 C398 0.930 . S
H408 C420 0.930 . S
H409 C422 0.930 . S
H410 C423 0.930 . S
H411 C427 0.959 . S
H412 C427 0.959 1_565 S
H413 C427 0.961 1_565 S
H414 C428 0.960 . S
H415 C428 0.961 . S
H416 C428 0.959 . S
H417 C431 0.929 . S
H418 C432 0.931 . S
H419 C434 0.930 1_565 S
C420 H408 0.930 . S
C420 C421 1.399 . S
C420 C425 1.399 . S
C421 C420 1.399 . S
C421 C422 1.376 . S
C422 H409 0.930 . S
C422 C421 1.376 . S
C422 C423 1.388 . S
C423 H410 0.930 . S
C423 C422 1.388 . S
C423 C424 1.390 . S
C424 C423 1.390 . S
C424 C425 1.394 . S
C424 C430 1.465 . S
C425 C420 1.399 . S
C425 C424 1.394 . S
C425 C426 1.516 . S
C426 C425 1.516 . S
C426 C427 1.502 . S
C426 C428 1.561 1_545 S
C426 C429 1.526 . S
C427 H411 0.959 . S
C427 H412 0.959 1_545 S
C427 H413 0.961 1_545 S
C427 C426 1.502 . S
C428 H414 0.960 . S
C428 H415 0.961 . S
C428 H416 0.959 . S
C428 C426 1.561 1_565 S
C429 C426 1.526 . S
C429 C430 1.396 . S
C429 C434 1.390 . S
C430 C424 1.465 . S
C430 C429 1.396 . S
C430 C431 1.399 . S
C431 H417 0.929 . S
C431 C430 1.399 . S
C431 C432 1.385 . S
C432 H418 0.931 . S
C432 C431 1.385 . S
C432 C433 1.389 . S
C433 C432 1.389 . S
C433 C434 1.387 . S
C434 H419 0.930 1_545 S
C434 C429 1.390 . S
C434 C433 1.387 . S
H435 C447 0.930 . S
H436 C449 0.930 . S
H437 C450 0.930 . S
H438 C454 0.959 . S
H439 C454 0.959 . S
H440 C454 0.961 . S
H441 C455 0.960 . S
H442 C455 0.961 . S
H443 C455 0.959 . S
H444 C458 0.929 . S
H445 C459 0.931 . S
H446 C461 0.930 . S
C447 H435 0.930 . S
C447 C448 1.399 . S
C447 C452 1.399 . S
C448 C447 1.399 . S
C448 C449 1.376 . S
C449 H436 0.930 . S
C449 C448 1.376 . S
C449 C450 1.388 . S
C450 H437 0.930 . S
C450 C449 1.388 . S
C450 C451 1.390 . S
C451 C450 1.390 . S
C451 C452 1.394 . S
C451 C457 1.465 . S
C452 C447 1.399 . S
C452 C451 1.394 . S
C452 C453 1.516 . S
C453 C452 1.516 . S
C453 C454 1.502 . S
C453 C455 1.561 . S
C453 C456 1.526 . S
C454 H438 0.959 . S
C454 H439 0.959 . S
C454 H440 0.961 . S
C454 C453 1.502 . S
C455 H441 0.960 . S
C455 H442 0.961 . S
C455 H443 0.959 . S
C455 C453 1.561 . S
C456 C453 1.526 . S
C456 C457 1.396 . S
C456 C461 1.390 . S
C457 C451 1.465 . S
C457 C456 1.396 . S
C457 C458 1.399 . S
C458 H444 0.929 . S
C458 C457 1.399 . S
C458 C459 1.385 . S
C459 H445 0.931 . S
C459 C458 1.385 . S
C459 C460 1.389 . S
C460 C459 1.389 . S
C460 C461 1.387 . S
C461 H446 0.930 . S
C461 C456 1.390 . S
C461 C460 1.387 . S
H462 C474 0.930 . S
H463 C476 0.930 . S
H464 C477 0.930 . S
H465 C481 0.959 . S
H466 C481 0.959 . S
H467 C481 0.961 . S
H468 C482 0.960 . S
H469 C482 0.961 . S
H470 C482 0.959 . S
H471 C485 0.929 . S
H472 C486 0.931 . S
H473 C488 0.930 . S
C474 H462 0.930 . S
C474 C475 1.399 . S
C474 C479 1.399 . S
C475 C474 1.399 . S
C475 C476 1.376 . S
C476 H463 0.930 . S
C476 C475 1.376 . S
C476 C477 1.388 . S
C477 H464 0.930 . S
C477 C476 1.388 . S
C477 C478 1.390 . S
C478 C477 1.390 . S
C478 C479 1.394 . S
C478 C484 1.465 . S
C479 C474 1.399 . S
C479 C478 1.394 . S
C479 C480 1.516 . S
C480 C479 1.516 . S
C480 C481 1.502 . S
C480 C482 1.561 . S
C480 C483 1.526 . S
C481 H465 0.959 . S
C481 H466 0.959 . S
C481 H467 0.961 . S
C481 C480 1.502 . S
C482 H468 0.960 . S
C482 H469 0.961 . S
C482 H470 0.959 . S
C482 C480 1.561 . S
C483 C480 1.526 . S
C483 C484 1.396 . S
C483 C488 1.390 . S
C484 C478 1.465 . S
C484 C483 1.396 . S
C484 C485 1.399 . S
C485 H471 0.929 . S
C485 C484 1.399 . S
C485 C486 1.385 . S
C486 H472 0.931 . S
C486 C485 1.385 . S
C486 C487 1.389 . S
C487 C486 1.389 . S
C487 C488 1.387 . S
C488 H473 0.930 . S
C488 C483 1.390 . S
C488 C487 1.387 . S
H489 C501 0.930 . S
H490 C503 0.930 . S
H491 C504 0.930 . S
H492 C508 0.959 . S
H493 C508 0.959 . S
H494 C508 0.961 . S
H495 C509 0.960 . S
H496 C509 0.961 . S
H497 C509 0.959 . S
H498 C512 0.929 . S
H499 C513 0.931 . S
H500 C515 0.930 . S
C501 H489 0.930 . S
C501 C502 1.399 . S
C501 C506 1.399 . S
C502 C501 1.399 . S
C502 C503 1.376 . S
C503 H490 0.930 . S
C503 C502 1.376 . S
C503 C504 1.388 . S
C504 H491 0.930 . S
C504 C503 1.388 . S
C504 C505 1.390 . S
C505 C504 1.390 . S
C505 C506 1.394 . S
C505 C511 1.465 . S
C506 C501 1.399 . S
C506 C505 1.394 . S
C506 C507 1.516 . S
C507 C506 1.516 . S
C507 C508 1.502 1_455 S
C507 C509 1.561 . S
C507 C510 1.526 . S
C508 H492 0.959 . S
C508 H493 0.959 . S
C508 H494 0.961 . S
C508 C507 1.502 1_655 S
C509 H495 0.960 . S
C509 H496 0.961 . S
C509 H497 0.959 . S
C509 C507 1.561 . S
C510 C507 1.526 . S
C510 C511 1.396 . S
C510 C515 1.390 . S
C511 C505 1.465 . S
C511 C510 1.396 . S
C511 C512 1.399 . S
C512 H498 0.929 . S
C512 C511 1.399 . S
C512 C513 1.385 . S
C513 H499 0.931 . S
C513 C512 1.385 . S
C513 C514 1.389 . S
C514 C513 1.389 . S
C514 C515 1.387 . S
C515 H500 0.930 . S
C515 C510 1.390 . S
C515 C514 1.387 . S
H516 C528 0.930 . S
H517 C530 0.930 . S
H518 C531 0.930 . S
H519 C535 0.963 . S
H520 C535 0.963 . S
H521 C535 0.956 1_554 S
H522 C536 0.960 . S
H523 C536 0.961 . S
H524 C536 0.959 . S
H525 C539 0.929 . S
H526 C540 0.931 . S
H527 C542 0.930 . S
C528 H516 0.930 . S
C528 C529 1.399 . S
C528 C533 1.399 . S
C529 C528 1.399 . S
C529 C530 1.376 . S
C530 H517 0.930 . S
C530 C529 1.376 . S
C530 C531 1.388 . S
C531 H518 0.930 . S
C531 C530 1.388 . S
C531 C532 1.390 . S
C532 C531 1.390 . S
C532 C533 1.394 . S
C532 C538 1.465 1_554 S
C533 C528 1.399 . S
C533 C532 1.394 . S
C533 C534 1.516 1_565 S
C534 C533 1.516 1_545 S
C534 C535 1.499 1_554 S
C534 C536 1.561 . S
C534 C537 1.526 1_544 S
C535 H519 0.963 . S
C535 H520 0.963 . S
C535 H521 0.956 1_556 S
C535 C534 1.499 1_556 S
C536 H522 0.960 . S
C536 H523 0.961 . S
C536 H524 0.959 . S
C536 C534 1.561 . S
C537 C534 1.526 1_566 S
C537 C538 1.396 . S
C537 C542 1.390 1_565 S
C538 C532 1.465 1_556 S
C538 C537 1.396 . S
C538 C539 1.399 . S
C539 H525 0.929 . S
C539 C538 1.399 . S
C539 C540 1.385 . S
C540 H526 0.931 . S
C540 C539 1.385 . S
C540 C541 1.389 . S
C541 C540 1.389 . S
C541 C542 1.387 1_565 S
C542 H527 0.930 . S
C542 C537 1.390 1_545 S
C542 C541 1.387 1_545 S
H543 C555 0.930 . S
H544 C557 0.930 . S
H545 C558 0.930 . S
H546 C562 0.959 . S
H547 C562 0.959 . S
H548 C562 0.961 1_554 S
H549 C563 0.960 . S
H550 C563 0.961 . S
H551 C563 0.959 . S
H552 C566 0.929 . S
H553 C567 0.931 . S
H554 C569 0.930 . S
C555 H543 0.930 . S
C555 C556 1.399 . S
C555 C560 1.399 . S
C556 C555 1.399 . S
C556 C557 1.376 . S
C557 H544 0.930 . S
C557 C556 1.376 . S
C557 C558 1.388 . S
C558 H545 0.930 . S
C558 C557 1.388 . S
C558 C559 1.390 . S
C559 C558 1.390 . S
C559 C560 1.394 . S
C559 C565 1.465 1_554 S
C560 C555 1.399 . S
C560 C559 1.394 . S
C560 C561 1.516 . S
C561 C560 1.516 . S
C561 C562 1.502 1_554 S
C561 C563 1.561 . S
C561 C564 1.526 1_554 S
C562 H546 0.959 . S
C562 H547 0.959 . S
C562 H548 0.961 1_556 S
C562 C561 1.502 1_556 S
C563 H549 0.960 . S
C563 H550 0.961 . S
C563 H551 0.959 . S
C563 C561 1.561 . S
C564 C561 1.526 1_556 S
C564 C565 1.396 . S
C564 C569 1.390 . S
C565 C559 1.465 1_556 S
C565 C564 1.396 . S
C565 C566 1.399 . S
C566 H552 0.929 . S
C566 C565 1.399 . S
C566 C567 1.385 . S
C567 H553 0.931 . S
C567 C566 1.385 . S
C567 C568 1.389 . S
C568 C567 1.389 . S
C568 C569 1.387 . S
C569 H554 0.930 . S
C569 C564 1.390 . S
C569 C568 1.387 . S
H570 C582 0.930 . S
H571 C584 0.930 . S
H572 C585 0.930 . S
H573 C589 0.959 . S
H574 C589 0.959 . S
H575 C589 0.961 1_554 S
H576 C590 0.960 . S
H577 C590 0.961 . S
H578 C590 0.959 . S
H579 C593 0.929 . S
H580 C594 0.931 . S
H581 C596 0.930 . S
C582 H570 0.930 . S
C582 C583 1.399 . S
C582 C587 1.399 . S
C583 C582 1.399 . S
C583 C584 1.376 . S
C584 H571 0.930 . S
C584 C583 1.376 . S
C584 C585 1.388 . S
C585 H572 0.930 . S
C585 C584 1.388 . S
C585 C586 1.390 . S
C586 C585 1.390 . S
C586 C587 1.394 . S
C586 C592 1.465 1_554 S
C587 C582 1.399 . S
C587 C586 1.394 . S
C587 C588 1.516 . S
C588 C587 1.516 . S
C588 C589 1.502 1_554 S
C588 C590 1.561 . S
C588 C591 1.526 1_554 S
C589 H573 0.959 . S
C589 H574 0.959 . S
C589 H575 0.961 1_556 S
C589 C588 1.502 1_556 S
C590 H576 0.960 . S
C590 H577 0.961 . S
C590 H578 0.959 . S
C590 C588 1.561 . S
C591 C588 1.526 1_556 S
C591 C592 1.396 . S
C591 C596 1.390 . S
C592 C586 1.465 1_556 S
C592 C591 1.396 . S
C592 C593 1.399 . S
C593 H579 0.929 . S
C593 C592 1.399 . S
C593 C594 1.385 . S
C594 H580 0.931 . S
C594 C593 1.385 . S
C594 C595 1.389 . S
C595 C594 1.389 . S
C595 C596 1.387 . S
C596 H581 0.930 . S
C596 C591 1.390 . S
C596 C595 1.387 . S
H597 C609 0.930 . S
H598 C611 0.930 . S
H599 C612 0.930 . S
H600 C616 0.959 . S
H601 C616 0.959 . S
H602 C616 0.961 . S
H603 C617 0.960 . S
H604 C617 0.961 . S
H605 C617 0.959 . S
H606 C620 0.929 1_454 S
H607 C621 0.911 1_455 S
H608 C623 0.930 . S
C609 H597 0.930 . S
C609 C610 1.399 . S
C609 C614 1.399 . S
C610 C609 1.399 . S
C610 C611 1.376 . S
C611 H598 0.930 . S
C611 C610 1.376 . S
C611 C612 1.388 . S
C612 H599 0.930 . S
C612 C611 1.388 . S
C612 C613 1.390 . S
C613 C612 1.390 . S
C613 C614 1.394 . S
C613 C619 1.465 . S
C614 C609 1.399 . S
C614 C613 1.394 . S
C614 C615 1.516 1_554 S
C615 C614 1.516 1_556 S
C615 C616 1.502 . S
C615 C617 1.561 . S
C615 C618 1.526 . S
C616 H600 0.959 . S
C616 H601 0.959 . S
C616 H602 0.961 . S
C616 C615 1.502 . S
C617 H603 0.960 . S
C617 H604 0.961 . S
C617 H605 0.959 . S
C617 C615 1.561 . S
C618 C615 1.526 . S
C618 C619 1.396 1_556 S
C618 C623 1.390 . S
C619 C613 1.465 . S
C619 C618 1.396 1_554 S
C619 C620 1.399 1_554 S
C620 H606 0.929 1_656 S
C620 C619 1.399 1_556 S
C620 C621 1.388 . S
C621 H607 0.911 1_655 S
C621 C620 1.388 . S
C621 C622 1.407 . S
C622 C621 1.407 . S
C622 C623 1.387 . S
C623 H608 0.930 . S
C623 C618 1.390 . S
C623 C622 1.387 . S
H624 C636 0.930 . S
H625 C638 0.930 . S
H626 C639 0.930 1_655 S
H627 C643 0.959 . S
H628 C643 0.959 . S
H629 C643 0.961 . S
H630 C644 0.960 . S
H631 C644 0.961 . S
H632 C644 0.959 . S
H633 C647 0.929 . S
H634 C648 0.931 . S
H635 C650 0.930 . S
C636 H624 0.930 . S
C636 C637 1.399 . S
C636 C641 1.399 . S
C637 C636 1.399 . S
C637 C638 1.376 . S
C638 H625 0.930 . S
C638 C637 1.376 . S
C638 C639 1.388 . S
C639 H626 0.930 1_455 S
C639 C638 1.388 . S
C639 C640 1.390 . S
C640 C639 1.390 . S
C640 C641 1.394 . S
C640 C646 1.465 . S
C641 C636 1.399 . S
C641 C640 1.394 . S
C641 C642 1.516 . S
C642 C641 1.516 . S
C642 C643 1.502 . S
C642 C644 1.561 . S
C642 C645 1.526 . S
C643 H627 0.959 . S
C643 H628 0.959 . S
C643 H629 0.961 . S
C643 C642 1.502 . S
C644 H630 0.960 . S
C644 H631 0.961 . S
C644 H632 0.959 . S
C644 C642 1.561 . S
C645 C642 1.526 . S
C645 C646 1.396 . S
C645 C650 1.390 . S
C646 C640 1.465 . S
C646 C645 1.396 . S
C646 C647 1.399 1_455 S
C647 H633 0.929 . S
C647 C646 1.399 1_655 S
C647 C648 1.385 . S
C648 H634 0.931 . S
C648 C647 1.385 . S
C648 C649 1.389 . S
C649 C648 1.389 . S
C649 C650 1.387 1_655 S
C650 H635 0.930 . S
C650 C645 1.390 . S
C650 C649 1.387 1_455 S
H651 C663 0.930 . S
H652 C665 0.930 . S
H653 C666 0.930 1_565 S
H654 C670 0.959 . S
H655 C670 0.959 . S
H656 C670 0.961 . S
H657 C671 0.960 . S
H658 C671 0.961 . S
H659 C671 0.959 . S
H660 C674 0.929 . S
H661 C675 0.931 . S
H662 C677 0.930 . S
C663 H651 0.930 . S
C663 C664 1.399 . S
C663 C668 1.399 . S
C664 C663 1.399 . S
C664 C665 1.376 . S
C665 H652 0.930 . S
C665 C664 1.376 . S
C665 C666 1.388 . S
C666 H653 0.930 1_545 S
C666 C665 1.388 . S
C666 C667 1.390 . S
C667 C666 1.390 . S
C667 C668 1.394 . S
C667 C673 1.465 . S
C668 C663 1.399 . S
C668 C667 1.394 . S
C668 C669 1.516 . S
C669 C668 1.516 . S
C669 C670 1.502 . S
C669 C671 1.561 . S
C669 C672 1.526 . S
C670 H654 0.959 . S
C670 H655 0.959 . S
C670 H656 0.961 . S
C670 C669 1.502 . S
C671 H657 0.960 . S
C671 H658 0.961 . S
C671 H659 0.959 . S
C671 C669 1.561 . S
C672 C669 1.526 . S
C672 C673 1.396 . S
C672 C677 1.390 . S
C673 C667 1.465 . S
C673 C672 1.396 . S
C673 C674 1.399 1_545 S
C674 H660 0.929 . S
C674 C673 1.399 1_565 S
C674 C675 1.385 . S
C675 H661 0.931 . S
C675 C674 1.385 . S
C675 C676 1.389 . S
C676 C675 1.389 . S
C676 C677 1.387 1_565 S
C677 H662 0.930 . S
C677 C672 1.390 . S
C677 C676 1.387 1_545 S
H678 C690 0.930 . S
H679 C692 0.930 . S
H680 C693 0.930 . S
H681 C697 0.959 . S
H682 C697 0.959 . S
H683 C697 0.961 . S
H684 C698 0.960 . S
H685 C698 0.961 . S
H686 C698 0.959 . S
H687 C701 0.929 . S
H688 C702 0.931 . S
H689 C704 0.930 . S
C690 H678 0.930 . S
C690 C691 1.399 . S
C690 C695 1.399 . S
C691 C690 1.399 . S
C691 C692 1.376 . S
C692 H679 0.930 . S
C692 C691 1.376 . S
C692 C693 1.388 . S
C693 H680 0.930 . S
C693 C692 1.388 . S
C693 C694 1.390 . S
C694 C693 1.390 . S
C694 C695 1.394 . S
C694 C700 1.465 . S
C695 C690 1.399 . S
C695 C694 1.394 . S
C695 C696 1.516 . S
C696 C695 1.516 . S
C696 C697 1.502 . S
C696 C698 1.561 . S
C696 C699 1.526 . S
C697 H681 0.959 . S
C697 H682 0.959 . S
C697 H683 0.961 . S
C697 C696 1.502 . S
C698 H684 0.960 . S
C698 H685 0.961 . S
C698 H686 0.959 . S
C698 C696 1.561 . S
C699 C696 1.526 . S
C699 C700 1.396 . S
C699 C704 1.390 . S
C700 C694 1.465 . S
C700 C699 1.396 . S
C700 C701 1.399 . S
C701 H687 0.929 . S
C701 C700 1.399 . S
C701 C702 1.385 . S
C702 H688 0.931 . S
C702 C701 1.385 . S
C702 C703 1.389 . S
C703 C702 1.389 . S
C703 C704 1.387 . S
C704 H689 0.930 . S
C704 C699 1.390 . S
C704 C703 1.387 . S
H705 C717 0.930 . S
H706 C719 0.930 . S
H707 C720 0.930 . S
H708 C724 0.959 . S
H709 C724 0.959 . S
H710 C724 0.961 . S
H711 C725 0.960 . S
H712 C725 0.961 . S
H713 C725 0.959 . S
H714 C728 0.929 . S
H715 C729 0.931 . S
H716 C731 0.930 . S
C717 H705 0.930 . S
C717 C718 1.399 . S
C717 C722 1.399 . S
C718 C717 1.399 . S
C718 C719 1.376 . S
C719 H706 0.930 . S
C719 C718 1.376 . S
C719 C720 1.388 . S
C720 H707 0.930 . S
C720 C719 1.388 . S
C720 C721 1.390 . S
C721 C720 1.390 . S
C721 C722 1.394 . S
C721 C727 1.465 . S
C722 C717 1.399 . S
C722 C721 1.394 . S
C722 C723 1.516 . S
C723 C722 1.516 . S
C723 C724 1.502 . S
C723 C725 1.561 . S
C723 C726 1.526 . S
C724 H708 0.959 . S
C724 H709 0.959 . S
C724 H710 0.961 . S
C724 C723 1.502 . S
C725 H711 0.960 . S
C725 H712 0.961 . S
C725 H713 0.959 . S
C725 C723 1.561 . S
C726 C723 1.526 . S
C726 C727 1.396 . S
C726 C731 1.390 . S
C727 C721 1.465 . S
C727 C726 1.396 . S
C727 C728 1.399 . S
C728 H714 0.929 . S
C728 C727 1.399 . S
C728 C729 1.385 . S
C729 H715 0.931 . S
C729 C728 1.385 . S
C729 C730 1.389 . S
C730 C729 1.389 . S
C730 C731 1.387 . S
C731 H716 0.930 . S
C731 C726 1.390 . S
C731 C730 1.387 . S
H732 C744 0.930 . S
H733 C746 0.930 . S
H734 C747 0.930 . S
H735 C751 0.959 . S
H736 C751 0.959 . S
H737 C751 0.961 . S
H738 C752 0.960 . S
H739 C752 0.961 . S
H740 C752 0.959 . S
H741 C755 0.929 . S
H742 C756 0.931 . S
H743 C758 0.930 . S
C744 H732 0.930 . S
C744 C745 1.399 . S
C744 C749 1.399 . S
C745 C744 1.399 . S
C745 C746 1.376 . S
C746 H733 0.930 . S
C746 C745 1.376 . S
C746 C747 1.388 . S
C747 H734 0.930 . S
C747 C746 1.388 . S
C747 C748 1.390 . S
C748 C747 1.390 . S
C748 C749 1.394 . S
C748 C754 1.465 . S
C749 C744 1.399 . S
C749 C748 1.394 . S
C749 C750 1.516 . S
C750 C749 1.516 . S
C750 C751 1.502 . S
C750 C752 1.561 1_655 S
C750 C753 1.526 . S
C751 H735 0.959 . S
C751 H736 0.959 . S
C751 H737 0.961 . S
C751 C750 1.502 . S
C752 H738 0.960 . S
C752 H739 0.961 . S
C752 H740 0.959 . S
C752 C750 1.561 1_455 S
C753 C750 1.526 . S
C753 C754 1.396 . S
C753 C758 1.390 1_655 S
C754 C748 1.465 . S
C754 C753 1.396 . S
C754 C755 1.399 1_554 S
C755 H741 0.929 . S
C755 C754 1.399 1_556 S
C755 C756 1.385 1_655 S
C756 H742 0.931 . S
C756 C755 1.385 1_455 S
C756 C757 1.389 . S
C757 C756 1.389 . S
C757 C758 1.387 1_556 S
C758 H743 0.930 . S
C758 C753 1.390 1_455 S
C758 C757 1.387 1_554 S
H759 C771 0.930 . S
H760 C773 0.930 . S
H761 C774 0.930 . S
H762 C778 0.959 . S
H763 C778 0.959 . S
H764 C778 0.961 . S
H765 C779 0.960 . S
H766 C779 0.961 . S
H767 C779 0.959 . S
H768 C782 0.929 . S
H769 C783 0.931 . S
H770 C785 0.930 . S
C771 H759 0.930 . S
C771 C772 1.399 . S
C771 C776 1.399 . S
C772 C771 1.399 . S
C772 C773 1.376 . S
C773 H760 0.930 . S
C773 C772 1.376 . S
C773 C774 1.388 . S
C774 H761 0.930 . S
C774 C773 1.388 . S
C774 C775 1.390 . S
C775 C774 1.390 . S
C775 C776 1.394 . S
C775 C781 1.465 . S
C776 C771 1.399 . S
C776 C775 1.394 . S
C776 C777 1.516 1_565 S
C777 C776 1.516 1_545 S
C777 C778 1.502 . S
C777 C779 1.561 . S
C777 C780 1.526 . S
C778 H762 0.959 . S
C778 H763 0.959 . S
C778 H764 0.961 . S
C778 C777 1.502 . S
C779 H765 0.960 . S
C779 H766 0.961 . S
C779 H767 0.959 . S
C779 C777 1.561 . S
C780 C777 1.526 . S
C780 C781 1.396 1_545 S
C780 C785 1.390 . S
C781 C775 1.465 . S
C781 C780 1.396 1_565 S
C781 C782 1.399 1_554 S
C782 H768 0.929 . S
C782 C781 1.399 1_556 S
C782 C783 1.385 . S
C783 H769 0.931 . S
C783 C782 1.385 . S
C783 C784 1.389 1_565 S
C784 C783 1.389 1_545 S
C784 C785 1.387 1_556 S
C785 H770 0.930 . S
C785 C780 1.390 . S
C785 C784 1.387 1_554 S
H786 C798 0.930 . S
H787 C800 0.930 . S
H788 C801 0.930 . S
H789 C805 0.959 . S
H790 C805 0.959 . S
H791 C805 0.961 . S
H792 C806 0.960 . S
H793 C806 0.961 . S
H794 C806 0.959 . S
H795 C809 0.929 . S
H796 C810 0.931 . S
H797 C812 0.930 . S
C798 H786 0.930 . S
C798 C799 1.399 . S
C798 C803 1.399 . S
C799 C798 1.399 . S
C799 C800 1.376 . S
C800 H787 0.930 . S
C800 C799 1.376 . S
C800 C801 1.388 . S
C801 H788 0.930 . S
C801 C800 1.388 . S
C801 C802 1.390 . S
C802 C801 1.390 . S
C802 C803 1.394 . S
C802 C808 1.465 . S
C803 C798 1.399 . S
C803 C802 1.394 . S
C803 C804 1.516 . S
C804 C803 1.516 . S
C804 C805 1.502 . S
C804 C806 1.561 . S
C804 C807 1.526 . S
C805 H789 0.959 . S
C805 H790 0.959 . S
C805 H791 0.961 . S
C805 C804 1.502 . S
C806 H792 0.960 . S
C806 H793 0.961 . S
C806 H794 0.959 . S
C806 C804 1.561 . S
C807 C804 1.526 . S
C807 C808 1.396 . S
C807 C812 1.390 . S
C808 C802 1.465 . S
C808 C807 1.396 . S
C808 C809 1.399 1_554 S
C809 H795 0.929 . S
C809 C808 1.399 1_556 S
C809 C810 1.385 . S
C810 H796 0.931 . S
C810 C809 1.385 . S
C810 C811 1.389 . S
C811 C810 1.389 . S
C811 C812 1.387 1_556 S
C812 H797 0.930 . S
C812 C807 1.390 . S
C812 C811 1.387 1_554 S
H813 C825 0.930 . S
H814 C827 0.930 . S
H815 C828 0.930 1_556 S
H816 C832 0.959 . S
H817 C832 0.959 . S
H818 C832 0.961 . S
H819 C833 0.960 . S
H820 C833 0.961 . S
H821 C833 0.959 . S
H822 C836 0.929 . S
H823 C837 0.931 . S
H824 C839 0.930 . S
C825 H813 0.930 . S
C825 C826 1.399 . S
C825 C830 1.399 . S
C826 C825 1.399 . S
C826 C827 1.376 . S
C827 H814 0.930 . S
C827 C826 1.376 . S
C827 C828 1.388 . S
C828 H815 0.930 1_554 S
C828 C827 1.388 . S
C828 C829 1.390 . S
C829 C828 1.390 . S
C829 C830 1.394 . S
C829 C835 1.465 . S
C830 C825 1.399 . S
C830 C829 1.394 . S
C830 C831 1.516 . S
C831 C830 1.516 . S
C831 C832 1.502 . S
C831 C833 1.561 . S
C831 C834 1.526 . S
C832 H816 0.959 . S
C832 H817 0.959 . S
C832 H818 0.961 . S
C832 C831 1.502 . S
C833 H819 0.960 . S
C833 H820 0.961 . S
C833 H821 0.959 . S
C833 C831 1.561 . S
C834 C831 1.526 . S
C834 C835 1.396 . S
C834 C839 1.390 . S
C835 C829 1.465 . S
C835 C834 1.396 . S
C835 C836 1.399 1_554 S
C836 H822 0.929 . S
C836 C835 1.399 1_556 S
C836 C837 1.385 . S
C837 H823 0.931 . S
C837 C836 1.385 . S
C837 C838 1.389 . S
C838 C837 1.389 . S
C838 C839 1.387 1_556 S
C839 H824 0.930 . S
C839 C834 1.390 . S
C839 C838 1.387 1_554 S
H840 C852 0.930 . S
H841 C854 0.930 . S
H842 C855 0.930 . S
H843 C859 0.959 . S
H844 C859 0.959 1_655 S
H845 C859 0.957 1_655 S
H846 C860 0.960 . S
H847 C860 0.961 . S
H848 C860 0.959 . S
H849 C863 0.929 . S
H850 C864 0.931 . S
H851 C866 0.930 . S
C852 H840 0.930 . S
C852 C853 1.399 . S
C852 C857 1.399 . S
C853 C852 1.399 . S
C853 C854 1.376 . S
C854 H841 0.930 . S
C854 C853 1.376 . S
C854 C855 1.388 . S
C855 H842 0.930 . S
C855 C854 1.388 . S
C855 C856 1.390 . S
C856 C855 1.390 . S
C856 C857 1.394 . S
C856 C862 1.465 . S
C857 C852 1.399 . S
C857 C856 1.394 . S
C857 C858 1.516 . S
C858 C857 1.516 . S
C858 C859 1.502 . S
C858 C860 1.561 1_455 S
C858 C861 1.526 . S
C859 H843 0.959 . S
C859 H844 0.959 1_455 S
C859 H845 0.957 1_455 S
C859 C858 1.502 . S
C860 H846 0.960 . S
C860 H847 0.961 . S
C860 H848 0.959 . S
C860 C858 1.561 1_655 S
C861 C858 1.526 . S
C861 C862 1.396 . S
C861 C866 1.390 . S
C862 C856 1.465 . S
C862 C861 1.396 . S
C862 C863 1.399 . S
C863 H849 0.929 . S
C863 C862 1.399 . S
C863 C864 1.385 . S
C864 H850 0.931 . S
C864 C863 1.385 . S
C864 C865 1.389 . S
C865 C864 1.389 . S
C865 C866 1.387 . S
C866 H851 0.930 . S
C866 C861 1.390 . S
C866 C865 1.387 . S
H867 C879 0.930 . S
H868 C881 0.930 . S
H869 C882 0.930 . S
H870 C886 0.959 . S
H871 C886 0.959 . S
H872 C886 0.961 . S
H873 C887 0.960 . S
H874 C887 0.961 . S
H875 C887 0.959 1_545 S
H876 C890 0.929 . S
H877 C891 0.931 . S
H878 C893 0.930 1_565 S
C879 H867 0.930 . S
C879 C880 1.399 . S
C879 C884 1.399 . S
C880 C879 1.399 . S
C880 C881 1.376 . S
C881 H868 0.930 . S
C881 C880 1.376 . S
C881 C882 1.388 . S
C882 H869 0.930 . S
C882 C881 1.388 . S
C882 C883 1.390 . S
C883 C882 1.390 . S
C883 C884 1.394 . S
C883 C889 1.465 . S
C884 C879 1.399 . S
C884 C883 1.394 . S
C884 C885 1.516 . S
C885 C884 1.516 . S
C885 C886 1.502 1_545 S
C885 C887 1.561 1_545 S
C885 C888 1.526 . S
C886 H870 0.959 . S
C886 H871 0.959 . S
C886 H872 0.961 . S
C886 C885 1.502 1_565 S
C887 H873 0.960 . S
C887 H874 0.961 . S
C887 H875 0.959 1_565 S
C887 C885 1.561 1_565 S
C888 C885 1.526 . S
C888 C889 1.396 . S
C888 C893 1.390 . S
C889 C883 1.465 . S
C889 C888 1.396 . S
C889 C890 1.399 . S
C890 H876 0.929 . S
C890 C889 1.399 . S
C890 C891 1.385 . S
C891 H877 0.931 . S
C891 C890 1.385 . S
C891 C892 1.389 . S
C892 C891 1.389 . S
C892 C893 1.387 . S
C893 H878 0.930 1_545 S
C893 C888 1.390 . S
C893 C892 1.387 . S
H894 C906 0.930 . S
H895 C908 0.930 1_554 S
H896 C909 0.930 . S
H897 C913 0.959 . S
H898 C913 0.959 . S
H899 C913 0.961 . S
H900 C914 0.960 . S
H901 C914 0.961 . S
H902 C914 0.959 . S
H903 C917 0.929 . S
H904 C918 0.931 . S
H905 C920 0.930 . S
C906 H894 0.930 . S
C906 C907 1.399 . S
C906 C911 1.399 . S
C907 C906 1.399 . S
C907 C908 1.376 . S
C908 H895 0.930 1_556 S
C908 C907 1.376 . S
C908 C909 1.388 . S
C909 H896 0.930 . S
C909 C908 1.388 . S
C909 C910 1.390 . S
C910 C909 1.390 . S
C910 C911 1.394 . S
C910 C916 1.465 . S
C911 C906 1.399 . S
C911 C910 1.394 . S
C911 C912 1.516 . S
C912 C911 1.516 . S
C912 C913 1.502 . S
C912 C914 1.561 . S
C912 C915 1.526 . S
C913 H897 0.959 . S
C913 H898 0.959 . S
C913 H899 0.961 . S
C913 C912 1.502 . S
C914 H900 0.960 . S
C914 H901 0.961 . S
C914 H902 0.959 . S
C914 C912 1.561 . S
C915 C912 1.526 . S
C915 C916 1.396 . S
C915 C920 1.390 . S
C916 C910 1.465 . S
C916 C915 1.396 . S
C916 C917 1.399 . S
C917 H903 0.929 . S
C917 C916 1.399 . S
C917 C918 1.385 . S
C918 H904 0.931 . S
C918 C917 1.385 . S
C918 C919 1.389 . S
C919 C918 1.389 . S
C919 C920 1.387 . S
C920 H905 0.930 . S
C920 C915 1.390 . S
C920 C919 1.387 . S
H921 C933 0.930 . S
H922 C935 0.930 1_554 S
H923 C936 0.930 . S
H924 C940 0.959 . S
H925 C940 0.959 . S
H926 C940 0.961 . S
H927 C941 0.960 . S
H928 C941 0.961 . S
H929 C941 0.959 . S
H930 C944 0.929 . S
H931 C945 0.931 . S
H932 C947 0.930 . S
C933 H921 0.930 . S
C933 C934 1.399 . S
C933 C938 1.399 . S
C934 C933 1.399 . S
C934 C935 1.376 . S
C935 H922 0.930 1_556 S
C935 C934 1.376 . S
C935 C936 1.388 . S
C936 H923 0.930 . S
C936 C935 1.388 . S
C936 C937 1.390 . S
C937 C936 1.390 . S
C937 C938 1.394 . S
C937 C943 1.465 . S
C938 C933 1.399 . S
C938 C937 1.394 . S
C938 C939 1.516 . S
C939 C938 1.516 . S
C939 C940 1.502 . S
C939 C941 1.561 . S
C939 C942 1.526 . S
C940 H924 0.959 . S
C940 H925 0.959 . S
C940 H926 0.961 . S
C940 C939 1.502 . S
C941 H927 0.960 . S
C941 H928 0.961 . S
C941 H929 0.959 . S
C941 C939 1.561 . S
C942 C939 1.526 . S
C942 C943 1.396 . S
C942 C947 1.390 . S
C943 C937 1.465 . S
C943 C942 1.396 . S
C943 C944 1.399 . S
C944 H930 0.929 . S
C944 C943 1.399 . S
C944 C945 1.385 . S
C945 H931 0.931 . S
C945 C944 1.385 . S
C945 C946 1.389 . S
C946 C945 1.389 . S
C946 C947 1.387 . S
C947 H932 0.930 . S
C947 C942 1.390 . S
C947 C946 1.387 . S
H948 C960 0.930 . S
H949 C962 0.930 . S
H950 C963 0.930 . S
H951 C967 0.959 . S
H952 C967 0.959 . S
H953 C967 0.961 . S
H954 C968 0.960 . S
H955 C968 0.961 . S
H956 C968 0.959 . S
H957 C971 0.929 . S
H958 C972 0.931 . S
H959 C974 0.930 . S
C960 H948 0.930 . S
C960 C961 1.399 . S
C960 C965 1.399 . S
C961 C960 1.399 . S
C961 C962 1.376 . S
C962 H949 0.930 . S
C962 C961 1.376 . S
C962 C963 1.388 . S
C963 H950 0.930 . S
C963 C962 1.388 . S
C963 C964 1.390 . S
C964 C963 1.390 . S
C964 C965 1.394 . S
C964 C970 1.465 . S
C965 C960 1.399 . S
C965 C964 1.394 . S
C965 C966 1.516 . S
C966 C965 1.516 . S
C966 C967 1.502 . S
C966 C968 1.561 . S
C966 C969 1.526 . S
C967 H951 0.959 . S
C967 H952 0.959 . S
C967 H953 0.961 . S
C967 C966 1.502 . S
C968 H954 0.960 . S
C968 H955 0.961 . S
C968 H956 0.959 . S
C968 C966 1.561 . S
C969 C966 1.526 . S
C969 C970 1.396 . S
C969 C974 1.390 . S
C970 C964 1.465 . S
C970 C969 1.396 . S
C970 C971 1.399 . S
C971 H957 0.929 . S
C971 C970 1.399 . S
C971 C972 1.385 . S
C972 H958 0.931 . S
C972 C971 1.385 . S
C972 C973 1.389 . S
C973 C972 1.389 . S
C973 C974 1.387 . S
C974 H959 0.930 . S
C974 C969 1.390 . S
C974 C973 1.387 . S
H975 C987 0.930 . S
H976 C989 0.930 . S
H977 C990 0.930 . S
H978 C994 0.959 . S
H979 C994 0.959 . S
H980 C994 0.961 . S
H981 C995 0.960 . S
H982 C995 0.961 . S
H983 C995 0.959 . S
H984 C998 0.929 . S
H985 C999 0.931 . S
H986 C1001 0.930 . S
C987 H975 0.930 . S
C987 C988 1.399 . S
C987 C992 1.399 . S
C988 C987 1.399 . S
C988 C989 1.376 . S
C989 H976 0.930 . S
C989 C988 1.376 . S
C989 C990 1.388 . S
C990 H977 0.930 . S
C990 C989 1.388 . S
C990 C991 1.390 . S
C991 C990 1.390 . S
C991 C992 1.394 . S
C991 C997 1.465 . S
C992 C987 1.399 . S
C992 C991 1.394 . S
C992 C993 1.516 . S
C993 C992 1.516 . S
C993 C994 1.502 1_565 S
C993 C995 1.561 . S
C993 C996 1.526 . S
C994 H978 0.959 . S
C994 H979 0.959 . S
C994 H980 0.961 . S
C994 C993 1.502 1_545 S
C995 H981 0.960 . S
C995 H982 0.961 . S
C995 H983 0.959 . S
C995 C993 1.561 . S
C996 C993 1.526 . S
C996 C997 1.396 . S
C996 C1001 1.390 . S
C997 C991 1.465 . S
C997 C996 1.396 . S
C997 C998 1.399 . S
C998 H984 0.929 . S
C998 C997 1.399 . S
C998 C999 1.385 . S
C999 H985 0.931 . S
C999 C998 1.385 . S
C999 C1000 1.389 . S
C1000 C999 1.389 . S
C1000 C1001 1.387 . S
C1001 H986 0.930 . S
C1001 C996 1.390 . S
C1001 C1000 1.387 . S
H1002 C1014 0.930 . S
H1003 C1016 0.930 . S
H1004 C1017 0.930 . S
H1005 C1021 0.959 . S
H1006 C1021 0.959 . S
H1007 C1021 0.961 . S
H1008 C1022 0.960 . S
H1009 C1022 0.961 . S
H1010 C1022 0.959 . S
H1011 C1025 0.929 . S
H1012 C1026 0.931 . S
H1013 C1028 0.930 . S
C1014 H1002 0.930 . S
C1014 C1015 1.399 . S
C1014 C1019 1.399 . S
C1015 C1014 1.399 . S
C1015 C1016 1.376 . S
C1016 H1003 0.930 . S
C1016 C1015 1.376 . S
C1016 C1017 1.388 . S
C1017 H1004 0.930 . S
C1017 C1016 1.388 . S
C1017 C1018 1.390 . S
C1018 C1017 1.390 . S
C1018 C1019 1.394 . S
C1018 C1024 1.465 . S
C1019 C1014 1.399 . S
C1019 C1018 1.394 . S
C1019 C1020 1.516 . S
C1020 C1019 1.516 . S
C1020 C1021 1.502 . S
C1020 C1022 1.561 . S
C1020 C1023 1.526 . S
C1021 H1005 0.959 . S
C1021 H1006 0.959 . S
C1021 H1007 0.961 . S
C1021 C1020 1.502 . S
C1022 H1008 0.960 . S
C1022 H1009 0.961 . S
C1022 H1010 0.959 . S
C1022 C1020 1.561 . S
C1023 C1020 1.526 . S
C1023 C1024 1.396 . S
C1023 C1028 1.390 . S
C1024 C1018 1.465 . S
C1024 C1023 1.396 . S
C1024 C1025 1.399 . S
C1025 H1011 0.929 . S
C1025 C1024 1.399 . S
C1025 C1026 1.385 . S
C1026 H1012 0.931 . S
C1026 C1025 1.385 . S
C1026 C1027 1.389 . S
C1027 C1026 1.389 . S
C1027 C1028 1.387 . S
C1028 H1013 0.930 . S
C1028 C1023 1.390 . S
C1028 C1027 1.387 . S
H1029 C1041 0.930 . S
H1030 C1043 0.930 . S
H1031 C1044 0.930 . S
H1032 C1048 0.959 . S
H1033 C1048 0.959 . S
H1034 C1048 0.961 . S
H1035 C1049 0.960 . S
H1036 C1049 0.961 . S
H1037 C1049 0.959 . S
H1038 C1052 0.929 . S
H1039 C1053 0.931 . S
H1040 C1055 0.930 . S
C1041 H1029 0.930 . S
C1041 C1042 1.399 . S
C1041 C1046 1.399 . S
C1042 C1041 1.399 . S
C1042 C1043 1.376 . S
C1043 H1030 0.930 . S
C1043 C1042 1.376 . S
C1043 C1044 1.388 . S
C1044 H1031 0.930 . S
C1044 C1043 1.388 . S
C1044 C1045 1.390 . S
C1045 C1044 1.390 . S
C1045 C1046 1.394 . S
C1045 C1051 1.465 . S
C1046 C1041 1.399 . S
C1046 C1045 1.394 . S
C1046 C1047 1.516 . S
C1047 C1046 1.516 . S
C1047 C1048 1.502 . S
C1047 C1049 1.561 . S
C1047 C1050 1.526 . S
C1048 H1032 0.959 . S
C1048 H1033 0.959 . S
C1048 H1034 0.961 . S
C1048 C1047 1.502 . S
C1049 H1035 0.960 . S
C1049 H1036 0.961 . S
C1049 H1037 0.959 . S
C1049 C1047 1.561 . S
C1050 C1047 1.526 . S
C1050 C1051 1.396 . S
C1050 C1055 1.390 . S
C1051 C1045 1.465 . S
C1051 C1050 1.396 . S
C1051 C1052 1.399 . S
C1052 H1038 0.929 . S
C1052 C1051 1.399 . S
C1052 C1053 1.385 . S
C1053 H1039 0.931 . S
C1053 C1052 1.385 . S
C1053 C1054 1.389 . S
C1054 C1053 1.389 . S
C1054 C1055 1.387 . S
C1055 H1040 0.930 . S
C1055 C1050 1.390 . S
C1055 C1054 1.387 . S
C421 C61 1.798 . S
C433 C147 1.929 . S
C460 C231 1.934 . S
C448 C70 1.820 . S
C487 C307 1.852 . S
C475 C43 1.953 . S
C514 C391 1.817 . S
C502 C52 1.950 . S
C541 C138 1.891 1_565 S
C529 C25 1.866 . S
C556 C34 1.894 . S
C568 C222 1.914 . S
C583 C7 1.967 . S
C595 C296 1.845 . S
C610 C16 1.940 . S
C622 C380 1.829 . S
C649 C135 0.533 . S
C637 C50 0.554 . S
C676 C219 0.497 . S
C664 C59 0.513 . S
C703 C312 0.650 . S
C691 C67 0.604 . S
C718 C41 0.493 . S
C730 C396 0.537 . S
C745 C14 0.610 . S
C757 C144 0.614 . S
C784 C228 0.653 . S
C772 C23 0.662 . S
C811 C303 0.658 1_556 S
C799 C31 0.603 . S
C826 C5 0.591 . S
C838 C387 0.670 1_556 S
C853 C49 2.017 . S
C865 C128 2.068 . S
C880 C58 1.975 . S
C892 C212 2.060 . S
C919 C306 2.014 . S
C907 C68 1.807 . S
C946 C390 2.042 . S
C934 C40 1.834 . S
C961 C13 1.945 . S
C973 C139 2.059 . S
C1000 C223 2.028 . S
C988 C22 1.986 . S
C1027 C315 2.012 . S
C1015 C32 1.805 . S
C1042 C4 1.873 . S
C1054 C399 2.070 . S
