# Generated by pormake.
# Topology ptr, (4,4)-cn, num edge types: 1
# Building blocks:
#     Node 0, Type 0, BuildingBlock: AZAVOO_clean_sbu_0, # of connection points: 4
#     Node 1, Type 0, BuildingBlock: AZAVOO_clean_sbu_0, # of connection points: 4
#     Node 2, Type 0, BuildingBlock: AZAVOO_clean_sbu_0, # of connection points: 4
#     Node 3, Type 0, BuildingBlock: AZAVOO_clean_sbu_0, # of connection points: 4
#     Node 4, Type 0, BuildingBlock: AZAVOO_clean_sbu_0, # of connection points: 4
#     Node 5, Type 0, BuildingBlock: AZAVOO_clean_sbu_0, # of connection points: 4
#     Node 6, Type 0, BuildingBlock: AZAVOO_clean_sbu_0, # of connection points: 4
#     Node 7, Type 0, BuildingBlock: AZAVOO_clean_sbu_0, # of connection points: 4
#     Node 8, Type 0, BuildingBlock: AZAVOO_clean_sbu_0, # of connection points: 4
#     Node 9, Type 0, BuildingBlock: AZAVOO_clean_sbu_0, # of connection points: 4
#     Node 10, Type 0, BuildingBlock: AZAVOO_clean_sbu_0, # of connection points: 4
#     Node 11, Type 0, BuildingBlock: AZAVOO_clean_sbu_0, # of connection points: 4
#     Node 12, Type 0, BuildingBlock: AZAVOO_clean_sbu_0, # of connection points: 4
#     Node 13, Type 0, BuildingBlock: AZAVOO_clean_sbu_0, # of connection points: 4
#     Node 14, Type 0, BuildingBlock: AZAVOO_clean_sbu_0, # of connection points: 4
#     Node 15, Type 0, BuildingBlock: AZAVOO_clean_sbu_0, # of connection points: 4
#     Node 16, Type 0, BuildingBlock: AZAVOO_clean_sbu_0, # of connection points: 4
#     Node 17, Type 0, BuildingBlock: AZAVOO_clean_sbu_0, # of connection points: 4
#     Node 18, Type 1, BuildingBlock: AZAVOO_clean_linker_0, # of connection points: 4
#     Node 19, Type 1, BuildingBlock: AZAVOO_clean_linker_0, # of connection points: 4
#     Node 20, Type 1, BuildingBlock: AZAVOO_clean_linker_0, # of connection points: 4
#     Node 21, Type 1, BuildingBlock: AZAVOO_clean_linker_0, # of connection points: 4
#     Node 22, Type 1, BuildingBlock: AZAVOO_clean_linker_0, # of connection points: 4
#     Node 23, Type 1, BuildingBlock: AZAVOO_clean_linker_0, # of connection points: 4
#     Node 24, Type 1, BuildingBlock: AZAVOO_clean_linker_0, # of connection points: 4
#     Node 25, Type 1, BuildingBlock: AZAVOO_clean_linker_0, # of connection points: 4
#     Node 26, Type 1, BuildingBlock: AZAVOO_clean_linker_0, # of connection points: 4
#     Node 27, Type 1, BuildingBlock: AZAVOO_clean_linker_0, # of connection points: 4
#     Node 28, Type 1, BuildingBlock: AZAVOO_clean_linker_0, # of connection points: 4
#     Node 29, Type 1, BuildingBlock: AZAVOO_clean_linker_0, # of connection points: 4
#     Node 30, Type 1, BuildingBlock: AZAVOO_clean_linker_0, # of connection points: 4
#     Node 31, Type 1, BuildingBlock: AZAVOO_clean_linker_0, # of connection points: 4
#     Node 32, Type 1, BuildingBlock: AZAVOO_clean_linker_0, # of connection points: 4
#     Node 33, Type 1, BuildingBlock: AZAVOO_clean_linker_0, # of connection points: 4
#     Node 34, Type 1, BuildingBlock: AZAVOO_clean_linker_0, # of connection points: 4
#     Node 35, Type 1, BuildingBlock: AZAVOO_clean_linker_0, # of connection points: 4
#     Edge 36, Type (0, 1), BuildingBlock: ZUJKAS_clean_linker_0, # of connection points: 2
#     Edge 37, Type (0, 1), BuildingBlock: ZUJKAS_clean_linker_0, # of connection points: 2
#     Edge 38, Type (0, 1), BuildingBlock: ZUJKAS_clean_linker_0, # of connection points: 2
#     Edge 39, Type (0, 1), BuildingBlock: ZUJKAS_clean_linker_0, # of connection points: 2
#     Edge 40, Type (0, 1), BuildingBlock: ZUJKAS_clean_linker_0, # of connection points: 2
#     Edge 41, Type (0, 1), BuildingBlock: ZUJKAS_clean_linker_0, # of connection points: 2
#     Edge 42, Type (0, 1), BuildingBlock: ZUJKAS_clean_linker_0, # of connection points: 2
#     Edge 43, Type (0, 1), BuildingBlock: ZUJKAS_clean_linker_0, # of connection points: 2
#     Edge 44, Type (0, 1), BuildingBlock: ZUJKAS_clean_linker_0, # of connection points: 2
#     Edge 45, Type (0, 1), BuildingBlock: ZUJKAS_clean_linker_0, # of connection points: 2
#     Edge 46, Type (0, 1), BuildingBlock: ZUJKAS_clean_linker_0, # of connection points: 2
#     Edge 47, Type (0, 1), BuildingBlock: ZUJKAS_clean_linker_0, # of connection points: 2
#     Edge 48, Type (0, 1), BuildingBlock: ZUJKAS_clean_linker_0, # of connection points: 2
#     Edge 49, Type (0, 1), BuildingBlock: ZUJKAS_clean_linker_0, # of connection points: 2
#     Edge 50, Type (0, 1), BuildingBlock: ZUJKAS_clean_linker_0, # of connection points: 2
#     Edge 51, Type (0, 1), BuildingBlock: ZUJKAS_clean_linker_0, # of connection points: 2
#     Edge 52, Type (0, 1), BuildingBlock: ZUJKAS_clean_linker_0, # of connection points: 2
#     Edge 53, Type (0, 1), BuildingBlock: ZUJKAS_clean_linker_0, # of connection points: 2
#     Edge 54, Type (0, 1), BuildingBlock: ZUJKAS_clean_linker_0, # of connection points: 2
#     Edge 55, Type (0, 1), BuildingBlock: ZUJKAS_clean_linker_0, # of connection points: 2
#     Edge 56, Type (0, 1), BuildingBlock: ZUJKAS_clean_linker_0, # of connection points: 2
#     Edge 57, Type (0, 1), BuildingBlock: ZUJKAS_clean_linker_0, # of connection points: 2
#     Edge 58, Type (0, 1), BuildingBlock: ZUJKAS_clean_linker_0, # of connection points: 2
#     Edge 59, Type (0, 1), BuildingBlock: ZUJKAS_clean_linker_0, # of connection points: 2
#     Edge 60, Type (0, 1), BuildingBlock: ZUJKAS_clean_linker_0, # of connection points: 2
#     Edge 61, Type (0, 1), BuildingBlock: ZUJKAS_clean_linker_0, # of connection points: 2
#     Edge 62, Type (0, 1), BuildingBlock: ZUJKAS_clean_linker_0, # of connection points: 2
#     Edge 63, Type (0, 1), BuildingBlock: ZUJKAS_clean_linker_0, # of connection points: 2
#     Edge 64, Type (0, 1), BuildingBlock: ZUJKAS_clean_linker_0, # of connection points: 2
#     Edge 65, Type (0, 1), BuildingBlock: ZUJKAS_clean_linker_0, # of connection points: 2
#     Edge 66, Type (0, 1), BuildingBlock: ZUJKAS_clean_linker_0, # of connection points: 2
#     Edge 67, Type (0, 1), BuildingBlock: ZUJKAS_clean_linker_0, # of connection points: 2
#     Edge 68, Type (0, 1), BuildingBlock: ZUJKAS_clean_linker_0, # of connection points: 2
#     Edge 69, Type (0, 1), BuildingBlock: ZUJKAS_clean_linker_0, # of connection points: 2
#     Edge 70, Type (0, 1), BuildingBlock: ZUJKAS_clean_linker_0, # of connection points: 2
#     Edge 71, Type (0, 1), BuildingBlock: ZUJKAS_clean_linker_0, # of connection points: 2
#     Edge 72, Type (0, 1), BuildingBlock: ZUJKAS_clean_linker_0, # of connection points: 2
#     Edge 73, Type (0, 1), BuildingBlock: ZUJKAS_clean_linker_0, # of connection points: 2
#     Edge 74, Type (0, 1), BuildingBlock: ZUJKAS_clean_linker_0, # of connection points: 2
#     Edge 75, Type (0, 1), BuildingBlock: ZUJKAS_clean_linker_0, # of connection points: 2
#     Edge 76, Type (0, 1), BuildingBlock: ZUJKAS_clean_linker_0, # of connection points: 2
#     Edge 77, Type (0, 1), BuildingBlock: ZUJKAS_clean_linker_0, # of connection points: 2
#     Edge 78, Type (0, 1), BuildingBlock: ZUJKAS_clean_linker_0, # of connection points: 2
#     Edge 79, Type (0, 1), BuildingBlock: ZUJKAS_clean_linker_0, # of connection points: 2
#     Edge 80, Type (0, 1), BuildingBlock: ZUJKAS_clean_linker_0, # of connection points: 2
#     Edge 81, Type (0, 1), BuildingBlock: ZUJKAS_clean_linker_0, # of connection points: 2
#     Edge 82, Type (0, 1), BuildingBlock: ZUJKAS_clean_linker_0, # of connection points: 2
#     Edge 83, Type (0, 1), BuildingBlock: ZUJKAS_clean_linker_0, # of connection points: 2
#     Edge 84, Type (0, 1), BuildingBlock: ZUJKAS_clean_linker_0, # of connection points: 2
#     Edge 85, Type (0, 1), BuildingBlock: ZUJKAS_clean_linker_0, # of connection points: 2
#     Edge 86, Type (0, 1), BuildingBlock: ZUJKAS_clean_linker_0, # of connection points: 2
#     Edge 87, Type (0, 1), BuildingBlock: ZUJKAS_clean_linker_0, # of connection points: 2
#     Edge 88, Type (0, 1), BuildingBlock: ZUJKAS_clean_linker_0, # of connection points: 2
#     Edge 89, Type (0, 1), BuildingBlock: ZUJKAS_clean_linker_0, # of connection points: 2
#     Edge 90, Type (0, 1), BuildingBlock: ZUJKAS_clean_linker_0, # of connection points: 2
#     Edge 91, Type (0, 1), BuildingBlock: ZUJKAS_clean_linker_0, # of connection points: 2
#     Edge 92, Type (0, 1), BuildingBlock: ZUJKAS_clean_linker_0, # of connection points: 2
#     Edge 93, Type (0, 1), BuildingBlock: ZUJKAS_clean_linker_0, # of connection points: 2
#     Edge 94, Type (0, 1), BuildingBlock: ZUJKAS_clean_linker_0, # of connection points: 2
#     Edge 95, Type (0, 1), BuildingBlock: ZUJKAS_clean_linker_0, # of connection points: 2
#     Edge 96, Type (0, 1), BuildingBlock: ZUJKAS_clean_linker_0, # of connection points: 2
#     Edge 97, Type (0, 1), BuildingBlock: ZUJKAS_clean_linker_0, # of connection points: 2
#     Edge 98, Type (0, 1), BuildingBlock: ZUJKAS_clean_linker_0, # of connection points: 2
#     Edge 99, Type (0, 1), BuildingBlock: ZUJKAS_clean_linker_0, # of connection points: 2
#     Edge 100, Type (0, 1), BuildingBlock: ZUJKAS_clean_linker_0, # of connection points: 2
#     Edge 101, Type (0, 1), BuildingBlock: ZUJKAS_clean_linker_0, # of connection points: 2
#     Edge 102, Type (0, 1), BuildingBlock: ZUJKAS_clean_linker_0, # of connection points: 2
#     Edge 103, Type (0, 1), BuildingBlock: ZUJKAS_clean_linker_0, # of connection points: 2
#     Edge 104, Type (0, 1), BuildingBlock: ZUJKAS_clean_linker_0, # of connection points: 2
#     Edge 105, Type (0, 1), BuildingBlock: ZUJKAS_clean_linker_0, # of connection points: 2
#     Edge 106, Type (0, 1), BuildingBlock: ZUJKAS_clean_linker_0, # of connection points: 2
#     Edge 107, Type (0, 1), BuildingBlock: ZUJKAS_clean_linker_0, # of connection points: 2
# Relax obj value: 0.119
# Max RMSD: 0.323
# Mean RMSD: 0.192
data_MOF--net-ptr--node1-AZAVOO_clean_sbu_0--node2-AZAVOO_clean_linker_0--edge1-ZUJKAS_clean_linker_0
_symmetry_space_group_name_H-M    P1
_symmetry_Int_Tables_number       1
_symmetry_cell_setting            triclinic
loop_
_symmetry_equiv_pos_as_xyz
'x, y, z'
_cell_length_a     103.0814
_cell_length_b     100.11134
_cell_length_c     83.696109
_cell_angle_alpha  93.244486
_cell_angle_beta   93.194108
_cell_angle_gamma 120.19828
loop_
_atom_site_label
_atom_site_type_symbol
_atom_site_fract_x
_atom_site_fract_y
_atom_site_fract_z
_atom_type_partial_charge
Mg0 Mg 0.01856 0.36083 3e-05 0.0
O1 O 0.00747 0.3685 0.01879 0.0
O2 O 0.98976 0.37135 0.00537 0.0
Mg3 Mg 0.98931 0.36542 0.97849 0.0
C4 C 0.9971 0.37199 0.01848 0.0
C5 C 0.03048 0.34165 0.01648 0.0
O6 O 0.02515 0.33391 0.00219 0.0
O7 O 0.99798 0.33639 0.99639 0.0
O8 O 0.98121 0.33989 0.98204 0.0
O9 O 0.0353 0.38572 0.99724 0.0
O10 O 0.01314 0.37208 0.98299 0.0
C11 C 0.98507 0.33104 0.98863 0.0
C12 C 0.02534 0.38524 0.98673 0.0
O13 O 0.0295 0.35367 0.01965 0.0
Mg14 Mg 0.64265 0.63381 0.07833 0.0
O15 O 0.6243 0.62776 0.05783 0.0
O16 O 0.60348 0.62402 0.06853 0.0
Mg17 Mg 0.60876 0.62805 0.09591 0.0
C18 C 0.61057 0.62444 0.05636 0.0
C19 C 0.67139 0.63973 0.06315 0.0
O20 O 0.67189 0.63257 0.07565 0.0
O21 O 0.64637 0.65807 0.08273 0.0
O22 O 0.62592 0.65403 0.09448 0.0
O23 O 0.63456 0.60866 0.07981 0.0
O24 O 0.62641 0.62192 0.09374 0.0
C25 C 0.63868 0.66314 0.08945 0.0
C26 C 0.62556 0.60885 0.08991 0.0
O27 O 0.66036 0.64189 0.06059 0.0
Mg28 Mg 0.36739 0.99101 0.00315 0.0
O29 O 0.38568 -0.00049 0.02415 0.0
O30 O 0.40705 0.01913 0.01708 0.0
Mg31 Mg 0.40229 0.02292 0.99118 0.0
C32 C 0.39957 0.00989 0.02731 0.0
C33 C 0.33675 0.96679 0.01472 0.0
O34 O 0.33424 0.96167 0.99941 0.0
O35 O 0.36527 0.01226 0.00788 0.0
O36 O 0.38616 0.03117 0.99913 0.0
O37 O 0.37418 0.97448 0.99324 0.0
O38 O 0.38354 0.99858 0.98699 0.0
C39 C 0.37353 0.02635 0.00501 0.0
C40 C 0.38357 0.98573 0.9855 0.0
O41 O 0.34955 0.9783 0.02001 0.0
Mg42 Mg 0.98816 0.64779 0.06337 0.0
O43 O 0.99923 0.6398 0.04501 0.0
O44 O 0.01768 0.63808 0.05825 0.0
Mg45 Mg 0.01834 0.64486 0.08496 0.0
C46 C 0.00988 0.63675 0.04523 0.0
C47 C 0.9648 0.65383 0.04551 0.0
O48 O 0.95926 0.65022 0.05942 0.0
O49 O 0.0082 0.67251 0.06607 0.0
O50 O 0.02583 0.67004 0.08012 0.0
O51 O 0.97229 0.62298 0.06719 0.0
O52 O 0.99433 0.63795 0.0813 0.0
C53 C 0.02141 0.67836 0.07331 0.0
C54 C 0.98243 0.62445 0.07815 0.0
O55 O 0.97675 0.65363 0.04307 0.0
Mg56 Mg 0.36388 0.37518 0.98631 0.0
O57 O 0.38267 0.38128 0.00632 0.0
O58 O 0.40291 0.38443 0.99476 0.0
Mg59 Mg 0.39714 0.3808 0.96744 0.0
C60 C 0.3963 0.38428 0.00727 0.0
C61 C 0.3389 0.37341 0.00676 0.0
O62 O 0.34172 0.38554 0.99907 0.0
O63 O 0.36011 0.35095 0.98151 0.0
O64 O 0.37989 0.35478 0.96855 0.0
O65 O 0.3717 0.40026 0.98507 0.0
O66 O 0.37982 0.38728 0.9706 0.0
C67 C 0.36737 0.34575 0.97405 0.0
C68 C 0.38057 0.40028 0.97469 0.0
O69 O 0.34645 0.36676 0.00438 0.0
Mg70 Mg 0.64047 0.02319 0.06221 0.0
O71 O 0.62287 0.01282 0.0403 0.0
O72 O 0.60316 0.99087 0.04655 0.0
Mg73 Mg 0.60791 0.98775 0.07273 0.0
C74 C 0.60983 0.00084 0.0366 0.0
C75 C 0.672 0.04289 0.05207 0.0
O76 O 0.67445 0.03985 0.06664 0.0
O77 O 0.64649 0.00453 0.05793 0.0
O78 O 0.62704 0.98348 0.06601 0.0
O79 O 0.63011 0.03671 0.07153 0.0
O80 O 0.62367 0.01305 0.07741 0.0
C81 C 0.64001 0.99031 0.06069 0.0
C82 C 0.62152 0.02464 0.07879 0.0
O83 O 0.65853 0.03821 0.04651 0.0
Mg84 Mg 0.68223 0.69822 0.33563 0.0
O85 O 0.67051 0.70594 0.35347 0.0
O86 O 0.65458 0.71077 0.33923 0.0
Mg87 Mg 0.65556 0.70553 0.31253 0.0
C88 C 0.66076 0.71025 0.35266 0.0
C89 C 0.70511 0.69738 0.361 0.0
O90 O 0.71405 0.71025 0.35469 0.0
O91 O 0.66108 0.67432 0.33045 0.0
O92 O 0.64575 0.67957 0.31565 0.0
O93 O 0.69988 0.72313 0.33398 0.0
O94 O 0.67869 0.71026 0.31802 0.0
C95 C 0.64856 0.66995 0.3222 0.0
C96 C 0.69102 0.72312 0.32238 0.0
O97 O 0.69118 0.68982 0.35597 0.0
Mg98 Mg 0.30172 0.96517 0.41563 0.0
O99 O 0.28327 0.95892 0.39525 0.0
O100 O 0.26343 0.95792 0.40584 0.0
Mg101 Mg 0.26908 0.96285 0.43322 0.0
C102 C 0.26996 0.95682 0.39372 0.0
C103 C 0.32795 0.96564 0.39957 0.0
O104 O 0.32707 0.95792 0.41205 0.0
O105 O 0.30697 0.99017 0.41824 0.0
O106 O 0.28747 0.9881 0.43062 0.0
O107 O 0.29241 0.94011 0.41882 0.0
O108 O 0.28563 0.95514 0.43175 0.0
C109 C 0.30012 0.99629 0.42496 0.0
C110 C 0.28395 0.94157 0.42883 0.0
O111 O 0.31881 0.97053 0.39743 0.0
Mg112 Mg 0.04592 0.32015 0.34105 0.0
O113 O 0.06468 0.33029 0.36191 0.0
O114 O 0.08618 0.34689 0.35211 0.0
Mg115 Mg 0.08138 0.34662 0.32509 0.0
C116 C 0.07882 0.34014 0.3638 0.0
C117 C 0.01537 0.29937 0.35368 0.0
O118 O 0.01378 0.29216 0.33946 0.0
O119 O 0.04638 0.34302 0.34141 0.0
O120 O 0.06752 0.35835 0.3303 0.0
O121 O 0.04977 0.3005 0.33502 0.0
O122 O 0.06151 0.32317 0.32499 0.0
C123 C 0.0555 0.35597 0.33634 0.0
C124 C 0.05976 0.30958 0.32601 0.0
O125 O 0.02789 0.31154 0.35842 0.0
Mg126 Mg 0.65352 0.96979 0.39596 0.0
O127 O 0.66681 0.9631 0.3793 0.0
O128 O 0.68433 0.96157 0.39472 0.0
Mg129 Mg 0.68263 0.96771 0.42092 0.0
C130 C 0.6777 0.96047 0.38095 0.0
C131 C 0.62892 0.97094 0.3751 0.0
O132 O 0.62211 0.96413 0.38757 0.0
O133 O 0.67297 0.99483 0.39977 0.0
O134 O 0.68994 0.99274 0.4156 0.0
O135 O 0.63784 0.94476 0.39883 0.0
O136 O 0.6587 0.95998 0.41475 0.0
C137 C 0.68576 0.00089 0.40802 0.0
C138 C 0.6472 0.94633 0.41077 0.0
O139 O 0.6427 0.97496 0.37454 0.0
Mg140 Mg 0.03591 0.71456 0.32663 0.0
O141 O 0.05425 0.72153 0.34745 0.0
O142 O 0.07538 0.72619 0.33685 0.0
Mg143 Mg 0.07077 0.72313 0.30941 0.0
C144 C 0.06811 0.72531 0.349 0.0
C145 C 0.00571 0.70521 0.3397 0.0
O146 O 0.00507 0.71167 0.32667 0.0
O147 O 0.03396 0.69104 0.32188 0.0
O148 O 0.05474 0.6968 0.30988 0.0
O149 O 0.04231 0.73936 0.32541 0.0
O150 O 0.05208 0.72763 0.31168 0.0
C151 C 0.04222 0.68692 0.31482 0.0
C152 C 0.0518 0.74012 0.31547 0.0
O153 O 0.01759 0.70481 0.34364 0.0
Mg154 Mg 0.29697 0.35334 0.39108 0.0
O155 O 0.27813 0.34079 0.37052 0.0
O156 O 0.25893 0.32039 0.37987 0.0
Mg157 Mg 0.26509 0.3208 0.40671 0.0
C158 C 0.26497 0.32873 0.36845 0.0
C159 C 0.32773 0.37111 0.37891 0.0
O160 O 0.33067 0.36988 0.39406 0.0
O161 O 0.30211 0.33386 0.38922 0.0
O162 O 0.28339 0.31494 0.40077 0.0
O163 O 0.28795 0.36861 0.39872 0.0
O164 O 0.28132 0.34596 0.40777 0.0
C165 C 0.29577 0.32042 0.39424 0.0
C166 C 0.27977 0.35794 0.40775 0.0
O167 O 0.3141 0.36575 0.37343 0.0
Mg168 Mg 0.35067 0.03281 0.66756 0.0
O169 O 0.33865 0.04066 0.68484 0.0
O170 O 0.32218 0.04423 0.66991 0.0
Mg171 Mg 0.32346 0.03858 0.64339 0.0
C172 C 0.32851 0.04441 0.68355 0.0
C173 C 0.3698 0.03537 0.69938 0.0
O174 O 0.37382 0.05006 0.69908 0.0
O175 O 0.32976 0.00859 0.66313 0.0
O176 O 0.3144 0.0129 0.64717 0.0
O177 O 0.36799 0.05766 0.66524 0.0
O178 O 0.34679 0.04418 0.64941 0.0
C179 C 0.31736 0.0037 0.65441 0.0
C180 C 0.35897 0.05724 0.65357 0.0
O181 O 0.3602 0.02547 0.68839 0.0
Mg182 Mg 0.97 0.29054 0.73907 0.0
O183 O 0.95213 0.28359 0.71771 0.0
O184 O 0.93014 0.27686 0.72748 0.0
Mg185 Mg 0.93397 0.27966 0.75494 0.0
C186 C 0.93805 0.27884 0.71567 0.0
C187 C 0.00082 0.31383 0.72787 0.0
O188 O 0.00194 0.32006 0.74249 0.0
O189 O 0.97067 0.3134 0.74415 0.0
O190 O 0.94903 0.3062 0.75495 0.0
O191 O 0.96443 0.26592 0.73968 0.0
O192 O 0.95351 0.27645 0.75329 0.0
C193 C 0.9616 0.31669 0.75068 0.0
C194 C 0.95441 0.26436 0.74925 0.0
O195 O 0.98875 0.30136 0.72259 0.0
Mg196 Mg 0.70992 0.65147 0.67302 0.0
O197 O 0.72886 0.66476 0.69333 0.0
O198 O 0.7484 0.68438 0.68345 0.0
Mg199 Mg 0.74191 0.68331 0.6566 0.0
C200 C 0.74219 0.67656 0.69514 0.0
C201 C 0.68091 0.62725 0.68685 0.0
O202 O 0.67864 0.62084 0.67205 0.0
O203 O 0.70473 0.67091 0.67377 0.0
O204 O 0.72388 0.68961 0.66245 0.0
O205 O 0.71909 0.6361 0.66643 0.0
O206 O 0.72549 0.65823 0.65621 0.0
C207 C 0.71138 0.68434 0.66871 0.0
C208 C 0.72721 0.6464 0.65703 0.0
O209 O 0.69319 0.63979 0.69126 0.0
Mg210 Mg 0.32076 0.3094 0.72623 0.0
O211 O 0.33327 0.30233 0.70881 0.0
O212 O 0.35031 0.29957 0.72373 0.0
Mg213 Mg 0.34808 0.30381 0.75026 0.0
C214 C 0.34392 0.2993 0.7101 0.0
C215 C 0.30295 0.30862 0.69386 0.0
O216 O 0.29907 0.2939 0.69267 0.0
O217 O 0.34123 0.33368 0.7317 0.0
O218 O 0.35697 0.32964 0.74733 0.0
O219 O 0.30357 0.28443 0.72745 0.0
O220 O 0.32451 0.29755 0.74382 0.0
C221 C 0.35366 0.33873 0.74038 0.0
C222 C 0.31242 0.28453 0.73913 0.0
O223 O 0.31174 0.31758 0.70586 0.0
Mg224 Mg 0.70161 0.04054 0.65123 0.0
O225 O 0.72011 0.04674 0.67157 0.0
O226 O 0.74012 0.0484 0.66073 0.0
Mg227 Mg 0.73455 0.04402 0.63336 0.0
C228 C 0.73352 0.0491 0.67295 0.0
C229 C 0.68552 0.04364 0.68053 0.0
O230 O 0.69736 0.05773 0.68198 0.0
O231 O 0.69697 0.01585 0.64784 0.0
O232 O 0.71666 0.0184 0.6355 0.0
O233 O 0.71033 0.0656 0.64875 0.0
O234 O 0.71771 0.05133 0.63534 0.0
C235 C 0.704 0.00998 0.64106 0.0
C236 C 0.719 0.0647 0.63865 0.0
O237 O 0.68422 0.03388 0.66925 0.0
Mg238 Mg 0.95961 0.68933 0.72328 0.0
O239 O 0.94182 0.68033 0.70151 0.0
O240 O 0.9198 0.66332 0.71011 0.0
Mg241 Mg 0.92322 0.66236 0.73716 0.0
C242 C 0.92768 0.67055 0.69892 0.0
C243 C 0.98999 0.69713 0.71244 0.0
O244 O 0.98959 0.69131 0.72621 0.0
O245 O 0.95846 0.66615 0.72198 0.0
O246 O 0.93712 0.65051 0.73256 0.0
O247 O 0.95594 0.70905 0.72991 0.0
O248 O 0.94328 0.68581 0.73852 0.0
C249 C 0.94926 0.65306 0.72669 0.0
C250 C 0.94539 0.6996 0.73817 0.0
O251 O 0.97883 0.69835 0.70727 0.0
H252 H 0.15932 0.32602 0.0482 0.0
H253 H 0.24966 0.29023 0.16976 0.0
H254 H 0.15537 0.32497 0.13674 0.0
H255 H 0.13484 0.32784 0.12487 0.0
H256 H 0.10513 0.27806 0.12159 0.0
H257 H 0.12596 0.27533 0.13339 0.0
H258 H 0.17934 0.32761 0.11542 0.0
H259 H 0.17417 0.33155 0.08773 0.0
H260 H 0.14016 0.28287 0.07882 0.0
H261 H 0.14558 0.27907 0.1065 0.0
H262 H 0.20515 0.32879 0.1352 0.0
H263 H 0.22494 0.33633 0.11701 0.0
H264 H 0.19991 0.29062 0.09107 0.0
H265 H 0.18011 0.28313 0.10951 0.0
H266 H 0.20636 0.32222 0.17 0.0
H267 H 0.22995 0.32335 0.17884 0.0
H268 H 0.21413 0.27893 0.15182 0.0
H269 H 0.19052 0.27787 0.14323 0.0
H270 H 0.17859 0.31922 0.186 0.0
H271 H 0.18792 0.32073 0.21394 0.0
H272 H 0.18391 0.27586 0.20454 0.0
H273 H 0.17431 0.27433 0.17658 0.0
H274 H 0.15014 0.3166 0.16901 0.0
H275 H 0.13452 0.31346 0.19099 0.0
H276 H 0.12704 0.26722 0.19459 0.0
H277 H 0.14199 0.27019 0.17199 0.0
O278 O 0.16125 0.32418 0.05907 0.0
O279 O 0.14384 0.29909 0.05513 0.0
O280 O 0.24803 0.31288 0.18018 0.0
O281 O 0.24044 0.29008 0.16645 0.0
C282 C 0.1553 0.29843 0.14092 0.0
C283 C 0.16588 0.30071 0.12977 0.0
C284 C 0.17941 0.30118 0.13478 0.0
C285 C 0.18232 0.29915 0.15085 0.0
C286 C 0.17174 0.29678 0.16199 0.0
C287 C 0.1581 0.29617 0.15697 0.0
C288 C 0.14212 0.29996 0.13593 0.0
C289 C 0.14434 0.31472 0.13374 0.0
C290 C 0.13257 0.31632 0.12702 0.0
C291 C 0.11834 0.30317 0.12228 0.0
C292 C 0.116 0.2884 0.12501 0.0
C293 C 0.12781 0.28681 0.13185 0.0
C294 C 0.16291 0.30304 0.1129 0.0
C295 C 0.17087 0.3178 0.10742 0.0
C296 C 0.16785 0.32002 0.09162 0.0
C297 C 0.15676 0.30752 0.08105 0.0
C298 C 0.14879 0.29274 0.08663 0.0
C299 C 0.15185 0.29053 0.10242 0.0
C300 C 0.19127 0.30544 0.12364 0.0
C301 C 0.20397 0.32041 0.1256 0.0
C302 C 0.21518 0.32471 0.11516 0.0
C303 C 0.21391 0.31407 0.1026 0.0
C304 C 0.2012 0.29901 0.10072 0.0
C305 C 0.18989 0.29474 0.11115 0.0
C306 C 0.19671 0.29992 0.15608 0.0
C307 C 0.20799 0.31272 0.16608 0.0
C308 C 0.22146 0.31335 0.17107 0.0
C309 C 0.22392 0.30121 0.16606 0.0
C310 C 0.2126 0.28845 0.15593 0.0
C311 C 0.19912 0.28783 0.15098 0.0
C312 C 0.17577 0.29667 0.17929 0.0
C313 C 0.17946 0.30959 0.19005 0.0
C314 C 0.18491 0.3105 0.20595 0.0
C315 C 0.18677 0.29847 0.21138 0.0
C316 C 0.18251 0.28525 0.20072 0.0
C317 C 0.17708 0.28438 0.18477 0.0
C318 C 0.14708 0.29358 0.16881 0.0
C319 C 0.14474 0.30563 0.17422 0.0
C320 C 0.13601 0.30389 0.18697 0.0
C321 C 0.12967 0.29015 0.1947 0.0
C322 C 0.13161 0.27788 0.18883 0.0
C323 C 0.1402 0.27958 0.17596 0.0
C324 C 0.15352 0.30994 0.0643 0.0
C325 C 0.2382 0.3018 0.17135 0.0
H326 H 0.69021 0.84571 0.07192 0.0
H327 H 0.73583 0.97981 0.19803 0.0
H328 H 0.68572 0.84407 0.16128 0.0
H329 H 0.67834 0.81796 0.14999 0.0
H330 H 0.72483 0.82941 0.15678 0.0
H331 H 0.73204 0.85557 0.16852 0.0
H332 H 0.68885 0.86712 0.13796 0.0
H333 H 0.68515 0.85741 0.10959 0.0
H334 H 0.7304 0.86491 0.11305 0.0
H335 H 0.73398 0.87473 0.14137 0.0
H336 H 0.6915 0.89573 0.15829 0.0
H337 H 0.68636 0.90847 0.13692 0.0
H338 H 0.72874 0.91985 0.11855 0.0
H339 H 0.73401 0.90736 0.14043 0.0
H340 H 0.69667 0.90238 0.19377 0.0
H341 H 0.69879 0.92737 0.20156 0.0
H342 H 0.74268 0.95106 0.18365 0.0
H343 H 0.74049 0.92598 0.17611 0.0
H344 H 0.69452 0.87398 0.21084 0.0
H345 H 0.693 0.88346 0.23778 0.0
H346 H 0.73836 0.92227 0.23806 0.0
H347 H 0.73991 0.91251 0.21108 0.0
H348 H 0.69164 0.84613 0.19471 0.0
H349 H 0.69137 0.82946 0.21505 0.0
H350 H 0.7388 0.86142 0.22887 0.0
H351 H 0.73904 0.87776 0.20802 0.0
O352 O 0.69194 0.84966 0.08312 0.0
O353 O 0.71528 0.85371 0.08554 0.0
O354 O 0.71216 0.95703 0.20426 0.0
O355 O 0.73471 0.96976 0.19511 0.0
C356 C 0.71365 0.86786 0.1708 0.0
C357 C 0.71391 0.87743 0.15892 0.0
C358 C 0.71549 0.89199 0.16345 0.0
C359 C 0.71726 0.89721 0.1799 0.0
C360 C 0.71728 0.88774 0.19184 0.0
C361 C 0.71556 0.87307 0.18726 0.0
C362 C 0.70938 0.85164 0.16572 0.0
C363 C 0.69427 0.84086 0.16053 0.0
C364 C 0.69012 0.82602 0.15392 0.0
C365 C 0.70104 0.82169 0.15225 0.0
C366 C 0.71616 0.83238 0.15796 0.0
C367 C 0.7203 0.84729 0.16467 0.0
C368 C 0.71172 0.87173 0.14165 0.0
C369 C 0.69798 0.86676 0.13252 0.0
C370 C 0.69588 0.86117 0.11634 0.0
C371 C 0.70748 0.8604 0.10904 0.0
C372 C 0.72124 0.86537 0.11829 0.0
C373 C 0.72332 0.87098 0.13445 0.0
C374 C 0.71317 0.90074 0.15097 0.0
C375 C 0.69978 0.90116 0.14978 0.0
C376 C 0.69677 0.90825 0.13743 0.0
C377 C 0.70706 0.91498 0.12591 0.0
C378 C 0.72063 0.91479 0.12727 0.0
C379 C 0.72365 0.90768 0.13972 0.0
C380 C 0.7185 0.91239 0.18453 0.0
C381 C 0.70677 0.91299 0.19165 0.0
C382 C 0.70799 0.92727 0.19603 0.0
C383 C 0.72093 0.94123 0.19326 0.0
C384 C 0.73259 0.94055 0.18599 0.0
C385 C 0.73137 0.92625 0.18165 0.0
C386 C 0.71736 0.89249 0.20902 0.0
C387 C 0.7043 0.88427 0.21688 0.0
C388 C 0.70343 0.88974 0.23226 0.0
C389 C 0.71555 0.90363 0.24 0.0
C390 C 0.72881 0.9116 0.23231 0.0
C391 C 0.72975 0.90601 0.21698 0.0
C392 C 0.71541 0.86302 0.19973 0.0
C393 C 0.702 0.84943 0.20201 0.0
C394 C 0.70184 0.84003 0.21379 0.0
C395 C 0.71507 0.84411 0.22363 0.0
C396 C 0.72847 0.85784 0.22138 0.0
C397 C 0.72862 0.86722 0.20954 0.0
C398 C 0.7052 0.85441 0.09188 0.0
C399 C 0.72228 0.95644 0.1979 0.0
H400 H 0.14704 0.8639 0.06087 0.0
H401 H 0.27229 0.96381 0.19081 0.0
H402 H 0.13719 0.87113 0.14335 0.0
H403 H 0.116 0.8465 0.13082 0.0
H404 H 0.13329 0.82169 0.15678 0.0
H405 H 0.15485 0.84631 0.16838 0.0
H406 H 0.16548 0.89646 0.12561 0.0
H407 H 0.15755 0.8866 0.09723 0.0
H408 H 0.15956 0.84562 0.10672 0.0
H409 H 0.16768 0.85572 0.135 0.0
H410 H 0.19846 0.92442 0.14268 0.0
H411 H 0.21683 0.9346 0.12263 0.0
H412 H 0.21673 0.89134 0.1182 0.0
H413 H 0.19868 0.88141 0.13831 0.0
H414 H 0.19729 0.93044 0.18225 0.0
H415 H 0.22212 0.95335 0.19026 0.0
H416 H 0.24319 0.92682 0.17717 0.0
H417 H 0.21829 0.90398 0.16938 0.0
H418 H 0.17113 0.90721 0.20435 0.0
H419 H 0.18022 0.91538 0.23293 0.0
H420 H 0.21306 0.90108 0.22733 0.0
H421 H 0.20358 0.89253 0.19907 0.0
H422 H 0.14015 0.87812 0.18505 0.0
H423 H 0.12395 0.86278 0.20526 0.0
H424 H 0.15622 0.849 0.2191 0.0
H425 H 0.17214 0.8641 0.19879 0.0
O426 O 0.15025 0.86761 0.07212 0.0
O427 O 0.15137 0.84673 0.07766 0.0
O428 O 0.25094 0.96802 0.19436 0.0
O429 O 0.26233 0.95492 0.18775 0.0
C430 C 0.16205 0.87529 0.16152 0.0
C431 C 0.17177 0.88281 0.14962 0.0
C432 C 0.18627 0.89582 0.15409 0.0
C433 C 0.19088 0.90173 0.17042 0.0
C434 C 0.18123 0.89419 0.18236 0.0
C435 C 0.16686 0.88091 0.17791 0.0
C436 C 0.14759 0.86054 0.15676 0.0
C437 C 0.13622 0.86034 0.14653 0.0
C438 C 0.12409 0.84624 0.13941 0.0
C439 C 0.12304 0.83208 0.14258 0.0
C440 C 0.13392 0.83236 0.15375 0.0
C441 C 0.14613 0.84644 0.16065 0.0
C442 C 0.16702 0.87675 0.13238 0.0
C443 C 0.16422 0.88537 0.12152 0.0
C444 C 0.15968 0.8797 0.10533 0.0
C445 C 0.15787 0.86529 0.09972 0.0
C446 C 0.16079 0.85673 0.11065 0.0
C447 C 0.16538 0.86244 0.12682 0.0
C448 C 0.19717 0.90214 0.14183 0.0
C449 C 0.20243 0.91719 0.13735 0.0
C450 C 0.2129 0.92297 0.12596 0.0
C451 C 0.21808 0.91369 0.11879 0.0
C452 C 0.21273 0.89863 0.12331 0.0
C453 C 0.20245 0.89296 0.1348 0.0
C454 C 0.20601 0.9156 0.17512 0.0
C455 C 0.20729 0.92962 0.18112 0.0
C456 C 0.22148 0.94268 0.18568 0.0
C457 C 0.23465 0.94193 0.18432 0.0
C458 C 0.23329 0.92782 0.17834 0.0
C459 C 0.21909 0.91476 0.17382 0.0
C460 C 0.18676 0.89938 0.19963 0.0
C461 C 0.18026 0.90584 0.20936 0.0
C462 C 0.18553 0.91056 0.22563 0.0
C463 C 0.19736 0.90886 0.23243 0.0
C464 C 0.20379 0.90236 0.22257 0.0
C465 C 0.19851 0.89762 0.20637 0.0
C466 C 0.1573 0.87222 0.19051 0.0
C467 C 0.1437 0.87183 0.19252 0.0
C468 C 0.13454 0.86317 0.2041 0.0
C469 C 0.13882 0.85468 0.2137 0.0
C470 C 0.15256 0.8553 0.21176 0.0
C471 C 0.16171 0.86399 0.20027 0.0
C472 C 0.15298 0.85927 0.08252 0.0
C473 C 0.24976 0.95577 0.18913 0.0
H474 H 0.28671 0.16176 0.98742 0.0
H475 H 0.31303 0.05343 0.87764 0.0
H476 H 0.27271 0.15117 0.90238 0.0
H477 H 0.27775 0.17707 0.91224 0.0
H478 H 0.32154 0.19758 0.89417 0.0
H479 H 0.31658 0.17181 0.88477 0.0
H480 H 0.27279 0.12584 0.92489 0.0
H481 H 0.27446 0.13744 0.95202 0.0
H482 H 0.31943 0.17472 0.94621 0.0
H483 H 0.31769 0.16288 0.91921 0.0
H484 H 0.27492 0.09576 0.91339 0.0
H485 H 0.28075 0.08397 0.93553 0.0
H486 H 0.32642 0.12305 0.942 0.0
H487 H 0.3204 0.13473 0.92014 0.0
H488 H 0.2709 0.08677 0.87646 0.0
H489 H 0.27284 0.06344 0.87257 0.0
H490 H 0.32099 0.09125 0.8855 0.0
H491 H 0.31886 0.11449 0.8892 0.0
H492 H 0.26976 0.10204 0.85048 0.0
H493 H 0.27224 0.09128 0.82443 0.0
H494 H 0.32054 0.12199 0.83161 0.0
H495 H 0.31797 0.13248 0.85761 0.0
H496 H 0.26683 0.13585 0.86009 0.0
H497 H 0.26506 0.14998 0.83793 0.0
H498 H 0.31328 0.17183 0.83577 0.0
H499 H 0.31471 0.15711 0.85738 0.0
O500 O 0.28633 0.15731 0.97672 0.0
O501 O 0.30934 0.17631 0.97304 0.0
O502 O 0.28717 0.04871 0.87233 0.0
O503 O 0.31194 0.06247 0.87903 0.0
C504 C 0.29279 0.14413 0.89004 0.0
C505 C 0.29384 0.13664 0.90347 0.0
C506 C 0.29424 0.1228 0.90116 0.0
C507 C 0.2935 0.11635 0.88546 0.0
C508 C 0.29251 0.12384 0.87205 0.0
C509 C 0.29202 0.13765 0.87432 0.0
C510 C 0.29422 0.15962 0.89271 0.0
C511 C 0.2832 0.16131 0.90019 0.0
C512 C 0.28614 0.17606 0.9059 0.0
C513 C 0.30005 0.18932 0.904 0.0
C514 C 0.31064 0.18761 0.89561 0.0
C515 C 0.30779 0.17288 0.89012 0.0
C516 C 0.29506 0.14359 0.92006 0.0
C517 C 0.28301 0.13648 0.92954 0.0
C518 C 0.28399 0.14315 0.94501 0.0
C519 C 0.29706 0.15704 0.95127 0.0
C520 C 0.30918 0.16405 0.94175 0.0
C521 C 0.30821 0.15733 0.92631 0.0
C522 C 0.29725 0.11606 0.91522 0.0
C523 C 0.28611 0.1018 0.91977 0.0
C524 C 0.28947 0.09511 0.93237 0.0
C525 C 0.30404 0.1026 0.94057 0.0
C526 C 0.31501 0.11711 0.93619 0.0
C527 C 0.31164 0.12376 0.92363 0.0
C528 C 0.29474 0.10226 0.88309 0.0
C529 C 0.28184 0.08778 0.87838 0.0
C530 C 0.28299 0.07448 0.8762 0.0
C531 C 0.29708 0.07548 0.87873 0.0
C532 C 0.30998 0.09007 0.88345 0.0
C533 C 0.3088 0.10335 0.88559 0.0
C534 C 0.29368 0.11809 0.8558 0.0
C535 C 0.28083 0.1065 0.84631 0.0
C536 C 0.28228 0.10033 0.83153 0.0
C537 C 0.29658 0.10585 0.826 0.0
C538 C 0.30937 0.11767 0.83547 0.0
C539 C 0.30793 0.12366 0.85029 0.0
C540 C 0.29088 0.14548 0.86028 0.0
C541 C 0.27694 0.14354 0.85463 0.0
C542 C 0.27599 0.15172 0.84206 0.0
C543 C 0.28904 0.16213 0.83506 0.0
C544 C 0.30295 0.16374 0.84062 0.0
C545 C 0.30384 0.15542 0.85305 0.0
C546 C 0.29801 0.16418 0.96765 0.0
C547 C 0.29836 0.06139 0.87649 0.0
H548 H 0.84034 0.15443 0.00092 0.0
H549 H 0.74841 0.0253 0.86875 0.0
H550 H 0.84381 0.15792 0.9132 0.0
H551 H 0.86502 0.18289 0.92474 0.0
H552 H 0.89495 0.16468 0.92035 0.0
H553 H 0.87343 0.1395 0.9089 0.0
H554 H 0.82006 0.1359 0.93245 0.0
H555 H 0.82539 0.14497 0.96111 0.0
H556 H 0.8594 0.1318 0.96506 0.0
H557 H 0.85382 0.1226 0.93641 0.0
H558 H 0.79371 0.11016 0.90898 0.0
H559 H 0.77462 0.09982 0.92793 0.0
H560 H 0.7995 0.08181 0.95298 0.0
H561 H 0.81873 0.09244 0.93392 0.0
H562 H 0.79272 0.10243 0.8745 0.0
H563 H 0.76896 0.07899 0.86437 0.0
H564 H 0.78406 0.05099 0.88752 0.0
H565 H 0.80786 0.07452 0.89741 0.0
H566 H 0.82018 0.12828 0.86051 0.0
H567 H 0.8105 0.11998 0.8322 0.0
H568 H 0.8144 0.0792 0.8355 0.0
H569 H 0.82432 0.08775 0.86386 0.0
H570 H 0.84795 0.15512 0.87923 0.0
H571 H 0.86462 0.16965 0.85917 0.0
H572 H 0.87407 0.13266 0.84964 0.0
H573 H 0.8574 0.11821 0.86989 0.0
O574 O 0.83838 0.15072 0.98962 0.0
O575 O 0.8558 0.14383 0.99099 0.0
O576 O 0.75052 0.04968 0.86085 0.0
O577 O 0.75773 0.03477 0.87258 0.0
C578 C 0.84382 0.13164 0.90422 0.0
C579 C 0.83327 0.123 0.915 0.0
C580 C 0.81954 0.1095 0.90915 0.0
C581 C 0.81654 0.10435 0.89259 0.0
C582 C 0.82712 0.11293 0.8818 0.0
C583 C 0.84082 0.12653 0.88763 0.0
C584 C 0.85711 0.14694 0.91023 0.0
C585 C 0.85496 0.15936 0.91464 0.0
C586 C 0.86711 0.17362 0.92114 0.0
C587 C 0.88167 0.17577 0.9234 0.0
C588 C 0.88384 0.16333 0.91885 0.0
C589 C 0.87162 0.14901 0.91222 0.0
C590 C 0.83646 0.12847 0.93242 0.0
C591 C 0.82858 0.13488 0.93956 0.0
C592 C 0.83168 0.1401 0.95592 0.0
C593 C 0.8428 0.13908 0.96539 0.0
C594 C 0.85074 0.13272 0.95813 0.0
C595 C 0.84759 0.12747 0.94178 0.0
C596 C 0.80751 0.10194 0.92002 0.0
C597 C 0.7949 0.10375 0.9184 0.0
C598 C 0.784 0.09781 0.92923 0.0
C599 C 0.78551 0.08994 0.94194 0.0
C600 C 0.79809 0.08793 0.9434 0.0
C601 C 0.80901 0.09389 0.9325 0.0
C602 C 0.80206 0.09014 0.88654 0.0
C603 C 0.79092 0.09121 0.87726 0.0
C604 C 0.77734 0.07781 0.87155 0.0
C605 C 0.77463 0.0631 0.87511 0.0
C606 C 0.78579 0.06212 0.88453 0.0
C607 C 0.79938 0.07553 0.8902 0.0
C608 C 0.82298 0.10863 0.86421 0.0
C609 C 0.81923 0.11771 0.85503 0.0
C610 C 0.81356 0.11288 0.83893 0.0
C611 C 0.81157 0.09887 0.83168 0.0
C612 C 0.8159 0.09009 0.84074 0.0
C613 C 0.82153 0.09492 0.85691 0.0
C614 C 0.85164 0.13572 0.87617 0.0
C615 C 0.85385 0.1503 0.87305 0.0
C616 C 0.86335 0.15856 0.86157 0.0
C617 C 0.87069 0.15231 0.85288 0.0
C618 C 0.86849 0.13771 0.85608 0.0
C619 C 0.85906 0.1295 0.86767 0.0
C620 C 0.8461 0.14467 0.98276 0.0
C621 C 0.76022 0.04882 0.86905 0.0
H622 H 0.86696 0.71541 0.02314 0.0
H623 H 0.74457 0.69448 0.89811 0.0
H624 H 0.87751 0.73172 0.94196 0.0
H625 H 0.89646 0.72595 0.953 0.0
H626 H 0.87403 0.68188 0.92377 0.0
H627 H 0.85484 0.68746 0.91337 0.0
H628 H 0.85078 0.73112 0.96178 0.0
H629 H 0.85827 0.72876 0.98927 0.0
H630 H 0.85032 0.683 0.97421 0.0
H631 H 0.84265 0.68541 0.94684 0.0
H632 H 0.81952 0.7291 0.94563 0.0
H633 H 0.80047 0.72275 0.96475 0.0
H634 H 0.79407 0.67664 0.96489 0.0
H635 H 0.81297 0.68305 0.94583 0.0
H636 H 0.81986 0.73446 0.90732 0.0
H637 H 0.79599 0.73353 0.90053 0.0
H638 H 0.77163 0.68502 0.90901 0.0
H639 H 0.79557 0.68608 0.91558 0.0
H640 H 0.84241 0.73555 0.88375 0.0
H641 H 0.83222 0.73349 0.85589 0.0
H642 H 0.80149 0.68444 0.85806 0.0
H643 H 0.81154 0.68671 0.88581 0.0
H644 H 0.87197 0.73894 0.90041 0.0
H645 H 0.88684 0.74188 0.87753 0.0
H646 H 0.85817 0.69295 0.8623 0.0
H647 H 0.84334 0.69016 0.88508 0.0
O648 O 0.86386 0.71606 0.01222 0.0
O649 O 0.8597 0.69263 0.00383 0.0
O650 O 0.76723 0.72009 0.89641 0.0
O651 O 0.75417 0.69516 0.90071 0.0
C652 C 0.85138 0.71159 0.92329 0.0
C653 C 0.84199 0.71012 0.9356 0.0
C654 C 0.82828 0.7098 0.93196 0.0
C655 C 0.82397 0.71103 0.91605 0.0
C656 C 0.83326 0.71235 0.90375 0.0
C657 C 0.84704 0.71285 0.9074 0.0
C658 C 0.8648 0.71001 0.92687 0.0
C659 C 0.87695 0.72101 0.93764 0.0
C660 C 0.88777 0.7177 0.94391 0.0
C661 C 0.88663 0.70335 0.93943 0.0
C662 C 0.87507 0.69291 0.92769 0.0
C663 C 0.86423 0.69618 0.92152 0.0
C664 C 0.84629 0.7085 0.95231 0.0
C665 C 0.85063 0.72058 0.96447 0.0
C666 C 0.85492 0.71921 0.98014 0.0
C667 C 0.85495 0.70571 0.98393 0.0
C668 C 0.85047 0.69357 0.9717 0.0
C669 C 0.84613 0.69493 0.95605 0.0
C670 C 0.81768 0.70657 0.94445 0.0
C671 C 0.81408 0.7177 0.94993 0.0
C672 C 0.80318 0.71403 0.96077 0.0
C673 C 0.79582 0.69921 0.96635 0.0
C674 C 0.79971 0.68823 0.96103 0.0
C675 C 0.8105 0.69186 0.95014 0.0
C676 C 0.80942 0.71038 0.91205 0.0
C677 C 0.80934 0.72365 0.90769 0.0
C678 C 0.7957 0.72308 0.90384 0.0
C679 C 0.78189 0.7092 0.90427 0.0
C680 C 0.78205 0.69591 0.90859 0.0
C681 C 0.7957 0.69648 0.91241 0.0
C682 C 0.82761 0.7113 0.88677 0.0
C683 C 0.8335 0.72439 0.87813 0.0
C684 C 0.82771 0.72317 0.86224 0.0
C685 C 0.81594 0.70883 0.85481 0.0
C686 C 0.81032 0.69572 0.86351 0.0
C687 C 0.81609 0.69696 0.87932 0.0
C688 C 0.85669 0.71433 0.8944 0.0
C689 C 0.86904 0.72886 0.8922 0.0
C690 C 0.87741 0.73053 0.87911 0.0
C691 C 0.87363 0.71764 0.86819 0.0
C692 C 0.86141 0.70304 0.87064 0.0
C693 C 0.85295 0.70142 0.88359 0.0
C694 C 0.85963 0.70434 0.00056 0.0
C695 C 0.76736 0.70854 0.90022 0.0
H696 H 0.80601 0.65002 0.37617 0.0
H697 H 0.91115 0.61804 0.49564 0.0
H698 H 0.81985 0.65992 0.47886 0.0
H699 H 0.80057 0.66607 0.47034 0.0
H700 H 0.77483 0.62103 0.44311 0.0
H701 H 0.79391 0.61473 0.45233 0.0
H702 H 0.82923 0.65845 0.44358 0.0
H703 H 0.82042 0.65938 0.41615 0.0
H704 H 0.80976 0.61213 0.40407 0.0
H705 H 0.81842 0.61129 0.43163 0.0
H706 H 0.85794 0.65864 0.44302 0.0
H707 H 0.87647 0.66299 0.42401 0.0
H708 H 0.86846 0.61662 0.42785 0.0
H709 H 0.84966 0.61226 0.44679 0.0
H710 H 0.87671 0.65627 0.47302 0.0
H711 H 0.89996 0.65563 0.47841 0.0
H712 H 0.8738 0.60848 0.49088 0.0
H713 H 0.85063 0.60922 0.48525 0.0
H714 H 0.86428 0.65845 0.50405 0.0
H715 H 0.87496 0.66133 0.53165 0.0
H716 H 0.84004 0.61445 0.53755 0.0
H717 H 0.82929 0.61178 0.50982 0.0
H718 H 0.83483 0.65805 0.50798 0.0
H719 H 0.82257 0.65796 0.53216 0.0
H720 H 0.78684 0.61094 0.51699 0.0
H721 H 0.79947 0.61104 0.49297 0.0
O722 O 0.80943 0.64939 0.38697 0.0
O723 O 0.80425 0.62513 0.38133 0.0
O724 O 0.91504 0.6428 0.48672 0.0
O725 O 0.90213 0.6186 0.49338 0.0
C726 C 0.82126 0.63442 0.46927 0.0
C727 C 0.82946 0.6341 0.45636 0.0
C728 C 0.84279 0.63352 0.45939 0.0
C729 C 0.84786 0.6331 0.47529 0.0
C730 C 0.83975 0.63349 0.48815 0.0
C731 C 0.8264 0.63404 0.48515 0.0
C732 C 0.8083 0.63688 0.46623 0.0
C733 C 0.80982 0.65119 0.47147 0.0
C734 C 0.79889 0.65477 0.4664 0.0
C735 C 0.78626 0.64414 0.45584 0.0
C736 C 0.78435 0.62945 0.45132 0.0
C737 C 0.79526 0.62584 0.45652 0.0
C738 C 0.82433 0.63476 0.43962 0.0
C739 C 0.8249 0.64829 0.43502 0.0
C740 C 0.81991 0.6488 0.41933 0.0
C741 C 0.81436 0.63582 0.40792 0.0
C742 C 0.81394 0.62233 0.41256 0.0
C743 C 0.8189 0.62182 0.42828 0.0
C744 C 0.85241 0.63512 0.44622 0.0
C745 C 0.85986 0.64926 0.43942 0.0
C746 C 0.87047 0.65173 0.42858 0.0
C747 C 0.87392 0.64014 0.42447 0.0
C748 C 0.86608 0.62578 0.43091 0.0
C749 C 0.85533 0.62325 0.44164 0.0
C750 C 0.862 0.63275 0.47862 0.0
C751 C 0.87603 0.64579 0.47682 0.0
C752 C 0.88929 0.6454 0.47995 0.0
C753 C 0.88874 0.63198 0.48505 0.0
C754 C 0.87463 0.61898 0.48695 0.0
C755 C 0.86138 0.61937 0.48376 0.0
C756 C 0.84609 0.63488 0.50493 0.0
C757 C 0.859 0.64878 0.51128 0.0
C758 C 0.86511 0.65037 0.52703 0.0
C759 C 0.85842 0.63807 0.53677 0.0
C760 C 0.84539 0.62417 0.53039 0.0
C761 C 0.83928 0.62258 0.51457 0.0
C762 C 0.81805 0.63453 0.4988 0.0
C763 C 0.82429 0.64778 0.50984 0.0
C764 C 0.81724 0.64773 0.5236 0.0
C765 C 0.80376 0.63441 0.52652 0.0
C766 C 0.79732 0.62129 0.51518 0.0
C767 C 0.80441 0.62136 0.5014 0.0
C768 C 0.80903 0.63639 0.39127 0.0
C769 C 0.90279 0.63152 0.48841 0.0
H770 H 0.35678 0.18579 0.40146 0.0
H771 H 0.40155 0.3124 0.53626 0.0
H772 H 0.35054 0.17802 0.48556 0.0
H773 H 0.34504 0.15283 0.47307 0.0
H774 H 0.38906 0.16234 0.49171 0.0
H775 H 0.39482 0.18802 0.50374 0.0
H776 H 0.35299 0.20307 0.46822 0.0
H777 H 0.35042 0.19536 0.43943 0.0
H778 H 0.39476 0.20054 0.44425 0.0
H779 H 0.39726 0.20842 0.473 0.0
H780 H 0.35414 0.22886 0.49255 0.0
H781 H 0.34888 0.24356 0.47363 0.0
H782 H 0.39089 0.25674 0.45344 0.0
H783 H 0.39619 0.24197 0.47272 0.0
H784 H 0.35982 0.23502 0.52665 0.0
H785 H 0.36282 0.26004 0.53625 0.0
H786 H 0.40732 0.28356 0.51973 0.0
H787 H 0.40425 0.25842 0.51039 0.0
H788 H 0.35645 0.20681 0.54135 0.0
H789 H 0.35456 0.21671 0.56786 0.0
H790 H 0.40197 0.2516 0.57115 0.0
H791 H 0.40351 0.24191 0.54423 0.0
H792 H 0.35515 0.17662 0.52305 0.0
H793 H 0.35499 0.15928 0.54265 0.0
H794 H 0.40118 0.19307 0.55983 0.0
H795 H 0.40135 0.21022 0.53997 0.0
O796 O 0.35808 0.18896 0.41284 0.0
O797 O 0.3809 0.19174 0.41598 0.0
O798 O 0.37719 0.28968 0.54103 0.0
O799 O 0.40008 0.30234 0.53261 0.0
C800 C 0.3767 0.20078 0.50138 0.0
C801 C 0.3769 0.21096 0.4902 0.0
C802 C 0.37828 0.22524 0.49569 0.0
C803 C 0.38018 0.22971 0.51234 0.0
C804 C 0.38016 0.21965 0.52355 0.0
C805 C 0.37847 0.20518 0.5181 0.0
C806 C 0.37316 0.18494 0.49534 0.0
C807 C 0.35904 0.17472 0.48691 0.0
C808 C 0.35592 0.16038 0.47978 0.0
C809 C 0.36672 0.15582 0.48129 0.0
C810 C 0.38061 0.16571 0.49036 0.0
C811 C 0.38388 0.18028 0.49724 0.0
C812 C 0.37538 0.20646 0.47265 0.0
C813 C 0.3622 0.20269 0.463 0.0
C814 C 0.36073 0.19821 0.44658 0.0
C815 C 0.3724 0.19736 0.43953 0.0
C816 C 0.38557 0.2011 0.44928 0.0
C817 C 0.38703 0.20561 0.4657 0.0
C818 C 0.37563 0.23455 0.48416 0.0
C819 C 0.36231 0.23508 0.4842 0.0
C820 C 0.35933 0.24347 0.47339 0.0
C821 C 0.36956 0.25142 0.46219 0.0
C822 C 0.38283 0.2507 0.46195 0.0
C823 C 0.38589 0.24236 0.47295 0.0
C824 C 0.38189 0.24491 0.518 0.0
C825 C 0.37025 0.24558 0.52524 0.0
C826 C 0.37197 0.25989 0.53065 0.0
C827 C 0.38534 0.27381 0.5288 0.0
C828 C 0.39691 0.27307 0.52138 0.0
C829 C 0.39518 0.25874 0.51602 0.0
C830 C 0.3801 0.22366 0.54088 0.0
C831 C 0.36651 0.21635 0.54798 0.0
C832 C 0.36547 0.22204 0.56318 0.0
C833 C 0.37808 0.2351 0.57165 0.0
C834 C 0.39195 0.24176 0.56486 0.0
C835 C 0.39292 0.23613 0.54957 0.0
C836 C 0.37831 0.19462 0.52997 0.0
C837 C 0.36528 0.1802 0.53093 0.0
C838 C 0.36521 0.17034 0.54212 0.0
C839 C 0.37809 0.17483 0.55273 0.0
C840 C 0.39106 0.18936 0.55188 0.0
C841 C 0.39119 0.19913 0.54054 0.0
C842 C 0.37077 0.19253 0.42209 0.0
C843 C 0.38723 0.28905 0.53453 0.0
H844 H 0.81292 0.19439 0.38299 0.0
H845 H 0.93865 0.29161 0.51385 0.0
H846 H 0.80344 0.19692 0.46615 0.0
H847 H 0.78219 0.17184 0.45455 0.0
H848 H 0.80226 0.14844 0.47844 0.0
H849 H 0.82379 0.17347 0.48901 0.0
H850 H 0.83133 0.22457 0.44876 0.0
H851 H 0.82325 0.21568 0.4202 0.0
H852 H 0.827 0.17519 0.42696 0.0
H853 H 0.83524 0.18432 0.45543 0.0
H854 H 0.86471 0.25302 0.46625 0.0
H855 H 0.88445 0.26507 0.44789 0.0
H856 H 0.88513 0.22233 0.44091 0.0
H857 H 0.86571 0.21055 0.45931 0.0
H858 H 0.8636 0.25764 0.50485 0.0
H859 H 0.88831 0.28063 0.51319 0.0
H860 H 0.90982 0.25461 0.49981 0.0
H861 H 0.88503 0.23169 0.49168 0.0
H862 H 0.84084 0.23635 0.5267 0.0
H863 H 0.85106 0.24446 0.5551 0.0
H864 H 0.8786 0.22366 0.54886 0.0
H865 H 0.86853 0.21584 0.52058 0.0
H866 H 0.80742 0.2036 0.50846 0.0
H867 H 0.79182 0.18702 0.52835 0.0
H868 H 0.82492 0.17354 0.53896 0.0
H869 H 0.84017 0.18977 0.5189 0.0
O870 O 0.81619 0.19772 0.39429 0.0
O871 O 0.81825 0.17709 0.39842 0.0
O872 O 0.91712 0.29551 0.51747 0.0
O873 O 0.92873 0.28268 0.51069 0.0
C874 C 0.82921 0.20215 0.48338 0.0
C875 C 0.83857 0.2105 0.47153 0.0
C876 C 0.85284 0.22382 0.47616 0.0
C877 C 0.85752 0.22917 0.4926 0.0
C878 C 0.84819 0.22087 0.50443 0.0
C879 C 0.83409 0.20732 0.49985 0.0
C880 C 0.81515 0.18704 0.47849 0.0
C881 C 0.80312 0.18634 0.469 0.0
C882 C 0.79096 0.17199 0.46244 0.0
C883 C 0.79057 0.15809 0.4654 0.0
C884 C 0.80232 0.15889 0.4756 0.0
C885 C 0.81453 0.1732 0.48192 0.0
C886 C 0.83372 0.20502 0.45418 0.0
C887 C 0.83041 0.2138 0.44403 0.0
C888 C 0.82578 0.20868 0.42773 0.0
C889 C 0.82443 0.19469 0.42131 0.0
C890 C 0.82788 0.18599 0.43153 0.0
C891 C 0.83253 0.19114 0.44781 0.0
C892 C 0.86371 0.23088 0.464 0.0
C893 C 0.86904 0.24626 0.4606 0.0
C894 C 0.88031 0.25312 0.45019 0.0
C895 C 0.88625 0.2446 0.44292 0.0
C896 C 0.88059 0.22909 0.4461 0.0
C897 C 0.86949 0.22234 0.4566 0.0
C898 C 0.87256 0.24307 0.49757 0.0
C899 C 0.87367 0.25695 0.50375 0.0
C900 C 0.88779 0.27005 0.50848 0.0
C901 C 0.90105 0.26947 0.50712 0.0
C902 C 0.89985 0.25548 0.50098 0.0
C903 C 0.88572 0.24238 0.49629 0.0
C904 C 0.85396 0.22552 0.52166 0.0
C905 C 0.84906 0.23355 0.53153 0.0
C906 C 0.85492 0.2382 0.54766 0.0
C907 C 0.86556 0.23461 0.55414 0.0
C908 C 0.8703 0.22642 0.54421 0.0
C909 C 0.86462 0.22201 0.52808 0.0
C910 C 0.82494 0.19794 0.51235 0.0
C911 C 0.81129 0.19711 0.51518 0.0
C912 C 0.80246 0.18773 0.52656 0.0
C913 C 0.80715 0.17897 0.53517 0.0
C914 C 0.82094 0.18002 0.53239 0.0
C915 C 0.82973 0.1894 0.52107 0.0
C916 C 0.81945 0.18926 0.404 0.0
C917 C 0.91608 0.28336 0.51209 0.0
H918 H 0.98538 0.50529 0.32668 0.0
H919 H 0.00851 0.40147 0.20687 0.0
H920 H 0.96516 0.49435 0.242 0.0
H921 H 0.96827 0.51922 0.25265 0.0
H922 H 0.01089 0.54345 0.23225 0.0
H923 H 0.00772 0.51861 0.22176 0.0
H924 H 0.96869 0.47047 0.26316 0.0
H925 H 0.97168 0.48147 0.29091 0.0
H926 H 0.01513 0.52019 0.28286 0.0
H927 H 0.01208 0.50895 0.25521 0.0
H928 H 0.97018 0.44132 0.24853 0.0
H929 H 0.97679 0.42856 0.26895 0.0
H930 H 0.02246 0.46765 0.27505 0.0
H931 H 0.01564 0.48033 0.25488 0.0
H932 H 0.96505 0.4331 0.21161 0.0
H933 H 0.96749 0.41026 0.20582 0.0
H934 H 0.01582 0.43877 0.21696 0.0
H935 H 0.0132 0.46153 0.22256 0.0
H936 H 0.96039 0.44973 0.18819 0.0
H937 H 0.95979 0.43691 0.16201 0.0
H938 H 0.00841 0.46413 0.16479 0.0
H939 H 0.0089 0.47666 0.191 0.0
H940 H 0.95935 0.48481 0.20181 0.0
H941 H 0.95677 0.50024 0.18148 0.0
H942 H 0.00264 0.51644 0.17091 0.0
H943 H 0.00517 0.50122 0.19145 0.0
O944 O 0.98447 0.50109 0.31571 0.0
O945 O 0.00668 0.52081 0.3109 0.0
O946 O 0.98233 0.39618 0.20329 0.0
O947 O 0.00721 0.41031 0.20904 0.0
C948 C 0.98586 0.48984 0.22745 0.0
C949 C 0.98812 0.48236 0.24026 0.0
C950 C 0.98891 0.46884 0.23696 0.0
C951 C 0.98744 0.46276 0.22091 0.0
C952 C 0.98525 0.47023 0.20811 0.0
C953 C 0.98441 0.48376 0.21136 0.0
C954 C 0.9862 0.5047 0.23109 0.0
C955 C 0.97499 0.50506 0.23953 0.0
C956 C 0.97684 0.51924 0.2457 0.0
C957 C 0.98988 0.53327 0.24339 0.0
C958 C 0.00065 0.53286 0.23409 0.0
C959 C 0.99884 0.51868 0.22804 0.0
C960 C 0.99012 0.48896 0.25718 0.0
C961 C 0.97886 0.48129 0.26745 0.0
C962 C 0.98059 0.48762 0.28328 0.0
C963 C 0.99363 0.50174 0.28909 0.0
C964 C 0.00494 0.50932 0.27876 0.0
C965 C 0.00321 0.50295 0.26296 0.0
C966 C 0.99245 0.4617 0.25026 0.0
C967 C 0.98154 0.44716 0.25447 0.0
C968 C 0.98536 0.4399 0.26607 0.0
C969 C 0.00016 0.44708 0.2736 0.0
C970 C 0.0109 0.46191 0.26969 0.0
C971 C 0.00707 0.46914 0.25811 0.0
C972 C 0.98895 0.44892 0.21747 0.0
C973 C 0.97614 0.43437 0.21273 0.0
C974 C 0.97758 0.42136 0.20947 0.0
C975 C 0.99186 0.42269 0.21093 0.0
C976 C 0.00466 0.43733 0.21572 0.0
C977 C 0.00321 0.45034 0.21893 0.0
C978 C 0.98468 0.46419 0.19136 0.0
C979 C 0.97086 0.4531 0.18297 0.0
C980 C 0.97055 0.44573 0.16813 0.0
C981 C 0.98406 0.44953 0.16141 0.0
C982 C 0.99784 0.46109 0.16961 0.0
C983 C 0.99814 0.46827 0.18453 0.0
C984 C 0.9824 0.49184 0.198 0.0
C985 C 0.96874 0.49154 0.19493 0.0
C986 C 0.96729 0.5003 0.18329 0.0
C987 C 0.97952 0.50958 0.17463 0.0
C988 C 0.99307 0.50952 0.17749 0.0
C989 C 0.99449 0.50072 0.18909 0.0
C990 C 0.99538 0.5085 0.30587 0.0
C991 C 0.99345 0.4089 0.20751 0.0
H992 H 0.49541 0.49008 0.33364 0.0
H993 H 0.41419 0.36021 0.19959 0.0
H994 H 0.50312 0.49488 0.24757 0.0
H995 H 0.52353 0.51994 0.25998 0.0
H996 H 0.55482 0.50334 0.25645 0.0
H997 H 0.53422 0.47827 0.24366 0.0
H998 H 0.47824 0.47119 0.26476 0.0
H999 H 0.48203 0.48008 0.29338 0.0
H1000 H 0.51808 0.47003 0.29973 0.0
H1001 H 0.51405 0.46101 0.27111 0.0
H1002 H 0.4535 0.44449 0.24022 0.0
H1003 H 0.43341 0.43227 0.25781 0.0
H1004 H 0.45972 0.41703 0.2849 0.0
H1005 H 0.47992 0.42947 0.26717 0.0
H1006 H 0.45486 0.43766 0.20569 0.0
H1007 H 0.43228 0.41342 0.19464 0.0
H1008 H 0.44845 0.38744 0.22018 0.0
H1009 H 0.47106 0.41177 0.23099 0.0
H1010 H 0.483 0.46505 0.19256 0.0
H1011 H 0.47491 0.45634 0.16405 0.0
H1012 H 0.47974 0.41641 0.17002 0.0
H1013 H 0.48803 0.42535 0.19863 0.0
H1014 H 0.50749 0.49245 0.2135 0.0
H1015 H 0.52427 0.50838 0.19423 0.0
H1016 H 0.53759 0.47424 0.18508 0.0
H1017 H 0.52107 0.4586 0.20485 0.0
O1018 O 0.49405 0.48644 0.32238 0.0
O1019 O 0.51254 0.48113 0.32499 0.0
O1020 O 0.41525 0.38387 0.19083 0.0
O1021 O 0.42303 0.36998 0.20378 0.0
C1022 C 0.50441 0.46932 0.23825 0.0
C1023 C 0.49358 0.46008 0.24851 0.0
C1024 C 0.48049 0.44615 0.24213 0.0
C1025 C 0.47845 0.44115 0.22559 0.0
C1026 C 0.4893 0.45034 0.2153 0.0
C1027 C 0.50229 0.46444 0.22165 0.0
C1028 C 0.5172 0.48477 0.2448 0.0
C1029 C 0.51441 0.49669 0.24942 0.0
C1030 C 0.52606 0.51095 0.25662 0.0
C1031 C 0.54079 0.51359 0.25942 0.0
C1032 C 0.54363 0.50171 0.2544 0.0
C1033 C 0.53191 0.4874 0.24713 0.0
C1034 C 0.49579 0.46534 0.26591 0.0
C1035 C 0.48687 0.47081 0.27239 0.0
C1036 C 0.4891 0.47593 0.28872 0.0
C1037 C 0.50035 0.47575 0.29885 0.0
C1038 C 0.50931 0.47031 0.29227 0.0
C1039 C 0.50703 0.46515 0.27594 0.0
C1040 C 0.46809 0.43777 0.25237 0.0
C1041 C 0.45483 0.43831 0.24981 0.0
C1042 C 0.44336 0.43129 0.25985 0.0
C1043 C 0.44495 0.42362 0.2727 0.0
C1044 C 0.45823 0.42296 0.27516 0.0
C1045 C 0.46972 0.42997 0.26503 0.0
C1046 C 0.46465 0.42645 0.21902 0.0
C1047 C 0.45354 0.42671 0.2088 0.0
C1048 C 0.44064 0.41285 0.20255 0.0
C1049 C 0.43858 0.39848 0.2065 0.0
C1050 C 0.44969 0.39829 0.21687 0.0
C1051 C 0.46261 0.41216 0.22308 0.0
C1052 C 0.48619 0.44589 0.19766 0.0
C1053 C 0.48269 0.45463 0.18764 0.0
C1054 C 0.47805 0.44962 0.17135 0.0
C1055 C 0.47666 0.43567 0.1648 0.0
C1056 C 0.48058 0.42714 0.17477 0.0
C1057 C 0.48538 0.43225 0.19106 0.0
C1058 C 0.51319 0.47447 0.21068 0.0
C1059 C 0.51422 0.48855 0.20754 0.0
C1060 C 0.52365 0.49751 0.19636 0.0
C1061 C 0.53216 0.4925 0.18803 0.0
C1062 C 0.53127 0.47847 0.19139 0.0
C1063 C 0.52184 0.46951 0.20263 0.0
C1064 C 0.50272 0.48125 0.31619 0.0
C1065 C 0.4249 0.38371 0.19987 0.0
H1066 H 0.50622 0.00106 0.35023 0.0
H1067 H 0.3897 0.98324 0.21971 0.0
H1068 H 0.52067 0.0234 0.27041 0.0
H1069 H 0.54194 0.02119 0.28131 0.0
H1070 H 0.52497 0.9781 0.25123 0.0
H1071 H 0.50345 0.98018 0.24084 0.0
H1072 H 0.49318 0.01939 0.28899 0.0
H1073 H 0.49919 0.01583 0.31656 0.0
H1074 H 0.49318 0.97118 0.29996 0.0
H1075 H 0.487 0.97481 0.27249 0.0
H1076 H 0.46565 0.02025 0.27032 0.0
H1077 H 0.44703 0.0161 0.28931 0.0
H1078 H 0.43667 0.96867 0.29093 0.0
H1079 H 0.45541 0.973 0.27203 0.0
H1080 H 0.46479 0.0244 0.23317 0.0
H1081 H 0.44095 0.02313 0.22521 0.0
H1082 H 0.41676 0.9742 0.2319 0.0
H1083 H 0.4407 0.9756 0.23965 0.0
H1084 H 0.49062 0.02872 0.21353 0.0
H1085 H 0.48229 0.03068 0.1862 0.0
H1086 H 0.44985 0.98141 0.18133 0.0
H1087 H 0.45805 0.9797 0.20872 0.0
H1088 H 0.5197 0.0298 0.23202 0.0
H1089 H 0.53689 0.03454 0.21113 0.0
H1090 H 0.50658 0.98822 0.18824 0.0
H1091 H 0.48964 0.98352 0.20931 0.0
O1092 O 0.50374 0.0022 0.33926 0.0
O1093 O 0.50059 0.97937 0.33009 0.0
O1094 O 0.41226 0.00925 0.21948 0.0
O1095 O 0.39929 0.98407 0.2228 0.0
C1096 C 0.49637 0.00195 0.25037 0.0
C1097 C 0.48618 -0.00037 0.26202 0.0
C1098 C 0.47255 0.99926 0.25769 0.0
C1099 C 0.46895 0.00089 0.24166 0.0
C1100 C 0.47905 0.00305 0.23001 0.0
C1101 C 0.49281 0.00374 0.23438 0.0
C1102 C 0.51048 0.00191 0.25491 0.0
C1103 C 0.52169 0.01362 0.26601 0.0
C1104 C 0.53388 0.01237 0.27214 0.0
C1105 C 0.53511 0.9994 0.26722 0.0
C1106 C 0.52424 0.98811 0.25544 0.0
C1107 C 0.51203 0.98935 0.24937 0.0
C1108 C 0.48968 0.99737 0.27876 0.0
C1109 C 0.4931 0.00883 0.29136 0.0
C1110 C 0.49656 0.00677 0.30708 0.0
C1111 C 0.49668 0.99323 0.31046 0.0
C1112 C 0.4932 0.98176 0.29777 0.0
C1113 C 0.4897 0.98381 0.28207 0.0
C1114 C 0.46186 0.99693 0.26984 0.0
C1115 C 0.45939 0.009 0.27486 0.0
C1116 C 0.44871 0.00658 0.28561 0.0
C1117 C 0.44034 0.99203 0.29156 0.0
C1118 C 0.44306 0.98005 0.2867 0.0
C1119 C 0.45371 0.98248 0.2759 0.0
C1120 C 0.45445 0.00011 0.23699 0.0
C1121 C 0.45433 0.01342 0.23286 0.0
C1122 C 0.4407 0.01266 0.22835 0.0
C1123 C 0.42694 0.99855 0.22793 0.0
C1124 C 0.42714 0.98524 0.23211 0.0
C1125 C 0.44078 0.98601 0.23658 0.0
C1126 C 0.47487 0.00409 0.21307 0.0
C1127 C 0.48181 0.01836 0.20646 0.0
C1128 C 0.47707 0.01943 0.19085 0.0
C1129 C 0.46532 0.00622 0.18162 0.0
C1130 C 0.45872 0.99186 0.18821 0.0
C1131 C 0.46344 0.99082 0.2038 0.0
C1132 C 0.50347 0.00633 0.22214 0.0
C1133 C 0.51686 0.02067 0.22253 0.0
C1134 C 0.52657 0.02339 0.21054 0.0
C1135 C 0.52305 0.01177 0.19803 0.0
C1136 C 0.50967 0.99734 0.19781 0.0
C1137 C 0.49996 0.99466 0.20977 0.0
C1138 C 0.50044 0.99112 0.32716 0.0
C1139 C 0.41243 0.99768 0.22314 0.0
H1140 H 0.51362 0.0306 0.72312 0.0
H1141 H 0.5956 0.98328 0.84181 0.0
H1142 H 0.50614 0.02554 0.80938 0.0
H1143 H 0.48576 0.02887 0.79785 0.0
H1144 H 0.45508 0.97936 0.79596 0.0
H1145 H 0.4756 0.97619 0.80775 0.0
H1146 H 0.53191 0.02811 0.7898 0.0
H1147 H 0.52779 0.03362 0.76247 0.0
H1148 H 0.49044 0.98652 0.7522 0.0
H1149 H 0.49479 0.98113 0.77951 0.0
H1150 H 0.55695 0.0258 0.8096 0.0
H1151 H 0.57691 0.03046 0.79234 0.0
H1152 H 0.54709 0.98644 0.76457 0.0
H1153 H 0.52713 0.98194 0.78191 0.0
H1154 H 0.55532 0.01858 0.8446 0.0
H1155 H 0.57803 0.01791 0.85331 0.0
H1156 H 0.56092 0.97457 0.82359 0.0
H1157 H 0.53819 0.97531 0.81515 0.0
H1158 H 0.52776 0.01563 0.861 0.0
H1159 H 0.53639 0.01437 0.88841 0.0
H1160 H 0.52967 0.96894 0.87437 0.0
H1161 H 0.52076 0.9702 0.84702 0.0
H1162 H 0.5007 0.01591 0.84433 0.0
H1163 H 0.48333 0.01122 0.86496 0.0
H1164 H 0.47188 0.96322 0.86261 0.0
H1165 H 0.489 0.96795 0.84173 0.0
O1166 O 0.51511 0.02814 0.73384 0.0
O1167 O 0.49596 0.00383 0.7292 0.0
O1168 O 0.59496 0.00605 0.85376 0.0
O1169 O 0.58672 0.98381 0.8386 0.0
C1170 C 0.50529 0.99865 0.81427 0.0
C1171 C 0.51602 0.00097 0.80328 0.0
C1172 C 0.52902 0.00037 0.80822 0.0
C1173 C 0.53129 0.99736 0.8241 0.0
C1174 C 0.52052 0.99488 0.83503 0.0
C1175 C 0.50741 0.9953 0.83005 0.0
C1176 C 0.49235 0.00063 0.80932 0.0
C1177 C 0.49496 0.01545 0.80669 0.0
C1178 C 0.48333 0.0173 0.8 0.0
C1179 C 0.46884 0.00435 0.79578 0.0
C1180 C 0.46608 0.98957 0.79915 0.0
C1181 C 0.47777 0.98773 0.80586 0.0
C1182 C 0.51369 0.00422 0.78659 0.0
C1183 C 0.52292 0.01898 0.78158 0.0
C1184 C 0.5205 0.0221 0.76599 0.0
C1185 C 0.50878 0.01051 0.75514 0.0
C1186 C 0.49956 0.99571 0.76024 0.0
C1187 C 0.50202 0.9926 0.77582 0.0
C1188 C 0.54066 0.00351 0.79702 0.0
C1189 C 0.55474 0.01721 0.79975 0.0
C1190 C 0.56612 0.0198 0.78994 0.0
C1191 C 0.5636 0.00875 0.77719 0.0
C1192 C 0.54933 0.99521 0.77424 0.0
C1193 C 0.53794 0.9926 0.78411 0.0
C1194 C 0.5451 0.99696 0.82931 0.0
C1195 C 0.55648 0.00892 0.84006 0.0
C1196 C 0.56944 0.00852 0.84497 0.0
C1197 C 0.57128 0.99617 0.83915 0.0
C1198 C 0.55986 0.98424 0.82832 0.0
C1199 C 0.54688 0.98464 0.82345 0.0
C1200 C 0.52365 0.99301 0.85205 0.0
C1201 C 0.52784 0.00527 0.86395 0.0
C1202 C 0.5329 0.00459 0.87953 0.0
C1203 C 0.53385 0.99162 0.88349 0.0
C1204 C 0.52897 0.97904 0.87171 0.0
C1205 C 0.52392 0.97974 0.8561 0.0
C1206 C 0.49602 0.99224 0.84151 0.0
C1207 C 0.49425 0.00434 0.84811 0.0
C1208 C 0.48446 0.00167 0.86 0.0
C1209 C 0.47631 0.98686 0.86547 0.0
C1210 C 0.47789 0.9747 0.85853 0.0
C1211 C 0.48768 0.97738 0.84666 0.0
C1212 C 0.50618 0.0139 0.73861 0.0
C1213 C 0.58505 0.9957 0.84431 0.0
H1214 H 0.97722 0.48528 0.73948 0.0
H1215 H 0.0265 0.62337 0.86113 0.0
H1216 H 0.9847 0.48752 0.82782 0.0
H1217 H 0.98043 0.46246 0.81653 0.0
H1218 H 0.02855 0.48057 0.82117 0.0
H1219 H 0.03266 0.50565 0.83281 0.0
H1220 H 0.98178 0.50948 0.8061 0.0
H1221 H 0.9755 0.49832 0.77804 0.0
H1222 H 0.02144 0.50875 0.77569 0.0
H1223 H 0.0276 0.52001 0.80372 0.0
H1224 H 0.98425 0.53802 0.82546 0.0
H1225 H 0.97756 0.55144 0.80607 0.0
H1226 H 0.01914 0.56531 0.78459 0.0
H1227 H 0.02573 0.55172 0.80411 0.0
H1228 H 0.99283 0.54636 0.86105 0.0
H1229 H 0.99354 0.57068 0.86873 0.0
H1230 H 0.03473 0.5959 0.84593 0.0
H1231 H 0.03398 0.5715 0.83852 0.0
H1232 H 0.99599 0.52224 0.87916 0.0
H1233 H 0.99742 0.5346 0.90581 0.0
H1234 H 0.04154 0.57271 0.89886 0.0
H1235 H 0.04007 0.56015 0.87228 0.0
H1236 H 0.9947 0.49208 0.86189 0.0
H1237 H 0.99934 0.47761 0.88169 0.0
H1238 H 0.04562 0.51516 0.89116 0.0
H1239 H 0.04102 0.52913 0.87062 0.0
O1240 O 0.97997 0.48983 0.75053 0.0
O1241 O 0.00372 0.49539 0.74997 0.0
O1242 O 0.00486 0.6001 0.87 0.0
O1243 O 0.02597 0.61359 0.85831 0.0
C1244 C 0.01132 0.51394 0.83588 0.0
C1245 C 0.00889 0.52214 0.82401 0.0
C1246 C 0.00958 0.53628 0.82846 0.0
C1247 C 0.013 0.54242 0.84474 0.0
C1248 C 0.01565 0.53434 0.85663 0.0
C1249 C 0.01486 0.52009 0.8522 0.0
C1250 C 0.00898 0.49835 0.83108 0.0
C1251 C 0.99429 0.48599 0.82661 0.0
C1252 C 0.9919 0.47175 0.82002 0.0
C1253 C 0.00417 0.46961 0.81771 0.0
C1254 C 0.01887 0.48185 0.82284 0.0
C1255 C 0.02126 0.49615 0.82949 0.0
C1256 C 0.00516 0.51562 0.80688 0.0
C1257 C 0.99049 0.50944 0.79945 0.0
C1258 C 0.98693 0.50303 0.78345 0.0
C1259 C 0.99797 0.50265 0.77461 0.0
C1260 C 0.01267 0.50886 0.78214 0.0
C1261 C 0.01622 0.5153 0.79814 0.0
C1262 C 0.00554 0.54408 0.81627 0.0
C1263 C 0.99191 0.54397 0.81657 0.0
C1264 C 0.98813 0.55164 0.80552 0.0
C1265 C 0.9979 0.55953 0.79392 0.0
C1266 C 0.01137 0.55925 0.79335 0.0
C1267 C 0.01518 0.5516 0.8045 0.0
C1268 C 0.01342 0.5572 0.84935 0.0
C1269 C 0.00205 0.55717 0.85783 0.0
C1270 C 0.00246 0.57107 0.86215 0.0
C1271 C 0.01421 0.58525 0.85796 0.0
C1272 C 0.02554 0.5852 0.84936 0.0
C1273 C 0.02514 0.57129 0.8451 0.0
C1274 C 0.01792 0.54031 0.87381 0.0
C1275 C 0.00613 0.53304 0.88359 0.0
C1276 C 0.0069 0.54019 0.89871 0.0
C1277 C 0.01952 0.55471 0.90432 0.0
C1278 C 0.03172 0.56149 0.89489 0.0
C1279 C 0.0309 0.55436 0.87973 0.0
C1280 C 0.01757 0.51156 0.86466 0.0
C1281 C 0.00587 0.4971 0.86813 0.0
C1282 C 0.00852 0.48894 0.87962 0.0
C1283 C 0.02288 0.49521 0.88807 0.0
C1284 C 0.0345 0.50986 0.88472 0.0
C1285 C 0.03187 0.51793 0.87309 0.0
C1286 C 0.99412 0.49576 0.75763 0.0
C1287 C 0.01468 0.60005 0.86248 0.0
H1288 H 0.48746 0.52278 0.72542 0.0
H1289 H 0.61066 0.61925 0.8594 0.0
H1290 H 0.47537 0.53187 0.80701 0.0
H1291 H 0.45368 0.50739 0.79486 0.0
H1292 H 0.46926 0.48206 0.82247 0.0
H1293 H 0.4913 0.50646 0.83367 0.0
H1294 H 0.50484 0.55629 0.78966 0.0
H1295 H 0.49755 0.54608 0.76132 0.0
H1296 H 0.49771 0.50454 0.77263 0.0
H1297 H 0.50519 0.51498 0.80088 0.0
H1298 H 0.53763 0.5839 0.80786 0.0
H1299 H 0.55742 0.59399 0.78937 0.0
H1300 H 0.55635 0.5502 0.78619 0.0
H1301 H 0.53677 0.54032 0.8047 0.0
H1302 H 0.53658 0.59105 0.8455 0.0
H1303 H 0.5619 0.61291 0.8542 0.0
H1304 H 0.5803 0.58294 0.84593 0.0
H1305 H 0.5549 0.56116 0.83742 0.0
H1306 H 0.51295 0.57354 0.86649 0.0
H1307 H 0.52256 0.58312 0.89484 0.0
H1308 H 0.5448 0.5563 0.89473 0.0
H1309 H 0.53535 0.54699 0.86646 0.0
H1310 H 0.47914 0.54266 0.85002 0.0
H1311 H 0.46239 0.52938 0.87066 0.0
H1312 H 0.48903 0.5084 0.88284 0.0
H1313 H 0.50587 0.52213 0.86268 0.0
O1314 O 0.49041 0.52662 0.73666 0.0
O1315 O 0.49059 0.50547 0.74312 0.0
O1316 O 0.59048 0.6257 0.86018 0.0
O1317 O 0.60052 0.6108 0.85605 0.0
C1318 C 0.49951 0.53549 0.82617 0.0
C1319 C 0.50975 0.54258 0.81453 0.0
C1320 C 0.52433 0.55535 0.81931 0.0
C1321 C 0.52855 0.56135 0.83563 0.0
C1322 C 0.51836 0.5543 0.84723 0.0
C1323 C 0.50389 0.54135 0.84254 0.0
C1324 C 0.4849 0.52097 0.82128 0.0
C1325 C 0.47392 0.52102 0.81061 0.0
C1326 C 0.46151 0.50701 0.80372 0.0
C1327 C 0.45981 0.49272 0.80752 0.0
C1328 C 0.47037 0.49281 0.81899 0.0
C1329 C 0.48285 0.50678 0.82566 0.0
C1330 C 0.50541 0.53632 0.79733 0.0
C1331 C 0.50332 0.54501 0.78597 0.0
C1332 C 0.49913 0.53913 0.76981 0.0
C1333 C 0.497 0.52447 0.76471 0.0
C1334 C 0.49922 0.51585 0.77615 0.0
C1335 C 0.50344 0.52176 0.7923 0.0
C1336 C 0.53572 0.56136 0.80751 0.0
C1337 C 0.54165 0.57651 0.80308 0.0
C1338 C 0.55295 0.58224 0.7926 0.0
C1339 C 0.55837 0.57284 0.7863 0.0
C1340 C 0.55223 0.55762 0.79064 0.0
C1341 C 0.54107 0.55196 0.80121 0.0
C1342 C 0.54395 0.57458 0.84078 0.0
C1343 C 0.54611 0.58925 0.8456 0.0
C1344 C 0.56057 0.6017 0.85054 0.0
C1345 C 0.57314 0.59968 0.85073 0.0
C1346 C 0.57089 0.58491 0.8459 0.0
C1347 C 0.55641 0.57246 0.841 0.0
C1348 C 0.52347 0.55959 0.86451 0.0
C1349 C 0.51983 0.56971 0.87266 0.0
C1350 C 0.52535 0.57519 0.88877 0.0
C1351 C 0.53437 0.5704 0.89696 0.0
C1352 C 0.53774 0.56004 0.88877 0.0
C1353 C 0.53241 0.55476 0.87265 0.0
C1354 C 0.4937 0.53336 0.85495 0.0
C1355 C 0.48134 0.53525 0.85726 0.0
C1356 C 0.47177 0.5276 0.86899 0.0
C1357 C 0.47439 0.51787 0.8785 0.0
C1358 C 0.48685 0.51607 0.87605 0.0
C1359 C 0.49643 0.5238 0.86444 0.0
C1360 C 0.49248 0.51823 0.74754 0.0
C1361 C 0.58854 0.61288 0.85595 0.0
H1362 H 0.62056 0.81944 0.66254 0.0
H1363 H 0.64214 0.71075 0.54958 0.0
H1364 H 0.60929 0.81355 0.57766 0.0
H1365 H 0.61466 0.83963 0.58728 0.0
H1366 H 0.65845 0.85947 0.56928 0.0
H1367 H 0.65317 0.83349 0.56009 0.0
H1368 H 0.60726 0.78628 0.59849 0.0
H1369 H 0.60859 0.79676 0.62607 0.0
H1370 H 0.65428 0.83358 0.62224 0.0
H1371 H 0.65285 0.82286 0.59476 0.0
H1372 H 0.60824 0.75594 0.58561 0.0
H1373 H 0.61309 0.74218 0.60632 0.0
H1374 H 0.65934 0.77998 0.61469 0.0
H1375 H 0.65425 0.79365 0.59437 0.0
H1376 H 0.6048 0.74919 0.54705 0.0
H1377 H 0.605 0.72495 0.54224 0.0
H1378 H 0.65236 0.74904 0.5595 0.0
H1379 H 0.65201 0.77321 0.56408 0.0
H1380 H 0.60542 0.76842 0.52219 0.0
H1381 H 0.60771 0.75832 0.49563 0.0
H1382 H 0.65597 0.78122 0.50687 0.0
H1383 H 0.65356 0.79099 0.53337 0.0
H1384 H 0.60558 0.8039 0.53657 0.0
H1385 H 0.60656 0.82056 0.51574 0.0
H1386 H 0.65265 0.83308 0.51014 0.0
H1387 H 0.65164 0.81666 0.53117 0.0
O1388 O 0.62031 0.81544 0.65166 0.0
O1389 O 0.64373 0.83418 0.64903 0.0
O1390 O 0.61745 0.70838 0.54233 0.0
O1391 O 0.64176 0.72018 0.55127 0.0
C1392 C 0.6288 0.80593 0.56477 0.0
C1393 C 0.62893 0.79757 0.57779 0.0
C1394 C 0.62868 0.78343 0.57488 0.0
C1395 C 0.62813 0.77752 0.55898 0.0
C1396 C 0.62809 0.78589 0.54598 0.0
C1397 C 0.62831 0.80004 0.54884 0.0
C1398 C 0.6308 0.82163 0.56809 0.0
C1399 C 0.61992 0.82357 0.57555 0.0
C1400 C 0.62303 0.83842 0.5811 0.0
C1401 C 0.63698 0.85155 0.57904 0.0
C1402 C 0.64753 0.84959 0.57084 0.0
C1403 C 0.6445 0.83476 0.56552 0.0
C1404 C 0.62991 0.80388 0.5946 0.0
C1405 C 0.61755 0.79658 0.60366 0.0
C1406 C 0.61834 0.80261 0.61939 0.0
C1407 C 0.63152 0.81604 0.62634 0.0
C1408 C 0.64394 0.82325 0.61724 0.0
C1409 C 0.64314 0.81718 0.60153 0.0
C1410 C 0.6309 0.77576 0.58854 0.0
C1411 C 0.61931 0.76131 0.59218 0.0
C1412 C 0.62213 0.75347 0.60394 0.0
C1413 C 0.63661 0.75996 0.61217 0.0
C1414 C 0.64799 0.77475 0.60886 0.0
C1415 C 0.64514 0.78256 0.59717 0.0
C1416 C 0.62837 0.7629 0.55595 0.0
C1417 C 0.6152 0.74919 0.54973 0.0
C1418 C 0.61535 0.73537 0.54702 0.0
C1419 C 0.6287 0.73505 0.55052 0.0
C1420 C 0.64189 0.74887 0.5567 0.0
C1421 C 0.64173 0.76268 0.55935 0.0
C1422 C 0.62934 0.78051 0.52958 0.0
C1423 C 0.61647 0.77131 0.51882 0.0
C1424 C 0.61778 0.76551 0.50375 0.0
C1425 C 0.63203 0.76906 0.49921 0.0
C1426 C 0.64489 0.77847 0.50999 0.0
C1427 C 0.64354 0.78403 0.5251 0.0
C1428 C 0.6285 0.809 0.53527 0.0
C1429 C 0.61581 0.8101 0.53068 0.0
C1430 C 0.61637 0.81956 0.51876 0.0
C1431 C 0.62969 0.82814 0.51133 0.0
C1432 C 0.64227 0.82671 0.51575 0.0
C1433 C 0.64168 0.81723 0.52762 0.0
C1434 C 0.63229 0.82248 0.64301 0.0
C1435 C 0.6289 0.72038 0.54776 0.0
H1436 H 0.1662 0.81046 0.68244 0.0
H1437 H 0.08545 0.69034 0.54037 0.0
H1438 H 0.17086 0.82306 0.59992 0.0
H1439 H 0.19161 0.84804 0.61225 0.0
H1440 H 0.22367 0.83618 0.5952 0.0
H1441 H 0.20275 0.81085 0.58329 0.0
H1442 H 0.14643 0.79711 0.61362 0.0
H1443 H 0.15112 0.80335 0.64281 0.0
H1444 H 0.18939 0.79658 0.6428 0.0
H1445 H 0.18445 0.79018 0.61362 0.0
H1446 H 0.12152 0.77204 0.58599 0.0
H1447 H 0.10148 0.75742 0.60294 0.0
H1448 H 0.12981 0.74355 0.62824 0.0
H1449 H 0.14987 0.75802 0.61082 0.0
H1450 H 0.12203 0.76774 0.55216 0.0
H1451 H 0.1001 0.74333 0.54033 0.0
H1452 H 0.1196 0.71795 0.56088 0.0
H1453 H 0.14157 0.74247 0.57247 0.0
H1454 H 0.14759 0.79691 0.54069 0.0
H1455 H 0.13846 0.79003 0.51214 0.0
H1456 H 0.14841 0.75293 0.51128 0.0
H1457 H 0.15776 0.76007 0.53988 0.0
H1458 H 0.1733 0.82433 0.56204 0.0
H1459 H 0.18855 0.8422 0.54301 0.0
H1460 H 0.20357 0.8106 0.52794 0.0
H1461 H 0.18854 0.79296 0.54734 0.0
O1462 O 0.1645 0.80789 0.67091 0.0
O1463 O 0.18411 0.80434 0.67024 0.0
O1464 O 0.08452 0.71378 0.53452 0.0
O1465 O 0.09402 0.70018 0.54489 0.0
C1466 C 0.17248 0.79976 0.58374 0.0
C1467 C 0.16222 0.78931 0.59379 0.0
C1468 C 0.14923 0.77549 0.58693 0.0
C1469 C 0.14687 0.7717 0.5701 0.0
C1470 C 0.15706 0.78211 0.56005 0.0
C1471 C 0.16983 0.79615 0.56685 0.0
C1472 C 0.18527 0.81503 0.59088 0.0
C1473 C 0.18235 0.82574 0.59903 0.0
C1474 C 0.19419 0.83998 0.60606 0.0
C1475 C 0.20922 0.84395 0.60479 0.0
C1476 C 0.21217 0.83338 0.59635 0.0
C1477 C 0.20027 0.81896 0.58955 0.0
C1478 C 0.16502 0.79305 0.61153 0.0
C1479 C 0.15574 0.79686 0.61997 0.0
C1480 C 0.15849 0.80048 0.63663 0.0
C1481 C 0.17062 0.80044 0.64515 0.0
C1482 C 0.17994 0.79669 0.63662 0.0
C1483 C 0.17715 0.79304 0.61996 0.0
C1484 C 0.13709 0.76596 0.59706 0.0
C1485 C 0.12332 0.76561 0.59498 0.0
C1486 C 0.11189 0.75726 0.60466 0.0
C1487 C 0.11407 0.74927 0.61681 0.0
C1488 C 0.12788 0.74963 0.61895 0.0
C1489 C 0.13929 0.75784 0.60904 0.0
C1490 C 0.13346 0.75687 0.56302 0.0
C1491 C 0.1216 0.7569 0.55398 0.0
C1492 C 0.10906 0.74294 0.54729 0.0
C1493 C 0.10812 0.72868 0.54962 0.0
C1494 C 0.11998 0.72871 0.55882 0.0
C1495 C 0.13253 0.74269 0.56546 0.0
C1496 C 0.15336 0.77901 0.54233 0.0
C1497 C 0.14808 0.7875 0.53425 0.0
C1498 C 0.14274 0.78346 0.51801 0.0
C1499 C 0.14259 0.77085 0.50953 0.0
C1500 C 0.14847 0.76275 0.51748 0.0
C1501 C 0.15378 0.76678 0.53379 0.0
C1502 C 0.1799 0.80742 0.55611 0.0
C1503 C 0.18006 0.82139 0.55479 0.0
C1504 C 0.18864 0.83148 0.5438 0.0
C1505 C 0.19718 0.82775 0.5339 0.0
C1506 C 0.19721 0.81385 0.53549 0.0
C1507 C 0.18861 0.80376 0.5465 0.0
C1508 C 0.17353 0.80433 0.66285 0.0
C1509 C 0.09482 0.71381 0.54253 0.0
H1510 H 0.19879 0.378 0.69395 0.0
H1511 H 0.07922 0.36353 0.56962 0.0
H1512 H 0.20902 0.39154 0.61186 0.0
H1513 H 0.22892 0.38628 0.6209 0.0
H1514 H 0.20476 0.34142 0.59322 0.0
H1515 H 0.18492 0.34669 0.58441 0.0
H1516 H 0.18343 0.39319 0.63186 0.0
H1517 H 0.1908 0.39117 0.65952 0.0
H1518 H 0.18064 0.34434 0.64582 0.0
H1519 H 0.17313 0.34645 0.61826 0.0
H1520 H 0.15396 0.39338 0.61605 0.0
H1521 H 0.13434 0.38856 0.63403 0.0
H1522 H 0.12418 0.34116 0.63508 0.0
H1523 H 0.1435 0.34598 0.61689 0.0
H1524 H 0.15431 0.39779 0.57722 0.0
H1525 H 0.13154 0.39906 0.57062 0.0
H1526 H 0.1041 0.35125 0.58062 0.0
H1527 H 0.12694 0.35009 0.58699 0.0
H1528 H 0.17709 0.39561 0.55339 0.0
H1529 H 0.1685 0.39358 0.52494 0.0
H1530 H 0.13165 0.34715 0.52886 0.0
H1531 H 0.14059 0.34912 0.55701 0.0
H1532 H 0.20541 0.39568 0.57101 0.0
H1533 H 0.21929 0.39572 0.54809 0.0
H1534 H 0.18402 0.34874 0.53201 0.0
H1535 H 0.17041 0.34875 0.55503 0.0
O1536 O 0.19574 0.37852 0.68296 0.0
O1537 O 0.19044 0.35453 0.67527 0.0
O1538 O 0.10302 0.38787 0.56707 0.0
O1539 O 0.08841 0.36334 0.57214 0.0
C1540 C 0.18245 0.37162 0.59382 0.0
C1541 C 0.17358 0.37141 0.60624 0.0
C1542 C 0.1604 0.37212 0.60262 0.0
C1543 C 0.15615 0.37322 0.58663 0.0
C1544 C 0.16489 0.37327 0.57422 0.0
C1545 C 0.17806 0.37255 0.57781 0.0
C1546 C 0.19554 0.36952 0.59745 0.0
C1547 C 0.20818 0.3807 0.60755 0.0
C1548 C 0.21947 0.37765 0.61275 0.0
C1549 C 0.21837 0.36342 0.6078 0.0
C1550 C 0.20604 0.35256 0.59707 0.0
C1551 C 0.1947 0.35556 0.59201 0.0
C1552 C 0.17785 0.37001 0.62305 0.0
C1553 C 0.18277 0.3825 0.63488 0.0
C1554 C 0.18699 0.38131 0.65066 0.0
C1555 C 0.18636 0.36761 0.65488 0.0
C1556 C 0.18131 0.35508 0.64298 0.0
C1557 C 0.17705 0.35626 0.62722 0.0
C1558 C 0.15012 0.37003 0.6152 0.0
C1559 C 0.14762 0.38204 0.62038 0.0
C1560 C 0.13646 0.37928 0.63065 0.0
C1561 C 0.12764 0.36444 0.63583 0.0
C1562 C 0.13064 0.35264 0.63109 0.0
C1563 C 0.14177 0.35541 0.62086 0.0
C1564 C 0.14227 0.3739 0.58271 0.0
C1565 C 0.14336 0.38761 0.57797 0.0
C1566 C 0.13035 0.3883 0.57422 0.0
C1567 C 0.11599 0.37526 0.57514 0.0
C1568 C 0.11496 0.36151 0.57983 0.0
C1569 C 0.12799 0.36083 0.58353 0.0
C1570 C 0.15942 0.37253 0.55723 0.0
C1571 C 0.16716 0.38504 0.54805 0.0
C1572 C 0.1622 0.38388 0.53186 0.0
C1573 C 0.14944 0.37017 0.52463 0.0
C1574 C 0.14166 0.35776 0.53398 0.0
C1575 C 0.14663 0.35892 0.5501 0.0
C1576 C 0.18694 0.37222 0.56462 0.0
C1577 C 0.2008 0.38537 0.56259 0.0
C1578 C 0.20862 0.38541 0.54946 0.0
C1579 C 0.2027 0.37225 0.53824 0.0
C1580 C 0.18893 0.359 0.54053 0.0
C1581 C 0.18112 0.35899 0.55361 0.0
C1582 C 0.19095 0.36643 0.67162 0.0
C1583 C 0.10213 0.37593 0.5712 0.0
H1584 H 0.98109 0.38679 0.02173 0.0
H1585 H 0.97818 0.3989 0.04629 0.0
H1586 H 0.00321 0.38284 0.07416 0.0
H1587 H 0.00664 0.3711 0.0495 0.0
H1588 H 0.96525 0.38809 0.07289 0.0
H1589 H 0.02652 0.42852 0.0886 0.0
H1590 H 0.019 0.41698 0.06947 0.0
H1591 H 0.0214 0.40848 0.08696 0.0
C1592 C 0.98593 0.38574 0.03307 0.0
C1593 C 0.99422 0.37807 0.03361 0.0
C1594 C 0.98426 0.39269 0.04713 0.0
C1595 C 0.99074 0.39208 0.06205 0.0
C1596 C 0.99847 0.38386 0.06274 0.0
H1597 H 0.96915 0.41817 0.1539 0.0
H1598 H 0.97031 0.4039 0.12982 0.0
C1599 C 0.00032 0.37705 0.04864 0.0
C1600 C 0.9895 0.40022 0.07677 0.0
H1601 H 0.01032 0.428 0.10785 0.0
C1602 C 0.97511 0.39683 0.08053 0.0
C1603 C 0.00237 0.41183 0.08658 0.0
C1604 C 0.0182 0.4168 0.08264 0.0
C1605 C 0.97322 0.40467 0.09384 0.0
C1606 C 0.98607 0.4159 0.10395 0.0
C1607 C 0.00046 0.41931 0.10017 0.0
C1608 C 0.98494 0.42447 0.11838 0.0
C1609 C 0.95751 0.40115 0.09662 0.0
C1610 C 0.99305 0.44079 0.12018 0.0
C1611 C 0.99259 0.44895 0.13404 0.0
C1612 C 0.98392 0.44094 0.14632 0.0
C1613 C 0.97569 0.42462 0.14447 0.0
C1614 C 0.97631 0.41646 0.13069 0.0
H1615 H 0.94973 0.39605 0.0854 0.0
H1616 H 0.95299 0.39258 0.10561 0.0
H1617 H 0.95752 0.41177 0.10124 0.0
H1618 H -0.00019 0.44722 0.11087 0.0
H1619 H 0.99901 0.46152 0.13517 0.0
H1620 H 0.62129 0.57954 0.08481 0.0
H1621 H 0.60555 0.557 0.09921 0.0
H1622 H 0.5904 0.58383 0.12597 0.0
H1623 H 0.60619 0.60634 0.11197 0.0
H1624 H 0.60197 0.5691 0.14501 0.0
H1625 H 0.55899 0.52829 0.09602 0.0
H1626 H 0.57845 0.53665 0.09225 0.0
H1627 H 0.57045 0.54888 0.09438 0.0
C1628 C 0.61444 0.58056 0.0936 0.0
C1629 C 0.61496 0.59473 0.09722 0.0
C1630 C 0.60542 0.56766 0.10176 0.0
C1631 C 0.59676 0.56876 0.11356 0.0
C1632 C 0.59699 0.58276 0.11687 0.0
H1633 H 0.52527 0.50704 0.16528 0.0
H1634 H 0.54177 0.52418 0.14653 0.0
C1635 C 0.60598 0.59561 0.10879 0.0
C1636 C 0.58816 0.55576 0.12331 0.0
H1637 H 0.5571 0.51953 0.12183 0.0
C1638 C 0.59224 0.55819 0.13995 0.0
C1639 C 0.57546 0.54162 0.11662 0.0
C1640 C 0.57044 0.53864 0.09886 0.0
C1641 C 0.58369 0.54701 0.15018 0.0
C1642 C 0.57088 0.53291 0.14353 0.0
C1643 C 0.567 0.53031 0.12684 0.0
C1644 C 0.56065 0.5214 0.15391 0.0
C1645 C 0.58806 0.55069 0.16809 0.0
C1646 C 0.56573 0.51392 0.16403 0.0
C1647 C 0.55638 0.50425 0.17492 0.0
C1648 C 0.54179 0.50188 0.17579 0.0
C1649 C 0.53656 0.5089 0.16514 0.0
C1650 C 0.54591 0.51856 0.15431 0.0
H1651 H 0.59636 0.5632 0.17141 0.0
H1652 H 0.57798 0.54744 0.17468 0.0
H1653 H 0.59323 0.54391 0.17217 0.0
H1654 H 0.57702 0.51581 0.16374 0.0
H1655 H 0.56074 0.49903 0.18298 0.0
H1656 H 0.38701 0.99353 0.05281 0.0
H1657 H 0.39979 0.99449 0.07864 0.0
H1658 H 0.4423 0.02908 0.06369 0.0
H1659 H 0.4296 0.02841 0.03784 0.0
H1660 H 0.4226 0.98772 0.08369 0.0
H1661 H 0.44166 0.04829 0.10788 0.0
H1662 H 0.42756 0.0384 0.09097 0.0
H1663 H 0.44718 0.04632 0.0883 0.0
C1664 C 0.39906 0.00145 0.05501 0.0
C1665 C 0.40727 0.01092 0.04322 0.0
C1666 C 0.40634 0.00196 0.0698 0.0
C1667 C 0.42195 0.01197 0.07314 0.0
C1668 C 0.43019 0.02149 0.06147 0.0
H1669 H 0.48165 0.0232 0.15788 0.0
H1670 H 0.47193 0.02495 0.13114 0.0
C1671 C 0.42291 0.02103 0.04666 0.0
C1672 C 0.42958 0.01188 0.08862 0.0
H1673 H 0.44979 0.03427 0.12327 0.0
C1674 C 0.42856 0.9979 0.09234 0.0
C1675 C 0.43742 0.02521 0.09982 0.0
C1676 C 0.43845 0.04039 0.09666 0.0
C1677 C 0.43506 0.99686 0.10703 0.0
C1678 C 0.44262 0.01009 0.11835 0.0
C1679 C 0.44397 0.02416 0.11452 0.0
C1680 C 0.44854 0.00928 0.13454 0.0
C1681 C 0.43381 0.98161 0.11033 0.0
C1682 C 0.43856 0.0001 0.14533 0.0
C1683 C 0.44403 0.99917 0.16059 0.0
C1684 C 0.45961 0.00741 0.16539 0.0
C1685 C 0.46958 0.01679 0.1546 0.0
C1686 C 0.46408 0.01775 0.13931 0.0
H1687 H 0.43108 0.97386 0.09908 0.0
H1688 H 0.44447 0.98351 0.11661 0.0
H1689 H 0.42466 0.97556 0.11821 0.0
H1690 H 0.42651 0.99372 0.14195 0.0
H1691 H 0.43602 0.99213 0.16872 0.0
H1692 H 0.4024 0.00667 0.96624 0.0
H1693 H 0.41745 0.00308 0.94691 0.0
H1694 H 0.40262 0.95717 0.96092 0.0
H1695 H 0.38743 0.96066 0.98054 0.0
H1696 H 0.43577 0.97779 0.9569 0.0
H1697 H 0.39663 0.97177 0.90498 0.0
H1698 H 0.40209 0.98812 0.91943 0.0
H1699 H 0.39111 0.96876 0.92518 0.0
C1700 C 0.40244 0.99586 0.96543 0.0
C1701 C 0.39369 0.98393 0.97492 0.0
C1702 C 0.411 0.99382 0.95429 0.0
C1703 C 0.41095 0.9798 0.95239 0.0
C1704 C 0.4027 0.96803 0.96221 0.0
H1705 H 0.44809 0.96209 0.8676 0.0
H1706 H 0.43193 0.95792 0.88939 0.0
C1707 C 0.39405 0.97005 0.97338 0.0
C1708 C 0.41926 0.97752 0.93976 0.0
H1709 H 0.42099 0.97679 0.89918 0.0
C1710 C 0.43246 0.97733 0.94426 0.0
C1711 C 0.41475 0.97671 0.92331 0.0
C1712 C 0.40029 0.97621 0.91786 0.0
C1713 C 0.44175 0.97718 0.93268 0.0
C1714 C 0.43774 0.97742 0.91629 0.0
C1715 C 0.4241 0.97675 0.91177 0.0
C1716 C 0.44791 0.97933 0.90372 0.0
C1717 C 0.45584 0.97698 0.93809 0.0
C1718 C 0.46216 0.9928 0.90453 0.0
C1719 C 0.4714 0.9952 0.89214 0.0
C1720 C 0.46651 0.98421 0.87866 0.0
C1721 C 0.45223 0.97068 0.87791 0.0
C1722 C 0.44299 0.9683 0.89031 0.0
H1723 H 0.45492 0.97206 0.94983 0.0
H1724 H 0.45823 0.97012 0.92908 0.0
H1725 H 0.46556 0.98906 0.93961 0.0
H1726 H 0.46604 0.00161 0.91461 0.0
H1727 H 0.4824 0.00565 0.89315 0.0
H1728 H 0.0519 0.40983 0.97983 0.0
H1729 H 0.05531 0.43201 0.96551 0.0
H1730 H 0.00749 0.41456 0.96337 0.0
H1731 H 0.00404 0.39254 0.97753 0.0
H1732 H 0.03735 0.42678 0.93288 0.0
H1733 H 0.02997 0.46274 0.98049 0.0
H1734 H 0.03645 0.44947 0.98495 0.0
H1735 H 0.01685 0.44216 0.97904 0.0
C1736 C 0.04217 0.41087 0.97647 0.0
C1737 C 0.02766 0.39933 0.97955 0.0
C1738 C 0.04413 0.42349 0.96829 0.0
C1739 C 0.03164 0.42489 0.96348 0.0
C1740 C 0.01726 0.41369 0.96708 0.0
H1741 H 0.00395 0.47726 0.90962 0.0
H1742 H 0.00792 0.46137 0.92809 0.0
C1743 C 0.01528 0.40101 0.97501 0.0
C1744 C 0.03326 0.43732 0.9536 0.0
H1745 H 0.02839 0.46858 0.95356 0.0
C1746 C 0.03566 0.43611 0.9374 0.0
C1747 C 0.03088 0.4493 0.95959 0.0
C1748 C 0.02849 0.45114 0.977 0.0
C1749 C 0.03502 0.44616 0.92677 0.0
C1750 C 0.03233 0.45801 0.93267 0.0
C1751 C 0.03046 0.45952 0.94905 0.0
C1752 C 0.03039 0.46826 0.92186 0.0
C1753 C 0.0364 0.44343 0.90917 0.0
C1754 C 0.04181 0.47763 0.9124 0.0
C1755 C 0.03945 0.4865 0.90155 0.0
C1756 C 0.0257 0.48636 0.90013 0.0
C1757 C 0.01453 0.47739 0.9101 0.0
C1758 C 0.01684 0.46842 0.92081 0.0
H1759 H 0.03462 0.43165 0.90604 0.0
H1760 H 0.02812 0.44482 0.90145 0.0
H1761 H 0.04789 0.45204 0.90633 0.0
H1762 H 0.05249 0.47796 0.91327 0.0
H1763 H 0.04829 0.49318 0.89403 0.0
H1764 H 0.62276 0.62987 0.02755 0.0
H1765 H 0.60939 0.62242 0.00061 0.0
H1766 H 0.56683 0.60203 0.02119 0.0
H1767 H 0.58012 0.60989 0.04817 0.0
H1768 H 0.59077 0.5943 0.98655 0.0
H1769 H 0.56022 0.62659 0.98889 0.0
H1770 H 0.57515 0.63029 0.00397 0.0
H1771 H 0.55632 0.61426 0.00484 0.0
C1772 C 0.61056 0.62395 0.02636 0.0
C1773 C 0.60251 0.62052 0.04003 0.0
C1774 C 0.60293 0.6197 0.01094 0.0
C1775 C 0.5871 0.61187 0.00885 0.0
C1776 C 0.57904 0.60844 0.02248 0.0
H1777 H 0.53409 0.55394 0.92193 0.0
H1778 H 0.54638 0.56417 0.94926 0.0
C1779 C 0.58667 0.61286 0.03791 0.0
C1780 C 0.57907 0.60643 0.99243 0.0
H1781 H 0.5521 0.60676 0.96707 0.0
C1782 C 0.58239 0.59713 0.98226 0.0
C1783 C 0.56827 0.61026 0.98674 0.0
C1784 C 0.56489 0.62103 0.99662 0.0
C1785 C 0.57507 0.59136 0.9667 0.0
C1786 C 0.56375 0.59456 0.9613 0.0
C1787 C 0.56061 0.60411 0.97132 0.0
C1788 C 0.55523 0.58828 0.94518 0.0
C1789 C 0.57978 0.58214 0.95611 0.0
C1790 C 0.55546 0.59838 0.93407 0.0
C1791 C 0.54824 0.59253 0.91852 0.0
C1792 C 0.54072 0.57649 0.91384 0.0
C1793 C 0.54002 0.56637 0.92517 0.0
C1794 C 0.54709 0.57221 0.94074 0.0
H1795 H 0.59132 0.58467 0.96012 0.0
H1796 H 0.57191 0.56956 0.95672 0.0
H1797 H 0.57952 0.58466 0.94338 0.0
H1798 H 0.56159 0.61082 0.93727 0.0
H1799 H 0.549 0.60058 0.91 0.0
H1800 H 0.03329 0.63196 0.04001 0.0
H1801 H 0.03671 0.61975 0.01576 0.0
H1802 H 0.99586 0.61449 0.99229 0.0
H1803 H 0.99252 0.62701 0.01631 0.0
H1804 H 0.01829 0.59061 0.00202 0.0
H1805 H 0.02422 0.63216 0.95801 0.0
H1806 H 0.02549 0.63681 0.9794 0.0
H1807 H 0.00736 0.62546 0.96796 0.0
C1808 C 0.02513 0.62841 0.02962 0.0
C1809 C 0.01264 0.63051 0.03012 0.0
C1810 C 0.0271 0.62141 0.01577 0.0
C1811 C 0.01666 0.61638 0.00212 0.0
C1812 C 0.00428 0.61862 0.00251 0.0
H1813 H 0.99664 0.55859 0.91369 0.0
H1814 H 0.99669 0.57363 0.9378 0.0
C1815 C 0.00235 0.62572 0.01631 0.0
C1816 C 0.01818 0.6079 0.98789 0.0
H1817 H 0.01933 0.60724 0.94715 0.0
C1818 C 0.0187 0.59435 0.99005 0.0
C1819 C 0.01872 0.61279 0.97228 0.0
C1820 C 0.01907 0.62769 0.96927 0.0
C1821 C 0.01929 0.58533 0.97696 0.0
C1822 C 0.01944 0.59003 0.96135 0.0
C1823 C 0.01914 0.60366 0.95918 0.0
C1824 C 0.01947 0.58068 0.94703 0.0
C1825 C 0.01932 0.5706 0.97981 0.0
C1826 C 0.03229 0.57971 0.94428 0.0
C1827 C 0.03229 0.57111 0.93051 0.0
C1828 C 0.01944 0.56329 0.91934 0.0
C1829 C 0.00661 0.56425 0.92222 0.0
C1830 C 0.00666 0.57293 0.9359 0.0
H1831 H 0.01689 0.56737 0.99223 0.0
H1832 H 0.01084 0.56084 0.97115 0.0
H1833 H 0.03056 0.57222 0.97783 0.0
H1834 H 0.04232 0.58574 0.9527 0.0
H1835 H 0.04233 0.57056 0.9286 0.0
H1836 H 0.38146 0.42809 0.97715 0.0
H1837 H 0.39621 0.45051 0.96223 0.0
H1838 H 0.41752 0.42717 0.94089 0.0
H1839 H 0.40254 0.40464 0.95524 0.0
H1840 H 0.42629 0.47029 0.96073 0.0
H1841 H 0.39986 0.43653 0.90173 0.0
H1842 H 0.39268 0.4291 0.92041 0.0
H1843 H 0.40831 0.42792 0.9134 0.0
C1844 C 0.38938 0.42779 0.96937 0.0
C1845 C 0.39072 0.41451 0.96727 0.0
C1846 C 0.39778 0.4406 0.96085 0.0
C1847 C 0.40766 0.44033 0.95015 0.0
C1848 C 0.40963 0.42744 0.94874 0.0
H1849 H 0.48154 0.51173 0.90817 0.0
H1850 H 0.46428 0.49444 0.92617 0.0
C1851 C 0.40114 0.4146 0.95708 0.0
C1852 C 0.41574 0.4533 0.94015 0.0
H1853 H 0.42269 0.46093 0.90138 0.0
C1854 C 0.42539 0.46831 0.94773 0.0
C1855 C 0.41422 0.4508 0.92317 0.0
C1856 C 0.40307 0.43525 0.91419 0.0
C1857 C 0.43419 0.48074 0.93881 0.0
C1858 C 0.43357 0.47794 0.92193 0.0
C1859 C 0.42333 0.46308 0.91433 0.0
C1860 C 0.44401 0.48985 0.91194 0.0
C1861 C 0.44402 0.49671 0.94758 0.0
C1862 C 0.43841 0.4929 0.89779 0.0
C1863 C 0.44827 0.50243 0.88717 0.0
C1864 C 0.46395 0.50913 0.89054 0.0
C1865 C 0.46953 0.50656 0.90506 0.0
C1866 C 0.45966 0.49689 0.91555 0.0
H1867 H 0.43919 0.49806 0.95868 0.0
H1868 H 0.45529 0.49836 0.95125 0.0
H1869 H 0.44548 0.50595 0.93989 0.0
H1870 H 0.42636 0.48751 0.89469 0.0
H1871 H 0.44355 0.50398 0.87603 0.0
H1872 H 0.58277 0.9761 0.02347 0.0
H1873 H 0.56959 0.97302 0.9971 0.0
H1874 H 0.60561 0.0177 0.98694 0.0
H1875 H 0.61902 0.02079 0.01309 0.0
H1876 H 0.55919 0.99122 0.98537 0.0
H1877 H 0.6008 0.99044 0.94676 0.0
H1878 H 0.60148 0.98814 0.96797 0.0
H1879 H 0.6089 0.00717 0.96122 0.0
C1880 C 0.58798 0.98523 0.01558 0.0
C1881 C 0.60201 0.99868 0.02041 0.0
C1882 C 0.58041 0.98344 0.00052 0.0
C1883 C 0.58672 0.99501 0.98996 0.0
C1884 C 0.60069 0.00845 0.99473 0.0
H1885 H 0.55945 0.01534 0.90002 0.0
H1886 H 0.57146 0.01535 0.92606 0.0
C1887 C 0.60831 0.01023 0.00975 0.0
C1888 C 0.57841 0.99336 0.97424 0.0
H1889 H 0.58158 0.99389 0.93385 0.0
C1890 C 0.56401 0.99163 0.97409 0.0
C1891 C 0.58471 0.99388 0.95953 0.0
C1892 C 0.59976 0.99485 0.95881 0.0
C1893 C 0.55595 0.99091 0.95966 0.0
C1894 C 0.56242 0.99181 0.94502 0.0
C1895 C 0.5767 0.99328 0.94513 0.0
C1896 C 0.55477 0.99172 0.92949 0.0
C1897 C 0.54078 0.98968 0.96019 0.0
C1898 C 0.54142 0.97839 0.92281 0.0
C1899 C 0.53449 0.97835 0.90793 0.0
C1900 C 0.5408 0.99167 0.89954 0.0
C1901 C 0.55417 0.00499 0.90632 0.0
C1902 C 0.56111 0.00499 0.92113 0.0
H1903 H 0.53862 0.99197 0.97262 0.0
H1904 H 0.53995 0.99798 0.95253 0.0
H1905 H 0.53179 0.97779 0.95541 0.0
H1906 H 0.53646 0.96798 0.92902 0.0
H1907 H 0.52419 0.96794 0.90302 0.0
H1908 H 0.60276 0.00115 0.09583 0.0
H1909 H 0.58578 0.00139 0.11475 0.0
H1910 H 0.59765 0.04766 0.10434 0.0
H1911 H 0.61464 0.04747 0.08504 0.0
H1912 H 0.59624 0.02398 0.14203 0.0
H1913 H 0.55066 0.02352 0.10253 0.0
H1914 H 0.56309 0.01736 0.09496 0.0
H1915 H 0.56983 0.03763 0.09967 0.0
C1916 C 0.60158 0.01128 0.09725 0.0
C1917 C 0.61004 0.02428 0.08887 0.0
C1918 C 0.59189 0.01141 0.10814 0.0
C1919 C 0.59043 0.0245 0.11087 0.0
C1920 C 0.59849 0.03736 0.10222 0.0
H1921 H 0.5373 0.03767 0.18188 0.0
H1922 H 0.55442 0.04231 0.16092 0.0
C1923 C 0.60822 0.03725 0.09125 0.0
C1924 C 0.5813 0.02492 0.12368 0.0
H1925 H 0.54851 0.02398 0.13045 0.0
C1926 C 0.58585 0.02408 0.13952 0.0
C1927 C 0.56785 0.0252 0.12034 0.0
C1928 C 0.56244 0.02588 0.10346 0.0
C1929 C 0.57711 0.02313 0.15211 0.0
C1930 C 0.56335 0.02275 0.14869 0.0
C1931 C 0.55906 0.02419 0.13296 0.0
C1932 C 0.55292 0.01999 0.16117 0.0
C1933 C 0.58262 0.02241 0.16895 0.0
C1934 C 0.54632 0.00584 0.16805 0.0
C1935 C 0.53662 0.00318 0.18001 0.0
C1936 C 0.53331 0.01462 0.18527 0.0
C1937 C 0.53981 0.02874 0.17822 0.0
C1938 C 0.54949 0.03136 0.16619 0.0
H1939 H 0.59498 0.02701 0.17025 0.0
H1940 H 0.57998 0.02909 0.17791 0.0
H1941 H 0.5769 0.01014 0.17175 0.0
H1942 H 0.5487 0.99685 0.16417 0.0
H1943 H 0.53187 0.99225 0.18528 0.0
H1944 H 0.00123 0.62481 0.10259 0.0
H1945 H 0.99831 0.60318 0.11704 0.0
H1946 H 0.95658 0.57234 0.08791 0.0
H1947 H 0.95961 0.594 0.07301 0.0
H1948 H 0.97455 0.58516 0.1348 0.0
H1949 H 0.9798 0.54892 0.08554 0.0
H1950 H 0.98551 0.56904 0.08411 0.0
H1951 H 0.96588 0.55439 0.08153 0.0
C1952 C 0.99154 0.61341 0.09904 0.0
C1953 C 0.98073 0.61111 0.08652 0.0
C1954 C 0.98985 0.60106 0.10739 0.0
C1955 C 0.97732 0.58613 0.10344 0.0
C1956 C 0.96648 0.58373 0.09095 0.0
H1957 H 0.95622 0.50285 0.15201 0.0
H1958 H 0.95424 0.5206 0.13427 0.0
C1959 C 0.96818 0.59612 0.08252 0.0
C1960 C 0.97551 0.57337 0.11296 0.0
H1961 H 0.97552 0.5392 0.11095 0.0
C1962 C 0.97467 0.57507 0.12957 0.0
C1963 C 0.97559 0.56018 0.10607 0.0
C1964 C 0.97685 0.55799 0.08836 0.0
C1965 C 0.97424 0.5641 0.13954 0.0
C1966 C 0.97483 0.5512 0.13275 0.0
C1967 C 0.97511 0.54916 0.11608 0.0
C1968 C 0.9761 0.54027 0.14298 0.0
C1969 C 0.97332 0.56647 0.15732 0.0
C1970 C 0.98914 0.54544 0.15349 0.0
C1971 C 0.99031 0.53539 0.16357 0.0
C1972 C 0.97845 0.51995 0.16332 0.0
C1973 C 0.96547 0.51472 0.15257 0.0
C1974 C 0.96435 0.52479 0.1424 0.0
H1975 H 0.96923 0.57465 0.16 0.0
H1976 H 0.9657 0.55526 0.16208 0.0
H1977 H 0.98471 0.5714 0.16378 0.0
H1978 H 0.99838 0.55732 0.15398 0.0
H1979 H 0.00037 0.53981 0.17184 0.0
H1980 H 0.386 0.38406 0.03682 0.0
H1981 H 0.40057 0.39205 0.06313 0.0
H1982 H 0.44064 0.4019 0.04056 0.0
H1983 H 0.42616 0.3937 0.01418 0.0
H1984 H 0.43748 0.38637 0.06782 0.0
H1985 H 0.43028 0.4372 0.08 0.0
H1986 H 0.41281 0.41916 0.07549 0.0
H1987 H 0.42573 0.42669 0.06034 0.0
C1988 C 0.3979 0.38787 0.03741 0.0
C1989 C 0.40491 0.38834 0.02333 0.0
C1990 C 0.40623 0.39252 0.05248 0.0
C1991 C 0.42174 0.39785 0.05377 0.0
C1992 C 0.42869 0.39791 0.03982 0.0
H1993 H 0.4833 0.45179 0.13822 0.0
H1994 H 0.47096 0.44232 0.11081 0.0
C1995 C 0.42038 0.39322 0.02474 0.0
C1996 C 0.43076 0.40354 0.06965 0.0
H1997 H 0.44121 0.43069 0.10169 0.0
C1998 C 0.43835 0.39609 0.07522 0.0
C1999 C 0.43209 0.4164 0.07914 0.0
C2000 C 0.42492 0.42544 0.0734 0.0
C2001 C 0.44698 0.40096 0.09022 0.0
C2002 C 0.44782 0.41343 0.09998 0.0
C2003 C 0.44047 0.42106 0.09425 0.0
C2004 C 0.45613 0.41874 0.11625 0.0
C2005 C 0.45528 0.39284 0.09536 0.0
C2006 C 0.45195 0.40861 0.12838 0.0
C2007 C 0.459 0.41399 0.14403 0.0
C2008 C 0.47026 0.42965 0.14788 0.0
C2009 C 0.4746 0.4397 0.13564 0.0
C2010 C 0.46758 0.4343 0.11998 0.0
H2011 H 0.45706 0.3868 0.0849 0.0
H2012 H 0.46642 0.40117 0.10198 0.0
H2013 H 0.44852 0.38398 0.10347 0.0
H2014 H 0.44289 0.39667 0.12588 0.0
H2015 H 0.45522 0.40604 0.15326 0.0
H2016 H 0.64659 0.72699 0.35587 0.0
H2017 H 0.64118 0.73644 0.38068 0.0
H2018 H 0.66003 0.71403 0.40827 0.0
H2019 H 0.66599 0.70499 0.38351 0.0
H2020 H 0.62382 0.72217 0.4035 0.0
H2021 H 0.6831 0.75724 0.43037 0.0
H2022 H 0.67819 0.74877 0.40978 0.0
H2023 H 0.67719 0.73715 0.42583 0.0
C2024 C 0.6496 0.72405 0.36721 0.0
C2025 C 0.65684 0.71533 0.36771 0.0
C2026 C 0.64648 0.72947 0.3814 0.0
C2027 C 0.65045 0.72622 0.39639 0.0
C2028 C 0.65725 0.71709 0.3969 0.0
H2029 H 0.61632 0.73899 0.48583 0.0
H2030 H 0.62024 0.72829 0.46072 0.0
C2031 C 0.66056 0.71183 0.38271 0.0
C2032 C 0.64742 0.73239 0.4114 0.0
H2033 H 0.66424 0.75423 0.44725 0.0
C2034 C 0.63267 0.72922 0.41306 0.0
C2035 C 0.65901 0.74181 0.42376 0.0
C2036 C 0.67528 0.74659 0.42231 0.0
C2037 C 0.62917 0.73512 0.42674 0.0
C2038 C 0.64065 0.74405 0.43935 0.0
C2039 C 0.65541 0.74728 0.43766 0.0
C2040 C 0.63777 0.75048 0.4543 0.0
C2041 C 0.6133 0.73206 0.4273 0.0
C2042 C 0.64652 0.76644 0.45925 0.0
C2043 C 0.64448 0.77251 0.47371 0.0
C2044 C 0.63356 0.76274 0.48345 0.0
C2045 C 0.62465 0.7468 0.47841 0.0
C2046 C 0.62684 0.7407 0.46404 0.0
H2047 H 0.60732 0.72932 0.41505 0.0
H2048 H 0.60688 0.72191 0.43415 0.0
H2049 H 0.61325 0.7422 0.43332 0.0
H2050 H 0.65503 0.77422 0.45197 0.0
H2051 H 0.65145 0.78484 0.4773 0.0
H2052 H 0.27792 0.91156 0.42539 0.0
H2053 H 0.26222 0.89053 0.44148 0.0
H2054 H 0.2502 0.92066 0.46722 0.0
H2055 H 0.26596 0.94174 0.45144 0.0
H2056 H 0.26161 0.90632 0.48694 0.0
H2057 H 0.21585 0.86369 0.44134 0.0
H2058 H 0.23477 0.87068 0.43621 0.0
H2059 H 0.22781 0.88386 0.43813 0.0
C2060 C 0.27174 0.91363 0.4343 0.0
C2061 C 0.27317 0.92832 0.43712 0.0
C2062 C 0.26274 0.90159 0.44343 0.0
C2063 C 0.25499 0.90404 0.45544 0.0
C2064 C 0.25607 0.91854 0.45796 0.0
H2065 H 0.18792 0.84246 0.51371 0.0
H2066 H 0.20236 0.86042 0.49435 0.0
C2067 C 0.26505 0.93056 0.44887 0.0
C2068 C 0.24665 0.89195 0.46625 0.0
H2069 H 0.2161 0.85577 0.46743 0.0
C2070 C 0.25167 0.89524 0.48269 0.0
C2071 C 0.23368 0.87759 0.46062 0.0
C2072 C 0.22758 0.87371 0.44313 0.0
C2073 C 0.24401 0.88457 0.49373 0.0
C2074 C 0.23111 0.87014 0.4881 0.0
C2075 C 0.22608 0.86681 0.47165 0.0
C2076 C 0.22227 0.8587 0.49929 0.0
C2077 C 0.24954 0.88898 0.51137 0.0
C2078 C 0.22865 0.85167 0.5083 0.0
C2079 C 0.22047 0.8415 0.51947 0.0
C2080 C 0.20577 0.83819 0.52177 0.0
C2081 C 0.19931 0.845 0.51242 0.0
C2082 C 0.20749 0.85514 0.50126 0.0
H2083 H 0.2576 0.90164 0.51404 0.0
H2084 H 0.23995 0.88561 0.51879 0.0
H2085 H 0.2554 0.88273 0.51504 0.0
H2086 H 0.23999 0.85415 0.50679 0.0
H2087 H 0.22576 0.83647 0.52652 0.0
H2088 H 0.06792 0.32686 0.39144 0.0
H2089 H 0.08137 0.33373 0.4183 0.0
H2090 H 0.12141 0.36937 0.40007 0.0
H2091 H 0.10819 0.36242 0.37311 0.0
H2092 H 0.12746 0.35187 0.41964 0.0
H2093 H 0.09232 0.37174 0.4488 0.0
H2094 H 0.08149 0.3524 0.43893 0.0
H2095 H 0.09155 0.36849 0.42725 0.0
C2096 C 0.07958 0.33619 0.39312 0.0
C2097 C 0.08694 0.34413 0.3801 0.0
C2098 C 0.08722 0.34016 0.40852 0.0
C2099 C 0.1023 0.35225 0.41122 0.0
C2100 C 0.10975 0.36006 0.39825 0.0
H2101 H 0.14739 0.39187 0.50786 0.0
H2102 H 0.13753 0.38881 0.47974 0.0
C2103 C 0.10215 0.35606 0.38284 0.0
C2104 C 0.11043 0.3565 0.42752 0.0
H2105 H 0.10896 0.36783 0.46629 0.0
C2106 C 0.12349 0.35548 0.42983 0.0
C2107 C 0.10539 0.36148 0.44073 0.0
C2108 C 0.09201 0.36376 0.43881 0.0
C2109 C 0.13136 0.3588 0.4451 0.0
C2110 C 0.12584 0.36296 0.45845 0.0
C2111 C 0.11309 0.36449 0.45605 0.0
C2112 C 0.13277 0.36521 0.47509 0.0
C2113 C 0.14555 0.3579 0.44678 0.0
C2114 C 0.13336 0.35297 0.48175 0.0
C2115 C 0.13908 0.35472 0.49772 0.0
C2116 C 0.14417 0.3687 0.50741 0.0
C2117 C 0.14371 0.38102 0.50065 0.0
C2118 C 0.13801 0.37926 0.48464 0.0
H2119 H 0.1507 0.35935 0.43522 0.0
H2120 H 0.15401 0.3669 0.45608 0.0
H2121 H 0.14273 0.34632 0.45042 0.0
H2122 H 0.12912 0.34192 0.4747 0.0
H2123 H 0.13943 0.34507 0.50252 0.0
H2124 H 0.05177 0.27973 0.31631 0.0
H2125 H 0.06351 0.2712 0.29657 0.0
H2126 H 0.09817 0.31882 0.29415 0.0
H2127 H 0.08653 0.32739 0.31362 0.0
H2128 H 0.06746 0.28313 0.26482 0.0
H2129 H 0.12107 0.29417 0.29666 0.0
H2130 H 0.105 0.29109 0.30703 0.0
H2131 H 0.11718 0.30965 0.30004 0.0
C2132 C 0.0621 0.28833 0.31185 0.0
C2133 C 0.06817 0.30425 0.3164 0.0
C2134 C 0.06876 0.28344 0.30058 0.0
C2135 C 0.08174 0.29438 0.29404 0.0
C2136 C 0.08826 0.31019 0.29924 0.0
H2137 H 0.13743 0.31276 0.21926 0.0
H2138 H 0.12467 0.31107 0.24334 0.0
C2139 C 0.08152 0.31508 0.31029 0.0
C2140 C 0.08752 0.28976 0.28034 0.0
H2141 H 0.11969 0.29267 0.26786 0.0
C2142 C 0.07875 0.28485 0.26547 0.0
C2143 C 0.10225 0.29212 0.28133 0.0
C2144 C 0.1119 0.29692 0.29715 0.0
C2145 C 0.08472 0.28329 0.2513 0.0
C2146 C 0.09975 0.28635 0.25217 0.0
C2147 C 0.1082 0.29039 0.26721 0.0
C2148 C 0.10739 0.28694 0.23754 0.0
C2149 C 0.07525 0.27939 0.23545 0.0
C2150 C 0.10194 0.27391 0.2263 0.0
C2151 C 0.10904 0.27493 0.21228 0.0
C2152 C 0.12183 0.28897 0.20938 0.0
C2153 C 0.1274 0.30188 0.22088 0.0
C2154 C 0.12023 0.30088 0.23477 0.0
H2155 H 0.06524 0.28067 0.23661 0.0
H2156 H 0.08199 0.28696 0.22633 0.0
H2157 H 0.07118 0.26716 0.23093 0.0
H2158 H 0.0922 0.26296 0.22834 0.0
H2159 H 0.10443 0.26478 0.20367 0.0
H2160 H 0.71557 0.75248 0.32943 0.0
H2161 H 0.72223 0.77529 0.31477 0.0
H2162 H 0.68163 0.74844 0.28261 0.0
H2163 H 0.67509 0.72566 0.29684 0.0
H2164 H 0.70745 0.76448 0.26692 0.0
H2165 H 0.70334 0.80312 0.31427 0.0
H2166 H 0.7152 0.79539 0.31979 0.0
H2167 H 0.69523 0.78253 0.31553 0.0
C2168 C 0.708 0.7515 0.31933 0.0
C2169 C 0.69474 0.73727 0.31438 0.0
C2170 C 0.71179 0.76455 0.31102 0.0
C2171 C 0.70234 0.76358 0.29771 0.0
C2172 C 0.68905 0.74945 0.29289 0.0
H2173 H 0.69327 0.8289 0.24382 0.0
H2174 H 0.69193 0.81044 0.2625 0.0
C2175 C 0.68529 0.73644 0.30112 0.0
C2176 C 0.70646 0.77695 0.28817 0.0
H2177 H 0.71087 0.81318 0.28942 0.0
C2178 C 0.70832 0.77519 0.27185 0.0
C2179 C 0.70747 0.79084 0.29465 0.0
C2180 C 0.7051 0.79313 0.31199 0.0
C2181 C 0.71083 0.78678 0.26172 0.0
C2182 C 0.71181 0.80066 0.26817 0.0
C2183 C 0.71023 0.80257 0.28456 0.0
C2184 C 0.71338 0.81281 0.25779 0.0
C2185 C 0.7118 0.78377 0.24406 0.0
C2186 C 0.72604 0.82052 0.2492 0.0
C2187 C 0.72676 0.83093 0.23835 0.0
C2188 C 0.71486 0.83391 0.23597 0.0
C2189 C 0.70248 0.82663 0.24511 0.0
C2190 C 0.70176 0.81619 0.25591 0.0
H2191 H 0.70752 0.77129 0.24047 0.0
H2192 H 0.70525 0.78757 0.23654 0.0
H2193 H 0.72375 0.79047 0.24144 0.0
H2194 H 0.73524 0.81824 0.25067 0.0
H2195 H 0.73642 0.83628 0.23147 0.0
H2196 H 0.24213 0.95303 0.38505 0.0
H2197 H 0.22858 0.94573 0.35818 0.0
H2198 H 0.26547 0.94374 0.33864 0.0
H2199 H 0.27924 0.9513 0.36535 0.0
H2200 H 0.25505 0.95904 0.32037 0.0
H2201 H 0.20759 0.90241 0.33412 0.0
H2202 H 0.21061 0.91887 0.34704 0.0
H2203 H 0.22476 0.91339 0.34738 0.0
C2204 C 0.24738 0.95104 0.37505 0.0
C2205 C 0.26176 0.95268 0.37741 0.0
C2206 C 0.23957 0.94678 0.35971 0.0
C2207 C 0.24591 0.94394 0.34646 0.0
C2208 C 0.26034 0.94582 0.34872 0.0
H2209 H 0.20544 0.89396 0.25372 0.0
H2210 H 0.21666 0.90312 0.28147 0.0
C2211 C 0.26819 0.95012 0.36402 0.0
C2212 C 0.23761 0.93908 0.33018 0.0
H2213 H 0.20591 0.91006 0.30824 0.0
C2214 C 0.24428 0.94837 0.31772 0.0
C2215 C 0.22363 0.92507 0.32673 0.0
C2216 C 0.21625 0.91426 0.33947 0.0
C2217 C 0.23741 0.94396 0.30186 0.0
C2218 C 0.22334 0.93003 0.29845 0.0
C2219 C 0.21662 0.92081 0.31093 0.0
C2220 C 0.21589 0.92434 0.28183 0.0
C2221 C 0.24552 0.95398 0.28883 0.0
C2222 C 0.21145 0.93308 0.27292 0.0
C2223 C 0.20517 0.92795 0.25696 0.0
C2224 C 0.20314 0.91392 0.24967 0.0
C2225 C 0.20713 0.90496 0.25885 0.0
C2226 C 0.21343 0.91012 0.27476 0.0
H2227 H 0.25764 0.96219 0.29277 0.0
H2228 H 0.24469 0.94674 0.27783 0.0
H2229 H 0.24025 0.96091 0.28565 0.0
H2230 H 0.21299 0.94396 0.27825 0.0
H2231 H 0.20227 0.93516 0.25022 0.0
H2232 H 0.66823 0.95894 0.34923 0.0
H2233 H 0.67582 0.95003 0.32564 0.0
H2234 H 0.70552 0.94171 0.35633 0.0
H2235 H 0.69828 0.95088 0.37994 0.0
H2236 H 0.71878 0.95613 0.33014 0.0
H2237 H 0.66207 0.905 0.31151 0.0
H2238 H 0.6623 0.92308 0.31329 0.0
H2239 H 0.66675 0.91606 0.33087 0.0
C2240 C 0.67639 0.95523 0.35098 0.0
C2241 C 0.68257 0.95554 0.36652 0.0
C2242 C 0.68065 0.95006 0.33748 0.0
C2243 C 0.69103 0.94493 0.33925 0.0
C2244 C 0.69744 0.94554 0.35469 0.0
H2245 H 0.70382 0.88846 0.26639 0.0
H2246 H 0.69895 0.89889 0.29103 0.0
C2247 C 0.69326 0.95078 0.36818 0.0
C2248 C 0.69522 0.93892 0.32505 0.0
H2249 H 0.68068 0.91088 0.29335 0.0
C2250 C 0.71046 0.94621 0.3221 0.0
C2251 C 0.68439 0.92582 0.31475 0.0
C2252 C 0.66798 0.91692 0.31781 0.0
C2253 C 0.71514 0.94089 0.30899 0.0
C2254 C 0.70423 0.92813 0.29836 0.0
C2255 C 0.68902 0.92073 0.30144 0.0
C2256 C 0.70827 0.92221 0.28396 0.0
C2257 C 0.73175 0.9488 0.30682 0.0
C2258 C 0.71521 0.93187 0.27184 0.0
C2259 C 0.71807 0.92596 0.25781 0.0
C2260 C 0.71387 0.91022 0.25554 0.0
C2261 C 0.70711 0.90062 0.26778 0.0
C2262 C 0.70434 0.90656 0.28185 0.0
H2263 H 0.7388 0.95513 0.31824 0.0
H2264 H 0.73494 0.94029 0.30235 0.0
H2265 H 0.73439 0.95738 0.29789 0.0
H2266 H 0.71799 0.94388 0.27302 0.0
H2267 H 0.72304 0.93356 0.24846 0.0
H2268 H 0.07166 0.74432 0.29343 0.0
H2269 H 0.08542 0.76691 0.27872 0.0
H2270 H 0.06731 0.79098 0.30519 0.0
H2271 H 0.05348 0.76832 0.32023 0.0
H2272 H 0.06913 0.77925 0.26001 0.0
H2273 H 0.11445 0.82264 0.30586 0.0
H2274 H 0.10548 0.80202 0.3076 0.0
H2275 H 0.09534 0.81194 0.31114 0.0
C2276 C 0.07079 0.75449 0.29641 0.0
C2277 C 0.06148 0.75452 0.30803 0.0
C2278 C 0.07864 0.76737 0.28793 0.0
C2279 C 0.07738 0.78056 0.29091 0.0
C2280 C 0.06851 0.78092 0.30285 0.0
H2281 H 0.12375 0.86176 0.23551 0.0
H2282 H 0.10726 0.84489 0.25473 0.0
C2283 C 0.06061 0.76797 0.31139 0.0
C2284 C 0.08456 0.79334 0.28055 0.0
H2285 H 0.11532 0.82934 0.27926 0.0
C2286 C 0.0791 0.79031 0.26425 0.0
C2287 C 0.09743 0.80775 0.28621 0.0
C2288 C 0.10365 0.8114 0.30364 0.0
C2289 C 0.08662 0.80107 0.25326 0.0
C2290 C 0.10004 0.81508 0.2587 0.0
C2291 C 0.10503 0.81853 0.27516 0.0
C2292 C 0.10984 0.82539 0.24722 0.0
C2293 C 0.08039 0.79718 0.2358 0.0
C2294 C 0.11679 0.82 0.23684 0.0
C2295 C 0.12615 0.82953 0.22597 0.0
C2296 C 0.12877 0.84467 0.22528 0.0
C2297 C 0.12181 0.85009 0.23571 0.0
C2298 C 0.11248 0.84053 0.24671 0.0
H2299 H 0.06816 0.78839 0.23436 0.0
H2300 H 0.08216 0.80772 0.23026 0.0
H2301 H 0.08634 0.7923 0.22916 0.0
H2302 H 0.11499 0.80839 0.2372 0.0
H2303 H 0.13123 0.82499 0.21797 0.0
H2304 H 0.23769 0.30267 0.35845 0.0
H2305 H 0.22378 0.29546 0.33177 0.0
H2306 H 0.25872 0.33767 0.31541 0.0
H2307 H 0.27284 0.34485 0.34188 0.0
H2308 H 0.2124 0.31062 0.31506 0.0
H2309 H 0.25431 0.3052 0.28093 0.0
H2310 H 0.25529 0.3063 0.3026 0.0
H2311 H 0.26223 0.32369 0.29249 0.0
C2312 C 0.24247 0.3104 0.34916 0.0
C2313 C 0.25645 0.32431 0.35231 0.0
C2314 C 0.23449 0.30625 0.33392 0.0
C2315 C 0.24035 0.31589 0.32152 0.0
C2316 C 0.25418 0.32986 0.32468 0.0
H2317 H 0.21183 0.32391 0.2265 0.0
H2318 H 0.22391 0.32688 0.25349 0.0
C2319 C 0.26219 0.33399 0.33987 0.0
C2320 C 0.23179 0.31162 0.30543 0.0
H2321 H 0.23484 0.30652 0.26541 0.0
C2322 C 0.21722 0.30953 0.30421 0.0
C2323 C 0.23807 0.31012 0.2913 0.0
C2324 C 0.25327 0.31128 0.29187 0.0
C2325 C 0.20902 0.30659 0.28918 0.0
C2326 C 0.21554 0.30564 0.27508 0.0
C2327 C 0.22993 0.30735 0.27629 0.0
C2328 C 0.20793 0.30365 0.25888 0.0
C2329 C 0.19366 0.30505 0.28841 0.0
C2330 C 0.19499 0.28954 0.25299 0.0
C2331 C 0.18805 0.2878 0.23755 0.0
C2332 C 0.19391 0.30018 0.22783 0.0
C2333 C 0.2069 0.31426 0.23381 0.0
C2334 C 0.21387 0.31595 0.24916 0.0
H2335 H 0.19113 0.30826 0.30028 0.0
H2336 H 0.19287 0.31252 0.27955 0.0
H2337 H 0.18492 0.29285 0.28436 0.0
H2338 H 0.19035 0.27987 0.2603 0.0
H2339 H 0.17804 0.27683 0.23326 0.0
H2340 H 0.27573 0.38289 0.41248 0.0
H2341 H 0.26233 0.38741 0.43354 0.0
H2342 H 0.24832 0.34203 0.44868 0.0
H2343 H 0.26171 0.33748 0.42796 0.0
H2344 H 0.23074 0.36909 0.44176 0.0
H2345 H 0.27344 0.37367 0.48863 0.0
H2346 H 0.27667 0.37527 0.46765 0.0
H2347 H 0.26548 0.35651 0.47472 0.0
C2348 C 0.26959 0.37379 0.42013 0.0
C2349 C 0.26988 0.35987 0.41862 0.0
C2350 C 0.26197 0.37639 0.43214 0.0
C2351 C 0.2546 0.36515 0.44279 0.0
C2352 C 0.25415 0.35093 0.4407 0.0
H2353 H 0.20747 0.34931 0.52631 0.0
H2354 H 0.22024 0.34904 0.50265 0.0
C2355 C 0.26175 0.34833 0.42877 0.0
C2356 C 0.24805 0.36842 0.45668 0.0
H2357 H 0.25092 0.3712 0.49769 0.0
C2358 C 0.23522 0.36976 0.454 0.0
C2359 C 0.25404 0.36938 0.4726 0.0
C2360 C 0.26825 0.36879 0.47614 0.0
C2361 C 0.22775 0.37127 0.46692 0.0
C2362 C 0.23343 0.37162 0.48281 0.0
C2363 C 0.24656 0.37083 0.48546 0.0
C2364 C 0.2255 0.37192 0.49688 0.0
C2365 C 0.21353 0.37185 0.4635 0.0
C2366 C 0.22439 0.38496 0.50152 0.0
C2367 C 0.21708 0.38515 0.51505 0.0
C2368 C 0.21078 0.37228 0.52411 0.0
C2369 C 0.21204 0.35931 0.51945 0.0
C2370 C 0.21938 0.35916 0.50599 0.0
H2371 H 0.20925 0.36881 0.45056 0.0
H2372 H 0.20456 0.36377 0.47067 0.0
H2373 H 0.21585 0.38376 0.46702 0.0
H2374 H 0.22924 0.39501 0.49475 0.0
H2375 H 0.21618 0.39526 0.51829 0.0
H2376 H 0.66454 0.9465 0.43673 0.0
H2377 H 0.66027 0.92478 0.45185 0.0
H2378 H 0.62008 0.89428 0.42031 0.0
H2379 H 0.62449 0.91596 0.40477 0.0
H2380 H 0.63545 0.90747 0.46808 0.0
H2381 H 0.64195 0.86973 0.42178 0.0
H2382 H 0.6482 0.88987 0.41962 0.0
H2383 H 0.62853 0.87543 0.41592 0.0
C2384 C 0.65493 0.93515 0.43279 0.0
C2385 C 0.64493 0.93295 0.41944 0.0
C2386 C 0.65247 0.92274 0.44152 0.0
C2387 C 0.63996 0.90789 0.4371 0.0
C2388 C 0.62997 0.90559 0.42373 0.0
H2389 H 0.60894 0.82351 0.48646 0.0
H2390 H 0.61046 0.84234 0.46798 0.0
C2391 C 0.63247 0.91801 0.41492 0.0
C2392 C 0.63708 0.8951 0.44711 0.0
H2393 H 0.63457 0.85973 0.44677 0.0
C2394 C 0.63524 0.89703 0.46341 0.0
C2395 C 0.63671 0.88144 0.44094 0.0
C2396 C 0.63907 0.87898 0.42364 0.0
C2397 C 0.63321 0.88575 0.47377 0.0
C2398 C 0.63319 0.87228 0.4677 0.0
C2399 C 0.63462 0.87011 0.45133 0.0
C2400 C 0.6324 0.86071 0.47842 0.0
C2401 C 0.63114 0.88834 0.49116 0.0
C2402 C 0.64434 0.8648 0.49019 0.0
C2403 C 0.64352 0.85413 0.50071 0.0
C2404 C 0.63073 0.83916 0.49964 0.0
C2405 C 0.61887 0.83501 0.48766 0.0
C2406 C 0.61974 0.8457 0.47706 0.0
H2407 H 0.62787 0.89728 0.49302 0.0
H2408 H 0.62241 0.87737 0.49548 0.0
H2409 H 0.64192 0.89236 0.49863 0.0
H2410 H 0.65427 0.87631 0.49131 0.0
H2411 H 0.65277 0.85773 0.50992 0.0
H2412 H 0.05791 0.72868 0.37763 0.0
H2413 H 0.07152 0.73591 0.40444 0.0
H2414 H 0.10984 0.73744 0.38441 0.0
H2415 H 0.09648 0.73057 0.3575 0.0
H2416 H 0.08305 0.7213 0.42186 0.0
H2417 H 0.12906 0.77957 0.41006 0.0
H2418 H 0.11216 0.76837 0.39647 0.0
H2419 H 0.12706 0.76397 0.39649 0.0
C2420 C 0.06924 0.73057 0.37889 0.0
C2421 C 0.07613 0.72915 0.36536 0.0
C2422 C 0.077 0.7347 0.39424 0.0
C2423 C 0.09179 0.7375 0.39639 0.0
C2424 C 0.09858 0.73573 0.38298 0.0
H2425 H 0.15334 0.76268 0.48377 0.0
H2426 H 0.14125 0.75386 0.45609 0.0
C2427 C 0.09087 0.7317 0.36761 0.0
C2428 C 0.1 0.74208 0.41271 0.0
H2429 H 0.13138 0.77096 0.43528 0.0
C2430 C 0.09361 0.73216 0.42478 0.0
C2431 C 0.1138 0.75626 0.4165 0.0
C2432 C 0.12088 0.76774 0.40425 0.0
C2433 C 0.10064 0.73603 0.44055 0.0
C2434 C 0.11435 0.75022 0.44434 0.0
C2435 C 0.12089 0.76004 0.43225 0.0
C2436 C 0.12166 0.75543 0.46099 0.0
C2437 C 0.09339 0.7249 0.45305 0.0
C2438 C 0.11469 0.75937 0.47277 0.0
C2439 C 0.12155 0.76445 0.48849 0.0
C2440 C 0.13553 0.76567 0.49272 0.0
C2441 C 0.14252 0.76174 0.48087 0.0
C2442 C 0.13568 0.75677 0.46508 0.0
H2443 H 0.08482 0.7131 0.44751 0.0
H2444 H 0.10202 0.72405 0.46077 0.0
H2445 H 0.08772 0.72927 0.46089 0.0
H2446 H 0.10394 0.75856 0.46979 0.0
H2447 H 0.11581 0.76722 0.49739 0.0
H2448 H 0.31182 0.05863 0.68543 0.0
H2449 H 0.30584 0.06844 0.70958 0.0
H2450 H 0.32914 0.0516 0.73913 0.0
H2451 H 0.33559 0.04215 0.715 0.0
H2452 H 0.28995 0.05433 0.73383 0.0
H2453 H 0.34917 0.09626 0.75755 0.0
H2454 H 0.34417 0.08642 0.73752 0.0
H2455 H 0.34527 0.07665 0.75449 0.0
C2456 C 0.31569 0.05699 0.69705 0.0
C2457 C 0.3243 0.04969 0.69826 0.0
C2458 C 0.31224 0.0626 0.71086 0.0
C2459 C 0.31727 0.06102 0.72617 0.0
C2460 C 0.32548 0.05333 0.72744 0.0
H2461 H 0.28393 0.07513 0.8155 0.0
H2462 H 0.28833 0.06393 0.79108 0.0
C2463 C 0.32908 0.04784 0.71363 0.0
C2464 C 0.31388 0.06744 0.74074 0.0
H2465 H 0.33033 0.09255 0.77474 0.0
C2466 C 0.29878 0.06271 0.74277 0.0
C2467 C 0.32542 0.07857 0.75227 0.0
C2468 C 0.34192 0.0849 0.7503 0.0
C2469 C 0.29489 0.06872 0.75604 0.0
C2470 C 0.3064 0.07944 0.76784 0.0
C2471 C 0.3215 0.08423 0.76576 0.0
C2472 C 0.30313 0.0861 0.78233 0.0
C2473 C 0.27854 0.06381 0.75705 0.0
C2474 C 0.31018 0.10227 0.7857 0.0
C2475 C 0.30782 0.10868 0.79973 0.0
C2476 C 0.29833 0.09903 0.81065 0.0
C2477 C 0.29111 0.08283 0.80716 0.0
C2478 C 0.29359 0.07643 0.79319 0.0
H2479 H 0.27195 0.05938 0.74507 0.0
H2480 H 0.27352 0.05432 0.76502 0.0
H2481 H 0.27736 0.07361 0.7621 0.0
H2482 H 0.31759 0.10996 0.7775 0.0
H2483 H 0.31347 0.1212 0.80207 0.0
H2484 H 0.93248 0.25805 0.76928 0.0
H2485 H 0.91817 0.23453 0.78242 0.0
H2486 H 0.93998 0.21336 0.75785 0.0
H2487 H 0.95444 0.23703 0.74443 0.0
H2488 H 0.89857 0.2023 0.76929 0.0
H2489 H 0.94986 0.21333 0.80719 0.0
H2490 H 0.94945 0.22827 0.79646 0.0
H2491 H 0.95033 0.21279 0.7857 0.0
C2492 C 0.93409 0.24835 0.76638 0.0
C2493 C 0.94463 0.24944 0.75579 0.0
C2494 C 0.92589 0.2349 0.77394 0.0
C2495 C 0.92812 0.2223 0.77119 0.0
C2496 C 0.93822 0.22305 0.76021 0.0
H2497 H 0.87125 0.14085 0.8226 0.0
H2498 H 0.88582 0.15557 0.80116 0.0
C2499 C 0.94641 0.23655 0.75253 0.0
C2500 C 0.92044 0.20892 0.78073 0.0
H2501 H 0.92649 0.19363 0.81382 0.0
C2502 C 0.90464 0.20012 0.77882 0.0
C2503 C 0.92848 0.20628 0.7932 0.0
C2504 C 0.94547 0.21567 0.79592 0.0
C2505 C 0.89659 0.18923 0.78955 0.0
C2506 C 0.90461 0.18706 0.80242 0.0
C2507 C 0.92043 0.19532 0.80388 0.0
C2508 C 0.8968 0.17775 0.81555 0.0
C2509 C 0.87958 0.18084 0.78767 0.0
C2510 C 0.89852 0.18532 0.8308 0.0
C2511 C 0.89031 0.17698 0.84304 0.0
C2512 C 0.88026 0.16089 0.84025 0.0
C2513 C 0.87897 0.15323 0.82511 0.0
C2514 C 0.88718 0.16161 0.81283 0.0
H2515 H 0.87516 0.18536 0.77831 0.0
H2516 H 0.87506 0.16831 0.7842 0.0
H2517 H 0.87525 0.18191 0.79924 0.0
H2518 H 0.90595 0.19778 0.83312 0.0
H2519 H 0.89169 0.18315 0.85464 0.0
H2520 H 0.73199 0.66454 0.72342 0.0
H2521 H 0.74609 0.67201 0.74993 0.0
H2522 H 0.78583 0.70628 0.73002 0.0
H2523 H 0.77175 0.69911 0.70345 0.0
H2524 H 0.77142 0.67061 0.75901 0.0
H2525 H 0.78326 0.73127 0.76863 0.0
H2526 H 0.76947 0.71734 0.75306 0.0
H2527 H 0.78922 0.72676 0.75036 0.0
C2528 C 0.74371 0.67373 0.72465 0.0
C2529 C 0.75072 0.68125 0.71128 0.0
C2530 C 0.75175 0.67798 0.73983 0.0
C2531 C 0.76694 0.68983 0.74199 0.0
C2532 C 0.77402 0.69733 0.72869 0.0
H2533 H 0.83075 0.72203 0.82863 0.0
H2534 H 0.81971 0.71825 0.80082 0.0
C2535 C 0.76597 0.69314 0.71349 0.0
C2536 C 0.77543 0.69383 0.75808 0.0
H2537 H 0.79439 0.72308 0.7884 0.0
C2538 C 0.77645 0.68209 0.76542 0.0
C2539 C 0.78206 0.70885 0.76637 0.0
C2540 C 0.78087 0.72177 0.7593 0.0
C2541 C 0.78379 0.6849 0.78089 0.0
C2542 C 0.79015 0.6998 0.78929 0.0
C2543 C 0.78948 0.71168 0.78186 0.0
C2544 C 0.7968 0.70293 0.80613 0.0
C2545 C 0.78466 0.6719 0.7882 0.0
C2546 C 0.7875 0.69586 0.81828 0.0
C2547 C 0.79371 0.69807 0.83412 0.0
C2548 C 0.80937 0.70738 0.83811 0.0
C2549 C 0.81864 0.71486 0.82596 0.0
C2550 C 0.81238 0.71267 0.81008 0.0
H2551 H 0.78227 0.66231 0.77898 0.0
H2552 H 0.79598 0.67625 0.79463 0.0
H2553 H 0.77621 0.66709 0.79706 0.0
H2554 H 0.77541 0.68851 0.81547 0.0
H2555 H 0.78622 0.69244 0.84324 0.0
H2556 H 0.74526 0.66613 0.6363 0.0
H2557 H 0.76004 0.66164 0.61735 0.0
H2558 H 0.74733 0.61766 0.6355 0.0
H2559 H 0.73236 0.62204 0.65466 0.0
H2560 H 0.78411 0.65516 0.62189 0.0
H2561 H 0.73254 0.60685 0.58675 0.0
H2562 H 0.73168 0.62021 0.60147 0.0
H2563 H 0.7351 0.60536 0.60788 0.0
C2564 C 0.74576 0.6556 0.63651 0.0
C2565 C 0.73758 0.64442 0.64698 0.0
C2566 C 0.75422 0.65306 0.62563 0.0
C2567 C 0.75461 0.63925 0.62491 0.0
C2568 C 0.74699 0.6283 0.63576 0.0
H2569 H 0.79126 0.61088 0.54608 0.0
H2570 H 0.78011 0.61087 0.57119 0.0
C2571 C 0.73852 0.63087 0.64673 0.0
C2572 C 0.76238 0.63619 0.61212 0.0
H2573 H 0.75561 0.61513 0.57596 0.0
C2574 C 0.77794 0.64627 0.61195 0.0
C2575 C 0.75426 0.62455 0.59921 0.0
C2576 C 0.73745 0.61364 0.59867 0.0
C2577 C 0.78554 0.64535 0.59893 0.0
C2578 C 0.77727 0.63425 0.58564 0.0
C2579 C 0.76187 0.62367 0.58616 0.0
C2580 C 0.78415 0.63423 0.5706 0.0
C2581 C 0.8023 0.65642 0.59939 0.0
C2582 C 0.78979 0.64724 0.56183 0.0
C2583 C 0.79604 0.64724 0.54746 0.0
C2584 C 0.79668 0.63418 0.54154 0.0
C2585 C 0.79079 0.62106 0.55025 0.0
C2586 C 0.78453 0.62107 0.56464 0.0
H2587 H 0.80759 0.66073 0.61194 0.0
H2588 H 0.80793 0.65082 0.59339 0.0
H2589 H 0.80432 0.66661 0.59299 0.0
H2590 H 0.78923 0.65735 0.56602 0.0
H2591 H 0.80022 0.65741 0.5409 0.0
H2592 H 0.38374 0.08656 0.65943 0.0
H2593 H 0.38936 0.10935 0.6451 0.0
H2594 H 0.34735 0.08234 0.6152 0.0
H2595 H 0.34181 0.05957 0.62905 0.0
H2596 H 0.38957 0.10942 0.60863 0.0
H2597 H 0.34893 0.1236 0.63448 0.0
H2598 H 0.35623 0.11296 0.64469 0.0
H2599 H 0.34173 0.1034 0.62827 0.0
C2600 C 0.37566 0.08551 0.64987 0.0
C2601 C 0.36224 0.07126 0.64552 0.0
C2602 C 0.37889 0.09853 0.64172 0.0
C2603 C 0.36866 0.09752 0.62926 0.0
C2604 C 0.35526 0.08338 0.62496 0.0
H2605 H 0.36785 0.14382 0.54758 0.0
H2606 H 0.36728 0.12641 0.56732 0.0
C2607 C 0.35211 0.07037 0.63295 0.0
C2608 C 0.37212 0.11093 0.6201 0.0
H2609 H 0.35934 0.13535 0.61084 0.0
C2610 C 0.38315 0.11527 0.60926 0.0
C2611 C 0.36373 0.11854 0.62104 0.0
C2612 C 0.35205 0.11452 0.63282 0.0
C2613 C 0.38551 0.12658 0.59876 0.0
C2614 C 0.3766 0.13364 0.59916 0.0
C2615 C 0.36608 0.12983 0.61053 0.0
C2616 C 0.37744 0.14434 0.58726 0.0
C2617 C 0.3973 0.13071 0.58709 0.0
C2618 C 0.38322 0.16012 0.59203 0.0
C2619 C 0.3836 0.1701 0.58077 0.0
C2620 C 0.37798 0.16436 0.56464 0.0
C2621 C 0.37215 0.14852 0.55995 0.0
C2622 C 0.37192 0.13861 0.57117 0.0
H2623 H 0.40529 0.12675 0.59052 0.0
H2624 H 0.39166 0.12507 0.57493 0.0
H2625 H 0.40377 0.14346 0.58638 0.0
H2626 H 0.38742 0.16471 0.60444 0.0
H2627 H 0.38803 0.18223 0.58474 0.0
H2628 H 0.95135 0.28782 0.68776 0.0
H2629 H 0.93895 0.2819 0.66043 0.0
H2630 H 0.89559 0.2555 0.67863 0.0
H2631 H 0.90784 0.26182 0.706 0.0
H2632 H 0.92259 0.2551 0.64305 0.0
H2633 H 0.88726 0.28174 0.65037 0.0
H2634 H 0.90209 0.2851 0.6654 0.0
H2635 H 0.88382 0.26777 0.66449 0.0
C2636 C 0.93917 0.28085 0.68596 0.0
C2637 C 0.93059 0.27537 0.69909 0.0
C2638 C 0.93209 0.27748 0.67033 0.0
C2639 C 0.9163 0.2685 0.66747 0.0
C2640 C 0.90773 0.26285 0.68054 0.0
H2641 H 0.86797 0.21691 0.57634 0.0
H2642 H 0.88006 0.22542 0.6039 0.0
C2643 C 0.91478 0.26638 0.6962 0.0
C2644 C 0.90888 0.26439 0.65077 0.0
H2645 H 0.88094 0.26426 0.62668 0.0
C2646 C 0.91357 0.25722 0.63945 0.0
C2647 C 0.89726 0.26738 0.64597 0.0
C2648 C 0.89243 0.27607 0.65716 0.0
C2649 C 0.90677 0.25265 0.62359 0.0
C2650 C 0.89457 0.25484 0.61904 0.0
C2651 C 0.89012 0.26235 0.63024 0.0
C2652 C 0.88638 0.24947 0.6027 0.0
C2653 C 0.91292 0.24578 0.61182 0.0
C2654 C 0.8852 0.25998 0.59314 0.0
C2655 C 0.87803 0.25507 0.57749 0.0
C2656 C 0.872 0.23958 0.57113 0.0
C2657 C 0.87275 0.22898 0.58089 0.0
C2658 C 0.87973 0.23384 0.59658 0.0
H2659 H 0.92482 0.24937 0.61563 0.0
H2660 H 0.90616 0.23292 0.61123 0.0
H2661 H 0.91237 0.2493 0.59958 0.0
H2662 H 0.89015 0.27207 0.59765 0.0
H2663 H 0.87764 0.26347 0.57019 0.0
H2664 H 0.37074 0.30079 0.7065 0.0
H2665 H 0.37809 0.29172 0.68287 0.0
H2666 H 0.3349 0.27738 0.6573 0.0
H2667 H 0.32774 0.28707 0.68068 0.0
H2668 H 0.36664 0.2637 0.66914 0.0
H2669 H 0.36182 0.29952 0.62386 0.0
H2670 H 0.36113 0.30335 0.64502 0.0
H2671 H 0.34452 0.28863 0.63279 0.0
C2672 C 0.36288 0.29589 0.69576 0.0
C2673 C 0.34868 0.2947 0.69543 0.0
C2674 C 0.36709 0.29069 0.68226 0.0
C2675 C 0.35715 0.28404 0.66819 0.0
C2676 C 0.34296 0.28287 0.66782 0.0
H2677 H 0.3605 0.22062 0.5958 0.0
H2678 H 0.35593 0.23272 0.61923 0.0
C2679 C 0.33884 0.28833 0.68124 0.0
C2680 C 0.36133 0.27755 0.6543 0.0
H2681 H 0.36334 0.27757 0.61373 0.0
C2682 C 0.36604 0.26685 0.65704 0.0
C2683 C 0.3608 0.28181 0.63854 0.0
C2684 C 0.35695 0.29408 0.6349 0.0
C2685 C 0.36997 0.26011 0.64447 0.0
C2686 C 0.36864 0.26372 0.62858 0.0
C2687 C 0.3642 0.27464 0.62587 0.0
C2688 C 0.37172 0.25631 0.61455 0.0
C2689 C 0.37578 0.24941 0.64845 0.0
C2690 C 0.38181 0.2655 0.60383 0.0
C2691 C 0.38413 0.25862 0.59013 0.0
C2692 C 0.37645 0.24235 0.58688 0.0
C2693 C 0.36652 0.23317 0.5978 0.0
C2694 C 0.36406 0.24008 0.61138 0.0
H2695 H 0.38082 0.25194 0.66112 0.0
H2696 H 0.36625 0.23723 0.64693 0.0
H2697 H 0.38441 0.25042 0.64045 0.0
H2698 H 0.38778 0.27806 0.60594 0.0
H2699 H 0.39159 0.2661 0.58185 0.0
H2700 H 0.73747 0.06579 0.61603 0.0
H2701 H 0.75254 0.08737 0.60045 0.0
H2702 H 0.73888 0.11579 0.62677 0.0
H2703 H 0.72386 0.09426 0.64264 0.0
H2704 H 0.73955 0.10109 0.58121 0.0
H2705 H 0.78521 0.14435 0.62667 0.0
H2706 H 0.77414 0.124 0.62964 0.0
H2707 H 0.76617 0.13626 0.63189 0.0
C2708 C 0.73789 0.0767 0.61876 0.0
C2709 C 0.72948 0.07831 0.63059 0.0
C2710 C 0.74647 0.08901 0.6098 0.0
C2711 C 0.74687 0.10316 0.61253 0.0
C2712 C 0.73888 0.10501 0.62465 0.0
H2713 H 0.79206 0.18462 0.5581 0.0
H2714 H 0.77631 0.16681 0.5771 0.0
C2715 C 0.73027 0.09268 0.63365 0.0
C2716 C 0.75474 0.11546 0.60178 0.0
H2717 H 0.78516 0.15169 0.60036 0.0
C2718 C 0.74949 0.11218 0.5854 0.0
C2719 C 0.76756 0.12997 0.60736 0.0
C2720 C 0.77373 0.13391 0.62483 0.0
C2721 C 0.75693 0.12291 0.57435 0.0
C2722 C 0.77011 0.13716 0.5798 0.0
C2723 C 0.77506 0.14071 0.59626 0.0
C2724 C 0.77946 0.14797 0.56839 0.0
C2725 C 0.75071 0.11885 0.55689 0.0
C2726 C 0.78648 0.14326 0.55737 0.0
C2727 C 0.7954 0.15333 0.54657 0.0
C2728 C 0.79752 0.16834 0.54662 0.0
C2729 C 0.79049 0.17306 0.5577 0.0
C2730 C 0.78159 0.16297 0.56859 0.0
H2731 H 0.73856 0.10976 0.55543 0.0
H2732 H 0.7521 0.12925 0.55132 0.0
H2733 H 0.75693 0.1143 0.55026 0.0
H2734 H 0.78511 0.13179 0.55718 0.0
H2735 H 0.80053 0.1493 0.53806 0.0
H2736 H 0.9408 0.68077 0.6711 0.0
H2737 H 0.9283 0.67449 0.64374 0.0
H2738 H 0.88522 0.64634 0.66179 0.0
H2739 H 0.89752 0.65254 0.68916 0.0
H2740 H 0.90929 0.64338 0.62731 0.0
H2741 H 0.87925 0.67625 0.63372 0.0
H2742 H 0.89517 0.68008 0.64742 0.0
H2743 H 0.87694 0.66344 0.64892 0.0
C2744 C 0.92865 0.67333 0.66929 0.0
C2745 C 0.92017 0.6672 0.68236 0.0
C2746 C 0.92155 0.66973 0.65364 0.0
C2747 C 0.90585 0.66009 0.65081 0.0
C2748 C 0.89734 0.65398 0.66378 0.0
H2749 H 0.84364 0.62861 0.56382 0.0
H2750 H 0.85482 0.63264 0.59154 0.0
C2751 C 0.90442 0.6575 0.67941 0.0
C2752 C 0.89839 0.65606 0.63422 0.0
H2753 H 0.87377 0.66052 0.60932 0.0
C2754 C 0.90154 0.64714 0.62333 0.0
C2755 C 0.88821 0.66089 0.62918 0.0
C2756 C 0.88473 0.67079 0.64034 0.0
C2757 C 0.89468 0.6428 0.60749 0.0
C2758 C 0.88468 0.64785 0.60234 0.0
C2759 C 0.88142 0.65665 0.6133 0.0
C2760 C 0.87789 0.64462 0.58548 0.0
C2761 C 0.89801 0.63264 0.59651 0.0
C2762 C 0.88715 0.65004 0.57291 0.0
C2763 C 0.88081 0.64762 0.55709 0.0
C2764 C 0.86506 0.6399 0.55352 0.0
C2765 C 0.85579 0.63441 0.56614 0.0
C2766 C 0.86216 0.6368 0.58198 0.0
H2767 H 0.90198 0.62601 0.60343 0.0
H2768 H 0.88789 0.6243 0.58833 0.0
H2769 H 0.90706 0.64006 0.58906 0.0
H2770 H 0.89931 0.65638 0.57537 0.0
H2771 H 0.88826 0.65186 0.54765 0.0
H2772 H 0.91893 0.6814 0.75098 0.0
H2773 H 0.90698 0.68967 0.77034 0.0
H2774 H 0.94057 0.73755 0.76714 0.0
H2775 H 0.95263 0.72933 0.74753 0.0
H2776 H 0.9375 0.72703 0.79895 0.0
H2777 H 0.88248 0.71232 0.76757 0.0
H2778 H 0.88694 0.69719 0.76493 0.0
H2779 H 0.89845 0.71543 0.75697 0.0
C2780 C 0.92363 0.6937 0.75408 0.0
C2781 C 0.93677 0.7047 0.74777 0.0
C2782 C 0.91671 0.69842 0.76509 0.0
C2783 C 0.92283 0.71421 0.77005 0.0
C2784 C 0.93562 0.7253 0.76333 0.0
H2785 H 0.88147 0.73942 0.84673 0.0
H2786 H 0.89469 0.74143 0.82264 0.0
C2787 C 0.94246 0.72058 0.75212 0.0
C2788 C 0.91689 0.71877 0.78368 0.0
H2789 H 0.8843 0.71452 0.79651 0.0
C2790 C 0.92598 0.72464 0.79836 0.0
C2791 C 0.90189 0.71567 0.78282 0.0
C2792 C 0.89189 0.70994 0.76719 0.0
C2793 C 0.92011 0.72654 0.81247 0.0
C2794 C 0.90482 0.72244 0.8118 0.0
C2795 C 0.89601 0.71753 0.79695 0.0
C2796 C 0.89744 0.72179 0.82658 0.0
C2797 C 0.9301 0.73235 0.82811 0.0
C2798 C 0.89463 0.71006 0.83662 0.0
C2799 C 0.88703 0.70883 0.85024 0.0
C2800 C 0.88221 0.71937 0.85409 0.0
C2801 C 0.88522 0.73125 0.84411 0.0
C2802 C 0.89268 0.73237 0.83036 0.0
H2803 H 0.94225 0.73819 0.82611 0.0
H2804 H 0.92802 0.74059 0.83539 0.0
H2805 H 0.92748 0.72237 0.83516 0.0
H2806 H 0.89813 0.70172 0.83378 0.0
H2807 H 0.88492 0.69963 0.85778 0.0
H2808 H 0.28675 0.25594 0.73361 0.0
H2809 H 0.27999 0.23311 0.7482 0.0
H2810 H 0.32319 0.25797 0.77637 0.0
H2811 H 0.32976 0.28088 0.76238 0.0
H2812 H 0.29244 0.21488 0.7522 0.0
H2813 H 0.29441 0.24461 0.81082 0.0
H2814 H 0.29486 0.25283 0.79209 0.0
H2815 H 0.31183 0.25483 0.80191 0.0
C2816 C 0.29482 0.25652 0.74288 0.0
C2817 C 0.30877 0.27028 0.74689 0.0
C2818 C 0.29095 0.24346 0.75119 0.0
C2819 C 0.30096 0.24396 0.76361 0.0
C2820 C 0.31513 0.25746 0.76712 0.0
H2821 H 0.30515 0.17115 0.80873 0.0
H2822 H 0.30617 0.18972 0.79048 0.0
C2823 C 0.31894 0.27053 0.75897 0.0
C2824 C 0.29661 0.23054 0.77313 0.0
H2825 H 0.29455 0.22084 0.81169 0.0
C2826 C 0.29274 0.2161 0.7652 0.0
C2827 C 0.29664 0.23206 0.79005 0.0
C2828 C 0.2995 0.24688 0.79919 0.0
C2829 C 0.28953 0.20331 0.77382 0.0
C2830 C 0.2906 0.20516 0.79083 0.0
C2831 C 0.29388 0.21944 0.79867 0.0
C2832 C 0.28894 0.19274 0.80089 0.0
C2833 C 0.28493 0.18796 0.76459 0.0
C2834 C 0.2791 0.18841 0.81302 0.0
C2835 C 0.27882 0.17814 0.82381 0.0
C2836 C 0.28834 0.1719 0.82266 0.0
C2837 C 0.29781 0.17587 0.81014 0.0
C2838 C 0.29822 0.18629 0.79948 0.0
H2839 H 0.27961 0.187 0.75234 0.0
H2840 H 0.29511 0.18705 0.76322 0.0
H2841 H 0.27691 0.17804 0.77093 0.0
H2842 H 0.27191 0.19331 0.81443 0.0
H2843 H 0.27155 0.17559 0.83343 0.0
H2844 H 0.76097 0.05196 0.68136 0.0
H2845 H 0.77461 0.0588 0.70815 0.0
H2846 H 0.7387 0.0625 0.72803 0.0
H2847 H 0.72483 0.05534 0.70141 0.0
H2848 H 0.78529 0.08515 0.72814 0.0
H2849 H 0.74398 0.03498 0.75793 0.0
H2850 H 0.7429 0.03539 0.73638 0.0
H2851 H 0.73573 0.04507 0.74872 0.0
C2852 C 0.75591 0.05411 0.69144 0.0
C2853 C 0.74175 0.053 0.68922 0.0
C2854 C 0.76373 0.05803 0.70675 0.0
C2855 C 0.75756 0.06089 0.72014 0.0
C2856 C 0.74351 0.05993 0.71795 0.0
H2857 H 0.78637 0.0981 0.81864 0.0
H2858 H 0.77407 0.08855 0.79125 0.0
C2859 C 0.73563 0.05593 0.70268 0.0
C2860 C 0.76608 0.0655 0.73631 0.0
H2861 H 0.7632 0.05665 0.77526 0.0
C2862 C 0.78054 0.07881 0.7384 0.0
C2863 C 0.7599 0.05718 0.74968 0.0
C2864 C 0.74484 0.04227 0.74806 0.0
C2865 C 0.78874 0.08433 0.75363 0.0
C2866 C 0.78232 0.07628 0.76703 0.0
C2867 C 0.76803 0.06281 0.76492 0.0
C2868 C 0.78998 0.08207 0.7835 0.0
C2869 C 0.80398 0.099 0.75541 0.0
C2870 C 0.80295 0.08147 0.78819 0.0
C2871 C 0.81001 0.0869 0.80386 0.0
C2872 C 0.80425 0.09311 0.81502 0.0
C2873 C 0.79121 0.09362 0.81024 0.0
C2874 C 0.78412 0.08808 0.79465 0.0
H2875 H 0.80646 0.105 0.74425 0.0
H2876 H 0.80462 0.10712 0.76545 0.0
H2877 H 0.81285 0.09609 0.75835 0.0
H2878 H 0.80755 0.07673 0.77976 0.0
H2879 H 0.82005 0.0864 0.80721 0.0
H2880 H 0.04447 0.35597 0.04644 0.0
H2881 H 0.05774 0.34813 0.06548 0.0
H2882 H 0.04629 0.30808 0.03279 0.0
H2883 H 0.03321 0.3159 0.01363 0.0
H2884 H 0.04755 0.32029 0.08049 0.0
H2885 H 0.09235 0.32996 0.04088 0.0
H2886 H 0.07976 0.33732 0.03735 0.0
H2887 H 0.07351 0.31726 0.03162 0.0
C2888 C 0.04476 0.34548 0.04331 0.0
C2889 C 0.03792 0.33665 0.02843 0.0
C2890 C 0.05232 0.34101 0.05422 0.0
C2891 C 0.05321 0.32767 0.05042 0.0
C2892 C 0.046 0.31859 0.03581 0.0
H2893 H 0.09986 0.28561 0.09544 0.0
H2894 H 0.08257 0.29047 0.07899 0.0
C2895 C 0.03848 0.32306 0.02489 0.0
C2896 C 0.06187 0.32335 0.06159 0.0
H2897 H 0.09193 0.31776 0.06442 0.0
C2898 C 0.05728 0.31977 0.07703 0.0
C2899 C 0.07457 0.32272 0.05702 0.0
C2900 C 0.08046 0.32715 0.04088 0.0
C2901 C 0.06492 0.31528 0.08793 0.0
C2902 C 0.07757 0.31457 0.0833 0.0
C2903 C 0.08215 0.31819 0.06788 0.0
C2904 C 0.08657 0.31055 0.09435 0.0
C2905 C 0.05923 0.31106 0.10417 0.0
C2906 C 0.09439 0.32011 0.10856 0.0
C2907 C 0.10421 0.31731 0.11804 0.0
C2908 C 0.10647 0.30494 0.11343 0.0
C2909 C 0.09823 0.29509 0.09946 0.0
C2910 C 0.08842 0.29791 0.08998 0.0
H2911 H 0.04732 0.30816 0.10424 0.0
H2912 H 0.0601 0.30103 0.10785 0.0
H2913 H 0.0662 0.32109 0.11326 0.0
H2914 H 0.09333 0.33008 0.11203 0.0
H2915 H 0.11033 0.32505 0.12879 0.0
H2916 H 0.62494 0.6786 0.10079 0.0
H2917 H 0.63667 0.7063 0.10922 0.0
H2918 H 0.6792 0.71379 0.0949 0.0
H2919 H 0.66752 0.68617 0.0861 0.0
H2920 H 0.65946 0.72208 0.13291 0.0
H2921 H 0.6767 0.74883 0.07581 0.0
H2922 H 0.66353 0.72838 0.07636 0.0
H2923 H 0.68346 0.73592 0.08018 0.0
C2924 C 0.63673 0.68616 0.09917 0.0
C2925 C 0.64528 0.68013 0.0928 0.0
C2926 C 0.64342 0.70199 0.10402 0.0
C2927 C 0.65878 0.71212 0.10259 0.0
C2928 C 0.66726 0.70624 0.09583 0.0
H2929 H 0.71055 0.80168 0.16079 0.0
H2930 H 0.70173 0.77543 0.1483 0.0
C2931 C 0.66056 0.69041 0.09086 0.0
C2932 C 0.6661 0.72857 0.10932 0.0
H2933 H 0.68627 0.76597 0.09988 0.0
C2934 C 0.6653 0.73168 0.12568 0.0
C2935 C 0.67365 0.74105 0.09984 0.0
C2936 C 0.67429 0.73842 0.08204 0.0
C2937 C 0.67178 0.74695 0.13284 0.0
C2938 C 0.67961 0.75945 0.12345 0.0
C2939 C 0.68043 0.75635 0.10708 0.0
C2940 C 0.68611 0.77579 0.13018 0.0
C2941 C 0.66977 0.74951 0.15026 0.0
C2942 C 0.68075 0.78491 0.12368 0.0
C2943 C 0.68592 0.79994 0.13062 0.0
C2944 C 0.69653 0.80615 0.14424 0.0
C2945 C 0.70236 0.79723 0.15033 0.0
C2946 C 0.69722 0.78218 0.14331 0.0
H2947 H 0.66049 0.73887 0.15455 0.0
H2948 H 0.68032 0.75276 0.15778 0.0
H2949 H 0.66732 0.75907 0.15214 0.0
H2950 H 0.67227 0.78026 0.11346 0.0
H2951 H 0.68148 0.80665 0.12538 0.0
H2952 H 0.33714 0.97761 0.04554 0.0
H2953 H 0.31625 0.96794 0.06244 0.0
H2954 H 0.28766 0.93172 0.02502 0.0
H2955 H 0.30848 0.94132 0.00791 0.0
H2956 H 0.28604 0.96414 0.05201 0.0
H2957 H 0.28432 0.91007 0.06809 0.0
H2958 H 0.30103 0.92627 0.06179 0.0
H2959 H 0.28542 0.91379 0.04727 0.0
C2960 C 0.32646 0.96749 0.04093 0.0
C2961 C 0.32446 0.96022 0.02537 0.0
C2962 C 0.31454 0.96203 0.0506 0.0
C2963 C 0.3005 0.94912 0.04496 0.0
C2964 C 0.29849 0.94164 0.02959 0.0
H2965 H 0.21739 0.899 0.09004 0.0
H2966 H 0.23687 0.90805 0.07132 0.0
C2967 C 0.31039 0.94715 0.01984 0.0
C2968 C 0.28778 0.94387 0.05499 0.0
H2969 H 0.26568 0.91475 0.0774 0.0
C2970 C 0.28155 0.95334 0.05759 0.0
C2971 C 0.28197 0.92975 0.06209 0.0
C2972 C 0.28853 0.91936 0.05981 0.0
C2973 C 0.2695 0.94901 0.06707 0.0
C2974 C 0.26385 0.93501 0.07446 0.0
C2975 C 0.27004 0.92548 0.07173 0.0
C2976 C 0.25167 0.93009 0.08528 0.0
C2977 C 0.26278 0.9593 0.06883 0.0
C2978 C 0.25352 0.93952 0.0993 0.0
C2979 C 0.24237 0.93441 0.10995 0.0
C2980 C 0.2293 0.91969 0.10688 0.0
C2981 C 0.22741 0.91035 0.09275 0.0
C2982 C 0.2385 0.91551 0.08205 0.0
H2983 H 0.26519 0.96678 0.0588 0.0
H2984 H 0.25037 0.95233 0.06923 0.0
H2985 H 0.26779 0.96701 0.08021 0.0
H2986 H 0.26376 0.95064 0.10223 0.0
H2987 H 0.2442 0.94173 0.12088 0.0
H2988 H 0.34489 0.01884 0.01091 0.0
H2989 H 0.33305 0.03424 0.00596 0.0
H2990 H 0.37595 0.07292 0.99703 0.0
H2991 H 0.38792 0.05753 0.00164 0.0
H2992 H 0.33741 0.06466 0.01606 0.0
H2993 H 0.34977 0.0581 0.95314 0.0
H2994 H 0.35183 0.04729 0.9686 0.0
H2995 H 0.36591 0.06732 0.96781 0.0
C2996 C 0.35193 0.03076 0.00832 0.0
C2997 C 0.36729 0.03682 0.00624 0.0
C2998 C 0.34512 0.03956 0.00555 0.0
C2999 C 0.35358 0.05456 0.00079 0.0
C3000 C 0.36921 0.06124 0.00044 0.0
H3001 H 0.32212 0.1155 0.96898 0.0
H3002 H 0.33299 0.10359 0.98571 0.0
C3003 C 0.37602 0.05242 0.00307 0.0
C3004 C 0.34572 0.06208 0.99374 0.0
H3005 H 0.33733 0.07193 0.9579 0.0
C3006 C 0.33742 0.06636 0.00337 0.0
C3007 C 0.34555 0.06395 0.97711 0.0
C3008 C 0.35362 0.05882 0.96599 0.0
C3009 C 0.329 0.07258 0.99675 0.0
C3010 C 0.32901 0.07459 0.98017 0.0
C3011 C 0.33734 0.07034 0.97062 0.0
C3012 C 0.32046 0.08099 0.97217 0.0
C3013 C 0.3199 0.07663 0.0074 0.0
C3014 C 0.30967 0.07215 0.95917 0.0
C3015 C 0.30365 0.07896 0.94946 0.0
C3016 C 0.30833 0.09477 0.95255 0.0
C3017 C 0.31844 0.10334 0.96618 0.0
C3018 C 0.32452 0.09652 0.97588 0.0
H3019 H 0.31837 0.0712 0.01889 0.0
H3020 H 0.32585 0.08942 0.01029 0.0
H3021 H 0.30863 0.07288 0.00117 0.0
H3022 H 0.30649 0.06016 0.95607 0.0
H3023 H 0.29604 0.07207 0.93896 0.0
H3024 H 0.99058 0.30788 0.99635 0.0
H3025 H 0.97478 0.28002 0.98779 0.0
H3026 H 0.94075 0.28778 0.9655 0.0
H3027 H 0.95629 0.31552 0.97394 0.0
H3028 H 0.93698 0.25771 0.99048 0.0
H3029 H 0.96049 0.26778 0.9311 0.0
H3030 H 0.97137 0.27961 0.94938 0.0
H3031 H 0.95652 0.28188 0.94031 0.0
C3032 C 0.97961 0.30364 0.98989 0.0
C3033 C 0.97477 0.31399 0.98571 0.0
C3034 C 0.97063 0.28773 0.98501 0.0
C3035 C 0.95671 0.28197 0.97596 0.0
C3036 C 0.95151 0.29209 0.97246 0.0
H3037 H 0.88817 0.20469 0.91659 0.0
H3038 H 0.90768 0.22967 0.93023 0.0
C3039 C 0.96044 0.30795 0.9773 0.0
C3040 C 0.94794 0.26562 0.96901 0.0
H3041 H 0.93936 0.24313 0.9335 0.0
C3042 C 0.93763 0.25438 0.97813 0.0
C3043 C 0.94886 0.26148 0.95289 0.0
C3044 C 0.95993 0.27324 0.94277 0.0
C3045 C 0.92768 0.23912 0.97124 0.0
C3046 C 0.92826 0.23508 0.95491 0.0
C3047 C 0.93898 0.24625 0.94601 0.0
C3048 C 0.91696 0.21981 0.94641 0.0
C3049 C 0.91612 0.22765 0.98121 0.0
C3050 C 0.91593 0.20599 0.95076 0.0
C3051 C 0.90472 0.19165 0.943 0.0
C3052 C 0.89439 0.19093 0.93077 0.0
C3053 C 0.89581 0.20485 0.92613 0.0
C3054 C 0.90699 0.21913 0.93385 0.0
H3055 H 0.91548 0.23335 0.99268 0.0
H3056 H 0.90478 0.22148 0.97439 0.0
H3057 H 0.91918 0.21885 0.98413 0.0
H3058 H 0.92368 0.2063 0.96026 0.0
H3059 H 0.90386 0.18111 0.94687 0.0
H3060 H 0.67468 0.65657 0.03747 0.0
H3061 H 0.69564 0.66706 0.02058 0.0
H3062 H 0.71717 0.64726 0.04825 0.0
H3063 H 0.69626 0.63662 0.06511 0.0
H3064 H 0.72672 0.68787 0.03084 0.0
H3065 H 0.71663 0.63196 0.00129 0.0
H3066 H 0.70248 0.63358 0.01161 0.0
H3067 H 0.71753 0.63298 0.02285 0.0
C3068 C 0.68382 0.65435 0.03989 0.0
C3069 C 0.68379 0.64571 0.0526 0.0
C3070 C 0.69579 0.66038 0.03026 0.0
C3071 C 0.70783 0.65777 0.03307 0.0
C3072 C 0.70784 0.64917 0.04572 0.0
H3073 H 0.79141 0.68321 0.9928 0.0
H3074 H 0.77017 0.67409 0.00922 0.0
C3075 C 0.69591 0.64316 0.05539 0.0
C3076 C 0.72063 0.6644 0.02308 0.0
H3077 H 0.73985 0.65451 0.99767 0.0
C3078 C 0.72956 0.68061 0.02348 0.0
C3079 C 0.72425 0.65485 0.01353 0.0
C3080 C 0.71466 0.63737 0.01213 0.0
C3081 C 0.74231 0.68756 0.0149 0.0
C3082 C 0.74604 0.678 0.00551 0.0
C3083 C 0.73699 0.66179 0.00497 0.0
C3084 C 0.75934 0.68451 0.99622 0.0
C3085 C 0.75192 0.70504 0.0163 0.0
C3086 C 0.76031 0.69345 0.98353 0.0
C3087 C 0.77242 0.69866 0.97412 0.0
C3088 C 0.7837 0.69489 0.97717 0.0
C3089 C 0.78282 0.68616 0.99007 0.0
C3090 C 0.77073 0.68099 0.99948 0.0
H3091 H 0.74967 0.7105 0.02689 0.0
H3092 H 0.7641 0.70881 0.01726 0.0
H3093 H 0.74937 0.7094 0.00536 0.0
H3094 H 0.75147 0.69602 0.98062 0.0
H3095 H 0.77268 0.70516 0.9641 0.0
H3096 H 0.9389 0.65483 0.04689 0.0
H3097 H 0.92737 0.6637 0.02705 0.0
H3098 H 0.96292 0.6732 0.99668 0.0
H3099 H 0.97444 0.66412 0.01638 0.0
H3100 H 0.94001 0.6929 0.01596 0.0
H3101 H 0.92461 0.64706 0.96588 0.0
H3102 H 0.92977 0.64522 0.98626 0.0
H3103 H 0.94408 0.6572 0.97384 0.0
C3104 C 0.94423 0.6587 0.03595 0.0
C3105 C 0.95757 0.65872 0.0332 0.0
C3106 C 0.93763 0.66379 0.02463 0.0
C3107 C 0.94421 0.66896 0.01033 0.0
C3108 C 0.95751 0.669 0.00751 0.0
H3109 H 0.91705 0.7209 0.94887 0.0
H3110 H 0.93238 0.71331 0.96518 0.0
C3111 C 0.96412 0.66386 0.01882 0.0
C3112 C 0.93727 0.67471 0.99865 0.0
H3113 H 0.92005 0.66734 0.96052 0.0
C3114 C 0.93571 0.68737 0.00381 0.0
C3115 C 0.93159 0.6674 0.98284 0.0
C3116 C 0.93245 0.65338 0.97685 0.0
C3117 C 0.92844 0.69281 0.99366 0.0
C3118 C 0.92281 0.68554 0.97784 0.0
C3119 C 0.92452 0.67299 0.97261 0.0
C3120 C 0.91404 0.68998 0.96702 0.0
C3121 C 0.92635 0.70591 0.00016 0.0
C3122 C 0.8988 0.67925 0.96227 0.0
C3123 C 0.89006 0.68352 0.95298 0.0
C3124 C 0.8964 0.69861 0.94814 0.0
C3125 C 0.9118 0.70924 0.95254 0.0
C3126 C 0.92057 0.70493 0.96186 0.0
H3127 H 0.92858 0.70807 0.01347 0.0
H3128 H 0.9343 0.71672 0.99499 0.0
H3129 H 0.91471 0.70336 0.99672 0.0
H3130 H 0.89354 0.66767 0.96617 0.0
H3131 H 0.87819 0.67512 0.95007 0.0
H3132 H 0.3789 0.33002 0.95804 0.0
H3133 H 0.3658 0.30239 0.94864 0.0
H3134 H 0.32686 0.29523 0.97197 0.0
H3135 H 0.33977 0.32285 0.98139 0.0
H3136 H 0.35147 0.27469 0.96554 0.0
H3137 H 0.31151 0.2809 0.92341 0.0
H3138 H 0.32885 0.29739 0.93275 0.0
H3139 H 0.31293 0.2877 0.94415 0.0
C3140 C 0.36762 0.32257 0.96137 0.0
C3141 C 0.36033 0.32873 0.97031 0.0
C3142 C 0.36017 0.30678 0.95599 0.0
C3143 C 0.3453 0.29688 0.9594 0.0
C3144 C 0.33826 0.30277 0.96902 0.0
H3145 H 0.2963 0.19612 0.93482 0.0
H3146 H 0.30601 0.22191 0.94905 0.0
C3147 C 0.3457 0.31856 0.97444 0.0
C3148 C 0.33695 0.2806 0.95214 0.0
H3149 H 0.30832 0.25591 0.9238 0.0
C3150 C 0.34196 0.27051 0.95652 0.0
C3151 C 0.32466 0.27531 0.94024 0.0
C3152 C 0.31918 0.28587 0.93471 0.0
C3153 C 0.33503 0.25523 0.94921 0.0
C3154 C 0.32274 0.24995 0.93732 0.0
C3155 C 0.31767 0.26 0.93302 0.0
C3156 C 0.31564 0.23432 0.92849 0.0
C3157 C 0.3412 0.245 0.95386 0.0
C3158 C 0.31738 0.23282 0.91211 0.0
C3159 C 0.31178 0.21814 0.90394 0.0
C3160 C 0.30423 0.20472 0.912 0.0
C3161 C 0.30193 0.20625 0.92825 0.0
C3162 C 0.3076 0.22096 0.93644 0.0
H3163 H 0.35233 0.25169 0.96108 0.0
H3164 H 0.33322 0.23601 0.96114 0.0
H3165 H 0.34239 0.23897 0.94298 0.0
H3166 H 0.32349 0.24303 0.90577 0.0
H3167 H 0.31361 0.21728 0.8914 0.0
H3168 H 0.67021 0.04653 0.02002 0.0
H3169 H 0.69055 0.05534 0.00239 0.0
H3170 H 0.72231 0.06388 0.04296 0.0
H3171 H 0.70203 0.05481 0.06064 0.0
H3172 H 0.71751 0.08316 0.00263 0.0
H3173 H 0.72776 0.03458 0.01192 0.0
H3174 H 0.71134 0.03467 0.01818 0.0
H3175 H 0.7292 0.04588 0.03007 0.0
C3176 C 0.68155 0.05039 0.02523 0.0
C3177 C 0.68449 0.04983 0.04171 0.0
C3178 C 0.69314 0.0554 0.01513 0.0
C3179 C 0.70785 0.05993 0.02133 0.0
C3180 C 0.71096 0.06006 0.03788 0.0
H3181 H 0.79066 0.09169 0.97467 0.0
H3182 H 0.7721 0.08438 0.9944 0.0
C3183 C 0.69936 0.05498 0.04798 0.0
C3184 C 0.71986 0.06428 0.01039 0.0
H3185 H 0.7444 0.05397 0.99629 0.0
C3186 C 0.72339 0.07678 0.00124 0.0
C3187 C 0.72749 0.0559 0.00861 0.0
C3188 C 0.7237 0.04192 0.01759 0.0
C3189 C 0.7344 0.08119 0.99037 0.0
C3190 C 0.74193 0.07275 0.98853 0.0
C3191 C 0.73858 0.06039 0.99781 0.0
C3192 C 0.75301 0.07636 0.97663 0.0
C3193 C 0.73798 0.09489 0.981 0.0
C3194 C 0.7483 0.07382 0.96016 0.0
C3195 C 0.75881 0.07781 0.94888 0.0
C3196 C 0.77424 0.08443 0.95388 0.0
C3197 C 0.77885 0.08649 0.97042 0.0
C3198 C 0.7683 0.08242 0.98171 0.0
H3199 H 0.73366 0.10215 0.98631 0.0
H3200 H 0.75034 0.10227 0.9805 0.0
H3201 H 0.73263 0.09061 0.96848 0.0
H3202 H 0.73648 0.06887 0.95604 0.0
H3203 H 0.75486 0.0758 0.93622 0.0
H3204 H 0.63036 0.96007 0.06574 0.0
H3205 H 0.6459 0.94821 0.06913 0.0
H3206 H 0.68453 0.98984 0.05663 0.0
H3207 H 0.66913 0.00192 0.05328 0.0
H3208 H 0.66694 0.94385 0.04928 0.0
H3209 H 0.69426 0.98512 0.10463 0.0
H3210 H 0.67678 0.98166 0.09449 0.0
H3211 H 0.6942 0.99308 0.0859 0.0
C3212 C 0.64207 0.96663 0.06338 0.0
C3213 C 0.64855 0.98206 0.05954 0.0
C3214 C 0.65092 0.95979 0.06525 0.0
C3215 C 0.66637 0.96825 0.06335 0.0
C3216 C 0.67264 0.9832 0.0583 0.0
H3217 H 0.72586 0.94261 0.11407 0.0
H3218 H 0.71884 0.95598 0.09481 0.0
C3219 C 0.66379 0.99006 0.05639 0.0
C3220 C 0.67608 0.96211 0.06872 0.0
H3221 H 0.69964 0.96524 0.1008 0.0
C3222 C 0.67432 0.94866 0.06039 0.0
C3223 C 0.68578 0.9685 0.08313 0.0
C3224 C 0.68788 0.98284 0.09267 0.0
C3225 C 0.68155 0.94103 0.06649 0.0
C3226 C 0.6904 0.94682 0.08151 0.0
C3227 C 0.69287 0.96081 0.08929 0.0
C3228 C 0.69545 0.93764 0.09051 0.0
C3229 C 0.67938 0.9267 0.05696 0.0
C3230 C 0.68473 0.92279 0.09425 0.0
C3231 C 0.68873 0.91512 0.10511 0.0
C3232 C 0.7035 0.92224 0.11269 0.0
C3233 C 0.71442 0.9368 0.10837 0.0
C3234 C 0.71041 0.94446 0.0974 0.0
H3235 H 0.67784 0.92739 0.04385 0.0
H3236 H 0.6891 0.92497 0.05945 0.0
H3237 H 0.66903 0.91639 0.06017 0.0
H3238 H 0.67304 0.91743 0.08944 0.0
H3239 H 0.68012 0.90381 0.10801 0.0
H3240 H 0.01369 0.70064 0.0701 0.0
H3241 H 0.02969 0.72862 0.07776 0.0
H3242 H 0.06765 0.72264 0.08917 0.0
H3243 H 0.0518 0.69473 0.08169 0.0
H3244 H 0.04534 0.74018 0.11035 0.0
H3245 H 0.08424 0.76126 0.06251 0.0
H3246 H 0.066 0.74364 0.05949 0.0
H3247 H 0.08165 0.74375 0.0702 0.0
C3248 C 0.02553 0.70532 0.07389 0.0
C3249 C 0.03147 0.69545 0.07536 0.0
C3250 C 0.03462 0.7213 0.0783 0.0
C3251 C 0.04984 0.72766 0.08392 0.0
C3252 C 0.05597 0.71796 0.08466 0.0
H3253 H 0.12638 0.80808 0.13082 0.0
H3254 H 0.10744 0.7836 0.11605 0.0
C3255 C 0.04687 0.702 0.08045 0.0
C3256 C 0.05902 0.74409 0.09068 0.0
H3257 H 0.09172 0.77778 0.08703 0.0
C3258 C 0.05535 0.74854 0.10515 0.0
C3259 C 0.07206 0.75485 0.08385 0.0
C3260 C 0.0762 0.75073 0.06808 0.0
C3261 C 0.06488 0.76323 0.1135 0.0
C3262 C 0.07823 0.77388 0.10693 0.0
C3263 C 0.08151 0.76961 0.09208 0.0
C3264 C 0.08955 0.78895 0.11587 0.0
C3265 C 0.061 0.76687 0.12969 0.0
C3266 C 0.08583 0.80019 0.12063 0.0
C3267 C 0.0966 0.81415 0.12945 0.0
C3268 C 0.11134 0.81719 0.13349 0.0
C3269 C 0.11506 0.806 0.12835 0.0
C3270 C 0.10428 0.79205 0.11969 0.0
H3271 H 0.05236 0.75623 0.13462 0.0
H3272 H 0.07118 0.7728 0.13849 0.0
H3273 H 0.05641 0.77472 0.12843 0.0
H3274 H 0.07461 0.79819 0.11753 0.0
H3275 H 0.09335 0.82249 0.1332 0.0
H3276 H 0.32146 0.38551 0.01545 0.0
H3277 H 0.30018 0.37427 0.03179 0.0
H3278 H 0.3066 0.33538 0.03767 0.0
H3279 H 0.32808 0.34667 0.02161 0.0
H3280 H 0.27387 0.34595 0.02542 0.0
H3281 H 0.30408 0.34867 0.08368 0.0
H3282 H 0.3138 0.35923 0.06728 0.0
H3283 H 0.30719 0.33882 0.06705 0.0
C3284 C 0.31845 0.37464 0.02034 0.0
C3285 C 0.32649 0.36701 0.01727 0.0
C3286 C 0.30627 0.36823 0.02965 0.0
C3287 C 0.30193 0.35409 0.03609 0.0
C3288 C 0.30996 0.34646 0.0331 0.0
H3289 H 0.22744 0.29803 0.09241 0.0
H3290 H 0.24825 0.30668 0.07526 0.0
C3291 C 0.32219 0.3529 0.02385 0.0
C3292 C 0.28863 0.34707 0.04538 0.0
H3293 H 0.27738 0.3352 0.08215 0.0
C3294 C 0.27463 0.34362 0.03783 0.0
C3295 C 0.28967 0.34397 0.06153 0.0
C3296 C 0.3045 0.34798 0.07044 0.0
C3297 C 0.26163 0.33716 0.04603 0.0
C3298 C 0.26272 0.33424 0.06222 0.0
C3299 C 0.27663 0.33743 0.0697 0.0
C3300 C 0.24971 0.32864 0.07186 0.0
C3301 C 0.24682 0.33345 0.03731 0.0
C3302 C 0.24373 0.33816 0.07558 0.0
C3303 C 0.23192 0.33329 0.08534 0.0
C3304 C 0.2259 0.3188 0.09157 0.0
C3305 C 0.23177 0.30918 0.08764 0.0
C3306 C 0.24368 0.31412 0.07794 0.0
H3307 H 0.24712 0.33277 0.02405 0.0
H3308 H 0.23745 0.32228 0.04054 0.0
H3309 H 0.24436 0.34274 0.04088 0.0
H3310 H 0.24838 0.34949 0.07116 0.0
H3311 H 0.22753 0.34088 0.08808 0.0
H3312 H 0.73428 0.71087 0.37417 0.0
H3313 H 0.74504 0.70019 0.39268 0.0
H3314 H 0.70112 0.65962 0.39376 0.0
H3315 H 0.69022 0.67015 0.37507 0.0
H3316 H 0.73761 0.69066 0.42402 0.0
H3317 H 0.72782 0.64186 0.38008 0.0
H3318 H 0.72673 0.65833 0.37406 0.0
H3319 H 0.71162 0.64351 0.38366 0.0
C3320 C 0.72687 0.6997 0.37836 0.0
C3321 C 0.7114 0.69131 0.37303 0.0
C3322 C 0.73304 0.69363 0.38897 0.0
C3323 C 0.72392 0.67903 0.39441 0.0
C3324 C 0.7084 0.6708 0.38949 0.0
H3325 H 0.75534 0.62683 0.44982 0.0
H3326 H 0.73868 0.63455 0.43644 0.0
C3327 C 0.70219 0.67687 0.37888 0.0
C3328 C 0.73084 0.67242 0.40495 0.0
H3329 H 0.73986 0.64396 0.40556 0.0
C3330 C 0.738 0.68038 0.42006 0.0
C3331 C 0.73125 0.65895 0.39976 0.0
C3332 C 0.72406 0.65018 0.38347 0.0
C3333 C 0.74584 0.6754 0.43 0.0
C3334 C 0.74677 0.6623 0.42455 0.0
C3335 C 0.73913 0.654 0.4097 0.0
C3336 C 0.7566 0.65778 0.43342 0.0
C3337 C 0.75313 0.68428 0.44622 0.0
C3338 C 0.77218 0.66821 0.43598 0.0
C3339 C 0.7817 0.66383 0.44351 0.0
C3340 C 0.77586 0.64887 0.44859 0.0
C3341 C 0.76021 0.63841 0.44601 0.0
C3342 C 0.75067 0.64282 0.43844 0.0
H3343 H 0.74754 0.69059 0.45066 0.0
H3344 H 0.75278 0.67642 0.45526 0.0
H3345 H 0.76511 0.693 0.44517 0.0
H3346 H 0.77706 0.67965 0.43179 0.0
H3347 H 0.79372 0.67204 0.4449 0.0
H3348 H 0.29145 0.01346 0.44306 0.0
H3349 H 0.30474 0.04153 0.4491 0.0
H3350 H 0.33882 0.04628 0.41847 0.0
H3351 H 0.32578 0.018 0.41267 0.0
H3352 H 0.3513 0.06336 0.44674 0.0
H3353 H 0.30715 0.07464 0.42256 0.0
H3354 H 0.29997 0.06028 0.43659 0.0
H3355 H 0.30618 0.05629 0.41816 0.0
C3356 C 0.30166 0.02043 0.4374 0.0
C3357 C 0.30751 0.01344 0.42733 0.0
C3358 C 0.30921 0.03653 0.44081 0.0
C3359 C 0.32263 0.04604 0.43401 0.0
C3360 C 0.32843 0.03915 0.42377 0.0
H3361 H 0.35821 0.14583 0.44962 0.0
H3362 H 0.34982 0.11992 0.43652 0.0
C3363 C 0.32094 0.023 0.42045 0.0
C3364 C 0.33098 0.06306 0.43843 0.0
H3365 H 0.3262 0.09437 0.44207 0.0
C3366 C 0.34591 0.07022 0.4455 0.0
C3367 C 0.32406 0.07208 0.43654 0.0
C3368 C 0.30852 0.06545 0.42788 0.0
C3369 C 0.35385 0.08598 0.45141 0.0
C3370 C 0.34649 0.09469 0.45063 0.0
C3371 C 0.33181 0.08768 0.44289 0.0
C3372 C 0.35349 0.1109 0.45816 0.0
C3373 C 0.37002 0.09311 0.45837 0.0
C3374 C 0.35861 0.11455 0.47462 0.0
C3375 C 0.36366 0.12944 0.48204 0.0
C3376 C 0.36331 0.14076 0.47319 0.0
C3377 C 0.35851 0.13723 0.45668 0.0
C3378 C 0.35373 0.12246 0.44922 0.0
H3379 H 0.37541 0.08691 0.45305 0.0
H3380 H 0.37677 0.10557 0.45634 0.0
H3381 H 0.37033 0.09214 0.47152 0.0
H3382 H 0.35815 0.10575 0.48189 0.0
H3383 H 0.36714 0.13189 0.49483 0.0
H3384 H 0.01391 0.31332 0.38208 0.0
H3385 H 0.99211 0.30477 0.39766 0.0
H3386 H 0.96593 0.26488 0.36307 0.0
H3387 H 0.98762 0.27325 0.34746 0.0
H3388 H 0.96281 0.2994 0.3863 0.0
H3389 H 0.96058 0.24662 0.40702 0.0
H3390 H 0.97711 0.26194 0.39944 0.0
H3391 H 0.96138 0.24798 0.38575 0.0
C3392 C 0.00355 0.30266 0.37785 0.0
C3393 C 0.0025 0.29393 0.36355 0.0
C3394 C 0.99112 0.29783 0.38674 0.0
C3395 C 0.9775 0.28414 0.38157 0.0
C3396 C 0.97643 0.27537 0.36737 0.0
H3397 H 0.88915 0.23255 0.41419 0.0
H3398 H 0.91127 0.24324 0.399 0.0
C3399 C 0.98882 0.2802 0.35844 0.0
C3400 C 0.96424 0.27919 0.39075 0.0
H3401 H 0.93963 0.2497 0.41128 0.0
C3402 C 0.95777 0.2886 0.39187 0.0
C3403 C 0.95775 0.26509 0.39796 0.0
C3404 C 0.96461 0.25486 0.39765 0.0
C3405 C 0.94466 0.28403 0.39967 0.0
C3406 C 0.93807 0.26983 0.40672 0.0
C3407 C 0.94468 0.26055 0.40577 0.0
C3408 C 0.92426 0.26425 0.41513 0.0
C3409 C 0.93774 0.29421 0.3999 0.0
C3410 C 0.92418 0.27264 0.42911 0.0
C3411 C 0.91155 0.26656 0.4378 0.0
C3412 C 0.89886 0.25193 0.43271 0.0
C3413 C 0.89883 0.24378 0.41846 0.0
C3414 C 0.91143 0.24988 0.40977 0.0
H3415 H 0.9419 0.30255 0.39063 0.0
H3416 H 0.92525 0.2871 0.3979 0.0
H3417 H 0.94079 0.30099 0.41184 0.0
H3418 H 0.93409 0.2836 0.43362 0.0
H3419 H 0.91196 0.27298 0.44887 0.0
H3420 H 0.0735 0.38643 0.33117 0.0
H3421 H 0.06559 0.40525 0.32641 0.0
H3422 H 0.02019 0.37166 0.33533 0.0
H3423 H 0.02807 0.35296 0.34056 0.0
H3424 H 0.04603 0.40033 0.30181 0.0
H3425 H 0.02433 0.4106 0.3573 0.0
H3426 H 0.03593 0.40181 0.35709 0.0
H3427 H 0.01596 0.39026 0.3512 0.0
C3428 C 0.06191 0.38317 0.3325 0.0
C3429 C 0.05138 0.36814 0.33608 0.0
C3430 C 0.05742 0.39396 0.32982 0.0
C3431 C 0.04233 0.38991 0.33061 0.0
C3432 C 0.03197 0.37519 0.33501 0.0
H3433 H 0.99212 0.41656 0.26972 0.0
H3434 H 0.00224 0.40346 0.28541 0.0
C3435 C 0.03648 0.36445 0.33787 0.0
C3436 C 0.03696 0.40005 0.32447 0.0
H3437 H 0.01549 0.4163 0.33263 0.0
C3438 C 0.03957 0.40403 0.30868 0.0
C3439 C 0.02859 0.40495 0.33344 0.0
C3440 C 0.02617 0.40182 0.35076 0.0
C3441 C 0.03355 0.41222 0.30138 0.0
C3442 C 0.02441 0.41625 0.30998 0.0
C3443 C 0.02231 0.41292 0.32601 0.0
C3444 C 0.0167 0.42358 0.30218 0.0
C3445 C 0.0369 0.41634 0.28443 0.0
C3446 C 0.02102 0.43902 0.30692 0.0
C3447 C 0.01513 0.44653 0.29807 0.0
C3448 C 0.00481 0.43866 0.28439 0.0
C3449 C -8e-05 0.42292 0.28026 0.0
C3450 C 0.00579 0.41545 0.28912 0.0
H3451 H 0.04703 0.41601 0.28111 0.0
H3452 H 0.02716 0.40783 0.27592 0.0
H3453 H 0.03871 0.42809 0.28291 0.0
H3454 H 0.02938 0.44543 0.31705 0.0
H3455 H 0.01893 0.45859 0.30168 0.0
H3456 H 0.61931 0.65648 0.30929 0.0
H3457 H 0.60177 0.62904 0.30096 0.0
H3458 H 0.63493 0.61786 0.31864 0.0
H3459 H 0.65251 0.64533 0.32735 0.0
H3460 H 0.60653 0.61165 0.27856 0.0
H3461 H 0.59701 0.58509 0.33639 0.0
H3462 H 0.60545 0.60575 0.33539 0.0
H3463 H 0.6165 0.59662 0.33288 0.0
C3464 C 0.62283 0.64819 0.31166 0.0
C3465 C 0.63736 0.65313 0.31896 0.0
C3466 C 0.61278 0.6325 0.30686 0.0
C3467 C 0.617 0.62139 0.30924 0.0
C3468 C 0.63132 0.62619 0.31695 0.0
H3469 H 0.57017 0.53073 0.25239 0.0
H3470 H 0.5897 0.55629 0.26505 0.0
C3471 C 0.64138 0.64191 0.32187 0.0
C3472 C 0.60678 0.60503 0.30255 0.0
H3473 H 0.58692 0.56777 0.31254 0.0
C3474 C 0.60224 0.60205 0.28599 0.0
C3475 C 0.60116 0.59255 0.31229 0.0
C3476 C 0.60515 0.59512 0.33025 0.0
C3477 C 0.59213 0.58697 0.27888 0.0
C3478 C 0.58667 0.57444 0.28856 0.0
C3479 C 0.59126 0.57738 0.30513 0.0
C3480 C 0.57543 0.55835 0.28184 0.0
C3481 C 0.587 0.58468 0.26118 0.0
C3482 C 0.56115 0.55076 0.28755 0.0
C3483 C 0.55006 0.53609 0.28051 0.0
C3484 C 0.553 0.5287 0.26759 0.0
C3485 C 0.56752 0.53608 0.26232 0.0
C3486 C 0.57865 0.55075 0.26943 0.0
H3487 H 0.58937 0.59575 0.25643 0.0
H3488 H 0.59311 0.58008 0.25441 0.0
H3489 H 0.57473 0.5762 0.25882 0.0
H3490 H 0.55846 0.55636 0.2972 0.0
H3491 H 0.53911 0.53058 0.28512 0.0
H3492 H 0.34894 0.95664 0.40086 0.0
H3493 H 0.36791 0.96147 0.38218 0.0
H3494 H 0.35171 0.98573 0.35386 0.0
H3495 H 0.33278 0.9811 0.37257 0.0
H3496 H 0.36319 0.95243 0.34884 0.0
H3497 H 0.39736 0.01658 0.36224 0.0
H3498 H 0.38369 0.0042 0.37519 0.0
H3499 H 0.37758 0.00894 0.35695 0.0
C3500 C 0.34943 0.96306 0.3907 0.0
C3501 C 0.3394 0.96855 0.38824 0.0
C3502 C 0.36026 0.96579 0.38004 0.0
C3503 C 0.36132 0.97413 0.36679 0.0
C3504 C 0.35124 0.97951 0.36419 0.0
H3505 H 0.4196 0.00138 0.28943 0.0
H3506 H 0.40019 0.99675 0.3075 0.0
C3507 C 0.34039 0.97679 0.37485 0.0
C3508 C 0.37279 0.9769 0.35553 0.0
H3509 H 0.40395 0.00551 0.34071 0.0
C3510 C 0.37213 0.96403 0.34708 0.0
C3511 C 0.3844 0.99204 0.35326 0.0
C3512 C 0.38594 0.00625 0.36248 0.0
C3513 C 0.3827 0.9659 0.33624 0.0
C3514 C 0.39436 0.98104 0.33406 0.0
C3515 C 0.39497 0.99392 0.34244 0.0
C3516 C 0.40611 0.98378 0.32318 0.0
C3517 C 0.38113 0.95169 0.32702 0.0
C3518 C 0.41597 0.9782 0.32617 0.0
C3519 C 0.4271 0.98088 0.31592 0.0
C3520 C 0.42863 0.9893 0.30256 0.0
C3521 C 0.41882 0.99501 0.29972 0.0
C3522 C 0.40769 0.99231 0.30997 0.0
H3523 H 0.3696 0.94148 0.32693 0.0
H3524 H 0.38373 0.95385 0.3144 0.0
H3525 H 0.38921 0.94875 0.33278 0.0
H3526 H 0.41514 0.97188 0.33651 0.0
H3527 H 0.43465 0.97654 0.31857 0.0
H3528 H 0.59976 0.96426 0.37353 0.0
H3529 H 0.58623 0.97013 0.35286 0.0
H3530 H 0.62578 0.99098 0.32702 0.0
H3531 H 0.63947 0.98504 0.34767 0.0
H3532 H 0.59466 0.00013 0.3437 0.0
H3533 H 0.59129 0.96008 0.29259 0.0
H3534 H 0.59545 0.95798 0.31324 0.0
H3535 H 0.60969 0.97293 0.30292 0.0
C3536 C 0.6056 0.97002 0.36343 0.0
C3537 C 0.6207 0.97418 0.36225 0.0
C3538 C 0.59784 0.97337 0.35163 0.0
C3539 C 0.60497 0.98087 0.33837 0.0
C3540 C 0.62002 0.98499 0.33706 0.0
H3541 H 0.56486 0.02112 0.27621 0.0
H3542 H 0.58335 0.01757 0.29225 0.0
C3543 C 0.62783 0.98165 0.3489 0.0
C3544 C 0.59665 0.98476 0.32629 0.0
H3545 H 0.58064 0.97566 0.28747 0.0
C3546 C 0.5917 0.9949 0.33136 0.0
C3547 C 0.59275 0.97781 0.31026 0.0
C3548 C 0.59744 0.96649 0.30436 0.0
C3549 C 0.58271 0.99809 0.3209 0.0
C3550 C 0.57872 0.99108 0.30488 0.0
C3551 C 0.58385 0.98111 0.29972 0.0
C3552 C 0.56825 0.99305 0.29377 0.0
C3553 C 0.57703 0.00844 0.32724 0.0
C3554 C 0.55383 0.98033 0.28889 0.0
C3555 C 0.54326 0.98232 0.2798 0.0
C3556 C 0.54692 0.99707 0.27533 0.0
C3557 C 0.56161 0.00967 0.27967 0.0
C3558 C 0.57219 0.00766 0.28879 0.0
H3559 H 0.57881 0.01056 0.34057 0.0
H3560 H 0.58316 0.01982 0.32224 0.0
H3561 H 0.56482 0.00323 0.32345 0.0
H3562 H 0.55057 0.96897 0.29265 0.0
H3563 H 0.53201 0.97241 0.27687 0.0
H3564 H 0.05655 0.67355 0.30012 0.0
H3565 H 0.04593 0.64626 0.29052 0.0
H3566 H 0.00451 0.63488 0.31093 0.0
H3567 H 0.01495 0.66222 0.3205 0.0
H3568 H 0.03333 0.61865 0.30656 0.0
H3569 H 0.99165 0.61998 0.26244 0.0
H3570 H 0.0076 0.63743 0.27256 0.0
H3571 H 0.99142 0.62592 0.28305 0.0
C3572 C 0.04524 0.66526 0.30274 0.0
C3573 C 0.03654 0.67014 0.31092 0.0
C3574 C 0.0392 0.64965 0.29725 0.0
C3575 C 0.02436 0.63864 0.29978 0.0
C3576 C 0.0159 0.64328 0.30863 0.0
H3577 H 0.9858 0.53891 0.27447 0.0
H3578 H 0.99291 0.56397 0.28887 0.0
C3579 C 0.02193 0.65891 0.31415 0.0
C3580 C 0.01761 0.62247 0.29244 0.0
H3581 H 0.99118 0.59625 0.26313 0.0
C3582 C 0.02403 0.61367 0.29716 0.0
C3583 C 0.00562 0.61615 0.28004 0.0
C3584 C 0.9987 0.62535 0.27408 0.0
C3585 C 0.01884 0.59872 0.2897 0.0
C3586 C 0.00682 0.59239 0.27733 0.0
C3587 C 0.00032 0.60113 0.27271 0.0
C3588 C 0.00143 0.57705 0.26842 0.0
C3589 C 0.02659 0.59001 0.29472 0.0
C3590 C 0.00339 0.57608 0.25203 0.0
C3591 C 0.99921 0.56178 0.24373 0.0
C3592 C 0.99291 0.54819 0.25168 0.0
C3593 C 0.99048 0.54915 0.26798 0.0
C3594 C 0.99469 0.56346 0.27627 0.0
H3595 H 0.03752 0.5977 0.30204 0.0
H3596 H 0.01922 0.58066 0.30205 0.0
H3597 H 0.02866 0.58451 0.28403 0.0
H3598 H 0.0085 0.58645 0.24576 0.0
H3599 H 0.00108 0.56138 0.23115 0.0
H3600 H 0.32521 0.37174 0.34626 0.0
H3601 H 0.34543 0.38035 0.32846 0.0
H3602 H 0.37808 0.39338 0.36947 0.0
H3603 H 0.35796 0.38457 0.38732 0.0
H3604 H 0.37106 0.40918 0.32758 0.0
H3605 H 0.38637 0.36481 0.34068 0.0
H3606 H 0.3692 0.36359 0.34637 0.0
H3607 H 0.38683 0.37629 0.35821 0.0
C3608 C 0.3367 0.37648 0.3515 0.0
C3609 C 0.33997 0.37736 0.36819 0.0
C3610 C 0.34822 0.38137 0.34131 0.0
C3611 C 0.36319 0.38719 0.34764 0.0
C3612 C 0.36655 0.38856 0.36432 0.0
H3613 H 0.44835 0.42517 0.30555 0.0
H3614 H 0.42843 0.41588 0.32381 0.0
C3615 C 0.35504 0.38362 0.37451 0.0
C3616 C 0.3753 0.39193 0.33678 0.0
H3617 H 0.40253 0.38465 0.32503 0.0
C3618 C 0.3779 0.40377 0.32696 0.0
C3619 C 0.38419 0.38484 0.33603 0.0
C3620 C 0.38145 0.37158 0.34577 0.0
C3621 C 0.38932 0.40889 0.31655 0.0
C3622 C 0.39822 0.40182 0.31584 0.0
C3623 C 0.39567 0.39002 0.32567 0.0
C3624 C 0.41015 0.40649 0.30481 0.0
C3625 C 0.39196 0.42198 0.30658 0.0
C3626 C 0.40637 0.40385 0.28813 0.0
C3627 C 0.41768 0.40901 0.27769 0.0
C3628 C 0.43296 0.41689 0.28377 0.0
C3629 C 0.43668 0.41902 0.3005 0.0
C3630 C 0.42534 0.41382 0.31094 0.0
H3631 H 0.38649 0.42839 0.3111 0.0
H3632 H 0.40422 0.4303 0.30649 0.0
H3633 H 0.38719 0.41715 0.29399 0.0
H3634 H 0.39467 0.39794 0.2832 0.0
H3635 H 0.41445 0.40693 0.26486 0.0
H3636 H 0.28885 0.29421 0.40886 0.0
H3637 H 0.30465 0.28279 0.41285 0.0
H3638 H 0.3367 0.31505 0.38318 0.0
H3639 H 0.32114 0.32693 0.37946 0.0
H3640 H 0.31682 0.26937 0.39391 0.0
H3641 H 0.36172 0.32563 0.42608 0.0
H3642 H 0.34306 0.32203 0.42025 0.0
H3643 H 0.35622 0.32602 0.40546 0.0
C3644 C 0.29913 0.29876 0.40294 0.0
C3645 C 0.30386 0.31169 0.3941 0.0
C3646 C 0.30814 0.29217 0.40521 0.0
C3647 C 0.32201 0.2983 0.39862 0.0
C3648 C 0.32621 0.31039 0.3887 0.0
H3649 H 0.37147 0.25139 0.42961 0.0
H3650 H 0.36278 0.26393 0.4108 0.0
C3651 C 0.31726 0.31711 0.38654 0.0
C3652 C 0.3325 0.29291 0.40357 0.0
H3653 H 0.36484 0.3042 0.42765 0.0
C3654 C 0.32749 0.277 0.40101 0.0
C3655 C 0.34639 0.30295 0.41287 0.0
C3656 C 0.35219 0.32009 0.41647 0.0
C3657 C 0.33548 0.27069 0.40839 0.0
C3658 C 0.34897 0.28063 0.41833 0.0
C3659 C 0.35452 0.29667 0.41995 0.0
C3660 C 0.35594 0.27442 0.42932 0.0
C3661 C 0.32886 0.25331 0.40647 0.0
C3662 C 0.35554 0.27673 0.44592 0.0
C3663 C 0.36057 0.26976 0.45659 0.0
C3664 C 0.36611 0.26031 0.45088 0.0
C3665 C 0.36725 0.25862 0.43431 0.0
C3666 C 0.36218 0.26564 0.42357 0.0
H3667 H 0.31736 0.24711 0.39998 0.0
H3668 H 0.33621 0.25051 0.39958 0.0
H3669 H 0.32827 0.24885 0.41841 0.0
H3670 H 0.35084 0.28353 0.45061 0.0
H3671 H 0.3598 0.27147 0.46933 0.0
H3672 H 0.67816 0.02304 0.40305 0.0
H3673 H 0.69429 0.05126 0.40924 0.0
H3674 H 0.73191 0.04553 0.42339 0.0
H3675 H 0.71594 0.01741 0.41748 0.0
H3676 H 0.71227 0.06477 0.4433 0.0
H3677 H 0.7462 0.08164 0.3909 0.0
H3678 H 0.72739 0.06487 0.38966 0.0
H3679 H 0.74299 0.06416 0.39928 0.0
C3680 C 0.68993 0.02781 0.40723 0.0
C3681 C 0.69576 0.01798 0.40984 0.0
C3682 C 0.69909 0.0439 0.41079 0.0
C3683 C 0.71425 0.05039 0.41669 0.0
C3684 C 0.72024 0.0407 0.41873 0.0
H3685 H 0.79339 0.1339 0.45306 0.0
H3686 H 0.7736 0.10859 0.4407 0.0
C3687 C 0.71108 0.02463 0.41539 0.0
C3688 C 0.72367 0.06714 0.42198 0.0
H3689 H 0.75492 0.10025 0.41366 0.0
C3690 C 0.72147 0.07266 0.43675 0.0
C3691 C 0.73564 0.07724 0.41339 0.0
C3692 C 0.73823 0.07179 0.39735 0.0
C3693 C 0.73147 0.0879 0.44361 0.0
C3694 C 0.74374 0.09796 0.43521 0.0
C3695 C 0.74552 0.09255 0.42009 0.0
C3696 C 0.7556 0.11362 0.44247 0.0
C3697 C 0.72928 0.09275 0.46019 0.0
C3698 C 0.75211 0.12499 0.44745 0.0
C3699 C 0.76341 0.13944 0.45491 0.0
C3700 C 0.77844 0.14285 0.45733 0.0
C3701 C 0.7819 0.13157 0.45183 0.0
C3702 C 0.77061 0.11713 0.44455 0.0
H3703 H 0.72155 0.0826 0.46645 0.0
H3704 H 0.74022 0.09944 0.46774 0.0
H3705 H 0.72429 0.10027 0.45913 0.0
H3706 H 0.74065 0.12267 0.44564 0.0
H3707 H 0.76032 0.14784 0.45898 0.0
H3708 H 0.97928 0.70513 0.33498 0.0
H3709 H 0.95705 0.69207 0.34971 0.0
H3710 H 0.97971 0.67502 0.37991 0.0
H3711 H 0.00214 0.68828 0.3654 0.0
H3712 H 0.93965 0.6604 0.35297 0.0
H3713 H 0.9645 0.69465 0.41246 0.0
H3714 H 0.97352 0.70092 0.39427 0.0
H3715 H 0.97458 0.686 0.40419 0.0
C3716 C 0.9796 0.6987 0.34483 0.0
C3717 C 0.9925 0.69779 0.34906 0.0
C3718 C 0.96687 0.69122 0.35321 0.0
C3719 C 0.96679 0.68271 0.36598 0.0
C3720 C 0.97964 0.68176 0.37026 0.0
H3721 H 0.89666 0.63396 0.42978 0.0
H3722 H 0.91885 0.64227 0.41486 0.0
C3723 C 0.99242 0.6893 0.36192 0.0
C3724 C 0.95309 0.67458 0.37452 0.0
H3725 H 0.93948 0.67362 0.41095 0.0
C3726 C 0.93961 0.66325 0.36566 0.0
C3727 C 0.95311 0.67828 0.39108 0.0
C3728 C 0.96715 0.69071 0.40107 0.0
C3729 C 0.92609 0.65561 0.37289 0.0
C3730 C 0.92605 0.65957 0.38935 0.0
C3731 C 0.93959 0.67061 0.39832 0.0
C3732 C 0.91195 0.65312 0.39733 0.0
C3733 C 0.91198 0.64337 0.36288 0.0
C3734 C 0.9007 0.65637 0.3923 0.0
C3735 C 0.88803 0.65161 0.40075 0.0
C3736 C 0.88642 0.64356 0.41441 0.0
C3737 C 0.8975 0.63994 0.41916 0.0
C3738 C 0.91021 0.64476 0.41073 0.0
H3739 H 0.91465 0.63864 0.35203 0.0
H3740 H 0.90491 0.63364 0.36998 0.0
H3741 H 0.90525 0.64861 0.3588 0.0
H3742 H 0.90196 0.66303 0.38215 0.0
H3743 H 0.87964 0.65451 0.39679 0.0
H3744 H 0.36407 0.006 0.7035 0.0
H3745 H 0.37799 0.99852 0.722 0.0
H3746 H 0.40677 0.04644 0.74077 0.0
H3747 H 0.39277 0.054 0.72256 0.0
H3748 H 0.40751 0.00762 0.72214 0.0
H3749 H 0.39701 0.02505 0.78176 0.0
H3750 H 0.38592 0.02334 0.76346 0.0
H3751 H 0.404 0.04055 0.76899 0.0
C3752 C 0.37321 0.01493 0.71173 0.0
C3753 C 0.37732 0.03061 0.71152 0.0
C3754 C 0.38116 0.01062 0.7223 0.0
C3755 C 0.39331 0.02188 0.73292 0.0
C3756 C 0.39722 0.0375 0.73297 0.0
H3757 H 0.47211 0.02234 0.7713 0.0
H3758 H 0.4528 0.02543 0.75665 0.0
C3759 C 0.38926 0.04182 0.72244 0.0
C3760 C 0.40271 0.01752 0.74291 0.0
H3761 H 0.41796 0.02079 0.78125 0.0
C3762 C 0.40963 0.01033 0.73509 0.0
C3763 C 0.40535 0.02087 0.75983 0.0
C3764 C 0.39755 0.02773 0.76903 0.0
C3765 C 0.4196 0.00699 0.74363 0.0
C3766 C 0.42293 0.01119 0.76041 0.0
C3767 C 0.41552 0.01776 0.76835 0.0
C3768 C 0.43459 0.00948 0.76972 0.0
C3769 C 0.42655 0.99907 0.73459 0.0
C3770 C 0.43083 -0.0002 0.78224 0.0
C3771 C 0.44192 0.99811 0.79078 0.0
C3772 C 0.45698 0.00623 0.78705 0.0
C3773 C 0.46068 0.01607 0.77463 0.0
C3774 C 0.44962 0.01772 0.76611 0.0
H3775 H 0.41972 0.99272 0.72307 0.0
H3776 H 0.43794 0.00796 0.73175 0.0
H3777 H 0.42774 0.99077 0.74192 0.0
H3778 H 0.4193 0.99343 0.78528 0.0
H3779 H 0.43874 0.99055 0.80038 0.0
H3780 H 0.94464 0.32841 0.76213 0.0
H3781 H 0.95315 0.35535 0.77145 0.0
H3782 H 0.99773 0.36927 0.75816 0.0
H3783 H 0.98928 0.34239 0.74851 0.0
H3784 H 0.97527 0.37245 0.79596 0.0
H3785 H 0.9899 0.40171 0.73983 0.0
H3786 H 0.97861 0.38088 0.73975 0.0
H3787 H 0.99876 0.39057 0.74387 0.0
C3788 C 0.9562 0.33722 0.76094 0.0
C3789 C 0.96628 0.33321 0.75461 0.0
C3790 C 0.96104 0.35261 0.7663 0.0
C3791 C 0.97603 0.36431 0.76541 0.0
C3792 C 0.98604 0.36046 0.75869 0.0
H3793 H 0.01775 0.45295 0.82545 0.0
H3794 H 0.01234 0.4279 0.81239 0.0
C3795 C 0.98119 0.34506 0.75324 0.0
C3796 C 0.98138 0.38028 0.77264 0.0
H3797 H 0.99693 0.418 0.76428 0.0
C3798 C 0.98001 0.38242 0.78904 0.0
C3799 C 0.98749 0.39323 0.76354 0.0
C3800 C 0.98868 0.39153 0.74574 0.0
C3801 C 0.98448 0.39714 0.79661 0.0
C3802 C 0.9908 0.41013 0.78759 0.0
C3803 C 0.99223 0.40803 0.77119 0.0
C3804 C 0.99508 0.42583 0.79476 0.0
C3805 C 0.98196 0.39857 0.81407 0.0
C3806 C 0.98758 0.4332 0.78879 0.0
C3807 C 0.99075 0.44753 0.79609 0.0
C3808 C 0.00151 0.45479 0.80952 0.0
C3809 C 0.00941 0.44764 0.81514 0.0
C3810 C 0.00624 0.43328 0.80778 0.0
H3811 H 0.97389 0.38715 0.81815 0.0
H3812 H 0.99284 0.40334 0.82159 0.0
H3813 H 0.9776 0.40658 0.81618 0.0
H3814 H 0.97901 0.42769 0.77868 0.0
H3815 H 0.98473 0.4529 0.79124 0.0
H3816 H 0.65377 0.60012 0.68172 0.0
H3817 H 0.63296 0.59065 0.69876 0.0
H3818 H 0.65952 0.63057 0.73322 0.0
H3819 H 0.68051 0.63998 0.71646 0.0
H3820 H 0.64431 0.60341 0.74748 0.0
H3821 H 0.60568 0.60886 0.70293 0.0
H3822 H 0.61283 0.59694 0.69533 0.0
H3823 H 0.62558 0.61731 0.70096 0.0
C3824 C 0.65522 0.60685 0.69297 0.0
C3825 C 0.66875 0.62086 0.69767 0.0
C3826 C 0.64328 0.60147 0.70262 0.0
C3827 C 0.64459 0.6101 0.71706 0.0
C3828 C 0.65825 0.62381 0.72206 0.0
H3829 H 0.58449 0.601 0.79002 0.0
H3830 H 0.60548 0.61038 0.77314 0.0
C3831 C 0.67023 0.62916 0.71246 0.0
C3832 C 0.63172 0.60489 0.72693 0.0
H3833 H 0.59517 0.59641 0.7261 0.0
C3834 C 0.63358 0.60194 0.74284 0.0
C3835 C 0.61776 0.60306 0.72085 0.0
C3836 C 0.61534 0.60684 0.70413 0.0
C3837 C 0.62176 0.59691 0.75274 0.0
C3838 C 0.6078 0.59496 0.74659 0.0
C3839 C 0.60591 0.59792 0.73072 0.0
C3840 C 0.59493 0.58964 0.75643 0.0
C3841 C 0.62417 0.59344 0.7696 0.0
C3842 C 0.58193 0.57508 0.75231 0.0
C3843 C 0.56993 0.56974 0.76186 0.0
C3844 C 0.57069 0.57894 0.77561 0.0
C3845 C 0.58356 0.59372 0.77944 0.0
C3846 C 0.5956 0.59902 0.76992 0.0
H3847 H 0.63445 0.59252 0.77139 0.0
H3848 H 0.62548 0.60294 0.77828 0.0
H3849 H 0.61429 0.58245 0.77242 0.0
H3850 H 0.58119 0.56775 0.74185 0.0
H3851 H 0.56007 0.55838 0.75852 0.0
H3852 H 0.68269 0.6751 0.67617 0.0
H3853 H 0.66846 0.68815 0.671 0.0
H3854 H 0.70802 0.72702 0.65575 0.0
H3855 H 0.72234 0.71401 0.66062 0.0
H3856 H 0.67204 0.71815 0.68046 0.0
H3857 H 0.67693 0.70884 0.61552 0.0
H3858 H 0.68162 0.69938 0.63062 0.0
H3859 H 0.69466 0.71929 0.62773 0.0
C3860 C 0.68848 0.68655 0.672 0.0
C3861 C 0.7036 0.69337 0.66849 0.0
C3862 C 0.68031 0.694 0.6691 0.0
C3863 C 0.68713 0.70838 0.66271 0.0
C3864 C 0.70252 0.71578 0.66043 0.0
H3865 H 0.65512 0.77032 0.64044 0.0
H3866 H 0.6655 0.75656 0.65454 0.0
C3867 C 0.71067 0.70832 0.66323 0.0
C3868 C 0.67785 0.71484 0.65683 0.0
H3869 H 0.66598 0.7239 0.62247 0.0
C3870 C 0.67064 0.71939 0.66779 0.0
C3871 C 0.6758 0.71608 0.64025 0.0
C3872 C 0.68253 0.71051 0.6278 0.0
C3873 C 0.66173 0.72558 0.6626 0.0
C3874 C 0.66019 0.72739 0.64608 0.0
C3875 C 0.66716 0.72251 0.63514 0.0
C3876 C 0.65192 0.73479 0.63968 0.0
C3877 C 0.65394 0.72998 0.67478 0.0
C3878 C 0.6407 0.72709 0.62676 0.0
C3879 C 0.63501 0.73503 0.61843 0.0
C3880 C 0.64042 0.75084 0.62289 0.0
C3881 C 0.65089 0.75821 0.63655 0.0
C3882 C 0.65668 0.75029 0.64478 0.0
H3883 H 0.65235 0.72356 0.68559 0.0
H3884 H 0.66099 0.74257 0.67872 0.0
H3885 H 0.64277 0.72764 0.66956 0.0
H3886 H 0.63692 0.71514 0.62257 0.0
H3887 H 0.62711 0.72902 0.60787 0.0
H3888 H 0.31729 0.98016 0.66995 0.0
H3889 H 0.29957 0.95219 0.6643 0.0
H3890 H 0.27524 0.96107 0.6268 0.0
H3891 H 0.29248 0.98886 0.63265 0.0
H3892 H 0.25637 0.93982 0.64468 0.0
H3893 H 0.29875 0.92459 0.6267 0.0
H3894 H 0.30271 0.93409 0.64668 0.0
H3895 H 0.30294 0.9444 0.62969 0.0
C3896 C 0.30813 0.97614 0.66055 0.0
C3897 C 0.30636 0.98678 0.65173 0.0
C3898 C 0.29809 0.96015 0.65724 0.0
C3899 C 0.28625 0.95451 0.64491 0.0
C3900 C 0.28432 0.96513 0.63634 0.0
H3901 H 0.23347 0.86511 0.59053 0.0
H3902 H 0.25257 0.89152 0.6016 0.0
C3903 C 0.29421 0.98106 0.63972 0.0
C3904 C 0.27571 0.93761 0.64082 0.0
H3905 H 0.27377 0.9038 0.62707 0.0
C3906 C 0.26018 0.93193 0.6409 0.0
C3907 C 0.28069 0.92736 0.63569 0.0
C3908 C 0.29716 0.9329 0.63452 0.0
C3909 C 0.24949 0.91639 0.63573 0.0
C3910 C 0.25446 0.90608 0.63084 0.0
C3911 C 0.26999 0.91168 0.63096 0.0
C3912 C 0.24367 0.88965 0.62474 0.0
C3913 C 0.23297 0.91139 0.63494 0.0
C3914 C 0.23262 0.87967 0.63421 0.0
C3915 C 0.22162 0.86469 0.62784 0.0
C3916 C 0.22166 0.85929 0.61198 0.0
C3917 C 0.23321 0.86898 0.6028 0.0
C3918 C 0.2441 0.88405 0.60911 0.0
H3919 H 0.23122 0.92147 0.63488 0.0
H3920 H 0.22662 0.90333 0.62402 0.0
H3921 H 0.22814 0.9053 0.64566 0.0
H3922 H 0.23233 0.88357 0.64645 0.0
H3923 H 0.21297 0.85734 0.63525 0.0
H3924 H 0.02765 0.34096 0.73519 0.0
H3925 H 0.0493 0.35208 0.71933 0.0
H3926 H 0.02493 0.31372 0.68261 0.0
H3927 H 0.00314 0.30265 0.69823 0.0
H3928 H 0.06569 0.33879 0.71028 0.0
H3929 H 0.04099 0.35084 0.6564 0.0
H3930 H 0.03216 0.34671 0.67495 0.0
H3931 H 0.03001 0.33114 0.66113 0.0
C3932 C 0.02683 0.33496 0.72366 0.0
C3933 C 0.01366 0.32092 0.71796 0.0
C3934 C 0.03921 0.34134 0.71462 0.0
C3935 C 0.03864 0.33385 0.6997 0.0
C3936 C 0.02549 0.31989 0.69392 0.0
H3937 H 0.09932 0.33911 0.63148 0.0
H3938 H 0.07827 0.333 0.64754 0.0
C3939 C 0.01308 0.31352 0.70292 0.0
C3940 C 0.05211 0.34011 0.69062 0.0
H3941 H 0.06422 0.35128 0.65392 0.0
C3942 C 0.06545 0.34172 0.69803 0.0
C3943 C 0.05174 0.34394 0.67465 0.0
C3944 C 0.038 0.34322 0.66636 0.0
C3945 C 0.07826 0.34649 0.68968 0.0
C3946 C 0.07774 0.34989 0.67358 0.0
C3947 C 0.06453 0.34862 0.66628 0.0
C3948 C 0.09052 0.35396 0.66383 0.0
C3949 C 0.09207 0.34729 0.69791 0.0
C3950 C 0.10432 0.36787 0.66761 0.0
C3951 C 0.11642 0.37137 0.65849 0.0
C3952 C 0.11488 0.36099 0.64549 0.0
C3953 C 0.10094 0.34719 0.64162 0.0
C3954 C 0.08887 0.34374 0.65068 0.0
H3955 H 0.0897 0.34161 0.70927 0.0
H3956 H 0.09653 0.34166 0.68986 0.0
H3957 H 0.10101 0.35963 0.70082 0.0
H3958 H 0.10573 0.37598 0.67762 0.0
H3959 H 0.12703 0.38207 0.66175 0.0
H3960 H 0.28156 0.29215 0.6685 0.0
H3961 H 0.26898 0.30164 0.65067 0.0
H3962 H 0.29629 0.34773 0.67501 0.0
H3963 H 0.30899 0.33843 0.69276 0.0
H3964 H 0.25241 0.3148 0.66122 0.0
H3965 H 0.29881 0.35571 0.62746 0.0
H3966 H 0.29986 0.34112 0.63829 0.0
H3967 H 0.30341 0.35895 0.64887 0.0
C3968 C 0.28505 0.30435 0.66991 0.0
C3969 C 0.29625 0.31452 0.6821 0.0
C3970 C 0.27785 0.30975 0.6597 0.0
C3971 C 0.28183 0.32542 0.6614 0.0
C3972 C 0.29326 0.33566 0.67327 0.0
H3973 H 0.22939 0.36779 0.63922 0.0
H3974 H 0.2454 0.3587 0.6512 0.0
C3975 C 0.30043 0.33028 0.6835 0.0
C3976 C 0.27313 0.33079 0.65178 0.0
H3977 H 0.27661 0.35779 0.62647 0.0
C3978 C 0.25767 0.32408 0.65349 0.0
C3979 C 0.28 0.34284 0.64163 0.0
C3980 C 0.29641 0.34999 0.6388 0.0
C3981 C 0.24901 0.32946 0.64575 0.0
C3982 C 0.25602 0.34196 0.63618 0.0
C3983 C 0.27134 0.34833 0.63398 0.0
C3984 C 0.24756 0.34867 0.62866 0.0
C3985 C 0.23243 0.32183 0.64794 0.0
C3986 C 0.24388 0.34641 0.61197 0.0
C3987 C 0.23476 0.35162 0.60507 0.0
C3988 C 0.22932 0.35931 0.61476 0.0
C3989 C 0.23354 0.36207 0.63141 0.0
C3990 C 0.24258 0.35678 0.6383 0.0
H3991 H 0.22813 0.31041 0.65284 0.0
H3992 H 0.23056 0.32946 0.65647 0.0
H3993 H 0.22575 0.32011 0.63634 0.0
H3994 H 0.2477 0.34021 0.60435 0.0
H3995 H 0.23179 0.34945 0.59218 0.0
H3996 H 0.67567 0.98813 0.6477 0.0
H3997 H 0.66262 0.96011 0.64029 0.0
H3998 H 0.70237 0.96498 0.62058 0.0
H3999 H 0.71558 0.99297 0.62798 0.0
H4000 H 0.6576 0.94667 0.60833 0.0
H4001 H 0.68932 0.92801 0.64788 0.0
H4002 H 0.69001 0.9463 0.65186 0.0
H4003 H 0.70107 0.94424 0.63711 0.0
C4004 C 0.68175 0.98324 0.64204 0.0
C4005 C 0.69668 0.99285 0.63838 0.0
C4006 C 0.67425 0.96722 0.6378 0.0
C4007 C 0.68157 0.96049 0.63001 0.0
C4008 C 0.6966 0.96993 0.62682 0.0
H4009 H 0.65031 0.87894 0.56535 0.0
H4010 H 0.65953 0.90502 0.57853 0.0
C4011 C 0.7041 0.98595 0.63099 0.0
C4012 C 0.67316 0.94383 0.624 0.0
H4013 H 0.67353 0.91003 0.62553 0.0
C4014 C 0.66095 0.9386 0.61222 0.0
C4015 C 0.6775 0.93333 0.6292 0.0
C4016 C 0.6901 0.93818 0.64232 0.0
C4017 C 0.65333 0.92325 0.60503 0.0
C4018 C 0.65814 0.91296 0.60968 0.0
C4019 C 0.66995 0.91801 0.62192 0.0
C4020 C 0.65155 0.89713 0.60148 0.0
C4021 C 0.64028 0.91819 0.59242 0.0
C4022 C 0.64404 0.88411 0.61005 0.0
C4023 C 0.63876 0.86921 0.60255 0.0
C4024 C 0.64108 0.86714 0.58641 0.0
C4025 C 0.64839 0.88021 0.5778 0.0
C4026 C 0.65357 0.89508 0.58527 0.0
H4027 H 0.63559 0.92604 0.59316 0.0
H4028 H 0.64421 0.91839 0.58032 0.0
H4029 H 0.63112 0.90616 0.59367 0.0
H4030 H 0.64248 0.8855 0.6226 0.0
H4031 H 0.63337 0.85936 0.60954 0.0
H4032 H 0.01376 0.69275 0.71872 0.0
H4033 H 0.03562 0.70063 0.70348 0.0
H4034 H 0.01795 0.72 0.66987 0.0
H4035 H 0.99597 0.71216 0.68505 0.0
H4036 H 0.03543 0.69214 0.66951 0.0
H4037 H 0.06199 0.75573 0.6856 0.0
H4038 H 0.0479 0.74152 0.69695 0.0
H4039 H 0.04238 0.74579 0.67807 0.0
C4040 C 0.01451 0.69873 0.70811 0.0
C4041 C 0.00316 0.70191 0.70313 0.0
C4042 C 0.027 0.70318 0.69942 0.0
C4043 C 0.02842 0.71101 0.68569 0.0
C4044 C 0.0171 0.71412 0.68058 0.0
H4045 H 0.08411 0.72953 0.60815 0.0
H4046 H 0.06382 0.71902 0.62585 0.0
C4047 C 0.00454 0.70959 0.68923 0.0
C4048 C 0.04173 0.7158 0.67662 0.0
H4049 H 0.07275 0.74766 0.66567 0.0
C4050 C 0.04365 0.70427 0.66871 0.0
C4051 C 0.05249 0.73162 0.67584 0.0
C4052 C 0.05123 0.74443 0.68466 0.0
C4053 C 0.05588 0.70818 0.65959 0.0
C4054 C 0.06635 0.72401 0.65835 0.0
C4055 C 0.06466 0.73553 0.66664 0.0
C4056 C 0.07872 0.72892 0.64786 0.0
C4057 C 0.05752 0.69539 0.65134 0.0
C4058 C 0.09381 0.7379 0.65441 0.0
C4059 C 0.10542 0.74391 0.64431 0.0
C4060 C 0.10207 0.74121 0.62753 0.0
C4061 C 0.08698 0.73183 0.62104 0.0
C4062 C 0.0754 0.72574 0.63113 0.0
H4063 H 0.05089 0.68423 0.65665 0.0
H4064 H 0.05335 0.6936 0.63844 0.0
H4065 H 0.06954 0.69855 0.65209 0.0
H4066 H 0.09655 0.74055 0.6673 0.0
H4067 H 0.11695 0.75124 0.6496 0.0
H4068 H 0.93546 0.6257 0.7405 0.0
H4069 H 0.94533 0.60846 0.74501 0.0
H4070 H 0.9826 0.63568 0.71762 0.0
H4071 H 0.97303 0.65325 0.71331 0.0
H4072 H 0.9538 0.59047 0.72602 0.0
H4073 H 0.0029 0.64036 0.76268 0.0
H4074 H 0.98642 0.64107 0.75568 0.0
H4075 H -5e-05 0.64297 0.74201 0.0
C4076 C 0.94561 0.6279 0.73517 0.0
C4077 C 0.95362 0.64105 0.72683 0.0
C4078 C 0.95121 0.61799 0.73772 0.0
C4079 C 0.96484 0.621 0.73192 0.0
C4080 C 0.97221 0.63336 0.72246 0.0
H4081 H 0.00016 0.56057 0.76141 0.0
H4082 H 0.99361 0.57542 0.74353 0.0
C4083 C 0.96669 0.64336 0.72 0.0
C4084 C 0.97202 0.61225 0.7374 0.0
H4085 H 0.00068 0.616 0.7633 0.0
C4086 C 0.96421 0.59604 0.73391 0.0
C4087 C 0.98556 0.61961 0.7478 0.0
C4088 C 0.99419 0.63693 0.7524 0.0
C4089 C 0.96922 0.58692 0.74117 0.0
C4090 C 0.98239 0.59426 0.75205 0.0
C4091 C 0.99062 0.61049 0.75487 0.0
C4092 C 0.9866 0.58533 0.76243 0.0
C4093 C 0.95994 0.56947 0.73796 0.0
C4094 C 0.98502 0.58624 0.77892 0.0
C4095 C 0.98877 0.57791 0.78907 0.0
C4096 C 0.99422 0.5685 0.78295 0.0
C4097 C 0.99602 0.56777 0.76644 0.0
C4098 C 0.99219 0.57612 0.75622 0.0
H4099 H 0.9493 0.56555 0.73024 0.0
H4100 H 0.96661 0.56515 0.73188 0.0
H4101 H 0.95713 0.56413 0.74948 0.0
H4102 H 0.98079 0.59337 0.78392 0.0
H4103 H 0.98752 0.57892 0.80178 0.0
H4104 H 0.3477 0.36214 0.73611 0.0
H4105 H 0.36451 0.38997 0.74412 0.0
H4106 H 0.40004 0.38146 0.7597 0.0
H4107 H 0.38337 0.35368 0.75193 0.0
H4108 H 0.37975 0.40164 0.77824 0.0
H4109 H 0.41895 0.41913 0.73044 0.0
H4110 H 0.4 0.40256 0.72744 0.0
H4111 H 0.41461 0.40128 0.73867 0.0
C4112 C 0.35917 0.36622 0.741 0.0
C4113 C 0.3642 0.35569 0.74343 0.0
C4114 C 0.36872 0.3821 0.7456 0.0
C4115 C 0.38349 0.3877 0.75239 0.0
C4116 C 0.3887 0.37733 0.75433 0.0
H4117 H 0.46194 0.46765 0.79695 0.0
H4118 H 0.44228 0.44303 0.78306 0.0
C4119 C 0.37914 0.36146 0.74993 0.0
C4120 C 0.39322 0.40419 0.75866 0.0
H4121 H 0.4266 0.43673 0.75401 0.0
C4122 C 0.38988 0.40946 0.77286 0.0
C4123 C 0.4064 0.41421 0.75157 0.0
C4124 C 0.41022 0.40911 0.73611 0.0
C4125 C 0.39986 0.4243 0.78068 0.0
C4126 C 0.41332 0.43422 0.77384 0.0
C4127 C 0.4163 0.42912 0.75925 0.0
C4128 C 0.42507 0.44938 0.78226 0.0
C4129 C 0.3963 0.42886 0.79663 0.0
C4130 C 0.42198 0.46123 0.78637 0.0
C4131 C 0.43318 0.47529 0.79467 0.0
C4132 C 0.44771 0.4778 0.79885 0.0
C4133 C 0.45079 0.466 0.79435 0.0
C4134 C 0.4396 0.45196 0.78621 0.0
H4135 H 0.3874 0.41866 0.80192 0.0
H4136 H 0.40652 0.43476 0.80537 0.0
H4137 H 0.39217 0.43704 0.79486 0.0
H4138 H 0.41093 0.45963 0.78315 0.0
H4139 H 0.4304 0.48411 0.79794 0.0
H4140 H 0.65987 0.01544 0.68086 0.0
H4141 H 0.63909 0.00887 0.69748 0.0
H4142 H 0.66284 0.05547 0.72111 0.0
H4143 H 0.68368 0.06222 0.70446 0.0
H4144 H 0.63913 0.01071 0.73157 0.0
H4145 H 0.62136 0.0488 0.70373 0.0
H4146 H 0.6338 0.04343 0.69469 0.0
H4147 H 0.64093 0.0583 0.71124 0.0
C4148 C 0.66072 0.0243 0.68962 0.0
C4149 C 0.67338 0.0394 0.69125 0.0
C4150 C 0.64884 0.02051 0.69911 0.0
C4151 C 0.64936 0.03176 0.71031 0.0
C4152 C 0.66214 0.04671 0.71231 0.0
H4153 H 0.59311 0.01954 0.78741 0.0
H4154 H 0.61366 0.02447 0.77096 0.0
C4155 C 0.67405 0.05052 0.70284 0.0
C4156 C 0.63645 0.02786 0.71979 0.0
H4157 H 0.60928 0.0369 0.72646 0.0
C4158 C 0.63257 0.0164 0.73046 0.0
C4159 C 0.6278 0.03515 0.71808 0.0
C4160 C 0.63105 0.04701 0.70622 0.0
C4161 C 0.62042 0.01225 0.73975 0.0
C4162 C 0.61208 0.01991 0.73842 0.0
C4163 C 0.61578 0.03114 0.72751 0.0
C4164 C 0.59957 0.01657 0.74836 0.0
C4165 C 0.61649 -0.0004 0.75077 0.0
C4166 C 0.58491 0.01076 0.74105 0.0
C4167 C 0.57317 0.00807 0.7504 0.0
C4168 C 0.57594 0.01129 0.76722 0.0
C4169 C 0.59066 0.0171 0.77448 0.0
C4170 C 0.60237 0.01975 0.76512 0.0
H4171 H 0.62135 0.99226 0.74738 0.0
H4172 H 0.62112 0.00496 0.76326 0.0
H4173 H 0.60407 0.99205 0.75063 0.0
H4174 H 0.58258 0.00835 0.7281 0.0
H4175 H 0.56198 0.00375 0.74447 0.0
loop_
_geom_bond_atom_site_label_1
_geom_bond_atom_site_label_2
_geom_bond_distance
_geom_bond_site_symmetry_2
_ccdc_geom_bond_type
Mg0 O1 2.028 . S
Mg0 O7 1.986 1_455 S
Mg0 O9 2.114 . S
Mg0 O10 2.251 1_554 S
Mg0 O13 2.010 . S
O1 Mg0 2.028 . S
O1 C4 1.250 . S
O2 Mg3 2.028 . S
O2 C4 1.248 1_655 S
Mg3 O2 2.028 . S
Mg3 O8 2.032 . S
Mg3 O10 2.079 1_654 S
C4 O1 1.250 . S
C4 O2 1.248 1_455 S
C5 O6 1.264 . S
C5 O13 1.249 . S
O6 C5 1.264 . S
O7 Mg0 1.986 1_655 S
O7 C11 1.246 . S
O8 Mg3 2.032 . S
O8 C11 1.259 . S
O9 Mg0 2.114 . S
O9 C12 1.252 1_554 S
O10 Mg0 2.251 1_556 S
O10 Mg3 2.079 1_456 S
O10 C12 1.273 . S
C11 O7 1.246 . S
C11 O8 1.259 . S
C12 O9 1.252 1_556 S
C12 O10 1.273 . S
O13 Mg0 2.010 . S
O13 C5 1.249 . S
Mg14 O15 2.028 . S
Mg14 O21 1.986 . S
Mg14 O23 2.114 . S
Mg14 O24 2.251 . S
Mg14 O27 2.010 . S
O15 Mg14 2.028 . S
O15 C18 1.250 . S
O16 Mg17 2.028 . S
O16 C18 1.248 . S
Mg17 O16 2.028 . S
Mg17 O22 2.032 . S
Mg17 O24 2.079 . S
C18 O15 1.250 . S
C18 O16 1.248 . S
C19 O20 1.264 . S
C19 O27 1.249 . S
O20 C19 1.264 . S
O21 Mg14 1.986 . S
O21 C25 1.246 . S
O22 Mg17 2.032 . S
O22 C25 1.259 . S
O23 Mg14 2.114 . S
O23 C26 1.252 . S
O24 Mg14 2.251 . S
O24 Mg17 2.079 . S
O24 C26 1.273 . S
C25 O21 1.246 . S
C25 O22 1.259 . S
C26 O23 1.252 . S
C26 O24 1.273 . S
O27 Mg14 2.010 . S
O27 C19 1.249 . S
Mg28 O29 2.028 1_565 S
Mg28 O35 1.986 1_565 S
Mg28 O37 2.114 . S
Mg28 O38 2.267 1_565 S
Mg28 O41 2.010 . S
O29 Mg28 2.028 1_545 S
O29 C32 1.250 . S
O30 Mg31 2.028 . S
O30 C32 1.248 . S
Mg31 O30 2.028 . S
Mg31 O36 2.032 . S
Mg31 O38 2.086 . S
C32 O29 1.250 . S
C32 O30 1.248 . S
C33 O34 1.264 . S
C33 O41 1.249 . S
O34 C33 1.264 . S
O35 Mg28 1.986 1_545 S
O35 C39 1.246 . S
O36 Mg31 2.032 . S
O36 C39 1.259 . S
O37 Mg28 2.114 . S
O37 C40 1.252 1_554 S
O38 Mg28 2.267 1_545 S
O38 Mg31 2.086 . S
O38 C40 1.271 1_544 S
C39 O35 1.246 . S
C39 O36 1.259 . S
C40 O37 1.252 1_556 S
C40 O38 1.271 1_566 S
O41 Mg28 2.010 . S
O41 C33 1.249 . S
Mg42 O43 2.018 1_655 S
Mg42 O49 1.986 1_655 S
Mg42 O51 2.114 . S
Mg42 O52 2.251 1_655 S
Mg42 O55 2.010 . S
O43 Mg42 2.018 1_455 S
O43 C46 1.272 . S
O44 Mg45 2.028 . S
O44 C46 1.248 . S
Mg45 O44 2.028 . S
Mg45 O50 2.032 . S
Mg45 O52 2.079 . S
C46 O43 1.272 . S
C46 O44 1.248 . S
C47 O48 1.264 . S
C47 O55 1.249 . S
O48 C47 1.264 . S
O49 Mg42 1.986 1_455 S
O49 C53 1.246 . S
O50 Mg45 2.032 . S
O50 C53 1.259 . S
O51 Mg42 2.114 . S
O51 C54 1.252 . S
O52 Mg42 2.251 1_455 S
O52 Mg45 2.079 . S
O52 C54 1.273 1_455 S
C53 O49 1.246 . S
C53 O50 1.259 . S
C54 O51 1.252 . S
C54 O52 1.273 1_655 S
O55 Mg42 2.010 . S
O55 C47 1.249 . S
Mg56 O57 2.028 1_556 S
Mg56 O63 1.986 . S
Mg56 O65 2.114 . S
Mg56 O66 2.251 . S
Mg56 O69 2.010 1_556 S
O57 Mg56 2.028 1_554 S
O57 C60 1.250 . S
O58 Mg59 2.028 1_554 S
O58 C60 1.248 . S
Mg59 O58 2.028 1_556 S
Mg59 O64 2.032 . S
Mg59 O66 2.079 . S
C60 O57 1.250 . S
C60 O58 1.248 . S
C61 O62 1.264 . S
C61 O69 1.249 . S
O62 C61 1.264 . S
O63 Mg56 1.986 . S
O63 C67 1.246 . S
O64 Mg59 2.032 . S
O64 C67 1.259 . S
O65 Mg56 2.114 . S
O65 C68 1.252 . S
O66 Mg56 2.251 . S
O66 Mg59 2.079 . S
O66 C68 1.273 . S
C67 O63 1.246 . S
C67 O64 1.259 . S
C68 O65 1.252 . S
C68 O66 1.273 . S
O69 Mg56 2.010 1_554 S
O69 C61 1.249 . S
Mg70 O71 2.028 . S
Mg70 O77 2.053 . S
Mg70 O79 2.114 . S
Mg70 O80 2.251 . S
Mg70 O83 2.010 . S
O71 Mg70 2.028 . S
O71 C74 1.250 . S
O72 Mg73 2.028 . S
O72 C74 1.248 1_565 S
Mg73 O72 2.028 . S
Mg73 O78 2.032 . S
Mg73 O80 2.079 1_565 S
C74 O71 1.250 . S
C74 O72 1.248 1_545 S
C75 O76 1.264 . S
C75 O83 1.249 . S
O76 C75 1.264 . S
O77 Mg70 2.053 . S
O77 C81 1.197 1_545 S
O78 Mg73 2.032 . S
O78 C81 1.259 . S
O79 Mg70 2.114 . S
O79 C82 1.252 . S
O80 Mg70 2.251 . S
O80 Mg73 2.079 1_545 S
O80 C82 1.273 . S
C81 O77 1.197 1_565 S
C81 O78 1.259 . S
C82 O79 1.252 . S
C82 O80 1.273 . S
O83 Mg70 2.010 . S
O83 C75 1.249 . S
Mg84 O85 2.028 . S
Mg84 O91 1.986 . S
Mg84 O93 2.114 . S
Mg84 O94 2.251 . S
Mg84 O97 2.010 . S
O85 Mg84 2.028 . S
O85 C88 1.250 . S
O86 Mg87 2.028 . S
O86 C88 1.248 . S
Mg87 O86 2.028 . S
Mg87 O92 2.032 . S
Mg87 O94 2.079 . S
C88 O85 1.250 . S
C88 O86 1.248 . S
C89 O90 1.264 . S
C89 O97 1.249 . S
O90 C89 1.264 . S
O91 Mg84 1.986 . S
O91 C95 1.246 . S
O92 Mg87 2.032 . S
O92 C95 1.259 . S
O93 Mg84 2.114 . S
O93 C96 1.252 . S
O94 Mg84 2.251 . S
O94 Mg87 2.079 . S
O94 C96 1.273 . S
C95 O91 1.246 . S
C95 O92 1.259 . S
C96 O93 1.252 . S
C96 O94 1.273 . S
O97 Mg84 2.010 . S
O97 C89 1.249 . S
Mg98 O99 2.028 . S
Mg98 O105 1.986 . S
Mg98 O107 2.114 . S
Mg98 O108 2.251 . S
Mg98 O111 2.010 . S
O99 Mg98 2.028 . S
O99 C102 1.250 . S
O100 Mg101 2.028 . S
O100 C102 1.248 . S
Mg101 O100 2.028 . S
Mg101 O106 2.032 . S
Mg101 O108 2.079 . S
C102 O99 1.250 . S
C102 O100 1.248 . S
C103 O104 1.264 . S
C103 O111 1.249 . S
O104 C103 1.264 . S
O105 Mg98 1.986 . S
O105 C109 1.246 . S
O106 Mg101 2.032 . S
O106 C109 1.259 . S
O107 Mg98 2.114 . S
O107 C110 1.252 . S
O108 Mg98 2.251 . S
O108 Mg101 2.079 . S
O108 C110 1.273 . S
C109 O105 1.246 . S
C109 O106 1.259 . S
C110 O107 1.252 . S
C110 O108 1.273 . S
O111 Mg98 2.010 . S
O111 C103 1.249 . S
Mg112 O113 2.028 . S
Mg112 O119 1.986 . S
Mg112 O121 2.114 . S
Mg112 O122 2.251 . S
Mg112 O125 2.010 . S
O113 Mg112 2.028 . S
O113 C116 1.250 . S
O114 Mg115 2.028 . S
O114 C116 1.248 . S
Mg115 O114 2.028 . S
Mg115 O120 2.032 . S
Mg115 O122 2.079 . S
C116 O113 1.250 . S
C116 O114 1.248 . S
C117 O118 1.264 1_455 S
C117 O125 1.249 . S
O118 C117 1.264 1_655 S
O119 Mg112 1.986 . S
O119 C123 1.246 . S
O120 Mg115 2.032 . S
O120 C123 1.259 . S
O121 Mg112 2.114 . S
O121 C124 1.252 . S
O122 Mg112 2.251 . S
O122 Mg115 2.079 . S
O122 C124 1.273 . S
C123 O119 1.246 . S
C123 O120 1.259 . S
C124 O121 1.252 . S
C124 O122 1.273 . S
O125 Mg112 2.010 . S
O125 C117 1.249 . S
Mg126 O127 2.028 . S
Mg126 O133 1.986 . S
Mg126 O135 2.114 . S
Mg126 O136 2.251 . S
Mg126 O139 2.010 . S
O127 Mg126 2.028 . S
O127 C130 1.250 . S
O128 Mg129 2.028 . S
O128 C130 1.248 . S
Mg129 O128 2.028 . S
Mg129 O134 2.032 . S
Mg129 O136 2.079 . S
C130 O127 1.250 . S
C130 O128 1.248 . S
C131 O132 1.264 . S
C131 O139 1.249 . S
O132 C131 1.264 . S
O133 Mg126 1.986 . S
O133 C137 1.246 . S
O134 Mg129 2.032 . S
O134 C137 1.259 . S
O135 Mg126 2.114 . S
O135 C138 1.252 . S
O136 Mg126 2.251 . S
O136 Mg129 2.079 . S
O136 C138 1.273 . S
C137 O133 1.246 . S
C137 O134 1.259 . S
C138 O135 1.252 . S
C138 O136 1.273 . S
O139 Mg126 2.010 . S
O139 C131 1.249 . S
Mg140 O141 2.028 . S
Mg140 O147 1.986 . S
Mg140 O149 2.114 . S
Mg140 O150 2.251 . S
Mg140 O153 2.010 . S
O141 Mg140 2.028 . S
O141 C144 1.250 . S
O142 Mg143 2.028 . S
O142 C144 1.248 . S
Mg143 O142 2.028 . S
Mg143 O148 2.032 . S
Mg143 O150 2.079 . S
C144 O141 1.250 . S
C144 O142 1.248 . S
C145 O146 1.264 1_455 S
C145 O153 1.249 . S
O146 C145 1.264 1_655 S
O147 Mg140 1.986 . S
O147 C151 1.246 . S
O148 Mg143 2.032 . S
O148 C151 1.259 . S
O149 Mg140 2.114 . S
O149 C152 1.252 . S
O150 Mg140 2.251 . S
O150 Mg143 2.079 . S
O150 C152 1.273 . S
C151 O147 1.246 . S
C151 O148 1.259 . S
C152 O149 1.252 . S
C152 O150 1.273 . S
O153 Mg140 2.010 . S
O153 C145 1.249 . S
Mg154 O155 2.028 . S
Mg154 O161 1.986 . S
Mg154 O163 2.114 . S
Mg154 O164 2.251 . S
Mg154 O167 2.010 . S
O155 Mg154 2.028 . S
O155 C158 1.250 . S
O156 Mg157 2.028 . S
O156 C158 1.248 . S
Mg157 O156 2.028 . S
Mg157 O162 2.032 . S
Mg157 O164 2.079 . S
C158 O155 1.250 . S
C158 O156 1.248 . S
C159 O160 1.264 . S
C159 O167 1.249 . S
O160 C159 1.264 . S
O161 Mg154 1.986 . S
O161 C165 1.246 . S
O162 Mg157 2.032 . S
O162 C165 1.259 . S
O163 Mg154 2.114 . S
O163 C166 1.252 . S
O164 Mg154 2.251 . S
O164 Mg157 2.079 . S
O164 C166 1.273 . S
C165 O161 1.246 . S
C165 O162 1.259 . S
C166 O163 1.252 . S
C166 O164 1.273 . S
O167 Mg154 2.010 . S
O167 C159 1.249 . S
Mg168 O169 2.028 . S
Mg168 O175 1.986 . S
Mg168 O177 2.114 . S
Mg168 O178 2.251 . S
Mg168 O181 2.010 . S
O169 Mg168 2.028 . S
O169 C172 1.250 . S
O170 Mg171 2.028 . S
O170 C172 1.248 . S
Mg171 O170 2.028 . S
Mg171 O176 2.032 . S
Mg171 O178 2.079 . S
C172 O169 1.250 . S
C172 O170 1.248 . S
C173 O174 1.264 . S
C173 O181 1.249 . S
O174 C173 1.264 . S
O175 Mg168 1.986 . S
O175 C179 1.246 . S
O176 Mg171 2.032 . S
O176 C179 1.259 . S
O177 Mg168 2.114 . S
O177 C180 1.252 . S
O178 Mg168 2.251 . S
O178 Mg171 2.079 . S
O178 C180 1.273 . S
C179 O175 1.246 . S
C179 O176 1.259 . S
C180 O177 1.252 . S
C180 O178 1.273 . S
O181 Mg168 2.010 . S
O181 C173 1.249 . S
Mg182 O183 2.028 . S
Mg182 O189 1.986 . S
Mg182 O191 2.114 . S
Mg182 O192 2.251 . S
Mg182 O195 2.010 . S
O183 Mg182 2.028 . S
O183 C186 1.250 . S
O184 Mg185 2.028 . S
O184 C186 1.248 . S
Mg185 O184 2.028 . S
Mg185 O190 2.032 . S
Mg185 O192 2.079 . S
C186 O183 1.250 . S
C186 O184 1.248 . S
C187 O188 1.264 . S
C187 O195 1.249 1_455 S
O188 C187 1.264 . S
O189 Mg182 1.986 . S
O189 C193 1.246 . S
O190 Mg185 2.032 . S
O190 C193 1.259 . S
O191 Mg182 2.114 . S
O191 C194 1.252 . S
O192 Mg182 2.251 . S
O192 Mg185 2.079 . S
O192 C194 1.273 . S
C193 O189 1.246 . S
C193 O190 1.259 . S
C194 O191 1.252 . S
C194 O192 1.273 . S
O195 Mg182 2.010 . S
O195 C187 1.249 1_655 S
Mg196 O197 2.028 . S
Mg196 O203 1.986 . S
Mg196 O205 2.114 . S
Mg196 O206 2.251 . S
Mg196 O209 2.010 . S
O197 Mg196 2.028 . S
O197 C200 1.250 . S
O198 Mg199 2.028 . S
O198 C200 1.248 . S
Mg199 O198 2.028 . S
Mg199 O204 2.032 . S
Mg199 O206 2.079 . S
C200 O197 1.250 . S
C200 O198 1.248 . S
C201 O202 1.264 . S
C201 O209 1.249 . S
O202 C201 1.264 . S
O203 Mg196 1.986 . S
O203 C207 1.246 . S
O204 Mg199 2.032 . S
O204 C207 1.259 . S
O205 Mg196 2.114 . S
O205 C208 1.252 . S
O206 Mg196 2.251 . S
O206 Mg199 2.079 . S
O206 C208 1.273 . S
C207 O203 1.246 . S
C207 O204 1.259 . S
C208 O205 1.252 . S
C208 O206 1.273 . S
O209 Mg196 2.010 . S
O209 C201 1.249 . S
Mg210 O211 2.028 . S
Mg210 O217 1.986 . S
Mg210 O219 2.114 . S
Mg210 O220 2.251 . S
Mg210 O223 2.010 . S
O211 Mg210 2.028 . S
O211 C214 1.250 . S
O212 Mg213 2.028 . S
O212 C214 1.248 . S
Mg213 O212 2.028 . S
Mg213 O218 2.032 . S
Mg213 O220 2.079 . S
C214 O211 1.250 . S
C214 O212 1.248 . S
C215 O216 1.264 . S
C215 O223 1.249 . S
O216 C215 1.264 . S
O217 Mg210 1.986 . S
O217 C221 1.246 . S
O218 Mg213 2.032 . S
O218 C221 1.259 . S
O219 Mg210 2.114 . S
O219 C222 1.252 . S
O220 Mg210 2.251 . S
O220 Mg213 2.079 . S
O220 C222 1.273 . S
C221 O217 1.246 . S
C221 O218 1.259 . S
C222 O219 1.252 . S
C222 O220 1.273 . S
O223 Mg210 2.010 . S
O223 C215 1.249 . S
Mg224 O225 2.028 . S
Mg224 O231 1.986 . S
Mg224 O233 2.114 . S
Mg224 O234 2.251 . S
Mg224 O237 2.010 . S
O225 Mg224 2.028 . S
O225 C228 1.250 . S
O226 Mg227 2.028 . S
O226 C228 1.248 . S
Mg227 O226 2.028 . S
Mg227 O232 2.032 . S
Mg227 O234 2.079 . S
C228 O225 1.250 . S
C228 O226 1.248 . S
C229 O230 1.264 . S
C229 O237 1.249 . S
O230 C229 1.264 . S
O231 Mg224 1.986 . S
O231 C235 1.246 . S
O232 Mg227 2.032 . S
O232 C235 1.259 . S
O233 Mg224 2.114 . S
O233 C236 1.252 . S
O234 Mg224 2.251 . S
O234 Mg227 2.079 . S
O234 C236 1.273 . S
C235 O231 1.246 . S
C235 O232 1.259 . S
C236 O233 1.252 . S
C236 O234 1.273 . S
O237 Mg224 2.010 . S
O237 C229 1.249 . S
Mg238 O239 2.028 . S
Mg238 O245 1.986 . S
Mg238 O247 2.114 . S
Mg238 O248 2.251 . S
Mg238 O251 2.010 . S
O239 Mg238 2.028 . S
O239 C242 1.250 . S
O240 Mg241 2.028 . S
O240 C242 1.248 . S
Mg241 O240 2.028 . S
Mg241 O246 2.032 . S
Mg241 O248 2.079 . S
C242 O239 1.250 . S
C242 O240 1.248 . S
C243 O244 1.280 . S
C243 O251 1.237 1_455 S
O244 C243 1.280 . S
O245 Mg238 1.986 . S
O245 C249 1.246 . S
O246 Mg241 2.032 . S
O246 C249 1.259 . S
O247 Mg238 2.114 . S
O247 C250 1.252 . S
O248 Mg238 2.251 . S
O248 Mg241 2.079 . S
O248 C250 1.273 . S
C249 O245 1.246 . S
C249 O246 1.259 . S
C250 O247 1.252 . S
C250 O248 1.273 . S
O251 Mg238 2.010 . S
O251 C243 1.237 1_655 S
H252 O278 0.856 . S
H253 O281 0.854 . S
H254 C289 0.930 . S
H255 C290 0.930 . S
H256 C292 0.930 . S
H257 C293 0.930 . S
H258 C295 0.931 . S
H259 C296 0.930 . S
H260 C298 0.930 . S
H261 C299 0.929 . S
H262 C301 0.930 . S
H263 C302 0.931 . S
H264 C304 0.930 . S
H265 C305 0.929 . S
H266 C307 0.931 . S
H267 C308 0.930 . S
H268 C310 0.930 . S
H269 C311 0.932 . S
H270 C313 0.930 . S
H271 C314 0.929 . S
H272 C316 0.931 . S
H273 C317 0.930 . S
H274 C319 0.929 . S
H275 C320 0.931 . S
H276 C322 0.930 . S
H277 C323 0.929 . S
O278 H252 0.856 . S
O278 C324 1.300 . S
O279 C324 1.209 . S
O280 C325 1.199 . S
O281 H253 0.854 . S
O281 C325 1.297 . S
C282 C283 1.404 . S
C282 C287 1.397 . S
C282 C288 1.492 . S
C283 C282 1.404 . S
C283 C284 1.396 . S
C283 C294 1.492 . S
C284 C283 1.396 . S
C284 C285 1.397 . S
C284 C300 1.509 . S
C285 C284 1.397 . S
C285 C286 1.412 . S
C285 C306 1.485 . S
C286 C285 1.412 . S
C286 C287 1.388 . S
C286 C312 1.490 . S
C287 C282 1.397 . S
C287 C286 1.388 . S
C287 C318 1.519 . S
C288 C282 1.492 . S
C288 C289 1.363 . S
C288 C293 1.390 . S
C289 H254 0.930 . S
C289 C288 1.363 . S
C289 C290 1.372 . S
C290 H255 0.930 . S
C290 C289 1.372 . S
C290 C291 1.383 . S
C291 C290 1.383 . S
C291 C292 1.395 . S
C292 H256 0.930 . S
C292 C291 1.395 . S
C292 C293 1.362 . S
C293 H257 0.930 . S
C293 C288 1.390 . S
C293 C292 1.362 . S
C294 C283 1.492 . S
C294 C295 1.377 . S
C294 C299 1.397 . S
C295 H258 0.931 . S
C295 C294 1.377 . S
C295 C296 1.376 . S
C296 H259 0.930 . S
C296 C295 1.376 . S
C296 C297 1.376 . S
C297 C296 1.376 . S
C297 C298 1.378 . S
C297 C324 1.486 . S
C298 H260 0.930 . S
C298 C297 1.378 . S
C298 C299 1.376 . S
C299 H261 0.929 . S
C299 C294 1.397 . S
C299 C298 1.376 . S
C300 C284 1.509 . S
C300 C301 1.391 . S
C300 C305 1.386 . S
C301 H262 0.930 . S
C301 C300 1.391 . S
C301 C302 1.375 . S
C302 H263 0.931 . S
C302 C301 1.375 . S
C302 C303 1.375 . S
C303 C302 1.375 . S
C303 C304 1.361 . S
C304 H264 0.930 . S
C304 C303 1.361 . S
C304 C305 1.399 . S
C305 H265 0.929 . S
C305 C300 1.386 . S
C305 C304 1.399 . S
C306 C285 1.485 . S
C306 C307 1.394 . S
C306 C311 1.360 . S
C307 H266 0.931 . S
C307 C306 1.394 . S
C307 C308 1.372 . S
C308 H267 0.930 . S
C308 C307 1.372 . S
C308 C309 1.397 . S
C309 C308 1.397 . S
C309 C310 1.390 . S
C309 C325 1.476 . S
C310 H268 0.930 . S
C310 C309 1.390 . S
C310 C311 1.366 . S
C311 H269 0.932 . S
C311 C306 1.360 . S
C311 C310 1.366 . S
C312 C286 1.490 . S
C312 C313 1.380 . S
C312 C317 1.386 . S
C313 H270 0.930 . S
C313 C312 1.380 . S
C313 C314 1.381 . S
C314 H271 0.929 . S
C314 C313 1.381 . S
C314 C315 1.371 . S
C315 C314 1.371 . S
C315 C316 1.380 . S
C316 H272 0.931 . S
C316 C315 1.380 . S
C316 C317 1.387 . S
C317 H273 0.930 . S
C317 C312 1.386 . S
C317 C316 1.387 . S
C318 C287 1.519 . S
C318 C319 1.377 . S
C318 C323 1.361 . S
C319 H274 0.929 . S
C319 C318 1.377 . S
C319 C320 1.386 . S
C320 H275 0.931 . S
C320 C319 1.386 . S
C320 C321 1.363 . S
C321 C320 1.363 . S
C321 C322 1.385 . S
C322 H276 0.930 . S
C322 C321 1.385 . S
C322 C323 1.396 . S
C323 H277 0.929 . S
C323 C318 1.361 . S
C323 C322 1.396 . S
C324 O278 1.300 . S
C324 O279 1.209 . S
C324 C297 1.486 . S
C325 O280 1.199 . S
C325 O281 1.297 . S
C325 C309 1.476 . S
H326 O352 0.856 . S
H327 O355 0.854 . S
H328 C363 0.930 . S
H329 C364 0.930 . S
H330 C366 0.930 . S
H331 C367 0.930 . S
H332 C369 0.931 . S
H333 C370 0.930 . S
H334 C372 0.930 . S
H335 C373 0.929 . S
H336 C375 0.930 . S
H337 C376 0.931 . S
H338 C378 0.930 . S
H339 C379 0.929 . S
H340 C381 0.931 . S
H341 C382 0.930 . S
H342 C384 0.930 . S
H343 C385 0.932 . S
H344 C387 0.930 . S
H345 C388 0.929 . S
H346 C390 0.931 . S
H347 C391 0.930 . S
H348 C393 0.929 . S
H349 C394 0.931 . S
H350 C396 0.930 . S
H351 C397 0.929 . S
O352 H326 0.856 . S
O352 C398 1.300 . S
O353 C398 1.209 . S
O354 C399 1.199 . S
O355 H327 0.854 . S
O355 C399 1.297 . S
C356 C357 1.404 . S
C356 C361 1.397 . S
C356 C362 1.492 . S
C357 C356 1.404 . S
C357 C358 1.396 . S
C357 C368 1.492 . S
C358 C357 1.396 . S
C358 C359 1.397 . S
C358 C374 1.509 . S
C359 C358 1.397 . S
C359 C360 1.412 . S
C359 C380 1.485 . S
C360 C359 1.412 . S
C360 C361 1.388 . S
C360 C386 1.490 . S
C361 C356 1.397 . S
C361 C360 1.388 . S
C361 C392 1.519 . S
C362 C356 1.492 . S
C362 C363 1.363 . S
C362 C367 1.390 . S
C363 H328 0.930 . S
C363 C362 1.363 . S
C363 C364 1.372 . S
C364 H329 0.930 . S
C364 C363 1.372 . S
C364 C365 1.383 . S
C365 C364 1.383 . S
C365 C366 1.395 . S
C366 H330 0.930 . S
C366 C365 1.395 . S
C366 C367 1.362 . S
C367 H331 0.930 . S
C367 C362 1.390 . S
C367 C366 1.362 . S
C368 C357 1.492 . S
C368 C369 1.377 . S
C368 C373 1.397 . S
C369 H332 0.931 . S
C369 C368 1.377 . S
C369 C370 1.376 . S
C370 H333 0.930 . S
C370 C369 1.376 . S
C370 C371 1.376 . S
C371 C370 1.376 . S
C371 C372 1.378 . S
C371 C398 1.486 . S
C372 H334 0.930 . S
C372 C371 1.378 . S
C372 C373 1.376 . S
C373 H335 0.929 . S
C373 C368 1.397 . S
C373 C372 1.376 . S
C374 C358 1.509 . S
C374 C375 1.391 . S
C374 C379 1.386 . S
C375 H336 0.930 . S
C375 C374 1.391 . S
C375 C376 1.375 . S
C376 H337 0.931 . S
C376 C375 1.375 . S
C376 C377 1.375 . S
C377 C376 1.375 . S
C377 C378 1.361 . S
C378 H338 0.930 . S
C378 C377 1.361 . S
C378 C379 1.399 . S
C379 H339 0.929 . S
C379 C374 1.386 . S
C379 C378 1.399 . S
C380 C359 1.485 . S
C380 C381 1.394 . S
C380 C385 1.360 . S
C381 H340 0.931 . S
C381 C380 1.394 . S
C381 C382 1.372 . S
C382 H341 0.930 . S
C382 C381 1.372 . S
C382 C383 1.397 . S
C383 C382 1.397 . S
C383 C384 1.390 . S
C383 C399 1.476 . S
C384 H342 0.930 . S
C384 C383 1.390 . S
C384 C385 1.366 . S
C385 H343 0.932 . S
C385 C380 1.360 . S
C385 C384 1.366 . S
C386 C360 1.490 . S
C386 C387 1.380 . S
C386 C391 1.386 . S
C387 H344 0.930 . S
C387 C386 1.380 . S
C387 C388 1.381 . S
C388 H345 0.929 . S
C388 C387 1.381 . S
C388 C389 1.371 . S
C389 C388 1.371 . S
C389 C390 1.380 . S
C390 H346 0.931 . S
C390 C389 1.380 . S
C390 C391 1.387 . S
C391 H347 0.930 . S
C391 C386 1.386 . S
C391 C390 1.387 . S
C392 C361 1.519 . S
C392 C393 1.377 . S
C392 C397 1.361 . S
C393 H348 0.929 . S
C393 C392 1.377 . S
C393 C394 1.386 . S
C394 H349 0.931 . S
C394 C393 1.386 . S
C394 C395 1.363 . S
C395 C394 1.363 . S
C395 C396 1.385 . S
C396 H350 0.930 . S
C396 C395 1.385 . S
C396 C397 1.396 . S
C397 H351 0.929 . S
C397 C392 1.361 . S
C397 C396 1.396 . S
C398 O352 1.300 . S
C398 O353 1.209 . S
C398 C371 1.486 . S
C399 O354 1.199 . S
C399 O355 1.297 . S
C399 C383 1.476 . S
H400 O426 0.856 . S
H401 O429 0.854 . S
H402 C437 0.930 . S
H403 C438 0.930 . S
H404 C440 0.930 . S
H405 C441 0.930 . S
H406 C443 0.931 . S
H407 C444 0.930 . S
H408 C446 0.930 . S
H409 C447 0.929 . S
H410 C449 0.930 . S
H411 C450 0.931 . S
H412 C452 0.930 . S
H413 C453 0.929 . S
H414 C455 0.931 . S
H415 C456 0.930 . S
H416 C458 0.930 . S
H417 C459 0.932 . S
H418 C461 0.930 . S
H419 C462 0.929 . S
H420 C464 0.931 . S
H421 C465 0.930 . S
H422 C467 0.929 . S
H423 C468 0.931 . S
H424 C470 0.930 . S
H425 C471 0.929 . S
O426 H400 0.856 . S
O426 C472 1.300 . S
O427 C472 1.209 . S
O428 C473 1.199 . S
O429 H401 0.854 . S
O429 C473 1.297 . S
C430 C431 1.404 . S
C430 C435 1.397 . S
C430 C436 1.492 . S
C431 C430 1.404 . S
C431 C432 1.396 . S
C431 C442 1.492 . S
C432 C431 1.396 . S
C432 C433 1.397 . S
C432 C448 1.509 . S
C433 C432 1.397 . S
C433 C434 1.412 . S
C433 C454 1.485 . S
C434 C433 1.412 . S
C434 C435 1.388 . S
C434 C460 1.490 . S
C435 C430 1.397 . S
C435 C434 1.388 . S
C435 C466 1.519 . S
C436 C430 1.492 . S
C436 C437 1.363 . S
C436 C441 1.390 . S
C437 H402 0.930 . S
C437 C436 1.363 . S
C437 C438 1.372 . S
C438 H403 0.930 . S
C438 C437 1.372 . S
C438 C439 1.383 . S
C439 C438 1.383 . S
C439 C440 1.395 . S
C440 H404 0.930 . S
C440 C439 1.395 . S
C440 C441 1.362 . S
C441 H405 0.930 . S
C441 C436 1.390 . S
C441 C440 1.362 . S
C442 C431 1.492 . S
C442 C443 1.377 . S
C442 C447 1.397 . S
C443 H406 0.931 . S
C443 C442 1.377 . S
C443 C444 1.376 . S
C444 H407 0.930 . S
C444 C443 1.376 . S
C444 C445 1.376 . S
C445 C444 1.376 . S
C445 C446 1.378 . S
C445 C472 1.486 . S
C446 H408 0.930 . S
C446 C445 1.378 . S
C446 C447 1.376 . S
C447 H409 0.929 . S
C447 C442 1.397 . S
C447 C446 1.376 . S
C448 C432 1.509 . S
C448 C449 1.391 . S
C448 C453 1.386 . S
C449 H410 0.930 . S
C449 C448 1.391 . S
C449 C450 1.375 . S
C450 H411 0.931 . S
C450 C449 1.375 . S
C450 C451 1.375 . S
C451 C450 1.375 . S
C451 C452 1.361 . S
C452 H412 0.930 . S
C452 C451 1.361 . S
C452 C453 1.399 . S
C453 H413 0.929 . S
C453 C448 1.386 . S
C453 C452 1.399 . S
C454 C433 1.485 . S
C454 C455 1.394 . S
C454 C459 1.360 . S
C455 H414 0.931 . S
C455 C454 1.394 . S
C455 C456 1.372 . S
C456 H415 0.930 . S
C456 C455 1.372 . S
C456 C457 1.397 . S
C457 C456 1.397 . S
C457 C458 1.390 . S
C457 C473 1.476 . S
C458 H416 0.930 . S
C458 C457 1.390 . S
C458 C459 1.366 . S
C459 H417 0.932 . S
C459 C454 1.360 . S
C459 C458 1.366 . S
C460 C434 1.490 . S
C460 C461 1.380 . S
C460 C465 1.386 . S
C461 H418 0.930 . S
C461 C460 1.380 . S
C461 C462 1.381 . S
C462 H419 0.929 . S
C462 C461 1.381 . S
C462 C463 1.371 . S
C463 C462 1.371 . S
C463 C464 1.380 . S
C464 H420 0.931 . S
C464 C463 1.380 . S
C464 C465 1.387 . S
C465 H421 0.930 . S
C465 C460 1.386 . S
C465 C464 1.387 . S
C466 C435 1.519 . S
C466 C467 1.377 . S
C466 C471 1.361 . S
C467 H422 0.929 . S
C467 C466 1.377 . S
C467 C468 1.386 . S
C468 H423 0.931 . S
C468 C467 1.386 . S
C468 C469 1.363 . S
C469 C468 1.363 . S
C469 C470 1.385 . S
C470 H424 0.930 . S
C470 C469 1.385 . S
C470 C471 1.396 . S
C471 H425 0.929 . S
C471 C466 1.361 . S
C471 C470 1.396 . S
C472 O426 1.300 . S
C472 O427 1.209 . S
C472 C445 1.486 . S
C473 O428 1.199 . S
C473 O429 1.297 . S
C473 C457 1.476 . S
H474 O500 0.856 . S
H475 O503 0.854 . S
H476 C511 0.930 . S
H477 C512 0.930 . S
H478 C514 0.930 . S
H479 C515 0.930 . S
H480 C517 0.931 . S
H481 C518 0.930 . S
H482 C520 0.930 . S
H483 C521 0.929 . S
H484 C523 0.930 . S
H485 C524 0.931 . S
H486 C526 0.930 . S
H487 C527 0.929 . S
H488 C529 0.931 . S
H489 C530 0.930 . S
H490 C532 0.930 . S
H491 C533 0.932 . S
H492 C535 0.930 . S
H493 C536 0.929 . S
H494 C538 0.931 . S
H495 C539 0.930 . S
H496 C541 0.929 . S
H497 C542 0.931 . S
H498 C544 0.930 . S
H499 C545 0.929 . S
O500 H474 0.856 . S
O500 C546 1.300 . S
O501 C546 1.209 . S
O502 C547 1.199 . S
O503 H475 0.854 . S
O503 C547 1.297 . S
C504 C505 1.404 . S
C504 C509 1.397 . S
C504 C510 1.492 . S
C505 C504 1.404 . S
C505 C506 1.396 . S
C505 C516 1.492 . S
C506 C505 1.396 . S
C506 C507 1.397 . S
C506 C522 1.509 . S
C507 C506 1.397 . S
C507 C508 1.412 . S
C507 C528 1.485 . S
C508 C507 1.412 . S
C508 C509 1.388 . S
C508 C534 1.490 . S
C509 C504 1.397 . S
C509 C508 1.388 . S
C509 C540 1.519 . S
C510 C504 1.492 . S
C510 C511 1.363 . S
C510 C515 1.390 . S
C511 H476 0.930 . S
C511 C510 1.363 . S
C511 C512 1.372 . S
C512 H477 0.930 . S
C512 C511 1.372 . S
C512 C513 1.383 . S
C513 C512 1.383 . S
C513 C514 1.395 . S
C514 H478 0.930 . S
C514 C513 1.395 . S
C514 C515 1.362 . S
C515 H479 0.930 . S
C515 C510 1.390 . S
C515 C514 1.362 . S
C516 C505 1.492 . S
C516 C517 1.377 . S
C516 C521 1.397 . S
C517 H480 0.931 . S
C517 C516 1.377 . S
C517 C518 1.376 . S
C518 H481 0.930 . S
C518 C517 1.376 . S
C518 C519 1.376 . S
C519 C518 1.376 . S
C519 C520 1.378 . S
C519 C546 1.486 . S
C520 H482 0.930 . S
C520 C519 1.378 . S
C520 C521 1.376 . S
C521 H483 0.929 . S
C521 C516 1.397 . S
C521 C520 1.376 . S
C522 C506 1.509 . S
C522 C523 1.391 . S
C522 C527 1.386 . S
C523 H484 0.930 . S
C523 C522 1.391 . S
C523 C524 1.375 . S
C524 H485 0.931 . S
C524 C523 1.375 . S
C524 C525 1.375 . S
C525 C524 1.375 . S
C525 C526 1.361 . S
C526 H486 0.930 . S
C526 C525 1.361 . S
C526 C527 1.399 . S
C527 H487 0.929 . S
C527 C522 1.386 . S
C527 C526 1.399 . S
C528 C507 1.485 . S
C528 C529 1.394 . S
C528 C533 1.360 . S
C529 H488 0.931 . S
C529 C528 1.394 . S
C529 C530 1.372 . S
C530 H489 0.930 . S
C530 C529 1.372 . S
C530 C531 1.397 . S
C531 C530 1.397 . S
C531 C532 1.390 . S
C531 C547 1.476 . S
C532 H490 0.930 . S
C532 C531 1.390 . S
C532 C533 1.366 . S
C533 H491 0.932 . S
C533 C528 1.360 . S
C533 C532 1.366 . S
C534 C508 1.490 . S
C534 C535 1.380 . S
C534 C539 1.386 . S
C535 H492 0.930 . S
C535 C534 1.380 . S
C535 C536 1.381 . S
C536 H493 0.929 . S
C536 C535 1.381 . S
C536 C537 1.371 . S
C537 C536 1.371 . S
C537 C538 1.380 . S
C538 H494 0.931 . S
C538 C537 1.380 . S
C538 C539 1.387 . S
C539 H495 0.930 . S
C539 C534 1.386 . S
C539 C538 1.387 . S
C540 C509 1.519 . S
C540 C541 1.377 . S
C540 C545 1.361 . S
C541 H496 0.929 . S
C541 C540 1.377 . S
C541 C542 1.386 . S
C542 H497 0.931 . S
C542 C541 1.386 . S
C542 C543 1.363 . S
C543 C542 1.363 . S
C543 C544 1.385 . S
C544 H498 0.930 . S
C544 C543 1.385 . S
C544 C545 1.396 . S
C545 H499 0.929 . S
C545 C540 1.361 . S
C545 C544 1.396 . S
C546 O500 1.300 . S
C546 O501 1.209 . S
C546 C519 1.486 . S
C547 O502 1.199 . S
C547 O503 1.297 . S
C547 C531 1.476 . S
H548 O574 0.856 1_554 S
H549 O577 0.854 . S
H550 C585 0.930 . S
H551 C586 0.930 . S
H552 C588 0.930 . S
H553 C589 0.930 . S
H554 C591 0.931 . S
H555 C592 0.930 . S
H556 C594 0.930 . S
H557 C595 0.929 . S
H558 C597 0.930 . S
H559 C598 0.931 . S
H560 C600 0.930 . S
H561 C601 0.929 . S
H562 C603 0.931 . S
H563 C604 0.930 . S
H564 C606 0.930 . S
H565 C607 0.932 . S
H566 C609 0.930 . S
H567 C610 0.929 . S
H568 C612 0.931 . S
H569 C613 0.930 . S
H570 C615 0.929 . S
H571 C616 0.931 . S
H572 C618 0.930 . S
H573 C619 0.929 . S
O574 H548 0.856 1_556 S
O574 C620 1.300 . S
O575 C620 1.209 . S
O576 C621 1.199 . S
O577 H549 0.854 . S
O577 C621 1.297 . S
C578 C579 1.404 . S
C578 C583 1.397 . S
C578 C584 1.492 . S
C579 C578 1.404 . S
C579 C580 1.396 . S
C579 C590 1.492 . S
C580 C579 1.396 . S
C580 C581 1.397 . S
C580 C596 1.509 . S
C581 C580 1.397 . S
C581 C582 1.412 . S
C581 C602 1.485 . S
C582 C581 1.412 . S
C582 C583 1.388 . S
C582 C608 1.490 . S
C583 C578 1.397 . S
C583 C582 1.388 . S
C583 C614 1.519 . S
C584 C578 1.492 . S
C584 C585 1.363 . S
C584 C589 1.390 . S
C585 H550 0.930 . S
C585 C584 1.363 . S
C585 C586 1.372 . S
C586 H551 0.930 . S
C586 C585 1.372 . S
C586 C587 1.383 . S
C587 C586 1.383 . S
C587 C588 1.395 . S
C588 H552 0.930 . S
C588 C587 1.395 . S
C588 C589 1.362 . S
C589 H553 0.930 . S
C589 C584 1.390 . S
C589 C588 1.362 . S
C590 C579 1.492 . S
C590 C591 1.377 . S
C590 C595 1.397 . S
C591 H554 0.931 . S
C591 C590 1.377 . S
C591 C592 1.376 . S
C592 H555 0.930 . S
C592 C591 1.376 . S
C592 C593 1.376 . S
C593 C592 1.376 . S
C593 C594 1.378 . S
C593 C620 1.486 . S
C594 H556 0.930 . S
C594 C593 1.378 . S
C594 C595 1.376 . S
C595 H557 0.929 . S
C595 C590 1.397 . S
C595 C594 1.376 . S
C596 C580 1.509 . S
C596 C597 1.391 . S
C596 C601 1.386 . S
C597 H558 0.930 . S
C597 C596 1.391 . S
C597 C598 1.375 . S
C598 H559 0.931 . S
C598 C597 1.375 . S
C598 C599 1.375 . S
C599 C598 1.375 . S
C599 C600 1.361 . S
C600 H560 0.930 . S
C600 C599 1.361 . S
C600 C601 1.399 . S
C601 H561 0.929 . S
C601 C596 1.386 . S
C601 C600 1.399 . S
C602 C581 1.485 . S
C602 C603 1.394 . S
C602 C607 1.360 . S
C603 H562 0.931 . S
C603 C602 1.394 . S
C603 C604 1.372 . S
C604 H563 0.930 . S
C604 C603 1.372 . S
C604 C605 1.397 . S
C605 C604 1.397 . S
C605 C606 1.390 . S
C605 C621 1.476 . S
C606 H564 0.930 . S
C606 C605 1.390 . S
C606 C607 1.366 . S
C607 H565 0.932 . S
C607 C602 1.360 . S
C607 C606 1.366 . S
C608 C582 1.490 . S
C608 C609 1.380 . S
C608 C613 1.386 . S
C609 H566 0.930 . S
C609 C608 1.380 . S
C609 C610 1.381 . S
C610 H567 0.929 . S
C610 C609 1.381 . S
C610 C611 1.371 . S
C611 C610 1.371 . S
C611 C612 1.380 . S
C612 H568 0.931 . S
C612 C611 1.380 . S
C612 C613 1.387 . S
C613 H569 0.930 . S
C613 C608 1.386 . S
C613 C612 1.387 . S
C614 C583 1.519 . S
C614 C615 1.377 . S
C614 C619 1.361 . S
C615 H570 0.929 . S
C615 C614 1.377 . S
C615 C616 1.386 . S
C616 H571 0.931 . S
C616 C615 1.386 . S
C616 C617 1.363 . S
C617 C616 1.363 . S
C617 C618 1.385 . S
C618 H572 0.930 . S
C618 C617 1.385 . S
C618 C619 1.396 . S
C619 H573 0.929 . S
C619 C614 1.361 . S
C619 C618 1.396 . S
C620 O574 1.300 . S
C620 O575 1.209 . S
C620 C593 1.486 . S
C621 O576 1.199 . S
C621 O577 1.297 . S
C621 C605 1.476 . S
H622 O648 0.856 . S
H623 O651 0.854 . S
H624 C659 0.930 . S
H625 C660 0.930 . S
H626 C662 0.930 . S
H627 C663 0.930 . S
H628 C665 0.931 . S
H629 C666 0.930 . S
H630 C668 0.930 . S
H631 C669 0.929 . S
H632 C671 0.930 . S
H633 C672 0.931 . S
H634 C674 0.930 . S
H635 C675 0.929 . S
H636 C677 0.931 . S
H637 C678 0.930 . S
H638 C680 0.930 . S
H639 C681 0.932 . S
H640 C683 0.930 . S
H641 C684 0.929 . S
H642 C686 0.931 . S
H643 C687 0.930 . S
H644 C689 0.929 . S
H645 C690 0.931 . S
H646 C692 0.930 . S
H647 C693 0.929 . S
O648 H622 0.856 . S
O648 C694 1.300 1_554 S
O649 C694 1.209 . S
O650 C695 1.199 . S
O651 H623 0.854 . S
O651 C695 1.297 . S
C652 C653 1.404 . S
C652 C657 1.397 . S
C652 C658 1.492 . S
C653 C652 1.404 . S
C653 C654 1.396 . S
C653 C664 1.492 . S
C654 C653 1.396 . S
C654 C655 1.397 . S
C654 C670 1.509 . S
C655 C654 1.397 . S
C655 C656 1.412 . S
C655 C676 1.485 . S
C656 C655 1.412 . S
C656 C657 1.388 . S
C656 C682 1.490 . S
C657 C652 1.397 . S
C657 C656 1.388 . S
C657 C688 1.519 . S
C658 C652 1.492 . S
C658 C659 1.363 . S
C658 C663 1.390 . S
C659 H624 0.930 . S
C659 C658 1.363 . S
C659 C660 1.372 . S
C660 H625 0.930 . S
C660 C659 1.372 . S
C660 C661 1.383 . S
C661 C660 1.383 . S
C661 C662 1.395 . S
C662 H626 0.930 . S
C662 C661 1.395 . S
C662 C663 1.362 . S
C663 H627 0.930 . S
C663 C658 1.390 . S
C663 C662 1.362 . S
C664 C653 1.492 . S
C664 C665 1.377 . S
C664 C669 1.397 . S
C665 H628 0.931 . S
C665 C664 1.377 . S
C665 C666 1.376 . S
C666 H629 0.930 . S
C666 C665 1.376 . S
C666 C667 1.376 . S
C667 C666 1.376 . S
C667 C668 1.378 . S
C667 C694 1.486 . S
C668 H630 0.930 . S
C668 C667 1.378 . S
C668 C669 1.376 . S
C669 H631 0.929 . S
C669 C664 1.397 . S
C669 C668 1.376 . S
C670 C654 1.509 . S
C670 C671 1.391 . S
C670 C675 1.386 . S
C671 H632 0.930 . S
C671 C670 1.391 . S
C671 C672 1.375 . S
C672 H633 0.931 . S
C672 C671 1.375 . S
C672 C673 1.375 . S
C673 C672 1.375 . S
C673 C674 1.361 . S
C674 H634 0.930 . S
C674 C673 1.361 . S
C674 C675 1.399 . S
C675 H635 0.929 . S
C675 C670 1.386 . S
C675 C674 1.399 . S
C676 C655 1.485 . S
C676 C677 1.394 . S
C676 C681 1.360 . S
C677 H636 0.931 . S
C677 C676 1.394 . S
C677 C678 1.372 . S
C678 H637 0.930 . S
C678 C677 1.372 . S
C678 C679 1.397 . S
C679 C678 1.397 . S
C679 C680 1.390 . S
C679 C695 1.476 . S
C680 H638 0.930 . S
C680 C679 1.390 . S
C680 C681 1.366 . S
C681 H639 0.932 . S
C681 C676 1.360 . S
C681 C680 1.366 . S
C682 C656 1.490 . S
C682 C683 1.380 . S
C682 C687 1.386 . S
C683 H640 0.930 . S
C683 C682 1.380 . S
C683 C684 1.381 . S
C684 H641 0.929 . S
C684 C683 1.381 . S
C684 C685 1.371 . S
C685 C684 1.371 . S
C685 C686 1.380 . S
C686 H642 0.931 . S
C686 C685 1.380 . S
C686 C687 1.387 . S
C687 H643 0.930 . S
C687 C682 1.386 . S
C687 C686 1.387 . S
C688 C657 1.519 . S
C688 C689 1.377 . S
C688 C693 1.361 . S
C689 H644 0.929 . S
C689 C688 1.377 . S
C689 C690 1.386 . S
C690 H645 0.931 . S
C690 C689 1.386 . S
C690 C691 1.363 . S
C691 C690 1.363 . S
C691 C692 1.385 . S
C692 H646 0.930 . S
C692 C691 1.385 . S
C692 C693 1.396 . S
C693 H647 0.929 . S
C693 C688 1.361 . S
C693 C692 1.396 . S
C694 O648 1.300 1_556 S
C694 O649 1.209 . S
C694 C667 1.486 . S
C695 O650 1.199 . S
C695 O651 1.297 . S
C695 C679 1.476 . S
H696 O722 0.856 . S
H697 O725 0.854 . S
H698 C733 0.930 . S
H699 C734 0.930 . S
H700 C736 0.930 . S
H701 C737 0.930 . S
H702 C739 0.931 . S
H703 C740 0.930 . S
H704 C742 0.930 . S
H705 C743 0.929 . S
H706 C745 0.930 . S
H707 C746 0.931 . S
H708 C748 0.930 . S
H709 C749 0.929 . S
H710 C751 0.931 . S
H711 C752 0.930 . S
H712 C754 0.930 . S
H713 C755 0.932 . S
H714 C757 0.930 . S
H715 C758 0.929 . S
H716 C760 0.931 . S
H717 C761 0.930 . S
H718 C763 0.929 . S
H719 C764 0.931 . S
H720 C766 0.930 . S
H721 C767 0.929 . S
O722 H696 0.856 . S
O722 C768 1.300 . S
O723 C768 1.209 . S
O724 C769 1.199 . S
O725 H697 0.854 . S
O725 C769 1.297 . S
C726 C727 1.404 . S
C726 C731 1.397 . S
C726 C732 1.492 . S
C727 C726 1.404 . S
C727 C728 1.396 . S
C727 C738 1.492 . S
C728 C727 1.396 . S
C728 C729 1.397 . S
C728 C744 1.509 . S
C729 C728 1.397 . S
C729 C730 1.412 . S
C729 C750 1.485 . S
C730 C729 1.412 . S
C730 C731 1.388 . S
C730 C756 1.490 . S
C731 C726 1.397 . S
C731 C730 1.388 . S
C731 C762 1.519 . S
C732 C726 1.492 . S
C732 C733 1.363 . S
C732 C737 1.390 . S
C733 H698 0.930 . S
C733 C732 1.363 . S
C733 C734 1.372 . S
C734 H699 0.930 . S
C734 C733 1.372 . S
C734 C735 1.383 . S
C735 C734 1.383 . S
C735 C736 1.395 . S
C736 H700 0.930 . S
C736 C735 1.395 . S
C736 C737 1.362 . S
C737 H701 0.930 . S
C737 C732 1.390 . S
C737 C736 1.362 . S
C738 C727 1.492 . S
C738 C739 1.377 . S
C738 C743 1.397 . S
C739 H702 0.931 . S
C739 C738 1.377 . S
C739 C740 1.376 . S
C740 H703 0.930 . S
C740 C739 1.376 . S
C740 C741 1.376 . S
C741 C740 1.376 . S
C741 C742 1.378 . S
C741 C768 1.486 . S
C742 H704 0.930 . S
C742 C741 1.378 . S
C742 C743 1.376 . S
C743 H705 0.929 . S
C743 C738 1.397 . S
C743 C742 1.376 . S
C744 C728 1.509 . S
C744 C745 1.391 . S
C744 C749 1.386 . S
C745 H706 0.930 . S
C745 C744 1.391 . S
C745 C746 1.375 . S
C746 H707 0.931 . S
C746 C745 1.375 . S
C746 C747 1.375 . S
C747 C746 1.375 . S
C747 C748 1.361 . S
C748 H708 0.930 . S
C748 C747 1.361 . S
C748 C749 1.399 . S
C749 H709 0.929 . S
C749 C744 1.386 . S
C749 C748 1.399 . S
C750 C729 1.485 . S
C750 C751 1.394 . S
C750 C755 1.360 . S
C751 H710 0.931 . S
C751 C750 1.394 . S
C751 C752 1.372 . S
C752 H711 0.930 . S
C752 C751 1.372 . S
C752 C753 1.397 . S
C753 C752 1.397 . S
C753 C754 1.390 . S
C753 C769 1.476 . S
C754 H712 0.930 . S
C754 C753 1.390 . S
C754 C755 1.366 . S
C755 H713 0.932 . S
C755 C750 1.360 . S
C755 C754 1.366 . S
C756 C730 1.490 . S
C756 C757 1.380 . S
C756 C761 1.386 . S
C757 H714 0.930 . S
C757 C756 1.380 . S
C757 C758 1.381 . S
C758 H715 0.929 . S
C758 C757 1.381 . S
C758 C759 1.371 . S
C759 C758 1.371 . S
C759 C760 1.380 . S
C760 H716 0.931 . S
C760 C759 1.380 . S
C760 C761 1.387 . S
C761 H717 0.930 . S
C761 C756 1.386 . S
C761 C760 1.387 . S
C762 C731 1.519 . S
C762 C763 1.377 . S
C762 C767 1.361 . S
C763 H718 0.929 . S
C763 C762 1.377 . S
C763 C764 1.386 . S
C764 H719 0.931 . S
C764 C763 1.386 . S
C764 C765 1.363 . S
C765 C764 1.363 . S
C765 C766 1.385 . S
C766 H720 0.930 . S
C766 C765 1.385 . S
C766 C767 1.396 . S
C767 H721 0.929 . S
C767 C762 1.361 . S
C767 C766 1.396 . S
C768 O722 1.300 . S
C768 O723 1.209 . S
C768 C741 1.486 . S
C769 O724 1.199 . S
C769 O725 1.297 . S
C769 C753 1.476 . S
H770 O796 0.856 . S
H771 O799 0.854 . S
H772 C807 0.930 . S
H773 C808 0.930 . S
H774 C810 0.930 . S
H775 C811 0.930 . S
H776 C813 0.931 . S
H777 C814 0.930 . S
H778 C816 0.930 . S
H779 C817 0.929 . S
H780 C819 0.930 . S
H781 C820 0.931 . S
H782 C822 0.930 . S
H783 C823 0.929 . S
H784 C825 0.931 . S
H785 C826 0.930 . S
H786 C828 0.930 . S
H787 C829 0.932 . S
H788 C831 0.930 . S
H789 C832 0.929 . S
H790 C834 0.931 . S
H791 C835 0.930 . S
H792 C837 0.929 . S
H793 C838 0.931 . S
H794 C840 0.930 . S
H795 C841 0.929 . S
O796 H770 0.856 . S
O796 C842 1.300 . S
O797 C842 1.209 . S
O798 C843 1.199 . S
O799 H771 0.854 . S
O799 C843 1.297 . S
C800 C801 1.404 . S
C800 C805 1.397 . S
C800 C806 1.492 . S
C801 C800 1.404 . S
C801 C802 1.396 . S
C801 C812 1.492 . S
C802 C801 1.396 . S
C802 C803 1.397 . S
C802 C818 1.509 . S
C803 C802 1.397 . S
C803 C804 1.412 . S
C803 C824 1.485 . S
C804 C803 1.412 . S
C804 C805 1.388 . S
C804 C830 1.490 . S
C805 C800 1.397 . S
C805 C804 1.388 . S
C805 C836 1.519 . S
C806 C800 1.492 . S
C806 C807 1.363 . S
C806 C811 1.390 . S
C807 H772 0.930 . S
C807 C806 1.363 . S
C807 C808 1.372 . S
C808 H773 0.930 . S
C808 C807 1.372 . S
C808 C809 1.383 . S
C809 C808 1.383 . S
C809 C810 1.395 . S
C810 H774 0.930 . S
C810 C809 1.395 . S
C810 C811 1.362 . S
C811 H775 0.930 . S
C811 C806 1.390 . S
C811 C810 1.362 . S
C812 C801 1.492 . S
C812 C813 1.377 . S
C812 C817 1.397 . S
C813 H776 0.931 . S
C813 C812 1.377 . S
C813 C814 1.376 . S
C814 H777 0.930 . S
C814 C813 1.376 . S
C814 C815 1.376 . S
C815 C814 1.376 . S
C815 C816 1.378 . S
C815 C842 1.486 . S
C816 H778 0.930 . S
C816 C815 1.378 . S
C816 C817 1.376 . S
C817 H779 0.929 . S
C817 C812 1.397 . S
C817 C816 1.376 . S
C818 C802 1.509 . S
C818 C819 1.391 . S
C818 C823 1.386 . S
C819 H780 0.930 . S
C819 C818 1.391 . S
C819 C820 1.375 . S
C820 H781 0.931 . S
C820 C819 1.375 . S
C820 C821 1.375 . S
C821 C820 1.375 . S
C821 C822 1.361 . S
C822 H782 0.930 . S
C822 C821 1.361 . S
C822 C823 1.399 . S
C823 H783 0.929 . S
C823 C818 1.386 . S
C823 C822 1.399 . S
C824 C803 1.485 . S
C824 C825 1.394 . S
C824 C829 1.360 . S
C825 H784 0.931 . S
C825 C824 1.394 . S
C825 C826 1.372 . S
C826 H785 0.930 . S
C826 C825 1.372 . S
C826 C827 1.397 . S
C827 C826 1.397 . S
C827 C828 1.390 . S
C827 C843 1.476 . S
C828 H786 0.930 . S
C828 C827 1.390 . S
C828 C829 1.366 . S
C829 H787 0.932 . S
C829 C824 1.360 . S
C829 C828 1.366 . S
C830 C804 1.490 . S
C830 C831 1.380 . S
C830 C835 1.386 . S
C831 H788 0.930 . S
C831 C830 1.380 . S
C831 C832 1.381 . S
C832 H789 0.929 . S
C832 C831 1.381 . S
C832 C833 1.371 . S
C833 C832 1.371 . S
C833 C834 1.380 . S
C834 H790 0.931 . S
C834 C833 1.380 . S
C834 C835 1.387 . S
C835 H791 0.930 . S
C835 C830 1.386 . S
C835 C834 1.387 . S
C836 C805 1.519 . S
C836 C837 1.377 . S
C836 C841 1.361 . S
C837 H792 0.929 . S
C837 C836 1.377 . S
C837 C838 1.386 . S
C838 H793 0.931 . S
C838 C837 1.386 . S
C838 C839 1.363 . S
C839 C838 1.363 . S
C839 C840 1.385 . S
C840 H794 0.930 . S
C840 C839 1.385 . S
C840 C841 1.396 . S
C841 H795 0.929 . S
C841 C836 1.361 . S
C841 C840 1.396 . S
C842 O796 1.300 . S
C842 O797 1.209 . S
C842 C815 1.486 . S
C843 O798 1.199 . S
C843 O799 1.297 . S
C843 C827 1.476 . S
H844 O870 0.856 . S
H845 O873 0.854 . S
H846 C881 0.930 . S
H847 C882 0.930 . S
H848 C884 0.930 . S
H849 C885 0.930 . S
H850 C887 0.931 . S
H851 C888 0.930 . S
H852 C890 0.930 . S
H853 C891 0.929 . S
H854 C893 0.930 . S
H855 C894 0.931 . S
H856 C896 0.930 . S
H857 C897 0.929 . S
H858 C899 0.931 . S
H859 C900 0.930 . S
H860 C902 0.930 . S
H861 C903 0.932 . S
H862 C905 0.930 . S
H863 C906 0.929 . S
H864 C908 0.931 . S
H865 C909 0.930 . S
H866 C911 0.929 . S
H867 C912 0.931 . S
H868 C914 0.930 . S
H869 C915 0.929 . S
O870 H844 0.856 . S
O870 C916 1.300 . S
O871 C916 1.209 . S
O872 C917 1.199 . S
O873 H845 0.854 . S
O873 C917 1.297 . S
C874 C875 1.404 . S
C874 C879 1.397 . S
C874 C880 1.492 . S
C875 C874 1.404 . S
C875 C876 1.396 . S
C875 C886 1.492 . S
C876 C875 1.396 . S
C876 C877 1.397 . S
C876 C892 1.509 . S
C877 C876 1.397 . S
C877 C878 1.412 . S
C877 C898 1.485 . S
C878 C877 1.412 . S
C878 C879 1.388 . S
C878 C904 1.490 . S
C879 C874 1.397 . S
C879 C878 1.388 . S
C879 C910 1.519 . S
C880 C874 1.492 . S
C880 C881 1.363 . S
C880 C885 1.390 . S
C881 H846 0.930 . S
C881 C880 1.363 . S
C881 C882 1.372 . S
C882 H847 0.930 . S
C882 C881 1.372 . S
C882 C883 1.383 . S
C883 C882 1.383 . S
C883 C884 1.395 . S
C884 H848 0.930 . S
C884 C883 1.395 . S
C884 C885 1.362 . S
C885 H849 0.930 . S
C885 C880 1.390 . S
C885 C884 1.362 . S
C886 C875 1.492 . S
C886 C887 1.377 . S
C886 C891 1.397 . S
C887 H850 0.931 . S
C887 C886 1.377 . S
C887 C888 1.376 . S
C888 H851 0.930 . S
C888 C887 1.376 . S
C888 C889 1.376 . S
C889 C888 1.376 . S
C889 C890 1.378 . S
C889 C916 1.486 . S
C890 H852 0.930 . S
C890 C889 1.378 . S
C890 C891 1.376 . S
C891 H853 0.929 . S
C891 C886 1.397 . S
C891 C890 1.376 . S
C892 C876 1.509 . S
C892 C893 1.391 . S
C892 C897 1.386 . S
C893 H854 0.930 . S
C893 C892 1.391 . S
C893 C894 1.375 . S
C894 H855 0.931 . S
C894 C893 1.375 . S
C894 C895 1.375 . S
C895 C894 1.375 . S
C895 C896 1.361 . S
C896 H856 0.930 . S
C896 C895 1.361 . S
C896 C897 1.399 . S
C897 H857 0.929 . S
C897 C892 1.386 . S
C897 C896 1.399 . S
C898 C877 1.485 . S
C898 C899 1.394 . S
C898 C903 1.360 . S
C899 H858 0.931 . S
C899 C898 1.394 . S
C899 C900 1.372 . S
C900 H859 0.930 . S
C900 C899 1.372 . S
C900 C901 1.397 . S
C901 C900 1.397 . S
C901 C902 1.390 . S
C901 C917 1.476 . S
C902 H860 0.930 . S
C902 C901 1.390 . S
C902 C903 1.366 . S
C903 H861 0.932 . S
C903 C898 1.360 . S
C903 C902 1.366 . S
C904 C878 1.490 . S
C904 C905 1.380 . S
C904 C909 1.386 . S
C905 H862 0.930 . S
C905 C904 1.380 . S
C905 C906 1.381 . S
C906 H863 0.929 . S
C906 C905 1.381 . S
C906 C907 1.371 . S
C907 C906 1.371 . S
C907 C908 1.380 . S
C908 H864 0.931 . S
C908 C907 1.380 . S
C908 C909 1.387 . S
C909 H865 0.930 . S
C909 C904 1.386 . S
C909 C908 1.387 . S
C910 C879 1.519 . S
C910 C911 1.377 . S
C910 C915 1.361 . S
C911 H866 0.929 . S
C911 C910 1.377 . S
C911 C912 1.386 . S
C912 H867 0.931 . S
C912 C911 1.386 . S
C912 C913 1.363 . S
C913 C912 1.363 . S
C913 C914 1.385 . S
C914 H868 0.930 . S
C914 C913 1.385 . S
C914 C915 1.396 . S
C915 H869 0.929 . S
C915 C910 1.361 . S
C915 C914 1.396 . S
C916 O870 1.300 . S
C916 O871 1.209 . S
C916 C889 1.486 . S
C917 O872 1.199 . S
C917 O873 1.297 . S
C917 C901 1.476 . S
H918 O944 0.856 . S
H919 O947 0.854 . S
H920 C955 0.930 . S
H921 C956 0.930 . S
H922 C958 0.930 . S
H923 C959 0.930 . S
H924 C961 0.931 . S
H925 C962 0.943 . S
H926 C964 0.930 . S
H927 C965 0.929 . S
H928 C967 0.930 . S
H929 C968 0.941 . S
H930 C970 0.930 . S
H931 C971 0.929 . S
H932 C973 0.931 . S
H933 C974 0.930 . S
H934 C976 0.930 . S
H935 C977 0.932 . S
H936 C979 0.930 . S
H937 C980 0.929 . S
H938 C982 0.931 . S
H939 C983 0.930 . S
H940 C985 0.929 . S
H941 C986 0.931 . S
H942 C988 0.930 . S
H943 C989 0.929 . S
O944 H918 0.856 . S
O944 C990 1.300 . S
O945 C990 1.209 . S
O946 C991 1.199 1_655 S
O947 H919 0.854 . S
O947 C991 1.297 . S
C948 C949 1.404 . S
C948 C953 1.393 . S
C948 C954 1.492 . S
C949 C948 1.404 . S
C949 C950 1.396 . S
C949 C960 1.492 . S
C950 C949 1.396 . S
C950 C951 1.397 . S
C950 C966 1.509 . S
C951 C950 1.397 . S
C951 C952 1.428 . S
C951 C972 1.485 . S
C952 C951 1.428 . S
C952 C953 1.398 . S
C952 C978 1.491 1_455 S
C953 C948 1.393 . S
C953 C952 1.398 . S
C953 C984 1.499 1_455 S
C954 C948 1.492 . S
C954 C955 1.363 1_455 S
C954 C959 1.390 . S
C955 H920 0.930 . S
C955 C954 1.363 1_655 S
C955 C956 1.372 . S
C956 H921 0.930 . S
C956 C955 1.372 . S
C956 C957 1.383 . S
C957 C956 1.383 . S
C957 C958 1.395 1_655 S
C958 H922 0.930 . S
C958 C957 1.395 1_455 S
C958 C959 1.362 . S
C959 H923 0.930 . S
C959 C954 1.390 . S
C959 C958 1.362 . S
C960 C949 1.492 . S
C960 C961 1.377 1_455 S
C960 C965 1.397 . S
C961 H924 0.931 . S
C961 C960 1.377 1_655 S
C961 C962 1.373 . S
C962 H925 0.943 . S
C962 C961 1.373 . S
C962 C963 1.365 1_655 S
C963 C962 1.365 1_455 S
C963 C964 1.378 . S
C963 C990 1.486 . S
C964 H926 0.930 . S
C964 C963 1.378 . S
C964 C965 1.376 . S
C965 H927 0.929 . S
C965 C960 1.397 . S
C965 C964 1.376 . S
C966 C950 1.509 . S
C966 C967 1.391 1_455 S
C966 C971 1.386 . S
C967 H928 0.930 . S
C967 C966 1.391 1_655 S
C967 C968 1.387 . S
C968 H929 0.941 . S
C968 C967 1.387 . S
C968 C969 1.354 1_655 S
C969 C968 1.354 1_455 S
C969 C970 1.361 . S
C970 H930 0.930 . S
C970 C969 1.361 . S
C970 C971 1.399 . S
C971 H931 0.929 . S
C971 C966 1.386 . S
C971 C970 1.399 . S
C972 C951 1.485 . S
C972 C973 1.394 1_455 S
C972 C977 1.360 . S
C973 H932 0.931 . S
C973 C972 1.394 1_655 S
C973 C974 1.372 . S
C974 H933 0.930 . S
C974 C973 1.372 . S
C974 C975 1.397 1_655 S
C975 C974 1.397 1_455 S
C975 C976 1.390 . S
C975 C991 1.476 . S
C976 H934 0.930 . S
C976 C975 1.390 . S
C976 C977 1.366 . S
C977 H935 0.932 . S
C977 C972 1.360 . S
C977 C976 1.366 . S
C978 C952 1.491 1_655 S
C978 C979 1.380 . S
C978 C983 1.386 1_655 S
C979 H936 0.930 . S
C979 C978 1.380 . S
C979 C980 1.381 . S
C980 H937 0.929 . S
C980 C979 1.381 . S
C980 C981 1.371 . S
C981 C980 1.371 . S
C981 C982 1.380 1_655 S
C982 H938 0.931 . S
C982 C981 1.380 1_455 S
C982 C983 1.387 . S
C983 H939 0.930 . S
C983 C978 1.386 1_455 S
C983 C982 1.387 . S
C984 C953 1.499 1_655 S
C984 C985 1.384 . S
C984 C989 1.356 1_655 S
C985 H940 0.929 . S
C985 C984 1.384 . S
C985 C986 1.386 . S
C986 H941 0.931 . S
C986 C985 1.386 . S
C986 C987 1.349 1_655 S
C987 C986 1.349 1_455 S
C987 C988 1.407 . S
C988 H942 0.930 . S
C988 C987 1.407 . S
C988 C989 1.396 . S
C989 H943 0.929 . S
C989 C984 1.356 1_455 S
C989 C988 1.396 . S
C990 O944 1.300 . S
C990 O945 1.209 . S
C990 C963 1.486 . S
C991 O946 1.199 1_455 S
C991 O947 1.297 . S
C991 C975 1.476 . S
H992 O1018 0.856 . S
H993 O1021 0.854 . S
H994 C1029 0.930 . S
H995 C1030 0.930 . S
H996 C1032 0.930 . S
H997 C1033 0.930 . S
H998 C1035 0.931 . S
H999 C1036 0.930 . S
H1000 C1038 0.930 . S
H1001 C1039 0.929 . S
H1002 C1041 0.930 . S
H1003 C1042 0.931 . S
H1004 C1044 0.930 . S
H1005 C1045 0.929 . S
H1006 C1047 0.931 . S
H1007 C1048 0.930 . S
H1008 C1050 0.930 . S
H1009 C1051 0.932 . S
H1010 C1053 0.930 . S
H1011 C1054 0.929 . S
H1012 C1056 0.931 . S
H1013 C1057 0.930 . S
H1014 C1059 0.929 . S
H1015 C1060 0.931 . S
H1016 C1062 0.930 . S
H1017 C1063 0.929 . S
O1018 H992 0.856 . S
O1018 C1064 1.300 . S
O1019 C1064 1.209 . S
O1020 C1065 1.199 . S
O1021 H993 0.854 . S
O1021 C1065 1.297 . S
C1022 C1023 1.404 . S
C1022 C1027 1.397 . S
C1022 C1028 1.492 . S
C1023 C1022 1.404 . S
C1023 C1024 1.396 . S
C1023 C1034 1.492 . S
C1024 C1023 1.396 . S
C1024 C1025 1.397 . S
C1024 C1040 1.509 . S
C1025 C1024 1.397 . S
C1025 C1026 1.412 . S
C1025 C1046 1.485 . S
C1026 C1025 1.412 . S
C1026 C1027 1.388 . S
C1026 C1052 1.490 . S
C1027 C1022 1.397 . S
C1027 C1026 1.388 . S
C1027 C1058 1.519 . S
C1028 C1022 1.492 . S
C1028 C1029 1.363 . S
C1028 C1033 1.390 . S
C1029 H994 0.930 . S
C1029 C1028 1.363 . S
C1029 C1030 1.372 . S
C1030 H995 0.930 . S
C1030 C1029 1.372 . S
C1030 C1031 1.383 . S
C1031 C1030 1.383 . S
C1031 C1032 1.395 . S
C1032 H996 0.930 . S
C1032 C1031 1.395 . S
C1032 C1033 1.362 . S
C1033 H997 0.930 . S
C1033 C1028 1.390 . S
C1033 C1032 1.362 . S
C1034 C1023 1.492 . S
C1034 C1035 1.377 . S
C1034 C1039 1.397 . S
C1035 H998 0.931 . S
C1035 C1034 1.377 . S
C1035 C1036 1.376 . S
C1036 H999 0.930 . S
C1036 C1035 1.376 . S
C1036 C1037 1.376 . S
C1037 C1036 1.376 . S
C1037 C1038 1.378 . S
C1037 C1064 1.486 . S
C1038 H1000 0.930 . S
C1038 C1037 1.378 . S
C1038 C1039 1.376 . S
C1039 H1001 0.929 . S
C1039 C1034 1.397 . S
C1039 C1038 1.376 . S
C1040 C1024 1.509 . S
C1040 C1041 1.391 . S
C1040 C1045 1.386 . S
C1041 H1002 0.930 . S
C1041 C1040 1.391 . S
C1041 C1042 1.375 . S
C1042 H1003 0.931 . S
C1042 C1041 1.375 . S
C1042 C1043 1.375 . S
C1043 C1042 1.375 . S
C1043 C1044 1.361 . S
C1044 H1004 0.930 . S
C1044 C1043 1.361 . S
C1044 C1045 1.399 . S
C1045 H1005 0.929 . S
C1045 C1040 1.386 . S
C1045 C1044 1.399 . S
C1046 C1025 1.485 . S
C1046 C1047 1.394 . S
C1046 C1051 1.360 . S
C1047 H1006 0.931 . S
C1047 C1046 1.394 . S
C1047 C1048 1.372 . S
C1048 H1007 0.930 . S
C1048 C1047 1.372 . S
C1048 C1049 1.397 . S
C1049 C1048 1.397 . S
C1049 C1050 1.390 . S
C1049 C1065 1.476 . S
C1050 H1008 0.930 . S
C1050 C1049 1.390 . S
C1050 C1051 1.366 . S
C1051 H1009 0.932 . S
C1051 C1046 1.360 . S
C1051 C1050 1.366 . S
C1052 C1026 1.490 . S
C1052 C1053 1.380 . S
C1052 C1057 1.386 . S
C1053 H1010 0.930 . S
C1053 C1052 1.380 . S
C1053 C1054 1.381 . S
C1054 H1011 0.929 . S
C1054 C1053 1.381 . S
C1054 C1055 1.371 . S
C1055 C1054 1.371 . S
C1055 C1056 1.380 . S
C1056 H1012 0.931 . S
C1056 C1055 1.380 . S
C1056 C1057 1.387 . S
C1057 H1013 0.930 . S
C1057 C1052 1.386 . S
C1057 C1056 1.387 . S
C1058 C1027 1.519 . S
C1058 C1059 1.377 . S
C1058 C1063 1.361 . S
C1059 H1014 0.929 . S
C1059 C1058 1.377 . S
C1059 C1060 1.386 . S
C1060 H1015 0.931 . S
C1060 C1059 1.386 . S
C1060 C1061 1.363 . S
C1061 C1060 1.363 . S
C1061 C1062 1.385 . S
C1062 H1016 0.930 . S
C1062 C1061 1.385 . S
C1062 C1063 1.396 . S
C1063 H1017 0.929 . S
C1063 C1058 1.361 . S
C1063 C1062 1.396 . S
C1064 O1018 1.300 . S
C1064 O1019 1.209 . S
C1064 C1037 1.486 . S
C1065 O1020 1.199 . S
C1065 O1021 1.297 . S
C1065 C1049 1.476 . S
H1066 O1092 0.856 . S
H1067 O1095 0.854 . S
H1068 C1103 0.930 . S
H1069 C1104 0.930 . S
H1070 C1106 0.930 . S
H1071 C1107 0.930 . S
H1072 C1109 0.931 . S
H1073 C1110 0.938 . S
H1074 C1112 0.930 . S
H1075 C1113 0.929 . S
H1076 C1115 0.930 . S
H1077 C1116 0.958 . S
H1078 C1118 0.930 . S
H1079 C1119 0.929 . S
H1080 C1121 0.931 . S
H1081 C1122 0.930 . S
H1082 C1124 0.930 . S
H1083 C1125 0.932 . S
H1084 C1127 0.930 . S
H1085 C1128 0.929 . S
H1086 C1130 0.931 . S
H1087 C1131 0.930 . S
H1088 C1133 0.929 . S
H1089 C1134 0.931 . S
H1090 C1136 0.930 . S
H1091 C1137 0.929 . S
O1092 H1066 0.856 . S
O1092 C1138 1.300 . S
O1093 C1138 1.209 . S
O1094 C1139 1.199 1_545 S
O1095 H1067 0.854 . S
O1095 C1139 1.297 . S
C1096 C1097 1.404 . S
C1096 C1101 1.414 . S
C1096 C1102 1.492 . S
C1097 C1096 1.404 . S
C1097 C1098 1.396 . S
C1097 C1108 1.492 . S
C1098 C1097 1.396 . S
C1098 C1099 1.397 . S
C1098 C1114 1.509 . S
C1099 C1098 1.397 . S
C1099 C1100 1.408 . S
C1099 C1120 1.485 . S
C1100 C1099 1.408 . S
C1100 C1101 1.376 . S
C1100 C1126 1.481 1_565 S
C1101 C1096 1.414 . S
C1101 C1100 1.376 . S
C1101 C1132 1.536 1_565 S
C1102 C1096 1.492 . S
C1102 C1103 1.363 1_565 S
C1102 C1107 1.390 . S
C1103 H1068 0.930 . S
C1103 C1102 1.363 1_545 S
C1103 C1104 1.372 . S
C1104 H1069 0.930 . S
C1104 C1103 1.372 . S
C1104 C1105 1.383 . S
C1105 C1104 1.383 . S
C1105 C1106 1.395 1_545 S
C1106 H1070 0.930 . S
C1106 C1105 1.395 1_565 S
C1106 C1107 1.362 . S
C1107 H1071 0.930 . S
C1107 C1102 1.390 . S
C1107 C1106 1.362 . S
C1108 C1097 1.492 . S
C1108 C1109 1.377 1_565 S
C1108 C1113 1.397 . S
C1109 H1072 0.931 . S
C1109 C1108 1.377 1_545 S
C1109 C1110 1.380 . S
C1110 H1073 0.938 . S
C1110 C1109 1.380 . S
C1110 C1111 1.363 1_545 S
C1111 C1110 1.363 1_565 S
C1111 C1112 1.378 . S
C1111 C1138 1.486 . S
C1112 H1074 0.930 . S
C1112 C1111 1.378 . S
C1112 C1113 1.376 . S
C1113 H1075 0.929 . S
C1113 C1108 1.397 . S
C1113 C1112 1.376 . S
C1114 C1098 1.509 . S
C1114 C1115 1.391 1_565 S
C1114 C1119 1.386 . S
C1115 H1076 0.930 . S
C1115 C1114 1.391 1_545 S
C1115 C1116 1.371 . S
C1116 H1077 0.958 . S
C1116 C1115 1.371 . S
C1116 C1117 1.353 1_545 S
C1117 C1116 1.353 1_565 S
C1117 C1118 1.361 . S
C1118 H1078 0.930 . S
C1118 C1117 1.361 . S
C1118 C1119 1.399 . S
C1119 H1079 0.929 . S
C1119 C1114 1.386 . S
C1119 C1118 1.399 . S
C1120 C1099 1.485 . S
C1120 C1121 1.394 1_565 S
C1120 C1125 1.360 . S
C1121 H1080 0.931 . S
C1121 C1120 1.394 1_545 S
C1121 C1122 1.372 . S
C1122 H1081 0.930 . S
C1122 C1121 1.372 . S
C1122 C1123 1.397 1_545 S
C1123 C1122 1.397 1_565 S
C1123 C1124 1.390 . S
C1123 C1139 1.476 . S
C1124 H1082 0.930 . S
C1124 C1123 1.390 . S
C1124 C1125 1.366 . S
C1125 H1083 0.932 . S
C1125 C1120 1.360 . S
C1125 C1124 1.366 . S
C1126 C1100 1.481 1_545 S
C1126 C1127 1.380 . S
C1126 C1131 1.386 1_545 S
C1127 H1084 0.930 . S
C1127 C1126 1.380 . S
C1127 C1128 1.381 . S
C1128 H1085 0.929 . S
C1128 C1127 1.381 . S
C1128 C1129 1.371 . S
C1129 C1128 1.371 . S
C1129 C1130 1.380 1_545 S
C1130 H1086 0.931 . S
C1130 C1129 1.380 1_565 S
C1130 C1131 1.387 . S
C1131 H1087 0.930 . S
C1131 C1126 1.386 1_565 S
C1131 C1130 1.387 . S
C1132 C1101 1.536 1_545 S
C1132 C1133 1.379 . S
C1132 C1137 1.356 1_545 S
C1133 H1088 0.929 . S
C1133 C1132 1.379 . S
C1133 C1134 1.386 . S
C1134 H1089 0.931 . S
C1134 C1133 1.386 . S
C1134 C1135 1.346 1_545 S
C1135 C1134 1.346 1_565 S
C1135 C1136 1.394 . S
C1136 H1090 0.930 . S
C1136 C1135 1.394 . S
C1136 C1137 1.396 . S
C1137 H1091 0.929 . S
C1137 C1132 1.356 1_565 S
C1137 C1136 1.396 . S
C1138 O1092 1.300 . S
C1138 O1093 1.209 . S
C1138 C1111 1.486 . S
C1139 O1094 1.199 1_565 S
C1139 O1095 1.297 . S
C1139 C1123 1.476 . S
H1140 O1166 0.856 . S
H1141 O1169 0.854 . S
H1142 C1177 0.930 . S
H1143 C1178 0.930 . S
H1144 C1180 0.930 . S
H1145 C1181 0.930 . S
H1146 C1183 0.931 . S
H1147 C1184 0.930 . S
H1148 C1186 0.930 . S
H1149 C1187 0.929 . S
H1150 C1189 0.930 . S
H1151 C1190 0.931 . S
H1152 C1192 0.930 . S
H1153 C1193 0.929 . S
H1154 C1195 0.931 . S
H1155 C1196 0.930 . S
H1156 C1198 0.930 . S
H1157 C1199 0.932 . S
H1158 C1201 0.930 . S
H1159 C1202 0.929 . S
H1160 C1204 0.931 . S
H1161 C1205 0.930 . S
H1162 C1207 0.929 . S
H1163 C1208 0.931 . S
H1164 C1210 0.930 . S
H1165 C1211 0.929 . S
O1166 H1140 0.856 . S
O1166 C1212 1.300 . S
O1167 C1212 1.209 1_565 S
O1168 C1213 1.199 1_545 S
O1169 H1141 0.854 . S
O1169 C1213 1.297 . S
C1170 C1171 1.383 . S
C1170 C1175 1.381 1_545 S
C1170 C1176 1.537 . S
C1171 C1170 1.383 . S
C1171 C1172 1.418 . S
C1171 C1182 1.492 . S
C1172 C1171 1.418 . S
C1172 C1173 1.386 1_545 S
C1172 C1188 1.501 . S
C1173 C1172 1.386 1_565 S
C1173 C1174 1.414 . S
C1173 C1194 1.447 . S
C1174 C1173 1.414 . S
C1174 C1175 1.377 . S
C1174 C1200 1.494 . S
C1175 C1170 1.381 1_565 S
C1175 C1174 1.377 . S
C1175 C1206 1.520 . S
C1176 C1170 1.537 . S
C1176 C1177 1.363 . S
C1176 C1181 1.390 1_545 S
C1177 H1142 0.930 . S
C1177 C1176 1.363 . S
C1177 C1178 1.372 . S
C1178 H1143 0.930 . S
C1178 C1177 1.372 . S
C1178 C1179 1.383 . S
C1179 C1178 1.383 . S
C1179 C1180 1.395 1_545 S
C1180 H1144 0.930 . S
C1180 C1179 1.395 1_565 S
C1180 C1181 1.362 . S
C1181 H1145 0.930 . S
C1181 C1176 1.390 1_565 S
C1181 C1180 1.362 . S
C1182 C1171 1.492 . S
C1182 C1183 1.377 . S
C1182 C1187 1.397 1_545 S
C1183 H1146 0.931 . S
C1183 C1182 1.377 . S
C1183 C1184 1.376 . S
C1184 H1147 0.930 . S
C1184 C1183 1.376 . S
C1184 C1185 1.376 . S
C1185 C1184 1.376 . S
C1185 C1186 1.378 1_545 S
C1185 C1212 1.486 . S
C1186 H1148 0.930 . S
C1186 C1185 1.378 1_565 S
C1186 C1187 1.376 . S
C1187 H1149 0.929 . S
C1187 C1182 1.397 1_565 S
C1187 C1186 1.376 . S
C1188 C1172 1.501 . S
C1188 C1189 1.399 . S
C1188 C1193 1.374 1_545 S
C1189 H1150 0.930 . S
C1189 C1188 1.399 . S
C1189 C1190 1.375 . S
C1190 H1151 0.931 . S
C1190 C1189 1.375 . S
C1190 C1191 1.363 1_545 S
C1191 C1190 1.363 1_565 S
C1191 C1192 1.368 . S
C1192 H1152 0.930 . S
C1192 C1191 1.368 . S
C1192 C1193 1.399 . S
C1193 H1153 0.929 . S
C1193 C1188 1.374 1_565 S
C1193 C1192 1.399 . S
C1194 C1173 1.447 . S
C1194 C1195 1.363 1_565 S
C1194 C1199 1.441 . S
C1195 H1154 0.931 . S
C1195 C1194 1.363 1_545 S
C1195 C1196 1.372 . S
C1196 H1155 0.930 . S
C1196 C1195 1.372 . S
C1196 C1197 1.397 1_545 S
C1197 C1196 1.397 1_565 S
C1197 C1198 1.390 . S
C1197 C1213 1.476 . S
C1198 H1156 0.930 . S
C1198 C1197 1.390 . S
C1198 C1199 1.366 . S
C1199 H1157 0.932 . S
C1199 C1194 1.441 . S
C1199 C1198 1.366 . S
C1200 C1174 1.494 . S
C1200 C1201 1.381 1_565 S
C1200 C1205 1.385 . S
C1201 H1158 0.930 . S
C1201 C1200 1.381 1_545 S
C1201 C1202 1.381 . S
C1202 H1159 0.929 . S
C1202 C1201 1.381 . S
C1202 C1203 1.371 . S
C1203 C1202 1.371 . S
C1203 C1204 1.380 1_545 S
C1204 H1160 0.931 . S
C1204 C1203 1.380 1_565 S
C1204 C1205 1.387 . S
C1205 H1161 0.930 . S
C1205 C1200 1.385 . S
C1205 C1204 1.387 . S
C1206 C1175 1.520 . S
C1206 C1207 1.377 1_565 S
C1206 C1211 1.361 . S
C1207 H1162 0.929 . S
C1207 C1206 1.377 1_545 S
C1207 C1208 1.386 . S
C1208 H1163 0.931 . S
C1208 C1207 1.386 . S
C1208 C1209 1.363 1_545 S
C1209 C1208 1.363 1_565 S
C1209 C1210 1.385 . S
C1210 H1164 0.930 . S
C1210 C1209 1.385 . S
C1210 C1211 1.396 . S
C1211 H1165 0.929 . S
C1211 C1206 1.361 . S
C1211 C1210 1.396 . S
C1212 O1166 1.300 . S
C1212 O1167 1.209 1_545 S
C1212 C1185 1.486 . S
C1213 O1168 1.199 1_565 S
C1213 O1169 1.297 . S
C1213 C1197 1.476 . S
H1214 O1240 0.856 . S
H1215 O1243 0.854 . S
H1216 C1251 0.930 . S
H1217 C1252 0.930 . S
H1218 C1254 0.930 . S
H1219 C1255 0.930 . S
H1220 C1257 0.931 . S
H1221 C1258 0.930 . S
H1222 C1260 0.930 . S
H1223 C1261 0.929 . S
H1224 C1263 0.930 . S
H1225 C1264 0.931 . S
H1226 C1266 0.930 . S
H1227 C1267 0.929 . S
H1228 C1269 0.931 . S
H1229 C1270 0.930 . S
H1230 C1272 0.930 . S
H1231 C1273 0.932 . S
H1232 C1275 0.930 . S
H1233 C1276 0.929 . S
H1234 C1278 0.931 . S
H1235 C1279 0.930 . S
H1236 C1281 0.929 . S
H1237 C1282 0.931 . S
H1238 C1284 0.930 . S
H1239 C1285 0.929 . S
O1240 H1214 0.856 . S
O1240 C1286 1.300 . S
O1241 C1286 1.209 1_455 S
O1242 C1287 1.199 1_655 S
O1243 H1215 0.854 . S
O1243 C1287 1.297 . S
C1244 C1245 1.404 . S
C1244 C1249 1.398 . S
C1244 C1250 1.492 . S
C1245 C1244 1.404 . S
C1245 C1246 1.396 . S
C1245 C1256 1.492 . S
C1246 C1245 1.396 . S
C1246 C1247 1.398 . S
C1246 C1262 1.509 . S
C1247 C1246 1.398 . S
C1247 C1248 1.402 1_655 S
C1247 C1268 1.520 1_655 S
C1248 C1247 1.402 1_455 S
C1248 C1249 1.400 1_455 S
C1248 C1274 1.500 . S
C1249 C1244 1.398 . S
C1249 C1248 1.400 1_655 S
C1249 C1280 1.523 1_655 S
C1250 C1244 1.492 . S
C1250 C1251 1.363 . S
C1250 C1255 1.390 1_655 S
C1251 H1216 0.930 . S
C1251 C1250 1.363 . S
C1251 C1252 1.372 . S
C1252 H1217 0.930 . S
C1252 C1251 1.372 . S
C1252 C1253 1.383 . S
C1253 C1252 1.383 . S
C1253 C1254 1.395 1_655 S
C1254 H1218 0.930 . S
C1254 C1253 1.395 1_455 S
C1254 C1255 1.362 . S
C1255 H1219 0.930 . S
C1255 C1250 1.390 1_455 S
C1255 C1254 1.362 . S
C1256 C1245 1.492 . S
C1256 C1257 1.377 . S
C1256 C1261 1.397 1_655 S
C1257 H1220 0.931 . S
C1257 C1256 1.377 . S
C1257 C1258 1.376 . S
C1258 H1221 0.930 . S
C1258 C1257 1.376 . S
C1258 C1259 1.376 . S
C1259 C1258 1.376 . S
C1259 C1260 1.378 1_655 S
C1259 C1286 1.486 . S
C1260 H1222 0.930 . S
C1260 C1259 1.378 1_455 S
C1260 C1261 1.376 . S
C1261 H1223 0.929 . S
C1261 C1256 1.397 1_455 S
C1261 C1260 1.376 . S
C1262 C1246 1.509 . S
C1262 C1263 1.391 . S
C1262 C1267 1.386 1_655 S
C1263 H1224 0.930 . S
C1263 C1262 1.391 . S
C1263 C1264 1.375 . S
C1264 H1225 0.931 . S
C1264 C1263 1.375 . S
C1264 C1265 1.375 . S
C1265 C1264 1.375 . S
C1265 C1266 1.361 1_655 S
C1266 H1226 0.930 . S
C1266 C1265 1.361 1_455 S
C1266 C1267 1.399 . S
C1267 H1227 0.929 . S
C1267 C1262 1.386 1_455 S
C1267 C1266 1.399 . S
C1268 C1247 1.520 1_455 S
C1268 C1269 1.331 1_455 S
C1268 C1273 1.390 . S
C1269 H1228 0.931 . S
C1269 C1268 1.331 1_655 S
C1269 C1270 1.372 . S
C1270 H1229 0.930 . S
C1270 C1269 1.372 . S
C1270 C1271 1.397 1_655 S
C1271 C1270 1.397 1_455 S
C1271 C1272 1.390 . S
C1271 C1287 1.476 . S
C1272 H1230 0.930 . S
C1272 C1271 1.390 . S
C1272 C1273 1.366 . S
C1273 H1231 0.932 . S
C1273 C1268 1.390 . S
C1273 C1272 1.366 . S
C1274 C1248 1.500 . S
C1274 C1275 1.331 1_455 S
C1274 C1279 1.423 . S
C1275 H1232 0.930 . S
C1275 C1274 1.331 1_655 S
C1275 C1276 1.381 . S
C1276 H1233 0.929 . S
C1276 C1275 1.381 . S
C1276 C1277 1.340 1_655 S
C1277 C1276 1.340 1_455 S
C1277 C1278 1.431 . S
C1278 H1234 0.931 . S
C1278 C1277 1.431 . S
C1278 C1279 1.387 . S
C1279 H1235 0.930 . S
C1279 C1274 1.423 . S
C1279 C1278 1.387 . S
C1280 C1249 1.523 1_455 S
C1280 C1281 1.377 1_455 S
C1280 C1285 1.361 . S
C1281 H1236 0.929 . S
C1281 C1280 1.377 1_655 S
C1281 C1282 1.386 . S
C1282 H1237 0.931 . S
C1282 C1281 1.386 . S
C1282 C1283 1.363 1_655 S
C1283 C1282 1.363 1_455 S
C1283 C1284 1.385 . S
C1284 H1238 0.930 . S
C1284 C1283 1.385 . S
C1284 C1285 1.396 . S
C1285 H1239 0.929 . S
C1285 C1280 1.361 . S
C1285 C1284 1.396 . S
C1286 O1240 1.300 . S
C1286 O1241 1.209 1_655 S
C1286 C1259 1.486 . S
C1287 O1242 1.199 1_455 S
C1287 O1243 1.297 . S
C1287 C1271 1.476 . S
H1288 O1314 0.856 . S
H1289 O1317 0.854 . S
H1290 C1325 0.930 . S
H1291 C1326 0.930 . S
H1292 C1328 0.930 . S
H1293 C1329 0.930 . S
H1294 C1331 0.931 . S
H1295 C1332 0.930 . S
H1296 C1334 0.930 . S
H1297 C1335 0.929 . S
H1298 C1337 0.930 . S
H1299 C1338 0.931 . S
H1300 C1340 0.930 . S
H1301 C1341 0.929 . S
H1302 C1343 0.931 . S
H1303 C1344 0.930 . S
H1304 C1346 0.930 . S
H1305 C1347 0.932 . S
H1306 C1349 0.930 . S
H1307 C1350 0.929 . S
H1308 C1352 0.931 . S
H1309 C1353 0.930 . S
H1310 C1355 0.929 . S
H1311 C1356 0.931 . S
H1312 C1358 0.930 . S
H1313 C1359 0.929 . S
O1314 H1288 0.856 . S
O1314 C1360 1.300 . S
O1315 C1360 1.209 . S
O1316 C1361 1.199 . S
O1317 H1289 0.854 . S
O1317 C1361 1.297 . S
C1318 C1319 1.404 . S
C1318 C1323 1.397 . S
C1318 C1324 1.492 . S
C1319 C1318 1.404 . S
C1319 C1320 1.396 . S
C1319 C1330 1.492 . S
C1320 C1319 1.396 . S
C1320 C1321 1.397 . S
C1320 C1336 1.509 . S
C1321 C1320 1.397 . S
C1321 C1322 1.412 . S
C1321 C1342 1.485 . S
C1322 C1321 1.412 . S
C1322 C1323 1.388 . S
C1322 C1348 1.490 . S
C1323 C1318 1.397 . S
C1323 C1322 1.388 . S
C1323 C1354 1.519 . S
C1324 C1318 1.492 . S
C1324 C1325 1.363 . S
C1324 C1329 1.390 . S
C1325 H1290 0.930 . S
C1325 C1324 1.363 . S
C1325 C1326 1.372 . S
C1326 H1291 0.930 . S
C1326 C1325 1.372 . S
C1326 C1327 1.383 . S
C1327 C1326 1.383 . S
C1327 C1328 1.395 . S
C1328 H1292 0.930 . S
C1328 C1327 1.395 . S
C1328 C1329 1.362 . S
C1329 H1293 0.930 . S
C1329 C1324 1.390 . S
C1329 C1328 1.362 . S
C1330 C1319 1.492 . S
C1330 C1331 1.377 . S
C1330 C1335 1.397 . S
C1331 H1294 0.931 . S
C1331 C1330 1.377 . S
C1331 C1332 1.376 . S
C1332 H1295 0.930 . S
C1332 C1331 1.376 . S
C1332 C1333 1.376 . S
C1333 C1332 1.376 . S
C1333 C1334 1.378 . S
C1333 C1360 1.486 . S
C1334 H1296 0.930 . S
C1334 C1333 1.378 . S
C1334 C1335 1.376 . S
C1335 H1297 0.929 . S
C1335 C1330 1.397 . S
C1335 C1334 1.376 . S
C1336 C1320 1.509 . S
C1336 C1337 1.391 . S
C1336 C1341 1.386 . S
C1337 H1298 0.930 . S
C1337 C1336 1.391 . S
C1337 C1338 1.375 . S
C1338 H1299 0.931 . S
C1338 C1337 1.375 . S
C1338 C1339 1.375 . S
C1339 C1338 1.375 . S
C1339 C1340 1.361 . S
C1340 H1300 0.930 . S
C1340 C1339 1.361 . S
C1340 C1341 1.399 . S
C1341 H1301 0.929 . S
C1341 C1336 1.386 . S
C1341 C1340 1.399 . S
C1342 C1321 1.485 . S
C1342 C1343 1.394 . S
C1342 C1347 1.360 . S
C1343 H1302 0.931 . S
C1343 C1342 1.394 . S
C1343 C1344 1.372 . S
C1344 H1303 0.930 . S
C1344 C1343 1.372 . S
C1344 C1345 1.397 . S
C1345 C1344 1.397 . S
C1345 C1346 1.390 . S
C1345 C1361 1.476 . S
C1346 H1304 0.930 . S
C1346 C1345 1.390 . S
C1346 C1347 1.366 . S
C1347 H1305 0.932 . S
C1347 C1342 1.360 . S
C1347 C1346 1.366 . S
C1348 C1322 1.490 . S
C1348 C1349 1.380 . S
C1348 C1353 1.386 . S
C1349 H1306 0.930 . S
C1349 C1348 1.380 . S
C1349 C1350 1.381 . S
C1350 H1307 0.929 . S
C1350 C1349 1.381 . S
C1350 C1351 1.371 . S
C1351 C1350 1.371 . S
C1351 C1352 1.380 . S
C1352 H1308 0.931 . S
C1352 C1351 1.380 . S
C1352 C1353 1.387 . S
C1353 H1309 0.930 . S
C1353 C1348 1.386 . S
C1353 C1352 1.387 . S
C1354 C1323 1.519 . S
C1354 C1355 1.377 . S
C1354 C1359 1.361 . S
C1355 H1310 0.929 . S
C1355 C1354 1.377 . S
C1355 C1356 1.386 . S
C1356 H1311 0.931 . S
C1356 C1355 1.386 . S
C1356 C1357 1.363 . S
C1357 C1356 1.363 . S
C1357 C1358 1.385 . S
C1358 H1312 0.930 . S
C1358 C1357 1.385 . S
C1358 C1359 1.396 . S
C1359 H1313 0.929 . S
C1359 C1354 1.361 . S
C1359 C1358 1.396 . S
C1360 O1314 1.300 . S
C1360 O1315 1.209 . S
C1360 C1333 1.486 . S
C1361 O1316 1.199 . S
C1361 O1317 1.297 . S
C1361 C1345 1.476 . S
H1362 O1388 0.856 . S
H1363 O1391 0.854 . S
H1364 C1399 0.930 . S
H1365 C1400 0.930 . S
H1366 C1402 0.930 . S
H1367 C1403 0.930 . S
H1368 C1405 0.931 . S
H1369 C1406 0.930 . S
H1370 C1408 0.930 . S
H1371 C1409 0.929 . S
H1372 C1411 0.930 . S
H1373 C1412 0.931 . S
H1374 C1414 0.930 . S
H1375 C1415 0.929 . S
H1376 C1417 0.931 . S
H1377 C1418 0.930 . S
H1378 C1420 0.930 . S
H1379 C1421 0.932 . S
H1380 C1423 0.930 . S
H1381 C1424 0.929 . S
H1382 C1426 0.931 . S
H1383 C1427 0.930 . S
H1384 C1429 0.929 . S
H1385 C1430 0.931 . S
H1386 C1432 0.930 . S
H1387 C1433 0.929 . S
O1388 H1362 0.856 . S
O1388 C1434 1.300 . S
O1389 C1434 1.209 . S
O1390 C1435 1.199 . S
O1391 H1363 0.854 . S
O1391 C1435 1.297 . S
C1392 C1393 1.404 . S
C1392 C1397 1.397 . S
C1392 C1398 1.492 . S
C1393 C1392 1.404 . S
C1393 C1394 1.396 . S
C1393 C1404 1.492 . S
C1394 C1393 1.396 . S
C1394 C1395 1.397 . S
C1394 C1410 1.509 . S
C1395 C1394 1.397 . S
C1395 C1396 1.412 . S
C1395 C1416 1.485 . S
C1396 C1395 1.412 . S
C1396 C1397 1.388 . S
C1396 C1422 1.490 . S
C1397 C1392 1.397 . S
C1397 C1396 1.388 . S
C1397 C1428 1.519 . S
C1398 C1392 1.492 . S
C1398 C1399 1.363 . S
C1398 C1403 1.390 . S
C1399 H1364 0.930 . S
C1399 C1398 1.363 . S
C1399 C1400 1.372 . S
C1400 H1365 0.930 . S
C1400 C1399 1.372 . S
C1400 C1401 1.383 . S
C1401 C1400 1.383 . S
C1401 C1402 1.395 . S
C1402 H1366 0.930 . S
C1402 C1401 1.395 . S
C1402 C1403 1.362 . S
C1403 H1367 0.930 . S
C1403 C1398 1.390 . S
C1403 C1402 1.362 . S
C1404 C1393 1.492 . S
C1404 C1405 1.377 . S
C1404 C1409 1.397 . S
C1405 H1368 0.931 . S
C1405 C1404 1.377 . S
C1405 C1406 1.376 . S
C1406 H1369 0.930 . S
C1406 C1405 1.376 . S
C1406 C1407 1.376 . S
C1407 C1406 1.376 . S
C1407 C1408 1.378 . S
C1407 C1434 1.486 . S
C1408 H1370 0.930 . S
C1408 C1407 1.378 . S
C1408 C1409 1.376 . S
C1409 H1371 0.929 . S
C1409 C1404 1.397 . S
C1409 C1408 1.376 . S
C1410 C1394 1.509 . S
C1410 C1411 1.391 . S
C1410 C1415 1.386 . S
C1411 H1372 0.930 . S
C1411 C1410 1.391 . S
C1411 C1412 1.375 . S
C1412 H1373 0.931 . S
C1412 C1411 1.375 . S
C1412 C1413 1.375 . S
C1413 C1412 1.375 . S
C1413 C1414 1.361 . S
C1414 H1374 0.930 . S
C1414 C1413 1.361 . S
C1414 C1415 1.399 . S
C1415 H1375 0.929 . S
C1415 C1410 1.386 . S
C1415 C1414 1.399 . S
C1416 C1395 1.485 . S
C1416 C1417 1.394 . S
C1416 C1421 1.360 . S
C1417 H1376 0.931 . S
C1417 C1416 1.394 . S
C1417 C1418 1.372 . S
C1418 H1377 0.930 . S
C1418 C1417 1.372 . S
C1418 C1419 1.397 . S
C1419 C1418 1.397 . S
C1419 C1420 1.390 . S
C1419 C1435 1.476 . S
C1420 H1378 0.930 . S
C1420 C1419 1.390 . S
C1420 C1421 1.366 . S
C1421 H1379 0.932 . S
C1421 C1416 1.360 . S
C1421 C1420 1.366 . S
C1422 C1396 1.490 . S
C1422 C1423 1.380 . S
C1422 C1427 1.386 . S
C1423 H1380 0.930 . S
C1423 C1422 1.380 . S
C1423 C1424 1.381 . S
C1424 H1381 0.929 . S
C1424 C1423 1.381 . S
C1424 C1425 1.371 . S
C1425 C1424 1.371 . S
C1425 C1426 1.380 . S
C1426 H1382 0.931 . S
C1426 C1425 1.380 . S
C1426 C1427 1.387 . S
C1427 H1383 0.930 . S
C1427 C1422 1.386 . S
C1427 C1426 1.387 . S
C1428 C1397 1.519 . S
C1428 C1429 1.377 . S
C1428 C1433 1.361 . S
C1429 H1384 0.929 . S
C1429 C1428 1.377 . S
C1429 C1430 1.386 . S
C1430 H1385 0.931 . S
C1430 C1429 1.386 . S
C1430 C1431 1.363 . S
C1431 C1430 1.363 . S
C1431 C1432 1.385 . S
C1432 H1386 0.930 . S
C1432 C1431 1.385 . S
C1432 C1433 1.396 . S
C1433 H1387 0.929 . S
C1433 C1428 1.361 . S
C1433 C1432 1.396 . S
C1434 O1388 1.300 . S
C1434 O1389 1.209 . S
C1434 C1407 1.486 . S
C1435 O1390 1.199 . S
C1435 O1391 1.297 . S
C1435 C1419 1.476 . S
H1436 O1462 0.856 . S
H1437 O1465 0.854 . S
H1438 C1473 0.930 . S
H1439 C1474 0.930 . S
H1440 C1476 0.930 . S
H1441 C1477 0.930 . S
H1442 C1479 0.931 . S
H1443 C1480 0.930 . S
H1444 C1482 0.930 . S
H1445 C1483 0.929 . S
H1446 C1485 0.930 . S
H1447 C1486 0.931 . S
H1448 C1488 0.930 . S
H1449 C1489 0.929 . S
H1450 C1491 0.931 . S
H1451 C1492 0.930 . S
H1452 C1494 0.930 . S
H1453 C1495 0.932 . S
H1454 C1497 0.930 . S
H1455 C1498 0.929 . S
H1456 C1500 0.931 . S
H1457 C1501 0.930 . S
H1458 C1503 0.929 . S
H1459 C1504 0.931 . S
H1460 C1506 0.930 . S
H1461 C1507 0.929 . S
O1462 H1436 0.856 . S
O1462 C1508 1.300 . S
O1463 C1508 1.209 . S
O1464 C1509 1.199 . S
O1465 H1437 0.854 . S
O1465 C1509 1.297 . S
C1466 C1467 1.404 . S
C1466 C1471 1.397 . S
C1466 C1472 1.492 . S
C1467 C1466 1.404 . S
C1467 C1468 1.396 . S
C1467 C1478 1.492 . S
C1468 C1467 1.396 . S
C1468 C1469 1.397 . S
C1468 C1484 1.509 . S
C1469 C1468 1.397 . S
C1469 C1470 1.412 . S
C1469 C1490 1.485 . S
C1470 C1469 1.412 . S
C1470 C1471 1.388 . S
C1470 C1496 1.490 . S
C1471 C1466 1.397 . S
C1471 C1470 1.388 . S
C1471 C1502 1.519 . S
C1472 C1466 1.492 . S
C1472 C1473 1.363 . S
C1472 C1477 1.390 . S
C1473 H1438 0.930 . S
C1473 C1472 1.363 . S
C1473 C1474 1.372 . S
C1474 H1439 0.930 . S
C1474 C1473 1.372 . S
C1474 C1475 1.383 . S
C1475 C1474 1.383 . S
C1475 C1476 1.395 . S
C1476 H1440 0.930 . S
C1476 C1475 1.395 . S
C1476 C1477 1.362 . S
C1477 H1441 0.930 . S
C1477 C1472 1.390 . S
C1477 C1476 1.362 . S
C1478 C1467 1.492 . S
C1478 C1479 1.377 . S
C1478 C1483 1.397 . S
C1479 H1442 0.931 . S
C1479 C1478 1.377 . S
C1479 C1480 1.376 . S
C1480 H1443 0.930 . S
C1480 C1479 1.376 . S
C1480 C1481 1.376 . S
C1481 C1480 1.376 . S
C1481 C1482 1.378 . S
C1481 C1508 1.486 . S
C1482 H1444 0.930 . S
C1482 C1481 1.378 . S
C1482 C1483 1.376 . S
C1483 H1445 0.929 . S
C1483 C1478 1.397 . S
C1483 C1482 1.376 . S
C1484 C1468 1.509 . S
C1484 C1485 1.391 . S
C1484 C1489 1.386 . S
C1485 H1446 0.930 . S
C1485 C1484 1.391 . S
C1485 C1486 1.375 . S
C1486 H1447 0.931 . S
C1486 C1485 1.375 . S
C1486 C1487 1.375 . S
C1487 C1486 1.375 . S
C1487 C1488 1.361 . S
C1488 H1448 0.930 . S
C1488 C1487 1.361 . S
C1488 C1489 1.399 . S
C1489 H1449 0.929 . S
C1489 C1484 1.386 . S
C1489 C1488 1.399 . S
C1490 C1469 1.485 . S
C1490 C1491 1.394 . S
C1490 C1495 1.360 . S
C1491 H1450 0.931 . S
C1491 C1490 1.394 . S
C1491 C1492 1.372 . S
C1492 H1451 0.930 . S
C1492 C1491 1.372 . S
C1492 C1493 1.397 . S
C1493 C1492 1.397 . S
C1493 C1494 1.390 . S
C1493 C1509 1.476 . S
C1494 H1452 0.930 . S
C1494 C1493 1.390 . S
C1494 C1495 1.366 . S
C1495 H1453 0.932 . S
C1495 C1490 1.360 . S
C1495 C1494 1.366 . S
C1496 C1470 1.490 . S
C1496 C1497 1.380 . S
C1496 C1501 1.386 . S
C1497 H1454 0.930 . S
C1497 C1496 1.380 . S
C1497 C1498 1.381 . S
C1498 H1455 0.929 . S
C1498 C1497 1.381 . S
C1498 C1499 1.371 . S
C1499 C1498 1.371 . S
C1499 C1500 1.380 . S
C1500 H1456 0.931 . S
C1500 C1499 1.380 . S
C1500 C1501 1.387 . S
C1501 H1457 0.930 . S
C1501 C1496 1.386 . S
C1501 C1500 1.387 . S
C1502 C1471 1.519 . S
C1502 C1503 1.377 . S
C1502 C1507 1.361 . S
C1503 H1458 0.929 . S
C1503 C1502 1.377 . S
C1503 C1504 1.386 . S
C1504 H1459 0.931 . S
C1504 C1503 1.386 . S
C1504 C1505 1.363 . S
C1505 C1504 1.363 . S
C1505 C1506 1.385 . S
C1506 H1460 0.930 . S
C1506 C1505 1.385 . S
C1506 C1507 1.396 . S
C1507 H1461 0.929 . S
C1507 C1502 1.361 . S
C1507 C1506 1.396 . S
C1508 O1462 1.300 . S
C1508 O1463 1.209 . S
C1508 C1481 1.486 . S
C1509 O1464 1.199 . S
C1509 O1465 1.297 . S
C1509 C1493 1.476 . S
H1510 O1536 0.856 . S
H1511 O1539 0.854 . S
H1512 C1547 0.930 . S
H1513 C1548 0.930 . S
H1514 C1550 0.930 . S
H1515 C1551 0.930 . S
H1516 C1553 0.931 . S
H1517 C1554 0.930 . S
H1518 C1556 0.930 . S
H1519 C1557 0.929 . S
H1520 C1559 0.930 . S
H1521 C1560 0.931 . S
H1522 C1562 0.930 . S
H1523 C1563 0.929 . S
H1524 C1565 0.931 . S
H1525 C1566 0.930 . S
H1526 C1568 0.930 . S
H1527 C1569 0.932 . S
H1528 C1571 0.930 . S
H1529 C1572 0.929 . S
H1530 C1574 0.931 . S
H1531 C1575 0.930 . S
H1532 C1577 0.929 . S
H1533 C1578 0.931 . S
H1534 C1580 0.930 . S
H1535 C1581 0.929 . S
O1536 H1510 0.856 . S
O1536 C1582 1.300 . S
O1537 C1582 1.209 . S
O1538 C1583 1.199 . S
O1539 H1511 0.854 . S
O1539 C1583 1.297 . S
C1540 C1541 1.404 . S
C1540 C1545 1.397 . S
C1540 C1546 1.492 . S
C1541 C1540 1.404 . S
C1541 C1542 1.396 . S
C1541 C1552 1.492 . S
C1542 C1541 1.396 . S
C1542 C1543 1.397 . S
C1542 C1558 1.509 . S
C1543 C1542 1.397 . S
C1543 C1544 1.412 . S
C1543 C1564 1.485 . S
C1544 C1543 1.412 . S
C1544 C1545 1.388 . S
C1544 C1570 1.490 . S
C1545 C1540 1.397 . S
C1545 C1544 1.388 . S
C1545 C1576 1.519 . S
C1546 C1540 1.492 . S
C1546 C1547 1.363 . S
C1546 C1551 1.390 . S
C1547 H1512 0.930 . S
C1547 C1546 1.363 . S
C1547 C1548 1.372 . S
C1548 H1513 0.930 . S
C1548 C1547 1.372 . S
C1548 C1549 1.383 . S
C1549 C1548 1.383 . S
C1549 C1550 1.395 . S
C1550 H1514 0.930 . S
C1550 C1549 1.395 . S
C1550 C1551 1.362 . S
C1551 H1515 0.930 . S
C1551 C1546 1.390 . S
C1551 C1550 1.362 . S
C1552 C1541 1.492 . S
C1552 C1553 1.377 . S
C1552 C1557 1.397 . S
C1553 H1516 0.931 . S
C1553 C1552 1.377 . S
C1553 C1554 1.376 . S
C1554 H1517 0.930 . S
C1554 C1553 1.376 . S
C1554 C1555 1.376 . S
C1555 C1554 1.376 . S
C1555 C1556 1.378 . S
C1555 C1582 1.486 . S
C1556 H1518 0.930 . S
C1556 C1555 1.378 . S
C1556 C1557 1.376 . S
C1557 H1519 0.929 . S
C1557 C1552 1.397 . S
C1557 C1556 1.376 . S
C1558 C1542 1.509 . S
C1558 C1559 1.391 . S
C1558 C1563 1.386 . S
C1559 H1520 0.930 . S
C1559 C1558 1.391 . S
C1559 C1560 1.375 . S
C1560 H1521 0.931 . S
C1560 C1559 1.375 . S
C1560 C1561 1.375 . S
C1561 C1560 1.375 . S
C1561 C1562 1.361 . S
C1562 H1522 0.930 . S
C1562 C1561 1.361 . S
C1562 C1563 1.399 . S
C1563 H1523 0.929 . S
C1563 C1558 1.386 . S
C1563 C1562 1.399 . S
C1564 C1543 1.485 . S
C1564 C1565 1.394 . S
C1564 C1569 1.360 . S
C1565 H1524 0.931 . S
C1565 C1564 1.394 . S
C1565 C1566 1.372 . S
C1566 H1525 0.930 . S
C1566 C1565 1.372 . S
C1566 C1567 1.397 . S
C1567 C1566 1.397 . S
C1567 C1568 1.390 . S
C1567 C1583 1.476 . S
C1568 H1526 0.930 . S
C1568 C1567 1.390 . S
C1568 C1569 1.366 . S
C1569 H1527 0.932 . S
C1569 C1564 1.360 . S
C1569 C1568 1.366 . S
C1570 C1544 1.490 . S
C1570 C1571 1.380 . S
C1570 C1575 1.386 . S
C1571 H1528 0.930 . S
C1571 C1570 1.380 . S
C1571 C1572 1.381 . S
C1572 H1529 0.929 . S
C1572 C1571 1.381 . S
C1572 C1573 1.371 . S
C1573 C1572 1.371 . S
C1573 C1574 1.380 . S
C1574 H1530 0.931 . S
C1574 C1573 1.380 . S
C1574 C1575 1.387 . S
C1575 H1531 0.930 . S
C1575 C1570 1.386 . S
C1575 C1574 1.387 . S
C1576 C1545 1.519 . S
C1576 C1577 1.377 . S
C1576 C1581 1.361 . S
C1577 H1532 0.929 . S
C1577 C1576 1.377 . S
C1577 C1578 1.386 . S
C1578 H1533 0.931 . S
C1578 C1577 1.386 . S
C1578 C1579 1.363 . S
C1579 C1578 1.363 . S
C1579 C1580 1.385 . S
C1580 H1534 0.930 . S
C1580 C1579 1.385 . S
C1580 C1581 1.396 . S
C1581 H1535 0.929 . S
C1581 C1576 1.361 . S
C1581 C1580 1.396 . S
C1582 O1536 1.300 . S
C1582 O1537 1.209 . S
C1582 C1555 1.486 . S
C1583 O1538 1.199 . S
C1583 O1539 1.297 . S
C1583 C1567 1.476 . S
H1584 C1592 0.929 . S
H1585 C1594 0.930 . S
H1586 C1596 0.930 . S
H1587 C1599 0.929 . S
H1588 C1602 0.930 . S
H1589 C1604 0.960 . S
H1590 C1604 0.960 . S
H1591 C1604 0.960 . S
C1592 H1584 0.929 . S
C1592 C1593 1.377 1_655 S
C1592 C1594 1.384 . S
C1593 C1592 1.377 1_455 S
C1593 C1599 1.390 . S
C1594 H1585 0.930 . S
C1594 C1592 1.384 . S
C1594 C1595 1.372 . S
C1595 C1594 1.372 . S
C1595 C1596 1.400 1_655 S
C1595 C1600 1.490 . S
C1596 H1586 0.930 . S
C1596 C1595 1.400 1_455 S
C1596 C1599 1.386 . S
H1597 C1613 0.930 . S
H1598 C1614 0.931 . S
C1599 H1587 0.929 . S
C1599 C1593 1.390 . S
C1599 C1596 1.386 . S
C1600 C1595 1.490 . S
C1600 C1602 1.395 . S
C1600 C1603 1.403 1_655 S
H1601 C1607 0.930 . S
C1602 H1588 0.930 . S
C1602 C1600 1.395 . S
C1602 C1605 1.403 . S
C1603 C1600 1.403 1_455 S
C1603 C1604 1.524 . S
C1603 C1607 1.400 . S
C1604 H1589 0.960 . S
C1604 H1590 0.960 . S
C1604 H1591 0.960 . S
C1604 C1603 1.524 . S
C1605 C1602 1.403 . S
C1605 C1606 1.392 . S
C1605 C1609 1.495 . S
C1606 C1605 1.392 . S
C1606 C1607 1.385 1_655 S
C1606 C1608 1.478 . S
C1607 H1601 0.930 . S
C1607 C1603 1.400 . S
C1607 C1606 1.385 1_455 S
C1608 C1606 1.478 . S
C1608 C1610 1.381 . S
C1608 C1614 1.383 . S
C1609 C1605 1.495 . S
C1609 H1615 0.959 . S
C1609 H1616 0.961 . S
C1609 H1617 0.960 . S
C1610 C1608 1.381 . S
C1610 C1611 1.394 . S
C1610 H1618 0.930 . S
C1611 C1610 1.394 . S
C1611 C1612 1.383 . S
C1611 H1619 0.929 . S
C1612 C1611 1.383 . S
C1612 C1613 1.377 . S
C1613 H1597 0.930 . S
C1613 C1612 1.377 . S
C1613 C1614 1.379 . S
C1614 H1598 0.931 . S
C1614 C1608 1.383 . S
C1614 C1613 1.379 . S
H1615 C1609 0.959 . S
H1616 C1609 0.961 . S
H1617 C1609 0.960 . S
H1618 C1610 0.930 . S
H1619 C1611 0.929 . S
H1620 C1628 0.929 . S
H1621 C1630 0.930 . S
H1622 C1632 0.930 . S
H1623 C1635 0.929 . S
H1624 C1638 0.930 . S
H1625 C1640 0.960 . S
H1626 C1640 0.960 . S
H1627 C1640 0.960 . S
C1628 H1620 0.929 . S
C1628 C1629 1.377 . S
C1628 C1630 1.384 . S
C1629 C1628 1.377 . S
C1629 C1635 1.390 . S
C1630 H1621 0.930 . S
C1630 C1628 1.384 . S
C1630 C1631 1.372 . S
C1631 C1630 1.372 . S
C1631 C1632 1.400 . S
C1631 C1636 1.490 . S
C1632 H1622 0.930 . S
C1632 C1631 1.400 . S
C1632 C1635 1.386 . S
H1633 C1649 0.930 . S
H1634 C1650 0.931 . S
C1635 H1623 0.929 . S
C1635 C1629 1.390 . S
C1635 C1632 1.386 . S
C1636 C1631 1.490 . S
C1636 C1638 1.395 . S
C1636 C1639 1.403 . S
H1637 C1643 0.930 . S
C1638 H1624 0.930 . S
C1638 C1636 1.395 . S
C1638 C1641 1.403 . S
C1639 C1636 1.403 . S
C1639 C1640 1.524 . S
C1639 C1643 1.400 . S
C1640 H1625 0.960 . S
C1640 H1626 0.960 . S
C1640 H1627 0.960 . S
C1640 C1639 1.524 . S
C1641 C1638 1.403 . S
C1641 C1642 1.392 . S
C1641 C1645 1.495 . S
C1642 C1641 1.392 . S
C1642 C1643 1.385 . S
C1642 C1644 1.478 . S
C1643 H1637 0.930 . S
C1643 C1639 1.400 . S
C1643 C1642 1.385 . S
C1644 C1642 1.478 . S
C1644 C1646 1.381 . S
C1644 C1650 1.383 . S
C1645 C1641 1.495 . S
C1645 H1651 0.959 . S
C1645 H1652 0.961 . S
C1645 H1653 0.960 . S
C1646 C1644 1.381 . S
C1646 C1647 1.394 . S
C1646 H1654 0.930 . S
C1647 C1646 1.394 . S
C1647 C1648 1.383 . S
C1647 H1655 0.929 . S
C1648 C1647 1.383 . S
C1648 C1649 1.377 . S
C1649 H1633 0.930 . S
C1649 C1648 1.377 . S
C1649 C1650 1.379 . S
C1650 H1634 0.931 . S
C1650 C1644 1.383 . S
C1650 C1649 1.379 . S
H1651 C1645 0.959 . S
H1652 C1645 0.961 . S
H1653 C1645 0.960 . S
H1654 C1646 0.930 . S
H1655 C1647 0.929 . S
H1656 C1664 0.927 1_565 S
H1657 C1666 0.933 1_565 S
H1658 C1668 0.930 . S
H1659 C1671 0.929 . S
H1660 C1674 0.930 . S
H1661 C1676 0.960 . S
H1662 C1676 0.960 . S
H1663 C1676 0.960 . S
C1664 H1656 0.927 1_545 S
C1664 C1665 1.384 . S
C1664 C1666 1.378 . S
C1665 C1664 1.384 . S
C1665 C1671 1.390 . S
C1666 H1657 0.933 1_545 S
C1666 C1664 1.378 . S
C1666 C1667 1.371 . S
C1667 C1666 1.371 . S
C1667 C1668 1.400 . S
C1667 C1672 1.490 . S
C1668 H1658 0.930 . S
C1668 C1667 1.400 . S
C1668 C1671 1.386 . S
H1669 C1685 0.930 . S
H1670 C1686 0.931 . S
C1671 H1659 0.929 . S
C1671 C1665 1.390 . S
C1671 C1668 1.386 . S
C1672 C1667 1.490 . S
C1672 C1674 1.395 1_545 S
C1672 C1675 1.403 . S
H1673 C1679 0.930 . S
C1674 H1660 0.930 . S
C1674 C1672 1.395 1_565 S
C1674 C1677 1.403 . S
C1675 C1672 1.403 . S
C1675 C1676 1.524 . S
C1675 C1679 1.400 . S
C1676 H1661 0.960 . S
C1676 H1662 0.960 . S
C1676 H1663 0.960 . S
C1676 C1675 1.524 . S
C1677 C1674 1.403 . S
C1677 C1678 1.392 1_565 S
C1677 C1681 1.495 . S
C1678 C1677 1.392 1_545 S
C1678 C1679 1.385 . S
C1678 C1680 1.478 . S
C1679 H1673 0.930 . S
C1679 C1675 1.400 . S
C1679 C1678 1.385 . S
C1680 C1678 1.478 . S
C1680 C1682 1.378 1_545 S
C1680 C1686 1.383 . S
C1681 C1677 1.495 . S
C1681 H1687 0.959 . S
C1681 H1688 0.961 . S
C1681 H1689 0.960 . S
C1682 C1680 1.378 1_565 S
C1682 C1683 1.426 1_565 S
C1682 H1690 0.931 . S
C1683 C1682 1.426 1_545 S
C1683 C1684 1.405 . S
C1683 H1691 0.887 1_545 S
C1684 C1683 1.405 . S
C1684 C1685 1.377 . S
C1685 H1669 0.930 . S
C1685 C1684 1.377 . S
C1685 C1686 1.379 . S
C1686 H1670 0.931 . S
C1686 C1680 1.383 . S
C1686 C1685 1.379 . S
H1687 C1681 0.959 . S
H1688 C1681 0.961 . S
H1689 C1681 0.960 . S
H1690 C1682 0.931 . S
H1691 C1683 0.887 1_565 S
H1692 C1700 0.929 . S
H1693 C1702 0.930 . S
H1694 C1704 0.930 . S
H1695 C1707 0.929 . S
H1696 C1710 0.930 . S
H1697 C1712 0.960 . S
H1698 C1712 0.960 . S
H1699 C1712 0.960 . S
C1700 H1692 0.929 . S
C1700 C1701 1.377 1_545 S
C1700 C1702 1.384 . S
C1701 C1700 1.377 1_565 S
C1701 C1707 1.390 . S
C1702 H1693 0.930 . S
C1702 C1700 1.384 . S
C1702 C1703 1.372 1_545 S
C1703 C1702 1.372 1_565 S
C1703 C1704 1.400 . S
C1703 C1708 1.490 . S
C1704 H1694 0.930 . S
C1704 C1703 1.400 . S
C1704 C1707 1.386 . S
H1705 C1721 0.930 . S
H1706 C1722 0.931 . S
C1707 H1695 0.929 . S
C1707 C1701 1.390 . S
C1707 C1704 1.386 . S
C1708 C1703 1.490 . S
C1708 C1710 1.395 . S
C1708 C1711 1.403 . S
H1709 C1715 0.930 . S
C1710 H1696 0.930 . S
C1710 C1708 1.395 . S
C1710 C1713 1.403 . S
C1711 C1708 1.403 . S
C1711 C1712 1.524 . S
C1711 C1715 1.400 . S
C1712 H1697 0.960 . S
C1712 H1698 0.960 . S
C1712 H1699 0.960 . S
C1712 C1711 1.524 . S
C1713 C1710 1.403 . S
C1713 C1714 1.392 . S
C1713 C1717 1.495 . S
C1714 C1713 1.392 . S
C1714 C1715 1.385 . S
C1714 C1716 1.478 . S
C1715 H1709 0.930 . S
C1715 C1711 1.400 . S
C1715 C1714 1.385 . S
C1716 C1714 1.478 . S
C1716 C1718 1.381 1_565 S
C1716 C1722 1.383 . S
C1717 C1713 1.495 . S
C1717 H1723 0.959 . S
C1717 H1724 0.961 . S
C1717 H1725 0.960 1_565 S
C1718 C1716 1.381 1_545 S
C1718 C1719 1.394 . S
C1718 H1726 0.930 . S
C1719 C1718 1.394 . S
C1719 C1720 1.383 1_545 S
C1719 H1727 0.929 . S
C1720 C1719 1.383 1_565 S
C1720 C1721 1.377 . S
C1721 H1705 0.930 . S
C1721 C1720 1.377 . S
C1721 C1722 1.379 . S
C1722 H1706 0.931 . S
C1722 C1716 1.383 . S
C1722 C1721 1.379 . S
H1723 C1717 0.959 . S
H1724 C1717 0.961 . S
H1725 C1717 0.960 1_545 S
H1726 C1718 0.930 . S
H1727 C1719 0.929 . S
H1728 C1736 0.929 . S
H1729 C1738 0.930 . S
H1730 C1740 0.907 1_655 S
H1731 C1743 0.956 . S
H1732 C1746 0.930 . S
H1733 C1748 0.960 . S
H1734 C1748 0.960 . S
H1735 C1748 0.960 . S
C1736 H1728 0.929 . S
C1736 C1737 1.377 . S
C1736 C1738 1.384 . S
C1737 C1736 1.377 . S
C1737 C1743 1.390 . S
C1738 H1729 0.930 . S
C1738 C1736 1.384 . S
C1738 C1739 1.372 . S
C1739 C1738 1.372 . S
C1739 C1740 1.400 . S
C1739 C1744 1.490 . S
C1740 H1730 0.907 1_455 S
C1740 C1739 1.400 . S
C1740 C1743 1.386 . S
H1741 C1757 0.924 . S
H1742 C1758 0.891 1_655 S
C1743 H1731 0.956 . S
C1743 C1737 1.390 . S
C1743 C1740 1.386 . S
C1744 C1739 1.490 . S
C1744 C1746 1.395 . S
C1744 C1747 1.403 . S
H1745 C1751 0.930 . S
C1746 H1732 0.930 . S
C1746 C1744 1.395 . S
C1746 C1749 1.403 . S
C1747 C1744 1.403 . S
C1747 C1748 1.524 . S
C1747 C1751 1.400 . S
C1748 H1733 0.960 . S
C1748 H1734 0.960 . S
C1748 H1735 0.960 . S
C1748 C1747 1.524 . S
C1749 C1746 1.403 . S
C1749 C1750 1.392 . S
C1749 C1753 1.495 . S
C1750 C1749 1.392 . S
C1750 C1751 1.385 . S
C1750 C1752 1.478 . S
C1751 H1745 0.930 . S
C1751 C1747 1.400 . S
C1751 C1750 1.385 . S
C1752 C1750 1.478 . S
C1752 C1754 1.381 . S
C1752 C1758 1.450 . S
C1753 C1749 1.495 . S
C1753 H1759 0.959 . S
C1753 H1760 0.961 . S
C1753 H1761 0.960 . S
C1754 C1752 1.381 . S
C1754 C1755 1.394 . S
C1754 H1762 0.930 . S
C1755 C1754 1.394 . S
C1755 C1756 1.383 . S
C1755 H1763 0.929 . S
C1756 C1755 1.383 . S
C1756 C1757 1.380 1_455 S
C1757 H1741 0.924 . S
C1757 C1756 1.380 1_655 S
C1757 C1758 1.356 1_655 S
C1758 H1742 0.891 1_455 S
C1758 C1752 1.450 . S
C1758 C1757 1.356 1_455 S
H1759 C1753 0.959 . S
H1760 C1753 0.961 . S
H1761 C1753 0.960 . S
H1762 C1754 0.930 . S
H1763 C1755 0.929 . S
H1764 C1772 0.929 . S
H1765 C1774 0.930 . S
H1766 C1776 0.930 . S
H1767 C1779 0.929 . S
H1768 C1782 0.930 . S
H1769 C1784 0.960 . S
H1770 C1784 0.960 . S
H1771 C1784 0.960 1_554 S
C1772 H1764 0.929 . S
C1772 C1773 1.377 . S
C1772 C1774 1.384 1_554 S
C1773 C1772 1.377 . S
C1773 C1779 1.390 . S
C1774 H1765 0.930 . S
C1774 C1772 1.384 1_556 S
C1774 C1775 1.372 . S
C1775 C1774 1.372 . S
C1775 C1776 1.400 1_556 S
C1775 C1780 1.490 . S
C1776 H1766 0.930 . S
C1776 C1775 1.400 1_554 S
C1776 C1779 1.386 . S
H1777 C1793 0.930 . S
H1778 C1794 0.931 . S
C1779 H1767 0.929 . S
C1779 C1773 1.390 . S
C1779 C1776 1.386 . S
C1780 C1775 1.490 . S
C1780 C1782 1.395 . S
C1780 C1783 1.403 . S
H1781 C1787 0.930 . S
C1782 H1768 0.930 . S
C1782 C1780 1.395 . S
C1782 C1785 1.403 . S
C1783 C1780 1.403 . S
C1783 C1784 1.524 . S
C1783 C1787 1.400 . S
C1784 H1769 0.960 . S
C1784 H1770 0.960 . S
C1784 H1771 0.960 1_556 S
C1784 C1783 1.524 . S
C1785 C1782 1.403 . S
C1785 C1786 1.392 . S
C1785 C1789 1.495 . S
C1786 C1785 1.392 . S
C1786 C1787 1.385 . S
C1786 C1788 1.478 . S
C1787 H1781 0.930 . S
C1787 C1783 1.400 . S
C1787 C1786 1.385 . S
C1788 C1786 1.478 . S
C1788 C1790 1.381 . S
C1788 C1794 1.383 . S
C1789 C1785 1.495 . S
C1789 H1795 0.959 . S
C1789 H1796 0.961 . S
C1789 H1797 0.960 . S
C1790 C1788 1.381 . S
C1790 C1791 1.394 . S
C1790 H1798 0.930 . S
C1791 C1790 1.394 . S
C1791 C1792 1.383 . S
C1791 H1799 0.929 . S
C1792 C1791 1.383 . S
C1792 C1793 1.377 . S
C1793 H1777 0.930 . S
C1793 C1792 1.377 . S
C1793 C1794 1.379 . S
C1794 H1778 0.931 . S
C1794 C1788 1.383 . S
C1794 C1793 1.379 . S
H1795 C1789 0.959 . S
H1796 C1789 0.961 . S
H1797 C1789 0.960 . S
H1798 C1790 0.930 . S
H1799 C1791 0.929 . S
H1800 C1808 0.929 . S
H1801 C1810 0.948 . S
H1802 C1812 0.930 . S
H1803 C1815 0.929 . S
H1804 C1818 0.930 . S
H1805 C1820 0.973 . S
H1806 C1820 0.930 1_455 S
H1807 C1820 1.031 . S
C1808 H1800 0.929 . S
C1808 C1809 1.377 . S
C1808 C1810 1.335 1_554 S
C1809 C1808 1.377 . S
C1809 C1815 1.390 1_455 S
C1810 H1801 0.948 . S
C1810 C1808 1.335 1_556 S
C1810 C1811 1.408 . S
C1811 C1810 1.408 . S
C1811 C1812 1.400 1_455 S
C1811 C1816 1.490 . S
C1812 H1802 0.930 . S
C1812 C1811 1.400 1_655 S
C1812 C1815 1.386 1_556 S
H1813 C1829 0.930 . S
H1814 C1830 0.931 . S
C1815 H1803 0.929 . S
C1815 C1809 1.390 1_655 S
C1815 C1812 1.386 1_554 S
C1816 C1811 1.490 . S
C1816 C1818 1.395 . S
C1816 C1819 1.403 . S
H1817 C1823 0.930 1_655 S
C1818 H1804 0.930 . S
C1818 C1816 1.395 . S
C1818 C1821 1.403 . S
C1819 C1816 1.403 . S
C1819 C1820 1.477 1_455 S
C1819 C1823 1.400 . S
C1820 H1805 0.973 . S
C1820 H1806 0.930 1_655 S
C1820 H1807 1.031 . S
C1820 C1819 1.477 1_655 S
C1821 C1818 1.403 . S
C1821 C1822 1.392 . S
C1821 C1825 1.495 . S
C1822 C1821 1.392 . S
C1822 C1823 1.385 . S
C1822 C1824 1.478 . S
C1823 H1817 0.930 1_455 S
C1823 C1819 1.400 . S
C1823 C1822 1.385 . S
C1824 C1822 1.478 . S
C1824 C1826 1.381 . S
C1824 C1830 1.383 1_455 S
C1825 C1821 1.495 . S
C1825 H1831 0.959 . S
C1825 H1832 0.961 . S
C1825 H1833 0.960 . S
C1826 C1824 1.381 . S
C1826 C1827 1.394 . S
C1826 H1834 0.930 . S
C1827 C1826 1.394 . S
C1827 C1828 1.383 . S
C1827 H1835 0.929 . S
C1828 C1827 1.383 . S
C1828 C1829 1.377 1_455 S
C1829 H1813 0.930 . S
C1829 C1828 1.377 1_655 S
C1829 C1830 1.379 . S
C1830 H1814 0.931 . S
C1830 C1824 1.383 1_655 S
C1830 C1829 1.379 . S
H1831 C1825 0.959 . S
H1832 C1825 0.961 . S
H1833 C1825 0.960 . S
H1834 C1826 0.930 . S
H1835 C1827 0.929 . S
H1836 C1844 0.929 . S
H1837 C1846 0.930 . S
H1838 C1848 0.930 . S
H1839 C1851 0.929 . S
H1840 C1854 0.930 . S
H1841 C1856 0.960 . S
H1842 C1856 0.960 . S
H1843 C1856 0.960 . S
C1844 H1836 0.929 . S
C1844 C1845 1.377 . S
C1844 C1846 1.384 . S
C1845 C1844 1.377 . S
C1845 C1851 1.390 . S
C1846 H1837 0.930 . S
C1846 C1844 1.384 . S
C1846 C1847 1.372 . S
C1847 C1846 1.372 . S
C1847 C1848 1.400 . S
C1847 C1852 1.490 . S
C1848 H1838 0.930 . S
C1848 C1847 1.400 . S
C1848 C1851 1.386 . S
H1849 C1865 0.930 . S
H1850 C1866 0.931 . S
C1851 H1839 0.929 . S
C1851 C1845 1.390 . S
C1851 C1848 1.386 . S
C1852 C1847 1.490 . S
C1852 C1854 1.395 . S
C1852 C1855 1.403 . S
H1853 C1859 0.930 . S
C1854 H1840 0.930 . S
C1854 C1852 1.395 . S
C1854 C1857 1.403 . S
C1855 C1852 1.403 . S
C1855 C1856 1.524 . S
C1855 C1859 1.400 . S
C1856 H1841 0.960 . S
C1856 H1842 0.960 . S
C1856 H1843 0.960 . S
C1856 C1855 1.524 . S
C1857 C1854 1.403 . S
C1857 C1858 1.392 . S
C1857 C1861 1.495 . S
C1858 C1857 1.392 . S
C1858 C1859 1.385 . S
C1858 C1860 1.478 . S
C1859 H1853 0.930 . S
C1859 C1855 1.400 . S
C1859 C1858 1.385 . S
C1860 C1858 1.478 . S
C1860 C1862 1.381 . S
C1860 C1866 1.383 . S
C1861 C1857 1.495 . S
C1861 H1867 0.959 . S
C1861 H1868 0.961 . S
C1861 H1869 0.960 . S
C1862 C1860 1.381 . S
C1862 C1863 1.394 . S
C1862 H1870 0.930 . S
C1863 C1862 1.394 . S
C1863 C1864 1.383 . S
C1863 H1871 0.929 . S
C1864 C1863 1.383 . S
C1864 C1865 1.377 . S
C1865 H1849 0.930 . S
C1865 C1864 1.377 . S
C1865 C1866 1.379 . S
C1866 H1850 0.931 . S
C1866 C1860 1.383 . S
C1866 C1865 1.379 . S
H1867 C1861 0.959 . S
H1868 C1861 0.961 . S
H1869 C1861 0.960 . S
H1870 C1862 0.930 . S
H1871 C1863 0.929 . S
H1872 C1880 0.929 . S
H1873 C1882 0.935 . S
H1874 C1884 0.930 . S
H1875 C1887 0.929 . S
H1876 C1890 0.930 . S
H1877 C1892 0.961 . S
H1878 C1892 1.016 . S
H1879 C1892 0.939 1_545 S
C1880 H1872 0.929 . S
C1880 C1881 1.377 1_565 S
C1880 C1882 1.334 1_554 S
C1881 C1880 1.377 1_545 S
C1881 C1887 1.390 . S
C1882 H1873 0.935 . S
C1882 C1880 1.334 1_556 S
C1882 C1883 1.421 1_565 S
C1883 C1882 1.421 1_545 S
C1883 C1884 1.400 . S
C1883 C1888 1.490 . S
C1884 H1874 0.930 . S
C1884 C1883 1.400 . S
C1884 C1887 1.386 1_556 S
H1885 C1901 0.930 . S
H1886 C1902 0.931 . S
C1887 H1875 0.929 . S
C1887 C1881 1.390 . S
C1887 C1884 1.386 1_554 S
C1888 C1883 1.490 . S
C1888 C1890 1.395 . S
C1888 C1891 1.403 . S
H1889 C1895 0.944 . S
C1890 H1876 0.930 . S
C1890 C1888 1.395 . S
C1890 C1893 1.403 . S
C1891 C1888 1.403 . S
C1891 C1892 1.492 1_545 S
C1891 C1895 1.400 . S
C1892 H1877 0.961 . S
C1892 H1878 1.016 . S
C1892 H1879 0.939 1_565 S
C1892 C1891 1.492 1_565 S
C1893 C1890 1.403 . S
C1893 C1894 1.392 . S
C1893 C1897 1.495 . S
C1894 C1893 1.392 . S
C1894 C1895 1.385 . S
C1894 C1896 1.478 . S
C1895 H1889 0.944 . S
C1895 C1891 1.400 . S
C1895 C1894 1.385 . S
C1896 C1894 1.478 . S
C1896 C1898 1.381 1_545 S
C1896 C1902 1.383 . S
C1897 C1893 1.495 . S
C1897 H1903 0.959 . S
C1897 H1904 0.961 . S
C1897 H1905 0.960 1_545 S
C1898 C1896 1.381 1_565 S
C1898 C1899 1.394 . S
C1898 H1906 0.930 . S
C1899 C1898 1.394 . S
C1899 C1900 1.383 1_565 S
C1899 H1907 0.929 . S
C1900 C1899 1.383 1_545 S
C1900 C1901 1.377 . S
C1901 H1885 0.930 . S
C1901 C1900 1.377 . S
C1901 C1902 1.379 . S
C1902 H1886 0.931 . S
C1902 C1896 1.383 . S
C1902 C1901 1.379 . S
H1903 C1897 0.959 . S
H1904 C1897 0.961 . S
H1905 C1897 0.960 1_565 S
H1906 C1898 0.930 . S
H1907 C1899 0.929 . S
H1908 C1916 0.929 . S
H1909 C1918 0.934 1_565 S
H1910 C1920 0.930 . S
H1911 C1923 0.929 . S
H1912 C1926 0.930 . S
H1913 C1928 0.960 . S
H1914 C1928 0.960 . S
H1915 C1928 0.960 . S
C1916 H1908 0.929 . S
C1916 C1917 1.377 . S
C1916 C1918 1.384 . S
C1917 C1916 1.377 . S
C1917 C1923 1.390 . S
C1918 H1909 0.934 1_545 S
C1918 C1916 1.384 . S
C1918 C1919 1.372 . S
C1919 C1918 1.372 . S
C1919 C1920 1.400 . S
C1919 C1924 1.490 . S
C1920 H1910 0.930 . S
C1920 C1919 1.400 . S
C1920 C1923 1.386 . S
H1921 C1937 0.930 . S
H1922 C1938 0.931 . S
C1923 H1911 0.929 . S
C1923 C1917 1.390 . S
C1923 C1920 1.386 . S
C1924 C1919 1.490 . S
C1924 C1926 1.395 . S
C1924 C1927 1.403 . S
H1925 C1931 0.930 . S
C1926 H1912 0.930 . S
C1926 C1924 1.395 . S
C1926 C1929 1.403 . S
C1927 C1924 1.403 . S
C1927 C1928 1.524 . S
C1927 C1931 1.400 . S
C1928 H1913 0.960 . S
C1928 H1914 0.960 . S
C1928 H1915 0.960 . S
C1928 C1927 1.524 . S
C1929 C1926 1.403 . S
C1929 C1930 1.392 . S
C1929 C1933 1.495 . S
C1930 C1929 1.392 . S
C1930 C1931 1.385 . S
C1930 C1932 1.478 . S
C1931 H1925 0.930 . S
C1931 C1927 1.400 . S
C1931 C1930 1.385 . S
C1932 C1930 1.478 . S
C1932 C1934 1.381 1_545 S
C1932 C1938 1.383 . S
C1933 C1929 1.495 . S
C1933 H1939 0.959 . S
C1933 H1940 0.961 . S
C1933 H1941 0.960 . S
C1934 C1932 1.381 1_565 S
C1934 C1935 1.394 . S
C1934 H1942 0.930 . S
C1935 C1934 1.394 . S
C1935 C1936 1.383 1_565 S
C1935 H1943 0.929 . S
C1936 C1935 1.383 1_545 S
C1936 C1937 1.377 . S
C1937 H1921 0.930 . S
C1937 C1936 1.377 . S
C1937 C1938 1.379 . S
C1938 H1922 0.931 . S
C1938 C1932 1.383 . S
C1938 C1937 1.379 . S
H1939 C1933 0.959 . S
H1940 C1933 0.961 . S
H1941 C1933 0.960 . S
H1942 C1934 0.930 . S
H1943 C1935 0.929 . S
H1944 C1952 0.929 . S
H1945 C1954 0.930 . S
H1946 C1956 0.930 . S
H1947 C1959 0.929 . S
H1948 C1962 0.930 . S
H1949 C1964 0.960 . S
H1950 C1964 0.960 1_455 S
H1951 C1964 0.960 . S
C1952 H1944 0.929 . S
C1952 C1953 1.377 1_455 S
C1952 C1954 1.384 . S
C1953 C1952 1.377 1_655 S
C1953 C1959 1.390 . S
C1954 H1945 0.930 . S
C1954 C1952 1.384 . S
C1954 C1955 1.372 1_455 S
C1955 C1954 1.372 1_655 S
C1955 C1956 1.400 . S
C1955 C1960 1.490 . S
C1956 H1946 0.930 . S
C1956 C1955 1.400 . S
C1956 C1959 1.386 . S
H1957 C1973 0.930 . S
H1958 C1974 0.931 . S
C1959 H1947 0.929 . S
C1959 C1953 1.390 . S
C1959 C1956 1.386 . S
C1960 C1955 1.490 . S
C1960 C1962 1.395 . S
C1960 C1963 1.403 . S
H1961 C1967 0.930 . S
C1962 H1948 0.930 . S
C1962 C1960 1.395 . S
C1962 C1965 1.403 . S
C1963 C1960 1.403 . S
C1963 C1964 1.524 . S
C1963 C1967 1.400 . S
C1964 H1949 0.960 . S
C1964 H1950 0.960 1_655 S
C1964 H1951 0.960 . S
C1964 C1963 1.524 . S
C1965 C1962 1.403 . S
C1965 C1966 1.392 . S
C1965 C1969 1.509 1_655 S
C1966 C1965 1.392 . S
C1966 C1967 1.385 . S
C1966 C1968 1.478 . S
C1967 H1961 0.930 . S
C1967 C1963 1.400 . S
C1967 C1966 1.385 . S
C1968 C1966 1.478 . S
C1968 C1970 1.381 1_655 S
C1968 C1974 1.383 . S
C1969 C1965 1.509 1_455 S
C1969 H1975 0.921 . S
C1969 H1976 0.914 1_455 S
C1969 H1977 1.042 . S
C1970 C1968 1.381 1_455 S
C1970 C1971 1.394 . S
C1970 H1978 0.930 . S
C1971 C1970 1.394 . S
C1971 C1972 1.388 . S
C1971 H1979 0.929 . S
C1972 C1971 1.388 . S
C1972 C1973 1.369 1_455 S
C1973 H1957 0.930 . S
C1973 C1972 1.369 1_655 S
C1973 C1974 1.379 . S
C1974 H1958 0.931 . S
C1974 C1968 1.383 . S
C1974 C1973 1.379 . S
H1975 C1969 0.921 . S
H1976 C1969 0.914 1_655 S
H1977 C1969 1.042 . S
H1978 C1970 0.930 . S
H1979 C1971 0.929 . S
H1980 C1988 0.929 . S
H1981 C1990 0.930 . S
H1982 C1992 0.930 . S
H1983 C1995 0.929 . S
H1984 C1998 0.930 . S
H1985 C2000 0.960 . S
H1986 C2000 0.960 . S
H1987 C2000 0.960 . S
C1988 H1980 0.929 . S
C1988 C1989 1.377 . S
C1988 C1990 1.384 . S
C1989 C1988 1.377 . S
C1989 C1995 1.390 . S
C1990 H1981 0.930 . S
C1990 C1988 1.384 . S
C1990 C1991 1.372 . S
C1991 C1990 1.372 . S
C1991 C1992 1.400 . S
C1991 C1996 1.490 . S
C1992 H1982 0.930 . S
C1992 C1991 1.400 . S
C1992 C1995 1.386 . S
H1993 C2009 0.930 . S
H1994 C2010 0.931 . S
C1995 H1983 0.929 . S
C1995 C1989 1.390 . S
C1995 C1992 1.386 . S
C1996 C1991 1.490 . S
C1996 C1998 1.395 . S
C1996 C1999 1.403 . S
H1997 C2003 0.930 . S
C1998 H1984 0.930 . S
C1998 C1996 1.395 . S
C1998 C2001 1.403 . S
C1999 C1996 1.403 . S
C1999 C2000 1.524 . S
C1999 C2003 1.400 . S
C2000 H1985 0.960 . S
C2000 H1986 0.960 . S
C2000 H1987 0.960 . S
C2000 C1999 1.524 . S
C2001 C1998 1.403 . S
C2001 C2002 1.392 . S
C2001 C2005 1.495 . S
C2002 C2001 1.392 . S
C2002 C2003 1.385 . S
C2002 C2004 1.478 . S
C2003 H1997 0.930 . S
C2003 C1999 1.400 . S
C2003 C2002 1.385 . S
C2004 C2002 1.478 . S
C2004 C2006 1.381 . S
C2004 C2010 1.383 . S
C2005 C2001 1.495 . S
C2005 H2011 0.959 . S
C2005 H2012 0.961 . S
C2005 H2013 0.960 . S
C2006 C2004 1.381 . S
C2006 C2007 1.394 . S
C2006 H2014 0.930 . S
C2007 C2006 1.394 . S
C2007 C2008 1.383 . S
C2007 H2015 0.929 . S
C2008 C2007 1.383 . S
C2008 C2009 1.377 . S
C2009 H1993 0.930 . S
C2009 C2008 1.377 . S
C2009 C2010 1.379 . S
C2010 H1994 0.931 . S
C2010 C2004 1.383 . S
C2010 C2009 1.379 . S
H2011 C2005 0.959 . S
H2012 C2005 0.961 . S
H2013 C2005 0.960 . S
H2014 C2006 0.930 . S
H2015 C2007 0.929 . S
H2016 C2024 0.929 . S
H2017 C2026 0.930 . S
H2018 C2028 0.930 . S
H2019 C2031 0.929 . S
H2020 C2034 0.930 . S
H2021 C2036 0.960 . S
H2022 C2036 0.960 . S
H2023 C2036 0.960 . S
C2024 H2016 0.929 . S
C2024 C2025 1.377 . S
C2024 C2026 1.384 . S
C2025 C2024 1.377 . S
C2025 C2031 1.390 . S
C2026 H2017 0.930 . S
C2026 C2024 1.384 . S
C2026 C2027 1.372 . S
C2027 C2026 1.372 . S
C2027 C2028 1.400 . S
C2027 C2032 1.490 . S
C2028 H2018 0.930 . S
C2028 C2027 1.400 . S
C2028 C2031 1.386 . S
H2029 C2045 0.930 . S
H2030 C2046 0.931 . S
C2031 H2019 0.929 . S
C2031 C2025 1.390 . S
C2031 C2028 1.386 . S
C2032 C2027 1.490 . S
C2032 C2034 1.395 . S
C2032 C2035 1.403 . S
H2033 C2039 0.930 . S
C2034 H2020 0.930 . S
C2034 C2032 1.395 . S
C2034 C2037 1.403 . S
C2035 C2032 1.403 . S
C2035 C2036 1.524 . S
C2035 C2039 1.400 . S
C2036 H2021 0.960 . S
C2036 H2022 0.960 . S
C2036 H2023 0.960 . S
C2036 C2035 1.524 . S
C2037 C2034 1.403 . S
C2037 C2038 1.392 . S
C2037 C2041 1.495 . S
C2038 C2037 1.392 . S
C2038 C2039 1.385 . S
C2038 C2040 1.478 . S
C2039 H2033 0.930 . S
C2039 C2035 1.400 . S
C2039 C2038 1.385 . S
C2040 C2038 1.478 . S
C2040 C2042 1.381 . S
C2040 C2046 1.383 . S
C2041 C2037 1.495 . S
C2041 H2047 0.959 . S
C2041 H2048 0.961 . S
C2041 H2049 0.960 . S
C2042 C2040 1.381 . S
C2042 C2043 1.394 . S
C2042 H2050 0.930 . S
C2043 C2042 1.394 . S
C2043 C2044 1.383 . S
C2043 H2051 0.929 . S
C2044 C2043 1.383 . S
C2044 C2045 1.377 . S
C2045 H2029 0.930 . S
C2045 C2044 1.377 . S
C2045 C2046 1.379 . S
C2046 H2030 0.931 . S
C2046 C2040 1.383 . S
C2046 C2045 1.379 . S
H2047 C2041 0.959 . S
H2048 C2041 0.961 . S
H2049 C2041 0.960 . S
H2050 C2042 0.930 . S
H2051 C2043 0.929 . S
H2052 C2060 0.929 . S
H2053 C2062 0.930 . S
H2054 C2064 0.930 . S
H2055 C2067 0.929 . S
H2056 C2070 0.930 . S
H2057 C2072 0.960 . S
H2058 C2072 0.960 . S
H2059 C2072 0.960 . S
C2060 H2052 0.929 . S
C2060 C2061 1.377 . S
C2060 C2062 1.384 . S
C2061 C2060 1.377 . S
C2061 C2067 1.390 . S
C2062 H2053 0.930 . S
C2062 C2060 1.384 . S
C2062 C2063 1.372 . S
C2063 C2062 1.372 . S
C2063 C2064 1.400 . S
C2063 C2068 1.490 . S
C2064 H2054 0.930 . S
C2064 C2063 1.400 . S
C2064 C2067 1.386 . S
H2065 C2081 0.930 . S
H2066 C2082 0.931 . S
C2067 H2055 0.929 . S
C2067 C2061 1.390 . S
C2067 C2064 1.386 . S
C2068 C2063 1.490 . S
C2068 C2070 1.395 . S
C2068 C2071 1.403 . S
H2069 C2075 0.930 . S
C2070 H2056 0.930 . S
C2070 C2068 1.395 . S
C2070 C2073 1.403 . S
C2071 C2068 1.403 . S
C2071 C2072 1.524 . S
C2071 C2075 1.400 . S
C2072 H2057 0.960 . S
C2072 H2058 0.960 . S
C2072 H2059 0.960 . S
C2072 C2071 1.524 . S
C2073 C2070 1.403 . S
C2073 C2074 1.392 . S
C2073 C2077 1.495 . S
C2074 C2073 1.392 . S
C2074 C2075 1.385 . S
C2074 C2076 1.478 . S
C2075 H2069 0.930 . S
C2075 C2071 1.400 . S
C2075 C2074 1.385 . S
C2076 C2074 1.478 . S
C2076 C2078 1.381 . S
C2076 C2082 1.383 . S
C2077 C2073 1.495 . S
C2077 H2083 0.959 . S
C2077 H2084 0.961 . S
C2077 H2085 0.960 . S
C2078 C2076 1.381 . S
C2078 C2079 1.394 . S
C2078 H2086 0.930 . S
C2079 C2078 1.394 . S
C2079 C2080 1.383 . S
C2079 H2087 0.929 . S
C2080 C2079 1.383 . S
C2080 C2081 1.377 . S
C2081 H2065 0.930 . S
C2081 C2080 1.377 . S
C2081 C2082 1.379 . S
C2082 H2066 0.931 . S
C2082 C2076 1.383 . S
C2082 C2081 1.379 . S
H2083 C2077 0.959 . S
H2084 C2077 0.961 . S
H2085 C2077 0.960 . S
H2086 C2078 0.930 . S
H2087 C2079 0.929 . S
H2088 C2096 0.929 . S
H2089 C2098 0.930 . S
H2090 C2100 0.930 . S
H2091 C2103 0.929 . S
H2092 C2106 0.930 . S
H2093 C2108 0.960 . S
H2094 C2108 0.960 . S
H2095 C2108 0.960 . S
C2096 H2088 0.929 . S
C2096 C2097 1.377 . S
C2096 C2098 1.384 . S
C2097 C2096 1.377 . S
C2097 C2103 1.390 . S
C2098 H2089 0.930 . S
C2098 C2096 1.384 . S
C2098 C2099 1.372 . S
C2099 C2098 1.372 . S
C2099 C2100 1.400 . S
C2099 C2104 1.490 . S
C2100 H2090 0.930 . S
C2100 C2099 1.400 . S
C2100 C2103 1.386 . S
H2101 C2117 0.930 . S
H2102 C2118 0.931 . S
C2103 H2091 0.929 . S
C2103 C2097 1.390 . S
C2103 C2100 1.386 . S
C2104 C2099 1.490 . S
C2104 C2106 1.395 . S
C2104 C2107 1.403 . S
H2105 C2111 0.930 . S
C2106 H2092 0.930 . S
C2106 C2104 1.395 . S
C2106 C2109 1.403 . S
C2107 C2104 1.403 . S
C2107 C2108 1.524 . S
C2107 C2111 1.400 . S
C2108 H2093 0.960 . S
C2108 H2094 0.960 . S
C2108 H2095 0.960 . S
C2108 C2107 1.524 . S
C2109 C2106 1.403 . S
C2109 C2110 1.392 . S
C2109 C2113 1.495 . S
C2110 C2109 1.392 . S
C2110 C2111 1.385 . S
C2110 C2112 1.478 . S
C2111 H2105 0.930 . S
C2111 C2107 1.400 . S
C2111 C2110 1.385 . S
C2112 C2110 1.478 . S
C2112 C2114 1.381 . S
C2112 C2118 1.383 . S
C2113 C2109 1.495 . S
C2113 H2119 0.959 . S
C2113 H2120 0.961 . S
C2113 H2121 0.960 . S
C2114 C2112 1.381 . S
C2114 C2115 1.394 . S
C2114 H2122 0.930 . S
C2115 C2114 1.394 . S
C2115 C2116 1.383 . S
C2115 H2123 0.929 . S
C2116 C2115 1.383 . S
C2116 C2117 1.377 . S
C2117 H2101 0.930 . S
C2117 C2116 1.377 . S
C2117 C2118 1.379 . S
C2118 H2102 0.931 . S
C2118 C2112 1.383 . S
C2118 C2117 1.379 . S
H2119 C2113 0.959 . S
H2120 C2113 0.961 . S
H2121 C2113 0.960 . S
H2122 C2114 0.930 . S
H2123 C2115 0.929 . S
H2124 C2132 0.929 . S
H2125 C2134 0.930 . S
H2126 C2136 0.930 . S
H2127 C2139 0.929 . S
H2128 C2142 0.930 . S
H2129 C2144 0.960 . S
H2130 C2144 0.960 . S
H2131 C2144 0.960 . S
C2132 H2124 0.929 . S
C2132 C2133 1.377 . S
C2132 C2134 1.384 . S
C2133 C2132 1.377 . S
C2133 C2139 1.390 . S
C2134 H2125 0.930 . S
C2134 C2132 1.384 . S
C2134 C2135 1.372 . S
C2135 C2134 1.372 . S
C2135 C2136 1.400 . S
C2135 C2140 1.490 . S
C2136 H2126 0.930 . S
C2136 C2135 1.400 . S
C2136 C2139 1.386 . S
H2137 C2153 0.930 . S
H2138 C2154 0.931 . S
C2139 H2127 0.929 . S
C2139 C2133 1.390 . S
C2139 C2136 1.386 . S
C2140 C2135 1.490 . S
C2140 C2142 1.395 . S
C2140 C2143 1.403 . S
H2141 C2147 0.930 . S
C2142 H2128 0.930 . S
C2142 C2140 1.395 . S
C2142 C2145 1.403 . S
C2143 C2140 1.403 . S
C2143 C2144 1.524 . S
C2143 C2147 1.400 . S
C2144 H2129 0.960 . S
C2144 H2130 0.960 . S
C2144 H2131 0.960 . S
C2144 C2143 1.524 . S
C2145 C2142 1.403 . S
C2145 C2146 1.392 . S
C2145 C2149 1.495 . S
C2146 C2145 1.392 . S
C2146 C2147 1.385 . S
C2146 C2148 1.478 . S
C2147 H2141 0.930 . S
C2147 C2143 1.400 . S
C2147 C2146 1.385 . S
C2148 C2146 1.478 . S
C2148 C2150 1.381 . S
C2148 C2154 1.383 . S
C2149 C2145 1.495 . S
C2149 H2155 0.959 . S
C2149 H2156 0.961 . S
C2149 H2157 0.960 . S
C2150 C2148 1.381 . S
C2150 C2151 1.394 . S
C2150 H2158 0.930 . S
C2151 C2150 1.394 . S
C2151 C2152 1.383 . S
C2151 H2159 0.929 . S
C2152 C2151 1.383 . S
C2152 C2153 1.377 . S
C2153 H2137 0.930 . S
C2153 C2152 1.377 . S
C2153 C2154 1.379 . S
C2154 H2138 0.931 . S
C2154 C2148 1.383 . S
C2154 C2153 1.379 . S
H2155 C2149 0.959 . S
H2156 C2149 0.961 . S
H2157 C2149 0.960 . S
H2158 C2150 0.930 . S
H2159 C2151 0.929 . S
H2160 C2168 0.929 . S
H2161 C2170 0.930 . S
H2162 C2172 0.930 . S
H2163 C2175 0.929 . S
H2164 C2178 0.930 . S
H2165 C2180 0.960 . S
H2166 C2180 0.960 . S
H2167 C2180 0.960 . S
C2168 H2160 0.929 . S
C2168 C2169 1.377 . S
C2168 C2170 1.384 . S
C2169 C2168 1.377 . S
C2169 C2175 1.390 . S
C2170 H2161 0.930 . S
C2170 C2168 1.384 . S
C2170 C2171 1.372 . S
C2171 C2170 1.372 . S
C2171 C2172 1.400 . S
C2171 C2176 1.490 . S
C2172 H2162 0.930 . S
C2172 C2171 1.400 . S
C2172 C2175 1.386 . S
H2173 C2189 0.930 . S
H2174 C2190 0.931 . S
C2175 H2163 0.929 . S
C2175 C2169 1.390 . S
C2175 C2172 1.386 . S
C2176 C2171 1.490 . S
C2176 C2178 1.395 . S
C2176 C2179 1.403 . S
H2177 C2183 0.930 . S
C2178 H2164 0.930 . S
C2178 C2176 1.395 . S
C2178 C2181 1.403 . S
C2179 C2176 1.403 . S
C2179 C2180 1.524 . S
C2179 C2183 1.400 . S
C2180 H2165 0.960 . S
C2180 H2166 0.960 . S
C2180 H2167 0.960 . S
C2180 C2179 1.524 . S
C2181 C2178 1.403 . S
C2181 C2182 1.392 . S
C2181 C2185 1.495 . S
C2182 C2181 1.392 . S
C2182 C2183 1.385 . S
C2182 C2184 1.478 . S
C2183 H2177 0.930 . S
C2183 C2179 1.400 . S
C2183 C2182 1.385 . S
C2184 C2182 1.478 . S
C2184 C2186 1.381 . S
C2184 C2190 1.383 . S
C2185 C2181 1.495 . S
C2185 H2191 0.959 . S
C2185 H2192 0.961 . S
C2185 H2193 0.960 . S
C2186 C2184 1.381 . S
C2186 C2187 1.394 . S
C2186 H2194 0.930 . S
C2187 C2186 1.394 . S
C2187 C2188 1.383 . S
C2187 H2195 0.929 . S
C2188 C2187 1.383 . S
C2188 C2189 1.377 . S
C2189 H2173 0.930 . S
C2189 C2188 1.377 . S
C2189 C2190 1.379 . S
C2190 H2174 0.931 . S
C2190 C2184 1.383 . S
C2190 C2189 1.379 . S
H2191 C2185 0.959 . S
H2192 C2185 0.961 . S
H2193 C2185 0.960 . S
H2194 C2186 0.930 . S
H2195 C2187 0.929 . S
H2196 C2204 0.929 . S
H2197 C2206 0.930 . S
H2198 C2208 0.930 . S
H2199 C2211 0.929 . S
H2200 C2214 0.930 . S
H2201 C2216 0.960 . S
H2202 C2216 0.960 . S
H2203 C2216 0.960 . S
C2204 H2196 0.929 . S
C2204 C2205 1.377 . S
C2204 C2206 1.384 . S
C2205 C2204 1.377 . S
C2205 C2211 1.390 . S
C2206 H2197 0.930 . S
C2206 C2204 1.384 . S
C2206 C2207 1.372 . S
C2207 C2206 1.372 . S
C2207 C2208 1.400 . S
C2207 C2212 1.490 . S
C2208 H2198 0.930 . S
C2208 C2207 1.400 . S
C2208 C2211 1.386 . S
H2209 C2225 0.930 . S
H2210 C2226 0.931 . S
C2211 H2199 0.929 . S
C2211 C2205 1.390 . S
C2211 C2208 1.386 . S
C2212 C2207 1.490 . S
C2212 C2214 1.395 . S
C2212 C2215 1.403 . S
H2213 C2219 0.930 . S
C2214 H2200 0.930 . S
C2214 C2212 1.395 . S
C2214 C2217 1.403 . S
C2215 C2212 1.403 . S
C2215 C2216 1.524 . S
C2215 C2219 1.400 . S
C2216 H2201 0.960 . S
C2216 H2202 0.960 . S
C2216 H2203 0.960 . S
C2216 C2215 1.524 . S
C2217 C2214 1.403 . S
C2217 C2218 1.392 . S
C2217 C2221 1.495 . S
C2218 C2217 1.392 . S
C2218 C2219 1.385 . S
C2218 C2220 1.478 . S
C2219 H2213 0.930 . S
C2219 C2215 1.400 . S
C2219 C2218 1.385 . S
C2220 C2218 1.478 . S
C2220 C2222 1.381 . S
C2220 C2226 1.383 . S
C2221 C2217 1.495 . S
C2221 H2227 0.959 . S
C2221 H2228 0.961 . S
C2221 H2229 0.960 . S
C2222 C2220 1.381 . S
C2222 C2223 1.394 . S
C2222 H2230 0.930 . S
C2223 C2222 1.394 . S
C2223 C2224 1.383 . S
C2223 H2231 0.929 . S
C2224 C2223 1.383 . S
C2224 C2225 1.377 . S
C2225 H2209 0.930 . S
C2225 C2224 1.377 . S
C2225 C2226 1.379 . S
C2226 H2210 0.931 . S
C2226 C2220 1.383 . S
C2226 C2225 1.379 . S
H2227 C2221 0.959 . S
H2228 C2221 0.961 . S
H2229 C2221 0.960 . S
H2230 C2222 0.930 . S
H2231 C2223 0.929 . S
H2232 C2240 0.929 . S
H2233 C2242 0.930 . S
H2234 C2244 0.930 . S
H2235 C2247 0.929 . S
H2236 C2250 0.930 . S
H2237 C2252 0.960 . S
H2238 C2252 0.960 . S
H2239 C2252 0.960 . S
C2240 H2232 0.929 . S
C2240 C2241 1.377 . S
C2240 C2242 1.384 . S
C2241 C2240 1.377 . S
C2241 C2247 1.390 . S
C2242 H2233 0.930 . S
C2242 C2240 1.384 . S
C2242 C2243 1.372 . S
C2243 C2242 1.372 . S
C2243 C2244 1.400 . S
C2243 C2248 1.490 . S
C2244 H2234 0.930 . S
C2244 C2243 1.400 . S
C2244 C2247 1.386 . S
H2245 C2261 0.930 . S
H2246 C2262 0.931 . S
C2247 H2235 0.929 . S
C2247 C2241 1.390 . S
C2247 C2244 1.386 . S
C2248 C2243 1.490 . S
C2248 C2250 1.395 . S
C2248 C2251 1.403 . S
H2249 C2255 0.930 . S
C2250 H2236 0.930 . S
C2250 C2248 1.395 . S
C2250 C2253 1.403 . S
C2251 C2248 1.403 . S
C2251 C2252 1.524 . S
C2251 C2255 1.400 . S
C2252 H2237 0.960 . S
C2252 H2238 0.960 . S
C2252 H2239 0.960 . S
C2252 C2251 1.524 . S
C2253 C2250 1.403 . S
C2253 C2254 1.392 . S
C2253 C2257 1.495 . S
C2254 C2253 1.392 . S
C2254 C2255 1.385 . S
C2254 C2256 1.478 . S
C2255 H2249 0.930 . S
C2255 C2251 1.400 . S
C2255 C2254 1.385 . S
C2256 C2254 1.478 . S
C2256 C2258 1.381 . S
C2256 C2262 1.383 . S
C2257 C2253 1.495 . S
C2257 H2263 0.959 . S
C2257 H2264 0.961 . S
C2257 H2265 0.960 . S
C2258 C2256 1.381 . S
C2258 C2259 1.394 . S
C2258 H2266 0.930 . S
C2259 C2258 1.394 . S
C2259 C2260 1.383 . S
C2259 H2267 0.929 . S
C2260 C2259 1.383 . S
C2260 C2261 1.377 . S
C2261 H2245 0.930 . S
C2261 C2260 1.377 . S
C2261 C2262 1.379 . S
C2262 H2246 0.931 . S
C2262 C2256 1.383 . S
C2262 C2261 1.379 . S
H2263 C2257 0.959 . S
H2264 C2257 0.961 . S
H2265 C2257 0.960 . S
H2266 C2258 0.930 . S
H2267 C2259 0.929 . S
H2268 C2276 0.929 . S
H2269 C2278 0.930 . S
H2270 C2280 0.930 . S
H2271 C2283 0.929 . S
H2272 C2286 0.930 . S
H2273 C2288 0.960 . S
H2274 C2288 0.960 . S
H2275 C2288 0.960 . S
C2276 H2268 0.929 . S
C2276 C2277 1.377 . S
C2276 C2278 1.384 . S
C2277 C2276 1.377 . S
C2277 C2283 1.390 . S
C2278 H2269 0.930 . S
C2278 C2276 1.384 . S
C2278 C2279 1.372 . S
C2279 C2278 1.372 . S
C2279 C2280 1.400 . S
C2279 C2284 1.490 . S
C2280 H2270 0.930 . S
C2280 C2279 1.400 . S
C2280 C2283 1.386 . S
H2281 C2297 0.930 . S
H2282 C2298 0.931 . S
C2283 H2271 0.929 . S
C2283 C2277 1.390 . S
C2283 C2280 1.386 . S
C2284 C2279 1.490 . S
C2284 C2286 1.395 . S
C2284 C2287 1.403 . S
H2285 C2291 0.930 . S
C2286 H2272 0.930 . S
C2286 C2284 1.395 . S
C2286 C2289 1.403 . S
C2287 C2284 1.403 . S
C2287 C2288 1.524 . S
C2287 C2291 1.400 . S
C2288 H2273 0.960 . S
C2288 H2274 0.960 . S
C2288 H2275 0.960 . S
C2288 C2287 1.524 . S
C2289 C2286 1.403 . S
C2289 C2290 1.392 . S
C2289 C2293 1.495 . S
C2290 C2289 1.392 . S
C2290 C2291 1.385 . S
C2290 C2292 1.478 . S
C2291 H2285 0.930 . S
C2291 C2287 1.400 . S
C2291 C2290 1.385 . S
C2292 C2290 1.478 . S
C2292 C2294 1.381 . S
C2292 C2298 1.383 . S
C2293 C2289 1.495 . S
C2293 H2299 0.959 . S
C2293 H2300 0.961 . S
C2293 H2301 0.960 . S
C2294 C2292 1.381 . S
C2294 C2295 1.394 . S
C2294 H2302 0.930 . S
C2295 C2294 1.394 . S
C2295 C2296 1.383 . S
C2295 H2303 0.929 . S
C2296 C2295 1.383 . S
C2296 C2297 1.377 . S
C2297 H2281 0.930 . S
C2297 C2296 1.377 . S
C2297 C2298 1.379 . S
C2298 H2282 0.931 . S
C2298 C2292 1.383 . S
C2298 C2297 1.379 . S
H2299 C2293 0.959 . S
H2300 C2293 0.961 . S
H2301 C2293 0.960 . S
H2302 C2294 0.930 . S
H2303 C2295 0.929 . S
H2304 C2312 0.929 . S
H2305 C2314 0.930 . S
H2306 C2316 0.930 . S
H2307 C2319 0.929 . S
H2308 C2322 0.930 . S
H2309 C2324 0.960 . S
H2310 C2324 0.960 . S
H2311 C2324 0.960 . S
C2312 H2304 0.929 . S
C2312 C2313 1.377 . S
C2312 C2314 1.384 . S
C2313 C2312 1.377 . S
C2313 C2319 1.390 . S
C2314 H2305 0.930 . S
C2314 C2312 1.384 . S
C2314 C2315 1.372 . S
C2315 C2314 1.372 . S
C2315 C2316 1.400 . S
C2315 C2320 1.490 . S
C2316 H2306 0.930 . S
C2316 C2315 1.400 . S
C2316 C2319 1.386 . S
H2317 C2333 0.930 . S
H2318 C2334 0.931 . S
C2319 H2307 0.929 . S
C2319 C2313 1.390 . S
C2319 C2316 1.386 . S
C2320 C2315 1.490 . S
C2320 C2322 1.395 . S
C2320 C2323 1.403 . S
H2321 C2327 0.930 . S
C2322 H2308 0.930 . S
C2322 C2320 1.395 . S
C2322 C2325 1.403 . S
C2323 C2320 1.403 . S
C2323 C2324 1.524 . S
C2323 C2327 1.400 . S
C2324 H2309 0.960 . S
C2324 H2310 0.960 . S
C2324 H2311 0.960 . S
C2324 C2323 1.524 . S
C2325 C2322 1.403 . S
C2325 C2326 1.392 . S
C2325 C2329 1.495 . S
C2326 C2325 1.392 . S
C2326 C2327 1.385 . S
C2326 C2328 1.478 . S
C2327 H2321 0.930 . S
C2327 C2323 1.400 . S
C2327 C2326 1.385 . S
C2328 C2326 1.478 . S
C2328 C2330 1.381 . S
C2328 C2334 1.383 . S
C2329 C2325 1.495 . S
C2329 H2335 0.959 . S
C2329 H2336 0.961 . S
C2329 H2337 0.960 . S
C2330 C2328 1.381 . S
C2330 C2331 1.394 . S
C2330 H2338 0.930 . S
C2331 C2330 1.394 . S
C2331 C2332 1.383 . S
C2331 H2339 0.929 . S
C2332 C2331 1.383 . S
C2332 C2333 1.377 . S
C2333 H2317 0.930 . S
C2333 C2332 1.377 . S
C2333 C2334 1.379 . S
C2334 H2318 0.931 . S
C2334 C2328 1.383 . S
C2334 C2333 1.379 . S
H2335 C2329 0.959 . S
H2336 C2329 0.961 . S
H2337 C2329 0.960 . S
H2338 C2330 0.930 . S
H2339 C2331 0.929 . S
H2340 C2348 0.929 . S
H2341 C2350 0.930 . S
H2342 C2352 0.930 . S
H2343 C2355 0.929 . S
H2344 C2358 0.930 . S
H2345 C2360 0.960 . S
H2346 C2360 0.960 . S
H2347 C2360 0.960 . S
C2348 H2340 0.929 . S
C2348 C2349 1.377 . S
C2348 C2350 1.384 . S
C2349 C2348 1.377 . S
C2349 C2355 1.390 . S
C2350 H2341 0.930 . S
C2350 C2348 1.384 . S
C2350 C2351 1.372 . S
C2351 C2350 1.372 . S
C2351 C2352 1.400 . S
C2351 C2356 1.490 . S
C2352 H2342 0.930 . S
C2352 C2351 1.400 . S
C2352 C2355 1.386 . S
H2353 C2369 0.930 . S
H2354 C2370 0.931 . S
C2355 H2343 0.929 . S
C2355 C2349 1.390 . S
C2355 C2352 1.386 . S
C2356 C2351 1.490 . S
C2356 C2358 1.395 . S
C2356 C2359 1.403 . S
H2357 C2363 0.930 . S
C2358 H2344 0.930 . S
C2358 C2356 1.395 . S
C2358 C2361 1.403 . S
C2359 C2356 1.403 . S
C2359 C2360 1.524 . S
C2359 C2363 1.400 . S
C2360 H2345 0.960 . S
C2360 H2346 0.960 . S
C2360 H2347 0.960 . S
C2360 C2359 1.524 . S
C2361 C2358 1.403 . S
C2361 C2362 1.392 . S
C2361 C2365 1.495 . S
C2362 C2361 1.392 . S
C2362 C2363 1.385 . S
C2362 C2364 1.478 . S
C2363 H2357 0.930 . S
C2363 C2359 1.400 . S
C2363 C2362 1.385 . S
C2364 C2362 1.478 . S
C2364 C2366 1.381 . S
C2364 C2370 1.383 . S
C2365 C2361 1.495 . S
C2365 H2371 0.959 . S
C2365 H2372 0.961 . S
C2365 H2373 0.960 . S
C2366 C2364 1.381 . S
C2366 C2367 1.394 . S
C2366 H2374 0.930 . S
C2367 C2366 1.394 . S
C2367 C2368 1.383 . S
C2367 H2375 0.929 . S
C2368 C2367 1.383 . S
C2368 C2369 1.377 . S
C2369 H2353 0.930 . S
C2369 C2368 1.377 . S
C2369 C2370 1.379 . S
C2370 H2354 0.931 . S
C2370 C2364 1.383 . S
C2370 C2369 1.379 . S
H2371 C2365 0.959 . S
H2372 C2365 0.961 . S
H2373 C2365 0.960 . S
H2374 C2366 0.930 . S
H2375 C2367 0.929 . S
H2376 C2384 0.929 . S
H2377 C2386 0.930 . S
H2378 C2388 0.930 . S
H2379 C2391 0.929 . S
H2380 C2394 0.930 . S
H2381 C2396 0.960 . S
H2382 C2396 0.960 . S
H2383 C2396 0.960 . S
C2384 H2376 0.929 . S
C2384 C2385 1.377 . S
C2384 C2386 1.384 . S
C2385 C2384 1.377 . S
C2385 C2391 1.390 . S
C2386 H2377 0.930 . S
C2386 C2384 1.384 . S
C2386 C2387 1.372 . S
C2387 C2386 1.372 . S
C2387 C2388 1.400 . S
C2387 C2392 1.490 . S
C2388 H2378 0.930 . S
C2388 C2387 1.400 . S
C2388 C2391 1.386 . S
H2389 C2405 0.930 . S
H2390 C2406 0.931 . S
C2391 H2379 0.929 . S
C2391 C2385 1.390 . S
C2391 C2388 1.386 . S
C2392 C2387 1.490 . S
C2392 C2394 1.395 . S
C2392 C2395 1.403 . S
H2393 C2399 0.930 . S
C2394 H2380 0.930 . S
C2394 C2392 1.395 . S
C2394 C2397 1.403 . S
C2395 C2392 1.403 . S
C2395 C2396 1.524 . S
C2395 C2399 1.400 . S
C2396 H2381 0.960 . S
C2396 H2382 0.960 . S
C2396 H2383 0.960 . S
C2396 C2395 1.524 . S
C2397 C2394 1.403 . S
C2397 C2398 1.392 . S
C2397 C2401 1.495 . S
C2398 C2397 1.392 . S
C2398 C2399 1.385 . S
C2398 C2400 1.478 . S
C2399 H2393 0.930 . S
C2399 C2395 1.400 . S
C2399 C2398 1.385 . S
C2400 C2398 1.478 . S
C2400 C2402 1.381 . S
C2400 C2406 1.383 . S
C2401 C2397 1.495 . S
C2401 H2407 0.959 . S
C2401 H2408 0.961 . S
C2401 H2409 0.960 . S
C2402 C2400 1.381 . S
C2402 C2403 1.394 . S
C2402 H2410 0.930 . S
C2403 C2402 1.394 . S
C2403 C2404 1.383 . S
C2403 H2411 0.929 . S
C2404 C2403 1.383 . S
C2404 C2405 1.377 . S
C2405 H2389 0.930 . S
C2405 C2404 1.377 . S
C2405 C2406 1.379 . S
C2406 H2390 0.931 . S
C2406 C2400 1.383 . S
C2406 C2405 1.379 . S
H2407 C2401 0.959 . S
H2408 C2401 0.961 . S
H2409 C2401 0.960 . S
H2410 C2402 0.930 . S
H2411 C2403 0.929 . S
H2412 C2420 0.929 . S
H2413 C2422 0.930 . S
H2414 C2424 0.930 . S
H2415 C2427 0.929 . S
H2416 C2430 0.930 . S
H2417 C2432 0.960 . S
H2418 C2432 0.960 . S
H2419 C2432 0.960 . S
C2420 H2412 0.929 . S
C2420 C2421 1.377 . S
C2420 C2422 1.384 . S
C2421 C2420 1.377 . S
C2421 C2427 1.390 . S
C2422 H2413 0.930 . S
C2422 C2420 1.384 . S
C2422 C2423 1.372 . S
C2423 C2422 1.372 . S
C2423 C2424 1.400 . S
C2423 C2428 1.490 . S
C2424 H2414 0.930 . S
C2424 C2423 1.400 . S
C2424 C2427 1.386 . S
H2425 C2441 0.930 . S
H2426 C2442 0.931 . S
C2427 H2415 0.929 . S
C2427 C2421 1.390 . S
C2427 C2424 1.386 . S
C2428 C2423 1.490 . S
C2428 C2430 1.395 . S
C2428 C2431 1.403 . S
H2429 C2435 0.930 . S
C2430 H2416 0.930 . S
C2430 C2428 1.395 . S
C2430 C2433 1.403 . S
C2431 C2428 1.403 . S
C2431 C2432 1.524 . S
C2431 C2435 1.400 . S
C2432 H2417 0.960 . S
C2432 H2418 0.960 . S
C2432 H2419 0.960 . S
C2432 C2431 1.524 . S
C2433 C2430 1.403 . S
C2433 C2434 1.392 . S
C2433 C2437 1.495 . S
C2434 C2433 1.392 . S
C2434 C2435 1.385 . S
C2434 C2436 1.478 . S
C2435 H2429 0.930 . S
C2435 C2431 1.400 . S
C2435 C2434 1.385 . S
C2436 C2434 1.478 . S
C2436 C2438 1.381 . S
C2436 C2442 1.383 . S
C2437 C2433 1.495 . S
C2437 H2443 0.959 . S
C2437 H2444 0.961 . S
C2437 H2445 0.960 . S
C2438 C2436 1.381 . S
C2438 C2439 1.394 . S
C2438 H2446 0.930 . S
C2439 C2438 1.394 . S
C2439 C2440 1.383 . S
C2439 H2447 0.929 . S
C2440 C2439 1.383 . S
C2440 C2441 1.377 . S
C2441 H2425 0.930 . S
C2441 C2440 1.377 . S
C2441 C2442 1.379 . S
C2442 H2426 0.931 . S
C2442 C2436 1.383 . S
C2442 C2441 1.379 . S
H2443 C2437 0.959 . S
H2444 C2437 0.961 . S
H2445 C2437 0.960 . S
H2446 C2438 0.930 . S
H2447 C2439 0.929 . S
H2448 C2456 0.929 . S
H2449 C2458 0.930 . S
H2450 C2460 0.930 . S
H2451 C2463 0.929 . S
H2452 C2466 0.930 . S
H2453 C2468 0.960 . S
H2454 C2468 0.960 . S
H2455 C2468 0.960 . S
C2456 H2448 0.929 . S
C2456 C2457 1.377 . S
C2456 C2458 1.384 . S
C2457 C2456 1.377 . S
C2457 C2463 1.390 . S
C2458 H2449 0.930 . S
C2458 C2456 1.384 . S
C2458 C2459 1.372 . S
C2459 C2458 1.372 . S
C2459 C2460 1.400 . S
C2459 C2464 1.490 . S
C2460 H2450 0.930 . S
C2460 C2459 1.400 . S
C2460 C2463 1.386 . S
H2461 C2477 0.930 . S
H2462 C2478 0.931 . S
C2463 H2451 0.929 . S
C2463 C2457 1.390 . S
C2463 C2460 1.386 . S
C2464 C2459 1.490 . S
C2464 C2466 1.395 . S
C2464 C2467 1.403 . S
H2465 C2471 0.930 . S
C2466 H2452 0.930 . S
C2466 C2464 1.395 . S
C2466 C2469 1.403 . S
C2467 C2464 1.403 . S
C2467 C2468 1.524 . S
C2467 C2471 1.400 . S
C2468 H2453 0.960 . S
C2468 H2454 0.960 . S
C2468 H2455 0.960 . S
C2468 C2467 1.524 . S
C2469 C2466 1.403 . S
C2469 C2470 1.392 . S
C2469 C2473 1.495 . S
C2470 C2469 1.392 . S
C2470 C2471 1.385 . S
C2470 C2472 1.478 . S
C2471 H2465 0.930 . S
C2471 C2467 1.400 . S
C2471 C2470 1.385 . S
C2472 C2470 1.478 . S
C2472 C2474 1.381 . S
C2472 C2478 1.383 . S
C2473 C2469 1.495 . S
C2473 H2479 0.959 . S
C2473 H2480 0.961 . S
C2473 H2481 0.960 . S
C2474 C2472 1.381 . S
C2474 C2475 1.394 . S
C2474 H2482 0.930 . S
C2475 C2474 1.394 . S
C2475 C2476 1.383 . S
C2475 H2483 0.929 . S
C2476 C2475 1.383 . S
C2476 C2477 1.377 . S
C2477 H2461 0.930 . S
C2477 C2476 1.377 . S
C2477 C2478 1.379 . S
C2478 H2462 0.931 . S
C2478 C2472 1.383 . S
C2478 C2477 1.379 . S
H2479 C2473 0.959 . S
H2480 C2473 0.961 . S
H2481 C2473 0.960 . S
H2482 C2474 0.930 . S
H2483 C2475 0.929 . S
H2484 C2492 0.929 . S
H2485 C2494 0.930 . S
H2486 C2496 0.930 . S
H2487 C2499 0.929 . S
H2488 C2502 0.930 . S
H2489 C2504 0.960 . S
H2490 C2504 0.960 . S
H2491 C2504 0.960 . S
C2492 H2484 0.929 . S
C2492 C2493 1.377 . S
C2492 C2494 1.384 . S
C2493 C2492 1.377 . S
C2493 C2499 1.390 . S
C2494 H2485 0.930 . S
C2494 C2492 1.384 . S
C2494 C2495 1.372 . S
C2495 C2494 1.372 . S
C2495 C2496 1.400 . S
C2495 C2500 1.490 . S
C2496 H2486 0.930 . S
C2496 C2495 1.400 . S
C2496 C2499 1.386 . S
H2497 C2513 0.930 . S
H2498 C2514 0.931 . S
C2499 H2487 0.929 . S
C2499 C2493 1.390 . S
C2499 C2496 1.386 . S
C2500 C2495 1.490 . S
C2500 C2502 1.395 . S
C2500 C2503 1.403 . S
H2501 C2507 0.930 . S
C2502 H2488 0.930 . S
C2502 C2500 1.395 . S
C2502 C2505 1.403 . S
C2503 C2500 1.403 . S
C2503 C2504 1.524 . S
C2503 C2507 1.400 . S
C2504 H2489 0.960 . S
C2504 H2490 0.960 . S
C2504 H2491 0.960 . S
C2504 C2503 1.524 . S
C2505 C2502 1.403 . S
C2505 C2506 1.392 . S
C2505 C2509 1.495 . S
C2506 C2505 1.392 . S
C2506 C2507 1.385 . S
C2506 C2508 1.478 . S
C2507 H2501 0.930 . S
C2507 C2503 1.400 . S
C2507 C2506 1.385 . S
C2508 C2506 1.478 . S
C2508 C2510 1.381 . S
C2508 C2514 1.383 . S
C2509 C2505 1.495 . S
C2509 H2515 0.959 . S
C2509 H2516 0.961 . S
C2509 H2517 0.960 . S
C2510 C2508 1.381 . S
C2510 C2511 1.394 . S
C2510 H2518 0.930 . S
C2511 C2510 1.394 . S
C2511 C2512 1.383 . S
C2511 H2519 0.929 . S
C2512 C2511 1.383 . S
C2512 C2513 1.377 . S
C2513 H2497 0.930 . S
C2513 C2512 1.377 . S
C2513 C2514 1.379 . S
C2514 H2498 0.931 . S
C2514 C2508 1.383 . S
C2514 C2513 1.379 . S
H2515 C2509 0.959 . S
H2516 C2509 0.961 . S
H2517 C2509 0.960 . S
H2518 C2510 0.930 . S
H2519 C2511 0.929 . S
H2520 C2528 0.929 . S
H2521 C2530 0.930 . S
H2522 C2532 0.930 . S
H2523 C2535 0.929 . S
H2524 C2538 0.930 . S
H2525 C2540 0.960 . S
H2526 C2540 0.960 . S
H2527 C2540 0.960 . S
C2528 H2520 0.929 . S
C2528 C2529 1.377 . S
C2528 C2530 1.384 . S
C2529 C2528 1.377 . S
C2529 C2535 1.390 . S
C2530 H2521 0.930 . S
C2530 C2528 1.384 . S
C2530 C2531 1.372 . S
C2531 C2530 1.372 . S
C2531 C2532 1.400 . S
C2531 C2536 1.490 . S
C2532 H2522 0.930 . S
C2532 C2531 1.400 . S
C2532 C2535 1.386 . S
H2533 C2549 0.930 . S
H2534 C2550 0.931 . S
C2535 H2523 0.929 . S
C2535 C2529 1.390 . S
C2535 C2532 1.386 . S
C2536 C2531 1.490 . S
C2536 C2538 1.395 . S
C2536 C2539 1.403 . S
H2537 C2543 0.930 . S
C2538 H2524 0.930 . S
C2538 C2536 1.395 . S
C2538 C2541 1.403 . S
C2539 C2536 1.403 . S
C2539 C2540 1.524 . S
C2539 C2543 1.400 . S
C2540 H2525 0.960 . S
C2540 H2526 0.960 . S
C2540 H2527 0.960 . S
C2540 C2539 1.524 . S
C2541 C2538 1.403 . S
C2541 C2542 1.392 . S
C2541 C2545 1.495 . S
C2542 C2541 1.392 . S
C2542 C2543 1.385 . S
C2542 C2544 1.478 . S
C2543 H2537 0.930 . S
C2543 C2539 1.400 . S
C2543 C2542 1.385 . S
C2544 C2542 1.478 . S
C2544 C2546 1.381 . S
C2544 C2550 1.383 . S
C2545 C2541 1.495 . S
C2545 H2551 0.959 . S
C2545 H2552 0.961 . S
C2545 H2553 0.960 . S
C2546 C2544 1.381 . S
C2546 C2547 1.394 . S
C2546 H2554 0.930 . S
C2547 C2546 1.394 . S
C2547 C2548 1.383 . S
C2547 H2555 0.929 . S
C2548 C2547 1.383 . S
C2548 C2549 1.377 . S
C2549 H2533 0.930 . S
C2549 C2548 1.377 . S
C2549 C2550 1.379 . S
C2550 H2534 0.931 . S
C2550 C2544 1.383 . S
C2550 C2549 1.379 . S
H2551 C2545 0.959 . S
H2552 C2545 0.961 . S
H2553 C2545 0.960 . S
H2554 C2546 0.930 . S
H2555 C2547 0.929 . S
H2556 C2564 0.929 . S
H2557 C2566 0.930 . S
H2558 C2568 0.930 . S
H2559 C2571 0.929 . S
H2560 C2574 0.930 . S
H2561 C2576 0.960 . S
H2562 C2576 0.960 . S
H2563 C2576 0.960 . S
C2564 H2556 0.929 . S
C2564 C2565 1.377 . S
C2564 C2566 1.384 . S
C2565 C2564 1.377 . S
C2565 C2571 1.390 . S
C2566 H2557 0.930 . S
C2566 C2564 1.384 . S
C2566 C2567 1.372 . S
C2567 C2566 1.372 . S
C2567 C2568 1.400 . S
C2567 C2572 1.490 . S
C2568 H2558 0.930 . S
C2568 C2567 1.400 . S
C2568 C2571 1.386 . S
H2569 C2585 0.930 . S
H2570 C2586 0.931 . S
C2571 H2559 0.929 . S
C2571 C2565 1.390 . S
C2571 C2568 1.386 . S
C2572 C2567 1.490 . S
C2572 C2574 1.395 . S
C2572 C2575 1.403 . S
H2573 C2579 0.930 . S
C2574 H2560 0.930 . S
C2574 C2572 1.395 . S
C2574 C2577 1.403 . S
C2575 C2572 1.403 . S
C2575 C2576 1.524 . S
C2575 C2579 1.400 . S
C2576 H2561 0.960 . S
C2576 H2562 0.960 . S
C2576 H2563 0.960 . S
C2576 C2575 1.524 . S
C2577 C2574 1.403 . S
C2577 C2578 1.392 . S
C2577 C2581 1.495 . S
C2578 C2577 1.392 . S
C2578 C2579 1.385 . S
C2578 C2580 1.478 . S
C2579 H2573 0.930 . S
C2579 C2575 1.400 . S
C2579 C2578 1.385 . S
C2580 C2578 1.478 . S
C2580 C2582 1.381 . S
C2580 C2586 1.383 . S
C2581 C2577 1.495 . S
C2581 H2587 0.959 . S
C2581 H2588 0.961 . S
C2581 H2589 0.960 . S
C2582 C2580 1.381 . S
C2582 C2583 1.394 . S
C2582 H2590 0.930 . S
C2583 C2582 1.394 . S
C2583 C2584 1.383 . S
C2583 H2591 0.929 . S
C2584 C2583 1.383 . S
C2584 C2585 1.377 . S
C2585 H2569 0.930 . S
C2585 C2584 1.377 . S
C2585 C2586 1.379 . S
C2586 H2570 0.931 . S
C2586 C2580 1.383 . S
C2586 C2585 1.379 . S
H2587 C2581 0.959 . S
H2588 C2581 0.961 . S
H2589 C2581 0.960 . S
H2590 C2582 0.930 . S
H2591 C2583 0.929 . S
H2592 C2600 0.929 . S
H2593 C2602 0.930 . S
H2594 C2604 0.930 . S
H2595 C2607 0.929 . S
H2596 C2610 0.930 . S
H2597 C2612 0.960 . S
H2598 C2612 0.960 . S
H2599 C2612 0.960 . S
C2600 H2592 0.929 . S
C2600 C2601 1.377 . S
C2600 C2602 1.384 . S
C2601 C2600 1.377 . S
C2601 C2607 1.390 . S
C2602 H2593 0.930 . S
C2602 C2600 1.384 . S
C2602 C2603 1.372 . S
C2603 C2602 1.372 . S
C2603 C2604 1.400 . S
C2603 C2608 1.490 . S
C2604 H2594 0.930 . S
C2604 C2603 1.400 . S
C2604 C2607 1.386 . S
H2605 C2621 0.930 . S
H2606 C2622 0.931 . S
C2607 H2595 0.929 . S
C2607 C2601 1.390 . S
C2607 C2604 1.386 . S
C2608 C2603 1.490 . S
C2608 C2610 1.395 . S
C2608 C2611 1.403 . S
H2609 C2615 0.930 . S
C2610 H2596 0.930 . S
C2610 C2608 1.395 . S
C2610 C2613 1.403 . S
C2611 C2608 1.403 . S
C2611 C2612 1.524 . S
C2611 C2615 1.400 . S
C2612 H2597 0.960 . S
C2612 H2598 0.960 . S
C2612 H2599 0.960 . S
C2612 C2611 1.524 . S
C2613 C2610 1.403 . S
C2613 C2614 1.392 . S
C2613 C2617 1.495 . S
C2614 C2613 1.392 . S
C2614 C2615 1.385 . S
C2614 C2616 1.478 . S
C2615 H2609 0.930 . S
C2615 C2611 1.400 . S
C2615 C2614 1.385 . S
C2616 C2614 1.478 . S
C2616 C2618 1.381 . S
C2616 C2622 1.383 . S
C2617 C2613 1.495 . S
C2617 H2623 0.959 . S
C2617 H2624 0.961 . S
C2617 H2625 0.960 . S
C2618 C2616 1.381 . S
C2618 C2619 1.394 . S
C2618 H2626 0.930 . S
C2619 C2618 1.394 . S
C2619 C2620 1.383 . S
C2619 H2627 0.929 . S
C2620 C2619 1.383 . S
C2620 C2621 1.377 . S
C2621 H2605 0.930 . S
C2621 C2620 1.377 . S
C2621 C2622 1.379 . S
C2622 H2606 0.931 . S
C2622 C2616 1.383 . S
C2622 C2621 1.379 . S
H2623 C2617 0.959 . S
H2624 C2617 0.961 . S
H2625 C2617 0.960 . S
H2626 C2618 0.930 . S
H2627 C2619 0.929 . S
H2628 C2636 0.929 . S
H2629 C2638 0.930 . S
H2630 C2640 0.930 . S
H2631 C2643 0.929 . S
H2632 C2646 0.930 . S
H2633 C2648 0.960 . S
H2634 C2648 0.960 . S
H2635 C2648 0.960 . S
C2636 H2628 0.929 . S
C2636 C2637 1.377 . S
C2636 C2638 1.384 . S
C2637 C2636 1.377 . S
C2637 C2643 1.390 . S
C2638 H2629 0.930 . S
C2638 C2636 1.384 . S
C2638 C2639 1.372 . S
C2639 C2638 1.372 . S
C2639 C2640 1.400 . S
C2639 C2644 1.490 . S
C2640 H2630 0.930 . S
C2640 C2639 1.400 . S
C2640 C2643 1.386 . S
H2641 C2657 0.930 . S
H2642 C2658 0.931 . S
C2643 H2631 0.929 . S
C2643 C2637 1.390 . S
C2643 C2640 1.386 . S
C2644 C2639 1.490 . S
C2644 C2646 1.395 . S
C2644 C2647 1.403 . S
H2645 C2651 0.930 . S
C2646 H2632 0.930 . S
C2646 C2644 1.395 . S
C2646 C2649 1.403 . S
C2647 C2644 1.403 . S
C2647 C2648 1.524 . S
C2647 C2651 1.400 . S
C2648 H2633 0.960 . S
C2648 H2634 0.960 . S
C2648 H2635 0.960 . S
C2648 C2647 1.524 . S
C2649 C2646 1.403 . S
C2649 C2650 1.392 . S
C2649 C2653 1.495 . S
C2650 C2649 1.392 . S
C2650 C2651 1.385 . S
C2650 C2652 1.478 . S
C2651 H2645 0.930 . S
C2651 C2647 1.400 . S
C2651 C2650 1.385 . S
C2652 C2650 1.478 . S
C2652 C2654 1.381 . S
C2652 C2658 1.383 . S
C2653 C2649 1.495 . S
C2653 H2659 0.959 . S
C2653 H2660 0.961 . S
C2653 H2661 0.960 . S
C2654 C2652 1.381 . S
C2654 C2655 1.394 . S
C2654 H2662 0.930 . S
C2655 C2654 1.394 . S
C2655 C2656 1.383 . S
C2655 H2663 0.929 . S
C2656 C2655 1.383 . S
C2656 C2657 1.377 . S
C2657 H2641 0.930 . S
C2657 C2656 1.377 . S
C2657 C2658 1.379 . S
C2658 H2642 0.931 . S
C2658 C2652 1.383 . S
C2658 C2657 1.379 . S
H2659 C2653 0.959 . S
H2660 C2653 0.961 . S
H2661 C2653 0.960 . S
H2662 C2654 0.930 . S
H2663 C2655 0.929 . S
H2664 C2672 0.929 . S
H2665 C2674 0.930 . S
H2666 C2676 0.930 . S
H2667 C2679 0.929 . S
H2668 C2682 0.930 . S
H2669 C2684 0.960 . S
H2670 C2684 0.960 . S
H2671 C2684 0.960 . S
C2672 H2664 0.929 . S
C2672 C2673 1.377 . S
C2672 C2674 1.384 . S
C2673 C2672 1.377 . S
C2673 C2679 1.390 . S
C2674 H2665 0.930 . S
C2674 C2672 1.384 . S
C2674 C2675 1.372 . S
C2675 C2674 1.372 . S
C2675 C2676 1.400 . S
C2675 C2680 1.490 . S
C2676 H2666 0.930 . S
C2676 C2675 1.400 . S
C2676 C2679 1.386 . S
H2677 C2693 0.930 . S
H2678 C2694 0.931 . S
C2679 H2667 0.929 . S
C2679 C2673 1.390 . S
C2679 C2676 1.386 . S
C2680 C2675 1.490 . S
C2680 C2682 1.395 . S
C2680 C2683 1.403 . S
H2681 C2687 0.930 . S
C2682 H2668 0.930 . S
C2682 C2680 1.395 . S
C2682 C2685 1.403 . S
C2683 C2680 1.403 . S
C2683 C2684 1.524 . S
C2683 C2687 1.400 . S
C2684 H2669 0.960 . S
C2684 H2670 0.960 . S
C2684 H2671 0.960 . S
C2684 C2683 1.524 . S
C2685 C2682 1.403 . S
C2685 C2686 1.392 . S
C2685 C2689 1.495 . S
C2686 C2685 1.392 . S
C2686 C2687 1.385 . S
C2686 C2688 1.478 . S
C2687 H2681 0.930 . S
C2687 C2683 1.400 . S
C2687 C2686 1.385 . S
C2688 C2686 1.478 . S
C2688 C2690 1.381 . S
C2688 C2694 1.383 . S
C2689 C2685 1.495 . S
C2689 H2695 0.959 . S
C2689 H2696 0.961 . S
C2689 H2697 0.960 . S
C2690 C2688 1.381 . S
C2690 C2691 1.394 . S
C2690 H2698 0.930 . S
C2691 C2690 1.394 . S
C2691 C2692 1.383 . S
C2691 H2699 0.929 . S
C2692 C2691 1.383 . S
C2692 C2693 1.377 . S
C2693 H2677 0.930 . S
C2693 C2692 1.377 . S
C2693 C2694 1.379 . S
C2694 H2678 0.931 . S
C2694 C2688 1.383 . S
C2694 C2693 1.379 . S
H2695 C2689 0.959 . S
H2696 C2689 0.961 . S
H2697 C2689 0.960 . S
H2698 C2690 0.930 . S
H2699 C2691 0.929 . S
H2700 C2708 0.929 . S
H2701 C2710 0.930 . S
H2702 C2712 0.930 . S
H2703 C2715 0.929 . S
H2704 C2718 0.930 . S
H2705 C2720 0.960 . S
H2706 C2720 0.960 . S
H2707 C2720 0.960 . S
C2708 H2700 0.929 . S
C2708 C2709 1.377 . S
C2708 C2710 1.384 . S
C2709 C2708 1.377 . S
C2709 C2715 1.390 . S
C2710 H2701 0.930 . S
C2710 C2708 1.384 . S
C2710 C2711 1.372 . S
C2711 C2710 1.372 . S
C2711 C2712 1.400 . S
C2711 C2716 1.490 . S
C2712 H2702 0.930 . S
C2712 C2711 1.400 . S
C2712 C2715 1.386 . S
H2713 C2729 0.930 . S
H2714 C2730 0.931 . S
C2715 H2703 0.929 . S
C2715 C2709 1.390 . S
C2715 C2712 1.386 . S
C2716 C2711 1.490 . S
C2716 C2718 1.395 . S
C2716 C2719 1.403 . S
H2717 C2723 0.930 . S
C2718 H2704 0.930 . S
C2718 C2716 1.395 . S
C2718 C2721 1.403 . S
C2719 C2716 1.403 . S
C2719 C2720 1.524 . S
C2719 C2723 1.400 . S
C2720 H2705 0.960 . S
C2720 H2706 0.960 . S
C2720 H2707 0.960 . S
C2720 C2719 1.524 . S
C2721 C2718 1.403 . S
C2721 C2722 1.392 . S
C2721 C2725 1.495 . S
C2722 C2721 1.392 . S
C2722 C2723 1.385 . S
C2722 C2724 1.478 . S
C2723 H2717 0.930 . S
C2723 C2719 1.400 . S
C2723 C2722 1.385 . S
C2724 C2722 1.478 . S
C2724 C2726 1.381 . S
C2724 C2730 1.383 . S
C2725 C2721 1.495 . S
C2725 H2731 0.959 . S
C2725 H2732 0.961 . S
C2725 H2733 0.960 . S
C2726 C2724 1.381 . S
C2726 C2727 1.394 . S
C2726 H2734 0.930 . S
C2727 C2726 1.394 . S
C2727 C2728 1.383 . S
C2727 H2735 0.929 . S
C2728 C2727 1.383 . S
C2728 C2729 1.377 . S
C2729 H2713 0.930 . S
C2729 C2728 1.377 . S
C2729 C2730 1.379 . S
C2730 H2714 0.931 . S
C2730 C2724 1.383 . S
C2730 C2729 1.379 . S
H2731 C2725 0.959 . S
H2732 C2725 0.961 . S
H2733 C2725 0.960 . S
H2734 C2726 0.930 . S
H2735 C2727 0.929 . S
H2736 C2744 0.929 . S
H2737 C2746 0.930 . S
H2738 C2748 0.930 . S
H2739 C2751 0.929 . S
H2740 C2754 0.930 . S
H2741 C2756 0.960 . S
H2742 C2756 0.960 . S
H2743 C2756 0.960 . S
C2744 H2736 0.929 . S
C2744 C2745 1.377 . S
C2744 C2746 1.384 . S
C2745 C2744 1.377 . S
C2745 C2751 1.390 . S
C2746 H2737 0.930 . S
C2746 C2744 1.384 . S
C2746 C2747 1.372 . S
C2747 C2746 1.372 . S
C2747 C2748 1.400 . S
C2747 C2752 1.490 . S
C2748 H2738 0.930 . S
C2748 C2747 1.400 . S
C2748 C2751 1.386 . S
H2749 C2765 0.930 . S
H2750 C2766 0.931 . S
C2751 H2739 0.929 . S
C2751 C2745 1.390 . S
C2751 C2748 1.386 . S
C2752 C2747 1.490 . S
C2752 C2754 1.395 . S
C2752 C2755 1.403 . S
H2753 C2759 0.930 . S
C2754 H2740 0.930 . S
C2754 C2752 1.395 . S
C2754 C2757 1.403 . S
C2755 C2752 1.403 . S
C2755 C2756 1.524 . S
C2755 C2759 1.400 . S
C2756 H2741 0.960 . S
C2756 H2742 0.960 . S
C2756 H2743 0.960 . S
C2756 C2755 1.524 . S
C2757 C2754 1.403 . S
C2757 C2758 1.392 . S
C2757 C2761 1.495 . S
C2758 C2757 1.392 . S
C2758 C2759 1.385 . S
C2758 C2760 1.478 . S
C2759 H2753 0.930 . S
C2759 C2755 1.400 . S
C2759 C2758 1.385 . S
C2760 C2758 1.478 . S
C2760 C2762 1.381 . S
C2760 C2766 1.383 . S
C2761 C2757 1.495 . S
C2761 H2767 0.959 . S
C2761 H2768 0.961 . S
C2761 H2769 0.960 . S
C2762 C2760 1.381 . S
C2762 C2763 1.394 . S
C2762 H2770 0.930 . S
C2763 C2762 1.394 . S
C2763 C2764 1.383 . S
C2763 H2771 0.929 . S
C2764 C2763 1.383 . S
C2764 C2765 1.377 . S
C2765 H2749 0.930 . S
C2765 C2764 1.377 . S
C2765 C2766 1.379 . S
C2766 H2750 0.931 . S
C2766 C2760 1.383 . S
C2766 C2765 1.379 . S
H2767 C2761 0.959 . S
H2768 C2761 0.961 . S
H2769 C2761 0.960 . S
H2770 C2762 0.930 . S
H2771 C2763 0.929 . S
H2772 C2780 0.929 . S
H2773 C2782 0.930 . S
H2774 C2784 0.930 . S
H2775 C2787 0.929 . S
H2776 C2790 0.930 . S
H2777 C2792 0.960 . S
H2778 C2792 0.960 . S
H2779 C2792 0.960 . S
C2780 H2772 0.929 . S
C2780 C2781 1.377 . S
C2780 C2782 1.384 . S
C2781 C2780 1.377 . S
C2781 C2787 1.390 . S
C2782 H2773 0.930 . S
C2782 C2780 1.384 . S
C2782 C2783 1.372 . S
C2783 C2782 1.372 . S
C2783 C2784 1.400 . S
C2783 C2788 1.490 . S
C2784 H2774 0.930 . S
C2784 C2783 1.400 . S
C2784 C2787 1.386 . S
H2785 C2801 0.930 . S
H2786 C2802 0.931 . S
C2787 H2775 0.929 . S
C2787 C2781 1.390 . S
C2787 C2784 1.386 . S
C2788 C2783 1.490 . S
C2788 C2790 1.395 . S
C2788 C2791 1.403 . S
H2789 C2795 0.930 . S
C2790 H2776 0.930 . S
C2790 C2788 1.395 . S
C2790 C2793 1.403 . S
C2791 C2788 1.403 . S
C2791 C2792 1.524 . S
C2791 C2795 1.400 . S
C2792 H2777 0.960 . S
C2792 H2778 0.960 . S
C2792 H2779 0.960 . S
C2792 C2791 1.524 . S
C2793 C2790 1.403 . S
C2793 C2794 1.392 . S
C2793 C2797 1.495 . S
C2794 C2793 1.392 . S
C2794 C2795 1.385 . S
C2794 C2796 1.478 . S
C2795 H2789 0.930 . S
C2795 C2791 1.400 . S
C2795 C2794 1.385 . S
C2796 C2794 1.478 . S
C2796 C2798 1.381 . S
C2796 C2802 1.383 . S
C2797 C2793 1.495 . S
C2797 H2803 0.959 . S
C2797 H2804 0.961 . S
C2797 H2805 0.960 . S
C2798 C2796 1.381 . S
C2798 C2799 1.394 . S
C2798 H2806 0.930 . S
C2799 C2798 1.394 . S
C2799 C2800 1.383 . S
C2799 H2807 0.929 . S
C2800 C2799 1.383 . S
C2800 C2801 1.377 . S
C2801 H2785 0.930 . S
C2801 C2800 1.377 . S
C2801 C2802 1.379 . S
C2802 H2786 0.931 . S
C2802 C2796 1.383 . S
C2802 C2801 1.379 . S
H2803 C2797 0.959 . S
H2804 C2797 0.961 . S
H2805 C2797 0.960 . S
H2806 C2798 0.930 . S
H2807 C2799 0.929 . S
H2808 C2816 0.929 . S
H2809 C2818 0.930 . S
H2810 C2820 0.930 . S
H2811 C2823 0.929 . S
H2812 C2826 0.930 . S
H2813 C2828 0.960 . S
H2814 C2828 0.960 . S
H2815 C2828 0.960 . S
C2816 H2808 0.929 . S
C2816 C2817 1.377 . S
C2816 C2818 1.384 . S
C2817 C2816 1.377 . S
C2817 C2823 1.390 . S
C2818 H2809 0.930 . S
C2818 C2816 1.384 . S
C2818 C2819 1.372 . S
C2819 C2818 1.372 . S
C2819 C2820 1.400 . S
C2819 C2824 1.490 . S
C2820 H2810 0.930 . S
C2820 C2819 1.400 . S
C2820 C2823 1.386 . S
H2821 C2837 0.930 . S
H2822 C2838 0.931 . S
C2823 H2811 0.929 . S
C2823 C2817 1.390 . S
C2823 C2820 1.386 . S
C2824 C2819 1.490 . S
C2824 C2826 1.395 . S
C2824 C2827 1.403 . S
H2825 C2831 0.930 . S
C2826 H2812 0.930 . S
C2826 C2824 1.395 . S
C2826 C2829 1.403 . S
C2827 C2824 1.403 . S
C2827 C2828 1.524 . S
C2827 C2831 1.400 . S
C2828 H2813 0.960 . S
C2828 H2814 0.960 . S
C2828 H2815 0.960 . S
C2828 C2827 1.524 . S
C2829 C2826 1.403 . S
C2829 C2830 1.392 . S
C2829 C2833 1.495 . S
C2830 C2829 1.392 . S
C2830 C2831 1.385 . S
C2830 C2832 1.478 . S
C2831 H2825 0.930 . S
C2831 C2827 1.400 . S
C2831 C2830 1.385 . S
C2832 C2830 1.478 . S
C2832 C2834 1.381 . S
C2832 C2838 1.383 . S
C2833 C2829 1.495 . S
C2833 H2839 0.959 . S
C2833 H2840 0.961 . S
C2833 H2841 0.960 . S
C2834 C2832 1.381 . S
C2834 C2835 1.394 . S
C2834 H2842 0.930 . S
C2835 C2834 1.394 . S
C2835 C2836 1.383 . S
C2835 H2843 0.929 . S
C2836 C2835 1.383 . S
C2836 C2837 1.377 . S
C2837 H2821 0.930 . S
C2837 C2836 1.377 . S
C2837 C2838 1.379 . S
C2838 H2822 0.931 . S
C2838 C2832 1.383 . S
C2838 C2837 1.379 . S
H2839 C2833 0.959 . S
H2840 C2833 0.961 . S
H2841 C2833 0.960 . S
H2842 C2834 0.930 . S
H2843 C2835 0.929 . S
H2844 C2852 0.929 . S
H2845 C2854 0.930 . S
H2846 C2856 0.930 . S
H2847 C2859 0.929 . S
H2848 C2862 0.930 . S
H2849 C2864 0.960 . S
H2850 C2864 0.960 . S
H2851 C2864 0.960 . S
C2852 H2844 0.929 . S
C2852 C2853 1.377 . S
C2852 C2854 1.384 . S
C2853 C2852 1.377 . S
C2853 C2859 1.390 . S
C2854 H2845 0.930 . S
C2854 C2852 1.384 . S
C2854 C2855 1.372 . S
C2855 C2854 1.372 . S
C2855 C2856 1.400 . S
C2855 C2860 1.490 . S
C2856 H2846 0.930 . S
C2856 C2855 1.400 . S
C2856 C2859 1.386 . S
H2857 C2873 0.930 . S
H2858 C2874 0.931 . S
C2859 H2847 0.929 . S
C2859 C2853 1.390 . S
C2859 C2856 1.386 . S
C2860 C2855 1.490 . S
C2860 C2862 1.395 . S
C2860 C2863 1.403 . S
H2861 C2867 0.930 . S
C2862 H2848 0.930 . S
C2862 C2860 1.395 . S
C2862 C2865 1.403 . S
C2863 C2860 1.403 . S
C2863 C2864 1.524 . S
C2863 C2867 1.400 . S
C2864 H2849 0.960 . S
C2864 H2850 0.960 . S
C2864 H2851 0.960 . S
C2864 C2863 1.524 . S
C2865 C2862 1.403 . S
C2865 C2866 1.392 . S
C2865 C2869 1.495 . S
C2866 C2865 1.392 . S
C2866 C2867 1.385 . S
C2866 C2868 1.478 . S
C2867 H2861 0.930 . S
C2867 C2863 1.400 . S
C2867 C2866 1.385 . S
C2868 C2866 1.478 . S
C2868 C2870 1.381 . S
C2868 C2874 1.383 . S
C2869 C2865 1.495 . S
C2869 H2875 0.959 . S
C2869 H2876 0.961 . S
C2869 H2877 0.960 . S
C2870 C2868 1.381 . S
C2870 C2871 1.394 . S
C2870 H2878 0.930 . S
C2871 C2870 1.394 . S
C2871 C2872 1.383 . S
C2871 H2879 0.929 . S
C2872 C2871 1.383 . S
C2872 C2873 1.377 . S
C2873 H2857 0.930 . S
C2873 C2872 1.377 . S
C2873 C2874 1.379 . S
C2874 H2858 0.931 . S
C2874 C2868 1.383 . S
C2874 C2873 1.379 . S
H2875 C2869 0.959 . S
H2876 C2869 0.961 . S
H2877 C2869 0.960 . S
H2878 C2870 0.930 . S
H2879 C2871 0.929 . S
H2880 C2888 0.929 . S
H2881 C2890 0.930 . S
H2882 C2892 0.930 . S
H2883 C2895 0.929 . S
H2884 C2898 0.930 . S
H2885 C2900 0.960 . S
H2886 C2900 0.960 . S
H2887 C2900 0.960 . S
C2888 H2880 0.929 . S
C2888 C2889 1.377 . S
C2888 C2890 1.384 . S
C2889 C2888 1.377 . S
C2889 C2895 1.390 . S
C2890 H2881 0.930 . S
C2890 C2888 1.384 . S
C2890 C2891 1.372 . S
C2891 C2890 1.372 . S
C2891 C2892 1.400 . S
C2891 C2896 1.490 . S
C2892 H2882 0.930 . S
C2892 C2891 1.400 . S
C2892 C2895 1.386 . S
H2893 C2909 0.930 . S
H2894 C2910 0.931 . S
C2895 H2883 0.929 . S
C2895 C2889 1.390 . S
C2895 C2892 1.386 . S
C2896 C2891 1.490 . S
C2896 C2898 1.395 . S
C2896 C2899 1.403 . S
H2897 C2903 0.930 . S
C2898 H2884 0.930 . S
C2898 C2896 1.395 . S
C2898 C2901 1.403 . S
C2899 C2896 1.403 . S
C2899 C2900 1.524 . S
C2899 C2903 1.400 . S
C2900 H2885 0.960 . S
C2900 H2886 0.960 . S
C2900 H2887 0.960 . S
C2900 C2899 1.524 . S
C2901 C2898 1.403 . S
C2901 C2902 1.392 . S
C2901 C2905 1.495 . S
C2902 C2901 1.392 . S
C2902 C2903 1.385 . S
C2902 C2904 1.478 . S
C2903 H2897 0.930 . S
C2903 C2899 1.400 . S
C2903 C2902 1.385 . S
C2904 C2902 1.478 . S
C2904 C2906 1.381 . S
C2904 C2910 1.383 . S
C2905 C2901 1.495 . S
C2905 H2911 0.959 . S
C2905 H2912 0.961 . S
C2905 H2913 0.960 . S
C2906 C2904 1.381 . S
C2906 C2907 1.394 . S
C2906 H2914 0.930 . S
C2907 C2906 1.394 . S
C2907 C2908 1.383 . S
C2907 H2915 0.929 . S
C2908 C2907 1.383 . S
C2908 C2909 1.377 . S
C2909 H2893 0.930 . S
C2909 C2908 1.377 . S
C2909 C2910 1.379 . S
C2910 H2894 0.931 . S
C2910 C2904 1.383 . S
C2910 C2909 1.379 . S
H2911 C2905 0.959 . S
H2912 C2905 0.961 . S
H2913 C2905 0.960 . S
H2914 C2906 0.930 . S
H2915 C2907 0.929 . S
H2916 C2924 0.929 . S
H2917 C2926 0.930 . S
H2918 C2928 0.930 . S
H2919 C2931 0.929 . S
H2920 C2934 0.930 . S
H2921 C2936 0.960 . S
H2922 C2936 0.960 . S
H2923 C2936 0.960 . S
C2924 H2916 0.929 . S
C2924 C2925 1.377 . S
C2924 C2926 1.384 . S
C2925 C2924 1.377 . S
C2925 C2931 1.390 . S
C2926 H2917 0.930 . S
C2926 C2924 1.384 . S
C2926 C2927 1.372 . S
C2927 C2926 1.372 . S
C2927 C2928 1.400 . S
C2927 C2932 1.490 . S
C2928 H2918 0.930 . S
C2928 C2927 1.400 . S
C2928 C2931 1.386 . S
H2929 C2945 0.930 . S
H2930 C2946 0.931 . S
C2931 H2919 0.929 . S
C2931 C2925 1.390 . S
C2931 C2928 1.386 . S
C2932 C2927 1.490 . S
C2932 C2934 1.395 . S
C2932 C2935 1.403 . S
H2933 C2939 0.930 . S
C2934 H2920 0.930 . S
C2934 C2932 1.395 . S
C2934 C2937 1.403 . S
C2935 C2932 1.403 . S
C2935 C2936 1.524 . S
C2935 C2939 1.400 . S
C2936 H2921 0.960 . S
C2936 H2922 0.960 . S
C2936 H2923 0.960 . S
C2936 C2935 1.524 . S
C2937 C2934 1.403 . S
C2937 C2938 1.392 . S
C2937 C2941 1.495 . S
C2938 C2937 1.392 . S
C2938 C2939 1.385 . S
C2938 C2940 1.478 . S
C2939 H2933 0.930 . S
C2939 C2935 1.400 . S
C2939 C2938 1.385 . S
C2940 C2938 1.478 . S
C2940 C2942 1.381 . S
C2940 C2946 1.383 . S
C2941 C2937 1.495 . S
C2941 H2947 0.959 . S
C2941 H2948 0.961 . S
C2941 H2949 0.960 . S
C2942 C2940 1.381 . S
C2942 C2943 1.394 . S
C2942 H2950 0.930 . S
C2943 C2942 1.394 . S
C2943 C2944 1.383 . S
C2943 H2951 0.929 . S
C2944 C2943 1.383 . S
C2944 C2945 1.377 . S
C2945 H2929 0.930 . S
C2945 C2944 1.377 . S
C2945 C2946 1.379 . S
C2946 H2930 0.931 . S
C2946 C2940 1.383 . S
C2946 C2945 1.379 . S
H2947 C2941 0.959 . S
H2948 C2941 0.961 . S
H2949 C2941 0.960 . S
H2950 C2942 0.930 . S
H2951 C2943 0.929 . S
H2952 C2960 0.929 . S
H2953 C2962 0.930 . S
H2954 C2964 0.930 . S
H2955 C2967 0.929 . S
H2956 C2970 0.930 . S
H2957 C2972 0.960 . S
H2958 C2972 0.960 . S
H2959 C2972 0.960 . S
C2960 H2952 0.929 . S
C2960 C2961 1.377 . S
C2960 C2962 1.384 . S
C2961 C2960 1.377 . S
C2961 C2967 1.390 . S
C2962 H2953 0.930 . S
C2962 C2960 1.384 . S
C2962 C2963 1.372 . S
C2963 C2962 1.372 . S
C2963 C2964 1.400 . S
C2963 C2968 1.490 . S
C2964 H2954 0.930 . S
C2964 C2963 1.400 . S
C2964 C2967 1.386 . S
H2965 C2981 0.930 . S
H2966 C2982 0.931 . S
C2967 H2955 0.929 . S
C2967 C2961 1.390 . S
C2967 C2964 1.386 . S
C2968 C2963 1.490 . S
C2968 C2970 1.395 . S
C2968 C2971 1.403 . S
H2969 C2975 0.930 . S
C2970 H2956 0.930 . S
C2970 C2968 1.395 . S
C2970 C2973 1.403 . S
C2971 C2968 1.403 . S
C2971 C2972 1.524 . S
C2971 C2975 1.400 . S
C2972 H2957 0.960 . S
C2972 H2958 0.960 . S
C2972 H2959 0.960 . S
C2972 C2971 1.524 . S
C2973 C2970 1.403 . S
C2973 C2974 1.392 . S
C2973 C2977 1.495 . S
C2974 C2973 1.392 . S
C2974 C2975 1.385 . S
C2974 C2976 1.478 . S
C2975 H2969 0.930 . S
C2975 C2971 1.400 . S
C2975 C2974 1.385 . S
C2976 C2974 1.478 . S
C2976 C2978 1.381 . S
C2976 C2982 1.383 . S
C2977 C2973 1.495 . S
C2977 H2983 0.959 . S
C2977 H2984 0.961 . S
C2977 H2985 0.960 . S
C2978 C2976 1.381 . S
C2978 C2979 1.394 . S
C2978 H2986 0.930 . S
C2979 C2978 1.394 . S
C2979 C2980 1.383 . S
C2979 H2987 0.929 . S
C2980 C2979 1.383 . S
C2980 C2981 1.377 . S
C2981 H2965 0.930 . S
C2981 C2980 1.377 . S
C2981 C2982 1.379 . S
C2982 H2966 0.931 . S
C2982 C2976 1.383 . S
C2982 C2981 1.379 . S
H2983 C2977 0.959 . S
H2984 C2977 0.961 . S
H2985 C2977 0.960 . S
H2986 C2978 0.930 . S
H2987 C2979 0.929 . S
H2988 C2996 0.929 . S
H2989 C2998 0.930 . S
H2990 C3000 0.930 . S
H2991 C3003 0.929 . S
H2992 C3006 0.930 . S
H2993 C3008 0.960 . S
H2994 C3008 0.960 . S
H2995 C3008 0.960 . S
C2996 H2988 0.929 . S
C2996 C2997 1.377 1_556 S
C2996 C2998 1.384 . S
C2997 C2996 1.377 1_554 S
C2997 C3003 1.390 . S
C2998 H2989 0.930 . S
C2998 C2996 1.384 . S
C2998 C2999 1.372 . S
C2999 C2998 1.372 . S
C2999 C3000 1.400 1_556 S
C2999 C3004 1.490 . S
C3000 H2990 0.930 . S
C3000 C2999 1.400 1_554 S
C3000 C3003 1.386 . S
H3001 C3017 0.930 . S
H3002 C3018 0.931 . S
C3003 H2991 0.929 . S
C3003 C2997 1.390 . S
C3003 C3000 1.386 . S
C3004 C2999 1.490 . S
C3004 C3006 1.395 . S
C3004 C3007 1.403 . S
H3005 C3011 0.930 . S
C3006 H2992 0.930 . S
C3006 C3004 1.395 . S
C3006 C3009 1.403 . S
C3007 C3004 1.403 . S
C3007 C3008 1.524 . S
C3007 C3011 1.400 . S
C3008 H2993 0.960 . S
C3008 H2994 0.960 . S
C3008 H2995 0.960 . S
C3008 C3007 1.524 . S
C3009 C3006 1.403 . S
C3009 C3010 1.392 . S
C3009 C3013 1.495 . S
C3010 C3009 1.392 . S
C3010 C3011 1.385 . S
C3010 C3012 1.478 . S
C3011 H3005 0.930 . S
C3011 C3007 1.400 . S
C3011 C3010 1.385 . S
C3012 C3010 1.478 . S
C3012 C3014 1.381 . S
C3012 C3018 1.383 . S
C3013 C3009 1.495 . S
C3013 H3019 0.959 . S
C3013 H3020 0.961 . S
C3013 H3021 0.960 . S
C3014 C3012 1.381 . S
C3014 C3015 1.394 . S
C3014 H3022 0.930 . S
C3015 C3014 1.394 . S
C3015 C3016 1.383 . S
C3015 H3023 0.929 . S
C3016 C3015 1.383 . S
C3016 C3017 1.377 . S
C3017 H3001 0.930 . S
C3017 C3016 1.377 . S
C3017 C3018 1.379 . S
C3018 H3002 0.931 . S
C3018 C3012 1.383 . S
C3018 C3017 1.379 . S
H3019 C3013 0.959 . S
H3020 C3013 0.961 . S
H3021 C3013 0.960 . S
H3022 C3014 0.930 . S
H3023 C3015 0.929 . S
H3024 C3032 0.929 1_554 S
H3025 C3034 0.930 . S
H3026 C3036 0.930 . S
H3027 C3039 0.929 . S
H3028 C3042 0.930 . S
H3029 C3044 0.960 . S
H3030 C3044 0.960 . S
H3031 C3044 0.960 . S
C3032 H3024 0.929 1_556 S
C3032 C3033 1.384 . S
C3032 C3034 1.384 . S
C3033 C3032 1.384 . S
C3033 C3039 1.418 . S
C3034 H3025 0.930 . S
C3034 C3032 1.384 . S
C3034 C3035 1.372 . S
C3035 C3034 1.372 . S
C3035 C3036 1.400 . S
C3035 C3040 1.490 . S
C3036 H3026 0.930 . S
C3036 C3035 1.400 . S
C3036 C3039 1.386 . S
H3037 C3053 0.930 . S
H3038 C3054 0.931 . S
C3039 H3027 0.929 . S
C3039 C3033 1.418 . S
C3039 C3036 1.386 . S
C3040 C3035 1.490 . S
C3040 C3042 1.395 . S
C3040 C3043 1.403 . S
H3041 C3047 0.930 . S
C3042 H3028 0.930 . S
C3042 C3040 1.395 . S
C3042 C3045 1.403 . S
C3043 C3040 1.403 . S
C3043 C3044 1.524 . S
C3043 C3047 1.400 . S
C3044 H3029 0.960 . S
C3044 H3030 0.960 . S
C3044 H3031 0.960 . S
C3044 C3043 1.524 . S
C3045 C3042 1.403 . S
C3045 C3046 1.392 . S
C3045 C3049 1.495 . S
C3046 C3045 1.392 . S
C3046 C3047 1.385 . S
C3046 C3048 1.478 . S
C3047 H3041 0.930 . S
C3047 C3043 1.400 . S
C3047 C3046 1.385 . S
C3048 C3046 1.478 . S
C3048 C3050 1.381 . S
C3048 C3054 1.383 . S
C3049 C3045 1.495 . S
C3049 H3055 0.959 . S
C3049 H3056 0.961 . S
C3049 H3057 0.960 . S
C3050 C3048 1.381 . S
C3050 C3051 1.394 . S
C3050 H3058 0.930 . S
C3051 C3050 1.394 . S
C3051 C3052 1.383 . S
C3051 H3059 0.929 . S
C3052 C3051 1.383 . S
C3052 C3053 1.377 . S
C3053 H3037 0.930 . S
C3053 C3052 1.377 . S
C3053 C3054 1.379 . S
C3054 H3038 0.931 . S
C3054 C3048 1.383 . S
C3054 C3053 1.379 . S
H3055 C3049 0.959 . S
H3056 C3049 0.961 . S
H3057 C3049 0.960 . S
H3058 C3050 0.930 . S
H3059 C3051 0.929 . S
H3060 C3068 0.929 . S
H3061 C3070 0.930 . S
H3062 C3072 0.930 . S
H3063 C3075 0.929 . S
H3064 C3078 0.930 . S
H3065 C3080 0.960 . S
H3066 C3080 0.960 . S
H3067 C3080 0.960 1_554 S
C3068 H3060 0.929 . S
C3068 C3069 1.377 . S
C3068 C3070 1.384 . S
C3069 C3068 1.377 . S
C3069 C3075 1.390 . S
C3070 H3061 0.930 . S
C3070 C3068 1.384 . S
C3070 C3071 1.372 . S
C3071 C3070 1.372 . S
C3071 C3072 1.400 . S
C3071 C3076 1.490 . S
C3072 H3062 0.930 . S
C3072 C3071 1.400 . S
C3072 C3075 1.386 . S
H3073 C3089 0.930 . S
H3074 C3090 0.931 . S
C3075 H3063 0.929 . S
C3075 C3069 1.390 . S
C3075 C3072 1.386 . S
C3076 C3071 1.490 . S
C3076 C3078 1.395 . S
C3076 C3079 1.403 1_554 S
H3077 C3083 0.930 . S
C3078 H3064 0.930 . S
C3078 C3076 1.395 . S
C3078 C3081 1.403 . S
C3079 C3076 1.403 1_556 S
C3079 C3080 1.524 . S
C3079 C3083 1.400 . S
C3080 H3065 0.960 . S
C3080 H3066 0.960 . S
C3080 H3067 0.960 1_556 S
C3080 C3079 1.524 . S
C3081 C3078 1.403 . S
C3081 C3082 1.392 1_554 S
C3081 C3085 1.495 . S
C3082 C3081 1.392 1_556 S
C3082 C3083 1.385 . S
C3082 C3084 1.478 . S
C3083 H3077 0.930 . S
C3083 C3079 1.400 . S
C3083 C3082 1.385 . S
C3084 C3082 1.478 . S
C3084 C3086 1.381 . S
C3084 C3090 1.383 . S
C3085 C3081 1.495 . S
C3085 H3091 0.959 . S
C3085 H3092 0.961 . S
C3085 H3093 0.960 . S
C3086 C3084 1.381 . S
C3086 C3087 1.394 . S
C3086 H3094 0.930 . S
C3087 C3086 1.394 . S
C3087 C3088 1.383 . S
C3087 H3095 0.929 . S
C3088 C3087 1.383 . S
C3088 C3089 1.377 . S
C3089 H3073 0.930 . S
C3089 C3088 1.377 . S
C3089 C3090 1.379 . S
C3090 H3074 0.931 . S
C3090 C3084 1.383 . S
C3090 C3089 1.379 . S
H3091 C3085 0.959 . S
H3092 C3085 0.961 . S
H3093 C3085 0.960 . S
H3094 C3086 0.930 . S
H3095 C3087 0.929 . S
H3096 C3104 0.929 . S
H3097 C3106 0.930 . S
H3098 C3108 0.930 . S
H3099 C3111 0.929 . S
H3100 C3114 0.930 1_554 S
H3101 C3116 0.960 . S
H3102 C3116 0.960 . S
H3103 C3116 0.960 . S
C3104 H3096 0.929 . S
C3104 C3105 1.377 . S
C3104 C3106 1.384 . S
C3105 C3104 1.377 . S
C3105 C3111 1.390 . S
C3106 H3097 0.930 . S
C3106 C3104 1.384 . S
C3106 C3107 1.326 1_554 S
C3107 C3106 1.326 1_556 S
C3107 C3108 1.410 . S
C3107 C3112 1.528 . S
C3108 H3098 0.930 . S
C3108 C3107 1.410 . S
C3108 C3111 1.386 1_556 S
H3109 C3125 0.930 . S
H3110 C3126 0.931 . S
C3111 H3099 0.929 . S
C3111 C3105 1.390 . S
C3111 C3108 1.386 1_554 S
C3112 C3107 1.528 . S
C3112 C3114 1.395 . S
C3112 C3115 1.403 . S
H3113 C3119 0.930 . S
C3114 H3100 0.930 1_556 S
C3114 C3112 1.395 . S
C3114 C3117 1.403 . S
C3115 C3112 1.403 . S
C3115 C3116 1.524 . S
C3115 C3119 1.400 . S
C3116 H3101 0.960 . S
C3116 H3102 0.960 . S
C3116 H3103 0.960 . S
C3116 C3115 1.524 . S
C3117 C3114 1.403 . S
C3117 C3118 1.392 . S
C3117 C3121 1.486 1_556 S
C3118 C3117 1.392 . S
C3118 C3119 1.385 . S
C3118 C3120 1.478 . S
C3119 H3113 0.930 . S
C3119 C3115 1.400 . S
C3119 C3118 1.385 . S
C3120 C3118 1.478 . S
C3120 C3122 1.381 . S
C3120 C3126 1.383 . S
C3121 C3117 1.486 1_554 S
C3121 H3127 0.976 . S
C3121 H3128 0.958 1_554 S
C3121 H3129 0.956 1_554 S
C3122 C3120 1.381 . S
C3122 C3123 1.394 . S
C3122 H3130 0.930 . S
C3123 C3122 1.394 . S
C3123 C3124 1.383 . S
C3123 H3131 0.929 . S
C3124 C3123 1.383 . S
C3124 C3125 1.377 . S
C3125 H3109 0.930 . S
C3125 C3124 1.377 . S
C3125 C3126 1.379 . S
C3126 H3110 0.931 . S
C3126 C3120 1.383 . S
C3126 C3125 1.379 . S
H3127 C3121 0.976 . S
H3128 C3121 0.958 1_556 S
H3129 C3121 0.956 1_556 S
H3130 C3122 0.930 . S
H3131 C3123 0.929 . S
H3132 C3140 0.929 . S
H3133 C3142 0.930 . S
H3134 C3144 0.930 . S
H3135 C3147 0.982 . S
H3136 C3150 0.930 . S
H3137 C3152 0.960 . S
H3138 C3152 0.960 . S
H3139 C3152 0.960 . S
C3140 H3132 0.929 . S
C3140 C3141 1.377 . S
C3140 C3142 1.384 . S
C3141 C3140 1.377 . S
C3141 C3147 1.390 . S
C3142 H3133 0.930 . S
C3142 C3140 1.384 . S
C3142 C3143 1.372 . S
C3143 C3142 1.372 . S
C3143 C3144 1.400 . S
C3143 C3148 1.490 . S
C3144 H3134 0.930 . S
C3144 C3143 1.400 . S
C3144 C3147 1.386 . S
H3145 C3161 0.930 . S
H3146 C3162 0.931 . S
C3147 H3135 0.982 . S
C3147 C3141 1.390 . S
C3147 C3144 1.386 . S
C3148 C3143 1.490 . S
C3148 C3150 1.395 . S
C3148 C3151 1.403 . S
H3149 C3155 0.930 . S
C3150 H3136 0.930 . S
C3150 C3148 1.395 . S
C3150 C3153 1.403 . S
C3151 C3148 1.403 . S
C3151 C3152 1.524 . S
C3151 C3155 1.400 . S
C3152 H3137 0.960 . S
C3152 H3138 0.960 . S
C3152 H3139 0.960 . S
C3152 C3151 1.524 . S
C3153 C3150 1.403 . S
C3153 C3154 1.392 . S
C3153 C3157 1.495 . S
C3154 C3153 1.392 . S
C3154 C3155 1.385 . S
C3154 C3156 1.478 . S
C3155 H3149 0.930 . S
C3155 C3151 1.400 . S
C3155 C3154 1.385 . S
C3156 C3154 1.478 . S
C3156 C3158 1.381 . S
C3156 C3162 1.383 . S
C3157 C3153 1.495 . S
C3157 H3163 0.959 . S
C3157 H3164 0.961 . S
C3157 H3165 0.960 . S
C3158 C3156 1.381 . S
C3158 C3159 1.394 . S
C3158 H3166 0.930 . S
C3159 C3158 1.394 . S
C3159 C3160 1.383 . S
C3159 H3167 0.929 . S
C3160 C3159 1.383 . S
C3160 C3161 1.377 . S
C3161 H3145 0.930 . S
C3161 C3160 1.377 . S
C3161 C3162 1.379 . S
C3162 H3146 0.931 . S
C3162 C3156 1.383 . S
C3162 C3161 1.379 . S
H3163 C3157 0.959 . S
H3164 C3157 0.961 . S
H3165 C3157 0.960 . S
H3166 C3158 0.930 . S
H3167 C3159 0.929 . S
H3168 C3176 0.929 . S
H3169 C3178 0.930 1_556 S
H3170 C3180 0.930 . S
H3171 C3183 0.929 . S
H3172 C3186 0.930 . S
H3173 C3188 0.960 . S
H3174 C3188 0.948 1_556 S
H3175 C3188 0.960 . S
C3176 H3168 0.929 . S
C3176 C3177 1.377 . S
C3176 C3178 1.384 . S
C3177 C3176 1.377 . S
C3177 C3183 1.390 . S
C3178 H3169 0.930 1_554 S
C3178 C3176 1.384 . S
C3178 C3179 1.372 . S
C3179 C3178 1.372 . S
C3179 C3180 1.400 . S
C3179 C3184 1.525 . S
C3180 H3170 0.930 . S
C3180 C3179 1.400 . S
C3180 C3183 1.386 . S
H3181 C3197 0.930 . S
H3182 C3198 0.931 . S
C3183 H3171 0.929 . S
C3183 C3177 1.390 . S
C3183 C3180 1.386 . S
C3184 C3179 1.525 . S
C3184 C3186 1.368 1_554 S
C3184 C3187 1.397 1_554 S
H3185 C3191 0.930 . S
C3186 H3172 0.930 . S
C3186 C3184 1.368 1_556 S
C3186 C3189 1.403 . S
C3187 C3184 1.397 1_556 S
C3187 C3188 1.524 1_556 S
C3187 C3191 1.400 . S
C3188 H3173 0.960 . S
C3188 H3174 0.948 1_554 S
C3188 H3175 0.960 . S
C3188 C3187 1.524 1_554 S
C3189 C3186 1.403 . S
C3189 C3190 1.392 . S
C3189 C3193 1.495 . S
C3190 C3189 1.392 . S
C3190 C3191 1.385 . S
C3190 C3192 1.478 . S
C3191 H3185 0.930 . S
C3191 C3187 1.400 . S
C3191 C3190 1.385 . S
C3192 C3190 1.478 . S
C3192 C3194 1.381 . S
C3192 C3198 1.383 . S
C3193 C3189 1.495 . S
C3193 H3199 0.959 . S
C3193 H3200 0.961 . S
C3193 H3201 0.960 . S
C3194 C3192 1.381 . S
C3194 C3195 1.394 . S
C3194 H3202 0.930 . S
C3195 C3194 1.394 . S
C3195 C3196 1.383 . S
C3195 H3203 0.929 . S
C3196 C3195 1.383 . S
C3196 C3197 1.377 . S
C3197 H3181 0.930 . S
C3197 C3196 1.377 . S
C3197 C3198 1.379 . S
C3198 H3182 0.931 . S
C3198 C3192 1.383 . S
C3198 C3197 1.379 . S
H3199 C3193 0.959 . S
H3200 C3193 0.961 . S
H3201 C3193 0.960 . S
H3202 C3194 0.930 . S
H3203 C3195 0.929 . S
H3204 C3212 0.929 . S
H3205 C3214 0.930 . S
H3206 C3216 0.930 . S
H3207 C3219 0.929 . S
H3208 C3222 0.930 . S
H3209 C3224 0.960 . S
H3210 C3224 0.960 . S
H3211 C3224 0.960 . S
C3212 H3204 0.929 . S
C3212 C3213 1.377 . S
C3212 C3214 1.384 . S
C3213 C3212 1.377 . S
C3213 C3219 1.390 . S
C3214 H3205 0.930 . S
C3214 C3212 1.384 . S
C3214 C3215 1.372 . S
C3215 C3214 1.372 . S
C3215 C3216 1.400 . S
C3215 C3220 1.490 . S
C3216 H3206 0.930 . S
C3216 C3215 1.400 . S
C3216 C3219 1.386 . S
H3217 C3233 0.930 . S
H3218 C3234 0.931 . S
C3219 H3207 0.929 . S
C3219 C3213 1.390 . S
C3219 C3216 1.386 . S
C3220 C3215 1.490 . S
C3220 C3222 1.395 . S
C3220 C3223 1.403 . S
H3221 C3227 0.930 . S
C3222 H3208 0.930 . S
C3222 C3220 1.395 . S
C3222 C3225 1.403 . S
C3223 C3220 1.403 . S
C3223 C3224 1.524 . S
C3223 C3227 1.400 . S
C3224 H3209 0.960 . S
C3224 H3210 0.960 . S
C3224 H3211 0.960 . S
C3224 C3223 1.524 . S
C3225 C3222 1.403 . S
C3225 C3226 1.392 . S
C3225 C3229 1.495 . S
C3226 C3225 1.392 . S
C3226 C3227 1.385 . S
C3226 C3228 1.478 . S
C3227 H3221 0.930 . S
C3227 C3223 1.400 . S
C3227 C3226 1.385 . S
C3228 C3226 1.478 . S
C3228 C3230 1.381 . S
C3228 C3234 1.383 . S
C3229 C3225 1.495 . S
C3229 H3235 0.959 . S
C3229 H3236 0.961 . S
C3229 H3237 0.960 . S
C3230 C3228 1.381 . S
C3230 C3231 1.394 . S
C3230 H3238 0.930 . S
C3231 C3230 1.394 . S
C3231 C3232 1.383 . S
C3231 H3239 0.929 . S
C3232 C3231 1.383 . S
C3232 C3233 1.377 . S
C3233 H3217 0.930 . S
C3233 C3232 1.377 . S
C3233 C3234 1.379 . S
C3234 H3218 0.931 . S
C3234 C3228 1.383 . S
C3234 C3233 1.379 . S
H3235 C3229 0.959 . S
H3236 C3229 0.961 . S
H3237 C3229 0.960 . S
H3238 C3230 0.930 . S
H3239 C3231 0.929 . S
H3240 C3248 0.929 . S
H3241 C3250 0.930 . S
H3242 C3252 0.930 . S
H3243 C3255 0.929 . S
H3244 C3258 0.930 . S
H3245 C3260 0.960 . S
H3246 C3260 0.960 . S
H3247 C3260 0.960 . S
C3248 H3240 0.929 . S
C3248 C3249 1.377 . S
C3248 C3250 1.384 . S
C3249 C3248 1.377 . S
C3249 C3255 1.390 . S
C3250 H3241 0.930 . S
C3250 C3248 1.384 . S
C3250 C3251 1.372 . S
C3251 C3250 1.372 . S
C3251 C3252 1.400 . S
C3251 C3256 1.490 . S
C3252 H3242 0.930 . S
C3252 C3251 1.400 . S
C3252 C3255 1.386 . S
H3253 C3269 0.930 . S
H3254 C3270 0.931 . S
C3255 H3243 0.929 . S
C3255 C3249 1.390 . S
C3255 C3252 1.386 . S
C3256 C3251 1.490 . S
C3256 C3258 1.395 . S
C3256 C3259 1.403 . S
H3257 C3263 0.930 . S
C3258 H3244 0.930 . S
C3258 C3256 1.395 . S
C3258 C3261 1.403 . S
C3259 C3256 1.403 . S
C3259 C3260 1.524 . S
C3259 C3263 1.400 . S
C3260 H3245 0.960 . S
C3260 H3246 0.960 . S
C3260 H3247 0.960 . S
C3260 C3259 1.524 . S
C3261 C3258 1.403 . S
C3261 C3262 1.392 . S
C3261 C3265 1.495 . S
C3262 C3261 1.392 . S
C3262 C3263 1.385 . S
C3262 C3264 1.478 . S
C3263 H3257 0.930 . S
C3263 C3259 1.400 . S
C3263 C3262 1.385 . S
C3264 C3262 1.478 . S
C3264 C3266 1.381 . S
C3264 C3270 1.383 . S
C3265 C3261 1.495 . S
C3265 H3271 0.959 . S
C3265 H3272 0.961 . S
C3265 H3273 0.960 . S
C3266 C3264 1.381 . S
C3266 C3267 1.394 . S
C3266 H3274 0.930 . S
C3267 C3266 1.394 . S
C3267 C3268 1.383 . S
C3267 H3275 0.929 . S
C3268 C3267 1.383 . S
C3268 C3269 1.377 . S
C3269 H3253 0.930 . S
C3269 C3268 1.377 . S
C3269 C3270 1.379 . S
C3270 H3254 0.931 . S
C3270 C3264 1.383 . S
C3270 C3269 1.379 . S
H3271 C3265 0.959 . S
H3272 C3265 0.961 . S
H3273 C3265 0.960 . S
H3274 C3266 0.930 . S
H3275 C3267 0.929 . S
H3276 C3284 0.929 . S
H3277 C3286 0.930 . S
H3278 C3288 0.930 . S
H3279 C3291 0.929 . S
H3280 C3294 0.930 . S
H3281 C3296 0.960 . S
H3282 C3296 0.960 . S
H3283 C3296 0.960 . S
C3284 H3276 0.929 . S
C3284 C3285 1.377 . S
C3284 C3286 1.384 . S
C3285 C3284 1.377 . S
C3285 C3291 1.390 . S
C3286 H3277 0.930 . S
C3286 C3284 1.384 . S
C3286 C3287 1.372 . S
C3287 C3286 1.372 . S
C3287 C3288 1.400 . S
C3287 C3292 1.490 . S
C3288 H3278 0.930 . S
C3288 C3287 1.400 . S
C3288 C3291 1.386 . S
H3289 C3305 0.930 . S
H3290 C3306 0.931 . S
C3291 H3279 0.929 . S
C3291 C3285 1.390 . S
C3291 C3288 1.386 . S
C3292 C3287 1.490 . S
C3292 C3294 1.395 . S
C3292 C3295 1.403 . S
H3293 C3299 0.930 . S
C3294 H3280 0.930 . S
C3294 C3292 1.395 . S
C3294 C3297 1.403 . S
C3295 C3292 1.403 . S
C3295 C3296 1.524 . S
C3295 C3299 1.400 . S
C3296 H3281 0.960 . S
C3296 H3282 0.960 . S
C3296 H3283 0.960 . S
C3296 C3295 1.524 . S
C3297 C3294 1.403 . S
C3297 C3298 1.392 . S
C3297 C3301 1.495 . S
C3298 C3297 1.392 . S
C3298 C3299 1.385 . S
C3298 C3300 1.478 . S
C3299 H3293 0.930 . S
C3299 C3295 1.400 . S
C3299 C3298 1.385 . S
C3300 C3298 1.478 . S
C3300 C3302 1.381 . S
C3300 C3306 1.383 . S
C3301 C3297 1.495 . S
C3301 H3307 0.959 . S
C3301 H3308 0.961 . S
C3301 H3309 0.960 . S
C3302 C3300 1.381 . S
C3302 C3303 1.394 . S
C3302 H3310 0.930 . S
C3303 C3302 1.394 . S
C3303 C3304 1.383 . S
C3303 H3311 0.929 . S
C3304 C3303 1.383 . S
C3304 C3305 1.377 . S
C3305 H3289 0.930 . S
C3305 C3304 1.377 . S
C3305 C3306 1.379 . S
C3306 H3290 0.931 . S
C3306 C3300 1.383 . S
C3306 C3305 1.379 . S
H3307 C3301 0.959 . S
H3308 C3301 0.961 . S
H3309 C3301 0.960 . S
H3310 C3302 0.930 . S
H3311 C3303 0.929 . S
H3312 C3320 0.929 . S
H3313 C3322 0.930 . S
H3314 C3324 0.930 . S
H3315 C3327 0.929 . S
H3316 C3330 0.930 . S
H3317 C3332 0.960 . S
H3318 C3332 0.960 . S
H3319 C3332 0.960 . S
C3320 H3312 0.929 . S
C3320 C3321 1.377 . S
C3320 C3322 1.384 . S
C3321 C3320 1.377 . S
C3321 C3327 1.390 . S
C3322 H3313 0.930 . S
C3322 C3320 1.384 . S
C3322 C3323 1.372 . S
C3323 C3322 1.372 . S
C3323 C3324 1.400 . S
C3323 C3328 1.490 . S
C3324 H3314 0.930 . S
C3324 C3323 1.400 . S
C3324 C3327 1.386 . S
H3325 C3341 0.930 . S
H3326 C3342 0.931 . S
C3327 H3315 0.929 . S
C3327 C3321 1.390 . S
C3327 C3324 1.386 . S
C3328 C3323 1.490 . S
C3328 C3330 1.395 . S
C3328 C3331 1.403 . S
H3329 C3335 0.930 . S
C3330 H3316 0.930 . S
C3330 C3328 1.395 . S
C3330 C3333 1.403 . S
C3331 C3328 1.403 . S
C3331 C3332 1.524 . S
C3331 C3335 1.400 . S
C3332 H3317 0.960 . S
C3332 H3318 0.960 . S
C3332 H3319 0.960 . S
C3332 C3331 1.524 . S
C3333 C3330 1.403 . S
C3333 C3334 1.392 . S
C3333 C3337 1.495 . S
C3334 C3333 1.392 . S
C3334 C3335 1.385 . S
C3334 C3336 1.478 . S
C3335 H3329 0.930 . S
C3335 C3331 1.400 . S
C3335 C3334 1.385 . S
C3336 C3334 1.478 . S
C3336 C3338 1.381 . S
C3336 C3342 1.383 . S
C3337 C3333 1.495 . S
C3337 H3343 0.959 . S
C3337 H3344 0.961 . S
C3337 H3345 0.960 . S
C3338 C3336 1.381 . S
C3338 C3339 1.394 . S
C3338 H3346 0.930 . S
C3339 C3338 1.394 . S
C3339 C3340 1.383 . S
C3339 H3347 0.929 . S
C3340 C3339 1.383 . S
C3340 C3341 1.377 . S
C3341 H3325 0.930 . S
C3341 C3340 1.377 . S
C3341 C3342 1.379 . S
C3342 H3326 0.931 . S
C3342 C3336 1.383 . S
C3342 C3341 1.379 . S
H3343 C3337 0.959 . S
H3344 C3337 0.961 . S
H3345 C3337 0.960 . S
H3346 C3338 0.930 . S
H3347 C3339 0.929 . S
H3348 C3356 0.929 . S
H3349 C3358 0.930 . S
H3350 C3360 0.930 . S
H3351 C3363 0.929 . S
H3352 C3366 0.930 . S
H3353 C3368 0.960 . S
H3354 C3368 0.960 . S
H3355 C3368 0.960 . S
C3356 H3348 0.929 . S
C3356 C3357 1.377 . S
C3356 C3358 1.384 . S
C3357 C3356 1.377 . S
C3357 C3363 1.390 . S
C3358 H3349 0.930 . S
C3358 C3356 1.384 . S
C3358 C3359 1.372 . S
C3359 C3358 1.372 . S
C3359 C3360 1.400 . S
C3359 C3364 1.490 . S
C3360 H3350 0.930 . S
C3360 C3359 1.400 . S
C3360 C3363 1.386 . S
H3361 C3377 0.930 . S
H3362 C3378 0.931 . S
C3363 H3351 0.929 . S
C3363 C3357 1.390 . S
C3363 C3360 1.386 . S
C3364 C3359 1.490 . S
C3364 C3366 1.395 . S
C3364 C3367 1.403 . S
H3365 C3371 0.930 . S
C3366 H3352 0.930 . S
C3366 C3364 1.395 . S
C3366 C3369 1.403 . S
C3367 C3364 1.403 . S
C3367 C3368 1.524 . S
C3367 C3371 1.400 . S
C3368 H3353 0.960 . S
C3368 H3354 0.960 . S
C3368 H3355 0.960 . S
C3368 C3367 1.524 . S
C3369 C3366 1.403 . S
C3369 C3370 1.392 . S
C3369 C3373 1.495 . S
C3370 C3369 1.392 . S
C3370 C3371 1.385 . S
C3370 C3372 1.478 . S
C3371 H3365 0.930 . S
C3371 C3367 1.400 . S
C3371 C3370 1.385 . S
C3372 C3370 1.478 . S
C3372 C3374 1.381 . S
C3372 C3378 1.383 . S
C3373 C3369 1.495 . S
C3373 H3379 0.959 . S
C3373 H3380 0.961 . S
C3373 H3381 0.960 . S
C3374 C3372 1.381 . S
C3374 C3375 1.394 . S
C3374 H3382 0.930 . S
C3375 C3374 1.394 . S
C3375 C3376 1.383 . S
C3375 H3383 0.929 . S
C3376 C3375 1.383 . S
C3376 C3377 1.377 . S
C3377 H3361 0.930 . S
C3377 C3376 1.377 . S
C3377 C3378 1.379 . S
C3378 H3362 0.931 . S
C3378 C3372 1.383 . S
C3378 C3377 1.379 . S
H3379 C3373 0.959 . S
H3380 C3373 0.961 . S
H3381 C3373 0.960 . S
H3382 C3374 0.930 . S
H3383 C3375 0.929 . S
H3384 C3392 0.926 1_455 S
H3385 C3394 0.930 . S
H3386 C3396 0.930 . S
H3387 C3399 0.929 . S
H3388 C3402 0.930 . S
H3389 C3404 0.960 . S
H3390 C3404 0.960 . S
H3391 C3404 0.960 . S
C3392 H3384 0.926 1_655 S
C3392 C3393 1.377 . S
C3392 C3394 1.384 . S
C3393 C3392 1.377 . S
C3393 C3399 1.390 . S
C3394 H3385 0.930 . S
C3394 C3392 1.384 . S
C3394 C3395 1.372 . S
C3395 C3394 1.372 . S
C3395 C3396 1.400 . S
C3395 C3400 1.490 . S
C3396 H3386 0.930 . S
C3396 C3395 1.400 . S
C3396 C3399 1.386 . S
H3397 C3413 0.930 . S
H3398 C3414 0.931 . S
C3399 H3387 0.929 . S
C3399 C3393 1.390 . S
C3399 C3396 1.386 . S
C3400 C3395 1.490 . S
C3400 C3402 1.395 . S
C3400 C3403 1.403 . S
H3401 C3407 0.930 . S
C3402 H3388 0.930 . S
C3402 C3400 1.395 . S
C3402 C3405 1.403 . S
C3403 C3400 1.403 . S
C3403 C3404 1.524 . S
C3403 C3407 1.400 . S
C3404 H3389 0.960 . S
C3404 H3390 0.960 . S
C3404 H3391 0.960 . S
C3404 C3403 1.524 . S
C3405 C3402 1.403 . S
C3405 C3406 1.392 . S
C3405 C3409 1.495 . S
C3406 C3405 1.392 . S
C3406 C3407 1.385 . S
C3406 C3408 1.478 . S
C3407 H3401 0.930 . S
C3407 C3403 1.400 . S
C3407 C3406 1.385 . S
C3408 C3406 1.478 . S
C3408 C3410 1.381 . S
C3408 C3414 1.383 . S
C3409 C3405 1.495 . S
C3409 H3415 0.959 . S
C3409 H3416 0.961 . S
C3409 H3417 0.960 . S
C3410 C3408 1.381 . S
C3410 C3411 1.394 . S
C3410 H3418 0.930 . S
C3411 C3410 1.394 . S
C3411 C3412 1.383 . S
C3411 H3419 0.929 . S
C3412 C3411 1.383 . S
C3412 C3413 1.377 . S
C3413 H3397 0.930 . S
C3413 C3412 1.377 . S
C3413 C3414 1.379 . S
C3414 H3398 0.931 . S
C3414 C3408 1.383 . S
C3414 C3413 1.379 . S
H3415 C3409 0.959 . S
H3416 C3409 0.961 . S
H3417 C3409 0.960 . S
H3418 C3410 0.930 . S
H3419 C3411 0.929 . S
H3420 C3428 0.929 . S
H3421 C3430 0.930 . S
H3422 C3432 0.930 . S
H3423 C3435 0.929 . S
H3424 C3438 0.930 . S
H3425 C3440 0.960 . S
H3426 C3440 0.960 . S
H3427 C3440 0.960 . S
C3428 H3420 0.929 . S
C3428 C3429 1.377 . S
C3428 C3430 1.384 . S
C3429 C3428 1.377 . S
C3429 C3435 1.390 . S
C3430 H3421 0.930 . S
C3430 C3428 1.384 . S
C3430 C3431 1.372 . S
C3431 C3430 1.372 . S
C3431 C3432 1.400 . S
C3431 C3436 1.490 . S
C3432 H3422 0.930 . S
C3432 C3431 1.400 . S
C3432 C3435 1.386 . S
H3433 C3449 0.930 1_655 S
H3434 C3450 0.931 . S
C3435 H3423 0.929 . S
C3435 C3429 1.390 . S
C3435 C3432 1.386 . S
C3436 C3431 1.490 . S
C3436 C3438 1.395 . S
C3436 C3439 1.403 . S
H3437 C3443 0.930 . S
C3438 H3424 0.930 . S
C3438 C3436 1.395 . S
C3438 C3441 1.403 . S
C3439 C3436 1.403 . S
C3439 C3440 1.524 . S
C3439 C3443 1.400 . S
C3440 H3425 0.960 . S
C3440 H3426 0.960 . S
C3440 H3427 0.960 . S
C3440 C3439 1.524 . S
C3441 C3438 1.403 . S
C3441 C3442 1.392 . S
C3441 C3445 1.495 . S
C3442 C3441 1.392 . S
C3442 C3443 1.385 . S
C3442 C3444 1.478 . S
C3443 H3437 0.930 . S
C3443 C3439 1.400 . S
C3443 C3442 1.385 . S
C3444 C3442 1.478 . S
C3444 C3446 1.381 . S
C3444 C3450 1.383 . S
C3445 C3441 1.495 . S
C3445 H3451 0.959 . S
C3445 H3452 0.961 . S
C3445 H3453 0.960 . S
C3446 C3444 1.381 . S
C3446 C3447 1.394 . S
C3446 H3454 0.930 . S
C3447 C3446 1.394 . S
C3447 C3448 1.383 . S
C3447 H3455 0.929 . S
C3448 C3447 1.383 . S
C3448 C3449 1.377 . S
C3449 H3433 0.930 1_455 S
C3449 C3448 1.377 . S
C3449 C3450 1.379 . S
C3450 H3434 0.931 . S
C3450 C3444 1.383 . S
C3450 C3449 1.379 . S
H3451 C3445 0.959 . S
H3452 C3445 0.961 . S
H3453 C3445 0.960 . S
H3454 C3446 0.930 . S
H3455 C3447 0.929 . S
H3456 C3464 0.929 . S
H3457 C3466 0.930 . S
H3458 C3468 0.930 . S
H3459 C3471 0.929 . S
H3460 C3474 0.930 . S
H3461 C3476 0.960 . S
H3462 C3476 0.960 . S
H3463 C3476 0.960 . S
C3464 H3456 0.929 . S
C3464 C3465 1.377 . S
C3464 C3466 1.384 . S
C3465 C3464 1.377 . S
C3465 C3471 1.390 . S
C3466 H3457 0.930 . S
C3466 C3464 1.384 . S
C3466 C3467 1.372 . S
C3467 C3466 1.372 . S
C3467 C3468 1.400 . S
C3467 C3472 1.490 . S
C3468 H3458 0.930 . S
C3468 C3467 1.400 . S
C3468 C3471 1.386 . S
H3469 C3485 0.930 . S
H3470 C3486 0.931 . S
C3471 H3459 0.929 . S
C3471 C3465 1.390 . S
C3471 C3468 1.386 . S
C3472 C3467 1.490 . S
C3472 C3474 1.395 . S
C3472 C3475 1.403 . S
H3473 C3479 0.930 . S
C3474 H3460 0.930 . S
C3474 C3472 1.395 . S
C3474 C3477 1.403 . S
C3475 C3472 1.403 . S
C3475 C3476 1.524 . S
C3475 C3479 1.400 . S
C3476 H3461 0.960 . S
C3476 H3462 0.960 . S
C3476 H3463 0.960 . S
C3476 C3475 1.524 . S
C3477 C3474 1.403 . S
C3477 C3478 1.392 . S
C3477 C3481 1.495 . S
C3478 C3477 1.392 . S
C3478 C3479 1.385 . S
C3478 C3480 1.478 . S
C3479 H3473 0.930 . S
C3479 C3475 1.400 . S
C3479 C3478 1.385 . S
C3480 C3478 1.478 . S
C3480 C3482 1.381 . S
C3480 C3486 1.383 . S
C3481 C3477 1.495 . S
C3481 H3487 0.959 . S
C3481 H3488 0.961 . S
C3481 H3489 0.960 . S
C3482 C3480 1.381 . S
C3482 C3483 1.394 . S
C3482 H3490 0.930 . S
C3483 C3482 1.394 . S
C3483 C3484 1.383 . S
C3483 H3491 0.929 . S
C3484 C3483 1.383 . S
C3484 C3485 1.377 . S
C3485 H3469 0.930 . S
C3485 C3484 1.377 . S
C3485 C3486 1.379 . S
C3486 H3470 0.931 . S
C3486 C3480 1.383 . S
C3486 C3485 1.379 . S
H3487 C3481 0.959 . S
H3488 C3481 0.961 . S
H3489 C3481 0.960 . S
H3490 C3482 0.930 . S
H3491 C3483 0.929 . S
H3492 C3500 0.929 . S
H3493 C3502 0.930 . S
H3494 C3504 0.930 . S
H3495 C3507 0.929 . S
H3496 C3510 0.930 . S
H3497 C3512 0.960 . S
H3498 C3512 0.960 1_565 S
H3499 C3512 0.960 . S
C3500 H3492 0.929 . S
C3500 C3501 1.377 . S
C3500 C3502 1.384 . S
C3501 C3500 1.377 . S
C3501 C3507 1.390 . S
C3502 H3493 0.930 . S
C3502 C3500 1.384 . S
C3502 C3503 1.372 . S
C3503 C3502 1.372 . S
C3503 C3504 1.400 . S
C3503 C3508 1.490 . S
C3504 H3494 0.930 . S
C3504 C3503 1.400 . S
C3504 C3507 1.386 . S
H3505 C3521 0.930 . S
H3506 C3522 0.931 . S
C3507 H3495 0.929 . S
C3507 C3501 1.390 . S
C3507 C3504 1.386 . S
C3508 C3503 1.490 . S
C3508 C3510 1.395 . S
C3508 C3511 1.403 . S
H3509 C3515 0.930 . S
C3510 H3496 0.930 . S
C3510 C3508 1.395 . S
C3510 C3513 1.403 . S
C3511 C3508 1.403 . S
C3511 C3512 1.524 1_565 S
C3511 C3515 1.400 . S
C3512 H3497 0.960 . S
C3512 H3498 0.960 1_545 S
C3512 H3499 0.960 . S
C3512 C3511 1.524 1_545 S
C3513 C3510 1.403 . S
C3513 C3514 1.392 . S
C3513 C3517 1.495 . S
C3514 C3513 1.392 . S
C3514 C3515 1.385 . S
C3514 C3516 1.478 . S
C3515 H3509 0.930 . S
C3515 C3511 1.400 . S
C3515 C3514 1.385 . S
C3516 C3514 1.478 . S
C3516 C3518 1.381 . S
C3516 C3522 1.383 . S
C3517 C3513 1.495 . S
C3517 H3523 0.959 . S
C3517 H3524 0.961 . S
C3517 H3525 0.960 . S
C3518 C3516 1.381 . S
C3518 C3519 1.394 . S
C3518 H3526 0.930 . S
C3519 C3518 1.394 . S
C3519 C3520 1.383 . S
C3519 H3527 0.929 . S
C3520 C3519 1.383 . S
C3520 C3521 1.377 . S
C3521 H3505 0.930 . S
C3521 C3520 1.377 . S
C3521 C3522 1.379 . S
C3522 H3506 0.931 . S
C3522 C3516 1.383 . S
C3522 C3521 1.379 . S
H3523 C3517 0.959 . S
H3524 C3517 0.961 . S
H3525 C3517 0.960 . S
H3526 C3518 0.930 . S
H3527 C3519 0.929 . S
H3528 C3536 0.929 . S
H3529 C3538 0.930 . S
H3530 C3540 0.930 . S
H3531 C3543 0.929 . S
H3532 C3546 0.930 . S
H3533 C3548 0.960 . S
H3534 C3548 0.960 . S
H3535 C3548 0.960 . S
C3536 H3528 0.929 . S
C3536 C3537 1.377 . S
C3536 C3538 1.384 . S
C3537 C3536 1.377 . S
C3537 C3543 1.390 . S
C3538 H3529 0.930 . S
C3538 C3536 1.384 . S
C3538 C3539 1.372 . S
C3539 C3538 1.372 . S
C3539 C3540 1.400 . S
C3539 C3544 1.490 . S
C3540 H3530 0.930 . S
C3540 C3539 1.400 . S
C3540 C3543 1.386 . S
H3541 C3557 0.930 . S
H3542 C3558 0.931 . S
C3543 H3531 0.929 . S
C3543 C3537 1.390 . S
C3543 C3540 1.386 . S
C3544 C3539 1.490 . S
C3544 C3546 1.395 . S
C3544 C3547 1.403 . S
H3545 C3551 0.930 . S
C3546 H3532 0.930 . S
C3546 C3544 1.395 . S
C3546 C3549 1.403 . S
C3547 C3544 1.403 . S
C3547 C3548 1.524 . S
C3547 C3551 1.400 . S
C3548 H3533 0.960 . S
C3548 H3534 0.960 . S
C3548 H3535 0.960 . S
C3548 C3547 1.524 . S
C3549 C3546 1.403 . S
C3549 C3550 1.392 . S
C3549 C3553 1.495 . S
C3550 C3549 1.392 . S
C3550 C3551 1.385 . S
C3550 C3552 1.478 . S
C3551 H3545 0.930 . S
C3551 C3547 1.400 . S
C3551 C3550 1.385 . S
C3552 C3550 1.478 . S
C3552 C3554 1.381 . S
C3552 C3558 1.383 1_565 S
C3553 C3549 1.495 . S
C3553 H3559 0.959 . S
C3553 H3560 0.961 1_565 S
C3553 H3561 0.960 . S
C3554 C3552 1.381 . S
C3554 C3555 1.394 . S
C3554 H3562 0.930 . S
C3555 C3554 1.394 . S
C3555 C3556 1.383 1_565 S
C3555 H3563 0.929 . S
C3556 C3555 1.383 1_545 S
C3556 C3557 1.377 . S
C3557 H3541 0.930 . S
C3557 C3556 1.377 . S
C3557 C3558 1.379 . S
C3558 H3542 0.931 . S
C3558 C3552 1.383 1_545 S
C3558 C3557 1.379 . S
H3559 C3553 0.959 . S
H3560 C3553 0.961 1_545 S
H3561 C3553 0.960 . S
H3562 C3554 0.930 . S
H3563 C3555 0.929 . S
H3564 C3572 0.929 . S
H3565 C3574 0.930 . S
H3566 C3576 0.930 . S
H3567 C3579 0.929 . S
H3568 C3582 0.930 . S
H3569 C3584 0.960 . S
H3570 C3584 0.960 . S
H3571 C3584 0.960 . S
C3572 H3564 0.929 . S
C3572 C3573 1.377 . S
C3572 C3574 1.384 . S
C3573 C3572 1.377 . S
C3573 C3579 1.390 . S
C3574 H3565 0.930 . S
C3574 C3572 1.384 . S
C3574 C3575 1.372 . S
C3575 C3574 1.372 . S
C3575 C3576 1.400 . S
C3575 C3580 1.490 . S
C3576 H3566 0.930 . S
C3576 C3575 1.400 . S
C3576 C3579 1.386 . S
H3577 C3593 0.940 1_655 S
H3578 C3594 0.931 . S
C3579 H3567 0.929 . S
C3579 C3573 1.390 . S
C3579 C3576 1.386 . S
C3580 C3575 1.490 . S
C3580 C3582 1.395 . S
C3580 C3583 1.403 . S
H3581 C3587 0.930 1_655 S
C3582 H3568 0.930 . S
C3582 C3580 1.395 . S
C3582 C3585 1.403 . S
C3583 C3580 1.403 . S
C3583 C3584 1.524 1_455 S
C3583 C3587 1.400 . S
C3584 H3569 0.960 . S
C3584 H3570 0.960 . S
C3584 H3571 0.960 . S
C3584 C3583 1.524 1_655 S
C3585 C3582 1.403 . S
C3585 C3586 1.392 . S
C3585 C3589 1.495 . S
C3586 C3585 1.392 . S
C3586 C3587 1.385 . S
C3586 C3588 1.478 . S
C3587 H3581 0.930 1_455 S
C3587 C3583 1.400 . S
C3587 C3586 1.385 . S
C3588 C3586 1.478 . S
C3588 C3590 1.381 . S
C3588 C3594 1.383 . S
C3589 C3585 1.495 . S
C3589 H3595 0.959 . S
C3589 H3596 0.961 . S
C3589 H3597 0.960 . S
C3590 C3588 1.381 . S
C3590 C3591 1.394 . S
C3590 H3598 0.930 . S
C3591 C3590 1.394 . S
C3591 C3592 1.399 1_455 S
C3591 H3599 0.929 . S
C3592 C3591 1.399 1_655 S
C3592 C3593 1.386 1_655 S
C3593 H3577 0.940 1_455 S
C3593 C3592 1.386 1_455 S
C3593 C3594 1.372 . S
C3594 H3578 0.931 . S
C3594 C3588 1.383 . S
C3594 C3593 1.372 . S
H3595 C3589 0.959 . S
H3596 C3589 0.961 . S
H3597 C3589 0.960 . S
H3598 C3590 0.930 . S
H3599 C3591 0.929 . S
H3600 C3608 0.929 . S
H3601 C3610 0.930 . S
H3602 C3612 0.930 . S
H3603 C3615 0.929 . S
H3604 C3618 0.930 . S
H3605 C3620 0.960 . S
H3606 C3620 0.960 . S
H3607 C3620 0.960 . S
C3608 H3600 0.929 . S
C3608 C3609 1.377 . S
C3608 C3610 1.384 . S
C3609 C3608 1.377 . S
C3609 C3615 1.390 . S
C3610 H3601 0.930 . S
C3610 C3608 1.384 . S
C3610 C3611 1.372 . S
C3611 C3610 1.372 . S
C3611 C3612 1.400 . S
C3611 C3616 1.490 . S
C3612 H3602 0.930 . S
C3612 C3611 1.400 . S
C3612 C3615 1.386 . S
H3613 C3629 0.930 . S
H3614 C3630 0.931 . S
C3615 H3603 0.929 . S
C3615 C3609 1.390 . S
C3615 C3612 1.386 . S
C3616 C3611 1.490 . S
C3616 C3618 1.395 . S
C3616 C3619 1.403 . S
H3617 C3623 0.930 . S
C3618 H3604 0.930 . S
C3618 C3616 1.395 . S
C3618 C3621 1.403 . S
C3619 C3616 1.403 . S
C3619 C3620 1.524 . S
C3619 C3623 1.400 . S
C3620 H3605 0.960 . S
C3620 H3606 0.960 . S
C3620 H3607 0.960 . S
C3620 C3619 1.524 . S
C3621 C3618 1.403 . S
C3621 C3622 1.392 . S
C3621 C3625 1.495 . S
C3622 C3621 1.392 . S
C3622 C3623 1.385 . S
C3622 C3624 1.478 . S
C3623 H3617 0.930 . S
C3623 C3619 1.400 . S
C3623 C3622 1.385 . S
C3624 C3622 1.478 . S
C3624 C3626 1.381 . S
C3624 C3630 1.383 . S
C3625 C3621 1.495 . S
C3625 H3631 0.959 . S
C3625 H3632 0.961 . S
C3625 H3633 0.960 . S
C3626 C3624 1.381 . S
C3626 C3627 1.394 . S
C3626 H3634 0.930 . S
C3627 C3626 1.394 . S
C3627 C3628 1.383 . S
C3627 H3635 0.929 . S
C3628 C3627 1.383 . S
C3628 C3629 1.377 . S
C3629 H3613 0.930 . S
C3629 C3628 1.377 . S
C3629 C3630 1.379 . S
C3630 H3614 0.931 . S
C3630 C3624 1.383 . S
C3630 C3629 1.379 . S
H3631 C3625 0.959 . S
H3632 C3625 0.961 . S
H3633 C3625 0.960 . S
H3634 C3626 0.930 . S
H3635 C3627 0.929 . S
H3636 C3644 0.929 . S
H3637 C3646 0.930 . S
H3638 C3648 0.930 . S
H3639 C3651 0.929 . S
H3640 C3654 0.930 . S
H3641 C3656 0.960 . S
H3642 C3656 0.960 . S
H3643 C3656 0.960 . S
C3644 H3636 0.929 . S
C3644 C3645 1.377 . S
C3644 C3646 1.384 . S
C3645 C3644 1.377 . S
C3645 C3651 1.390 . S
C3646 H3637 0.930 . S
C3646 C3644 1.384 . S
C3646 C3647 1.372 . S
C3647 C3646 1.372 . S
C3647 C3648 1.400 . S
C3647 C3652 1.490 . S
C3648 H3638 0.930 . S
C3648 C3647 1.400 . S
C3648 C3651 1.386 . S
H3649 C3665 0.930 . S
H3650 C3666 0.931 . S
C3651 H3639 0.929 . S
C3651 C3645 1.390 . S
C3651 C3648 1.386 . S
C3652 C3647 1.490 . S
C3652 C3654 1.395 . S
C3652 C3655 1.403 . S
H3653 C3659 0.930 . S
C3654 H3640 0.930 . S
C3654 C3652 1.395 . S
C3654 C3657 1.403 . S
C3655 C3652 1.403 . S
C3655 C3656 1.524 . S
C3655 C3659 1.400 . S
C3656 H3641 0.960 . S
C3656 H3642 0.960 . S
C3656 H3643 0.960 . S
C3656 C3655 1.524 . S
C3657 C3654 1.403 . S
C3657 C3658 1.392 . S
C3657 C3661 1.495 . S
C3658 C3657 1.392 . S
C3658 C3659 1.385 . S
C3658 C3660 1.478 . S
C3659 H3653 0.930 . S
C3659 C3655 1.400 . S
C3659 C3658 1.385 . S
C3660 C3658 1.478 . S
C3660 C3662 1.381 . S
C3660 C3666 1.383 . S
C3661 C3657 1.495 . S
C3661 H3667 0.959 . S
C3661 H3668 0.961 . S
C3661 H3669 0.960 . S
C3662 C3660 1.381 . S
C3662 C3663 1.394 . S
C3662 H3670 0.930 . S
C3663 C3662 1.394 . S
C3663 C3664 1.383 . S
C3663 H3671 0.929 . S
C3664 C3663 1.383 . S
C3664 C3665 1.377 . S
C3665 H3649 0.930 . S
C3665 C3664 1.377 . S
C3665 C3666 1.379 . S
C3666 H3650 0.931 . S
C3666 C3660 1.383 . S
C3666 C3665 1.379 . S
H3667 C3661 0.959 . S
H3668 C3661 0.961 . S
H3669 C3661 0.960 . S
H3670 C3662 0.930 . S
H3671 C3663 0.929 . S
H3672 C3680 0.929 . S
H3673 C3682 0.930 . S
H3674 C3684 0.930 . S
H3675 C3687 0.929 . S
H3676 C3690 0.930 . S
H3677 C3692 0.960 . S
H3678 C3692 0.960 . S
H3679 C3692 0.960 . S
C3680 H3672 0.929 . S
C3680 C3681 1.377 . S
C3680 C3682 1.384 . S
C3681 C3680 1.377 . S
C3681 C3687 1.390 . S
C3682 H3673 0.930 . S
C3682 C3680 1.384 . S
C3682 C3683 1.372 . S
C3683 C3682 1.372 . S
C3683 C3684 1.400 . S
C3683 C3688 1.490 . S
C3684 H3674 0.930 . S
C3684 C3683 1.400 . S
C3684 C3687 1.386 . S
H3685 C3701 0.930 . S
H3686 C3702 0.931 . S
C3687 H3675 0.929 . S
C3687 C3681 1.390 . S
C3687 C3684 1.386 . S
C3688 C3683 1.490 . S
C3688 C3690 1.395 . S
C3688 C3691 1.403 . S
H3689 C3695 0.930 . S
C3690 H3676 0.930 . S
C3690 C3688 1.395 . S
C3690 C3693 1.403 . S
C3691 C3688 1.403 . S
C3691 C3692 1.524 . S
C3691 C3695 1.400 . S
C3692 H3677 0.960 . S
C3692 H3678 0.960 . S
C3692 H3679 0.960 . S
C3692 C3691 1.524 . S
C3693 C3690 1.403 . S
C3693 C3694 1.392 . S
C3693 C3697 1.495 . S
C3694 C3693 1.392 . S
C3694 C3695 1.385 . S
C3694 C3696 1.478 . S
C3695 H3689 0.930 . S
C3695 C3691 1.400 . S
C3695 C3694 1.385 . S
C3696 C3694 1.478 . S
C3696 C3698 1.381 . S
C3696 C3702 1.383 . S
C3697 C3693 1.495 . S
C3697 H3703 0.959 . S
C3697 H3704 0.961 . S
C3697 H3705 0.960 . S
C3698 C3696 1.381 . S
C3698 C3699 1.394 . S
C3698 H3706 0.930 . S
C3699 C3698 1.394 . S
C3699 C3700 1.383 . S
C3699 H3707 0.929 . S
C3700 C3699 1.383 . S
C3700 C3701 1.377 . S
C3701 H3685 0.930 . S
C3701 C3700 1.377 . S
C3701 C3702 1.379 . S
C3702 H3686 0.931 . S
C3702 C3696 1.383 . S
C3702 C3701 1.379 . S
H3703 C3697 0.959 . S
H3704 C3697 0.961 . S
H3705 C3697 0.960 . S
H3706 C3698 0.930 . S
H3707 C3699 0.929 . S
H3708 C3716 0.929 . S
H3709 C3718 0.930 . S
H3710 C3720 0.930 . S
H3711 C3723 0.929 . S
H3712 C3726 0.930 . S
H3713 C3728 0.960 . S
H3714 C3728 0.960 . S
H3715 C3728 0.960 . S
C3716 H3708 0.929 . S
C3716 C3717 1.377 . S
C3716 C3718 1.384 . S
C3717 C3716 1.377 . S
C3717 C3723 1.390 . S
C3718 H3709 0.930 . S
C3718 C3716 1.384 . S
C3718 C3719 1.372 . S
C3719 C3718 1.372 . S
C3719 C3720 1.400 . S
C3719 C3724 1.490 . S
C3720 H3710 0.930 . S
C3720 C3719 1.400 . S
C3720 C3723 1.386 . S
H3721 C3737 0.930 . S
H3722 C3738 0.931 . S
C3723 H3711 0.929 . S
C3723 C3717 1.390 . S
C3723 C3720 1.386 . S
C3724 C3719 1.490 . S
C3724 C3726 1.395 . S
C3724 C3727 1.403 . S
H3725 C3731 0.930 . S
C3726 H3712 0.930 . S
C3726 C3724 1.395 . S
C3726 C3729 1.403 . S
C3727 C3724 1.403 . S
C3727 C3728 1.524 . S
C3727 C3731 1.400 . S
C3728 H3713 0.960 . S
C3728 H3714 0.960 . S
C3728 H3715 0.960 . S
C3728 C3727 1.524 . S
C3729 C3726 1.403 . S
C3729 C3730 1.392 . S
C3729 C3733 1.495 . S
C3730 C3729 1.392 . S
C3730 C3731 1.385 . S
C3730 C3732 1.478 . S
C3731 H3725 0.930 . S
C3731 C3727 1.400 . S
C3731 C3730 1.385 . S
C3732 C3730 1.478 . S
C3732 C3734 1.381 . S
C3732 C3738 1.383 . S
C3733 C3729 1.495 . S
C3733 H3739 0.959 . S
C3733 H3740 0.961 . S
C3733 H3741 0.960 . S
C3734 C3732 1.381 . S
C3734 C3735 1.394 . S
C3734 H3742 0.930 . S
C3735 C3734 1.394 . S
C3735 C3736 1.383 . S
C3735 H3743 0.929 . S
C3736 C3735 1.383 . S
C3736 C3737 1.377 . S
C3737 H3721 0.930 . S
C3737 C3736 1.377 . S
C3737 C3738 1.379 . S
C3738 H3722 0.931 . S
C3738 C3732 1.383 . S
C3738 C3737 1.379 . S
H3739 C3733 0.959 . S
H3740 C3733 0.961 . S
H3741 C3733 0.960 . S
H3742 C3734 0.930 . S
H3743 C3735 0.929 . S
H3744 C3752 0.929 . S
H3745 C3754 0.930 . S
H3746 C3756 0.930 . S
H3747 C3759 0.929 . S
H3748 C3762 0.930 . S
H3749 C3764 0.960 . S
H3750 C3764 0.960 . S
H3751 C3764 0.960 . S
C3752 H3744 0.929 . S
C3752 C3753 1.377 . S
C3752 C3754 1.384 . S
C3753 C3752 1.377 . S
C3753 C3759 1.390 . S
C3754 H3745 0.930 . S
C3754 C3752 1.384 . S
C3754 C3755 1.372 . S
C3755 C3754 1.372 . S
C3755 C3756 1.400 . S
C3755 C3760 1.490 . S
C3756 H3746 0.930 . S
C3756 C3755 1.400 . S
C3756 C3759 1.386 . S
H3757 C3773 0.930 . S
H3758 C3774 0.931 . S
C3759 H3747 0.929 . S
C3759 C3753 1.390 . S
C3759 C3756 1.386 . S
C3760 C3755 1.490 . S
C3760 C3762 1.395 . S
C3760 C3763 1.403 . S
H3761 C3767 0.930 . S
C3762 H3748 0.930 . S
C3762 C3760 1.395 . S
C3762 C3765 1.403 . S
C3763 C3760 1.403 . S
C3763 C3764 1.524 . S
C3763 C3767 1.400 . S
C3764 H3749 0.960 . S
C3764 H3750 0.960 . S
C3764 H3751 0.960 . S
C3764 C3763 1.524 . S
C3765 C3762 1.403 . S
C3765 C3766 1.392 . S
C3765 C3769 1.495 1_545 S
C3766 C3765 1.392 . S
C3766 C3767 1.385 . S
C3766 C3768 1.478 . S
C3767 H3761 0.930 . S
C3767 C3763 1.400 . S
C3767 C3766 1.385 . S
C3768 C3766 1.478 . S
C3768 C3770 1.416 . S
C3768 C3774 1.383 . S
C3769 C3765 1.495 1_565 S
C3769 H3775 0.959 . S
C3769 H3776 0.961 1_565 S
C3769 H3777 0.960 . S
C3770 C3768 1.416 . S
C3770 C3771 1.371 1_545 S
C3770 H3778 0.919 1_545 S
C3771 C3770 1.371 1_565 S
C3771 C3772 1.383 1_565 S
C3771 H3779 0.929 . S
C3772 C3771 1.383 1_545 S
C3772 C3773 1.377 . S
C3773 H3757 0.930 . S
C3773 C3772 1.377 . S
C3773 C3774 1.379 . S
C3774 H3758 0.931 . S
C3774 C3768 1.383 . S
C3774 C3773 1.379 . S
H3775 C3769 0.959 . S
H3776 C3769 0.961 1_545 S
H3777 C3769 0.960 . S
H3778 C3770 0.919 1_565 S
H3779 C3771 0.929 . S
H3780 C3788 0.929 . S
H3781 C3790 0.930 . S
H3782 C3792 0.930 . S
H3783 C3795 0.929 . S
H3784 C3798 0.930 . S
H3785 C3800 0.960 . S
H3786 C3800 0.960 . S
H3787 C3800 0.938 1_455 S
C3788 H3780 0.929 . S
C3788 C3789 1.377 . S
C3788 C3790 1.384 . S
C3789 C3788 1.377 . S
C3789 C3795 1.390 . S
C3790 H3781 0.930 . S
C3790 C3788 1.384 . S
C3790 C3791 1.372 . S
C3791 C3790 1.372 . S
C3791 C3792 1.400 . S
C3791 C3796 1.490 . S
C3792 H3782 0.930 . S
C3792 C3791 1.400 . S
C3792 C3795 1.386 . S
H3793 C3809 0.961 . S
H3794 C3810 0.931 1_455 S
C3795 H3783 0.929 . S
C3795 C3789 1.390 . S
C3795 C3792 1.386 . S
C3796 C3791 1.490 . S
C3796 C3798 1.395 . S
C3796 C3799 1.403 . S
H3797 C3803 0.930 . S
C3798 H3784 0.930 . S
C3798 C3796 1.395 . S
C3798 C3801 1.403 . S
C3799 C3796 1.403 . S
C3799 C3800 1.524 . S
C3799 C3803 1.400 . S
C3800 H3785 0.960 . S
C3800 H3786 0.960 . S
C3800 H3787 0.938 1_655 S
C3800 C3799 1.524 . S
C3801 C3798 1.403 . S
C3801 C3802 1.392 . S
C3801 C3805 1.495 . S
C3802 C3801 1.392 . S
C3802 C3803 1.385 . S
C3802 C3804 1.478 . S
C3803 H3797 0.930 . S
C3803 C3799 1.400 . S
C3803 C3802 1.385 . S
C3804 C3802 1.478 . S
C3804 C3806 1.381 . S
C3804 C3810 1.383 . S
C3805 C3801 1.495 . S
C3805 H3811 0.959 . S
C3805 H3812 0.961 . S
C3805 H3813 0.960 . S
C3806 C3804 1.381 . S
C3806 C3807 1.394 . S
C3806 H3814 0.930 . S
C3807 C3806 1.394 . S
C3807 C3808 1.383 . S
C3807 H3815 0.929 . S
C3808 C3807 1.383 . S
C3808 C3809 1.332 1_655 S
C3809 H3793 0.961 . S
C3809 C3808 1.332 1_455 S
C3809 C3810 1.394 1_455 S
C3810 H3794 0.931 1_655 S
C3810 C3804 1.383 . S
C3810 C3809 1.394 1_655 S
H3811 C3805 0.959 . S
H3812 C3805 0.961 . S
H3813 C3805 0.960 . S
H3814 C3806 0.930 . S
H3815 C3807 0.929 . S
H3816 C3824 0.929 . S
H3817 C3826 0.930 . S
H3818 C3828 0.930 . S
H3819 C3831 0.929 . S
H3820 C3834 0.930 . S
H3821 C3836 0.960 . S
H3822 C3836 0.960 . S
H3823 C3836 0.960 . S
C3824 H3816 0.929 . S
C3824 C3825 1.377 . S
C3824 C3826 1.384 . S
C3825 C3824 1.377 . S
C3825 C3831 1.390 . S
C3826 H3817 0.930 . S
C3826 C3824 1.384 . S
C3826 C3827 1.372 . S
C3827 C3826 1.372 . S
C3827 C3828 1.400 . S
C3827 C3832 1.490 . S
C3828 H3818 0.930 . S
C3828 C3827 1.400 . S
C3828 C3831 1.386 . S
H3829 C3845 0.930 . S
H3830 C3846 0.931 . S
C3831 H3819 0.929 . S
C3831 C3825 1.390 . S
C3831 C3828 1.386 . S
C3832 C3827 1.490 . S
C3832 C3834 1.395 . S
C3832 C3835 1.403 . S
H3833 C3839 0.930 . S
C3834 H3820 0.930 . S
C3834 C3832 1.395 . S
C3834 C3837 1.403 . S
C3835 C3832 1.403 . S
C3835 C3836 1.524 . S
C3835 C3839 1.400 . S
C3836 H3821 0.960 . S
C3836 H3822 0.960 . S
C3836 H3823 0.960 . S
C3836 C3835 1.524 . S
C3837 C3834 1.403 . S
C3837 C3838 1.392 . S
C3837 C3841 1.495 . S
C3838 C3837 1.392 . S
C3838 C3839 1.385 . S
C3838 C3840 1.478 . S
C3839 H3833 0.930 . S
C3839 C3835 1.400 . S
C3839 C3838 1.385 . S
C3840 C3838 1.478 . S
C3840 C3842 1.381 . S
C3840 C3846 1.383 . S
C3841 C3837 1.495 . S
C3841 H3847 0.959 . S
C3841 H3848 0.961 . S
C3841 H3849 0.960 . S
C3842 C3840 1.381 . S
C3842 C3843 1.394 . S
C3842 H3850 0.930 . S
C3843 C3842 1.394 . S
C3843 C3844 1.383 . S
C3843 H3851 0.929 . S
C3844 C3843 1.383 . S
C3844 C3845 1.377 . S
C3845 H3829 0.930 . S
C3845 C3844 1.377 . S
C3845 C3846 1.379 . S
C3846 H3830 0.931 . S
C3846 C3840 1.383 . S
C3846 C3845 1.379 . S
H3847 C3841 0.959 . S
H3848 C3841 0.961 . S
H3849 C3841 0.960 . S
H3850 C3842 0.930 . S
H3851 C3843 0.929 . S
H3852 C3860 0.929 . S
H3853 C3862 0.930 . S
H3854 C3864 0.930 . S
H3855 C3867 0.929 . S
H3856 C3870 0.930 . S
H3857 C3872 0.960 . S
H3858 C3872 0.960 . S
H3859 C3872 0.960 . S
C3860 H3852 0.929 . S
C3860 C3861 1.377 . S
C3860 C3862 1.384 . S
C3861 C3860 1.377 . S
C3861 C3867 1.390 . S
C3862 H3853 0.930 . S
C3862 C3860 1.384 . S
C3862 C3863 1.372 . S
C3863 C3862 1.372 . S
C3863 C3864 1.400 . S
C3863 C3868 1.490 . S
C3864 H3854 0.930 . S
C3864 C3863 1.400 . S
C3864 C3867 1.386 . S
H3865 C3881 0.930 . S
H3866 C3882 0.931 . S
C3867 H3855 0.929 . S
C3867 C3861 1.390 . S
C3867 C3864 1.386 . S
C3868 C3863 1.490 . S
C3868 C3870 1.395 . S
C3868 C3871 1.403 . S
H3869 C3875 0.930 . S
C3870 H3856 0.930 . S
C3870 C3868 1.395 . S
C3870 C3873 1.403 . S
C3871 C3868 1.403 . S
C3871 C3872 1.524 . S
C3871 C3875 1.400 . S
C3872 H3857 0.960 . S
C3872 H3858 0.960 . S
C3872 H3859 0.960 . S
C3872 C3871 1.524 . S
C3873 C3870 1.403 . S
C3873 C3874 1.392 . S
C3873 C3877 1.495 . S
C3874 C3873 1.392 . S
C3874 C3875 1.385 . S
C3874 C3876 1.478 . S
C3875 H3869 0.930 . S
C3875 C3871 1.400 . S
C3875 C3874 1.385 . S
C3876 C3874 1.478 . S
C3876 C3878 1.381 . S
C3876 C3882 1.383 . S
C3877 C3873 1.495 . S
C3877 H3883 0.959 . S
C3877 H3884 0.961 . S
C3877 H3885 0.960 . S
C3878 C3876 1.381 . S
C3878 C3879 1.394 . S
C3878 H3886 0.930 . S
C3879 C3878 1.394 . S
C3879 C3880 1.383 . S
C3879 H3887 0.929 . S
C3880 C3879 1.383 . S
C3880 C3881 1.377 . S
C3881 H3865 0.930 . S
C3881 C3880 1.377 . S
C3881 C3882 1.379 . S
C3882 H3866 0.931 . S
C3882 C3876 1.383 . S
C3882 C3881 1.379 . S
H3883 C3877 0.959 . S
H3884 C3877 0.961 . S
H3885 C3877 0.960 . S
H3886 C3878 0.930 . S
H3887 C3879 0.929 . S
H3888 C3896 0.929 . S
H3889 C3898 0.930 . S
H3890 C3900 0.930 . S
H3891 C3903 0.922 1_545 S
H3892 C3906 0.930 . S
H3893 C3908 0.960 . S
H3894 C3908 0.960 . S
H3895 C3908 0.960 . S
C3896 H3888 0.929 . S
C3896 C3897 1.377 . S
C3896 C3898 1.384 . S
C3897 C3896 1.377 . S
C3897 C3903 1.390 . S
C3898 H3889 0.930 . S
C3898 C3896 1.384 . S
C3898 C3899 1.372 . S
C3899 C3898 1.372 . S
C3899 C3900 1.400 . S
C3899 C3904 1.490 . S
C3900 H3890 0.930 . S
C3900 C3899 1.400 . S
C3900 C3903 1.386 . S
H3901 C3917 0.930 . S
H3902 C3918 0.931 . S
C3903 H3891 0.922 1_565 S
C3903 C3897 1.390 . S
C3903 C3900 1.386 . S
C3904 C3899 1.490 . S
C3904 C3906 1.395 . S
C3904 C3907 1.403 . S
H3905 C3911 0.930 . S
C3906 H3892 0.930 . S
C3906 C3904 1.395 . S
C3906 C3909 1.403 . S
C3907 C3904 1.403 . S
C3907 C3908 1.524 . S
C3907 C3911 1.400 . S
C3908 H3893 0.960 . S
C3908 H3894 0.960 . S
C3908 H3895 0.960 . S
C3908 C3907 1.524 . S
C3909 C3906 1.403 . S
C3909 C3910 1.392 . S
C3909 C3913 1.495 . S
C3910 C3909 1.392 . S
C3910 C3911 1.385 . S
C3910 C3912 1.478 . S
C3911 H3905 0.930 . S
C3911 C3907 1.400 . S
C3911 C3910 1.385 . S
C3912 C3910 1.478 . S
C3912 C3914 1.381 . S
C3912 C3918 1.383 . S
C3913 C3909 1.495 . S
C3913 H3919 0.959 . S
C3913 H3920 0.961 . S
C3913 H3921 0.960 . S
C3914 C3912 1.381 . S
C3914 C3915 1.394 . S
C3914 H3922 0.930 . S
C3915 C3914 1.394 . S
C3915 C3916 1.383 . S
C3915 H3923 0.929 . S
C3916 C3915 1.383 . S
C3916 C3917 1.377 . S
C3917 H3901 0.930 . S
C3917 C3916 1.377 . S
C3917 C3918 1.379 . S
C3918 H3902 0.931 . S
C3918 C3912 1.383 . S
C3918 C3917 1.379 . S
H3919 C3913 0.959 . S
H3920 C3913 0.961 . S
H3921 C3913 0.960 . S
H3922 C3914 0.930 . S
H3923 C3915 0.929 . S
H3924 C3932 0.929 . S
H3925 C3934 0.930 . S
H3926 C3936 0.930 . S
H3927 C3939 0.943 . S
H3928 C3942 0.930 . S
H3929 C3944 0.960 . S
H3930 C3944 0.960 . S
H3931 C3944 0.960 . S
C3932 H3924 0.929 . S
C3932 C3933 1.377 . S
C3932 C3934 1.384 . S
C3933 C3932 1.377 . S
C3933 C3939 1.390 . S
C3934 H3925 0.930 . S
C3934 C3932 1.384 . S
C3934 C3935 1.372 . S
C3935 C3934 1.372 . S
C3935 C3936 1.400 . S
C3935 C3940 1.490 . S
C3936 H3926 0.930 . S
C3936 C3935 1.400 . S
C3936 C3939 1.386 . S
H3937 C3953 0.930 . S
H3938 C3954 0.931 . S
C3939 H3927 0.943 . S
C3939 C3933 1.390 . S
C3939 C3936 1.386 . S
C3940 C3935 1.490 . S
C3940 C3942 1.395 . S
C3940 C3943 1.403 . S
H3941 C3947 0.930 . S
C3942 H3928 0.930 . S
C3942 C3940 1.395 . S
C3942 C3945 1.403 . S
C3943 C3940 1.403 . S
C3943 C3944 1.524 . S
C3943 C3947 1.400 . S
C3944 H3929 0.960 . S
C3944 H3930 0.960 . S
C3944 H3931 0.960 . S
C3944 C3943 1.524 . S
C3945 C3942 1.403 . S
C3945 C3946 1.392 . S
C3945 C3949 1.495 . S
C3946 C3945 1.392 . S
C3946 C3947 1.385 . S
C3946 C3948 1.478 . S
C3947 H3941 0.930 . S
C3947 C3943 1.400 . S
C3947 C3946 1.385 . S
C3948 C3946 1.478 . S
C3948 C3950 1.381 . S
C3948 C3954 1.383 . S
C3949 C3945 1.495 . S
C3949 H3955 0.959 . S
C3949 H3956 0.961 . S
C3949 H3957 0.960 . S
C3950 C3948 1.381 . S
C3950 C3951 1.394 . S
C3950 H3958 0.930 . S
C3951 C3950 1.394 . S
C3951 C3952 1.383 . S
C3951 H3959 0.929 . S
C3952 C3951 1.383 . S
C3952 C3953 1.377 . S
C3953 H3937 0.930 . S
C3953 C3952 1.377 . S
C3953 C3954 1.379 . S
C3954 H3938 0.931 . S
C3954 C3948 1.383 . S
C3954 C3953 1.379 . S
H3955 C3949 0.959 . S
H3956 C3949 0.961 . S
H3957 C3949 0.960 . S
H3958 C3950 0.930 . S
H3959 C3951 0.929 . S
H3960 C3968 0.929 . S
H3961 C3970 0.930 . S
H3962 C3972 0.930 . S
H3963 C3975 0.929 . S
H3964 C3978 0.930 . S
H3965 C3980 0.960 . S
H3966 C3980 0.960 . S
H3967 C3980 0.960 . S
C3968 H3960 0.929 . S
C3968 C3969 1.377 . S
C3968 C3970 1.384 . S
C3969 C3968 1.377 . S
C3969 C3975 1.390 . S
C3970 H3961 0.930 . S
C3970 C3968 1.384 . S
C3970 C3971 1.372 . S
C3971 C3970 1.372 . S
C3971 C3972 1.400 . S
C3971 C3976 1.490 . S
C3972 H3962 0.930 . S
C3972 C3971 1.400 . S
C3972 C3975 1.386 . S
H3973 C3989 0.930 . S
H3974 C3990 0.931 . S
C3975 H3963 0.929 . S
C3975 C3969 1.390 . S
C3975 C3972 1.386 . S
C3976 C3971 1.490 . S
C3976 C3978 1.395 . S
C3976 C3979 1.403 . S
H3977 C3983 0.930 . S
C3978 H3964 0.930 . S
C3978 C3976 1.395 . S
C3978 C3981 1.403 . S
C3979 C3976 1.403 . S
C3979 C3980 1.524 . S
C3979 C3983 1.400 . S
C3980 H3965 0.960 . S
C3980 H3966 0.960 . S
C3980 H3967 0.960 . S
C3980 C3979 1.524 . S
C3981 C3978 1.403 . S
C3981 C3982 1.392 . S
C3981 C3985 1.495 . S
C3982 C3981 1.392 . S
C3982 C3983 1.385 . S
C3982 C3984 1.478 . S
C3983 H3977 0.930 . S
C3983 C3979 1.400 . S
C3983 C3982 1.385 . S
C3984 C3982 1.478 . S
C3984 C3986 1.381 . S
C3984 C3990 1.383 . S
C3985 C3981 1.495 . S
C3985 H3991 0.959 . S
C3985 H3992 0.961 . S
C3985 H3993 0.960 . S
C3986 C3984 1.381 . S
C3986 C3987 1.394 . S
C3986 H3994 0.930 . S
C3987 C3986 1.394 . S
C3987 C3988 1.383 . S
C3987 H3995 0.929 . S
C3988 C3987 1.383 . S
C3988 C3989 1.377 . S
C3989 H3973 0.930 . S
C3989 C3988 1.377 . S
C3989 C3990 1.379 . S
C3990 H3974 0.931 . S
C3990 C3984 1.383 . S
C3990 C3989 1.379 . S
H3991 C3985 0.959 . S
H3992 C3985 0.961 . S
H3993 C3985 0.960 . S
H3994 C3986 0.930 . S
H3995 C3987 0.929 . S
H3996 C4004 0.929 . S
H3997 C4006 0.930 . S
H3998 C4008 0.930 . S
H3999 C4011 0.929 . S
H4000 C4014 0.930 . S
H4001 C4016 0.960 . S
H4002 C4016 0.960 . S
H4003 C4016 0.960 . S
C4004 H3996 0.929 . S
C4004 C4005 1.377 . S
C4004 C4006 1.384 . S
C4005 C4004 1.377 . S
C4005 C4011 1.390 . S
C4006 H3997 0.930 . S
C4006 C4004 1.384 . S
C4006 C4007 1.372 . S
C4007 C4006 1.372 . S
C4007 C4008 1.400 . S
C4007 C4012 1.490 . S
C4008 H3998 0.930 . S
C4008 C4007 1.400 . S
C4008 C4011 1.386 . S
H4009 C4025 0.930 . S
H4010 C4026 0.931 . S
C4011 H3999 0.929 . S
C4011 C4005 1.390 . S
C4011 C4008 1.386 . S
C4012 C4007 1.490 . S
C4012 C4014 1.395 . S
C4012 C4015 1.403 . S
H4013 C4019 0.930 . S
C4014 H4000 0.930 . S
C4014 C4012 1.395 . S
C4014 C4017 1.403 . S
C4015 C4012 1.403 . S
C4015 C4016 1.524 . S
C4015 C4019 1.400 . S
C4016 H4001 0.960 . S
C4016 H4002 0.960 . S
C4016 H4003 0.960 . S
C4016 C4015 1.524 . S
C4017 C4014 1.403 . S
C4017 C4018 1.392 . S
C4017 C4021 1.495 . S
C4018 C4017 1.392 . S
C4018 C4019 1.385 . S
C4018 C4020 1.478 . S
C4019 H4013 0.930 . S
C4019 C4015 1.400 . S
C4019 C4018 1.385 . S
C4020 C4018 1.478 . S
C4020 C4022 1.381 . S
C4020 C4026 1.383 . S
C4021 C4017 1.495 . S
C4021 H4027 0.959 . S
C4021 H4028 0.961 . S
C4021 H4029 0.960 . S
C4022 C4020 1.381 . S
C4022 C4023 1.394 . S
C4022 H4030 0.930 . S
C4023 C4022 1.394 . S
C4023 C4024 1.383 . S
C4023 H4031 0.929 . S
C4024 C4023 1.383 . S
C4024 C4025 1.377 . S
C4025 H4009 0.930 . S
C4025 C4024 1.377 . S
C4025 C4026 1.379 . S
C4026 H4010 0.931 . S
C4026 C4020 1.383 . S
C4026 C4025 1.379 . S
H4027 C4021 0.959 . S
H4028 C4021 0.961 . S
H4029 C4021 0.960 . S
H4030 C4022 0.930 . S
H4031 C4023 0.929 . S
H4032 C4040 0.929 . S
H4033 C4042 0.930 . S
H4034 C4044 0.930 . S
H4035 C4047 0.929 . S
H4036 C4050 0.930 . S
H4037 C4052 0.960 . S
H4038 C4052 0.960 . S
H4039 C4052 0.960 . S
C4040 H4032 0.929 . S
C4040 C4041 1.377 . S
C4040 C4042 1.384 . S
C4041 C4040 1.377 . S
C4041 C4047 1.390 . S
C4042 H4033 0.930 . S
C4042 C4040 1.384 . S
C4042 C4043 1.372 . S
C4043 C4042 1.372 . S
C4043 C4044 1.400 . S
C4043 C4048 1.490 . S
C4044 H4034 0.930 . S
C4044 C4043 1.400 . S
C4044 C4047 1.386 . S
H4045 C4061 0.930 . S
H4046 C4062 0.931 . S
C4047 H4035 0.929 . S
C4047 C4041 1.390 . S
C4047 C4044 1.386 . S
C4048 C4043 1.490 . S
C4048 C4050 1.395 . S
C4048 C4051 1.403 . S
H4049 C4055 0.930 . S
C4050 H4036 0.930 . S
C4050 C4048 1.395 . S
C4050 C4053 1.403 . S
C4051 C4048 1.403 . S
C4051 C4052 1.524 . S
C4051 C4055 1.400 . S
C4052 H4037 0.960 . S
C4052 H4038 0.960 . S
C4052 H4039 0.960 . S
C4052 C4051 1.524 . S
C4053 C4050 1.403 . S
C4053 C4054 1.392 . S
C4053 C4057 1.495 . S
C4054 C4053 1.392 . S
C4054 C4055 1.385 . S
C4054 C4056 1.478 . S
C4055 H4049 0.930 . S
C4055 C4051 1.400 . S
C4055 C4054 1.385 . S
C4056 C4054 1.478 . S
C4056 C4058 1.381 . S
C4056 C4062 1.383 . S
C4057 C4053 1.495 . S
C4057 H4063 0.959 . S
C4057 H4064 0.961 . S
C4057 H4065 0.960 . S
C4058 C4056 1.381 . S
C4058 C4059 1.394 . S
C4058 H4066 0.930 . S
C4059 C4058 1.394 . S
C4059 C4060 1.383 . S
C4059 H4067 0.929 . S
C4060 C4059 1.383 . S
C4060 C4061 1.377 . S
C4061 H4045 0.930 . S
C4061 C4060 1.377 . S
C4061 C4062 1.379 . S
C4062 H4046 0.931 . S
C4062 C4056 1.383 . S
C4062 C4061 1.379 . S
H4063 C4057 0.959 . S
H4064 C4057 0.961 . S
H4065 C4057 0.960 . S
H4066 C4058 0.930 . S
H4067 C4059 0.929 . S
H4068 C4076 0.929 . S
H4069 C4078 0.930 . S
H4070 C4080 0.930 . S
H4071 C4083 0.929 . S
H4072 C4086 0.930 . S
H4073 C4088 0.960 . S
H4074 C4088 0.960 . S
H4075 C4088 0.960 . S
C4076 H4068 0.929 . S
C4076 C4077 1.377 . S
C4076 C4078 1.384 . S
C4077 C4076 1.377 . S
C4077 C4083 1.390 . S
C4078 H4069 0.930 . S
C4078 C4076 1.384 . S
C4078 C4079 1.372 . S
C4079 C4078 1.372 . S
C4079 C4080 1.400 . S
C4079 C4084 1.490 . S
C4080 H4070 0.930 . S
C4080 C4079 1.400 . S
C4080 C4083 1.386 . S
H4081 C4097 0.930 1_455 S
H4082 C4098 0.931 . S
C4083 H4071 0.929 . S
C4083 C4077 1.390 . S
C4083 C4080 1.386 . S
C4084 C4079 1.490 . S
C4084 C4086 1.395 . S
C4084 C4087 1.403 . S
H4085 C4091 0.930 1_455 S
C4086 H4072 0.930 . S
C4086 C4084 1.395 . S
C4086 C4089 1.403 . S
C4087 C4084 1.403 . S
C4087 C4088 1.524 1_655 S
C4087 C4091 1.400 . S
C4088 H4073 0.960 . S
C4088 H4074 0.960 . S
C4088 H4075 0.960 . S
C4088 C4087 1.524 1_455 S
C4089 C4086 1.403 . S
C4089 C4090 1.392 . S
C4089 C4093 1.495 . S
C4090 C4089 1.392 . S
C4090 C4091 1.385 . S
C4090 C4092 1.478 . S
C4091 H4085 0.930 1_655 S
C4091 C4087 1.400 . S
C4091 C4090 1.385 . S
C4092 C4090 1.478 . S
C4092 C4094 1.381 . S
C4092 C4098 1.383 . S
C4093 C4089 1.495 . S
C4093 H4099 0.959 . S
C4093 H4100 0.961 . S
C4093 H4101 0.960 . S
C4094 C4092 1.381 . S
C4094 C4095 1.394 . S
C4094 H4102 0.930 . S
C4095 C4094 1.394 . S
C4095 C4096 1.383 . S
C4095 H4103 0.929 . S
C4096 C4095 1.383 . S
C4096 C4097 1.377 . S
C4097 H4081 0.930 1_655 S
C4097 C4096 1.377 . S
C4097 C4098 1.379 . S
C4098 H4082 0.931 . S
C4098 C4092 1.383 . S
C4098 C4097 1.379 . S
H4099 C4093 0.959 . S
H4100 C4093 0.961 . S
H4101 C4093 0.960 . S
H4102 C4094 0.930 . S
H4103 C4095 0.929 . S
H4104 C4112 0.929 . S
H4105 C4114 0.930 . S
H4106 C4116 0.930 . S
H4107 C4119 0.929 . S
H4108 C4122 0.930 . S
H4109 C4124 0.960 . S
H4110 C4124 0.960 . S
H4111 C4124 0.960 . S
C4112 H4104 0.929 . S
C4112 C4113 1.377 . S
C4112 C4114 1.384 . S
C4113 C4112 1.377 . S
C4113 C4119 1.390 . S
C4114 H4105 0.930 . S
C4114 C4112 1.384 . S
C4114 C4115 1.372 . S
C4115 C4114 1.372 . S
C4115 C4116 1.400 . S
C4115 C4120 1.490 . S
C4116 H4106 0.930 . S
C4116 C4115 1.400 . S
C4116 C4119 1.386 . S
H4117 C4133 0.930 . S
H4118 C4134 0.931 . S
C4119 H4107 0.929 . S
C4119 C4113 1.390 . S
C4119 C4116 1.386 . S
C4120 C4115 1.490 . S
C4120 C4122 1.395 . S
C4120 C4123 1.403 . S
H4121 C4127 0.930 . S
C4122 H4108 0.930 . S
C4122 C4120 1.395 . S
C4122 C4125 1.403 . S
C4123 C4120 1.403 . S
C4123 C4124 1.524 . S
C4123 C4127 1.400 . S
C4124 H4109 0.960 . S
C4124 H4110 0.960 . S
C4124 H4111 0.960 . S
C4124 C4123 1.524 . S
C4125 C4122 1.403 . S
C4125 C4126 1.392 . S
C4125 C4129 1.495 . S
C4126 C4125 1.392 . S
C4126 C4127 1.385 . S
C4126 C4128 1.478 . S
C4127 H4121 0.930 . S
C4127 C4123 1.400 . S
C4127 C4126 1.385 . S
C4128 C4126 1.478 . S
C4128 C4130 1.381 . S
C4128 C4134 1.383 . S
C4129 C4125 1.495 . S
C4129 H4135 0.959 . S
C4129 H4136 0.961 . S
C4129 H4137 0.960 . S
C4130 C4128 1.381 . S
C4130 C4131 1.394 . S
C4130 H4138 0.930 . S
C4131 C4130 1.394 . S
C4131 C4132 1.383 . S
C4131 H4139 0.929 . S
C4132 C4131 1.383 . S
C4132 C4133 1.377 . S
C4133 H4117 0.930 . S
C4133 C4132 1.377 . S
C4133 C4134 1.379 . S
C4134 H4118 0.931 . S
C4134 C4128 1.383 . S
C4134 C4133 1.379 . S
H4135 C4129 0.959 . S
H4136 C4129 0.961 . S
H4137 C4129 0.960 . S
H4138 C4130 0.930 . S
H4139 C4131 0.929 . S
H4140 C4148 0.929 . S
H4141 C4150 0.930 . S
H4142 C4152 0.930 . S
H4143 C4155 0.929 . S
H4144 C4158 0.930 . S
H4145 C4160 0.960 . S
H4146 C4160 0.960 . S
H4147 C4160 0.960 . S
C4148 H4140 0.929 . S
C4148 C4149 1.377 . S
C4148 C4150 1.384 . S
C4149 C4148 1.377 . S
C4149 C4155 1.390 . S
C4150 H4141 0.930 . S
C4150 C4148 1.384 . S
C4150 C4151 1.372 . S
C4151 C4150 1.372 . S
C4151 C4152 1.400 . S
C4151 C4156 1.490 . S
C4152 H4142 0.930 . S
C4152 C4151 1.400 . S
C4152 C4155 1.386 . S
H4153 C4169 0.930 . S
H4154 C4170 0.931 . S
C4155 H4143 0.929 . S
C4155 C4149 1.390 . S
C4155 C4152 1.386 . S
C4156 C4151 1.490 . S
C4156 C4158 1.395 . S
C4156 C4159 1.403 . S
H4157 C4163 0.930 . S
C4158 H4144 0.930 . S
C4158 C4156 1.395 . S
C4158 C4161 1.403 . S
C4159 C4156 1.403 . S
C4159 C4160 1.524 . S
C4159 C4163 1.400 . S
C4160 H4145 0.960 . S
C4160 H4146 0.960 . S
C4160 H4147 0.960 . S
C4160 C4159 1.524 . S
C4161 C4158 1.403 . S
C4161 C4162 1.392 . S
C4161 C4165 1.495 1_545 S
C4162 C4161 1.392 . S
C4162 C4163 1.385 . S
C4162 C4164 1.478 . S
C4163 H4157 0.930 . S
C4163 C4159 1.400 . S
C4163 C4162 1.385 . S
C4164 C4162 1.478 . S
C4164 C4166 1.381 1_545 S
C4164 C4170 1.383 . S
C4165 C4161 1.495 1_565 S
C4165 H4171 0.959 . S
C4165 H4172 0.961 . S
C4165 H4173 0.960 . S
C4166 C4164 1.381 1_565 S
C4166 C4167 1.394 . S
C4166 H4174 0.930 . S
C4167 C4166 1.394 . S
C4167 C4168 1.362 1_565 S
C4167 H4175 0.929 . S
C4168 C4167 1.362 1_545 S
C4168 C4169 1.393 . S
C4169 H4153 0.930 . S
C4169 C4168 1.393 . S
C4169 C4170 1.379 . S
C4170 H4154 0.931 . S
C4170 C4164 1.383 . S
C4170 C4169 1.379 . S
H4171 C4165 0.959 . S
H4172 C4165 0.961 . S
H4173 C4165 0.960 . S
H4174 C4166 0.930 . S
H4175 C4167 0.929 . S
C1593 C4 1.058 . S
C1612 C981 1.070 . S
C1629 C26 1.563 . S
C1648 C1061 1.538 . S
C1684 C1129 1.161 . S
C1665 C32 1.190 . S
C1701 C40 1.628 . S
C1720 C1209 1.631 . S
C1737 C12 1.439 . S
C1756 C1283 1.447 . S
C1773 C18 1.480 . S
C1792 C1351 1.409 . S
C1809 C46 0.976 . S
C1828 C1277 0.983 . S
C1864 C1357 1.431 . S
C1845 C68 1.424 . S
C1900 C1203 1.234 . S
C1881 C74 1.221 . S
C1917 C82 1.596 . S
C1936 C1135 1.636 1_545 S
C1972 C987 1.460 . S
C1953 C54 1.449 . S
C1989 C60 1.342 . S
C2008 C1055 1.343 . S
C2025 C88 1.299 . S
C2044 C1425 1.287 . S
C2061 C110 1.594 . S
C2080 C1505 1.558 . S
C2116 C1573 1.484 . S
C2097 C116 1.518 . S
C2133 C124 1.749 . S
C2152 C321 1.732 . S
C2169 C96 1.627 . S
C2188 C395 1.595 . S
C2205 C102 1.497 . S
C2224 C463 1.424 . S
C2241 C130 1.011 . S
C2260 C389 1.012 . S
C2277 C152 1.513 . S
C2296 C469 1.514 . S
C2332 C315 1.370 . S
C2313 C158 1.362 . S
C2368 C1579 1.739 . S
C2349 C166 1.742 . S
C2404 C1431 1.443 . S
C2385 C138 1.443 . S
C2440 C1499 1.378 . S
C2421 C144 1.398 . S
C2457 C172 1.205 . S
C2476 C537 1.205 . S
C2493 C194 1.642 . S
C2512 C617 1.575 . S
C2529 C200 1.538 . S
C2548 C685 1.462 . S
C2565 C208 1.827 . S
C2584 C765 1.780 . S
C2620 C839 1.584 . S
C2601 C180 1.604 . S
C2656 C907 1.474 . S
C2637 C186 1.551 . S
C2692 C833 1.179 . S
C2673 C214 1.157 . S
C2728 C913 1.470 . S
C2709 C236 1.472 . S
C2745 C242 1.299 . S
C2764 C759 1.278 . S
C2800 C691 1.628 . S
C2781 C250 1.609 . S
C2817 C222 1.509 . S
C2836 C543 1.510 . S
C2872 C611 1.378 . S
C2853 C228 1.367 . S
C2908 C291 1.906 . S
C2889 C5 1.722 . S
C2925 C25 1.316 . S
C2944 C365 1.302 . S
C2980 C451 1.451 . S
C2961 C33 1.276 . S
C3016 C525 0.977 . S
C2997 C39 0.954 . S
C3052 C587 1.459 . S
C3033 C11 1.457 1_556 S
C3088 C673 1.433 . S
C3069 C19 1.254 . S
C3105 C47 1.901 . S
C3124 C661 2.038 . S
C3141 C67 1.507 . S
C3160 C513 1.402 . S
C3177 C75 1.458 . S
C3196 C599 1.599 . S
C3213 C81 1.255 . S
C3232 C377 1.238 . S
C3268 C439 1.589 . S
C3249 C53 1.665 . S
C3285 C61 1.406 . S
C3304 C303 1.579 . S
C3340 C735 1.833 . S
C3321 C89 1.627 . S
C3357 C109 1.460 1_545 S
C3376 C809 1.465 . S
C3393 C117 1.269 1_655 S
C3412 C895 1.462 . S
C3448 C969 0.763 . S
C3429 C123 0.780 . S
C3465 C95 1.354 . S
C3484 C1031 1.344 . S
C3501 C103 1.096 . S
C3520 C1117 1.233 . S
C3537 C131 1.509 . S
C3556 C1105 1.635 . S
C3573 C151 1.206 . S
C3592 C957 1.126 . S
C3628 C1043 1.461 . S
C3609 C159 1.306 . S
C3645 C165 1.239 . S
C3664 C821 1.149 . S
C3681 C137 1.693 1_545 S
C3700 C883 1.638 . S
C3736 C747 1.691 . S
C3717 C145 1.490 1_655 S
C3772 C1179 1.639 . S
C3753 C173 1.498 . S
C3789 C193 1.063 . S
C3808 C1253 1.082 . S
C3825 C201 1.126 . S
C3844 C1339 1.284 . S
C3880 C1413 0.984 . S
C3861 C207 0.966 . S
C3916 C1475 1.500 . S
C3897 C179 1.524 1_565 S
C3933 C187 1.332 . S
C3952 C1561 1.525 . S
C3969 C215 1.822 . S
C3988 C1549 1.950 . S
C4005 C235 1.643 1_565 S
C4024 C1401 1.585 . S
C4060 C1487 1.613 . S
C4041 C243 1.416 . S
C4096 C1265 0.798 . S
C4077 C249 0.816 . S
C4132 C1327 1.509 . S
C4113 C221 1.553 . S
C4149 C229 1.169 . S
C4168 C1191 1.352 1_545 S
