# Generated by pormake.
# Topology zzz, (3,6)-cn, num edge types: 1
# Building blocks:
#     Node 0, Type 0, BuildingBlock: BELTOD_clean_linker_0, # of connection points: 3
#     Node 1, Type 0, BuildingBlock: BELTOD_clean_linker_0, # of connection points: 3
#     Node 2, Type 0, BuildingBlock: BELTOD_clean_linker_0, # of connection points: 3
#     Node 3, Type 0, BuildingBlock: BELTOD_clean_linker_0, # of connection points: 3
#     Node 4, Type 0, BuildingBlock: BELTOD_clean_linker_0, # of connection points: 3
#     Node 5, Type 0, BuildingBlock: BELTOD_clean_linker_0, # of connection points: 3
#     Node 6, Type 0, BuildingBlock: BELTOD_clean_linker_0, # of connection points: 3
#     Node 7, Type 0, BuildingBlock: BELTOD_clean_linker_0, # of connection points: 3
#     Node 8, Type 1, BuildingBlock: BETDEL_clean_sbu_0, # of connection points: 6
#     Node 9, Type 1, BuildingBlock: BETDEL_clean_sbu_0, # of connection points: 6
#     Node 10, Type 1, BuildingBlock: BETDEL_clean_sbu_0, # of connection points: 6
#     Node 11, Type 1, BuildingBlock: BETDEL_clean_sbu_0, # of connection points: 6
#     Edge 12, Type (0, 1), BuildingBlock: EZIPEK_clean_linker_0, # of connection points: 2
#     Edge 13, Type (0, 1), BuildingBlock: EZIPEK_clean_linker_0, # of connection points: 2
#     Edge 14, Type (0, 1), BuildingBlock: EZIPEK_clean_linker_0, # of connection points: 2
#     Edge 15, Type (0, 1), BuildingBlock: EZIPEK_clean_linker_0, # of connection points: 2
#     Edge 16, Type (0, 1), BuildingBlock: EZIPEK_clean_linker_0, # of connection points: 2
#     Edge 17, Type (0, 1), BuildingBlock: EZIPEK_clean_linker_0, # of connection points: 2
#     Edge 18, Type (0, 1), BuildingBlock: EZIPEK_clean_linker_0, # of connection points: 2
#     Edge 19, Type (0, 1), BuildingBlock: EZIPEK_clean_linker_0, # of connection points: 2
#     Edge 20, Type (0, 1), BuildingBlock: EZIPEK_clean_linker_0, # of connection points: 2
#     Edge 21, Type (0, 1), BuildingBlock: EZIPEK_clean_linker_0, # of connection points: 2
#     Edge 22, Type (0, 1), BuildingBlock: EZIPEK_clean_linker_0, # of connection points: 2
#     Edge 23, Type (0, 1), BuildingBlock: EZIPEK_clean_linker_0, # of connection points: 2
#     Edge 24, Type (0, 1), BuildingBlock: EZIPEK_clean_linker_0, # of connection points: 2
#     Edge 25, Type (0, 1), BuildingBlock: EZIPEK_clean_linker_0, # of connection points: 2
#     Edge 26, Type (0, 1), BuildingBlock: EZIPEK_clean_linker_0, # of connection points: 2
#     Edge 27, Type (0, 1), BuildingBlock: EZIPEK_clean_linker_0, # of connection points: 2
#     Edge 28, Type (0, 1), BuildingBlock: EZIPEK_clean_linker_0, # of connection points: 2
#     Edge 29, Type (0, 1), BuildingBlock: EZIPEK_clean_linker_0, # of connection points: 2
#     Edge 30, Type (0, 1), BuildingBlock: EZIPEK_clean_linker_0, # of connection points: 2
#     Edge 31, Type (0, 1), BuildingBlock: EZIPEK_clean_linker_0, # of connection points: 2
#     Edge 32, Type (0, 1), BuildingBlock: EZIPEK_clean_linker_0, # of connection points: 2
#     Edge 33, Type (0, 1), BuildingBlock: EZIPEK_clean_linker_0, # of connection points: 2
#     Edge 34, Type (0, 1), BuildingBlock: EZIPEK_clean_linker_0, # of connection points: 2
#     Edge 35, Type (0, 1), BuildingBlock: EZIPEK_clean_linker_0, # of connection points: 2
# Relax obj value: 0.330
# Max RMSD: 0.216
# Mean RMSD: 0.203
data_MOF--net-zzz--node1-BETDEL_clean_sbu_0--node2-BELTOD_clean_linker_0--edge1-EZIPEK_clean_linker_0
_symmetry_space_group_name_H-M    P1
_symmetry_Int_Tables_number       1
_symmetry_cell_setting            triclinic
loop_
_symmetry_equiv_pos_as_xyz
'x, y, z'
_cell_length_a     40.370576
_cell_length_b     40.385081
_cell_length_c     14.012611
_cell_angle_alpha  91.323403
_cell_angle_beta   88.903316
_cell_angle_gamma 95.548238
loop_
_atom_site_label
_atom_site_type_symbol
_atom_site_fract_x
_atom_site_fract_y
_atom_site_fract_z
_atom_type_partial_charge
P0 P 0.73893 0.43164 0.0653 0.0
H1 H 0.75233 0.43216 0.27008 0.0
H2 H 0.80007 0.45805 0.35866 0.0
H3 H 0.83057 0.51769 0.11553 0.0
H4 H 0.7827 0.49188 0.02674 0.0
H5 H 0.69578 0.40204 0.91753 0.0
H6 H 0.6559 0.42431 0.81184 0.0
H7 H 0.67719 0.52162 0.94194 0.0
H8 H 0.71722 0.49935 0.04806 0.0
H9 H 0.78708 0.38552 0.10969 0.0
H10 H 0.76215 0.44167 0.86715 0.0
O11 O 0.71836 0.40189 0.13 0.0
H12 H 0.84018 0.37535 0.03146 0.0
H13 H 0.81456 0.43069 0.78867 0.0
C14 C 0.7636 0.46039 0.14203 0.0
C15 C 0.76823 0.45199 0.23721 0.0
C16 C 0.7956 0.46665 0.28783 0.0
C17 C 0.81883 0.48974 0.24361 0.0
C18 C 0.81271 0.50019 0.15121 0.0
C19 C 0.78526 0.4856 0.1008 0.0
C20 C 0.70958 0.44908 0.99013 0.0
C21 C 0.69193 0.42819 0.92331 0.0
C22 C 0.66931 0.44085 0.86289 0.0
C23 C 0.66387 0.47459 0.86883 0.0
C24 C 0.68133 0.49555 0.93608 0.0
C25 C 0.70409 0.48284 0.99655 0.0
C26 C 0.77032 0.41379 0.99362 0.0
C27 C 0.79217 0.39414 0.03778 0.0
C28 C 0.82245 0.38838 0.99345 0.0
C29 C 0.83096 0.40209 0.90425 0.0
C30 C 0.80804 0.41953 0.85691 0.0
C31 C 0.77803 0.42565 0.90174 0.0
P32 P 0.02452 0.71716 0.16897 0.0
H33 H 0.02243 0.73712 0.37064 0.0
H34 H 0.00152 0.7869 0.44178 0.0
H35 H 0.94298 0.79738 0.1923 0.0
H36 H 0.96444 0.74799 0.11982 0.0
H37 H 0.05993 0.66484 0.08509 0.0
H38 H 0.04478 0.6209 0.96684 0.0
H39 H 0.94288 0.64451 0.98053 0.0
H40 H 0.95808 0.68882 0.1 0.0
H41 H 0.06825 0.77793 0.19698 0.0
H42 H 0.01286 0.72813 0.96588 0.0
O43 O 0.05543 0.70799 0.23816 0.0
H44 H 0.07622 0.82881 0.10342 0.0
H45 H 0.02127 0.77874 0.87264 0.0
C46 C 0.99504 0.73856 0.23964 0.0
C47 C 0.00367 0.74886 0.33305 0.0
C48 C 0.99185 0.77748 0.37378 0.0
C49 C 0.9711 0.79604 0.32172 0.0
C50 C 0.95888 0.78328 0.23374 0.0
C51 C 0.9709 0.75475 0.19278 0.0
C52 C 0.01016 0.6801 0.10167 0.0
C53 C 0.03411 0.66011 0.06484 0.0
C54 C 0.02553 0.63511 0.99702 0.0
C55 C 0.99283 0.62976 0.96426 0.0
C56 C 0.96829 0.64843 0.00484 0.0
C57 C 0.97698 0.67368 0.07294 0.0
C58 C 0.04047 0.74901 0.08799 0.0
C59 C 0.05914 0.77742 0.1247 0.0
C60 C 0.06348 0.80649 0.07183 0.0
C61 C 0.04923 0.80734 0.98162 0.0
C62 C 0.03255 0.77833 0.9421 0.0
C63 C 0.02797 0.74938 0.99526 0.0
P64 P 0.78311 0.05414 0.1367 0.0
H65 H 0.76363 0.05232 0.33941 0.0
H66 H 0.71122 0.03097 0.41674 0.0
H67 H 0.68128 0.97837 0.15672 0.0
H68 H 0.73363 0.99979 0.07891 0.0
H69 H 0.84437 0.08329 0.0514 0.0
H70 H 0.88392 0.06229 0.93586 0.0
H71 H 0.83227 0.964 0.95338 0.0
H72 H 0.79236 0.98514 0.06945 0.0
H73 H 0.73605 0.10415 0.15976 0.0
H74 H 0.77249 0.04312 0.93115 0.0
O75 O 0.80076 0.08384 0.20923 0.0
H76 H 0.6904 0.11738 0.05804 0.0
H77 H 0.72724 0.05632 0.83098 0.0
C78 C 0.7529 0.02742 0.20337 0.0
C79 C 0.74659 0.035 0.29998 0.0
C80 C 0.71655 0.02295 0.34422 0.0
C81 C 0.69233 0.0032 0.29238 0.0
C82 C 0.69975 0.99336 0.19818 0.0
C83 C 0.72982 0.00539 0.15403 0.0
C84 C 0.8157 0.03571 0.0703 0.0
C85 C 0.84194 0.05703 0.03237 0.0
C86 C 0.86433 0.04516 0.96573 0.0
C87 C 0.86079 0.01172 0.93531 0.0
C88 C 0.83525 0.98997 0.97563 0.0
C89 C 0.81266 0.00196 0.04234 0.0
C90 C 0.75792 0.07297 0.05294 0.0
C91 C 0.73517 0.09485 0.08665 0.0
C92 C 0.70915 0.10235 0.02893 0.0
C93 C 0.70562 0.08769 0.93748 0.0
C94 C 0.72982 0.06796 0.90125 0.0
C95 C 0.75572 0.06049 0.95874 0.0
P96 P 0.4934 0.77792 0.19049 0.0
H97 H 0.49776 0.76222 0.39227 0.0
H98 H 0.5172 0.7126 0.45992 0.0
H99 H 0.5713 0.69454 0.19891 0.0
H100 H 0.55164 0.74401 0.13046 0.0
H101 H 0.45842 0.83032 0.11665 0.0
H102 H 0.47333 0.87348 0.99996 0.0
H103 H 0.57411 0.84653 0.98847 0.0
H104 H 0.55922 0.80316 0.10695 0.0
H105 H 0.44659 0.71963 0.22153 0.0
H106 H 0.50533 0.76303 0.98724 0.0
O107 O 0.46329 0.78861 0.26501 0.0
H108 H 0.4375 0.6671 0.12979 0.0
H109 H 0.49606 0.71081 0.89634 0.0
C110 C 0.52301 0.75693 0.25582 0.0
C111 C 0.51537 0.74887 0.35119 0.0
C112 C 0.52641 0.72039 0.39004 0.0
C113 C 0.54529 0.69971 0.33394 0.0
C114 C 0.55688 0.71031 0.24349 0.0
C115 C 0.54581 0.73883 0.20466 0.0
C116 C 0.50777 0.81377 0.12153 0.0
C117 C 0.48398 0.83415 0.09119 0.0
C118 C 0.49238 0.85862 0.0241 0.0
C119 C 0.52469 0.86296 0.98528 0.0
C120 C 0.549 0.84341 0.01771 0.0
C121 C 0.54053 0.81881 0.08547 0.0
C122 C 0.47625 0.74543 0.11094 0.0
C123 C 0.4562 0.71842 0.14897 0.0
C124 C 0.45125 0.6884 0.09718 0.0
C125 C 0.46637 0.68524 0.00702 0.0
C126 C 0.4842 0.71298 0.96591 0.0
C127 C 0.48927 0.74287 0.01777 0.0
P128 P 0.2402 0.47313 0.084 0.0
H129 H 0.20498 0.41639 0.98452 0.0
H130 H 0.16759 0.41734 0.85037 0.0
H131 H 0.2121 0.51512 0.77942 0.0
H132 H 0.25051 0.51383 0.91246 0.0
H133 H 0.30514 0.4492 0.03496 0.0
H134 H 0.35824 0.45589 0.12103 0.0
H135 H 0.31944 0.52986 0.30699 0.0
H136 H 0.26697 0.52296 0.22392 0.0
H137 H 0.17466 0.46778 0.17629 0.0
H138 H 0.24354 0.54552 0.05971 0.0
O139 O 0.22895 0.43857 0.14434 0.0
H140 H 0.13465 0.50836 0.21043 0.0
H141 H 0.20283 0.58617 0.09254 0.0
C142 C 0.23039 0.46528 0.95987 0.0
C143 C 0.20832 0.43726 0.93706 0.0
C144 C 0.18669 0.43781 0.86049 0.0
C145 C 0.18674 0.46648 0.80602 0.0
C146 C 0.2117 0.49274 0.82075 0.0
C147 C 0.23374 0.49192 0.89663 0.0
C148 C 0.28222 0.4863 0.12042 0.0
C149 C 0.30859 0.46787 0.09155 0.0
C150 C 0.33874 0.47146 0.14106 0.0
C151 C 0.34263 0.49338 0.2204 0.0
C152 C 0.317 0.51303 0.24563 0.0
C153 C 0.28703 0.5093 0.1969 0.0
C154 C 0.21244 0.50381 0.11805 0.0
C155 C 0.18141 0.49359 0.15929 0.0
C156 C 0.15846 0.51664 0.17789 0.0
C157 C 0.166 0.55014 0.15453 0.0
C158 C 0.19678 0.56042 0.11154 0.0
C159 C 0.21991 0.5373 0.09337 0.0
P160 P 0.09986 0.26469 0.00483 0.0
H161 H 0.13204 0.23927 0.83305 0.0
H162 H 0.11498 0.1882 0.74265 0.0
H163 H 0.0157 0.18839 0.86122 0.0
H164 H 0.0323 0.24049 0.94778 0.0
H165 H 0.11401 0.30338 0.17623 0.0
H166 H 0.09085 0.35178 0.24966 0.0
H167 H 0.02945 0.35905 0.00387 0.0
H168 H 0.05224 0.30956 0.93088 0.0
H169 H 0.12623 0.202 0.04106 0.0
H170 H 0.04464 0.25551 0.14382 0.0
O171 O 0.1413 0.27059 0.9973 0.0
H172 H 0.10018 0.15138 0.11524 0.0
H173 H 0.01913 0.20511 0.2195 0.0
C174 C 0.08355 0.24379 0.89802 0.0
C175 C 0.10609 0.22961 0.83536 0.0
C176 C 0.09652 0.20001 0.78498 0.0
C177 C 0.06438 0.1839 0.79767 0.0
C178 C 0.04076 0.20015 0.85129 0.0
C179 C 0.05014 0.23026 0.89951 0.0
C180 C 0.08468 0.30284 0.0485 0.0
C181 C 0.09578 0.31552 0.13752 0.0
C182 C 0.0826 0.34312 0.17948 0.0
C183 C 0.05825 0.35884 0.13272 0.0
C184 C 0.04811 0.3471 0.04131 0.0
C185 C 0.06107 0.31898 0.99971 0.0
C186 C 0.08796 0.2328 0.08928 0.0
C187 C 0.10354 0.20326 0.08296 0.0
C188 C 0.08841 0.17429 0.12355 0.0
C189 C 0.05758 0.17462 0.17126 0.0
C190 C 0.04281 0.20449 0.18209 0.0
C191 C 0.05778 0.23338 0.14063 0.0
P192 P 0.25689 0.04773 0.02127 0.0
H193 H 0.26861 0.06827 0.82167 0.0
H194 H 0.31713 0.06095 0.71779 0.0
H195 H 0.34578 0.98559 0.90466 0.0
H196 H 0.29507 0.98929 0.99858 0.0
H197 H 0.20137 0.08614 0.07208 0.0
H198 H 0.15147 0.07041 0.16723 0.0
H199 H 0.16717 0.96691 0.12659 0.0
H200 H 0.21622 0.9827 0.02507 0.0
H201 H 0.32468 0.06756 0.07765 0.0
H202 H 0.24131 0.00417 0.19029 0.0
O203 O 0.26207 0.08904 0.01153 0.0
H204 H 0.36184 0.04108 0.18211 0.0
H205 H 0.27859 0.97711 0.29004 0.0
C206 C 0.27873 0.03028 0.92044 0.0
C207 C 0.28419 0.04873 0.8369 0.0
C208 C 0.31234 0.04497 0.77854 0.0
C209 C 0.3363 0.024 0.80589 0.0
C210 C 0.32836 0.00258 0.88251 0.0
C211 C 0.29917 0.00478 0.93666 0.0
C212 C 0.21306 0.0356 0.04286 0.0
C213 C 0.19324 0.05995 0.07871 0.0
C214 C 0.16476 0.05099 0.13402 0.0
C215 C 0.15625 0.01757 0.15705 0.0
C216 C 0.17349 0.99291 0.11084 0.0
C217 C 0.20134 0.00191 0.052 0.0
C218 C 0.28015 0.03755 0.12367 0.0
C219 C 0.31414 0.04871 0.1262 0.0
C220 C 0.3354 0.03326 0.18441 0.0
C221 C 0.32284 0.00659 0.24103 0.0
C222 C 0.28863 0.99715 0.24469 0.0
C223 C 0.26734 0.01278 0.18708 0.0
P224 P 0.4226 0.22947 0.97155 0.0
H225 H 0.3978 0.24965 0.78936 0.0
H226 H 0.41581 0.30058 0.70455 0.0
H227 H 0.50912 0.30819 0.85138 0.0
H228 H 0.4916 0.25676 0.93433 0.0
H229 H 0.3931 0.18541 0.11388 0.0
H230 H 0.41574 0.1452 0.21623 0.0
H231 H 0.50852 0.15627 0.05749 0.0
H232 H 0.48574 0.19689 0.95403 0.0
H233 H 0.38956 0.28995 0.99982 0.0
H234 H 0.47123 0.24481 0.12234 0.0
O235 O 0.38204 0.221 0.95095 0.0
H236 H 0.40978 0.3435 0.07498 0.0
H237 H 0.49138 0.2981 0.19518 0.0
C238 C 0.44314 0.24927 0.86927 0.0
C239 C 0.42295 0.26096 0.79936 0.0
C240 C 0.43299 0.29044 0.75186 0.0
C241 C 0.46333 0.30868 0.77404 0.0
C242 C 0.48541 0.29469 0.83413 0.0
C243 C 0.47556 0.26488 0.8803 0.0
C244 C 0.43755 0.19382 0.0255 0.0
C245 C 0.41802 0.17859 0.09908 0.0
C246 C 0.43101 0.15597 0.15826 0.0
C247 C 0.46383 0.14818 0.14497 0.0
C248 C 0.48314 0.16224 0.06889 0.0
C249 C 0.47008 0.18514 0.00952 0.0
C250 C 0.42842 0.26318 0.05685 0.0
C251 C 0.41093 0.29116 0.04578 0.0
C252 C 0.42279 0.32175 0.08674 0.0
C253 C 0.45243 0.32454 0.13798 0.0
C254 C 0.46873 0.29625 0.15431 0.0
C255 C 0.45676 0.26571 0.11414 0.0
Dy256 Dy 0.02617 0.9703 0.63099 0.0
C257 C 0.99506 0.0543 0.33558 0.0
C258 C 0.03675 0.92502 0.76575 0.0
Dy259 Dy 0.99497 0.00945 0.4787 0.0
O260 O 0.0584 0.94915 0.73946 0.0
O261 O 0.00909 0.92636 0.72105 0.0
O262 O 0.07753 0.98333 0.56902 0.0
O263 O 0.0364 0.97894 0.48011 0.0
C264 C 0.0672 0.9875 0.48335 0.0
C265 C 0.95335 0.99137 0.62593 0.0
O266 O 0.97767 0.95949 0.41866 0.0
O267 O 0.99809 0.9299 0.54163 0.0
O268 O 0.98189 0.05763 0.42013 0.0
O269 O 0.00587 0.0251 0.32752 0.0
O270 O 0.94358 0.99702 0.5399 0.0
O271 O 0.98418 1.00039 0.63 0.0
O272 O 0.03095 0.02143 0.70048 0.0
O273 O 0.02905 0.04762 0.55683 0.0
C274 C 0.9819 0.93114 0.46018 0.0
C275 C 0.03488 0.04876 0.64919 0.0
Dy276 Dy 0.49271 0.9829 0.50023 0.0
C277 C 0.59329 0.0662 0.69625 0.0
C278 C 0.43454 0.95872 0.41688 0.0
Dy279 Dy 0.53927 0.03453 0.60888 0.0
O280 O 0.46146 0.97008 0.37176 0.0
O281 O 0.44088 0.95702 0.50705 0.0
O282 O 0.53639 0.95758 0.44106 0.0
O283 O 0.5416 0.00907 0.4708 0.0
C284 C 0.55715 0.98437 0.44749 0.0
C285 C 0.47465 0.03249 0.66512 0.0
O286 O 0.53186 0.06256 0.47574 0.0
O287 O 0.48131 0.03275 0.44709 0.0
O288 O 0.56472 0.0782 0.69026 0.0
O289 O 0.59228 0.03715 0.65442 0.0
O290 O 0.4958 0.05869 0.6749 0.0
O291 O 0.49055 0.00865 0.63713 0.0
O292 O 0.50343 0.95057 0.62045 0.0
O293 O 0.546 0.98693 0.68508 0.0
C294 C 0.5032 0.05855 0.43027 0.0
C295 C 0.52741 0.95788 0.68309 0.0
Dy296 Dy 0.49161 0.52283 0.6381 0.0
C297 C 0.51435 0.44457 0.31054 0.0
C298 C 0.48138 0.56631 0.78469 0.0
Dy299 Dy 0.51895 0.48629 0.46691 0.0
O300 O 0.46049 0.54134 0.7594 0.0
O301 O 0.50833 0.56677 0.73265 0.0
O302 O 0.43904 0.50793 0.59314 0.0
O303 O 0.47684 0.51545 0.48997 0.0
C304 C 0.44658 0.50548 0.50309 0.0
C305 C 0.56454 0.50356 0.60212 0.0
O306 O 0.53463 0.53688 0.41439 0.0
O307 O 0.51623 0.56478 0.54964 0.0
O308 O 0.53075 0.43995 0.38728 0.0
O309 O 0.50253 0.4733 0.31735 0.0
O310 O 0.5718 0.49919 0.51161 0.0
O311 O 0.53409 0.49398 0.61525 0.0
O312 O 0.49058 0.47157 0.69845 0.0
O313 O 0.49009 0.44583 0.54976 0.0
C314 C 0.53053 0.5646 0.46337 0.0
C315 C 0.48635 0.44439 0.6434 0.0
Dy316 Dy 0.9873 0.47145 0.57491 0.0
C317 C 0.05637 0.56871 0.3367 0.0
C318 C 0.95177 0.43492 0.71031 0.0
Dy319 Dy 0.02445 0.52534 0.46434 0.0
O320 O 0.97138 0.42277 0.64686 0.0
O321 O 0.95262 0.46683 0.70094 0.0
O322 O 0.97816 0.4399 0.4442 0.0
O323 O 0.02229 0.47101 0.45209 0.0
C324 C 0.00452 0.45165 0.39684 0.0
C325 C 0.00545 0.54472 0.64066 0.0
O326 O 0.97441 0.52523 0.3966 0.0
O327 O 0.94433 0.48879 0.49895 0.0
O328 O 0.05912 0.57027 0.42864 0.0
O329 O 0.03603 0.54287 0.31454 0.0
O330 O 0.03227 0.55672 0.59687 0.0
O331 O 0.98839 0.52551 0.58415 0.0
O332 O 0.03759 0.47466 0.64329 0.0
O333 O 0.06746 0.50066 0.5192 0.0
C334 C 0.94614 0.50884 0.42546 0.0
C335 C 0.0663 0.48494 0.60114 0.0
C336 C 0.10361 0.98772 0.2284 0.0
C337 C 0.13318 0.00929 0.2399 0.0
C338 C 0.11734 0.01927 0.4075 0.0
C339 C 0.08971 0.99488 0.39892 0.0
N340 N 0.06354 0.94859 0.30624 0.0
N341 N 0.1726 0.03768 0.3493 0.0
C342 C 0.08459 0.9771 0.31066 0.0
C343 C 0.14136 0.02278 0.33211 0.0
N344 N 0.09328 0.97773 0.13917 0.0
N345 N 0.12023 0.04007 0.48588 0.0
H346 H 0.19168 0.03917 0.29789 0.0
H347 H 0.18063 0.04504 0.41749 0.0
H348 H 0.10247 0.03968 0.54087 0.0
H349 H 0.13827 0.0603 0.49073 0.0
H350 H 0.0702 0.96455 0.1268 0.0
H351 H 0.10634 0.98532 0.07724 0.0
H352 H 0.06178 0.93308 0.24568 0.0
H353 H 0.05129 0.93811 0.36598 0.0
C354 C 0.49191 0.13876 0.29907 0.0
C355 C 0.4776 0.12555 0.21289 0.0
C356 C 0.48488 0.06909 0.26336 0.0
C357 C 0.49569 0.08196 0.35448 0.0
N358 N 0.50403 0.12892 0.46417 0.0
N359 N 0.45659 0.07827 0.1166 0.0
C360 C 0.49808 0.11682 0.37352 0.0
C361 C 0.47308 0.09075 0.19598 0.0
N362 N 0.49954 0.17235 0.30972 0.0
N363 N 0.487 0.03637 0.23931 0.0
H364 H 0.44893 0.0933 0.06327 0.0
H365 H 0.44844 0.05318 0.1067 0.0
H366 H 0.49536 0.01936 0.28548 0.0
H367 H 0.48335 0.0266 0.17046 0.0
H368 H 0.51325 0.18328 0.36638 0.0
H369 H 0.49463 0.18917 0.2576 0.0
H370 H 0.5024 0.15366 0.48465 0.0
H371 H 0.50749 0.11377 0.52162 0.0
C372 C 0.39752 0.52006 0.27889 0.0
C373 C 0.37167 0.49381 0.28459 0.0
C374 C 0.3964 0.47393 0.42906 0.0
C375 C 0.42117 0.5014 0.42684 0.0
N376 N 0.43896 0.55568 0.36456 0.0
N377 N 0.34667 0.44522 0.36791 0.0
C378 C 0.42036 0.5257 0.35512 0.0
C379 C 0.37117 0.47073 0.35976 0.0
N380 N 0.40033 0.53955 0.20019 0.0
N381 N 0.39637 0.45069 0.4985 0.0
H382 H 0.32695 0.44062 0.32085 0.0
H383 H 0.32695 0.44062 0.32085 0.0
H384 H 0.41492 0.45081 0.54927 0.0
H385 H 0.37825 0.43049 0.50303 0.0
H386 H 0.42071 0.5568 0.18699 0.0
H387 H 0.38378 0.53623 0.14367 0.0
H388 H 0.43652 0.57566 0.3204 0.0
H389 H 0.45405 0.56214 0.42285 0.0
C390 C 0.00903 0.38206 0.21439 0.0
C391 C 0.0427 0.38658 0.18302 0.0
C392 C 0.04994 0.43988 0.27256 0.0
C393 C 0.01655 0.43429 0.30798 0.0
N394 N 0.96137 0.40893 0.27062 0.0
N395 N 0.09222 0.42382 0.15904 0.0
C396 C 0.99511 0.40825 0.26537 0.0
C397 C 0.06228 0.4168 0.20509 0.0
N398 N 0.99063 0.35216 0.20063 0.0
N399 N 0.06994 0.46711 0.30252 0.0
H400 H 0.10149 0.40767 0.10816 0.0
H401 H 0.10646 0.44667 0.16447 0.0
H402 H 0.06065 0.4878 0.33456 0.0
H403 H 0.09574 0.46924 0.29453 0.0
H404 H 0.96716 0.34664 0.23186 0.0
H405 H 0.99983 0.33182 0.16571 0.0
H406 H 0.94493 0.39199 0.2336 0.0
H407 H 0.95006 0.42886 0.3008 0.0
C408 C 0.91763 0.99738 0.88215 0.0
C409 C 0.88388 1.00006 0.8601 0.0
C410 C 0.89508 0.98222 0.69519 0.0
C411 C 0.92985 0.98732 0.71106 0.0
N412 N 0.97392 0.99198 0.82651 0.0
N413 N 0.84043 0.99687 0.74326 0.0
C414 C 0.94106 0.99242 0.80682 0.0
C415 C 0.87248 0.99265 0.76618 0.0
N416 N 0.92692 0.99838 0.97567 0.0
N417 N 0.88353 0.96581 0.61439 0.0
H418 H 0.823 0.00459 0.79278 0.0
H419 H 0.832 0.99538 0.67331 0.0
H420 H 0.89924 0.95466 0.5661 0.0
H421 H 0.85833 0.95917 0.60254 0.0
H422 H 0.95031 0.99348 0.99835 0.0
H423 H 0.91024 0.00154 0.03219 0.0
H424 H 0.98483 0.0017 0.88913 0.0
H425 H 0.99005 0.98044 0.78116 0.0
C426 C 0.53183 0.87619 0.81088 0.0
C427 C 0.53189 0.88728 0.90775 0.0
C428 C 0.52967 0.94469 0.8578 0.0
C429 C 0.5313 0.93397 0.76037 0.0
N430 N 0.54137 0.89061 0.64501 0.0
N431 N 0.53937 0.93236 0.02291 0.0
C432 C 0.53471 0.90002 0.73716 0.0
C433 C 0.53379 0.9217 0.93083 0.0
N434 N 0.52745 0.84289 0.78914 0.0
N435 N 0.52159 0.97601 0.88139 0.0
H436 H 0.54234 0.91599 0.07801 0.0
H437 H 0.54436 0.95736 0.04261 0.0
H438 H 0.51627 0.99332 0.83135 0.0
H439 H 0.51667 0.98377 0.9512 0.0
H440 H 0.52306 0.83342 0.7203 0.0
H441 H 0.52588 0.82462 0.84085 0.0
H442 H 0.54758 0.86693 0.6254 0.0
H443 H 0.54371 0.90729 0.58908 0.0
C444 C 0.60503 0.48532 0.8358 0.0
C445 C 0.63894 0.48755 0.80627 0.0
C446 C 0.62452 0.51166 0.65487 0.0
C447 C 0.59022 0.50508 0.67906 0.0
N448 N 0.55034 0.50248 0.80973 0.0
N449 N 0.68166 0.50222 0.68813 0.0
C450 C 0.58106 0.49675 0.77467 0.0
C451 C 0.64896 0.50099 0.71634 0.0
N452 N 0.59553 0.47124 0.92111 0.0
N453 N 0.63368 0.5303 0.57685 0.0
H454 H 0.70033 0.4956 0.73238 0.0
H455 H 0.69007 0.50777 0.61912 0.0
H456 H 0.61645 0.54152 0.53703 0.0
H457 H 0.65823 0.5383 0.55881 0.0
H458 H 0.57079 0.46472 0.94075 0.0
H459 H 0.61245 0.46388 0.9699 0.0
H460 H 0.54292 0.49927 0.88074 0.0
H461 H 0.53413 0.51534 0.77151 0.0
C462 C 0.984 0.61863 0.78852 0.0
C463 C 0.98579 0.60624 0.88218 0.0
C464 C 0.99219 0.55045 0.81625 0.0
C465 C 0.99158 0.56308 0.72276 0.0
N466 N 0.97659 0.60581 0.61965 0.0
N467 N 0.98164 0.55934 0.98575 0.0
C468 C 0.98384 0.59608 0.70903 0.0
C469 C 0.98645 0.57168 0.89607 0.0
N470 N 0.98472 0.65211 0.77499 0.0
N471 N 1.00014 0.51881 0.82899 0.0
H472 H 0.97725 0.57454 0.04504 0.0
H473 H 0.97899 0.53401 0.99997 0.0
H474 H 0.00322 0.50234 0.772 0.0
H475 H 0.00555 0.50964 0.89517 0.0
H476 H 0.98764 0.66289 0.70819 0.0
H477 H 0.9846 0.66952 0.83103 0.0
H478 H 0.96784 0.62862 0.60593 0.0
H479 H 0.97615 0.5896 0.56045 0.0
C480 C 0.05549 0.12955 0.28991 0.0
C481 C 0.04109 0.14354 0.21108 0.0
C482 C 0.99551 0.09862 0.21197 0.0
C483 C 0.01162 0.08335 0.28568 0.0
N484 N 0.0617 0.07972 0.37571 0.0
N485 N 1.00083 0.13883 0.08505 0.0
C486 C 0.04305 0.0974 0.31886 0.0
C487 C 0.01199 0.12738 0.16847 0.0
N488 N 0.08039 0.14738 0.33931 0.0
N489 N 0.96451 0.08586 0.18438 0.0
H490 H 0.01248 0.15962 0.05092 0.0
H491 H 0.98175 0.12623 0.04568 0.0
H492 H 0.95253 0.06409 0.2126 0.0
H493 H 0.94997 0.09783 0.138 0.0
H494 H 0.08912 0.13975 0.40397 0.0
H495 H 0.09003 0.17134 0.32104 0.0
H496 H 0.08612 0.08772 0.39381 0.0
H497 H 0.05444 0.05542 0.39546 0.0
C498 C 0.35515 1.00056 0.38704 0.0
C499 C 0.34606 0.98848 0.29526 0.0
C500 C 0.38881 0.94931 0.29836 0.0
C501 C 0.4016 0.96569 0.3822 0.0
N502 N 0.4007 0.01283 0.49299 0.0
N503 N 0.35361 0.95167 0.16043 0.0
C504 C 0.38549 0.9925 0.42439 0.0
C505 C 0.36246 0.96259 0.25026 0.0
N506 N 0.3354 0.02067 0.43727 0.0
N507 N 0.40194 0.92124 0.26502 0.0
H508 H 0.33357 0.96001 0.12506 0.0
H509 H 0.36703 0.93566 0.11917 0.0
H510 H 0.42131 0.9112 0.29918 0.0
H511 H 0.39197 0.90647 0.20875 0.0
H512 H 0.33931 0.02737 0.50879 0.0
H513 H 0.3133 0.02784 0.41055 0.0
H514 H 0.39146 0.03473 0.5177 0.0
H515 H 0.42447 0.01047 0.51688 0.0
C516 C 0.45451 0.36859 0.2649 0.0
C517 C 0.46648 0.35708 0.17612 0.0
C518 C 0.50958 0.40423 0.17085 0.0
C519 C 0.49667 0.41631 0.25809 0.0
N520 N 0.45124 0.41521 0.37342 0.0
N521 N 0.50086 0.36617 0.03475 0.0
C522 C 0.46741 0.40009 0.30061 0.0
C523 C 0.49266 0.37565 0.12578 0.0
N524 N 0.43152 0.34897 0.31665 0.0
N525 N 0.53821 0.41967 0.13244 0.0
H526 H 0.48895 0.34525 1.00031 0.0
H527 H 0.51751 0.38029 0.99075 0.0
H528 H 0.55032 0.44133 0.1625 0.0
H529 H 0.55087 0.4102 0.07408 0.0
H530 H 0.42522 0.35417 0.38749 0.0
H531 H 0.42062 0.32599 0.29173 0.0
H532 H 0.42821 0.4057 0.40078 0.0
H533 H 0.45877 0.43902 0.39922 0.0
C534 C 0.14204 0.59077 0.26692 0.0
C535 C 0.14092 0.57358 0.17769 0.0
C536 C 0.0808 0.57538 0.17242 0.0
C537 C 0.08164 0.58484 0.27004 0.0
N538 N 0.11101 0.62009 0.38685 0.0
N539 N 0.1129 0.5629 0.02937 0.0
C540 C 0.11175 0.59932 0.30895 0.0
C541 C 0.11137 0.57085 0.12427 0.0
N542 N 0.17135 0.5964 0.31418 0.0
N543 N 0.05084 0.56909 0.12899 0.0
H544 H 0.13555 0.55966 0.99475 0.0
H545 H 0.09263 0.56229 0.9845 0.0
H546 H 0.02878 0.57459 0.16336 0.0
H547 H 0.04788 0.55897 0.06038 0.0
H548 H 0.17295 0.60537 0.3844 0.0
H549 H 0.19399 0.591 0.28343 0.0
H550 H 0.13225 0.63284 0.41597 0.0
H551 H 0.08851 0.62712 0.41499 0.0
C552 C 0.07395 0.85036 0.86777 0.0
C553 C 0.04824 0.83941 0.93306 0.0
C554 C 0.02009 0.88924 0.90463 0.0
C555 C 0.04312 0.89769 0.82945 0.0
N556 N 0.08965 0.8837 0.72998 0.0
N557 N 0.99457 0.84599 0.00635 0.0
C558 C 0.06976 0.87785 0.80907 0.0
C559 C 0.0207 0.85824 0.94984 0.0
N560 N 0.10228 0.83438 0.86157 0.0
N561 N 0.99823 0.9113 0.93458 0.0
H562 H 0.99409 0.82346 0.04149 0.0
H563 H 0.97226 0.85688 0.01275 0.0
H564 H 0.99777 0.93463 0.90459 0.0
H565 H 0.98306 0.90797 0.99522 0.0
H566 H 0.12341 0.84338 0.82291 0.0
H567 H 0.10568 0.81354 0.90158 0.0
H568 H 0.10688 0.86769 0.70577 0.0
H569 H 0.08713 0.90291 0.68317 0.0
C570 C 0.64639 0.06558 0.91269 0.0
C571 C 0.67415 0.08788 0.88528 0.0
C572 C 0.64644 0.10019 0.73798 0.0
C573 C 0.61892 0.07786 0.76565 0.0
N574 N 0.58845 0.04618 0.88813 0.0
N575 N 0.69839 0.13144 0.78417 0.0
C576 C 0.61748 0.06297 0.85631 0.0
C577 C 0.67338 0.10695 0.80178 0.0
N578 N 0.64842 0.04529 0.98885 0.0
N579 N 0.64725 0.11385 0.64954 0.0
H580 H 0.71835 0.13675 0.8301 0.0
H581 H 0.6981 0.14816 0.72885 0.0
H582 H 0.62726 0.11024 0.60308 0.0
H583 H 0.6681 0.1274 0.62038 0.0
H584 H 0.63055 0.02581 0.00513 0.0
H585 H 0.66919 0.04606 0.03215 0.0
H586 H 0.58482 0.03764 0.95747 0.0
H587 H 0.56682 0.04348 0.84798 0.0
C588 C 0.49491 0.63367 0.97499 0.0
C589 C 0.46731 0.65213 0.96016 0.0
C590 C 0.44696 0.61254 0.83504 0.0
C591 C 0.47404 0.59348 0.85189 0.0
N592 N 0.5189 0.58124 0.95208 0.0
N593 N 0.41345 0.65582 0.89266 0.0
C594 C 0.49651 0.60262 0.92647 0.0
C595 C 0.44202 0.64032 0.89592 0.0
N596 N 0.52021 0.64642 0.03262 0.0
N597 N 0.42741 0.60574 0.75701 0.0
H598 H 0.4095 0.67681 0.93458 0.0
H599 H 0.3926 0.64626 0.85474 0.0
H600 H 0.43039 0.58621 0.70879 0.0
H601 H 0.40993 0.6212 0.73514 0.0
H602 H 0.54265 0.63593 0.03787 0.0
H603 H 0.5198 0.66889 0.07058 0.0
H604 H 0.53372 0.58494 0.01212 0.0
H605 H 0.52032 0.55807 0.91855 0.0
C606 C 0.88877 0.43028 0.90193 0.0
C607 C 0.86579 0.40401 0.86844 0.0
C608 C 0.90595 0.38909 0.74529 0.0
C609 C 0.9281 0.41651 0.77696 0.0
N610 N 0.94648 0.45268 0.9076 0.0
N611 N 0.85504 0.35323 0.77648 0.0
C612 C 0.92146 0.4333 0.86357 0.0
C613 C 0.87535 0.38151 0.79631 0.0
N614 N 0.8788 0.45384 0.96485 0.0
N615 N 0.91309 0.37154 0.66431 0.0
H616 H 0.83237 0.34755 0.81228 0.0
H617 H 0.86178 0.33426 0.7307 0.0
H618 H 0.93626 0.37406 0.63018 0.0
H619 H 0.89586 0.35467 0.63012 0.0
H620 H 0.8938 0.47542 0.9832 0.0
H621 H 0.85459 0.45333 0.9924 0.0
H622 H 0.94372 0.46386 0.9747 0.0
H623 H 0.97092 0.45417 0.88103 0.0
C624 C 0.03092 0.1413 0.69493 0.0
C625 C 0.05637 0.14887 0.76237 0.0
C626 C 0.06863 0.09028 0.75641 0.0
C627 C 0.04129 0.08235 0.69526 0.0
N628 N 0.99029 0.09902 0.63183 0.0
N629 N 0.09349 0.12859 0.87624 0.0
C630 C 0.02062 0.10751 0.67193 0.0
C631 C 0.07351 0.12276 0.79883 0.0
N632 N 0.01718 0.16631 0.65044 0.0
N633 N 0.09077 0.06746 0.77105 0.0
H634 H 0.0969 0.15166 0.91142 0.0
H635 H 0.10387 0.10972 0.91137 0.0
H636 H 0.08844 0.04366 0.74002 0.0
H637 H 0.11302 0.07321 0.80699 0.0
H638 H 1.00094 0.16201 0.59357 0.0
H639 H 0.02452 0.19144 0.66385 0.0
H640 H 0.97309 0.11618 0.62106 0.0
H641 H 0.98064 0.07439 0.62029 0.0
C642 C 0.38581 0.99721 0.73508 0.0
C643 C 0.37076 0.02644 0.76175 0.0
C644 C 0.42142 0.05917 0.70516 0.0
C645 C 0.43874 0.03011 0.69807 0.0
N646 N 0.43714 0.97175 0.73857 0.0
N647 N 0.38013 0.08572 0.79735 0.0
C648 C 0.42092 0.99905 0.72169 0.0
C649 C 0.39016 0.05767 0.75398 0.0
N650 N 0.36681 0.96771 0.72168 0.0
N651 N 0.43366 0.08795 0.66239 0.0
H652 H 0.35917 0.08559 0.84191 0.0
H653 H 0.39513 0.10826 0.79864 0.0
H654 H 0.45442 0.08953 0.61691 0.0
H655 H 0.42033 0.10881 0.66151 0.0
H656 H 0.37677 0.94637 0.69523 0.0
H657 H 0.34087 0.96577 0.72637 0.0
H658 H 0.42474 0.94932 0.76093 0.0
H659 H 0.46277 0.97294 0.74574 0.0
C660 C 0.49662 0.35313 0.67936 0.0
C661 C 0.47012 0.34395 0.74406 0.0
C662 C 0.45414 0.40125 0.74546 0.0
C663 C 0.4819 0.41079 0.68551 0.0
N664 N 0.53462 0.39783 0.61719 0.0
N665 N 0.42876 0.36109 0.85697 0.0
C666 C 0.50466 0.3873 0.65884 0.0
C667 C 0.45038 0.36858 0.78265 0.0
N668 N 0.51345 0.32917 0.63498 0.0
N669 N 0.43054 0.42277 0.76355 0.0
H670 H 0.42548 0.33761 0.88692 0.0
H671 H 0.41648 0.37892 0.89471 0.0
H672 H 0.43232 0.44685 0.73743 0.0
H673 H 0.40789 0.41579 0.79781 0.0
H674 H 0.53058 0.33417 0.5794 0.0
H675 H 0.50813 0.30385 0.64772 0.0
H676 H 0.55346 0.3823 0.60453 0.0
H677 H 0.54213 0.42284 0.60495 0.0
C678 C 0.15366 0.46095 0.65385 0.0
C679 C 0.15667 0.47185 0.75054 0.0
C680 C 0.10273 0.49478 0.74374 0.0
C681 C 0.0979 0.48079 0.6507 0.0
N682 N 0.11681 0.44678 0.52079 0.0
N683 N 0.13146 0.49395 0.89322 0.0
C684 C 0.12295 0.46298 0.60627 0.0
C685 C 0.13041 0.48719 0.79715 0.0
N686 N 0.18024 0.44899 0.60751 0.0
N687 N 0.0819 0.51696 0.77929 0.0
H688 H 0.15179 0.49025 0.93519 0.0
H689 H 0.1109 0.50055 0.93275 0.0
H690 H 0.06251 0.52478 0.74032 0.0
H691 H 0.08609 0.53041 0.84281 0.0
H692 H 0.18096 0.44382 0.5344 0.0
H693 H 0.20268 0.44658 0.64126 0.0
H694 H 0.13265 0.43073 0.48901 0.0
H695 H 0.09442 0.44716 0.4851 0.0
C696 C 0.98666 0.85691 0.29689 0.0
C697 C 0.96829 0.8315 0.34957 0.0
C698 C 0.95226 0.87345 0.46668 0.0
C699 C 0.97045 0.89875 0.41262 0.0
N700 N 0.99328 0.91487 0.25726 0.0
N701 N 0.92806 0.8159 0.47324 0.0
C702 C 0.98359 0.89069 0.32129 0.0
C703 C 0.94919 0.83991 0.43096 0.0
N704 N 0.00913 0.84898 0.22788 0.0
N705 N 0.93828 0.88158 0.5526 0.0
H706 H 0.92554 0.79125 0.44832 0.0
H707 H 0.91124 0.82076 0.52782 0.0
H708 H 0.93759 0.90619 0.57642 0.0
H709 H 0.92826 0.86409 0.60124 0.0
H710 H 0.02591 0.8667 0.19544 0.0
H711 H 0.0135 0.82461 0.20989 0.0
H712 H 0.99994 0.90944 0.18676 0.0
H713 H 0.99126 0.94004 0.26987 0.0
C714 C 0.63275 0.01621 0.29682 0.0
C715 C 0.65765 0.99727 0.33137 0.0
C716 C 0.61701 0.97057 0.44557 0.0
C717 C 0.59153 0.98746 0.40514 0.0
N718 N 0.57399 0.01992 0.27635 0.0
N719 N 0.6728 0.95297 0.42879 0.0
C720 C 0.5991 0.00851 0.3263 0.0
C721 C 0.64956 0.97338 0.40294 0.0
N722 N 0.64134 0.04237 0.2381 0.0
N723 N 0.6105 0.95297 0.52699 0.0
H724 H 0.69688 0.95471 0.39974 0.0
H725 H 0.66751 0.93274 0.47313 0.0
H726 H 0.58709 0.95053 0.56007 0.0
H727 H 0.62877 0.94307 0.56592 0.0
H728 H 0.62476 0.05921 0.21905 0.0
H729 H 0.66575 0.04922 0.21545 0.0
H730 H 0.57774 0.03257 0.21249 0.0
H731 H 0.54907 0.01332 0.29287 0.0
C732 C 0.52293 0.63998 0.3143 0.0
C733 C 0.54555 0.66418 0.35975 0.0
C734 C 0.56198 0.6216 0.46685 0.0
C735 C 0.53999 0.59731 0.41887 0.0
N736 N 0.50722 0.58204 0.27848 0.0
N737 N 0.59075 0.67748 0.46748 0.0
C738 C 0.52324 0.60597 0.33618 0.0
C739 C 0.56647 0.65478 0.43245 0.0
N740 N 0.49925 0.64966 0.25519 0.0
N741 N 0.5783 0.61294 0.54574 0.0
H742 H 0.59427 0.7019 0.44375 0.0
H743 H 0.6089 0.67164 0.51437 0.0
H744 H 0.57764 0.58842 0.56817 0.0
H745 H 0.59151 0.63005 0.59086 0.0
H746 H 0.47957 0.6335 0.22956 0.0
H747 H 0.49725 0.67439 0.23897 0.0
H748 H 0.49833 0.58715 0.21155 0.0
H749 H 0.50507 0.55676 0.29239 0.0
C750 C 0.87982 0.48312 0.24785 0.0
C751 C 0.8521 0.49817 0.28673 0.0
C752 C 0.88739 0.52416 0.41395 0.0
C753 C 0.91536 0.51068 0.37057 0.0
N754 N 0.93959 0.48591 0.23043 0.0
N755 N 0.83021 0.53729 0.39763 0.0
C756 C 0.91207 0.49325 0.28194 0.0
C757 C 0.85611 0.52013 0.36708 0.0
N758 N 0.87517 0.4572 0.18363 0.0
N759 N 0.8907 0.54037 0.50041 0.0
H760 H 0.80706 0.53454 0.36498 0.0
H761 H 0.83234 0.55594 0.45027 0.0
H762 H 0.91367 0.54551 0.53327 0.0
H763 H 0.87065 0.54745 0.54124 0.0
H764 H 0.89423 0.44296 0.16149 0.0
H765 H 0.85171 0.44753 0.16069 0.0
H766 H 0.93825 0.47605 0.16103 0.0
H767 H 0.96382 0.49218 0.25336 0.0
loop_
_geom_bond_atom_site_label_1
_geom_bond_atom_site_label_2
_geom_bond_distance
_geom_bond_site_symmetry_2
_ccdc_geom_bond_type
P0 O11 1.490 . S
P0 C14 1.812 . S
P0 C20 1.803 . S
P0 C26 1.819 1_554 S
H1 C15 0.941 . S
H2 C16 0.939 . S
H3 C18 0.940 . S
H4 C19 0.940 . S
H5 C21 0.939 . S
H6 C22 0.942 . S
H7 C24 0.940 . S
H8 C25 0.939 . S
H9 C27 0.941 . S
H10 C31 0.939 . S
O11 P0 1.490 . S
H12 C28 0.939 . S
H13 C30 0.940 . S
C14 P0 1.812 . S
C14 C15 1.389 . S
C14 C19 1.391 . S
C15 H1 0.941 . S
C15 C14 1.389 . S
C15 C16 1.397 . S
C16 H2 0.939 . S
C16 C15 1.397 . S
C16 C17 1.378 . S
C17 C16 1.378 . S
C17 C18 1.378 . S
C18 H3 0.940 . S
C18 C17 1.378 . S
C18 C19 1.396 . S
C19 H4 0.940 . S
C19 C14 1.391 . S
C19 C18 1.396 . S
C20 P0 1.803 . S
C20 C21 1.378 1_554 S
C20 C25 1.400 . S
C21 H5 0.939 . S
C21 C20 1.378 1_556 S
C21 C22 1.361 . S
C22 H6 0.942 . S
C22 C21 1.361 . S
C22 C23 1.369 . S
C23 C22 1.369 . S
C23 C24 1.404 1_556 S
C24 H7 0.940 . S
C24 C23 1.404 1_554 S
C24 C25 1.389 . S
C25 H8 0.939 . S
C25 C20 1.400 . S
C25 C24 1.389 . S
C26 P0 1.819 1_556 S
C26 C27 1.391 . S
C26 C31 1.391 . S
C27 H9 0.941 . S
C27 C26 1.391 . S
C27 C28 1.396 . S
C28 H12 0.939 . S
C28 C27 1.396 . S
C28 C29 1.397 . S
C29 C28 1.397 . S
C29 C30 1.385 . S
C30 H13 0.940 . S
C30 C29 1.385 . S
C30 C31 1.388 . S
C31 H10 0.939 . S
C31 C26 1.391 . S
C31 C30 1.388 . S
P32 O43 1.490 1_655 S
P32 C46 1.812 . S
P32 C52 1.803 . S
P32 C58 1.819 1_554 S
H33 C47 0.941 1_455 S
H34 C48 0.939 . S
H35 C50 0.940 . S
H36 C51 0.940 . S
H37 C53 0.939 1_455 S
H38 C54 0.942 . S
H39 C56 0.940 . S
H40 C57 0.939 . S
H41 C59 0.941 1_455 S
H42 C63 0.939 . S
O43 P32 1.490 1_455 S
H44 C60 0.939 . S
H45 C62 0.940 . S
C46 P32 1.812 . S
C46 C47 1.389 . S
C46 C51 1.391 . S
C47 H33 0.941 1_655 S
C47 C46 1.389 . S
C47 C48 1.397 . S
C48 H34 0.939 . S
C48 C47 1.397 . S
C48 C49 1.378 . S
C49 C48 1.378 . S
C49 C50 1.378 . S
C50 H35 0.940 . S
C50 C49 1.378 . S
C50 C51 1.396 . S
C51 H36 0.940 . S
C51 C46 1.391 . S
C51 C50 1.396 . S
C52 P32 1.803 . S
C52 C53 1.378 1_554 S
C52 C57 1.400 . S
C53 H37 0.939 1_655 S
C53 C52 1.378 1_556 S
C53 C54 1.361 . S
C54 H38 0.942 . S
C54 C53 1.361 . S
C54 C55 1.369 . S
C55 C54 1.369 . S
C55 C56 1.404 1_556 S
C56 H39 0.940 . S
C56 C55 1.404 1_554 S
C56 C57 1.389 . S
C57 H40 0.939 . S
C57 C52 1.400 . S
C57 C56 1.389 . S
C58 P32 1.819 1_556 S
C58 C59 1.391 . S
C58 C63 1.391 . S
C59 H41 0.941 1_655 S
C59 C58 1.391 . S
C59 C60 1.396 . S
C60 H44 0.939 . S
C60 C59 1.396 . S
C60 C61 1.397 . S
C61 C60 1.397 . S
C61 C62 1.385 . S
C62 H45 0.940 . S
C62 C61 1.385 . S
C62 C63 1.388 . S
C63 H42 0.939 . S
C63 C58 1.391 . S
C63 C62 1.388 . S
P64 O75 1.490 . S
P64 C78 1.812 . S
P64 C84 1.803 . S
P64 C90 1.819 1_554 S
H65 C79 0.941 . S
H66 C80 0.939 . S
H67 C82 0.940 . S
H68 C83 0.950 . S
H69 C85 0.939 . S
H70 C86 0.942 . S
H71 C88 0.940 . S
H72 C89 0.958 . S
H73 C91 0.941 1_554 S
H74 C95 0.926 1_565 S
O75 P64 1.490 . S
H76 C92 0.939 . S
H77 C94 0.940 . S
C78 P64 1.812 . S
C78 C79 1.389 . S
C78 C83 1.376 1_545 S
C79 H65 0.941 . S
C79 C78 1.389 . S
C79 C80 1.397 . S
C80 H66 0.939 . S
C80 C79 1.397 . S
C80 C81 1.378 . S
C81 C80 1.378 . S
C81 C82 1.378 1_545 S
C82 H67 0.940 . S
C82 C81 1.378 1_565 S
C82 C83 1.402 . S
C83 H68 0.950 . S
C83 C78 1.376 1_565 S
C83 C82 1.402 . S
C84 P64 1.803 . S
C84 C85 1.378 1_554 S
C84 C89 1.367 1_545 S
C85 H69 0.939 . S
C85 C84 1.378 1_556 S
C85 C86 1.361 . S
C86 H70 0.942 . S
C86 C85 1.361 . S
C86 C87 1.369 . S
C87 C86 1.369 . S
C87 C88 1.404 1_546 S
C88 H71 0.940 . S
C88 C87 1.404 1_564 S
C88 C89 1.405 . S
C89 H72 0.958 . S
C89 C84 1.367 1_565 S
C89 C88 1.405 . S
C90 P64 1.819 1_556 S
C90 C91 1.391 . S
C90 C95 1.391 . S
C91 H73 0.941 1_556 S
C91 C90 1.391 . S
C91 C92 1.396 . S
C92 H76 0.939 . S
C92 C91 1.396 . S
C92 C93 1.397 . S
C93 C92 1.397 . S
C93 C94 1.385 1_545 S
C94 H77 0.940 . S
C94 C93 1.385 1_565 S
C94 C95 1.388 1_565 S
C95 H74 0.926 1_545 S
C95 C90 1.391 . S
C95 C94 1.388 1_545 S
P96 O107 1.490 . S
P96 C110 1.812 . S
P96 C116 1.803 . S
P96 C122 1.819 1_554 S
H97 C111 0.941 . S
H98 C112 0.939 . S
H99 C114 0.940 . S
H100 C115 0.940 . S
H101 C117 0.939 1_556 S
H102 C118 0.942 . S
H103 C120 0.940 . S
H104 C121 0.939 . S
H105 C123 0.941 1_554 S
H106 C127 0.939 . S
O107 P96 1.490 . S
H108 C124 0.939 . S
H109 C126 0.940 . S
C110 P96 1.812 . S
C110 C111 1.389 . S
C110 C115 1.391 . S
C111 H97 0.941 . S
C111 C110 1.389 . S
C111 C112 1.397 . S
C112 H98 0.939 . S
C112 C111 1.397 . S
C112 C113 1.378 . S
C113 C112 1.378 . S
C113 C114 1.378 . S
C114 H99 0.940 . S
C114 C113 1.378 . S
C114 C115 1.396 . S
C115 H100 0.940 . S
C115 C110 1.391 . S
C115 C114 1.396 . S
C116 P96 1.803 . S
C116 C117 1.378 . S
C116 C121 1.400 . S
C117 H101 0.939 1_554 S
C117 C116 1.378 . S
C117 C118 1.361 1_554 S
C118 H102 0.942 . S
C118 C117 1.361 1_556 S
C118 C119 1.369 1_556 S
C119 C118 1.369 1_554 S
C119 C120 1.404 . S
C120 H103 0.940 . S
C120 C119 1.404 . S
C120 C121 1.389 . S
C121 H104 0.939 . S
C121 C116 1.400 . S
C121 C120 1.389 . S
C122 P96 1.819 1_556 S
C122 C123 1.391 . S
C122 C127 1.391 . S
C123 H105 0.941 1_556 S
C123 C122 1.391 . S
C123 C124 1.396 . S
C124 H108 0.939 . S
C124 C123 1.396 . S
C124 C125 1.397 . S
C125 C124 1.397 . S
C125 C126 1.385 . S
C126 H109 0.940 . S
C126 C125 1.385 . S
C126 C127 1.388 . S
C127 H106 0.939 . S
C127 C122 1.391 . S
C127 C126 1.388 . S
P128 O139 1.490 . S
P128 C142 1.812 1_554 S
P128 C148 1.803 . S
P128 C154 1.819 . S
H129 C143 0.941 . S
H130 C144 0.939 . S
H131 C146 0.940 . S
H132 C147 0.940 . S
H133 C149 0.939 . S
H134 C150 0.942 . S
H135 C152 0.940 . S
H136 C153 0.939 . S
H137 C155 0.941 . S
H138 C159 0.939 . S
O139 P128 1.490 . S
H140 C156 0.939 . S
H141 C158 0.940 . S
C142 P128 1.812 1_556 S
C142 C143 1.389 . S
C142 C147 1.391 . S
C143 H129 0.941 . S
C143 C142 1.389 . S
C143 C144 1.397 . S
C144 H130 0.939 . S
C144 C143 1.397 . S
C144 C145 1.378 . S
C145 C144 1.378 . S
C145 C146 1.378 . S
C146 H131 0.940 . S
C146 C145 1.378 . S
C146 C147 1.396 . S
C147 H132 0.940 . S
C147 C142 1.391 . S
C147 C146 1.396 . S
C148 P128 1.803 . S
C148 C149 1.378 . S
C148 C153 1.400 . S
C149 H133 0.939 . S
C149 C148 1.378 . S
C149 C150 1.361 . S
C150 H134 0.942 . S
C150 C149 1.361 . S
C150 C151 1.369 . S
C151 C150 1.369 . S
C151 C152 1.404 . S
C152 H135 0.940 . S
C152 C151 1.404 . S
C152 C153 1.389 . S
C153 H136 0.939 . S
C153 C148 1.400 . S
C153 C152 1.389 . S
C154 P128 1.819 . S
C154 C155 1.391 . S
C154 C159 1.391 . S
C155 H137 0.941 . S
C155 C154 1.391 . S
C155 C156 1.396 . S
C156 H140 0.939 . S
C156 C155 1.396 . S
C156 C157 1.397 . S
C157 C156 1.397 . S
C157 C158 1.385 . S
C158 H141 0.940 . S
C158 C157 1.385 . S
C158 C159 1.388 . S
C159 H138 0.939 . S
C159 C154 1.391 . S
C159 C158 1.388 . S
P160 O171 1.490 . S
P160 C174 1.812 1_554 S
P160 C180 1.803 . S
P160 C186 1.819 . S
H161 C175 0.941 . S
H162 C176 0.939 . S
H163 C178 0.940 . S
H164 C179 0.940 1_554 S
H165 C181 0.939 . S
H166 C182 0.942 . S
H167 C184 0.940 . S
H168 C185 0.939 . S
H169 C187 0.941 . S
H170 C191 0.939 . S
O171 P160 1.490 . S
H172 C188 0.939 . S
H173 C190 0.940 . S
C174 P160 1.812 1_556 S
C174 C175 1.389 . S
C174 C179 1.391 . S
C175 H161 0.941 . S
C175 C174 1.389 . S
C175 C176 1.397 . S
C176 H162 0.939 . S
C176 C175 1.397 . S
C176 C177 1.378 . S
C177 C176 1.378 . S
C177 C178 1.378 . S
C178 H163 0.940 . S
C178 C177 1.378 . S
C178 C179 1.396 . S
C179 H164 0.940 1_556 S
C179 C174 1.391 . S
C179 C178 1.396 . S
C180 P160 1.803 . S
C180 C181 1.378 . S
C180 C185 1.400 . S
C181 H165 0.939 . S
C181 C180 1.378 . S
C181 C182 1.361 . S
C182 H166 0.942 . S
C182 C181 1.361 . S
C182 C183 1.369 . S
C183 C182 1.369 . S
C183 C184 1.404 . S
C184 H167 0.940 . S
C184 C183 1.404 . S
C184 C185 1.389 . S
C185 H168 0.939 . S
C185 C180 1.400 . S
C185 C184 1.389 . S
C186 P160 1.819 . S
C186 C187 1.391 . S
C186 C191 1.391 . S
C187 H169 0.941 . S
C187 C186 1.391 . S
C187 C188 1.396 . S
C188 H172 0.939 . S
C188 C187 1.396 . S
C188 C189 1.397 . S
C189 C188 1.397 . S
C189 C190 1.385 . S
C190 H173 0.940 . S
C190 C189 1.385 . S
C190 C191 1.388 . S
C191 H170 0.939 . S
C191 C186 1.391 . S
C191 C190 1.388 . S
P192 O203 1.490 . S
P192 C206 1.812 1_554 S
P192 C212 1.803 . S
P192 C218 1.819 . S
H193 C207 0.941 . S
H194 C208 0.939 . S
H195 C210 0.940 . S
H196 C211 0.946 . S
H197 C213 0.939 . S
H198 C214 0.942 . S
H199 C216 0.940 . S
H200 C217 0.956 . S
H201 C219 0.941 . S
H202 C223 0.934 1_565 S
O203 P192 1.490 . S
H204 C220 0.939 . S
H205 C222 0.940 . S
C206 P192 1.812 1_556 S
C206 C207 1.389 . S
C206 C211 1.382 1_545 S
C207 H193 0.941 . S
C207 C206 1.389 . S
C207 C208 1.397 . S
C208 H194 0.939 . S
C208 C207 1.397 . S
C208 C209 1.378 . S
C209 C208 1.378 . S
C209 C210 1.378 1_545 S
C210 H195 0.940 . S
C210 C209 1.378 1_565 S
C210 C211 1.400 . S
C211 H196 0.946 . S
C211 C206 1.382 1_565 S
C211 C210 1.400 . S
C212 P192 1.803 . S
C212 C213 1.378 . S
C212 C217 1.377 1_545 S
C213 H197 0.939 . S
C213 C212 1.378 . S
C213 C214 1.361 . S
C214 H198 0.942 . S
C214 C213 1.361 . S
C214 C215 1.369 . S
C215 C214 1.369 . S
C215 C216 1.404 1_545 S
C216 H199 0.940 . S
C216 C215 1.404 1_565 S
C216 C217 1.397 . S
C217 H200 0.956 . S
C217 C212 1.377 1_565 S
C217 C216 1.397 . S
C218 P192 1.819 . S
C218 C219 1.391 . S
C218 C223 1.391 . S
C219 H201 0.941 . S
C219 C218 1.391 . S
C219 C220 1.396 . S
C220 H204 0.939 . S
C220 C219 1.396 . S
C220 C221 1.397 . S
C221 C220 1.397 . S
C221 C222 1.385 1_545 S
C222 H205 0.940 . S
C222 C221 1.385 1_565 S
C222 C223 1.388 1_565 S
C223 H202 0.934 1_545 S
C223 C218 1.391 . S
C223 C222 1.388 1_545 S
P224 O235 1.490 . S
P224 C238 1.812 1_554 S
P224 C244 1.803 . S
P224 C250 1.819 . S
H225 C239 0.941 . S
H226 C240 0.939 . S
H227 C242 0.940 . S
H228 C243 0.940 . S
H229 C245 0.939 . S
H230 C246 0.942 . S
H231 C248 0.940 . S
H232 C249 0.939 1_556 S
H233 C251 0.941 . S
H234 C255 0.939 . S
O235 P224 1.490 . S
H236 C252 0.939 . S
H237 C254 0.940 . S
C238 P224 1.812 1_556 S
C238 C239 1.389 . S
C238 C243 1.391 . S
C239 H225 0.941 . S
C239 C238 1.389 . S
C239 C240 1.397 . S
C240 H226 0.939 . S
C240 C239 1.397 . S
C240 C241 1.378 . S
C241 C240 1.378 . S
C241 C242 1.378 . S
C242 H227 0.940 . S
C242 C241 1.378 . S
C242 C243 1.396 . S
C243 H228 0.940 . S
C243 C238 1.391 . S
C243 C242 1.396 . S
C244 P224 1.803 . S
C244 C245 1.378 . S
C244 C249 1.400 . S
C245 H229 0.939 . S
C245 C244 1.378 . S
C245 C246 1.361 . S
C246 H230 0.942 . S
C246 C245 1.361 . S
C246 C247 1.369 . S
C247 C246 1.369 . S
C247 C248 1.404 . S
C248 H231 0.940 . S
C248 C247 1.404 . S
C248 C249 1.389 . S
C249 H232 0.939 1_554 S
C249 C244 1.400 . S
C249 C248 1.389 . S
C250 P224 1.819 . S
C250 C251 1.391 . S
C250 C255 1.391 . S
C251 H233 0.941 . S
C251 C250 1.391 . S
C251 C252 1.396 . S
C252 H236 0.939 . S
C252 C251 1.396 . S
C252 C253 1.397 . S
C253 C252 1.397 . S
C253 C254 1.385 . S
C254 H237 0.940 . S
C254 C253 1.385 . S
C254 C255 1.388 . S
C255 H234 0.939 . S
C255 C250 1.391 . S
C255 C254 1.388 . S
Dy256 O260 2.398 . S
Dy256 O261 2.491 1_455 S
Dy256 O262 2.403 . S
Dy256 O263 2.664 1_565 S
Dy256 O267 2.326 . S
Dy256 O271 2.310 1_455 S
Dy256 O272 2.351 1_565 S
C257 O268 1.185 1_455 S
C257 O269 1.355 . S
C258 O260 1.185 . S
C258 O261 1.355 1_455 S
Dy259 O263 2.310 1_655 S
Dy259 O266 2.351 1_545 S
Dy259 O268 2.398 . S
Dy259 O269 2.491 1_655 S
Dy259 O270 2.403 . S
Dy259 O271 2.664 1_545 S
Dy259 O273 2.326 1_655 S
O260 Dy256 2.398 . S
O260 C258 1.185 . S
O261 Dy256 2.491 1_655 S
O261 C258 1.355 1_655 S
O262 Dy256 2.403 . S
O262 C264 1.254 . S
O263 Dy256 2.664 1_545 S
O263 Dy259 2.310 1_455 S
O263 C264 1.268 1_545 S
C264 O262 1.254 . S
C264 O263 1.268 1_565 S
C265 O270 1.254 . S
C265 O271 1.268 1_545 S
O266 Dy259 2.351 1_565 S
O266 C274 1.249 . S
O267 Dy256 2.326 . S
O267 C274 1.267 1_455 S
O268 C257 1.185 1_655 S
O268 Dy259 2.398 . S
O269 C257 1.355 . S
O269 Dy259 2.491 1_455 S
O270 Dy259 2.403 . S
O270 C265 1.254 . S
O271 Dy256 2.310 1_655 S
O271 Dy259 2.664 1_565 S
O271 C265 1.268 1_565 S
O272 Dy256 2.351 1_545 S
O272 C275 1.249 . S
O273 Dy259 2.326 1_455 S
O273 C275 1.267 . S
C274 O266 1.249 . S
C274 O267 1.267 1_655 S
C275 O272 1.249 . S
C275 O273 1.267 . S
Dy276 O280 2.398 . S
Dy276 O281 2.491 . S
Dy276 O282 2.403 . S
Dy276 O283 2.664 . S
Dy276 O287 2.326 1_565 S
Dy276 O291 2.310 1_565 S
Dy276 O292 2.351 . S
C277 O288 1.185 . S
C277 O289 1.355 . S
C278 O280 1.185 . S
C278 O281 1.355 . S
Dy279 O283 2.310 1_545 S
Dy279 O286 2.351 . S
Dy279 O288 2.398 . S
Dy279 O289 2.491 . S
Dy279 O290 2.403 . S
Dy279 O291 2.664 . S
Dy279 O293 2.326 1_545 S
O280 Dy276 2.398 . S
O280 C278 1.185 . S
O281 Dy276 2.491 . S
O281 C278 1.355 . S
O282 Dy276 2.403 . S
O282 C284 1.254 . S
O283 Dy276 2.664 . S
O283 Dy279 2.310 1_565 S
O283 C284 1.268 . S
C284 O282 1.254 . S
C284 O283 1.268 . S
C285 O290 1.254 . S
C285 O291 1.268 . S
O286 Dy279 2.351 . S
O286 C294 1.249 . S
O287 Dy276 2.326 1_545 S
O287 C294 1.267 . S
O288 C277 1.185 . S
O288 Dy279 2.398 . S
O289 C277 1.355 . S
O289 Dy279 2.491 . S
O290 Dy279 2.403 . S
O290 C285 1.254 . S
O291 Dy276 2.310 1_545 S
O291 Dy279 2.664 . S
O291 C285 1.268 . S
O292 Dy276 2.351 . S
O292 C295 1.249 . S
O293 Dy279 2.326 1_565 S
O293 C295 1.267 . S
C294 O286 1.249 . S
C294 O287 1.267 . S
C295 O292 1.249 . S
C295 O293 1.267 . S
Dy296 O300 2.398 . S
Dy296 O301 2.491 . S
Dy296 O302 2.403 . S
Dy296 O303 2.664 . S
Dy296 O307 2.326 . S
Dy296 O311 2.310 . S
Dy296 O312 2.351 . S
C297 O308 1.185 . S
C297 O309 1.355 . S
C298 O300 1.185 . S
C298 O301 1.355 . S
Dy299 O303 2.310 . S
Dy299 O306 2.351 . S
Dy299 O308 2.398 . S
Dy299 O309 2.491 . S
Dy299 O310 2.403 . S
Dy299 O311 2.664 . S
Dy299 O313 2.326 . S
O300 Dy296 2.398 . S
O300 C298 1.185 . S
O301 Dy296 2.491 . S
O301 C298 1.355 . S
O302 Dy296 2.403 . S
O302 C304 1.254 . S
O303 Dy296 2.664 . S
O303 Dy299 2.310 . S
O303 C304 1.268 . S
C304 O302 1.254 . S
C304 O303 1.268 . S
C305 O310 1.254 . S
C305 O311 1.268 . S
O306 Dy299 2.351 . S
O306 C314 1.249 . S
O307 Dy296 2.326 . S
O307 C314 1.267 . S
O308 C297 1.185 . S
O308 Dy299 2.398 . S
O309 C297 1.355 . S
O309 Dy299 2.491 . S
O310 Dy299 2.403 . S
O310 C305 1.254 . S
O311 Dy296 2.310 . S
O311 Dy299 2.664 . S
O311 C305 1.268 . S
O312 Dy296 2.351 . S
O312 C315 1.249 . S
O313 Dy299 2.326 . S
O313 C315 1.267 . S
C314 O306 1.249 . S
C314 O307 1.267 . S
C315 O312 1.249 . S
C315 O313 1.267 . S
Dy316 O320 2.398 . S
Dy316 O321 2.491 . S
Dy316 O322 2.403 . S
Dy316 O323 2.664 1_655 S
Dy316 O327 2.326 . S
Dy316 O331 2.310 . S
Dy316 O332 2.351 1_655 S
C317 O328 1.185 . S
C317 O329 1.355 . S
C318 O320 1.185 . S
C318 O321 1.355 . S
Dy319 O323 2.310 . S
Dy319 O326 2.351 1_455 S
Dy319 O328 2.398 . S
Dy319 O329 2.491 . S
Dy319 O330 2.403 . S
Dy319 O331 2.664 1_455 S
Dy319 O333 2.326 . S
O320 Dy316 2.398 . S
O320 C318 1.185 . S
O321 Dy316 2.491 . S
O321 C318 1.355 . S
O322 Dy316 2.403 . S
O322 C324 1.254 1_655 S
O323 Dy316 2.664 1_455 S
O323 Dy319 2.310 . S
O323 C324 1.268 . S
C324 O322 1.254 1_455 S
C324 O323 1.268 . S
C325 O330 1.254 1_655 S
C325 O331 1.268 . S
O326 Dy319 2.351 1_655 S
O326 C334 1.249 . S
O327 Dy316 2.326 . S
O327 C334 1.267 . S
O328 C317 1.185 . S
O328 Dy319 2.398 . S
O329 C317 1.355 . S
O329 Dy319 2.491 . S
O330 Dy319 2.403 . S
O330 C325 1.254 1_455 S
O331 Dy316 2.310 . S
O331 Dy319 2.664 1_655 S
O331 C325 1.268 . S
O332 Dy316 2.351 1_455 S
O332 C335 1.249 . S
O333 Dy319 2.326 . S
O333 C335 1.267 . S
C334 O326 1.249 . S
C334 O327 1.267 . S
C335 O332 1.249 . S
C335 O333 1.267 . S
C336 C337 1.381 . S
C336 C342 1.379 . S
C336 N344 1.356 . S
C337 C336 1.381 . S
C337 C343 1.345 1_565 S
C338 C339 1.363 1_545 S
C338 C343 1.379 . S
C338 N345 1.356 . S
C339 C338 1.363 1_565 S
C339 C342 1.363 . S
N340 C342 1.356 . S
N340 H352 0.984 . S
N340 H353 0.985 . S
N341 C343 1.356 . S
N341 H346 0.984 . S
N341 H347 0.985 . S
C342 C336 1.379 . S
C342 C339 1.363 . S
C342 N340 1.356 . S
C343 C337 1.345 1_545 S
C343 C338 1.379 . S
C343 N341 1.356 . S
N344 C336 1.356 . S
N344 H350 0.984 . S
N344 H351 0.984 . S
N345 C338 1.356 . S
N345 H348 0.984 . S
N345 H349 0.985 . S
H346 N341 0.984 . S
H347 N341 0.985 . S
H348 N345 0.984 . S
H349 N345 0.985 . S
H350 N344 0.984 . S
H351 N344 0.984 . S
H352 N340 0.984 . S
H353 N340 0.985 . S
C354 C355 1.363 . S
C354 C360 1.379 . S
C354 N362 1.356 . S
C355 C354 1.363 . S
C355 C361 1.363 . S
C356 C357 1.363 . S
C356 C361 1.379 . S
C356 N363 1.356 . S
C357 C356 1.363 . S
C357 C360 1.363 . S
N358 C360 1.356 . S
N358 H370 0.984 . S
N358 H371 0.985 . S
N359 C361 1.356 . S
N359 H364 0.984 . S
N359 H365 0.985 . S
C360 C354 1.379 . S
C360 C357 1.363 . S
C360 N358 1.356 . S
C361 C355 1.363 . S
C361 C356 1.379 . S
C361 N359 1.356 . S
N362 C354 1.356 . S
N362 H368 0.984 . S
N362 H369 0.984 . S
N363 C356 1.356 . S
N363 H366 0.984 . S
N363 H367 0.985 . S
H364 N359 0.984 . S
H365 N359 0.985 . S
H366 N363 0.984 . S
H367 N363 0.985 . S
H368 N362 0.984 . S
H369 N362 0.984 . S
H370 N358 0.984 . S
H371 N358 0.985 . S
C372 C373 1.363 . S
C372 C378 1.379 . S
C372 N380 1.356 . S
C373 C372 1.363 . S
C373 C379 1.363 . S
C374 C375 1.363 . S
C374 C379 1.379 . S
C374 N381 1.356 . S
C375 C374 1.363 . S
C375 C378 1.363 . S
N376 C378 1.356 . S
N376 H388 0.984 . S
N376 H389 0.985 . S
N377 C379 1.356 . S
N377 H382 0.984 . S
N377 H383 0.985 . S
C378 C372 1.379 . S
C378 C375 1.363 . S
C378 N376 1.356 . S
C379 C373 1.363 . S
C379 C374 1.379 . S
C379 N377 1.356 . S
N380 C372 1.356 . S
N380 H386 0.984 . S
N380 H387 0.984 . S
N381 C374 1.356 . S
N381 H384 0.984 . S
N381 H385 0.985 . S
H382 N377 0.984 . S
H383 N377 0.985 . S
H384 N381 0.984 . S
H385 N381 0.985 . S
H386 N380 0.984 . S
H387 N380 0.984 . S
H388 N376 0.984 . S
H389 N376 0.985 . S
C390 C391 1.363 . S
C390 C396 1.379 . S
C390 N398 1.356 . S
C391 C390 1.363 . S
C391 C397 1.363 . S
C392 C393 1.363 . S
C392 C397 1.379 . S
C392 N399 1.356 . S
C393 C392 1.363 . S
C393 C396 1.363 . S
N394 C396 1.356 1_655 S
N394 H406 0.984 . S
N394 H407 0.985 . S
N395 C397 1.356 . S
N395 H400 0.984 . S
N395 H401 0.985 . S
C396 C390 1.379 . S
C396 C393 1.363 . S
C396 N394 1.356 1_455 S
C397 C391 1.363 . S
C397 C392 1.379 . S
C397 N395 1.356 . S
N398 C390 1.356 . S
N398 H404 0.984 1_455 S
N398 H405 0.984 . S
N399 C392 1.356 . S
N399 H402 0.984 . S
N399 H403 0.985 . S
H400 N395 0.984 . S
H401 N395 0.985 . S
H402 N399 0.984 . S
H403 N399 0.985 . S
H404 N398 0.984 1_655 S
H405 N398 0.984 . S
H406 N394 0.984 . S
H407 N394 0.985 . S
C408 C409 1.351 1_565 S
C408 C414 1.379 . S
C408 N416 1.356 . S
C409 C408 1.351 1_545 S
C409 C415 1.376 . S
C410 C411 1.363 . S
C410 C415 1.379 . S
C410 N417 1.356 . S
C411 C410 1.363 . S
C411 C414 1.363 1_545 S
N412 C414 1.356 . S
N412 H424 0.984 . S
N412 H425 0.985 . S
N413 C415 1.356 . S
N413 H418 0.984 . S
N413 H419 0.985 . S
C414 C408 1.379 . S
C414 C411 1.363 1_565 S
C414 N412 1.356 . S
C415 C409 1.376 . S
C415 C410 1.379 . S
C415 N413 1.356 . S
N416 C408 1.356 . S
N416 H422 0.984 . S
N416 H423 0.984 1_556 S
N417 C410 1.356 . S
N417 H420 0.984 . S
N417 H421 0.985 . S
H418 N413 0.984 . S
H419 N413 0.985 . S
H420 N417 0.984 . S
H421 N417 0.985 . S
H422 N416 0.984 . S
H423 N416 0.984 1_554 S
H424 N412 0.984 . S
H425 N412 0.985 . S
C426 C427 1.363 . S
C426 C432 1.379 . S
C426 N434 1.356 . S
C427 C426 1.363 . S
C427 C433 1.363 . S
C428 C429 1.363 . S
C428 C433 1.379 . S
C428 N435 1.356 . S
C429 C428 1.363 . S
C429 C432 1.363 . S
N430 C432 1.356 . S
N430 H442 0.984 . S
N430 H443 0.985 . S
N431 C433 1.356 1_554 S
N431 H436 0.984 . S
N431 H437 0.985 . S
C432 C426 1.379 . S
C432 C429 1.363 . S
C432 N430 1.356 . S
C433 C427 1.363 . S
C433 C428 1.379 . S
C433 N431 1.356 1_556 S
N434 C426 1.356 . S
N434 H440 0.984 . S
N434 H441 0.984 . S
N435 C428 1.356 . S
N435 H438 0.984 . S
N435 H439 0.985 . S
H436 N431 0.984 . S
H437 N431 0.985 . S
H438 N435 0.984 . S
H439 N435 0.985 . S
H440 N434 0.984 . S
H441 N434 0.984 . S
H442 N430 0.984 . S
H443 N430 0.985 . S
C444 C445 1.363 . S
C444 C450 1.379 . S
C444 N452 1.356 . S
C445 C444 1.363 . S
C445 C451 1.363 . S
C446 C447 1.363 . S
C446 C451 1.379 . S
C446 N453 1.356 . S
C447 C446 1.363 . S
C447 C450 1.363 . S
N448 C450 1.356 . S
N448 H460 0.984 . S
N448 H461 0.985 . S
N449 C451 1.356 . S
N449 H454 0.984 . S
N449 H455 0.985 . S
C450 C444 1.379 . S
C450 C447 1.363 . S
C450 N448 1.356 . S
C451 C445 1.363 . S
C451 C446 1.379 . S
C451 N449 1.356 . S
N452 C444 1.356 . S
N452 H458 0.984 . S
N452 H459 0.984 1_556 S
N453 C446 1.356 . S
N453 H456 0.984 . S
N453 H457 0.985 . S
H454 N449 0.984 . S
H455 N449 0.985 . S
H456 N453 0.984 . S
H457 N453 0.985 . S
H458 N452 0.984 . S
H459 N452 0.984 1_554 S
H460 N448 0.984 . S
H461 N448 0.985 . S
C462 C463 1.363 . S
C462 C468 1.379 . S
C462 N470 1.356 . S
C463 C462 1.363 . S
C463 C469 1.363 . S
C464 C465 1.363 . S
C464 C469 1.379 . S
C464 N471 1.356 . S
C465 C464 1.363 . S
C465 C468 1.363 . S
N466 C468 1.356 . S
N466 H478 0.984 . S
N466 H479 0.985 . S
N467 C469 1.356 . S
N467 H472 0.984 . S
N467 H473 0.985 . S
C468 C462 1.379 . S
C468 C465 1.363 . S
C468 N466 1.356 . S
C469 C463 1.363 . S
C469 C464 1.379 . S
C469 N467 1.356 . S
N470 C462 1.356 . S
N470 H476 0.984 . S
N470 H477 0.984 . S
N471 C464 1.356 . S
N471 H474 0.984 . S
N471 H475 0.985 . S
H472 N467 0.984 . S
H473 N467 0.985 . S
H474 N471 0.984 . S
H475 N471 0.985 . S
H476 N470 0.984 . S
H477 N470 0.984 . S
H478 N466 0.984 . S
H479 N466 0.985 . S
C480 C481 1.363 . S
C480 C486 1.379 . S
C480 N488 1.356 . S
C481 C480 1.363 . S
C481 C487 1.363 . S
C482 C483 1.363 . S
C482 C487 1.379 . S
C482 N489 1.356 1_455 S
C483 C482 1.363 . S
C483 C486 1.363 . S
N484 C486 1.356 . S
N484 H496 0.984 . S
N484 H497 0.985 . S
N485 C487 1.356 . S
N485 H490 0.984 . S
N485 H491 0.985 . S
C486 C480 1.379 . S
C486 C483 1.363 . S
C486 N484 1.356 . S
C487 C481 1.363 . S
C487 C482 1.379 . S
C487 N485 1.356 . S
N488 C480 1.356 . S
N488 H494 0.984 . S
N488 H495 0.984 . S
N489 C482 1.356 1_655 S
N489 H492 0.984 . S
N489 H493 0.985 . S
H490 N485 0.984 . S
H491 N485 0.985 . S
H492 N489 0.984 . S
H493 N489 0.985 . S
H494 N488 0.984 . S
H495 N488 0.984 . S
H496 N484 0.984 . S
H497 N484 0.985 . S
C498 C499 1.365 . S
C498 C504 1.379 . S
C498 N506 1.356 . S
C499 C498 1.365 . S
C499 C505 1.359 1_545 S
C500 C501 1.363 . S
C500 C505 1.379 . S
C500 N507 1.356 . S
C501 C500 1.363 . S
C501 C504 1.363 1_565 S
N502 C504 1.356 . S
N502 H514 0.984 . S
N502 H515 0.985 . S
N503 C505 1.356 . S
N503 H508 0.984 . S
N503 H509 0.985 . S
C504 C498 1.379 . S
C504 C501 1.363 1_545 S
C504 N502 1.356 . S
C505 C499 1.359 1_565 S
C505 C500 1.379 . S
C505 N503 1.356 . S
N506 C498 1.356 . S
N506 H512 0.984 . S
N506 H513 0.984 . S
N507 C500 1.356 . S
N507 H510 0.984 . S
N507 H511 0.985 . S
H508 N503 0.984 . S
H509 N503 0.985 . S
H510 N507 0.984 . S
H511 N507 0.985 . S
H512 N506 0.984 . S
H513 N506 0.984 . S
H514 N502 0.984 . S
H515 N502 0.985 . S
C516 C517 1.363 . S
C516 C522 1.379 . S
C516 N524 1.356 . S
C517 C516 1.363 . S
C517 C523 1.363 . S
C518 C519 1.363 . S
C518 C523 1.379 . S
C518 N525 1.356 . S
C519 C518 1.363 . S
C519 C522 1.363 . S
N520 C522 1.356 . S
N520 H532 0.984 . S
N520 H533 0.985 . S
N521 C523 1.356 . S
N521 H526 0.984 . S
N521 H527 0.985 . S
C522 C516 1.379 . S
C522 C519 1.363 . S
C522 N520 1.356 . S
C523 C517 1.363 . S
C523 C518 1.379 . S
C523 N521 1.356 . S
N524 C516 1.356 . S
N524 H530 0.984 . S
N524 H531 0.984 . S
N525 C518 1.356 . S
N525 H528 0.984 . S
N525 H529 0.985 . S
H526 N521 0.984 . S
H527 N521 0.985 . S
H528 N525 0.984 . S
H529 N525 0.985 . S
H530 N524 0.984 . S
H531 N524 0.984 . S
H532 N520 0.984 . S
H533 N520 0.985 . S
C534 C535 1.363 . S
C534 C540 1.379 . S
C534 N542 1.356 . S
C535 C534 1.363 . S
C535 C541 1.363 . S
C536 C537 1.363 . S
C536 C541 1.379 . S
C536 N543 1.356 . S
C537 C536 1.363 . S
C537 C540 1.363 . S
N538 C540 1.356 . S
N538 H550 0.984 . S
N538 H551 0.985 . S
N539 C541 1.356 . S
N539 H544 0.984 . S
N539 H545 0.985 . S
C540 C534 1.379 . S
C540 C537 1.363 . S
C540 N538 1.356 . S
C541 C535 1.363 . S
C541 C536 1.379 . S
C541 N539 1.356 . S
N542 C534 1.356 . S
N542 H548 0.984 . S
N542 H549 0.984 . S
N543 C536 1.356 . S
N543 H546 0.984 . S
N543 H547 0.985 . S
H544 N539 0.984 . S
H545 N539 0.985 . S
H546 N543 0.984 . S
H547 N543 0.985 . S
H548 N542 0.984 . S
H549 N542 0.984 . S
H550 N538 0.984 . S
H551 N538 0.985 . S
C552 C553 1.363 . S
C552 C558 1.379 . S
C552 N560 1.356 . S
C553 C552 1.363 . S
C553 C559 1.363 . S
C554 C555 1.363 . S
C554 C559 1.379 . S
C554 N561 1.356 1_655 S
C555 C554 1.363 . S
C555 C558 1.363 . S
N556 C558 1.356 1_455 S
N556 H568 0.984 1_455 S
N556 H569 0.985 . S
N557 C559 1.356 . S
N557 H562 0.984 . S
N557 H563 0.985 . S
C558 C552 1.379 . S
C558 C555 1.363 . S
C558 N556 1.356 1_655 S
C559 C553 1.363 . S
C559 C554 1.379 . S
C559 N557 1.356 . S
N560 C552 1.356 . S
N560 H566 0.984 . S
N560 H567 0.984 . S
N561 C554 1.356 1_455 S
N561 H564 0.984 . S
N561 H565 0.985 1_455 S
H562 N557 0.984 . S
H563 N557 0.985 . S
H564 N561 0.984 . S
H565 N561 0.985 1_655 S
H566 N560 0.984 . S
H567 N560 0.984 . S
H568 N556 0.984 1_655 S
H569 N556 0.985 . S
C570 C571 1.363 . S
C570 C576 1.379 . S
C570 N578 1.356 . S
C571 C570 1.363 . S
C571 C577 1.364 1_565 S
C572 C573 1.363 . S
C572 C577 1.379 . S
C572 N579 1.356 . S
C573 C572 1.363 . S
C573 C576 1.363 1_545 S
N574 C576 1.356 . S
N574 H586 0.984 . S
N574 H587 0.985 . S
N575 C577 1.356 . S
N575 H580 0.984 . S
N575 H581 0.985 . S
C576 C570 1.379 . S
C576 C573 1.363 1_565 S
C576 N574 1.356 . S
C577 C571 1.364 1_545 S
C577 C572 1.379 . S
C577 N575 1.356 . S
N578 C570 1.356 . S
N578 H584 0.984 . S
N578 H585 0.984 . S
N579 C572 1.356 . S
N579 H582 0.984 . S
N579 H583 0.985 . S
H580 N575 0.984 . S
H581 N575 0.985 . S
H582 N579 0.984 . S
H583 N579 0.985 . S
H584 N578 0.984 . S
H585 N578 0.984 . S
H586 N574 0.984 . S
H587 N574 0.985 . S
C588 C589 1.363 . S
C588 C594 1.379 . S
C588 N596 1.356 . S
C589 C588 1.363 . S
C589 C595 1.363 . S
C590 C591 1.363 . S
C590 C595 1.379 . S
C590 N597 1.356 . S
C591 C590 1.363 . S
C591 C594 1.363 . S
N592 C594 1.356 . S
N592 H604 0.984 . S
N592 H605 0.985 . S
N593 C595 1.356 . S
N593 H598 0.984 . S
N593 H599 0.985 . S
C594 C588 1.379 . S
C594 C591 1.363 . S
C594 N592 1.356 . S
C595 C589 1.363 . S
C595 C590 1.379 . S
C595 N593 1.356 . S
N596 C588 1.356 . S
N596 H602 0.984 . S
N596 H603 0.984 . S
N597 C590 1.356 . S
N597 H600 0.984 . S
N597 H601 0.985 . S
H598 N593 0.984 . S
H599 N593 0.985 . S
H600 N597 0.984 . S
H601 N597 0.985 . S
H602 N596 0.984 . S
H603 N596 0.984 . S
H604 N592 0.984 . S
H605 N592 0.985 . S
C606 C607 1.363 . S
C606 C612 1.379 . S
C606 N614 1.356 . S
C607 C606 1.363 . S
C607 C613 1.363 . S
C608 C609 1.363 . S
C608 C613 1.379 . S
C608 N615 1.356 . S
C609 C608 1.363 . S
C609 C612 1.363 . S
N610 C612 1.356 . S
N610 H622 0.984 . S
N610 H623 0.985 . S
N611 C613 1.356 . S
N611 H616 0.984 . S
N611 H617 0.985 . S
C612 C606 1.379 . S
C612 C609 1.363 . S
C612 N610 1.356 . S
C613 C607 1.363 . S
C613 C608 1.379 . S
C613 N611 1.356 . S
N614 C606 1.356 . S
N614 H620 0.984 . S
N614 H621 0.984 . S
N615 C608 1.356 . S
N615 H618 0.984 . S
N615 H619 0.985 . S
H616 N611 0.984 . S
H617 N611 0.985 . S
H618 N615 0.984 . S
H619 N615 0.985 . S
H620 N614 0.984 . S
H621 N614 0.984 . S
H622 N610 0.984 . S
H623 N610 0.985 . S
C624 C625 1.363 . S
C624 C630 1.379 . S
C624 N632 1.356 . S
C625 C624 1.363 . S
C625 C631 1.363 . S
C626 C627 1.363 . S
C626 C631 1.379 . S
C626 N633 1.356 . S
C627 C626 1.363 . S
C627 C630 1.363 . S
N628 C630 1.356 . S
N628 H640 0.984 . S
N628 H641 0.985 . S
N629 C631 1.356 . S
N629 H634 0.984 . S
N629 H635 0.985 . S
C630 C624 1.379 . S
C630 C627 1.363 . S
C630 N628 1.356 . S
C631 C625 1.363 . S
C631 C626 1.379 . S
C631 N629 1.356 . S
N632 C624 1.356 . S
N632 H638 0.984 . S
N632 H639 0.984 . S
N633 C626 1.356 . S
N633 H636 0.984 . S
N633 H637 0.985 . S
H634 N629 0.984 . S
H635 N629 0.985 . S
H636 N633 0.984 . S
H637 N633 0.985 . S
H638 N632 0.984 . S
H639 N632 0.984 . S
H640 N628 0.984 . S
H641 N628 0.985 . S
C642 C643 1.363 1_565 S
C642 C648 1.379 . S
C642 N650 1.356 . S
C643 C642 1.363 1_545 S
C643 C649 1.363 . S
C644 C645 1.363 . S
C644 C649 1.379 . S
C644 N651 1.356 . S
C645 C644 1.363 . S
C645 C648 1.363 1_545 S
N646 C648 1.356 . S
N646 H658 0.984 . S
N646 H659 0.985 . S
N647 C649 1.356 . S
N647 H652 0.984 . S
N647 H653 0.985 . S
C648 C642 1.379 . S
C648 C645 1.363 1_565 S
C648 N646 1.356 . S
C649 C643 1.363 . S
C649 C644 1.379 . S
C649 N647 1.356 . S
N650 C642 1.356 . S
N650 H656 0.984 . S
N650 H657 0.984 . S
N651 C644 1.356 . S
N651 H654 0.984 . S
N651 H655 0.985 . S
H652 N647 0.984 . S
H653 N647 0.985 . S
H654 N651 0.984 . S
H655 N651 0.985 . S
H656 N650 0.984 . S
H657 N650 0.984 . S
H658 N646 0.984 . S
H659 N646 0.985 . S
C660 C661 1.363 . S
C660 C666 1.379 . S
C660 N668 1.356 . S
C661 C660 1.363 . S
C661 C667 1.363 . S
C662 C663 1.363 . S
C662 C667 1.379 . S
C662 N669 1.356 . S
C663 C662 1.363 . S
C663 C666 1.363 . S
N664 C666 1.356 . S
N664 H676 0.984 . S
N664 H677 0.985 . S
N665 C667 1.356 . S
N665 H670 0.984 . S
N665 H671 0.985 . S
C666 C660 1.379 . S
C666 C663 1.363 . S
C666 N664 1.356 . S
C667 C661 1.363 . S
C667 C662 1.379 . S
C667 N665 1.356 . S
N668 C660 1.356 . S
N668 H674 0.984 . S
N668 H675 0.984 . S
N669 C662 1.356 . S
N669 H672 0.984 . S
N669 H673 0.985 . S
H670 N665 0.984 . S
H671 N665 0.985 . S
H672 N669 0.984 . S
H673 N669 0.985 . S
H674 N668 0.984 . S
H675 N668 0.984 . S
H676 N664 0.984 . S
H677 N664 0.985 . S
C678 C679 1.363 . S
C678 C684 1.379 . S
C678 N686 1.356 . S
C679 C678 1.363 . S
C679 C685 1.363 . S
C680 C681 1.363 . S
C680 C685 1.379 . S
C680 N687 1.356 . S
C681 C680 1.363 . S
C681 C684 1.363 . S
N682 C684 1.356 . S
N682 H694 0.984 . S
N682 H695 0.985 . S
N683 C685 1.356 . S
N683 H688 0.984 . S
N683 H689 0.985 . S
C684 C678 1.379 . S
C684 C681 1.363 . S
C684 N682 1.356 . S
C685 C679 1.363 . S
C685 C680 1.379 . S
C685 N683 1.356 . S
N686 C678 1.356 . S
N686 H692 0.984 . S
N686 H693 0.984 . S
N687 C680 1.356 . S
N687 H690 0.984 . S
N687 H691 0.985 . S
H688 N683 0.984 . S
H689 N683 0.985 . S
H690 N687 0.984 . S
H691 N687 0.985 . S
H692 N686 0.984 . S
H693 N686 0.984 . S
H694 N682 0.984 . S
H695 N682 0.985 . S
C696 C697 1.363 . S
C696 C702 1.379 . S
C696 N704 1.356 . S
C697 C696 1.363 . S
C697 C703 1.363 . S
C698 C699 1.363 . S
C698 C703 1.379 . S
C698 N705 1.356 . S
C699 C698 1.363 . S
C699 C702 1.363 . S
N700 C702 1.356 . S
N700 H712 0.984 1_655 S
N700 H713 0.984 . S
N701 C703 1.356 . S
N701 H706 0.984 . S
N701 H707 0.985 . S
C702 C696 1.379 . S
C702 C699 1.363 . S
C702 N700 1.356 . S
C703 C697 1.363 . S
C703 C698 1.379 . S
C703 N701 1.356 . S
N704 C696 1.356 . S
N704 H710 0.984 . S
N704 H711 0.984 . S
N705 C698 1.356 . S
N705 H708 0.984 . S
N705 H709 0.985 . S
H706 N701 0.984 . S
H707 N701 0.985 . S
H708 N705 0.984 . S
H709 N705 0.985 . S
H710 N704 0.984 . S
H711 N704 0.984 . S
H712 N700 0.984 1_455 S
H713 N700 0.984 . S
C714 C715 1.363 1_545 S
C714 C720 1.379 . S
C714 N722 1.356 . S
C715 C714 1.363 1_565 S
C715 C721 1.363 . S
C716 C717 1.363 . S
C716 C721 1.379 . S
C716 N723 1.356 . S
C717 C716 1.363 . S
C717 C720 1.363 1_565 S
N718 C720 1.356 . S
N718 H730 0.984 . S
N718 H731 0.985 . S
N719 C721 1.356 . S
N719 H724 0.984 . S
N719 H725 0.985 . S
C720 C714 1.379 . S
C720 C717 1.363 1_545 S
C720 N718 1.356 . S
C721 C715 1.363 . S
C721 C716 1.379 . S
C721 N719 1.356 . S
N722 C714 1.356 . S
N722 H728 0.984 . S
N722 H729 0.984 . S
N723 C716 1.356 . S
N723 H726 0.984 . S
N723 H727 0.985 . S
H724 N719 0.984 . S
H725 N719 0.985 . S
H726 N723 0.984 . S
H727 N723 0.985 . S
H728 N722 0.984 . S
H729 N722 0.984 . S
H730 N718 0.984 . S
H731 N718 0.985 . S
C732 C733 1.363 . S
C732 C738 1.379 . S
C732 N740 1.356 . S
C733 C732 1.363 . S
C733 C739 1.363 . S
C734 C735 1.363 . S
C734 C739 1.379 . S
C734 N741 1.356 . S
C735 C734 1.363 . S
C735 C738 1.363 . S
N736 C738 1.356 . S
N736 H748 0.984 . S
N736 H749 0.985 . S
N737 C739 1.356 . S
N737 H742 0.984 . S
N737 H743 0.985 . S
C738 C732 1.379 . S
C738 C735 1.363 . S
C738 N736 1.356 . S
C739 C733 1.363 . S
C739 C734 1.379 . S
C739 N737 1.356 . S
N740 C732 1.356 . S
N740 H746 0.984 . S
N740 H747 0.984 . S
N741 C734 1.356 . S
N741 H744 0.984 . S
N741 H745 0.985 . S
H742 N737 0.984 . S
H743 N737 0.985 . S
H744 N741 0.984 . S
H745 N741 0.985 . S
H746 N740 0.984 . S
H747 N740 0.984 . S
H748 N736 0.984 . S
H749 N736 0.985 . S
C750 C751 1.363 . S
C750 C756 1.379 . S
C750 N758 1.356 . S
C751 C750 1.363 . S
C751 C757 1.363 . S
C752 C753 1.363 . S
C752 C757 1.379 . S
C752 N759 1.356 . S
C753 C752 1.363 . S
C753 C756 1.363 . S
N754 C756 1.356 . S
N754 H766 0.984 . S
N754 H767 0.985 . S
N755 C757 1.356 . S
N755 H760 0.984 . S
N755 H761 0.985 . S
C756 C750 1.379 . S
C756 C753 1.363 . S
C756 N754 1.356 . S
C757 C751 1.363 . S
C757 C752 1.379 . S
C757 N755 1.356 . S
N758 C750 1.356 . S
N758 H764 0.984 . S
N758 H765 0.984 . S
N759 C752 1.356 . S
N759 H762 0.984 . S
N759 H763 0.985 . S
H760 N755 0.984 . S
H761 N755 0.985 . S
H762 N759 0.984 . S
H763 N759 0.985 . S
H764 N758 0.984 . S
H765 N758 0.984 . S
H766 N754 0.984 . S
H767 N754 0.985 . S
C337 C215 1.759 1_565 S
C339 C264 1.889 . S
C357 C294 2.248 . S
C355 C247 2.205 . S
C375 C304 1.948 . S
C373 C151 1.743 . S
C393 C324 1.869 . S
C391 C183 1.756 . S
C411 C265 1.889 . S
C409 C87 1.756 . S
C427 C119 2.015 1_556 S
C429 C295 2.251 . S
C445 C23 1.873 . S
C447 C305 1.948 . S
C463 C55 1.610 . S
C465 C325 1.869 . S
C483 C257 1.100 . S
C481 C189 1.113 . S
C501 C278 0.725 . S
C499 C221 0.729 . S
C519 C297 1.302 . S
C517 C253 1.312 . S
C535 C157 0.806 . S
C537 C317 0.819 . S
C553 C61 0.954 . S
C555 C258 1.103 1_655 S
C573 C277 0.725 . S
C571 C93 0.729 1_565 S
C591 C298 1.302 . S
C589 C125 1.081 . S
C607 C29 0.814 . S
C609 C318 0.820 . S
C625 C177 2.127 . S
C627 C275 2.314 . S
C643 C209 1.817 . S
C645 C285 2.107 . S
C663 C315 2.510 . S
C661 C241 2.303 . S
C681 C335 2.416 . S
C679 C145 2.111 . S
C697 C49 2.031 . S
C699 C274 2.321 . S
C717 C284 2.107 . S
C715 C81 1.837 1_565 S
C735 C314 2.510 . S
C733 C113 2.166 . S
C751 C17 2.259 . S
C753 C334 2.416 . S
