# Generated by pormake.
# Topology anh, (6,3)-cn, num edge types: 1
# Building blocks:
#     Node 0, Type 0, BuildingBlock: MIFKUJ_clean_sbu_0, # of connection points: 6
#     Node 1, Type 0, BuildingBlock: MIFKUJ_clean_sbu_0, # of connection points: 6
#     Node 2, Type 0, BuildingBlock: MIFKUJ_clean_sbu_0, # of connection points: 6
#     Node 3, Type 1, BuildingBlock: INOVEN_clean_linker_0, # of connection points: 3
#     Node 4, Type 1, BuildingBlock: INOVEN_clean_linker_0, # of connection points: 3
#     Node 5, Type 1, BuildingBlock: INOVEN_clean_linker_0, # of connection points: 3
#     Node 6, Type 1, BuildingBlock: INOVEN_clean_linker_0, # of connection points: 3
#     Node 7, Type 1, BuildingBlock: INOVEN_clean_linker_0, # of connection points: 3
#     Node 8, Type 1, BuildingBlock: INOVEN_clean_linker_0, # of connection points: 3
#     Edge 9, Type (0, 1), BuildingBlock: CIFDUS_clean_linker_0, # of connection points: 2
#     Edge 10, Type (0, 1), BuildingBlock: CIFDUS_clean_linker_0, # of connection points: 2
#     Edge 11, Type (0, 1), BuildingBlock: CIFDUS_clean_linker_0, # of connection points: 2
#     Edge 12, Type (0, 1), BuildingBlock: CIFDUS_clean_linker_0, # of connection points: 2
#     Edge 13, Type (0, 1), BuildingBlock: CIFDUS_clean_linker_0, # of connection points: 2
#     Edge 14, Type (0, 1), BuildingBlock: CIFDUS_clean_linker_0, # of connection points: 2
#     Edge 15, Type (0, 1), BuildingBlock: CIFDUS_clean_linker_0, # of connection points: 2
#     Edge 16, Type (0, 1), BuildingBlock: CIFDUS_clean_linker_0, # of connection points: 2
#     Edge 17, Type (0, 1), BuildingBlock: CIFDUS_clean_linker_0, # of connection points: 2
#     Edge 18, Type (0, 1), BuildingBlock: CIFDUS_clean_linker_0, # of connection points: 2
#     Edge 19, Type (0, 1), BuildingBlock: CIFDUS_clean_linker_0, # of connection points: 2
#     Edge 20, Type (0, 1), BuildingBlock: CIFDUS_clean_linker_0, # of connection points: 2
#     Edge 21, Type (0, 1), BuildingBlock: CIFDUS_clean_linker_0, # of connection points: 2
#     Edge 22, Type (0, 1), BuildingBlock: CIFDUS_clean_linker_0, # of connection points: 2
#     Edge 23, Type (0, 1), BuildingBlock: CIFDUS_clean_linker_0, # of connection points: 2
#     Edge 24, Type (0, 1), BuildingBlock: CIFDUS_clean_linker_0, # of connection points: 2
#     Edge 25, Type (0, 1), BuildingBlock: CIFDUS_clean_linker_0, # of connection points: 2
#     Edge 26, Type (0, 1), BuildingBlock: CIFDUS_clean_linker_0, # of connection points: 2
# Relax obj value: 0.066
# Max RMSD: 0.135
# Mean RMSD: 0.094
data_MOF--net-anh--node1-MIFKUJ_clean_sbu_0--node2-INOVEN_clean_linker_0--edge1-CIFDUS_clean_linker_0
_symmetry_space_group_name_H-M    P1
_symmetry_Int_Tables_number       1
_symmetry_cell_setting            triclinic
loop_
_symmetry_equiv_pos_as_xyz
'x, y, z'
_cell_length_a     28.296911
_cell_length_b     28.069306
_cell_length_c     40.726713
_cell_angle_alpha  96.665179
_cell_angle_beta   93.013305
_cell_angle_gamma 120.16695
loop_
_atom_site_label
_atom_site_type_symbol
_atom_site_fract_x
_atom_site_fract_y
_atom_site_fract_z
_atom_type_partial_charge
Zn0 Zn 0.10064 0.63074 0.15492 0.0
Zn1 Zn 0.93194 0.51406 0.1621 0.0
C2 C 0.18053 0.59801 0.16284 0.0
O3 O 0.1969 0.6338 0.19074 0.0
C4 C 0.82408 0.48237 0.15307 0.0
O5 O 0.82907 0.44576 0.13267 0.0
O6 O 0.14689 0.7092 0.14452 0.0
O7 O 0.02433 0.58315 0.13423 0.0
O8 O 0.94141 0.52144 0.1133 0.0
C9 C 0.18014 0.71767 0.12295 0.0
O10 O 0.17713 0.67435 0.10453 0.0
O11 O 0.13915 0.58924 0.1437 0.0
C12 C 0.90715 0.41716 0.19401 0.0
O13 O 0.9362 0.45432 0.22068 0.0
O14 O 0.90493 0.43366 0.16655 0.0
O15 O 0.00249 0.56801 0.19528 0.0
O16 O 0.09167 0.63228 0.20344 0.0
O17 O 0.86711 0.52302 0.17064 0.0
C18 C 0.9897 0.55676 0.10858 0.0
C19 C 0.04675 0.60177 0.21501 0.0
Zn20 Zn 0.53841 0.08317 0.48315 0.0
Zn21 Zn 0.47663 0.91211 0.49061 0.0
C22 C 0.6467 0.17513 0.49021 0.0
O23 O 0.63034 0.18666 0.51807 0.0
C24 C 0.36496 0.86553 0.50877 0.0
O25 O 0.3747 0.91687 0.51128 0.0
O26 O 0.49574 0.12145 0.4757 0.0
O27 O 0.50313 0.00459 0.46319 0.0
O28 O 0.47086 0.91923 0.44111 0.0
C29 C 0.51055 0.15688 0.4559 0.0
O30 O 0.54726 0.16066 0.43627 0.0
O31 O 0.61428 0.12967 0.47065 0.0
C32 C 0.55643 0.89071 0.52331 0.0
O33 O 0.56137 0.92827 0.5479 0.0
O34 O 0.52439 0.87929 0.49684 0.0
O35 O 0.50739 0.98619 0.52351 0.0
O36 O 0.54331 0.078 0.53147 0.0
O37 O 0.40212 0.85536 0.50067 0.0
C38 C 0.48744 0.96899 0.43714 0.0
C39 C 0.52662 0.03264 0.54311 0.0
Zn40 Zn 0.59831 0.49979 0.82607 0.0
Zn41 Zn 0.52062 0.581 0.81893 0.0
C42 C 0.56243 0.3832 0.82924 0.0
O43 O 0.56653 0.39951 0.86135 0.0
C44 C 0.61796 0.70306 0.82857 0.0
O45 O 0.67128 0.73607 0.83745 0.0
O46 O 0.67854 0.52952 0.84293 0.0
O47 O 0.59417 0.53738 0.78709 0.0
O48 O 0.51233 0.52848 0.778 0.0
C49 C 0.71742 0.54673 0.82477 0.0
O50 O 0.70741 0.55158 0.79385 0.0
O51 O 0.57093 0.41781 0.80931 0.0
C52 C 0.4551 0.62988 0.83723 0.0
O53 O 0.49246 0.65267 0.86366 0.0
O54 O 0.45923 0.59846 0.81385 0.0
O55 O 0.51038 0.54701 0.8602 0.0
O56 O 0.55774 0.50384 0.86511 0.0
O57 O 0.59738 0.65051 0.82677 0.0
C58 C 0.54982 0.52023 0.76795 0.0
C59 C 0.52598 0.52004 0.87624 0.0
H60 H 0.49371 0.03728 0.15754 0.0
H61 H 0.42398 0.95436 0.2403 0.0
H62 H 0.59622 0.07534 0.25049 0.0
N63 N 0.59616 0.10345 0.18908 0.0
N64 N 0.64298 0.13037 0.20558 0.0
C65 C 0.49851 0.03062 0.18288 0.0
C66 C 0.45239 0.99225 0.19667 0.0
C67 C 0.55072 0.0614 0.20221 0.0
C68 C 0.55652 0.05215 0.23512 0.0
C69 C 0.5108 0.01378 0.24865 0.0
C70 C 0.45911 0.98437 0.22957 0.0
H71 H 0.56373 0.50093 0.48014 0.0
H72 H 0.55958 0.41871 0.56412 0.0
H73 H 0.60693 0.59112 0.58041 0.0
N74 N 0.5904 0.59836 0.51579 0.0
N75 N 0.60801 0.64395 0.53444 0.0
C76 C 0.57013 0.50214 0.50677 0.0
C77 C 0.56026 0.45372 0.51931 0.0
C78 C 0.58683 0.55186 0.52859 0.0
C79 C 0.5949 0.55331 0.56315 0.0
C80 C 0.58443 0.50525 0.57586 0.0
C81 C 0.56693 0.45559 0.554 0.0
H82 H 0.07009 0.6274 0.83607 0.0
H83 H 0.99546 0.61894 0.92673 0.0
H84 H 0.16083 0.65353 0.93149 0.0
N85 N 0.16852 0.65179 0.86618 0.0
N86 N 0.21564 0.68087 0.88219 0.0
C87 C 0.07234 0.63074 0.86293 0.0
C88 C 0.02574 0.62108 0.87886 0.0
C89 C 0.12195 0.64417 0.88192 0.0
C90 C 0.1241 0.64626 0.91676 0.0
C91 C 0.07788 0.63536 0.93244 0.0
C92 C 0.03001 0.62492 0.9137 0.0
H93 H 0.02524 0.58746 0.50298 0.0
H94 H 0.07659 0.66869 0.4176 0.0
H95 H 0.93906 0.5004 0.40502 0.0
N96 N 0.93986 0.49292 0.47054 0.0
N97 N 0.90652 0.44686 0.45312 0.0
C98 C 0.01967 0.58687 0.47637 0.0
C99 C 0.05557 0.63359 0.4625 0.0
C100 C 0.97687 0.53905 0.45584 0.0
C101 C 0.97104 0.53779 0.42109 0.0
C102 C 0.00714 0.58422 0.40697 0.0
C103 C 0.04845 0.63235 0.42806 0.0
H104 H 0.52976 0.04896 0.83104 0.0
H105 H 0.48655 0.08131 0.73635 0.0
H106 H 0.50002 0.93721 0.74019 0.0
N107 N 0.52379 0.95283 0.80658 0.0
N108 N 0.51187 0.90502 0.79329 0.0
C109 C 0.51758 0.03698 0.80435 0.0
C110 C 0.50963 0.07252 0.78573 0.0
C111 C 0.51195 0.98669 0.78818 0.0
C112 C 0.50026 0.9733 0.75316 0.0
C113 C 0.4934 0.00864 0.73451 0.0
C114 C 0.49478 0.0559 0.75108 0.0
H115 H 0.53099 0.5259 0.16375 0.0
H116 H 0.58339 0.48444 0.07327 0.0
H117 H 0.43515 0.49156 0.06907 0.0
N118 N 0.44212 0.52147 0.13527 0.0
N119 N 0.3977 0.51131 0.12026 0.0
C120 C 0.52442 0.51447 0.13684 0.0
C121 C 0.56126 0.5038 0.12051 0.0
C122 C 0.47848 0.50949 0.11844 0.0
C123 C 0.47034 0.49496 0.08343 0.0
C124 C 0.50812 0.4861 0.06677 0.0
C125 C 0.55312 0.49005 0.08567 0.0
H126 H 0.27219 0.60954 0.19659 0.0
H127 H 0.16048 0.52783 0.10495 0.0
H128 H 0.21711 0.49082 0.08491 0.0
H129 H 0.30171 0.48683 0.09171 0.0
H130 H 0.41413 0.56901 0.18255 0.0
H131 H 0.35388 0.60047 0.2048 0.0
C132 C 0.26 0.58326 0.17236 0.0
C133 C 0.21246 0.57188 0.15222 0.0
C134 C 0.29297 0.56236 0.16083 0.0
C135 C 0.19703 0.53749 0.12093 0.0
C136 C 0.2294 0.51632 0.10939 0.0
C137 C 0.3123 0.51104 0.11652 0.0
C138 C 0.36173 0.52569 0.1354 0.0
C139 C 0.27786 0.52926 0.12888 0.0
C140 C 0.37597 0.5572 0.16756 0.0
C141 C 0.34168 0.5753 0.18022 0.0
H142 H 0.72625 0.27325 0.52719 0.0
H143 H 0.68303 0.17325 0.42951 0.0
H144 H 0.76269 0.24864 0.41019 0.0
H145 H 0.84056 0.3459 0.41985 0.0
H146 H 0.88331 0.44573 0.51721 0.0
H147 H 0.80809 0.3676 0.53797 0.0
C148 C 0.73455 0.26769 0.50177 0.0
C149 C 0.69849 0.21786 0.47977 0.0
C150 C 0.78016 0.31135 0.49074 0.0
C151 C 0.71008 0.21119 0.44697 0.0
C152 C 0.7555 0.25437 0.43584 0.0
C153 C 0.83351 0.34992 0.44568 0.0
C154 C 0.86689 0.40102 0.46687 0.0
C155 C 0.79013 0.30498 0.45732 0.0
C156 C 0.85801 0.40658 0.5004 0.0
C157 C 0.81495 0.362 0.51224 0.0
H158 H 0.62684 0.79609 0.86275 0.0
H159 H 0.53671 0.66832 0.77685 0.0
H160 H 0.49051 0.71776 0.76063 0.0
H161 H 0.4836 0.80263 0.76783 0.0
H162 H 0.57669 0.93207 0.85245 0.0
H163 H 0.61371 0.87686 0.87256 0.0
C164 C 0.59641 0.77875 0.84076 0.0
C165 C 0.58451 0.72833 0.82119 0.0
C166 C 0.57097 0.808 0.83135 0.0
C167 C 0.5456 0.70647 0.79258 0.0
C168 C 0.51959 0.73497 0.78321 0.0
C169 C 0.51117 0.81796 0.79102 0.0
C170 C 0.52747 0.87105 0.80856 0.0
C171 C 0.53293 0.78639 0.80199 0.0
C172 C 0.56344 0.89122 0.83852 0.0
C173 C 0.5848 0.85975 0.8499 0.0
H174 H 0.79893 0.56273 0.1731 0.0
H175 H 0.72611 0.38726 0.13434 0.0
H176 H 0.63551 0.37681 0.12617 0.0
H177 H 0.57946 0.41968 0.12232 0.0
H178 H 0.65032 0.59522 0.15808 0.0
H179 H 0.73887 0.60357 0.17594 0.0
C180 C 0.76298 0.52212 0.16352 0.0
C181 C 0.76926 0.4761 0.15372 0.0
C182 C 0.71075 0.5165 0.15824 0.0
C183 C 0.72245 0.42357 0.14145 0.0
C184 C 0.67055 0.41744 0.13682 0.0
C185 C 0.61404 0.45936 0.13487 0.0
C186 C 0.60908 0.50678 0.13887 0.0
C187 C 0.66461 0.46393 0.14398 0.0
C188 C 0.65362 0.55819 0.15503 0.0
C189 C 0.70421 0.56298 0.16487 0.0
H190 H 0.26872 0.86567 0.5059 0.0
H191 H 0.33601 0.75918 0.51557 0.0
H192 H 0.24325 0.67757 0.50873 0.0
H193 H 0.14417 0.63506 0.49086 0.0
H194 H 0.0776 0.74033 0.47612 0.0
H195 H 0.16838 0.82386 0.49484 0.0
C196 C 0.26305 0.82477 0.50723 0.0
C197 C 0.30916 0.81838 0.51067 0.0
C198 C 0.20954 0.77772 0.50226 0.0
C199 C 0.30115 0.76511 0.51242 0.0
C200 C 0.24811 0.71837 0.50852 0.0
C201 C 0.14942 0.67639 0.49298 0.0
C202 C 0.10473 0.68202 0.4825 0.0
C203 C 0.20212 0.72392 0.50214 0.0
C204 C 0.1117 0.73547 0.48446 0.0
C205 C 0.1636 0.78305 0.49481 0.0
H206 H 0.52441 0.29227 0.86125 0.0
H207 H 0.58389 0.349 0.76957 0.0
H208 H 0.57737 0.2603 0.75001 0.0
H209 H 0.5563 0.16801 0.75878 0.0
H210 H 0.48762 0.10495 0.84721 0.0
H211 H 0.4988 0.19583 0.86891 0.0
C212 C 0.53566 0.28505 0.83692 0.0
C213 C 0.55452 0.3274 0.81688 0.0
C214 C 0.53103 0.23325 0.82549 0.0
C215 C 0.56884 0.31724 0.78542 0.0
C216 C 0.56546 0.26658 0.77428 0.0
C217 C 0.54247 0.17325 0.78254 0.0
C218 C 0.5199 0.12873 0.80091 0.0
C219 C 0.54665 0.22441 0.79407 0.0
C220 C 0.5051 0.13809 0.83242 0.0
C221 C 0.511 0.18998 0.84469 0.0
H222 H 0.54904 0.80683 0.47853 0.0
H223 H 0.61908 0.89635 0.57872 0.0
H224 H 0.64762 0.83002 0.58923 0.0
H225 H 0.64234 0.74018 0.57217 0.0
H226 H 0.5686 0.64877 0.47312 0.0
H227 H 0.55226 0.72244 0.45971 0.0
C228 C 0.57122 0.81236 0.50254 0.0
C229 C 0.58116 0.85603 0.52798 0.0
C230 C 0.58651 0.77348 0.50863 0.0
C231 C 0.61046 0.86285 0.5588 0.0
C232 C 0.62667 0.82486 0.56487 0.0
C233 C 0.62382 0.73735 0.54748 0.0
C234 C 0.60651 0.68953 0.52382 0.0
C235 C 0.61342 0.77913 0.54031 0.0
C236 C 0.58221 0.68536 0.4918 0.0
C237 C 0.57265 0.72732 0.4842 0.0
H238 H 0.81699 0.6069 0.8018 0.0
H239 H 0.73873 0.50203 0.87505 0.0
H240 H 0.82547 0.50968 0.89451 0.0
H241 H 0.92303 0.54695 0.89179 0.0
H242 H 0.00629 0.66162 0.82414 0.0
H243 H 0.91763 0.64683 0.80013 0.0
C244 C 0.81909 0.58589 0.82207 0.0
C245 C 0.7714 0.55422 0.83709 0.0
C246 C 0.86974 0.59142 0.83373 0.0
C247 C 0.77478 0.52723 0.86332 0.0
C248 C 0.82433 0.53121 0.87431 0.0
C249 C 0.92228 0.56953 0.87208 0.0
C250 C 0.97182 0.60643 0.86039 0.0
C251 C 0.87201 0.56345 0.85988 0.0
C252 C 0.96908 0.63298 0.83371 0.0
C253 C 0.9184 0.62505 0.82026 0.0
H254 H 0.20353 0.81576 0.1605 0.0
H255 H 0.26825 0.74609 0.08841 0.0
H256 H 0.35817 0.8317 0.10053 0.0
H257 H 0.42235 0.91872 0.13924 0.0
H258 H 0.35797 0.98644 0.21243 0.0
H259 H 0.26416 0.91022 0.19184 0.0
C260 C 0.2369 0.81976 0.14685 0.0
C261 C 0.2294 0.77396 0.1242 0.0
C262 C 0.28894 0.86883 0.15437 0.0
C263 C 0.27295 0.78029 0.10637 0.0
C264 C 0.32461 0.82927 0.11337 0.0
C265 C 0.38749 0.91778 0.14973 0.0
C266 C 0.39681 0.95764 0.17741 0.0
C267 C 0.33375 0.87278 0.13842 0.0
C268 C 0.35152 0.95589 0.19113 0.0
C269 C 0.29798 0.9121 0.17955 0.0
H270 H 0.55954 0.25499 0.43196 0.0
H271 H 0.43615 0.16233 0.49392 0.0
H272 H 0.43459 0.24628 0.51542 0.0
H273 H 0.47961 0.34842 0.52361 0.0
H274 H 0.60731 0.44203 0.4645 0.0
H275 H 0.59508 0.3552 0.43439 0.0
C276 C 0.53125 0.25273 0.44952 0.0
C277 C 0.49884 0.20271 0.46183 0.0
C278 C 0.53192 0.30159 0.46264 0.0
C279 C 0.4621 0.20049 0.48438 0.0
C280 C 0.46137 0.24856 0.49683 0.0
C281 C 0.50419 0.34966 0.5038 0.0
C282 C 0.54503 0.40145 0.4967 0.0
C283 C 0.49801 0.29978 0.48732 0.0
C284 C 0.57572 0.40262 0.47047 0.0
C285 C 0.56901 0.35301 0.45343 0.0
H286 H 0.44725 0.71219 0.87346 0.0
H287 H 0.35521 0.56562 0.7981 0.0
H288 H 0.27234 0.57185 0.80201 0.0
H289 H 0.22352 0.61291 0.83198 0.0
H290 H 0.31633 0.75772 0.90818 0.0
H291 H 0.40148 0.75893 0.89855 0.0
C292 C 0.40918 0.68189 0.85766 0.0
C293 C 0.40715 0.63794 0.83599 0.0
C294 C 0.36173 0.68548 0.86023 0.0
C295 C 0.3578 0.59969 0.81518 0.0
C296 C 0.31031 0.60311 0.81749 0.0
C297 C 0.26265 0.64547 0.84576 0.0
C298 C 0.26414 0.68557 0.87075 0.0
C299 C 0.31136 0.64496 0.84061 0.0
C300 C 0.31479 0.72693 0.88876 0.0
C301 C 0.36325 0.72733 0.88343 0.0
H302 H 0.81636 0.34048 0.15095 0.0
H303 H 0.90836 0.36285 0.24516 0.0
H304 H 0.83543 0.27189 0.25512 0.0
H305 H 0.74122 0.19081 0.23982 0.0
H306 H 0.6471 0.17143 0.14751 0.0
H307 H 0.72503 0.25629 0.13387 0.0
C308 C 0.82104 0.32504 0.17338 0.0
C309 C 0.86775 0.35855 0.19736 0.0
C310 C 0.77817 0.27353 0.17941 0.0
C311 C 0.87281 0.33801 0.22638 0.0
C312 C 0.83102 0.2861 0.23214 0.0
C313 C 0.73845 0.20499 0.21652 0.0
C314 C 0.68892 0.1754 0.19484 0.0
C315 C 0.78292 0.25431 0.20928 0.0
C316 C 0.68494 0.19369 0.16466 0.0
C317 C 0.72944 0.24223 0.15691 0.0
H318 H 0.07113 0.64736 0.08728 0.0
H319 H 0.94203 0.47627 0.05402 0.0
H320 H 0.96236 0.48448 -0.00319 0.0
H321 H 0.01155 0.5421 0.9558 0.0
H322 H 0.14004 0.71362 0.98756 0.0
H323 H 0.12658 0.70353 0.04612 0.0
C324 C 0.04857 0.61172 0.06755 0.0
C325 C 0.00536 0.56137 0.07471 0.0
C326 C 0.06023 0.61697 0.0346 0.0
C327 C 0.97517 0.51562 0.04896 0.0
C328 C 0.98684 0.52021 0.0163 0.0
C329 C 0.03698 0.57698 0.97569 0.0
C330 C 0.07629 0.62855 0.96778 0.0
C331 C 0.02842 0.57094 0.00879 0.0
C332 C 0.10956 0.67356 0.9934 0.0
C333 C 0.1016 0.66782 0.0267 0.0
H334 H 0.51604 0.92736 0.3836 0.0
H335 H 0.46856 0.04687 0.41671 0.0
H336 H 0.47537 0.0746 0.36156 0.0
H337 H 0.49092 0.06147 0.30305 0.0
H338 H 0.54003 0.94331 0.27006 0.0
H339 H 0.53711 0.91837 0.32603 0.0
C340 C 0.50724 0.95943 0.37859 0.0
C341 C 0.49193 0.9853 0.40393 0.0
C342 C 0.51179 0.97537 0.34697 0.0
C343 C 0.48116 0.02719 0.39753 0.0
C344 C 0.48477 0.04274 0.36602 0.0
C345 C 0.50174 0.03094 0.30848 0.0
C346 C 0.51594 0.00428 0.28302 0.0
C347 C 0.49975 0.0169 0.34051 0.0
C348 C 0.52947 0.96442 0.28972 0.0
C349 C 0.52745 0.95002 0.32152 0.0
H350 H 0.63622 0.55488 0.73211 0.0
H351 H 0.45892 0.45343 0.72269 0.0
H352 H 0.45456 0.43485 0.66208 0.0
H353 H 0.50078 0.45338 0.61157 0.0
H354 H 0.67691 0.56192 0.6208 0.0
H355 H 0.68254 0.57172 0.68175 0.0
C356 C 0.59671 0.52813 0.7168 0.0
C357 C 0.54792 0.50554 0.73174 0.0
C358 C 0.59444 0.5192 0.68198 0.0
C359 C 0.49696 0.47148 0.71163 0.0
C360 C 0.49446 0.46086 0.67704 0.0
C361 C 0.54032 0.4784 0.62709 0.0
C362 C 0.58845 0.50657 0.61216 0.0
C363 C 0.54283 0.48532 0.66193 0.0
C364 C 0.63954 0.53977 0.63211 0.0
C365 C 0.64266 0.54543 0.66681 0.0
H366 H 0.46956 0.94691 0.57756 0.0
H367 H 0.58884 0.12372 0.59045 0.0
H368 H 0.58906 0.13085 0.65051 0.0
H369 H 0.55432 0.08835 0.69906 0.0
H370 H 0.43352 0.91264 0.68805 0.0
H371 H 0.43537 0.90336 0.62746 0.0
C372 C 0.49591 0.98681 0.5936 0.0
C373 C 0.52897 0.03475 0.57956 0.0
C374 C 0.49536 0.99089 0.62832 0.0
C375 C 0.56272 0.08626 0.60059 0.0
C376 C 0.56291 0.09045 0.63495 0.0
C377 C 0.52776 0.04808 0.68339 0.0
C378 C 0.49304 0.00147 0.69784 0.0
C379 C 0.52894 0.04329 0.64898 0.0
C380 C 0.46033 0.9492 0.67738 0.0
C381 C 0.46138 0.94395 0.64282 0.0
H382 H 0.53551 0.45145 0.91493 0.0
H383 H 0.48138 0.57042 0.91387 0.0
H384 H 0.46622 0.56632 0.97199 0.0
H385 H 0.47778 0.537 0.0245 0.0
H386 H 0.52901 0.41592 0.02578 0.0
H387 H 0.53604 0.41313 0.96617 0.0
C388 C 0.51988 0.47605 0.92731 0.0
C389 C 0.51045 0.51178 0.91015 0.0
C390 C 0.51123 0.47363 0.96086 0.0
C391 C 0.48937 0.54275 0.92646 0.0
C392 C 0.48079 0.54061 0.95978 0.0
C393 C 0.48907 0.50883 0.01167 0.0
C394 C 0.50363 0.47738 0.02977 0.0
C395 C 0.49285 0.50725 0.97743 0.0
C396 C 0.51878 0.4416 0.01263 0.0
C397 C 0.52264 0.4398 0.97851 0.0
H398 H 0.95877 0.55916 0.25033 0.0
H399 H 0.13678 0.6486 0.26171 0.0
H400 H 0.13968 0.64989 0.3216 0.0
H401 H 0.09247 0.62448 0.37051 0.0
H402 H 0.91481 0.53795 0.3607 0.0
H403 H 0.91102 0.5351 0.30026 0.0
C404 C -0.00186 0.57877 0.26593 0.0
C405 C 0.04743 0.60357 0.25148 0.0
C406 C -0.00035 0.57947 0.30056 0.0
C407 C 0.09816 0.62938 0.27211 0.0
C408 C 0.09994 0.62998 0.30639 0.0
C409 C 0.05283 0.60575 0.35531 0.0
C410 C 0.00404 0.58194 0.37021 0.0
C411 C 0.05102 0.60515 0.32084 0.0
C412 C 0.95304 0.55631 0.34988 0.0
C413 C 0.95085 0.55498 0.31534 0.0
loop_
_geom_bond_atom_site_label_1
_geom_bond_atom_site_label_2
_geom_bond_distance
_geom_bond_site_symmetry_2
_ccdc_geom_bond_type
Zn0 O6 1.969 . S
Zn0 O7 1.965 . S
Zn0 O11 2.024 . S
Zn0 O16 1.969 . S
Zn1 O8 1.969 . S
Zn1 O14 1.969 . S
Zn1 O15 1.965 . S
Zn1 O17 2.024 . S
C2 O3 1.229 . S
C2 O11 1.058 . S
O3 C2 1.229 . S
C4 O5 1.229 . S
C4 O17 1.058 . S
O5 C4 1.229 . S
O6 Zn0 1.969 . S
O6 C9 1.267 . S
O7 Zn0 1.965 . S
O7 C18 1.260 . S
O8 Zn1 1.969 . S
O8 C18 1.258 1_655 S
C9 O6 1.267 . S
C9 O10 1.228 . S
O10 C9 1.228 . S
O11 Zn0 2.024 . S
O11 C2 1.058 . S
C12 O13 1.228 . S
C12 O14 1.267 . S
O13 C12 1.228 . S
O14 Zn1 1.969 . S
O14 C12 1.267 . S
O15 Zn1 1.965 . S
O15 C19 1.260 1_655 S
O16 Zn0 1.969 . S
O16 C19 1.258 . S
O17 Zn1 2.024 . S
O17 C4 1.058 . S
C18 O7 1.260 . S
C18 O8 1.258 1_455 S
C19 O15 1.260 1_455 S
C19 O16 1.258 . S
Zn20 O26 1.969 . S
Zn20 O27 1.965 . S
Zn20 O31 2.024 . S
Zn20 O36 1.969 . S
Zn21 O28 1.969 . S
Zn21 O34 1.969 . S
Zn21 O35 1.965 1_565 S
Zn21 O37 2.024 . S
C22 O23 1.229 . S
C22 O31 1.058 . S
O23 C22 1.229 . S
C24 O25 1.229 . S
C24 O37 1.058 . S
O25 C24 1.229 . S
O26 Zn20 1.969 . S
O26 C29 1.267 . S
O27 Zn20 1.965 . S
O27 C38 1.260 . S
O28 Zn21 1.969 . S
O28 C38 1.258 1_565 S
C29 O26 1.267 . S
C29 O30 1.228 . S
O30 C29 1.228 . S
O31 Zn20 2.024 . S
O31 C22 1.058 . S
C32 O33 1.228 . S
C32 O34 1.267 . S
O33 C32 1.228 . S
O34 Zn21 1.969 . S
O34 C32 1.267 . S
O35 Zn21 1.965 1_545 S
O35 C39 1.260 . S
O36 Zn20 1.969 . S
O36 C39 1.258 . S
O37 Zn21 2.024 . S
O37 C24 1.058 . S
C38 O27 1.260 . S
C38 O28 1.258 1_545 S
C39 O35 1.260 . S
C39 O36 1.258 . S
Zn40 O46 1.969 . S
Zn40 O47 1.965 . S
Zn40 O51 2.024 . S
Zn40 O56 1.969 . S
Zn41 O48 1.969 . S
Zn41 O54 1.969 . S
Zn41 O55 1.965 . S
Zn41 O57 2.024 . S
C42 O43 1.229 . S
C42 O51 1.058 . S
O43 C42 1.229 . S
C44 O45 1.229 . S
C44 O57 1.058 . S
O45 C44 1.229 . S
O46 Zn40 1.969 . S
O46 C49 1.267 . S
O47 Zn40 1.965 . S
O47 C58 1.260 . S
O48 Zn41 1.969 . S
O48 C58 1.258 . S
C49 O46 1.267 . S
C49 O50 1.228 . S
O50 C49 1.228 . S
O51 Zn40 2.024 . S
O51 C42 1.058 . S
C52 O53 1.228 . S
C52 O54 1.267 . S
O53 C52 1.228 . S
O54 Zn41 1.969 . S
O54 C52 1.267 . S
O55 Zn41 1.965 . S
O55 C59 1.260 . S
O56 Zn40 1.969 . S
O56 C59 1.258 . S
O57 Zn41 2.024 . S
O57 C44 1.058 . S
C58 O47 1.260 . S
C58 O48 1.258 . S
C59 O55 1.260 . S
C59 O56 1.258 . S
H60 C65 0.929 . S
H61 C70 0.931 . S
H62 C68 0.930 . S
N63 N64 1.234 . S
N63 C67 1.453 . S
N64 N63 1.234 . S
C65 H60 0.929 . S
C65 C66 1.373 1_545 S
C65 C67 1.368 . S
C66 C65 1.373 1_565 S
C66 C70 1.397 . S
C67 N63 1.453 . S
C67 C65 1.368 . S
C67 C68 1.373 . S
C68 H62 0.930 . S
C68 C67 1.373 . S
C68 C69 1.371 . S
C69 C68 1.371 . S
C69 C70 1.383 1_545 S
C70 H61 0.931 . S
C70 C66 1.397 . S
C70 C69 1.383 1_565 S
H71 C76 0.929 . S
H72 C81 0.931 . S
H73 C79 0.930 . S
N74 N75 1.234 . S
N74 C78 1.453 . S
N75 N74 1.234 . S
C76 H71 0.929 . S
C76 C77 1.373 . S
C76 C78 1.368 . S
C77 C76 1.373 . S
C77 C81 1.397 . S
C78 N74 1.453 . S
C78 C76 1.368 . S
C78 C79 1.373 . S
C79 H73 0.930 . S
C79 C78 1.373 . S
C79 C80 1.371 . S
C80 C79 1.371 . S
C80 C81 1.383 . S
C81 H72 0.931 . S
C81 C77 1.397 . S
C81 C80 1.383 . S
H82 C87 0.929 . S
H83 C92 0.931 . S
H84 C90 0.930 . S
N85 N86 1.234 . S
N85 C89 1.453 . S
N86 N85 1.234 . S
C87 H82 0.929 . S
C87 C88 1.373 1_455 S
C87 C89 1.368 . S
C88 C87 1.373 1_655 S
C88 C92 1.397 . S
C89 N85 1.453 . S
C89 C87 1.368 . S
C89 C90 1.373 . S
C90 H84 0.930 . S
C90 C89 1.373 . S
C90 C91 1.371 . S
C91 C90 1.371 . S
C91 C92 1.383 1_455 S
C92 H83 0.931 . S
C92 C88 1.397 . S
C92 C91 1.383 1_655 S
H93 C98 0.929 . S
H94 C103 0.931 . S
H95 C101 0.930 1_655 S
N96 N97 1.234 . S
N96 C100 1.453 1_655 S
N97 N96 1.234 . S
C98 H93 0.929 . S
C98 C99 1.373 . S
C98 C100 1.368 . S
C99 C98 1.373 . S
C99 C103 1.397 . S
C100 N96 1.453 1_455 S
C100 C98 1.368 . S
C100 C101 1.373 . S
C101 H95 0.930 1_455 S
C101 C100 1.373 . S
C101 C102 1.371 . S
C102 C101 1.371 . S
C102 C103 1.383 . S
C103 H94 0.931 . S
C103 C99 1.397 . S
C103 C102 1.383 . S
H104 C109 0.929 . S
H105 C114 0.931 . S
H106 C112 0.930 1_565 S
N107 N108 1.234 . S
N107 C111 1.453 1_565 S
N108 N107 1.234 . S
C109 H104 0.929 . S
C109 C110 1.373 . S
C109 C111 1.368 . S
C110 C109 1.373 . S
C110 C114 1.397 . S
C111 N107 1.453 1_545 S
C111 C109 1.368 . S
C111 C112 1.373 . S
C112 H106 0.930 1_545 S
C112 C111 1.373 . S
C112 C113 1.371 . S
C113 C112 1.371 . S
C113 C114 1.383 . S
C114 H105 0.931 . S
C114 C110 1.397 . S
C114 C113 1.383 . S
H115 C120 0.929 . S
H116 C125 0.931 . S
H117 C123 0.930 . S
N118 N119 1.234 . S
N118 C122 1.453 . S
N119 N118 1.234 . S
C120 H115 0.929 . S
C120 C121 1.373 . S
C120 C122 1.368 . S
C121 C120 1.373 . S
C121 C125 1.397 . S
C122 N118 1.453 . S
C122 C120 1.368 . S
C122 C123 1.373 . S
C123 H117 0.930 . S
C123 C122 1.373 . S
C123 C124 1.371 . S
C124 C123 1.371 . S
C124 C125 1.383 . S
C125 H116 0.931 . S
C125 C121 1.397 . S
C125 C124 1.383 . S
H126 C132 0.930 . S
H127 C135 0.930 . S
H128 C136 0.930 . S
H129 C137 0.930 . S
H130 C140 0.930 . S
H131 C141 0.930 . S
C132 H126 0.930 . S
C132 C133 1.355 . S
C132 C134 1.415 . S
C133 C132 1.355 . S
C133 C135 1.419 . S
C134 C132 1.415 . S
C134 C139 1.425 . S
C134 C141 1.409 . S
C135 H127 0.930 . S
C135 C133 1.419 . S
C135 C136 1.362 . S
C136 H128 0.930 . S
C136 C135 1.362 . S
C136 C139 1.409 . S
C137 H129 0.930 . S
C137 C138 1.355 . S
C137 C139 1.415 . S
C138 C137 1.355 . S
C138 C140 1.419 . S
C139 C134 1.425 . S
C139 C136 1.409 . S
C139 C137 1.415 . S
C140 H130 0.930 . S
C140 C138 1.419 . S
C140 C141 1.362 . S
C141 H131 0.930 . S
C141 C134 1.409 . S
C141 C140 1.362 . S
H142 C148 0.930 . S
H143 C151 0.930 . S
H144 C152 0.930 . S
H145 C153 0.930 . S
H146 C156 0.930 . S
H147 C157 0.930 . S
C148 H142 0.930 . S
C148 C149 1.355 . S
C148 C150 1.415 . S
C149 C148 1.355 . S
C149 C151 1.419 . S
C150 C148 1.415 . S
C150 C155 1.425 . S
C150 C157 1.409 . S
C151 H143 0.930 . S
C151 C149 1.419 . S
C151 C152 1.362 . S
C152 H144 0.930 . S
C152 C151 1.362 . S
C152 C155 1.409 . S
C153 H145 0.930 . S
C153 C154 1.355 . S
C153 C155 1.415 . S
C154 C153 1.355 . S
C154 C156 1.419 . S
C155 C150 1.425 . S
C155 C152 1.409 . S
C155 C153 1.415 . S
C156 H146 0.930 . S
C156 C154 1.419 . S
C156 C157 1.362 . S
C157 H147 0.930 . S
C157 C150 1.409 . S
C157 C156 1.362 . S
H158 C164 0.930 . S
H159 C167 0.930 . S
H160 C168 0.930 . S
H161 C169 0.930 . S
H162 C172 0.930 . S
H163 C173 0.930 . S
C164 H158 0.930 . S
C164 C165 1.355 . S
C164 C166 1.415 . S
C165 C164 1.355 . S
C165 C167 1.419 . S
C166 C164 1.415 . S
C166 C171 1.425 . S
C166 C173 1.409 . S
C167 H159 0.930 . S
C167 C165 1.419 . S
C167 C168 1.362 . S
C168 H160 0.930 . S
C168 C167 1.362 . S
C168 C171 1.409 . S
C169 H161 0.930 . S
C169 C170 1.355 . S
C169 C171 1.415 . S
C170 C169 1.355 . S
C170 C172 1.419 . S
C171 C166 1.425 . S
C171 C168 1.409 . S
C171 C169 1.415 . S
C172 H162 0.930 . S
C172 C170 1.419 . S
C172 C173 1.362 . S
C173 H163 0.930 . S
C173 C166 1.409 . S
C173 C172 1.362 . S
H174 C180 0.930 . S
H175 C183 0.930 . S
H176 C184 0.930 . S
H177 C185 0.930 . S
H178 C188 0.930 . S
H179 C189 0.930 . S
C180 H174 0.930 . S
C180 C181 1.355 . S
C180 C182 1.415 . S
C181 C180 1.355 . S
C181 C183 1.419 . S
C182 C180 1.415 . S
C182 C187 1.425 . S
C182 C189 1.409 . S
C183 H175 0.930 . S
C183 C181 1.419 . S
C183 C184 1.362 . S
C184 H176 0.930 . S
C184 C183 1.362 . S
C184 C187 1.409 . S
C185 H177 0.930 . S
C185 C186 1.355 . S
C185 C187 1.415 . S
C186 C185 1.355 . S
C186 C188 1.419 . S
C187 C182 1.425 . S
C187 C184 1.409 . S
C187 C185 1.415 . S
C188 H178 0.930 . S
C188 C186 1.419 . S
C188 C189 1.362 . S
C189 H179 0.930 . S
C189 C182 1.409 . S
C189 C188 1.362 . S
H190 C196 0.930 . S
H191 C199 0.930 . S
H192 C200 0.930 . S
H193 C201 0.930 . S
H194 C204 0.930 . S
H195 C205 0.930 . S
C196 H190 0.930 . S
C196 C197 1.355 . S
C196 C198 1.415 . S
C197 C196 1.355 . S
C197 C199 1.419 . S
C198 C196 1.415 . S
C198 C203 1.425 . S
C198 C205 1.409 . S
C199 H191 0.930 . S
C199 C197 1.419 . S
C199 C200 1.362 . S
C200 H192 0.930 . S
C200 C199 1.362 . S
C200 C203 1.409 . S
C201 H193 0.930 . S
C201 C202 1.355 . S
C201 C203 1.415 . S
C202 C201 1.355 . S
C202 C204 1.419 . S
C203 C198 1.425 . S
C203 C200 1.409 . S
C203 C201 1.415 . S
C204 H194 0.930 . S
C204 C202 1.419 . S
C204 C205 1.362 . S
C205 H195 0.930 . S
C205 C198 1.409 . S
C205 C204 1.362 . S
H206 C212 0.930 . S
H207 C215 0.930 . S
H208 C216 0.930 . S
H209 C217 0.930 . S
H210 C220 0.930 . S
H211 C221 0.930 . S
C212 H206 0.930 . S
C212 C213 1.355 . S
C212 C214 1.415 . S
C213 C212 1.355 . S
C213 C215 1.419 . S
C214 C212 1.415 . S
C214 C219 1.425 . S
C214 C221 1.409 . S
C215 H207 0.930 . S
C215 C213 1.419 . S
C215 C216 1.362 . S
C216 H208 0.930 . S
C216 C215 1.362 . S
C216 C219 1.409 . S
C217 H209 0.930 . S
C217 C218 1.355 . S
C217 C219 1.415 . S
C218 C217 1.355 . S
C218 C220 1.419 . S
C219 C214 1.425 . S
C219 C216 1.409 . S
C219 C217 1.415 . S
C220 H210 0.930 . S
C220 C218 1.419 . S
C220 C221 1.362 . S
C221 H211 0.930 . S
C221 C214 1.409 . S
C221 C220 1.362 . S
H222 C228 0.930 . S
H223 C231 0.930 . S
H224 C232 0.930 . S
H225 C233 0.930 . S
H226 C236 0.930 . S
H227 C237 0.930 . S
C228 H222 0.930 . S
C228 C229 1.355 . S
C228 C230 1.415 . S
C229 C228 1.355 . S
C229 C231 1.419 . S
C230 C228 1.415 . S
C230 C235 1.425 . S
C230 C237 1.409 . S
C231 H223 0.930 . S
C231 C229 1.419 . S
C231 C232 1.362 . S
C232 H224 0.930 . S
C232 C231 1.362 . S
C232 C235 1.409 . S
C233 H225 0.930 . S
C233 C234 1.355 . S
C233 C235 1.415 . S
C234 C233 1.355 . S
C234 C236 1.419 . S
C235 C230 1.425 . S
C235 C232 1.409 . S
C235 C233 1.415 . S
C236 H226 0.930 . S
C236 C234 1.419 . S
C236 C237 1.362 . S
C237 H227 0.930 . S
C237 C230 1.409 . S
C237 C236 1.362 . S
H238 C244 0.930 . S
H239 C247 0.930 . S
H240 C248 0.930 . S
H241 C249 0.930 . S
H242 C252 0.930 . S
H243 C253 0.930 . S
C244 H238 0.930 . S
C244 C245 1.355 . S
C244 C246 1.415 . S
C245 C244 1.355 . S
C245 C247 1.419 . S
C246 C244 1.415 . S
C246 C251 1.425 . S
C246 C253 1.409 . S
C247 H239 0.930 . S
C247 C245 1.419 . S
C247 C248 1.362 . S
C248 H240 0.930 . S
C248 C247 1.362 . S
C248 C251 1.409 . S
C249 H241 0.930 . S
C249 C250 1.355 . S
C249 C251 1.415 . S
C250 C249 1.355 . S
C250 C252 1.419 . S
C251 C246 1.425 . S
C251 C248 1.409 . S
C251 C249 1.415 . S
C252 H242 0.930 . S
C252 C250 1.419 . S
C252 C253 1.362 . S
C253 H243 0.930 . S
C253 C246 1.409 . S
C253 C252 1.362 . S
H254 C260 0.930 . S
H255 C263 0.930 . S
H256 C264 0.930 . S
H257 C265 0.930 . S
H258 C268 0.928 1_545 S
H259 C269 0.930 . S
C260 H254 0.930 . S
C260 C261 1.355 . S
C260 C262 1.415 . S
C261 C260 1.355 . S
C261 C263 1.419 . S
C262 C260 1.415 . S
C262 C267 1.425 . S
C262 C269 1.409 . S
C263 H255 0.930 . S
C263 C261 1.419 . S
C263 C264 1.362 . S
C264 H256 0.930 . S
C264 C263 1.362 . S
C264 C267 1.409 . S
C265 H257 0.930 . S
C265 C266 1.355 . S
C265 C267 1.415 . S
C266 C265 1.355 . S
C266 C268 1.419 . S
C267 C262 1.425 . S
C267 C264 1.409 . S
C267 C265 1.415 . S
C268 H258 0.928 1_565 S
C268 C266 1.419 . S
C268 C269 1.362 . S
C269 H259 0.930 . S
C269 C262 1.409 . S
C269 C268 1.362 . S
H270 C276 0.930 . S
H271 C279 0.930 . S
H272 C280 0.930 . S
H273 C281 0.930 . S
H274 C284 0.930 . S
H275 C285 0.930 . S
C276 H270 0.930 . S
C276 C277 1.355 . S
C276 C278 1.415 . S
C277 C276 1.355 . S
C277 C279 1.419 . S
C278 C276 1.415 . S
C278 C283 1.425 . S
C278 C285 1.409 . S
C279 H271 0.930 . S
C279 C277 1.419 . S
C279 C280 1.362 . S
C280 H272 0.930 . S
C280 C279 1.362 . S
C280 C283 1.409 . S
C281 H273 0.930 . S
C281 C282 1.355 . S
C281 C283 1.415 . S
C282 C281 1.355 . S
C282 C284 1.419 . S
C283 C278 1.425 . S
C283 C280 1.409 . S
C283 C281 1.415 . S
C284 H274 0.930 . S
C284 C282 1.419 . S
C284 C285 1.362 . S
C285 H275 0.930 . S
C285 C278 1.409 . S
C285 C284 1.362 . S
H286 C292 0.930 . S
H287 C295 0.930 . S
H288 C296 0.930 . S
H289 C297 0.930 . S
H290 C300 0.930 . S
H291 C301 0.930 . S
C292 H286 0.930 . S
C292 C293 1.355 . S
C292 C294 1.415 . S
C293 C292 1.355 . S
C293 C295 1.419 . S
C294 C292 1.415 . S
C294 C299 1.425 . S
C294 C301 1.409 . S
C295 H287 0.930 . S
C295 C293 1.419 . S
C295 C296 1.362 . S
C296 H288 0.930 . S
C296 C295 1.362 . S
C296 C299 1.409 . S
C297 H289 0.930 . S
C297 C298 1.355 . S
C297 C299 1.415 . S
C298 C297 1.355 . S
C298 C300 1.419 . S
C299 C294 1.425 . S
C299 C296 1.409 . S
C299 C297 1.415 . S
C300 H290 0.930 . S
C300 C298 1.419 . S
C300 C301 1.362 . S
C301 H291 0.930 . S
C301 C294 1.409 . S
C301 C300 1.362 . S
H302 C308 0.930 . S
H303 C311 0.930 . S
H304 C312 0.930 . S
H305 C313 0.930 . S
H306 C316 0.930 . S
H307 C317 0.930 . S
C308 H302 0.930 . S
C308 C309 1.355 . S
C308 C310 1.415 . S
C309 C308 1.355 . S
C309 C311 1.419 . S
C310 C308 1.415 . S
C310 C315 1.425 . S
C310 C317 1.409 . S
C311 H303 0.930 . S
C311 C309 1.419 . S
C311 C312 1.362 . S
C312 H304 0.930 . S
C312 C311 1.362 . S
C312 C315 1.409 . S
C313 H305 0.930 . S
C313 C314 1.355 . S
C313 C315 1.415 . S
C314 C313 1.355 . S
C314 C316 1.419 . S
C315 C310 1.425 . S
C315 C312 1.409 . S
C315 C313 1.415 . S
C316 H306 0.930 . S
C316 C314 1.419 . S
C316 C317 1.362 . S
C317 H307 0.930 . S
C317 C310 1.409 . S
C317 C316 1.362 . S
H318 C324 0.930 . S
H319 C327 0.930 . S
H320 C328 0.930 . S
H321 C329 0.925 1_655 S
H322 C332 0.930 . S
H323 C333 0.930 . S
C324 H318 0.930 . S
C324 C325 1.355 . S
C324 C326 1.415 . S
C325 C324 1.355 . S
C325 C327 1.419 1_455 S
C326 C324 1.415 . S
C326 C331 1.425 . S
C326 C333 1.409 . S
C327 H319 0.930 . S
C327 C325 1.419 1_655 S
C327 C328 1.362 . S
C328 H320 0.930 . S
C328 C327 1.362 . S
C328 C331 1.409 1_655 S
C329 H321 0.925 1_455 S
C329 C330 1.360 . S
C329 C331 1.414 1_556 S
C330 C329 1.360 . S
C330 C332 1.419 . S
C331 C326 1.425 . S
C331 C328 1.409 1_455 S
C331 C329 1.414 1_554 S
C332 H322 0.930 . S
C332 C330 1.419 . S
C332 C333 1.362 1_556 S
C333 H323 0.930 . S
C333 C326 1.409 . S
C333 C332 1.362 1_554 S
H334 C340 0.930 . S
H335 C343 0.930 . S
H336 C344 0.930 . S
H337 C345 0.930 . S
H338 C348 0.930 . S
H339 C349 0.930 . S
C340 H334 0.930 . S
C340 C341 1.355 . S
C340 C342 1.415 . S
C341 C340 1.355 . S
C341 C343 1.419 . S
C342 C340 1.415 . S
C342 C347 1.425 . S
C342 C349 1.409 . S
C343 H335 0.930 . S
C343 C341 1.419 . S
C343 C344 1.362 . S
C344 H336 0.930 . S
C344 C343 1.362 . S
C344 C347 1.409 . S
C345 H337 0.930 . S
C345 C346 1.355 . S
C345 C347 1.415 . S
C346 C345 1.355 . S
C346 C348 1.419 . S
C347 C342 1.425 . S
C347 C344 1.409 . S
C347 C345 1.415 . S
C348 H338 0.930 . S
C348 C346 1.419 . S
C348 C349 1.362 . S
C349 H339 0.930 . S
C349 C342 1.409 . S
C349 C348 1.362 . S
H350 C356 0.930 . S
H351 C359 0.930 . S
H352 C360 0.930 . S
H353 C361 0.930 . S
H354 C364 0.930 . S
H355 C365 0.930 . S
C356 H350 0.930 . S
C356 C357 1.355 . S
C356 C358 1.415 . S
C357 C356 1.355 . S
C357 C359 1.419 . S
C358 C356 1.415 . S
C358 C363 1.425 . S
C358 C365 1.409 . S
C359 H351 0.930 . S
C359 C357 1.419 . S
C359 C360 1.362 . S
C360 H352 0.930 . S
C360 C359 1.362 . S
C360 C363 1.409 . S
C361 H353 0.930 . S
C361 C362 1.355 . S
C361 C363 1.415 . S
C362 C361 1.355 . S
C362 C364 1.419 . S
C363 C358 1.425 . S
C363 C360 1.409 . S
C363 C361 1.415 . S
C364 H354 0.930 . S
C364 C362 1.419 . S
C364 C365 1.362 . S
C365 H355 0.930 . S
C365 C358 1.409 . S
C365 C364 1.362 . S
H366 C372 0.930 . S
H367 C375 0.930 . S
H368 C376 0.930 . S
H369 C377 0.930 . S
H370 C380 0.930 1_565 S
H371 C381 0.930 1_565 S
C372 H366 0.930 . S
C372 C373 1.355 . S
C372 C374 1.415 . S
C373 C372 1.355 . S
C373 C375 1.419 . S
C374 C372 1.415 . S
C374 C379 1.425 . S
C374 C381 1.412 . S
C375 H367 0.930 . S
C375 C373 1.419 . S
C375 C376 1.362 . S
C376 H368 0.930 . S
C376 C375 1.362 . S
C376 C379 1.409 . S
C377 H369 0.930 . S
C377 C378 1.355 . S
C377 C379 1.415 . S
C378 C377 1.355 . S
C378 C380 1.419 . S
C379 C374 1.425 . S
C379 C376 1.409 . S
C379 C377 1.415 . S
C380 H370 0.930 1_545 S
C380 C378 1.419 . S
C380 C381 1.360 . S
C381 H371 0.930 1_545 S
C381 C374 1.412 . S
C381 C380 1.360 . S
H382 C388 0.930 . S
H383 C391 0.930 . S
H384 C392 0.930 . S
H385 C393 0.930 . S
H386 C396 0.930 . S
H387 C397 0.930 1_556 S
C388 H382 0.930 . S
C388 C389 1.355 . S
C388 C390 1.415 . S
C389 C388 1.355 . S
C389 C391 1.419 . S
C390 C388 1.415 . S
C390 C395 1.425 . S
C390 C397 1.409 1_556 S
C391 H383 0.930 . S
C391 C389 1.419 . S
C391 C392 1.362 . S
C392 H384 0.930 . S
C392 C391 1.362 . S
C392 C395 1.409 . S
C393 H385 0.930 . S
C393 C394 1.355 . S
C393 C395 1.415 1_554 S
C394 C393 1.355 . S
C394 C396 1.419 . S
C395 C390 1.425 . S
C395 C392 1.409 . S
C395 C393 1.415 1_556 S
C396 H386 0.930 . S
C396 C394 1.419 . S
C396 C397 1.362 . S
C397 H387 0.930 1_554 S
C397 C390 1.409 1_554 S
C397 C396 1.362 . S
H398 C404 0.930 . S
H399 C407 0.930 . S
H400 C408 0.930 . S
H401 C409 0.930 . S
H402 C412 0.930 . S
H403 C413 0.930 . S
C404 H398 0.930 . S
C404 C405 1.355 1_655 S
C404 C406 1.412 1_655 S
C405 C404 1.355 1_455 S
C405 C407 1.419 . S
C406 C404 1.412 1_455 S
C406 C411 1.440 . S
C406 C413 1.398 1_455 S
C407 H399 0.930 . S
C407 C405 1.419 . S
C407 C408 1.362 . S
C408 H400 0.930 . S
C408 C407 1.362 . S
C408 C411 1.409 . S
C409 H401 0.930 . S
C409 C410 1.355 . S
C409 C411 1.415 . S
C410 C409 1.355 . S
C410 C412 1.419 1_455 S
C411 C406 1.440 . S
C411 C408 1.409 . S
C411 C409 1.415 . S
C412 H402 0.930 . S
C412 C410 1.419 1_655 S
C412 C413 1.362 . S
C413 H403 0.930 . S
C413 C406 1.398 1_655 S
C413 C412 1.362 . S
C133 C2 1.470 . S
C138 N119 1.541 . S
C149 C22 1.419 . S
C154 N97 1.511 . S
C165 C44 1.438 . S
C170 N108 1.504 . S
C181 C4 1.397 . S
C186 C121 1.552 . S
C202 C99 1.509 . S
C197 C24 1.417 . S
C218 C110 1.521 . S
C213 C42 1.376 . S
C229 C32 1.379 . S
C234 N75 1.385 . S
C245 C49 1.182 . S
C250 C88 1.240 . S
C261 C9 1.135 . S
C266 C66 1.200 . S
C282 C77 1.258 . S
C277 C29 1.199 . S
C298 N86 1.301 . S
C293 C52 1.348 . S
C309 C12 1.310 . S
C314 N64 1.363 . S
C330 C91 1.497 . S
C325 C18 1.476 . S
C341 C38 1.460 . S
C346 C69 1.466 . S
C357 C58 1.468 . S
C362 C80 1.495 . S
C378 C113 1.515 . S
C373 C39 1.478 . S
C394 C124 1.500 . S
C389 C59 1.520 . S
C405 C19 1.474 . S
C410 C102 1.535 . S
