# Generated by pormake.
# Topology nom, (4,4)-cn, num edge types: 1
# Building blocks:
#     Node 0, Type 0, BuildingBlock: KUFVIS_clean_linker_0, # of connection points: 4
#     Node 1, Type 0, BuildingBlock: KUFVIS_clean_linker_0, # of connection points: 4
#     Node 2, Type 0, BuildingBlock: KUFVIS_clean_linker_0, # of connection points: 4
#     Node 3, Type 0, BuildingBlock: KUFVIS_clean_linker_0, # of connection points: 4
#     Node 4, Type 0, BuildingBlock: KUFVIS_clean_linker_0, # of connection points: 4
#     Node 5, Type 0, BuildingBlock: KUFVIS_clean_linker_0, # of connection points: 4
#     Node 6, Type 1, BuildingBlock: CEKHIL_clean_sbu_0, # of connection points: 4
#     Node 7, Type 1, BuildingBlock: CEKHIL_clean_sbu_0, # of connection points: 4
#     Node 8, Type 1, BuildingBlock: CEKHIL_clean_sbu_0, # of connection points: 4
#     Node 9, Type 1, BuildingBlock: CEKHIL_clean_sbu_0, # of connection points: 4
#     Node 10, Type 1, BuildingBlock: CEKHIL_clean_sbu_0, # of connection points: 4
#     Node 11, Type 1, BuildingBlock: CEKHIL_clean_sbu_0, # of connection points: 4
#     Edge 12, Type (0, 1), BuildingBlock: XIVTED_clean_linker_0, # of connection points: 2
#     Edge 13, Type (0, 1), BuildingBlock: XIVTED_clean_linker_0, # of connection points: 2
#     Edge 14, Type (0, 1), BuildingBlock: XIVTED_clean_linker_0, # of connection points: 2
#     Edge 15, Type (0, 1), BuildingBlock: XIVTED_clean_linker_0, # of connection points: 2
#     Edge 16, Type (0, 1), BuildingBlock: XIVTED_clean_linker_0, # of connection points: 2
#     Edge 17, Type (0, 1), BuildingBlock: XIVTED_clean_linker_0, # of connection points: 2
#     Edge 18, Type (0, 1), BuildingBlock: XIVTED_clean_linker_0, # of connection points: 2
#     Edge 19, Type (0, 1), BuildingBlock: XIVTED_clean_linker_0, # of connection points: 2
#     Edge 20, Type (0, 1), BuildingBlock: XIVTED_clean_linker_0, # of connection points: 2
#     Edge 21, Type (0, 1), BuildingBlock: XIVTED_clean_linker_0, # of connection points: 2
#     Edge 22, Type (0, 1), BuildingBlock: XIVTED_clean_linker_0, # of connection points: 2
#     Edge 23, Type (0, 1), BuildingBlock: XIVTED_clean_linker_0, # of connection points: 2
#     Edge 24, Type (0, 1), BuildingBlock: XIVTED_clean_linker_0, # of connection points: 2
#     Edge 25, Type (0, 1), BuildingBlock: XIVTED_clean_linker_0, # of connection points: 2
#     Edge 26, Type (0, 1), BuildingBlock: XIVTED_clean_linker_0, # of connection points: 2
#     Edge 27, Type (0, 1), BuildingBlock: XIVTED_clean_linker_0, # of connection points: 2
#     Edge 28, Type (0, 1), BuildingBlock: XIVTED_clean_linker_0, # of connection points: 2
#     Edge 29, Type (0, 1), BuildingBlock: XIVTED_clean_linker_0, # of connection points: 2
#     Edge 30, Type (0, 1), BuildingBlock: XIVTED_clean_linker_0, # of connection points: 2
#     Edge 31, Type (0, 1), BuildingBlock: XIVTED_clean_linker_0, # of connection points: 2
#     Edge 32, Type (0, 1), BuildingBlock: XIVTED_clean_linker_0, # of connection points: 2
#     Edge 33, Type (0, 1), BuildingBlock: XIVTED_clean_linker_0, # of connection points: 2
#     Edge 34, Type (0, 1), BuildingBlock: XIVTED_clean_linker_0, # of connection points: 2
#     Edge 35, Type (0, 1), BuildingBlock: XIVTED_clean_linker_0, # of connection points: 2
# Relax obj value: 0.004
# Max RMSD: 0.050
# Mean RMSD: 0.042
data_MOF--net-nom--node1-CEKHIL_clean_sbu_0--node2-KUFVIS_clean_linker_0--edge1-XIVTED_clean_linker_0
_symmetry_space_group_name_H-M    P1
_symmetry_Int_Tables_number       1
_symmetry_cell_setting            triclinic
loop_
_symmetry_equiv_pos_as_xyz
'x, y, z'
_cell_length_a     46.237829
_cell_length_b     45.717205
_cell_length_c     46.629355
_cell_angle_alpha  89.978887
_cell_angle_beta   89.984312
_cell_angle_gamma 121.26076
loop_
_atom_site_label
_atom_site_type_symbol
_atom_site_fract_x
_atom_site_fract_y
_atom_site_fract_z
_atom_type_partial_charge
H0 H 0.1357 0.60002 0.35778 0.0
H1 H 0.0678 0.59346 0.29254 0.0
H2 H 0.03226 0.55995 0.37972 0.0
H3 H 0.98762 0.56046 0.36811 0.0
H4 H 0.91555 0.53003 0.30047 0.0
H5 H 0.01644 0.55706 0.27996 0.0
C6 C 0.11022 0.59238 0.35115 0.0
C7 C 0.08461 0.5801 0.37166 0.0
C8 C 0.10416 0.59662 0.3226 0.0
C9 C 0.07147 0.58856 0.3145 0.0
C10 C 0.04416 0.57418 0.33454 0.0
C11 C 0.05166 0.57061 0.36341 0.0
C12 C 1.00825 0.5625 0.32527 0.0
C13 C 0.98249 0.55646 0.34541 0.0
C14 C 0.94913 0.54456 0.33633 0.0
C15 C 0.94153 0.54008 0.30718 0.0
C16 C 0.96579 0.5449 0.28689 0.0
C17 C 0.99878 0.55543 0.29597 0.0
H18 H 0.52574 0.12667 0.51052 0.0
H19 H 0.49046 0.05239 0.44377 0.0
H20 H 0.49061 0.02289 0.53251 0.0
H21 H 0.45413 0.97131 0.52017 0.0
H22 H 0.44195 0.90035 0.45489 0.0
H23 H 0.48623 1.00535 0.43238 0.0
C24 C 0.514 0.10006 0.50411 0.0
C25 C 0.50669 0.07511 0.52478 0.0
C26 C 0.50928 0.09198 0.47506 0.0
C27 C 0.49469 0.05768 0.46643 0.0
C28 C 0.48676 0.03132 0.48688 0.0
C29 C 0.49394 0.0411 0.51615 0.0
C30 C 0.47306 0.99445 0.47787 0.0
C31 C 0.45809 0.96705 0.49812 0.0
C32 C 0.44811 0.9334 0.49005 0.0
C33 C 0.45107 0.92653 0.46144 0.0
C34 C 0.46388 0.95224 0.44078 0.0
C35 C 0.47528 0.98607 0.44892 0.0
H36 H 0.54369 0.42285 0.62049 0.0
H37 H 0.4842 0.43187 0.68603 0.0
H38 H 0.48521 0.46766 0.59932 0.0
H39 H 0.43896 0.46586 0.61112 0.0
H40 H 0.40263 0.50139 0.67868 0.0
H41 H 0.47439 0.47212 0.69851 0.0
C42 C 0.52669 0.43131 0.62715 0.0
C43 C 0.51493 0.44509 0.60686 0.0
C44 C 0.51611 0.42699 0.65563 0.0
C45 C 0.4929 0.43655 0.66404 0.0
C46 C 0.48151 0.45219 0.6442 0.0
C47 C 0.49274 0.45584 0.61534 0.0
C48 C 0.45884 0.46528 0.65364 0.0
C49 C 0.439 0.47113 0.63371 0.0
C50 C 0.41895 0.4843 0.64285 0.0
C51 C 0.41744 0.49038 0.67192 0.0
C52 C 0.4371 0.48573 0.69198 0.0
C53 C 0.45812 0.4738 0.68279 0.0
H54 H 0.13471 0.50323 0.79897 0.0
H55 H 0.06534 0.47294 0.86901 0.0
H56 H 0.0322 0.47443 0.78224 0.0
H57 H 0.98209 0.43066 0.79854 0.0
H58 H 0.91695 0.42804 0.86523 0.0
H59 H 0.02333 0.4806 0.88031 0.0
C60 C 0.10904 0.49306 0.80659 0.0
C61 C 0.08381 0.48791 0.78717 0.0
C62 C 0.10271 0.48865 0.83599 0.0
C63 C 0.06981 0.47691 0.84618 0.0
C64 C 0.04324 0.47041 0.82696 0.0
C65 C 0.0511 0.47698 0.79739 0.0
C66 C 1.0079 0.45816 0.8376 0.0
C67 C 0.97917 0.43837 0.81975 0.0
C68 C 0.94622 0.42713 0.82974 0.0
C69 C 0.94215 0.4363 0.85736 0.0
C70 C 0.96962 0.45468 0.87566 0.0
C71 C 1.00241 0.46574 0.86586 0.0
H72 H 0.52253 0.90988 0.01759 0.0
H73 H 0.55798 0.97849 0.94628 0.0
H74 H 0.56423 0.01661 0.03287 0.0
H75 H 0.60749 0.06507 0.01554 0.0
H76 H 0.61586 0.1318 0.94731 0.0
H77 H 0.55697 0.02399 0.93398 0.0
C78 C 0.53487 0.93589 0.00941 0.0
C79 C 0.54476 0.96293 0.02849 0.0
C80 C 0.53844 0.9413 0.97989 0.0
C81 C 0.55438 0.97491 0.96919 0.0
C82 C 0.56449 1.00315 0.988 0.0
C83 C 0.55867 0.99635 0.01782 0.0
C84 C 0.57948 0.03916 0.97666 0.0
C85 C 0.60052 0.06818 0.99411 0.0
C86 C 0.61387 0.10168 0.98354 0.0
C87 C 0.60586 0.10613 0.95563 0.0
C88 C 0.58622 0.07834 0.93772 0.0
C89 C 0.57288 0.04499 0.94817 0.0
H90 H 0.51258 0.61648 0.1168 0.0
H91 H 0.57497 0.61221 0.18269 0.0
H92 H 0.56022 0.55914 0.10175 0.0
H93 H 0.61055 0.56665 0.1116 0.0
H94 H 0.64728 0.53298 0.18035 0.0
H95 H 0.57842 0.56676 0.19903 0.0
C96 C 0.52845 0.60711 0.12456 0.0
C97 C 0.5352 0.58715 0.10646 0.0
C98 C 0.54285 0.61662 0.15184 0.0
C99 C 0.56345 0.60431 0.16172 0.0
C100 C 0.57025 0.58321 0.14392 0.0
C101 C 0.55591 0.57512 0.11606 0.0
C102 C 0.59236 0.56994 0.15407 0.0
C103 C 0.61113 0.56242 0.13436 0.0
C104 C 0.63085 0.5491 0.14396 0.0
C105 C 0.63283 0.54425 0.17323 0.0
C106 C 0.61422 0.5507 0.19315 0.0
C107 C 0.59376 0.56319 0.18354 0.0
Co108 Co 0.65017 0.38879 0.39629 0.0
O109 O 0.68754 0.39326 0.37385 0.0
O110 O 0.69219 0.42969 0.40728 0.0
C111 C 0.62679 0.33226 0.4065 0.0
O112 O 0.61914 0.39301 0.42497 0.0
Co113 Co 0.57466 0.34036 0.37991 0.0
O114 O 0.56449 0.35341 0.41737 0.0
C115 C 0.61492 0.40769 0.35104 0.0
C116 C 0.707 0.42083 0.38851 0.0
C117 C 0.5876 0.37827 0.43172 0.0
O118 O 0.64082 0.41555 0.36692 0.0
O119 O 0.5875 0.3784 0.35185 0.0
O120 O 0.65238 0.35542 0.42117 0.0
O121 O 0.61774 0.34361 0.38509 0.0
Co122 Co 0.28129 0.64021 0.57888 0.0
O123 O 0.31425 0.63537 0.60069 0.0
O124 O 0.27926 0.598 0.5688 0.0
C125 C 0.31683 0.69594 0.5667 0.0
O126 O 0.24521 0.63612 0.55109 0.0
Co127 Co 0.25876 0.69138 0.59507 0.0
O128 O 0.23372 0.67763 0.55832 0.0
C129 C 0.22919 0.62508 0.62573 0.0
C130 C 0.30385 0.60693 0.58687 0.0
C131 C 0.22961 0.65174 0.54446 0.0
O132 O 0.2456 0.61571 0.60957 0.0
O133 O 0.23287 0.65481 0.62439 0.0
O134 O 0.31703 0.67158 0.55251 0.0
O135 O 0.29723 0.6862 0.58884 0.0
Co136 Co 0.65963 0.27874 0.7304 0.0
O137 O 0.65951 0.31428 0.70799 0.0
O138 O 0.61921 0.2803 0.73834 0.0
C139 C 0.71429 0.31086 0.74506 0.0
O140 O 0.65066 0.24048 0.75821 0.0
Co141 Co 0.70695 0.25096 0.71726 0.0
O142 O 0.68863 0.22425 0.75311 0.0
C143 C 0.64373 0.22565 0.68386 0.0
C144 C 0.63096 0.30565 0.72033 0.0
C145 C 0.66313 0.22213 0.76564 0.0
O146 O 0.63541 0.2438 0.69897 0.0
O147 O 0.67193 0.22699 0.68674 0.0
O148 O 0.69054 0.31279 0.75822 0.0
O149 O 0.70486 0.29176 0.72253 0.0
Co150 Co 0.40099 0.64466 0.89801 0.0
O151 O 0.36377 0.6411 0.87606 0.0
O152 O 0.35903 0.60316 0.90806 0.0
C153 C 0.42393 0.70058 0.91005 0.0
O154 O 0.43195 0.63932 0.92592 0.0
Co155 Co 0.47641 0.69413 0.88201 0.0
O156 O 0.4866 0.6791 0.91846 0.0
C157 C 0.43653 0.62813 0.85127 0.0
C158 C 0.34431 0.61284 0.88991 0.0
C159 C 0.46352 0.65371 0.9324 0.0
O160 O 0.41065 0.61942 0.86744 0.0
O161 O 0.46383 0.65748 0.8526 0.0
O162 O 0.39841 0.67663 0.92428 0.0
O163 O 0.43321 0.69037 0.88801 0.0
Co164 Co 0.76864 0.39356 0.07755 0.0
O165 O 0.7338 0.3967 0.09785 0.0
O166 O 0.7704 0.43572 0.06773 0.0
C167 C 0.73504 0.33822 0.06366 0.0
O168 O 0.80687 0.39955 0.05154 0.0
Co169 Co 0.7912 0.34258 0.09451 0.0
O170 O 0.81906 0.35861 0.05918 0.0
C171 C 0.81813 0.40784 0.12634 0.0
C172 C 0.74469 0.42569 0.08479 0.0
C173 C 0.82353 0.38484 0.04563 0.0
O174 O 0.80214 0.41736 0.10982 0.0
O175 O 0.81504 0.37838 0.1247 0.0
O176 O 0.73535 0.36274 0.04927 0.0
O177 O 0.75285 0.34746 0.08681 0.0
Co178 Co 0.39234 0.75633 0.22894 0.0
O179 O 0.39784 0.72612 0.20341 0.0
O180 O 0.43339 0.75659 0.23813 0.0
C181 C 0.33686 0.71959 0.23959 0.0
O182 O 0.39591 0.78959 0.25988 0.0
Co183 Co 0.34236 0.78119 0.21641 0.0
O184 O 0.35617 0.80345 0.25446 0.0
C185 C 0.40878 0.81408 0.1868 0.0
C186 C 0.42541 0.73467 0.21746 0.0
C187 C 0.38114 0.80557 0.26796 0.0
O188 O 0.41758 0.79584 0.20121 0.0
O189 O 0.37935 0.81023 0.18854 0.0
O190 O 0.36049 0.71739 0.25265 0.0
O191 O 0.34715 0.7417 0.21904 0.0
H192 H 0.12947 0.65268 0.28668 0.0
H193 H 0.30699 0.66422 0.27531 0.0
H194 H 0.1459 0.57224 0.31363 0.0
H195 H 0.28466 0.72872 0.22417 0.0
H196 H 0.24781 0.63134 0.29035 0.0
H197 H 0.18515 0.68131 0.26284 0.0
C198 C 0.14437 0.64061 0.28691 0.0
C199 C 0.1332 0.61019 0.3023 0.0
C200 C 0.25573 0.65256 0.27569 0.0
C201 C 0.19704 0.64309 0.27594 0.0
C202 C 0.28961 0.67147 0.26723 0.0
C203 C 0.30084 0.69932 0.24852 0.0
C204 C 0.23281 0.66178 0.26576 0.0
C205 C 0.27708 0.70742 0.23864 0.0
C206 C 0.17625 0.65708 0.27356 0.0
C207 C 0.15371 0.59585 0.30223 0.0
N208 N 0.24425 0.68895 0.24757 0.0
N209 N 0.18471 0.61261 0.28969 0.0
H210 H 0.47805 0.12056 0.44635 0.0
H211 H 0.64965 0.29932 0.43996 0.0
H212 H 0.57512 0.13147 0.4609 0.0
H213 H 0.56401 0.28097 0.38895 0.0
H214 H 0.62078 0.23805 0.45063 0.0
H215 H 0.50689 0.17879 0.426 0.0
C216 C 0.50534 0.13474 0.44419 0.0
C217 C 0.52429 0.12111 0.45474 0.0
C218 C 0.60835 0.24739 0.43698 0.0
C219 C 0.55738 0.18799 0.43311 0.0
C220 C 0.62472 0.28241 0.43108 0.0
C221 C 0.6092 0.29529 0.41359 0.0
C222 C 0.57589 0.22506 0.4258 0.0
C223 C 0.5769 0.2721 0.40252 0.0
C224 C 0.5218 0.16805 0.43295 0.0
C225 C 0.55966 0.14093 0.45248 0.0
N226 N 0.56115 0.23815 0.40903 0.0
N227 N 0.57507 0.17351 0.44237 0.0
H228 H 0.44924 0.54462 0.61442 0.0
H229 H 0.27754 0.5386 0.57586 0.0
H230 H 0.3518 0.45429 0.62946 0.0
H231 H 0.36774 0.62906 0.6061 0.0
H232 H 0.30572 0.50582 0.58263 0.0
H233 H 0.421 0.57401 0.59653 0.0
C234 C 0.4219 0.53051 0.61269 0.0
C235 C 0.40279 0.49681 0.62287 0.0
C236 C 0.31929 0.53288 0.58761 0.0
C237 C 0.37032 0.53049 0.6033 0.0
C238 C 0.30328 0.55158 0.58378 0.0
C239 C 0.32023 0.58655 0.59068 0.0
C240 C 0.35279 0.54951 0.59764 0.0
C241 C 0.3536 0.6021 0.60081 0.0
C242 C 0.4058 0.54744 0.60299 0.0
C243 C 0.36737 0.48005 0.62122 0.0
N244 N 0.36881 0.58355 0.60383 0.0
N245 N 0.35221 0.4971 0.61179 0.0
H246 H 0.93215 0.43471 0.77341 0.0
H247 H 0.73591 0.32864 0.80033 0.0
H248 H 0.88868 0.36966 0.84752 0.0
H249 H 0.77226 0.33024 0.71482 0.0
H250 H 0.79392 0.35398 0.81834 0.0
H251 H 0.87574 0.40471 0.75056 0.0
C252 C 0.91101 0.41374 0.78459 0.0
C253 C 0.91502 0.40511 0.81262 0.0
C254 C 0.78914 0.34878 0.79562 0.0
C255 C 0.85077 0.37182 0.7872 0.0
C256 C 0.75614 0.33454 0.78535 0.0
C257 C 0.74932 0.32727 0.7561 0.0
C258 C 0.81566 0.35664 0.77644 0.0
C259 C 0.77651 0.33532 0.73759 0.0
C260 C 0.87888 0.39688 0.77168 0.0
C261 C 0.88665 0.37777 0.82618 0.0
N262 N 0.80863 0.34992 0.748 0.0
N263 N 0.85571 0.36267 0.81365 0.0
H264 H 0.56777 0.91622 0.94378 0.0
H265 H 0.40183 0.73044 0.94781 0.0
H266 H 0.47155 0.89551 0.97583 0.0
H267 H 0.48426 0.75421 0.89025 0.0
H268 H 0.42909 0.79109 0.95988 0.0
H269 H 0.5395 0.85781 0.92374 0.0
C270 C 0.54059 0.89972 0.94579 0.0
C271 C 0.52185 0.91058 0.96128 0.0
C272 C 0.44122 0.78312 0.94451 0.0
C273 C 0.4897 0.8438 0.93956 0.0
C274 C 0.42574 0.74842 0.93778 0.0
C275 C 0.4408 0.73722 0.91804 0.0
C276 C 0.4723 0.80691 0.93176 0.0
C277 C 0.47177 0.76176 0.90558 0.0
C278 C 0.52452 0.86635 0.93466 0.0
C279 C 0.48681 0.88806 0.9639 0.0
N280 N 0.48664 0.79545 0.91279 0.0
N281 N 0.47199 0.85568 0.95354 0.0
H282 H 0.59969 0.48773 0.11705 0.0
H283 H 0.77089 0.49421 0.07477 0.0
H284 H 0.69762 0.5783 0.12955 0.0
H285 H 0.68045 0.40289 0.1036 0.0
H286 H 0.74275 0.5268 0.08266 0.0
H287 H 0.62728 0.45806 0.09829 0.0
C288 C 0.62697 0.50176 0.11469 0.0
C289 C 0.64643 0.53565 0.12431 0.0
C290 C 0.72909 0.49959 0.08706 0.0
C291 C 0.6782 0.50171 0.1037 0.0
C292 C 0.74508 0.48099 0.08258 0.0
C293 C 0.72807 0.44582 0.08877 0.0
C294 C 0.69559 0.48273 0.09714 0.0
C295 C 0.69464 0.43 0.09882 0.0
C296 C 0.64271 0.4847 0.10445 0.0
C297 C 0.68177 0.55237 0.12178 0.0
N298 N 0.67947 0.4485 0.10257 0.0
N299 N 0.69658 0.5352 0.11184 0.0
H300 H 0.39189 0.90898 0.52473 0.0
H301 H 0.37035 0.72514 0.52967 0.0
H302 H 0.47033 0.88984 0.49977 0.0
H303 H 0.31108 0.74991 0.58472 0.0
H304 H 0.4053 0.78554 0.51656 0.0
H305 H 0.36079 0.85174 0.54694 0.0
C306 C 0.40303 0.89318 0.52474 0.0
C307 C 0.43363 0.90404 0.51034 0.0
C308 C 0.38475 0.77784 0.53162 0.0
C309 C 0.39787 0.83844 0.53462 0.0
C310 C 0.36464 0.74329 0.53894 0.0
C311 C 0.33773 0.73245 0.55826 0.0
C312 C 0.37764 0.80181 0.54331 0.0
C313 C 0.33161 0.7572 0.56974 0.0
C314 C 0.38516 0.86042 0.53711 0.0
C315 C 0.44671 0.88233 0.51053 0.0
N316 N 0.35122 0.79069 0.5619 0.0
N317 N 0.42856 0.85046 0.52198 0.0
H318 H 0.48367 0.36463 0.68307 0.0
H319 H 0.65666 0.36769 0.69426 0.0
H320 H 0.58174 0.45522 0.67087 0.0
H321 H 0.5655 0.28715 0.73378 0.0
H322 H 0.62823 0.39916 0.68505 0.0
H323 H 0.51135 0.33532 0.70305 0.0
C324 C 0.51091 0.37869 0.6856 0.0
C325 C 0.53049 0.41243 0.67553 0.0
C326 C 0.61439 0.37469 0.69589 0.0
C327 C 0.5623 0.37888 0.69715 0.0
C328 C 0.63059 0.35657 0.70098 0.0
C329 C 0.61343 0.32464 0.71471 0.0
C330 C 0.58046 0.3607 0.70415 0.0
C331 C 0.57968 0.31168 0.7231 0.0
C332 C 0.52673 0.36188 0.69666 0.0
C333 C 0.56576 0.42926 0.67857 0.0
N334 N 0.56417 0.32959 0.71745 0.0
N335 N 0.5805 0.41221 0.68867 0.0
H336 H 0.13056 0.54501 0.87 0.0
H337 H 0.30516 0.63694 0.86983 0.0
H338 H 0.14391 0.46276 0.84278 0.0
H339 H 0.29865 0.54503 0.90143 0.0
H340 H 0.24363 0.60532 0.86404 0.0
H341 H 0.18903 0.57597 0.88784 0.0
C342 C 0.14542 0.53292 0.86882 0.0
C343 C 0.13242 0.50123 0.85515 0.0
C344 C 0.25559 0.59217 0.87265 0.0
C345 C 0.19949 0.53688 0.87443 0.0
C346 C 0.29075 0.61009 0.8756 0.0
C347 C 0.30705 0.59359 0.88612 0.0
C348 C 0.2365 0.55726 0.87979 0.0
C349 C 0.28706 0.55874 0.89333 0.0
C350 C 0.17893 0.55085 0.87846 0.0
C351 C 0.153 0.48702 0.85348 0.0
N352 N 0.25284 0.54157 0.8896 0.0
N353 N 0.18562 0.50503 0.86283 0.0
H354 H 0.60575 0.11811 0.03886 0.0
H355 H 0.71957 0.31526 0.00843 0.0
H356 H 0.67324 0.15735 0.96623 0.0
H357 H 0.71171 0.27995 0.09547 0.0
H358 H 0.69311 0.25589 0.99177 0.0
H359 H 0.63698 0.17568 0.06066 0.0
C360 C 0.62753 0.13853 0.02785 0.0
C361 C 0.63656 0.13306 0.00048 0.0
C362 C 0.69719 0.26121 0.01452 0.0
C363 C 0.67127 0.19869 0.02463 0.0
C364 C 0.71204 0.29498 0.02402 0.0
C365 C 0.71786 0.30245 0.05332 0.0
C366 C 0.68729 0.23463 0.03451 0.0
C367 C 0.70777 0.27518 0.07265 0.0
C368 C 0.6451 0.17134 0.04014 0.0
C369 C 0.66492 0.16056 0.98707 0.0
N370 N 0.69262 0.24235 0.06295 0.0
N371 N 0.68074 0.19224 -0.00106 0.0
H372 H 0.51542 0.6087 0.20611 0.0
H373 H 0.43507 0.71536 0.16484 0.0
H374 H 0.55326 0.67784 0.13409 0.0
H375 H 0.46355 0.72043 0.25355 0.0
H376 H 0.46993 0.69099 0.15284 0.0
H377 H 0.49004 0.64081 0.22532 0.0
C378 C 0.51932 0.6312 0.19486 0.0
C379 C 0.53622 0.64047 0.16836 0.0
C380 C 0.46857 0.69752 0.17493 0.0
C381 C 0.50632 0.67607 0.18943 0.0
C382 C 0.4486 0.71125 0.18179 0.0
C383 C 0.44659 0.72007 0.21017 0.0
C384 C 0.48585 0.69151 0.1967 0.0
C385 C 0.4647 0.7142 0.23135 0.0
C386 C 0.50461 0.64926 0.20566 0.0
C387 C 0.54012 0.6696 0.15444 0.0
N388 N 0.48328 0.69982 0.22427 0.0
N389 N 0.52459 0.68577 0.16472 0.0
H390 H 0.91524 0.57599 0.35332 0.0
H391 H 0.74622 0.39796 0.36598 0.0
H392 H 0.91462 0.48182 0.36061 0.0
H393 H 0.75287 0.48763 0.40313 0.0
H394 H 0.80785 0.42963 0.36083 0.0
H395 H 0.85643 0.54629 0.37065 0.0
C396 C 0.90317 0.54944 0.35981 0.0
C397 C 0.91999 0.53147 0.35622 0.0
C398 C 0.79587 0.44235 0.37027 0.0
C399 C 0.85231 0.49692 0.37424 0.0
C400 C 0.76065 0.42438 0.37297 0.0
C401 C 0.74434 0.44021 0.38489 0.0
C402 C 0.81503 0.47673 0.37894 0.0
C403 C 0.76443 0.47445 0.39381 0.0
C404 C 0.86951 0.53239 0.3693 0.0
C405 C 0.90278 0.49672 0.36376 0.0
N406 N 0.7987 0.49173 0.39032 0.0
N407 N 0.86971 0.48042 0.37184 0.0
H408 H 0.11249 0.54555 0.39453 0.0
H409 H 0.18761 0.67402 0.52688 0.0
H410 H 0.08131 0.61666 0.41635 0.0
H411 H 0.21319 0.59752 0.50857 0.0
H412 H 0.14518 0.65023 0.48898 0.0
H413 H 0.14413 0.55927 0.43951 0.0
C414 C 0.11147 0.56325 0.40934 0.0
C415 C 0.09427 0.57996 0.40188 0.0
C416 C 0.15995 0.63853 0.49332 0.0
C417 C 0.1314 0.59683 0.45283 0.0
C418 C 0.18443 0.65227 0.51488 0.0
C419 C 0.20435 0.63799 0.52087 0.0
C420 C 0.15534 0.61036 0.47741 0.0
C421 C 0.19868 0.60958 0.50466 0.0
C422 C 0.12982 0.57139 0.43485 0.0
C423 C 0.09402 0.60302 0.42151 0.0
N424 N 0.17486 0.59685 0.48361 0.0
N425 N 0.11283 0.61123 0.4459 0.0
H426 H 0.54773 0.06394 0.55928 0.0
H427 H 0.58289 0.2168 0.66536 0.0
H428 H 0.49062 0.11427 0.55737 0.0
H429 H 0.64781 0.17543 0.65598 0.0
H430 H 0.5428 0.17323 0.6318 0.0
H431 H 0.57705 0.09666 0.60225 0.0
C432 C 0.5406 0.08107 0.56848 0.0
C433 C 0.51699 0.08668 0.55471 0.0
C434 C 0.5658 0.17371 0.63726 0.0
C435 C 0.55106 0.12498 0.6032 0.0
C436 C 0.58876 0.19866 0.65629 0.0
C437 C 0.61906 0.20019 0.66326 0.0
C438 C 0.57308 0.14998 0.62533 0.0
C439 C 0.6251 0.17572 0.65102 0.0
C440 C 0.55765 0.10012 0.59276 0.0
C441 C 0.50896 0.10951 0.5673 0.0
N442 N 0.60242 0.15179 0.63268 0.0
N443 N 0.52633 0.12824 0.59059 0.0
H444 H 0.49261 0.53042 0.72337 0.0
H445 H 0.38237 0.56519 0.8354 0.0
H446 H 0.3837 0.46994 0.72721 0.0
H447 H 0.48955 0.63298 0.82117 0.0
H448 H 0.383 0.52446 0.80157 0.0
H449 H 0.49275 0.56137 0.76625 0.0
C450 C 0.4688 0.52297 0.73378 0.0
C451 C 0.4381 0.49783 0.72167 0.0
C452 C 0.40637 0.54822 0.80602 0.0
C453 C 0.43791 0.53368 0.77014 0.0
C454 C 0.406 0.57153 0.82525 0.0
C455 C 0.43583 0.60283 0.83091 0.0
C456 C 0.43683 0.55615 0.79255 0.0
C457 C 0.46578 0.60946 0.81725 0.0
C458 C 0.46882 0.54092 0.75802 0.0
C459 C 0.4079 0.48944 0.7358 0.0
N460 N 0.46546 0.58643 0.79871 0.0
N461 N 0.40851 0.50764 0.75906 0.0
H462 H 0.94071 0.48949 0.89578 0.0
H463 H 0.86935 0.36626 0.03119 0.0
H464 H 0.97801 0.42499 0.92285 0.0
H465 H 0.83922 0.43844 0.00918 0.0
H466 H 0.91331 0.39163 0.99456 0.0
H467 H 0.90956 0.47752 0.94094 0.0
C468 C 0.94338 0.4739 0.91183 0.0
C469 C 0.96201 0.45831 0.90577 0.0
C470 C 0.89725 0.40209 -0.00216 0.0
C471 C 0.92528 0.44317 0.95684 0.0
C472 C 0.87189 0.38742 0.01865 0.0
C473 C 0.85017 0.39992 0.02315 0.0
C474 C 0.90091 0.42939 0.98114 0.0
C475 C 0.85511 0.42771 0.00639 0.0
C476 C 0.92524 0.46666 0.93743 0.0
C477 C 0.96418 0.43776 0.92692 0.0
N478 N 0.87976 0.4413 0.98601 0.0
N479 N 0.94546 0.43022 0.95131 0.0
H480 H 0.56611 0.93041 0.06365 0.0
H481 H 0.40403 0.86568 0.16221 0.0
H482 H 0.50199 0.97289 0.06159 0.0
H483 H 0.47097 0.82641 0.16852 0.0
H484 H 0.44398 0.9102 0.13002 0.0
H485 H 0.5376 0.89913 0.1074 0.0
C486 C 0.54679 0.93405 0.07309 0.0
C487 C 0.53628 0.95415 0.05909 0.0
C488 C 0.45013 0.89204 0.13854 0.0
C489 C 0.50272 0.91757 0.10845 0.0
C490 C 0.42716 0.86634 0.15684 0.0
C491 C 0.43381 0.84177 0.16782 0.0
C492 C 0.48004 0.89324 0.1308 0.0
C493 C 0.46458 0.84454 0.1604 0.0
C494 C 0.53027 0.91593 0.09786 0.0
C495 C 0.51094 0.95781 0.07188 0.0
N496 N 0.48638 0.86958 0.14209 0.0
N497 N 0.49455 0.93914 0.09557 0.0
H498 H 0.55905 0.50812 0.22584 0.0
H499 H 0.66957 0.47042 0.33508 0.0
H500 H 0.66807 0.56676 0.22788 0.0
H501 H 0.56172 0.4049 0.32296 0.0
H502 H 0.66915 0.51203 0.30207 0.0
H503 H 0.55911 0.47754 0.26893 0.0
C504 C 0.58295 0.51533 0.23593 0.0
C505 C 0.61359 0.53975 0.2232 0.0
C506 C 0.64559 0.4886 0.30684 0.0
C507 C 0.61399 0.50424 0.2719 0.0
C508 C 0.64583 0.46479 0.3256 0.0
C509 C 0.61575 0.43381 0.33153 0.0
C510 C 0.61501 0.48149 0.29412 0.0
C511 C 0.58569 0.4281 0.31876 0.0
C512 C 0.58304 0.49756 0.26029 0.0
C513 C 0.6439 0.54781 0.23695 0.0
N514 N 0.58614 0.45157 0.30065 0.0
N515 N 0.64338 0.52975 0.2603 0.0
H516 H 0.49417 0.92064 0.41673 0.0
H517 H 0.3612 0.84868 0.28837 0.0
H518 H 0.42757 0.95759 0.39735 0.0
H519 H 0.43462 0.81876 0.30275 0.0
H520 H 0.38747 0.89112 0.32639 0.0
H521 H 0.47703 0.88774 0.37212 0.0
C522 C 0.47675 0.92266 0.4025 0.0
C523 C 0.46228 0.94185 0.41054 0.0
C524 C 0.39791 0.87535 0.32119 0.0
C525 C 0.44151 0.90331 0.36013 0.0
C526 C 0.38272 0.85083 0.2996 0.0
C527 C 0.39551 0.82981 0.29238 0.0
C528 C 0.42604 0.8789 0.33589 0.0
C529 C 0.42369 0.83417 0.30762 0.0
C530 C 0.46666 0.90359 0.37723 0.0
C531 C 0.43949 0.94332 0.3917 0.0
N532 N 0.43791 0.85811 0.32869 0.0
N533 N 0.42934 0.9238 0.36755 0.0
H534 H 0.47417 0.41325 0.56079 0.0
H535 H 0.62855 0.43031 0.46877 0.0
H536 H 0.57886 0.47641 0.58518 0.0
H537 H 0.52338 0.35829 0.44976 0.0
H538 H 0.61101 0.45352 0.50767 0.0
H539 H 0.49198 0.40061 0.5152 0.0
C540 C 0.50092 0.42537 0.55607 0.0
C541 C 0.52511 0.44582 0.57665 0.0
C542 C 0.59178 0.4327 0.49492 0.0
C543 C 0.54568 0.43076 0.52519 0.0
C544 C 0.60178 0.41929 0.47276 0.0
C545 C 0.57746 0.39203 0.45603 0.0
C546 C 0.55718 0.41886 0.50046 0.0
C547 C 0.54311 0.37908 0.46218 0.0
C548 C 0.5111 0.41779 0.53028 0.0
C549 C 0.55947 0.46047 0.56978 0.0
N550 N 0.53403 0.39253 0.4839 0.0
N551 N 0.56873 0.45232 0.5448 0.0
H552 H 0.07421 0.53227 0.75524 0.0
H553 H 0.21715 0.56158 0.64193 0.0
H554 H 0.1184 0.46935 0.75141 0.0
H555 H 0.18195 0.63144 0.65569 0.0
H556 H 0.17444 0.52176 0.6761 0.0
H557 H 0.10511 0.56173 0.71161 0.0
C558 C 0.08956 0.52393 0.74467 0.0
C559 C 0.09401 0.49858 0.75701 0.0
C560 C 0.17602 0.54576 0.67146 0.0
C561 C 0.13024 0.53277 0.70768 0.0
C562 C 0.20048 0.56855 0.65204 0.0
C563 C 0.20357 0.60018 0.64616 0.0
C564 C 0.15434 0.55456 0.68493 0.0
C565 C 0.18099 0.60764 0.65978 0.0
C566 C 0.10759 0.54104 0.71999 0.0
C567 C 0.11458 0.48903 0.74264 0.0
N568 N 0.15751 0.58512 0.67852 0.0
N569 N 0.13234 0.50646 0.71898 0.0
H570 H 0.61108 0.06331 0.89086 0.0
H571 H 0.61053 0.21167 0.80038 0.0
H572 H 0.55781 0.11323 0.91659 0.0
H573 H 0.67618 0.17271 0.78293 0.0
H574 H 0.5826 0.16828 0.83773 0.0
H575 H 0.62464 0.09378 0.84492 0.0
C576 C 0.60105 0.07961 0.88629 0.0
C577 C 0.58335 0.08586 0.90739 0.0
C578 C 0.603 0.16914 0.82561 0.0
C579 C 0.59971 0.12168 0.85558 0.0
C580 C 0.61911 0.19404 0.80435 0.0
C581 C 0.6461 0.19622 0.78865 0.0
C582 C 0.61382 0.1461 0.83121 0.0
C583 C 0.6558 0.17237 0.79467 0.0
C584 C 0.60925 0.09744 0.86031 0.0
C585 C 0.57148 0.10775 0.90074 0.0
N586 N 0.63978 0.14844 0.81551 0.0
N587 N 0.58033 0.12531 0.87559 0.0
H588 H 0.46993 0.55574 0.08803 0.0
H589 H 0.52764 0.67033 0.94737 0.0
H590 H 0.57293 0.61191 0.05794 0.0
H591 H 0.42285 0.60305 0.97076 0.0
H592 H 0.54411 0.64548 0.98555 0.0
H593 H 0.45126 0.56673 0.04233 0.0
C594 C 0.48843 0.56929 0.07128 0.0
C595 C 0.52296 0.58288 0.07659 0.0
C596 C 0.51749 0.63598 0.98225 0.0
C597 C 0.50211 0.59686 0.02482 0.0
C598 C 0.50803 0.65038 0.96055 0.0
C599 C 0.47376 0.63908 0.95595 0.0
C600 C 0.49259 0.61021 -0.00024 0.0
C601 C 0.44957 0.6128 0.97359 0.0
C602 C 0.47786 0.57594 0.04535 0.0
C603 C 0.54606 0.60076 0.0545 0.0
N604 N 0.45948 0.59947 0.99484 0.0
N605 N 0.53529 0.60782 0.02976 0.0
H606 H 0.97498 0.50116 0.25371 0.0
H607 H 0.8292 0.4708 0.14328 0.0
H608 H 0.92896 0.56251 0.25294 0.0
H609 H 0.86514 0.40141 0.15639 0.0
H610 H 0.87198 0.51062 0.17745 0.0
H611 H 0.94308 0.47182 0.21054 0.0
C612 C 0.95895 0.50917 0.24392 0.0
C613 C 0.95432 0.53402 0.25701 0.0
C614 C 0.87048 0.48669 0.17267 0.0
C615 C 0.91694 0.49992 0.20821 0.0
C616 C 0.84599 0.4639 0.15329 0.0
C617 C 0.84316 0.43244 0.1472 0.0
C618 C 0.89246 0.47806 0.18578 0.0
C619 C 0.86588 0.42506 0.16064 0.0
C620 C 0.94036 0.49211 0.21951 0.0
C621 C 0.93288 0.54315 0.24362 0.0
N622 N 0.88942 0.4476 0.17925 0.0
N623 N 0.91458 0.52576 0.22017 0.0
loop_
_geom_bond_atom_site_label_1
_geom_bond_atom_site_label_2
_geom_bond_distance
_geom_bond_site_symmetry_2
_ccdc_geom_bond_type
H0 C6 0.930 . S
H1 C9 0.931 . S
H2 C11 0.931 . S
H3 C13 0.930 . S
H4 C15 0.930 . S
H5 C17 0.902 1_455 S
C6 H0 0.930 . S
C6 C7 1.380 . S
C6 C8 1.394 . S
C7 C6 1.380 . S
C7 C11 1.382 . S
C8 C6 1.394 . S
C8 C9 1.400 . S
C9 H1 0.931 . S
C9 C8 1.400 . S
C9 C10 1.375 . S
C10 C9 1.375 . S
C10 C11 1.415 . S
C10 C12 1.501 1_455 S
C11 H2 0.931 . S
C11 C7 1.382 . S
C11 C10 1.415 . S
C12 C10 1.501 1_655 S
C12 C13 1.384 . S
C12 C17 1.408 . S
C13 H3 0.930 . S
C13 C12 1.384 . S
C13 C14 1.389 . S
C14 C13 1.389 . S
C14 C15 1.405 . S
C15 H4 0.930 . S
C15 C14 1.405 . S
C15 C16 1.364 . S
C16 C15 1.364 . S
C16 C17 1.400 . S
C17 H5 0.902 1_655 S
C17 C12 1.408 . S
C17 C16 1.400 . S
H18 C24 0.930 . S
H19 C27 0.931 . S
H20 C29 0.931 . S
H21 C31 0.930 . S
H22 C33 0.930 . S
H23 C35 0.928 1_545 S
C24 H18 0.930 . S
C24 C25 1.380 . S
C24 C26 1.394 . S
C25 C24 1.380 . S
C25 C29 1.382 . S
C26 C24 1.394 . S
C26 C27 1.400 . S
C27 H19 0.931 . S
C27 C26 1.400 . S
C27 C28 1.375 . S
C28 C27 1.375 . S
C28 C29 1.415 . S
C28 C30 1.501 1_545 S
C29 H20 0.931 . S
C29 C25 1.382 . S
C29 C28 1.415 . S
C30 C28 1.501 1_565 S
C30 C31 1.384 . S
C30 C35 1.408 . S
C31 H21 0.930 . S
C31 C30 1.384 . S
C31 C32 1.389 . S
C32 C31 1.389 . S
C32 C33 1.405 . S
C33 H22 0.930 . S
C33 C32 1.405 . S
C33 C34 1.364 . S
C34 C33 1.364 . S
C34 C35 1.400 . S
C35 H23 0.928 1_565 S
C35 C30 1.408 . S
C35 C34 1.400 . S
H36 C42 0.930 . S
H37 C45 0.931 . S
H38 C47 0.931 . S
H39 C49 0.930 . S
H40 C51 0.930 . S
H41 C53 0.931 . S
C42 H36 0.930 . S
C42 C43 1.380 . S
C42 C44 1.394 . S
C43 C42 1.380 . S
C43 C47 1.382 . S
C44 C42 1.394 . S
C44 C45 1.400 . S
C45 H37 0.931 . S
C45 C44 1.400 . S
C45 C46 1.375 . S
C46 C45 1.375 . S
C46 C47 1.415 . S
C46 C48 1.501 . S
C47 H38 0.931 . S
C47 C43 1.382 . S
C47 C46 1.415 . S
C48 C46 1.501 . S
C48 C49 1.384 . S
C48 C53 1.408 . S
C49 H39 0.930 . S
C49 C48 1.384 . S
C49 C50 1.389 . S
C50 C49 1.389 . S
C50 C51 1.405 . S
C51 H40 0.930 . S
C51 C50 1.405 . S
C51 C52 1.364 . S
C52 C51 1.364 . S
C52 C53 1.400 . S
C53 H41 0.931 . S
C53 C48 1.408 . S
C53 C52 1.400 . S
H54 C60 0.930 . S
H55 C63 0.931 . S
H56 C65 0.931 . S
H57 C67 0.930 . S
H58 C69 0.930 . S
H59 C71 0.937 . S
C60 H54 0.930 . S
C60 C61 1.380 . S
C60 C62 1.394 . S
C61 C60 1.380 . S
C61 C65 1.382 . S
C62 C60 1.394 . S
C62 C63 1.400 . S
C63 H55 0.931 . S
C63 C62 1.400 . S
C63 C64 1.375 . S
C64 C63 1.375 . S
C64 C65 1.415 . S
C64 C66 1.501 1_455 S
C65 H56 0.931 . S
C65 C61 1.382 . S
C65 C64 1.415 . S
C66 C64 1.501 1_655 S
C66 C67 1.384 . S
C66 C71 1.408 . S
C67 H57 0.930 . S
C67 C66 1.384 . S
C67 C68 1.389 . S
C68 C67 1.389 . S
C68 C69 1.405 . S
C69 H58 0.930 . S
C69 C68 1.405 . S
C69 C70 1.364 . S
C70 C69 1.364 . S
C70 C71 1.400 . S
C71 H59 0.937 . S
C71 C66 1.408 . S
C71 C70 1.400 . S
H72 C78 0.930 . S
H73 C81 0.931 . S
H74 C83 0.931 . S
H75 C85 0.930 . S
H76 C87 0.930 . S
H77 C89 0.931 . S
C78 H72 0.930 . S
C78 C79 1.380 . S
C78 C80 1.394 1_554 S
C79 C78 1.380 . S
C79 C83 1.382 . S
C80 C78 1.394 1_556 S
C80 C81 1.400 . S
C81 H73 0.931 . S
C81 C80 1.400 . S
C81 C82 1.375 . S
C82 C81 1.375 . S
C82 C83 1.415 1_556 S
C82 C84 1.501 1_565 S
C83 H74 0.931 . S
C83 C79 1.382 . S
C83 C82 1.415 1_554 S
C84 C82 1.501 1_545 S
C84 C85 1.384 1_556 S
C84 C89 1.408 . S
C85 H75 0.930 . S
C85 C84 1.384 1_554 S
C85 C86 1.389 1_554 S
C86 C85 1.389 1_556 S
C86 C87 1.405 . S
C87 H76 0.930 . S
C87 C86 1.405 . S
C87 C88 1.364 . S
C88 C87 1.364 . S
C88 C89 1.400 . S
C89 H77 0.931 . S
C89 C84 1.408 . S
C89 C88 1.400 . S
H90 C96 0.930 . S
H91 C99 0.931 . S
H92 C101 0.931 . S
H93 C103 0.930 . S
H94 C105 0.930 . S
H95 C107 0.931 . S
C96 H90 0.930 . S
C96 C97 1.380 . S
C96 C98 1.394 . S
C97 C96 1.380 . S
C97 C101 1.382 . S
C98 C96 1.394 . S
C98 C99 1.400 . S
C99 H91 0.931 . S
C99 C98 1.400 . S
C99 C100 1.375 . S
C100 C99 1.375 . S
C100 C101 1.415 . S
C100 C102 1.501 . S
C101 H92 0.931 . S
C101 C97 1.382 . S
C101 C100 1.415 . S
C102 C100 1.501 . S
C102 C103 1.384 . S
C102 C107 1.408 . S
C103 H93 0.930 . S
C103 C102 1.384 . S
C103 C104 1.389 . S
C104 C103 1.389 . S
C104 C105 1.405 . S
C105 H94 0.930 . S
C105 C104 1.405 . S
C105 C106 1.364 . S
C106 C105 1.364 . S
C106 C107 1.400 . S
C107 H95 0.931 . S
C107 C102 1.408 . S
C107 C106 1.400 . S
Co108 O109 2.216 . S
Co108 O110 2.091 . S
Co108 O112 2.004 . S
Co108 O118 2.021 . S
Co108 O120 2.137 . S
Co108 O121 2.244 . S
O109 Co108 2.216 . S
O109 C116 1.247 . S
O110 Co108 2.091 . S
O110 C116 1.261 . S
C111 O120 1.247 . S
C111 O121 1.272 . S
O112 Co108 2.004 . S
O112 C117 1.259 . S
Co113 O114 2.061 . S
Co113 O119 2.052 . S
Co113 O121 2.135 . S
O114 Co113 2.061 . S
O114 C117 1.235 . S
C115 O118 1.238 . S
C115 O119 1.241 . S
C116 O109 1.247 . S
C116 O110 1.261 . S
C117 O112 1.259 . S
C117 O114 1.235 . S
O118 Co108 2.021 . S
O118 C115 1.238 . S
O119 Co113 2.052 . S
O119 C115 1.241 . S
O120 Co108 2.137 . S
O120 C111 1.247 . S
O121 Co108 2.244 . S
O121 C111 1.272 . S
O121 Co113 2.135 . S
Co122 O123 2.216 . S
Co122 O124 2.091 . S
Co122 O126 2.004 . S
Co122 O132 2.021 . S
Co122 O134 2.137 . S
Co122 O135 2.244 . S
O123 Co122 2.216 . S
O123 C130 1.247 . S
O124 Co122 2.091 . S
O124 C130 1.261 . S
C125 O134 1.247 . S
C125 O135 1.272 . S
O126 Co122 2.004 . S
O126 C131 1.259 . S
Co127 O128 2.061 . S
Co127 O133 2.052 . S
Co127 O135 2.135 . S
O128 Co127 2.061 . S
O128 C131 1.235 . S
C129 O132 1.238 . S
C129 O133 1.241 . S
C130 O123 1.247 . S
C130 O124 1.261 . S
C131 O126 1.259 . S
C131 O128 1.235 . S
O132 Co122 2.021 . S
O132 C129 1.238 . S
O133 Co127 2.052 . S
O133 C129 1.241 . S
O134 Co122 2.137 . S
O134 C125 1.247 . S
O135 Co122 2.244 . S
O135 C125 1.272 . S
O135 Co127 2.135 . S
Co136 O137 2.216 . S
Co136 O138 2.091 . S
Co136 O140 2.004 . S
Co136 O146 2.021 . S
Co136 O148 2.137 . S
Co136 O149 2.244 . S
O137 Co136 2.216 . S
O137 C144 1.247 . S
O138 Co136 2.091 . S
O138 C144 1.261 . S
C139 O148 1.247 . S
C139 O149 1.272 . S
O140 Co136 2.004 . S
O140 C145 1.259 . S
Co141 O142 2.061 . S
Co141 O147 2.052 . S
Co141 O149 2.135 . S
O142 Co141 2.061 . S
O142 C145 1.235 . S
C143 O146 1.238 . S
C143 O147 1.241 . S
C144 O137 1.247 . S
C144 O138 1.261 . S
C145 O140 1.259 . S
C145 O142 1.235 . S
O146 Co136 2.021 . S
O146 C143 1.238 . S
O147 Co141 2.052 . S
O147 C143 1.241 . S
O148 Co136 2.137 . S
O148 C139 1.247 . S
O149 Co136 2.244 . S
O149 C139 1.272 . S
O149 Co141 2.135 . S
Co150 O151 2.216 . S
Co150 O152 2.091 . S
Co150 O154 2.004 . S
Co150 O160 2.021 . S
Co150 O162 2.137 . S
Co150 O163 2.244 . S
O151 Co150 2.216 . S
O151 C158 1.247 . S
O152 Co150 2.091 . S
O152 C158 1.261 . S
C153 O162 1.247 . S
C153 O163 1.272 . S
O154 Co150 2.004 . S
O154 C159 1.259 . S
Co155 O156 2.061 . S
Co155 O161 2.052 . S
Co155 O163 2.135 . S
O156 Co155 2.061 . S
O156 C159 1.235 . S
C157 O160 1.238 . S
C157 O161 1.241 . S
C158 O151 1.247 . S
C158 O152 1.261 . S
C159 O154 1.259 . S
C159 O156 1.235 . S
O160 Co150 2.021 . S
O160 C157 1.238 . S
O161 Co155 2.052 . S
O161 C157 1.241 . S
O162 Co150 2.137 . S
O162 C153 1.247 . S
O163 Co150 2.244 . S
O163 C153 1.272 . S
O163 Co155 2.135 . S
Co164 O165 2.216 . S
Co164 O166 2.091 . S
Co164 O168 2.004 . S
Co164 O174 2.021 . S
Co164 O176 2.137 . S
Co164 O177 2.244 . S
O165 Co164 2.216 . S
O165 C172 1.247 . S
O166 Co164 2.091 . S
O166 C172 1.261 . S
C167 O176 1.247 . S
C167 O177 1.272 . S
O168 Co164 2.004 . S
O168 C173 1.259 . S
Co169 O170 2.061 . S
Co169 O175 2.052 . S
Co169 O177 2.135 . S
O170 Co169 2.061 . S
O170 C173 1.235 . S
C171 O174 1.238 . S
C171 O175 1.241 . S
C172 O165 1.247 . S
C172 O166 1.261 . S
C173 O168 1.259 . S
C173 O170 1.235 . S
O174 Co164 2.021 . S
O174 C171 1.238 . S
O175 Co169 2.052 . S
O175 C171 1.241 . S
O176 Co164 2.137 . S
O176 C167 1.247 . S
O177 Co164 2.244 . S
O177 C167 1.272 . S
O177 Co169 2.135 . S
Co178 O179 2.216 . S
Co178 O180 2.091 . S
Co178 O182 2.004 . S
Co178 O188 2.021 . S
Co178 O190 2.137 . S
Co178 O191 2.244 . S
O179 Co178 2.216 . S
O179 C186 1.247 . S
O180 Co178 2.091 . S
O180 C186 1.261 . S
C181 O190 1.247 . S
C181 O191 1.272 . S
O182 Co178 2.004 . S
O182 C187 1.259 . S
Co183 O184 2.061 . S
Co183 O189 2.052 . S
Co183 O191 2.135 . S
O184 Co183 2.061 . S
O184 C187 1.235 . S
C185 O188 1.238 . S
C185 O189 1.241 . S
C186 O179 1.247 . S
C186 O180 1.261 . S
C187 O182 1.259 . S
C187 O184 1.235 . S
O188 Co178 2.021 . S
O188 C185 1.238 . S
O189 Co183 2.052 . S
O189 C185 1.241 . S
O190 Co178 2.137 . S
O190 C181 1.247 . S
O191 Co178 2.244 . S
O191 C181 1.272 . S
O191 Co183 2.135 . S
H192 C198 0.930 . S
H193 C202 0.930 . S
H194 C207 0.929 . S
H195 C205 0.929 . S
H196 C200 0.929 . S
H197 C206 0.929 . S
C198 H192 0.930 . S
C198 C199 1.367 . S
C198 C206 1.378 . S
C199 C198 1.367 . S
C199 C207 1.433 . S
C200 H196 0.929 . S
C200 C202 1.378 . S
C200 C204 1.350 . S
C201 C204 1.463 . S
C201 C206 1.350 . S
C201 N209 1.427 . S
C202 H193 0.930 . S
C202 C200 1.378 . S
C202 C203 1.367 . S
C203 C202 1.367 . S
C203 C205 1.433 . S
C204 C200 1.350 . S
C204 C201 1.463 . S
C204 N208 1.427 . S
C205 H195 0.929 . S
C205 C203 1.433 . S
C205 N208 1.384 . S
C206 H197 0.929 . S
C206 C198 1.378 . S
C206 C201 1.350 . S
C207 H194 0.929 . S
C207 C199 1.433 . S
C207 N209 1.384 . S
N208 C204 1.427 . S
N208 C205 1.384 . S
N209 C201 1.427 . S
N209 C207 1.384 . S
H210 C216 0.930 . S
H211 C220 0.930 . S
H212 C225 0.929 . S
H213 C223 0.929 . S
H214 C218 0.929 . S
H215 C224 0.929 . S
C216 H210 0.930 . S
C216 C217 1.367 . S
C216 C224 1.378 . S
C217 C216 1.367 . S
C217 C225 1.433 . S
C218 H214 0.929 . S
C218 C220 1.378 . S
C218 C222 1.350 . S
C219 C222 1.463 . S
C219 C224 1.350 . S
C219 N227 1.427 . S
C220 H211 0.930 . S
C220 C218 1.378 . S
C220 C221 1.367 . S
C221 C220 1.367 . S
C221 C223 1.433 . S
C222 C218 1.350 . S
C222 C219 1.463 . S
C222 N226 1.427 . S
C223 H213 0.929 . S
C223 C221 1.433 . S
C223 N226 1.384 . S
C224 H215 0.929 . S
C224 C216 1.378 . S
C224 C219 1.350 . S
C225 H212 0.929 . S
C225 C217 1.433 . S
C225 N227 1.384 . S
N226 C222 1.427 . S
N226 C223 1.384 . S
N227 C219 1.427 . S
N227 C225 1.384 . S
H228 C234 0.930 . S
H229 C238 0.930 . S
H230 C243 0.929 . S
H231 C241 0.929 . S
H232 C236 0.929 . S
H233 C242 0.929 . S
C234 H228 0.930 . S
C234 C235 1.367 . S
C234 C242 1.378 . S
C235 C234 1.367 . S
C235 C243 1.433 . S
C236 H232 0.929 . S
C236 C238 1.378 . S
C236 C240 1.350 . S
C237 C240 1.463 . S
C237 C242 1.350 . S
C237 N245 1.427 . S
C238 H229 0.930 . S
C238 C236 1.378 . S
C238 C239 1.367 . S
C239 C238 1.367 . S
C239 C241 1.433 . S
C240 C236 1.350 . S
C240 C237 1.463 . S
C240 N244 1.427 . S
C241 H231 0.929 . S
C241 C239 1.433 . S
C241 N244 1.384 . S
C242 H233 0.929 . S
C242 C234 1.378 . S
C242 C237 1.350 . S
C243 H230 0.929 . S
C243 C235 1.433 . S
C243 N245 1.384 . S
N244 C240 1.427 . S
N244 C241 1.384 . S
N245 C237 1.427 . S
N245 C243 1.384 . S
H246 C252 0.930 . S
H247 C256 0.930 . S
H248 C261 0.929 . S
H249 C259 0.929 . S
H250 C254 0.929 . S
H251 C260 0.929 . S
C252 H246 0.930 . S
C252 C253 1.367 . S
C252 C260 1.378 . S
C253 C252 1.367 . S
C253 C261 1.433 . S
C254 H250 0.929 . S
C254 C256 1.378 . S
C254 C258 1.350 . S
C255 C258 1.463 . S
C255 C260 1.350 . S
C255 N263 1.427 . S
C256 H247 0.930 . S
C256 C254 1.378 . S
C256 C257 1.367 . S
C257 C256 1.367 . S
C257 C259 1.433 . S
C258 C254 1.350 . S
C258 C255 1.463 . S
C258 N262 1.427 . S
C259 H249 0.929 . S
C259 C257 1.433 . S
C259 N262 1.384 . S
C260 H251 0.929 . S
C260 C252 1.378 . S
C260 C255 1.350 . S
C261 H248 0.929 . S
C261 C253 1.433 . S
C261 N263 1.384 . S
N262 C258 1.427 . S
N262 C259 1.384 . S
N263 C255 1.427 . S
N263 C261 1.384 . S
H264 C270 0.930 . S
H265 C274 0.930 . S
H266 C279 0.929 . S
H267 C277 0.929 . S
H268 C272 0.929 . S
H269 C278 0.929 . S
C270 H264 0.930 . S
C270 C271 1.367 . S
C270 C278 1.378 . S
C271 C270 1.367 . S
C271 C279 1.433 . S
C272 H268 0.929 . S
C272 C274 1.378 . S
C272 C276 1.350 . S
C273 C276 1.463 . S
C273 C278 1.350 . S
C273 N281 1.427 . S
C274 H265 0.930 . S
C274 C272 1.378 . S
C274 C275 1.367 . S
C275 C274 1.367 . S
C275 C277 1.433 . S
C276 C272 1.350 . S
C276 C273 1.463 . S
C276 N280 1.427 . S
C277 H267 0.929 . S
C277 C275 1.433 . S
C277 N280 1.384 . S
C278 H269 0.929 . S
C278 C270 1.378 . S
C278 C273 1.350 . S
C279 H266 0.929 . S
C279 C271 1.433 . S
C279 N281 1.384 . S
N280 C276 1.427 . S
N280 C277 1.384 . S
N281 C273 1.427 . S
N281 C279 1.384 . S
H282 C288 0.930 . S
H283 C292 0.930 . S
H284 C297 0.929 . S
H285 C295 0.929 . S
H286 C290 0.929 . S
H287 C296 0.929 . S
C288 H282 0.930 . S
C288 C289 1.367 . S
C288 C296 1.378 . S
C289 C288 1.367 . S
C289 C297 1.433 . S
C290 H286 0.929 . S
C290 C292 1.378 . S
C290 C294 1.350 . S
C291 C294 1.463 . S
C291 C296 1.350 . S
C291 N299 1.427 . S
C292 H283 0.930 . S
C292 C290 1.378 . S
C292 C293 1.367 . S
C293 C292 1.367 . S
C293 C295 1.433 . S
C294 C290 1.350 . S
C294 C291 1.463 . S
C294 N298 1.427 . S
C295 H285 0.929 . S
C295 C293 1.433 . S
C295 N298 1.384 . S
C296 H287 0.929 . S
C296 C288 1.378 . S
C296 C291 1.350 . S
C297 H284 0.929 . S
C297 C289 1.433 . S
C297 N299 1.384 . S
N298 C294 1.427 . S
N298 C295 1.384 . S
N299 C291 1.427 . S
N299 C297 1.384 . S
H300 C306 0.930 . S
H301 C310 0.930 . S
H302 C315 0.929 . S
H303 C313 0.929 . S
H304 C308 0.929 . S
H305 C314 0.929 . S
C306 H300 0.930 . S
C306 C307 1.367 . S
C306 C314 1.378 . S
C307 C306 1.367 . S
C307 C315 1.433 . S
C308 H304 0.929 . S
C308 C310 1.378 . S
C308 C312 1.350 . S
C309 C312 1.463 . S
C309 C314 1.350 . S
C309 N317 1.427 . S
C310 H301 0.930 . S
C310 C308 1.378 . S
C310 C311 1.367 . S
C311 C310 1.367 . S
C311 C313 1.433 . S
C312 C308 1.350 . S
C312 C309 1.463 . S
C312 N316 1.427 . S
C313 H303 0.929 . S
C313 C311 1.433 . S
C313 N316 1.384 . S
C314 H305 0.929 . S
C314 C306 1.378 . S
C314 C309 1.350 . S
C315 H302 0.929 . S
C315 C307 1.433 . S
C315 N317 1.384 . S
N316 C312 1.427 . S
N316 C313 1.384 . S
N317 C309 1.427 . S
N317 C315 1.384 . S
H318 C324 0.930 . S
H319 C328 0.930 . S
H320 C333 0.929 . S
H321 C331 0.929 . S
H322 C326 0.929 . S
H323 C332 0.929 . S
C324 H318 0.930 . S
C324 C325 1.367 . S
C324 C332 1.378 . S
C325 C324 1.367 . S
C325 C333 1.433 . S
C326 H322 0.929 . S
C326 C328 1.378 . S
C326 C330 1.350 . S
C327 C330 1.463 . S
C327 C332 1.350 . S
C327 N335 1.427 . S
C328 H319 0.930 . S
C328 C326 1.378 . S
C328 C329 1.367 . S
C329 C328 1.367 . S
C329 C331 1.433 . S
C330 C326 1.350 . S
C330 C327 1.463 . S
C330 N334 1.427 . S
C331 H321 0.929 . S
C331 C329 1.433 . S
C331 N334 1.384 . S
C332 H323 0.929 . S
C332 C324 1.378 . S
C332 C327 1.350 . S
C333 H320 0.929 . S
C333 C325 1.433 . S
C333 N335 1.384 . S
N334 C330 1.427 . S
N334 C331 1.384 . S
N335 C327 1.427 . S
N335 C333 1.384 . S
H336 C342 0.930 . S
H337 C346 0.930 . S
H338 C351 0.929 . S
H339 C349 0.929 . S
H340 C344 0.929 . S
H341 C350 0.929 . S
C342 H336 0.930 . S
C342 C343 1.367 . S
C342 C350 1.378 . S
C343 C342 1.367 . S
C343 C351 1.433 . S
C344 H340 0.929 . S
C344 C346 1.378 . S
C344 C348 1.350 . S
C345 C348 1.463 . S
C345 C350 1.350 . S
C345 N353 1.427 . S
C346 H337 0.930 . S
C346 C344 1.378 . S
C346 C347 1.367 . S
C347 C346 1.367 . S
C347 C349 1.433 . S
C348 C344 1.350 . S
C348 C345 1.463 . S
C348 N352 1.427 . S
C349 H339 0.929 . S
C349 C347 1.433 . S
C349 N352 1.384 . S
C350 H341 0.929 . S
C350 C342 1.378 . S
C350 C345 1.350 . S
C351 H338 0.929 . S
C351 C343 1.433 . S
C351 N353 1.384 . S
N352 C348 1.427 . S
N352 C349 1.384 . S
N353 C345 1.427 . S
N353 C351 1.384 . S
H354 C360 0.930 . S
H355 C364 0.930 . S
H356 C369 0.929 . S
H357 C367 0.929 . S
H358 C362 0.929 1_556 S
H359 C368 0.929 . S
C360 H354 0.930 . S
C360 C361 1.367 . S
C360 C368 1.378 . S
C361 C360 1.367 . S
C361 C369 1.433 1_554 S
C362 H358 0.929 1_554 S
C362 C364 1.378 . S
C362 C366 1.350 . S
C363 C366 1.463 . S
C363 C368 1.350 . S
C363 N371 1.418 1_554 S
C364 H355 0.930 . S
C364 C362 1.378 . S
C364 C365 1.367 . S
C365 C364 1.367 . S
C365 C367 1.433 . S
C366 C362 1.350 . S
C366 C363 1.463 . S
C366 N370 1.427 . S
C367 H357 0.929 . S
C367 C365 1.433 . S
C367 N370 1.384 . S
C368 H359 0.929 . S
C368 C360 1.378 . S
C368 C363 1.350 . S
C369 H356 0.929 . S
C369 C361 1.433 1_556 S
C369 N371 1.386 . S
N370 C366 1.427 . S
N370 C367 1.384 . S
N371 C363 1.418 1_556 S
N371 C369 1.386 . S
H372 C378 0.930 . S
H373 C382 0.930 . S
H374 C387 0.929 . S
H375 C385 0.929 . S
H376 C380 0.929 . S
H377 C386 0.929 . S
C378 H372 0.930 . S
C378 C379 1.367 . S
C378 C386 1.378 . S
C379 C378 1.367 . S
C379 C387 1.433 . S
C380 H376 0.929 . S
C380 C382 1.378 . S
C380 C384 1.350 . S
C381 C384 1.463 . S
C381 C386 1.350 . S
C381 N389 1.427 . S
C382 H373 0.930 . S
C382 C380 1.378 . S
C382 C383 1.367 . S
C383 C382 1.367 . S
C383 C385 1.433 . S
C384 C380 1.350 . S
C384 C381 1.463 . S
C384 N388 1.427 . S
C385 H375 0.929 . S
C385 C383 1.433 . S
C385 N388 1.384 . S
C386 H377 0.929 . S
C386 C378 1.378 . S
C386 C381 1.350 . S
C387 H374 0.929 . S
C387 C379 1.433 . S
C387 N389 1.384 . S
N388 C384 1.427 . S
N388 C385 1.384 . S
N389 C381 1.427 . S
N389 C387 1.384 . S
H390 C396 0.930 . S
H391 C400 0.930 . S
H392 C405 0.929 . S
H393 C403 0.929 . S
H394 C398 0.929 . S
H395 C404 0.929 . S
C396 H390 0.930 . S
C396 C397 1.367 . S
C396 C404 1.378 . S
C397 C396 1.367 . S
C397 C405 1.433 . S
C398 H394 0.929 . S
C398 C400 1.378 . S
C398 C402 1.350 . S
C399 C402 1.463 . S
C399 C404 1.350 . S
C399 N407 1.427 . S
C400 H391 0.930 . S
C400 C398 1.378 . S
C400 C401 1.367 . S
C401 C400 1.367 . S
C401 C403 1.433 . S
C402 C398 1.350 . S
C402 C399 1.463 . S
C402 N406 1.427 . S
C403 H393 0.929 . S
C403 C401 1.433 . S
C403 N406 1.384 . S
C404 H395 0.929 . S
C404 C396 1.378 . S
C404 C399 1.350 . S
C405 H392 0.929 . S
C405 C397 1.433 . S
C405 N407 1.384 . S
N406 C402 1.427 . S
N406 C403 1.384 . S
N407 C399 1.427 . S
N407 C405 1.384 . S
H408 C414 0.930 . S
H409 C418 0.930 . S
H410 C423 0.929 . S
H411 C421 0.929 . S
H412 C416 0.929 . S
H413 C422 0.929 . S
C414 H408 0.930 . S
C414 C415 1.367 . S
C414 C422 1.378 . S
C415 C414 1.367 . S
C415 C423 1.433 . S
C416 H412 0.929 . S
C416 C418 1.378 . S
C416 C420 1.350 . S
C417 C420 1.463 . S
C417 C422 1.350 . S
C417 N425 1.427 . S
C418 H409 0.930 . S
C418 C416 1.378 . S
C418 C419 1.367 . S
C419 C418 1.367 . S
C419 C421 1.433 . S
C420 C416 1.350 . S
C420 C417 1.463 . S
C420 N424 1.427 . S
C421 H411 0.929 . S
C421 C419 1.433 . S
C421 N424 1.384 . S
C422 H413 0.929 . S
C422 C414 1.378 . S
C422 C417 1.350 . S
C423 H410 0.929 . S
C423 C415 1.433 . S
C423 N425 1.384 . S
N424 C420 1.427 . S
N424 C421 1.384 . S
N425 C417 1.427 . S
N425 C423 1.384 . S
H426 C432 0.930 . S
H427 C436 0.930 . S
H428 C441 0.929 . S
H429 C439 0.929 . S
H430 C434 0.929 . S
H431 C440 0.929 . S
C432 H426 0.930 . S
C432 C433 1.367 . S
C432 C440 1.378 . S
C433 C432 1.367 . S
C433 C441 1.433 . S
C434 H430 0.929 . S
C434 C436 1.378 . S
C434 C438 1.350 . S
C435 C438 1.463 . S
C435 C440 1.350 . S
C435 N443 1.427 . S
C436 H427 0.930 . S
C436 C434 1.378 . S
C436 C437 1.367 . S
C437 C436 1.367 . S
C437 C439 1.433 . S
C438 C434 1.350 . S
C438 C435 1.463 . S
C438 N442 1.427 . S
C439 H429 0.929 . S
C439 C437 1.433 . S
C439 N442 1.384 . S
C440 H431 0.929 . S
C440 C432 1.378 . S
C440 C435 1.350 . S
C441 H428 0.929 . S
C441 C433 1.433 . S
C441 N443 1.384 . S
N442 C438 1.427 . S
N442 C439 1.384 . S
N443 C435 1.427 . S
N443 C441 1.384 . S
H444 C450 0.930 . S
H445 C454 0.930 . S
H446 C459 0.929 . S
H447 C457 0.929 . S
H448 C452 0.929 . S
H449 C458 0.929 . S
C450 H444 0.930 . S
C450 C451 1.367 . S
C450 C458 1.378 . S
C451 C450 1.367 . S
C451 C459 1.433 . S
C452 H448 0.929 . S
C452 C454 1.378 . S
C452 C456 1.350 . S
C453 C456 1.463 . S
C453 C458 1.350 . S
C453 N461 1.427 . S
C454 H445 0.930 . S
C454 C452 1.378 . S
C454 C455 1.367 . S
C455 C454 1.367 . S
C455 C457 1.433 . S
C456 C452 1.350 . S
C456 C453 1.463 . S
C456 N460 1.427 . S
C457 H447 0.929 . S
C457 C455 1.433 . S
C457 N460 1.384 . S
C458 H449 0.929 . S
C458 C450 1.378 . S
C458 C453 1.350 . S
C459 H446 0.929 . S
C459 C451 1.433 . S
C459 N461 1.384 . S
N460 C456 1.427 . S
N460 C457 1.384 . S
N461 C453 1.427 . S
N461 C459 1.384 . S
H462 C468 0.930 . S
H463 C472 0.930 . S
H464 C477 0.929 . S
H465 C475 0.929 1_554 S
H466 C470 0.929 . S
H467 C476 0.929 . S
C468 H462 0.930 . S
C468 C469 1.367 . S
C468 C476 1.378 . S
C469 C468 1.367 . S
C469 C477 1.433 . S
C470 H466 0.929 . S
C470 C472 1.378 . S
C470 C474 1.350 . S
C471 C474 1.463 . S
C471 C476 1.350 . S
C471 N479 1.427 . S
C472 H463 0.930 . S
C472 C470 1.378 . S
C472 C473 1.367 1_556 S
C473 C472 1.367 1_554 S
C473 C475 1.433 1_554 S
C474 C470 1.350 . S
C474 C471 1.463 . S
C474 N478 1.427 . S
C475 H465 0.929 1_556 S
C475 C473 1.433 1_556 S
C475 N478 1.384 . S
C476 H467 0.929 . S
C476 C468 1.378 . S
C476 C471 1.350 . S
C477 H464 0.929 . S
C477 C469 1.433 . S
C477 N479 1.384 . S
N478 C474 1.427 . S
N478 C475 1.384 . S
N479 C471 1.427 . S
N479 C477 1.384 . S
H480 C486 0.930 . S
H481 C490 0.930 . S
H482 C495 0.929 . S
H483 C493 0.929 . S
H484 C488 0.929 . S
H485 C494 0.929 . S
C486 H480 0.930 . S
C486 C487 1.367 . S
C486 C494 1.378 . S
C487 C486 1.367 . S
C487 C495 1.433 . S
C488 H484 0.929 . S
C488 C490 1.378 . S
C488 C492 1.350 . S
C489 C492 1.463 . S
C489 C494 1.350 . S
C489 N497 1.427 . S
C490 H481 0.930 . S
C490 C488 1.378 . S
C490 C491 1.367 . S
C491 C490 1.367 . S
C491 C493 1.433 . S
C492 C488 1.350 . S
C492 C489 1.463 . S
C492 N496 1.427 . S
C493 H483 0.929 . S
C493 C491 1.433 . S
C493 N496 1.384 . S
C494 H485 0.929 . S
C494 C486 1.378 . S
C494 C489 1.350 . S
C495 H482 0.929 . S
C495 C487 1.433 . S
C495 N497 1.384 . S
N496 C492 1.427 . S
N496 C493 1.384 . S
N497 C489 1.427 . S
N497 C495 1.384 . S
H498 C504 0.930 . S
H499 C508 0.930 . S
H500 C513 0.929 . S
H501 C511 0.929 . S
H502 C506 0.929 . S
H503 C512 0.929 . S
C504 H498 0.930 . S
C504 C505 1.367 . S
C504 C512 1.378 . S
C505 C504 1.367 . S
C505 C513 1.433 . S
C506 H502 0.929 . S
C506 C508 1.378 . S
C506 C510 1.350 . S
C507 C510 1.463 . S
C507 C512 1.350 . S
C507 N515 1.427 . S
C508 H499 0.930 . S
C508 C506 1.378 . S
C508 C509 1.367 . S
C509 C508 1.367 . S
C509 C511 1.433 . S
C510 C506 1.350 . S
C510 C507 1.463 . S
C510 N514 1.427 . S
C511 H501 0.929 . S
C511 C509 1.433 . S
C511 N514 1.384 . S
C512 H503 0.929 . S
C512 C504 1.378 . S
C512 C507 1.350 . S
C513 H500 0.929 . S
C513 C505 1.433 . S
C513 N515 1.384 . S
N514 C510 1.427 . S
N514 C511 1.384 . S
N515 C507 1.427 . S
N515 C513 1.384 . S
H516 C522 0.930 . S
H517 C526 0.930 . S
H518 C531 0.929 . S
H519 C529 0.929 . S
H520 C524 0.929 . S
H521 C530 0.929 . S
C522 H516 0.930 . S
C522 C523 1.367 . S
C522 C530 1.378 . S
C523 C522 1.367 . S
C523 C531 1.433 . S
C524 H520 0.929 . S
C524 C526 1.378 . S
C524 C528 1.350 . S
C525 C528 1.463 . S
C525 C530 1.350 . S
C525 N533 1.427 . S
C526 H517 0.930 . S
C526 C524 1.378 . S
C526 C527 1.367 . S
C527 C526 1.367 . S
C527 C529 1.433 . S
C528 C524 1.350 . S
C528 C525 1.463 . S
C528 N532 1.427 . S
C529 H519 0.929 . S
C529 C527 1.433 . S
C529 N532 1.384 . S
C530 H521 0.929 . S
C530 C522 1.378 . S
C530 C525 1.350 . S
C531 H518 0.929 . S
C531 C523 1.433 . S
C531 N533 1.384 . S
N532 C528 1.427 . S
N532 C529 1.384 . S
N533 C525 1.427 . S
N533 C531 1.384 . S
H534 C540 0.930 . S
H535 C544 0.930 . S
H536 C549 0.929 . S
H537 C547 0.929 . S
H538 C542 0.929 . S
H539 C548 0.929 . S
C540 H534 0.930 . S
C540 C541 1.367 . S
C540 C548 1.378 . S
C541 C540 1.367 . S
C541 C549 1.433 . S
C542 H538 0.929 . S
C542 C544 1.378 . S
C542 C546 1.350 . S
C543 C546 1.463 . S
C543 C548 1.350 . S
C543 N551 1.427 . S
C544 H535 0.930 . S
C544 C542 1.378 . S
C544 C545 1.367 . S
C545 C544 1.367 . S
C545 C547 1.433 . S
C546 C542 1.350 . S
C546 C543 1.463 . S
C546 N550 1.427 . S
C547 H537 0.929 . S
C547 C545 1.433 . S
C547 N550 1.384 . S
C548 H539 0.929 . S
C548 C540 1.378 . S
C548 C543 1.350 . S
C549 H536 0.929 . S
C549 C541 1.433 . S
C549 N551 1.384 . S
N550 C546 1.427 . S
N550 C547 1.384 . S
N551 C543 1.427 . S
N551 C549 1.384 . S
H552 C558 0.930 . S
H553 C562 0.930 . S
H554 C567 0.929 . S
H555 C565 0.929 . S
H556 C560 0.929 . S
H557 C566 0.929 . S
C558 H552 0.930 . S
C558 C559 1.367 . S
C558 C566 1.378 . S
C559 C558 1.367 . S
C559 C567 1.433 . S
C560 H556 0.929 . S
C560 C562 1.378 . S
C560 C564 1.350 . S
C561 C564 1.463 . S
C561 C566 1.350 . S
C561 N569 1.427 . S
C562 H553 0.930 . S
C562 C560 1.378 . S
C562 C563 1.367 . S
C563 C562 1.367 . S
C563 C565 1.433 . S
C564 C560 1.350 . S
C564 C561 1.463 . S
C564 N568 1.427 . S
C565 H555 0.929 . S
C565 C563 1.433 . S
C565 N568 1.384 . S
C566 H557 0.929 . S
C566 C558 1.378 . S
C566 C561 1.350 . S
C567 H554 0.929 . S
C567 C559 1.433 . S
C567 N569 1.384 . S
N568 C564 1.427 . S
N568 C565 1.384 . S
N569 C561 1.427 . S
N569 C567 1.384 . S
H570 C576 0.930 . S
H571 C580 0.930 . S
H572 C585 0.929 . S
H573 C583 0.929 . S
H574 C578 0.929 . S
H575 C584 0.929 . S
C576 H570 0.930 . S
C576 C577 1.367 . S
C576 C584 1.378 . S
C577 C576 1.367 . S
C577 C585 1.433 . S
C578 H574 0.929 . S
C578 C580 1.378 . S
C578 C582 1.350 . S
C579 C582 1.463 . S
C579 C584 1.350 . S
C579 N587 1.427 . S
C580 H571 0.930 . S
C580 C578 1.378 . S
C580 C581 1.367 . S
C581 C580 1.367 . S
C581 C583 1.433 . S
C582 C578 1.350 . S
C582 C579 1.463 . S
C582 N586 1.427 . S
C583 H573 0.929 . S
C583 C581 1.433 . S
C583 N586 1.384 . S
C584 H575 0.929 . S
C584 C576 1.378 . S
C584 C579 1.350 . S
C585 H572 0.929 . S
C585 C577 1.433 . S
C585 N587 1.384 . S
N586 C582 1.427 . S
N586 C583 1.384 . S
N587 C579 1.427 . S
N587 C585 1.384 . S
H588 C594 0.930 . S
H589 C598 0.930 . S
H590 C603 0.929 . S
H591 C601 0.929 . S
H592 C596 0.929 . S
H593 C602 0.929 . S
C594 H588 0.930 . S
C594 C595 1.367 . S
C594 C602 1.378 . S
C595 C594 1.367 . S
C595 C603 1.433 . S
C596 H592 0.929 . S
C596 C598 1.378 1_554 S
C596 C600 1.350 . S
C597 C600 1.463 . S
C597 C602 1.350 . S
C597 N605 1.427 . S
C598 H589 0.930 . S
C598 C596 1.378 1_556 S
C598 C599 1.367 . S
C599 C598 1.367 . S
C599 C601 1.433 . S
C600 C596 1.350 . S
C600 C597 1.463 . S
C600 N604 1.427 . S
C601 H591 0.929 . S
C601 C599 1.433 . S
C601 N604 1.384 1_556 S
C602 H593 0.929 . S
C602 C594 1.378 . S
C602 C597 1.350 . S
C603 H590 0.929 . S
C603 C595 1.433 . S
C603 N605 1.384 . S
N604 C600 1.427 . S
N604 C601 1.384 1_554 S
N605 C597 1.427 . S
N605 C603 1.384 . S
H606 C612 0.930 . S
H607 C616 0.930 . S
H608 C621 0.929 . S
H609 C619 0.929 . S
H610 C614 0.929 . S
H611 C620 0.929 . S
C612 H606 0.930 . S
C612 C613 1.367 . S
C612 C620 1.378 . S
C613 C612 1.367 . S
C613 C621 1.433 . S
C614 H610 0.929 . S
C614 C616 1.378 . S
C614 C618 1.350 . S
C615 C618 1.463 . S
C615 C620 1.350 . S
C615 N623 1.427 . S
C616 H607 0.930 . S
C616 C614 1.378 . S
C616 C617 1.367 . S
C617 C616 1.367 . S
C617 C619 1.433 . S
C618 C614 1.350 . S
C618 C615 1.463 . S
C618 N622 1.427 . S
C619 H609 0.929 . S
C619 C617 1.433 . S
C619 N622 1.384 . S
C620 H611 0.929 . S
C620 C612 1.378 . S
C620 C615 1.350 . S
C621 H608 0.929 . S
C621 C613 1.433 . S
C621 N623 1.384 . S
N622 C618 1.427 . S
N622 C619 1.384 . S
N623 C615 1.427 . S
N623 C621 1.384 . S
C203 C181 1.588 . S
C199 C8 1.541 . S
C217 C26 1.548 . S
C221 C111 1.591 . S
C235 C50 1.553 . S
C239 C130 1.606 . S
C253 C68 1.544 . S
C257 C139 1.593 . S
C275 C153 1.591 . S
C271 C80 1.539 . S
C289 C104 1.550 . S
C293 C172 1.601 . S
C307 C32 1.539 . S
C311 C125 1.585 . S
C325 C44 1.537 . S
C329 C144 1.587 . S
C343 C62 1.544 . S
C347 C158 1.584 . S
C365 C167 1.580 . S
C361 C86 1.535 1_554 S
C383 C186 1.586 . S
C379 C98 1.540 . S
C401 C116 1.588 . S
C397 C14 1.541 . S
C415 C7 1.472 . S
C419 C131 1.506 . S
C433 C25 1.475 . S
C437 C143 1.491 . S
C455 C157 1.483 . S
C451 C52 1.463 . S
C469 C70 1.473 . S
C473 C173 1.506 . S
C491 C185 1.481 . S
C487 C79 1.460 . S
C509 C115 1.492 . S
C505 C106 1.477 . S
C527 C187 1.511 . S
C523 C34 1.467 . S
C541 C43 1.472 . S
C545 C117 1.523 . S
C563 C129 1.500 . S
C559 C61 1.485 . S
C577 C88 1.468 . S
C581 C145 1.514 . S
C595 C97 1.476 . S
C599 C159 1.519 . S
C613 C16 1.472 . S
C617 C171 1.494 . S
