# Generated by pormake.
# Topology wbl, (4,4)-cn, num edge types: 1
# Building blocks:
#     Node 0, Type 0, BuildingBlock: MUDLON_clean_linker_0, # of connection points: 4
#     Node 1, Type 0, BuildingBlock: MUDLON_clean_linker_0, # of connection points: 4
#     Node 2, Type 0, BuildingBlock: MUDLON_clean_linker_0, # of connection points: 4
#     Node 3, Type 0, BuildingBlock: MUDLON_clean_linker_0, # of connection points: 4
#     Node 4, Type 0, BuildingBlock: MUDLON_clean_linker_0, # of connection points: 4
#     Node 5, Type 0, BuildingBlock: MUDLON_clean_linker_0, # of connection points: 4
#     Node 6, Type 0, BuildingBlock: MUDLON_clean_linker_0, # of connection points: 4
#     Node 7, Type 0, BuildingBlock: MUDLON_clean_linker_0, # of connection points: 4
#     Node 8, Type 1, BuildingBlock: QUQFOY_clean_sbu_1, # of connection points: 4
#     Node 9, Type 1, BuildingBlock: QUQFOY_clean_sbu_1, # of connection points: 4
#     Node 10, Type 1, BuildingBlock: QUQFOY_clean_sbu_1, # of connection points: 4
#     Node 11, Type 1, BuildingBlock: QUQFOY_clean_sbu_1, # of connection points: 4
#     Node 12, Type 1, BuildingBlock: QUQFOY_clean_sbu_1, # of connection points: 4
#     Node 13, Type 1, BuildingBlock: QUQFOY_clean_sbu_1, # of connection points: 4
#     Node 14, Type 1, BuildingBlock: QUQFOY_clean_sbu_1, # of connection points: 4
#     Node 15, Type 1, BuildingBlock: QUQFOY_clean_sbu_1, # of connection points: 4
#     Edge 16, Type (0, 1), None
#     Edge 17, Type (0, 1), None
#     Edge 18, Type (0, 1), None
#     Edge 19, Type (0, 1), None
#     Edge 20, Type (0, 1), None
#     Edge 21, Type (0, 1), None
#     Edge 22, Type (0, 1), None
#     Edge 23, Type (0, 1), None
#     Edge 24, Type (0, 1), None
#     Edge 25, Type (0, 1), None
#     Edge 26, Type (0, 1), None
#     Edge 27, Type (0, 1), None
#     Edge 28, Type (0, 1), None
#     Edge 29, Type (0, 1), None
#     Edge 30, Type (0, 1), None
#     Edge 31, Type (0, 1), None
#     Edge 32, Type (0, 1), None
#     Edge 33, Type (0, 1), None
#     Edge 34, Type (0, 1), None
#     Edge 35, Type (0, 1), None
#     Edge 36, Type (0, 1), None
#     Edge 37, Type (0, 1), None
#     Edge 38, Type (0, 1), None
#     Edge 39, Type (0, 1), None
#     Edge 40, Type (0, 1), None
#     Edge 41, Type (0, 1), None
#     Edge 42, Type (0, 1), None
#     Edge 43, Type (0, 1), None
#     Edge 44, Type (0, 1), None
#     Edge 45, Type (0, 1), None
#     Edge 46, Type (0, 1), None
#     Edge 47, Type (0, 1), None
# Relax obj value: 0.135
# Max RMSD: 0.216
# Mean RMSD: 0.170
data_MOF--net-wbl--node1-QUQFOY_clean_sbu_1--node2-MUDLON_clean_linker_0--edge1-none
_symmetry_space_group_name_H-M    P1
_symmetry_Int_Tables_number       1
_symmetry_cell_setting            triclinic
loop_
_symmetry_equiv_pos_as_xyz
'x, y, z'
_cell_length_a     32.158839
_cell_length_b     32.183883
_cell_length_c     46.421039
_cell_angle_alpha  94.018812
_cell_angle_beta   94.026726
_cell_angle_gamma 90.301761
loop_
_atom_site_label
_atom_site_type_symbol
_atom_site_fract_x
_atom_site_fract_y
_atom_site_fract_z
_atom_type_partial_charge
H0 H 0.22532 0.92463 0.36695 0.0
N1 N 0.14676 0.92721 0.33941 0.0
H2 H 0.24299 0.90236 0.41528 0.0
H3 H 0.09456 0.90646 0.37849 0.0
H4 H 0.11241 0.88654 0.42807 0.0
H5 H 0.15231 0.84987 0.31655 0.0
H6 H 0.21078 0.8195 0.2918 0.0
H7 H 0.2078 0.97204 0.31525 0.0
H8 H 0.26553 0.94193 0.28999 0.0
H9 H 0.18388 0.00023 0.36207 0.0
H10 H 0.0733 0.94793 0.3152 0.0
H11 H 0.15077 0.06836 0.36613 0.0
H12 H 0.03926 0.01552 0.31992 0.0
H13 H 0.98611 0.25621 0.4112 0.0
H14 H 0.95444 0.25851 0.4579 0.0
H15 H 0.93436 0.12528 0.44705 0.0
H16 H 0.965 0.12339 0.40063 0.0
H17 H 0.92637 0.13673 0.3563 0.0
H18 H 0.86305 0.15217 0.3272 0.0
H19 H 0.91092 0.27576 0.31721 0.0
H20 H 0.9743 0.25994 0.34673 0.0
H21 H 0.05577 0.1593 0.40536 0.0
H22 H 0.09763 0.09879 0.39349 0.0
H23 H 0.0359 0.08661 0.30763 0.0
N24 N 0.99137 0.19051 0.37317 0.0
H25 H 0.99333 0.14622 0.31951 0.0
C26 C 0.15838 0.91614 0.3686 0.0
C27 C 0.20029 0.91581 0.37973 0.0
C28 C 0.21046 0.90319 0.40748 0.0
C29 C 0.17903 0.89238 0.42517 0.0
C30 C 0.13715 0.89458 0.41472 0.0
C31 C 0.12699 0.90583 0.3865 0.0
C32 C 0.17548 0.91307 0.31819 0.0
C33 C 0.17618 0.87033 0.30994 0.0
C34 C 0.20967 0.85303 0.29588 0.0
C35 C 0.24285 0.87833 0.28921 0.0
C36 C 0.24025 0.92169 0.29475 0.0
C37 C 0.20707 0.93897 0.30937 0.0
C38 C 0.13096 0.96898 0.33817 0.0
C39 C 0.15271 0.00363 0.35217 0.0
C40 C 0.13352 0.04249 0.35475 0.0
C41 C 0.09211 0.04746 0.34363 0.0
C42 C 0.0713 0.01312 0.32845 0.0
C43 C 0.09061 0.97439 0.32576 0.0
C44 C 0.97815 0.1898 0.40237 0.0
C45 C 0.97554 0.22749 0.41926 0.0
C46 C 0.95742 0.22873 0.44587 0.0
C47 C 0.94181 0.1921 0.45616 0.0
C48 C 0.94615 0.15409 0.43984 0.0
C49 C 0.96369 0.15295 0.41316 0.0
C50 C 0.95525 0.19731 0.35368 0.0
C51 C 0.92334 0.1671 0.34782 0.0
C52 C 0.88709 0.176 0.33109 0.0
C53 C 0.88174 0.2153 0.31997 0.0
C54 C 0.91396 0.24519 0.32547 0.0
C55 C 0.95027 0.23622 0.3422 0.0
C56 C 0.01826 0.15597 0.36451 0.0
C57 C 0.05052 0.14337 0.38407 0.0
C58 C 0.07513 0.10897 0.37707 0.0
C59 C 0.0694 0.08699 0.34981 0.0
C60 C 0.04002 0.10177 0.32923 0.0
C61 C 0.0152 0.13606 0.33627 0.0
H62 H 0.96311 0.40237 0.64521 0.0
N63 N 0.92172 0.46671 0.62063 0.0
H64 H 0.96281 0.38445 0.69517 0.0
H65 H 0.8812 0.50525 0.66307 0.0
H66 H 0.87803 0.48484 0.71318 0.0
H67 H 0.84156 0.44964 0.60788 0.0
H68 H 0.81097 0.38656 0.58219 0.0
H69 H 0.96444 0.40673 0.58975 0.0
H70 H 0.93403 0.34412 0.5635 0.0
H71 H 0.00605 0.45318 0.63333 0.0
H72 H 0.91892 0.53012 0.58678 0.0
H73 H 0.06324 0.49423 0.62004 0.0
H74 H 0.97728 0.57051 0.57159 0.0
H75 H 0.24867 0.64905 0.6084 0.0
H76 H 0.27713 0.67349 0.65706 0.0
H77 H 0.15267 0.67884 0.68624 0.0
H78 H 0.12423 0.65672 0.63777 0.0
H79 H 0.13413 0.7174 0.59661 0.0
H80 H 0.14601 0.77704 0.5687 0.0
H81 H 0.2274 0.70328 0.51586 0.0
H82 H 0.21313 0.64242 0.54304 0.0
H83 H 0.1662 0.55785 0.58296 0.0
H84 H 0.10542 0.51237 0.58434 0.0
H85 H 0.02662 0.62066 0.59041 0.0
N86 N 0.16897 0.64036 0.58934 0.0
H87 H 0.0866 0.66516 0.58721 0.0
C88 C 0.92347 0.4564 0.65054 0.0
C89 C 0.94582 0.42183 0.66 0.0
C90 C 0.94539 0.41135 0.68859 0.0
C91 C 0.92093 0.43373 0.70804 0.0
C92 C 0.89756 0.46753 0.6986 0.0
C93 C 0.89942 0.47917 0.67014 0.0
C94 C 0.90513 0.43311 0.6008 0.0
C95 C 0.86181 0.42717 0.59763 0.0
C96 C 0.84445 0.39108 0.58305 0.0
C97 C 0.87014 0.36033 0.57096 0.0
C98 C 0.91344 0.36741 0.57245 0.0
C99 C 0.93088 0.4033 0.58749 0.0
C100 C 0.95738 0.48897 0.61169 0.0
C101 C 0.99879 0.47868 0.62008 0.0
C102 C 0.0321 0.50208 0.61194 0.0
C103 C 0.02524 0.53593 0.59466 0.0
C104 C 0.98391 0.5452 0.58534 0.0
C105 C 0.95046 0.52204 0.59387 0.0
C106 C 0.18441 0.65054 0.61908 0.0
C107 C 0.22758 0.65507 0.62536 0.0
C108 C 0.24375 0.66905 0.6531 0.0
C109 C 0.21704 0.67774 0.67536 0.0
C110 C 0.17396 0.6718 0.66952 0.0
C111 C 0.15767 0.65906 0.64157 0.0
C112 C 0.1716 0.67485 0.57125 0.0
C113 C 0.15293 0.71332 0.57821 0.0
C114 C 0.16021 0.74763 0.5624 0.0
C115 C 0.18751 0.74473 0.53999 0.0
C116 C 0.20612 0.70632 0.53295 0.0
C117 C 0.1978 0.67159 0.54828 0.0
C118 C 0.13149 0.61494 0.58528 0.0
C119 C 0.13559 0.57158 0.58382 0.0
C120 C 0.1008 0.5457 0.58499 0.0
C121 C 0.06099 0.56274 0.58821 0.0
C122 C 0.05654 0.60617 0.58777 0.0
C123 C 0.09127 0.63196 0.58605 0.0
H124 H 0.72179 0.46868 0.89232 0.0
N125 N 0.65001 0.43413 0.86535 0.0
H126 H 0.74267 0.47138 0.94379 0.0
H127 H 0.61069 0.39964 0.90683 0.0
H128 H 0.63361 0.39965 0.95879 0.0
H129 H 0.66407 0.35385 0.85408 0.0
H130 H 0.72395 0.3225 0.83149 0.0
H131 H 0.7066 0.4757 0.83515 0.0
H132 H 0.76573 0.44449 0.81205 0.0
H133 H 0.67518 0.51642 0.87628 0.0
H134 H 0.5771 0.43681 0.83467 0.0
H135 H 0.63391 0.57688 0.86779 0.0
H136 H 0.53611 0.49841 0.82387 0.0
H137 H 0.46738 0.76812 0.87203 0.0
H138 H 0.44598 0.79219 0.9199 0.0
H139 H 0.45959 0.66745 0.94765 0.0
H140 H 0.4794 0.6432 0.90015 0.0
H141 H 0.40361 0.65832 0.8569 0.0
H142 H 0.34129 0.66996 0.82577 0.0
H143 H 0.41301 0.74612 0.77387 0.0
H144 H 0.47609 0.73267 0.80468 0.0
H145 H 0.56166 0.68604 0.84195 0.0
H146 H 0.60455 0.62377 0.83743 0.0
H147 H 0.49639 0.54738 0.84826 0.0
N148 N 0.48149 0.6904 0.85204 0.0
H149 H 0.45389 0.60902 0.85078 0.0
C150 C 0.66384 0.43496 0.89572 0.0
C151 C 0.70157 0.45445 0.90655 0.0
C152 C 0.71362 0.45587 0.936 0.0
C153 C 0.68929 0.43633 0.95509 0.0
C154 C 0.65248 0.41536 0.94437 0.0
C155 C 0.63951 0.4153 0.91487 0.0
C156 C 0.6806 0.41702 0.84655 0.0
C157 C 0.68556 0.3737 0.84427 0.0
C158 C 0.71983 0.35589 0.83144 0.0
C159 C 0.74963 0.38111 0.82019 0.0
C160 C 0.74313 0.42426 0.82042 0.0
C161 C 0.70915 0.44218 0.83374 0.0
C162 C 0.62885 0.4714 0.85684 0.0
C163 C 0.64493 0.51165 0.86497 0.0
C164 C 0.62128 0.54679 0.85956 0.0
C165 C 0.58125 0.54291 0.84532 0.0
C166 C 0.56633 0.50275 0.83555 0.0
C167 C 0.58984 0.46745 0.84144 0.0
C168 C 0.47478 0.70384 0.88185 0.0
C169 C 0.46619 0.74604 0.88853 0.0
C170 C 0.45384 0.75972 0.91583 0.0
C171 C 0.4509 0.7316 0.9374 0.0
C172 C 0.46166 0.68984 0.93142 0.0
C173 C 0.47297 0.67591 0.90389 0.0
C174 C 0.4448 0.69394 0.83268 0.0
C175 C 0.40633 0.67631 0.83827 0.0
C176 C 0.37059 0.68333 0.82057 0.0
C177 C 0.3723 0.70894 0.79735 0.0
C178 C 0.41079 0.72628 0.79162 0.0
C179 C 0.44678 0.71851 0.80904 0.0
C180 C 0.50477 0.65258 0.84711 0.0
C181 C 0.54727 0.65571 0.84284 0.0
C182 C 0.57173 0.62002 0.8405 0.0
C183 C 0.55426 0.58028 0.84299 0.0
C184 C 0.5111 0.57713 0.84586 0.0
C185 C 0.48656 0.61275 0.84753 0.0
H186 H 0.52018 0.93176 0.15235 0.0
N187 N 0.4642 0.9795 0.12219 0.0
H188 H 0.50978 0.90037 0.19743 0.0
H189 H 0.40117 0.99223 0.15603 0.0
H190 H 0.38994 0.95979 0.20125 0.0
H191 H 0.39018 0.96304 0.09405 0.0
H192 H 0.3702 0.9022 0.0611 0.0
H193 H 0.51637 0.91859 0.10234 0.0
H194 H 0.49663 0.85747 0.07022 0.0
H195 H 0.52716 0.01271 0.16176 0.0
H196 H 0.48356 0.0072 0.07116 0.0
H197 H 0.58868 0.05031 0.15096 0.0
H198 H 0.54519 0.04679 0.06087 0.0
H199 H 0.79171 0.16631 0.12706 0.0
H200 H 0.80943 0.19112 0.17772 0.0
H201 H 0.67856 0.19682 0.19258 0.0
H202 H 0.66087 0.17476 0.14173 0.0
H203 H 0.66929 0.22468 0.09779 0.0
H204 H 0.68746 0.28696 0.07397 0.0
H205 H 0.79459 0.22444 0.04145 0.0
H206 H 0.77433 0.16073 0.0634 0.0
H207 H 0.71436 0.07669 0.11661 0.0
H208 H 0.65308 0.03235 0.11987 0.0
H209 H 0.5761 0.12176 0.07678 0.0
N210 N 0.71594 0.15395 0.10049 0.0
H211 H 0.63671 0.16601 0.07353 0.0
C212 C 0.46158 0.96497 0.15086 0.0
C213 C 0.49199 0.93877 0.16304 0.0
C214 C 0.48605 0.92093 0.18899 0.0
C215 C 0.44903 0.92765 0.20294 0.0
C216 C 0.41886 0.9542 0.19106 0.0
C217 C 0.42527 0.97284 0.16534 0.0
C218 C 0.45451 0.9453 0.10081 0.0
C219 C 0.41357 0.94031 0.08855 0.0
C220 C 0.40227 0.90554 0.06981 0.0
C221 C 0.43176 0.87481 0.06327 0.0
C222 C 0.47306 0.88034 0.07505 0.0
C223 C 0.4844 0.91528 0.09351 0.0
C224 C 0.50129 0.00346 0.11691 0.0
C225 C 0.53087 0.01804 0.13937 0.0
C226 C 0.56626 0.04023 0.1333 0.0
C227 C 0.57226 0.05029 0.10496 0.0
C228 C 0.5417 0.03863 0.08283 0.0
C229 C 0.50659 0.01572 0.08876 0.0
C230 C 0.72515 0.16793 0.1306 0.0
C231 C 0.76691 0.17302 0.14125 0.0
C232 C 0.77694 0.18712 0.17008 0.0
C233 C 0.7453 0.19522 0.18898 0.0
C234 C 0.70348 0.19007 0.17847 0.0
C235 C 0.6934 0.17744 0.1494 0.0
C236 C 0.71972 0.18735 0.08157 0.0
C237 C 0.69506 0.22331 0.08397 0.0
C238 C 0.7056 0.25901 0.07046 0.0
C239 C 0.742 0.26007 0.05554 0.0
C240 C 0.76588 0.22394 0.05232 0.0
C241 C 0.75434 0.18766 0.06481 0.0
C242 C 0.6807 0.12536 0.09555 0.0
C243 C 0.68445 0.08636 0.10727 0.0
C244 C 0.64944 0.06125 0.10935 0.0
C245 C 0.60987 0.07413 0.09907 0.0
C246 C 0.60631 0.11134 0.08507 0.0
C247 C 0.6413 0.13691 0.08342 0.0
H248 H 0.21761 0.65735 0.90032 0.0
N249 N 0.15351 0.69883 0.92517 0.0
H250 H 0.23532 0.65788 0.85032 0.0
H251 H 0.11535 0.74028 0.88306 0.0
H252 H 0.13552 0.7436 0.83289 0.0
H253 H 0.17229 0.77835 0.93908 0.0
H254 H 0.23549 0.80699 0.96582 0.0
H255 H 0.21234 0.65405 0.9556 0.0
H256 H 0.275 0.68247 0.98287 0.0
H257 H 0.16571 0.61463 0.91135 0.0
H258 H 0.0901 0.7017 0.95906 0.0
H259 H 0.12434 0.55757 0.92449 0.0
H260 H 0.04931 0.64344 0.97398 0.0
H261 H 0.97017 0.37233 0.93761 0.0
H262 H 0.94625 0.34334 0.88897 0.0
H263 H 0.94144 0.46729 0.85903 0.0
H264 H 0.96303 0.49625 0.90747 0.0
H265 H 0.90181 0.48684 0.94834 0.0
H266 H 0.84196 0.47574 0.97631 0.0
H267 H 0.91546 0.39546 0.03015 0.0
H268 H 0.97651 0.40897 0.00294 0.0
H269 H 0.06145 0.45487 0.96241 0.0
H270 H 0.10696 0.51556 0.96076 0.0
H271 H 0.99861 0.59433 0.95479 0.0
N272 N 0.97888 0.45213 0.95622 0.0
H273 H 0.95406 0.53444 0.95813 0.0
C274 C 0.16394 0.69756 0.8953 0.0
C275 C 0.1983 0.675 0.88567 0.0
C276 C 0.20863 0.67553 0.85705 0.0
C277 C 0.1863 0.70024 0.83773 0.0
C278 C 0.15278 0.72387 0.84736 0.0
C279 C 0.14129 0.72194 0.87586 0.0
C280 C 0.18737 0.71423 0.94526 0.0
C281 C 0.19416 0.75736 0.94915 0.0
C282 C 0.2303 0.7736 0.96437 0.0
C283 C 0.26025 0.74694 0.97635 0.0
C284 C 0.25233 0.7038 0.97404 0.0
C285 C 0.21641 0.6875 0.95839 0.0
C286 C 0.13063 0.66327 0.93362 0.0
C287 C 0.1404 0.62191 0.92478 0.0
C288 C 0.11684 0.58868 0.93283 0.0
C289 C 0.08332 0.59558 0.95041 0.0
C290 C 0.07442 0.63683 0.96004 0.0
C291 C 0.09778 0.67021 0.95164 0.0
C292 C 0.9689 0.43636 0.92653 0.0
C293 C 0.96437 0.39319 0.92048 0.0
C294 C 0.95071 0.37672 0.89276 0.0
C295 C 0.94233 0.40314 0.87028 0.0
C296 C 0.94826 0.44623 0.87592 0.0
C297 C 0.96068 0.46281 0.90384 0.0
C298 C 0.94421 0.44985 0.9742 0.0
C299 C 0.90576 0.46844 0.96695 0.0
C300 C 0.87136 0.46164 0.9828 0.0
C301 C 0.87415 0.43488 0.00552 0.0
C302 C 0.91253 0.41634 0.01283 0.0
C303 C 0.94736 0.4242 0.99746 0.0
C304 C 0.00432 0.48957 0.96012 0.0
C305 C 0.04771 0.48545 0.96151 0.0
C306 C 0.07359 0.52017 0.96019 0.0
C307 C 0.05652 0.55993 0.95695 0.0
C308 C 0.01308 0.56442 0.95745 0.0
C309 C 0.98729 0.52975 0.95926 0.0
H310 H 0.6903 0.39443 0.17623 0.0
N311 N 0.68455 0.47205 0.20448 0.0
H312 H 0.71531 0.37873 0.12852 0.0
H313 H 0.705 0.52603 0.16644 0.0
H314 H 0.72781 0.51007 0.11732 0.0
H315 H 0.76171 0.47055 0.22842 0.0
H316 H 0.79499 0.41303 0.2526 0.0
H317 H 0.6427 0.40761 0.22701 0.0
H318 H 0.67564 0.35076 0.25169 0.0
H319 H 0.6141 0.4322 0.1794 0.0
H320 H 0.65886 0.54201 0.23092 0.0
H321 H 0.54404 0.4614 0.17548 0.0
H322 H 0.58919 0.5719 0.22673 0.0
H323 H 0.35487 0.63128 0.1333 0.0
H324 H 0.35619 0.66494 0.08748 0.0
H325 H 0.49012 0.67775 0.1008 0.0
H326 H 0.48852 0.64522 0.14628 0.0
H327 H 0.47897 0.67828 0.19212 0.0
H328 H 0.4695 0.74182 0.22212 0.0
H329 H 0.33965 0.70959 0.22731 0.0
H330 H 0.34961 0.64541 0.19678 0.0
H331 H 0.4516 0.55854 0.13799 0.0
H332 H 0.5121 0.51648 0.14963 0.0
H333 H 0.51685 0.56803 0.23819 0.0
N334 N 0.41886 0.62079 0.17204 0.0
H335 H 0.45694 0.61061 0.22667 0.0
C336 C 0.69685 0.46167 0.17544 0.0
C337 C 0.69894 0.42008 0.16396 0.0
C338 C 0.71318 0.41103 0.13657 0.0
C339 C 0.72396 0.44323 0.11954 0.0
C340 C 0.71992 0.48477 0.13022 0.0
C341 C 0.70698 0.49385 0.15815 0.0
C342 C 0.69987 0.4436 0.22552 0.0
C343 C 0.7425 0.44518 0.23433 0.0
C344 C 0.76148 0.41221 0.24802 0.0
C345 C 0.73795 0.37723 0.25371 0.0
C346 C 0.69453 0.37741 0.24763 0.0
C347 C 0.67562 0.41012 0.23341 0.0
C348 C 0.64179 0.48517 0.20544 0.0
C349 C 0.60868 0.46233 0.19028 0.0
C350 C 0.56868 0.4792 0.18789 0.0
C351 C 0.56099 0.51917 0.20057 0.0
C352 C 0.59376 0.54085 0.21697 0.0
C353 C 0.63367 0.52395 0.21934 0.0
C354 C 0.42139 0.63536 0.14329 0.0
C355 C 0.3845 0.64072 0.12598 0.0
C356 C 0.38532 0.66002 0.09988 0.0
C357 C 0.42325 0.67405 0.09051 0.0
C358 C 0.46036 0.66722 0.10729 0.0
C359 C 0.45946 0.64857 0.13346 0.0
C360 C 0.41487 0.65688 0.19213 0.0
C361 C 0.44847 0.68467 0.19971 0.0
C362 C 0.44297 0.72108 0.21703 0.0
C363 C 0.40371 0.73099 0.22707 0.0
C364 C 0.37029 0.70289 0.21997 0.0
C365 C 0.37589 0.66621 0.20261 0.0
C366 C 0.45174 0.59172 0.18042 0.0
C367 C 0.46584 0.56154 0.15988 0.0
C368 C 0.50021 0.53676 0.1667 0.0
C369 C 0.5204 0.54008 0.19462 0.0
C370 C 0.50321 0.56616 0.21613 0.0
C371 C 0.46889 0.59102 0.2093 0.0
H372 H 0.38707 0.91052 0.418 0.0
N373 N 0.46611 0.91192 0.44526 0.0
H374 H 0.36773 0.88814 0.36782 0.0
H375 H 0.5163 0.88528 0.40448 0.0
H376 H 0.4969 0.865 0.35318 0.0
H377 H 0.45439 0.83725 0.46412 0.0
H378 H 0.39263 0.8129 0.48609 0.0
H379 H 0.40876 0.96309 0.47148 0.0
H380 H 0.34783 0.93901 0.49428 0.0
H381 H 0.43654 0.98364 0.42294 0.0
H382 H 0.53803 0.93291 0.47452 0.0
H383 H 0.4765 0.04758 0.42009 0.0
H384 H 0.57753 0.99781 0.47331 0.0
H385 H 0.63866 0.24012 0.40001 0.0
H386 H 0.66907 0.2535 0.35459 0.0
H387 H 0.68207 0.12103 0.33583 0.0
H388 H 0.65229 0.10796 0.38078 0.0
H389 H 0.71133 0.13236 0.42214 0.0
H390 H 0.77153 0.14788 0.4557 0.0
H391 H 0.69933 0.23707 0.50464 0.0
H392 H 0.63825 0.22036 0.47095 0.0
H393 H 0.55256 0.16819 0.43084 0.0
H394 H 0.50813 0.10982 0.44141 0.0
H395 H 0.61435 0.02823 0.43825 0.0
N396 N 0.63403 0.16772 0.42386 0.0
H397 H 0.65819 0.08632 0.42913 0.0
C398 C 0.45336 0.89865 0.41544 0.0
C399 C 0.4114 0.89981 0.40444 0.0
C400 C 0.40025 0.88709 0.3756 0.0
C401 C 0.4308 0.87453 0.35677 0.0
C402 C 0.47277 0.8744 0.36736 0.0
C403 C 0.48383 0.88585 0.39656 0.0
C404 C 0.43634 0.90179 0.46578 0.0
C405 C 0.43203 0.85987 0.47163 0.0
C406 C 0.3967 0.84599 0.4841 0.0
C407 C 0.36536 0.87404 0.49167 0.0
C408 C 0.37169 0.91676 0.48882 0.0
C409 C 0.40668 0.93057 0.47568 0.0
C410 C 0.48472 0.95311 0.4486 0.0
C411 C 0.46706 0.98671 0.43433 0.0
C412 C 0.48998 0.02348 0.43285 0.0
C413 C 0.53075 0.02771 0.44594 0.0
C414 C 0.54679 0.99527 0.46218 0.0
C415 C 0.52408 0.95833 0.4633 0.0
C416 C 0.64317 0.17321 0.39423 0.0
C417 C 0.647 0.21397 0.38566 0.0
C418 C 0.66456 0.22156 0.35976 0.0
C419 C 0.67853 0.18836 0.34178 0.0
C420 C 0.67189 0.14738 0.34927 0.0
C421 C 0.65458 0.13983 0.37521 0.0
C422 C 0.66988 0.17495 0.44419 0.0
C423 C 0.70797 0.15467 0.44032 0.0
C424 C 0.7426 0.16374 0.45956 0.0
C425 C 0.74026 0.19373 0.48288 0.0
C426 C 0.70215 0.21383 0.48687 0.0
C427 C 0.66725 0.20431 0.46774 0.0
C428 C 0.60867 0.13202 0.42895 0.0
C429 C 0.56609 0.13763 0.43248 0.0
C430 C 0.54077 0.10418 0.43846 0.0
C431 C 0.55757 0.06414 0.44089 0.0
C432 C 0.60032 0.05864 0.43727 0.0
C433 C 0.62558 0.0921 0.43163 0.0
H434 H 0.15149 0.89838 0.65218 0.0
N435 N 0.18617 0.97001 0.6792 0.0
H436 H 0.14939 0.87726 0.60077 0.0
H437 H 0.22139 0.00897 0.63785 0.0
H438 H 0.22204 0.98576 0.58598 0.0
H439 H 0.26646 0.95587 0.69071 0.0
H440 H 0.29763 0.89615 0.71357 0.0
H441 H 0.1443 0.91362 0.70937 0.0
H442 H 0.17534 0.85466 0.73274 0.0
H443 H 0.10383 0.94484 0.66818 0.0
H444 H 0.18339 0.04307 0.7096 0.0
H445 H 0.04324 0.98596 0.67674 0.0
H446 H 0.12167 0.08396 0.72036 0.0
H447 H 0.85049 0.15091 0.67526 0.0
H448 H 0.82458 0.17269 0.62787 0.0
H449 H 0.94831 0.16046 0.59798 0.0
H450 H 0.9744 0.14032 0.64504 0.0
H451 H 0.96067 0.21553 0.68838 0.0
H452 H 0.94955 0.27804 0.71942 0.0
H453 H 0.87519 0.20665 0.77268 0.0
H454 H 0.88818 0.14339 0.74198 0.0
H455 H 0.93409 0.05761 0.70396 0.0
H456 H 0.99669 0.01502 0.70774 0.0
H457 H 0.07217 0.12334 0.69583 0.0
N458 N 0.92902 0.13772 0.69397 0.0
H459 H 0.01025 0.16555 0.69394 0.0
C460 C 0.18556 0.95612 0.64885 0.0
C461 C 0.16599 0.91848 0.63799 0.0
C462 C 0.16492 0.90628 0.60858 0.0
C463 C 0.18492 0.93036 0.58956 0.0
C464 C 0.20595 0.9671 0.60032 0.0
C465 C 0.20564 0.98023 0.62978 0.0
C466 C 0.20315 0.93948 0.69809 0.0
C467 C 0.2465 0.93448 0.70051 0.0
C468 C 0.26421 0.90029 0.71349 0.0
C469 C 0.23886 0.87062 0.72476 0.0
C470 C 0.19567 0.87716 0.72436 0.0
C471 C 0.17785 0.91104 0.71089 0.0
C472 C 0.14883 0.99122 0.68756 0.0
C473 C 0.10857 0.97509 0.67945 0.0
C474 C 0.07337 0.99865 0.68488 0.0
C475 C 0.07721 0.03867 0.6991 0.0
C476 C 0.11739 0.05372 0.70875 0.0
C477 C 0.15274 0.03028 0.70286 0.0
C478 C 0.91443 0.1442 0.66434 0.0
C479 C 0.87194 0.15242 0.65838 0.0
C480 C 0.85721 0.16497 0.63136 0.0
C481 C 0.88452 0.16847 0.60934 0.0
C482 C 0.92653 0.15793 0.61457 0.0
C483 C 0.94152 0.14644 0.64183 0.0
C484 C 0.92598 0.17449 0.71331 0.0
C485 C 0.94325 0.21292 0.7073 0.0
C486 C 0.93651 0.24877 0.72494 0.0
C487 C 0.9115 0.24721 0.7485 0.0
C488 C 0.89456 0.20876 0.75466 0.0
C489 C 0.90208 0.17267 0.7373 0.0
C490 C 0.96709 0.11458 0.6983 0.0
C491 C 0.9643 0.07211 0.70265 0.0
C492 C 1.00017 0.04782 0.70457 0.0
C493 C 0.03972 0.06545 0.70163 0.0
C494 C 0.04255 0.10854 0.69859 0.0
C495 C 0.00677 0.13291 0.69729 0.0
O496 O 0.40893 0.77535 0.96655 0.0
Cd497 Cd 0.36967 0.78669 0.99948 0.0
Cd498 Cd 0.42796 0.74531 0.02871 0.0
O499 O 0.44271 0.72491 0.98751 0.0
O500 O 0.3144 0.79903 0.9802 0.0
O501 O 0.3269 0.74213 0.00351 0.0
C502 C 0.30148 0.76369 0.98783 0.0
C503 C 0.42436 0.69884 0.06487 0.0
C504 C 0.43407 0.74506 0.9653 0.0
C505 C 0.4194 0.83654 0.04508 0.0
O506 O 0.44362 0.80546 0.04457 0.0
O507 O 0.38439 0.83431 0.03057 0.0
O508 O 0.45955 0.71028 0.05612 0.0
O509 O 0.39067 0.7123 0.05197 0.0
O510 O 0.38333 0.84504 0.31952 0.0
Cd511 Cd 0.35034 0.83331 0.27985 0.0
Cd512 Cd 0.42786 0.85802 0.26308 0.0
O513 O 0.4415 0.87288 0.30652 0.0
O514 O 0.29274 0.82357 0.29125 0.0
O515 O 0.31051 0.87908 0.26928 0.0
C516 C 0.28273 0.85911 0.28181 0.0
C517 C 0.44089 0.90393 0.22816 0.0
C518 C 0.41843 0.86288 0.32608 0.0
C519 C 0.39792 0.77128 0.24378 0.0
O520 O 0.42844 0.79667 0.24795 0.0
O521 O 0.36264 0.78102 0.25292 0.0
O522 O 0.47069 0.88432 0.24123 0.0
O523 O 0.40354 0.89927 0.23618 0.0
O524 O 0.22199 0.85516 0.45761 0.0
Cd525 Cd 0.25349 0.83822 0.4953 0.0
Cd526 Cd 0.1838 0.87238 0.51679 0.0
O527 O 0.17062 0.89157 0.47571 0.0
O528 O 0.31004 0.82385 0.48309 0.0
O529 O 0.29772 0.87997 0.51142 0.0
C530 C 0.32354 0.85807 0.49672 0.0
C531 C 0.18489 0.91476 0.55909 0.0
C532 C 0.19059 0.87862 0.45423 0.0
C533 C 0.19803 0.78259 0.52561 0.0
O534 O 0.1719 0.81191 0.52485 0.0
O535 O 0.23401 0.78726 0.51643 0.0
O536 O 0.15017 0.90321 0.54516 0.0
O537 O 0.2194 0.90541 0.54758 0.0
O538 O 0.26455 0.72124 0.70501 0.0
Cd539 Cd 0.28041 0.76351 0.73936 0.0
Cd540 Cd 0.24007 0.70639 0.76843 0.0
O541 O 0.21573 0.68934 0.72662 0.0
O542 O 0.2906 0.81734 0.72245 0.0
O543 O 0.23716 0.80625 0.74869 0.0
C544 C 0.2567 0.83059 0.73307 0.0
C545 C 0.2009 0.70279 0.80853 0.0
C546 C 0.2337 0.69623 0.70383 0.0
C547 C 0.33357 0.71884 0.78029 0.0
O548 O 0.30178 0.69543 0.78081 0.0
O549 O 0.33138 0.75153 0.76652 0.0
O550 O 0.21355 0.66968 0.79471 0.0
O551 O 0.20726 0.73828 0.79812 0.0
O552 O 0.84023 0.21174 0.58167 0.0
Cd553 Cd 0.82756 0.25154 0.5494 0.0
Cd554 Cd 0.87018 0.19433 0.51806 0.0
O555 O 0.8893 0.17777 0.5592 0.0
O556 O 0.81725 0.3071 0.5689 0.0
O557 O 0.87254 0.29327 0.54406 0.0
C558 C 0.85228 0.31925 0.56021 0.0
C559 C 0.91742 0.19352 0.48209 0.0
C560 C 0.87009 0.18606 0.5819 0.0
C561 C 0.77793 0.20469 0.50215 0.0
O562 O 0.81001 0.18195 0.50071 0.0
O563 O 0.77876 0.23732 0.51921 0.0
O564 O 0.90342 0.15959 0.49117 0.0
O565 O 0.90642 0.2284 0.49472 0.0
O566 O 0.89895 0.3555 0.84069 0.0
Cd567 Cd 0.85696 0.33944 0.80622 0.0
Cd568 Cd 0.91443 0.37954 0.77713 0.0
O569 O 0.93133 0.40387 0.81896 0.0
O570 O 0.80292 0.32942 0.82293 0.0
O571 O 0.81429 0.38258 0.79652 0.0
C572 C 0.78977 0.3632 0.81211 0.0
C573 C 0.91827 0.41889 0.73716 0.0
C574 C 0.92412 0.3862 0.84181 0.0
C575 C 0.90172 0.28602 0.76546 0.0
O576 O 0.92508 0.3178 0.76471 0.0
O577 O 0.86912 0.28828 0.77934 0.0
O578 O 0.95133 0.406 0.75093 0.0
O579 O 0.88271 0.41257 0.7475 0.0
O580 O 0.76384 0.40202 0.08788 0.0
Cd581 Cd 0.78049 0.36997 0.05045 0.0
Cd582 Cd 0.7463 0.43893 0.0283 0.0
O583 O 0.72587 0.4518 0.06908 0.0
O584 O 0.79406 0.31331 0.06274 0.0
O585 O 0.73758 0.32676 0.03492 0.0
C586 C 0.75926 0.30068 0.0495 0.0
C587 C 0.70461 0.4369 0.98565 0.0
C588 C 0.7393 0.43262 0.09083 0.0
C589 C 0.83622 0.42467 0.01991 0.0
O590 O 0.80705 0.45099 0.02074 0.0
O591 O 0.83131 0.38871 0.02899 0.0
O592 O 0.7156 0.47186 0.99943 0.0
O593 O 0.71418 0.40268 0.99743 0.0
O594 O 0.78452 0.23729 0.22524 0.0
Cd595 Cd 0.78968 0.27328 0.26384 0.0
Cd596 Cd 0.75234 0.20704 0.2831 0.0
O597 O 0.73491 0.19741 0.23927 0.0
O598 O 0.79656 0.33159 0.25335 0.0
O599 O 0.74001 0.30868 0.27215 0.0
C600 C 0.75931 0.33842 0.26109 0.0
C601 C 0.70402 0.19612 0.31726 0.0
C602 C 0.75571 0.2103 0.21931 0.0
C603 C 0.84253 0.22518 0.30316 0.0
O604 O 0.81362 0.19788 0.29859 0.0
O605 O 0.8376 0.26096 0.29358 0.0
O606 O 0.72023 0.16546 0.30274 0.0
O607 O 0.71382 0.23345 0.31138 0.0
loop_
_geom_bond_atom_site_label_1
_geom_bond_atom_site_label_2
_geom_bond_distance
_geom_bond_site_symmetry_2
_ccdc_geom_bond_type
H0 C27 0.929 . S
N1 C26 1.433 . S
N1 C32 1.435 . S
N1 C38 1.423 . S
H2 C28 0.930 . S
H3 C31 0.931 . S
H4 C30 0.929 . S
H5 C33 0.930 . S
H6 C34 0.932 . S
H7 C37 0.929 . S
H8 C36 0.931 . S
H9 C39 0.929 . S
H10 C43 0.932 . S
H11 C40 0.931 . S
H12 C42 0.929 . S
H13 C45 0.929 . S
H14 C46 0.930 . S
H15 C48 0.929 . S
H16 C49 0.931 . S
H17 C51 0.930 . S
H18 C52 0.932 . S
H19 C54 0.931 . S
H20 C55 0.929 . S
H21 C57 0.929 . S
H22 C58 0.931 . S
H23 C60 0.929 . S
N24 C44 1.433 . S
N24 C50 1.435 . S
N24 C56 1.423 1_655 S
H25 C61 0.932 1_655 S
C26 N1 1.433 . S
C26 C27 1.363 . S
C26 C31 1.370 . S
C27 H0 0.929 . S
C27 C26 1.363 . S
C27 C28 1.385 . S
C28 H2 0.930 . S
C28 C27 1.385 . S
C28 C29 1.357 . S
C29 C28 1.357 . S
C29 C30 1.406 . S
C30 H4 0.929 . S
C30 C29 1.406 . S
C30 C31 1.391 . S
C31 H3 0.931 . S
C31 C26 1.370 . S
C31 C30 1.391 . S
C32 N1 1.435 . S
C32 C33 1.358 . S
C32 C37 1.371 . S
C33 H5 0.930 . S
C33 C32 1.358 . S
C33 C34 1.405 . S
C34 H6 0.932 . S
C34 C33 1.405 . S
C34 C35 1.383 . S
C35 C34 1.383 . S
C35 C36 1.393 . S
C36 H8 0.931 . S
C36 C35 1.393 . S
C36 C37 1.382 . S
C37 H7 0.929 . S
C37 C32 1.371 . S
C37 C36 1.382 . S
C38 N1 1.423 . S
C38 C39 1.362 1_565 S
C38 C43 1.388 . S
C39 H9 0.929 . S
C39 C38 1.362 1_545 S
C39 C40 1.376 . S
C40 H11 0.931 . S
C40 C39 1.376 . S
C40 C41 1.396 . S
C41 C40 1.396 . S
C41 C42 1.348 1_545 S
C41 C59 1.472 . S
C42 H12 0.929 . S
C42 C41 1.348 1_565 S
C42 C43 1.443 . S
C43 H10 0.932 . S
C43 C38 1.388 . S
C43 C42 1.443 . S
C44 N24 1.433 . S
C44 C45 1.363 . S
C44 C49 1.370 . S
C45 H13 0.929 . S
C45 C44 1.363 . S
C45 C46 1.385 . S
C46 H14 0.930 . S
C46 C45 1.385 . S
C46 C47 1.357 . S
C47 C46 1.357 . S
C47 C48 1.406 . S
C48 H15 0.929 . S
C48 C47 1.406 . S
C48 C49 1.391 . S
C49 H16 0.931 . S
C49 C44 1.370 . S
C49 C48 1.391 . S
C50 N24 1.435 . S
C50 C51 1.358 . S
C50 C55 1.371 . S
C51 H17 0.930 . S
C51 C50 1.358 . S
C51 C52 1.405 . S
C52 H18 0.932 . S
C52 C51 1.405 . S
C52 C53 1.383 . S
C53 C52 1.383 . S
C53 C54 1.393 . S
C54 H19 0.931 . S
C54 C53 1.393 . S
C54 C55 1.382 . S
C55 H20 0.929 . S
C55 C50 1.371 . S
C55 C54 1.382 . S
C56 N24 1.423 1_455 S
C56 C57 1.362 . S
C56 C61 1.388 . S
C57 H21 0.929 . S
C57 C56 1.362 . S
C57 C58 1.376 . S
C58 H22 0.931 . S
C58 C57 1.376 . S
C58 C59 1.396 . S
C59 C41 1.472 . S
C59 C58 1.396 . S
C59 C60 1.348 . S
C60 H23 0.929 . S
C60 C59 1.348 . S
C60 C61 1.443 . S
C61 H25 0.932 1_455 S
C61 C56 1.388 . S
C61 C60 1.443 . S
H62 C89 0.929 . S
N63 C88 1.433 . S
N63 C94 1.435 . S
N63 C100 1.423 . S
H64 C90 0.930 . S
H65 C93 0.931 . S
H66 C92 0.929 . S
H67 C95 0.930 . S
H68 C96 0.932 . S
H69 C99 0.929 1_455 S
H70 C98 0.931 . S
H71 C101 0.929 . S
H72 C105 0.932 . S
H73 C102 0.931 . S
H74 C104 0.929 . S
H75 C107 0.929 . S
H76 C108 0.930 . S
H77 C110 0.929 . S
H78 C111 0.931 . S
H79 C113 0.930 . S
H80 C114 0.932 . S
H81 C116 0.931 . S
H82 C117 0.929 . S
H83 C119 0.929 . S
H84 C120 0.931 . S
H85 C122 0.929 . S
N86 C106 1.433 . S
N86 C112 1.435 . S
N86 C118 1.423 . S
H87 C123 0.932 . S
C88 N63 1.433 . S
C88 C89 1.363 . S
C88 C93 1.370 . S
C89 H62 0.929 . S
C89 C88 1.363 . S
C89 C90 1.385 . S
C90 H64 0.930 . S
C90 C89 1.385 . S
C90 C91 1.357 . S
C91 C90 1.357 . S
C91 C92 1.406 . S
C92 H66 0.929 . S
C92 C91 1.406 . S
C92 C93 1.391 . S
C93 H65 0.931 . S
C93 C88 1.370 . S
C93 C92 1.391 . S
C94 N63 1.435 . S
C94 C95 1.358 . S
C94 C99 1.371 . S
C95 H67 0.930 . S
C95 C94 1.358 . S
C95 C96 1.405 . S
C96 H68 0.932 . S
C96 C95 1.405 . S
C96 C97 1.383 . S
C97 C96 1.383 . S
C97 C98 1.393 . S
C98 H70 0.931 . S
C98 C97 1.393 . S
C98 C99 1.382 . S
C99 H69 0.929 1_655 S
C99 C94 1.371 . S
C99 C98 1.382 . S
C100 N63 1.423 . S
C100 C101 1.362 1_655 S
C100 C105 1.388 . S
C101 H71 0.929 . S
C101 C100 1.362 1_455 S
C101 C102 1.376 . S
C102 H73 0.931 . S
C102 C101 1.376 . S
C102 C103 1.396 . S
C103 C102 1.396 . S
C103 C104 1.348 . S
C103 C121 1.472 . S
C104 H74 0.929 . S
C104 C103 1.348 . S
C104 C105 1.443 1_455 S
C105 H72 0.932 . S
C105 C100 1.388 . S
C105 C104 1.443 1_655 S
C106 N86 1.433 . S
C106 C107 1.363 . S
C106 C111 1.370 . S
C107 H75 0.929 . S
C107 C106 1.363 . S
C107 C108 1.385 . S
C108 H76 0.930 . S
C108 C107 1.385 . S
C108 C109 1.357 . S
C109 C108 1.357 . S
C109 C110 1.406 . S
C110 H77 0.929 . S
C110 C109 1.406 . S
C110 C111 1.391 . S
C111 H78 0.931 . S
C111 C106 1.370 . S
C111 C110 1.391 . S
C112 N86 1.435 . S
C112 C113 1.358 . S
C112 C117 1.371 . S
C113 H79 0.930 . S
C113 C112 1.358 . S
C113 C114 1.405 . S
C114 H80 0.932 . S
C114 C113 1.405 . S
C114 C115 1.383 . S
C115 C114 1.383 . S
C115 C116 1.393 . S
C116 H81 0.931 . S
C116 C115 1.393 . S
C116 C117 1.382 . S
C117 H82 0.929 . S
C117 C112 1.371 . S
C117 C116 1.382 . S
C118 N86 1.423 . S
C118 C119 1.362 . S
C118 C123 1.388 . S
C119 H83 0.929 . S
C119 C118 1.362 . S
C119 C120 1.376 . S
C120 H84 0.931 . S
C120 C119 1.376 . S
C120 C121 1.396 . S
C121 C103 1.472 . S
C121 C120 1.396 . S
C121 C122 1.348 . S
C122 H85 0.929 . S
C122 C121 1.348 . S
C122 C123 1.443 . S
C123 H87 0.932 . S
C123 C118 1.388 . S
C123 C122 1.443 . S
H124 C151 0.929 . S
N125 C150 1.433 . S
N125 C156 1.435 . S
N125 C162 1.423 . S
H126 C152 0.930 . S
H127 C155 0.931 . S
H128 C154 0.929 . S
H129 C157 0.930 . S
H130 C158 0.932 . S
H131 C161 0.929 . S
H132 C160 0.931 . S
H133 C163 0.929 . S
H134 C167 0.932 . S
H135 C164 0.931 . S
H136 C166 0.929 . S
H137 C169 0.929 . S
H138 C170 0.930 . S
H139 C172 0.929 . S
H140 C173 0.931 . S
H141 C175 0.930 . S
H142 C176 0.932 . S
H143 C178 0.931 . S
H144 C179 0.929 . S
H145 C181 0.929 . S
H146 C182 0.931 . S
H147 C184 0.929 . S
N148 C168 1.433 . S
N148 C174 1.435 . S
N148 C180 1.423 . S
H149 C185 0.932 . S
C150 N125 1.433 . S
C150 C151 1.363 . S
C150 C155 1.370 . S
C151 H124 0.929 . S
C151 C150 1.363 . S
C151 C152 1.385 . S
C152 H126 0.930 . S
C152 C151 1.385 . S
C152 C153 1.357 . S
C153 C152 1.357 . S
C153 C154 1.406 . S
C154 H128 0.929 . S
C154 C153 1.406 . S
C154 C155 1.391 . S
C155 H127 0.931 . S
C155 C150 1.370 . S
C155 C154 1.391 . S
C156 N125 1.435 . S
C156 C157 1.358 . S
C156 C161 1.371 . S
C157 H129 0.930 . S
C157 C156 1.358 . S
C157 C158 1.405 . S
C158 H130 0.932 . S
C158 C157 1.405 . S
C158 C159 1.383 . S
C159 C158 1.383 . S
C159 C160 1.393 . S
C160 H132 0.931 . S
C160 C159 1.393 . S
C160 C161 1.382 . S
C161 H131 0.929 . S
C161 C156 1.371 . S
C161 C160 1.382 . S
C162 N125 1.423 . S
C162 C163 1.362 . S
C162 C167 1.388 . S
C163 H133 0.929 . S
C163 C162 1.362 . S
C163 C164 1.376 . S
C164 H135 0.931 . S
C164 C163 1.376 . S
C164 C165 1.396 . S
C165 C164 1.396 . S
C165 C166 1.348 . S
C165 C183 1.472 . S
C166 H136 0.929 . S
C166 C165 1.348 . S
C166 C167 1.443 . S
C167 H134 0.932 . S
C167 C162 1.388 . S
C167 C166 1.443 . S
C168 N148 1.433 . S
C168 C169 1.363 . S
C168 C173 1.370 . S
C169 H137 0.929 . S
C169 C168 1.363 . S
C169 C170 1.385 . S
C170 H138 0.930 . S
C170 C169 1.385 . S
C170 C171 1.357 . S
C171 C170 1.357 . S
C171 C172 1.406 . S
C172 H139 0.929 . S
C172 C171 1.406 . S
C172 C173 1.391 . S
C173 H140 0.931 . S
C173 C168 1.370 . S
C173 C172 1.391 . S
C174 N148 1.435 . S
C174 C175 1.358 . S
C174 C179 1.371 . S
C175 H141 0.930 . S
C175 C174 1.358 . S
C175 C176 1.405 . S
C176 H142 0.932 . S
C176 C175 1.405 . S
C176 C177 1.383 . S
C177 C176 1.383 . S
C177 C178 1.393 . S
C178 H143 0.931 . S
C178 C177 1.393 . S
C178 C179 1.382 . S
C179 H144 0.929 . S
C179 C174 1.371 . S
C179 C178 1.382 . S
C180 N148 1.423 . S
C180 C181 1.362 . S
C180 C185 1.388 . S
C181 H145 0.929 . S
C181 C180 1.362 . S
C181 C182 1.376 . S
C182 H146 0.931 . S
C182 C181 1.376 . S
C182 C183 1.396 . S
C183 C165 1.472 . S
C183 C182 1.396 . S
C183 C184 1.348 . S
C184 H147 0.929 . S
C184 C183 1.348 . S
C184 C185 1.443 . S
C185 H149 0.932 . S
C185 C180 1.388 . S
C185 C184 1.443 . S
H186 C213 0.929 . S
N187 C212 1.433 . S
N187 C218 1.435 . S
N187 C224 1.423 . S
H188 C214 0.930 . S
H189 C217 0.931 . S
H190 C216 0.929 . S
H191 C219 0.930 . S
H192 C220 0.932 . S
H193 C223 0.929 . S
H194 C222 0.931 1_556 S
H195 C225 0.929 . S
H196 C229 0.932 . S
H197 C226 0.931 . S
H198 C228 0.929 . S
H199 C231 0.929 . S
H200 C232 0.930 . S
H201 C234 0.929 . S
H202 C235 0.931 . S
H203 C237 0.930 . S
H204 C238 0.932 . S
H205 C240 0.931 1_556 S
H206 C241 0.929 . S
H207 C243 0.929 . S
H208 C244 0.931 1_565 S
H209 C246 0.929 . S
N210 C230 1.433 . S
N210 C236 1.435 . S
N210 C242 1.423 . S
H211 C247 0.932 . S
C212 N187 1.433 . S
C212 C213 1.363 . S
C212 C217 1.370 . S
C213 H186 0.929 . S
C213 C212 1.363 . S
C213 C214 1.385 . S
C214 H188 0.930 . S
C214 C213 1.385 . S
C214 C215 1.357 . S
C215 C214 1.357 . S
C215 C216 1.406 . S
C216 H190 0.929 . S
C216 C215 1.406 . S
C216 C217 1.391 . S
C217 H189 0.931 . S
C217 C212 1.370 . S
C217 C216 1.391 . S
C218 N187 1.435 . S
C218 C219 1.358 . S
C218 C223 1.371 . S
C219 H191 0.930 . S
C219 C218 1.358 . S
C219 C220 1.405 . S
C220 H192 0.932 . S
C220 C219 1.405 . S
C220 C221 1.383 . S
C221 C220 1.383 . S
C221 C222 1.393 . S
C222 H194 0.931 1_554 S
C222 C221 1.393 . S
C222 C223 1.382 . S
C223 H193 0.929 . S
C223 C218 1.371 . S
C223 C222 1.382 . S
C224 N187 1.423 . S
C224 C225 1.362 . S
C224 C229 1.388 . S
C225 H195 0.929 . S
C225 C224 1.362 . S
C225 C226 1.376 . S
C226 H197 0.931 . S
C226 C225 1.376 . S
C226 C227 1.396 . S
C227 C226 1.396 . S
C227 C228 1.348 . S
C227 C245 1.478 . S
C228 H198 0.929 . S
C228 C227 1.348 . S
C228 C229 1.443 . S
C229 H196 0.932 . S
C229 C224 1.388 . S
C229 C228 1.443 . S
C230 N210 1.433 . S
C230 C231 1.363 . S
C230 C235 1.370 . S
C231 H199 0.929 . S
C231 C230 1.363 . S
C231 C232 1.385 . S
C232 H200 0.930 . S
C232 C231 1.385 . S
C232 C233 1.357 . S
C233 C232 1.357 . S
C233 C234 1.406 . S
C234 H201 0.929 . S
C234 C233 1.406 . S
C234 C235 1.391 . S
C235 H202 0.931 . S
C235 C230 1.370 . S
C235 C234 1.391 . S
C236 N210 1.435 . S
C236 C237 1.358 . S
C236 C241 1.371 . S
C237 H203 0.930 . S
C237 C236 1.358 . S
C237 C238 1.405 . S
C238 H204 0.932 . S
C238 C237 1.405 . S
C238 C239 1.383 . S
C239 C238 1.383 . S
C239 C240 1.393 . S
C240 H205 0.931 1_554 S
C240 C239 1.393 . S
C240 C241 1.382 . S
C241 H206 0.929 . S
C241 C236 1.371 . S
C241 C240 1.382 . S
C242 N210 1.423 . S
C242 C243 1.362 . S
C242 C247 1.388 . S
C243 H207 0.929 . S
C243 C242 1.362 . S
C243 C244 1.376 . S
C244 H208 0.931 1_545 S
C244 C243 1.376 . S
C244 C245 1.395 1_545 S
C245 C227 1.478 . S
C245 C244 1.395 1_565 S
C245 C246 1.342 1_565 S
C246 H209 0.929 . S
C246 C245 1.342 1_545 S
C246 C247 1.443 . S
C247 H211 0.932 . S
C247 C242 1.388 . S
C247 C246 1.443 . S
H248 C275 0.929 . S
N249 C274 1.433 . S
N249 C280 1.435 . S
N249 C286 1.423 . S
H250 C276 0.930 . S
H251 C279 0.931 . S
H252 C278 0.929 . S
H253 C281 0.930 1_556 S
H254 C282 0.932 . S
H255 C285 0.929 . S
H256 C284 0.931 . S
H257 C287 0.929 . S
H258 C291 0.932 1_554 S
H259 C288 0.931 . S
H260 C290 0.929 1_554 S
H261 C293 0.929 . S
H262 C294 0.930 . S
H263 C296 0.929 . S
H264 C297 0.931 . S
H265 C299 0.930 . S
H266 C300 0.932 . S
H267 C302 0.931 . S
H268 C303 0.929 . S
H269 C305 0.929 . S
H270 C306 0.931 1_455 S
H271 C308 0.963 . S
N272 C292 1.433 . S
N272 C298 1.435 . S
N272 C304 1.423 . S
H273 C309 0.932 . S
C274 N249 1.433 . S
C274 C275 1.363 . S
C274 C279 1.370 . S
C275 H248 0.929 . S
C275 C274 1.363 . S
C275 C276 1.385 . S
C276 H250 0.930 . S
C276 C275 1.385 . S
C276 C277 1.357 . S
C277 C276 1.357 . S
C277 C278 1.406 . S
C278 H252 0.929 . S
C278 C277 1.406 . S
C278 C279 1.391 . S
C279 H251 0.931 . S
C279 C274 1.370 . S
C279 C278 1.391 . S
C280 N249 1.435 . S
C280 C281 1.358 1_556 S
C280 C285 1.371 1_556 S
C281 H253 0.930 1_554 S
C281 C280 1.358 1_554 S
C281 C282 1.405 . S
C282 H254 0.932 . S
C282 C281 1.405 . S
C282 C283 1.383 . S
C283 C282 1.383 . S
C283 C284 1.393 . S
C284 H256 0.931 . S
C284 C283 1.393 . S
C284 C285 1.382 . S
C285 H255 0.929 . S
C285 C280 1.371 1_554 S
C285 C284 1.382 . S
C286 N249 1.423 . S
C286 C287 1.362 . S
C286 C291 1.388 . S
C287 H257 0.929 . S
C287 C286 1.362 . S
C287 C288 1.376 . S
C288 H259 0.931 . S
C288 C287 1.376 . S
C288 C289 1.396 . S
C289 C288 1.396 . S
C289 C290 1.348 . S
C289 C307 1.472 . S
C290 H260 0.929 1_556 S
C290 C289 1.348 . S
C290 C291 1.443 . S
C291 H258 0.932 1_556 S
C291 C286 1.388 . S
C291 C290 1.443 . S
C292 N272 1.433 . S
C292 C293 1.363 . S
C292 C297 1.370 . S
C293 H261 0.929 . S
C293 C292 1.363 . S
C293 C294 1.385 . S
C294 H262 0.930 . S
C294 C293 1.385 . S
C294 C295 1.357 . S
C295 C294 1.357 . S
C295 C296 1.406 . S
C296 H263 0.929 . S
C296 C295 1.406 . S
C296 C297 1.391 . S
C297 H264 0.931 . S
C297 C292 1.370 . S
C297 C296 1.391 . S
C298 N272 1.435 . S
C298 C299 1.358 . S
C298 C303 1.371 . S
C299 H265 0.930 . S
C299 C298 1.358 . S
C299 C300 1.405 . S
C300 H266 0.932 . S
C300 C299 1.405 . S
C300 C301 1.383 1_556 S
C301 C300 1.383 1_554 S
C301 C302 1.393 . S
C302 H267 0.931 . S
C302 C301 1.393 . S
C302 C303 1.382 1_554 S
C303 H268 0.929 . S
C303 C298 1.371 . S
C303 C302 1.382 1_556 S
C304 N272 1.423 . S
C304 C305 1.362 . S
C304 C309 1.388 . S
C305 H269 0.929 . S
C305 C304 1.362 . S
C305 C306 1.376 . S
C306 H270 0.931 1_655 S
C306 C305 1.376 . S
C306 C307 1.396 1_655 S
C307 C289 1.472 . S
C307 C306 1.396 1_455 S
C307 C308 1.348 1_455 S
C308 H271 0.963 . S
C308 C307 1.348 1_655 S
C308 C309 1.443 . S
C309 H273 0.932 . S
C309 C304 1.388 . S
C309 C308 1.443 . S
H310 C337 0.929 . S
N311 C336 1.433 . S
N311 C342 1.435 . S
N311 C348 1.423 . S
H312 C338 0.930 . S
H313 C341 0.931 . S
H314 C340 0.929 . S
H315 C343 0.930 . S
H316 C344 0.932 . S
H317 C347 0.929 . S
H318 C346 0.931 . S
H319 C349 0.929 . S
H320 C353 0.932 . S
H321 C350 0.931 . S
H322 C352 0.929 . S
H323 C355 0.929 . S
H324 C356 0.930 . S
H325 C358 0.929 . S
H326 C359 0.931 . S
H327 C361 0.930 . S
H328 C362 0.932 . S
H329 C364 0.931 . S
H330 C365 0.929 . S
H331 C367 0.929 . S
H332 C368 0.931 . S
H333 C370 0.929 . S
N334 C354 1.433 . S
N334 C360 1.435 . S
N334 C366 1.423 . S
H335 C371 0.932 . S
C336 N311 1.433 . S
C336 C337 1.363 . S
C336 C341 1.370 . S
C337 H310 0.929 . S
C337 C336 1.363 . S
C337 C338 1.385 . S
C338 H312 0.930 . S
C338 C337 1.385 . S
C338 C339 1.357 . S
C339 C338 1.357 . S
C339 C340 1.406 . S
C340 H314 0.929 . S
C340 C339 1.406 . S
C340 C341 1.391 . S
C341 H313 0.931 . S
C341 C336 1.370 . S
C341 C340 1.391 . S
C342 N311 1.435 . S
C342 C343 1.358 . S
C342 C347 1.371 . S
C343 H315 0.930 . S
C343 C342 1.358 . S
C343 C344 1.405 . S
C344 H316 0.932 . S
C344 C343 1.405 . S
C344 C345 1.383 . S
C345 C344 1.383 . S
C345 C346 1.393 . S
C346 H318 0.931 . S
C346 C345 1.393 . S
C346 C347 1.382 . S
C347 H317 0.929 . S
C347 C342 1.371 . S
C347 C346 1.382 . S
C348 N311 1.423 . S
C348 C349 1.362 . S
C348 C353 1.388 . S
C349 H319 0.929 . S
C349 C348 1.362 . S
C349 C350 1.376 . S
C350 H321 0.931 . S
C350 C349 1.376 . S
C350 C351 1.396 . S
C351 C350 1.396 . S
C351 C352 1.348 . S
C351 C369 1.472 . S
C352 H322 0.929 . S
C352 C351 1.348 . S
C352 C353 1.443 . S
C353 H320 0.932 . S
C353 C348 1.388 . S
C353 C352 1.443 . S
C354 N334 1.433 . S
C354 C355 1.363 . S
C354 C359 1.370 . S
C355 H323 0.929 . S
C355 C354 1.363 . S
C355 C356 1.385 . S
C356 H324 0.930 . S
C356 C355 1.385 . S
C356 C357 1.357 . S
C357 C356 1.357 . S
C357 C358 1.406 . S
C358 H325 0.929 . S
C358 C357 1.406 . S
C358 C359 1.391 . S
C359 H326 0.931 . S
C359 C354 1.370 . S
C359 C358 1.391 . S
C360 N334 1.435 . S
C360 C361 1.358 . S
C360 C365 1.371 . S
C361 H327 0.930 . S
C361 C360 1.358 . S
C361 C362 1.405 . S
C362 H328 0.932 . S
C362 C361 1.405 . S
C362 C363 1.383 . S
C363 C362 1.383 . S
C363 C364 1.393 . S
C364 H329 0.931 . S
C364 C363 1.393 . S
C364 C365 1.382 . S
C365 H330 0.929 . S
C365 C360 1.371 . S
C365 C364 1.382 . S
C366 N334 1.423 . S
C366 C367 1.362 . S
C366 C371 1.388 . S
C367 H331 0.929 . S
C367 C366 1.362 . S
C367 C368 1.376 . S
C368 H332 0.931 . S
C368 C367 1.376 . S
C368 C369 1.396 . S
C369 C351 1.472 . S
C369 C368 1.396 . S
C369 C370 1.348 . S
C370 H333 0.929 . S
C370 C369 1.348 . S
C370 C371 1.443 . S
C371 H335 0.932 . S
C371 C366 1.388 . S
C371 C370 1.443 . S
H372 C399 0.929 . S
N373 C398 1.433 . S
N373 C404 1.435 . S
N373 C410 1.423 . S
H374 C400 0.930 . S
H375 C403 0.931 . S
H376 C402 0.929 . S
H377 C405 0.930 . S
H378 C406 0.932 . S
H379 C409 0.929 . S
H380 C408 0.931 . S
H381 C411 0.929 . S
H382 C415 0.932 . S
H383 C412 0.931 . S
H384 C414 0.929 . S
H385 C417 0.929 . S
H386 C418 0.930 . S
H387 C420 0.929 . S
H388 C421 0.931 . S
H389 C423 0.930 . S
H390 C424 0.932 . S
H391 C426 0.931 . S
H392 C427 0.929 . S
H393 C429 0.929 . S
H394 C430 0.931 . S
H395 C432 0.929 . S
N396 C416 1.433 . S
N396 C422 1.435 . S
N396 C428 1.423 . S
H397 C433 0.932 . S
C398 N373 1.433 . S
C398 C399 1.363 . S
C398 C403 1.370 . S
C399 H372 0.929 . S
C399 C398 1.363 . S
C399 C400 1.385 . S
C400 H374 0.930 . S
C400 C399 1.385 . S
C400 C401 1.357 . S
C401 C400 1.357 . S
C401 C402 1.406 . S
C402 H376 0.929 . S
C402 C401 1.406 . S
C402 C403 1.391 . S
C403 H375 0.931 . S
C403 C398 1.370 . S
C403 C402 1.391 . S
C404 N373 1.435 . S
C404 C405 1.358 . S
C404 C409 1.371 . S
C405 H377 0.930 . S
C405 C404 1.358 . S
C405 C406 1.405 . S
C406 H378 0.932 . S
C406 C405 1.405 . S
C406 C407 1.383 . S
C407 C406 1.383 . S
C407 C408 1.393 . S
C408 H380 0.931 . S
C408 C407 1.393 . S
C408 C409 1.382 . S
C409 H379 0.929 . S
C409 C404 1.371 . S
C409 C408 1.382 . S
C410 N373 1.423 . S
C410 C411 1.362 1_565 S
C410 C415 1.388 . S
C411 H381 0.929 . S
C411 C410 1.362 1_545 S
C411 C412 1.376 . S
C412 H383 0.931 . S
C412 C411 1.376 . S
C412 C413 1.396 . S
C413 C412 1.396 . S
C413 C414 1.348 . S
C413 C431 1.472 . S
C414 H384 0.929 . S
C414 C413 1.348 . S
C414 C415 1.443 1_545 S
C415 H382 0.932 . S
C415 C410 1.388 . S
C415 C414 1.443 1_565 S
C416 N396 1.433 . S
C416 C417 1.363 . S
C416 C421 1.370 . S
C417 H385 0.929 . S
C417 C416 1.363 . S
C417 C418 1.385 . S
C418 H386 0.930 . S
C418 C417 1.385 . S
C418 C419 1.357 . S
C419 C418 1.357 . S
C419 C420 1.406 . S
C420 H387 0.929 . S
C420 C419 1.406 . S
C420 C421 1.391 . S
C421 H388 0.931 . S
C421 C416 1.370 . S
C421 C420 1.391 . S
C422 N396 1.435 . S
C422 C423 1.358 . S
C422 C427 1.371 . S
C423 H389 0.930 . S
C423 C422 1.358 . S
C423 C424 1.405 . S
C424 H390 0.932 . S
C424 C423 1.405 . S
C424 C425 1.383 . S
C425 C424 1.383 . S
C425 C426 1.393 . S
C426 H391 0.931 . S
C426 C425 1.393 . S
C426 C427 1.382 . S
C427 H392 0.929 . S
C427 C422 1.371 . S
C427 C426 1.382 . S
C428 N396 1.423 . S
C428 C429 1.362 . S
C428 C433 1.388 . S
C429 H393 0.929 . S
C429 C428 1.362 . S
C429 C430 1.376 . S
C430 H394 0.931 . S
C430 C429 1.376 . S
C430 C431 1.396 . S
C431 C413 1.472 . S
C431 C430 1.396 . S
C431 C432 1.348 . S
C432 H395 0.929 . S
C432 C431 1.348 . S
C432 C433 1.443 . S
C433 H397 0.932 . S
C433 C428 1.388 . S
C433 C432 1.443 . S
H434 C461 0.929 . S
N435 C460 1.433 . S
N435 C466 1.435 . S
N435 C472 1.423 1_565 S
H436 C462 0.930 . S
H437 C465 0.931 . S
H438 C464 0.929 . S
H439 C467 0.930 . S
H440 C468 0.932 . S
H441 C471 0.929 . S
H442 C470 0.931 . S
H443 C473 0.929 . S
H444 C477 0.932 . S
H445 C474 0.931 . S
H446 C476 0.929 . S
H447 C479 0.929 . S
H448 C480 0.930 . S
H449 C482 0.929 1_455 S
H450 C483 0.931 1_455 S
H451 C485 0.930 . S
H452 C486 0.932 . S
H453 C488 0.931 . S
H454 C489 0.929 . S
H455 C491 0.929 . S
H456 C492 0.931 . S
H457 C494 0.929 . S
N458 C478 1.433 . S
N458 C484 1.435 . S
N458 C490 1.423 . S
H459 C495 0.932 . S
C460 N435 1.433 . S
C460 C461 1.363 . S
C460 C465 1.370 1_565 S
C461 H434 0.929 . S
C461 C460 1.363 . S
C461 C462 1.385 . S
C462 H436 0.930 . S
C462 C461 1.385 . S
C462 C463 1.357 . S
C463 C462 1.357 . S
C463 C464 1.406 1_565 S
C464 H438 0.929 . S
C464 C463 1.406 1_545 S
C464 C465 1.391 . S
C465 H437 0.931 . S
C465 C460 1.370 1_545 S
C465 C464 1.391 . S
C466 N435 1.435 . S
C466 C467 1.358 . S
C466 C471 1.371 . S
C467 H439 0.930 . S
C467 C466 1.358 . S
C467 C468 1.405 . S
C468 H440 0.932 . S
C468 C467 1.405 . S
C468 C469 1.383 . S
C469 C468 1.383 . S
C469 C470 1.393 . S
C470 H442 0.931 . S
C470 C469 1.393 . S
C470 C471 1.382 . S
C471 H441 0.929 . S
C471 C466 1.371 . S
C471 C470 1.382 . S
C472 N435 1.423 1_545 S
C472 C473 1.362 . S
C472 C477 1.388 . S
C473 H443 0.929 . S
C473 C472 1.362 . S
C473 C474 1.376 . S
C474 H445 0.931 . S
C474 C473 1.376 . S
C474 C475 1.396 . S
C475 C474 1.396 . S
C475 C476 1.348 . S
C475 C493 1.472 . S
C476 H446 0.929 . S
C476 C475 1.348 . S
C476 C477 1.443 . S
C477 H444 0.932 . S
C477 C472 1.388 . S
C477 C476 1.443 . S
C478 N458 1.433 . S
C478 C479 1.363 . S
C478 C483 1.370 . S
C479 H447 0.929 . S
C479 C478 1.363 . S
C479 C480 1.385 . S
C480 H448 0.930 . S
C480 C479 1.385 . S
C480 C481 1.357 . S
C481 C480 1.357 . S
C481 C482 1.406 . S
C482 H449 0.929 1_655 S
C482 C481 1.406 . S
C482 C483 1.391 . S
C483 H450 0.931 1_655 S
C483 C478 1.370 . S
C483 C482 1.391 . S
C484 N458 1.435 . S
C484 C485 1.358 . S
C484 C489 1.371 . S
C485 H451 0.930 . S
C485 C484 1.358 . S
C485 C486 1.405 . S
C486 H452 0.932 . S
C486 C485 1.405 . S
C486 C487 1.383 . S
C487 C486 1.383 . S
C487 C488 1.393 . S
C488 H453 0.931 . S
C488 C487 1.393 . S
C488 C489 1.382 . S
C489 H454 0.929 . S
C489 C484 1.371 . S
C489 C488 1.382 . S
C490 N458 1.423 . S
C490 C491 1.362 . S
C490 C495 1.388 1_655 S
C491 H455 0.929 . S
C491 C490 1.362 . S
C491 C492 1.376 . S
C492 H456 0.931 . S
C492 C491 1.376 . S
C492 C493 1.396 1_655 S
C493 C475 1.472 . S
C493 C492 1.396 1_455 S
C493 C494 1.348 . S
C494 H457 0.929 . S
C494 C493 1.348 . S
C494 C495 1.443 . S
C495 H459 0.932 . S
C495 C490 1.388 1_455 S
C495 C494 1.443 . S
O496 Cd497 2.223 1_556 S
O496 C504 1.315 . S
Cd497 O496 2.223 1_554 S
Cd497 O500 2.297 . S
Cd497 O501 2.439 . S
Cd497 O507 2.240 . S
Cd498 O499 2.240 . S
Cd498 O506 2.223 . S
Cd498 O508 2.297 . S
Cd498 O509 2.439 . S
O499 Cd498 2.240 . S
O499 C504 1.279 1_554 S
O500 Cd497 2.297 . S
O500 C502 1.247 . S
O501 Cd497 2.439 . S
O501 C502 1.208 . S
C502 O500 1.247 . S
C502 O501 1.208 . S
C503 O508 1.247 . S
C503 O509 1.208 . S
C504 O496 1.315 . S
C504 O499 1.279 1_556 S
C505 O506 1.315 . S
C505 O507 1.279 . S
O506 Cd498 2.223 . S
O506 C505 1.315 . S
O507 Cd497 2.240 . S
O507 C505 1.279 . S
O508 Cd498 2.297 . S
O508 C503 1.247 . S
O509 Cd498 2.439 . S
O509 C503 1.208 . S
O510 Cd511 2.223 . S
O510 C518 1.315 . S
Cd511 O510 2.223 . S
Cd511 O514 2.297 . S
Cd511 O515 2.439 . S
Cd511 O521 2.240 . S
Cd512 O513 2.240 . S
Cd512 O520 2.223 . S
Cd512 O522 2.297 . S
Cd512 O523 2.439 . S
O513 Cd512 2.240 . S
O513 C518 1.279 . S
O514 Cd511 2.297 . S
O514 C516 1.247 . S
O515 Cd511 2.439 . S
O515 C516 1.208 . S
C516 O514 1.247 . S
C516 O515 1.208 . S
C517 O522 1.247 . S
C517 O523 1.208 . S
C518 O510 1.315 . S
C518 O513 1.279 . S
C519 O520 1.315 . S
C519 O521 1.279 . S
O520 Cd512 2.223 . S
O520 C519 1.315 . S
O521 Cd511 2.240 . S
O521 C519 1.279 . S
O522 Cd512 2.297 . S
O522 C517 1.247 . S
O523 Cd512 2.439 . S
O523 C517 1.208 . S
O524 Cd525 2.223 . S
O524 C532 1.315 . S
Cd525 O524 2.223 . S
Cd525 O528 2.297 . S
Cd525 O529 2.439 . S
Cd525 O535 2.240 . S
Cd526 O527 2.240 . S
Cd526 O534 2.223 . S
Cd526 O536 2.297 . S
Cd526 O537 2.439 . S
O527 Cd526 2.240 . S
O527 C532 1.279 . S
O528 Cd525 2.297 . S
O528 C530 1.247 . S
O529 Cd525 2.439 . S
O529 C530 1.208 . S
C530 O528 1.247 . S
C530 O529 1.208 . S
C531 O536 1.247 . S
C531 O537 1.208 . S
C532 O524 1.315 . S
C532 O527 1.279 . S
C533 O534 1.315 . S
C533 O535 1.279 . S
O534 Cd526 2.223 . S
O534 C533 1.315 . S
O535 Cd525 2.240 . S
O535 C533 1.279 . S
O536 Cd526 2.297 . S
O536 C531 1.247 . S
O537 Cd526 2.439 . S
O537 C531 1.208 . S
O538 Cd539 2.223 . S
O538 C546 1.315 . S
Cd539 O538 2.223 . S
Cd539 O542 2.297 . S
Cd539 O543 2.439 . S
Cd539 O549 2.240 . S
Cd540 O541 2.240 . S
Cd540 O548 2.223 . S
Cd540 O550 2.297 . S
Cd540 O551 2.439 . S
O541 Cd540 2.240 . S
O541 C546 1.279 . S
O542 Cd539 2.297 . S
O542 C544 1.247 . S
O543 Cd539 2.439 . S
O543 C544 1.208 . S
C544 O542 1.247 . S
C544 O543 1.208 . S
C545 O550 1.247 . S
C545 O551 1.208 . S
C546 O538 1.315 . S
C546 O541 1.279 . S
C547 O548 1.315 . S
C547 O549 1.279 . S
O548 Cd540 2.223 . S
O548 C547 1.315 . S
O549 Cd539 2.240 . S
O549 C547 1.279 . S
O550 Cd540 2.297 . S
O550 C545 1.247 . S
O551 Cd540 2.439 . S
O551 C545 1.208 . S
O552 Cd553 2.223 . S
O552 C560 1.315 . S
Cd553 O552 2.223 . S
Cd553 O556 2.297 . S
Cd553 O557 2.439 . S
Cd553 O563 2.240 . S
Cd554 O555 2.240 . S
Cd554 O562 2.223 . S
Cd554 O564 2.297 . S
Cd554 O565 2.439 . S
O555 Cd554 2.240 . S
O555 C560 1.279 . S
O556 Cd553 2.297 . S
O556 C558 1.247 . S
O557 Cd553 2.439 . S
O557 C558 1.208 . S
C558 O556 1.247 . S
C558 O557 1.208 . S
C559 O564 1.247 . S
C559 O565 1.208 . S
C560 O552 1.315 . S
C560 O555 1.279 . S
C561 O562 1.315 . S
C561 O563 1.279 . S
O562 Cd554 2.223 . S
O562 C561 1.315 . S
O563 Cd553 2.240 . S
O563 C561 1.279 . S
O564 Cd554 2.297 . S
O564 C559 1.247 . S
O565 Cd554 2.439 . S
O565 C559 1.208 . S
O566 Cd567 2.223 . S
O566 C574 1.315 . S
Cd567 O566 2.223 . S
Cd567 O570 2.297 . S
Cd567 O571 2.439 . S
Cd567 O577 2.240 . S
Cd568 O569 2.240 . S
Cd568 O576 2.223 . S
Cd568 O578 2.297 . S
Cd568 O579 2.439 . S
O569 Cd568 2.240 . S
O569 C574 1.279 . S
O570 Cd567 2.297 . S
O570 C572 1.247 . S
O571 Cd567 2.439 . S
O571 C572 1.208 . S
C572 O570 1.247 . S
C572 O571 1.208 . S
C573 O578 1.247 . S
C573 O579 1.208 . S
C574 O566 1.315 . S
C574 O569 1.279 . S
C575 O576 1.315 . S
C575 O577 1.279 . S
O576 Cd568 2.223 . S
O576 C575 1.315 . S
O577 Cd567 2.240 . S
O577 C575 1.279 . S
O578 Cd568 2.297 . S
O578 C573 1.247 . S
O579 Cd568 2.439 . S
O579 C573 1.208 . S
O580 Cd581 2.223 . S
O580 C588 1.315 . S
Cd581 O580 2.223 . S
Cd581 O584 2.297 . S
Cd581 O585 2.442 . S
Cd581 O591 2.240 1_554 S
Cd582 O583 2.240 1_556 S
Cd582 O590 2.223 . S
Cd582 O592 2.297 . S
Cd582 O593 2.439 . S
O583 Cd582 2.240 1_554 S
O583 C588 1.279 . S
O584 Cd581 2.297 . S
O584 C586 1.247 . S
O585 Cd581 2.442 . S
O585 C586 1.224 . S
C586 O584 1.247 . S
C586 O585 1.224 . S
C587 O592 1.247 . S
C587 O593 1.208 . S
C588 O580 1.315 . S
C588 O583 1.279 . S
C589 O590 1.315 . S
C589 O591 1.279 . S
O590 Cd582 2.223 . S
O590 C589 1.315 . S
O591 Cd581 2.240 1_556 S
O591 C589 1.279 . S
O592 Cd582 2.297 . S
O592 C587 1.247 . S
O593 Cd582 2.439 . S
O593 C587 1.208 . S
O594 Cd595 2.223 . S
O594 C602 1.315 . S
Cd595 O594 2.223 . S
Cd595 O598 2.297 . S
Cd595 O599 2.439 . S
Cd595 O605 2.240 . S
Cd596 O597 2.240 . S
Cd596 O604 2.223 . S
Cd596 O606 2.297 . S
Cd596 O607 2.439 . S
O597 Cd596 2.240 . S
O597 C602 1.279 . S
O598 Cd595 2.297 . S
O598 C600 1.247 . S
O599 Cd595 2.439 . S
O599 C600 1.208 . S
C600 O598 1.247 . S
C600 O599 1.208 . S
C601 O606 1.247 . S
C601 O607 1.208 . S
C602 O594 1.315 . S
C602 O597 1.279 . S
C603 O604 1.315 . S
C603 O605 1.279 . S
O604 Cd596 2.223 . S
O604 C603 1.315 . S
O605 Cd595 2.240 . S
O605 C603 1.279 . S
O606 Cd596 2.297 . S
O606 C601 1.247 . S
O607 Cd596 2.439 . S
O607 C601 1.208 . S
C516 C35 1.882 . S
C533 C115 1.638 . S
C547 C177 1.902 . S
C221 C505 2.059 . S
C283 C502 2.252 . S
C363 C519 1.950 . S
C530 C407 2.230 . S
C544 C469 2.170 . S
C159 C572 2.170 . S
C586 C239 2.329 . S
C53 C603 1.950 . S
C558 C97 2.252 . S
C425 C561 2.044 . S
C487 C575 1.902 . S
C589 C301 1.636 1_556 S
C345 C600 1.882 . S
C532 C29 2.959 . S
C546 C109 3.352 . S
C171 C504 3.246 . S
C215 C517 2.843 . S
C277 C545 1.959 . S
C503 C357 2.277 . S
C518 C401 2.748 . S
C531 C463 2.156 . S
C587 C153 2.158 . S
C602 C233 2.730 . S
C47 C559 2.277 . S
C573 C91 1.960 . S
C601 C419 2.646 . S
C481 C560 3.246 . S
C574 C295 3.353 . S
C588 C339 2.956 . S
