# Generated by pormake.
# Topology tsx, (6,3)-cn, num edge types: 1
# Building blocks:
#     Node 0, Type 0, BuildingBlock: CIFDUS_clean_sbu_1, # of connection points: 6
#     Node 1, Type 0, BuildingBlock: CIFDUS_clean_sbu_1, # of connection points: 6
#     Node 2, Type 1, BuildingBlock: VETTIZ_charged_linker_0, # of connection points: 3
#     Node 3, Type 1, BuildingBlock: VETTIZ_charged_linker_0, # of connection points: 3
#     Node 4, Type 1, BuildingBlock: VETTIZ_charged_linker_0, # of connection points: 3
#     Node 5, Type 1, BuildingBlock: VETTIZ_charged_linker_0, # of connection points: 3
#     Edge 6, Type (0, 1), None
#     Edge 7, Type (0, 1), None
#     Edge 8, Type (0, 1), None
#     Edge 9, Type (0, 1), None
#     Edge 10, Type (0, 1), None
#     Edge 11, Type (0, 1), None
#     Edge 12, Type (0, 1), None
#     Edge 13, Type (0, 1), None
#     Edge 14, Type (0, 1), None
#     Edge 15, Type (0, 1), None
#     Edge 16, Type (0, 1), None
#     Edge 17, Type (0, 1), None
# Relax obj value: 0.133
# Max RMSD: 0.157
# Mean RMSD: 0.120
data_MOF--net-tsx--node1-CIFDUS_clean_sbu_1--node2-VETTIZ_charged_linker_0--edge1-none
_symmetry_space_group_name_H-M    P1
_symmetry_Int_Tables_number       1
_symmetry_cell_setting            triclinic
loop_
_symmetry_equiv_pos_as_xyz
'x, y, z'
_cell_length_a     11.728308
_cell_length_b     14.744899
_cell_length_c     24.637489
_cell_angle_alpha  93.890293
_cell_angle_beta   94.887099
_cell_angle_gamma 93.633786
loop_
_atom_site_label
_atom_site_type_symbol
_atom_site_fract_x
_atom_site_fract_y
_atom_site_fract_z
_atom_type_partial_charge
O0 O 1.00517 0.15369 0.01091 0.0
Mn1 Mn 0.05416 0.01865 0.01123 0.0
O2 O 0.8526 0.14223 0.05199 0.0
Mn3 Mn 0.82392 0.04537 0.00148 0.0
O4 O 0.11507 0.88422 0.00433 0.0
O5 O 0.20598 0.07685 0.99753 0.0
Mn6 Mn 0.32094 0.02507 0.03064 0.0
O7 O 0.10377 0.03598 0.09461 0.0
O8 O 0.30595 0.90768 -0.00019 0.0
O9 O 1.01033 0.00719 0.9274 0.0
O10 O 0.83758 0.06078 0.92729 0.0
O11 O 0.37999 0.13027 0.00267 0.0
O12 O 0.29731 0.03531 0.10409 0.0
C13 C 0.78518 0.93035 0.03443 0.0
C14 C 0.92369 0.19247 0.03146 0.0
C15 C 0.21439 0.85489 0.99579 0.0
C16 C 0.27394 0.1472 0.99203 0.0
C17 C 0.20081 0.04178 0.12363 0.0
C18 C 0.92246 0.0372 0.90209 0.0
O19 O 0.89521 0.9539 0.02961 0.0
O20 O 0.70386 0.97689 0.01388 0.0
O21 O 0.50517 0.65369 0.51091 0.0
Mn22 Mn 0.55416 0.51865 0.51123 0.0
O23 O 0.3526 0.64222 0.55199 0.0
Mn24 Mn 0.32392 0.54537 0.50148 0.0
O25 O 0.61507 0.38422 0.50433 0.0
O26 O 0.70599 0.57685 0.49753 0.0
Mn27 Mn 0.82094 0.52506 0.53065 0.0
O28 O 0.60377 0.53597 0.59461 0.0
O29 O 0.80596 0.40768 0.49981 0.0
O30 O 0.51034 0.50719 0.4274 0.0
O31 O 0.33758 0.56078 0.42729 0.0
O32 O 0.88 0.63027 0.50267 0.0
O33 O 0.79731 0.53531 0.60409 0.0
C34 C 0.28518 0.43035 0.53443 0.0
C35 C 0.42369 0.69247 0.53146 0.0
C36 C 0.71439 0.35489 0.49579 0.0
C37 C 0.77394 0.6472 0.49203 0.0
C38 C 0.70082 0.54177 0.62363 0.0
C39 C 0.42246 0.5372 0.40209 0.0
O40 O 0.39522 0.4539 0.52961 0.0
O41 O 0.20386 0.47689 0.51388 0.0
C42 C 0.254 0.75572 0.48504 0.0
C43 C 0.37341 0.76405 0.50032 0.0
C44 C 0.44055 0.83659 0.48232 0.0
C45 C 0.26915 0.88753 0.43559 0.0
C46 C 0.20295 0.82313 0.45645 0.0
C47 C 0.07858 0.84671 0.45433 0.0
H48 H 0.80508 0.32973 0.40431 0.0
C49 C 0.19496 0.94948 0.41088 0.0
C50 C 0.08321 0.9433 0.43028 0.0
H51 H 0.65068 0.17674 0.52488 0.0
H52 H 0.7225 0.03749 0.49493 0.0
H53 H 0.07958 0.33201 0.42356 0.0
H54 H 0.94131 0.13965 0.28914 0.0
H55 H 0.9749 0.25991 0.28354 0.0
H56 H 0.84638 0.22265 0.30963 0.0
H57 H 0.02316 0.36142 0.35941 0.0
H58 H 0.15269 0.30146 0.36485 0.0
C59 C 0.04585 0.83808 0.51387 0.0
C60 C 1.01067 0.77727 0.41183 0.0
C61 C 0.24953 0.99559 0.21688 0.0
C62 C 0.20281 0.05861 0.18265 0.0
C63 C 0.16513 0.14042 0.20538 0.0
C64 C 0.16649 0.15585 0.26215 0.0
C65 C 0.19625 0.08606 0.29484 0.0
C66 C 0.24448 0.0105 0.2732 0.0
C67 C 0.27892 0.94862 0.31666 0.0
C68 C 0.22389 0.99327 0.36491 0.0
C69 C 0.17495 0.0713 0.35107 0.0
C70 C 0.41092 0.95289 0.32508 0.0
C71 C 0.22766 0.85026 0.30084 0.0
C72 C 0.79145 0.2669 0.42409 0.0
C73 C 0.72826 0.26272 0.46894 0.0
C74 C 0.70821 0.17824 0.49277 0.0
C75 C 0.76106 0.0953 0.4784 0.0
C76 C 0.85707 0.09385 0.44625 0.0
C77 C 0.86088 0.19943 0.41327 0.0
C78 C 0.99596 0.21333 0.36902 0.0
C79 C 0.08484 0.09903 0.37895 0.0
C80 C 1.0108 0.0214 0.42313 0.0
C81 C 0.06691 0.30676 0.38006 0.0
C82 C 0.93823 0.20883 0.30945 0.0
H83 H 0.43753 0.95888 0.43916 0.0
H84 H 0.19912 0.70101 0.49816 0.0
H85 H 0.93442 0.80699 0.39272 0.0
H86 H 0.98567 0.71282 0.42978 0.0
H87 H 0.06201 0.75927 0.3772 0.0
H88 H 0.03137 0.90309 0.53359 0.0
H89 H 0.11311 0.8167 0.54376 0.0
H90 H 0.97443 0.78719 0.51628 0.0
H91 H 0.28455 0.93477 0.19988 0.0
H92 H 0.13618 0.19223 0.17931 0.0
H93 H 0.14695 0.22088 0.2797 0.0
H94 H 0.44838 0.94574 0.28521 0.0
H95 H 0.44116 0.89652 0.34878 0.0
H96 H 0.44581 0.01909 0.34625 0.0
H97 H 0.13241 0.84823 0.29548 0.0
H98 H 0.25314 0.80387 0.33267 0.0
H99 H 0.2583 0.82263 0.26213 0.0
H100 H 0.53191 0.84514 0.49378 0.0
C101 C 0.38776 0.89974 0.45017 0.0
C102 C 0.22006 0.27083 0.53996 0.0
C103 C 0.24582 0.35668 0.56695 0.0
C104 C 0.18595 0.38077 0.61243 0.0
C105 C 0.0802 0.23299 0.60262 0.0
C106 C 0.12792 0.21376 0.55524 0.0
C107 C 0.06962 0.12917 0.52219 0.0
H108 H 0.7154 0.73364 0.58503 0.0
C109 C 0.99914 0.15747 0.61218 0.0
C110 C 0.97574 0.09588 0.56398 0.0
H111 H 0.76409 0.78178 0.41975 0.0
H112 H 0.84431 0.93172 0.44717 0.0
H113 H 0.87961 0.78664 0.64628 0.0
H114 H 0.60745 0.93725 0.59572 0.0
H115 H 0.65061 0.99187 0.66003 0.0
H116 H 0.616 0.86967 0.6534 0.0
H117 H 0.7848 0.82013 0.69522 0.0
H118 H 0.92139 0.8812 0.69132 0.0
C119 C 0.17556 0.06991 0.5242 0.0
C120 C 0.03485 0.16899 0.46054 0.0
C121 C 0.98785 0.09692 0.81503 0.0
C122 C 0.91362 0.03947 0.84196 0.0
C123 C 0.82117 0.98994 0.81134 0.0
C124 C 0.80544 0.99357 0.75474 0.0
C125 C 0.88326 0.04693 0.72755 0.0
C126 C 0.96882 0.10121 0.75771 0.0
C127 C 0.02568 0.16727 0.7222 0.0
C128 C 0.96787 0.13473 0.66459 0.0
C129 C 0.8912 0.06065 0.66869 0.0
C130 C 0.1559 0.1559 0.7265 0.0
C131 C 0.99787 0.2645 0.74237 0.0
C132 C 0.74141 0.77842 0.55455 0.0
C133 C 0.74468 0.74339 0.50076 0.0
C134 C 0.77032 0.80548 0.46247 0.0
C135 C 0.81814 0.89459 0.47939 0.0
C136 C 0.83516 0.92656 0.53583 0.0
C137 C 0.78573 0.86848 0.57061 0.0
C138 C 0.78607 0.91083 0.62624 0.0
C139 C 0.85603 0.00017 0.62253 0.0
C140 C 0.89399 0.01376 0.56959 0.0
C141 C 0.84503 0.84705 0.66694 0.0
C142 C 0.65884 0.92782 0.63485 0.0
H143 H 0.0488 0.34488 0.65952 0.0
H144 H 0.26357 0.25357 0.50404 0.0
H145 H 1.00652 0.23672 0.47617 0.0
H146 H 0.92281 0.09608 0.37886 0.0
H147 H 0.12117 0.19774 0.45239 0.0
H148 H 0.15546 -0.00194 0.52305 0.0
H149 H 0.23083 0.07943 0.56368 0.0
H150 H 0.23195 0.0854 0.49156 0.0
H151 H 0.05525 0.14035 0.83833 0.0
H152 H 0.76056 0.94813 0.8314 0.0
H153 H 0.73242 0.95451 0.73468 0.0
H154 H 0.1735 0.08495 0.71323 0.0
H155 H 0.19396 0.17138 0.76926 0.0
H156 H 0.20059 0.20269 0.70065 0.0
H157 H 0.97259 0.26825 0.78484 0.0
H158 H 0.92519 0.28833 0.71646 0.0
H159 H 0.07382 0.31376 0.74383 0.0
H160 H 0.19559 0.44995 0.63096 0.0
C161 C 0.10257 0.3196 0.62993 0.0
C162 C 0.754 0.25572 0.98504 0.0
C163 C 0.87341 0.26405 0.00032 0.0
C164 C 0.94055 0.33659 0.98232 0.0
C165 C 0.76914 0.38753 0.9356 0.0
C166 C 0.70295 0.32313 0.95646 0.0
C167 C 0.57858 0.34671 0.95433 0.0
H168 H 0.30507 0.82973 0.90431 0.0
C169 C 0.69496 0.44948 0.91088 0.0
C170 C 0.58321 0.4433 0.93029 0.0
H171 H 0.15068 0.67674 0.02488 0.0
H172 H 0.2225 0.53749 0.99493 0.0
H173 H 0.57957 0.83201 0.92356 0.0
H174 H 0.44131 0.63965 0.78914 0.0
H175 H 0.47489 0.75991 0.78354 0.0
H176 H 0.34638 0.72265 0.80963 0.0
H177 H 0.52316 0.86143 0.85941 0.0
H178 H 0.65269 0.80146 0.86485 0.0
C179 C 0.54585 0.33808 0.01387 0.0
C180 C 0.51067 0.27727 0.91183 0.0
C181 C 0.74953 0.49559 0.71688 0.0
C182 C 0.70281 0.55861 0.68265 0.0
C183 C 0.66513 0.64042 0.70538 0.0
C184 C 0.66649 0.65585 0.76215 0.0
C185 C 0.69625 0.58606 0.79484 0.0
C186 C 0.74448 0.5105 0.7732 0.0
C187 C 0.77892 0.44862 0.81666 0.0
C188 C 0.72388 0.49327 0.86491 0.0
C189 C 0.67494 0.5713 0.85107 0.0
C190 C 0.91092 0.45289 0.82509 0.0
C191 C 0.72766 0.35026 0.80084 0.0
C192 C 0.29145 0.76691 0.92409 0.0
C193 C 0.22826 0.76272 0.96894 0.0
C194 C 0.20821 0.67824 0.99277 0.0
C195 C 0.26106 0.5953 0.9784 0.0
C196 C 0.35706 0.59385 0.94625 0.0
C197 C 0.36088 0.69943 0.91327 0.0
C198 C 0.49596 0.71333 0.86902 0.0
C199 C 0.58484 0.59903 0.87894 0.0
C200 C 0.51079 0.52141 0.92313 0.0
C201 C 0.5669 0.80676 0.88006 0.0
C202 C 0.43823 0.70883 0.80945 0.0
H203 H 0.93753 0.45889 0.93916 0.0
H204 H 0.69912 0.20101 0.99816 0.0
H205 H 0.43442 0.30699 0.89272 0.0
H206 H 0.48567 0.21282 0.92978 0.0
H207 H 0.562 0.25928 0.8772 0.0
H208 H 0.53137 0.40309 0.03359 0.0
H209 H 0.61311 0.3167 0.04376 0.0
H210 H 0.47442 0.28719 0.01628 0.0
H211 H 0.78456 0.43477 0.69988 0.0
H212 H 0.63618 0.69222 0.67931 0.0
H213 H 0.64695 0.72088 0.7797 0.0
H214 H 0.94837 0.44575 0.78521 0.0
H215 H 0.94116 0.39652 0.84879 0.0
H216 H 0.94581 0.51909 0.84625 0.0
H217 H 0.63241 0.34823 0.79548 0.0
H218 H 0.75314 0.30387 0.83267 0.0
H219 H 0.7583 0.32263 0.76213 0.0
H220 H 0.0319 0.34514 0.99378 0.0
C221 C 0.88776 0.39974 0.95017 0.0
C222 C 0.72005 0.77084 0.03996 0.0
C223 C 0.74582 0.85668 0.06695 0.0
C224 C 0.68595 0.88077 0.11243 0.0
C225 C 0.58019 0.73299 0.10262 0.0
C226 C 0.62791 0.71376 0.05524 0.0
C227 C 0.56962 0.62917 0.02219 0.0
H228 H 0.2154 0.23364 0.08503 0.0
C229 C 0.49914 0.65747 0.11218 0.0
C230 C 0.47574 0.59588 0.06398 0.0
H231 H 0.26409 0.28178 0.91975 0.0
H232 H 0.34431 0.43172 0.94717 0.0
H233 H 0.37961 0.28664 0.14628 0.0
H234 H 0.10745 0.43725 0.09572 0.0
H235 H 0.15061 0.49187 0.16003 0.0
H236 H 0.116 0.36967 0.1534 0.0
H237 H 0.2848 0.32013 0.19522 0.0
H238 H 0.42139 0.3812 0.19132 0.0
C239 C 0.67556 0.56991 0.0242 0.0
C240 C 0.53485 0.66899 0.96054 0.0
C241 C 0.48785 0.59691 0.31503 0.0
C242 C 0.41362 0.53947 0.34196 0.0
C243 C 0.32117 0.48994 0.31134 0.0
C244 C 0.30544 0.49357 0.25474 0.0
C245 C 0.38326 0.54693 0.22755 0.0
C246 C 0.46882 0.60121 0.25771 0.0
C247 C 0.52568 0.66727 0.2222 0.0
C248 C 0.46787 0.63473 0.16459 0.0
C249 C 0.3912 0.56065 0.16869 0.0
C250 C 0.6559 0.65589 0.2265 0.0
C251 C 0.49787 0.7645 0.24237 0.0
C252 C 0.2414 0.27842 0.05455 0.0
C253 C 0.24467 0.2434 0.00076 0.0
C254 C 0.27031 0.30548 0.96247 0.0
C255 C 0.31813 0.39459 0.97939 0.0
C256 C 0.33516 0.42656 0.03583 0.0
C257 C 0.28572 0.36848 0.07061 0.0
C258 C 0.28607 0.41083 0.12624 0.0
C259 C 0.35603 0.50017 0.12253 0.0
C260 C 0.39398 0.51376 0.06959 0.0
C261 C 0.34502 0.34705 0.16694 0.0
C262 C 0.15884 0.42782 0.13485 0.0
H263 H 0.54879 0.84488 0.15952 0.0
H264 H 0.76356 0.75358 0.00404 0.0
H265 H 0.50652 0.73672 0.97617 0.0
H266 H 0.42281 0.59608 0.87886 0.0
H267 H 0.62117 0.69774 0.95239 0.0
H268 H 0.65546 0.49806 0.02305 0.0
H269 H 0.73082 0.57943 0.06368 0.0
H270 H 0.73194 0.5854 0.99156 0.0
H271 H 0.55525 0.64035 0.33833 0.0
H272 H 0.26056 0.44813 0.3314 0.0
H273 H 0.23242 0.45451 0.23468 0.0
H274 H 0.6735 0.58494 0.21323 0.0
H275 H 0.69396 0.67138 0.26925 0.0
H276 H 0.70059 0.70269 0.20065 0.0
H277 H 0.47259 0.76825 0.28484 0.0
H278 H 0.42519 0.78833 0.21646 0.0
H279 H 0.57383 0.81376 0.24383 0.0
H280 H 0.69559 0.94995 0.13096 0.0
C281 C 0.60257 0.8196 0.12993 0.0
loop_
_geom_bond_atom_site_label_1
_geom_bond_atom_site_label_2
_geom_bond_distance
_geom_bond_site_symmetry_2
_ccdc_geom_bond_type
O0 Mn1 2.163 1_654 S
O0 C14 1.244 1_554 S
Mn1 O0 2.163 1_456 S
Mn1 O4 2.160 1_545 S
Mn1 O5 2.221 1_556 S
Mn1 O7 2.158 1_556 S
Mn1 O9 2.165 . S
Mn1 O19 2.222 1_445 S
O2 Mn3 2.079 1_545 S
O2 C14 1.256 . S
Mn3 O2 2.079 1_565 S
Mn3 O10 2.085 1_565 S
Mn3 O19 2.295 . S
Mn3 O20 2.258 . S
O4 Mn1 2.160 1_565 S
O4 C15 1.239 1_556 S
O5 Mn1 2.221 1_554 S
O5 Mn6 2.290 . S
O5 C16 1.278 . S
Mn6 O5 2.290 . S
Mn6 O8 2.089 1_545 S
Mn6 O11 2.251 . S
Mn6 O12 2.087 . S
O7 Mn1 2.158 1_554 S
O7 C17 1.244 . S
O8 Mn6 2.089 1_565 S
O8 C15 1.256 . S
O9 Mn1 2.165 . S
O9 C18 1.239 . S
O10 Mn3 2.085 1_545 S
O10 C18 1.256 1_655 S
O11 Mn6 2.251 . S
O11 C16 1.241 . S
O12 Mn6 2.087 . S
O12 C17 1.256 . S
C13 O19 1.278 1_554 S
C13 O20 1.241 1_554 S
C14 O0 1.244 1_556 S
C14 O2 1.256 . S
C15 O4 1.239 1_554 S
C15 O8 1.256 . S
C16 O5 1.278 . S
C16 O11 1.241 . S
C17 O7 1.244 . S
C17 O12 1.256 . S
C18 O9 1.239 . S
C18 O10 1.256 1_455 S
O19 Mn1 2.222 1_665 S
O19 Mn3 2.295 . S
O19 C13 1.278 1_556 S
O20 Mn3 2.258 . S
O20 C13 1.241 1_556 S
O21 Mn22 2.163 . S
O21 C35 1.244 . S
Mn22 O21 2.163 . S
Mn22 O25 2.160 . S
Mn22 O26 2.221 . S
Mn22 O28 2.163 . S
Mn22 O30 2.160 . S
Mn22 O40 2.221 . S
O23 Mn24 2.087 . S
O23 C35 1.256 . S
Mn24 O23 2.087 . S
Mn24 O31 2.089 . S
Mn24 O40 2.290 . S
Mn24 O41 2.251 . S
O25 Mn22 2.160 . S
O25 C36 1.239 . S
O26 Mn22 2.221 . S
O26 Mn27 2.290 . S
O26 C37 1.278 . S
Mn27 O26 2.290 . S
Mn27 O29 2.089 . S
Mn27 O32 2.251 . S
Mn27 O33 2.087 . S
O28 Mn22 2.163 . S
O28 C38 1.244 . S
O29 Mn27 2.089 . S
O29 C36 1.256 . S
O30 Mn22 2.160 . S
O30 C39 1.239 . S
O31 Mn24 2.089 . S
O31 C39 1.256 . S
O32 Mn27 2.251 . S
O32 C37 1.241 . S
O33 Mn27 2.087 . S
O33 C38 1.256 . S
C34 O40 1.278 . S
C34 O41 1.241 . S
C35 O21 1.244 . S
C35 O23 1.256 . S
C36 O25 1.239 . S
C36 O29 1.256 . S
C37 O26 1.278 . S
C37 O32 1.241 . S
C38 O28 1.244 . S
C38 O33 1.256 . S
C39 O30 1.239 . S
C39 O31 1.256 . S
O40 Mn22 2.221 . S
O40 Mn24 2.290 . S
O40 C34 1.278 . S
O41 Mn24 2.251 . S
O41 C34 1.241 . S
C42 C43 1.391 . S
C42 C46 1.391 . S
C42 H84 0.948 . S
C43 C42 1.391 . S
C43 C44 1.391 . S
C44 C43 1.391 . S
C44 H100 0.947 . S
C44 C101 1.392 . S
C45 C46 1.391 . S
C45 C49 1.397 . S
C45 C101 1.419 . S
C46 C42 1.391 . S
C46 C45 1.391 . S
C46 C47 1.399 . S
C47 C46 1.399 . S
C47 C50 1.396 . S
C47 C59 1.453 1_565 S
C47 C60 1.684 1_455 S
H48 C72 0.948 . S
C49 C45 1.397 . S
C49 C50 1.394 . S
C49 C68 1.723 . S
C50 C47 1.396 . S
C50 C49 1.394 . S
C50 C80 1.723 1_465 S
H51 C74 0.947 . S
H52 C75 0.948 . S
H53 C81 0.982 . S
H54 C82 0.979 . S
H55 C82 0.980 . S
H56 C82 0.983 . S
H57 C81 0.979 . S
H58 C81 0.977 . S
C59 C47 1.453 1_545 S
C59 H88 0.982 . S
C59 H89 0.979 1_545 S
C59 H90 0.977 . S
C60 C47 1.684 1_655 S
C60 H85 0.979 . S
C60 H86 0.980 . S
C60 H87 0.983 1_655 S
C61 C62 1.391 . S
C61 C66 1.391 . S
C61 H91 0.948 . S
C62 C61 1.391 . S
C62 C63 1.391 1_465 S
C63 C62 1.391 1_645 S
C63 C64 1.392 . S
C63 H92 0.947 . S
C64 C63 1.392 . S
C64 C65 1.419 1_655 S
C64 H93 0.948 . S
C65 C64 1.419 1_455 S
C65 C66 1.391 1_545 S
C65 C69 1.397 . S
C66 C61 1.391 . S
C66 C65 1.391 1_565 S
C66 C67 1.399 . S
C67 C66 1.399 . S
C67 C68 1.396 . S
C67 C70 1.453 . S
C67 C71 1.684 . S
C68 C49 1.723 . S
C68 C67 1.396 . S
C68 C69 1.394 1_565 S
C69 C65 1.397 . S
C69 C68 1.394 1_545 S
C69 C79 1.723 1_455 S
C70 C67 1.453 . S
C70 H94 0.982 . S
C70 H95 0.979 . S
C70 H96 0.977 . S
C71 C67 1.684 . S
C71 H97 0.979 . S
C71 H98 0.980 . S
C71 H99 0.983 . S
C72 H48 0.948 . S
C72 C73 1.391 . S
C72 C77 1.391 . S
C73 C72 1.391 . S
C73 C74 1.391 . S
C74 H51 0.947 . S
C74 C73 1.391 . S
C74 C75 1.392 . S
C75 H52 0.948 . S
C75 C74 1.392 . S
C75 C76 1.419 . S
C76 C75 1.419 . S
C76 C77 1.391 . S
C76 C80 1.397 . S
C77 C72 1.391 . S
C77 C76 1.391 . S
C77 C78 1.399 . S
C78 C77 1.399 . S
C78 C79 1.396 . S
C78 C81 1.453 . S
C78 C82 1.684 . S
C79 C69 1.723 1_655 S
C79 C78 1.396 . S
C79 C80 1.394 . S
C80 C50 1.723 1_645 S
C80 C76 1.397 . S
C80 C79 1.394 . S
C81 H53 0.982 . S
C81 H57 0.979 . S
C81 H58 0.977 . S
C81 C78 1.453 . S
C82 H54 0.979 . S
C82 H55 0.980 . S
C82 H56 0.983 . S
C82 C78 1.684 . S
H83 C101 0.948 . S
H84 C42 0.948 . S
H85 C60 0.979 . S
H86 C60 0.980 . S
H87 C60 0.983 1_455 S
H88 C59 0.982 . S
H89 C59 0.979 1_565 S
H90 C59 0.977 . S
H91 C61 0.948 . S
H92 C63 0.947 . S
H93 C64 0.948 . S
H94 C70 0.982 . S
H95 C70 0.979 . S
H96 C70 0.977 . S
H97 C71 0.979 . S
H98 C71 0.980 . S
H99 C71 0.983 . S
H100 C44 0.947 . S
C101 C44 1.392 . S
C101 C45 1.419 . S
C101 H83 0.948 . S
C102 C103 1.391 . S
C102 C106 1.391 . S
C102 H144 0.948 . S
C103 C102 1.391 . S
C103 C104 1.391 . S
C104 C103 1.391 . S
C104 H160 0.947 . S
C104 C161 1.392 . S
C105 C106 1.391 . S
C105 C109 1.397 . S
C105 C161 1.419 . S
C106 C102 1.391 . S
C106 C105 1.391 . S
C106 C107 1.399 . S
C107 C106 1.399 . S
C107 C110 1.396 . S
C107 C119 1.453 . S
C107 C120 1.684 1_455 S
H108 C132 0.948 . S
C109 C105 1.397 . S
C109 C110 1.394 . S
C109 C128 1.723 . S
C110 C107 1.396 . S
C110 C109 1.394 . S
C110 C140 1.723 1_455 S
H111 C134 0.947 . S
H112 C135 0.948 1_545 S
H113 C141 0.982 . S
H114 C142 0.979 . S
H115 C142 0.980 . S
H116 C142 0.983 . S
H117 C141 0.979 . S
H118 C141 0.977 . S
C119 C107 1.453 . S
C119 H148 0.982 . S
C119 H149 0.979 . S
C119 H150 0.977 . S
C120 C107 1.684 1_655 S
C120 H145 0.979 . S
C120 H146 0.980 . S
C120 H147 0.983 . S
C121 C122 1.391 1_455 S
C121 C126 1.391 . S
C121 H151 0.948 . S
C122 C121 1.391 1_655 S
C122 C123 1.391 . S
C123 C122 1.391 . S
C123 C124 1.392 . S
C123 H152 0.947 1_545 S
C124 C123 1.392 . S
C124 C125 1.419 . S
C124 H153 0.948 1_545 S
C125 C124 1.419 . S
C125 C126 1.391 1_655 S
C125 C129 1.397 . S
C126 C121 1.391 . S
C126 C125 1.391 1_455 S
C126 C127 1.399 . S
C127 C126 1.399 . S
C127 C128 1.396 . S
C127 C130 1.453 . S
C127 C131 1.684 . S
C128 C109 1.723 . S
C128 C127 1.396 . S
C128 C129 1.394 1_455 S
C129 C125 1.397 . S
C129 C128 1.394 1_655 S
C129 C139 1.723 1_545 S
C130 C127 1.453 . S
C130 H154 0.982 . S
C130 H155 0.979 . S
C130 H156 0.977 . S
C131 C127 1.684 . S
C131 H157 0.979 . S
C131 H158 0.980 . S
C131 H159 0.983 . S
C132 H108 0.948 . S
C132 C133 1.391 . S
C132 C137 1.391 . S
C133 C132 1.391 . S
C133 C134 1.391 . S
C134 H111 0.947 . S
C134 C133 1.391 . S
C134 C135 1.392 . S
C135 H112 0.948 1_565 S
C135 C134 1.392 . S
C135 C136 1.419 . S
C136 C135 1.419 . S
C136 C137 1.391 . S
C136 C140 1.397 1_565 S
C137 C132 1.391 . S
C137 C136 1.391 . S
C137 C138 1.399 . S
C138 C137 1.399 . S
C138 C139 1.396 . S
C138 C141 1.453 . S
C138 C142 1.684 . S
C139 C129 1.723 1_565 S
C139 C138 1.396 . S
C139 C140 1.394 1_565 S
C140 C110 1.723 1_655 S
C140 C136 1.397 1_545 S
C140 C139 1.394 1_545 S
C141 H113 0.982 . S
C141 H117 0.979 . S
C141 H118 0.977 . S
C141 C138 1.453 . S
C142 H114 0.979 . S
C142 H115 0.980 . S
C142 H116 0.983 . S
C142 C138 1.684 . S
H143 C161 0.948 . S
H144 C102 0.948 . S
H145 C120 0.979 . S
H146 C120 0.980 . S
H147 C120 0.983 . S
H148 C119 0.982 . S
H149 C119 0.979 . S
H150 C119 0.977 . S
H151 C121 0.948 . S
H152 C123 0.947 1_565 S
H153 C124 0.948 1_565 S
H154 C130 0.982 . S
H155 C130 0.979 . S
H156 C130 0.977 . S
H157 C131 0.979 . S
H158 C131 0.980 . S
H159 C131 0.983 . S
H160 C104 0.947 . S
C161 C104 1.392 . S
C161 C105 1.419 . S
C161 H143 0.948 . S
C162 C163 1.391 . S
C162 C166 1.391 . S
C162 H204 0.948 . S
C163 C162 1.391 . S
C163 C164 1.391 1_554 S
C164 C163 1.391 1_556 S
C164 H220 0.947 . S
C164 C221 1.392 . S
C165 C166 1.391 1_556 S
C165 C169 1.397 . S
C165 C221 1.419 . S
C166 C162 1.391 . S
C166 C165 1.391 1_554 S
C166 C167 1.399 . S
C167 C166 1.399 . S
C167 C170 1.396 1_554 S
C167 C179 1.453 . S
C167 C180 1.684 . S
H168 C192 0.948 . S
C169 C165 1.397 . S
C169 C170 1.394 . S
C169 C188 1.723 . S
C170 C167 1.396 1_556 S
C170 C169 1.394 . S
C170 C200 1.723 . S
H171 C194 0.947 . S
H172 C195 0.948 . S
H173 C201 0.982 . S
H174 C202 0.979 . S
H175 C202 0.980 . S
H176 C202 0.983 . S
H177 C201 0.979 . S
H178 C201 0.977 . S
C179 C167 1.453 . S
C179 H208 0.982 . S
C179 H209 0.979 . S
C179 H210 0.977 . S
C180 C167 1.684 . S
C180 H205 0.979 . S
C180 H206 0.980 . S
C180 H207 0.983 . S
C181 C182 1.391 . S
C181 C186 1.391 . S
C181 H211 0.948 . S
C182 C181 1.391 . S
C182 C183 1.391 . S
C183 C182 1.391 . S
C183 C184 1.392 . S
C183 H212 0.947 . S
C184 C183 1.392 . S
C184 C185 1.419 . S
C184 H213 0.948 . S
C185 C184 1.419 . S
C185 C186 1.391 . S
C185 C189 1.397 . S
C186 C181 1.391 . S
C186 C185 1.391 . S
C186 C187 1.399 . S
C187 C186 1.399 . S
C187 C188 1.396 . S
C187 C190 1.453 . S
C187 C191 1.684 . S
C188 C169 1.723 . S
C188 C187 1.396 . S
C188 C189 1.394 . S
C189 C185 1.397 . S
C189 C188 1.394 . S
C189 C199 1.723 . S
C190 C187 1.453 . S
C190 H214 0.982 . S
C190 H215 0.979 . S
C190 H216 0.977 . S
C191 C187 1.684 . S
C191 H217 0.979 . S
C191 H218 0.980 . S
C191 H219 0.983 . S
C192 H168 0.948 . S
C192 C193 1.391 1_556 S
C192 C197 1.391 . S
C193 C192 1.391 1_554 S
C193 C194 1.391 . S
C194 H171 0.947 . S
C194 C193 1.391 . S
C194 C195 1.392 . S
C195 H172 0.948 . S
C195 C194 1.392 . S
C195 C196 1.419 1_554 S
C196 C195 1.419 1_556 S
C196 C197 1.391 . S
C196 C200 1.397 . S
C197 C192 1.391 . S
C197 C196 1.391 . S
C197 C198 1.399 . S
C198 C197 1.399 . S
C198 C199 1.396 . S
C198 C201 1.453 . S
C198 C202 1.684 . S
C199 C189 1.723 . S
C199 C198 1.396 . S
C199 C200 1.394 . S
C200 C170 1.723 . S
C200 C196 1.397 . S
C200 C199 1.394 . S
C201 H173 0.982 . S
C201 H177 0.979 . S
C201 H178 0.977 . S
C201 C198 1.453 . S
C202 H174 0.979 . S
C202 H175 0.980 . S
C202 H176 0.983 . S
C202 C198 1.684 . S
H203 C221 0.948 . S
H204 C162 0.948 . S
H205 C180 0.979 . S
H206 C180 0.980 . S
H207 C180 0.983 . S
H208 C179 0.982 . S
H209 C179 0.979 . S
H210 C179 0.977 . S
H211 C181 0.948 . S
H212 C183 0.947 . S
H213 C184 0.948 . S
H214 C190 0.982 . S
H215 C190 0.979 . S
H216 C190 0.977 . S
H217 C191 0.979 . S
H218 C191 0.980 . S
H219 C191 0.983 . S
H220 C164 0.947 . S
C221 C164 1.392 . S
C221 C165 1.419 . S
C221 H203 0.948 . S
C222 C223 1.391 1_556 S
C222 C226 1.391 1_556 S
C222 H264 0.948 . S
C223 C222 1.391 1_554 S
C223 C224 1.391 . S
C224 C223 1.391 . S
C224 H280 0.947 . S
C224 C281 1.392 . S
C225 C226 1.391 . S
C225 C229 1.397 . S
C225 C281 1.419 . S
C226 C222 1.391 1_554 S
C226 C225 1.391 . S
C226 C227 1.399 1_554 S
C227 C226 1.399 1_556 S
C227 C230 1.396 1_556 S
C227 C239 1.453 . S
C227 C240 1.684 . S
H228 C252 0.948 . S
C229 C225 1.397 . S
C229 C230 1.394 . S
C229 C248 1.723 . S
C230 C227 1.396 1_554 S
C230 C229 1.394 . S
C230 C260 1.723 . S
H231 C254 0.947 . S
H232 C255 0.948 . S
H233 C261 0.982 . S
H234 C262 0.979 . S
H235 C262 0.980 . S
H236 C262 0.983 . S
H237 C261 0.979 . S
H238 C261 0.977 . S
C239 C227 1.453 . S
C239 H268 0.982 . S
C239 H269 0.979 . S
C239 H270 0.977 . S
C240 C227 1.684 . S
C240 H265 0.979 . S
C240 H266 0.980 . S
C240 H267 0.983 . S
C241 C242 1.391 . S
C241 C246 1.391 . S
C241 H271 0.948 . S
C242 C241 1.391 . S
C242 C243 1.391 . S
C243 C242 1.391 . S
C243 C244 1.392 . S
C243 H272 0.947 . S
C244 C243 1.392 . S
C244 C245 1.419 . S
C244 H273 0.948 . S
C245 C244 1.419 . S
C245 C246 1.391 . S
C245 C249 1.397 . S
C246 C241 1.391 . S
C246 C245 1.391 . S
C246 C247 1.399 . S
C247 C246 1.399 . S
C247 C248 1.396 . S
C247 C250 1.453 . S
C247 C251 1.684 . S
C248 C229 1.723 . S
C248 C247 1.396 . S
C248 C249 1.394 . S
C249 C245 1.397 . S
C249 C248 1.394 . S
C249 C259 1.723 . S
C250 C247 1.453 . S
C250 H274 0.982 . S
C250 H275 0.979 . S
C250 H276 0.977 . S
C251 C247 1.684 . S
C251 H277 0.979 . S
C251 H278 0.980 . S
C251 H279 0.983 . S
C252 H228 0.948 . S
C252 C253 1.391 1_554 S
C252 C257 1.391 . S
C253 C252 1.391 1_556 S
C253 C254 1.391 . S
C254 H231 0.947 . S
C254 C253 1.391 . S
C254 C255 1.392 . S
C255 H232 0.948 . S
C255 C254 1.392 . S
C255 C256 1.419 1_556 S
C256 C255 1.419 1_554 S
C256 C257 1.391 . S
C256 C260 1.397 . S
C257 C252 1.391 . S
C257 C256 1.391 . S
C257 C258 1.399 . S
C258 C257 1.399 . S
C258 C259 1.396 . S
C258 C261 1.453 . S
C258 C262 1.684 . S
C259 C249 1.723 . S
C259 C258 1.396 . S
C259 C260 1.394 . S
C260 C230 1.723 . S
C260 C256 1.397 . S
C260 C259 1.394 . S
C261 H233 0.982 . S
C261 H237 0.979 . S
C261 H238 0.977 . S
C261 C258 1.453 . S
C262 H234 0.979 . S
C262 H235 0.980 . S
C262 H236 0.983 . S
C262 C258 1.684 . S
H263 C281 0.948 . S
H264 C222 0.948 . S
H265 C240 0.979 . S
H266 C240 0.980 . S
H267 C240 0.983 . S
H268 C239 0.982 . S
H269 C239 0.979 . S
H270 C239 0.977 . S
H271 C241 0.948 . S
H272 C243 0.947 . S
H273 C244 0.948 . S
H274 C250 0.982 . S
H275 C250 0.979 . S
H276 C250 0.977 . S
H277 C251 0.979 . S
H278 C251 0.980 . S
H279 C251 0.983 . S
H280 C224 0.947 . S
C281 C224 1.392 . S
C281 C225 1.419 . S
C281 H263 0.948 . S
C253 C16 2.550 1_556 S
C15 C193 2.164 . S
C13 C223 1.215 . S
C14 C163 1.427 1_556 S
C37 C133 2.550 . S
C36 C73 2.163 . S
C103 C34 1.214 . S
C43 C35 1.427 . S
C17 C62 1.596 1_545 S
C18 C122 1.405 1_455 S
C182 C38 1.596 . S
C39 C242 1.405 . S
