# Generated by pormake.
# Topology cml, (3,6)-cn, num edge types: 1
# Building blocks:
#     Node 0, Type 0, BuildingBlock: QEWDON_clean_linker_0, # of connection points: 3
#     Node 1, Type 0, BuildingBlock: QEWDON_clean_linker_0, # of connection points: 3
#     Node 2, Type 0, BuildingBlock: QEWDON_clean_linker_0, # of connection points: 3
#     Node 3, Type 0, BuildingBlock: QEWDON_clean_linker_0, # of connection points: 3
#     Node 4, Type 0, BuildingBlock: QEWDON_clean_linker_0, # of connection points: 3
#     Node 5, Type 0, BuildingBlock: QEWDON_clean_linker_0, # of connection points: 3
#     Node 6, Type 0, BuildingBlock: QEWDON_clean_linker_0, # of connection points: 3
#     Node 7, Type 0, BuildingBlock: QEWDON_clean_linker_0, # of connection points: 3
#     Node 8, Type 1, BuildingBlock: OJICUG_clean_sbu_0, # of connection points: 6
#     Node 9, Type 1, BuildingBlock: OJICUG_clean_sbu_0, # of connection points: 6
#     Node 10, Type 1, BuildingBlock: OJICUG_clean_sbu_0, # of connection points: 6
#     Node 11, Type 1, BuildingBlock: OJICUG_clean_sbu_0, # of connection points: 6
#     Edge 12, Type (0, 1), BuildingBlock: XIVTED_clean_linker_0, # of connection points: 2
#     Edge 13, Type (0, 1), BuildingBlock: XIVTED_clean_linker_0, # of connection points: 2
#     Edge 14, Type (0, 1), BuildingBlock: XIVTED_clean_linker_0, # of connection points: 2
#     Edge 15, Type (0, 1), BuildingBlock: XIVTED_clean_linker_0, # of connection points: 2
#     Edge 16, Type (0, 1), BuildingBlock: XIVTED_clean_linker_0, # of connection points: 2
#     Edge 17, Type (0, 1), BuildingBlock: XIVTED_clean_linker_0, # of connection points: 2
#     Edge 18, Type (0, 1), BuildingBlock: XIVTED_clean_linker_0, # of connection points: 2
#     Edge 19, Type (0, 1), BuildingBlock: XIVTED_clean_linker_0, # of connection points: 2
#     Edge 20, Type (0, 1), BuildingBlock: XIVTED_clean_linker_0, # of connection points: 2
#     Edge 21, Type (0, 1), BuildingBlock: XIVTED_clean_linker_0, # of connection points: 2
#     Edge 22, Type (0, 1), BuildingBlock: XIVTED_clean_linker_0, # of connection points: 2
#     Edge 23, Type (0, 1), BuildingBlock: XIVTED_clean_linker_0, # of connection points: 2
#     Edge 24, Type (0, 1), BuildingBlock: XIVTED_clean_linker_0, # of connection points: 2
#     Edge 25, Type (0, 1), BuildingBlock: XIVTED_clean_linker_0, # of connection points: 2
#     Edge 26, Type (0, 1), BuildingBlock: XIVTED_clean_linker_0, # of connection points: 2
#     Edge 27, Type (0, 1), BuildingBlock: XIVTED_clean_linker_0, # of connection points: 2
#     Edge 28, Type (0, 1), BuildingBlock: XIVTED_clean_linker_0, # of connection points: 2
#     Edge 29, Type (0, 1), BuildingBlock: XIVTED_clean_linker_0, # of connection points: 2
#     Edge 30, Type (0, 1), BuildingBlock: XIVTED_clean_linker_0, # of connection points: 2
#     Edge 31, Type (0, 1), BuildingBlock: XIVTED_clean_linker_0, # of connection points: 2
#     Edge 32, Type (0, 1), BuildingBlock: XIVTED_clean_linker_0, # of connection points: 2
#     Edge 33, Type (0, 1), BuildingBlock: XIVTED_clean_linker_0, # of connection points: 2
#     Edge 34, Type (0, 1), BuildingBlock: XIVTED_clean_linker_0, # of connection points: 2
#     Edge 35, Type (0, 1), BuildingBlock: XIVTED_clean_linker_0, # of connection points: 2
# Relax obj value: 0.005
# Max RMSD: 0.109
# Mean RMSD: 0.080
data_MOF--net-cml--node1-OJICUG_clean_sbu_0--node2-QEWDON_clean_linker_0--edge1-XIVTED_clean_linker_0
_symmetry_space_group_name_H-M    P1
_symmetry_Int_Tables_number       1
_symmetry_cell_setting            triclinic
loop_
_symmetry_equiv_pos_as_xyz
'x, y, z'
_cell_length_a     43.03735
_cell_length_b     40.816661
_cell_length_c     36.049471
_cell_angle_alpha  89.969357
_cell_angle_beta   89.887665
_cell_angle_gamma 89.783428
loop_
_atom_site_label
_atom_site_type_symbol
_atom_site_fract_x
_atom_site_fract_y
_atom_site_fract_z
_atom_type_partial_charge
H0 H 0.26033 0.42867 0.97105 0.0
C1 C 0.27469 0.41868 0.99302 0.0
C2 C 0.30696 0.42346 0.99235 0.0
C3 C 0.26087 0.40208 0.02292 0.0
H4 H 0.34997 0.41635 0.02173 0.0
C5 C 0.32517 0.41164 0.02166 0.0
C6 C 0.31148 0.39595 0.05216 0.0
C7 C 0.27932 0.39071 0.05236 0.0
C8 C 0.22687 0.39934 0.02552 0.0
H9 H 0.2684 0.37932 0.07621 0.0
C10 C 0.21097 0.37533 0.00526 0.0
C11 C 0.17881 0.37106 0.01028 0.0
C12 C 0.21047 0.41965 0.05013 0.0
H13 H 0.22251 0.43817 0.06605 0.0
C14 C 0.17846 0.416 0.05457 0.0
H15 H 0.22381 0.35923 0.98682 0.0
C16 C 0.1627 0.39173 0.03497 0.0
H17 H 0.13789 0.38911 0.03907 0.0
H18 H 0.1659 0.43176 0.07356 0.0
H19 H 0.73694 0.56205 0.47654 0.0
C20 C 0.72804 0.57293 0.50185 0.0
C21 C 0.6962 0.5712 0.51037 0.0
C22 C 0.74876 0.58861 0.526 0.0
H23 H 0.66134 0.58389 0.55132 0.0
C24 C 0.68553 0.58595 0.54324 0.0
C25 C 0.706 0.60194 0.56726 0.0
C26 C 0.73774 0.60312 0.55878 0.0
C27 C 0.78214 0.58846 0.51733 0.0
H28 H 0.75376 0.61482 0.57774 0.0
C29 C 0.79591 0.61573 0.50036 0.0
C30 C 0.82725 0.61457 0.4893 0.0
C31 C 0.79985 0.56016 0.52389 0.0
H32 H 0.78939 0.53887 0.53674 0.0
C33 C 0.8311 0.55909 0.51358 0.0
H34 H 0.78194 0.63731 0.49466 0.0
C35 C 0.84474 0.58604 0.4962 0.0
H36 H 0.86901 0.58464 0.48831 0.0
H37 H 0.84472 0.53721 0.51874 0.0
H38 H 0.69439 0.36915 0.94156 0.0
C39 C 0.68997 0.36744 0.97111 0.0
C40 C 0.67613 0.39383 0.99014 0.0
C41 C 0.6968 0.33811 0.98973 0.0
H42 H 0.65741 0.40985 0.04257 0.0
C43 C 0.66981 0.39048 0.02822 0.0
C44 C 0.67648 0.36122 0.04719 0.0
C45 C 0.69025 0.33515 0.02769 0.0
C46 C 0.70617 0.30885 0.96858 0.0
H47 H 0.69481 0.31208 0.04161 0.0
C48 C 0.73765 0.30083 0.96338 0.0
C49 C 0.74596 0.27166 0.94497 0.0
C50 C 0.68308 0.28802 0.95479 0.0
H51 H 0.65871 0.29392 0.9587 0.0
C52 C 0.69124 0.25928 0.93624 0.0
H53 H 0.7555 0.31679 0.97434 0.0
C54 C 0.72247 0.25101 0.93149 0.0
H55 H 0.7283 0.22856 0.917 0.0
H56 H 0.67331 0.24328 0.9257 0.0
H57 H 0.30105 0.63369 0.43391 0.0
C58 C 0.30719 0.6351 0.46302 0.0
C59 C 0.32134 0.60819 0.4806 0.0
C60 C 0.30245 0.66453 0.48236 0.0
H61 H 0.34254 0.59102 0.53106 0.0
C62 C 0.32999 0.61099 0.51801 0.0
C63 C 0.32551 0.64033 0.53767 0.0
C64 C 0.31156 0.66707 0.51957 0.0
C65 C 0.29216 0.69398 0.4622 0.0
H66 H 0.30859 0.69018 0.53399 0.0
C67 C 0.26053 0.69976 0.45511 0.0
C68 C 0.25136 0.72742 0.4345 0.0
C69 C 0.31451 0.71613 0.44918 0.0
H70 H 0.33897 0.71195 0.45451 0.0
C71 C 0.30547 0.74359 0.4288 0.0
H72 H 0.24324 0.68261 0.46509 0.0
C73 C 0.2741 0.74917 0.42129 0.0
H74 H 0.26753 0.77068 0.40548 0.0
H75 H 0.32282 0.76054 0.41869 0.0
H76 H 0.76934 0.92612 0.94876 0.0
C77 C 0.78183 0.91607 0.97227 0.0
C78 C 0.81407 0.92051 0.97512 0.0
C79 C 0.76562 0.8995 0.00043 0.0
H80 H 0.85435 0.91379 0.00966 0.0
C81 C 0.82971 0.90895 0.00657 0.0
C82 C 0.81352 0.89362 0.03548 0.0
C83 C 0.78155 0.88813 0.03189 0.0
C84 C 0.73151 0.89756 -0.00056 0.0
H85 H 0.76872 0.87704 0.05455 0.0
C86 C 0.71669 0.86922 0.98649 0.0
C87 C 0.6841 0.86684 0.98778 0.0
C88 C 0.71373 0.92369 0.01328 0.0
H89 H 0.72493 0.94563 0.0235 0.0
C90 C 0.68141 0.92146 0.01454 0.0
H91 H 0.73051 0.84894 0.97608 0.0
C92 C 0.66662 0.89317 0.00204 0.0
H93 H 0.64149 0.89203 0.00303 0.0
H94 H 0.66777 0.94166 0.02534 0.0
H95 H 0.22493 0.0625 0.4694 0.0
C96 C 0.21554 0.07795 0.4912 0.0
C97 C 0.18384 0.07628 0.5002 0.0
C98 C 0.23544 0.09857 0.51124 0.0
H99 H 0.1478 0.09429 0.53654 0.0
C100 C 0.17217 0.09587 0.52904 0.0
C101 C 0.19188 0.11618 0.54962 0.0
C102 C 0.22355 0.11761 0.5405 0.0
C103 C 0.2691 0.09837 0.50348 0.0
H104 H 0.23906 0.13267 0.55685 0.0
C105 C 0.28426 0.12716 0.49236 0.0
C106 C 0.31648 0.127 0.48597 0.0
C107 C 0.28628 0.06933 0.50789 0.0
H108 H 0.27493 0.04691 0.51648 0.0
C109 C 0.31834 0.0692 0.50196 0.0
H110 H 0.27103 0.14959 0.48872 0.0
C111 C 0.33344 0.0979 0.49123 0.0
H112 H 0.35829 0.09725 0.48638 0.0
H113 H 0.33151 0.0468 0.50567 0.0
H114 H 0.21008 0.87711 0.94134 0.0
C115 C 0.20124 0.87675 0.96951 0.0
C116 C 0.18917 0.90555 0.98546 0.0
C117 C 0.19983 0.84689 0.98879 0.0
H118 H 0.16824 0.92636 0.03435 0.0
C119 C 0.1775 0.90429 0.02185 0.0
C120 C 0.17503 0.87447 0.04111 0.0
C121 C 0.1865 0.84581 0.02434 0.0
C122 C 0.20836 0.81613 0.96982 0.0
H123 H 0.18388 0.82235 0.03807 0.0
C124 C 0.23923 0.80982 0.95917 0.0
C125 C 0.2468 0.78076 0.94018 0.0
C126 C 0.18516 0.79317 0.96162 0.0
H127 H 0.16124 0.7977 0.96959 0.0
C128 C 0.19257 0.76449 0.94248 0.0
H129 H 0.25722 0.82744 0.9656 0.0
C130 C 0.22318 0.75832 0.93166 0.0
H131 H 0.22852 0.73572 0.91719 0.0
H132 H 0.17455 0.74697 0.93605 0.0
H133 H 0.79066 0.12359 0.44133 0.0
C134 C 0.80054 0.12407 0.46896 0.0
C135 C 0.81335 0.09536 0.48438 0.0
C136 C 0.8024 0.15394 0.48815 0.0
H137 H 0.83687 0.07495 0.5318 0.0
C138 C 0.82667 0.09684 0.51989 0.0
C139 C 0.82952 0.12667 0.53891 0.0
C140 C 0.81695 0.15511 0.52295 0.0
C141 C 0.7928 0.18485 0.47021 0.0
H142 H 0.81976 0.17854 0.53665 0.0
C143 C 0.76135 0.19157 0.46287 0.0
C144 C 0.75246 0.22242 0.44889 0.0
C145 C 0.81536 0.2086 0.46222 0.0
H146 H 0.83971 0.20377 0.46768 0.0
C147 C 0.8067 0.2388 0.44736 0.0
H148 H 0.74382 0.1735 0.46962 0.0
C149 C 0.77543 0.24582 0.44098 0.0
H150 H 0.76915 0.26962 0.42989 0.0
H151 H 0.82422 0.25699 0.44124 0.0
Sc152 Sc 0.99036 0.82105 0.30951 0.0
Sc153 Sc 0.98874 0.90721 0.31363 0.0
Sc154 Sc 0.9862 0.86139 0.39622 0.0
O155 O 0.98835 0.86316 0.33979 0.0
C156 C 0.94434 0.79988 0.37484 0.0
C157 C 0.94386 0.86473 0.26176 0.0
C158 C 0.93821 0.91883 0.37765 0.0
C159 C 0.03654 0.8671 0.26371 0.0
C160 C 0.0373 0.8069 0.37635 0.0
C161 C 0.03135 0.92259 0.38335 0.0
O162 O 0.9556 0.79664 0.34244 0.0
O163 O 0.95453 0.89155 0.27427 0.0
O164 O 0.94759 0.89566 0.3986 0.0
O165 O 0.02587 0.8392 0.27259 0.0
O166 O 0.0248 0.8272 0.39879 0.0
O167 O 0.02323 0.92767 0.34998 0.0
O168 O 0.02713 0.80201 0.34369 0.0
O169 O 0.02579 0.89369 0.2768 0.0
O170 O 0.01939 0.90023 0.40326 0.0
O171 O 0.95396 0.83682 0.27209 0.0
O172 O 0.95294 0.82224 0.39697 0.0
O173 O 0.95141 0.92589 0.34713 0.0
Sc174 Sc 0.00816 0.18285 0.81647 0.0
Sc175 Sc 0.01716 0.09708 0.80913 0.0
Sc176 Sc 0.0103 0.13347 0.897 0.0
O177 O 0.01192 0.13787 0.84086 0.0
C178 C 0.05084 0.19835 0.88665 0.0
C179 C 0.06099 0.14799 0.76765 0.0
C180 C 0.06238 0.08057 0.87685 0.0
C181 C 0.9688 0.13906 0.76103 0.0
C182 C 0.95824 0.18784 0.88216 0.0
C183 C 0.96909 0.07273 0.87016 0.0
O184 O 0.04142 0.20437 0.85389 0.0
O185 O 0.05401 0.11908 0.77767 0.0
O186 O 0.05025 0.1011 0.89919 0.0
O187 O 0.9744 0.1664 0.77645 0.0
O188 O 0.97027 0.16492 0.90126 0.0
O189 O 0.98071 0.07109 0.83775 0.0
O190 O 0.96968 0.19748 0.85148 0.0
O191 O 0.98303 0.11281 0.76954 0.0
O192 O 0.97817 0.09316 0.89443 0.0
O193 O 0.04593 0.17328 0.77809 0.0
O194 O 0.04142 0.17396 0.90548 0.0
O195 O 0.05214 0.07614 0.84426 0.0
Sc196 Sc 0.49528 0.32192 0.32152 0.0
Sc197 Sc 0.50023 0.40799 0.31864 0.0
Sc198 Sc 0.49347 0.36824 0.40434 0.0
O199 O 0.49622 0.36595 0.34811 0.0
C200 C 0.44857 0.30764 0.38789 0.0
C201 C 0.45226 0.36668 0.27004 0.0
C202 C 0.44952 0.42679 0.3809 0.0
C203 C 0.54517 0.36061 0.27278 0.0
C204 C 0.54158 0.31008 0.39017 0.0
C205 C 0.54189 0.42571 0.38722 0.0
O206 O 0.45771 0.3032 0.35478 0.0
O207 O 0.46435 0.39322 0.28132 0.0
O208 O 0.45556 0.40286 0.40243 0.0
O209 O 0.53279 0.33433 0.28443 0.0
O210 O 0.53135 0.33402 0.40939 0.0
O211 O 0.5369 0.42674 0.35262 0.0
O212 O 0.52998 0.3019 0.35895 0.0
O213 O 0.5358 0.38881 0.2827 0.0
O214 O 0.52657 0.40761 0.40924 0.0
O215 O 0.46092 0.33855 0.28157 0.0
O216 O 0.46011 0.32933 0.40892 0.0
O217 O 0.46492 0.43241 0.35136 0.0
Sc218 Sc 0.50691 0.67751 0.81381 0.0
Sc219 Sc 0.50475 0.59134 0.81052 0.0
Sc220 Sc 0.50185 0.63179 0.89688 0.0
O221 O 0.50455 0.63356 0.84045 0.0
C222 C 0.54932 0.69074 0.88499 0.0
C223 C 0.55574 0.63459 0.76836 0.0
C224 C 0.54794 0.57211 0.87921 0.0
C225 C 0.46228 0.63735 0.75993 0.0
C226 C 0.45617 0.69118 0.87681 0.0
C227 C 0.4549 0.57478 0.8731 0.0
O228 O 0.54045 0.69683 0.8521 0.0
O229 O 0.54322 0.60746 0.77699 0.0
O230 O 0.53737 0.59412 0.90094 0.0
O231 O 0.47362 0.66389 0.77217 0.0
O232 O 0.46605 0.66897 0.89866 0.0
O233 O 0.46678 0.5703 0.8412 0.0
O234 O 0.46849 0.69698 0.84539 0.0
O235 O 0.47104 0.60935 0.77135 0.0
O236 O 0.46516 0.59584 0.89597 0.0
O237 O 0.5453 0.66214 0.77931 0.0
O238 O 0.53772 0.66795 0.90462 0.0
O239 O 0.53811 0.56839 0.84628 0.0
H240 H 0.18122 0.35448 0.93661 0.0
H241 H 0.06708 0.20175 0.95991 0.0
H242 H 0.13884 0.32676 0.04045 0.0
H243 H 0.08419 0.24803 0.85406 0.0
H244 H 0.10026 0.2423 0.98951 0.0
H245 H 0.1523 0.31057 0.90559 0.0
C246 C 0.16595 0.33903 0.95285 0.0
C247 C 0.16218 0.34433 0.99105 0.0
C248 C 0.09682 0.24351 0.95979 0.0
C249 C 0.12936 0.29419 0.956 0.0
C250 C 0.07798 0.22027 0.94279 0.0
C251 C 0.07262 0.22156 0.9044 0.0
C252 C 0.11071 0.26813 0.9383 0.0
C253 C 0.08744 0.24622 0.88376 0.0
C254 C 0.1494 0.31415 0.93516 0.0
C255 C 0.14206 0.32376 0.01085 0.0
N256 N 0.10581 0.26857 0.90098 0.0
N257 N 0.12646 0.29956 0.99312 0.0
H258 H 0.86334 0.61343 0.42692 0.0
H259 H 0.90852 0.80209 0.43783 0.0
H260 H 0.82351 0.67967 0.50735 0.0
H261 H 0.92988 0.74067 0.34357 0.0
H262 H 0.8769 0.75802 0.46365 0.0
H263 H 0.88823 0.65988 0.39626 0.0
C264 C 0.85989 0.6378 0.43813 0.0
C265 C 0.84156 0.64273 0.46986 0.0
C266 C 0.88826 0.75433 0.43714 0.0
C267 C 0.86983 0.69602 0.43487 0.0
C268 C 0.90635 0.77947 0.42236 0.0
C269 C 0.92214 0.77502 0.38859 0.0
C270 C 0.88621 0.72435 0.41825 0.0
C271 C 0.91824 0.74523 0.36972 0.0
C272 C 0.87389 0.66433 0.42047 0.0
C273 C 0.83741 0.67485 0.48288 0.0
N274 N 0.90096 0.72091 0.38501 0.0
N275 N 0.85167 0.70028 0.46552 0.0
H276 H 0.79352 0.30858 0.9167 0.0
H277 H 0.91939 0.16496 0.93637 0.0
H278 H 0.77314 0.21314 0.9617 0.0
H279 H 0.92964 0.24443 0.85817 0.0
H280 H 0.86927 0.18753 0.95524 0.0
H281 H 0.8471 0.29039 0.90432 0.0
C282 C 0.80048 0.28396 0.92433 0.0
C283 C 0.77895 0.26221 0.93998 0.0
C284 C 0.88257 0.20011 0.93409 0.0
C285 C 0.83983 0.24139 0.92613 0.0
C286 C 0.91129 0.18733 0.92337 0.0
C287 C 0.92877 0.20271 0.89545 0.0
C288 C 0.87124 0.22868 0.91709 0.0
C289 C 0.91688 0.23162 0.8796 0.0
C290 C 0.83089 0.27355 0.91708 0.0
C291 C 0.78898 0.23051 0.9492 0.0
N292 N 0.88882 0.24367 0.89063 0.0
N293 N 0.81868 0.22105 0.94215 0.0
H294 H 0.22507 0.73791 0.36702 0.0
H295 H 0.06442 0.80352 0.4455 0.0
H296 H 0.20281 0.73211 0.48346 0.0
H297 H 0.077 0.77196 0.33208 0.0
H298 H 0.11524 0.77977 0.46081 0.0
H299 H 0.17115 0.75302 0.35397 0.0
C300 C 0.20867 0.73965 0.38978 0.0
C301 C 0.21825 0.73386 0.42632 0.0
C302 C 0.1066 0.77777 0.43271 0.0
C303 C 0.1567 0.7515 0.41178 0.0
C304 C 0.07765 0.79137 0.42391 0.0
C305 C 0.0664 0.78994 0.38738 0.0
C306 C 0.12459 0.76313 0.40466 0.0
C307 C 0.08461 0.77376 0.3606 0.0
C308 C 0.17792 0.74815 0.38236 0.0
C309 C 0.19616 0.73627 0.45489 0.0
N310 N 0.11289 0.76137 0.36969 0.0
N311 N 0.16641 0.74534 0.44708 0.0
H312 H 0.69313 0.83511 0.92184 0.0
H313 H 0.56152 0.70098 0.95871 0.0
H314 H 0.63869 0.83142 0.02231 0.0
H315 H 0.59114 0.72992 0.84902 0.0
H316 H 0.59764 0.7408 0.98521 0.0
H317 H 0.66361 0.7885 0.89765 0.0
C318 C 0.67521 0.82421 0.93894 0.0
C319 C 0.66812 0.8372 0.97396 0.0
C320 C 0.59634 0.73821 0.95536 0.0
C321 C 0.63446 0.78404 0.94665 0.0
C322 C 0.57587 0.71539 0.94021 0.0
C323 C 0.5731 0.71233 0.90157 0.0
C324 C 0.61447 0.75774 0.93173 0.0
C325 C 0.59226 0.73173 0.87895 0.0
C326 C 0.6583 0.79779 0.92508 0.0
C327 C 0.64457 0.82233 0.99496 0.0
N328 N 0.61209 0.75364 0.89436 0.0
N329 N 0.62855 0.79653 0.98098 0.0
H330 H 0.30269 0.16457 0.42553 0.0
H331 H 0.43797 0.29373 0.46096 0.0
H332 H 0.36666 0.15686 0.51702 0.0
H333 H 0.40624 0.26973 0.35074 0.0
H334 H 0.40293 0.25233 0.48631 0.0
H335 H 0.33201 0.21191 0.40214 0.0
C336 C 0.32269 0.17315 0.44086 0.0
C337 C 0.33247 0.15689 0.47309 0.0
C338 C 0.40351 0.25637 0.45661 0.0
C339 C 0.36566 0.21079 0.4469 0.0
C340 C 0.42334 0.28009 0.4421 0.0
C341 C 0.42519 0.28505 0.40361 0.0
C342 C 0.38501 0.23784 0.43256 0.0
C343 C 0.40574 0.2665 0.38055 0.0
C344 C 0.33943 0.19993 0.42746 0.0
C345 C 0.3586 0.16869 0.49191 0.0
N346 N 0.38641 0.24368 0.39539 0.0
N347 N 0.37428 0.19503 0.47859 0.0
H348 H 0.26931 0.76411 0.87201 0.0
H349 H 0.43084 0.69912 0.94619 0.0
H350 H 0.29773 0.7794 0.98526 0.0
H351 H 0.41647 0.72471 0.83123 0.0
H352 H 0.38132 0.72558 0.96173 0.0
H353 H 0.32231 0.74661 0.85661 0.0
C354 C 0.28686 0.76399 0.89352 0.0
C355 C 0.2793 0.77313 0.92991 0.0
C356 C 0.38924 0.72569 0.93319 0.0
C357 C 0.33965 0.75275 0.91275 0.0
C358 C 0.41742 0.71051 0.92427 0.0
C359 C 0.42779 0.7096 0.88733 0.0
C360 C 0.37103 0.73946 0.90488 0.0
C361 C 0.40947 0.72488 0.86009 0.0
C362 C 0.31705 0.75415 0.88474 0.0
C363 C 0.30279 0.77268 0.95683 0.0
N364 N 0.38179 0.7388 0.86935 0.0
N365 N 0.33188 0.76221 0.94783 0.0
H366 H 0.70726 0.18834 0.41176 0.0
H367 H 0.5772 0.32477 0.45071 0.0
H368 H 0.72251 0.2764 0.47508 0.0
H369 H 0.5706 0.25588 0.36012 0.0
H370 H 0.62649 0.30002 0.46854 0.0
H371 H 0.65329 0.20604 0.40078 0.0
C372 C 0.6991 0.2112 0.42362 0.0
C373 C 0.7193 0.23115 0.44401 0.0
C374 C 0.61415 0.29016 0.4449 0.0
C375 C 0.658 0.2513 0.43193 0.0
C376 C 0.58588 0.30421 0.43473 0.0
C377 C 0.56974 0.29266 0.40356 0.0
C378 C 0.62649 0.26422 0.42396 0.0
C379 C 0.5823 0.2658 0.38415 0.0
C380 C 0.66847 0.22132 0.41725 0.0
C381 C 0.70775 0.26055 0.45877 0.0
N382 N 0.61004 0.25258 0.39455 0.0
N383 N 0.6779 0.26974 0.45242 0.0
H384 H 0.35285 0.40685 0.94361 0.0
H385 H 0.41025 0.58811 0.92517 0.0
H386 H 0.29625 0.48812 0.97965 0.0
H387 H 0.43964 0.51384 0.84731 0.0
H388 H 0.36895 0.55163 0.94665 0.0
H389 H 0.38525 0.44489 0.90789 0.0
C390 C 0.34684 0.43265 0.9431 0.0
C391 C 0.32186 0.4445 0.96423 0.0
C392 C 0.38422 0.5435 0.92455 0.0
C393 C 0.35925 0.48812 0.92485 0.0
C394 C 0.40792 0.56419 0.91248 0.0
C395 C 0.42856 0.55389 0.88461 0.0
C396 C 0.38156 0.51201 0.90925 0.0
C397 C 0.42426 0.52276 0.86889 0.0
C398 C 0.36532 0.45433 0.92291 0.0
C399 C 0.31516 0.47812 0.9633 0.0
N400 N 0.40153 0.5027 0.88183 0.0
N401 N 0.33414 0.49891 0.9445 0.0
H402 H 0.63445 0.58429 0.49673 0.0
H403 H 0.59873 0.44064 0.35798 0.0
H404 H 0.70742 0.51522 0.46934 0.0
H405 H 0.53868 0.46051 0.45131 0.0
H406 H 0.6377 0.47792 0.38462 0.0
H407 H 0.59723 0.5491 0.46512 0.0
C408 C 0.64279 0.56186 0.48411 0.0
C409 C 0.67421 0.55249 0.4866 0.0
C410 C 0.61593 0.47401 0.39905 0.0
C411 C 0.63174 0.51302 0.44903 0.0
C412 C 0.59379 0.45294 0.38397 0.0
C413 C 0.56569 0.44749 0.40273 0.0
C414 C 0.60927 0.4904 0.4323 0.0
C415 C 0.56024 0.46389 0.43628 0.0
C416 C 0.6215 0.54198 0.46589 0.0
C417 C 0.6836 0.5237 0.46815 0.0
N418 N 0.58174 0.48495 0.44984 0.0
N419 N 0.66241 0.50492 0.45013 0.0
H420 H 0.67616 0.45815 0.01308 0.0
H421 H 0.5728 0.51947 0.84252 0.0
H422 H 0.6487 0.39661 0.9215 0.0
H423 H 0.57789 0.57129 0.94681 0.0
H424 H 0.60922 0.47893 0.86635 0.0
H425 H 0.64891 0.50421 0.9841 0.0
C426 C 0.66469 0.45435 0.98672 0.0
C427 C 0.66447 0.42324 0.96998 0.0
C428 C 0.60251 0.49926 0.88396 0.0
C429 C 0.63353 0.476 0.93656 0.0
C430 C 0.58168 0.52253 0.87039 0.0
C431 C 0.57187 0.54878 0.89283 0.0
C432 C 0.61387 0.50216 0.92023 0.0
C433 C 0.58452 0.55136 0.92861 0.0
C434 C 0.64919 0.48069 0.97022 0.0
C435 C 0.64979 0.42007 0.9354 0.0
N436 N 0.60475 0.52823 0.94128 0.0
N437 N 0.63473 0.44602 0.92003 0.0
H438 H 0.34752 0.60573 0.41126 0.0
H439 H 0.40973 0.42371 0.44058 0.0
H440 H 0.31872 0.54367 0.5019 0.0
H441 H 0.43187 0.48311 0.34496 0.0
H442 H 0.37178 0.46495 0.45989 0.0
H443 H 0.37295 0.5587 0.38235 0.0
C444 C 0.34586 0.58205 0.42467 0.0
C445 C 0.33126 0.57875 0.45932 0.0
C446 C 0.38473 0.46881 0.43448 0.0
C447 C 0.36113 0.52491 0.42681 0.0
C448 C 0.4065 0.44527 0.42346 0.0
C449 C 0.42442 0.45007 0.39133 0.0
C450 C 0.38095 0.49751 0.4134 0.0
C451 C 0.41889 0.47842 0.37014 0.0
C452 C 0.36068 0.55521 0.40829 0.0
C453 C 0.33024 0.54746 0.47553 0.0
N454 N 0.39792 0.50117 0.38176 0.0
N455 N 0.34537 0.52188 0.45943 0.0
H456 H 0.86434 0.90333 0.93318 0.0
H457 H 0.92187 0.08447 0.91882 0.0
H458 H 0.80414 0.98475 0.95913 0.0
H459 H 0.95727 0.01097 0.84365 0.0
H460 H 0.87987 0.04738 0.93636 0.0
H461 H 0.89964 0.94098 0.9009 0.0
C462 C 0.85823 0.92904 0.93114 0.0
C463 C 0.83135 0.94109 0.94852 0.0
C464 C 0.89666 0.03948 0.91578 0.0
C465 C 0.87189 0.98421 0.9131 0.0
C466 C 0.92079 0.06049 0.90603 0.0
C467 C 0.94323 0.05063 0.88 0.0
C468 C 0.89531 0.00808 0.90006 0.0
C469 C 0.94047 0.01946 0.8639 0.0
C470 C 0.87834 0.95047 0.9129 0.0
C471 C 0.82453 0.97459 0.94569 0.0
N472 N 0.91719 0.99903 0.87462 0.0
N473 N 0.84501 0.99514 0.92896 0.0
H474 H 0.17748 0.06452 0.42557 0.0
H475 H 0.05006 0.92457 0.45584 0.0
H476 H 0.14352 0.03371 0.53265 0.0
H477 H 0.06766 0.96907 0.34912 0.0
H478 H 0.08863 0.96055 0.48339 0.0
H479 H 0.14168 0.02575 0.39599 0.0
C480 C 0.16258 0.0495 0.44279 0.0
C481 C 0.16317 0.05251 0.48154 0.0
C482 C 0.08409 0.96245 0.45393 0.0
C483 C 0.12245 0.00826 0.44813 0.0
C484 C 0.06207 0.94183 0.43811 0.0
C485 C 0.0554 0.94384 0.40007 0.0
C486 C 0.0998 0.98524 0.43163 0.0
C487 C 0.07187 0.96675 0.3786 0.0
C488 C 0.14211 0.02754 0.42595 0.0
C489 C 0.14341 0.03255 0.50265 0.0
N490 N 0.09331 0.98658 0.39468 0.0
N491 N 0.12389 0.0113 0.48569 0.0
H492 H 0.16928 0.90851 0.91338 0.0
H493 H 0.09386 0.08261 0.94333 0.0
H494 H 0.19355 0.97058 0.00578 0.0
H495 H 0.09108 0.03085 0.8389 0.0
H496 H 0.13376 0.04426 0.96494 0.0
H497 H 0.14567 0.95543 0.88276 0.0
C498 C 0.17054 0.93217 0.92685 0.0
C499 C 0.18295 0.93532 0.96267 0.0
C500 C 0.12469 0.04161 0.93711 0.0
C501 C 0.15469 0.98911 0.92816 0.0
C502 C 0.10178 0.06342 0.92481 0.0
C503 C 0.08865 0.05972 0.88944 0.0
C504 C 0.1343 0.01571 0.91404 0.0
C505 C 0.10015 0.03453 0.86656 0.0
C506 C 0.15666 0.95899 0.90944 0.0
C507 C 0.18345 0.96674 0.97866 0.0
N508 N 0.12195 0.01329 0.87943 0.0
N509 N 0.16886 0.99225 0.9617 0.0
H510 H 0.83142 0.09149 0.41164 0.0
H511 H 0.90406 0.9156 0.44241 0.0
H512 H 0.80837 0.03076 0.50574 0.0
H513 H 0.91147 0.96972 0.33977 0.0
H514 H 0.86408 0.95424 0.46329 0.0
H515 H 0.85416 0.04395 0.38107 0.0
C516 C 0.83023 0.06797 0.42548 0.0
C517 C 0.8185 0.06535 0.46171 0.0
C518 C 0.87418 0.95736 0.43599 0.0
C519 C 0.84569 0.01088 0.42731 0.0
C520 C 0.89712 0.93534 0.4241 0.0
C521 C 0.91165 0.93967 0.38954 0.0
C522 C 0.8659 0.98401 0.41329 0.0
C523 C 0.90138 0.96559 0.36689 0.0
C524 C 0.84361 0.0408 0.40813 0.0
C525 C 0.81793 0.03411 0.47821 0.0
N526 N 0.87949 0.98694 0.37935 0.0
N527 N 0.83201 0.00827 0.46127 0.0
H528 H 0.31588 0.33896 0.09294 0.0
H529 H 0.42538 0.42253 0.24377 0.0
H530 H 0.34918 0.43839 0.08777 0.0
H531 H 0.42334 0.31734 0.23036 0.0
H532 H 0.38909 0.42812 0.19294 0.0
H533 H 0.3479 0.32999 0.14882 0.0
C534 C 0.3299 0.3588 0.10361 0.0
C535 C 0.33028 0.38932 0.08563 0.0
C536 C 0.3965 0.40376 0.20107 0.0
C537 C 0.36615 0.37952 0.14919 0.0
C538 C 0.41726 0.40048 0.23025 0.0
C539 C 0.42792 0.36937 0.24114 0.0
C540 C 0.38602 0.37582 0.1824 0.0
C541 C 0.41597 0.3418 0.22271 0.0
C542 C 0.34813 0.35368 0.13527 0.0
C543 C 0.34865 0.41434 0.10046 0.0
N544 N 0.39572 0.34566 0.19398 0.0
N545 N 0.36574 0.4089 0.13136 0.0
H546 H 0.67036 0.65629 0.57693 0.0
H547 H 0.59656 0.58401 0.75839 0.0
H548 H 0.71138 0.57523 0.63587 0.0
H549 H 0.57825 0.68337 0.72339 0.0
H550 H 0.64005 0.58143 0.71495 0.0
H551 H 0.63856 0.66898 0.63162 0.0
C552 C 0.67331 0.64189 0.60194 0.0
C553 C 0.69353 0.61494 0.60233 0.0
C554 C 0.62679 0.60395 0.71708 0.0
C555 C 0.65659 0.62828 0.66414 0.0
C556 C 0.60179 0.60536 0.74166 0.0
C557 C 0.5835 0.63381 0.74415 0.0
C558 C 0.63324 0.63096 0.69424 0.0
C559 C 0.59165 0.66089 0.7222 0.0
C560 C 0.6551 0.64895 0.63301 0.0
C561 C 0.69621 0.59645 0.63488 0.0
N562 N 0.61564 0.65862 0.6977 0.0
N563 N 0.67749 0.6031 0.66435 0.0
H564 H 0.6477 0.3077 0.07773 0.0
H565 H 0.58408 0.40948 0.24951 0.0
H566 H 0.67877 0.40527 0.10459 0.0
H567 H 0.56432 0.30688 0.23289 0.0
H568 H 0.62236 0.40684 0.19966 0.0
H569 H 0.62143 0.30484 0.13766 0.0
C570 C 0.64964 0.32826 0.09655 0.0
C571 C 0.66521 0.35694 0.08588 0.0
C572 C 0.6099 0.3848 0.20715 0.0
C573 C 0.63443 0.35412 0.15423 0.0
C574 C 0.58792 0.38631 0.23557 0.0
C575 C 0.5706 0.35846 0.24513 0.0
C576 C 0.61442 0.35532 0.18777 0.0
C577 C 0.57693 0.32904 0.22633 0.0
C578 C 0.63438 0.3267 0.13071 0.0
C579 C 0.66651 0.38294 0.11134 0.0
N580 N 0.59804 0.32835 0.19824 0.0
N581 N 0.65096 0.38108 0.14408 0.0
H582 H 0.35766 0.6924 0.56638 0.0
H583 H 0.42539 0.58779 0.73394 0.0
H584 H 0.32495 0.59565 0.59454 0.0
H585 H 0.44376 0.69101 0.71965 0.0
H586 H 0.38715 0.59084 0.68418 0.0
H587 H 0.38694 0.69368 0.62426 0.0
C588 C 0.35606 0.6717 0.58508 0.0
C589 C 0.33903 0.64372 0.57536 0.0
C590 C 0.39938 0.61289 0.69211 0.0
C591 C 0.37323 0.6447 0.64125 0.0
C592 C 0.42136 0.61113 0.72043 0.0
C593 C 0.43809 0.63912 0.73082 0.0
C594 C 0.39424 0.64276 0.67372 0.0
C595 C 0.43157 0.66875 0.7125 0.0
C596 C 0.37303 0.67234 0.61802 0.0
C597 C 0.33825 0.61746 0.60055 0.0
N598 N 0.41038 0.66972 0.68463 0.0
N599 N 0.35543 0.61842 0.63208 0.0
H600 H 0.84351 0.9389 0.07624 0.0
H601 H 0.91797 0.81461 0.2207 0.0
H602 H 0.81902 0.83659 0.07597 0.0
H603 H 0.915 0.91963 0.23552 0.0
H604 H 0.88257 0.82041 0.16772 0.0
H605 H 0.87145 0.93086 0.13417 0.0
C606 C 0.84412 0.91466 0.08853 0.0
C607 C 0.82932 0.88827 0.0713 0.0
C608 C 0.88949 0.84204 0.18294 0.0
C609 C 0.86126 0.87876 0.13772 0.0
C610 C 0.90969 0.83879 0.21315 0.0
C611 C 0.91989 0.86671 0.23237 0.0
C612 C 0.87972 0.87341 0.17184 0.0
C613 C 0.90823 0.89739 0.22138 0.0
C614 C 0.85989 0.91009 0.12171 0.0
C615 C 0.83032 0.85746 0.08853 0.0
N616 N 0.88909 0.89989 0.19173 0.0
N617 N 0.8464 0.8534 0.12075 0.0
H618 H 0.14215 0.15766 0.55511 0.0
H619 H 0.11308 0.11031 0.76121 0.0
H620 H 0.21272 0.1098 0.62048 0.0
H621 H 0.06667 0.19361 0.71235 0.0
H622 H 0.15108 0.1113 0.71078 0.0
H623 H 0.11528 0.17368 0.61235 0.0
C624 C 0.15233 0.15128 0.58162 0.0
C625 C 0.17954 0.13234 0.58326 0.0
C626 C 0.13295 0.12977 0.71142 0.0
C627 C 0.14868 0.14969 0.64854 0.0
C628 C 0.11118 0.12911 0.74009 0.0
C629 C 0.08658 0.15172 0.74069 0.0
C630 C 0.12961 0.15266 0.68261 0.0
C631 C 0.08531 0.17573 0.71284 0.0
C632 C 0.13705 0.16039 0.61422 0.0
C633 C 0.19183 0.12452 0.61815 0.0
N634 N 0.10616 0.17515 0.68442 0.0
N635 N 0.17595 0.13262 0.64947 0.0
H636 H 0.18548 0.83508 0.10247 0.0
H637 H 0.05381 0.9207 0.22356 0.0
H638 H 0.12332 0.9099 0.06073 0.0
H639 H 0.07503 0.81796 0.23817 0.0
H640 H 0.09046 0.92263 0.17201 0.0
H641 H 0.1545 0.83308 0.15981 0.0
C642 C 0.16553 0.85114 0.10526 0.0
C643 C 0.15742 0.87306 0.07671 0.0
C644 C 0.08722 0.89974 0.18672 0.0
C645 C 0.12266 0.87137 0.14237 0.0
C646 C 0.06643 0.89861 0.21627 0.0
C647 C 0.06105 0.86901 0.23498 0.0
C648 C 0.10312 0.87122 0.17602 0.0
C649 C 0.0782 0.84119 0.22419 0.0
C650 C 0.14803 0.85004 0.13801 0.0
C651 C 0.13136 0.8934 0.08218 0.0
N652 N 0.0985 0.84293 0.19527 0.0
N653 N 0.11513 0.8922 0.11436 0.0
H654 H 0.88363 0.09387 0.55364 0.0
H655 H 0.92527 0.18546 0.74066 0.0
H656 H 0.82024 0.16448 0.60166 0.0
H657 H 0.95993 0.08928 0.71186 0.0
H658 H 0.88946 0.18265 0.68773 0.0
H659 H 0.91515 0.09649 0.60917 0.0
C660 C 0.87596 0.10957 0.57608 0.0
C661 C 0.84872 0.12846 0.57313 0.0
C662 C 0.90482 0.16216 0.69334 0.0
C663 C 0.8857 0.13239 0.63665 0.0
C664 C 0.92531 0.16376 0.72337 0.0
C665 C 0.94577 0.13763 0.73065 0.0
C666 C 0.90526 0.1345 0.67022 0.0
C667 C 0.94467 0.11005 0.70744 0.0
C668 C 0.89421 0.11123 0.60775 0.0
C669 C 0.841 0.14947 0.60268 0.0
N670 N 0.92499 0.10937 0.67817 0.0
N671 N 0.85947 0.15097 0.63327 0.0
loop_
_geom_bond_atom_site_label_1
_geom_bond_atom_site_label_2
_geom_bond_distance
_geom_bond_site_symmetry_2
_ccdc_geom_bond_type
H0 C1 0.949 . S
C1 H0 0.949 . S
C1 C2 1.395 . S
C1 C3 1.391 1_556 S
C2 C1 1.395 . S
C2 C5 1.390 1_556 S
C3 C1 1.391 1_554 S
C3 C7 1.387 . S
C3 C8 1.491 . S
H4 C5 0.950 . S
C5 C2 1.390 1_554 S
C5 H4 0.950 . S
C5 C6 1.378 . S
C6 C5 1.378 . S
C6 C7 1.409 . S
C7 C3 1.387 . S
C7 C6 1.409 . S
C7 H9 0.951 . S
C8 C3 1.491 . S
C8 C10 1.382 1_554 S
C8 C12 1.404 . S
H9 C7 0.951 . S
C10 C8 1.382 1_556 S
C10 C11 1.390 . S
C10 H15 0.949 . S
C11 C10 1.390 . S
C11 C16 1.399 1_556 S
C12 C8 1.404 . S
C12 H13 0.950 . S
C12 C14 1.375 . S
H13 C12 0.950 . S
C14 C12 1.375 . S
C14 C16 1.382 . S
C14 H18 0.950 . S
H15 C10 0.949 . S
C16 C11 1.399 1_554 S
C16 C14 1.382 . S
C16 H17 0.952 . S
H17 C16 0.952 . S
H18 C14 0.950 . S
H19 C20 0.949 . S
C20 H19 0.949 . S
C20 C21 1.395 . S
C20 C22 1.391 . S
C21 C20 1.395 . S
C21 C24 1.390 . S
C22 C20 1.391 . S
C22 C26 1.387 . S
C22 C27 1.491 . S
H23 C24 0.950 . S
C24 C21 1.390 . S
C24 H23 0.950 . S
C24 C25 1.378 . S
C25 C24 1.378 . S
C25 C26 1.409 . S
C26 C22 1.387 . S
C26 C25 1.409 . S
C26 H28 0.951 . S
C27 C22 1.491 . S
C27 C29 1.382 . S
C27 C31 1.404 . S
H28 C26 0.951 . S
C29 C27 1.382 . S
C29 C30 1.390 . S
C29 H34 0.949 . S
C30 C29 1.390 . S
C30 C35 1.399 . S
C31 C27 1.404 . S
C31 H32 0.950 . S
C31 C33 1.375 . S
H32 C31 0.950 . S
C33 C31 1.375 . S
C33 C35 1.382 . S
C33 H37 0.950 . S
H34 C29 0.949 . S
C35 C30 1.399 . S
C35 C33 1.382 . S
C35 H36 0.952 . S
H36 C35 0.952 . S
H37 C33 0.950 . S
H38 C39 0.949 . S
C39 H38 0.949 . S
C39 C40 1.395 . S
C39 C41 1.391 1_556 S
C40 C39 1.395 . S
C40 C43 1.390 1_556 S
C41 C39 1.391 1_554 S
C41 C45 1.387 . S
C41 C46 1.491 . S
H42 C43 0.950 . S
C43 C40 1.390 1_554 S
C43 H42 0.950 . S
C43 C44 1.378 . S
C44 C43 1.378 . S
C44 C45 1.409 . S
C45 C41 1.387 . S
C45 C44 1.409 . S
C45 H47 0.951 . S
C46 C41 1.491 . S
C46 C48 1.382 1_554 S
C46 C50 1.404 . S
H47 C45 0.951 . S
C48 C46 1.382 1_556 S
C48 C49 1.390 . S
C48 H53 0.949 . S
C49 C48 1.390 . S
C49 C54 1.399 . S
C50 C46 1.404 . S
C50 H51 0.950 . S
C50 C52 1.375 . S
H51 C50 0.950 . S
C52 C50 1.375 . S
C52 C54 1.382 1_554 S
C52 H56 0.950 . S
H53 C48 0.949 . S
C54 C49 1.399 . S
C54 C52 1.382 1_556 S
C54 H55 0.952 . S
H55 C54 0.952 . S
H56 C52 0.950 . S
H57 C58 0.949 . S
C58 H57 0.949 . S
C58 C59 1.395 . S
C58 C60 1.391 . S
C59 C58 1.395 . S
C59 C62 1.390 . S
C60 C58 1.391 . S
C60 C64 1.387 . S
C60 C65 1.491 . S
H61 C62 0.950 . S
C62 C59 1.390 . S
C62 H61 0.950 . S
C62 C63 1.378 . S
C63 C62 1.378 . S
C63 C64 1.409 . S
C64 C60 1.387 . S
C64 C63 1.409 . S
C64 H66 0.951 . S
C65 C60 1.491 . S
C65 C67 1.382 . S
C65 C69 1.404 . S
H66 C64 0.951 . S
C67 C65 1.382 . S
C67 C68 1.390 . S
C67 H72 0.949 . S
C68 C67 1.390 . S
C68 C73 1.399 . S
C69 C65 1.404 . S
C69 H70 0.950 . S
C69 C71 1.375 . S
H70 C69 0.950 . S
C71 C69 1.375 . S
C71 C73 1.382 . S
C71 H75 0.950 . S
H72 C67 0.949 . S
C73 C68 1.399 . S
C73 C71 1.382 . S
C73 H74 0.952 . S
H74 C73 0.952 . S
H75 C71 0.950 . S
H76 C77 0.949 . S
C77 H76 0.949 . S
C77 C78 1.395 . S
C77 C79 1.391 1_556 S
C78 C77 1.395 . S
C78 C81 1.390 1_556 S
C79 C77 1.391 1_554 S
C79 C83 1.387 . S
C79 C84 1.491 . S
H80 C81 0.950 . S
C81 C78 1.390 1_554 S
C81 H80 0.950 . S
C81 C82 1.378 . S
C82 C81 1.378 . S
C82 C83 1.409 . S
C83 C79 1.387 . S
C83 C82 1.409 . S
C83 H85 0.951 . S
C84 C79 1.491 . S
C84 C86 1.382 1_554 S
C84 C88 1.404 . S
H85 C83 0.951 . S
C86 C84 1.382 1_556 S
C86 C87 1.390 . S
C86 H91 0.949 . S
C87 C86 1.390 . S
C87 C92 1.399 1_556 S
C88 C84 1.404 . S
C88 H89 0.950 . S
C88 C90 1.375 . S
H89 C88 0.950 . S
C90 C88 1.375 . S
C90 C92 1.382 . S
C90 H94 0.950 . S
H91 C86 0.949 . S
C92 C87 1.399 1_554 S
C92 C90 1.382 . S
C92 H93 0.952 . S
H93 C92 0.952 . S
H94 C90 0.950 . S
H95 C96 0.949 . S
C96 H95 0.949 . S
C96 C97 1.395 . S
C96 C98 1.391 . S
C97 C96 1.395 . S
C97 C100 1.390 . S
C98 C96 1.391 . S
C98 C102 1.387 . S
C98 C103 1.491 . S
H99 C100 0.950 . S
C100 C97 1.390 . S
C100 H99 0.950 . S
C100 C101 1.378 . S
C101 C100 1.378 . S
C101 C102 1.409 . S
C102 C98 1.387 . S
C102 C101 1.409 . S
C102 H104 0.951 . S
C103 C98 1.491 . S
C103 C105 1.382 . S
C103 C107 1.404 . S
H104 C102 0.951 . S
C105 C103 1.382 . S
C105 C106 1.390 . S
C105 H110 0.949 . S
C106 C105 1.390 . S
C106 C111 1.399 . S
C107 C103 1.404 . S
C107 H108 0.950 . S
C107 C109 1.375 . S
H108 C107 0.950 . S
C109 C107 1.375 . S
C109 C111 1.382 . S
C109 H113 0.950 . S
H110 C105 0.949 . S
C111 C106 1.399 . S
C111 C109 1.382 . S
C111 H112 0.952 . S
H112 C111 0.952 . S
H113 C109 0.950 . S
H114 C115 0.949 . S
C115 H114 0.949 . S
C115 C116 1.395 . S
C115 C117 1.391 1_556 S
C116 C115 1.395 . S
C116 C119 1.390 1_556 S
C117 C115 1.391 1_554 S
C117 C121 1.387 . S
C117 C122 1.491 . S
H118 C119 0.950 . S
C119 C116 1.390 1_554 S
C119 H118 0.950 . S
C119 C120 1.378 . S
C120 C119 1.378 . S
C120 C121 1.409 . S
C121 C117 1.387 . S
C121 C120 1.409 . S
C121 H123 0.951 . S
C122 C117 1.491 . S
C122 C124 1.382 1_554 S
C122 C126 1.404 . S
H123 C121 0.951 . S
C124 C122 1.382 1_556 S
C124 C125 1.390 . S
C124 H129 0.949 . S
C125 C124 1.390 . S
C125 C130 1.399 . S
C126 C122 1.404 . S
C126 H127 0.950 . S
C126 C128 1.375 . S
H127 C126 0.950 . S
C128 C126 1.375 . S
C128 C130 1.382 1_554 S
C128 H132 0.950 . S
H129 C124 0.949 . S
C130 C125 1.399 . S
C130 C128 1.382 1_556 S
C130 H131 0.952 . S
H131 C130 0.952 . S
H132 C128 0.950 . S
H133 C134 0.949 . S
C134 H133 0.949 . S
C134 C135 1.395 . S
C134 C136 1.391 . S
C135 C134 1.395 . S
C135 C138 1.390 . S
C136 C134 1.391 . S
C136 C140 1.387 . S
C136 C141 1.491 . S
H137 C138 0.950 . S
C138 C135 1.390 . S
C138 H137 0.950 . S
C138 C139 1.378 . S
C139 C138 1.378 . S
C139 C140 1.409 . S
C140 C136 1.387 . S
C140 C139 1.409 . S
C140 H142 0.951 . S
C141 C136 1.491 . S
C141 C143 1.382 . S
C141 C145 1.404 . S
H142 C140 0.951 . S
C143 C141 1.382 . S
C143 C144 1.390 . S
C143 H148 0.949 . S
C144 C143 1.390 . S
C144 C149 1.399 . S
C145 C141 1.404 . S
C145 H146 0.950 . S
C145 C147 1.375 . S
H146 C145 0.950 . S
C147 C145 1.375 . S
C147 C149 1.382 . S
C147 H151 0.950 . S
H148 C143 0.949 . S
C149 C144 1.399 . S
C149 C147 1.382 . S
C149 H150 0.952 . S
H150 C149 0.952 . S
H151 C147 0.950 . S
Sc152 O155 2.025 . S
Sc152 O162 2.105 1_455 S
Sc152 O165 2.105 . S
Sc152 O168 2.105 . S
Sc152 O171 2.105 1_455 S
Sc153 O155 2.025 . S
Sc153 O163 2.105 1_455 S
Sc153 O167 2.105 . S
Sc153 O169 2.105 . S
Sc153 O173 2.105 1_455 S
Sc154 O155 2.025 . S
Sc154 O164 2.105 1_455 S
Sc154 O166 2.105 . S
Sc154 O170 2.105 . S
Sc154 O172 2.105 1_455 S
O155 Sc152 2.025 . S
O155 Sc153 2.025 . S
O155 Sc154 2.025 . S
C156 O162 1.268 . S
C156 O172 1.268 . S
C157 O163 1.268 . S
C157 O171 1.268 . S
C158 O164 1.268 . S
C158 O173 1.268 . S
C159 O165 1.268 . S
C159 O169 1.268 . S
C160 O166 1.268 . S
C160 O168 1.268 . S
C161 O167 1.268 . S
C161 O170 1.268 . S
O162 Sc152 2.105 1_655 S
O162 C156 1.268 . S
O163 Sc153 2.105 1_655 S
O163 C157 1.268 . S
O164 Sc154 2.105 1_655 S
O164 C158 1.268 . S
O165 Sc152 2.105 . S
O165 C159 1.268 . S
O166 Sc154 2.105 . S
O166 C160 1.268 . S
O167 Sc153 2.105 . S
O167 C161 1.268 . S
O168 Sc152 2.105 . S
O168 C160 1.268 . S
O169 Sc153 2.105 . S
O169 C159 1.268 . S
O170 Sc154 2.105 . S
O170 C161 1.268 . S
O171 Sc152 2.105 1_655 S
O171 C157 1.268 . S
O172 Sc154 2.105 1_655 S
O172 C156 1.268 . S
O173 Sc153 2.105 1_655 S
O173 C158 1.268 . S
Sc174 O177 2.025 . S
Sc174 O184 2.105 . S
Sc174 O187 2.105 1_455 S
Sc174 O190 2.105 1_455 S
Sc174 O193 2.105 . S
Sc175 O177 2.025 . S
Sc175 O185 2.105 . S
Sc175 O189 2.105 1_455 S
Sc175 O191 2.105 1_455 S
Sc175 O195 2.105 . S
Sc176 O177 2.025 . S
Sc176 O186 2.105 . S
Sc176 O188 2.105 1_455 S
Sc176 O192 2.105 1_455 S
Sc176 O194 2.105 . S
O177 Sc174 2.025 . S
O177 Sc175 2.025 . S
O177 Sc176 2.025 . S
C178 O184 1.268 . S
C178 O194 1.268 . S
C179 O185 1.268 . S
C179 O193 1.268 . S
C180 O186 1.268 . S
C180 O195 1.268 . S
C181 O187 1.268 . S
C181 O191 1.268 . S
C182 O188 1.268 . S
C182 O190 1.268 . S
C183 O189 1.268 . S
C183 O192 1.268 . S
O184 Sc174 2.105 . S
O184 C178 1.268 . S
O185 Sc175 2.105 . S
O185 C179 1.268 . S
O186 Sc176 2.105 . S
O186 C180 1.268 . S
O187 Sc174 2.105 1_655 S
O187 C181 1.268 . S
O188 Sc176 2.105 1_655 S
O188 C182 1.268 . S
O189 Sc175 2.105 1_655 S
O189 C183 1.268 . S
O190 Sc174 2.105 1_655 S
O190 C182 1.268 . S
O191 Sc175 2.105 1_655 S
O191 C181 1.268 . S
O192 Sc176 2.105 1_655 S
O192 C183 1.268 . S
O193 Sc174 2.105 . S
O193 C179 1.268 . S
O194 Sc176 2.105 . S
O194 C178 1.268 . S
O195 Sc175 2.105 . S
O195 C180 1.268 . S
Sc196 O199 2.025 . S
Sc196 O206 2.105 . S
Sc196 O209 2.105 . S
Sc196 O212 2.105 . S
Sc196 O215 2.105 . S
Sc197 O199 2.025 . S
Sc197 O207 2.105 . S
Sc197 O211 2.105 . S
Sc197 O213 2.105 . S
Sc197 O217 2.105 . S
Sc198 O199 2.025 . S
Sc198 O208 2.105 . S
Sc198 O210 2.105 . S
Sc198 O214 2.105 . S
Sc198 O216 2.105 . S
O199 Sc196 2.025 . S
O199 Sc197 2.025 . S
O199 Sc198 2.025 . S
C200 O206 1.268 . S
C200 O216 1.268 . S
C201 O207 1.268 . S
C201 O215 1.268 . S
C202 O208 1.268 . S
C202 O217 1.268 . S
C203 O209 1.268 . S
C203 O213 1.268 . S
C204 O210 1.268 . S
C204 O212 1.268 . S
C205 O211 1.268 . S
C205 O214 1.268 . S
O206 Sc196 2.105 . S
O206 C200 1.268 . S
O207 Sc197 2.105 . S
O207 C201 1.268 . S
O208 Sc198 2.105 . S
O208 C202 1.268 . S
O209 Sc196 2.105 . S
O209 C203 1.268 . S
O210 Sc198 2.105 . S
O210 C204 1.268 . S
O211 Sc197 2.105 . S
O211 C205 1.268 . S
O212 Sc196 2.105 . S
O212 C204 1.268 . S
O213 Sc197 2.105 . S
O213 C203 1.268 . S
O214 Sc198 2.105 . S
O214 C205 1.268 . S
O215 Sc196 2.105 . S
O215 C201 1.268 . S
O216 Sc198 2.105 . S
O216 C200 1.268 . S
O217 Sc197 2.105 . S
O217 C202 1.268 . S
Sc218 O221 2.025 . S
Sc218 O228 2.105 . S
Sc218 O231 2.105 . S
Sc218 O234 2.105 . S
Sc218 O237 2.105 . S
Sc219 O221 2.025 . S
Sc219 O229 2.105 . S
Sc219 O233 2.105 . S
Sc219 O235 2.105 . S
Sc219 O239 2.105 . S
Sc220 O221 2.025 . S
Sc220 O230 2.105 . S
Sc220 O232 2.105 . S
Sc220 O236 2.105 . S
Sc220 O238 2.105 . S
O221 Sc218 2.025 . S
O221 Sc219 2.025 . S
O221 Sc220 2.025 . S
C222 O228 1.268 . S
C222 O238 1.268 . S
C223 O229 1.268 . S
C223 O237 1.268 . S
C224 O230 1.268 . S
C224 O239 1.268 . S
C225 O231 1.268 . S
C225 O235 1.268 . S
C226 O232 1.268 . S
C226 O234 1.268 . S
C227 O233 1.268 . S
C227 O236 1.268 . S
O228 Sc218 2.105 . S
O228 C222 1.268 . S
O229 Sc219 2.105 . S
O229 C223 1.268 . S
O230 Sc220 2.105 . S
O230 C224 1.268 . S
O231 Sc218 2.105 . S
O231 C225 1.268 . S
O232 Sc220 2.105 . S
O232 C226 1.268 . S
O233 Sc219 2.105 . S
O233 C227 1.268 . S
O234 Sc218 2.105 . S
O234 C226 1.268 . S
O235 Sc219 2.105 . S
O235 C225 1.268 . S
O236 Sc220 2.105 . S
O236 C227 1.268 . S
O237 Sc218 2.105 . S
O237 C223 1.268 . S
O238 Sc220 2.105 . S
O238 C222 1.268 . S
O239 Sc219 2.105 . S
O239 C224 1.268 . S
H240 C246 0.930 . S
H241 C250 0.930 . S
H242 C255 0.929 1_554 S
H243 C253 0.929 . S
H244 C248 0.929 . S
H245 C254 0.929 . S
C246 H240 0.930 . S
C246 C247 1.367 . S
C246 C254 1.378 . S
C247 C246 1.367 . S
C247 C255 1.433 . S
C248 H244 0.929 . S
C248 C250 1.378 . S
C248 C252 1.350 . S
C249 C252 1.463 . S
C249 C254 1.350 . S
C249 N257 1.427 . S
C250 H241 0.930 . S
C250 C248 1.378 . S
C250 C251 1.367 . S
C251 C250 1.367 . S
C251 C253 1.433 . S
C252 C248 1.350 . S
C252 C249 1.463 . S
C252 N256 1.427 . S
C253 H243 0.929 . S
C253 C251 1.433 . S
C253 N256 1.384 . S
C254 H245 0.929 . S
C254 C246 1.378 . S
C254 C249 1.350 . S
C255 H242 0.929 1_556 S
C255 C247 1.433 . S
C255 N257 1.384 . S
N256 C252 1.427 . S
N256 C253 1.384 . S
N257 C249 1.427 . S
N257 C255 1.384 . S
H258 C264 0.930 . S
H259 C268 0.930 . S
H260 C273 0.929 . S
H261 C271 0.929 . S
H262 C266 0.929 . S
H263 C272 0.929 . S
C264 H258 0.930 . S
C264 C265 1.367 . S
C264 C272 1.378 . S
C265 C264 1.367 . S
C265 C273 1.433 . S
C266 H262 0.929 . S
C266 C268 1.378 . S
C266 C270 1.350 . S
C267 C270 1.463 . S
C267 C272 1.350 . S
C267 N275 1.427 . S
C268 H259 0.930 . S
C268 C266 1.378 . S
C268 C269 1.367 . S
C269 C268 1.367 . S
C269 C271 1.433 . S
C270 C266 1.350 . S
C270 C267 1.463 . S
C270 N274 1.427 . S
C271 H261 0.929 . S
C271 C269 1.433 . S
C271 N274 1.384 . S
C272 H263 0.929 . S
C272 C264 1.378 . S
C272 C267 1.350 . S
C273 H260 0.929 . S
C273 C265 1.433 . S
C273 N275 1.384 . S
N274 C270 1.427 . S
N274 C271 1.384 . S
N275 C267 1.427 . S
N275 C273 1.384 . S
H276 C282 0.930 . S
H277 C286 0.930 . S
H278 C291 0.929 1_554 S
H279 C289 0.929 . S
H280 C284 0.929 . S
H281 C290 0.929 . S
C282 H276 0.930 . S
C282 C283 1.367 . S
C282 C290 1.378 . S
C283 C282 1.367 . S
C283 C291 1.433 . S
C284 H280 0.929 . S
C284 C286 1.378 . S
C284 C288 1.350 . S
C285 C288 1.463 . S
C285 C290 1.350 . S
C285 N293 1.427 . S
C286 H277 0.930 . S
C286 C284 1.378 . S
C286 C287 1.367 . S
C287 C286 1.367 . S
C287 C289 1.433 . S
C288 C284 1.350 . S
C288 C285 1.463 . S
C288 N292 1.427 . S
C289 H279 0.929 . S
C289 C287 1.433 . S
C289 N292 1.384 . S
C290 H281 0.929 . S
C290 C282 1.378 . S
C290 C285 1.350 . S
C291 H278 0.929 1_556 S
C291 C283 1.433 . S
C291 N293 1.384 . S
N292 C288 1.427 . S
N292 C289 1.384 . S
N293 C285 1.427 . S
N293 C291 1.384 . S
H294 C300 0.930 . S
H295 C304 0.930 . S
H296 C309 0.929 . S
H297 C307 0.929 . S
H298 C302 0.929 . S
H299 C308 0.929 . S
C300 H294 0.930 . S
C300 C301 1.367 . S
C300 C308 1.378 . S
C301 C300 1.367 . S
C301 C309 1.433 . S
C302 H298 0.929 . S
C302 C304 1.378 . S
C302 C306 1.350 . S
C303 C306 1.463 . S
C303 C308 1.350 . S
C303 N311 1.427 . S
C304 H295 0.930 . S
C304 C302 1.378 . S
C304 C305 1.367 . S
C305 C304 1.367 . S
C305 C307 1.433 . S
C306 C302 1.350 . S
C306 C303 1.463 . S
C306 N310 1.427 . S
C307 H297 0.929 . S
C307 C305 1.433 . S
C307 N310 1.384 . S
C308 H299 0.929 . S
C308 C300 1.378 . S
C308 C303 1.350 . S
C309 H296 0.929 . S
C309 C301 1.433 . S
C309 N311 1.384 . S
N310 C306 1.427 . S
N310 C307 1.384 . S
N311 C303 1.427 . S
N311 C309 1.384 . S
H312 C318 0.930 . S
H313 C322 0.930 . S
H314 C327 0.929 . S
H315 C325 0.929 . S
H316 C320 0.929 . S
H317 C326 0.929 . S
C318 H312 0.930 . S
C318 C319 1.367 . S
C318 C326 1.378 . S
C319 C318 1.367 . S
C319 C327 1.433 . S
C320 H316 0.929 . S
C320 C322 1.378 . S
C320 C324 1.350 . S
C321 C324 1.463 . S
C321 C326 1.350 . S
C321 N329 1.427 . S
C322 H313 0.930 . S
C322 C320 1.378 . S
C322 C323 1.367 . S
C323 C322 1.367 . S
C323 C325 1.433 . S
C324 C320 1.350 . S
C324 C321 1.463 . S
C324 N328 1.427 . S
C325 H315 0.929 . S
C325 C323 1.433 . S
C325 N328 1.384 . S
C326 H317 0.929 . S
C326 C318 1.378 . S
C326 C321 1.350 . S
C327 H314 0.929 . S
C327 C319 1.433 . S
C327 N329 1.384 . S
N328 C324 1.427 . S
N328 C325 1.384 . S
N329 C321 1.427 . S
N329 C327 1.384 . S
H330 C336 0.930 . S
H331 C340 0.930 . S
H332 C345 0.929 . S
H333 C343 0.929 . S
H334 C338 0.929 . S
H335 C344 0.929 . S
C336 H330 0.930 . S
C336 C337 1.367 . S
C336 C344 1.378 . S
C337 C336 1.367 . S
C337 C345 1.433 . S
C338 H334 0.929 . S
C338 C340 1.378 . S
C338 C342 1.350 . S
C339 C342 1.463 . S
C339 C344 1.350 . S
C339 N347 1.427 . S
C340 H331 0.930 . S
C340 C338 1.378 . S
C340 C341 1.367 . S
C341 C340 1.367 . S
C341 C343 1.433 . S
C342 C338 1.350 . S
C342 C339 1.463 . S
C342 N346 1.427 . S
C343 H333 0.929 . S
C343 C341 1.433 . S
C343 N346 1.384 . S
C344 H335 0.929 . S
C344 C336 1.378 . S
C344 C339 1.350 . S
C345 H332 0.929 . S
C345 C337 1.433 . S
C345 N347 1.384 . S
N346 C342 1.427 . S
N346 C343 1.384 . S
N347 C339 1.427 . S
N347 C345 1.384 . S
H348 C354 0.930 . S
H349 C358 0.930 . S
H350 C363 0.929 . S
H351 C361 0.929 . S
H352 C356 0.929 . S
H353 C362 0.929 . S
C354 H348 0.930 . S
C354 C355 1.367 . S
C354 C362 1.378 . S
C355 C354 1.367 . S
C355 C363 1.433 . S
C356 H352 0.929 . S
C356 C358 1.378 . S
C356 C360 1.350 . S
C357 C360 1.463 . S
C357 C362 1.350 . S
C357 N365 1.427 . S
C358 H349 0.930 . S
C358 C356 1.378 . S
C358 C359 1.367 . S
C359 C358 1.367 . S
C359 C361 1.433 . S
C360 C356 1.350 . S
C360 C357 1.463 . S
C360 N364 1.427 . S
C361 H351 0.929 . S
C361 C359 1.433 . S
C361 N364 1.384 . S
C362 H353 0.929 . S
C362 C354 1.378 . S
C362 C357 1.350 . S
C363 H350 0.929 . S
C363 C355 1.433 . S
C363 N365 1.384 . S
N364 C360 1.427 . S
N364 C361 1.384 . S
N365 C357 1.427 . S
N365 C363 1.384 . S
H366 C372 0.930 . S
H367 C376 0.930 . S
H368 C381 0.929 . S
H369 C379 0.929 . S
H370 C374 0.929 . S
H371 C380 0.929 . S
C372 H366 0.930 . S
C372 C373 1.367 . S
C372 C380 1.378 . S
C373 C372 1.367 . S
C373 C381 1.433 . S
C374 H370 0.929 . S
C374 C376 1.378 . S
C374 C378 1.350 . S
C375 C378 1.463 . S
C375 C380 1.350 . S
C375 N383 1.427 . S
C376 H367 0.930 . S
C376 C374 1.378 . S
C376 C377 1.367 . S
C377 C376 1.367 . S
C377 C379 1.433 . S
C378 C374 1.350 . S
C378 C375 1.463 . S
C378 N382 1.427 . S
C379 H369 0.929 . S
C379 C377 1.433 . S
C379 N382 1.384 . S
C380 H371 0.929 . S
C380 C372 1.378 . S
C380 C375 1.350 . S
C381 H368 0.929 . S
C381 C373 1.433 . S
C381 N383 1.384 . S
N382 C378 1.427 . S
N382 C379 1.384 . S
N383 C375 1.427 . S
N383 C381 1.384 . S
H384 C390 0.930 . S
H385 C394 0.930 . S
H386 C399 0.929 . S
H387 C397 0.929 . S
H388 C392 0.929 . S
H389 C398 0.929 . S
C390 H384 0.930 . S
C390 C391 1.367 . S
C390 C398 1.378 . S
C391 C390 1.367 . S
C391 C399 1.433 . S
C392 H388 0.929 . S
C392 C394 1.378 . S
C392 C396 1.350 . S
C393 C396 1.463 . S
C393 C398 1.350 . S
C393 N401 1.427 . S
C394 H385 0.930 . S
C394 C392 1.378 . S
C394 C395 1.367 . S
C395 C394 1.367 . S
C395 C397 1.433 . S
C396 C392 1.350 . S
C396 C393 1.463 . S
C396 N400 1.427 . S
C397 H387 0.929 . S
C397 C395 1.433 . S
C397 N400 1.384 . S
C398 H389 0.929 . S
C398 C390 1.378 . S
C398 C393 1.350 . S
C399 H386 0.929 . S
C399 C391 1.433 . S
C399 N401 1.384 . S
N400 C396 1.427 . S
N400 C397 1.384 . S
N401 C393 1.427 . S
N401 C399 1.384 . S
H402 C408 0.930 . S
H403 C412 0.930 . S
H404 C417 0.929 . S
H405 C415 0.929 . S
H406 C410 0.929 . S
H407 C416 0.929 . S
C408 H402 0.930 . S
C408 C409 1.367 . S
C408 C416 1.378 . S
C409 C408 1.367 . S
C409 C417 1.433 . S
C410 H406 0.929 . S
C410 C412 1.378 . S
C410 C414 1.350 . S
C411 C414 1.463 . S
C411 C416 1.350 . S
C411 N419 1.427 . S
C412 H403 0.930 . S
C412 C410 1.378 . S
C412 C413 1.367 . S
C413 C412 1.367 . S
C413 C415 1.433 . S
C414 C410 1.350 . S
C414 C411 1.463 . S
C414 N418 1.427 . S
C415 H405 0.929 . S
C415 C413 1.433 . S
C415 N418 1.384 . S
C416 H407 0.929 . S
C416 C408 1.378 . S
C416 C411 1.350 . S
C417 H404 0.929 . S
C417 C409 1.433 . S
C417 N419 1.384 . S
N418 C414 1.427 . S
N418 C415 1.384 . S
N419 C411 1.427 . S
N419 C417 1.384 . S
H420 C426 0.930 1_554 S
H421 C430 0.930 . S
H422 C435 0.929 . S
H423 C433 0.929 . S
H424 C428 0.929 . S
H425 C434 0.929 . S
C426 H420 0.930 1_556 S
C426 C427 1.367 . S
C426 C434 1.378 . S
C427 C426 1.367 . S
C427 C435 1.433 . S
C428 H424 0.929 . S
C428 C430 1.378 . S
C428 C432 1.350 . S
C429 C432 1.463 . S
C429 C434 1.350 . S
C429 N437 1.427 . S
C430 H421 0.930 . S
C430 C428 1.378 . S
C430 C431 1.367 . S
C431 C430 1.367 . S
C431 C433 1.433 . S
C432 C428 1.350 . S
C432 C429 1.463 . S
C432 N436 1.427 . S
C433 H423 0.929 . S
C433 C431 1.433 . S
C433 N436 1.384 . S
C434 H425 0.929 . S
C434 C426 1.378 . S
C434 C429 1.350 . S
C435 H422 0.929 . S
C435 C427 1.433 . S
C435 N437 1.384 . S
N436 C432 1.427 . S
N436 C433 1.384 . S
N437 C429 1.427 . S
N437 C435 1.384 . S
H438 C444 0.930 . S
H439 C448 0.930 . S
H440 C453 0.929 . S
H441 C451 0.929 . S
H442 C446 0.929 . S
H443 C452 0.929 . S
C444 H438 0.930 . S
C444 C445 1.367 . S
C444 C452 1.378 . S
C445 C444 1.367 . S
C445 C453 1.433 . S
C446 H442 0.929 . S
C446 C448 1.378 . S
C446 C450 1.350 . S
C447 C450 1.463 . S
C447 C452 1.350 . S
C447 N455 1.427 . S
C448 H439 0.930 . S
C448 C446 1.378 . S
C448 C449 1.367 . S
C449 C448 1.367 . S
C449 C451 1.433 . S
C450 C446 1.350 . S
C450 C447 1.463 . S
C450 N454 1.427 . S
C451 H441 0.929 . S
C451 C449 1.433 . S
C451 N454 1.384 . S
C452 H443 0.929 . S
C452 C444 1.378 . S
C452 C447 1.350 . S
C453 H440 0.929 . S
C453 C445 1.433 . S
C453 N455 1.384 . S
N454 C450 1.427 . S
N454 C451 1.384 . S
N455 C447 1.427 . S
N455 C453 1.384 . S
H456 C462 0.930 . S
H457 C466 0.930 . S
H458 C471 0.929 1_554 S
H459 C469 0.929 1_565 S
H460 C464 0.929 . S
H461 C470 0.929 . S
C462 H456 0.930 . S
C462 C463 1.367 . S
C462 C470 1.378 . S
C463 C462 1.367 . S
C463 C471 1.433 . S
C464 H460 0.929 . S
C464 C466 1.378 . S
C464 C468 1.350 1_545 S
C465 C468 1.463 . S
C465 C470 1.350 . S
C465 N473 1.427 . S
C466 H457 0.930 . S
C466 C464 1.378 . S
C466 C467 1.367 . S
C467 C466 1.367 . S
C467 C469 1.433 . S
C468 C464 1.350 1_565 S
C468 C465 1.463 . S
C468 N472 1.427 . S
C469 H459 0.929 1_545 S
C469 C467 1.433 . S
C469 N472 1.384 1_545 S
C470 H461 0.929 . S
C470 C462 1.378 . S
C470 C465 1.350 . S
C471 H458 0.929 1_556 S
C471 C463 1.433 . S
C471 N473 1.384 . S
N472 C468 1.427 . S
N472 C469 1.384 1_565 S
N473 C465 1.427 . S
N473 C471 1.384 . S
H474 C480 0.930 . S
H475 C484 0.930 . S
H476 C489 0.929 . S
H477 C487 0.929 . S
H478 C482 0.929 . S
H479 C488 0.929 . S
C480 H474 0.930 . S
C480 C481 1.367 . S
C480 C488 1.378 . S
C481 C480 1.367 . S
C481 C489 1.433 . S
C482 H478 0.929 . S
C482 C484 1.378 . S
C482 C486 1.350 1_565 S
C483 C486 1.463 . S
C483 C488 1.350 . S
C483 N491 1.427 . S
C484 H475 0.930 . S
C484 C482 1.378 . S
C484 C485 1.367 . S
C485 C484 1.367 . S
C485 C487 1.433 . S
C486 C482 1.350 1_545 S
C486 C483 1.463 . S
C486 N490 1.427 . S
C487 H477 0.929 . S
C487 C485 1.433 . S
C487 N490 1.384 1_565 S
C488 H479 0.929 . S
C488 C480 1.378 . S
C488 C483 1.350 . S
C489 H476 0.929 . S
C489 C481 1.433 . S
C489 N491 1.384 . S
N490 C486 1.427 . S
N490 C487 1.384 1_545 S
N491 C483 1.427 . S
N491 C489 1.384 . S
H492 C498 0.930 . S
H493 C502 0.930 . S
H494 C507 0.944 . S
H495 C505 0.930 1_565 S
H496 C500 0.929 . S
H497 C506 0.929 . S
C498 H492 0.930 . S
C498 C499 1.367 . S
C498 C506 1.378 . S
C499 C498 1.367 . S
C499 C507 1.433 . S
C500 H496 0.929 . S
C500 C502 1.378 . S
C500 C504 1.350 1_545 S
C501 C504 1.463 . S
C501 C506 1.350 . S
C501 N509 1.427 . S
C502 H493 0.930 . S
C502 C500 1.378 . S
C502 C503 1.367 . S
C503 C502 1.367 . S
C503 C505 1.431 . S
C504 C500 1.350 1_565 S
C504 C501 1.463 . S
C504 N508 1.427 . S
C505 H495 0.930 1_545 S
C505 C503 1.431 . S
C505 N508 1.385 1_545 S
C506 H497 0.929 . S
C506 C498 1.378 . S
C506 C501 1.350 . S
C507 H494 0.944 . S
C507 C499 1.433 . S
C507 N509 1.384 . S
N508 C504 1.427 . S
N508 C505 1.385 1_565 S
N509 C501 1.427 . S
N509 C507 1.384 . S
H510 C516 0.930 . S
H511 C520 0.930 . S
H512 C525 0.929 . S
H513 C523 0.929 1_545 S
H514 C518 0.929 . S
H515 C524 0.929 . S
C516 H510 0.930 . S
C516 C517 1.367 . S
C516 C524 1.378 . S
C517 C516 1.367 . S
C517 C525 1.433 . S
C518 H514 0.929 . S
C518 C520 1.378 . S
C518 C522 1.350 1_565 S
C519 C522 1.463 . S
C519 C524 1.350 . S
C519 N527 1.427 . S
C520 H511 0.930 . S
C520 C518 1.378 . S
C520 C521 1.367 . S
C521 C520 1.367 . S
C521 C523 1.433 . S
C522 C518 1.350 1_545 S
C522 C519 1.463 . S
C522 N526 1.427 . S
C523 H513 0.929 1_565 S
C523 C521 1.433 . S
C523 N526 1.384 1_565 S
C524 H515 0.929 . S
C524 C516 1.378 . S
C524 C519 1.350 . S
C525 H512 0.929 . S
C525 C517 1.433 . S
C525 N527 1.384 . S
N526 C522 1.427 . S
N526 C523 1.384 1_545 S
N527 C519 1.427 . S
N527 C525 1.384 . S
H528 C534 0.930 . S
H529 C538 0.930 . S
H530 C543 0.929 . S
H531 C541 0.929 . S
H532 C536 0.929 . S
H533 C542 0.929 . S
C534 H528 0.930 . S
C534 C535 1.367 . S
C534 C542 1.378 . S
C535 C534 1.367 . S
C535 C543 1.433 . S
C536 H532 0.929 . S
C536 C538 1.378 . S
C536 C540 1.350 . S
C537 C540 1.463 . S
C537 C542 1.350 . S
C537 N545 1.427 . S
C538 H529 0.930 . S
C538 C536 1.378 . S
C538 C539 1.367 . S
C539 C538 1.367 . S
C539 C541 1.433 . S
C540 C536 1.350 . S
C540 C537 1.463 . S
C540 N544 1.427 . S
C541 H531 0.929 . S
C541 C539 1.433 . S
C541 N544 1.384 . S
C542 H533 0.929 . S
C542 C534 1.378 . S
C542 C537 1.350 . S
C543 H530 0.929 . S
C543 C535 1.433 . S
C543 N545 1.384 . S
N544 C540 1.427 . S
N544 C541 1.384 . S
N545 C537 1.427 . S
N545 C543 1.384 . S
H546 C552 0.930 . S
H547 C556 0.930 . S
H548 C561 0.929 . S
H549 C559 0.929 . S
H550 C554 0.929 . S
H551 C560 0.929 . S
C552 H546 0.930 . S
C552 C553 1.367 . S
C552 C560 1.378 . S
C553 C552 1.367 . S
C553 C561 1.433 . S
C554 H550 0.929 . S
C554 C556 1.378 . S
C554 C558 1.350 . S
C555 C558 1.463 . S
C555 C560 1.350 . S
C555 N563 1.427 . S
C556 H547 0.930 . S
C556 C554 1.378 . S
C556 C557 1.367 . S
C557 C556 1.367 . S
C557 C559 1.433 . S
C558 C554 1.350 . S
C558 C555 1.463 . S
C558 N562 1.427 . S
C559 H549 0.929 . S
C559 C557 1.433 . S
C559 N562 1.384 . S
C560 H551 0.929 . S
C560 C552 1.378 . S
C560 C555 1.350 . S
C561 H548 0.929 . S
C561 C553 1.433 . S
C561 N563 1.384 . S
N562 C558 1.427 . S
N562 C559 1.384 . S
N563 C555 1.427 . S
N563 C561 1.384 . S
H564 C570 0.930 . S
H565 C574 0.930 . S
H566 C579 0.929 . S
H567 C577 0.929 . S
H568 C572 0.929 . S
H569 C578 0.929 . S
C570 H564 0.930 . S
C570 C571 1.367 . S
C570 C578 1.378 . S
C571 C570 1.367 . S
C571 C579 1.433 . S
C572 H568 0.929 . S
C572 C574 1.378 . S
C572 C576 1.350 . S
C573 C576 1.463 . S
C573 C578 1.350 . S
C573 N581 1.427 . S
C574 H565 0.930 . S
C574 C572 1.378 . S
C574 C575 1.367 . S
C575 C574 1.367 . S
C575 C577 1.433 . S
C576 C572 1.350 . S
C576 C573 1.463 . S
C576 N580 1.427 . S
C577 H567 0.929 . S
C577 C575 1.433 . S
C577 N580 1.384 . S
C578 H569 0.929 . S
C578 C570 1.378 . S
C578 C573 1.350 . S
C579 H566 0.929 . S
C579 C571 1.433 . S
C579 N581 1.384 . S
N580 C576 1.427 . S
N580 C577 1.384 . S
N581 C573 1.427 . S
N581 C579 1.384 . S
H582 C588 0.930 . S
H583 C592 0.930 . S
H584 C597 0.929 . S
H585 C595 0.929 . S
H586 C590 0.929 . S
H587 C596 0.929 . S
C588 H582 0.930 . S
C588 C589 1.367 . S
C588 C596 1.378 . S
C589 C588 1.367 . S
C589 C597 1.433 . S
C590 H586 0.929 . S
C590 C592 1.378 . S
C590 C594 1.350 . S
C591 C594 1.463 . S
C591 C596 1.350 . S
C591 N599 1.427 . S
C592 H583 0.930 . S
C592 C590 1.378 . S
C592 C593 1.367 . S
C593 C592 1.367 . S
C593 C595 1.433 . S
C594 C590 1.350 . S
C594 C591 1.463 . S
C594 N598 1.427 . S
C595 H585 0.929 . S
C595 C593 1.433 . S
C595 N598 1.384 . S
C596 H587 0.929 . S
C596 C588 1.378 . S
C596 C591 1.350 . S
C597 H584 0.929 . S
C597 C589 1.433 . S
C597 N599 1.384 . S
N598 C594 1.427 . S
N598 C595 1.384 . S
N599 C591 1.427 . S
N599 C597 1.384 . S
H600 C606 0.930 . S
H601 C610 0.930 . S
H602 C615 0.929 . S
H603 C613 0.929 . S
H604 C608 0.929 . S
H605 C614 0.929 . S
C606 H600 0.930 . S
C606 C607 1.367 . S
C606 C614 1.378 . S
C607 C606 1.367 . S
C607 C615 1.433 . S
C608 H604 0.929 . S
C608 C610 1.378 . S
C608 C612 1.350 . S
C609 C612 1.463 . S
C609 C614 1.350 . S
C609 N617 1.427 . S
C610 H601 0.930 . S
C610 C608 1.378 . S
C610 C611 1.367 . S
C611 C610 1.367 . S
C611 C613 1.433 . S
C612 C608 1.350 . S
C612 C609 1.463 . S
C612 N616 1.427 . S
C613 H603 0.929 . S
C613 C611 1.433 . S
C613 N616 1.384 . S
C614 H605 0.929 . S
C614 C606 1.378 . S
C614 C609 1.350 . S
C615 H602 0.929 . S
C615 C607 1.433 . S
C615 N617 1.384 . S
N616 C612 1.427 . S
N616 C613 1.384 . S
N617 C609 1.427 . S
N617 C615 1.384 . S
H618 C624 0.930 . S
H619 C628 0.930 . S
H620 C633 0.929 . S
H621 C631 0.929 . S
H622 C626 0.929 . S
H623 C632 0.929 . S
C624 H618 0.930 . S
C624 C625 1.367 . S
C624 C632 1.378 . S
C625 C624 1.367 . S
C625 C633 1.433 . S
C626 H622 0.929 . S
C626 C628 1.378 . S
C626 C630 1.350 . S
C627 C630 1.463 . S
C627 C632 1.350 . S
C627 N635 1.427 . S
C628 H619 0.930 . S
C628 C626 1.378 . S
C628 C629 1.367 . S
C629 C628 1.367 . S
C629 C631 1.433 . S
C630 C626 1.350 . S
C630 C627 1.463 . S
C630 N634 1.427 . S
C631 H621 0.929 . S
C631 C629 1.433 . S
C631 N634 1.384 . S
C632 H623 0.929 . S
C632 C624 1.378 . S
C632 C627 1.350 . S
C633 H620 0.929 . S
C633 C625 1.433 . S
C633 N635 1.384 . S
N634 C630 1.427 . S
N634 C631 1.384 . S
N635 C627 1.427 . S
N635 C633 1.384 . S
H636 C642 0.930 . S
H637 C646 0.930 . S
H638 C651 0.929 . S
H639 C649 0.929 . S
H640 C644 0.929 . S
H641 C650 0.929 . S
C642 H636 0.930 . S
C642 C643 1.367 . S
C642 C650 1.378 . S
C643 C642 1.367 . S
C643 C651 1.433 . S
C644 H640 0.929 . S
C644 C646 1.378 . S
C644 C648 1.350 . S
C645 C648 1.463 . S
C645 C650 1.350 . S
C645 N653 1.427 . S
C646 H637 0.930 . S
C646 C644 1.378 . S
C646 C647 1.367 . S
C647 C646 1.367 . S
C647 C649 1.433 . S
C648 C644 1.350 . S
C648 C645 1.463 . S
C648 N652 1.427 . S
C649 H639 0.929 . S
C649 C647 1.433 . S
C649 N652 1.384 . S
C650 H641 0.929 . S
C650 C642 1.378 . S
C650 C645 1.350 . S
C651 H638 0.929 . S
C651 C643 1.433 . S
C651 N653 1.384 . S
N652 C648 1.427 . S
N652 C649 1.384 . S
N653 C645 1.427 . S
N653 C651 1.384 . S
H654 C660 0.930 . S
H655 C664 0.930 . S
H656 C669 0.929 . S
H657 C667 0.929 . S
H658 C662 0.929 . S
H659 C668 0.929 . S
C660 H654 0.930 . S
C660 C661 1.367 . S
C660 C668 1.378 . S
C661 C660 1.367 . S
C661 C669 1.433 . S
C662 H658 0.929 . S
C662 C664 1.378 . S
C662 C666 1.350 . S
C663 C666 1.463 . S
C663 C668 1.350 . S
C663 N671 1.427 . S
C664 H655 0.930 . S
C664 C662 1.378 . S
C664 C665 1.367 . S
C665 C664 1.367 . S
C665 C667 1.433 . S
C666 C662 1.350 . S
C666 C663 1.463 . S
C666 N670 1.427 . S
C667 H657 0.929 . S
C667 C665 1.433 . S
C667 N670 1.384 . S
C668 H659 0.929 . S
C668 C660 1.378 . S
C668 C663 1.350 . S
C669 H656 0.929 . S
C669 C661 1.433 . S
C669 N671 1.384 . S
N670 C666 1.427 . S
N670 C667 1.384 . S
N671 C663 1.427 . S
N671 C669 1.384 . S
C247 C11 1.480 . S
C251 C178 1.538 . S
C269 C156 1.545 . S
C265 C30 1.471 . S
C287 C182 1.541 . S
C283 C49 1.401 . S
C305 C160 1.534 . S
C301 C68 1.381 . S
C323 C222 1.542 . S
C319 C87 1.477 . S
C341 C200 1.539 . S
C337 C106 1.480 . S
C355 C125 1.380 . S
C359 C226 1.534 . S
C377 C204 1.540 . S
C373 C144 1.399 . S
C391 C2 1.534 . S
C395 C227 1.579 . S
C413 C205 1.580 . S
C409 C21 1.530 . S
C427 C40 1.536 . S
C431 C224 1.576 . S
C445 C59 1.537 . S
C449 C202 1.576 . S
C467 C183 1.577 . S
C463 C78 1.538 . S
C481 C97 1.542 . S
C485 C161 1.574 . S
C503 C180 1.577 . S
C499 C116 1.535 . S
C521 C158 1.580 . S
C517 C135 1.531 . S
C539 C201 1.511 . S
C535 C6 1.525 . S
C557 C223 1.514 . S
C553 C25 1.523 . S
C571 C44 1.521 . S
C575 C203 1.512 . S
C593 C225 1.513 . S
C589 C63 1.520 . S
C611 C157 1.516 . S
C607 C82 1.521 . S
C625 C101 1.522 . S
C629 C179 1.515 . S
C643 C120 1.522 . S
C647 C159 1.510 . S
C661 C139 1.516 . S
C665 C181 1.518 . S
