# Generated by pormake.
# Topology tsx, (6,3)-cn, num edge types: 1
# Building blocks:
#     Node 0, Type 0, BuildingBlock: JUFBIX_clean_sbu_0, # of connection points: 6
#     Node 1, Type 0, BuildingBlock: JUFBIX_clean_sbu_0, # of connection points: 6
#     Node 2, Type 1, BuildingBlock: KAKCAD_clean_linker_0, # of connection points: 3
#     Node 3, Type 1, BuildingBlock: KAKCAD_clean_linker_0, # of connection points: 3
#     Node 4, Type 1, BuildingBlock: KAKCAD_clean_linker_0, # of connection points: 3
#     Node 5, Type 1, BuildingBlock: KAKCAD_clean_linker_0, # of connection points: 3
#     Edge 6, Type (0, 1), BuildingBlock: XUDNAN_clean_linker_2, # of connection points: 2
#     Edge 7, Type (0, 1), BuildingBlock: XUDNAN_clean_linker_2, # of connection points: 2
#     Edge 8, Type (0, 1), BuildingBlock: XUDNAN_clean_linker_2, # of connection points: 2
#     Edge 9, Type (0, 1), BuildingBlock: XUDNAN_clean_linker_2, # of connection points: 2
#     Edge 10, Type (0, 1), BuildingBlock: XUDNAN_clean_linker_2, # of connection points: 2
#     Edge 11, Type (0, 1), BuildingBlock: XUDNAN_clean_linker_2, # of connection points: 2
#     Edge 12, Type (0, 1), BuildingBlock: XUDNAN_clean_linker_2, # of connection points: 2
#     Edge 13, Type (0, 1), BuildingBlock: XUDNAN_clean_linker_2, # of connection points: 2
#     Edge 14, Type (0, 1), BuildingBlock: XUDNAN_clean_linker_2, # of connection points: 2
#     Edge 15, Type (0, 1), BuildingBlock: XUDNAN_clean_linker_2, # of connection points: 2
#     Edge 16, Type (0, 1), BuildingBlock: XUDNAN_clean_linker_2, # of connection points: 2
#     Edge 17, Type (0, 1), BuildingBlock: XUDNAN_clean_linker_2, # of connection points: 2
# Relax obj value: 0.159
# Max RMSD: 0.166
# Mean RMSD: 0.134
data_MOF--net-tsx--node1-JUFBIX_clean_sbu_0--node2-KAKCAD_clean_linker_0--edge1-XUDNAN_clean_linker_2
_symmetry_space_group_name_H-M    P1
_symmetry_Int_Tables_number       1
_symmetry_cell_setting            triclinic
loop_
_symmetry_equiv_pos_as_xyz
'x, y, z'
_cell_length_a     23.857686
_cell_length_b     28.278823
_cell_length_c     43.480428
_cell_angle_alpha  92.569321
_cell_angle_beta   89.496015
_cell_angle_gamma 97.883238
loop_
_atom_site_label
_atom_site_type_symbol
_atom_site_fract_x
_atom_site_fract_y
_atom_site_fract_z
_atom_type_partial_charge
Co0 Co 0.07143 0.99901 0.0176 0.0
C1 C 0.02595 0.02852 0.9629 0.0
Co2 Co 0.01944 0.05806 0.02305 0.0
C3 C 0.12076 0.90893 0.0206 0.0
C4 C 0.15489 0.95527 0.98538 0.0
N5 N 0.117 0.95183 0.00866 0.0
N6 N 0.15909 0.88563 0.00519 0.0
C7 C 0.1806 0.91493 0.98319 0.0
H8 H 0.09511 0.89467 0.03958 0.0
H9 H 0.16298 0.98522 0.97059 0.0
C10 C 0.06386 0.02751 0.07778 0.0
N11 N 0.97612 0.10687 0.03118 0.0
C12 C 0.92363 0.11173 0.02149 0.0
C13 C 0.99292 0.14701 0.04851 0.0
N14 N 0.90749 0.15358 0.0319 0.0
C15 C 0.95103 0.17581 0.04887 0.0
C16 C 0.95821 0.96682 0.02544 0.0
O17 O 0.08572 0.99762 0.06038 0.0
O18 O 0.0344 0.05644 0.06618 0.0
O19 O 0.95503 0.01144 0.02708 0.0
O20 O 1.0063 0.95256 0.02174 0.0
O21 O 1.00504 0.05932 0.97998 0.0
H22 H 0.03329 0.15494 0.06009 0.0
H23 H 0.89828 0.08556 0.00663 0.0
O24 O 0.05561 1.00022 0.97487 0.0
O25 O 0.13655 0.04663 0.01358 0.0
O26 O 0.08375 0.10385 0.01861 0.0
C27 C 0.13216 0.09094 0.01463 0.0
H28 H 0.21301 0.90775 0.96671 0.0
H29 H 0.95226 0.21026 0.06094 0.0
Co30 Co 0.54821 0.5018 0.51056 0.0
C31 C 0.50552 0.54762 0.4626 0.0
Co32 Co 0.49368 0.55583 0.52592 0.0
C33 C 0.60293 0.41479 0.50726 0.0
C34 C 0.63528 0.46657 0.47484 0.0
N35 N 0.59616 0.45829 0.49721 0.0
N36 N 0.64473 0.39568 0.49186 0.0
C37 C 0.66498 0.42845 0.47151 0.0
H38 H 0.57787 0.3977 0.52555 0.0
H39 H 0.64266 0.4989 0.46216 0.0
C40 C 0.53469 0.50901 0.57381 0.0
N41 N 0.44715 0.60063 0.5388 0.0
C42 C 0.39651 0.60742 0.52733 0.0
C43 C 0.45913 0.6359 0.56063 0.0
N44 N 0.37674 0.64582 0.54092 0.0
C45 C 0.41611 0.6638 0.5619 0.0
C46 C 0.43613 0.46402 0.51481 0.0
O47 O 0.55654 0.48584 0.55214 0.0
O48 O 0.50698 0.54266 0.56752 0.0
O49 O 0.43031 0.50611 0.52482 0.0
O50 O 0.48466 0.45434 0.50656 0.0
O51 O 0.48058 0.5684 0.48415 0.0
H52 H 0.49727 0.64152 0.57434 0.0
H53 H 0.37549 0.58556 0.50862 0.0
O54 O 0.53826 0.5178 0.46928 0.0
O55 O 0.61171 0.55 0.51437 0.0
O56 O 0.55775 0.60464 0.5268 0.0
C57 C 0.60667 0.59342 0.52095 0.0
H58 H 0.7001 0.42594 0.45589 0.0
H59 H 0.41401 0.69494 0.57705 0.0
C60 C 0.0316 0.96724 0.31431 0.0
C61 C 0.04429 0.01345 0.30311 0.0
C62 C 0.01819 0.96073 0.34542 0.0
C63 C 0.01748 1.00023 0.36625 0.0
C64 C 0.03042 0.04638 0.35503 0.0
C65 C 0.04317 0.05287 0.32395 0.0
C66 C 1.00323 0.99363 0.3995 0.0
C67 C 0.02107 0.95606 0.41525 0.0
C68 C 0.00832 0.94998 0.44668 0.0
C69 C 0.97796 0.98282 0.46264 0.0
C70 C 0.96029 0.02098 0.44732 0.0
C71 C 0.9724 0.02552 0.41579 0.0
C72 C 0.92906 0.0568 0.46355 0.0
C73 C 0.88104 0.04277 0.48168 0.0
C74 C 0.94442 0.10558 0.45845 0.0
C75 C 0.91051 0.1392 0.46927 0.0
C76 C 0.86029 0.12499 0.48552 0.0
C77 C 0.02873 0.90991 0.46249 0.0
C78 C 0.02588 0.86464 0.44739 0.0
C79 C 0.05518 0.91726 0.49143 0.0
C80 C 0.08131 0.881 0.50397 0.0
C81 C 0.0811 0.83656 0.48795 0.0
C82 C 0.05175 0.82853 0.4599 0.0
C83 C 0.84689 0.07664 0.49259 0.0
H84 H 0.03257 0.93594 0.29914 0.0
H85 H 1.00784 0.92463 0.35304 0.0
H86 H 0.03124 0.07776 0.37032 0.0
H87 H 0.05165 0.08905 0.31626 0.0
H88 H 0.04655 0.93218 0.40324 0.0
H89 H 0.95682 0.05382 0.40377 0.0
H90 H 0.96842 0.9789 0.48688 0.0
H91 H 0.86823 0.0054 0.48598 0.0
H92 H 0.98189 0.1176 0.44516 0.0
H93 H 0.92283 0.17633 0.46415 0.0
H94 H 1.00495 0.85752 0.42532 0.0
H95 H 0.05796 0.95166 0.50373 0.0
H96 H 0.80853 0.06464 0.50514 0.0
H97 H 0.05088 0.79497 0.44678 0.0
H98 H 0.10275 0.88812 0.52588 0.0
C99 C 0.98944 0.0682 0.72416 0.0
C100 C 1.00523 0.02753 0.73748 0.0
C101 C 0.99226 0.07274 0.69217 0.0
C102 C 0.01045 0.03652 0.67292 0.0
C103 C 0.02798 0.99678 0.6863 0.0
C104 C 0.02578 0.99249 0.71814 0.0
C105 C 0.00937 0.03882 0.63889 0.0
C106 C 0.03406 0.0798 0.62418 0.0
C107 C 0.03561 0.08056 0.59181 0.0
C108 C 0.01002 0.04048 0.57423 0.0
C109 C 0.98499 0.99949 0.58871 0.0
C110 C 0.98514 0.99885 0.62095 0.0
C111 C 0.95885 0.95675 0.57057 0.0
C112 C 0.91425 0.95968 0.5502 0.0
C113 C 0.97524 0.91196 0.57567 0.0
C114 C 0.94579 0.87049 0.56187 0.0
C115 C 0.89883 0.87294 0.54301 0.0
C116 C 0.0679 0.12162 0.57647 0.0
C117 C 0.0627 0.16887 0.58621 0.0
C118 C 0.10674 0.11354 0.55303 0.0
C119 C 0.1408 0.15178 0.54015 0.0
C120 C 0.13644 0.1992 0.55012 0.0
C121 C 0.09636 0.20726 0.57305 0.0
C122 C 0.88414 0.91803 0.5367 0.0
H123 H 0.97319 0.09578 0.7383 0.0
H124 H 0.97841 0.10374 0.68239 0.0
H125 H 0.04327 0.96879 0.67207 0.0
H126 H 0.03997 0.96138 0.72756 0.0
H127 H 0.05455 0.11013 0.63791 0.0
H128 H 0.9655 0.96723 0.63215 0.0
H129 H 0.0106 0.04075 0.54929 0.0
H130 H 0.90099 0.99392 0.54591 0.0
H131 H 0.00981 0.90894 0.59114 0.0
H132 H 0.95797 0.83631 0.56729 0.0
H133 H 0.03272 0.17611 0.60408 0.0
H134 H 0.11235 0.07748 0.54541 0.0
H135 H 0.84847 0.92094 0.52199 0.0
H136 H 0.09106 0.24324 0.58095 0.0
H137 H 0.17189 0.14389 0.52308 0.0
C138 C 0.50603 0.4258 0.81412 0.0
C139 C 0.50039 0.46584 0.79685 0.0
C140 C 0.50121 0.42781 0.84614 0.0
C141 C 0.49338 0.47061 0.86241 0.0
C142 C 0.4885 0.51095 0.84525 0.0
C143 C 0.49091 0.50837 0.81304 0.0
C144 C 0.49107 0.47298 0.89695 0.0
C145 C 0.51915 0.44233 0.91401 0.0
C146 C 0.51577 0.44268 0.94624 0.0
C147 C 0.48665 0.47622 0.96207 0.0
C148 C 0.45942 0.5082 0.94565 0.0
C149 C 0.46077 0.50549 0.91319 0.0
C150 C 0.42914 0.54464 0.96187 0.0
C151 C 0.39226 0.53294 0.98667 0.0
C152 C 0.43495 0.59127 0.9513 0.0
C153 C 0.40228 0.62458 0.96386 0.0
C154 C 0.36282 0.61221 0.98733 0.0
C155 C 0.54252 0.40695 0.9627 0.0
C156 C 0.53148 0.35853 0.9531 0.0
C157 C 0.58194 0.42091 0.98625 0.0
C158 C 0.61146 0.38712 0.99913 0.0
C159 C 0.60221 0.33884 0.98855 0.0
C160 C 0.56096 0.3249 0.96582 0.0
C161 C 0.35932 0.56651 0.99931 0.0
H162 H 0.51481 0.39251 0.80319 0.0
H163 H 0.50359 0.39529 0.85795 0.0
H164 H 0.48338 0.54497 0.85653 0.0
H165 H 0.48503 0.53999 0.80104 0.0
H166 H 0.54466 0.41811 0.90243 0.0
H167 H 0.43702 0.52834 0.9007 0.0
H168 H 0.48514 0.47734 0.98701 0.0
H169 H 0.38704 0.49731 0.9954 0.0
H170 H 0.46414 0.6018 0.93282 0.0
H171 H 0.40716 0.65994 0.95472 0.0
H172 H 0.501 0.34689 0.93505 0.0
H173 H 0.59119 0.4581 0.99398 0.0
H174 H 0.3294 0.55603 0.01746 0.0
H175 H 0.55309 0.28831 0.95676 0.0
H176 H 0.64229 0.39898 0.01694 0.0
C177 C 0.4885 0.60055 0.21945 0.0
C178 C 0.48957 0.56055 0.23739 0.0
C179 C 0.4949 0.59674 0.18751 0.0
C180 C 0.50276 0.55287 0.17273 0.0
C181 C 0.50364 0.51281 0.19064 0.0
C182 C 0.49707 0.51659 0.22259 0.0
C183 C 0.51021 0.54908 0.13876 0.0
C184 C 0.54338 0.58561 0.12344 0.0
C185 C 0.55015 0.58288 0.09131 0.0
C186 C 0.52418 0.54241 0.07433 0.0
C187 C 0.49011 0.50577 0.08931 0.0
C188 C 0.48366 0.50934 0.12148 0.0
C189 C 0.45977 0.46399 0.07175 0.0
C190 C 0.40255 0.44868 0.07811 0.0
C191 C 0.4882 0.43742 0.05017 0.0
C192 C 0.4604 0.3952 0.03612 0.0
C193 C 0.40358 0.37895 0.0433 0.0
C194 C 0.58303 0.62355 0.07599 0.0
C195 C 0.57274 0.67028 0.08386 0.0
C196 C 0.6268 0.61659 0.05515 0.0
C197 C 0.66121 0.65597 0.04343 0.0
C198 C 0.65178 0.7028 0.05205 0.0
C199 C 0.60663 0.7094 0.07203 0.0
C200 C 0.37487 0.40668 0.06417 0.0
H201 H 0.48346 0.63507 0.23011 0.0
H202 H 0.49331 0.62817 0.17438 0.0
H203 H 0.51012 0.4786 0.18002 0.0
H204 H 0.49747 0.48494 0.23567 0.0
H205 H 0.56476 0.61619 0.1366 0.0
H206 H 0.45738 0.48116 0.13306 0.0
H207 H 0.52859 0.54033 0.04948 0.0
H208 H 0.37944 0.46872 0.09447 0.0
H209 H 0.53245 0.44837 0.04507 0.0
H210 H 0.48359 0.37481 0.02009 0.0
H211 H 0.53895 0.67661 0.09968 0.0
H212 H 0.63562 0.58087 0.0488 0.0
H213 H 0.33148 0.39508 0.07079 0.0
H214 H 0.59858 0.74494 0.07943 0.0
H215 H 0.69546 0.64982 0.02789 0.0
H216 H 0.13399 0.18737 0.01231 0.0
H217 H 0.24416 0.07735 0.01277 0.0
H218 H 0.32772 0.13985 0.01368 0.0
H219 H 0.2261 0.27161 0.96473 0.0
H220 H 0.20731 0.32281 0.9866 0.0
H221 H 0.15703 0.26925 0.98222 0.0
H222 H 0.14716 0.26624 0.04155 0.0
H223 H 0.19734 0.3196 0.04612 0.0
H224 H 0.20958 0.26617 0.06461 0.0
H225 H 0.39844 0.215 0.02064 0.0
H226 H 0.44941 0.29525 0.03362 0.0
H227 H 0.29237 0.3554 0.02614 0.0
C228 C 0.17567 0.17624 0.01203 0.0
C229 C 0.18258 0.12746 0.01245 0.0
C230 C 0.23787 0.11452 0.01233 0.0
C231 C 0.28556 0.14976 0.01276 0.0
C232 C 0.27714 0.19764 0.01291 0.0
C233 C 0.22347 0.21079 0.01229 0.0
C234 C 0.22535 0.26449 0.01478 0.0
C235 C 0.20261 0.28313 0.98532 0.0
C236 C 0.19296 0.28001 0.04347 0.0
C237 C 0.28836 0.27961 0.01801 0.0
C238 C 0.31771 0.24069 0.01652 0.0
C239 C 0.37599 0.24579 0.02127 0.0
C240 C 0.40467 0.29167 0.02848 0.0
C241 C 0.375 0.33186 0.03099 0.0
C242 C 0.31636 0.32554 0.0247 0.0
H243 H 0.18417 0.82228 0.96106 0.0
H244 H 0.17186 0.84488 0.05986 0.0
H245 H 0.21493 0.77087 0.06706 0.0
H246 H 0.15916 0.68995 0.95831 0.0
H247 H 0.2095 0.68632 0.92743 0.0
H248 H 0.17002 0.73626 0.93085 0.0
H249 H 0.264 0.7945 0.93151 0.0
H250 H 0.30374 0.7449 0.92846 0.0
H251 H 0.31689 0.78862 0.95993 0.0
H252 H 0.27126 0.69906 0.06241 0.0
H253 H 0.33164 0.63721 0.0466 0.0
H254 H 0.30546 0.66452 0.95083 0.0
C255 C 0.18956 0.81117 0.98422 0.0
C256 C 0.17494 0.83918 0.00992 0.0
C257 C 0.18231 0.8235 0.03989 0.0
C258 C 0.20693 0.78169 0.04412 0.0
C259 C 0.22305 0.75589 0.0181 0.0
C260 C 0.21382 0.76993 0.98873 0.0
C261 C 0.23838 0.73885 0.96443 0.0
C262 C 0.19146 0.7112 0.94406 0.0
C263 C 0.28341 0.76849 0.94496 0.0
C264 C 0.26465 0.70585 0.98459 0.0
C265 C 0.25505 0.71557 0.01549 0.0
C266 C 0.27826 0.69084 0.03825 0.0
C267 C 0.31243 0.65578 0.0291 0.0
C268 C 0.32353 0.64634 0.99751 0.0
C269 C 0.29829 0.67125 0.97517 0.0
H270 H 0.94758 0.87048 0.03545 0.0
H271 H 0.8503 0.9853 0.01753 0.0
H272 H 0.76234 0.92844 0.0181 0.0
H273 H 0.86102 0.77641 0.99032 0.0
H274 H 0.86704 0.73131 0.01766 0.0
H275 H 0.92325 0.78029 0.01402 0.0
H276 H 0.91623 0.80207 0.07233 0.0
H277 H 0.86039 0.75297 0.07618 0.0
H278 H 0.84901 0.81262 0.08854 0.0
H279 H 0.68495 0.86035 0.02159 0.0
H280 H 0.62186 0.78613 0.03202 0.0
H281 H 0.7681 0.71547 0.04959 0.0
C282 C 0.90778 0.88352 0.03144 0.0
C283 C 0.90582 0.93229 0.02634 0.0
C284 C 0.85286 0.94814 0.02156 0.0
C285 C 0.80265 0.91606 0.02164 0.0
C286 C 0.80599 0.86828 0.02668 0.0
C287 C 0.85703 0.85203 0.03177 0.0
C288 C 0.84825 0.79934 0.03843 0.0
C289 C 0.87658 0.77012 0.01362 0.0
C290 C 0.86973 0.7913 0.07079 0.0
C291 C 0.78429 0.78874 0.03658 0.0
C292 C 0.76092 0.82893 0.0294 0.0
C293 C 0.70268 0.8286 0.02722 0.0
C294 C 0.66721 0.78634 0.03329 0.0
C295 C 0.69001 0.74507 0.0417 0.0
C296 C 0.74943 0.74618 0.04275 0.0
H297 H 0.89426 0.24582 0.02451 0.0
H298 H 0.80295 0.10247 0.02584 0.0
H299 H 0.71288 0.13473 0.0178 0.0
H300 H 0.79 0.30702 0.06387 0.0
H301 H 0.80208 0.35835 0.04035 0.0
H302 H 0.8587 0.32397 0.04698 0.0
H303 H 0.87224 0.31106 0.98811 0.0
H304 H 0.81613 0.34582 0.98133 0.0
H305 H 0.81254 0.28593 0.96472 0.0
H306 H 0.6328 0.18371 0.01056 0.0
H307 H 0.57039 0.2437 0.9996 0.0
H308 H 0.71616 0.35413 1.0007 0.0
C309 C 0.85523 0.22129 0.02336 0.0
C310 C 0.85531 0.17173 0.02605 0.0
C311 C 0.80364 0.14054 0.02371 0.0
C312 C 0.75239 0.1586 0.01939 0.0
C313 C 0.75379 0.20783 0.01718 0.0
C314 C 0.80403 0.23862 0.01872 0.0
C315 C 0.79464 0.28971 0.0143 0.0
C316 C 0.81241 0.32163 0.04309 0.0
C317 C 0.82571 0.30926 0.98539 0.0
C318 C 0.73116 0.28301 0.01006 0.0
C319 C 0.70824 0.23564 0.0121 0.0
C320 C 0.65039 0.22085 0.00873 0.0
C321 C 0.61532 0.25519 1.00238 0.0
C322 C 0.63825 0.30374 0.99911 0.0
C323 C 0.69693 0.31762 0.00352 0.0
H324 H 0.61324 0.68966 0.53629 0.0
H325 H 0.71466 0.58057 0.50471 0.0
H326 H 0.799 0.64143 0.50319 0.0
H327 H 0.68403 0.78506 0.4907 0.0
H328 H 0.67997 0.83068 0.52063 0.0
H329 H 0.62669 0.77892 0.51814 0.0
H330 H 0.6467 0.76053 0.57455 0.0
H331 H 0.69961 0.81241 0.57728 0.0
H332 H 0.71792 0.75462 0.58573 0.0
H333 H 0.87324 0.71344 0.50668 0.0
H334 H 0.93264 0.79118 0.5173 0.0
H335 H 0.78345 0.8534 0.54657 0.0
C336 C 0.65313 0.6786 0.52894 0.0
C337 C 0.65722 0.63028 0.52061 0.0
C338 C 0.71035 0.6173 0.51127 0.0
C339 C 0.75854 0.65166 0.51018 0.0
C340 C 0.75305 0.69895 0.51843 0.0
C341 C 0.70178 0.71246 0.52774 0.0
C342 C 0.70791 0.76538 0.53653 0.0
C343 C 0.67255 0.79154 0.51522 0.0
C344 C 0.69212 0.7737 0.57054 0.0
C345 C 0.77073 0.77933 0.53106 0.0
C346 C 0.7959 0.74054 0.52041 0.0
C347 C 0.85396 0.74415 0.51485 0.0
C348 C 0.88735 0.78835 0.52098 0.0
C349 C 0.8626 0.8283 0.53257 0.0
C350 C 0.80337 0.82375 0.53711 0.0
H351 H 0.70063 0.34498 0.45017 0.0
H352 H 0.63831 0.34497 0.5442 0.0
H353 H 0.68218 0.27217 0.55271 0.0
H354 H 0.68531 0.21651 0.43581 0.0
H355 H 0.7495 0.21954 0.41338 0.0
H356 H 0.70883 0.26875 0.4144 0.0
H357 H 0.79751 0.32629 0.43265 0.0
H358 H 0.83836 0.27729 0.43184 0.0
H359 H 0.83428 0.31358 0.46672 0.0
H360 H 0.73901 0.20072 0.55117 0.0
H361 H 0.80247 0.13945 0.53973 0.0
H362 H 0.82795 0.18996 0.44729 0.0
C363 C 0.69599 0.32989 0.47262 0.0
C364 C 0.6661 0.35108 0.49654 0.0
C365 C 0.66046 0.32929 0.52537 0.0
C366 C 0.68551 0.28801 0.53045 0.0
C367 C 0.71586 0.26883 0.50646 0.0
C368 C 0.72084 0.28915 0.47808 0.0
C369 C 0.75746 0.26344 0.45632 0.0
C370 C 0.72321 0.24071 0.42833 0.0
C371 C 0.81001 0.29716 0.44631 0.0
C372 C 0.77329 0.22582 0.47696 0.0
C373 C 0.74864 0.22896 0.50573 0.0
C374 C 0.75826 0.19795 0.52865 0.0
C375 C 0.79422 0.16321 0.52197 0.0
C376 C 0.82057 0.16023 0.49274 0.0
C377 C 0.80921 0.19177 0.47002 0.0
H378 H 0.35744 0.43927 0.55932 0.0
H379 H 0.4073 0.4025 0.46619 0.0
H380 H 0.32919 0.33512 0.46336 0.0
H381 H 0.33117 0.32002 0.58184 0.0
H382 H 0.27252 0.3288 0.60687 0.0
H383 H 0.32687 0.37795 0.60005 0.0
H384 H 0.25106 0.42784 0.58178 0.0
H385 H 0.1964 0.37871 0.58851 0.0
H386 H 0.20355 0.40404 0.55113 0.0
H387 H 0.24839 0.27046 0.4713 0.0
H388 H 0.17634 0.20805 0.4908 0.0
H389 H 0.18533 0.28204 0.58077 0.0
C390 C 0.35081 0.4176 0.53815 0.0
C391 C 0.38727 0.42627 0.51271 0.0
C392 C 0.37913 0.39641 0.48572 0.0
C393 C 0.33487 0.3583 0.4839 0.0
C394 C 0.29989 0.35016 0.50949 0.0
C395 C 0.30772 0.37858 0.53625 0.0
C396 C 0.26818 0.35895 0.56151 0.0
C397 C 0.30169 0.34563 0.58919 0.0
C398 C 0.22737 0.39451 0.5713 0.0
C399 C 0.23723 0.31492 0.54483 0.0
C400 C 0.25548 0.31104 0.51471 0.0
C401 C 0.23388 0.273 0.49489 0.0
C402 C 0.19325 0.23747 0.5063 0.0
C403 C 0.17529 0.23961 0.53747 0.0
C404 C 0.19726 0.27943 0.55674 0.0
H405 H 0.36102 0.73929 0.5432 0.0
H406 H 0.27689 0.59592 0.52189 0.0
H407 H 0.18929 0.62884 0.50935 0.0
H408 H 0.24037 0.78791 0.57741 0.0
H409 H 0.25834 0.84527 0.56074 0.0
H410 H 0.3133 0.81021 0.56952 0.0
H411 H 0.34842 0.81379 0.513 0.0
H412 H 0.29386 0.84907 0.50411 0.0
H413 H 0.29935 0.79424 0.48222 0.0
H414 H 0.11122 0.67788 0.4986 0.0
H415 H 0.05106 0.73908 0.48667 0.0
H416 H 0.18766 0.85066 0.51336 0.0
C417 C 0.32392 0.71479 0.53632 0.0
C418 C 0.32559 0.66496 0.53375 0.0
C419 C 0.27657 0.63417 0.52389 0.0
C420 C 0.22657 0.65255 0.51694 0.0
C421 C 0.22637 0.70186 0.51978 0.0
C422 C 0.27393 0.73258 0.52899 0.0
C423 C 0.26364 0.78427 0.52854 0.0
C424 C 0.26924 0.80832 0.56099 0.0
C425 C 0.30368 0.81196 0.5056 0.0
C426 C 0.20287 0.77791 0.51753 0.0
C427 C 0.18197 0.7301 0.51289 0.0
C428 C 0.12722 0.71541 0.50212 0.0
C429 C 0.09343 0.75048 0.4953 0.0
C430 C 0.11453 0.79979 0.49897 0.0
C431 C 0.16978 0.81339 0.51076 0.0
H432 H 0.01513 0.966 0.12005 0.0
H433 H 0.13177 0.09601 0.11029 0.0
H434 H 0.14383 0.10409 0.16695 0.0
H435 H 0.94514 0.00784 0.18627 0.0
H436 H 0.93451 0.95108 0.20425 0.0
H437 H 0.93933 0.95302 0.16297 0.0
H438 H 0.02122 0.90159 0.16286 0.0
H439 H 0.01663 0.89945 0.20418 0.0
H440 H 0.08294 0.92112 0.18614 0.0
H441 H 0.14146 0.09876 0.2244 0.0
H442 H 0.1214 0.08354 0.27896 0.0
H443 H 1.00014 0.96001 0.25179 0.0
C444 C 0.04394 0.99557 0.12999 0.0
C445 C 0.07351 0.03 0.11115 0.0
C446 C 0.10957 0.06908 0.12461 0.0
C447 C 0.1166 0.07387 0.15666 0.0
C448 C 0.08661 0.03953 0.1748 0.0
C449 C 0.0507 1.00128 0.16201 0.0
C450 C 0.02051 0.97132 0.18683 0.0
C451 C 0.95606 0.97081 0.18496 0.0
C452 C 0.03629 0.92035 0.18488 0.0
C453 C 0.04481 0.99882 0.21553 0.0
C454 C 0.0833 0.03769 0.20804 0.0
C455 C 0.11115 0.06857 0.23055 0.0
C456 C 0.099 0.05981 0.26156 0.0
C457 C 0.05864 0.02082 0.26997 0.0
C458 C 0.03165 0.98981 0.24641 0.0
H459 H 0.03271 0.09629 0.91877 0.0
H460 H 0.99068 0.94472 0.93287 0.0
H461 H 0.97347 0.92948 0.87722 0.0
H462 H 0.93362 0.10366 0.85467 0.0
H463 H 0.9834 0.14449 0.834 0.0
H464 H 0.98589 0.14477 0.87544 0.0
H465 H 0.09119 0.13166 0.87273 0.0
H466 H 0.089 0.13124 0.83135 0.0
H467 H 0.11089 0.08137 0.85023 0.0
H468 H 0.96444 0.92958 0.82072 0.0
H469 H 0.96976 0.94386 0.76538 0.0
H470 H 0.02511 0.09474 0.78604 0.0
C471 C 0.0187 0.06016 0.91005 0.0
C472 C 0.0122 0.02163 0.92994 0.0
C473 C 0.99551 0.97459 0.91786 0.0
C474 C 0.98546 0.96564 0.88636 0.0
C475 C 0.99304 1.0041 0.86716 0.0
C476 C 0.00966 0.05041 0.87836 0.0
C477 C 0.01953 0.08436 0.85214 0.0
C478 C 0.97813 0.12152 0.85419 0.0
C479 C 0.08132 0.10857 0.85159 0.0
C480 C 1.00649 0.04973 0.8246 0.0
C481 C 0.9905 1.0038 0.83397 0.0
C482 C 0.97712 0.96535 0.81303 0.0
C483 C 0.98084 0.97382 0.78158 0.0
C484 C 0.99872 0.02031 0.77116 0.0
C485 C 0.01096 0.05885 0.79313 0.0
H486 H 0.54796 0.56508 0.62698 0.0
H487 H 0.52109 0.41773 0.59201 0.0
H488 H 0.5095 0.39052 0.64526 0.0
H489 H 0.63106 0.54105 0.69454 0.0
H490 H 0.60278 0.58558 0.71874 0.0
H491 H 0.60987 0.59309 0.6779 0.0
H492 H 0.50331 0.6016 0.67488 0.0
H493 H 0.4957 0.5934 0.71561 0.0
H494 H 0.45156 0.55483 0.68881 0.0
H495 H 0.48855 0.38051 0.70135 0.0
H496 H 0.47618 0.3861 0.75722 0.0
H497 H 0.53224 0.53933 0.75683 0.0
C498 C 0.54049 0.52711 0.63069 0.0
C499 C 0.53535 0.49336 0.6056 0.0
C500 C 0.52565 0.44398 0.61108 0.0
C501 C 0.51865 0.42826 0.64116 0.0
C502 C 0.52298 0.46242 0.66545 0.0
C503 C 0.53524 0.51073 0.66065 0.0
C504 C 0.53921 0.53977 0.6909 0.0
C505 C 0.59931 0.56644 0.69581 0.0
C506 C 0.49479 0.57444 0.69263 0.0
C507 C 0.52578 0.50029 0.71338 0.0
C508 C 0.51575 0.45611 0.69815 0.0
C509 C 0.49822 0.41473 0.71368 0.0
C510 C 0.4919 0.41839 0.74572 0.0
C511 C 0.5047 0.46301 0.76235 0.0
C512 C 0.52174 0.50446 0.74551 0.0
H513 H 0.55653 0.5119 0.4117 0.0
H514 H 0.4323 0.60417 0.43982 0.0
H515 H 0.41451 0.61767 0.38519 0.0
H516 H 0.61408 0.58011 0.34798 0.0
H517 H 0.624 0.52796 0.32427 0.0
H518 H 0.62701 0.5261 0.36556 0.0
H519 H 0.54887 0.4527 0.36406 0.0
H520 H 0.54539 0.45445 0.32278 0.0
H521 H 0.48234 0.45663 0.34565 0.0
H522 H 0.40913 0.61966 0.32734 0.0
H523 H 0.41791 0.61142 0.27079 0.0
H524 H 0.54733 0.51929 0.28105 0.0
C525 C 0.52566 0.53507 0.40644 0.0
C526 C 0.49578 0.557 0.43004 0.0
C527 C 0.45577 0.58708 0.42212 0.0
C528 C 0.44532 0.59489 0.39117 0.0
C529 C 0.47532 0.57248 0.36849 0.0
C530 C 0.51482 0.54333 0.37577 0.0
C531 C 0.54137 0.52342 0.34713 0.0
C532 C 0.6054 0.54044 0.34619 0.0
C533 C 0.52871 0.46855 0.34478 0.0
C534 C 0.5105 0.54579 0.32254 0.0
C535 C 0.47256 0.57392 0.3353 0.0
C536 C 0.43896 0.59796 0.3171 0.0
C537 C 0.44448 0.59326 0.285 0.0
C538 C 0.48342 0.56482 0.27141 0.0
C539 C 0.51669 0.54083 0.29062 0.0
loop_
_geom_bond_atom_site_label_1
_geom_bond_atom_site_label_2
_geom_bond_distance
_geom_bond_site_symmetry_2
_ccdc_geom_bond_type
Co0 N5 2.057 . S
Co0 O17 2.021 . S
Co0 O20 2.062 1_455 S
Co0 O24 2.117 1_554 S
Co0 O25 2.020 1_565 S
C1 O21 1.259 1_455 S
C1 O24 1.258 1_545 S
Co2 N11 2.057 . S
Co2 O18 2.117 . S
Co2 O19 2.020 1_545 S
Co2 O21 2.021 1_554 S
Co2 O26 2.062 1_655 S
C3 N5 1.316 . S
C3 N6 1.347 . S
C3 H8 0.931 . S
C4 N5 1.375 1_556 S
C4 C7 1.350 . S
C4 H9 0.930 . S
N5 Co0 2.057 . S
N5 C3 1.316 . S
N5 C4 1.375 1_554 S
N6 C3 1.347 . S
N6 C7 1.373 1_554 S
C7 C4 1.350 . S
C7 N6 1.373 1_556 S
C7 H28 0.931 . S
H8 C3 0.931 . S
H9 C4 0.930 . S
C10 O17 1.259 1_545 S
C10 O18 1.258 1_455 S
N11 Co2 2.057 . S
N11 C12 1.316 . S
N11 C13 1.375 . S
C12 N11 1.316 . S
C12 N14 1.347 . S
C12 H23 0.931 1_554 S
C13 N11 1.375 . S
C13 C15 1.350 . S
C13 H22 0.930 . S
N14 C12 1.347 . S
N14 C15 1.373 . S
C15 C13 1.350 . S
C15 N14 1.373 . S
C15 H29 0.931 . S
C16 O19 1.256 . S
C16 O20 1.255 . S
O17 Co0 2.021 . S
O17 C10 1.259 1_565 S
O18 Co2 2.117 . S
O18 C10 1.258 1_655 S
O19 Co2 2.020 1_565 S
O19 C16 1.256 . S
O20 Co0 2.062 1_655 S
O20 C16 1.255 . S
O21 C1 1.259 1_655 S
O21 Co2 2.021 1_556 S
H22 C13 0.930 . S
H23 C12 0.931 1_556 S
O24 Co0 2.117 1_556 S
O24 C1 1.258 1_565 S
O25 Co0 2.020 1_545 S
O25 C27 1.256 . S
O26 Co2 2.062 1_455 S
O26 C27 1.255 . S
C27 O25 1.256 . S
C27 O26 1.255 . S
H28 C7 0.931 . S
H29 C15 0.931 . S
Co30 N35 2.057 . S
Co30 O47 2.021 . S
Co30 O50 2.062 . S
Co30 O54 2.117 . S
Co30 O55 2.020 . S
C31 O51 1.259 . S
C31 O54 1.258 . S
Co32 N41 2.057 . S
Co32 O48 2.117 . S
Co32 O49 2.020 . S
Co32 O51 2.021 . S
Co32 O56 2.062 . S
C33 N35 1.316 . S
C33 N36 1.347 . S
C33 H38 0.931 . S
C34 N35 1.375 . S
C34 C37 1.350 . S
C34 H39 0.930 . S
N35 Co30 2.057 . S
N35 C33 1.316 . S
N35 C34 1.375 . S
N36 C33 1.347 . S
N36 C37 1.373 . S
C37 C34 1.350 . S
C37 N36 1.373 . S
C37 H58 0.931 . S
H38 C33 0.931 . S
H39 C34 0.930 . S
C40 O47 1.259 . S
C40 O48 1.258 . S
N41 Co32 2.057 . S
N41 C42 1.316 . S
N41 C43 1.375 . S
C42 N41 1.316 . S
C42 N44 1.347 . S
C42 H53 0.931 . S
C43 N41 1.375 . S
C43 C45 1.350 . S
C43 H52 0.930 . S
N44 C42 1.347 . S
N44 C45 1.373 . S
C45 C43 1.350 . S
C45 N44 1.373 . S
C45 H59 0.931 . S
C46 O49 1.256 . S
C46 O50 1.255 . S
O47 Co30 2.021 . S
O47 C40 1.259 . S
O48 Co32 2.117 . S
O48 C40 1.258 . S
O49 Co32 2.020 . S
O49 C46 1.256 . S
O50 Co30 2.062 . S
O50 C46 1.255 . S
O51 C31 1.259 . S
O51 Co32 2.021 . S
H52 C43 0.930 . S
H53 C42 0.931 . S
O54 Co30 2.117 . S
O54 C31 1.258 . S
O55 Co30 2.020 . S
O55 C57 1.256 . S
O56 Co32 2.062 . S
O56 C57 1.255 . S
C57 O55 1.256 . S
C57 O56 1.255 . S
H58 C37 0.931 . S
H59 C45 0.931 . S
C60 C61 1.386 1_665 S
C60 C62 1.397 . S
C60 H84 0.931 . S
C61 C60 1.386 1_445 S
C61 C65 1.397 . S
C62 C60 1.397 . S
C62 C63 1.384 1_665 S
C62 H85 0.930 . S
C63 C62 1.384 1_445 S
C63 C64 1.377 . S
C63 C66 1.481 . S
C64 C63 1.377 . S
C64 C65 1.389 . S
C64 H86 0.929 . S
C65 C61 1.397 . S
C65 C64 1.389 . S
C65 H87 0.931 . S
C66 C63 1.481 . S
C66 C67 1.398 1_545 S
C66 C71 1.379 1_455 S
C67 C66 1.398 1_565 S
C67 C68 1.401 . S
C67 H88 0.930 . S
C68 C67 1.401 . S
C68 C69 1.376 1_465 S
C68 C77 1.511 . S
C69 C68 1.376 1_645 S
C69 C70 1.392 . S
C69 H90 0.931 . S
C70 C69 1.392 . S
C70 C71 1.361 . S
C70 C72 1.500 . S
C71 C66 1.379 1_655 S
C71 C70 1.361 . S
C71 H89 0.931 . S
C72 C70 1.500 . S
C72 C73 1.371 . S
C72 C74 1.365 . S
C73 C72 1.371 . S
C73 C83 1.386 . S
C73 H91 0.931 . S
C74 C72 1.365 . S
C74 C75 1.409 . S
C74 H92 0.929 . S
C75 C74 1.409 . S
C75 C76 1.380 . S
C75 H93 0.930 . S
C76 C75 1.380 . S
C76 C83 1.357 . S
C77 C68 1.511 . S
C77 C78 1.341 . S
C77 C79 1.371 . S
C78 C77 1.341 . S
C78 C82 1.394 . S
C78 H94 0.930 . S
C79 C77 1.371 . S
C79 C80 1.392 . S
C79 H95 0.931 . S
C80 C79 1.392 . S
C80 C81 1.331 . S
C80 H98 0.932 . S
C81 C80 1.331 . S
C81 C82 1.336 . S
C82 C78 1.394 . S
C82 C81 1.336 . S
C82 H97 0.929 . S
C83 C73 1.386 . S
C83 C76 1.357 . S
C83 H96 0.928 . S
H84 C60 0.931 . S
H85 C62 0.930 . S
H86 C64 0.929 . S
H87 C65 0.931 . S
H88 C67 0.930 . S
H89 C71 0.931 . S
H90 C69 0.931 . S
H91 C73 0.931 . S
H92 C74 0.929 . S
H93 C75 0.930 . S
H94 C78 0.930 . S
H95 C79 0.931 . S
H96 C83 0.928 . S
H97 C82 0.929 . S
H98 C80 0.932 . S
C99 C100 1.386 . S
C99 C101 1.397 . S
C99 H123 0.931 . S
C100 C99 1.386 . S
C100 C104 1.397 1_545 S
C101 C99 1.397 . S
C101 C102 1.384 . S
C101 H124 0.930 . S
C102 C101 1.384 . S
C102 C103 1.377 1_545 S
C102 C105 1.481 . S
C103 C102 1.377 1_565 S
C103 C104 1.389 . S
C103 H125 0.929 . S
C104 C100 1.397 1_565 S
C104 C103 1.389 . S
C104 H126 0.931 . S
C105 C102 1.481 . S
C105 C106 1.387 . S
C105 C110 1.390 1_445 S
C106 C105 1.387 . S
C106 C107 1.401 . S
C106 H127 0.930 . S
C107 C106 1.401 . S
C107 C108 1.376 . S
C107 C116 1.511 . S
C108 C107 1.376 . S
C108 C109 1.392 1_445 S
C108 H129 0.930 1_455 S
C109 C108 1.392 1_665 S
C109 C110 1.361 . S
C109 C111 1.500 . S
C110 C105 1.390 1_665 S
C110 C109 1.361 . S
C110 H128 0.931 . S
C111 C109 1.500 . S
C111 C112 1.371 . S
C111 C113 1.365 . S
C112 C111 1.371 . S
C112 C122 1.386 . S
C112 H130 0.931 . S
C113 C111 1.365 . S
C113 C114 1.409 . S
C113 H131 0.929 . S
C114 C113 1.409 . S
C114 C115 1.380 . S
C114 H132 0.930 . S
C115 C114 1.380 . S
C115 C122 1.357 . S
C116 C107 1.511 . S
C116 C117 1.341 . S
C116 C118 1.371 . S
C117 C116 1.341 . S
C117 C121 1.394 . S
C117 H133 0.930 . S
C118 C116 1.371 . S
C118 C119 1.392 . S
C118 H134 0.931 . S
C119 C118 1.392 . S
C119 C120 1.331 . S
C119 H137 0.932 . S
C120 C119 1.331 . S
C120 C121 1.336 . S
C121 C117 1.394 . S
C121 C120 1.336 . S
C121 H136 0.929 . S
C122 C112 1.386 . S
C122 C115 1.357 . S
C122 H135 0.928 . S
H123 C99 0.931 . S
H124 C101 0.930 . S
H125 C103 0.929 . S
H126 C104 0.931 . S
H127 C106 0.930 . S
H128 C110 0.931 . S
H129 C108 0.930 1_655 S
H130 C112 0.931 . S
H131 C113 0.929 . S
H132 C114 0.930 . S
H133 C117 0.930 . S
H134 C118 0.931 . S
H135 C122 0.928 . S
H136 C121 0.929 . S
H137 C119 0.932 . S
C138 C139 1.386 . S
C138 C140 1.397 . S
C138 H162 0.931 . S
C139 C138 1.386 . S
C139 C143 1.397 . S
C140 C138 1.397 . S
C140 C141 1.384 . S
C140 H163 0.930 . S
C141 C140 1.384 . S
C141 C142 1.377 . S
C141 C144 1.481 . S
C142 C141 1.377 . S
C142 C143 1.389 . S
C142 H164 0.929 . S
C143 C139 1.397 . S
C143 C142 1.389 . S
C143 H165 0.931 . S
C144 C141 1.481 . S
C144 C145 1.387 . S
C144 C149 1.390 . S
C145 C144 1.387 . S
C145 C146 1.401 . S
C145 H166 0.930 . S
C146 C145 1.401 . S
C146 C147 1.376 . S
C146 C155 1.511 . S
C147 C146 1.376 . S
C147 C148 1.392 . S
C147 H168 0.931 . S
C148 C147 1.392 . S
C148 C149 1.361 . S
C148 C150 1.500 . S
C149 C144 1.390 . S
C149 C148 1.361 . S
C149 H167 0.931 . S
C150 C148 1.500 . S
C150 C151 1.371 . S
C150 C152 1.365 . S
C151 C150 1.371 . S
C151 C161 1.386 1_556 S
C151 H169 0.931 . S
C152 C150 1.365 . S
C152 C153 1.409 . S
C152 H170 0.929 . S
C153 C152 1.409 . S
C153 C154 1.380 . S
C153 H171 0.930 . S
C154 C153 1.380 . S
C154 C161 1.357 1_556 S
C155 C146 1.511 . S
C155 C156 1.341 . S
C155 C157 1.371 . S
C156 C155 1.341 . S
C156 C160 1.394 . S
C156 H172 0.930 . S
C157 C155 1.371 . S
C157 C158 1.392 1_556 S
C157 H173 0.928 1_556 S
C158 C157 1.392 1_554 S
C158 C159 1.331 1_554 S
C158 H176 0.932 . S
C159 C158 1.331 1_556 S
C159 C160 1.336 . S
C160 C156 1.394 . S
C160 C159 1.336 . S
C160 H175 0.929 . S
C161 C151 1.386 1_554 S
C161 C154 1.357 1_554 S
C161 H174 0.928 . S
H162 C138 0.931 . S
H163 C140 0.930 . S
H164 C142 0.929 . S
H165 C143 0.931 . S
H166 C145 0.930 . S
H167 C149 0.931 . S
H168 C147 0.931 . S
H169 C151 0.931 . S
H170 C152 0.929 . S
H171 C153 0.930 . S
H172 C156 0.930 . S
H173 C157 0.928 1_554 S
H174 C161 0.928 . S
H175 C160 0.929 . S
H176 C158 0.932 . S
C177 C178 1.386 . S
C177 C179 1.397 . S
C177 H201 0.931 . S
C178 C177 1.386 . S
C178 C182 1.397 . S
C179 C177 1.397 . S
C179 C180 1.384 . S
C179 H202 0.930 . S
C180 C179 1.384 . S
C180 C181 1.377 . S
C180 C183 1.481 . S
C181 C180 1.377 . S
C181 C182 1.389 . S
C181 H203 0.929 . S
C182 C178 1.397 . S
C182 C181 1.389 . S
C182 H204 0.931 . S
C183 C180 1.481 . S
C183 C184 1.387 . S
C183 C188 1.390 . S
C184 C183 1.387 . S
C184 C185 1.401 . S
C184 H205 0.930 . S
C185 C184 1.401 . S
C185 C186 1.376 . S
C185 C194 1.511 . S
C186 C185 1.376 . S
C186 C187 1.392 . S
C186 H207 0.931 . S
C187 C186 1.392 . S
C187 C188 1.361 . S
C187 C189 1.500 . S
C188 C183 1.390 . S
C188 C187 1.361 . S
C188 H206 0.931 . S
C189 C187 1.500 . S
C189 C190 1.371 . S
C189 C191 1.365 . S
C190 C189 1.371 . S
C190 C200 1.386 . S
C190 H208 0.931 . S
C191 C189 1.365 . S
C191 C192 1.409 . S
C191 H209 0.929 . S
C192 C191 1.409 . S
C192 C193 1.380 . S
C192 H210 0.930 . S
C193 C192 1.380 . S
C193 C200 1.357 . S
C194 C185 1.511 . S
C194 C195 1.341 . S
C194 C196 1.371 . S
C195 C194 1.341 . S
C195 C199 1.394 . S
C195 H211 0.930 . S
C196 C194 1.371 . S
C196 C197 1.392 . S
C196 H212 0.931 . S
C197 C196 1.392 . S
C197 C198 1.331 . S
C197 H215 0.932 . S
C198 C197 1.331 . S
C198 C199 1.336 . S
C199 C195 1.394 . S
C199 C198 1.336 . S
C199 H214 0.929 . S
C200 C190 1.386 . S
C200 C193 1.357 . S
C200 H213 0.928 . S
H201 C177 0.931 . S
H202 C179 0.930 . S
H203 C181 0.929 . S
H204 C182 0.931 . S
H205 C184 0.930 . S
H206 C188 0.931 . S
H207 C186 0.931 . S
H208 C190 0.931 . S
H209 C191 0.929 . S
H210 C192 0.930 . S
H211 C195 0.930 . S
H212 C196 0.931 . S
H213 C200 0.928 . S
H214 C199 0.929 . S
H215 C197 0.932 . S
H216 C228 0.930 . S
H217 C230 0.930 . S
H218 C231 0.930 . S
H219 C235 0.959 . S
H220 C235 0.959 . S
H221 C235 0.961 . S
H222 C236 0.960 . S
H223 C236 0.961 . S
H224 C236 0.959 . S
H225 C239 0.929 . S
H226 C240 0.931 . S
H227 C242 0.930 1_556 S
C228 H216 0.930 . S
C228 C229 1.399 1_556 S
C228 C233 1.399 1_556 S
C229 C228 1.399 1_554 S
C229 C230 1.376 . S
C230 H217 0.930 . S
C230 C229 1.376 . S
C230 C231 1.388 . S
C231 H218 0.930 . S
C231 C230 1.388 . S
C231 C232 1.390 . S
C232 C231 1.390 . S
C232 C233 1.394 . S
C232 C238 1.465 . S
C233 C228 1.399 1_554 S
C233 C232 1.394 . S
C233 C234 1.516 1_554 S
C234 C233 1.516 1_556 S
C234 C235 1.502 . S
C234 C236 1.561 . S
C234 C237 1.526 1_556 S
C235 H219 0.959 . S
C235 H220 0.959 . S
C235 H221 0.961 . S
C235 C234 1.502 . S
C236 H222 0.960 . S
C236 H223 0.961 . S
C236 H224 0.959 . S
C236 C234 1.561 . S
C237 C234 1.526 1_554 S
C237 C238 1.396 . S
C237 C242 1.390 . S
C238 C232 1.465 . S
C238 C237 1.396 . S
C238 C239 1.399 . S
C239 H225 0.929 . S
C239 C238 1.399 . S
C239 C240 1.385 . S
C240 H226 0.931 . S
C240 C239 1.385 . S
C240 C241 1.389 . S
C241 C240 1.389 . S
C241 C242 1.387 . S
C242 H227 0.930 1_554 S
C242 C237 1.390 . S
C242 C241 1.387 . S
H243 C255 0.930 . S
H244 C257 0.930 . S
H245 C258 0.930 . S
H246 C262 0.959 . S
H247 C262 0.959 . S
H248 C262 0.961 . S
H249 C263 0.960 . S
H250 C263 0.961 . S
H251 C263 0.959 . S
H252 C266 0.929 . S
H253 C267 0.931 . S
H254 C269 0.930 . S
C255 H243 0.930 . S
C255 C256 1.399 1_556 S
C255 C260 1.399 . S
C256 C255 1.399 1_554 S
C256 C257 1.376 . S
C257 H244 0.930 . S
C257 C256 1.376 . S
C257 C258 1.388 . S
C258 H245 0.930 . S
C258 C257 1.388 . S
C258 C259 1.390 . S
C259 C258 1.390 . S
C259 C260 1.394 1_554 S
C259 C265 1.465 . S
C260 C255 1.399 . S
C260 C259 1.394 1_556 S
C260 C261 1.516 . S
C261 C260 1.516 . S
C261 C262 1.502 . S
C261 C263 1.561 . S
C261 C264 1.526 . S
C262 H246 0.959 . S
C262 H247 0.959 . S
C262 H248 0.961 . S
C262 C261 1.502 . S
C263 H249 0.960 . S
C263 H250 0.961 . S
C263 H251 0.959 . S
C263 C261 1.561 . S
C264 C261 1.526 . S
C264 C265 1.396 1_556 S
C264 C269 1.390 . S
C265 C259 1.465 . S
C265 C264 1.396 1_554 S
C265 C266 1.399 . S
C266 H252 0.929 . S
C266 C265 1.399 . S
C266 C267 1.385 . S
C267 H253 0.931 . S
C267 C266 1.385 . S
C267 C268 1.389 . S
C268 C267 1.389 . S
C268 C269 1.387 1_554 S
C269 H254 0.930 . S
C269 C264 1.390 . S
C269 C268 1.387 1_556 S
H270 C282 0.930 . S
H271 C284 0.930 . S
H272 C285 0.930 . S
H273 C289 0.959 . S
H274 C289 0.959 . S
H275 C289 0.961 . S
H276 C290 0.960 . S
H277 C290 0.961 . S
H278 C290 0.959 . S
H279 C293 0.929 . S
H280 C294 0.931 . S
H281 C296 0.930 . S
C282 H270 0.930 . S
C282 C283 1.399 . S
C282 C287 1.399 . S
C283 C282 1.399 . S
C283 C284 1.376 1_554 S
C284 H271 0.930 . S
C284 C283 1.376 1_556 S
C284 C285 1.388 . S
C285 H272 0.930 . S
C285 C284 1.388 . S
C285 C286 1.390 1_556 S
C286 C285 1.390 1_554 S
C286 C287 1.394 . S
C286 C292 1.465 . S
C287 C282 1.399 . S
C287 C286 1.394 . S
C287 C288 1.516 . S
C288 C287 1.516 . S
C288 C289 1.502 . S
C288 C290 1.561 . S
C288 C291 1.526 . S
C289 H273 0.959 . S
C289 H274 0.959 . S
C289 H275 0.961 . S
C289 C288 1.502 . S
C290 H276 0.960 . S
C290 H277 0.961 . S
C290 H278 0.959 . S
C290 C288 1.561 . S
C291 C288 1.526 . S
C291 C292 1.396 . S
C291 C296 1.390 . S
C292 C286 1.465 . S
C292 C291 1.396 . S
C292 C293 1.399 1_554 S
C293 H279 0.929 . S
C293 C292 1.399 1_556 S
C293 C294 1.385 . S
C294 H280 0.931 . S
C294 C293 1.385 . S
C294 C295 1.389 1_556 S
C295 C294 1.389 1_554 S
C295 C296 1.387 . S
C296 H281 0.930 . S
C296 C291 1.390 . S
C296 C295 1.387 . S
H297 C309 0.930 . S
H298 C311 0.930 . S
H299 C312 0.930 . S
H300 C316 0.959 . S
H301 C316 0.959 . S
H302 C316 0.961 . S
H303 C317 0.960 . S
H304 C317 0.961 . S
H305 C317 0.959 1_556 S
H306 C320 0.929 . S
H307 C321 0.931 . S
H308 C323 0.930 . S
C309 H297 0.930 . S
C309 C310 1.399 . S
C309 C314 1.399 . S
C310 C309 1.399 . S
C310 C311 1.376 1_554 S
C311 H298 0.930 . S
C311 C310 1.376 1_556 S
C311 C312 1.388 . S
C312 H299 0.930 . S
C312 C311 1.388 . S
C312 C313 1.390 . S
C313 C312 1.390 . S
C313 C314 1.394 1_556 S
C313 C319 1.465 . S
C314 C309 1.399 . S
C314 C313 1.394 1_554 S
C314 C315 1.516 . S
C315 C314 1.516 . S
C315 C316 1.502 . S
C315 C317 1.561 . S
C315 C318 1.526 . S
C316 H300 0.959 . S
C316 H301 0.959 . S
C316 H302 0.961 . S
C316 C315 1.502 . S
C317 H303 0.960 . S
C317 H304 0.961 . S
C317 H305 0.959 1_554 S
C317 C315 1.561 . S
C318 C315 1.526 . S
C318 C319 1.396 1_554 S
C318 C323 1.390 . S
C319 C313 1.465 . S
C319 C318 1.396 1_556 S
C319 C320 1.399 . S
C320 H306 0.929 . S
C320 C319 1.399 . S
C320 C321 1.385 . S
C321 H307 0.931 . S
C321 C320 1.385 . S
C321 C322 1.389 . S
C322 C321 1.389 . S
C322 C323 1.387 1_556 S
C323 H308 0.930 . S
C323 C318 1.390 . S
C323 C322 1.387 1_554 S
H324 C336 0.930 . S
H325 C338 0.930 . S
H326 C339 0.930 . S
H327 C343 0.959 . S
H328 C343 0.959 . S
H329 C343 0.961 . S
H330 C344 0.960 . S
H331 C344 0.961 . S
H332 C344 0.959 . S
H333 C347 0.929 . S
H334 C348 0.931 . S
H335 C350 0.930 . S
C336 H324 0.930 . S
C336 C337 1.399 . S
C336 C341 1.399 . S
C337 C336 1.399 . S
C337 C338 1.376 . S
C338 H325 0.930 . S
C338 C337 1.376 . S
C338 C339 1.388 . S
C339 H326 0.930 . S
C339 C338 1.388 . S
C339 C340 1.390 . S
C340 C339 1.390 . S
C340 C341 1.394 . S
C340 C346 1.465 . S
C341 C336 1.399 . S
C341 C340 1.394 . S
C341 C342 1.516 . S
C342 C341 1.516 . S
C342 C343 1.502 . S
C342 C344 1.561 . S
C342 C345 1.526 . S
C343 H327 0.959 . S
C343 H328 0.959 . S
C343 H329 0.961 . S
C343 C342 1.502 . S
C344 H330 0.960 . S
C344 H331 0.961 . S
C344 H332 0.959 . S
C344 C342 1.561 . S
C345 C342 1.526 . S
C345 C346 1.396 . S
C345 C350 1.390 . S
C346 C340 1.465 . S
C346 C345 1.396 . S
C346 C347 1.399 . S
C347 H333 0.929 . S
C347 C346 1.399 . S
C347 C348 1.385 . S
C348 H334 0.931 . S
C348 C347 1.385 . S
C348 C349 1.389 . S
C349 C348 1.389 . S
C349 C350 1.387 . S
C350 H335 0.930 . S
C350 C345 1.390 . S
C350 C349 1.387 . S
H351 C363 0.930 . S
H352 C365 0.930 . S
H353 C366 0.930 . S
H354 C370 0.959 . S
H355 C370 0.959 . S
H356 C370 0.961 . S
H357 C371 0.960 . S
H358 C371 0.961 . S
H359 C371 0.959 . S
H360 C374 0.929 . S
H361 C375 0.931 . S
H362 C377 0.930 . S
C363 H351 0.930 . S
C363 C364 1.399 . S
C363 C368 1.399 . S
C364 C363 1.399 . S
C364 C365 1.376 . S
C365 H352 0.930 . S
C365 C364 1.376 . S
C365 C366 1.388 . S
C366 H353 0.930 . S
C366 C365 1.388 . S
C366 C367 1.390 . S
C367 C366 1.390 . S
C367 C368 1.394 . S
C367 C373 1.465 . S
C368 C363 1.399 . S
C368 C367 1.394 . S
C368 C369 1.516 . S
C369 C368 1.516 . S
C369 C370 1.502 . S
C369 C371 1.561 . S
C369 C372 1.526 . S
C370 H354 0.959 . S
C370 H355 0.959 . S
C370 H356 0.961 . S
C370 C369 1.502 . S
C371 H357 0.960 . S
C371 H358 0.961 . S
C371 H359 0.959 . S
C371 C369 1.561 . S
C372 C369 1.526 . S
C372 C373 1.396 . S
C372 C377 1.390 . S
C373 C367 1.465 . S
C373 C372 1.396 . S
C373 C374 1.399 . S
C374 H360 0.929 . S
C374 C373 1.399 . S
C374 C375 1.385 . S
C375 H361 0.931 . S
C375 C374 1.385 . S
C375 C376 1.389 . S
C376 C375 1.389 . S
C376 C377 1.387 . S
C377 H362 0.930 . S
C377 C372 1.390 . S
C377 C376 1.387 . S
H378 C390 0.930 . S
H379 C392 0.930 . S
H380 C393 0.930 . S
H381 C397 0.959 . S
H382 C397 0.959 . S
H383 C397 0.961 . S
H384 C398 0.960 . S
H385 C398 0.961 . S
H386 C398 0.959 . S
H387 C401 0.929 . S
H388 C402 0.931 . S
H389 C404 0.930 . S
C390 H378 0.930 . S
C390 C391 1.399 . S
C390 C395 1.399 . S
C391 C390 1.399 . S
C391 C392 1.376 . S
C392 H379 0.930 . S
C392 C391 1.376 . S
C392 C393 1.388 . S
C393 H380 0.930 . S
C393 C392 1.388 . S
C393 C394 1.390 . S
C394 C393 1.390 . S
C394 C395 1.394 . S
C394 C400 1.465 . S
C395 C390 1.399 . S
C395 C394 1.394 . S
C395 C396 1.516 . S
C396 C395 1.516 . S
C396 C397 1.502 . S
C396 C398 1.561 . S
C396 C399 1.526 . S
C397 H381 0.959 . S
C397 H382 0.959 . S
C397 H383 0.961 . S
C397 C396 1.502 . S
C398 H384 0.960 . S
C398 H385 0.961 . S
C398 H386 0.959 . S
C398 C396 1.561 . S
C399 C396 1.526 . S
C399 C400 1.396 . S
C399 C404 1.390 . S
C400 C394 1.465 . S
C400 C399 1.396 . S
C400 C401 1.399 . S
C401 H387 0.929 . S
C401 C400 1.399 . S
C401 C402 1.385 . S
C402 H388 0.931 . S
C402 C401 1.385 . S
C402 C403 1.389 . S
C403 C402 1.389 . S
C403 C404 1.387 . S
C404 H389 0.930 . S
C404 C399 1.390 . S
C404 C403 1.387 . S
H405 C417 0.930 . S
H406 C419 0.930 . S
H407 C420 0.930 . S
H408 C424 0.959 . S
H409 C424 0.959 . S
H410 C424 0.961 . S
H411 C425 0.960 . S
H412 C425 0.961 . S
H413 C425 0.959 . S
H414 C428 0.929 . S
H415 C429 0.931 . S
H416 C431 0.930 . S
C417 H405 0.930 . S
C417 C418 1.399 . S
C417 C422 1.399 . S
C418 C417 1.399 . S
C418 C419 1.376 . S
C419 H406 0.930 . S
C419 C418 1.376 . S
C419 C420 1.388 . S
C420 H407 0.930 . S
C420 C419 1.388 . S
C420 C421 1.390 . S
C421 C420 1.390 . S
C421 C422 1.394 . S
C421 C427 1.465 . S
C422 C417 1.399 . S
C422 C421 1.394 . S
C422 C423 1.516 . S
C423 C422 1.516 . S
C423 C424 1.502 . S
C423 C425 1.561 . S
C423 C426 1.526 . S
C424 H408 0.959 . S
C424 H409 0.959 . S
C424 H410 0.961 . S
C424 C423 1.502 . S
C425 H411 0.960 . S
C425 H412 0.961 . S
C425 H413 0.959 . S
C425 C423 1.561 . S
C426 C423 1.526 . S
C426 C427 1.396 . S
C426 C431 1.390 . S
C427 C421 1.465 . S
C427 C426 1.396 . S
C427 C428 1.399 . S
C428 H414 0.929 . S
C428 C427 1.399 . S
C428 C429 1.385 . S
C429 H415 0.931 . S
C429 C428 1.385 . S
C429 C430 1.389 . S
C430 C429 1.389 . S
C430 C431 1.387 . S
C431 H416 0.930 . S
C431 C426 1.390 . S
C431 C430 1.387 . S
H432 C444 0.930 . S
H433 C446 0.930 . S
H434 C447 0.930 . S
H435 C451 0.959 . S
H436 C451 0.959 . S
H437 C451 0.961 . S
H438 C452 0.960 . S
H439 C452 0.961 . S
H440 C452 0.959 . S
H441 C455 0.929 . S
H442 C456 0.931 . S
H443 C458 0.930 . S
C444 H432 0.930 . S
C444 C445 1.399 1_665 S
C444 C449 1.399 . S
C445 C444 1.399 1_445 S
C445 C446 1.376 . S
C446 H433 0.930 . S
C446 C445 1.376 . S
C446 C447 1.388 . S
C447 H434 0.930 . S
C447 C446 1.388 . S
C447 C448 1.390 . S
C448 C447 1.390 . S
C448 C449 1.394 1_445 S
C448 C454 1.465 . S
C449 C444 1.399 . S
C449 C448 1.394 1_665 S
C449 C450 1.516 . S
C450 C449 1.516 . S
C450 C451 1.502 . S
C450 C452 1.561 1_655 S
C450 C453 1.526 . S
C451 H435 0.959 . S
C451 H436 0.959 . S
C451 H437 0.961 . S
C451 C450 1.502 . S
C452 H438 0.960 . S
C452 H439 0.961 . S
C452 H440 0.959 . S
C452 C450 1.561 1_455 S
C453 C450 1.526 . S
C453 C454 1.396 1_665 S
C453 C458 1.390 . S
C454 C448 1.465 . S
C454 C453 1.396 1_445 S
C454 C455 1.399 . S
C455 H441 0.929 . S
C455 C454 1.399 . S
C455 C456 1.385 . S
C456 H442 0.931 . S
C456 C455 1.385 . S
C456 C457 1.389 . S
C457 C456 1.389 . S
C457 C458 1.387 1_445 S
C458 H443 0.930 . S
C458 C453 1.390 . S
C458 C457 1.387 1_665 S
H459 C471 0.930 . S
H460 C473 0.930 . S
H461 C474 0.930 . S
H462 C478 0.959 . S
H463 C478 0.959 . S
H464 C478 0.961 . S
H465 C479 0.960 . S
H466 C479 0.961 . S
H467 C479 0.959 . S
H468 C482 0.929 . S
H469 C483 0.931 . S
H470 C485 0.930 . S
C471 H459 0.930 . S
C471 C472 1.399 . S
C471 C476 1.399 . S
C472 C471 1.399 . S
C472 C473 1.376 1_445 S
C473 H460 0.930 . S
C473 C472 1.376 1_665 S
C473 C474 1.388 . S
C474 H461 0.930 . S
C474 C473 1.388 . S
C474 C475 1.390 . S
C475 C474 1.390 . S
C475 C476 1.394 1_665 S
C475 C481 1.465 . S
C476 C471 1.399 . S
C476 C475 1.394 1_445 S
C476 C477 1.516 . S
C477 C476 1.516 . S
C477 C478 1.502 . S
C477 C479 1.561 . S
C477 C480 1.526 . S
C478 H462 0.959 . S
C478 H463 0.959 . S
C478 H464 0.961 . S
C478 C477 1.502 . S
C479 H465 0.960 . S
C479 H466 0.961 . S
C479 H467 0.959 . S
C479 C477 1.561 . S
C480 C477 1.526 . S
C480 C481 1.396 1_445 S
C480 C485 1.390 . S
C481 C475 1.465 . S
C481 C480 1.396 1_665 S
C481 C482 1.399 . S
C482 H468 0.929 . S
C482 C481 1.399 . S
C482 C483 1.385 . S
C483 H469 0.931 . S
C483 C482 1.385 . S
C483 C484 1.389 1_665 S
C484 C483 1.389 1_445 S
C484 C485 1.387 . S
C485 H470 0.930 . S
C485 C480 1.390 . S
C485 C484 1.387 . S
H486 C498 0.930 . S
H487 C500 0.930 . S
H488 C501 0.930 . S
H489 C505 0.959 . S
H490 C505 0.959 . S
H491 C505 0.961 . S
H492 C506 0.960 . S
H493 C506 0.961 . S
H494 C506 0.959 . S
H495 C509 0.929 . S
H496 C510 0.931 . S
H497 C512 0.930 . S
C498 H486 0.930 . S
C498 C499 1.399 . S
C498 C503 1.399 . S
C499 C498 1.399 . S
C499 C500 1.376 . S
C500 H487 0.930 . S
C500 C499 1.376 . S
C500 C501 1.388 . S
C501 H488 0.930 . S
C501 C500 1.388 . S
C501 C502 1.390 . S
C502 C501 1.390 . S
C502 C503 1.394 . S
C502 C508 1.465 . S
C503 C498 1.399 . S
C503 C502 1.394 . S
C503 C504 1.516 . S
C504 C503 1.516 . S
C504 C505 1.502 . S
C504 C506 1.561 . S
C504 C507 1.526 . S
C505 H489 0.959 . S
C505 H490 0.959 . S
C505 H491 0.961 . S
C505 C504 1.502 . S
C506 H492 0.960 . S
C506 H493 0.961 . S
C506 H494 0.959 . S
C506 C504 1.561 . S
C507 C504 1.526 . S
C507 C508 1.396 . S
C507 C512 1.390 . S
C508 C502 1.465 . S
C508 C507 1.396 . S
C508 C509 1.399 . S
C509 H495 0.929 . S
C509 C508 1.399 . S
C509 C510 1.385 . S
C510 H496 0.931 . S
C510 C509 1.385 . S
C510 C511 1.389 . S
C511 C510 1.389 . S
C511 C512 1.387 . S
C512 H497 0.930 . S
C512 C507 1.390 . S
C512 C511 1.387 . S
H513 C525 0.930 . S
H514 C527 0.930 . S
H515 C528 0.930 . S
H516 C532 0.959 . S
H517 C532 0.959 . S
H518 C532 0.961 . S
H519 C533 0.960 . S
H520 C533 0.961 . S
H521 C533 0.959 . S
H522 C536 0.929 . S
H523 C537 0.931 . S
H524 C539 0.930 . S
C525 H513 0.930 . S
C525 C526 1.399 . S
C525 C530 1.399 . S
C526 C525 1.399 . S
C526 C527 1.376 . S
C527 H514 0.930 . S
C527 C526 1.376 . S
C527 C528 1.388 . S
C528 H515 0.930 . S
C528 C527 1.388 . S
C528 C529 1.390 . S
C529 C528 1.390 . S
C529 C530 1.394 . S
C529 C535 1.465 . S
C530 C525 1.399 . S
C530 C529 1.394 . S
C530 C531 1.516 . S
C531 C530 1.516 . S
C531 C532 1.502 . S
C531 C533 1.561 . S
C531 C534 1.526 . S
C532 H516 0.959 . S
C532 H517 0.959 . S
C532 H518 0.961 . S
C532 C531 1.502 . S
C533 H519 0.960 . S
C533 H520 0.961 . S
C533 H521 0.959 . S
C533 C531 1.561 . S
C534 C531 1.526 . S
C534 C535 1.396 . S
C534 C539 1.390 . S
C535 C529 1.465 . S
C535 C534 1.396 . S
C535 C536 1.399 . S
C536 H522 0.929 . S
C536 C535 1.399 . S
C536 C537 1.385 . S
C537 H523 0.931 . S
C537 C536 1.385 . S
C537 C538 1.389 . S
C538 C537 1.389 . S
C538 C539 1.387 . S
C539 H524 0.930 . S
C539 C534 1.390 . S
C539 C538 1.387 . S
C241 C193 1.417 . S
C229 C27 1.485 . S
C256 N6 1.409 . S
C268 C154 1.432 1_554 S
C283 C16 1.474 . S
C295 C198 1.467 . S
C310 N14 1.408 . S
C322 C159 1.382 . S
C337 C57 1.487 . S
C349 C115 1.424 . S
C364 N36 1.425 . S
C376 C76 1.436 . S
C403 C120 1.466 . S
C391 C46 1.473 . S
C430 C81 1.373 . S
C418 N44 1.420 . S
C445 C10 1.379 . S
C457 C61 1.386 . S
C472 C1 1.524 . S
C484 C100 1.527 . S
C511 C139 1.387 . S
C499 C40 1.387 . S
C526 C31 1.512 . S
C538 C178 1.528 . S
