# Generated by pormake.
# Topology anh, (6,3)-cn, num edge types: 1
# Building blocks:
#     Node 0, Type 0, BuildingBlock: CUKXOW_clean_sbu_0, # of connection points: 6
#     Node 1, Type 0, BuildingBlock: CUKXOW_clean_sbu_0, # of connection points: 6
#     Node 2, Type 0, BuildingBlock: CUKXOW_clean_sbu_0, # of connection points: 6
#     Node 3, Type 1, BuildingBlock: KAKCAD_clean_linker_0, # of connection points: 3
#     Node 4, Type 1, BuildingBlock: KAKCAD_clean_linker_0, # of connection points: 3
#     Node 5, Type 1, BuildingBlock: KAKCAD_clean_linker_0, # of connection points: 3
#     Node 6, Type 1, BuildingBlock: KAKCAD_clean_linker_0, # of connection points: 3
#     Node 7, Type 1, BuildingBlock: KAKCAD_clean_linker_0, # of connection points: 3
#     Node 8, Type 1, BuildingBlock: KAKCAD_clean_linker_0, # of connection points: 3
#     Edge 9, Type (0, 1), BuildingBlock: ZUJKAS_clean_linker_0, # of connection points: 2
#     Edge 10, Type (0, 1), BuildingBlock: ZUJKAS_clean_linker_0, # of connection points: 2
#     Edge 11, Type (0, 1), BuildingBlock: ZUJKAS_clean_linker_0, # of connection points: 2
#     Edge 12, Type (0, 1), BuildingBlock: ZUJKAS_clean_linker_0, # of connection points: 2
#     Edge 13, Type (0, 1), BuildingBlock: ZUJKAS_clean_linker_0, # of connection points: 2
#     Edge 14, Type (0, 1), BuildingBlock: ZUJKAS_clean_linker_0, # of connection points: 2
#     Edge 15, Type (0, 1), BuildingBlock: ZUJKAS_clean_linker_0, # of connection points: 2
#     Edge 16, Type (0, 1), BuildingBlock: ZUJKAS_clean_linker_0, # of connection points: 2
#     Edge 17, Type (0, 1), BuildingBlock: ZUJKAS_clean_linker_0, # of connection points: 2
#     Edge 18, Type (0, 1), BuildingBlock: ZUJKAS_clean_linker_0, # of connection points: 2
#     Edge 19, Type (0, 1), BuildingBlock: ZUJKAS_clean_linker_0, # of connection points: 2
#     Edge 20, Type (0, 1), BuildingBlock: ZUJKAS_clean_linker_0, # of connection points: 2
#     Edge 21, Type (0, 1), BuildingBlock: ZUJKAS_clean_linker_0, # of connection points: 2
#     Edge 22, Type (0, 1), BuildingBlock: ZUJKAS_clean_linker_0, # of connection points: 2
#     Edge 23, Type (0, 1), BuildingBlock: ZUJKAS_clean_linker_0, # of connection points: 2
#     Edge 24, Type (0, 1), BuildingBlock: ZUJKAS_clean_linker_0, # of connection points: 2
#     Edge 25, Type (0, 1), BuildingBlock: ZUJKAS_clean_linker_0, # of connection points: 2
#     Edge 26, Type (0, 1), BuildingBlock: ZUJKAS_clean_linker_0, # of connection points: 2
# Relax obj value: 0.132
# Max RMSD: 0.194
# Mean RMSD: 0.138
data_MOF--net-anh--node1-CUKXOW_clean_sbu_0--node2-KAKCAD_clean_linker_0--edge1-ZUJKAS_clean_linker_0
_symmetry_space_group_name_H-M    P1
_symmetry_Int_Tables_number       1
_symmetry_cell_setting            triclinic
loop_
_symmetry_equiv_pos_as_xyz
'x, y, z'
_cell_length_a     43.952957
_cell_length_b     42.982792
_cell_length_c     81.054423
_cell_angle_alpha  95.674888
_cell_angle_beta   90.085426
_cell_angle_gamma 116.16249
loop_
_atom_site_label
_atom_site_type_symbol
_atom_site_fract_x
_atom_site_fract_y
_atom_site_fract_z
_atom_type_partial_charge
Tb0 Tb 0.07041 0.52896 0.15271 0.0
C1 C 0.03876 0.4914 0.18426 0.0
Tb2 Tb 0.01627 0.44738 0.14845 0.0
O3 O 0.03189 0.54943 0.15259 0.0
O4 O 0.018 0.49728 0.15086 0.0
O5 O 0.06461 0.51754 0.17833 0.0
C6 C 0.9581 0.38947 0.14724 0.0
O7 O 0.01525 0.46437 0.17472 0.0
C8 C 0.08088 0.45759 0.14894 0.0
C9 C 0.04919 0.48485 0.11709 0.0
O10 O 0.98385 0.39782 0.15755 0.0
O11 O 0.96531 0.41355 0.13732 0.0
O12 O 0.05485 0.42696 0.14677 0.0
O13 O 0.06864 0.4791 0.15076 0.0
O14 O 0.02238 0.45906 0.12274 0.0
O15 O 0.07299 0.51111 0.12687 0.0
C16 C 0.1284 0.5872 0.15636 0.0
O17 O 0.10616 0.578 0.14403 0.0
O18 O 0.1179 0.56367 0.16665 0.0
C19 C 1.00583 0.51883 0.15122 0.0
Tb20 Tb 0.50426 0.01772 0.5093 0.0
C21 C 0.53916 0.04615 0.47704 0.0
Tb22 Tb 0.57787 0.07354 0.51271 0.0
O23 O 0.48752 0.05491 0.50119 0.0
O24 O 0.52994 0.07175 0.51759 0.0
O25 O 0.5151 0.01892 0.48319 0.0
C26 C 0.63557 0.13151 0.5117 0.0
O27 O 0.56351 0.07214 0.48662 0.0
C28 C 0.56916 0.0093 0.51267 0.0
C29 C 0.54315 0.04514 0.54512 0.0
O30 O 0.6307 0.10031 0.50599 0.0
O31 O 0.60801 0.13007 0.51809 0.0
O32 O 0.59452 0.03596 0.52053 0.0
O33 O 0.55213 0.01978 0.50425 0.0
O34 O 0.56851 0.07121 0.53891 0.0
O35 O 0.51723 0.02052 0.53573 0.0
C36 C 0.44686 0.959 0.50941 0.0
O37 O 0.47663 0.96073 0.50686 0.0
O38 O 0.44936 0.99033 0.51189 0.0
C39 C 0.51275 0.0818 0.50898 0.0
Tb40 Tb 0.51914 0.5172 0.83348 0.0
C41 C 0.55328 0.51197 0.86626 0.0
Tb42 Tb 0.59082 0.52287 0.83213 0.0
O43 O 0.49722 0.46252 0.83834 0.0
O44 O 0.54117 0.48408 0.82496 0.0
O45 O 0.52949 0.51895 0.85981 0.0
C46 C 0.64733 0.51466 0.83231 0.0
O47 O 0.57739 0.50889 0.85733 0.0
C48 C 0.58614 0.58194 0.83353 0.0
C49 C 0.55672 0.52659 0.79933 0.0
O50 O 0.64442 0.54167 0.83924 0.0
O51 O 0.61829 0.49201 0.82545 0.0
O52 O 0.60985 0.57684 0.826 0.0
O53 O 0.56849 0.5556 0.84069 0.0
O54 O 0.57953 0.51826 0.80574 0.0
O55 O 0.5337 0.5314 0.80841 0.0
C56 C 0.46941 0.53629 0.83211 0.0
O57 O 0.47058 0.51059 0.8227 0.0
O58 O 0.49535 0.55 0.84259 0.0
C59 C 0.52208 0.45762 0.83183 0.0
C60 C 0.55359 0.06976 0.29083 0.0
C61 C 0.54706 0.04092 0.29955 0.0
C62 C 0.55341 0.06642 0.27348 0.0
C63 C 0.54669 0.03417 0.2645 0.0
C64 C 0.54105 0.00563 0.27326 0.0
C65 C 0.54121 0.00895 0.29057 0.0
C66 C 0.54435 0.0298 0.24606 0.0
C67 C 0.56799 0.05512 0.23695 0.0
C68 C 0.56581 0.05065 0.21947 0.0
C69 C 0.53931 0.02057 0.21115 0.0
C70 C 0.5157 0.99498 0.22011 0.0
C71 C 0.51832 0.99988 0.2375 0.0
C72 C 0.48826 0.96278 0.21148 0.0
C73 C 0.46736 0.96437 0.1988 0.0
C74 C 0.48193 0.93022 0.21649 0.0
C75 C 0.4546 0.89992 0.20934 0.0
C76 C 0.43273 0.90148 0.19712 0.0
C77 C 0.59195 0.07677 0.20996 0.0
C78 C 0.60438 0.11265 0.21501 0.0
C79 C 0.60547 0.06596 0.19608 0.0
C80 C 0.63129 0.09043 0.18765 0.0
C81 C 0.64422 0.12628 0.19291 0.0
C82 C 0.6302 0.13712 0.20658 0.0
C83 C 0.43974 0.934 0.19172 0.0
H84 H 0.55792 0.09467 0.2974 0.0
H85 H 0.55755 0.08881 0.26707 0.0
H86 H 0.53649 0.98062 0.26673 0.0
H87 H 0.53682 0.98644 0.29692 0.0
H88 H 0.58877 0.07775 0.24349 0.0
H89 H 0.49954 0.98051 0.24441 0.0
H90 H 0.53723 0.01683 0.1977 0.0
H91 H 0.47164 0.98922 0.19479 0.0
H92 H 0.49803 0.92823 0.22605 0.0
H93 H 0.45049 0.87524 0.2135 0.0
H94 H 0.59425 0.12185 0.22554 0.0
H95 H 0.59671 0.03851 0.19196 0.0
H96 H 0.42326 0.93619 0.18243 0.0
H97 H 0.6398 0.1645 0.21107 0.0
H98 H 0.64127 0.08123 0.17706 0.0
C99 C 0.53467 0.56714 0.61697 0.0
C100 C 0.55878 0.5592 0.62456 0.0
C101 C 0.53277 0.56694 0.59974 0.0
C102 C 0.55501 0.55889 0.58974 0.0
C103 C 0.57965 0.5518 0.59739 0.0
C104 C 0.58147 0.55189 0.61459 0.0
C105 C 0.55186 0.55675 0.57136 0.0
C106 C 0.54554 0.58132 0.5637 0.0
C107 C 0.54211 0.57906 0.54632 0.0
C108 C 0.54505 0.55169 0.53649 0.0
C109 C 0.55133 0.52681 0.54404 0.0
C110 C 0.55465 0.52963 0.56142 0.0
C111 C 0.55308 0.49668 0.5342 0.0
C112 C 0.52684 0.47462 0.52258 0.0
C113 C 0.57891 0.4873 0.53802 0.0
C114 C 0.57741 0.45549 0.53122 0.0
C115 C 0.54999 0.43223 0.52045 0.0
C116 C 0.53621 0.60613 0.53877 0.0
C117 C 0.51133 0.61576 0.54488 0.0
C118 C 0.55741 0.62482 0.52668 0.0
C119 C 0.5551 0.65393 0.52156 0.0
C120 C 0.53135 0.66473 0.52834 0.0
C121 C 0.50881 0.64457 0.53967 0.0
C122 C 0.52524 0.44261 0.51581 0.0
H123 H 0.5166 0.5725 0.62431 0.0
H124 H 0.51325 0.57212 0.59422 0.0
H125 H 0.59756 0.54614 0.59007 0.0
H126 H 0.60071 0.54627 0.62011 0.0
H127 H 0.54407 0.60281 0.57128 0.0
H128 H 0.55833 0.50984 0.56727 0.0
H129 H 0.54233 0.54968 0.52308 0.0
H130 H 0.50654 0.48116 0.51948 0.0
H131 H 0.59957 0.50395 0.54686 0.0
H132 H 0.59678 0.44833 0.5352 0.0
H133 H 0.49435 0.60147 0.55405 0.0
H134 H 0.57695 0.61806 0.52186 0.0
H135 H 0.50403 0.42549 0.50736 0.0
H136 H 0.48964 0.65152 0.54483 0.0
H137 H 0.57302 0.66893 0.5129 0.0
C138 C 0.12212 0.59129 0.94551 0.0
C139 C 0.0968 0.55832 0.94847 0.0
C140 C 0.12458 0.60259 0.92975 0.0
C141 C 0.10166 0.5812 0.91665 0.0
C142 C 0.07684 0.54799 0.91954 0.0
C143 C 0.07439 0.53672 0.93526 0.0
C144 C 0.1031 0.59338 0.90003 0.0
C145 C 0.13423 0.61033 0.89259 0.0
C146 C 0.13507 0.6193 0.87632 0.0
C147 C 0.10458 0.61195 0.86767 0.0
C148 C 0.07339 0.59509 0.87491 0.0
C149 C 0.07288 0.58631 0.89115 0.0
C150 C 0.04127 0.58476 0.86515 0.0
C151 C 0.03752 0.60775 0.85508 0.0
C152 C 0.01431 0.55143 0.86564 0.0
C153 C 0.98397 0.5415 0.85651 0.0
C154 C 0.97995 0.56467 0.84665 0.0
C155 C 0.16721 0.63266 0.86763 0.0
C156 C 0.19731 0.65909 0.87544 0.0
C157 C 0.16815 0.6174 0.85162 0.0
C158 C 0.19873 0.62717 0.84386 0.0
C159 C 0.2292 0.65258 0.85188 0.0
C160 C 0.22803 0.66911 0.86759 0.0
C161 C 1.00713 0.5978 0.84591 0.0
H162 H 0.14002 0.60839 0.9554 0.0
H163 H 0.14394 0.62832 0.9279 0.0
H164 H 0.05916 0.53064 0.90964 0.0
H165 H 0.05439 0.51134 0.93713 0.0
H166 H 0.15759 0.61472 0.89909 0.0
H167 H 0.0488 0.5738 0.89689 0.0
H168 H 0.1051 0.61823 0.85501 0.0
H169 H 0.05786 0.63364 0.85449 0.0
H170 H 0.01668 0.53292 0.87307 0.0
H171 H 0.96334 0.51599 0.85754 0.0
H172 H 0.19716 0.67152 0.88771 0.0
H173 H 0.14544 0.59657 0.8454 0.0
H174 H 1.00482 0.61613 0.83834 0.0
H175 H 0.25099 0.68904 0.87404 0.0
H176 H 0.19863 0.61321 0.83197 0.0
C177 C 0.99555 0.50978 0.37035 0.0
C178 C 0.02513 0.51494 0.36199 0.0
C179 C 0.99624 0.5137 0.38769 0.0
C180 C 0.0265 0.5228 0.39705 0.0
C181 C 0.05599 0.52767 0.38868 0.0
C182 C 0.05532 0.52382 0.37135 0.0
C183 C 0.0274 0.5274 0.41549 0.0
C184 C 1.00081 0.50412 0.42415 0.0
C185 C 1.00153 0.50825 0.44159 0.0
C186 C 0.02949 0.53597 0.45038 0.0
C187 C 0.05644 0.5594 0.44192 0.0
C188 C 0.05501 0.55502 0.42448 0.0
C189 C 0.08615 0.58854 0.45119 0.0
C190 C 0.08183 0.60827 0.46509 0.0
C191 C 0.11911 0.59732 0.44592 0.0
C192 C 0.14701 0.62566 0.45408 0.0
C193 C 0.14271 0.64586 0.46777 0.0
C194 C 0.97327 0.48317 0.45054 0.0
C195 C 0.93948 0.47081 0.44454 0.0
C196 C 0.97984 0.47069 0.46486 0.0
C197 C 0.95327 0.44587 0.47278 0.0
C198 C 0.91954 0.43291 0.46655 0.0
C199 C 0.91296 0.44593 0.45242 0.0
C200 C 0.10982 0.63662 0.47329 0.0
H201 H 0.97201 0.50336 0.36348 0.0
H202 H 0.97319 0.51021 0.39376 0.0
H203 H 0.07956 0.5341 0.39552 0.0
H204 H 0.07839 0.5274 0.36528 0.0
H205 H 0.97992 0.48215 0.41729 0.0
H206 H 0.07517 0.57365 0.41787 0.0
H207 H 0.03034 0.53926 0.46383 0.0
H208 H 0.05675 0.60232 0.46939 0.0
H209 H 0.12336 0.58235 0.43541 0.0
H210 H 0.17189 0.63227 0.44935 0.0
H211 H 0.93349 0.48023 0.43367 0.0
H212 H 1.0056 0.47946 0.46973 0.0
H213 H 0.10565 0.65141 0.4839 0.0
H214 H 0.88735 0.43624 0.44714 0.0
H215 H 0.9592 0.43669 0.48375 0.0
C216 C 0.536 0.98357 0.72681 0.0
C217 C 0.5576 0.01369 0.71966 0.0
C218 C 0.53621 0.98318 0.74404 0.0
C219 C 0.55811 0.01286 0.75452 0.0
C220 C 0.58031 0.04265 0.74734 0.0
C221 C 0.57997 0.04311 0.73015 0.0
C222 C 0.55698 0.01331 0.77289 0.0
C223 C 0.55302 0.98405 0.78062 0.0
C224 C 0.55129 0.9842 0.79796 0.0
C225 C 0.55377 0.01443 0.80768 0.0
C226 C 0.55795 0.04406 0.80007 0.0
C227 C 0.55936 0.04307 0.78274 0.0
C228 C 0.55987 0.07621 0.80966 0.0
C229 C 0.53366 0.07503 0.81986 0.0
C230 C 0.58556 0.10886 0.80666 0.0
C231 C 0.58403 0.13962 0.81283 0.0
C232 C 0.55666 0.13854 0.82212 0.0
C233 C 0.5476 0.95265 0.80557 0.0
C234 C 0.52415 0.91934 0.79847 0.0
C235 C 0.56941 0.95522 0.81887 0.0
C236 C 0.56891 0.92507 0.82438 0.0
C237 C 0.54634 0.89173 0.8168 0.0
C238 C 0.52347 0.8893 0.80402 0.0
C239 C 0.53199 0.10591 0.82598 0.0
H240 H 0.51878 0.96027 0.7191 0.0
H241 H 0.5186 0.95988 0.74915 0.0
H242 H 0.59788 0.0658 0.75503 0.0
H243 H 0.59671 0.06689 0.72512 0.0
H244 H 0.55205 0.96127 0.77312 0.0
H245 H 0.56134 0.06542 0.77684 0.0
H246 H 0.55241 0.01489 0.82105 0.0
H247 H 0.51343 0.05019 0.82228 0.0
H248 H 0.60608 0.1105 0.79885 0.0
H249 H 0.60333 0.16412 0.80946 0.0
H250 H 0.50683 0.91652 0.78827 0.0
H251 H 0.58786 0.98052 0.82453 0.0
H252 H 0.51081 0.10418 0.83329 0.0
H253 H 0.50595 0.86415 0.7978 0.0
H254 H 0.5866 0.92787 0.83439 0.0
C255 C 0.55825 0.46909 0.05032 0.0
C256 C 0.54921 0.49185 0.04253 0.0
C257 C 0.55683 0.46831 0.06751 0.0
C258 C 0.54651 0.49042 0.07737 0.0
C259 C 0.53746 0.51317 0.06959 0.0
C260 C 0.53871 0.51382 0.05239 0.0
C261 C 0.54543 0.48992 0.09572 0.0
C262 C 0.57098 0.48671 0.10469 0.0
C263 C 0.57057 0.48635 0.122 0.0
C264 C 0.54373 0.48949 0.13053 0.0
C265 C 0.51768 0.49281 0.12163 0.0
C266 C 0.51896 0.49282 0.10429 0.0
C267 C 0.48834 0.49591 0.12968 0.0
C268 C 0.46598 0.47002 0.13898 0.0
C269 C 0.47952 0.52216 0.12574 0.0
C270 C 0.44852 0.52164 0.13019 0.0
C271 C 0.42515 0.49477 0.13873 0.0
C272 C 0.59923 0.48328 0.13043 0.0
C273 C 0.60661 0.45533 0.12503 0.0
C274 C 0.62299 0.51101 0.14126 0.0
C275 C 0.65421 0.51162 0.14582 0.0
C276 C 0.66234 0.48441 0.13972 0.0
C277 C 0.63757 0.45579 0.12964 0.0
C278 C 0.43472 0.46938 0.14341 0.0
H279 H 0.56683 0.45208 0.04317 0.0
H280 H 0.56361 0.45016 0.07305 0.0
H281 H 0.52976 0.53084 0.0768 0.0
H282 H 0.53113 0.53136 0.04681 0.0
H283 H 0.59198 0.48531 0.0982 0.0
H284 H 0.49864 0.49436 0.09735 0.0
H285 H 0.54316 0.4894 0.14389 0.0
H286 H 0.47183 0.44924 0.14207 0.0
H287 H 0.4961 0.54242 0.11852 0.0
H288 H 0.44225 0.54148 0.12616 0.0
H289 H 0.58902 0.43381 0.11648 0.0
H290 H 0.61828 0.53316 0.14542 0.0
H291 H 0.41772 0.44853 0.15019 0.0
H292 H 0.64277 0.4345 0.12451 0.0
H293 H 0.67238 0.5339 0.15377 0.0
H294 H 0.13872 0.5206 0.15079 0.0
H295 H 0.19808 0.52976 0.14964 0.0
H296 H 0.16396 0.41847 0.14443 0.0
H297 H 0.10512 0.40937 0.14561 0.0
H298 H 0.23613 0.50747 0.17022 0.0
H299 H 0.22485 0.44882 0.10515 0.0
H300 H 0.1938 0.46174 0.11381 0.0
H301 H 0.19317 0.42113 0.11796 0.0
C302 C 0.14396 0.49819 0.14947 0.0
C303 C 0.11715 0.46429 0.14831 0.0
C304 C 0.17791 0.5034 0.14877 0.0
C305 C 0.18566 0.47479 0.1467 0.0
C306 C 0.15882 0.441 0.1457 0.0
H307 H 0.36369 0.43601 0.13697 0.0
H308 H 0.30692 0.43254 0.13987 0.0
C309 C 0.12509 0.43584 0.14646 0.0
C310 C 0.22159 0.4798 0.14572 0.0
H311 H 0.27435 0.45852 0.12107 0.0
C312 C 0.24459 0.49706 0.15942 0.0
C313 C 0.23279 0.46614 0.13166 0.0
C314 C 0.21 0.4487 0.11624 0.0
C315 C 0.27791 0.50001 0.15964 0.0
C316 C 0.28897 0.48594 0.14565 0.0
C317 C 0.26606 0.46914 0.13187 0.0
C318 C 0.32405 0.48824 0.14495 0.0
C319 C 0.30053 0.51713 0.17514 0.0
C320 C 0.353 0.52066 0.14688 0.0
C321 C 0.38566 0.52271 0.1454 0.0
C322 C 0.39042 0.4924 0.14177 0.0
C323 C 0.36136 0.45993 0.14003 0.0
C324 C 0.32869 0.45791 0.14154 0.0
H325 H 0.28558 0.51728 0.18616 0.0
H326 H 0.3163 0.50369 0.17767 0.0
H327 H 0.31774 0.54462 0.17345 0.0
H328 H 0.35035 0.54456 0.14919 0.0
H329 H 0.40723 0.54821 0.14697 0.0
H330 H 0.69203 0.13717 0.49601 0.0
H331 H 0.74177 0.19087 0.4911 0.0
H332 H 0.69843 0.25192 0.51812 0.0
H333 H 0.64843 0.1982 0.52304 0.0
H334 H 0.73626 0.2461 0.47432 0.0
H335 H 0.79966 0.29135 0.53754 0.0
H336 H 0.77038 0.24634 0.53122 0.0
H337 H 0.75468 0.27814 0.53586 0.0
C338 C 0.6933 0.16203 0.50106 0.0
C339 C 0.66651 0.16366 0.5099 0.0
C340 C 0.72166 0.1926 0.49825 0.0
C341 C 0.72377 0.22521 0.50437 0.0
C342 C 0.69737 0.22692 0.5135 0.0
H343 H 0.85528 0.42604 0.4716 0.0
H344 H 0.80757 0.37671 0.48172 0.0
C345 C 0.66887 0.19631 0.51625 0.0
C346 C 0.75259 0.25736 0.50018 0.0
H347 H 0.82378 0.32851 0.51661 0.0
C348 C 0.75537 0.26419 0.48355 0.0
C349 C 0.77742 0.28068 0.51229 0.0
C350 C 0.77573 0.27386 0.53024 0.0
C351 C 0.78243 0.29391 0.47868 0.0
C352 C 0.80717 0.31734 0.49078 0.0
C353 C 0.80452 0.3105 0.50742 0.0
C354 C 0.83655 0.34846 0.48613 0.0
C355 C 0.78477 0.29985 0.46058 0.0
C356 C 0.86864 0.34902 0.48562 0.0
C357 C 0.89585 0.37691 0.47967 0.0
C358 C 0.89142 0.40481 0.47423 0.0
C359 C 0.85941 0.40469 0.4754 0.0
C360 C 0.8322 0.37669 0.48127 0.0
H361 H 0.76632 0.27674 0.45249 0.0
H362 H 0.77951 0.32235 0.45886 0.0
H363 H 0.81077 0.30625 0.4565 0.0
H364 H 0.87233 0.3273 0.48928 0.0
H365 H 0.91999 0.37593 0.47876 0.0
H366 H 0.55082 0.60476 0.8551 0.0
H367 H 0.53896 0.6552 0.85371 0.0
H368 H 0.59588 0.67959 0.80961 0.0
H369 H 0.60728 0.62885 0.8108 0.0
H370 H 0.58848 0.72709 0.85386 0.0
H371 H 0.50313 0.67838 0.79697 0.0
H372 H 0.51093 0.6498 0.80944 0.0
H373 H 0.54188 0.67397 0.79535 0.0
C374 C 0.56036 0.62063 0.84498 0.0
C375 C 0.57955 0.61269 0.83292 0.0
C376 C 0.55377 0.64952 0.84427 0.0
C377 C 0.56614 0.67086 0.83143 0.0
C378 C 0.58562 0.66314 0.81946 0.0
H379 H 0.60291 0.88247 0.82293 0.0
H380 H 0.60569 0.82866 0.82795 0.0
C381 C 0.59234 0.63435 0.82022 0.0
C382 C 0.55981 0.70195 0.83084 0.0
H383 H 0.52362 0.7385 0.8066 0.0
C384 C 0.57411 0.72954 0.84359 0.0
C385 C 0.5405 0.70479 0.81761 0.0
C386 C 0.52292 0.67509 0.80411 0.0
C387 C 0.57075 0.7605 0.84314 0.0
C388 C 0.55307 0.76418 0.82942 0.0
C389 C 0.53756 0.73594 0.81701 0.0
C390 C 0.55125 0.7974 0.8274 0.0
C391 C 0.58602 0.78888 0.85743 0.0
C392 C 0.51973 0.7978 0.82519 0.0
C393 C 0.51807 0.8286 0.82224 0.0
C394 C 0.54791 0.85967 0.82138 0.0
C395 C 0.57943 0.85926 0.82385 0.0
C396 C 0.58106 0.82845 0.82672 0.0
H397 H 0.58884 0.77817 0.86896 0.0
H398 H 0.61168 0.8079 0.85433 0.0
H399 H 0.57029 0.80299 0.85992 0.0
H400 H 0.49637 0.77417 0.82561 0.0
H401 H 0.49337 0.82801 0.82053 0.0
H402 H 0.94784 0.45746 0.15353 0.0
H403 H 0.88848 0.44829 0.1515 0.0
H404 H 0.92304 0.55707 0.14553 0.0
H405 H 0.98184 0.56592 0.14706 0.0
H406 H 0.85419 0.47833 0.17088 0.0
H407 H 0.85485 0.51122 0.10656 0.0
H408 H 0.88783 0.50265 0.11529 0.0
H409 H 0.88853 0.54485 0.11968 0.0
C410 C 0.94267 0.47916 0.15144 0.0
C411 C 0.96957 0.5122 0.15007 0.0
C412 C 0.90873 0.47402 0.15044 0.0
C413 C 0.90101 0.50182 0.14798 0.0
C414 C 0.92802 0.53493 0.14696 0.0
H415 H 0.72438 0.54197 0.14034 0.0
H416 H 0.781 0.54479 0.14318 0.0
C417 C 0.96176 0.54001 0.14795 0.0
C418 C 0.86502 0.49684 0.14685 0.0
H419 H 0.80879 0.50989 0.12252 0.0
C420 C 0.84416 0.48489 0.16023 0.0
C421 C 0.85168 0.50535 0.13297 0.0
C422 C 0.87175 0.51639 0.11774 0.0
C423 C 0.81103 0.48245 0.16036 0.0
C424 C 0.79801 0.49171 0.14663 0.0
C425 C 0.81868 0.50306 0.13314 0.0
C426 C 0.76319 0.49006 0.14595 0.0
C427 C 0.79068 0.47105 0.17547 0.0
C428 C 0.73398 0.45839 0.14661 0.0
C429 C 0.70142 0.45672 0.14509 0.0
C430 C 0.69709 0.48667 0.14279 0.0
C431 C 0.72646 0.51844 0.14237 0.0
C432 C 0.75899 0.52005 0.14384 0.0
H433 H 0.80708 0.47369 0.18647 0.0
H434 H 0.77639 0.48651 0.17853 0.0
H435 H 0.77211 0.4432 0.1729 0.0
H436 H 0.73629 0.43469 0.14794 0.0
H437 H 0.67957 0.43181 0.14558 0.0
H438 H 0.3829 0.95291 0.51229 0.0
H439 H 0.32957 0.89915 0.5089 0.0
H440 H 0.38573 0.83862 0.50097 0.0
H441 H 0.43915 0.89229 0.50446 0.0
H442 H 0.30961 0.85195 0.47973 0.0
H443 H 0.31586 0.78719 0.53475 0.0
H444 H 0.34155 0.83318 0.53348 0.0
H445 H 0.35314 0.80159 0.52283 0.0
C446 C 0.38383 0.92809 0.51005 0.0
C447 C 0.41501 0.92663 0.5086 0.0
C448 C 0.35342 0.89747 0.50812 0.0
C449 C 0.35377 0.86496 0.50488 0.0
C450 C 0.38496 0.86342 0.50378 0.0
H451 H 0.20696 0.65363 0.47452 0.0
H452 H 0.25705 0.70729 0.48459 0.0
C453 C 0.41539 0.89406 0.50566 0.0
C454 C 0.32151 0.83296 0.50123 0.0
H455 H 0.27296 0.75287 0.51374 0.0
C456 C 0.30137 0.8304 0.48725 0.0
C457 C 0.31109 0.8049 0.51102 0.0
C458 C 0.33135 0.80682 0.52645 0.0
C459 C 0.27145 0.80008 0.4825 0.0
C460 C 0.261 0.7719 0.49225 0.0
C461 C 0.28099 0.77458 0.50634 0.0
C462 C 0.23006 0.73897 0.48758 0.0
C463 C 0.25196 0.79807 0.46675 0.0
C464 C 0.19815 0.73882 0.48639 0.0
C465 C 0.16956 0.70833 0.48041 0.0
C466 C 0.17233 0.67732 0.47569 0.0
C467 C 0.20408 0.67722 0.47772 0.0
C468 C 0.23267 0.70777 0.48361 0.0
H469 H 0.26769 0.81804 0.45866 0.0
H470 H 0.24264 0.77192 0.45958 0.0
H471 H 0.22967 0.80271 0.46998 0.0
H472 H 0.19551 0.76251 0.4897 0.0
H473 H 0.14557 0.70942 0.47894 0.0
H474 H 0.49008 0.40438 0.85069 0.0
H475 H 0.49678 0.3507 0.85071 0.0
H476 H 0.57028 0.38441 0.8131 0.0
H477 H 0.56294 0.43767 0.81274 0.0
H478 H 0.52185 0.31609 0.80605 0.0
H479 H 0.57631 0.33873 0.87038 0.0
H480 H 0.53703 0.34194 0.86893 0.0
H481 H 0.57402 0.37293 0.85996 0.0
C482 C 0.50772 0.40034 0.84247 0.0
C483 C 0.52632 0.42536 0.83186 0.0
C484 C 0.51175 0.36981 0.84259 0.0
C485 C 0.53451 0.36379 0.83214 0.0
C486 C 0.55284 0.38865 0.8214 0.0
H487 H 0.60576 0.2044 0.83301 0.0
H488 H 0.59994 0.25876 0.83601 0.0
C489 C 0.54882 0.41917 0.82128 0.0
C490 C 0.53817 0.33095 0.83187 0.0
H491 H 0.55996 0.28226 0.85602 0.0
C492 C 0.53024 0.30874 0.81697 0.0
C493 C 0.54952 0.32155 0.84608 0.0
C494 C 0.56004 0.34515 0.86221 0.0
C495 C 0.53283 0.27717 0.81592 0.0
C496 C 0.54311 0.26721 0.83026 0.0
C497 C 0.55164 0.28969 0.8451 0.0
C498 C 0.54593 0.23391 0.82987 0.0
C499 C 0.52512 0.25505 0.79939 0.0
C500 C 0.51732 0.20176 0.82597 0.0
C501 C 0.52057 0.17066 0.82418 0.0
C502 C 0.55253 0.17102 0.82632 0.0
C503 C 0.58086 0.20318 0.83103 0.0
C504 C 0.57757 0.23428 0.83283 0.0
H505 H 0.52584 0.2702 0.78893 0.0
H506 H 0.54346 0.24391 0.79728 0.0
H507 H 0.4993 0.23313 0.79924 0.0
H508 H 0.49255 0.2008 0.82392 0.0
H509 H 0.49825 0.14649 0.82041 0.0
H510 H 0.52702 0.95282 0.49148 0.0
H511 H 0.51707 0.89203 0.49176 0.0
H512 H 0.58821 0.92278 0.53388 0.0
H513 H 0.59805 0.98344 0.53369 0.0
H514 H 0.59824 0.87952 0.50825 0.0
H515 H 0.46359 0.82478 0.52565 0.0
H516 H 0.47338 0.84876 0.50786 0.0
H517 H 0.49125 0.87104 0.528 0.0
C518 C 0.54014 0.94646 0.50092 0.0
C519 C 0.56294 0.97266 0.51271 0.0
C520 C 0.53448 0.91178 0.50106 0.0
C521 C 0.55158 0.90284 0.51298 0.0
C522 C 0.57466 0.92911 0.52462 0.0
H523 H 0.52265 0.71301 0.54985 0.0
H524 H 0.52552 0.76892 0.54429 0.0
C525 C 0.58026 0.96371 0.5245 0.0
C526 C 0.54613 0.86629 0.51323 0.0
H527 H 0.48729 0.78516 0.52061 0.0
C528 C 0.57393 0.8588 0.51083 0.0
C529 C 0.51441 0.83942 0.51669 0.0
C530 C 0.48394 0.84627 0.51983 0.0
C531 C 0.57103 0.82524 0.51203 0.0
C532 C 0.53938 0.7984 0.51556 0.0
C533 C 0.51144 0.80576 0.51776 0.0
C534 C 0.53554 0.76329 0.51834 0.0
C535 C 0.60214 0.81905 0.51011 0.0
C536 C 0.53968 0.74126 0.50549 0.0
C537 C 0.53777 0.70896 0.50859 0.0
C538 C 0.53159 0.6981 0.5246 0.0
C539 C 0.52683 0.72011 0.53731 0.0
C540 C 0.52864 0.75223 0.53419 0.0
H541 H 0.62578 0.84384 0.51038 0.0
H542 H 0.60448 0.80423 0.52011 0.0
H543 H 0.5998 0.80333 0.49804 0.0
H544 H 0.54458 0.74914 0.49311 0.0
H545 H 0.54112 0.69252 0.49847 0.0
H546 H 0.65725 0.46084 0.81677 0.0
H547 H 0.71194 0.45919 0.81252 0.0
H548 H 0.76388 0.56132 0.83983 0.0
H549 H 0.70963 0.56316 0.8441 0.0
H550 H 0.78788 0.54803 0.80562 0.0
H551 H 0.77634 0.4538 0.85074 0.0
H552 H 0.74137 0.4444 0.83628 0.0
H553 H 0.75259 0.47908 0.85279 0.0
C554 C 0.68038 0.48274 0.82197 0.0
C555 C 0.67942 0.51212 0.83078 0.0
C556 C 0.71145 0.48178 0.81951 0.0
C557 C 0.74169 0.51018 0.82584 0.0
C558 C 0.74066 0.53926 0.83481 0.0
H559 H 0.94735 0.60548 0.84507 0.0
H560 H 0.88936 0.58759 0.83482 0.0
C561 C 0.70973 0.5402 0.83731 0.0
C562 C 0.77484 0.51027 0.82322 0.0
H563 H 0.82975 0.48441 0.84008 0.0
C564 C 0.79694 0.53358 0.81285 0.0
C565 C 0.7862 0.49101 0.83252 0.0
C566 C 0.76307 0.46563 0.84377 0.0
C567 C 0.83099 0.53982 0.81235 0.0
C568 C 0.84314 0.52283 0.82277 0.0
C569 C 0.82034 0.49748 0.83214 0.0
C570 C 0.87979 0.53463 0.82616 0.0
C571 C 0.85388 0.5655 0.80116 0.0
C572 C 0.89369 0.51079 0.82467 0.0
C573 C 0.92695 0.52097 0.83058 0.0
C574 C 0.94665 0.55507 0.8382 0.0
C575 C 0.93307 0.57923 0.83902 0.0
C576 C 0.8999 0.56905 0.83311 0.0
H577 H 0.83937 0.56592 0.79001 0.0
H578 H 0.86508 0.59208 0.80798 0.0
H579 H 0.87483 0.55921 0.79708 0.0
H580 H 0.87843 0.48404 0.81944 0.0
H581 H 0.93692 0.50192 0.82962 0.0
H582 H 0.15425 0.63688 0.13504 0.0
H583 H 0.2081 0.69023 0.13854 0.0
H584 H 0.22834 0.66319 0.18583 0.0
H585 H 0.17504 0.60965 0.18223 0.0
H586 H 0.22859 0.74504 0.16295 0.0
H587 H 0.31628 0.68411 0.16318 0.0
H588 H 0.27213 0.65981 0.15633 0.0
H589 H 0.28445 0.66829 0.17813 0.0
C590 C 0.17037 0.64229 0.14612 0.0
C591 C 0.16068 0.6192 0.15835 0.0
C592 C 0.20105 0.6727 0.1481 0.0
C593 C 0.2225 0.68032 0.1623 0.0
C594 C 0.21261 0.65737 0.17458 0.0
H595 H 0.39031 0.84906 0.21448 0.0
H596 H 0.34028 0.79604 0.20393 0.0
C597 C 0.18205 0.62695 0.17258 0.0
C598 C 0.25453 0.71299 0.16471 0.0
H599 H 0.33933 0.74449 0.17424 0.0
C600 C 0.25291 0.74497 0.16514 0.0
C601 C 0.28625 0.7128 0.16745 0.0
C602 C 0.29 0.6794 0.16608 0.0
C603 C 0.28194 0.77673 0.16908 0.0
C604 C 0.31323 0.77635 0.17261 0.0
C605 C 0.31514 0.74453 0.17159 0.0
C606 C 0.34372 0.80854 0.17861 0.0
C607 C 0.27887 0.81046 0.17016 0.0
C608 C 0.36221 0.83296 0.16778 0.0
C609 C 0.3912 0.86321 0.17372 0.0
C610 C 0.40205 0.86944 0.19059 0.0
C611 C 0.38316 0.84482 0.20136 0.0
C612 C 0.35441 0.8146 0.1954 0.0
H613 H 0.25219 0.8061 0.16828 0.0
H614 H 0.28912 0.82561 0.18247 0.0
H615 H 0.29418 0.82651 0.16057 0.0
H616 H 0.35435 0.82847 0.15474 0.0
H617 H 0.40533 0.88144 0.16506 0.0
H618 H 0.55543 0.13905 0.5296 0.0
H619 H 0.56334 0.19921 0.52958 0.0
H620 H 0.48955 0.16651 0.4885 0.0
H621 H 0.48224 0.10655 0.48819 0.0
H622 H 0.54763 0.22888 0.48494 0.0
H623 H 0.49352 0.23246 0.54659 0.0
H624 H 0.52818 0.22097 0.54645 0.0
H625 H 0.48901 0.1924 0.53506 0.0
C626 C 0.54126 0.14483 0.52044 0.0
C627 C 0.51832 0.11824 0.50886 0.0
C628 C 0.54553 0.1791 0.52054 0.0
C629 C 0.52669 0.18723 0.50917 0.0
C630 C 0.50426 0.16078 0.49741 0.0
H631 H 0.49161 0.37125 0.51909 0.0
H632 H 0.48572 0.31178 0.51454 0.0
C633 C 0.50002 0.12656 0.49729 0.0
C634 C 0.5298 0.22313 0.50971 0.0
H635 H 0.51758 0.28539 0.53436 0.0
C636 C 0.54106 0.24128 0.49573 0.0
C637 C 0.52072 0.23901 0.5237 0.0
C638 C 0.50688 0.22017 0.53876 0.0
C639 C 0.54392 0.27512 0.49547 0.0
C640 C 0.53567 0.29133 0.50964 0.0
C641 C 0.52404 0.27299 0.52353 0.0
C642 C 0.53885 0.3273 0.51045 0.0
C643 C 0.55516 0.29298 0.47995 0.0
C644 C 0.57059 0.35582 0.50938 0.0
C645 C 0.574 0.38992 0.51183 0.0
C646 C 0.54576 0.39618 0.51551 0.0
C647 C 0.5138 0.36745 0.51603 0.0
C648 C 0.51043 0.3334 0.51358 0.0
H649 H 0.55177 0.274 0.46892 0.0
H650 H 0.54082 0.30795 0.47748 0.0
H651 H 0.58251 0.31151 0.48158 0.0
H652 H 0.59297 0.3518 0.50724 0.0
H653 H 0.59893 0.41142 0.51124 0.0
H654 H 0.42292 0.52024 0.80638 0.0
H655 H 0.38836 0.55059 0.80125 0.0
H656 H 0.43021 0.61797 0.84692 0.0
H657 H 0.46531 0.58866 0.85176 0.0
H658 H 0.34033 0.55443 0.81885 0.0
H659 H 0.4385 0.68891 0.81678 0.0
H660 H 0.44844 0.65224 0.81538 0.0
H661 H 0.44562 0.67318 0.83534 0.0
C662 C 0.42462 0.54156 0.81527 0.0
C663 C 0.44649 0.55206 0.8295 0.0
C664 C 0.4052 0.55906 0.81226 0.0
C665 C 0.40749 0.58725 0.82344 0.0
C666 C 0.42898 0.59723 0.83779 0.0
H667 H 0.28679 0.66126 0.86865 0.0
H668 H 0.33423 0.65364 0.85689 0.0
C669 C 0.44853 0.58002 0.84071 0.0
C670 C 0.38486 0.60393 0.82129 0.0
H671 H 0.38353 0.68307 0.82718 0.0
C672 C 0.34976 0.58255 0.82008 0.0
C673 C 0.3972 0.64065 0.82271 0.0
C674 C 0.43454 0.66496 0.82243 0.0
C675 C 0.32674 0.59687 0.82193 0.0
C676 C 0.33925 0.63345 0.82507 0.0
C677 C 0.37416 0.65501 0.8249 0.0
C678 C 0.31672 0.64854 0.83139 0.0
C679 C 0.28926 0.57274 0.82187 0.0
C680 C 0.29234 0.65016 0.82083 0.0
C681 C 0.26526 0.65499 0.82752 0.0
C682 C 0.26204 0.65771 0.84483 0.0
C683 C 0.28845 0.6595 0.85529 0.0
C684 C 0.31562 0.65504 0.84859 0.0
H685 H 0.28381 0.54482 0.81956 0.0
H686 H 0.27914 0.57701 0.83399 0.0
H687 H 0.27546 0.57857 0.81209 0.0
H688 H 0.29297 0.64524 0.80749 0.0
H689 H 0.24571 0.6543 0.81913 0.0
H690 H 0.89963 0.37274 0.12889 0.0
H691 H 0.84261 0.32722 0.13327 0.0
H692 H 0.88409 0.29495 0.17277 0.0
H693 H 0.94087 0.3401 0.16847 0.0
H694 H 0.81813 0.24957 0.13454 0.0
H695 H 0.81007 0.32344 0.19327 0.0
H696 H 0.8394 0.34372 0.17762 0.0
H697 H 0.84841 0.3183 0.19143 0.0
C698 C 0.89657 0.35555 0.13832 0.0
C699 C 0.92453 0.35992 0.14838 0.0
C700 C 0.86408 0.32967 0.14082 0.0
C701 C 0.85925 0.30811 0.15346 0.0
C702 C 0.88736 0.31162 0.16307 0.0
H703 H 0.70095 0.12105 0.18222 0.0
H704 H 0.75037 0.16519 0.17044 0.0
C705 C 0.91974 0.33732 0.16056 0.0
C706 C 0.82479 0.28288 0.15725 0.0
H707 H 0.7682 0.26468 0.18784 0.0
C708 C 0.80696 0.25294 0.14609 0.0
C709 C 0.81021 0.2877 0.17223 0.0
C710 C 0.8278 0.32015 0.1843 0.0
C711 C 0.77537 0.22688 0.14989 0.0
C712 C 0.76162 0.23088 0.16528 0.0
C713 C 0.77888 0.26155 0.17609 0.0
C714 C 0.73024 0.203 0.17087 0.0
C715 C 0.75708 0.19525 0.13744 0.0
C716 C 0.70263 0.20972 0.17518 0.0
C717 C 0.6743 0.18452 0.18194 0.0
C718 C 0.67317 0.1522 0.18463 0.0
C719 C 0.70069 0.14539 0.18004 0.0
C720 C 0.72898 0.17059 0.17327 0.0
H721 H 0.7656 0.20069 0.12469 0.0
H722 H 0.7626 0.17377 0.1408 0.0
H723 H 0.72919 0.18619 0.13741 0.0
H724 H 0.7032 0.23467 0.1735 0.0
H725 H 0.65338 0.19045 0.18517 0.0
H726 H 0.10405 0.52791 0.10123 0.0
H727 H 0.10925 0.53217 0.07158 0.0
H728 H 1.00925 0.44682 0.06194 0.0
H729 H 1.00343 0.44254 0.09183 0.0
H730 H 0.10489 0.4831 0.04475 0.0
H731 H 1.00417 0.5277 0.04035 0.0
H732 H 0.02284 0.52655 0.05999 0.0
H733 H 0.99223 0.48688 0.04867 0.0
C734 C 0.08309 0.50986 0.09287 0.0
C735 C 0.05311 0.48511 0.09896 0.0
C736 C 0.08623 0.51228 0.07589 0.0
C737 C 0.05949 0.49014 0.06461 0.0
C738 C 0.02998 0.4645 0.0705 0.0
H739 H 0.08267 0.49342 0.95711 0.0
H740 H 0.07236 0.47385 0.9848 0.0
C741 C 0.02678 0.46199 0.08757 0.0
C742 C 0.06244 0.49533 0.04681 0.0
H743 H 0.03239 0.5248 0.01607 0.0
C744 C 0.08884 0.49185 0.03838 0.0
C745 C 0.04169 0.50717 0.03867 0.0
C746 C 0.01377 0.51261 0.04735 0.0
C747 C 0.0955 0.50058 0.0221 0.0
C748 C 0.0749 0.51268 0.01402 0.0
C749 C 0.04806 0.51543 0.02232 0.0
C750 C 0.08178 0.52437 0.99727 0.0
C751 C 0.1253 0.49813 0.01392 0.0
C752 C 0.09009 0.55913 0.99511 0.0
C753 C 0.09565 0.57032 0.97932 0.0
C754 C 0.09284 0.54686 0.96536 0.0
C755 C 0.08477 0.51207 0.9676 0.0
C756 C 0.07918 0.5009 0.98342 0.0
H757 H 0.14276 0.49555 0.02302 0.0
H758 H 0.11588 0.47485 0.00456 0.0
H759 H 0.13987 0.52147 0.00742 0.0
H760 H 0.09208 0.5776 0.00567 0.0
H761 H 0.10129 0.59712 0.978 0.0
H762 H 0.49555 0.99735 0.45297 0.0
H763 H 0.49731 0.9991 0.4229 0.0
H764 H 0.58454 0.09963 0.42982 0.0
H765 H 0.58332 0.09806 0.45985 0.0
H766 H 0.49353 0.04902 0.40379 0.0
H767 H 0.61599 0.04142 0.3973 0.0
H768 H 0.5921 0.03124 0.41575 0.0
H769 H 0.61738 0.0759 0.41222 0.0
C770 C 0.51515 0.01985 0.44812 0.0
C771 C 0.53946 0.04744 0.45884 0.0
C772 C 0.51608 0.0208 0.43093 0.0
C773 C 0.54137 0.04923 0.42415 0.0
C774 C 0.56523 0.07712 0.43481 0.0
H775 H 0.58989 0.09401 0.32229 0.0
H776 H 0.58774 0.09791 0.35261 0.0
C777 C 0.56436 0.07621 0.45198 0.0
C778 C 0.54267 0.04976 0.40593 0.0
H779 H 0.592 0.05089 0.37328 0.0
C780 C 0.51501 0.04938 0.3971 0.0
C781 C 0.57081 0.05034 0.39727 0.0
C782 C 0.60067 0.04945 0.40606 0.0
C783 C 0.51483 0.04983 0.3798 0.0
C784 C 0.54284 0.05009 0.37113 0.0
C785 C 0.57063 0.05081 0.37999 0.0
C786 C 0.54333 0.04841 0.35281 0.0
C787 C 0.48489 0.05048 0.37099 0.0
C788 C 0.51922 0.0192 0.34293 0.0
C789 C 0.52031 0.01696 0.32566 0.0
C790 C 0.5457 0.04381 0.31792 0.0
C791 C 0.56981 0.0731 0.32787 0.0
C792 C 0.56872 0.07528 0.34517 0.0
H793 H 0.47033 0.0598 0.37965 0.0
H794 H 0.49319 0.0675 0.36082 0.0
H795 H 0.46753 0.02367 0.36548 0.0
H796 H 0.49977 0.9979 0.34858 0.0
H797 H 0.50116 0.99422 0.31835 0.0
H798 H 0.51191 0.53951 0.78105 0.0
H799 H 0.51249 0.54632 0.75144 0.0
H800 H 0.60266 0.53064 0.74747 0.0
H801 H 0.60247 0.52385 0.77706 0.0
H802 H 0.60411 0.58961 0.73209 0.0
H803 H 0.48927 0.46526 0.71326 0.0
H804 H 0.48468 0.4932 0.73009 0.0
H805 H 0.51269 0.47363 0.73283 0.0
C806 C 0.53188 0.53745 0.7739 0.0
C807 C 0.55705 0.53092 0.78143 0.0
C808 C 0.53207 0.54125 0.75698 0.0
C809 C 0.55741 0.53861 0.74729 0.0
C810 C 0.58284 0.53262 0.75477 0.0
H811 H 0.56543 0.50968 0.64079 0.0
H812 H 0.56609 0.50621 0.67072 0.0
C813 C 0.5826 0.52867 0.77167 0.0
C814 C 0.55749 0.54214 0.72933 0.0
H815 H 0.51341 0.50267 0.69246 0.0
C816 C 0.5843 0.57068 0.7234 0.0
C817 C 0.53174 0.51715 0.71808 0.0
C818 C 0.50304 0.48539 0.72379 0.0
C819 C 0.58588 0.57505 0.70644 0.0
C820 C 0.55984 0.55034 0.69522 0.0
C821 C 0.53318 0.52167 0.70115 0.0
C822 C 0.56023 0.55324 0.67719 0.0
C823 C 0.61566 0.60565 0.70058 0.0
C824 C 0.55654 0.58077 0.67097 0.0
C825 C 0.55623 0.58288 0.65387 0.0
C826 C 0.55963 0.55747 0.64273 0.0
C827 C 0.56328 0.52993 0.64906 0.0
C828 C 0.56344 0.52777 0.66613 0.0
H829 H 0.63683 0.6181 0.71019 0.0
H830 H 0.62525 0.59739 0.68913 0.0
H831 H 0.60741 0.62552 0.69762 0.0
H832 H 0.55359 0.60042 0.67933 0.0
H833 H 0.55354 0.60448 0.64937 0.0
H834 H 0.4924 1.00214 0.56336 0.0
H835 H 0.4945 0.99743 0.59309 0.0
H836 H 0.59814 0.07711 0.59745 0.0
H837 H 0.59604 0.08267 0.56784 0.0
H838 H 0.53498 0.97879 0.61062 0.0
H839 H 0.55674 0.11269 0.63455 0.0
H840 H 0.544 0.09516 0.61316 0.0
H841 H 0.58772 0.11205 0.62032 0.0
C842 C 0.51557 0.01891 0.57065 0.0
C843 C 0.54399 0.04296 0.56322 0.0
C844 C 0.51672 0.01614 0.58765 0.0
C845 C 0.54628 0.0373 0.59755 0.0
C846 C 0.57476 0.06116 0.59015 0.0
H847 H 0.6105 0.04492 0.69961 0.0
H848 H 0.60743 0.04977 0.6699 0.0
C849 C 0.57356 0.06416 0.57318 0.0
C850 C 0.54769 0.03344 0.61548 0.0
H851 H 0.56389 0.07838 0.6542 0.0
C852 C 0.54107 1.00051 0.62015 0.0
C853 C 0.55561 0.06182 0.6279 0.0
C854 C 0.56109 0.09733 0.62377 0.0
C855 C 0.54273 0.99536 0.63689 0.0
C856 C 0.55112 0.02382 0.64923 0.0
C857 C 0.55767 0.0567 0.64463 0.0
C858 C 0.55289 0.01992 0.66707 0.0
C859 C 0.53603 0.9597 0.64131 0.0
C860 C 0.52318 1.00161 0.67525 0.0
C861 C 0.52474 0.99915 0.69226 0.0
C862 C 0.55611 0.01492 0.7014 0.0
C863 C 0.58588 0.03289 0.69304 0.0
C864 C 0.58424 0.03554 0.67605 0.0
H865 H 0.53541 0.94193 0.63024 0.0
H866 H 0.55578 0.96173 0.65049 0.0
H867 H 0.51115 0.94789 0.64708 0.0
H868 H 0.49871 0.98978 0.66852 0.0
H869 H 0.50126 0.98566 0.69832 0.0
H870 H 0.59206 0.48972 0.88373 0.0
H871 H 0.59155 0.48325 0.9134 0.0
H872 H 0.51445 0.5193 0.91913 0.0
H873 H 0.51423 0.5252 0.88952 0.0
H874 H 0.60592 0.53213 0.94005 0.0
H875 H 0.47346 0.43039 0.94131 0.0
H876 H 0.4947 0.44179 0.92222 0.0
H877 H 0.47632 0.46812 0.93241 0.0
C878 C 0.57486 0.49612 0.89127 0.0
C879 C 0.55305 0.5078 0.8842 0.0
C880 C 0.57461 0.49239 0.90823 0.0
C881 C 0.55254 0.50021 0.91842 0.0
C882 C 0.53106 0.51226 0.91144 0.0
H883 H 0.56996 0.54889 0.02519 0.0
H884 H 0.57129 0.54999 0.99514 0.0
C885 C 0.53113 0.5158 0.89449 0.0
C886 C 0.5527 0.49686 0.93646 0.0
H887 H 0.50138 0.45936 0.96757 0.0
C888 C 0.58313 0.51601 0.94605 0.0
C889 C 0.52308 0.47541 0.94425 0.0
C890 C 0.49013 0.45248 0.9345 0.0
C891 C 0.58454 0.51504 0.96329 0.0
C892 C 0.55451 0.49498 0.9712 0.0
C893 C 0.5243 0.47508 0.96153 0.0
C894 C 0.55377 0.49433 0.98947 0.0
C895 C 0.61828 0.5352 0.97282 0.0
C896 C 0.54244 0.46255 0.99628 0.0
C897 C 0.54097 0.46172 0.01347 0.0
C898 C 0.55077 0.4927 0.02422 0.0
C899 C 0.56193 0.52449 0.01731 0.0
C900 C 0.5632 0.52525 0.00012 0.0
H901 H 0.63982 0.54016 0.96463 0.0
H902 H 0.62035 0.56085 0.97823 0.0
H903 H 0.62077 0.52108 0.9831 0.0
H904 H 0.53473 0.43832 0.98828 0.0
H905 H 0.53168 0.43672 0.01831 0.0
H906 H 0.98856 0.44514 0.20175 0.0
H907 H 0.98338 0.44829 0.23184 0.0
H908 H 0.07662 0.54347 0.23815 0.0
H909 H 0.08192 0.54092 0.20816 0.0
H910 H 0.02856 0.44937 0.2565 0.0
H911 H 1.01039 0.56965 0.2645 0.0
H912 H 1.00609 0.54514 0.2445 0.0
H913 H 0.04748 0.57452 0.25359 0.0
C914 C 1.00794 0.46684 0.20951 0.0
C915 C 0.03558 0.49289 0.20249 0.0
C916 C 1.00491 0.46856 0.2267 0.0
C917 C 0.02931 0.49641 0.23718 0.0
C918 C 0.05711 0.52217 0.23025 0.0
H919 H 0.07242 0.55727 0.34216 0.0
H920 H 0.07201 0.55105 0.31182 0.0
C921 C 0.06018 0.52053 0.21308 0.0
C922 C 0.02627 0.49813 0.25539 0.0
H923 H 0.02172 0.5498 0.28916 0.0
C924 C 0.02674 0.47113 0.26365 0.0
C925 C 0.02387 0.52657 0.26464 0.0
C926 C 0.02159 0.55547 0.25636 0.0
C927 C 0.02598 0.47238 0.28101 0.0
C928 C 0.0242 0.50114 0.29027 0.0
C929 C 0.0232 0.52786 0.28199 0.0
C930 C 0.0242 0.50446 0.30861 0.0
C931 C 0.02811 0.44348 0.28935 0.0
C932 C 0.99726 0.48048 0.31681 0.0
C933 C 0.99748 0.48387 0.33415 0.0
C934 C 0.02464 0.51136 0.34357 0.0
C935 C 0.0514 0.53551 0.33527 0.0
C936 C 0.05111 0.53214 0.31795 0.0
H937 H 0.03673 0.42738 0.28085 0.0
H938 H 0.04577 0.45426 0.30051 0.0
H939 H 1.00263 0.42616 0.29341 0.0
H940 H 0.97601 0.45923 0.3098 0.0
H941 H 0.97659 0.46474 0.34018 0.0
loop_
_geom_bond_atom_site_label_1
_geom_bond_atom_site_label_2
_geom_bond_distance
_geom_bond_site_symmetry_2
_ccdc_geom_bond_type
Tb0 O3 2.453 1_455 S
Tb0 O4 2.603 . S
Tb0 O5 2.374 . S
Tb0 O13 2.343 . S
Tb0 O15 2.353 . S
Tb0 O17 2.427 . S
Tb0 O18 2.513 . S
C1 O5 1.251 . S
C1 O7 1.263 . S
Tb2 O4 2.353 . S
Tb2 O7 2.353 . S
Tb2 O10 2.427 1_455 S
Tb2 O11 2.513 1_455 S
Tb2 O12 2.453 . S
Tb2 O13 2.596 . S
Tb2 O14 2.374 . S
O3 Tb0 2.453 1_655 S
O3 C19 1.245 . S
O4 Tb0 2.603 . S
O4 Tb2 2.353 . S
O4 C19 1.247 1_455 S
O5 Tb0 2.374 . S
O5 C1 1.251 . S
C6 O10 1.275 . S
C6 O11 1.246 . S
O7 C1 1.263 . S
O7 Tb2 2.353 . S
C8 O12 1.245 . S
C8 O13 1.259 . S
C9 O14 1.250 . S
C9 O15 1.263 . S
O10 Tb2 2.427 1_655 S
O10 C6 1.275 . S
O11 Tb2 2.513 1_655 S
O11 C6 1.246 . S
O12 Tb2 2.453 . S
O12 C8 1.245 . S
O13 Tb0 2.343 . S
O13 Tb2 2.596 . S
O13 C8 1.259 . S
O14 Tb2 2.374 . S
O14 C9 1.250 . S
O15 Tb0 2.353 . S
O15 C9 1.263 . S
C16 O17 1.275 . S
C16 O18 1.246 . S
O17 Tb0 2.427 . S
O17 C16 1.275 . S
O18 Tb0 2.513 . S
O18 C16 1.246 . S
C19 O3 1.245 . S
C19 O4 1.247 1_655 S
Tb20 O23 2.453 . S
Tb20 O24 2.596 . S
Tb20 O25 2.374 . S
Tb20 O33 2.343 1_545 S
Tb20 O35 2.353 . S
Tb20 O37 2.427 1_545 S
Tb20 O38 2.513 1_545 S
C21 O25 1.251 . S
C21 O27 1.263 . S
Tb22 O24 2.343 . S
Tb22 O27 2.353 . S
Tb22 O30 2.427 . S
Tb22 O31 2.513 . S
Tb22 O32 2.453 1_545 S
Tb22 O33 2.596 1_545 S
Tb22 O34 2.374 . S
O23 Tb20 2.453 . S
O23 C39 1.245 . S
O24 Tb20 2.596 . S
O24 Tb22 2.343 . S
O24 C39 1.259 . S
O25 Tb20 2.374 . S
O25 C21 1.251 . S
C26 O30 1.275 . S
C26 O31 1.246 . S
O27 C21 1.263 . S
O27 Tb22 2.353 . S
C28 O32 1.245 . S
C28 O33 1.259 . S
C29 O34 1.250 . S
C29 O35 1.263 . S
O30 Tb22 2.427 . S
O30 C26 1.275 . S
O31 Tb22 2.513 . S
O31 C26 1.246 . S
O32 Tb22 2.453 1_565 S
O32 C28 1.245 . S
O33 Tb20 2.343 1_565 S
O33 Tb22 2.596 1_565 S
O33 C28 1.259 . S
O34 Tb22 2.374 . S
O34 C29 1.250 . S
O35 Tb20 2.353 . S
O35 C29 1.263 . S
C36 O37 1.275 . S
C36 O38 1.246 . S
O37 Tb20 2.427 1_565 S
O37 C36 1.275 . S
O38 Tb20 2.513 1_565 S
O38 C36 1.246 . S
C39 O23 1.245 . S
C39 O24 1.259 . S
Tb40 O43 2.453 . S
Tb40 O44 2.596 . S
Tb40 O45 2.374 . S
Tb40 O53 2.343 . S
Tb40 O55 2.353 . S
Tb40 O57 2.427 . S
Tb40 O58 2.513 . S
C41 O45 1.251 . S
C41 O47 1.263 . S
Tb42 O44 2.343 . S
Tb42 O47 2.353 . S
Tb42 O50 2.427 . S
Tb42 O51 2.513 . S
Tb42 O52 2.453 . S
Tb42 O53 2.596 . S
Tb42 O54 2.374 . S
O43 Tb40 2.453 . S
O43 C59 1.245 . S
O44 Tb40 2.596 . S
O44 Tb42 2.343 . S
O44 C59 1.259 . S
O45 Tb40 2.374 . S
O45 C41 1.251 . S
C46 O50 1.275 . S
C46 O51 1.246 . S
O47 C41 1.263 . S
O47 Tb42 2.353 . S
C48 O52 1.245 . S
C48 O53 1.259 . S
C49 O54 1.250 . S
C49 O55 1.263 . S
O50 Tb42 2.427 . S
O50 C46 1.275 . S
O51 Tb42 2.513 . S
O51 C46 1.246 . S
O52 Tb42 2.453 . S
O52 C48 1.245 . S
O53 Tb40 2.343 . S
O53 Tb42 2.596 . S
O53 C48 1.259 . S
O54 Tb42 2.374 . S
O54 C49 1.250 . S
O55 Tb40 2.353 . S
O55 C49 1.263 . S
C56 O57 1.275 . S
C56 O58 1.246 . S
O57 Tb40 2.427 . S
O57 C56 1.275 . S
O58 Tb40 2.513 . S
O58 C56 1.246 . S
C59 O43 1.245 . S
C59 O44 1.259 . S
C60 C61 1.386 . S
C60 C62 1.397 . S
C60 H84 0.931 . S
C61 C60 1.386 . S
C61 C65 1.397 . S
C62 C60 1.397 . S
C62 C63 1.384 . S
C62 H85 0.930 . S
C63 C62 1.384 . S
C63 C64 1.377 . S
C63 C66 1.481 . S
C64 C63 1.377 . S
C64 C65 1.389 . S
C64 H86 0.929 1_545 S
C65 C61 1.397 . S
C65 C64 1.389 . S
C65 H87 0.931 . S
C66 C63 1.481 . S
C66 C67 1.387 . S
C66 C71 1.390 . S
C67 C66 1.387 . S
C67 C68 1.401 . S
C67 H88 0.930 . S
C68 C67 1.401 . S
C68 C69 1.376 . S
C68 C77 1.511 . S
C69 C68 1.376 . S
C69 C70 1.392 . S
C69 H90 0.931 . S
C70 C69 1.392 . S
C70 C71 1.361 . S
C70 C72 1.500 1_545 S
C71 C66 1.390 . S
C71 C70 1.361 . S
C71 H89 0.924 1_545 S
C72 C70 1.500 1_565 S
C72 C73 1.371 . S
C72 C74 1.365 . S
C73 C72 1.371 . S
C73 C83 1.386 . S
C73 H91 0.931 1_565 S
C74 C72 1.365 . S
C74 C75 1.409 . S
C74 H92 0.929 . S
C75 C74 1.409 . S
C75 C76 1.380 . S
C75 H93 0.930 . S
C76 C75 1.380 . S
C76 C83 1.357 . S
C77 C68 1.511 . S
C77 C78 1.341 . S
C77 C79 1.371 . S
C78 C77 1.341 . S
C78 C82 1.394 . S
C78 H94 0.930 . S
C79 C77 1.371 . S
C79 C80 1.392 . S
C79 H95 0.931 . S
C80 C79 1.392 . S
C80 C81 1.331 . S
C80 H98 0.932 . S
C81 C80 1.331 . S
C81 C82 1.336 . S
C82 C78 1.394 . S
C82 C81 1.336 . S
C82 H97 0.929 . S
C83 C73 1.386 . S
C83 C76 1.357 . S
C83 H96 0.928 . S
H84 C60 0.931 . S
H85 C62 0.930 . S
H86 C64 0.929 1_565 S
H87 C65 0.931 . S
H88 C67 0.930 . S
H89 C71 0.924 1_565 S
H90 C69 0.931 . S
H91 C73 0.931 1_545 S
H92 C74 0.929 . S
H93 C75 0.930 . S
H94 C78 0.930 . S
H95 C79 0.931 . S
H96 C83 0.928 . S
H97 C82 0.929 . S
H98 C80 0.932 . S
C99 C100 1.386 . S
C99 C101 1.397 . S
C99 H123 0.931 . S
C100 C99 1.386 . S
C100 C104 1.397 . S
C101 C99 1.397 . S
C101 C102 1.384 . S
C101 H124 0.930 . S
C102 C101 1.384 . S
C102 C103 1.377 . S
C102 C105 1.481 . S
C103 C102 1.377 . S
C103 C104 1.389 . S
C103 H125 0.929 . S
C104 C100 1.397 . S
C104 C103 1.389 . S
C104 H126 0.931 . S
C105 C102 1.481 . S
C105 C106 1.387 . S
C105 C110 1.390 . S
C106 C105 1.387 . S
C106 C107 1.401 . S
C106 H127 0.930 . S
C107 C106 1.401 . S
C107 C108 1.376 . S
C107 C116 1.511 . S
C108 C107 1.376 . S
C108 C109 1.392 . S
C108 H129 0.931 . S
C109 C108 1.392 . S
C109 C110 1.361 . S
C109 C111 1.500 . S
C110 C105 1.390 . S
C110 C109 1.361 . S
C110 H128 0.931 . S
C111 C109 1.500 . S
C111 C112 1.371 . S
C111 C113 1.365 . S
C112 C111 1.371 . S
C112 C122 1.386 . S
C112 H130 0.931 . S
C113 C111 1.365 . S
C113 C114 1.409 . S
C113 H131 0.929 . S
C114 C113 1.409 . S
C114 C115 1.380 . S
C114 H132 0.930 . S
C115 C114 1.380 . S
C115 C122 1.357 . S
C116 C107 1.511 . S
C116 C117 1.341 . S
C116 C118 1.371 . S
C117 C116 1.341 . S
C117 C121 1.394 . S
C117 H133 0.930 . S
C118 C116 1.371 . S
C118 C119 1.392 . S
C118 H134 0.931 . S
C119 C118 1.392 . S
C119 C120 1.331 . S
C119 H137 0.932 . S
C120 C119 1.331 . S
C120 C121 1.336 . S
C121 C117 1.394 . S
C121 C120 1.336 . S
C121 H136 0.929 . S
C122 C112 1.386 . S
C122 C115 1.357 . S
C122 H135 0.928 . S
H123 C99 0.931 . S
H124 C101 0.930 . S
H125 C103 0.929 . S
H126 C104 0.931 . S
H127 C106 0.930 . S
H128 C110 0.931 . S
H129 C108 0.931 . S
H130 C112 0.931 . S
H131 C113 0.929 . S
H132 C114 0.930 . S
H133 C117 0.930 . S
H134 C118 0.931 . S
H135 C122 0.928 . S
H136 C121 0.929 . S
H137 C119 0.932 . S
C138 C139 1.386 . S
C138 C140 1.397 . S
C138 H162 0.931 . S
C139 C138 1.386 . S
C139 C143 1.397 . S
C140 C138 1.397 . S
C140 C141 1.384 . S
C140 H163 0.930 . S
C141 C140 1.384 . S
C141 C142 1.377 . S
C141 C144 1.481 . S
C142 C141 1.377 . S
C142 C143 1.389 . S
C142 H164 0.929 . S
C143 C139 1.397 . S
C143 C142 1.389 . S
C143 H165 0.931 . S
C144 C141 1.481 . S
C144 C145 1.387 . S
C144 C149 1.390 . S
C145 C144 1.387 . S
C145 C146 1.401 . S
C145 H166 0.930 . S
C146 C145 1.401 . S
C146 C147 1.376 . S
C146 C155 1.511 . S
C147 C146 1.376 . S
C147 C148 1.392 . S
C147 H168 0.931 . S
C148 C147 1.392 . S
C148 C149 1.361 . S
C148 C150 1.500 . S
C149 C144 1.390 . S
C149 C148 1.361 . S
C149 H167 0.931 . S
C150 C148 1.500 . S
C150 C151 1.371 . S
C150 C152 1.365 1_455 S
C151 C150 1.371 . S
C151 C161 1.377 1_455 S
C151 H169 0.931 . S
C152 C150 1.365 1_655 S
C152 C153 1.409 . S
C152 H170 0.929 . S
C153 C152 1.409 . S
C153 C154 1.380 . S
C153 H171 0.930 . S
C154 C153 1.380 . S
C154 C161 1.366 . S
C155 C146 1.511 . S
C155 C156 1.341 . S
C155 C157 1.371 . S
C156 C155 1.341 . S
C156 C160 1.394 . S
C156 H172 0.930 . S
C157 C155 1.371 . S
C157 C158 1.392 . S
C157 H173 0.931 . S
C158 C157 1.392 . S
C158 C159 1.331 . S
C158 H176 0.932 . S
C159 C158 1.331 . S
C159 C160 1.336 . S
C160 C156 1.394 . S
C160 C159 1.336 . S
C160 H175 0.929 . S
C161 C151 1.377 1_655 S
C161 C154 1.366 . S
C161 H174 0.929 1_655 S
H162 C138 0.931 . S
H163 C140 0.930 . S
H164 C142 0.929 . S
H165 C143 0.931 . S
H166 C145 0.930 . S
H167 C149 0.931 . S
H168 C147 0.931 . S
H169 C151 0.931 . S
H170 C152 0.929 . S
H171 C153 0.930 . S
H172 C156 0.930 . S
H173 C157 0.931 . S
H174 C161 0.929 1_455 S
H175 C160 0.929 . S
H176 C158 0.932 . S
C177 C178 1.400 . S
C177 C179 1.397 . S
C177 H201 0.931 . S
C178 C177 1.400 . S
C178 C182 1.384 1_655 S
C179 C177 1.397 . S
C179 C180 1.401 . S
C179 H202 0.930 . S
C180 C179 1.401 . S
C180 C181 1.360 1_655 S
C180 C183 1.481 . S
C181 C180 1.360 1_455 S
C181 C182 1.389 . S
C181 H203 0.929 . S
C182 C178 1.384 1_455 S
C182 C181 1.389 . S
C182 H204 0.931 . S
C183 C180 1.481 . S
C183 C184 1.390 . S
C183 C188 1.388 1_655 S
C184 C183 1.390 . S
C184 C185 1.401 . S
C184 H205 0.930 . S
C185 C184 1.401 . S
C185 C186 1.376 1_655 S
C185 C194 1.511 . S
C186 C185 1.376 1_455 S
C186 C187 1.392 . S
C186 H207 0.931 . S
C187 C186 1.392 . S
C187 C188 1.361 . S
C187 C189 1.500 . S
C188 C183 1.388 1_455 S
C188 C187 1.361 . S
C188 H206 0.931 . S
C189 C187 1.500 . S
C189 C190 1.371 . S
C189 C191 1.365 . S
C190 C189 1.371 . S
C190 C200 1.386 . S
C190 H208 0.931 . S
C191 C189 1.365 . S
C191 C192 1.409 . S
C191 H209 0.929 . S
C192 C191 1.409 . S
C192 C193 1.380 . S
C192 H210 0.930 . S
C193 C192 1.380 . S
C193 C200 1.357 . S
C194 C185 1.511 . S
C194 C195 1.341 . S
C194 C196 1.371 . S
C195 C194 1.341 . S
C195 C199 1.394 . S
C195 H211 0.930 . S
C196 C194 1.371 . S
C196 C197 1.392 . S
C196 H212 0.931 . S
C197 C196 1.392 . S
C197 C198 1.331 . S
C197 H215 0.932 . S
C198 C197 1.331 . S
C198 C199 1.336 . S
C199 C195 1.394 . S
C199 C198 1.336 . S
C199 H214 0.929 . S
C200 C190 1.386 . S
C200 C193 1.357 . S
C200 H213 0.928 . S
H201 C177 0.931 . S
H202 C179 0.930 . S
H203 C181 0.929 . S
H204 C182 0.931 . S
H205 C184 0.930 . S
H206 C188 0.931 . S
H207 C186 0.931 . S
H208 C190 0.931 . S
H209 C191 0.929 . S
H210 C192 0.930 . S
H211 C195 0.930 . S
H212 C196 0.931 . S
H213 C200 0.928 . S
H214 C199 0.929 . S
H215 C197 0.932 . S
C216 C217 1.386 1_565 S
C216 C218 1.397 . S
C216 H240 0.931 . S
C217 C216 1.386 1_545 S
C217 C221 1.397 . S
C218 C216 1.397 . S
C218 C219 1.384 1_565 S
C218 H241 0.930 . S
C219 C218 1.384 1_545 S
C219 C220 1.377 . S
C219 C222 1.481 . S
C220 C219 1.377 . S
C220 C221 1.389 . S
C220 H242 0.929 . S
C221 C217 1.397 . S
C221 C220 1.389 . S
C221 H243 0.931 . S
C222 C219 1.481 . S
C222 C223 1.387 1_545 S
C222 C227 1.390 . S
C223 C222 1.387 1_565 S
C223 C224 1.401 . S
C223 H244 0.930 . S
C224 C223 1.401 . S
C224 C225 1.376 1_565 S
C224 C233 1.511 . S
C225 C224 1.376 1_545 S
C225 C226 1.392 . S
C225 H246 0.931 . S
C226 C225 1.392 . S
C226 C227 1.361 . S
C226 C228 1.500 . S
C227 C222 1.390 . S
C227 C226 1.361 . S
C227 H245 0.931 . S
C228 C226 1.500 . S
C228 C229 1.371 . S
C228 C230 1.365 . S
C229 C228 1.371 . S
C229 C239 1.386 . S
C229 H247 0.931 . S
C230 C228 1.365 . S
C230 C231 1.409 . S
C230 H248 0.929 . S
C231 C230 1.409 . S
C231 C232 1.380 . S
C231 H249 0.930 . S
C232 C231 1.380 . S
C232 C239 1.357 . S
C233 C224 1.511 . S
C233 C234 1.341 . S
C233 C235 1.371 . S
C234 C233 1.341 . S
C234 C238 1.394 . S
C234 H250 0.930 . S
C235 C233 1.371 . S
C235 C236 1.392 . S
C235 H251 0.931 . S
C236 C235 1.392 . S
C236 C237 1.331 . S
C236 H254 0.932 . S
C237 C236 1.331 . S
C237 C238 1.336 . S
C238 C234 1.394 . S
C238 C237 1.336 . S
C238 H253 0.929 . S
C239 C229 1.386 . S
C239 C232 1.357 . S
C239 H252 0.928 . S
H240 C216 0.931 . S
H241 C218 0.930 . S
H242 C220 0.929 . S
H243 C221 0.931 . S
H244 C223 0.930 . S
H245 C227 0.931 . S
H246 C225 0.931 . S
H247 C229 0.931 . S
H248 C230 0.929 . S
H249 C231 0.930 . S
H250 C234 0.930 . S
H251 C235 0.931 . S
H252 C239 0.928 . S
H253 C238 0.929 . S
H254 C236 0.932 . S
C255 C256 1.386 . S
C255 C257 1.397 . S
C255 H279 0.931 . S
C256 C255 1.386 . S
C256 C260 1.397 . S
C257 C255 1.397 . S
C257 C258 1.384 . S
C257 H280 0.930 . S
C258 C257 1.384 . S
C258 C259 1.377 . S
C258 C261 1.481 . S
C259 C258 1.377 . S
C259 C260 1.389 . S
C259 H281 0.929 . S
C260 C256 1.397 . S
C260 C259 1.389 . S
C260 H282 0.931 . S
C261 C258 1.481 . S
C261 C262 1.387 . S
C261 C266 1.390 . S
C262 C261 1.387 . S
C262 C263 1.401 . S
C262 H283 0.930 . S
C263 C262 1.401 . S
C263 C264 1.376 . S
C263 C272 1.511 . S
C264 C263 1.376 . S
C264 C265 1.392 . S
C264 H285 0.931 . S
C265 C264 1.392 . S
C265 C266 1.361 . S
C265 C267 1.500 . S
C266 C261 1.390 . S
C266 C265 1.361 . S
C266 H284 0.931 . S
C267 C265 1.500 . S
C267 C268 1.371 . S
C267 C269 1.365 . S
C268 C267 1.371 . S
C268 C278 1.386 . S
C268 H286 0.931 . S
C269 C267 1.365 . S
C269 C270 1.409 . S
C269 H287 0.929 . S
C270 C269 1.409 . S
C270 C271 1.380 . S
C270 H288 0.930 . S
C271 C270 1.380 . S
C271 C278 1.357 . S
C272 C263 1.511 . S
C272 C273 1.341 . S
C272 C274 1.371 . S
C273 C272 1.341 . S
C273 C277 1.394 . S
C273 H289 0.930 . S
C274 C272 1.371 . S
C274 C275 1.392 . S
C274 H290 0.931 . S
C275 C274 1.392 . S
C275 C276 1.331 . S
C275 H293 0.932 . S
C276 C275 1.331 . S
C276 C277 1.336 . S
C277 C273 1.394 . S
C277 C276 1.336 . S
C277 H292 0.929 . S
C278 C268 1.386 . S
C278 C271 1.357 . S
C278 H291 0.928 . S
H279 C255 0.931 . S
H280 C257 0.930 . S
H281 C259 0.929 . S
H282 C260 0.931 . S
H283 C262 0.930 . S
H284 C266 0.931 . S
H285 C264 0.931 . S
H286 C268 0.931 . S
H287 C269 0.929 . S
H288 C270 0.930 . S
H289 C273 0.930 . S
H290 C274 0.931 . S
H291 C278 0.928 . S
H292 C277 0.929 . S
H293 C275 0.932 . S
H294 C302 0.929 . S
H295 C304 0.930 . S
H296 C306 0.930 . S
H297 C309 0.929 . S
H298 C312 0.930 . S
H299 C314 0.960 . S
H300 C314 0.960 . S
H301 C314 0.960 . S
C302 H294 0.929 . S
C302 C303 1.377 . S
C302 C304 1.384 . S
C303 C302 1.377 . S
C303 C309 1.390 . S
C304 H295 0.930 . S
C304 C302 1.384 . S
C304 C305 1.372 . S
C305 C304 1.372 . S
C305 C306 1.400 . S
C305 C310 1.490 . S
C306 H296 0.930 . S
C306 C305 1.400 . S
C306 C309 1.386 . S
H307 C323 0.930 . S
H308 C324 0.931 . S
C309 H297 0.929 . S
C309 C303 1.390 . S
C309 C306 1.386 . S
C310 C305 1.490 . S
C310 C312 1.395 . S
C310 C313 1.403 . S
H311 C317 0.930 . S
C312 H298 0.930 . S
C312 C310 1.395 . S
C312 C315 1.403 . S
C313 C310 1.403 . S
C313 C314 1.524 . S
C313 C317 1.400 . S
C314 H299 0.960 . S
C314 H300 0.960 . S
C314 H301 0.960 . S
C314 C313 1.524 . S
C315 C312 1.403 . S
C315 C316 1.392 . S
C315 C319 1.495 . S
C316 C315 1.392 . S
C316 C317 1.385 . S
C316 C318 1.478 . S
C317 H311 0.930 . S
C317 C313 1.400 . S
C317 C316 1.385 . S
C318 C316 1.478 . S
C318 C320 1.381 . S
C318 C324 1.383 . S
C319 C315 1.495 . S
C319 H325 0.959 . S
C319 H326 0.961 . S
C319 H327 0.960 . S
C320 C318 1.381 . S
C320 C321 1.394 . S
C320 H328 0.930 . S
C321 C320 1.394 . S
C321 C322 1.383 . S
C321 H329 0.929 . S
C322 C321 1.383 . S
C322 C323 1.377 . S
C323 H307 0.930 . S
C323 C322 1.377 . S
C323 C324 1.379 . S
C324 H308 0.931 . S
C324 C318 1.383 . S
C324 C323 1.379 . S
H325 C319 0.959 . S
H326 C319 0.961 . S
H327 C319 0.960 . S
H328 C320 0.930 . S
H329 C321 0.929 . S
H330 C338 0.929 . S
H331 C340 0.930 . S
H332 C342 0.930 . S
H333 C345 0.929 . S
H334 C348 0.930 . S
H335 C350 0.960 . S
H336 C350 0.960 . S
H337 C350 0.960 . S
C338 H330 0.929 . S
C338 C339 1.377 . S
C338 C340 1.384 . S
C339 C338 1.377 . S
C339 C345 1.390 . S
C340 H331 0.930 . S
C340 C338 1.384 . S
C340 C341 1.372 . S
C341 C340 1.372 . S
C341 C342 1.400 . S
C341 C346 1.490 . S
C342 H332 0.930 . S
C342 C341 1.400 . S
C342 C345 1.386 . S
H343 C359 0.930 . S
H344 C360 0.931 . S
C345 H333 0.929 . S
C345 C339 1.390 . S
C345 C342 1.386 . S
C346 C341 1.490 . S
C346 C348 1.395 . S
C346 C349 1.403 . S
H347 C353 0.930 . S
C348 H334 0.930 . S
C348 C346 1.395 . S
C348 C351 1.403 . S
C349 C346 1.403 . S
C349 C350 1.524 . S
C349 C353 1.400 . S
C350 H335 0.960 . S
C350 H336 0.960 . S
C350 H337 0.960 . S
C350 C349 1.524 . S
C351 C348 1.403 . S
C351 C352 1.392 . S
C351 C355 1.495 . S
C352 C351 1.392 . S
C352 C353 1.385 . S
C352 C354 1.478 . S
C353 H347 0.930 . S
C353 C349 1.400 . S
C353 C352 1.385 . S
C354 C352 1.478 . S
C354 C356 1.381 . S
C354 C360 1.383 . S
C355 C351 1.495 . S
C355 H361 0.959 . S
C355 H362 0.961 . S
C355 H363 0.960 . S
C356 C354 1.381 . S
C356 C357 1.394 . S
C356 H364 0.930 . S
C357 C356 1.394 . S
C357 C358 1.383 . S
C357 H365 0.929 . S
C358 C357 1.383 . S
C358 C359 1.377 . S
C359 H343 0.930 . S
C359 C358 1.377 . S
C359 C360 1.379 . S
C360 H344 0.931 . S
C360 C354 1.383 . S
C360 C359 1.379 . S
H361 C355 0.959 . S
H362 C355 0.961 . S
H363 C355 0.960 . S
H364 C356 0.930 . S
H365 C357 0.929 . S
H366 C374 0.929 . S
H367 C376 0.930 . S
H368 C378 0.930 . S
H369 C381 0.929 . S
H370 C384 0.930 . S
H371 C386 0.960 . S
H372 C386 0.960 . S
H373 C386 0.960 . S
C374 H366 0.929 . S
C374 C375 1.377 . S
C374 C376 1.384 . S
C375 C374 1.377 . S
C375 C381 1.390 . S
C376 H367 0.930 . S
C376 C374 1.384 . S
C376 C377 1.372 . S
C377 C376 1.372 . S
C377 C378 1.400 . S
C377 C382 1.490 . S
C378 H368 0.930 . S
C378 C377 1.400 . S
C378 C381 1.386 . S
H379 C395 0.930 . S
H380 C396 0.931 . S
C381 H369 0.929 . S
C381 C375 1.390 . S
C381 C378 1.386 . S
C382 C377 1.490 . S
C382 C384 1.395 . S
C382 C385 1.403 . S
H383 C389 0.930 . S
C384 H370 0.930 . S
C384 C382 1.395 . S
C384 C387 1.403 . S
C385 C382 1.403 . S
C385 C386 1.524 . S
C385 C389 1.400 . S
C386 H371 0.960 . S
C386 H372 0.960 . S
C386 H373 0.960 . S
C386 C385 1.524 . S
C387 C384 1.403 . S
C387 C388 1.392 . S
C387 C391 1.495 . S
C388 C387 1.392 . S
C388 C389 1.385 . S
C388 C390 1.478 . S
C389 H383 0.930 . S
C389 C385 1.400 . S
C389 C388 1.385 . S
C390 C388 1.478 . S
C390 C392 1.381 . S
C390 C396 1.383 . S
C391 C387 1.495 . S
C391 H397 0.959 . S
C391 H398 0.961 . S
C391 H399 0.960 . S
C392 C390 1.381 . S
C392 C393 1.394 . S
C392 H400 0.930 . S
C393 C392 1.394 . S
C393 C394 1.383 . S
C393 H401 0.929 . S
C394 C393 1.383 . S
C394 C395 1.377 . S
C395 H379 0.930 . S
C395 C394 1.377 . S
C395 C396 1.379 . S
C396 H380 0.931 . S
C396 C390 1.383 . S
C396 C395 1.379 . S
H397 C391 0.959 . S
H398 C391 0.961 . S
H399 C391 0.960 . S
H400 C392 0.930 . S
H401 C393 0.929 . S
H402 C410 0.929 . S
H403 C412 0.930 . S
H404 C414 0.930 . S
H405 C417 0.929 . S
H406 C420 0.930 . S
H407 C422 0.960 . S
H408 C422 0.960 . S
H409 C422 0.960 . S
C410 H402 0.929 . S
C410 C411 1.377 . S
C410 C412 1.384 . S
C411 C410 1.377 . S
C411 C417 1.390 . S
C412 H403 0.930 . S
C412 C410 1.384 . S
C412 C413 1.372 . S
C413 C412 1.372 . S
C413 C414 1.400 . S
C413 C418 1.490 . S
C414 H404 0.930 . S
C414 C413 1.400 . S
C414 C417 1.386 . S
H415 C431 0.930 . S
H416 C432 0.931 . S
C417 H405 0.929 . S
C417 C411 1.390 . S
C417 C414 1.386 . S
C418 C413 1.490 . S
C418 C420 1.395 . S
C418 C421 1.403 . S
H419 C425 0.930 . S
C420 H406 0.930 . S
C420 C418 1.395 . S
C420 C423 1.403 . S
C421 C418 1.403 . S
C421 C422 1.524 . S
C421 C425 1.400 . S
C422 H407 0.960 . S
C422 H408 0.960 . S
C422 H409 0.960 . S
C422 C421 1.524 . S
C423 C420 1.403 . S
C423 C424 1.392 . S
C423 C427 1.495 . S
C424 C423 1.392 . S
C424 C425 1.385 . S
C424 C426 1.478 . S
C425 H419 0.930 . S
C425 C421 1.400 . S
C425 C424 1.385 . S
C426 C424 1.478 . S
C426 C428 1.381 . S
C426 C432 1.383 . S
C427 C423 1.495 . S
C427 H433 0.959 . S
C427 H434 0.961 . S
C427 H435 0.960 . S
C428 C426 1.381 . S
C428 C429 1.394 . S
C428 H436 0.930 . S
C429 C428 1.394 . S
C429 C430 1.383 . S
C429 H437 0.929 . S
C430 C429 1.383 . S
C430 C431 1.377 . S
C431 H415 0.930 . S
C431 C430 1.377 . S
C431 C432 1.379 . S
C432 H416 0.931 . S
C432 C426 1.383 . S
C432 C431 1.379 . S
H433 C427 0.959 . S
H434 C427 0.961 . S
H435 C427 0.960 . S
H436 C428 0.930 . S
H437 C429 0.929 . S
H438 C446 0.929 . S
H439 C448 0.930 . S
H440 C450 0.930 . S
H441 C453 0.929 . S
H442 C456 0.930 . S
H443 C458 0.960 . S
H444 C458 0.960 . S
H445 C458 0.960 . S
C446 H438 0.929 . S
C446 C447 1.377 . S
C446 C448 1.384 . S
C447 C446 1.377 . S
C447 C453 1.390 . S
C448 H439 0.930 . S
C448 C446 1.384 . S
C448 C449 1.372 . S
C449 C448 1.372 . S
C449 C450 1.400 . S
C449 C454 1.490 . S
C450 H440 0.930 . S
C450 C449 1.400 . S
C450 C453 1.386 . S
H451 C467 0.930 . S
H452 C468 0.931 . S
C453 H441 0.929 . S
C453 C447 1.390 . S
C453 C450 1.386 . S
C454 C449 1.490 . S
C454 C456 1.395 . S
C454 C457 1.403 . S
H455 C461 0.930 . S
C456 H442 0.930 . S
C456 C454 1.395 . S
C456 C459 1.403 . S
C457 C454 1.403 . S
C457 C458 1.524 . S
C457 C461 1.400 . S
C458 H443 0.960 . S
C458 H444 0.960 . S
C458 H445 0.960 . S
C458 C457 1.524 . S
C459 C456 1.403 . S
C459 C460 1.392 . S
C459 C463 1.495 . S
C460 C459 1.392 . S
C460 C461 1.385 . S
C460 C462 1.478 . S
C461 H455 0.930 . S
C461 C457 1.400 . S
C461 C460 1.385 . S
C462 C460 1.478 . S
C462 C464 1.381 . S
C462 C468 1.383 . S
C463 C459 1.495 . S
C463 H469 0.959 . S
C463 H470 0.961 . S
C463 H471 0.960 . S
C464 C462 1.381 . S
C464 C465 1.394 . S
C464 H472 0.930 . S
C465 C464 1.394 . S
C465 C466 1.383 . S
C465 H473 0.929 . S
C466 C465 1.383 . S
C466 C467 1.377 . S
C467 H451 0.930 . S
C467 C466 1.377 . S
C467 C468 1.379 . S
C468 H452 0.931 . S
C468 C462 1.383 . S
C468 C467 1.379 . S
H469 C463 0.959 . S
H470 C463 0.961 . S
H471 C463 0.960 . S
H472 C464 0.930 . S
H473 C465 0.929 . S
H474 C482 0.929 . S
H475 C484 0.930 . S
H476 C486 0.930 . S
H477 C489 0.929 . S
H478 C492 0.930 . S
H479 C494 0.960 . S
H480 C494 0.960 . S
H481 C494 0.960 . S
C482 H474 0.929 . S
C482 C483 1.377 . S
C482 C484 1.384 . S
C483 C482 1.377 . S
C483 C489 1.390 . S
C484 H475 0.930 . S
C484 C482 1.384 . S
C484 C485 1.372 . S
C485 C484 1.372 . S
C485 C486 1.400 . S
C485 C490 1.490 . S
C486 H476 0.930 . S
C486 C485 1.400 . S
C486 C489 1.386 . S
H487 C503 0.930 . S
H488 C504 0.931 . S
C489 H477 0.929 . S
C489 C483 1.390 . S
C489 C486 1.386 . S
C490 C485 1.490 . S
C490 C492 1.395 . S
C490 C493 1.403 . S
H491 C497 0.930 . S
C492 H478 0.930 . S
C492 C490 1.395 . S
C492 C495 1.403 . S
C493 C490 1.403 . S
C493 C494 1.524 . S
C493 C497 1.400 . S
C494 H479 0.960 . S
C494 H480 0.960 . S
C494 H481 0.960 . S
C494 C493 1.524 . S
C495 C492 1.403 . S
C495 C496 1.392 . S
C495 C499 1.495 . S
C496 C495 1.392 . S
C496 C497 1.385 . S
C496 C498 1.478 . S
C497 H491 0.930 . S
C497 C493 1.400 . S
C497 C496 1.385 . S
C498 C496 1.478 . S
C498 C500 1.381 . S
C498 C504 1.383 . S
C499 C495 1.495 . S
C499 H505 0.959 . S
C499 H506 0.961 . S
C499 H507 0.960 . S
C500 C498 1.381 . S
C500 C501 1.394 . S
C500 H508 0.930 . S
C501 C500 1.394 . S
C501 C502 1.383 . S
C501 H509 0.929 . S
C502 C501 1.383 . S
C502 C503 1.377 . S
C503 H487 0.930 . S
C503 C502 1.377 . S
C503 C504 1.379 . S
C504 H488 0.931 . S
C504 C498 1.383 . S
C504 C503 1.379 . S
H505 C499 0.959 . S
H506 C499 0.961 . S
H507 C499 0.960 . S
H508 C500 0.930 . S
H509 C501 0.929 . S
H510 C518 0.929 . S
H511 C520 0.930 . S
H512 C522 0.930 . S
H513 C525 0.929 . S
H514 C528 0.930 . S
H515 C530 0.960 . S
H516 C530 0.960 . S
H517 C530 0.960 . S
C518 H510 0.929 . S
C518 C519 1.377 . S
C518 C520 1.384 . S
C519 C518 1.377 . S
C519 C525 1.390 . S
C520 H511 0.930 . S
C520 C518 1.384 . S
C520 C521 1.372 . S
C521 C520 1.372 . S
C521 C522 1.400 . S
C521 C526 1.490 . S
C522 H512 0.930 . S
C522 C521 1.400 . S
C522 C525 1.386 . S
H523 C539 0.930 . S
H524 C540 0.931 . S
C525 H513 0.929 . S
C525 C519 1.390 . S
C525 C522 1.386 . S
C526 C521 1.490 . S
C526 C528 1.395 . S
C526 C529 1.403 . S
H527 C533 0.930 . S
C528 H514 0.930 . S
C528 C526 1.395 . S
C528 C531 1.403 . S
C529 C526 1.403 . S
C529 C530 1.524 . S
C529 C533 1.400 . S
C530 H515 0.960 . S
C530 H516 0.960 . S
C530 H517 0.960 . S
C530 C529 1.524 . S
C531 C528 1.403 . S
C531 C532 1.392 . S
C531 C535 1.495 . S
C532 C531 1.392 . S
C532 C533 1.385 . S
C532 C534 1.478 . S
C533 H527 0.930 . S
C533 C529 1.400 . S
C533 C532 1.385 . S
C534 C532 1.478 . S
C534 C536 1.381 . S
C534 C540 1.383 . S
C535 C531 1.495 . S
C535 H541 0.959 . S
C535 H542 0.961 . S
C535 H543 0.960 . S
C536 C534 1.381 . S
C536 C537 1.394 . S
C536 H544 0.930 . S
C537 C536 1.394 . S
C537 C538 1.383 . S
C537 H545 0.929 . S
C538 C537 1.383 . S
C538 C539 1.377 . S
C539 H523 0.930 . S
C539 C538 1.377 . S
C539 C540 1.379 . S
C540 H524 0.931 . S
C540 C534 1.383 . S
C540 C539 1.379 . S
H541 C535 0.959 . S
H542 C535 0.961 . S
H543 C535 0.960 . S
H544 C536 0.930 . S
H545 C537 0.929 . S
H546 C554 0.929 . S
H547 C556 0.930 . S
H548 C558 0.930 . S
H549 C561 0.929 . S
H550 C564 0.930 . S
H551 C566 0.960 . S
H552 C566 0.960 . S
H553 C566 0.960 . S
C554 H546 0.929 . S
C554 C555 1.377 . S
C554 C556 1.384 . S
C555 C554 1.377 . S
C555 C561 1.390 . S
C556 H547 0.930 . S
C556 C554 1.384 . S
C556 C557 1.372 . S
C557 C556 1.372 . S
C557 C558 1.400 . S
C557 C562 1.490 . S
C558 H548 0.930 . S
C558 C557 1.400 . S
C558 C561 1.386 . S
H559 C575 0.930 . S
H560 C576 0.931 . S
C561 H549 0.929 . S
C561 C555 1.390 . S
C561 C558 1.386 . S
C562 C557 1.490 . S
C562 C564 1.395 . S
C562 C565 1.403 . S
H563 C569 0.930 . S
C564 H550 0.930 . S
C564 C562 1.395 . S
C564 C567 1.403 . S
C565 C562 1.403 . S
C565 C566 1.524 . S
C565 C569 1.400 . S
C566 H551 0.960 . S
C566 H552 0.960 . S
C566 H553 0.960 . S
C566 C565 1.524 . S
C567 C564 1.403 . S
C567 C568 1.392 . S
C567 C571 1.495 . S
C568 C567 1.392 . S
C568 C569 1.385 . S
C568 C570 1.478 . S
C569 H563 0.930 . S
C569 C565 1.400 . S
C569 C568 1.385 . S
C570 C568 1.478 . S
C570 C572 1.381 . S
C570 C576 1.383 . S
C571 C567 1.495 . S
C571 H577 0.959 . S
C571 H578 0.961 . S
C571 H579 0.960 . S
C572 C570 1.381 . S
C572 C573 1.394 . S
C572 H580 0.930 . S
C573 C572 1.394 . S
C573 C574 1.383 . S
C573 H581 0.929 . S
C574 C573 1.383 . S
C574 C575 1.377 . S
C575 H559 0.930 . S
C575 C574 1.377 . S
C575 C576 1.379 . S
C576 H560 0.931 . S
C576 C570 1.383 . S
C576 C575 1.379 . S
H577 C571 0.959 . S
H578 C571 0.961 . S
H579 C571 0.960 . S
H580 C572 0.930 . S
H581 C573 0.929 . S
H582 C590 0.929 . S
H583 C592 0.930 . S
H584 C594 0.930 . S
H585 C597 0.929 . S
H586 C600 0.930 . S
H587 C602 0.960 . S
H588 C602 0.960 . S
H589 C602 0.960 . S
C590 H582 0.929 . S
C590 C591 1.377 . S
C590 C592 1.384 . S
C591 C590 1.377 . S
C591 C597 1.390 . S
C592 H583 0.930 . S
C592 C590 1.384 . S
C592 C593 1.372 . S
C593 C592 1.372 . S
C593 C594 1.400 . S
C593 C598 1.490 . S
C594 H584 0.930 . S
C594 C593 1.400 . S
C594 C597 1.386 . S
H595 C611 0.930 . S
H596 C612 0.931 . S
C597 H585 0.929 . S
C597 C591 1.390 . S
C597 C594 1.386 . S
C598 C593 1.490 . S
C598 C600 1.395 . S
C598 C601 1.403 . S
H599 C605 0.930 . S
C600 H586 0.930 . S
C600 C598 1.395 . S
C600 C603 1.403 . S
C601 C598 1.403 . S
C601 C602 1.524 . S
C601 C605 1.400 . S
C602 H587 0.960 . S
C602 H588 0.960 . S
C602 H589 0.960 . S
C602 C601 1.524 . S
C603 C600 1.403 . S
C603 C604 1.392 . S
C603 C607 1.495 . S
C604 C603 1.392 . S
C604 C605 1.385 . S
C604 C606 1.478 . S
C605 H599 0.930 . S
C605 C601 1.400 . S
C605 C604 1.385 . S
C606 C604 1.478 . S
C606 C608 1.381 . S
C606 C612 1.383 . S
C607 C603 1.495 . S
C607 H613 0.959 . S
C607 H614 0.961 . S
C607 H615 0.960 . S
C608 C606 1.381 . S
C608 C609 1.394 . S
C608 H616 0.930 . S
C609 C608 1.394 . S
C609 C610 1.383 . S
C609 H617 0.929 . S
C610 C609 1.383 . S
C610 C611 1.377 . S
C611 H595 0.930 . S
C611 C610 1.377 . S
C611 C612 1.379 . S
C612 H596 0.931 . S
C612 C606 1.383 . S
C612 C611 1.379 . S
H613 C607 0.959 . S
H614 C607 0.961 . S
H615 C607 0.960 . S
H616 C608 0.930 . S
H617 C609 0.929 . S
H618 C626 0.929 . S
H619 C628 0.930 . S
H620 C630 0.930 . S
H621 C633 0.929 . S
H622 C636 0.930 . S
H623 C638 0.960 . S
H624 C638 0.960 . S
H625 C638 0.960 . S
C626 H618 0.929 . S
C626 C627 1.377 . S
C626 C628 1.384 . S
C627 C626 1.377 . S
C627 C633 1.390 . S
C628 H619 0.930 . S
C628 C626 1.384 . S
C628 C629 1.372 . S
C629 C628 1.372 . S
C629 C630 1.400 . S
C629 C634 1.490 . S
C630 H620 0.930 . S
C630 C629 1.400 . S
C630 C633 1.386 . S
H631 C647 0.930 . S
H632 C648 0.931 . S
C633 H621 0.929 . S
C633 C627 1.390 . S
C633 C630 1.386 . S
C634 C629 1.490 . S
C634 C636 1.395 . S
C634 C637 1.403 . S
H635 C641 0.930 . S
C636 H622 0.930 . S
C636 C634 1.395 . S
C636 C639 1.403 . S
C637 C634 1.403 . S
C637 C638 1.524 . S
C637 C641 1.400 . S
C638 H623 0.960 . S
C638 H624 0.960 . S
C638 H625 0.960 . S
C638 C637 1.524 . S
C639 C636 1.403 . S
C639 C640 1.392 . S
C639 C643 1.495 . S
C640 C639 1.392 . S
C640 C641 1.385 . S
C640 C642 1.478 . S
C641 H635 0.930 . S
C641 C637 1.400 . S
C641 C640 1.385 . S
C642 C640 1.478 . S
C642 C644 1.381 . S
C642 C648 1.383 . S
C643 C639 1.495 . S
C643 H649 0.959 . S
C643 H650 0.961 . S
C643 H651 0.960 . S
C644 C642 1.381 . S
C644 C645 1.394 . S
C644 H652 0.930 . S
C645 C644 1.394 . S
C645 C646 1.383 . S
C645 H653 0.929 . S
C646 C645 1.383 . S
C646 C647 1.377 . S
C647 H631 0.930 . S
C647 C646 1.377 . S
C647 C648 1.379 . S
C648 H632 0.931 . S
C648 C642 1.383 . S
C648 C647 1.379 . S
H649 C643 0.959 . S
H650 C643 0.961 . S
H651 C643 0.960 . S
H652 C644 0.930 . S
H653 C645 0.929 . S
H654 C662 0.929 . S
H655 C664 0.930 . S
H656 C666 0.930 . S
H657 C669 0.929 . S
H658 C672 0.930 . S
H659 C674 0.960 . S
H660 C674 0.960 . S
H661 C674 0.960 . S
C662 H654 0.929 . S
C662 C663 1.377 . S
C662 C664 1.384 . S
C663 C662 1.377 . S
C663 C669 1.390 . S
C664 H655 0.930 . S
C664 C662 1.384 . S
C664 C665 1.372 . S
C665 C664 1.372 . S
C665 C666 1.400 . S
C665 C670 1.490 . S
C666 H656 0.930 . S
C666 C665 1.400 . S
C666 C669 1.386 . S
H667 C683 0.930 . S
H668 C684 0.931 . S
C669 H657 0.929 . S
C669 C663 1.390 . S
C669 C666 1.386 . S
C670 C665 1.490 . S
C670 C672 1.395 . S
C670 C673 1.403 . S
H671 C677 0.930 . S
C672 H658 0.930 . S
C672 C670 1.395 . S
C672 C675 1.403 . S
C673 C670 1.403 . S
C673 C674 1.524 . S
C673 C677 1.400 . S
C674 H659 0.960 . S
C674 H660 0.960 . S
C674 H661 0.960 . S
C674 C673 1.524 . S
C675 C672 1.403 . S
C675 C676 1.392 . S
C675 C679 1.495 . S
C676 C675 1.392 . S
C676 C677 1.385 . S
C676 C678 1.478 . S
C677 H671 0.930 . S
C677 C673 1.400 . S
C677 C676 1.385 . S
C678 C676 1.478 . S
C678 C680 1.381 . S
C678 C684 1.383 . S
C679 C675 1.495 . S
C679 H685 0.959 . S
C679 H686 0.961 . S
C679 H687 0.960 . S
C680 C678 1.381 . S
C680 C681 1.394 . S
C680 H688 0.930 . S
C681 C680 1.394 . S
C681 C682 1.383 . S
C681 H689 0.929 . S
C682 C681 1.383 . S
C682 C683 1.377 . S
C683 H667 0.930 . S
C683 C682 1.377 . S
C683 C684 1.379 . S
C684 H668 0.931 . S
C684 C678 1.383 . S
C684 C683 1.379 . S
H685 C679 0.959 . S
H686 C679 0.961 . S
H687 C679 0.960 . S
H688 C680 0.930 . S
H689 C681 0.929 . S
H690 C698 0.929 . S
H691 C700 0.930 . S
H692 C702 0.930 . S
H693 C705 0.929 . S
H694 C708 0.930 . S
H695 C710 0.960 . S
H696 C710 0.960 . S
H697 C710 0.960 . S
C698 H690 0.929 . S
C698 C699 1.377 . S
C698 C700 1.384 . S
C699 C698 1.377 . S
C699 C705 1.390 . S
C700 H691 0.930 . S
C700 C698 1.384 . S
C700 C701 1.372 . S
C701 C700 1.372 . S
C701 C702 1.400 . S
C701 C706 1.490 . S
C702 H692 0.930 . S
C702 C701 1.400 . S
C702 C705 1.386 . S
H703 C719 0.930 . S
H704 C720 0.931 . S
C705 H693 0.929 . S
C705 C699 1.390 . S
C705 C702 1.386 . S
C706 C701 1.490 . S
C706 C708 1.395 . S
C706 C709 1.403 . S
H707 C713 0.930 . S
C708 H694 0.930 . S
C708 C706 1.395 . S
C708 C711 1.403 . S
C709 C706 1.403 . S
C709 C710 1.524 . S
C709 C713 1.400 . S
C710 H695 0.960 . S
C710 H696 0.960 . S
C710 H697 0.960 . S
C710 C709 1.524 . S
C711 C708 1.403 . S
C711 C712 1.392 . S
C711 C715 1.495 . S
C712 C711 1.392 . S
C712 C713 1.385 . S
C712 C714 1.478 . S
C713 H707 0.930 . S
C713 C709 1.400 . S
C713 C712 1.385 . S
C714 C712 1.478 . S
C714 C716 1.381 . S
C714 C720 1.383 . S
C715 C711 1.495 . S
C715 H721 0.959 . S
C715 H722 0.961 . S
C715 H723 0.960 . S
C716 C714 1.381 . S
C716 C717 1.394 . S
C716 H724 0.930 . S
C717 C716 1.394 . S
C717 C718 1.383 . S
C717 H725 0.929 . S
C718 C717 1.383 . S
C718 C719 1.377 . S
C719 H703 0.930 . S
C719 C718 1.377 . S
C719 C720 1.379 . S
C720 H704 0.931 . S
C720 C714 1.383 . S
C720 C719 1.379 . S
H721 C715 0.959 . S
H722 C715 0.961 . S
H723 C715 0.960 . S
H724 C716 0.930 . S
H725 C717 0.929 . S
H726 C734 0.929 . S
H727 C736 0.930 . S
H728 C738 0.930 . S
H729 C741 0.943 . S
H730 C744 0.930 . S
H731 C746 0.960 . S
H732 C746 0.960 . S
H733 C746 0.960 1_655 S
C734 H726 0.929 . S
C734 C735 1.377 . S
C734 C736 1.384 . S
C735 C734 1.377 . S
C735 C741 1.390 . S
C736 H727 0.930 . S
C736 C734 1.384 . S
C736 C737 1.372 . S
C737 C736 1.372 . S
C737 C738 1.400 . S
C737 C742 1.490 . S
C738 H728 0.930 . S
C738 C737 1.400 . S
C738 C741 1.386 . S
H739 C755 0.930 . S
H740 C756 0.931 1_554 S
C741 H729 0.943 . S
C741 C735 1.390 . S
C741 C738 1.386 . S
C742 C737 1.490 . S
C742 C744 1.395 . S
C742 C745 1.403 . S
H743 C749 0.930 . S
C744 H730 0.930 . S
C744 C742 1.395 . S
C744 C747 1.403 . S
C745 C742 1.403 . S
C745 C746 1.524 . S
C745 C749 1.400 . S
C746 H731 0.960 . S
C746 H732 0.960 . S
C746 H733 0.960 1_455 S
C746 C745 1.524 . S
C747 C744 1.403 . S
C747 C748 1.392 . S
C747 C751 1.495 . S
C748 C747 1.392 . S
C748 C749 1.385 . S
C748 C750 1.478 . S
C749 H743 0.930 . S
C749 C745 1.400 . S
C749 C748 1.385 . S
C750 C748 1.478 . S
C750 C752 1.381 . S
C750 C756 1.383 1_554 S
C751 C747 1.495 . S
C751 H757 0.959 . S
C751 H758 0.961 . S
C751 H759 0.960 . S
C752 C750 1.381 . S
C752 C753 1.394 1_554 S
C752 H760 0.930 . S
C753 C752 1.394 1_556 S
C753 C754 1.383 . S
C753 H761 0.929 . S
C754 C753 1.383 . S
C754 C755 1.377 . S
C755 H739 0.930 . S
C755 C754 1.377 . S
C755 C756 1.379 . S
C756 H740 0.931 1_556 S
C756 C750 1.383 1_556 S
C756 C755 1.379 . S
H757 C751 0.959 . S
H758 C751 0.961 . S
H759 C751 0.960 . S
H760 C752 0.930 . S
H761 C753 0.929 . S
H762 C770 0.929 . S
H763 C772 0.930 . S
H764 C774 0.930 . S
H765 C777 0.929 . S
H766 C780 0.930 . S
H767 C782 0.960 . S
H768 C782 0.960 1_565 S
H769 C782 0.960 . S
C770 H762 0.929 . S
C770 C771 1.377 . S
C770 C772 1.384 . S
C771 C770 1.377 . S
C771 C777 1.390 . S
C772 H763 0.930 . S
C772 C770 1.384 . S
C772 C773 1.372 . S
C773 C772 1.372 . S
C773 C774 1.400 . S
C773 C778 1.490 . S
C774 H764 0.930 . S
C774 C773 1.400 . S
C774 C777 1.386 . S
H775 C791 0.930 . S
H776 C792 0.931 . S
C777 H765 0.929 . S
C777 C771 1.390 . S
C777 C774 1.386 . S
C778 C773 1.490 . S
C778 C780 1.395 . S
C778 C781 1.403 . S
H779 C785 0.930 . S
C780 H766 0.930 . S
C780 C778 1.395 . S
C780 C783 1.403 . S
C781 C778 1.403 . S
C781 C782 1.524 . S
C781 C785 1.400 . S
C782 H767 0.960 . S
C782 H768 0.960 1_545 S
C782 H769 0.960 . S
C782 C781 1.524 . S
C783 C780 1.403 . S
C783 C784 1.392 . S
C783 C787 1.495 . S
C784 C783 1.392 . S
C784 C785 1.385 . S
C784 C786 1.478 . S
C785 H779 0.930 . S
C785 C781 1.400 . S
C785 C784 1.385 . S
C786 C784 1.478 . S
C786 C788 1.381 . S
C786 C792 1.383 . S
C787 C783 1.495 . S
C787 H793 0.959 . S
C787 H794 0.961 . S
C787 H795 0.960 . S
C788 C786 1.381 . S
C788 C789 1.394 . S
C788 H796 0.930 . S
C789 C788 1.394 . S
C789 C790 1.383 . S
C789 H797 0.929 . S
C790 C789 1.383 . S
C790 C791 1.377 . S
C791 H775 0.930 . S
C791 C790 1.377 . S
C791 C792 1.379 . S
C792 H776 0.931 . S
C792 C786 1.383 . S
C792 C791 1.379 . S
H793 C787 0.959 . S
H794 C787 0.961 . S
H795 C787 0.960 . S
H796 C788 0.930 . S
H797 C789 0.929 . S
H798 C806 0.929 . S
H799 C808 0.930 . S
H800 C810 0.930 . S
H801 C813 0.929 . S
H802 C816 0.930 . S
H803 C818 0.960 . S
H804 C818 0.960 . S
H805 C818 0.960 . S
C806 H798 0.929 . S
C806 C807 1.377 . S
C806 C808 1.384 . S
C807 C806 1.377 . S
C807 C813 1.390 . S
C808 H799 0.930 . S
C808 C806 1.384 . S
C808 C809 1.372 . S
C809 C808 1.372 . S
C809 C810 1.400 . S
C809 C814 1.490 . S
C810 H800 0.930 . S
C810 C809 1.400 . S
C810 C813 1.386 . S
H811 C827 0.930 . S
H812 C828 0.931 . S
C813 H801 0.929 . S
C813 C807 1.390 . S
C813 C810 1.386 . S
C814 C809 1.490 . S
C814 C816 1.395 . S
C814 C817 1.403 . S
H815 C821 0.930 . S
C816 H802 0.930 . S
C816 C814 1.395 . S
C816 C819 1.403 . S
C817 C814 1.403 . S
C817 C818 1.524 . S
C817 C821 1.400 . S
C818 H803 0.960 . S
C818 H804 0.960 . S
C818 H805 0.960 . S
C818 C817 1.524 . S
C819 C816 1.403 . S
C819 C820 1.392 . S
C819 C823 1.495 . S
C820 C819 1.392 . S
C820 C821 1.385 . S
C820 C822 1.478 . S
C821 H815 0.930 . S
C821 C817 1.400 . S
C821 C820 1.385 . S
C822 C820 1.478 . S
C822 C824 1.381 . S
C822 C828 1.383 . S
C823 C819 1.495 . S
C823 H829 0.959 . S
C823 H830 0.961 . S
C823 H831 0.960 . S
C824 C822 1.381 . S
C824 C825 1.394 . S
C824 H832 0.930 . S
C825 C824 1.394 . S
C825 C826 1.383 . S
C825 H833 0.929 . S
C826 C825 1.383 . S
C826 C827 1.377 . S
C827 H811 0.930 . S
C827 C826 1.377 . S
C827 C828 1.379 . S
C828 H812 0.931 . S
C828 C822 1.383 . S
C828 C827 1.379 . S
H829 C823 0.959 . S
H830 C823 0.961 . S
H831 C823 0.960 . S
H832 C824 0.930 . S
H833 C825 0.929 . S
H834 C842 0.929 . S
H835 C844 0.930 . S
H836 C846 0.930 . S
H837 C849 0.929 . S
H838 C852 0.930 . S
H839 C854 0.960 . S
H840 C854 0.960 . S
H841 C854 0.960 . S
C842 H834 0.929 . S
C842 C843 1.377 . S
C842 C844 1.384 . S
C843 C842 1.377 . S
C843 C849 1.390 . S
C844 H835 0.930 . S
C844 C842 1.384 . S
C844 C845 1.372 . S
C845 C844 1.372 . S
C845 C846 1.400 . S
C845 C850 1.490 . S
C846 H836 0.930 . S
C846 C845 1.400 . S
C846 C849 1.386 . S
H847 C863 0.930 . S
H848 C864 0.931 . S
C849 H837 0.929 . S
C849 C843 1.390 . S
C849 C846 1.386 . S
C850 C845 1.490 . S
C850 C852 1.395 1_545 S
C850 C853 1.403 . S
H851 C857 0.930 . S
C852 H838 0.930 . S
C852 C850 1.395 1_565 S
C852 C855 1.403 . S
C853 C850 1.403 . S
C853 C854 1.524 . S
C853 C857 1.400 . S
C854 H839 0.960 . S
C854 H840 0.960 . S
C854 H841 0.960 . S
C854 C853 1.524 . S
C855 C852 1.403 . S
C855 C856 1.392 1_565 S
C855 C859 1.495 . S
C856 C855 1.392 1_545 S
C856 C857 1.385 . S
C856 C858 1.478 . S
C857 H851 0.930 . S
C857 C853 1.400 . S
C857 C856 1.385 . S
C858 C856 1.478 . S
C858 C860 1.381 . S
C858 C864 1.383 . S
C859 C855 1.495 . S
C859 H865 0.959 . S
C859 H866 0.961 . S
C859 H867 0.960 . S
C860 C858 1.381 . S
C860 C861 1.394 . S
C860 H868 0.930 . S
C861 C860 1.394 . S
C861 C862 1.383 . S
C861 H869 0.929 . S
C862 C861 1.383 . S
C862 C863 1.377 . S
C863 H847 0.930 . S
C863 C862 1.377 . S
C863 C864 1.379 . S
C864 H848 0.931 . S
C864 C858 1.383 . S
C864 C863 1.379 . S
H865 C859 0.959 . S
H866 C859 0.961 . S
H867 C859 0.960 . S
H868 C860 0.930 . S
H869 C861 0.929 . S
H870 C878 0.929 . S
H871 C880 0.930 . S
H872 C882 0.930 . S
H873 C885 0.929 . S
H874 C888 0.930 . S
H875 C890 0.960 . S
H876 C890 0.960 . S
H877 C890 0.960 . S
C878 H870 0.929 . S
C878 C879 1.377 . S
C878 C880 1.384 . S
C879 C878 1.377 . S
C879 C885 1.390 . S
C880 H871 0.930 . S
C880 C878 1.384 . S
C880 C881 1.372 . S
C881 C880 1.372 . S
C881 C882 1.400 . S
C881 C886 1.490 . S
C882 H872 0.930 . S
C882 C881 1.400 . S
C882 C885 1.386 . S
H883 C899 0.930 . S
H884 C900 0.956 . S
C885 H873 0.929 . S
C885 C879 1.390 . S
C885 C882 1.386 . S
C886 C881 1.490 . S
C886 C888 1.395 . S
C886 C889 1.403 . S
H887 C893 0.930 . S
C888 H874 0.930 . S
C888 C886 1.395 . S
C888 C891 1.403 . S
C889 C886 1.403 . S
C889 C890 1.524 . S
C889 C893 1.400 . S
C890 H875 0.960 . S
C890 H876 0.960 . S
C890 H877 0.960 . S
C890 C889 1.524 . S
C891 C888 1.403 . S
C891 C892 1.392 . S
C891 C895 1.495 . S
C892 C891 1.392 . S
C892 C893 1.385 . S
C892 C894 1.478 . S
C893 H887 0.930 . S
C893 C889 1.400 . S
C893 C892 1.385 . S
C894 C892 1.478 . S
C894 C896 1.381 . S
C894 C900 1.420 . S
C895 C891 1.495 . S
C895 H901 0.959 . S
C895 H902 0.961 . S
C895 H903 0.960 . S
C896 C894 1.381 . S
C896 C897 1.394 1_556 S
C896 H904 0.930 . S
C897 C896 1.394 1_554 S
C897 C898 1.383 . S
C897 H905 0.929 . S
C898 C897 1.383 . S
C898 C899 1.377 . S
C899 H883 0.930 . S
C899 C898 1.377 . S
C899 C900 1.320 1_554 S
C900 H884 0.956 . S
C900 C894 1.420 . S
C900 C899 1.320 1_556 S
H901 C895 0.959 . S
H902 C895 0.961 . S
H903 C895 0.960 . S
H904 C896 0.930 . S
H905 C897 0.929 . S
H906 C914 0.929 . S
H907 C916 0.930 . S
H908 C918 0.930 . S
H909 C921 0.929 . S
H910 C924 0.930 . S
H911 C926 0.960 . S
H912 C926 0.960 . S
H913 C926 0.960 . S
C914 H906 0.929 . S
C914 C915 1.377 . S
C914 C916 1.384 . S
C915 C914 1.377 . S
C915 C921 1.390 . S
C916 H907 0.930 . S
C916 C914 1.384 . S
C916 C917 1.372 . S
C917 C916 1.372 . S
C917 C918 1.400 . S
C917 C922 1.490 . S
C918 H908 0.930 . S
C918 C917 1.400 . S
C918 C921 1.386 . S
H919 C935 0.930 . S
H920 C936 0.931 . S
C921 H909 0.929 . S
C921 C915 1.390 . S
C921 C918 1.386 . S
C922 C917 1.490 . S
C922 C924 1.395 . S
C922 C925 1.403 1_455 S
H923 C929 0.930 . S
C924 H910 0.930 . S
C924 C922 1.395 . S
C924 C927 1.403 . S
C925 C922 1.403 1_655 S
C925 C926 1.524 . S
C925 C929 1.400 . S
C926 H911 0.960 . S
C926 H912 0.960 . S
C926 H913 0.960 . S
C926 C925 1.524 . S
C927 C924 1.403 . S
C927 C928 1.392 . S
C927 C931 1.495 . S
C928 C927 1.392 . S
C928 C929 1.385 1_455 S
C928 C930 1.478 . S
C929 H923 0.930 . S
C929 C925 1.400 . S
C929 C928 1.385 1_655 S
C930 C928 1.478 . S
C930 C932 1.381 1_455 S
C930 C936 1.383 . S
C931 C927 1.495 . S
C931 H937 0.959 . S
C931 H938 0.961 . S
C931 H939 0.960 . S
C932 C930 1.381 1_655 S
C932 C933 1.394 . S
C932 H940 0.930 . S
C933 C932 1.394 . S
C933 C934 1.383 1_655 S
C933 H941 0.929 . S
C934 C933 1.383 1_455 S
C934 C935 1.377 . S
C935 H919 0.930 . S
C935 C934 1.377 . S
C935 C936 1.379 . S
C936 H920 0.931 . S
C936 C930 1.383 . S
C936 C935 1.379 . S
H937 C931 0.959 . S
H938 C931 0.961 . S
H939 C931 0.960 . S
H940 C932 0.930 . S
H941 C933 0.929 . S
C303 C8 2.014 . S
C322 C271 2.068 . S
C339 C26 1.283 . S
C358 C198 1.268 . S
C375 C48 1.453 . S
C394 C237 1.492 . S
C411 C19 1.726 . S
C430 C276 1.785 . S
C466 C193 1.462 . S
C447 C36 1.473 . S
C502 C232 1.706 . S
C483 C59 1.669 . S
C519 C28 1.481 . S
C538 C120 1.530 . S
C555 C46 1.227 . S
C574 C154 1.248 . S
C591 C16 1.567 . S
C610 C76 1.587 . S
C646 C115 1.680 . S
C627 C39 1.627 . S
C682 C159 0.956 . S
C663 C56 0.952 . S
C699 C6 1.321 . S
C718 C81 1.330 . S
C754 C139 1.424 . S
C735 C9 1.397 . S
C771 C21 1.489 . S
C790 C61 1.508 . S
C807 C49 1.472 . S
C826 C100 1.488 . S
C862 C217 1.467 . S
C843 C29 1.453 . S
C898 C256 1.584 . S
C879 C41 1.572 . S
C915 C1 1.497 . S
C934 C178 1.501 1_455 S
