# Generated by pormake.
# Topology ssa, (4,4)-cn, num edge types: 1
# Building blocks:
#     Node 0, Type 0, BuildingBlock: ESEHIV_clean_sbu_0, # of connection points: 4
#     Node 1, Type 0, BuildingBlock: ESEHIV_clean_sbu_0, # of connection points: 4
#     Node 2, Type 0, BuildingBlock: ESEHIV_clean_sbu_0, # of connection points: 4
#     Node 3, Type 0, BuildingBlock: ESEHIV_clean_sbu_0, # of connection points: 4
#     Node 4, Type 0, BuildingBlock: ESEHIV_clean_sbu_0, # of connection points: 4
#     Node 5, Type 0, BuildingBlock: ESEHIV_clean_sbu_0, # of connection points: 4
#     Node 6, Type 1, BuildingBlock: MIFKUJ_clean_linker_1, # of connection points: 4
#     Node 7, Type 1, BuildingBlock: MIFKUJ_clean_linker_1, # of connection points: 4
#     Node 8, Type 1, BuildingBlock: MIFKUJ_clean_linker_1, # of connection points: 4
#     Node 9, Type 1, BuildingBlock: MIFKUJ_clean_linker_1, # of connection points: 4
#     Node 10, Type 1, BuildingBlock: MIFKUJ_clean_linker_1, # of connection points: 4
#     Node 11, Type 1, BuildingBlock: MIFKUJ_clean_linker_1, # of connection points: 4
#     Edge 12, Type (0, 1), BuildingBlock: OJICUG_clean_linker_0, # of connection points: 2
#     Edge 13, Type (0, 1), BuildingBlock: OJICUG_clean_linker_0, # of connection points: 2
#     Edge 14, Type (0, 1), BuildingBlock: OJICUG_clean_linker_0, # of connection points: 2
#     Edge 15, Type (0, 1), BuildingBlock: OJICUG_clean_linker_0, # of connection points: 2
#     Edge 16, Type (0, 1), BuildingBlock: OJICUG_clean_linker_0, # of connection points: 2
#     Edge 17, Type (0, 1), BuildingBlock: OJICUG_clean_linker_0, # of connection points: 2
#     Edge 18, Type (0, 1), BuildingBlock: OJICUG_clean_linker_0, # of connection points: 2
#     Edge 19, Type (0, 1), BuildingBlock: OJICUG_clean_linker_0, # of connection points: 2
#     Edge 20, Type (0, 1), BuildingBlock: OJICUG_clean_linker_0, # of connection points: 2
#     Edge 21, Type (0, 1), BuildingBlock: OJICUG_clean_linker_0, # of connection points: 2
#     Edge 22, Type (0, 1), BuildingBlock: OJICUG_clean_linker_0, # of connection points: 2
#     Edge 23, Type (0, 1), BuildingBlock: OJICUG_clean_linker_0, # of connection points: 2
#     Edge 24, Type (0, 1), BuildingBlock: OJICUG_clean_linker_0, # of connection points: 2
#     Edge 25, Type (0, 1), BuildingBlock: OJICUG_clean_linker_0, # of connection points: 2
#     Edge 26, Type (0, 1), BuildingBlock: OJICUG_clean_linker_0, # of connection points: 2
#     Edge 27, Type (0, 1), BuildingBlock: OJICUG_clean_linker_0, # of connection points: 2
#     Edge 28, Type (0, 1), BuildingBlock: OJICUG_clean_linker_0, # of connection points: 2
#     Edge 29, Type (0, 1), BuildingBlock: OJICUG_clean_linker_0, # of connection points: 2
#     Edge 30, Type (0, 1), BuildingBlock: OJICUG_clean_linker_0, # of connection points: 2
#     Edge 31, Type (0, 1), BuildingBlock: OJICUG_clean_linker_0, # of connection points: 2
#     Edge 32, Type (0, 1), BuildingBlock: OJICUG_clean_linker_0, # of connection points: 2
#     Edge 33, Type (0, 1), BuildingBlock: OJICUG_clean_linker_0, # of connection points: 2
#     Edge 34, Type (0, 1), BuildingBlock: OJICUG_clean_linker_0, # of connection points: 2
#     Edge 35, Type (0, 1), BuildingBlock: OJICUG_clean_linker_0, # of connection points: 2
# Relax obj value: 0.009
# Max RMSD: 0.108
# Mean RMSD: 0.056
data_MOF--net-ssa--node1-ESEHIV_clean_sbu_0--node2-MIFKUJ_clean_linker_1--edge1-OJICUG_clean_linker_0
_symmetry_space_group_name_H-M    P1
_symmetry_Int_Tables_number       1
_symmetry_cell_setting            triclinic
loop_
_symmetry_equiv_pos_as_xyz
'x, y, z'
_cell_length_a     46.800863
_cell_length_b     50.403646
_cell_length_c     31.001824
_cell_angle_alpha  88.134538
_cell_angle_beta   91.0424
_cell_angle_gamma 122.74354
loop_
_atom_site_label
_atom_site_type_symbol
_atom_site_fract_x
_atom_site_fract_y
_atom_site_fract_z
_atom_type_partial_charge
Cu0 Cu 0.01254 0.49606 0.97873 0.0
N1 N 1.00834 0.47337 0.92978 0.0
N2 N 0.98043 0.43508 0.8822 0.0
C3 C 0.97868 0.44712 0.91951 0.0
C4 C 0.01267 0.45461 0.86826 0.0
C5 C 0.02991 0.47823 0.89779 0.0
O6 O 0.97034 0.49561 0.97918 0.0
C7 C 0.04788 0.47451 0.02246 0.0
O8 O 0.06193 0.48159 0.98408 0.0
H9 H 0.95589 0.43766 0.93864 0.0
H10 H 0.05623 0.49734 0.8959 0.0
N11 N 0.04843 0.53812 0.97708 0.0
N12 N 0.08559 0.58422 1.00661 0.0
C13 C 0.0558 0.55642 0.01132 0.0
C14 C 0.07436 0.55507 0.94927 0.0
C15 C 0.09752 0.58359 0.96762 0.0
C16 C 0.96645 0.50732 0.94406 0.0
O17 O 0.9912 0.51985 0.91563 0.0
H18 H 0.04063 0.54852 0.04045 0.0
H19 H 0.0771 0.54698 0.91876 0.0
O20 O 0.02297 0.47769 0.02863 0.0
H21 H 0.02311 0.45196 0.83905 0.0
H22 H 0.12163 0.60199 0.954 0.0
Cu23 Cu 0.49366 0.0101 0.50577 0.0
N24 N 0.52189 0.00883 0.46488 0.0
N25 N 0.54245 0.98738 0.42343 0.0
C26 C 0.51942 0.98208 0.45361 0.0
C27 C 0.55981 0.01874 0.41467 0.0
C28 C 0.54711 0.03197 0.44045 0.0
O29 O 0.44784 0.97679 0.49022 0.0
C30 C 0.53274 1.00351 0.57158 0.0
O31 O 0.54375 0.99327 0.54179 0.0
H32 H 0.50106 0.95909 0.46758 0.0
H33 H 0.55574 0.05664 0.44144 0.0
N34 N 0.4979 0.04932 0.50707 0.0
N35 N 0.50212 0.09149 0.53623 0.0
C36 C 0.49783 0.06299 0.54374 0.0
C37 C 0.50249 0.06993 0.47503 0.0
C38 C 0.50493 0.09589 0.4929 0.0
C39 C 0.43911 0.97857 0.45163 0.0
O40 O 0.45977 1.00376 0.42789 0.0
H41 H 0.49433 0.05201 0.5754 0.0
H42 H 0.50433 0.06656 0.44117 0.0
O43 O 0.50696 1.00514 0.56364 0.0
H44 H 0.58065 0.03127 0.39205 0.0
H45 H 0.50912 0.11663 0.47539 0.0
Cu46 Cu 0.53837 0.52498 0.03835 0.0
N47 N 0.54124 0.48933 0.04201 0.0
N48 N 0.54039 0.44764 0.01749 0.0
C49 C 0.54152 0.47434 1.00697 0.0
C50 C 0.53945 0.44567 0.06102 0.0
C51 C 0.54021 0.47159 0.07613 0.0
O52 O 0.55589 0.54242 0.98103 0.0
C53 C 0.48051 0.50214 0.08475 0.0
O54 O 0.5005 0.49993 0.11289 0.0
H55 H 0.54107 0.48219 0.9742 0.0
H56 H 0.53932 0.47668 0.1095 0.0
N57 N 0.56317 0.55458 0.08106 0.0
N58 N 0.57794 0.59423 0.12554 0.0
C59 C 0.55721 0.5766 0.09321 0.0
C60 C 0.58852 0.55824 0.10664 0.0
C61 C 0.59782 0.58281 0.13397 0.0
C62 C 0.58733 0.56332 0.97603 0.0
O63 O 0.6053 0.57893 0.00973 0.0
H64 H 0.53798 0.57959 0.07837 0.0
H65 H 0.59927 0.54391 0.10569 0.0
O66 O 0.49142 0.51187 0.0465 0.0
H67 H 0.53806 0.42678 0.08047 0.0
H68 H 0.61722 0.59115 0.1587 0.0
Cu69 Cu 1.00492 0.49744 0.52307 0.0
N70 N 0.03839 0.48822 0.52184 0.0
N71 N 0.07531 0.48006 0.49047 0.0
C72 C 0.0483 0.48257 0.48483 0.0
C73 C 0.08249 0.48383 0.53305 0.0
C74 C 0.05967 0.48912 0.55242 0.0
O75 O 0.01703 0.52843 0.47515 0.0
C76 C 0.95778 0.43547 0.54631 0.0
O77 O 0.98435 0.44101 0.56894 0.0
H78 H 0.03651 0.48146 0.454 0.0
H79 H 0.05938 0.49438 0.5859 0.0
N80 N 1.00451 0.51505 0.57471 0.0
N81 N 0.98099 0.52423 0.6294 0.0
C82 C 0.97555 0.50629 0.59521 0.0
C83 C 0.02942 0.53937 0.5969 0.0
C84 C 0.01486 0.54527 0.63064 0.0
C85 C 0.04834 0.55097 0.47476 0.0
O86 O 0.06797 0.55254 0.50666 0.0
H87 H 0.95066 0.48813 0.58383 0.0
H88 H 0.05606 0.55247 0.58854 0.0
O89 O 0.96061 0.45727 0.52089 0.0
H90 H 0.10368 0.48434 0.54858 0.0
H91 H 0.02798 0.56388 0.65368 0.0
Cu92 Cu 0.52105 0.01539 0.04711 0.0
N93 N 0.51724 0.05024 0.04553 0.0
N94 N 0.51513 0.0896 0.01417 0.0
C95 C 0.5188 0.06529 0.00827 0.0
C96 C 0.51102 0.08994 0.05711 0.0
C97 C 0.51204 0.06533 0.07644 0.0
O98 O 0.54616 0.02108 0.99401 0.0
C99 C 0.46903 0.95067 0.06461 0.0
O100 O 0.49371 0.94564 0.06254 0.0
H101 H 0.52295 0.05865 0.97728 0.0
H102 H 0.5088 0.05878 0.11037 0.0
N103 N 0.54698 0.01559 0.09375 0.0
N104 N 0.57598 1.00033 0.13409 0.0
C105 C 0.56115 0.99845 0.0956 0.0
C106 C 0.55356 0.02949 0.13212 0.0
C107 C 0.57142 0.02008 0.15714 0.0
C108 C 0.57704 0.0444 0.99535 0.0
O109 O 0.58878 0.05908 0.0319 0.0
H110 H 0.55903 0.98365 0.06968 0.0
H111 H 0.54517 0.04457 0.14182 0.0
O112 O 0.47513 0.97795 0.05432 0.0
H113 H 0.50699 0.10638 0.07322 0.0
H114 H 0.5795 0.02665 0.19011 0.0
Cu115 Cu 0.49571 0.50322 0.53311 0.0
N116 N 0.50702 0.54454 0.5378 0.0
N117 N 0.51808 0.59169 0.51476 0.0
C118 C 0.51008 0.5628 0.50346 0.0
C119 C 0.52027 0.59144 0.55835 0.0
C120 C 0.5135 0.56232 0.57245 0.0
O121 O 0.46663 0.48733 0.48186 0.0
C122 C 0.56645 0.52606 0.54 0.0
O123 O 0.5716 0.55421 0.5336 0.0
H124 H 0.50694 0.55483 0.47077 0.0
H125 H 0.51357 0.55479 0.60549 0.0
N126 N 0.47137 0.47834 0.58091 0.0
N127 N 0.45608 0.44024 0.63096 0.0
C128 C 0.46908 0.45119 0.59124 0.0
C129 C 0.45898 0.48476 0.61513 0.0
C130 C 0.4497 0.46127 0.64634 0.0
C131 C 0.43883 0.48605 0.48609 0.0
O132 O 0.4323 0.49288 0.52373 0.0
H133 H 0.47944 0.44108 0.57137 0.0
H134 H 0.45843 0.50577 0.6182 0.0
O135 O 0.53668 0.50175 0.53471 0.0
H136 H 0.52624 0.61075 0.57886 0.0
H137 H 0.44045 0.46045 0.67842 0.0
H138 H 0.16907 0.42046 0.17468 0.0
H139 H 0.12191 0.41627 0.13292 0.0
H140 H 0.15334 0.51031 0.16953 0.0
H141 H 0.20037 0.51425 0.21107 0.0
H142 H 0.24276 0.47166 0.16186 0.0
H143 H 0.16706 0.42109 0.30685 0.0
H144 H 0.13005 0.42174 0.36149 0.0
H145 H 0.17987 0.5225 0.34118 0.0
H146 H 0.21705 0.52172 0.28748 0.0
H147 H 0.31206 0.51938 0.32455 0.0
H148 H 0.35372 0.52039 0.37402 0.0
H149 H 0.34462 0.44128 0.31041 0.0
H150 H 0.3021 0.4399 0.26091 0.0
H151 H 0.24881 0.47469 0.32163 0.0
H152 H 0.33868 0.52508 0.22211 0.0
H153 H 0.38768 0.53121 0.18526 0.0
H154 H 0.32149 0.44593 0.11612 0.0
H155 H 0.27222 0.43917 0.15426 0.0
C156 C 0.18807 0.46751 0.19643 0.0
C157 C 0.16559 0.44005 0.17399 0.0
C158 C 0.13865 0.43772 0.1501 0.0
C159 C 0.13366 0.46292 0.1479 0.0
C160 C 0.15591 0.4902 0.17114 0.0
C161 C 0.18291 0.49251 0.19492 0.0
C162 C 0.21754 0.47039 0.2201 0.0
C163 C 0.24402 0.47203 0.19682 0.0
C164 C 0.21986 0.4718 0.26548 0.0
C165 C 0.19398 0.47123 0.29244 0.0
C166 C 0.16937 0.44313 0.3136 0.0
C167 C 0.1486 0.44359 0.345 0.0
C168 C 0.15216 0.47216 0.35539 0.0
C169 C 0.17632 0.50011 0.33332 0.0
C170 C 0.19735 0.49969 0.30246 0.0
C171 C 0.30355 0.47938 0.28915 0.0
C172 C 0.31915 0.50238 0.32081 0.0
C173 C 0.34303 0.50298 0.34906 0.0
C174 C 0.35212 0.48069 0.34636 0.0
C175 C 0.33813 0.45879 0.31311 0.0
C176 C 0.31385 0.45801 0.28485 0.0
C177 C 0.27457 0.4764 0.26372 0.0
C178 C 0.24782 0.47426 0.28663 0.0
C179 C 0.27292 0.47582 0.21799 0.0
C180 C 0.3019 0.48116 0.1919 0.0
C181 C 0.33461 0.50762 0.19912 0.0
C182 C 0.36253 0.51125 0.17787 0.0
C183 C 0.35821 0.48888 0.14825 0.0
C184 C 0.32532 0.46348 0.1388 0.0
C185 C 0.29729 0.4596 0.16061 0.0
H186 H 0.6588 0.17104 0.77545 0.0
H187 H 0.62215 0.12935 0.82788 0.0
H188 H 0.70671 0.12189 0.86728 0.0
H189 H 0.74332 0.16432 0.81582 0.0
H190 H 0.76041 0.22679 0.80932 0.0
H191 H 0.66451 0.18325 0.66971 0.0
H192 H 0.61689 0.13295 0.64386 0.0
H193 H 0.66367 0.08529 0.6981 0.0
H194 H 0.71155 0.13578 0.72291 0.0
H195 H 0.80017 0.2441 0.63015 0.0
H196 H 0.84086 0.28776 0.58282 0.0
H197 H 0.82774 0.35229 0.65508 0.0
H198 H 0.78634 0.30834 0.70158 0.0
H199 H 0.73488 0.21593 0.65242 0.0
H200 H 0.84259 0.27466 0.7239 0.0
H201 H 0.89333 0.32001 0.75524 0.0
H202 H 0.82977 0.3323 0.8409 0.0
H203 H 0.77923 0.28712 0.80937 0.0
C204 C 0.7039 0.17099 0.79192 0.0
C205 C 0.66938 0.16034 0.79538 0.0
C206 C 0.64833 0.13621 0.82513 0.0
C207 C 0.66132 0.12209 0.85207 0.0
C208 C 0.69583 0.13247 0.84776 0.0
C209 C 0.71689 0.15678 0.81831 0.0
C210 C 0.72629 0.19656 0.7602 0.0
C211 C 0.75476 0.22456 0.77505 0.0
C212 C 0.71952 0.1933 0.71544 0.0
C213 C 0.69144 0.16317 0.6982 0.0
C214 C 0.66453 0.16197 0.67576 0.0
C215 C 0.63716 0.13316 0.66161 0.0
C216 C 0.63637 0.1051 0.6694 0.0
C217 C 0.66358 0.10648 0.69157 0.0
C218 C 0.69088 0.13527 0.70578 0.0
C219 C 0.7905 0.2729 0.66993 0.0
C220 C 0.80552 0.26752 0.63532 0.0
C221 C 0.82899 0.2926 0.60842 0.0
C222 C 0.83788 0.32366 0.61532 0.0
C223 C 0.82137 0.3287 0.64855 0.0
C224 C 0.79791 0.3036 0.67549 0.0
C225 C 0.76877 0.24683 0.70157 0.0
C226 C 0.74045 0.21852 0.68669 0.0
C227 C 0.7763 0.24954 0.74635 0.0
C228 C 0.8071 0.27763 0.76413 0.0
C229 C 0.83959 0.28738 0.74905 0.0
C230 C 0.86856 0.31329 0.76696 0.0
C231 C 0.86553 0.32961 0.80065 0.0
C232 C 0.83294 0.31991 0.8154 0.0
C233 C 0.80404 0.29416 0.79737 0.0
H234 H 0.60145 0.85423 0.37718 0.0
H235 H 0.59406 0.89468 0.40666 0.0
H236 H 0.53058 0.88562 0.2981 0.0
H237 H 0.53679 0.84431 0.26966 0.0
H238 H 0.56099 0.79445 0.3609 0.0
H239 H 0.63529 0.88582 0.27608 0.0
H240 H 0.64164 0.93325 0.24216 0.0
H241 H 0.56645 0.87586 0.14687 0.0
H242 H 0.55951 0.82839 0.18153 0.0
H243 H 0.54547 0.74168 0.19407 0.0
H244 H 0.54575 0.69879 0.16015 0.0
H245 H 0.61335 0.702 0.25968 0.0
H246 H 0.61425 0.74595 0.29218 0.0
H247 H 0.59437 0.8017 0.2078 0.0
H248 H 0.51602 0.71124 0.30658 0.0
H249 H 0.50134 0.66747 0.35723 0.0
H250 H 0.59314 0.72841 0.4295 0.0
H251 H 0.60651 0.77222 0.37988 0.0
C252 C 0.57017 0.84646 0.32077 0.0
C253 C 0.58567 0.8607 0.3599 0.0
C254 C 0.58152 0.88389 0.37665 0.0
C255 C 0.56202 0.89354 0.35445 0.0
C256 C 0.54621 0.87906 0.31556 0.0
C257 C 0.54982 0.85546 0.29927 0.0
C258 C 0.57555 0.82253 0.30206 0.0
C259 C 0.56878 0.79632 0.32761 0.0
C260 C 0.58615 0.82496 0.25877 0.0
C261 C 0.59638 0.85356 0.23184 0.0
C262 C 0.62076 0.88353 0.24727 0.0
C263 C 0.62433 0.91057 0.228 0.0
C264 C 0.60421 0.90809 0.19234 0.0
C265 C 0.58234 0.87839 0.17429 0.0
C266 C 0.57841 0.85127 0.19397 0.0
C267 C 0.57947 0.74692 0.24609 0.0
C268 C 0.56051 0.73328 0.20849 0.0
C269 C 0.56043 0.70846 0.18934 0.0
C270 C 0.57936 0.69659 0.20726 0.0
C271 C 0.59866 0.71057 0.24468 0.0
C272 C 0.59885 0.73552 0.26371 0.0
C273 C 0.5789 0.77309 0.26646 0.0
C274 C 0.58688 0.79995 0.24119 0.0
C275 C 0.5705 0.77177 0.31049 0.0
C276 C 0.56238 0.74479 0.33952 0.0
C277 C 0.53291 0.715 0.33334 0.0
C278 C 0.52469 0.69001 0.36227 0.0
C279 C 0.54602 0.69433 0.39764 0.0
C280 C 0.57572 0.72429 0.40328 0.0
C281 C 0.58363 0.74931 0.37472 0.0
H282 H 0.68823 0.47304 0.69598 0.0
H283 H 0.64975 0.47305 0.64153 0.0
H284 H 0.68602 0.56958 0.6711 0.0
H285 H 0.72563 0.5698 0.72353 0.0
H286 H 0.76272 0.51747 0.69723 0.0
H287 H 0.66667 0.48188 0.82221 0.0
H288 H 0.62951 0.49441 0.85859 0.0
H289 H 0.70334 0.59392 0.8352 0.0
H290 H 0.7409 0.58104 0.80139 0.0
H291 H 0.81668 0.55152 0.87308 0.0
H292 H 0.85841 0.54554 0.91426 0.0
H293 H 0.82538 0.45934 0.8485 0.0
H294 H 0.78373 0.46513 0.80804 0.0
H295 H 0.74861 0.52056 0.855 0.0
H296 H 0.84864 0.55716 0.78103 0.0
H297 H 0.89796 0.55805 0.75505 0.0
H298 H 0.83272 0.48077 0.6715 0.0
H299 H 0.78319 0.47869 0.69988 0.0
C300 C 0.7093 0.52117 0.71467 0.0
C301 C 0.68782 0.49419 0.6907 0.0
C302 C 0.66566 0.49419 0.65968 0.0
C303 C 0.6645 0.52127 0.65177 0.0
C304 C 0.68632 0.54836 0.67575 0.0
C305 C 0.70863 0.54837 0.70652 0.0
C306 C 0.73334 0.52099 0.74665 0.0
C307 C 0.7594 0.51777 0.73171 0.0
C308 C 0.73051 0.52345 0.7915 0.0
C309 C 0.70631 0.53055 0.80899 0.0
C310 C 0.67452 0.50633 0.82462 0.0
C311 C 0.65323 0.51359 0.84503 0.0
C312 C 0.66339 0.54526 0.84998 0.0
C313 C 0.69484 0.56933 0.83266 0.0
C314 C 0.71625 0.56203 0.81295 0.0
C315 C 0.79746 0.50909 0.83682 0.0
C316 C 0.81775 0.53086 0.86848 0.0
C317 C 0.84158 0.52742 0.89202 0.0
C318 C 0.84545 0.50218 0.88419 0.0
C319 C 0.82329 0.47924 0.85487 0.0
C320 C 0.79946 0.48254 0.83171 0.0
C321 C 0.77702 0.51546 0.80562 0.0
C322 C 0.75182 0.51995 0.82056 0.0
C323 C 0.78208 0.51628 0.76051 0.0
C324 C 0.8121 0.51749 0.74296 0.0
C325 C 0.84489 0.54008 0.75758 0.0
C326 C 0.87318 0.54082 0.74229 0.0
C327 C 0.8694 0.51941 0.71129 0.0
C328 C 0.83656 0.4972 0.69605 0.0
C329 C 0.8082 0.49622 0.7118 0.0
H330 H 0.26346 0.82777 0.17268 0.0
H331 H 0.31199 0.86588 0.12795 0.0
H332 H 0.37872 0.85311 0.21158 0.0
H333 H 0.33008 0.81449 0.2554 0.0
H334 H 0.23954 0.76784 0.18288 0.0
H335 H 0.27416 0.85007 0.28083 0.0
H336 H 0.31366 0.89524 0.32402 0.0
H337 H 0.34043 0.83705 0.39681 0.0
H338 H 0.29991 0.79167 0.35419 0.0
H339 H 0.21917 0.70436 0.34746 0.0
H340 H 0.17701 0.65758 0.38815 0.0
H341 H 0.09683 0.65552 0.31388 0.0
H342 H 0.13944 0.70354 0.27427 0.0
H343 H 0.23231 0.76147 0.34256 0.0
H344 H 0.20847 0.68508 0.22599 0.0
H345 H 0.17674 0.64656 0.16963 0.0
H346 H 0.13043 0.69783 0.12985 0.0
H347 H 0.16258 0.73646 0.18571 0.0
C348 C 0.29299 0.81832 0.21775 0.0
C349 C 0.2886 0.83342 0.18166 0.0
C350 C 0.31642 0.85531 0.15614 0.0
C351 C 0.3493 0.86242 0.16588 0.0
C352 C 0.35373 0.84788 0.20269 0.0
C353 C 0.32594 0.82609 0.22824 0.0
C354 C 0.26296 0.79211 0.24156 0.0
C355 C 0.23764 0.76685 0.21781 0.0
C356 C 0.26052 0.79037 0.28717 0.0
C357 C 0.28439 0.8176 0.31393 0.0
C358 C 0.28856 0.84706 0.30609 0.0
C359 C 0.31125 0.8729 0.33081 0.0
C360 C 0.33052 0.86994 0.36379 0.0
C361 C 0.32575 0.84017 0.37212 0.0
C362 C 0.30277 0.81422 0.34757 0.0
C363 C 0.18275 0.7075 0.30728 0.0
C364 C 0.19255 0.69396 0.33981 0.0
C365 C 0.16827 0.66685 0.36284 0.0
C366 C 0.13332 0.65229 0.35401 0.0
C367 C 0.12343 0.666 0.32163 0.0
C368 C 0.14787 0.6933 0.29855 0.0
C369 C 0.20927 0.73685 0.28374 0.0
C370 C 0.23399 0.7627 0.30763 0.0
C371 C 0.21102 0.73943 0.23816 0.0
C372 C 0.18748 0.71329 0.21013 0.0
C373 C 0.1909 0.68755 0.2057 0.0
C374 C 0.1731 0.66584 0.17332 0.0
C375 C 0.15138 0.66944 0.14532 0.0
C376 C 0.14688 0.69447 0.15116 0.0
C377 C 0.1651 0.71643 0.18304 0.0
H378 H 0.57669 0.33977 0.83879 0.0
H379 H 0.58244 0.3787 0.88969 0.0
H380 H 0.47331 0.33158 0.89427 0.0
H381 H 0.46772 0.29311 0.84246 0.0
H382 H 0.53416 0.26949 0.85637 0.0
H383 H 0.54438 0.35144 0.76012 0.0
H384 H 0.52713 0.38664 0.73233 0.0
H385 H 0.42911 0.306 0.6978 0.0
H386 H 0.44607 0.27071 0.72694 0.0
H387 H 0.45964 0.20373 0.69833 0.0
H388 H 0.45747 0.16736 0.64621 0.0
H389 H 0.55569 0.18866 0.68981 0.0
H390 H 0.55806 0.22541 0.74147 0.0
H391 H 0.49506 0.26187 0.70504 0.0
H392 H 0.47405 0.18046 0.80295 0.0
H393 H 0.47324 0.14189 0.85359 0.0
H394 H 0.57447 0.21236 0.89598 0.0
H395 H 0.57524 0.25084 0.8451 0.0
C396 C 0.5218 0.31371 0.83668 0.0
C397 C 0.55403 0.33798 0.85055 0.0
C398 C 0.55729 0.36021 0.87949 0.0
C399 C 0.52832 0.35808 0.89597 0.0
C400 C 0.49603 0.33363 0.88225 0.0
C401 C 0.49282 0.31178 0.85257 0.0
C402 C 0.51856 0.2897 0.80694 0.0
C403 C 0.52635 0.26808 0.8229 0.0
C404 C 0.50626 0.28689 0.76429 0.0
C405 C 0.49633 0.3084 0.74627 0.0
C406 C 0.51895 0.34127 0.74734 0.0
C407 C 0.50909 0.36138 0.73146 0.0
C408 C 0.47666 0.34899 0.71338 0.0
C409 C 0.45423 0.31611 0.71163 0.0
C410 C 0.46395 0.29599 0.72808 0.0
C411 C 0.50894 0.21741 0.72433 0.0
C412 C 0.48079 0.20067 0.69677 0.0
C413 C 0.4796 0.17986 0.6668 0.0
C414 C 0.50646 0.1751 0.66361 0.0
C415 C 0.53436 0.19143 0.69168 0.0
C416 C 0.53567 0.21244 0.72145 0.0
C417 C 0.51117 0.24128 0.75416 0.0
C418 C 0.50323 0.26308 0.73827 0.0
C419 C 0.52198 0.24345 0.79768 0.0
C420 C 0.52473 0.21854 0.82018 0.0
C421 C 0.49653 0.18733 0.82203 0.0
C422 C 0.49601 0.16535 0.85122 0.0
C423 C 0.52358 0.17433 0.87924 0.0
C424 C 0.55261 0.20501 0.87538 0.0
C425 C 0.5532 0.22689 0.84606 0.0
C426 C 0.08195 0.4524 0.04684 0.0
C427 C 0.06417 0.46652 0.05758 0.0
H428 H 0.11754 0.44027 0.06648 0.0
C429 C 0.0668 0.47689 0.09985 0.0
H430 H 0.08054 0.44426 0.01448 0.0
C431 C 0.08846 0.47482 0.12991 0.0
C432 C 0.10748 0.46195 0.11839 0.0
H433 H 0.05371 0.48819 0.1089 0.0
H434 H 0.09096 0.48399 0.16182 0.0
C435 C 0.10314 0.45001 0.0768 0.0
C436 C 0.58953 0.02945 0.60761 0.0
C437 C 0.55655 0.02358 0.60573 0.0
H438 H 0.64077 0.06015 0.62879 0.0
C439 C 0.54892 0.04171 0.6309 0.0
H440 H 0.59626 0.01585 0.58887 0.0
C441 C 0.57454 0.06724 0.65364 0.0
C442 C 0.60818 0.07492 0.65207 0.0
H443 H 0.52368 0.03756 0.63079 0.0
H444 H 0.5683 0.0818 0.67092 0.0
C445 C 0.61511 0.05491 0.63051 0.0
C446 C 0.60813 0.64415 0.16567 0.0
C447 C 0.57824 0.61955 0.14676 0.0
H448 H 0.63222 0.68788 0.1986 0.0
C449 C 0.54864 0.62025 0.14861 0.0
H450 H 0.63146 0.64457 0.16445 0.0
C451 C 0.54896 0.64497 0.16846 0.0
C452 C 0.57895 0.66985 0.18689 0.0
H453 H 0.52499 0.60143 0.13518 0.0
H454 H 0.5255 0.64435 0.16975 0.0
C455 C 0.60851 0.669 0.18536 0.0
C456 C 0.95775 0.55093 0.66702 0.0
C457 C 0.95496 0.52306 0.65487 0.0
H458 H 0.93264 0.57179 0.69322 0.0
C459 C 0.9249 0.49394 0.66424 0.0
H460 H 0.98052 0.57368 0.65968 0.0
C461 C 0.8976 0.49272 0.68386 0.0
C462 C 0.89959 0.52065 0.69407 0.0
H463 H 0.92235 0.4721 0.65564 0.0
H464 H 0.87476 0.46985 0.69048 0.0
C465 C 0.93026 0.54977 0.68621 0.0
C466 C 0.43166 0.89815 0.10244 0.0
C467 C 0.43651 0.9267 0.08619 0.0
H468 H 0.40053 0.85561 0.13982 0.0
C469 C 0.41147 0.93323 0.09458 0.0
H470 H 0.4503 0.89223 0.09665 0.0
C471 C 0.38291 0.9122 0.11973 0.0
C472 C 0.37875 0.88421 0.13729 0.0
H473 H 0.4144 0.95503 0.08279 0.0
H474 H 0.36464 0.91839 0.12656 0.0
C475 C 0.40323 0.87725 0.12766 0.0
C476 C 0.46775 0.41898 0.69694 0.0
C477 C 0.45618 0.41514 0.65411 0.0
H478 H 0.48354 0.40094 0.74934 0.0
C479 C 0.44854 0.38803 0.63239 0.0
H480 H 0.47416 0.43985 0.71417 0.0
C481 C 0.45373 0.36577 0.65243 0.0
C482 C 0.46713 0.37048 0.69439 0.0
H483 H 0.43953 0.38461 0.59937 0.0
H484 H 0.44881 0.34567 0.63435 0.0
C485 C 0.47344 0.39693 0.71682 0.0
C486 C 0.54376 0.93916 0.43235 0.0
C487 C 0.54804 0.96433 0.40607 0.0
H488 H 0.5451 0.89732 0.43675 0.0
C489 C 0.55744 0.96635 0.36271 0.0
H490 H 0.53686 0.93718 0.46598 0.0
C491 C 0.56183 0.94331 0.34583 0.0
C492 C 0.5576 0.91817 0.37221 0.0
H493 H 0.56073 0.98539 0.34171 0.0
H494 H 0.56879 0.94529 0.31222 0.0
C495 C 0.54874 0.9165 0.41572 0.0
C496 C 0.64081 0.58355 0.93465 0.0
C497 C 0.60536 0.56298 0.93744 0.0
H498 H 0.68681 0.59373 0.90589 0.0
C499 C 0.58862 0.53895 0.90722 0.0
H500 H 0.65456 0.60236 0.95731 0.0
C501 C 0.60724 0.53408 0.8772 0.0
C502 C 0.64297 0.55318 0.87671 0.0
H503 H 0.5613 0.52273 0.9083 0.0
H504 H 0.59369 0.51466 0.85539 0.0
C505 C 0.65937 0.57864 0.90486 0.0
C506 C 0.05566 0.59361 0.42234 0.0
C507 C 0.06492 0.57264 0.43713 0.0
H508 H 0.07029 0.63571 0.38478 0.0
C509 C 0.09452 0.57603 0.42076 0.0
H510 H 0.03323 0.59177 0.43502 0.0
C511 C 0.11545 0.60072 0.39193 0.0
C512 C 0.10783 0.62328 0.3793 0.0
H513 H 0.10227 0.5602 0.43171 0.0
H514 H 0.13832 0.60271 0.38068 0.0
C515 C 0.07701 0.61881 0.39369 0.0
C516 C 0.52888 0.14235 0.98948 0.0
C517 C 0.51607 0.11065 0.9809 0.0
H518 H 0.54146 0.1874 0.96389 0.0
C519 C 0.50543 0.09997 0.93872 0.0
H520 H 0.53746 0.15126 0.02156 0.0
C521 C 0.50791 0.1206 0.9057 0.0
C522 C 0.52126 0.15241 0.91409 0.0
H523 H 0.49503 0.07556 0.93121 0.0
H524 H 0.49975 0.11173 0.87349 0.0
C525 C 0.53158 0.16307 0.95635 0.0
C526 C 0.42416 0.48048 0.40617 0.0
C527 C 0.41555 0.48081 0.44938 0.0
H528 H 0.41061 0.48001 0.33917 0.0
C529 C 0.38491 0.47864 0.45779 0.0
H530 H 0.44758 0.48215 0.39858 0.0
C531 C 0.36427 0.47777 0.42422 0.0
C532 C 0.37338 0.4788 0.38108 0.0
H533 H 0.37712 0.47846 0.49055 0.0
H534 H 0.34123 0.47679 0.43207 0.0
C535 C 0.40308 0.47931 0.37222 0.0
C536 C 0.95177 0.40513 0.81641 0.0
C537 C 0.95284 0.40776 0.86152 0.0
H538 H 0.92309 0.3785 0.76164 0.0
C539 C 0.9257 0.3838 0.88627 0.0
H540 H 0.97213 0.42329 0.79642 0.0
C541 C 0.89771 0.35837 0.86645 0.0
C542 C 0.89613 0.35614 0.82135 0.0
H543 H 0.92604 0.38466 0.92111 0.0
H544 H 0.87725 0.34035 0.88655 0.0
C545 C 0.92368 0.37953 0.79651 0.0
C546 C 0.91294 0.50633 0.96058 0.0
C547 C 0.93385 0.50372 0.9313 0.0
H548 H 0.86857 0.50854 0.96856 0.0
C549 C 0.92463 0.49947 0.88748 0.0
H550 H 0.91958 0.50983 0.99448 0.0
C551 C 0.89563 0.49829 0.87294 0.0
C552 C 0.87509 0.50176 0.90165 0.0
H553 H 0.9401 0.49725 0.86408 0.0
H554 H 0.88978 0.49554 0.83876 0.0
C555 C 0.88397 0.50579 0.94573 0.0
C556 C 0.38885 0.92231 0.45347 0.0
C557 C 0.4091 0.95135 0.43116 0.0
H558 H 0.34777 0.87388 0.45 0.0
C559 C 0.40215 0.95367 0.38739 0.0
H560 H 0.39356 0.91974 0.48721 0.0
C561 C 0.3764 0.92744 0.36599 0.0
C562 C 0.3566 0.89814 0.3878 0.0
H563 H 0.41727 0.97561 0.36907 0.0
H564 H 0.37283 0.93 0.33185 0.0
C565 C 0.36284 0.89597 0.43201 0.0
C566 C 0.55619 0.43552 0.94859 0.0
C567 C 0.53827 0.42516 0.98783 0.0
H568 H 0.5674 0.42241 0.88905 0.0
C569 C 0.5173 0.39257 0.99682 0.0
H570 H 0.57262 0.4605 0.94092 0.0
C571 C 0.51382 0.3708 0.96682 0.0
C572 C 0.53182 0.38118 0.92766 0.0
H573 H 0.50296 0.38396 0.02659 0.0
H574 H 0.49726 0.34581 0.97438 0.0
C575 C 0.55329 0.41377 0.91902 0.0
C576 C 0.11065 0.46127 0.46394 0.0
C577 C 0.09446 0.4777 0.4568 0.0
H578 H 0.14136 0.44623 0.43695 0.0
C579 C 0.09702 0.49184 0.41599 0.0
H580 H 0.10891 0.45008 0.49504 0.0
C581 C 0.11549 0.48975 0.38304 0.0
C582 C 0.13155 0.47322 0.39003 0.0
H583 H 0.08517 0.50499 0.40967 0.0
H584 H 0.11715 0.50101 0.35199 0.0
C585 C 0.12886 0.45883 0.43068 0.0
C586 C 0.63366 0.07986 0.96147 0.0
C587 C 0.59842 0.05909 0.95626 0.0
H588 H 0.68066 0.11607 0.93362 0.0
C589 C 0.58421 0.05683 0.91517 0.0
H590 H 0.64545 0.08222 0.99272 0.0
C591 C 0.6047 0.07637 0.8807 0.0
C592 C 0.63978 0.09846 0.88666 0.0
H593 H 0.55709 0.04125 0.91023 0.0
H594 H 0.5929 0.07471 0.84969 0.0
C595 C 0.65399 0.09925 0.92731 0.0
C596 C 0.53856 0.6481 0.50089 0.0
C597 C 0.52384 0.61729 0.4859 0.0
H598 H 0.55622 0.69623 0.48538 0.0
C599 C 0.51544 0.61205 0.44178 0.0
H600 H 0.54545 0.65335 0.53441 0.0
C601 C 0.52249 0.63691 0.41338 0.0
C602 C 0.53763 0.66772 0.42827 0.0
H603 H 0.50351 0.5888 0.42864 0.0
H604 H 0.51661 0.63195 0.37952 0.0
C605 C 0.54518 0.67292 0.47251 0.0
C606 C 0.51522 0.11267 0.61019 0.0
C607 C 0.50358 0.11266 0.56797 0.0
H608 H 0.52524 0.13215 0.67326 0.0
C609 C 0.49317 0.13355 0.55747 0.0
H610 H 0.52383 0.0972 0.61933 0.0
C611 C 0.494 0.15363 0.58843 0.0
C612 C 0.50557 0.1536 0.63068 0.0
H613 H 0.48388 0.13406 0.52543 0.0
H614 H 0.48589 0.16946 0.5791 0.0
C615 C 0.51635 0.13295 0.64105 0.0
C616 C 0.44191 0.49506 0.14422 0.0
C617 C 0.44801 0.49699 0.09965 0.0
H618 H 0.40882 0.49118 0.1941 0.0
C619 C 0.42358 0.49514 0.07061 0.0
H620 H 0.46016 0.49646 0.16755 0.0
C621 C 0.39373 0.4917 0.08612 0.0
C622 C 0.3884 0.49075 0.13075 0.0
H623 H 0.42761 0.49651 0.03611 0.0
H624 H 0.37528 0.49059 0.06339 0.0
C625 C 0.41259 0.4922 0.15955 0.0
C626 C 0.89457 0.40439 0.55936 0.0
C627 C 0.92503 0.40545 0.55524 0.0
H628 H 0.84288 0.37761 0.58182 0.0
C629 C 0.92543 0.37851 0.56702 0.0
H630 H 0.8937 0.425 0.55116 0.0
C631 C 0.89664 0.35159 0.58441 0.0
C632 C 0.86662 0.35092 0.59103 0.0
H633 H 0.94862 0.37872 0.56448 0.0
H634 H 0.89858 0.33192 0.59493 0.0
C635 C 0.86567 0.37742 0.57742 0.0
C636 C 0.59676 0.96556 0.11928 0.0
C637 C 0.5885 0.98098 0.14901 0.0
H638 H 0.60819 0.93031 0.10968 0.0
C639 C 0.58965 0.97475 0.19336 0.0
H640 H 0.59715 0.97032 0.08497 0.0
C641 C 0.59675 0.9523 0.2074 0.0
C642 C 0.6026 0.93543 0.17745 0.0
H643 H 0.58334 0.9859 0.21731 0.0
H644 H 0.59574 0.94684 0.24163 0.0
C645 C 0.60335 0.94277 0.13334 0.0
C646 C 0.58409 0.49519 0.58599 0.0
C647 C 0.59286 0.5231 0.56291 0.0
H648 H 0.59923 0.47288 0.6327 0.0
C649 C 0.62616 0.54957 0.56672 0.0
H650 H 0.55857 0.47444 0.58425 0.0
C651 C 0.64965 0.54862 0.59431 0.0
C652 C 0.64042 0.52127 0.61924 0.0
H653 H 0.63386 0.57142 0.54931 0.0
H654 H 0.67494 0.5696 0.59656 0.0
C655 C 0.60751 0.49432 0.61391 0.0
C656 C 0.13767 0.62192 0.04616 0.0
C657 C 0.10258 0.60721 0.03949 0.0
H658 H 0.18055 0.65284 0.08554 0.0
C659 C 0.08374 0.6135 0.0674 0.0
H660 H 0.15265 0.61715 0.02539 0.0
C661 C 0.09962 0.63391 0.10159 0.0
C662 C 0.13455 0.64799 0.10893 0.0
H663 H 0.05666 0.60246 0.06279 0.0
H664 H 0.0845 0.63824 0.1228 0.0
C665 C 0.15348 0.64194 0.08081 0.0
loop_
_geom_bond_atom_site_label_1
_geom_bond_atom_site_label_2
_geom_bond_distance
_geom_bond_site_symmetry_2
_ccdc_geom_bond_type
Cu0 N1 1.999 1_454 S
Cu0 O6 1.962 1_454 S
Cu0 N11 1.986 . S
Cu0 O20 1.970 . S
N1 Cu0 1.999 1_656 S
N1 C3 1.263 . S
N1 C5 1.389 1_556 S
N2 C3 1.358 . S
N2 C4 1.400 . S
C3 N1 1.263 . S
C3 N2 1.358 . S
C3 H9 0.930 . S
C4 N2 1.400 . S
C4 C5 1.351 1_556 S
C4 H21 0.930 . S
C5 N1 1.389 1_554 S
C5 C4 1.351 1_554 S
C5 H10 0.930 . S
O6 Cu0 1.962 1_656 S
O6 C16 1.282 . S
C7 O8 1.261 1_554 S
C7 O20 1.251 . S
O8 C7 1.261 1_556 S
H9 C3 0.930 . S
H10 C5 0.930 . S
N11 Cu0 1.986 . S
N11 C13 1.335 . S
N11 C14 1.390 . S
N12 C13 1.345 . S
N12 C15 1.336 . S
C13 N11 1.335 . S
C13 N12 1.345 . S
C13 H18 0.930 . S
C14 N11 1.390 . S
C14 C15 1.346 . S
C14 H19 0.930 1_554 S
C15 N12 1.336 . S
C15 C14 1.346 . S
C15 H22 0.929 . S
C16 O6 1.282 . S
C16 O17 1.216 1_655 S
O17 C16 1.216 1_455 S
H18 C13 0.930 . S
H19 C14 0.930 1_556 S
O20 Cu0 1.970 . S
O20 C7 1.251 . S
H21 C4 0.930 . S
H22 C15 0.929 . S
Cu23 N24 1.999 . S
Cu23 O29 1.974 . S
Cu23 N34 1.985 1_565 S
Cu23 O43 1.959 1_565 S
N24 Cu23 1.999 . S
N24 C26 1.263 . S
N24 C28 1.389 . S
N25 C26 1.358 . S
N25 C27 1.400 . S
C26 N24 1.263 . S
C26 N25 1.358 . S
C26 H32 0.930 . S
C27 N25 1.400 . S
C27 C28 1.351 . S
C27 H44 0.930 . S
C28 N24 1.389 . S
C28 C27 1.351 . S
C28 H33 0.930 . S
O29 Cu23 1.974 . S
O29 C39 1.282 . S
C30 O31 1.261 . S
C30 O43 1.251 . S
O31 C30 1.261 . S
H32 C26 0.930 . S
H33 C28 0.930 . S
N34 Cu23 1.985 1_545 S
N34 C36 1.335 . S
N34 C37 1.390 . S
N35 C36 1.345 . S
N35 C38 1.336 . S
C36 N34 1.335 . S
C36 N35 1.345 . S
C36 H41 0.930 . S
C37 N34 1.390 . S
C37 C38 1.346 . S
C37 H42 0.930 . S
C38 N35 1.336 . S
C38 C37 1.346 . S
C38 H45 0.929 . S
C39 O29 1.282 . S
C39 O40 1.216 . S
O40 C39 1.216 . S
H41 C36 0.930 . S
H42 C37 0.930 . S
O43 Cu23 1.959 1_545 S
O43 C30 1.251 . S
H44 C27 0.930 . S
H45 C38 0.929 . S
Cu46 N47 1.999 1_554 S
Cu46 O52 1.974 1_554 S
Cu46 N57 1.985 . S
Cu46 O66 1.959 . S
N47 Cu46 1.999 1_556 S
N47 C49 1.263 . S
N47 C51 1.389 . S
N48 C49 1.358 . S
N48 C50 1.400 . S
C49 N47 1.263 . S
C49 N48 1.358 . S
C49 H55 0.930 . S
C50 N48 1.400 . S
C50 C51 1.351 . S
C50 H67 0.930 . S
C51 N47 1.389 . S
C51 C50 1.351 . S
C51 H56 0.930 . S
O52 Cu46 1.974 1_556 S
O52 C62 1.282 . S
C53 O54 1.261 . S
C53 O66 1.251 . S
O54 C53 1.261 . S
H55 C49 0.930 . S
H56 C51 0.930 . S
N57 Cu46 1.985 . S
N57 C59 1.335 . S
N57 C60 1.390 . S
N58 C59 1.345 . S
N58 C61 1.336 . S
C59 N57 1.335 . S
C59 N58 1.345 . S
C59 H64 0.930 . S
C60 N57 1.390 . S
C60 C61 1.346 . S
C60 H65 0.930 . S
C61 N58 1.336 . S
C61 C60 1.346 . S
C61 H68 0.929 . S
C62 O52 1.282 . S
C62 O63 1.216 1_556 S
O63 C62 1.216 1_554 S
H64 C59 0.930 . S
H65 C60 0.930 . S
O66 Cu46 1.959 . S
O66 C53 1.251 . S
H67 C50 0.930 . S
H68 C61 0.929 . S
Cu69 N70 1.999 1_655 S
Cu69 O75 1.974 1_655 S
Cu69 N80 1.985 . S
Cu69 O89 1.959 . S
N70 Cu69 1.999 1_455 S
N70 C72 1.263 . S
N70 C74 1.389 1_455 S
N71 C72 1.358 . S
N71 C73 1.400 . S
C72 N70 1.263 . S
C72 N71 1.358 . S
C72 H78 0.930 . S
C73 N71 1.400 . S
C73 C74 1.351 1_455 S
C73 H90 0.930 . S
C74 N70 1.389 1_655 S
C74 C73 1.351 1_655 S
C74 H79 0.930 . S
O75 Cu69 1.974 1_455 S
O75 C85 1.282 . S
C76 O77 1.261 . S
C76 O89 1.251 . S
O77 C76 1.261 . S
H78 C72 0.930 . S
H79 C74 0.930 . S
N80 Cu69 1.985 . S
N80 C82 1.335 . S
N80 C83 1.390 . S
N81 C82 1.345 . S
N81 C84 1.336 . S
C82 N80 1.335 . S
C82 N81 1.345 . S
C82 H87 0.930 . S
C83 N80 1.390 . S
C83 C84 1.346 . S
C83 H88 0.930 1_655 S
C84 N81 1.336 . S
C84 C83 1.346 . S
C84 H91 0.929 . S
C85 O75 1.282 . S
C85 O86 1.216 . S
O86 C85 1.216 . S
H87 C82 0.930 . S
H88 C83 0.930 1_455 S
O89 Cu69 1.959 . S
O89 C76 1.251 . S
H90 C73 0.930 . S
H91 C84 0.929 . S
Cu92 N93 1.999 . S
Cu92 O98 1.974 1_554 S
Cu92 N103 1.985 1_545 S
Cu92 O112 1.959 1_545 S
N93 Cu92 1.999 . S
N93 C95 1.263 1_554 S
N93 C97 1.389 . S
N94 C95 1.358 . S
N94 C96 1.400 1_556 S
C95 N93 1.263 1_556 S
C95 N94 1.358 . S
C95 H101 0.930 . S
C96 N94 1.400 1_554 S
C96 C97 1.351 . S
C96 H113 0.930 . S
C97 N93 1.389 . S
C97 C96 1.351 . S
C97 H102 0.930 . S
O98 Cu92 1.974 1_556 S
O98 C108 1.282 . S
C99 O100 1.261 . S
C99 O112 1.251 . S
O100 C99 1.261 . S
H101 C95 0.930 . S
H102 C97 0.930 . S
N103 Cu92 1.985 1_565 S
N103 C105 1.335 . S
N103 C106 1.390 . S
N104 C105 1.345 . S
N104 C107 1.336 . S
C105 N103 1.335 . S
C105 N104 1.345 . S
C105 H110 0.930 . S
C106 N103 1.390 . S
C106 C107 1.346 . S
C106 H111 0.923 1_565 S
C107 N104 1.336 . S
C107 C106 1.346 . S
C107 H114 0.929 . S
C108 O98 1.282 . S
C108 O109 1.216 . S
O109 C108 1.216 . S
H110 C105 0.930 . S
H111 C106 0.923 1_545 S
O112 Cu92 1.959 1_565 S
O112 C99 1.251 . S
H113 C96 0.930 . S
H114 C107 0.929 . S
Cu115 N116 1.999 . S
Cu115 O121 1.974 . S
Cu115 N126 1.985 . S
Cu115 O135 1.959 . S
N116 Cu115 1.999 . S
N116 C118 1.263 . S
N116 C120 1.389 . S
N117 C118 1.358 . S
N117 C119 1.400 . S
C118 N116 1.263 . S
C118 N117 1.358 . S
C118 H124 0.930 . S
C119 N117 1.400 . S
C119 C120 1.351 . S
C119 H136 0.930 . S
C120 N116 1.389 . S
C120 C119 1.351 . S
C120 H125 0.930 . S
O121 Cu115 1.974 . S
O121 C131 1.282 . S
C122 O123 1.261 . S
C122 O135 1.251 . S
O123 C122 1.261 . S
H124 C118 0.930 . S
H125 C120 0.930 . S
N126 Cu115 1.985 . S
N126 C128 1.335 . S
N126 C129 1.390 . S
N127 C128 1.345 . S
N127 C130 1.336 . S
C128 N126 1.335 . S
C128 N127 1.345 . S
C128 H133 0.930 . S
C129 N126 1.390 . S
C129 C130 1.346 . S
C129 H134 0.930 . S
C130 N127 1.336 . S
C130 C129 1.346 . S
C130 H137 0.929 . S
C131 O121 1.282 . S
C131 O132 1.216 . S
O132 C131 1.216 . S
H133 C128 0.930 . S
H134 C129 0.930 . S
O135 Cu115 1.959 . S
O135 C122 1.251 . S
H136 C119 0.930 . S
H137 C130 0.929 . S
H138 C157 0.949 . S
H139 C158 0.950 . S
H140 C160 0.950 . S
H141 C161 0.950 . S
H142 C163 0.950 . S
H143 C166 0.950 . S
H144 C167 0.950 . S
H145 C169 0.951 . S
H146 C170 0.949 . S
H147 C172 0.949 . S
H148 C173 0.950 . S
H149 C175 0.950 . S
H150 C176 0.950 . S
H151 C178 0.950 . S
H152 C181 0.950 . S
H153 C182 0.950 . S
H154 C184 0.951 . S
H155 C185 0.949 . S
C156 C157 1.376 . S
C156 C161 1.386 . S
C156 C162 1.483 . S
C157 H138 0.949 . S
C157 C156 1.376 . S
C157 C158 1.397 . S
C158 H139 0.950 . S
C158 C157 1.397 . S
C158 C159 1.391 . S
C159 C158 1.391 . S
C159 C160 1.405 . S
C160 H140 0.950 . S
C160 C159 1.405 . S
C160 C161 1.367 . S
C161 H141 0.950 . S
C161 C156 1.386 . S
C161 C160 1.367 . S
C162 C156 1.483 . S
C162 C163 1.382 . S
C162 C164 1.403 . S
C163 H142 0.950 . S
C163 C162 1.382 . S
C163 C179 1.411 . S
C164 C162 1.403 . S
C164 C165 1.489 . S
C164 C178 1.411 . S
C165 C164 1.489 . S
C165 C166 1.383 . S
C165 C170 1.382 . S
C166 H143 0.950 . S
C166 C165 1.383 . S
C166 C167 1.395 . S
C167 H144 0.950 . S
C167 C166 1.395 . S
C167 C168 1.288 . S
C168 C167 1.288 . S
C168 C169 1.392 . S
C169 H145 0.951 . S
C169 C168 1.392 . S
C169 C170 1.392 . S
C170 H146 0.949 . S
C170 C165 1.382 . S
C170 C169 1.392 . S
C171 C172 1.376 . S
C171 C176 1.386 . S
C171 C177 1.483 . S
C172 H147 0.949 . S
C172 C171 1.376 . S
C172 C173 1.397 . S
C173 H148 0.950 . S
C173 C172 1.397 . S
C173 C174 1.391 . S
C174 C173 1.391 . S
C174 C175 1.405 . S
C175 H149 0.950 . S
C175 C174 1.405 . S
C175 C176 1.367 . S
C176 H150 0.950 . S
C176 C171 1.386 . S
C176 C175 1.367 . S
C177 C171 1.483 . S
C177 C178 1.382 . S
C177 C179 1.403 . S
C178 H151 0.950 . S
C178 C164 1.411 . S
C178 C177 1.382 . S
C179 C163 1.411 . S
C179 C177 1.403 . S
C179 C180 1.489 . S
C180 C179 1.489 . S
C180 C181 1.383 . S
C180 C185 1.382 . S
C181 H152 0.950 . S
C181 C180 1.383 . S
C181 C182 1.395 . S
C182 H153 0.950 . S
C182 C181 1.395 . S
C182 C183 1.288 . S
C183 C182 1.288 . S
C183 C184 1.392 . S
C184 H154 0.951 . S
C184 C183 1.392 . S
C184 C185 1.392 . S
C185 H155 0.949 . S
C185 C180 1.382 . S
C185 C184 1.392 . S
H186 C205 0.949 . S
H187 C206 0.950 . S
H188 C208 0.950 . S
H189 C209 0.950 . S
H190 C211 0.950 . S
H191 C214 0.950 . S
H192 C215 0.950 . S
H193 C217 0.951 . S
H194 C218 0.949 . S
H195 C220 0.949 . S
H196 C221 0.950 . S
H197 C223 0.950 . S
H198 C224 0.950 . S
H199 C226 0.950 . S
H200 C229 0.950 . S
H201 C230 0.950 . S
H202 C232 0.951 . S
H203 C233 0.949 . S
C204 C205 1.376 . S
C204 C209 1.386 . S
C204 C210 1.483 . S
C205 H186 0.949 . S
C205 C204 1.376 . S
C205 C206 1.397 . S
C206 H187 0.950 . S
C206 C205 1.397 . S
C206 C207 1.391 . S
C207 C206 1.391 . S
C207 C208 1.405 . S
C208 H188 0.950 . S
C208 C207 1.405 . S
C208 C209 1.367 . S
C209 H189 0.950 . S
C209 C204 1.386 . S
C209 C208 1.367 . S
C210 C204 1.483 . S
C210 C211 1.382 . S
C210 C212 1.403 . S
C211 H190 0.950 . S
C211 C210 1.382 . S
C211 C227 1.411 . S
C212 C210 1.403 . S
C212 C213 1.489 . S
C212 C226 1.411 . S
C213 C212 1.489 . S
C213 C214 1.383 . S
C213 C218 1.382 . S
C214 H191 0.950 . S
C214 C213 1.383 . S
C214 C215 1.395 . S
C215 H192 0.950 . S
C215 C214 1.395 . S
C215 C216 1.288 . S
C216 C215 1.288 . S
C216 C217 1.392 . S
C217 H193 0.951 . S
C217 C216 1.392 . S
C217 C218 1.392 . S
C218 H194 0.949 . S
C218 C213 1.382 . S
C218 C217 1.392 . S
C219 C220 1.376 . S
C219 C224 1.386 . S
C219 C225 1.483 . S
C220 H195 0.949 . S
C220 C219 1.376 . S
C220 C221 1.397 . S
C221 H196 0.950 . S
C221 C220 1.397 . S
C221 C222 1.391 . S
C222 C221 1.391 . S
C222 C223 1.405 . S
C223 H197 0.950 . S
C223 C222 1.405 . S
C223 C224 1.367 . S
C224 H198 0.950 . S
C224 C219 1.386 . S
C224 C223 1.367 . S
C225 C219 1.483 . S
C225 C226 1.382 . S
C225 C227 1.403 . S
C226 H199 0.950 . S
C226 C212 1.411 . S
C226 C225 1.382 . S
C227 C211 1.411 . S
C227 C225 1.403 . S
C227 C228 1.489 . S
C228 C227 1.489 . S
C228 C229 1.383 . S
C228 C233 1.382 . S
C229 H200 0.950 . S
C229 C228 1.383 . S
C229 C230 1.395 . S
C230 H201 0.950 . S
C230 C229 1.395 . S
C230 C231 1.288 . S
C231 C230 1.288 . S
C231 C232 1.392 . S
C232 H202 0.951 . S
C232 C231 1.392 . S
C232 C233 1.392 . S
C233 H203 0.949 . S
C233 C228 1.382 . S
C233 C232 1.392 . S
H234 C253 0.949 . S
H235 C254 0.950 . S
H236 C256 0.950 . S
H237 C257 0.950 . S
H238 C259 0.950 . S
H239 C262 0.950 . S
H240 C263 0.950 . S
H241 C265 0.951 . S
H242 C266 0.949 . S
H243 C268 0.949 . S
H244 C269 0.950 . S
H245 C271 0.950 . S
H246 C272 0.950 . S
H247 C274 0.950 . S
H248 C277 0.950 . S
H249 C278 0.950 . S
H250 C280 0.951 . S
H251 C281 0.949 . S
C252 C253 1.376 . S
C252 C257 1.386 . S
C252 C258 1.483 . S
C253 H234 0.949 . S
C253 C252 1.376 . S
C253 C254 1.397 . S
C254 H235 0.950 . S
C254 C253 1.397 . S
C254 C255 1.391 . S
C255 C254 1.391 . S
C255 C256 1.405 . S
C256 H236 0.950 . S
C256 C255 1.405 . S
C256 C257 1.367 . S
C257 H237 0.950 . S
C257 C252 1.386 . S
C257 C256 1.367 . S
C258 C252 1.483 . S
C258 C259 1.382 . S
C258 C260 1.403 . S
C259 H238 0.950 . S
C259 C258 1.382 . S
C259 C275 1.411 . S
C260 C258 1.403 . S
C260 C261 1.489 . S
C260 C274 1.411 . S
C261 C260 1.489 . S
C261 C262 1.383 . S
C261 C266 1.382 . S
C262 H239 0.950 . S
C262 C261 1.383 . S
C262 C263 1.395 . S
C263 H240 0.950 . S
C263 C262 1.395 . S
C263 C264 1.288 . S
C264 C263 1.288 . S
C264 C265 1.392 . S
C265 H241 0.951 . S
C265 C264 1.392 . S
C265 C266 1.392 . S
C266 H242 0.949 . S
C266 C261 1.382 . S
C266 C265 1.392 . S
C267 C268 1.376 . S
C267 C272 1.386 . S
C267 C273 1.483 . S
C268 H243 0.949 . S
C268 C267 1.376 . S
C268 C269 1.397 . S
C269 H244 0.950 . S
C269 C268 1.397 . S
C269 C270 1.391 . S
C270 C269 1.391 . S
C270 C271 1.405 . S
C271 H245 0.950 . S
C271 C270 1.405 . S
C271 C272 1.367 . S
C272 H246 0.950 . S
C272 C267 1.386 . S
C272 C271 1.367 . S
C273 C267 1.483 . S
C273 C274 1.382 . S
C273 C275 1.403 . S
C274 H247 0.950 . S
C274 C260 1.411 . S
C274 C273 1.382 . S
C275 C259 1.411 . S
C275 C273 1.403 . S
C275 C276 1.489 . S
C276 C275 1.489 . S
C276 C277 1.383 . S
C276 C281 1.382 . S
C277 H248 0.950 . S
C277 C276 1.383 . S
C277 C278 1.395 . S
C278 H249 0.950 . S
C278 C277 1.395 . S
C278 C279 1.288 . S
C279 C278 1.288 . S
C279 C280 1.392 . S
C280 H250 0.951 . S
C280 C279 1.392 . S
C280 C281 1.392 . S
C281 H251 0.949 . S
C281 C276 1.382 . S
C281 C280 1.392 . S
H282 C301 0.949 . S
H283 C302 0.950 . S
H284 C304 0.950 . S
H285 C305 0.950 . S
H286 C307 0.950 . S
H287 C310 0.950 . S
H288 C311 0.950 . S
H289 C313 0.951 . S
H290 C314 0.949 . S
H291 C316 0.949 . S
H292 C317 0.950 . S
H293 C319 0.950 . S
H294 C320 0.950 . S
H295 C322 0.950 . S
H296 C325 0.950 . S
H297 C326 0.950 . S
H298 C328 0.951 . S
H299 C329 0.949 . S
C300 C301 1.376 . S
C300 C305 1.386 . S
C300 C306 1.483 . S
C301 H282 0.949 . S
C301 C300 1.376 . S
C301 C302 1.397 . S
C302 H283 0.950 . S
C302 C301 1.397 . S
C302 C303 1.391 . S
C303 C302 1.391 . S
C303 C304 1.405 . S
C304 H284 0.950 . S
C304 C303 1.405 . S
C304 C305 1.367 . S
C305 H285 0.950 . S
C305 C300 1.386 . S
C305 C304 1.367 . S
C306 C300 1.483 . S
C306 C307 1.382 . S
C306 C308 1.403 . S
C307 H286 0.950 . S
C307 C306 1.382 . S
C307 C323 1.411 . S
C308 C306 1.403 . S
C308 C309 1.489 . S
C308 C322 1.411 . S
C309 C308 1.489 . S
C309 C310 1.383 . S
C309 C314 1.382 . S
C310 H287 0.950 . S
C310 C309 1.383 . S
C310 C311 1.395 . S
C311 H288 0.950 . S
C311 C310 1.395 . S
C311 C312 1.288 . S
C312 C311 1.288 . S
C312 C313 1.392 . S
C313 H289 0.951 . S
C313 C312 1.392 . S
C313 C314 1.392 . S
C314 H290 0.949 . S
C314 C309 1.382 . S
C314 C313 1.392 . S
C315 C316 1.376 . S
C315 C320 1.386 . S
C315 C321 1.483 . S
C316 H291 0.949 . S
C316 C315 1.376 . S
C316 C317 1.397 . S
C317 H292 0.950 . S
C317 C316 1.397 . S
C317 C318 1.391 . S
C318 C317 1.391 . S
C318 C319 1.405 . S
C319 H293 0.950 . S
C319 C318 1.405 . S
C319 C320 1.367 . S
C320 H294 0.950 . S
C320 C315 1.386 . S
C320 C319 1.367 . S
C321 C315 1.483 . S
C321 C322 1.382 . S
C321 C323 1.403 . S
C322 H295 0.950 . S
C322 C308 1.411 . S
C322 C321 1.382 . S
C323 C307 1.411 . S
C323 C321 1.403 . S
C323 C324 1.489 . S
C324 C323 1.489 . S
C324 C325 1.383 . S
C324 C329 1.382 . S
C325 H296 0.950 . S
C325 C324 1.383 . S
C325 C326 1.395 . S
C326 H297 0.950 . S
C326 C325 1.395 . S
C326 C327 1.288 . S
C327 C326 1.288 . S
C327 C328 1.392 . S
C328 H298 0.951 . S
C328 C327 1.392 . S
C328 C329 1.392 . S
C329 H299 0.949 . S
C329 C324 1.382 . S
C329 C328 1.392 . S
H330 C349 0.949 . S
H331 C350 0.950 . S
H332 C352 0.950 . S
H333 C353 0.950 . S
H334 C355 0.950 . S
H335 C358 0.950 . S
H336 C359 0.950 . S
H337 C361 0.951 . S
H338 C362 0.949 . S
H339 C364 0.949 . S
H340 C365 0.950 . S
H341 C367 0.950 . S
H342 C368 0.950 . S
H343 C370 0.950 . S
H344 C373 0.950 . S
H345 C374 0.950 . S
H346 C376 0.951 . S
H347 C377 0.949 . S
C348 C349 1.376 . S
C348 C353 1.386 . S
C348 C354 1.483 . S
C349 H330 0.949 . S
C349 C348 1.376 . S
C349 C350 1.397 . S
C350 H331 0.950 . S
C350 C349 1.397 . S
C350 C351 1.391 . S
C351 C350 1.391 . S
C351 C352 1.405 . S
C352 H332 0.950 . S
C352 C351 1.405 . S
C352 C353 1.367 . S
C353 H333 0.950 . S
C353 C348 1.386 . S
C353 C352 1.367 . S
C354 C348 1.483 . S
C354 C355 1.382 . S
C354 C356 1.403 . S
C355 H334 0.950 . S
C355 C354 1.382 . S
C355 C371 1.411 . S
C356 C354 1.403 . S
C356 C357 1.489 . S
C356 C370 1.411 . S
C357 C356 1.489 . S
C357 C358 1.383 . S
C357 C362 1.382 . S
C358 H335 0.950 . S
C358 C357 1.383 . S
C358 C359 1.395 . S
C359 H336 0.950 . S
C359 C358 1.395 . S
C359 C360 1.288 . S
C360 C359 1.288 . S
C360 C361 1.392 . S
C361 H337 0.951 . S
C361 C360 1.392 . S
C361 C362 1.392 . S
C362 H338 0.949 . S
C362 C357 1.382 . S
C362 C361 1.392 . S
C363 C364 1.376 . S
C363 C368 1.386 . S
C363 C369 1.483 . S
C364 H339 0.949 . S
C364 C363 1.376 . S
C364 C365 1.397 . S
C365 H340 0.950 . S
C365 C364 1.397 . S
C365 C366 1.391 . S
C366 C365 1.391 . S
C366 C367 1.405 . S
C367 H341 0.950 . S
C367 C366 1.405 . S
C367 C368 1.367 . S
C368 H342 0.950 . S
C368 C363 1.386 . S
C368 C367 1.367 . S
C369 C363 1.483 . S
C369 C370 1.382 . S
C369 C371 1.403 . S
C370 H343 0.950 . S
C370 C356 1.411 . S
C370 C369 1.382 . S
C371 C355 1.411 . S
C371 C369 1.403 . S
C371 C372 1.489 . S
C372 C371 1.489 . S
C372 C373 1.383 . S
C372 C377 1.382 . S
C373 H344 0.950 . S
C373 C372 1.383 . S
C373 C374 1.395 . S
C374 H345 0.950 . S
C374 C373 1.395 . S
C374 C375 1.288 . S
C375 C374 1.288 . S
C375 C376 1.392 . S
C376 H346 0.951 . S
C376 C375 1.392 . S
C376 C377 1.392 . S
C377 H347 0.949 . S
C377 C372 1.382 . S
C377 C376 1.392 . S
H378 C397 0.949 . S
H379 C398 0.950 . S
H380 C400 0.950 . S
H381 C401 0.950 . S
H382 C403 0.950 . S
H383 C406 0.950 . S
H384 C407 0.950 . S
H385 C409 0.951 . S
H386 C410 0.949 . S
H387 C412 0.949 . S
H388 C413 0.950 . S
H389 C415 0.950 . S
H390 C416 0.950 . S
H391 C418 0.950 . S
H392 C421 0.950 . S
H393 C422 0.950 . S
H394 C424 0.951 . S
H395 C425 0.949 . S
C396 C397 1.376 . S
C396 C401 1.386 . S
C396 C402 1.483 . S
C397 H378 0.949 . S
C397 C396 1.376 . S
C397 C398 1.397 . S
C398 H379 0.950 . S
C398 C397 1.397 . S
C398 C399 1.391 . S
C399 C398 1.391 . S
C399 C400 1.405 . S
C400 H380 0.950 . S
C400 C399 1.405 . S
C400 C401 1.367 . S
C401 H381 0.950 . S
C401 C396 1.386 . S
C401 C400 1.367 . S
C402 C396 1.483 . S
C402 C403 1.382 . S
C402 C404 1.403 . S
C403 H382 0.950 . S
C403 C402 1.382 . S
C403 C419 1.411 . S
C404 C402 1.403 . S
C404 C405 1.489 . S
C404 C418 1.411 . S
C405 C404 1.489 . S
C405 C406 1.383 . S
C405 C410 1.382 . S
C406 H383 0.950 . S
C406 C405 1.383 . S
C406 C407 1.395 . S
C407 H384 0.950 . S
C407 C406 1.395 . S
C407 C408 1.288 . S
C408 C407 1.288 . S
C408 C409 1.392 . S
C409 H385 0.951 . S
C409 C408 1.392 . S
C409 C410 1.392 . S
C410 H386 0.949 . S
C410 C405 1.382 . S
C410 C409 1.392 . S
C411 C412 1.376 . S
C411 C416 1.386 . S
C411 C417 1.483 . S
C412 H387 0.949 . S
C412 C411 1.376 . S
C412 C413 1.397 . S
C413 H388 0.950 . S
C413 C412 1.397 . S
C413 C414 1.391 . S
C414 C413 1.391 . S
C414 C415 1.405 . S
C415 H389 0.950 . S
C415 C414 1.405 . S
C415 C416 1.367 . S
C416 H390 0.950 . S
C416 C411 1.386 . S
C416 C415 1.367 . S
C417 C411 1.483 . S
C417 C418 1.382 . S
C417 C419 1.403 . S
C418 H391 0.950 . S
C418 C404 1.411 . S
C418 C417 1.382 . S
C419 C403 1.411 . S
C419 C417 1.403 . S
C419 C420 1.489 . S
C420 C419 1.489 . S
C420 C421 1.383 . S
C420 C425 1.382 . S
C421 H392 0.950 . S
C421 C420 1.383 . S
C421 C422 1.395 . S
C422 H393 0.950 . S
C422 C421 1.395 . S
C422 C423 1.288 . S
C423 C422 1.288 . S
C423 C424 1.392 . S
C424 H394 0.951 . S
C424 C423 1.392 . S
C424 C425 1.392 . S
C425 H395 0.949 . S
C425 C420 1.382 . S
C425 C424 1.392 . S
C426 C427 1.387 . S
C426 H430 0.950 . S
C426 C435 1.390 . S
C427 C426 1.387 . S
C427 C429 1.387 . S
H428 C435 0.950 . S
C429 C427 1.387 . S
C429 C431 1.390 . S
C429 H433 0.950 . S
H430 C426 0.950 . S
C431 C429 1.390 . S
C431 C432 1.387 . S
C431 H434 0.950 . S
C432 C431 1.387 . S
C432 C435 1.387 . S
H433 C429 0.950 . S
H434 C431 0.950 . S
C435 C426 1.390 . S
C435 H428 0.950 . S
C435 C432 1.387 . S
C436 C437 1.387 . S
C436 H440 0.950 . S
C436 C445 1.390 . S
C437 C436 1.387 . S
C437 C439 1.387 . S
H438 C445 0.950 . S
C439 C437 1.387 . S
C439 C441 1.390 . S
C439 H443 0.950 . S
H440 C436 0.950 . S
C441 C439 1.390 . S
C441 C442 1.387 . S
C441 H444 0.950 . S
C442 C441 1.387 . S
C442 C445 1.387 . S
H443 C439 0.950 . S
H444 C441 0.950 . S
C445 C436 1.390 . S
C445 H438 0.950 . S
C445 C442 1.387 . S
C446 C447 1.387 . S
C446 H450 0.950 . S
C446 C455 1.390 . S
C447 C446 1.387 . S
C447 C449 1.387 . S
H448 C455 0.950 . S
C449 C447 1.387 . S
C449 C451 1.390 . S
C449 H453 0.950 . S
H450 C446 0.950 . S
C451 C449 1.390 . S
C451 C452 1.387 . S
C451 H454 0.950 . S
C452 C451 1.387 . S
C452 C455 1.387 . S
H453 C449 0.950 . S
H454 C451 0.950 . S
C455 C446 1.390 . S
C455 H448 0.950 . S
C455 C452 1.387 . S
C456 C457 1.387 . S
C456 H460 0.950 . S
C456 C465 1.390 . S
C457 C456 1.387 . S
C457 C459 1.387 . S
H458 C465 0.950 . S
C459 C457 1.387 . S
C459 C461 1.390 . S
C459 H463 0.950 . S
H460 C456 0.950 . S
C461 C459 1.390 . S
C461 C462 1.387 . S
C461 H464 0.950 . S
C462 C461 1.387 . S
C462 C465 1.387 . S
H463 C459 0.950 . S
H464 C461 0.950 . S
C465 C456 1.390 . S
C465 H458 0.950 . S
C465 C462 1.387 . S
C466 C467 1.387 . S
C466 H470 0.950 . S
C466 C475 1.390 . S
C467 C466 1.387 . S
C467 C469 1.387 . S
H468 C475 0.950 . S
C469 C467 1.387 . S
C469 C471 1.390 . S
C469 H473 0.950 . S
H470 C466 0.950 . S
C471 C469 1.390 . S
C471 C472 1.387 . S
C471 H474 0.950 . S
C472 C471 1.387 . S
C472 C475 1.387 . S
H473 C469 0.950 . S
H474 C471 0.950 . S
C475 C466 1.390 . S
C475 H468 0.950 . S
C475 C472 1.387 . S
C476 C477 1.387 . S
C476 H480 0.950 . S
C476 C485 1.390 . S
C477 C476 1.387 . S
C477 C479 1.387 . S
H478 C485 0.950 . S
C479 C477 1.387 . S
C479 C481 1.390 . S
C479 H483 0.950 . S
H480 C476 0.950 . S
C481 C479 1.390 . S
C481 C482 1.387 . S
C481 H484 0.950 . S
C482 C481 1.387 . S
C482 C485 1.387 . S
H483 C479 0.950 . S
H484 C481 0.950 . S
C485 C476 1.390 . S
C485 H478 0.950 . S
C485 C482 1.387 . S
C486 C487 1.387 . S
C486 H490 0.950 . S
C486 C495 1.390 . S
C487 C486 1.387 . S
C487 C489 1.387 . S
H488 C495 0.950 . S
C489 C487 1.387 . S
C489 C491 1.390 . S
C489 H493 0.950 . S
H490 C486 0.950 . S
C491 C489 1.390 . S
C491 C492 1.387 . S
C491 H494 0.950 . S
C492 C491 1.387 . S
C492 C495 1.387 . S
H493 C489 0.950 . S
H494 C491 0.950 . S
C495 C486 1.390 . S
C495 H488 0.950 . S
C495 C492 1.387 . S
C496 C497 1.387 . S
C496 H500 0.971 . S
C496 C505 1.390 . S
C497 C496 1.387 . S
C497 C499 1.387 . S
H498 C505 0.950 . S
C499 C497 1.387 . S
C499 C501 1.390 . S
C499 H503 0.950 . S
H500 C496 0.971 . S
C501 C499 1.390 . S
C501 C502 1.387 . S
C501 H504 0.950 . S
C502 C501 1.387 . S
C502 C505 1.387 . S
H503 C499 0.950 . S
H504 C501 0.950 . S
C505 C496 1.390 . S
C505 H498 0.950 . S
C505 C502 1.387 . S
C506 C507 1.387 . S
C506 H510 0.950 . S
C506 C515 1.390 . S
C507 C506 1.387 . S
C507 C509 1.387 . S
H508 C515 0.950 . S
C509 C507 1.387 . S
C509 C511 1.390 . S
C509 H513 0.950 . S
H510 C506 0.950 . S
C511 C509 1.390 . S
C511 C512 1.387 . S
C511 H514 0.950 . S
C512 C511 1.387 . S
C512 C515 1.387 . S
H513 C509 0.950 . S
H514 C511 0.950 . S
C515 C506 1.390 . S
C515 H508 0.950 . S
C515 C512 1.387 . S
C516 C517 1.387 . S
C516 H520 0.950 . S
C516 C525 1.390 . S
C517 C516 1.387 . S
C517 C519 1.387 . S
H518 C525 0.950 . S
C519 C517 1.387 . S
C519 C521 1.390 . S
C519 H523 0.950 . S
H520 C516 0.950 . S
C521 C519 1.390 . S
C521 C522 1.387 . S
C521 H524 0.950 . S
C522 C521 1.387 . S
C522 C525 1.387 . S
H523 C519 0.950 . S
H524 C521 0.950 . S
C525 C516 1.390 . S
C525 H518 0.950 . S
C525 C522 1.387 . S
C526 C527 1.387 . S
C526 H530 0.950 . S
C526 C535 1.390 . S
C527 C526 1.387 . S
C527 C529 1.387 . S
H528 C535 0.950 . S
C529 C527 1.387 . S
C529 C531 1.390 . S
C529 H533 0.950 . S
H530 C526 0.950 . S
C531 C529 1.390 . S
C531 C532 1.387 . S
C531 H534 0.950 . S
C532 C531 1.387 . S
C532 C535 1.387 . S
H533 C529 0.950 . S
H534 C531 0.950 . S
C535 C526 1.390 . S
C535 H528 0.950 . S
C535 C532 1.387 . S
C536 C537 1.387 . S
C536 H540 0.950 . S
C536 C545 1.390 . S
C537 C536 1.387 . S
C537 C539 1.387 . S
H538 C545 0.950 . S
C539 C537 1.387 . S
C539 C541 1.390 . S
C539 H543 0.950 . S
H540 C536 0.950 . S
C541 C539 1.390 . S
C541 C542 1.387 . S
C541 H544 0.950 . S
C542 C541 1.387 . S
C542 C545 1.387 . S
H543 C539 0.950 . S
H544 C541 0.950 . S
C545 C536 1.390 . S
C545 H538 0.950 . S
C545 C542 1.387 . S
C546 C547 1.387 . S
C546 H550 0.950 . S
C546 C555 1.390 . S
C547 C546 1.387 . S
C547 C549 1.387 . S
H548 C555 0.950 . S
C549 C547 1.387 . S
C549 C551 1.390 . S
C549 H553 0.950 . S
H550 C546 0.950 . S
C551 C549 1.390 . S
C551 C552 1.387 . S
C551 H554 0.950 . S
C552 C551 1.387 . S
C552 C555 1.387 . S
H553 C549 0.950 . S
H554 C551 0.950 . S
C555 C546 1.390 . S
C555 H548 0.950 . S
C555 C552 1.387 . S
C556 C557 1.387 . S
C556 H560 0.950 . S
C556 C565 1.390 . S
C557 C556 1.387 . S
C557 C559 1.387 . S
H558 C565 0.950 . S
C559 C557 1.387 . S
C559 C561 1.390 . S
C559 H563 0.950 . S
H560 C556 0.950 . S
C561 C559 1.390 . S
C561 C562 1.387 . S
C561 H564 0.950 . S
C562 C561 1.387 . S
C562 C565 1.387 . S
H563 C559 0.950 . S
H564 C561 0.950 . S
C565 C556 1.390 . S
C565 H558 0.950 . S
C565 C562 1.387 . S
C566 C567 1.387 . S
C566 H570 0.950 . S
C566 C575 1.390 . S
C567 C566 1.387 . S
C567 C569 1.387 . S
H568 C575 0.950 . S
C569 C567 1.387 . S
C569 C571 1.390 . S
C569 H573 0.950 . S
H570 C566 0.950 . S
C571 C569 1.390 . S
C571 C572 1.387 . S
C571 H574 0.950 . S
C572 C571 1.387 . S
C572 C575 1.387 . S
H573 C569 0.950 . S
H574 C571 0.950 . S
C575 C566 1.390 . S
C575 H568 0.950 . S
C575 C572 1.387 . S
C576 C577 1.387 . S
C576 H580 0.950 . S
C576 C585 1.390 . S
C577 C576 1.387 . S
C577 C579 1.387 . S
H578 C585 0.950 . S
C579 C577 1.387 . S
C579 C581 1.390 . S
C579 H583 0.950 . S
H580 C576 0.950 . S
C581 C579 1.390 . S
C581 C582 1.387 . S
C581 H584 0.950 . S
C582 C581 1.387 . S
C582 C585 1.387 . S
H583 C579 0.950 . S
H584 C581 0.950 . S
C585 C576 1.390 . S
C585 H578 0.950 . S
C585 C582 1.387 . S
C586 C587 1.387 . S
C586 H590 0.950 . S
C586 C595 1.390 . S
C587 C586 1.387 . S
C587 C589 1.387 . S
H588 C595 0.950 . S
C589 C587 1.387 . S
C589 C591 1.390 . S
C589 H593 0.950 . S
H590 C586 0.950 . S
C591 C589 1.390 . S
C591 C592 1.387 . S
C591 H594 0.950 . S
C592 C591 1.387 . S
C592 C595 1.387 . S
H593 C589 0.950 . S
H594 C591 0.950 . S
C595 C586 1.390 . S
C595 H588 0.950 . S
C595 C592 1.387 . S
C596 C597 1.387 . S
C596 H600 0.950 . S
C596 C605 1.390 . S
C597 C596 1.387 . S
C597 C599 1.387 . S
H598 C605 0.950 . S
C599 C597 1.387 . S
C599 C601 1.390 . S
C599 H603 0.950 . S
H600 C596 0.950 . S
C601 C599 1.390 . S
C601 C602 1.387 . S
C601 H604 0.950 . S
C602 C601 1.387 . S
C602 C605 1.387 . S
H603 C599 0.950 . S
H604 C601 0.950 . S
C605 C596 1.390 . S
C605 H598 0.950 . S
C605 C602 1.387 . S
C606 C607 1.387 . S
C606 H610 0.950 . S
C606 C615 1.390 . S
C607 C606 1.387 . S
C607 C609 1.387 . S
H608 C615 0.950 . S
C609 C607 1.387 . S
C609 C611 1.390 . S
C609 H613 0.950 . S
H610 C606 0.950 . S
C611 C609 1.390 . S
C611 C612 1.387 . S
C611 H614 0.950 . S
C612 C611 1.387 . S
C612 C615 1.387 . S
H613 C609 0.950 . S
H614 C611 0.950 . S
C615 C606 1.390 . S
C615 H608 0.950 . S
C615 C612 1.387 . S
C616 C617 1.387 . S
C616 H620 0.950 . S
C616 C625 1.390 . S
C617 C616 1.387 . S
C617 C619 1.387 . S
H618 C625 0.950 . S
C619 C617 1.387 . S
C619 C621 1.390 . S
C619 H623 0.950 . S
H620 C616 0.950 . S
C621 C619 1.390 . S
C621 C622 1.387 . S
C621 H624 0.950 . S
C622 C621 1.387 . S
C622 C625 1.387 . S
H623 C619 0.950 . S
H624 C621 0.950 . S
C625 C616 1.390 . S
C625 H618 0.950 . S
C625 C622 1.387 . S
C626 C627 1.387 . S
C626 H630 0.950 . S
C626 C635 1.390 . S
C627 C626 1.387 . S
C627 C629 1.387 . S
H628 C635 0.950 . S
C629 C627 1.387 . S
C629 C631 1.390 . S
C629 H633 0.950 . S
H630 C626 0.950 . S
C631 C629 1.390 . S
C631 C632 1.387 . S
C631 H634 0.950 . S
C632 C631 1.387 . S
C632 C635 1.387 . S
H633 C629 0.950 . S
H634 C631 0.950 . S
C635 C626 1.390 . S
C635 H628 0.950 . S
C635 C632 1.387 . S
C636 C637 1.387 . S
C636 H640 0.950 . S
C636 C645 1.390 . S
C637 C636 1.387 . S
C637 C639 1.387 . S
H638 C645 0.950 . S
C639 C637 1.387 . S
C639 C641 1.390 . S
C639 H643 0.950 . S
H640 C636 0.950 . S
C641 C639 1.390 . S
C641 C642 1.387 . S
C641 H644 0.950 . S
C642 C641 1.387 . S
C642 C645 1.387 . S
H643 C639 0.950 . S
H644 C641 0.950 . S
C645 C636 1.390 . S
C645 H638 0.950 . S
C645 C642 1.387 . S
C646 C647 1.387 . S
C646 H650 0.950 . S
C646 C655 1.390 . S
C647 C646 1.387 . S
C647 C649 1.387 . S
H648 C655 0.950 . S
C649 C647 1.387 . S
C649 C651 1.390 . S
C649 H653 0.950 . S
H650 C646 0.950 . S
C651 C649 1.390 . S
C651 C652 1.387 . S
C651 H654 0.950 . S
C652 C651 1.387 . S
C652 C655 1.387 . S
H653 C649 0.950 . S
H654 C651 0.950 . S
C655 C646 1.390 . S
C655 H648 0.950 . S
C655 C652 1.387 . S
C656 C657 1.387 . S
C656 H660 0.950 . S
C656 C665 1.390 . S
C657 C656 1.387 . S
C657 C659 1.387 . S
H658 C665 0.950 . S
C659 C657 1.387 . S
C659 C661 1.390 . S
C659 H663 0.950 . S
H660 C656 0.950 . S
C661 C659 1.390 . S
C661 C662 1.387 . S
C661 H664 0.950 . S
C662 C661 1.387 . S
C662 C665 1.387 . S
H663 C659 0.950 . S
H664 C661 0.950 . S
C665 C656 1.390 . S
C665 H658 0.950 . S
C665 C662 1.387 . S
C427 C7 1.888 . S
C432 C159 1.872 . S
C437 C30 1.647 . S
C442 C216 1.648 . S
C452 C270 1.747 . S
C447 N58 1.719 . S
C462 C327 1.468 . S
C457 N81 1.452 . S
C472 C351 1.779 . S
C467 C99 1.792 . S
C482 C408 1.597 . S
C477 N127 1.521 . S
C487 N25 1.746 . S
C492 C255 1.770 . S
C497 C62 1.650 . S
C502 C312 1.646 . S
C512 C366 1.795 . S
C507 C85 1.831 . S
C522 C423 1.522 . S
C517 N94 1.564 . S
C527 C131 1.844 . S
C532 C174 1.797 . S
C542 C231 1.464 . S
C537 N2 1.486 . S
C552 C318 1.816 . S
C547 C16 1.831 . S
C557 C39 1.601 . S
C562 C360 1.554 . S
C572 C399 1.726 . S
C567 N48 1.716 . S
C577 N71 1.443 . S
C582 C168 1.449 . S
C587 C108 1.771 . S
C592 C207 1.750 . S
C597 N117 1.517 . S
C602 C279 1.584 . S
C607 N35 1.707 . S
C612 C414 1.754 . S
C622 C183 1.642 . S
C617 C53 1.638 . S
C627 C76 1.862 . S
C632 C222 1.843 . S
C637 N104 1.506 . S
C642 C264 1.501 . S
C647 C122 1.765 . S
C652 C303 1.732 . S
C657 N12 1.425 . S
C662 C375 1.493 . S
