# Generated by pormake.
# Topology pyr, (3,6)-cn, num edge types: 1
# Building blocks:
#     Node 0, Type 0, BuildingBlock: BELTOD_clean_linker_0, # of connection points: 3
#     Node 1, Type 0, BuildingBlock: BELTOD_clean_linker_0, # of connection points: 3
#     Node 2, Type 0, BuildingBlock: BELTOD_clean_linker_0, # of connection points: 3
#     Node 3, Type 0, BuildingBlock: BELTOD_clean_linker_0, # of connection points: 3
#     Node 4, Type 0, BuildingBlock: BELTOD_clean_linker_0, # of connection points: 3
#     Node 5, Type 0, BuildingBlock: BELTOD_clean_linker_0, # of connection points: 3
#     Node 6, Type 0, BuildingBlock: BELTOD_clean_linker_0, # of connection points: 3
#     Node 7, Type 0, BuildingBlock: BELTOD_clean_linker_0, # of connection points: 3
#     Node 8, Type 1, BuildingBlock: GEDQOX_clean_sbu_0, # of connection points: 6
#     Node 9, Type 1, BuildingBlock: GEDQOX_clean_sbu_0, # of connection points: 6
#     Node 10, Type 1, BuildingBlock: GEDQOX_clean_sbu_0, # of connection points: 6
#     Node 11, Type 1, BuildingBlock: GEDQOX_clean_sbu_0, # of connection points: 6
#     Edge 12, Type (0, 1), BuildingBlock: CIFDUS_clean_linker_0, # of connection points: 2
#     Edge 13, Type (0, 1), BuildingBlock: CIFDUS_clean_linker_0, # of connection points: 2
#     Edge 14, Type (0, 1), BuildingBlock: CIFDUS_clean_linker_0, # of connection points: 2
#     Edge 15, Type (0, 1), BuildingBlock: CIFDUS_clean_linker_0, # of connection points: 2
#     Edge 16, Type (0, 1), BuildingBlock: CIFDUS_clean_linker_0, # of connection points: 2
#     Edge 17, Type (0, 1), BuildingBlock: CIFDUS_clean_linker_0, # of connection points: 2
#     Edge 18, Type (0, 1), BuildingBlock: CIFDUS_clean_linker_0, # of connection points: 2
#     Edge 19, Type (0, 1), BuildingBlock: CIFDUS_clean_linker_0, # of connection points: 2
#     Edge 20, Type (0, 1), BuildingBlock: CIFDUS_clean_linker_0, # of connection points: 2
#     Edge 21, Type (0, 1), BuildingBlock: CIFDUS_clean_linker_0, # of connection points: 2
#     Edge 22, Type (0, 1), BuildingBlock: CIFDUS_clean_linker_0, # of connection points: 2
#     Edge 23, Type (0, 1), BuildingBlock: CIFDUS_clean_linker_0, # of connection points: 2
#     Edge 24, Type (0, 1), BuildingBlock: CIFDUS_clean_linker_0, # of connection points: 2
#     Edge 25, Type (0, 1), BuildingBlock: CIFDUS_clean_linker_0, # of connection points: 2
#     Edge 26, Type (0, 1), BuildingBlock: CIFDUS_clean_linker_0, # of connection points: 2
#     Edge 27, Type (0, 1), BuildingBlock: CIFDUS_clean_linker_0, # of connection points: 2
#     Edge 28, Type (0, 1), BuildingBlock: CIFDUS_clean_linker_0, # of connection points: 2
#     Edge 29, Type (0, 1), BuildingBlock: CIFDUS_clean_linker_0, # of connection points: 2
#     Edge 30, Type (0, 1), BuildingBlock: CIFDUS_clean_linker_0, # of connection points: 2
#     Edge 31, Type (0, 1), BuildingBlock: CIFDUS_clean_linker_0, # of connection points: 2
#     Edge 32, Type (0, 1), BuildingBlock: CIFDUS_clean_linker_0, # of connection points: 2
#     Edge 33, Type (0, 1), BuildingBlock: CIFDUS_clean_linker_0, # of connection points: 2
#     Edge 34, Type (0, 1), BuildingBlock: CIFDUS_clean_linker_0, # of connection points: 2
#     Edge 35, Type (0, 1), BuildingBlock: CIFDUS_clean_linker_0, # of connection points: 2
# Relax obj value: 0.128
# Max RMSD: 0.164
# Mean RMSD: 0.063
data_MOF--net-pyr--node1-GEDQOX_clean_sbu_0--node2-BELTOD_clean_linker_0--edge1-CIFDUS_clean_linker_0
_symmetry_space_group_name_H-M    P1
_symmetry_Int_Tables_number       1
_symmetry_cell_setting            triclinic
loop_
_symmetry_equiv_pos_as_xyz
'x, y, z'
_cell_length_a     40.859509
_cell_length_b     41.322168
_cell_length_c     35.398073
_cell_angle_alpha  88.616184
_cell_angle_beta   92.353391
_cell_angle_gamma 87.658467
loop_
_atom_site_label
_atom_site_type_symbol
_atom_site_fract_x
_atom_site_fract_y
_atom_site_fract_z
_atom_type_partial_charge
P0 P 0.20416 0.19465 0.19843 0.0
H1 H 0.25836 0.14802 0.22453 0.0
H2 H 0.30534 0.12147 0.19534 0.0
H3 H 0.27202 0.16322 0.08707 0.0
H4 H 0.22494 0.18975 0.11678 0.0
H5 H 0.22094 0.25582 0.15771 0.0
H6 H 0.18924 0.30422 0.13369 0.0
H7 H 0.09979 0.2571 0.15745 0.0
H8 H 0.13177 0.20941 0.18221 0.0
H9 H 0.1956 0.12313 0.21483 0.0
H10 H 0.15893 0.21299 0.25874 0.0
O11 O 0.22708 0.2158 0.22822 0.0
H12 H 0.16798 0.09318 0.26398 0.0
H13 H 0.13185 0.1835 0.30855 0.0
C14 C 0.23676 0.17079 0.17331 0.0
C15 C 0.26063 0.15121 0.19431 0.0
C16 C 0.28823 0.13614 0.17737 0.0
C17 C 0.29366 0.13964 0.1382 0.0
C18 C 0.2694 0.15904 0.11706 0.0
C19 C 0.24189 0.17443 0.1342 0.0
C20 C 0.17935 0.22794 0.17191 0.0
C21 C 0.19444 0.2555 0.15717 0.0
C22 C 0.17594 0.28368 0.14329 0.0
C23 C 0.14119 0.28597 0.14355 0.0
C24 C 0.12621 0.2577 0.15714 0.0
C25 C 0.14474 0.22961 0.17106 0.0
C26 C 0.17947 0.17078 0.23196 0.0
C27 C 0.18138 0.13664 0.23472 0.0
C28 C 0.1656 0.11935 0.26367 0.0
C29 C 0.14727 0.13531 0.29162 0.0
C30 C 0.14498 0.16957 0.2881 0.0
C31 C 0.16073 0.18676 0.25917 0.0
P32 P 0.41576 0.80838 0.72498 0.0
H33 H 0.4765 0.81072 0.77044 0.0
H34 H 0.48961 0.83556 0.83098 0.0
H35 H 0.38645 0.85505 0.84632 0.0
H36 H 0.37346 0.82983 0.78622 0.0
H37 H 0.4258 0.78131 0.65192 0.0
H38 H 0.44462 0.72799 0.63139 0.0
H39 H 0.46088 0.69612 0.74797 0.0
H40 H 0.44123 0.74973 0.76853 0.0
H41 H 0.36873 0.86309 0.71739 0.0
H42 H 0.3678 0.75966 0.70302 0.0
O43 O 0.43356 0.83624 0.69883 0.0
H44 H 0.31178 0.86848 0.69273 0.0
H45 H 0.31148 0.76532 0.67672 0.0
C46 C 0.42406 0.81844 0.77365 0.0
C47 C 0.45666 0.81946 0.78737 0.0
C48 C 0.46412 0.8337 0.82197 0.0
C49 C 0.43905 0.84757 0.84321 0.0
C50 C 0.40629 0.84494 0.83033 0.0
C51 C 0.39886 0.8304 0.79592 0.0
C52 C 0.43263 0.76958 0.71168 0.0
C53 C 0.43363 0.76295 0.67311 0.0
C54 C 0.44404 0.7324 0.66141 0.0
C55 C 0.45397 0.70791 0.6881 0.0
C56 C 0.45338 0.71466 0.72686 0.0
C57 C 0.44235 0.74525 0.7386 0.0
C58 C 0.37266 0.8111 0.7117 0.0
C59 C 0.35621 0.84155 0.7093 0.0
C60 C 0.32376 0.8446 0.69531 0.0
C61 C 0.30753 0.81728 0.6828 0.0
C62 C 0.32366 0.78667 0.68613 0.0
C63 C 0.35589 0.78353 0.70103 0.0
P64 P 0.78992 0.3505 0.78497 0.0
H65 H 0.80304 0.35172 0.86764 0.0
H66 H 0.83432 0.38803 0.90725 0.0
H67 H 0.85376 0.44597 0.80781 0.0
H68 H 0.82086 0.41072 0.76914 0.0
H69 H 0.78581 0.28068 0.77779 0.0
H70 H 0.74762 0.24201 0.80172 0.0
H71 H 0.70135 0.31748 0.86579 0.0
H72 H 0.73988 0.35621 0.84171 0.0
H73 H 0.77502 0.33886 0.70545 0.0
H74 H 0.74196 0.40472 0.78986 0.0
O75 O 0.81988 0.33134 0.76256 0.0
H76 H 0.73182 0.36045 0.66109 0.0
H77 H 0.69802 0.42607 0.7458 0.0
C78 C 0.80897 0.37901 0.81557 0.0
C79 C 0.81323 0.37279 0.8546 0.0
C80 C 0.83159 0.39338 0.87717 0.0
C81 C 0.84671 0.42009 0.8609 0.0
C82 C 0.84196 0.42623 0.8217 0.0
C83 C 0.82324 0.40594 0.79938 0.0
C84 C 0.76614 0.32115 0.80865 0.0
C85 C 0.76801 0.2888 0.7977 0.0
C86 C 0.74594 0.26677 0.81108 0.0
C87 C 0.72144 0.27677 0.8355 0.0
C88 C 0.72022 0.30902 0.84734 0.0
C89 C 0.74223 0.33113 0.83369 0.0
C90 C 0.76202 0.37062 0.75064 0.0
C91 C 0.75885 0.35845 0.71418 0.0
C92 C 0.7339 0.37058 0.68899 0.0
C93 C 0.71135 0.39483 0.70001 0.0
C94 C 0.71522 0.40767 0.7363 0.0
C95 C 0.74028 0.39549 0.7615 0.0
P96 P 0.78405 0.86779 0.27098 0.0
H97 H 0.8447 0.90314 0.26512 0.0
H98 H 0.87543 0.93572 0.31021 0.0
H99 H 0.80167 0.92088 0.39235 0.0
H100 H 0.77083 0.88965 0.34701 0.0
H101 H 0.77279 0.83243 0.20228 0.0
H102 H 0.80022 0.78409 0.17846 0.0
H103 H 0.8793 0.79303 0.26209 0.0
H104 H 0.85067 0.84009 0.28708 0.0
H105 H 0.71477 0.85075 0.26372 0.0
H106 H 0.80049 0.8239 0.33441 0.0
O107 O 0.76062 0.89103 0.24064 0.0
H108 H 0.68385 0.80969 0.29646 0.0
H109 H 0.77025 0.7826 0.36653 0.0
C110 C 0.80608 0.89307 0.30315 0.0
C111 C 0.83525 0.90697 0.29287 0.0
C112 C 0.85284 0.92543 0.31873 0.0
C113 C 0.84122 0.93062 0.3551 0.0
C114 C 0.8113 0.91758 0.36459 0.0
C115 C 0.79377 0.89931 0.33874 0.0
C116 C 0.81001 0.84039 0.24584 0.0
C117 C 0.79661 0.82463 0.21458 0.0
C118 C 0.81236 0.79687 0.20102 0.0
C119 C 0.84188 0.78436 0.21857 0.0
C120 C 0.8563 0.80159 0.24832 0.0
C121 C 0.84025 0.82902 0.2622 0.0
C122 C 0.75965 0.84076 0.29728 0.0
C123 C 0.72677 0.83636 0.28663 0.0
C124 C 0.70925 0.8127 0.3051 0.0
C125 C 0.72454 0.79304 0.33427 0.0
C126 C 0.75751 0.79777 0.3448 0.0
C127 C 0.77488 0.82133 0.32639 0.0
P128 P 0.85139 0.86577 0.89279 0.0
H129 H 0.81817 0.87979 0.96481 0.0
H130 H 0.76476 0.90306 0.98127 0.0
H131 H 0.73565 0.90951 0.86261 0.0
H132 H 0.78837 0.88471 0.84696 0.0
H133 H 0.86134 0.83357 0.96865 0.0
H134 H 0.8848 0.78139 0.99278 0.0
H135 H 0.89646 0.75027 0.87871 0.0
H136 H 0.87154 0.80247 0.85452 0.0
H137 H 0.83339 0.92066 0.83659 0.0
H138 H 0.90841 0.84464 0.84735 0.0
O139 O 0.87401 0.88792 0.92181 0.0
H140 H 0.85865 0.94197 0.77985 0.0
H141 H 0.93337 0.86532 0.79098 0.0
C142 C 0.80841 0.87994 0.90429 0.0
C143 C 0.80017 0.88566 0.94214 0.0
C144 C 0.76914 0.89967 0.95167 0.0
C145 C 0.74432 0.90896 0.92384 0.0
C146 C 0.75271 0.90272 0.88585 0.0
C147 C 0.78366 0.88843 0.87643 0.0
C148 C 0.86442 0.82321 0.90933 0.0
C149 C 0.8683 0.81557 0.94844 0.0
C150 C 0.88212 0.78525 0.96244 0.0
C151 C 0.89336 0.76077 0.93815 0.0
C152 C 0.88894 0.76813 0.89884 0.0
C153 C 0.87439 0.79839 0.8848 0.0
C154 C 0.86691 0.879 0.84578 0.0
C155 C 0.85446 0.9075 0.82622 0.0
C156 C 0.86956 0.92028 0.79372 0.0
C157 C 0.89818 0.9054 0.77932 0.0
C158 C 0.91093 0.87733 0.79953 0.0
C159 C 0.89607 0.86489 0.83211 0.0
P160 P 0.70459 0.30145 0.2285 0.0
H161 H 0.70764 0.36862 0.25067 0.0
H162 H 0.67525 0.40151 0.29322 0.0
H163 H 0.61073 0.32237 0.30846 0.0
H164 H 0.64307 0.28977 0.26565 0.0
H165 H 0.76989 0.27319 0.21653 0.0
H166 H 0.81345 0.25021 0.25985 0.0
H167 H 0.75389 0.27302 0.35467 0.0
H168 H 0.71019 0.29402 0.31143 0.0
H169 H 0.6464 0.30248 0.17847 0.0
H170 H 0.71527 0.23024 0.22844 0.0
O171 O 0.72105 0.32376 0.19488 0.0
H172 H 0.61744 0.26019 0.1455 0.0
H173 H 0.68733 0.18808 0.19454 0.0
C174 C 0.67728 0.32711 0.25429 0.0
C175 C 0.68607 0.35866 0.26248 0.0
C176 C 0.66777 0.37727 0.28714 0.0
C177 C 0.64048 0.3645 0.30426 0.0
C178 C 0.63133 0.33305 0.2953 0.0
C179 C 0.64974 0.31443 0.27073 0.0
C180 C 0.73695 0.28563 0.26067 0.0
C181 C 0.76635 0.27321 0.24669 0.0
C182 C 0.79129 0.26027 0.27153 0.0
C183 C 0.78727 0.25975 0.31086 0.0
C184 C 0.75771 0.27245 0.32461 0.0
C185 C 0.7327 0.28488 0.29976 0.0
C186 C 0.68289 0.26958 0.20598 0.0
C187 C 0.65528 0.27751 0.18232 0.0
C188 C 0.63893 0.25331 0.16326 0.0
C189 C 0.65015 0.22068 0.16717 0.0
C190 C 0.67775 0.21285 0.19122 0.0
C191 C 0.69395 0.23708 0.21047 0.0
P192 P 0.3497 0.60292 0.16793 0.0
H193 H 0.31049 0.63527 0.10543 0.0
H194 H 0.2529 0.63424 0.08594 0.0
H195 H 0.23703 0.56928 0.18064 0.0
H196 H 0.29399 0.57323 0.2018 0.0
H197 H 0.41652 0.60754 0.14395 0.0
H198 H 0.44972 0.65386 0.12945 0.0
H199 H 0.36494 0.7184 0.13976 0.0
H200 H 0.33206 0.67215 0.15515 0.0
H201 H 0.35396 0.54881 0.22294 0.0
H202 H 0.36586 0.652 0.2242 0.0
O203 O 0.36463 0.56907 0.14906 0.0
H204 H 0.37632 0.54382 0.28793 0.0
H205 H 0.39025 0.64703 0.28781 0.0
C206 C 0.30635 0.6055 0.15607 0.0
C207 C 0.29433 0.62194 0.12293 0.0
C208 C 0.26132 0.62069 0.11128 0.0
C209 C 0.23984 0.60167 0.13156 0.0
C210 C 0.25223 0.58501 0.1647 0.0
C211 C 0.28505 0.58707 0.17686 0.0
C212 C 0.37155 0.63629 0.14932 0.0
C213 C 0.40484 0.63156 0.14203 0.0
C214 C 0.42385 0.658 0.13406 0.0
C215 C 0.40978 0.68958 0.13324 0.0
C216 C 0.37619 0.69421 0.13949 0.0
C217 C 0.35733 0.66778 0.14799 0.0
C218 C 0.35907 0.60058 0.21823 0.0
C219 C 0.36112 0.57044 0.23727 0.0
C220 C 0.37427 0.56762 0.27436 0.0
C221 C 0.38613 0.59489 0.29289 0.0
C222 C 0.38153 0.62545 0.27465 0.0
C223 C 0.36781 0.62828 0.23783 0.0
P224 P 0.26739 0.1881 0.78021 0.0
H225 H 0.27048 0.14896 0.71274 0.0
H226 H 0.22817 0.12344 0.67422 0.0
H227 H 0.15673 0.1475 0.75664 0.0
H228 H 0.199 0.17402 0.79473 0.0
H229 H 0.33608 0.20577 0.7853 0.0
H230 H 0.36878 0.23842 0.74326 0.0
H231 H 0.28717 0.24644 0.66165 0.0
H232 H 0.25461 0.2147 0.70375 0.0
H233 H 0.28026 0.21795 0.85333 0.0
H234 H 0.21482 0.23421 0.75541 0.0
O235 O 0.28947 0.16441 0.81138 0.0
H236 H 0.2605 0.26935 0.87906 0.0
H237 H 0.19481 0.28529 0.78098 0.0
C238 C 0.23752 0.16454 0.75573 0.0
C239 C 0.24574 0.14882 0.72257 0.0
C240 C 0.22164 0.13426 0.70061 0.0
C241 C 0.18923 0.13419 0.71225 0.0
C242 C 0.18156 0.14762 0.74701 0.0
C243 C 0.20562 0.16277 0.76865 0.0
C244 C 0.29338 0.20676 0.74703 0.0
C245 C 0.32559 0.21389 0.75794 0.0
C246 C 0.34411 0.23269 0.7341 0.0
C247 C 0.33057 0.24454 0.69907 0.0
C248 C 0.29845 0.23697 0.68809 0.0
C249 C 0.27988 0.21867 0.71211 0.0
C250 C 0.24841 0.22196 0.80293 0.0
C251 C 0.26103 0.23214 0.83788 0.0
C252 C 0.24983 0.26155 0.85245 0.0
C253 C 0.22626 0.28139 0.8319 0.0
C254 C 0.21326 0.27069 0.79724 0.0
C255 C 0.22435 0.24131 0.78284 0.0
Nd256 Nd 0.03708 0.99994 0.53522 0.0
Nd257 Nd 0.9975 0.05837 0.54189 0.0
C258 C 0.07218 0.9464 0.52291 0.0
C259 C 0.09304 0.92518 0.54871 0.0
C260 C 0.10045 0.89284 0.54005 0.0
C261 C 0.12231 0.87378 0.56371 0.0
C262 C 0.13701 0.88689 0.59633 0.0
C263 C 0.12869 0.91908 0.60518 0.0
C264 C 0.10696 0.93791 0.58174 0.0
C265 C 0.05805 0.0362 0.59539 0.0
C266 C 0.98438 1.00052 0.60274 0.0
C267 C 0.9708 0.11748 0.54767 0.0
C268 C 0.94997 0.13866 0.52194 0.0
C269 C 0.92484 0.1581 0.53651 0.0
C270 C 0.90226 0.17524 0.51207 0.0
C271 C 0.90459 0.17325 0.47266 0.0
C272 C 0.9305 0.1546 0.45818 0.0
C273 C 0.95288 0.13727 0.48261 0.0
C274 C 0.96564 1.01283 0.49996 0.0
C275 C 0.04755 0.05912 0.47069 0.0
O276 O 0.04057 0.94652 0.52776 0.0
O277 O 0.08285 0.97551 0.51785 0.0
O278 O 0.05586 1.00519 0.59685 0.0
O279 O 0.04955 0.04723 0.56293 0.0
O280 O 0.99679 0.98192 0.57622 0.0
O281 O 0.98785 0.03223 0.59937 0.0
O282 O 1.00098 0.11182 0.5382 0.0
O283 O 0.95718 0.09142 0.55969 0.0
O284 O 0.95163 0.03136 0.52389 0.0
O285 O 0.99523 0.01943 0.4974 0.0
O286 O 1.02291 0.07425 0.4871 0.0
O287 O 0.0581 0.03 0.48413 0.0
H288 H 0.08988 0.88257 0.5147 0.0
H289 H 0.12804 0.849 0.55622 0.0
H290 H 0.14003 0.93034 0.62944 0.0
H291 H 0.10196 0.96287 0.58886 0.0
H292 H 0.92209 0.15925 0.56677 0.0
H293 H 0.88265 0.18964 0.52396 0.0
H294 H 0.93265 0.15231 0.42795 0.0
H295 H 0.9718 0.12199 0.47073 0.0
Nd296 Nd 0.52202 1.00694 0.06448 0.0
Nd297 Nd 0.52 0.04507 1.0054 0.0
C298 C 0.52356 0.95658 0.11283 0.0
C299 C 0.5145 0.92266 0.11068 0.0
C300 C 0.51141 0.90771 0.0756 0.0
C301 C 0.49872 0.87694 0.0732 0.0
C302 C 0.48947 0.86048 0.10597 0.0
C303 C 0.49395 0.87492 0.14127 0.0
C304 C 0.50619 0.90592 0.14354 0.0
C305 C 0.47086 0.0538 0.07448 0.0
C306 C 0.48222 0.98421 0.98994 0.0
C307 C 0.51895 0.09441 0.95589 0.0
C308 C 0.5435 0.11749 0.94505 0.0
C309 C 0.53736 0.13847 0.91369 0.0
C310 C 0.5606 0.16077 0.90375 0.0
C311 C 0.59017 0.16254 0.92529 0.0
C312 C 0.59616 0.14142 0.95674 0.0
C313 C 0.57312 0.11891 0.96635 0.0
C314 C 0.57433 1.00035 0.99934 0.0
C315 C 0.56092 0.06915 0.07974 0.0
O316 O 0.54861 0.9649 0.09375 0.0
O317 O 0.49923 0.97786 0.10907 0.0
O318 O 0.49513 0.04613 0.09818 0.0
O319 O 0.47562 0.03876 0.04365 0.0
O320 O 0.50373 0.97424 1.01659 0.0
O321 O 0.47799 0.01535 0.9837 0.0
O322 O 0.50905 0.09682 0.99028 0.0
O323 O 0.52476 0.06442 0.9468 0.0
O324 O 0.55184 1.00709 0.97317 0.0
O325 O 0.56667 0.01578 0.02878 0.0
O326 O 0.54476 0.0782 0.04825 0.0
O327 O 0.55927 0.03928 0.09239 0.0
H328 H 0.51816 0.92005 0.05001 0.0
H329 H 0.49578 0.86617 0.04572 0.0
H330 H 0.48676 0.86277 0.1669 0.0
H331 H 0.50829 0.91719 0.17082 0.0
H332 H 0.51461 0.13767 0.89697 0.0
H333 H 0.55528 0.17691 0.87951 0.0
H334 H 0.61889 0.14194 0.97354 0.0
H335 H 0.57842 0.1026 0.99042 0.0
Nd336 Nd 0.51135 0.48983 0.52038 0.0
Nd337 Nd 0.56432 0.53677 0.5192 0.0
C338 C 0.45657 0.45778 0.51893 0.0
C339 C 0.44178 0.43554 0.54541 0.0
C340 C 0.41256 0.42097 0.53506 0.0
C341 C 0.39945 0.39825 0.5594 0.0
C342 C 0.41549 0.38974 0.59441 0.0
C343 C 0.44456 0.40492 0.60486 0.0
C344 C 0.45762 0.42764 0.58052 0.0
C345 C 0.56213 0.47332 0.57156 0.0
C346 C 0.50598 0.55429 0.57075 0.0
C347 C 0.6184 0.57006 0.52072 0.0
C348 C 0.63215 0.59651 0.49906 0.0
C349 C 0.66446 0.60492 0.50714 0.0
C350 C 0.67723 0.63151 0.48864 0.0
C351 C 0.65777 0.65019 0.46184 0.0
C352 C 0.62554 0.64116 0.45322 0.0
C353 C 0.61282 0.61449 0.47172 0.0
C354 C 0.51368 0.54991 0.4655 0.0
C355 C 0.57113 0.47254 0.46972 0.0
O356 O 0.45803 0.48783 0.52929 0.0
O357 O 0.48375 0.44684 0.50482 0.0
O358 O 0.54483 0.45246 0.55398 0.0
O359 O 0.55056 0.50162 0.56488 0.0
O360 O 0.48935 0.53594 0.54747 0.0
O361 O 0.53815 0.55307 0.57126 0.0
O362 O 0.61601 0.54244 0.50388 0.0
O363 O 0.59252 0.5779 0.53941 0.0
O364 O 0.52844 0.57234 0.48362 0.0
O365 O 0.52695 0.52293 0.4744 0.0
O366 O 0.58734 0.49075 0.49357 0.0
O367 O 0.53883 0.47335 0.46892 0.0
H368 H 0.4001 0.42688 0.50801 0.0
H369 H 0.37675 0.38733 0.55083 0.0
H370 H 0.45765 0.39866 0.63143 0.0
H371 H 0.48036 0.43865 0.58876 0.0
H372 H 0.67968 0.59119 0.52815 0.0
H373 H 0.70232 0.63751 0.49541 0.0
H374 H 0.60987 0.6552 0.43296 0.0
H375 H 0.58773 0.60829 0.46528 0.0
Nd376 Nd 1.00087 0.52197 0.06252 0.0
Nd377 Nd 0.04742 0.52763 1.00347 0.0
C378 C 0.9471 0.52518 0.10101 0.0
C379 C 0.92977 0.55385 0.11623 0.0
C380 C 0.8989 0.56447 0.10064 0.0
C381 C 0.88465 0.59423 0.11072 0.0
C382 C 0.90094 0.61382 0.13678 0.0
C383 C 0.93125 0.60257 0.15334 0.0
C384 C 0.9455 0.57298 0.1432 0.0
C385 C 0.05664 0.55055 0.08763 0.0
C386 C 0.99572 0.58955 1.00495 0.0
C387 C 0.09945 0.52356 0.96165 0.0
C388 C 0.1179 0.49446 0.95031 0.0
C389 C 0.14804 0.49655 0.93309 0.0
C390 C 0.16541 0.46826 0.92326 0.0
C391 C 0.15299 0.43766 0.93113 0.0
C392 C 0.12284 0.43582 0.94849 0.0
C393 C 0.10537 0.46395 0.9577 0.0
C394 C 0.99074 0.49921 0.98053 0.0
C395 C 0.05482 0.46121 0.06141 0.0
O396 O 0.94655 0.52367 0.0641 0.0
O397 O 0.97596 0.51713 0.11661 0.0
O398 O 0.0405 0.53079 0.10798 0.0
O399 O 0.04232 0.55654 0.05577 0.0
O400 O 0.98088 0.5705 0.02935 0.0
O401 O 1.025 0.57995 0.99356 0.0
O402 O 0.10123 0.52907 0.99784 0.0
O403 O 0.06949 0.52687 0.94733 0.0
O404 O 1.00448 0.52132 0.96096 0.0
O405 O 1.00685 0.4924 1.01099 0.0
O406 O 0.06891 0.48155 0.03807 0.0
O407 O 1.02498 0.46931 0.07268 0.0
H408 H 0.88631 0.55025 0.0797 0.0
H409 H 0.86108 0.60209 0.09782 0.0
H410 H 0.94465 0.61724 0.17312 0.0
H411 H 0.96946 0.56578 0.15557 0.0
H412 H 0.15805 0.51994 0.92727 0.0
H413 H 0.18862 0.47024 0.90984 0.0
H414 H 0.11243 0.41261 0.95427 0.0
H415 H 0.08192 0.46187 0.97054 0.0
H416 H 0.09188 0.15142 0.33373 0.0
H417 H 0.16734 0.07596 0.32609 0.0
H418 H 0.14402 0.04597 0.37792 0.0
H419 H 0.10224 0.0405 0.42782 0.0
H420 H 0.0279 0.11698 0.43558 0.0
H421 H 0.05074 0.14622 0.38302 0.0
C422 C 0.10365 0.12855 0.34325 0.0
C423 C 0.13181 0.11657 0.32452 0.0
C424 C 0.0901 0.11103 0.37404 0.0
C425 C 0.14556 0.0863 0.33829 0.0
C426 C 0.13224 0.06892 0.36864 0.0
C427 C 0.09086 0.06351 0.41808 0.0
C428 C 0.06285 0.07596 0.43669 0.0
C429 C 0.10444 0.08089 0.38702 0.0
C430 C 0.04917 0.10614 0.42276 0.0
C431 C 0.06236 0.12319 0.39227 0.0
H432 H 0.41406 0.90733 0.85892 0.0
H433 H 0.48319 0.83233 0.90185 0.0
H434 H 0.50064 0.86717 0.95325 0.0
H435 H 0.4991 0.92034 0.9829 0.0
H436 H 0.4316 0.99613 0.9381 0.0
H437 H 0.41036 0.95944 0.89075 0.0
C438 C 0.4325 0.89838 0.87995 0.0
C439 C 0.44729 0.86727 0.87662 0.0
C440 C 0.44284 0.91877 0.90891 0.0
C441 C 0.4716 0.85625 0.90368 0.0
C442 C 0.48155 0.87615 0.93306 0.0
C443 C 0.47938 0.92871 0.9632 0.0
C444 C 0.46698 0.96098 0.96404 0.0
C445 C 0.46778 0.90768 0.93552 0.0
C446 C 0.44166 0.97147 0.93799 0.0
C447 C 0.42953 0.95051 0.91086 0.0
H448 H 0.68546 0.45616 0.68506 0.0
H449 H 0.67254 0.35597 0.65838 0.0
H450 H 0.62539 0.37156 0.61663 0.0
H451 H 0.58776 0.41332 0.58768 0.0
H452 H 0.59965 0.51367 0.61364 0.0
H453 H 0.64704 0.49838 0.65603 0.0
C454 C 0.67219 0.43778 0.67024 0.0
C455 C 0.68272 0.40497 0.67461 0.0
C456 C 0.64487 0.44691 0.64628 0.0
C457 C 0.66539 0.38144 0.65499 0.0
C458 C 0.63826 0.39029 0.6313 0.0
C459 C 0.60066 0.43184 0.60272 0.0
C460 C 0.59023 0.46451 0.59776 0.0
C461 C 0.62782 0.4229 0.62671 0.0
C462 C 0.60722 0.48831 0.6172 0.0
C463 C 0.63431 0.47958 0.64136 0.0
H464 H 0.8442 0.75768 0.14852 0.0
H465 H 0.86974 0.73737 0.26662 0.0
H466 H 0.88996 0.68325 0.25169 0.0
H467 H 0.89907 0.64097 0.20574 0.0
H468 H 0.87228 0.65995 0.08793 0.0
H469 H 0.8527 0.7148 0.10237 0.0
C470 C 0.85403 0.74139 0.17104 0.0
C471 C 0.85569 0.75192 0.2086 0.0
C472 C 0.86494 0.70983 0.16243 0.0
C473 C 0.86885 0.73043 0.23731 0.0
C474 C 0.88009 0.69923 0.2289 0.0
C475 C 0.8891 0.65716 0.18318 0.0
C476 C 0.88725 0.64642 0.14582 0.0
C477 C 0.87812 0.68863 0.19164 0.0
C478 C 0.87371 0.66751 0.117 0.0
C479 C 0.86274 0.69896 0.1252 0.0
H480 H 0.35769 0.12526 0.16859 0.0
H481 H 0.29984 0.11618 0.06513 0.0
H482 H 0.34699 0.09013 0.03581 0.0
H483 H 0.40635 0.06822 0.03895 0.0
H484 H 0.46275 0.07936 0.14328 0.0
H485 H 0.41566 0.10512 0.17141 0.0
C486 C 0.35492 0.11751 0.13966 0.0
C487 C 0.32402 0.12329 0.11981 0.0
C488 C 0.38271 0.10234 0.12242 0.0
C489 C 0.32255 0.11297 0.08186 0.0
C490 C 0.34989 0.09765 0.06482 0.0
C491 C 0.40853 0.07632 0.06778 0.0
C492 C 0.43926 0.07106 0.08845 0.0
C493 C 0.38043 0.092 0.08465 0.0
C494 C 0.44032 0.08234 0.12594 0.0
C495 C 0.41297 0.09736 0.14247 0.0
H496 H 0.25215 0.84281 0.71156 0.0
H497 H 0.29037 0.80147 0.61103 0.0
H498 H 0.23889 0.81614 0.57568 0.0
H499 H 0.186 0.84678 0.57186 0.0
H500 H 0.14682 0.88607 0.67334 0.0
H501 H 0.1956 0.86595 0.70993 0.0
C502 C 0.24883 0.83658 0.68208 0.0
C503 C 0.27483 0.82143 0.66367 0.0
C504 C 0.21922 0.84498 0.66209 0.0
C505 C 0.27048 0.81313 0.62562 0.0
C506 C 0.24118 0.82165 0.60543 0.0
C507 C 0.18762 0.85015 0.60215 0.0
C508 C 0.16306 0.86861 0.61959 0.0
C509 C 0.21572 0.83838 0.62313 0.0
C510 C 0.16576 0.87276 0.65894 0.0
C511 C 0.19362 0.86119 0.67996 0.0
H512 H 0.88865 0.4008 0.92038 0.0
H513 H 0.85497 0.48547 0.85348 0.0
H514 H 0.89625 0.51731 0.88509 0.0
H515 H 0.9441 0.52044 0.92892 0.0
H516 H 0.97525 0.4374 0.99932 0.0
H517 H 0.93214 0.40575 0.96977 0.0
C518 C 0.8897 0.42638 0.91321 0.0
C519 C 0.86896 0.44041 0.8839 0.0
C520 C 0.91314 0.44484 0.93206 0.0
C521 C 0.87114 0.47363 0.87504 0.0
C522 C 0.89464 0.492 0.89329 0.0
C523 C 0.94122 0.49547 0.93793 0.0
C524 C 0.96294 0.48103 0.96576 0.0
C525 C 0.91619 0.47769 0.92124 0.0
C526 C 0.95879 0.4489 0.97778 0.0
C527 C 0.93424 0.43083 0.96082 0.0
H528 H 0.72618 0.77667 0.40904 0.0
H529 H 0.6835 0.75023 0.30119 0.0
H530 H 0.65803 0.70433 0.33134 0.0
H531 H 0.65065 0.66989 0.38779 0.0
H532 H 0.69426 0.69621 0.49528 0.0
H533 H 0.7174 0.74346 0.46556 0.0
C534 C 0.71138 0.76081 0.3921 0.0
C535 C 0.70689 0.76678 0.35292 0.0
C536 C 0.69735 0.73419 0.40945 0.0
C537 C 0.68709 0.74638 0.33148 0.0
C538 C 0.67275 0.71996 0.34864 0.0
C539 C 0.66491 0.68617 0.40477 0.0
C540 C 0.67093 0.67937 0.44363 0.0
C541 C 0.67807 0.71341 0.38753 0.0
C542 C 0.68975 0.70054 0.46518 0.0
C543 C 0.7028 0.7277 0.44828 0.0
H544 H 0.15497 0.33691 0.09206 0.0
H545 H 0.0803 0.30849 0.16749 0.0
H546 H 0.04752 0.35732 0.14937 0.0
H547 H 0.03897 0.41013 0.11239 0.0
H548 H 0.11471 0.43863 0.03855 0.0
H549 H 0.14682 0.38925 0.05581 0.0
C550 C 0.13166 0.34113 0.10497 0.0
C551 C 0.12082 0.3175 0.13133 0.0
C552 C 0.11241 0.37019 0.09456 0.0
C553 C 0.08991 0.32472 0.14667 0.0
C554 C 0.07087 0.3533 0.13645 0.0
C555 C 0.06247 0.4057 0.09995 0.0
C556 C 0.0737 0.42918 0.07372 0.0
C557 C 0.08165 0.37647 0.11036 0.0
C558 C 0.10462 0.42192 0.05855 0.0
C559 C 0.12338 0.39326 0.06856 0.0
H560 H 0.69865 0.26588 0.9058 0.0
H561 H 0.68735 0.23688 0.78989 0.0
H562 H 0.64552 0.19942 0.80731 0.0
H563 H 0.61235 0.17459 0.85543 0.0
H564 H 0.62378 0.20273 0.97159 0.0
H565 H 0.6653 0.24082 0.95421 0.0
C566 C 0.68687 0.25144 0.88441 0.0
C567 C 0.69616 0.25404 0.84667 0.0
C568 C 0.6629 0.2298 0.89465 0.0
C569 C 0.68095 0.23499 0.81923 0.0
C570 C 0.6569 0.21369 0.82912 0.0
C571 C 0.62374 0.18929 0.87685 0.0
C572 C 0.61496 0.18598 0.91466 0.0
C573 C 0.64771 0.21088 0.86672 0.0
C574 C 0.63031 0.20474 0.94229 0.0
C575 C 0.65395 0.22657 0.93236 0.0
H576 H 0.90749 0.92838 0.36919 0.0
H577 H 0.81758 0.97454 0.40479 0.0
H578 H 0.848 1.00263 0.45377 0.0
H579 H 0.89998 1.01427 0.48654 0.0
H580 H 0.99039 0.97065 0.44938 0.0
H581 H 0.95995 0.9415 0.40077 0.0
C582 C 0.89459 0.94492 0.38731 0.0
C583 C 0.86023 0.94914 0.38338 0.0
C584 C 0.9123 0.96134 0.41524 0.0
C585 C 0.84391 0.97036 0.40753 0.0
C586 C 0.8613 0.98658 0.43548 0.0
C587 C 0.913 0.99828 0.46788 0.0
C588 C 0.9473 0.99446 0.47151 0.0
C589 C 0.89544 0.98213 0.43971 0.0
C590 C 0.96393 0.9739 0.44703 0.0
C591 C 0.94656 0.95731 0.41925 0.0
H592 H 0.42356 0.67006 0.6371 0.0
H593 H 0.51072 0.67427 0.70939 0.0
H594 H 0.53352 0.62509 0.68145 0.0
H595 H 0.53072 0.58414 0.63236 0.0
H596 H 0.44332 0.57951 0.56035 0.0
H597 H 0.41836 0.62546 0.59252 0.0
C598 C 0.44741 0.65995 0.64692 0.0
C599 C 0.46564 0.67585 0.67493 0.0
C600 C 0.46033 0.63178 0.63067 0.0
C601 C 0.49626 0.66236 0.68792 0.0
C602 C 0.50935 0.6344 0.67179 0.0
C603 C 0.50606 0.59295 0.62399 0.0
C604 C 0.48903 0.57871 0.59372 0.0
C605 C 0.49193 0.61938 0.64254 0.0
C606 C 0.45694 0.59007 0.58354 0.0
C607 C 0.44273 0.61646 0.60178 0.0
H608 H 0.9048 0.96969 0.75275 0.0
H609 H 0.93001 0.87115 0.72427 0.0
H610 H 0.958 0.89046 0.66902 0.0
H611 H 0.97639 0.93565 0.62721 0.0
H612 H 0.9516 0.03406 0.65655 0.0
H613 H 0.92305 1.01462 0.71126 0.0
C614 C 0.91614 0.95222 0.73448 0.0
C615 C 0.91489 0.91855 0.74394 0.0
C616 C 0.93274 0.96364 0.70204 0.0
C617 C 0.93049 0.89705 0.71913 0.0
C618 C 0.94659 0.90817 0.68693 0.0
C619 C 0.96475 0.95297 0.64543 0.0
C620 C 0.96662 0.98671 0.63674 0.0
C621 C 0.94811 0.94147 0.6779 0.0
C622 C 0.95109 1.00814 0.66161 0.0
C623 C 0.93451 0.99694 0.69333 0.0
H624 H 0.63775 0.15915 0.19127 0.0
H625 H 0.62538 0.22456 0.09423 0.0
H626 H 0.59703 0.18344 0.05893 0.0
H627 H 0.57517 0.12943 0.0557 0.0
H628 H 0.58891 0.06284 0.1514 0.0
H629 H 0.61787 0.10381 0.18692 0.0
C630 C 0.62918 0.16432 0.16227 0.0
C631 C 0.63348 0.1951 0.14564 0.0
C632 C 0.6132 0.14037 0.14187 0.0
C633 C 0.62184 0.2014 0.10811 0.0
C634 C 0.60581 0.1778 0.08775 0.0
C635 C 0.58455 0.12376 0.0843 0.0
C636 C 0.57976 0.09314 0.10092 0.0
C637 C 0.6012 0.14731 0.10442 0.0
C638 C 0.59228 0.08621 0.13793 0.0
C639 C 0.60877 0.10966 0.15828 0.0
H640 H 0.42946 0.54556 0.3136 0.0
H641 H 0.38884 0.63596 0.35339 0.0
H642 H 0.42574 0.63118 0.40964 0.0
H643 H 0.47034 0.60101 0.44758 0.0
H644 H 0.50702 0.50901 0.40793 0.0
H645 H 0.47054 0.51457 0.35206 0.0
C646 C 0.42793 0.56394 0.33487 0.0
C647 C 0.40616 0.59101 0.32907 0.0
C648 C 0.44878 0.56084 0.36727 0.0
C649 C 0.40553 0.61497 0.35673 0.0
C650 C 0.42659 0.61222 0.38904 0.0
C651 C 0.47028 0.58236 0.42655 0.0
C652 C 0.49145 0.55478 0.43176 0.0
C653 C 0.44856 0.58534 0.3945 0.0
C654 C 0.49094 0.53049 0.40463 0.0
C655 C 0.47008 0.5336 0.3726 0.0
H656 H 0.20993 0.29666 0.90321 0.0
H657 H 0.21953 0.33841 0.79153 0.0
H658 H 0.20005 0.39116 0.81316 0.0
H659 H 0.17747 0.42475 0.86294 0.0
H660 H 0.16657 0.38285 0.97422 0.0
H661 H 0.1898 0.33096 0.95386 0.0
C662 C 0.2081 0.31741 0.88378 0.0
C663 C 0.21587 0.3136 0.84579 0.0
C664 C 0.19667 0.34763 0.89634 0.0
C665 C 0.21315 0.34063 0.82079 0.0
C666 C 0.20219 0.37083 0.83316 0.0
C667 C 0.18075 0.40438 0.88284 0.0
C668 C 0.17037 0.4075 0.91994 0.0
C669 C 0.1935 0.37452 0.87074 0.0
C670 C 0.17424 0.38086 0.9454 0.0
C671 C 0.18748 0.35123 0.93379 0.0
H672 H 0.72398 0.94251 0.98939 0.0
H673 H 0.68475 0.91069 0.88191 0.0
H674 H 0.6318 0.93555 0.89477 0.0
H675 H 0.59445 0.96677 0.93605 0.0
H676 H 0.63161 0.99645 0.04483 0.0
H677 H 0.68576 0.97202 0.0321 0.0
C678 C 0.70407 0.94056 0.96857 0.0
C679 C 0.71023 0.92445 0.93387 0.0
C680 C 0.67227 0.95479 0.97652 0.0
C681 C 0.68274 0.92318 0.90823 0.0
C682 C 0.65163 0.93736 0.91579 0.0
C683 C 0.61427 0.96796 0.95721 0.0
C684 C 0.60804 0.98398 0.99166 0.0
C685 C 0.64588 0.9534 0.94971 0.0
C686 C 0.63479 0.98463 0.01818 0.0
C687 C 0.66614 0.97053 1.01077 0.0
H688 H 0.77974 0.22407 0.37535 0.0
H689 H 0.85394 0.26376 0.30644 0.0
H690 H 0.89675 0.24045 0.35025 0.0
H691 H 0.91311 0.20913 0.40859 0.0
H692 H 0.83852 0.17172 0.47844 0.0
H693 H 0.7958 0.19486 0.43442 0.0
C694 C 0.80522 0.22813 0.3701 0.0
C695 C 0.81348 0.24571 0.33754 0.0
C696 C 0.82967 0.21531 0.39579 0.0
C697 C 0.84678 0.24994 0.33091 0.0
C698 C 0.87131 0.23685 0.35613 0.0
C699 C 0.88748 0.20609 0.41408 0.0
C700 C 0.87895 0.18883 0.44671 0.0
C701 C 0.86303 0.21948 0.38865 0.0
C702 C 0.84568 0.18527 0.45376 0.0
C703 C 0.82126 0.19829 0.42847 0.0
H704 H 0.18551 0.59207 0.17265 0.0
H705 H 0.21598 0.60171 0.05753 0.0
H706 H 0.16068 0.5917 0.03407 0.0
H707 H 0.10454 0.57545 0.04588 0.0
H708 H 0.07717 0.55737 0.16053 0.0
H709 H 0.1302 0.5752 0.1844 0.0
C710 C 0.18036 0.59167 0.14239 0.0
C711 C 0.20534 0.59762 0.11716 0.0
C712 C 0.14885 0.58421 0.12888 0.0
C713 C 0.19746 0.59788 0.07798 0.0
C714 C 0.16577 0.59177 0.06436 0.0
C715 C 0.11024 0.57554 0.07603 0.0
C716 C 0.0872 0.56488 0.10139 0.0
C717 C 0.14142 0.5843 0.08952 0.0
C718 C 0.09467 0.56532 0.14046 0.0
C719 C 0.12499 0.57544 0.15412 0.0
H720 H 0.3614 0.29819 0.72076 0.0
H721 H 0.33921 0.24102 0.62339 0.0
H722 H 0.36428 0.28069 0.58242 0.0
H723 H 0.39069 0.33244 0.57417 0.0
H724 H 0.41096 0.39074 0.67124 0.0
H725 H 0.38889 0.34956 0.71261 0.0
C726 C 0.36259 0.29421 0.69066 0.0
C727 C 0.34866 0.26677 0.67503 0.0
C728 C 0.3765 0.31736 0.66728 0.0
C729 C 0.34975 0.26209 0.63593 0.0
C730 C 0.36402 0.28474 0.61255 0.0
C731 C 0.39004 0.33625 0.60434 0.0
C732 C 0.40229 0.36467 0.61957 0.0
C733 C 0.37702 0.31268 0.62786 0.0
C734 C 0.40191 0.36895 0.65884 0.0
C735 C 0.38918 0.34549 0.68249 0.0
H736 H 0.94693 0.72214 0.91404 0.0
H737 H 0.87487 0.72406 0.99961 0.0
H738 H 0.89851 0.67314 0.02716 0.0
H739 H 0.9403 0.62661 0.0282 0.0
H740 H 1.01378 0.62633 0.94416 0.0
H741 H 0.98932 0.67653 0.91589 0.0
C742 C 0.93612 0.7115 0.9386 0.0
C743 C 0.90861 0.728 0.95421 0.0
C744 C 0.95042 0.68175 0.95519 0.0
C745 C 0.89592 0.71302 0.98657 0.0
C746 C 0.90952 0.68342 1.00254 0.0
C747 C 0.95112 0.6374 1.0037 0.0
C748 C 0.9794 0.62167 0.9888 0.0
C749 C 0.93693 0.66735 0.98734 0.0
C750 C 0.99243 0.63705 0.95694 0.0
C751 C 0.97824 0.66613 0.94043 0.0
H752 H 0.39901 0.74172 0.08565 0.0
H753 H 0.46665 0.70067 0.17229 0.0
H754 H 0.49842 0.7495 0.17034 0.0
H755 H 0.50494 0.8052 0.1467 0.0
H756 H 0.43791 0.84599 0.0593 0.0
H757 H 0.40801 0.79591 0.05855 0.0
C758 C 0.42084 0.7435 0.10386 0.0
C759 C 0.43048 0.71785 0.12915 0.0
C760 C 0.43898 0.77158 0.10252 0.0
C761 C 0.45896 0.72011 0.1524 0.0
C762 C 0.47699 0.74806 0.15146 0.0
C763 C 0.48388 0.80295 0.12741 0.0
C764 C 0.47343 0.82916 0.1033 0.0
C765 C 0.46693 0.77412 0.12706 0.0
C766 C 0.44642 0.82598 0.078 0.0
C767 C 0.42925 0.79746 0.07769 0.0
H768 H 0.14832 0.08615 0.72828 0.0
H769 H 0.17284 0.15363 0.64018 0.0
H770 H 0.13175 0.13132 0.597 0.0
H771 H 0.09116 0.09061 0.58329 0.0
H772 H 0.06982 0.02001 0.66952 0.0
H773 H 0.10697 0.04564 0.71469 0.0
C774 C 0.14434 0.09602 0.6997 0.0
C775 C 0.1634 0.12133 0.68719 0.0
C776 C 0.1213 0.08252 0.67481 0.0
C777 C 0.15844 0.13393 0.65012 0.0
C778 C 0.13497 0.12126 0.62554 0.0
C779 C 0.09438 0.08114 0.61212 0.0
C780 C 0.07787 0.0536 0.62326 0.0
C781 C 0.11657 0.09529 0.63741 0.0
C782 C 0.08242 0.04124 0.66047 0.0
C783 C 0.10366 0.05582 0.68622 0.0
H784 H 0.66644 0.39931 0.36143 0.0
H785 H 0.57416 0.37157 0.31098 0.0
H786 H 0.54463 0.40182 0.35838 0.0
H787 H 0.54507 0.4366 0.41357 0.0
H788 H 0.63744 0.46475 0.46366 0.0
H789 H 0.66688 0.43401 0.41674 0.0
C790 C 0.63985 0.40018 0.36056 0.0
C791 C 0.62251 0.38335 0.3326 0.0
C792 C 0.62307 0.41761 0.38785 0.0
C793 C 0.58808 0.38415 0.33235 0.0
C794 C 0.57119 0.40152 0.35936 0.0
C795 C 0.57165 0.43594 0.41436 0.0
C796 C 0.589 0.45298 0.44213 0.0
C797 C 0.58844 0.41833 0.38722 0.0
C798 C 0.62344 0.45188 0.44263 0.0
C799 C 0.64032 0.43434 0.41577 0.0
loop_
_geom_bond_atom_site_label_1
_geom_bond_atom_site_label_2
_geom_bond_distance
_geom_bond_site_symmetry_2
_ccdc_geom_bond_type
P0 O11 1.490 . S
P0 C14 1.812 . S
P0 C20 1.803 . S
P0 C26 1.819 . S
H1 C15 0.941 . S
H2 C16 0.939 . S
H3 C18 0.940 . S
H4 C19 0.940 . S
H5 C21 0.939 . S
H6 C22 0.942 . S
H7 C24 0.940 . S
H8 C25 0.939 . S
H9 C27 0.941 . S
H10 C31 0.939 . S
O11 P0 1.490 . S
H12 C28 0.939 . S
H13 C30 0.940 . S
C14 P0 1.812 . S
C14 C15 1.389 . S
C14 C19 1.391 . S
C15 H1 0.941 . S
C15 C14 1.389 . S
C15 C16 1.397 . S
C16 H2 0.939 . S
C16 C15 1.397 . S
C16 C17 1.378 . S
C17 C16 1.378 . S
C17 C18 1.378 . S
C18 H3 0.940 . S
C18 C17 1.378 . S
C18 C19 1.396 . S
C19 H4 0.940 . S
C19 C14 1.391 . S
C19 C18 1.396 . S
C20 P0 1.803 . S
C20 C21 1.378 . S
C20 C25 1.400 . S
C21 H5 0.939 . S
C21 C20 1.378 . S
C21 C22 1.361 . S
C22 H6 0.942 . S
C22 C21 1.361 . S
C22 C23 1.369 . S
C23 C22 1.369 . S
C23 C24 1.404 . S
C24 H7 0.940 . S
C24 C23 1.404 . S
C24 C25 1.389 . S
C25 H8 0.939 . S
C25 C20 1.400 . S
C25 C24 1.389 . S
C26 P0 1.819 . S
C26 C27 1.391 . S
C26 C31 1.391 . S
C27 H9 0.941 . S
C27 C26 1.391 . S
C27 C28 1.396 . S
C28 H12 0.939 . S
C28 C27 1.396 . S
C28 C29 1.397 . S
C29 C28 1.397 . S
C29 C30 1.385 . S
C30 H13 0.940 . S
C30 C29 1.385 . S
C30 C31 1.388 . S
C31 H10 0.939 . S
C31 C26 1.391 . S
C31 C30 1.388 . S
P32 O43 1.490 . S
P32 C46 1.812 . S
P32 C52 1.803 . S
P32 C58 1.819 . S
H33 C47 0.941 . S
H34 C48 0.939 . S
H35 C50 0.940 . S
H36 C51 0.940 . S
H37 C53 0.939 . S
H38 C54 0.942 . S
H39 C56 0.940 . S
H40 C57 0.939 . S
H41 C59 0.941 . S
H42 C63 0.939 . S
O43 P32 1.490 . S
H44 C60 0.939 . S
H45 C62 0.940 . S
C46 P32 1.812 . S
C46 C47 1.389 . S
C46 C51 1.391 . S
C47 H33 0.941 . S
C47 C46 1.389 . S
C47 C48 1.397 . S
C48 H34 0.939 . S
C48 C47 1.397 . S
C48 C49 1.378 . S
C49 C48 1.378 . S
C49 C50 1.378 . S
C50 H35 0.940 . S
C50 C49 1.378 . S
C50 C51 1.396 . S
C51 H36 0.940 . S
C51 C46 1.391 . S
C51 C50 1.396 . S
C52 P32 1.803 . S
C52 C53 1.378 . S
C52 C57 1.400 . S
C53 H37 0.939 . S
C53 C52 1.378 . S
C53 C54 1.361 . S
C54 H38 0.942 . S
C54 C53 1.361 . S
C54 C55 1.369 . S
C55 C54 1.369 . S
C55 C56 1.404 . S
C56 H39 0.940 . S
C56 C55 1.404 . S
C56 C57 1.389 . S
C57 H40 0.939 . S
C57 C52 1.400 . S
C57 C56 1.389 . S
C58 P32 1.819 . S
C58 C59 1.391 . S
C58 C63 1.391 . S
C59 H41 0.941 . S
C59 C58 1.391 . S
C59 C60 1.396 . S
C60 H44 0.939 . S
C60 C59 1.396 . S
C60 C61 1.397 . S
C61 C60 1.397 . S
C61 C62 1.385 . S
C62 H45 0.940 . S
C62 C61 1.385 . S
C62 C63 1.388 . S
C63 H42 0.939 . S
C63 C58 1.391 . S
C63 C62 1.388 . S
P64 O75 1.490 . S
P64 C78 1.812 . S
P64 C84 1.803 . S
P64 C90 1.819 . S
H65 C79 0.941 . S
H66 C80 0.939 . S
H67 C82 0.940 . S
H68 C83 0.940 . S
H69 C85 0.939 . S
H70 C86 0.942 . S
H71 C88 0.940 . S
H72 C89 0.939 . S
H73 C91 0.941 . S
H74 C95 0.939 . S
O75 P64 1.490 . S
H76 C92 0.939 . S
H77 C94 0.940 . S
C78 P64 1.812 . S
C78 C79 1.389 . S
C78 C83 1.391 . S
C79 H65 0.941 . S
C79 C78 1.389 . S
C79 C80 1.397 . S
C80 H66 0.939 . S
C80 C79 1.397 . S
C80 C81 1.378 . S
C81 C80 1.378 . S
C81 C82 1.378 . S
C82 H67 0.940 . S
C82 C81 1.378 . S
C82 C83 1.396 . S
C83 H68 0.940 . S
C83 C78 1.391 . S
C83 C82 1.396 . S
C84 P64 1.803 . S
C84 C85 1.378 . S
C84 C89 1.400 . S
C85 H69 0.939 . S
C85 C84 1.378 . S
C85 C86 1.361 . S
C86 H70 0.942 . S
C86 C85 1.361 . S
C86 C87 1.369 . S
C87 C86 1.369 . S
C87 C88 1.404 . S
C88 H71 0.940 . S
C88 C87 1.404 . S
C88 C89 1.389 . S
C89 H72 0.939 . S
C89 C84 1.400 . S
C89 C88 1.389 . S
C90 P64 1.819 . S
C90 C91 1.391 . S
C90 C95 1.391 . S
C91 H73 0.941 . S
C91 C90 1.391 . S
C91 C92 1.396 . S
C92 H76 0.939 . S
C92 C91 1.396 . S
C92 C93 1.397 . S
C93 C92 1.397 . S
C93 C94 1.385 . S
C94 H77 0.940 . S
C94 C93 1.385 . S
C94 C95 1.388 . S
C95 H74 0.939 . S
C95 C90 1.391 . S
C95 C94 1.388 . S
P96 O107 1.490 . S
P96 C110 1.812 . S
P96 C116 1.803 . S
P96 C122 1.819 . S
H97 C111 0.941 . S
H98 C112 0.939 . S
H99 C114 0.940 . S
H100 C115 0.940 . S
H101 C117 0.939 . S
H102 C118 0.942 . S
H103 C120 0.940 . S
H104 C121 0.939 . S
H105 C123 0.941 . S
H106 C127 0.939 . S
O107 P96 1.490 . S
H108 C124 0.939 . S
H109 C126 0.940 . S
C110 P96 1.812 . S
C110 C111 1.389 . S
C110 C115 1.391 . S
C111 H97 0.941 . S
C111 C110 1.389 . S
C111 C112 1.397 . S
C112 H98 0.939 . S
C112 C111 1.397 . S
C112 C113 1.378 . S
C113 C112 1.378 . S
C113 C114 1.378 . S
C114 H99 0.940 . S
C114 C113 1.378 . S
C114 C115 1.396 . S
C115 H100 0.940 . S
C115 C110 1.391 . S
C115 C114 1.396 . S
C116 P96 1.803 . S
C116 C117 1.378 . S
C116 C121 1.400 . S
C117 H101 0.939 . S
C117 C116 1.378 . S
C117 C118 1.361 . S
C118 H102 0.942 . S
C118 C117 1.361 . S
C118 C119 1.369 . S
C119 C118 1.369 . S
C119 C120 1.404 . S
C120 H103 0.940 . S
C120 C119 1.404 . S
C120 C121 1.389 . S
C121 H104 0.939 . S
C121 C116 1.400 . S
C121 C120 1.389 . S
C122 P96 1.819 . S
C122 C123 1.391 . S
C122 C127 1.391 . S
C123 H105 0.941 . S
C123 C122 1.391 . S
C123 C124 1.396 . S
C124 H108 0.939 . S
C124 C123 1.396 . S
C124 C125 1.397 . S
C125 C124 1.397 . S
C125 C126 1.385 . S
C126 H109 0.940 . S
C126 C125 1.385 . S
C126 C127 1.388 . S
C127 H106 0.939 . S
C127 C122 1.391 . S
C127 C126 1.388 . S
P128 O139 1.490 . S
P128 C142 1.812 . S
P128 C148 1.803 . S
P128 C154 1.819 . S
H129 C143 0.941 . S
H130 C144 0.939 . S
H131 C146 0.940 . S
H132 C147 0.940 . S
H133 C149 0.939 . S
H134 C150 0.942 . S
H135 C152 0.940 . S
H136 C153 0.939 . S
H137 C155 0.941 . S
H138 C159 0.939 . S
O139 P128 1.490 . S
H140 C156 0.939 . S
H141 C158 0.940 . S
C142 P128 1.812 . S
C142 C143 1.389 . S
C142 C147 1.391 . S
C143 H129 0.941 . S
C143 C142 1.389 . S
C143 C144 1.397 . S
C144 H130 0.939 . S
C144 C143 1.397 . S
C144 C145 1.378 . S
C145 C144 1.378 . S
C145 C146 1.378 . S
C146 H131 0.940 . S
C146 C145 1.378 . S
C146 C147 1.396 . S
C147 H132 0.940 . S
C147 C142 1.391 . S
C147 C146 1.396 . S
C148 P128 1.803 . S
C148 C149 1.378 . S
C148 C153 1.400 . S
C149 H133 0.939 . S
C149 C148 1.378 . S
C149 C150 1.361 . S
C150 H134 0.942 . S
C150 C149 1.361 . S
C150 C151 1.369 . S
C151 C150 1.369 . S
C151 C152 1.404 . S
C152 H135 0.940 . S
C152 C151 1.404 . S
C152 C153 1.389 . S
C153 H136 0.939 . S
C153 C148 1.400 . S
C153 C152 1.389 . S
C154 P128 1.819 . S
C154 C155 1.391 . S
C154 C159 1.391 . S
C155 H137 0.941 . S
C155 C154 1.391 . S
C155 C156 1.396 . S
C156 H140 0.939 . S
C156 C155 1.396 . S
C156 C157 1.397 . S
C157 C156 1.397 . S
C157 C158 1.385 . S
C158 H141 0.940 . S
C158 C157 1.385 . S
C158 C159 1.388 . S
C159 H138 0.939 . S
C159 C154 1.391 . S
C159 C158 1.388 . S
P160 O171 1.490 . S
P160 C174 1.812 . S
P160 C180 1.803 . S
P160 C186 1.819 . S
H161 C175 0.941 . S
H162 C176 0.939 . S
H163 C178 0.940 . S
H164 C179 0.940 . S
H165 C181 0.939 . S
H166 C182 0.942 . S
H167 C184 0.940 . S
H168 C185 0.939 . S
H169 C187 0.941 . S
H170 C191 0.939 . S
O171 P160 1.490 . S
H172 C188 0.939 . S
H173 C190 0.940 . S
C174 P160 1.812 . S
C174 C175 1.389 . S
C174 C179 1.391 . S
C175 H161 0.941 . S
C175 C174 1.389 . S
C175 C176 1.397 . S
C176 H162 0.939 . S
C176 C175 1.397 . S
C176 C177 1.378 . S
C177 C176 1.378 . S
C177 C178 1.378 . S
C178 H163 0.940 . S
C178 C177 1.378 . S
C178 C179 1.396 . S
C179 H164 0.940 . S
C179 C174 1.391 . S
C179 C178 1.396 . S
C180 P160 1.803 . S
C180 C181 1.378 . S
C180 C185 1.400 . S
C181 H165 0.939 . S
C181 C180 1.378 . S
C181 C182 1.361 . S
C182 H166 0.942 . S
C182 C181 1.361 . S
C182 C183 1.369 . S
C183 C182 1.369 . S
C183 C184 1.404 . S
C184 H167 0.940 . S
C184 C183 1.404 . S
C184 C185 1.389 . S
C185 H168 0.939 . S
C185 C180 1.400 . S
C185 C184 1.389 . S
C186 P160 1.819 . S
C186 C187 1.391 . S
C186 C191 1.391 . S
C187 H169 0.941 . S
C187 C186 1.391 . S
C187 C188 1.396 . S
C188 H172 0.939 . S
C188 C187 1.396 . S
C188 C189 1.397 . S
C189 C188 1.397 . S
C189 C190 1.385 . S
C190 H173 0.940 . S
C190 C189 1.385 . S
C190 C191 1.388 . S
C191 H170 0.939 . S
C191 C186 1.391 . S
C191 C190 1.388 . S
P192 O203 1.490 . S
P192 C206 1.812 . S
P192 C212 1.803 . S
P192 C218 1.819 . S
H193 C207 0.941 . S
H194 C208 0.939 . S
H195 C210 0.940 . S
H196 C211 0.940 . S
H197 C213 0.939 . S
H198 C214 0.942 . S
H199 C216 0.940 . S
H200 C217 0.939 . S
H201 C219 0.941 . S
H202 C223 0.939 . S
O203 P192 1.490 . S
H204 C220 0.939 . S
H205 C222 0.940 . S
C206 P192 1.812 . S
C206 C207 1.389 . S
C206 C211 1.391 . S
C207 H193 0.941 . S
C207 C206 1.389 . S
C207 C208 1.397 . S
C208 H194 0.939 . S
C208 C207 1.397 . S
C208 C209 1.378 . S
C209 C208 1.378 . S
C209 C210 1.378 . S
C210 H195 0.940 . S
C210 C209 1.378 . S
C210 C211 1.396 . S
C211 H196 0.940 . S
C211 C206 1.391 . S
C211 C210 1.396 . S
C212 P192 1.803 . S
C212 C213 1.378 . S
C212 C217 1.400 . S
C213 H197 0.939 . S
C213 C212 1.378 . S
C213 C214 1.361 . S
C214 H198 0.942 . S
C214 C213 1.361 . S
C214 C215 1.369 . S
C215 C214 1.369 . S
C215 C216 1.404 . S
C216 H199 0.940 . S
C216 C215 1.404 . S
C216 C217 1.389 . S
C217 H200 0.939 . S
C217 C212 1.400 . S
C217 C216 1.389 . S
C218 P192 1.819 . S
C218 C219 1.391 . S
C218 C223 1.391 . S
C219 H201 0.941 . S
C219 C218 1.391 . S
C219 C220 1.396 . S
C220 H204 0.939 . S
C220 C219 1.396 . S
C220 C221 1.397 . S
C221 C220 1.397 . S
C221 C222 1.385 . S
C222 H205 0.940 . S
C222 C221 1.385 . S
C222 C223 1.388 . S
C223 H202 0.939 . S
C223 C218 1.391 . S
C223 C222 1.388 . S
P224 O235 1.490 . S
P224 C238 1.812 . S
P224 C244 1.803 . S
P224 C250 1.819 . S
H225 C239 0.941 . S
H226 C240 0.939 . S
H227 C242 0.940 . S
H228 C243 0.940 . S
H229 C245 0.939 . S
H230 C246 0.942 . S
H231 C248 0.940 . S
H232 C249 0.939 . S
H233 C251 0.941 . S
H234 C255 0.939 . S
O235 P224 1.490 . S
H236 C252 0.939 . S
H237 C254 0.940 . S
C238 P224 1.812 . S
C238 C239 1.389 . S
C238 C243 1.391 . S
C239 H225 0.941 . S
C239 C238 1.389 . S
C239 C240 1.397 . S
C240 H226 0.939 . S
C240 C239 1.397 . S
C240 C241 1.378 . S
C241 C240 1.378 . S
C241 C242 1.378 . S
C242 H227 0.940 . S
C242 C241 1.378 . S
C242 C243 1.396 . S
C243 H228 0.940 . S
C243 C238 1.391 . S
C243 C242 1.396 . S
C244 P224 1.803 . S
C244 C245 1.378 . S
C244 C249 1.400 . S
C245 H229 0.939 . S
C245 C244 1.378 . S
C245 C246 1.361 . S
C246 H230 0.942 . S
C246 C245 1.361 . S
C246 C247 1.369 . S
C247 C246 1.369 . S
C247 C248 1.404 . S
C248 H231 0.940 . S
C248 C247 1.404 . S
C248 C249 1.389 . S
C249 H232 0.939 . S
C249 C244 1.400 . S
C249 C248 1.389 . S
C250 P224 1.819 . S
C250 C251 1.391 . S
C250 C255 1.391 . S
C251 H233 0.941 . S
C251 C250 1.391 . S
C251 C252 1.396 . S
C252 H236 0.939 . S
C252 C251 1.396 . S
C252 C253 1.397 . S
C253 C252 1.397 . S
C253 C254 1.385 . S
C254 H237 0.940 . S
C254 C253 1.385 . S
C254 C255 1.388 . S
C255 H234 0.939 . S
C255 C250 1.391 . S
C255 C254 1.388 . S
Nd256 C258 2.836 . S
Nd256 O276 2.500 . S
Nd256 O277 2.492 . S
Nd256 O278 2.487 1_565 S
Nd256 O279 2.682 1_565 S
Nd256 O280 2.410 . S
Nd256 O285 2.414 1_455 S
Nd256 O287 2.424 1_565 S
Nd257 C267 2.836 . S
Nd257 O279 2.414 1_655 S
Nd257 O281 2.424 1_545 S
Nd257 O282 2.500 . S
Nd257 O283 2.492 . S
Nd257 O284 2.487 1_545 S
Nd257 O285 2.682 1_545 S
Nd257 O286 2.410 . S
C258 Nd256 2.836 . S
C258 C259 1.498 . S
C258 O276 1.258 . S
C258 O277 1.239 . S
C259 C258 1.498 . S
C259 C260 1.366 . S
C259 C264 1.407 . S
C260 C259 1.366 . S
C260 C261 1.392 . S
C260 H288 0.930 . S
C261 C260 1.392 . S
C261 C262 1.398 . S
C261 H289 0.929 . S
C262 C261 1.398 . S
C262 C263 1.352 . S
C263 C262 1.352 . S
C263 C264 1.384 . S
C263 H290 0.930 . S
C264 C259 1.407 . S
C264 C263 1.384 . S
C264 H291 0.929 . S
C265 O278 1.241 . S
C265 O279 1.273 . S
C266 O280 1.251 1_655 S
C266 O281 1.268 . S
C267 Nd257 2.836 . S
C267 C268 1.498 . S
C267 O282 1.258 . S
C267 O283 1.239 . S
C268 C267 1.498 . S
C268 C269 1.366 . S
C268 C273 1.407 . S
C269 C268 1.366 . S
C269 C270 1.392 . S
C269 H292 0.930 . S
C270 C269 1.392 . S
C270 C271 1.398 . S
C270 H293 0.929 . S
C271 C270 1.398 . S
C271 C272 1.352 . S
C272 C271 1.352 . S
C272 C273 1.384 . S
C272 H294 0.930 . S
C273 C268 1.407 . S
C273 C272 1.384 . S
C273 H295 0.929 . S
C274 O284 1.241 . S
C274 O285 1.273 . S
C275 O286 1.251 1_455 S
C275 O287 1.268 . S
O276 Nd256 2.500 . S
O276 C258 1.258 . S
O277 Nd256 2.492 . S
O277 C258 1.239 . S
O278 Nd256 2.487 1_545 S
O278 C265 1.241 . S
O279 Nd256 2.682 1_545 S
O279 Nd257 2.414 1_455 S
O279 C265 1.273 . S
O280 Nd256 2.410 . S
O280 C266 1.251 1_455 S
O281 Nd257 2.424 1_565 S
O281 C266 1.268 . S
O282 Nd257 2.500 . S
O282 C267 1.258 . S
O283 Nd257 2.492 . S
O283 C267 1.239 . S
O284 Nd257 2.487 1_565 S
O284 C274 1.241 . S
O285 Nd256 2.414 1_655 S
O285 Nd257 2.682 1_565 S
O285 C274 1.273 . S
O286 Nd257 2.410 . S
O286 C275 1.251 1_655 S
O287 Nd256 2.424 1_545 S
O287 C275 1.268 . S
H288 C260 0.930 . S
H289 C261 0.929 . S
H290 C263 0.930 . S
H291 C264 0.929 . S
H292 C269 0.930 . S
H293 C270 0.929 . S
H294 C272 0.930 . S
H295 C273 0.929 . S
Nd296 C298 2.836 . S
Nd296 O316 2.500 . S
Nd296 O317 2.492 . S
Nd296 O318 2.487 1_565 S
Nd296 O319 2.682 1_565 S
Nd296 O320 2.410 1_554 S
Nd296 O325 2.395 1_554 S
Nd296 O327 2.424 1_565 S
Nd297 C307 2.836 . S
Nd297 O319 2.414 1_556 S
Nd297 O321 2.424 1_545 S
Nd297 O322 2.500 . S
Nd297 O323 2.492 . S
Nd297 O324 2.487 . S
Nd297 O325 2.694 1_545 S
Nd297 O326 2.410 1_556 S
C298 Nd296 2.836 . S
C298 C299 1.498 . S
C298 O316 1.258 . S
C298 O317 1.239 . S
C299 C298 1.498 . S
C299 C300 1.366 . S
C299 C304 1.407 . S
C300 C299 1.366 . S
C300 C301 1.392 . S
C300 H328 0.930 . S
C301 C300 1.392 . S
C301 C302 1.398 . S
C301 H329 0.929 . S
C302 C301 1.398 . S
C302 C303 1.352 . S
C303 C302 1.352 . S
C303 C304 1.384 . S
C303 H330 0.930 . S
C304 C299 1.407 . S
C304 C303 1.384 . S
C304 H331 0.929 . S
C305 O318 1.241 . S
C305 O319 1.273 . S
C306 O320 1.251 . S
C306 O321 1.268 . S
C307 Nd297 2.836 . S
C307 C308 1.498 . S
C307 O322 1.258 . S
C307 O323 1.239 . S
C308 C307 1.498 . S
C308 C309 1.366 . S
C308 C313 1.407 . S
C309 C308 1.366 . S
C309 C310 1.392 . S
C309 H332 0.930 . S
C310 C309 1.392 . S
C310 C311 1.398 . S
C310 H333 0.929 . S
C311 C310 1.398 . S
C311 C312 1.352 . S
C312 C311 1.352 . S
C312 C313 1.384 . S
C312 H334 0.930 . S
C313 C308 1.407 . S
C313 C312 1.384 . S
C313 H335 0.929 . S
C314 O324 1.241 1_565 S
C314 O325 1.288 . S
C315 O326 1.251 . S
C315 O327 1.268 . S
O316 Nd296 2.500 . S
O316 C298 1.258 . S
O317 Nd296 2.492 . S
O317 C298 1.239 . S
O318 Nd296 2.487 1_545 S
O318 C305 1.241 . S
O319 Nd296 2.682 1_545 S
O319 Nd297 2.414 1_554 S
O319 C305 1.273 . S
O320 Nd296 2.410 1_556 S
O320 C306 1.251 . S
O321 Nd297 2.424 1_565 S
O321 C306 1.268 . S
O322 Nd297 2.500 . S
O322 C307 1.258 . S
O323 Nd297 2.492 . S
O323 C307 1.239 . S
O324 Nd297 2.487 . S
O324 C314 1.241 1_545 S
O325 Nd296 2.395 1_556 S
O325 Nd297 2.694 1_565 S
O325 C314 1.288 . S
O326 Nd297 2.410 1_554 S
O326 C315 1.251 . S
O327 Nd296 2.424 1_545 S
O327 C315 1.268 . S
H328 C300 0.930 . S
H329 C301 0.929 . S
H330 C303 0.930 . S
H331 C304 0.929 . S
H332 C309 0.930 . S
H333 C310 0.929 . S
H334 C312 0.930 . S
H335 C313 0.929 . S
Nd336 C338 2.836 . S
Nd336 O356 2.500 . S
Nd336 O357 2.492 . S
Nd336 O358 2.487 . S
Nd336 O359 2.682 . S
Nd336 O360 2.410 . S
Nd336 O365 2.414 . S
Nd336 O367 2.424 . S
Nd337 C347 2.836 . S
Nd337 O359 2.414 . S
Nd337 O361 2.424 . S
Nd337 O362 2.500 . S
Nd337 O363 2.492 . S
Nd337 O364 2.487 . S
Nd337 O365 2.682 . S
Nd337 O366 2.410 . S
C338 Nd336 2.836 . S
C338 C339 1.498 . S
C338 O356 1.258 . S
C338 O357 1.239 . S
C339 C338 1.498 . S
C339 C340 1.366 . S
C339 C344 1.407 . S
C340 C339 1.366 . S
C340 C341 1.392 . S
C340 H368 0.930 . S
C341 C340 1.392 . S
C341 C342 1.398 . S
C341 H369 0.929 . S
C342 C341 1.398 . S
C342 C343 1.352 . S
C343 C342 1.352 . S
C343 C344 1.384 . S
C343 H370 0.930 . S
C344 C339 1.407 . S
C344 C343 1.384 . S
C344 H371 0.929 . S
C345 O358 1.241 . S
C345 O359 1.273 . S
C346 O360 1.251 . S
C346 O361 1.268 . S
C347 Nd337 2.836 . S
C347 C348 1.498 . S
C347 O362 1.258 . S
C347 O363 1.239 . S
C348 C347 1.498 . S
C348 C349 1.366 . S
C348 C353 1.407 . S
C349 C348 1.366 . S
C349 C350 1.392 . S
C349 H372 0.930 . S
C350 C349 1.392 . S
C350 C351 1.398 . S
C350 H373 0.929 . S
C351 C350 1.398 . S
C351 C352 1.352 . S
C352 C351 1.352 . S
C352 C353 1.384 . S
C352 H374 0.930 . S
C353 C348 1.407 . S
C353 C352 1.384 . S
C353 H375 0.929 . S
C354 O364 1.241 . S
C354 O365 1.273 . S
C355 O366 1.251 . S
C355 O367 1.268 . S
O356 Nd336 2.500 . S
O356 C338 1.258 . S
O357 Nd336 2.492 . S
O357 C338 1.239 . S
O358 Nd336 2.487 . S
O358 C345 1.241 . S
O359 Nd336 2.682 . S
O359 Nd337 2.414 . S
O359 C345 1.273 . S
O360 Nd336 2.410 . S
O360 C346 1.251 . S
O361 Nd337 2.424 . S
O361 C346 1.268 . S
O362 Nd337 2.500 . S
O362 C347 1.258 . S
O363 Nd337 2.492 . S
O363 C347 1.239 . S
O364 Nd337 2.487 . S
O364 C354 1.241 . S
O365 Nd336 2.414 . S
O365 Nd337 2.682 . S
O365 C354 1.273 . S
O366 Nd337 2.410 . S
O366 C355 1.251 . S
O367 Nd336 2.424 . S
O367 C355 1.268 . S
H368 C340 0.930 . S
H369 C341 0.929 . S
H370 C343 0.930 . S
H371 C344 0.929 . S
H372 C349 0.930 . S
H373 C350 0.929 . S
H374 C352 0.930 . S
H375 C353 0.929 . S
Nd376 C378 2.836 . S
Nd376 O396 2.500 . S
Nd376 O397 2.492 . S
Nd376 O398 2.487 1_655 S
Nd376 O399 2.682 1_655 S
Nd376 O400 2.410 . S
Nd376 O405 2.414 1_554 S
Nd376 O407 2.424 1_655 S
Nd377 C387 2.836 . S
Nd377 O399 2.414 1_556 S
Nd377 O401 2.424 1_455 S
Nd377 O402 2.500 . S
Nd377 O403 2.492 . S
Nd377 O404 2.487 1_455 S
Nd377 O405 2.682 1_455 S
Nd377 O406 2.410 . S
C378 Nd376 2.836 . S
C378 C379 1.498 . S
C378 O396 1.258 . S
C378 O397 1.239 . S
C379 C378 1.498 . S
C379 C380 1.366 . S
C379 C384 1.407 . S
C380 C379 1.366 . S
C380 C381 1.392 . S
C380 H408 0.930 . S
C381 C380 1.392 . S
C381 C382 1.398 . S
C381 H409 0.929 . S
C382 C381 1.398 . S
C382 C383 1.352 . S
C383 C382 1.352 . S
C383 C384 1.384 . S
C383 H410 0.930 . S
C384 C379 1.407 . S
C384 C383 1.384 . S
C384 H411 0.929 . S
C385 O398 1.241 . S
C385 O399 1.273 . S
C386 O400 1.251 1_556 S
C386 O401 1.268 . S
C387 Nd377 2.836 . S
C387 C388 1.498 . S
C387 O402 1.258 . S
C387 O403 1.239 . S
C388 C387 1.498 . S
C388 C389 1.366 . S
C388 C393 1.407 . S
C389 C388 1.366 . S
C389 C390 1.392 . S
C389 H412 0.930 . S
C390 C389 1.392 . S
C390 C391 1.398 . S
C390 H413 0.929 . S
C391 C390 1.398 . S
C391 C392 1.352 . S
C392 C391 1.352 . S
C392 C393 1.384 . S
C392 H414 0.930 . S
C393 C388 1.407 . S
C393 C392 1.384 . S
C393 H415 0.929 . S
C394 O404 1.241 . S
C394 O405 1.273 . S
C395 O406 1.251 1_554 S
C395 O407 1.268 . S
O396 Nd376 2.500 . S
O396 C378 1.258 . S
O397 Nd376 2.492 . S
O397 C378 1.239 . S
O398 Nd376 2.487 1_455 S
O398 C385 1.241 . S
O399 Nd376 2.682 1_455 S
O399 Nd377 2.414 1_554 S
O399 C385 1.273 . S
O400 Nd376 2.410 . S
O400 C386 1.251 1_554 S
O401 Nd377 2.424 1_655 S
O401 C386 1.268 . S
O402 Nd377 2.500 . S
O402 C387 1.258 . S
O403 Nd377 2.492 . S
O403 C387 1.239 . S
O404 Nd377 2.487 1_655 S
O404 C394 1.241 . S
O405 Nd376 2.414 1_556 S
O405 Nd377 2.682 1_655 S
O405 C394 1.273 . S
O406 Nd377 2.410 . S
O406 C395 1.251 1_556 S
O407 Nd376 2.424 1_455 S
O407 C395 1.268 . S
H408 C380 0.930 . S
H409 C381 0.929 . S
H410 C383 0.930 . S
H411 C384 0.929 . S
H412 C389 0.930 . S
H413 C390 0.929 . S
H414 C392 0.930 . S
H415 C393 0.929 . S
H416 C422 0.930 . S
H417 C425 0.930 . S
H418 C426 0.930 . S
H419 C427 0.930 . S
H420 C430 0.930 . S
H421 C431 0.930 . S
C422 H416 0.930 . S
C422 C423 1.355 . S
C422 C424 1.415 . S
C423 C422 1.355 . S
C423 C425 1.419 . S
C424 C422 1.415 . S
C424 C429 1.425 . S
C424 C431 1.409 . S
C425 H417 0.930 . S
C425 C423 1.419 . S
C425 C426 1.362 . S
C426 H418 0.930 . S
C426 C425 1.362 . S
C426 C429 1.409 . S
C427 H419 0.930 . S
C427 C428 1.355 . S
C427 C429 1.415 . S
C428 C427 1.355 . S
C428 C430 1.419 . S
C429 C424 1.425 . S
C429 C426 1.409 . S
C429 C427 1.415 . S
C430 H420 0.930 . S
C430 C428 1.419 . S
C430 C431 1.362 . S
C431 H421 0.930 . S
C431 C424 1.409 . S
C431 C430 1.362 . S
H432 C438 0.930 . S
H433 C441 0.930 . S
H434 C442 0.930 . S
H435 C443 0.930 . S
H436 C446 0.930 . S
H437 C447 0.930 . S
C438 H432 0.930 . S
C438 C439 1.355 . S
C438 C440 1.415 . S
C439 C438 1.355 . S
C439 C441 1.419 . S
C440 C438 1.415 . S
C440 C445 1.425 . S
C440 C447 1.409 . S
C441 H433 0.930 . S
C441 C439 1.419 . S
C441 C442 1.362 . S
C442 H434 0.930 . S
C442 C441 1.362 . S
C442 C445 1.409 . S
C443 H435 0.930 . S
C443 C444 1.355 . S
C443 C445 1.415 . S
C444 C443 1.355 . S
C444 C446 1.419 . S
C445 C440 1.425 . S
C445 C442 1.409 . S
C445 C443 1.415 . S
C446 H436 0.930 . S
C446 C444 1.419 . S
C446 C447 1.362 . S
C447 H437 0.930 . S
C447 C440 1.409 . S
C447 C446 1.362 . S
H448 C454 0.930 . S
H449 C457 0.930 . S
H450 C458 0.930 . S
H451 C459 0.930 . S
H452 C462 0.930 . S
H453 C463 0.930 . S
C454 H448 0.930 . S
C454 C455 1.355 . S
C454 C456 1.415 . S
C455 C454 1.355 . S
C455 C457 1.419 . S
C456 C454 1.415 . S
C456 C461 1.425 . S
C456 C463 1.409 . S
C457 H449 0.930 . S
C457 C455 1.419 . S
C457 C458 1.362 . S
C458 H450 0.930 . S
C458 C457 1.362 . S
C458 C461 1.409 . S
C459 H451 0.930 . S
C459 C460 1.355 . S
C459 C461 1.415 . S
C460 C459 1.355 . S
C460 C462 1.419 . S
C461 C456 1.425 . S
C461 C458 1.409 . S
C461 C459 1.415 . S
C462 H452 0.930 . S
C462 C460 1.419 . S
C462 C463 1.362 . S
C463 H453 0.930 . S
C463 C456 1.409 . S
C463 C462 1.362 . S
H464 C470 0.930 . S
H465 C473 0.930 . S
H466 C474 0.930 . S
H467 C475 0.930 . S
H468 C478 0.930 . S
H469 C479 0.930 . S
C470 H464 0.930 . S
C470 C471 1.355 . S
C470 C472 1.415 . S
C471 C470 1.355 . S
C471 C473 1.419 . S
C472 C470 1.415 . S
C472 C477 1.425 . S
C472 C479 1.409 . S
C473 H465 0.930 . S
C473 C471 1.419 . S
C473 C474 1.362 . S
C474 H466 0.930 . S
C474 C473 1.362 . S
C474 C477 1.409 . S
C475 H467 0.930 . S
C475 C476 1.355 . S
C475 C477 1.415 . S
C476 C475 1.355 . S
C476 C478 1.419 . S
C477 C472 1.425 . S
C477 C474 1.409 . S
C477 C475 1.415 . S
C478 H468 0.930 . S
C478 C476 1.419 . S
C478 C479 1.362 . S
C479 H469 0.930 . S
C479 C472 1.409 . S
C479 C478 1.362 . S
H480 C486 0.930 . S
H481 C489 0.930 . S
H482 C490 0.930 . S
H483 C491 0.930 . S
H484 C494 0.930 . S
H485 C495 0.930 . S
C486 H480 0.930 . S
C486 C487 1.355 . S
C486 C488 1.415 . S
C487 C486 1.355 . S
C487 C489 1.419 . S
C488 C486 1.415 . S
C488 C493 1.425 . S
C488 C495 1.409 . S
C489 H481 0.930 . S
C489 C487 1.419 . S
C489 C490 1.362 . S
C490 H482 0.930 . S
C490 C489 1.362 . S
C490 C493 1.409 . S
C491 H483 0.930 . S
C491 C492 1.355 . S
C491 C493 1.415 . S
C492 C491 1.355 . S
C492 C494 1.419 . S
C493 C488 1.425 . S
C493 C490 1.409 . S
C493 C491 1.415 . S
C494 H484 0.930 . S
C494 C492 1.419 . S
C494 C495 1.362 . S
C495 H485 0.930 . S
C495 C488 1.409 . S
C495 C494 1.362 . S
H496 C502 0.930 . S
H497 C505 0.930 . S
H498 C506 0.930 . S
H499 C507 0.930 . S
H500 C510 0.930 . S
H501 C511 0.930 . S
C502 H496 0.930 . S
C502 C503 1.355 . S
C502 C504 1.415 . S
C503 C502 1.355 . S
C503 C505 1.419 . S
C504 C502 1.415 . S
C504 C509 1.425 . S
C504 C511 1.409 . S
C505 H497 0.930 . S
C505 C503 1.419 . S
C505 C506 1.362 . S
C506 H498 0.930 . S
C506 C505 1.362 . S
C506 C509 1.409 . S
C507 H499 0.930 . S
C507 C508 1.355 . S
C507 C509 1.415 . S
C508 C507 1.355 . S
C508 C510 1.419 . S
C509 C504 1.425 . S
C509 C506 1.409 . S
C509 C507 1.415 . S
C510 H500 0.930 . S
C510 C508 1.419 . S
C510 C511 1.362 . S
C511 H501 0.930 . S
C511 C504 1.409 . S
C511 C510 1.362 . S
H512 C518 0.930 . S
H513 C521 0.930 . S
H514 C522 0.930 . S
H515 C523 0.930 . S
H516 C526 0.930 . S
H517 C527 0.930 . S
C518 H512 0.930 . S
C518 C519 1.355 . S
C518 C520 1.415 . S
C519 C518 1.355 . S
C519 C521 1.419 . S
C520 C518 1.415 . S
C520 C525 1.425 . S
C520 C527 1.409 . S
C521 H513 0.930 . S
C521 C519 1.419 . S
C521 C522 1.362 . S
C522 H514 0.930 . S
C522 C521 1.362 . S
C522 C525 1.409 . S
C523 H515 0.930 . S
C523 C524 1.355 . S
C523 C525 1.415 . S
C524 C523 1.355 . S
C524 C526 1.419 . S
C525 C520 1.425 . S
C525 C522 1.409 . S
C525 C523 1.415 . S
C526 H516 0.930 . S
C526 C524 1.419 . S
C526 C527 1.362 . S
C527 H517 0.930 . S
C527 C520 1.409 . S
C527 C526 1.362 . S
H528 C534 0.930 . S
H529 C537 0.930 . S
H530 C538 0.930 . S
H531 C539 0.930 . S
H532 C542 0.930 . S
H533 C543 0.930 . S
C534 H528 0.930 . S
C534 C535 1.355 . S
C534 C536 1.415 . S
C535 C534 1.355 . S
C535 C537 1.419 . S
C536 C534 1.415 . S
C536 C541 1.425 . S
C536 C543 1.409 . S
C537 H529 0.930 . S
C537 C535 1.419 . S
C537 C538 1.362 . S
C538 H530 0.930 . S
C538 C537 1.362 . S
C538 C541 1.409 . S
C539 H531 0.930 . S
C539 C540 1.355 . S
C539 C541 1.415 . S
C540 C539 1.355 . S
C540 C542 1.419 . S
C541 C536 1.425 . S
C541 C538 1.409 . S
C541 C539 1.415 . S
C542 H532 0.930 . S
C542 C540 1.419 . S
C542 C543 1.362 . S
C543 H533 0.930 . S
C543 C536 1.409 . S
C543 C542 1.362 . S
H544 C550 0.930 . S
H545 C553 0.930 . S
H546 C554 0.930 . S
H547 C555 0.930 . S
H548 C558 0.930 . S
H549 C559 0.930 . S
C550 H544 0.930 . S
C550 C551 1.355 . S
C550 C552 1.415 . S
C551 C550 1.355 . S
C551 C553 1.419 . S
C552 C550 1.415 . S
C552 C557 1.425 . S
C552 C559 1.409 . S
C553 H545 0.930 . S
C553 C551 1.419 . S
C553 C554 1.362 . S
C554 H546 0.930 . S
C554 C553 1.362 . S
C554 C557 1.409 . S
C555 H547 0.930 . S
C555 C556 1.355 . S
C555 C557 1.415 . S
C556 C555 1.355 . S
C556 C558 1.419 . S
C557 C552 1.425 . S
C557 C554 1.409 . S
C557 C555 1.415 . S
C558 H548 0.930 . S
C558 C556 1.419 . S
C558 C559 1.362 . S
C559 H549 0.930 . S
C559 C552 1.409 . S
C559 C558 1.362 . S
H560 C566 0.930 . S
H561 C569 0.930 . S
H562 C570 0.930 . S
H563 C571 0.930 . S
H564 C574 0.930 . S
H565 C575 0.930 . S
C566 H560 0.930 . S
C566 C567 1.355 . S
C566 C568 1.415 . S
C567 C566 1.355 . S
C567 C569 1.419 . S
C568 C566 1.415 . S
C568 C573 1.425 . S
C568 C575 1.409 . S
C569 H561 0.930 . S
C569 C567 1.419 . S
C569 C570 1.362 . S
C570 H562 0.930 . S
C570 C569 1.362 . S
C570 C573 1.409 . S
C571 H563 0.930 . S
C571 C572 1.355 . S
C571 C573 1.415 . S
C572 C571 1.355 . S
C572 C574 1.419 . S
C573 C568 1.425 . S
C573 C570 1.409 . S
C573 C571 1.415 . S
C574 H564 0.930 . S
C574 C572 1.419 . S
C574 C575 1.362 . S
C575 H565 0.930 . S
C575 C568 1.409 . S
C575 C574 1.362 . S
H576 C582 0.930 . S
H577 C585 0.930 . S
H578 C586 0.930 . S
H579 C587 0.930 . S
H580 C590 0.930 . S
H581 C591 0.930 . S
C582 H576 0.930 . S
C582 C583 1.355 . S
C582 C584 1.415 . S
C583 C582 1.355 . S
C583 C585 1.419 . S
C584 C582 1.415 . S
C584 C589 1.425 . S
C584 C591 1.409 . S
C585 H577 0.930 . S
C585 C583 1.419 . S
C585 C586 1.362 . S
C586 H578 0.930 . S
C586 C585 1.362 . S
C586 C589 1.409 . S
C587 H579 0.930 . S
C587 C588 1.355 . S
C587 C589 1.415 . S
C588 C587 1.355 . S
C588 C590 1.419 . S
C589 C584 1.425 . S
C589 C586 1.409 . S
C589 C587 1.415 . S
C590 H580 0.930 . S
C590 C588 1.419 . S
C590 C591 1.362 . S
C591 H581 0.930 . S
C591 C584 1.409 . S
C591 C590 1.362 . S
H592 C598 0.930 . S
H593 C601 0.930 . S
H594 C602 0.930 . S
H595 C603 0.930 . S
H596 C606 0.930 . S
H597 C607 0.930 . S
C598 H592 0.930 . S
C598 C599 1.355 . S
C598 C600 1.415 . S
C599 C598 1.355 . S
C599 C601 1.419 . S
C600 C598 1.415 . S
C600 C605 1.425 . S
C600 C607 1.409 . S
C601 H593 0.930 . S
C601 C599 1.419 . S
C601 C602 1.362 . S
C602 H594 0.930 . S
C602 C601 1.362 . S
C602 C605 1.409 . S
C603 H595 0.930 . S
C603 C604 1.355 . S
C603 C605 1.415 . S
C604 C603 1.355 . S
C604 C606 1.419 . S
C605 C600 1.425 . S
C605 C602 1.409 . S
C605 C603 1.415 . S
C606 H596 0.930 . S
C606 C604 1.419 . S
C606 C607 1.362 . S
C607 H597 0.930 . S
C607 C600 1.409 . S
C607 C606 1.362 . S
H608 C614 0.930 . S
H609 C617 0.930 . S
H610 C618 0.930 . S
H611 C619 0.930 . S
H612 C622 0.930 . S
H613 C623 0.930 . S
C614 H608 0.930 . S
C614 C615 1.355 . S
C614 C616 1.415 . S
C615 C614 1.355 . S
C615 C617 1.419 . S
C616 C614 1.415 . S
C616 C621 1.425 . S
C616 C623 1.409 . S
C617 H609 0.930 . S
C617 C615 1.419 . S
C617 C618 1.362 . S
C618 H610 0.930 . S
C618 C617 1.362 . S
C618 C621 1.409 . S
C619 H611 0.930 . S
C619 C620 1.355 . S
C619 C621 1.415 . S
C620 C619 1.355 . S
C620 C622 1.419 . S
C621 C616 1.425 . S
C621 C618 1.409 . S
C621 C619 1.415 . S
C622 H612 0.930 . S
C622 C620 1.419 . S
C622 C623 1.362 . S
C623 H613 0.930 . S
C623 C616 1.409 . S
C623 C622 1.362 . S
H624 C630 0.930 . S
H625 C633 0.930 . S
H626 C634 0.930 . S
H627 C635 0.930 . S
H628 C638 0.930 . S
H629 C639 0.930 . S
C630 H624 0.930 . S
C630 C631 1.355 . S
C630 C632 1.415 . S
C631 C630 1.355 . S
C631 C633 1.419 . S
C632 C630 1.415 . S
C632 C637 1.425 . S
C632 C639 1.409 . S
C633 H625 0.930 . S
C633 C631 1.419 . S
C633 C634 1.362 . S
C634 H626 0.930 . S
C634 C633 1.362 . S
C634 C637 1.409 . S
C635 H627 0.930 . S
C635 C636 1.355 . S
C635 C637 1.415 . S
C636 C635 1.355 . S
C636 C638 1.419 . S
C637 C632 1.425 . S
C637 C634 1.409 . S
C637 C635 1.415 . S
C638 H628 0.930 . S
C638 C636 1.419 . S
C638 C639 1.362 . S
C639 H629 0.930 . S
C639 C632 1.409 . S
C639 C638 1.362 . S
H640 C646 0.930 . S
H641 C649 0.930 . S
H642 C650 0.930 . S
H643 C651 0.930 . S
H644 C654 0.930 . S
H645 C655 0.930 . S
C646 H640 0.930 . S
C646 C647 1.355 . S
C646 C648 1.415 . S
C647 C646 1.355 . S
C647 C649 1.419 . S
C648 C646 1.415 . S
C648 C653 1.425 . S
C648 C655 1.409 . S
C649 H641 0.930 . S
C649 C647 1.419 . S
C649 C650 1.362 . S
C650 H642 0.930 . S
C650 C649 1.362 . S
C650 C653 1.409 . S
C651 H643 0.930 . S
C651 C652 1.355 . S
C651 C653 1.415 . S
C652 C651 1.355 . S
C652 C654 1.419 . S
C653 C648 1.425 . S
C653 C650 1.409 . S
C653 C651 1.415 . S
C654 H644 0.930 . S
C654 C652 1.419 . S
C654 C655 1.362 . S
C655 H645 0.930 . S
C655 C648 1.409 . S
C655 C654 1.362 . S
H656 C662 0.930 . S
H657 C665 0.930 . S
H658 C666 0.930 . S
H659 C667 0.930 . S
H660 C670 0.930 . S
H661 C671 0.930 . S
C662 H656 0.930 . S
C662 C663 1.355 . S
C662 C664 1.415 . S
C663 C662 1.355 . S
C663 C665 1.419 . S
C664 C662 1.415 . S
C664 C669 1.425 . S
C664 C671 1.409 . S
C665 H657 0.930 . S
C665 C663 1.419 . S
C665 C666 1.362 . S
C666 H658 0.930 . S
C666 C665 1.362 . S
C666 C669 1.409 . S
C667 H659 0.930 . S
C667 C668 1.355 . S
C667 C669 1.415 . S
C668 C667 1.355 . S
C668 C670 1.419 . S
C669 C664 1.425 . S
C669 C666 1.409 . S
C669 C667 1.415 . S
C670 H660 0.930 . S
C670 C668 1.419 . S
C670 C671 1.362 . S
C671 H661 0.930 . S
C671 C664 1.409 . S
C671 C670 1.362 . S
H672 C678 0.930 . S
H673 C681 0.930 . S
H674 C682 0.930 . S
H675 C683 0.930 . S
H676 C686 0.904 1_545 S
H677 C687 0.930 . S
C678 H672 0.930 . S
C678 C679 1.355 . S
C678 C680 1.415 . S
C679 C678 1.355 . S
C679 C681 1.419 . S
C680 C678 1.415 . S
C680 C685 1.425 . S
C680 C687 1.409 . S
C681 H673 0.930 . S
C681 C679 1.419 . S
C681 C682 1.362 . S
C682 H674 0.930 . S
C682 C681 1.362 . S
C682 C685 1.409 . S
C683 H675 0.930 . S
C683 C684 1.355 . S
C683 C685 1.415 . S
C684 C683 1.355 . S
C684 C686 1.419 . S
C685 C680 1.425 . S
C685 C682 1.409 . S
C685 C683 1.415 . S
C686 H676 0.904 1_565 S
C686 C684 1.419 . S
C686 C687 1.362 . S
C687 H677 0.930 . S
C687 C680 1.409 . S
C687 C686 1.362 . S
H688 C694 0.930 . S
H689 C697 0.930 . S
H690 C698 0.930 . S
H691 C699 0.930 . S
H692 C702 0.930 . S
H693 C703 0.930 . S
C694 H688 0.930 . S
C694 C695 1.355 . S
C694 C696 1.415 . S
C695 C694 1.355 . S
C695 C697 1.419 . S
C696 C694 1.415 . S
C696 C701 1.425 . S
C696 C703 1.409 . S
C697 H689 0.930 . S
C697 C695 1.419 . S
C697 C698 1.362 . S
C698 H690 0.930 . S
C698 C697 1.362 . S
C698 C701 1.409 . S
C699 H691 0.930 . S
C699 C700 1.355 . S
C699 C701 1.415 . S
C700 C699 1.355 . S
C700 C702 1.419 . S
C701 C696 1.425 . S
C701 C698 1.409 . S
C701 C699 1.415 . S
C702 H692 0.930 . S
C702 C700 1.419 . S
C702 C703 1.362 . S
C703 H693 0.930 . S
C703 C696 1.409 . S
C703 C702 1.362 . S
H704 C710 0.930 . S
H705 C713 0.930 . S
H706 C714 0.930 . S
H707 C715 0.930 . S
H708 C718 0.930 . S
H709 C719 0.930 . S
C710 H704 0.930 . S
C710 C711 1.355 . S
C710 C712 1.415 . S
C711 C710 1.355 . S
C711 C713 1.419 . S
C712 C710 1.415 . S
C712 C717 1.425 . S
C712 C719 1.409 . S
C713 H705 0.930 . S
C713 C711 1.419 . S
C713 C714 1.362 . S
C714 H706 0.930 . S
C714 C713 1.362 . S
C714 C717 1.409 . S
C715 H707 0.930 . S
C715 C716 1.355 . S
C715 C717 1.415 . S
C716 C715 1.355 . S
C716 C718 1.419 . S
C717 C712 1.425 . S
C717 C714 1.409 . S
C717 C715 1.415 . S
C718 H708 0.930 . S
C718 C716 1.419 . S
C718 C719 1.362 . S
C719 H709 0.930 . S
C719 C712 1.409 . S
C719 C718 1.362 . S
H720 C726 0.930 . S
H721 C729 0.930 . S
H722 C730 0.930 . S
H723 C731 0.930 . S
H724 C734 0.930 . S
H725 C735 0.930 . S
C726 H720 0.930 . S
C726 C727 1.355 . S
C726 C728 1.415 . S
C727 C726 1.355 . S
C727 C729 1.419 . S
C728 C726 1.415 . S
C728 C733 1.425 . S
C728 C735 1.409 . S
C729 H721 0.930 . S
C729 C727 1.419 . S
C729 C730 1.362 . S
C730 H722 0.930 . S
C730 C729 1.362 . S
C730 C733 1.409 . S
C731 H723 0.930 . S
C731 C732 1.355 . S
C731 C733 1.415 . S
C732 C731 1.355 . S
C732 C734 1.419 . S
C733 C728 1.425 . S
C733 C730 1.409 . S
C733 C731 1.415 . S
C734 H724 0.930 . S
C734 C732 1.419 . S
C734 C735 1.362 . S
C735 H725 0.930 . S
C735 C728 1.409 . S
C735 C734 1.362 . S
H736 C742 0.930 . S
H737 C745 0.926 1_554 S
H738 C746 0.934 1_554 S
H739 C747 0.930 1_554 S
H740 C750 0.930 . S
H741 C751 0.930 . S
C742 H736 0.930 . S
C742 C743 1.355 . S
C742 C744 1.415 . S
C743 C742 1.355 . S
C743 C745 1.419 . S
C744 C742 1.415 . S
C744 C749 1.425 . S
C744 C751 1.409 . S
C745 H737 0.926 1_556 S
C745 C743 1.419 . S
C745 C746 1.361 . S
C746 H738 0.934 1_556 S
C746 C745 1.361 . S
C746 C749 1.407 . S
C747 H739 0.930 1_556 S
C747 C748 1.355 . S
C747 C749 1.415 . S
C748 C747 1.355 . S
C748 C750 1.419 . S
C749 C744 1.425 . S
C749 C746 1.407 . S
C749 C747 1.415 . S
C750 H740 0.930 . S
C750 C748 1.419 . S
C750 C751 1.362 . S
C751 H741 0.930 . S
C751 C744 1.409 . S
C751 C750 1.362 . S
H752 C758 0.930 . S
H753 C761 0.930 . S
H754 C762 0.930 . S
H755 C763 0.930 . S
H756 C766 0.930 . S
H757 C767 0.930 . S
C758 H752 0.930 . S
C758 C759 1.355 . S
C758 C760 1.415 . S
C759 C758 1.355 . S
C759 C761 1.419 . S
C760 C758 1.415 . S
C760 C765 1.425 . S
C760 C767 1.409 . S
C761 H753 0.930 . S
C761 C759 1.419 . S
C761 C762 1.362 . S
C762 H754 0.930 . S
C762 C761 1.362 . S
C762 C765 1.409 . S
C763 H755 0.930 . S
C763 C764 1.355 . S
C763 C765 1.415 . S
C764 C763 1.355 . S
C764 C766 1.419 . S
C765 C760 1.425 . S
C765 C762 1.409 . S
C765 C763 1.415 . S
C766 H756 0.930 . S
C766 C764 1.419 . S
C766 C767 1.362 . S
C767 H757 0.930 . S
C767 C760 1.409 . S
C767 C766 1.362 . S
H768 C774 0.930 . S
H769 C777 0.930 . S
H770 C778 0.930 . S
H771 C779 0.930 . S
H772 C782 0.930 1_655 S
H773 C783 0.930 . S
C774 H768 0.930 . S
C774 C775 1.355 . S
C774 C776 1.415 . S
C775 C774 1.355 . S
C775 C777 1.419 . S
C776 C774 1.415 . S
C776 C781 1.425 . S
C776 C783 1.409 . S
C777 H769 0.930 . S
C777 C775 1.419 . S
C777 C778 1.362 . S
C778 H770 0.930 . S
C778 C777 1.362 . S
C778 C781 1.409 . S
C779 H771 0.930 . S
C779 C780 1.355 . S
C779 C781 1.415 . S
C780 C779 1.355 . S
C780 C782 1.419 . S
C781 C776 1.425 . S
C781 C778 1.409 . S
C781 C779 1.415 . S
C782 H772 0.930 1_455 S
C782 C780 1.419 . S
C782 C783 1.362 . S
C783 H773 0.930 . S
C783 C776 1.409 . S
C783 C782 1.362 . S
H784 C790 0.930 . S
H785 C793 0.930 . S
H786 C794 0.930 . S
H787 C795 0.930 . S
H788 C798 0.930 . S
H789 C799 0.930 . S
C790 H784 0.930 . S
C790 C791 1.355 . S
C790 C792 1.415 . S
C791 C790 1.355 . S
C791 C793 1.419 . S
C792 C790 1.415 . S
C792 C797 1.425 . S
C792 C799 1.409 . S
C793 H785 0.930 . S
C793 C791 1.419 . S
C793 C794 1.362 . S
C794 H786 0.930 . S
C794 C793 1.362 . S
C794 C797 1.409 . S
C795 H787 0.930 . S
C795 C796 1.355 . S
C795 C797 1.415 . S
C796 C795 1.355 . S
C796 C798 1.419 . S
C797 C792 1.425 . S
C797 C794 1.409 . S
C797 C795 1.415 . S
C798 H788 0.930 . S
C798 C796 1.419 . S
C798 C799 1.362 . S
C799 H789 0.930 . S
C799 C792 1.409 . S
C799 C798 1.362 . S
C423 C29 2.857 . S
C428 C275 2.904 . S
C439 C49 2.130 . S
C444 C306 2.379 . S
C460 C345 1.396 . S
C455 C93 1.335 . S
C471 C119 0.598 . S
C476 C382 0.573 . S
C492 C305 2.756 . S
C487 C17 2.808 . S
C508 C262 1.431 . S
C503 C61 1.390 . S
C524 C394 1.418 . S
C519 C81 1.465 . S
C540 C351 1.199 . S
C535 C125 1.173 . S
C551 C23 2.222 . S
C556 C395 2.263 . S
C572 C311 1.262 . S
C567 C87 1.250 . S
C583 C113 0.615 . S
C588 C274 0.555 . S
C599 C55 2.232 . S
C604 C346 2.426 . S
C620 C266 2.829 . S
C615 C157 2.833 . S
C631 C189 2.432 . S
C636 C315 2.457 . S
C647 C221 1.454 . S
C652 C354 1.382 . S
C663 C253 0.598 . S
C668 C391 0.582 . S
C679 C145 2.887 . S
C684 C314 2.784 . S
C700 C271 1.362 . S
C695 C183 1.382 . S
C716 C385 1.463 . S
C711 C209 1.519 . S
C732 C342 1.126 . S
C727 C247 1.202 . S
C743 C151 2.258 . S
C748 C386 2.274 . S
C764 C302 1.252 . S
C759 C215 1.245 . S
C780 C265 0.711 . S
C775 C241 0.530 . S
C791 C177 2.466 . S
C796 C355 2.444 . S
