# Generated by pormake.
# Topology tsx, (6,3)-cn, num edge types: 1
# Building blocks:
#     Node 0, Type 0, BuildingBlock: JUFBIX_clean_sbu_0, # of connection points: 6
#     Node 1, Type 0, BuildingBlock: JUFBIX_clean_sbu_0, # of connection points: 6
#     Node 2, Type 1, BuildingBlock: BETDAH_clean_linker_0, # of connection points: 3
#     Node 3, Type 1, BuildingBlock: BETDAH_clean_linker_0, # of connection points: 3
#     Node 4, Type 1, BuildingBlock: BETDAH_clean_linker_0, # of connection points: 3
#     Node 5, Type 1, BuildingBlock: BETDAH_clean_linker_0, # of connection points: 3
#     Edge 6, Type (0, 1), BuildingBlock: EZIPEK_clean_linker_0, # of connection points: 2
#     Edge 7, Type (0, 1), BuildingBlock: EZIPEK_clean_linker_0, # of connection points: 2
#     Edge 8, Type (0, 1), BuildingBlock: EZIPEK_clean_linker_0, # of connection points: 2
#     Edge 9, Type (0, 1), BuildingBlock: EZIPEK_clean_linker_0, # of connection points: 2
#     Edge 10, Type (0, 1), BuildingBlock: EZIPEK_clean_linker_0, # of connection points: 2
#     Edge 11, Type (0, 1), BuildingBlock: EZIPEK_clean_linker_0, # of connection points: 2
#     Edge 12, Type (0, 1), BuildingBlock: EZIPEK_clean_linker_0, # of connection points: 2
#     Edge 13, Type (0, 1), BuildingBlock: EZIPEK_clean_linker_0, # of connection points: 2
#     Edge 14, Type (0, 1), BuildingBlock: EZIPEK_clean_linker_0, # of connection points: 2
#     Edge 15, Type (0, 1), BuildingBlock: EZIPEK_clean_linker_0, # of connection points: 2
#     Edge 16, Type (0, 1), BuildingBlock: EZIPEK_clean_linker_0, # of connection points: 2
#     Edge 17, Type (0, 1), BuildingBlock: EZIPEK_clean_linker_0, # of connection points: 2
# Relax obj value: 0.101
# Max RMSD: 0.131
# Mean RMSD: 0.115
data_MOF--net-tsx--node1-JUFBIX_clean_sbu_0--node2-BETDAH_clean_linker_0--edge1-EZIPEK_clean_linker_0
_symmetry_space_group_name_H-M    P1
_symmetry_Int_Tables_number       1
_symmetry_cell_setting            triclinic
loop_
_symmetry_equiv_pos_as_xyz
'x, y, z'
_cell_length_a     15.124112
_cell_length_b     17.601471
_cell_length_c     24.455898
_cell_angle_alpha  91.981949
_cell_angle_beta   98.40976
_cell_angle_gamma 101.76597
loop_
_atom_site_label
_atom_site_type_symbol
_atom_site_fract_x
_atom_site_fract_y
_atom_site_fract_z
_atom_type_partial_charge
Co0 Co 0.14621 0.99508 -0.0056 0.0
C1 C 0.07798 1.00607 0.88294 0.0
Co2 Co 0.02511 0.04821 -0.01989 0.0
C3 C 0.25327 0.87836 -0.01452 0.0
C4 C 0.33671 0.98667 0.02153 0.0
N5 N 0.24898 0.95114 0.00275 0.0
N6 N 0.33978 0.86761 -0.0078 0.0
C7 C 0.39266 0.9356 0.01474 0.0
H8 H 0.19455 0.83417 0.96724 0.0
H9 H 0.35922 0.04624 0.0384 0.0
C10 C 0.09216 0.03924 0.09067 0.0
N11 N 0.924 0.09411 0.97037 0.0
C12 C 0.91356 0.15678 0.94153 0.0
C13 C 0.8492 0.07734 -0.00455 0.0
N14 N 0.83613 0.18014 0.94843 0.0
C15 C 0.79499 0.13015 -0.01804 0.0
C16 C 0.98362 0.88738 -0.00769 0.0
O17 O 0.14935 1.00501 0.07227 0.0
O18 O 0.03495 0.06535 0.05726 0.0
O19 O 0.94841 0.94687 -0.0158 0.0
O20 O 0.06901 0.8945 -0.00695 0.0
O21 O 1.01602 0.03157 0.90302 0.0
H22 H 0.83623 0.0312 0.02314 0.0
H23 H 0.96293 0.18628 0.91728 0.0
O24 O 0.14216 0.98677 0.91552 0.0
O25 O 0.2216 0.09528 -0.00187 0.0
O26 O 0.10273 0.14744 -0.02242 0.0
C27 C 0.1887 0.15524 -0.01038 0.0
H28 H 0.4663 0.94691 0.0261 0.0
H29 H 0.73134 0.13283 -0.00353 0.0
Co30 Co 0.54882 0.49283 0.48096 0.0
C31 C 0.47678 0.5227 0.37475 0.0
Co32 Co 0.43453 0.55429 0.4765 0.0
C33 C 0.64804 0.37692 0.4548 0.0
C34 C 0.73303 0.47 0.50902 0.0
N35 N 0.64718 0.44518 0.48133 0.0
N36 N 0.73064 0.35836 0.465 0.0
C37 C 0.78471 0.41652 0.49893 0.0
H38 H 0.58904 0.34073 0.42916 0.0
H39 H 0.75612 0.52281 0.53568 0.0
C40 C 0.51166 0.5264 0.58213 0.0
N41 N 0.33608 0.60131 0.47833 0.0
C42 C 0.31441 0.66289 0.45221 0.0
C43 C 0.27179 0.58168 0.51133 0.0
N44 N 0.23969 0.68215 0.46815 0.0
C45 C 0.21251 0.63146 0.50522 0.0
C46 C 0.38243 0.39227 0.47457 0.0
O47 O 0.56114 0.4915 0.55739 0.0
O48 O 0.45278 0.5582 0.55489 0.0
O49 O 0.35439 0.4555 0.47398 0.0
O50 O 0.46675 0.39397 0.47447 0.0
O51 O 0.41867 0.55048 0.39758 0.0
H52 H 0.26898 0.53469 0.5388 0.0
H53 H 0.35313 0.69363 0.42285 0.0
O54 O 0.53754 0.49515 0.40414 0.0
O55 O 0.62866 0.59154 0.48914 0.0
O56 O 0.51524 0.65279 0.48019 0.0
C57 C 0.60058 0.65481 0.48915 0.0
H58 H 0.85535 0.41879 0.51628 0.0
H59 H 0.15408 0.63079 0.52617 0.0
H60 H 0.15605 0.94783 0.33133 0.0
H61 H 0.94387 0.07781 0.31851 0.0
H62 H 0.9544 0.90677 0.43847 0.0
C63 C 0.10003 0.96532 0.34798 0.0
C64 C 0.06535 0.92666 0.39172 0.0
C65 C 0.05434 0.01805 0.32063 0.0
C66 C 0.98027 0.03914 0.34118 0.0
C67 C 0.94351 0.99908 0.38395 0.0
C68 C 0.98548 0.94177 0.40824 0.0
N69 N 0.85731 1.00649 0.39704 0.0
C70 C 0.8298 0.07686 0.40107 0.0
H71 H 0.90865 0.88602 0.65662 0.0
H72 H 0.09576 0.09112 0.61948 0.0
H73 H 0.8794 0.96866 0.49465 0.0
C74 C 0.93289 0.92742 0.62749 0.0
C75 C 0.88901 0.91878 0.57262 0.0
C76 C 1.00664 0.99035 0.64509 0.0
C77 C 0.039 0.04261 0.6062 0.0
C78 C 0.99271 0.03437 0.55128 0.0
C79 C 0.91692 0.97393 0.53596 0.0
N80 N 1.01586 0.08653 0.51024 0.0
C81 C 0.09864 0.13791 0.5103 0.0
H82 H 0.68392 0.43327 0.79226 0.0
H83 H 0.51367 0.57983 0.84599 0.0
H84 H 0.66523 0.4597 0.96365 0.0
C85 C 0.65909 0.46045 0.82574 0.0
C86 C 0.67985 0.4394 0.87987 0.0
C87 C 0.60012 0.51182 0.81423 0.0
C88 C 0.56234 0.54324 0.85631 0.0
C89 C 0.58262 0.52254 0.9105 0.0
C90 C 0.64568 0.47428 0.92216 0.0
N91 N 0.53253 0.54036 0.95234 0.0
C92 C 0.48015 0.59706 0.95088 0.0
H93 H 0.38792 0.43494 0.12507 0.0
H94 H 0.65861 0.5768 0.15447 0.0
H95 H 0.57779 0.40995 0.01737 0.0
C96 C 0.45125 0.45657 0.10957 0.0
C97 C 0.46534 0.42709 0.05798 0.0
C98 C 0.52109 0.50717 0.14519 0.0
C99 C 0.605 0.53648 0.12746 0.0
C100 C 0.6229 0.50592 0.07751 0.0
C101 C 0.55653 0.44465 0.04746 0.0
N102 N 0.71044 0.52812 0.06048 0.0
C103 C 0.75478 0.60444 0.05297 0.0
C104 C 0.23135 0.29745 0.02371 0.0
C105 C 0.25109 0.23298 -0.00542 0.0
C106 C 0.39825 0.31427 -0.01806 0.0
C107 C 0.38645 0.37082 0.02158 0.0
N108 N 0.26926 0.43734 0.04055 0.0
N109 N 0.34888 0.18418 0.93817 0.0
C110 C 0.29544 0.36928 0.02992 0.0
C111 C 0.33337 0.24257 0.97144 0.0
N112 N 0.15625 0.28956 0.04973 0.0
N113 N 0.45854 0.33484 0.94624 0.0
H114 H 0.29806 0.1362 0.92169 0.0
H115 H 0.41305 0.18301 0.9278 0.0
H116 H 0.4846 0.39302 0.94198 0.0
H117 H 0.46713 0.2983 0.91398 0.0
H118 H 0.14531 0.33399 0.07557 0.0
H119 H 0.11002 0.23723 0.05074 0.0
H120 H 0.20154 0.44031 0.04225 0.0
H121 H 0.31402 0.49113 0.04076 0.0
C122 C 0.41704 0.76415 0.02588 0.0
C123 C 0.36947 0.79649 -0.01839 0.0
C124 C 0.37955 0.68796 0.91857 0.0
C125 C 0.43784 0.66217 0.96137 0.0
N126 N 0.52267 0.68226 0.05418 0.0
N127 N 0.31601 0.7962 0.88386 0.0
C128 C 0.45963 0.70214 0.01455 0.0
C129 C 0.35293 0.76005 0.92731 0.0
N130 N 0.41766 0.79029 0.07921 0.0
N131 N 0.34875 0.6433 0.8701 0.0
H132 H 0.29904 0.85031 0.88872 0.0
H133 H 0.30999 0.77615 0.84265 0.0
H134 H 0.36603 0.58971 0.86319 0.0
H135 H 0.29967 0.65571 0.83917 0.0
H136 H 0.44475 0.76432 0.11354 0.0
H137 H 0.38229 0.8326 0.08918 0.0
H138 H 0.55248 0.71787 0.08978 0.0
H139 H 0.54995 0.63324 0.04955 0.0
C140 C 0.95388 0.77815 0.05744 0.0
C141 C 0.92736 0.81276 0.0072 0.0
C142 C 0.78171 0.71782 -0.0069 0.0
C143 C 0.81156 0.67818 0.03964 0.0
N144 N 0.93275 0.66468 0.1118 0.0
N145 N 0.82346 0.80374 0.9215 0.0
C146 C 0.89981 0.70651 0.0704 0.0
C147 C 0.84339 0.77906 -0.02663 0.0
N148 N 0.02769 0.81548 0.09459 0.0
N149 N 0.69269 0.69926 0.96912 0.0
H150 H 0.868 0.84707 0.90504 0.0
H151 H 0.7674 0.77575 0.8928 0.0
H152 H 0.64664 0.65924 -0.01374 0.0
H153 H 0.66359 0.72987 0.93813 0.0
H154 H 0.04305 0.79804 0.13451 0.0
H155 H 0.06886 0.86816 0.08801 0.0
H156 H 1.0006 0.6772 0.13124 0.0
H157 H 0.89386 0.61391 0.12401 0.0
C158 C 0.72543 0.23371 0.88556 0.0
C159 C 0.80412 0.24629 0.9264 0.0
C160 C 0.81239 0.38711 0.92748 0.0
C161 C 0.72669 0.37353 0.89206 0.0
N162 N 0.59431 0.28169 0.84384 0.0
N163 N 0.91859 0.3329 -0.00897 0.0
C164 C 0.68147 0.29624 0.87233 0.0
C165 C 0.84716 0.32261 0.94839 0.0
N166 N 0.69347 0.16164 0.85905 0.0
N167 N 0.86085 0.46159 0.94045 0.0
H168 H 0.94495 0.2867 0.00734 0.0
H169 H 0.94718 0.38609 0.01297 0.0
H170 H 0.83739 0.50989 0.92547 0.0
H171 H 0.92736 0.47526 0.96193 0.0
H172 H 0.64178 0.15004 0.82484 0.0
H173 H 0.7249 0.11501 0.86814 0.0
H174 H 0.55461 0.22586 0.83407 0.0
H175 H 0.55788 0.32497 0.8343 0.0
C176 C 0.75245 0.74015 0.48533 0.0
C177 C 0.66819 0.72854 0.50603 0.0
C178 C 0.7257 0.84793 0.56648 0.0
C179 C 0.81362 0.85176 0.55195 0.0
N180 N 0.91522 0.79254 0.50537 0.0
N181 N 0.58208 0.76439 0.5759 0.0
C182 C 0.82839 0.79522 0.51358 0.0
C183 C 0.6561 0.78081 0.54891 0.0
N184 N 0.75924 0.70006 0.43779 0.0
N185 N 0.70806 0.9087 0.59634 0.0
H186 H 0.53081 0.71445 0.56733 0.0
H187 H 0.57647 0.79672 0.61126 0.0
H188 H 0.75759 0.95869 0.6104 0.0
H189 H 0.64236 0.91231 0.60274 0.0
H190 H 0.81704 0.71141 0.41836 0.0
H191 H 0.7035 0.66186 0.41448 0.0
H192 H 0.93027 0.74791 0.48163 0.0
H193 H 0.97301 0.83111 0.52627 0.0
C194 C 0.77688 0.27791 0.39439 0.0
C195 C 0.75317 0.2868 0.44777 0.0
C196 C 0.76606 0.15332 0.46598 0.0
C197 C 0.79742 0.14645 0.4145 0.0
N198 N 0.82456 0.19638 0.32675 0.0
N199 N 0.72785 0.23749 0.53572 0.0
C200 C 0.80039 0.20716 0.37768 0.0
C201 C 0.74846 0.22562 0.48394 0.0
N202 N 0.7756 0.33735 0.35994 0.0
N203 N 0.74931 0.0896 0.49642 0.0
H204 H 0.70982 0.28852 0.54879 0.0
H205 H 0.73311 0.19911 0.56683 0.0
H206 H 0.75757 0.03491 0.48317 0.0
H207 H 0.71957 0.08844 0.53221 0.0
H208 H 0.7869 0.33483 0.3191 0.0
H209 H 0.76061 0.39009 0.37222 0.0
H210 H 0.8364 0.23959 0.2992 0.0
H211 H 0.83163 0.14238 0.3114 0.0
C212 C 0.3298 0.2733 0.52565 0.0
C213 C 0.31683 0.31846 0.47905 0.0
C214 C 0.16126 0.24099 0.45179 0.0
C215 C 0.17507 0.19552 0.49783 0.0
N216 N 0.27838 0.15369 0.56909 0.0
N217 N 0.23009 0.33324 0.39072 0.0
C218 C 0.2614 0.20685 0.53168 0.0
C219 C 0.23542 0.29848 0.43989 0.0
N220 N 0.40427 0.29631 0.56604 0.0
N221 N 0.07662 0.2307 0.42025 0.0
H222 H 0.28372 0.37495 0.38051 0.0
H223 H 0.1765 0.31566 0.35799 0.0
H224 H 0.02128 0.18736 0.42626 0.0
H225 H 0.05942 0.26808 0.39032 0.0
H226 H 0.41112 0.27108 0.60391 0.0
H227 H 0.45603 0.34472 0.5641 0.0
H228 H 0.343 0.1546 0.59115 0.0
H229 H 0.22964 0.10417 0.57398 0.0
C230 C 0.22703 0.81922 0.47523 0.0
C231 C 0.19576 0.74344 0.44925 0.0
C232 C 0.07502 0.78626 0.38804 0.0
C233 C 0.1057 0.86225 0.41439 0.0
N234 N 0.20045 0.95 0.48759 0.0
N235 N 0.08633 0.65045 0.38651 0.0
C236 C 0.17879 0.87847 0.45946 0.0
C237 C 0.11847 0.72576 0.40723 0.0
N238 N 0.30374 0.83406 0.51443 0.0
N239 N 1.0058 0.77269 0.34384 0.0
H240 H 0.11984 0.60584 0.39801 0.0
H241 H 0.02463 0.63094 0.36019 0.0
H242 H 0.96867 0.81427 0.33081 0.0
H243 H 0.9869 0.72149 0.31853 0.0
H244 H 0.33612 0.88926 0.53183 0.0
H245 H 0.33833 0.79077 0.52767 0.0
H246 H 0.24746 0.96409 0.52384 0.0
H247 H 0.16667 0.99463 0.47658 0.0
C248 C 1.00284 0.99078 0.16474 0.0
C249 C 0.08214 0.03831 0.14966 0.0
C250 C 0.13776 0.08268 0.24718 0.0
C251 C 0.06322 0.0289 0.26201 0.0
N252 N 0.93454 0.92052 0.23587 0.0
N253 N 0.22788 0.12701 0.17531 0.0
C254 C 0.99829 0.98013 0.2211 0.0
C255 C 0.15077 0.08354 0.1906 0.0
N256 N 0.93076 0.95584 0.12546 0.0
N257 N 0.1944 0.13359 0.28702 0.0
H258 H 0.23712 0.13187 0.13402 0.0
H259 H 0.28457 0.1552 0.20336 0.0
H260 H 0.18606 0.13359 0.32865 0.0
H261 H 0.2453 0.17911 0.27862 0.0
H262 H 0.86675 0.93028 0.13479 0.0
H263 H 0.93166 0.95684 0.08324 0.0
H264 H 0.89518 0.87628 0.20782 0.0
H265 H 0.9256 0.91063 0.27657 0.0
C266 C 0.08698 0.9398 0.79065 0.0
C267 C 0.07839 1.00643 0.82222 0.0
C268 C 0.03315 0.06736 0.73707 0.0
C269 C 0.04454 1.0021 0.70523 0.0
N270 N 0.10764 0.88724 0.70144 0.0
N271 N 0.07773 0.1436 0.82442 0.0
C272 C 0.08031 0.94204 0.73207 0.0
C273 C 0.06268 0.0735 0.79503 0.0
N274 N 0.0957 0.87294 0.81571 0.0
N275 N 0.98882 0.12105 0.71309 0.0
H276 H 0.10423 0.15123 0.86653 0.0
H277 H 0.07454 0.19549 0.80568 0.0
H278 H 0.96248 0.11799 0.67108 0.0
H279 H 0.97043 0.16471 0.73606 0.0
H280 H 0.09247 0.82045 0.7937 0.0
H281 H 0.09834 0.86777 0.85818 0.0
H282 H 0.1416 0.846 0.71906 0.0
H283 H 0.10461 0.88829 0.65855 0.0
C284 C 0.46247 0.48527 0.6707 0.0
C285 C 0.52609 0.53257 0.64249 0.0
C286 C 0.62554 0.5808 0.72972 0.0
C287 C 0.56916 0.52494 0.75657 0.0
N288 N 0.43653 0.42114 0.75466 0.0
N289 N 0.66966 0.6233 0.6429 0.0
C290 C 0.48747 0.477 0.72785 0.0
C291 C 0.60779 0.58041 0.67138 0.0
N292 N 0.37908 0.44772 0.64273 0.0
N293 N 0.69536 0.63426 0.76019 0.0
H294 H 0.65764 0.62666 0.60017 0.0
H295 H 0.73509 0.65205 0.66101 0.0
H296 H 0.71027 0.63537 0.80329 0.0
H297 H 0.73341 0.68146 0.74355 0.0
H298 H 0.32625 0.41877 0.66209 0.0
H299 H 0.35985 0.45002 0.60021 0.0
H300 H 0.38283 0.37805 0.73455 0.0
H301 H 0.45122 0.41464 0.79703 0.0
C302 C 0.48252 0.58801 0.28464 0.0
C303 C 0.47545 0.51951 0.31425 0.0
C304 C 0.51182 0.44877 0.23583 0.0
C305 C 0.5105 0.51475 0.20428 0.0
N306 N 0.47514 0.64136 0.19446 0.0
N307 N 0.4585 0.38002 0.31244 0.0
C308 C 0.48992 0.58279 0.22739 0.0
C309 C 0.48236 0.44839 0.28802 0.0
N310 N 0.48701 0.65845 0.31141 0.0
N311 N 0.54343 0.38709 0.21658 0.0
H312 H 0.4335 0.37712 0.35003 0.0
H313 H 0.45399 0.32569 0.2926 0.0
H314 H 0.56741 0.38539 0.17877 0.0
H315 H 0.5544 0.34113 0.24059 0.0
H316 H 0.50215 0.71095 0.29286 0.0
H317 H 0.48323 0.66534 0.35343 0.0
H318 H 0.45114 0.68912 0.20784 0.0
H319 H 0.47886 0.63821 0.15231 0.0
loop_
_geom_bond_atom_site_label_1
_geom_bond_atom_site_label_2
_geom_bond_distance
_geom_bond_site_symmetry_2
_ccdc_geom_bond_type
Co0 N5 2.055 1_554 S
Co0 O17 2.021 . S
Co0 O20 2.062 1_455 S
Co0 O24 2.117 1_554 S
Co0 O25 2.020 1_565 S
C1 O21 1.263 . S
C1 O24 1.255 1_645 S
Co2 N11 2.057 1_556 S
Co2 O18 2.117 1_556 S
Co2 O19 2.020 1_545 S
Co2 O21 2.021 . S
Co2 O26 2.062 1_656 S
C3 N5 1.313 1_554 S
C3 N6 1.347 . S
C3 H8 0.931 . S
C4 N5 1.380 . S
C4 C7 1.350 . S
C4 H9 0.930 . S
N5 Co0 2.055 1_556 S
N5 C3 1.313 1_556 S
N5 C4 1.380 . S
N6 C3 1.347 . S
N6 C7 1.373 1_554 S
C7 C4 1.350 . S
C7 N6 1.373 1_556 S
C7 H28 0.931 . S
H8 C3 0.931 . S
H9 C4 0.930 . S
C10 O17 1.259 1_545 S
C10 O18 1.258 1_455 S
N11 Co2 2.057 1_554 S
N11 C12 1.316 1_554 S
N11 C13 1.375 . S
C12 N11 1.316 1_556 S
C12 N14 1.347 1_556 S
C12 H23 0.931 . S
C13 N11 1.375 . S
C13 C15 1.350 . S
C13 H22 0.930 . S
N14 C12 1.347 1_554 S
N14 C15 1.373 . S
C15 C13 1.350 . S
C15 N14 1.373 . S
C15 H29 0.931 . S
C16 O19 1.256 1_554 S
C16 O20 1.255 . S
O17 Co0 2.021 . S
O17 C10 1.259 1_565 S
O18 Co2 2.117 1_554 S
O18 C10 1.258 1_655 S
O19 Co2 2.020 1_565 S
O19 C16 1.256 1_556 S
O20 Co0 2.062 1_655 S
O20 C16 1.255 . S
O21 C1 1.263 . S
O21 Co2 2.021 . S
H22 C13 0.930 . S
H23 C12 0.931 . S
O24 Co0 2.117 1_556 S
O24 C1 1.255 1_465 S
O25 Co0 2.020 1_545 S
O25 C27 1.256 . S
O26 Co2 2.062 1_454 S
O26 C27 1.255 . S
C27 O25 1.256 . S
C27 O26 1.255 . S
H28 C7 0.931 . S
H29 C15 0.931 . S
Co30 N35 2.057 . S
Co30 O47 2.021 . S
Co30 O50 2.062 . S
Co30 O54 2.117 . S
Co30 O55 2.020 . S
C31 O51 1.259 . S
C31 O54 1.258 . S
Co32 N41 2.057 . S
Co32 O48 2.117 . S
Co32 O49 2.020 . S
Co32 O51 2.021 . S
Co32 O56 2.062 . S
C33 N35 1.316 . S
C33 N36 1.347 . S
C33 H38 0.931 . S
C34 N35 1.375 . S
C34 C37 1.350 . S
C34 H39 0.930 . S
N35 Co30 2.057 . S
N35 C33 1.316 . S
N35 C34 1.375 . S
N36 C33 1.347 . S
N36 C37 1.373 . S
C37 C34 1.350 . S
C37 N36 1.373 . S
C37 H58 0.931 . S
H38 C33 0.931 . S
H39 C34 0.930 . S
C40 O47 1.259 . S
C40 O48 1.258 . S
N41 Co32 2.057 . S
N41 C42 1.316 . S
N41 C43 1.375 . S
C42 N41 1.316 . S
C42 N44 1.347 . S
C42 H53 0.931 . S
C43 N41 1.375 . S
C43 C45 1.350 . S
C43 H52 0.930 . S
N44 C42 1.347 . S
N44 C45 1.373 . S
C45 C43 1.350 . S
C45 N44 1.373 . S
C45 H59 0.931 . S
C46 O49 1.256 . S
C46 O50 1.255 . S
O47 Co30 2.021 . S
O47 C40 1.259 . S
O48 Co32 2.117 . S
O48 C40 1.258 . S
O49 Co32 2.020 . S
O49 C46 1.256 . S
O50 Co30 2.062 . S
O50 C46 1.255 . S
O51 C31 1.259 . S
O51 Co32 2.021 . S
H52 C43 0.930 . S
H53 C42 0.931 . S
O54 Co30 2.117 . S
O54 C31 1.258 . S
O55 Co30 2.020 . S
O55 C57 1.256 . S
O56 Co32 2.062 . S
O56 C57 1.255 . S
C57 O55 1.256 . S
C57 O56 1.255 . S
H58 C37 0.931 . S
H59 C45 0.931 . S
H60 C63 0.929 . S
H61 C66 0.929 1_655 S
H62 C68 0.930 . S
C63 H60 0.929 . S
C63 C64 1.398 . S
C63 C65 1.396 . S
C64 C63 1.398 . S
C64 C68 1.407 . S
C65 C63 1.396 . S
C65 C66 1.394 1_565 S
C66 H61 0.929 1_455 S
C66 C65 1.394 1_545 S
C66 C67 1.382 . S
C67 C66 1.382 . S
C67 C68 1.392 1_545 S
C67 N69 1.420 1_455 S
C68 H62 0.930 . S
C68 C64 1.407 . S
C68 C67 1.392 1_565 S
N69 C67 1.420 1_655 S
N69 C70 1.244 . S
C70 N69 1.244 . S
H71 C74 0.929 . S
H72 C77 0.929 . S
H73 C79 0.930 . S
C74 H71 0.929 . S
C74 C75 1.398 . S
C74 C76 1.396 . S
C75 C74 1.398 . S
C75 C79 1.407 . S
C76 C74 1.396 . S
C76 C77 1.394 1_665 S
C77 H72 0.929 . S
C77 C76 1.394 1_445 S
C77 C78 1.382 . S
C78 C77 1.382 . S
C78 C79 1.392 1_445 S
C78 N80 1.420 . S
C79 H73 0.930 . S
C79 C75 1.407 . S
C79 C78 1.392 1_665 S
N80 C78 1.420 . S
N80 C81 1.244 . S
C81 N80 1.244 . S
H82 C85 0.929 . S
H83 C88 0.929 . S
H84 C90 0.930 1_554 S
C85 H82 0.929 . S
C85 C86 1.398 . S
C85 C87 1.396 . S
C86 C85 1.398 . S
C86 C90 1.407 . S
C87 C85 1.396 . S
C87 C88 1.394 . S
C88 H83 0.929 . S
C88 C87 1.394 . S
C88 C89 1.382 . S
C89 C88 1.382 . S
C89 C90 1.392 . S
C89 N91 1.420 . S
C90 H84 0.930 1_556 S
C90 C86 1.407 . S
C90 C89 1.392 . S
N91 C89 1.420 . S
N91 C92 1.244 . S
C92 N91 1.244 . S
H93 C96 0.929 . S
H94 C99 0.929 . S
H95 C101 0.930 1_556 S
C96 H93 0.929 . S
C96 C97 1.398 . S
C96 C98 1.396 . S
C97 C96 1.398 . S
C97 C101 1.407 . S
C98 C96 1.396 . S
C98 C99 1.394 . S
C99 H94 0.929 . S
C99 C98 1.394 . S
C99 C100 1.382 . S
C100 C99 1.382 . S
C100 C101 1.392 . S
C100 N102 1.420 . S
C101 H95 0.930 1_554 S
C101 C97 1.407 . S
C101 C100 1.392 . S
N102 C100 1.420 . S
N102 C103 1.244 . S
C103 N102 1.244 . S
C104 C105 1.363 . S
C104 C110 1.379 . S
C104 N112 1.356 . S
C105 C104 1.363 . S
C105 C111 1.363 1_554 S
C106 C107 1.363 1_556 S
C106 C111 1.379 . S
C106 N113 1.356 . S
C107 C106 1.363 1_554 S
C107 C110 1.363 . S
N108 C110 1.356 . S
N108 H120 0.984 . S
N108 H121 0.985 . S
N109 C111 1.356 . S
N109 H114 0.984 . S
N109 H115 0.985 . S
C110 C104 1.379 . S
C110 C107 1.363 . S
C110 N108 1.356 . S
C111 C105 1.363 1_556 S
C111 C106 1.379 . S
C111 N109 1.356 . S
N112 C104 1.356 . S
N112 H118 0.984 . S
N112 H119 0.984 . S
N113 C106 1.356 . S
N113 H116 0.984 . S
N113 H117 0.985 . S
H114 N109 0.984 . S
H115 N109 0.985 . S
H116 N113 0.984 . S
H117 N113 0.985 . S
H118 N112 0.984 . S
H119 N112 0.984 . S
H120 N108 0.984 . S
H121 N108 0.985 . S
C122 C123 1.363 . S
C122 C128 1.379 . S
C122 N130 1.356 . S
C123 C122 1.363 . S
C123 C129 1.363 1_554 S
C124 C125 1.363 1_556 S
C124 C129 1.379 . S
C124 N131 1.356 . S
C125 C124 1.363 1_554 S
C125 C128 1.363 . S
N126 C128 1.356 . S
N126 H138 0.984 . S
N126 H139 0.985 . S
N127 C129 1.356 . S
N127 H132 0.984 . S
N127 H133 0.985 . S
C128 C122 1.379 . S
C128 C125 1.363 . S
C128 N126 1.356 . S
C129 C123 1.363 1_556 S
C129 C124 1.379 . S
C129 N127 1.356 . S
N130 C122 1.356 . S
N130 H136 0.984 . S
N130 H137 0.984 . S
N131 C124 1.356 . S
N131 H134 0.984 . S
N131 H135 0.985 . S
H132 N127 0.984 . S
H133 N127 0.985 . S
H134 N131 0.984 . S
H135 N131 0.985 . S
H136 N130 0.984 . S
H137 N130 0.984 . S
H138 N126 0.984 . S
H139 N126 0.985 . S
C140 C141 1.377 . S
C140 C146 1.379 . S
C140 N148 1.356 . S
C141 C140 1.377 . S
C141 C147 1.353 1_554 S
C142 C143 1.363 1_556 S
C142 C147 1.379 . S
C142 N149 1.356 . S
C143 C142 1.363 1_554 S
C143 C146 1.363 . S
N144 C146 1.356 . S
N144 H156 0.984 . S
N144 H157 0.985 . S
N145 C147 1.356 . S
N145 H150 0.984 . S
N145 H151 0.985 . S
C146 C140 1.379 . S
C146 C143 1.363 . S
C146 N144 1.356 . S
C147 C141 1.353 1_556 S
C147 C142 1.379 . S
C147 N145 1.356 . S
N148 C140 1.356 . S
N148 H154 0.984 . S
N148 H155 0.984 . S
N149 C142 1.356 . S
N149 H152 0.984 . S
N149 H153 0.985 . S
H150 N145 0.984 . S
H151 N145 0.985 . S
H152 N149 0.984 . S
H153 N149 0.985 . S
H154 N148 0.984 . S
H155 N148 0.984 . S
H156 N144 0.984 . S
H157 N144 0.985 . S
C158 C159 1.363 1_554 S
C158 C164 1.379 . S
C158 N166 1.356 . S
C159 C158 1.363 1_556 S
C159 C165 1.363 . S
C160 C161 1.363 . S
C160 C165 1.379 . S
C160 N167 1.356 . S
C161 C160 1.363 . S
C161 C164 1.363 1_556 S
N162 C164 1.356 . S
N162 H174 0.984 . S
N162 H175 0.985 . S
N163 C165 1.356 . S
N163 H168 0.984 . S
N163 H169 0.985 . S
C164 C158 1.379 . S
C164 C161 1.363 1_554 S
C164 N162 1.356 . S
C165 C159 1.363 . S
C165 C160 1.379 . S
C165 N163 1.356 . S
N166 C158 1.356 . S
N166 H172 0.984 . S
N166 H173 0.984 . S
N167 C160 1.356 . S
N167 H170 0.984 . S
N167 H171 0.985 . S
H168 N163 0.984 . S
H169 N163 0.985 . S
H170 N167 0.984 . S
H171 N167 0.985 . S
H172 N166 0.984 . S
H173 N166 0.984 . S
H174 N162 0.984 . S
H175 N162 0.985 . S
C176 C177 1.363 . S
C176 C182 1.379 . S
C176 N184 1.356 . S
C177 C176 1.363 . S
C177 C183 1.363 . S
C178 C179 1.363 . S
C178 C183 1.379 . S
C178 N185 1.356 . S
C179 C178 1.363 . S
C179 C182 1.363 . S
N180 C182 1.356 . S
N180 H192 0.984 . S
N180 H193 0.985 . S
N181 C183 1.356 . S
N181 H186 0.984 . S
N181 H187 0.985 . S
C182 C176 1.379 . S
C182 C179 1.363 . S
C182 N180 1.356 . S
C183 C177 1.363 . S
C183 C178 1.379 . S
C183 N181 1.356 . S
N184 C176 1.356 . S
N184 H190 0.984 . S
N184 H191 0.984 . S
N185 C178 1.356 . S
N185 H188 0.984 . S
N185 H189 0.985 . S
H186 N181 0.984 . S
H187 N181 0.985 . S
H188 N185 0.984 . S
H189 N185 0.985 . S
H190 N184 0.984 . S
H191 N184 0.984 . S
H192 N180 0.984 . S
H193 N180 0.985 . S
C194 C195 1.363 . S
C194 C200 1.379 . S
C194 N202 1.356 . S
C195 C194 1.363 . S
C195 C201 1.363 . S
C196 C197 1.363 . S
C196 C201 1.379 . S
C196 N203 1.356 . S
C197 C196 1.363 . S
C197 C200 1.363 . S
N198 C200 1.356 . S
N198 H210 0.984 . S
N198 H211 0.985 . S
N199 C201 1.356 . S
N199 H204 0.984 . S
N199 H205 0.985 . S
C200 C194 1.379 . S
C200 C197 1.363 . S
C200 N198 1.356 . S
C201 C195 1.363 . S
C201 C196 1.379 . S
C201 N199 1.356 . S
N202 C194 1.356 . S
N202 H208 0.984 . S
N202 H209 0.984 . S
N203 C196 1.356 . S
N203 H206 0.984 . S
N203 H207 0.985 . S
H204 N199 0.984 . S
H205 N199 0.985 . S
H206 N203 0.984 . S
H207 N203 0.985 . S
H208 N202 0.984 . S
H209 N202 0.984 . S
H210 N198 0.984 . S
H211 N198 0.985 . S
C212 C213 1.363 . S
C212 C218 1.379 . S
C212 N220 1.356 . S
C213 C212 1.363 . S
C213 C219 1.363 . S
C214 C215 1.363 . S
C214 C219 1.379 . S
C214 N221 1.356 . S
C215 C214 1.363 . S
C215 C218 1.363 . S
N216 C218 1.356 . S
N216 H228 0.984 . S
N216 H229 0.985 . S
N217 C219 1.356 . S
N217 H222 0.984 . S
N217 H223 0.985 . S
C218 C212 1.379 . S
C218 C215 1.363 . S
C218 N216 1.356 . S
C219 C213 1.363 . S
C219 C214 1.379 . S
C219 N217 1.356 . S
N220 C212 1.356 . S
N220 H226 0.984 . S
N220 H227 0.984 . S
N221 C214 1.356 . S
N221 H224 0.984 . S
N221 H225 0.985 . S
H222 N217 0.984 . S
H223 N217 0.985 . S
H224 N221 0.984 . S
H225 N221 0.985 . S
H226 N220 0.984 . S
H227 N220 0.984 . S
H228 N216 0.984 . S
H229 N216 0.985 . S
C230 C231 1.363 . S
C230 C236 1.379 . S
C230 N238 1.356 . S
C231 C230 1.363 . S
C231 C237 1.363 . S
C232 C233 1.363 . S
C232 C237 1.379 . S
C232 N239 1.356 . S
C233 C232 1.363 . S
C233 C236 1.363 . S
N234 C236 1.356 . S
N234 H246 0.984 . S
N234 H247 0.985 . S
N235 C237 1.356 . S
N235 H240 0.984 . S
N235 H241 0.985 . S
C236 C230 1.379 . S
C236 C233 1.363 . S
C236 N234 1.356 . S
C237 C231 1.363 . S
C237 C232 1.379 . S
C237 N235 1.356 . S
N238 C230 1.356 . S
N238 H244 0.984 . S
N238 H245 0.984 . S
N239 C232 1.356 . S
N239 H242 0.984 . S
N239 H243 0.985 . S
H240 N235 0.984 . S
H241 N235 0.985 . S
H242 N239 0.984 . S
H243 N239 0.985 . S
H244 N238 0.984 . S
H245 N238 0.984 . S
H246 N234 0.984 . S
H247 N234 0.985 . S
C248 C249 1.353 1_665 S
C248 C254 1.379 . S
C248 N256 1.356 . S
C249 C248 1.353 1_445 S
C249 C255 1.372 . S
C250 C251 1.363 1_545 S
C250 C255 1.379 . S
C250 N257 1.356 . S
C251 C250 1.363 1_565 S
C251 C254 1.363 1_455 S
N252 C254 1.356 . S
N252 H264 0.984 . S
N252 H265 0.985 . S
N253 C255 1.356 . S
N253 H258 0.984 . S
N253 H259 0.985 . S
C254 C248 1.379 . S
C254 C251 1.363 1_655 S
C254 N252 1.356 . S
C255 C249 1.372 . S
C255 C250 1.379 . S
C255 N253 1.356 . S
N256 C248 1.356 . S
N256 H262 0.984 . S
N256 H263 0.984 . S
N257 C250 1.356 . S
N257 H260 0.984 . S
N257 H261 0.985 . S
H258 N253 0.984 . S
H259 N253 0.985 . S
H260 N257 0.984 . S
H261 N257 0.985 . S
H262 N256 0.984 . S
H263 N256 0.984 . S
H264 N252 0.984 . S
H265 N252 0.985 . S
C266 C267 1.363 1_465 S
C266 C272 1.379 . S
C266 N274 1.356 . S
C267 C266 1.363 1_645 S
C267 C273 1.363 . S
C268 C269 1.363 1_545 S
C268 C273 1.379 . S
C268 N275 1.356 . S
C269 C268 1.363 1_565 S
C269 C272 1.363 1_655 S
N270 C272 1.356 . S
N270 H282 0.984 . S
N270 H283 0.985 . S
N271 C273 1.356 . S
N271 H276 0.984 . S
N271 H277 0.985 . S
C272 C266 1.379 . S
C272 C269 1.363 1_455 S
C272 N270 1.356 . S
C273 C267 1.363 . S
C273 C268 1.379 . S
C273 N271 1.356 . S
N274 C266 1.356 . S
N274 H280 0.984 . S
N274 H281 0.984 . S
N275 C268 1.356 . S
N275 H278 0.984 . S
N275 H279 0.985 . S
H276 N271 0.984 . S
H277 N271 0.985 . S
H278 N275 0.984 . S
H279 N275 0.985 . S
H280 N274 0.984 . S
H281 N274 0.984 . S
H282 N270 0.984 . S
H283 N270 0.985 . S
C284 C285 1.363 . S
C284 C290 1.379 . S
C284 N292 1.356 . S
C285 C284 1.363 . S
C285 C291 1.363 . S
C286 C287 1.363 . S
C286 C291 1.379 . S
C286 N293 1.356 . S
C287 C286 1.363 . S
C287 C290 1.363 . S
N288 C290 1.356 . S
N288 H300 0.984 . S
N288 H301 0.985 . S
N289 C291 1.356 . S
N289 H294 0.984 . S
N289 H295 0.985 . S
C290 C284 1.379 . S
C290 C287 1.363 . S
C290 N288 1.356 . S
C291 C285 1.363 . S
C291 C286 1.379 . S
C291 N289 1.356 . S
N292 C284 1.356 . S
N292 H298 0.984 . S
N292 H299 0.984 . S
N293 C286 1.356 . S
N293 H296 0.984 . S
N293 H297 0.985 . S
H294 N289 0.984 . S
H295 N289 0.985 . S
H296 N293 0.984 . S
H297 N293 0.985 . S
H298 N292 0.984 . S
H299 N292 0.984 . S
H300 N288 0.984 . S
H301 N288 0.985 . S
C302 C303 1.363 . S
C302 C308 1.379 . S
C302 N310 1.356 . S
C303 C302 1.363 . S
C303 C309 1.363 . S
C304 C305 1.363 . S
C304 C309 1.379 . S
C304 N311 1.356 . S
C305 C304 1.363 . S
C305 C308 1.363 . S
N306 C308 1.356 . S
N306 H318 0.984 . S
N306 H319 0.985 . S
N307 C309 1.356 . S
N307 H312 0.984 . S
N307 H313 0.985 . S
C308 C302 1.379 . S
C308 C305 1.363 . S
C308 N306 1.356 . S
C309 C303 1.363 . S
C309 C304 1.379 . S
C309 N307 1.356 . S
N310 C302 1.356 . S
N310 H316 0.984 . S
N310 H317 0.984 . S
N311 C304 1.356 . S
N311 H314 0.984 . S
N311 H315 0.985 . S
H312 N307 0.984 . S
H313 N307 0.985 . S
H314 N311 0.984 . S
H315 N311 0.985 . S
H316 N310 0.984 . S
H317 N310 0.984 . S
H318 N306 0.984 . S
H319 N306 0.985 . S
C107 C97 1.470 . S
C105 C27 1.503 . S
C123 N6 1.401 . S
C125 C92 1.430 1_554 S
C141 C16 1.475 . S
C143 C103 1.433 . S
C159 N14 1.451 1_556 S
C161 C86 1.448 . S
C177 C57 1.503 . S
C179 C75 1.470 . S
C195 N36 1.401 . S
C197 C70 1.430 . S
C215 C81 1.433 . S
C213 C46 1.477 . S
C233 C64 1.448 . S
C231 N44 1.451 . S
C249 C10 1.475 . S
C251 C65 1.475 . S
C267 C1 1.547 . S
C269 C76 1.545 . S
C287 C87 1.475 . S
C285 C40 1.475 . S
C303 C31 1.548 . S
C305 C98 1.545 . S
