# Generated by pormake.
# Topology zzz, (3,6)-cn, num edge types: 1
# Building blocks:
#     Node 0, Type 0, BuildingBlock: VETTIZ_charged_linker_0, # of connection points: 3
#     Node 1, Type 0, BuildingBlock: VETTIZ_charged_linker_0, # of connection points: 3
#     Node 2, Type 0, BuildingBlock: VETTIZ_charged_linker_0, # of connection points: 3
#     Node 3, Type 0, BuildingBlock: VETTIZ_charged_linker_0, # of connection points: 3
#     Node 4, Type 0, BuildingBlock: VETTIZ_charged_linker_0, # of connection points: 3
#     Node 5, Type 0, BuildingBlock: VETTIZ_charged_linker_0, # of connection points: 3
#     Node 6, Type 0, BuildingBlock: VETTIZ_charged_linker_0, # of connection points: 3
#     Node 7, Type 0, BuildingBlock: VETTIZ_charged_linker_0, # of connection points: 3
#     Node 8, Type 1, BuildingBlock: KUMBUR_clean_sbu_1, # of connection points: 6
#     Node 9, Type 1, BuildingBlock: KUMBUR_clean_sbu_1, # of connection points: 6
#     Node 10, Type 1, BuildingBlock: KUMBUR_clean_sbu_1, # of connection points: 6
#     Node 11, Type 1, BuildingBlock: KUMBUR_clean_sbu_1, # of connection points: 6
#     Edge 12, Type (0, 1), BuildingBlock: AJUNOK_clean_linker_0, # of connection points: 2
#     Edge 13, Type (0, 1), BuildingBlock: AJUNOK_clean_linker_0, # of connection points: 2
#     Edge 14, Type (0, 1), BuildingBlock: AJUNOK_clean_linker_0, # of connection points: 2
#     Edge 15, Type (0, 1), BuildingBlock: AJUNOK_clean_linker_0, # of connection points: 2
#     Edge 16, Type (0, 1), BuildingBlock: AJUNOK_clean_linker_0, # of connection points: 2
#     Edge 17, Type (0, 1), BuildingBlock: AJUNOK_clean_linker_0, # of connection points: 2
#     Edge 18, Type (0, 1), BuildingBlock: AJUNOK_clean_linker_0, # of connection points: 2
#     Edge 19, Type (0, 1), BuildingBlock: AJUNOK_clean_linker_0, # of connection points: 2
#     Edge 20, Type (0, 1), BuildingBlock: AJUNOK_clean_linker_0, # of connection points: 2
#     Edge 21, Type (0, 1), BuildingBlock: AJUNOK_clean_linker_0, # of connection points: 2
#     Edge 22, Type (0, 1), BuildingBlock: AJUNOK_clean_linker_0, # of connection points: 2
#     Edge 23, Type (0, 1), BuildingBlock: AJUNOK_clean_linker_0, # of connection points: 2
#     Edge 24, Type (0, 1), BuildingBlock: AJUNOK_clean_linker_0, # of connection points: 2
#     Edge 25, Type (0, 1), BuildingBlock: AJUNOK_clean_linker_0, # of connection points: 2
#     Edge 26, Type (0, 1), BuildingBlock: AJUNOK_clean_linker_0, # of connection points: 2
#     Edge 27, Type (0, 1), BuildingBlock: AJUNOK_clean_linker_0, # of connection points: 2
#     Edge 28, Type (0, 1), BuildingBlock: AJUNOK_clean_linker_0, # of connection points: 2
#     Edge 29, Type (0, 1), BuildingBlock: AJUNOK_clean_linker_0, # of connection points: 2
#     Edge 30, Type (0, 1), BuildingBlock: AJUNOK_clean_linker_0, # of connection points: 2
#     Edge 31, Type (0, 1), BuildingBlock: AJUNOK_clean_linker_0, # of connection points: 2
#     Edge 32, Type (0, 1), BuildingBlock: AJUNOK_clean_linker_0, # of connection points: 2
#     Edge 33, Type (0, 1), BuildingBlock: AJUNOK_clean_linker_0, # of connection points: 2
#     Edge 34, Type (0, 1), BuildingBlock: AJUNOK_clean_linker_0, # of connection points: 2
#     Edge 35, Type (0, 1), BuildingBlock: AJUNOK_clean_linker_0, # of connection points: 2
# Relax obj value: 0.361
# Max RMSD: 0.208
# Mean RMSD: 0.187
data_MOF--net-zzz--node1-KUMBUR_clean_sbu_1--node2-VETTIZ_charged_linker_0--edge1-AJUNOK_clean_linker_0
_symmetry_space_group_name_H-M    P1
_symmetry_Int_Tables_number       1
_symmetry_cell_setting            triclinic
loop_
_symmetry_equiv_pos_as_xyz
'x, y, z'
_cell_length_a     43.528024
_cell_length_b     43.759252
_cell_length_c     16.27061
_cell_angle_alpha  90.192425
_cell_angle_beta   90.271621
_cell_angle_gamma 90.282842
loop_
_atom_site_label
_atom_site_type_symbol
_atom_site_fract_x
_atom_site_fract_y
_atom_site_fract_z
_atom_type_partial_charge
C0 C 0.83731 0.54364 0.36788 0.0
C1 C 0.86352 0.55977 0.40236 0.0
C2 C 0.86977 0.58913 0.37089 0.0
C3 C 0.82876 0.58512 0.27127 0.0
C4 C 0.81964 0.55738 0.30221 0.0
C5 C 0.78972 0.54737 0.25655 0.0
H6 H 0.68391 0.59271 0.94984 0.0
C7 C 0.80934 0.59394 0.20166 0.0
C8 C 0.7844 0.5735 0.19334 0.0
H9 H 0.67823 0.50679 0.0775 0.0
H10 H 0.72415 0.5213 0.16049 0.0
H11 H 0.71028 0.63926 0.08403 0.0
H12 H 0.74028 0.58206 0.89521 0.0
H13 H 0.77628 0.59751 0.92063 0.0
H14 H 0.74565 0.6217 0.88251 0.0
H15 H 0.70747 0.64361 0.9744 0.0
H16 H 0.73979 0.65885 0.03103 0.0
C17 C 0.76306 0.54529 0.31784 0.0
C18 C 0.79511 0.51671 0.21281 0.0
C19 C 0.85979 0.64212 0.96262 0.0
C20 C 0.84745 0.64397 0.88235 0.0
C21 C 0.81715 0.65511 0.87532 0.0
C22 C 0.79736 0.65345 0.94311 0.0
C23 C 0.80846 0.6406 1.01632 0.0
C24 C 0.83964 0.63886 0.02862 0.0
C25 C 0.84754 0.62744 0.11307 0.0
C26 C 0.81578 0.61605 0.14083 0.0
C27 C 0.79336 0.62287 0.08198 0.0
C28 C 0.85999 0.65516 0.16304 0.0
C29 C 0.87131 0.60123 0.10712 0.0
C30 C 0.69223 0.57635 0.9943 0.0
C31 C 0.67729 0.54813 1.00362 0.0
C32 C 0.68909 0.5287 0.0667 0.0
C33 C 0.71581 0.53696 0.11464 0.0
C34 C 0.73157 0.56469 0.09878 0.0
C35 C 0.71946 0.58319 0.03757 0.0
C36 C 0.74057 0.60854 1.01415 0.0
C37 C 0.76614 0.60487 0.07695 0.0
C38 C 0.76151 0.57925 0.12913 0.0
C39 C 0.72368 0.6393 1.02596 0.0
C40 C 0.75133 0.60244 0.92397 0.0
H41 H 0.85562 0.62558 0.29517 0.0
H42 H 0.83072 0.52153 0.39176 0.0
H43 H 0.815 0.5185 0.17044 0.0
H44 H 0.77474 0.50976 0.17614 0.0
H45 H 0.80001 0.49845 0.25825 0.0
H46 H 0.76004 0.56748 0.35021 0.0
H47 H 0.76765 0.52741 0.3646 0.0
H48 H 0.7412 0.53958 0.28606 0.0
H49 H 0.88376 0.63744 0.97283 0.0
H50 H 0.80773 0.66148 0.81623 0.0
H51 H 0.77378 0.6598 0.93473 0.0
H52 H 0.86767 0.67423 0.12293 0.0
H53 H 0.88066 0.64912 0.19964 0.0
H54 H 0.8421 0.66464 0.2043 0.0
H55 H 0.86297 0.58299 0.06465 0.0
H56 H 0.87604 0.59062 0.16725 0.0
H57 H 0.89382 0.60978 0.08482 0.0
H58 H 0.88896 0.60256 0.39365 0.0
C59 C 0.85168 0.60219 0.30999 0.0
C60 C 0.9236 0.80705 0.87805 0.0
C61 C 0.93155 0.83769 0.86342 0.0
C62 C 0.92668 0.85887 0.92761 0.0
C63 C 0.92485 0.81727 1.02446 0.0
C64 C 0.92261 0.7968 0.9598 0.0
C65 C 0.92688 0.7643 0.98754 0.0
H66 H 0.02359 0.67644 0.11791 0.0
C67 C 0.93549 0.80058 0.09819 0.0
C68 C 0.93584 0.76948 0.07816 0.0
H69 H 0.93487 0.65374 1.00877 0.0
H70 H 0.91367 0.69977 0.06909 0.0
H71 H 0.02863 0.75574 0.10913 0.0
H72 H 1.01368 0.70043 0.28598 0.0
H73 H 0.97479 0.71285 0.30231 0.0
H74 H 1.00652 0.73712 0.33031 0.0
H75 H 0.04673 0.72808 0.17529 0.0
H76 H 0.03672 0.76523 0.21496 0.0
C77 C 0.95313 0.74947 0.9371 0.0
C78 C 0.89603 0.747 0.97604 0.0
C79 C 0.9756 0.86404 0.33721 0.0
C80 C 0.99478 0.85959 0.40585 0.0
C81 C 1.00874 0.83021 0.4125 0.0
C82 C 1.00294 0.80627 0.35355 0.0
C83 C 0.98317 0.8114 0.28584 0.0
C84 C 0.97036 0.84036 0.27932 0.0
C85 C 0.95219 0.84397 0.20185 0.0
C86 C 0.95183 0.81147 0.16862 0.0
C87 C 0.97084 0.79167 0.21523 0.0
C88 C 0.97024 0.8665 0.14568 0.0
C89 C 0.91937 0.85473 0.22382 0.0
C90 C 0.99992 0.68175 0.10373 0.0
C91 C 0.98179 0.66152 0.05172 0.0
C92 C 0.95015 0.66838 0.04379 0.0
C93 C 0.93786 0.69537 0.0754 0.0
C94 C 0.95739 0.71688 0.11139 0.0
C95 C 0.98633 0.70926 0.13618 0.0
C96 C 0.99759 0.73437 0.19743 0.0
C97 C 0.97258 0.75965 0.18937 0.0
C98 C 0.95135 0.74884 0.13032 0.0
C99 C 0.02934 0.74656 0.17274 0.0
C100 C 0.99817 0.72052 0.28411 0.0
H101 H 0.92115 0.86561 0.05584 0.0
H102 H 0.92377 0.79082 0.82782 0.0
H103 H 0.88193 0.75706 0.92588 0.0
H104 H 0.88209 0.74762 0.03309 0.0
H105 H 0.89956 0.72291 0.95725 0.0
H106 H 0.97507 0.76207 0.94706 0.0
H107 H 0.94763 0.749 0.87054 0.0
H108 H 0.9571 0.72536 0.95249 0.0
H109 H 0.96523 0.88618 0.32718 0.0
H110 H 0.02382 0.82556 0.464 0.0
H111 H 1.01412 0.78462 0.36143 0.0
H112 H 0.99346 0.87232 0.17022 0.0
H113 H 0.95796 0.88853 0.13895 0.0
H114 H 0.97476 0.85671 0.08404 0.0
H115 H 0.9103 0.84161 0.27698 0.0
H116 H 0.90277 0.85102 0.17307 0.0
H117 H 0.91925 0.87936 0.24058 0.0
H118 H 0.92995 0.88309 0.91788 0.0
C119 C 0.92276 0.84868 1.00838 0.0
C120 C 0.85398 0.99528 0.0887 0.0
C121 C 0.87317 0.97667 0.03638 0.0
C122 C 0.86512 0.94549 0.02821 0.0
C123 C 0.8195 0.95229 0.10943 0.0
C124 C 0.82719 0.98205 0.12687 0.0
C125 C 0.80395 0.99455 0.19109 0.0
H126 H 0.66961 0.95484 0.41067 0.0
C127 C 0.79132 0.94376 0.15139 0.0
C128 C 0.78199 0.96691 0.20564 0.0
H129 H 0.7134 0.0431 0.42648 0.0
H130 H 0.7539 0.02539 0.33031 0.0
H131 H 0.6625 0.94174 0.26961 0.0
H132 H 0.73293 0.9138 0.416 0.0
H133 H 0.72388 0.88408 0.34593 0.0
H134 H 0.69352 0.90203 0.40309 0.0
H135 H 0.67093 0.90276 0.26053 0.0
H136 H 0.68459 0.92987 0.18465 0.0
C137 C 0.78655 0.02174 0.15419 0.0
C138 C 0.82101 1.00353 0.27051 0.0
C139 C 0.71054 0.88232 1.00972 0.0
C140 C 0.68197 0.87297 0.04306 0.0
C141 C 0.68335 0.85947 0.12195 0.0
C142 C 0.70697 0.86815 0.17632 0.0
C143 C 0.72969 0.88802 0.14725 0.0
C144 C 0.73415 0.89057 0.06426 0.0
C145 C 0.76309 0.90807 0.04585 0.0
C146 C 0.77216 0.91872 0.13294 0.0
C147 C 0.74941 0.91055 0.18892 0.0
C148 C 0.75617 0.93551 0.98921 0.0
C149 C 0.78582 0.88587 1.00493 0.0
C150 C 0.68803 0.97057 0.39591 0.0
C151 C 0.68811 1.00015 0.42922 0.0
C152 C 0.71236 0.01993 0.40314 0.0
C153 C 0.73586 1.00974 0.34749 0.0
C154 C 0.73508 0.97957 0.31587 0.0
C155 C 0.71087 0.96102 0.34069 0.0
C156 C 0.71132 0.93016 0.30165 0.0
C157 C 0.73992 0.93241 0.24865 0.0
C158 C 0.75474 0.96142 0.25584 0.0
C159 C 0.68101 0.92577 0.25127 0.0
C160 C 0.71547 0.90609 0.37016 0.0
H161 H 0.83628 0.90883 0.06697 0.0
H162 H 0.85987 0.01898 0.10003 0.0
H163 H 0.83749 0.02248 0.25876 0.0
H164 H 0.83408 0.98375 0.29495 0.0
H165 H 0.80471 1.01106 0.31849 0.0
H166 H 0.77496 1.01489 0.0959 0.0
H167 H 0.80265 0.04085 0.14074 0.0
H168 H 0.76878 0.03021 0.19691 0.0
H169 H 0.71293 0.88836 0.94584 0.0
H170 H 0.66443 0.84611 0.1456 0.0
H171 H 0.70563 0.86141 0.23969 0.0
H172 H 0.73815 0.95031 1.01645 0.0
H173 H 0.74823 0.92774 0.9276 0.0
H174 H 0.77711 0.94962 0.97982 0.0
H175 H 0.77385 0.87085 0.95959 0.0
H176 H 0.79695 0.87094 0.05137 0.0
H177 H 0.80344 0.89826 0.96892 0.0
H178 H 0.87863 0.93016 0.99075 0.0
C179 C 0.83952 0.93321 0.06737 0.0
C180 C 0.54751 0.70593 0.36279 0.0
C181 C 0.55992 0.67573 0.37762 0.0
C182 C 0.58135 0.6648 0.32043 0.0
C183 C 0.57744 0.71043 0.23653 0.0
C184 C 0.55712 0.72326 0.29126 0.0
C185 C 0.54947 0.75623 0.26162 0.0
H186 H 0.56738 0.85608 0.92509 0.0
C187 C 0.5833 0.7315 0.16729 0.0
C188 C 0.56802 0.75963 0.18056 0.0
H189 H 0.52035 0.88349 0.14583 0.0
H190 H 0.53155 0.83251 0.20661 0.0
H191 H 0.62436 0.83356 0.02894 0.0
H192 H 0.54944 0.80292 0.89108 0.0
H193 H 0.56751 0.76751 0.89918 0.0
H194 H 0.58647 0.79898 0.84778 0.0
H195 H 0.6216 0.83141 0.91898 0.0
H196 H 0.63897 0.80139 0.97981 0.0
C197 C 0.56043 0.77959 0.32616 0.0
C198 C 0.51485 0.7591 0.24519 0.0
C199 C 0.61102 0.68722 0.89455 0.0
C200 C 0.61045 0.70177 0.81704 0.0
C201 C 0.62116 0.73204 0.81244 0.0
C202 C 0.62475 0.74926 0.88449 0.0
C203 C 0.61634 0.73613 0.96016 0.0
C204 C 0.61341 0.70502 0.96572 0.0
C205 C 0.60688 0.69492 0.0524 0.0
C206 C 0.59915 0.72566 0.0927 0.0
C207 C 0.60384 0.74931 0.03684 0.0
C208 C 0.637 0.68067 0.08677 0.0
C209 C 0.57907 0.67253 0.05165 0.0
C210 C 0.55981 0.85268 0.98757 0.0
C211 C 0.54341 0.87538 0.02891 0.0
C212 C 0.53298 0.86711 0.10956 0.0
C213 C 0.53969 0.83757 0.14558 0.0
C214 C 0.55746 0.81586 0.1018 0.0
C215 C 0.5672 0.82481 1.02449 0.0
C216 C 0.5877 0.80252 0.98455 0.0
C217 C 0.58863 0.77749 0.04778 0.0
C218 C 0.57056 0.78381 0.11831 0.0
C219 C 0.61982 0.81789 0.97643 0.0
C220 C 0.57234 0.7924 0.90153 0.0
H221 H 0.60753 0.67204 0.21483 0.0
H222 H 0.53142 0.71577 0.40575 0.0
H223 H 0.50721 0.74184 0.19905 0.0
H224 H 0.50924 0.78212 0.22119 0.0
H225 H 0.50166 0.75539 0.30265 0.0
H226 H 0.5854 0.77684 0.33858 0.0
H227 H 0.54786 0.77641 0.38482 0.0
H228 H 0.55659 0.80327 0.30457 0.0
H229 H 0.60449 0.66356 0.90111 0.0
H230 H 0.62272 0.74345 0.75361 0.0
H231 H 0.63076 0.77281 0.87722 0.0
H232 H 0.65636 0.68155 0.04235 0.0
H233 H 0.63382 0.65614 0.1021 0.0
H234 H 0.64534 0.69306 0.14234 0.0
H235 H 0.55994 0.68195 1.01408 0.0
H236 H 0.56957 0.66801 0.11295 0.0
H237 H 0.58559 0.65 1.02559 0.0
H238 H 0.59128 0.64228 0.32751 0.0
C239 C 0.59061 0.68202 0.25318 0.0
C240 C 0.36154 0.49995 0.27336 0.0
C241 C 0.38253 0.48307 0.32528 0.0
C242 C 0.37616 0.45169 0.33705 0.0
C243 C 0.32739 0.45627 0.26836 0.0
C244 C 0.33409 0.48522 0.24256 0.0
C245 C 0.30851 0.49503 0.18098 0.0
H246 H 0.16058 0.45369 0.03323 0.0
C247 C 0.29637 0.44774 0.24419 0.0
C248 C 0.2847 0.46838 0.18611 0.0
H249 H 0.21469 0.52737 0.93382 0.0
H250 H 0.25638 0.5159 0.03337 0.0
H251 H 0.21464 0.40345 0.05299 0.0
H252 H 0.16273 0.46331 0.18933 0.0
H253 H 0.18685 0.45269 0.27215 0.0
H254 H 0.16199 0.42502 0.22201 0.0
H255 H 0.17541 0.40215 0.08731 0.0
H256 H 0.20592 0.386 0.1482 0.0
C257 C 0.3225 0.49723 0.09464 0.0
C258 C 0.29428 0.52545 0.20805 0.0
C259 C 0.22981 0.41286 0.47217 0.0
C260 C 0.19782 0.40802 0.47182 0.0
C261 C 0.18467 0.39397 0.40151 0.0
C262 C 0.20053 0.39433 0.32668 0.0
C263 C 0.22973 0.40788 0.3246 0.0
C264 C 0.24542 0.41282 0.39714 0.0
C265 C 0.27774 0.42351 0.38237 0.0
C266 C 0.27652 0.42868 0.28899 0.0
C267 C 0.24732 0.42212 0.25751 0.0
C268 C 0.2997 0.39774 0.40954 0.0
C269 C 0.28411 0.45352 0.43059 0.0
C270 C 0.18151 0.46713 0.0304 0.0
C271 C 0.18411 0.49084 0.97275 0.0
C272 C 0.21171 0.50856 0.97613 0.0
C273 C 0.23602 0.50182 0.03325 0.0
C274 C 0.23294 0.47725 0.08888 0.0
C275 C 0.20547 0.46091 0.08666 0.0
C276 C 0.20407 0.43658 0.15097 0.0
C277 C 0.23595 0.43913 0.18929 0.0
C278 C 0.25363 0.46322 0.15426 0.0
C279 C 0.19961 0.40529 0.1079 0.0
C280 C 0.17775 0.44462 0.21194 0.0
H281 H 0.34584 0.41398 0.31356 0.0
H282 H 0.3664 0.52348 0.2576 0.0
H283 H 0.28494 0.5235 0.27132 0.0
H284 H 0.27522 0.53196 0.16623 0.0
H285 H 0.31179 0.54401 0.20765 0.0
H286 H 0.33327 0.47519 0.07702 0.0
H287 H 0.34047 0.51535 0.09297 0.0
H288 H 0.30488 0.50265 0.04788 0.0
H289 H 0.24141 0.42146 0.52629 0.0
H290 H 0.1607 0.38742 0.40122 0.0
H291 H 0.189 0.38615 0.27238 0.0
H292 H 0.29058 0.38528 0.46377 0.0
H293 H 0.32225 0.40687 0.43015 0.0
H294 H 0.30306 0.38077 0.35942 0.0
H295 H 0.26719 0.47138 0.41349 0.0
H296 H 0.30744 0.46258 0.41878 0.0
H297 H 0.28299 0.44978 0.49793 0.0
H298 H 0.39159 0.43745 0.37227 0.0
C299 C 0.34928 0.43824 0.30702 0.0
C300 C 0.14094 0.23801 0.49527 0.0
C301 C 0.13482 0.20739 0.51545 0.0
C302 C 0.13463 0.18588 0.45033 0.0
C303 C 0.12871 0.2269 0.35274 0.0
C304 C 0.135 0.24778 0.41456 0.0
C305 C 0.12678 0.27987 0.39 0.0
H306 H 0.01703 0.36323 0.28614 0.0
C307 C 0.11247 0.24293 0.28539 0.0
C308 C 0.11153 0.27395 0.30597 0.0
H309 H 0.10718 0.38887 0.382 0.0
H310 H 0.12861 0.34486 0.3154 0.0
H311 H 0.02279 0.33846 0.11793 0.0
H312 H 1.01503 0.28386 0.29859 0.0
H313 H 1.00462 0.27389 0.19456 0.0
H314 H 0.99438 0.31075 0.2356 0.0
H315 H 0.03236 0.30235 0.07286 0.0
H316 H 0.06226 0.32918 0.09718 0.0
C317 C 0.15675 0.29906 0.38484 0.0
C318 C 0.10395 0.29292 0.45408 0.0
C319 C 0.06518 0.17789 0.05953 0.0
C320 C 0.04237 0.18135 0.99914 0.0
C321 C 0.02621 0.20964 0.99888 0.0
C322 C 0.03352 0.23378 0.0559 0.0
C323 C 0.05702 0.22978 0.1151 0.0
C324 C 0.07177 0.20164 0.11604 0.0
C325 C 0.09338 0.1988 0.18717 0.0
C326 C 0.09349 0.23121 0.22099 0.0
C327 C 0.07143 0.24999 0.18153 0.0
C328 C 0.12548 0.18965 0.15477 0.0
C329 C 0.07898 0.17537 0.2481 0.0
C330 C 0.04108 0.35883 0.29752 0.0
C331 C 0.05948 0.37984 0.34667 0.0
C332 C 0.09149 0.37404 0.34916 0.0
C333 C 0.10414 0.34783 0.31434 0.0
C334 C 0.08478 0.3253 0.28268 0.0
C335 C 0.0549 0.33167 0.2636 0.0
C336 C 0.04303 0.30609 0.20477 0.0
C337 C 0.06907 0.2818 0.20848 0.0
C338 C 0.09189 0.29367 0.26155 0.0
C339 C 0.0399 0.31968 0.11812 0.0
C340 C 1.01242 0.29287 0.23516 0.0
H341 H 0.13089 0.17841 0.32197 0.0
H342 H 0.14492 0.25467 0.54338 0.0
H343 H 0.08348 0.27778 0.45955 0.0
H344 H 0.09563 0.31593 0.43963 0.0
H345 H 0.11508 0.29542 0.51518 0.0
H346 H 0.17608 0.28831 0.41891 0.0
H347 H 0.15401 0.32193 0.41343 0.0
H348 H 0.1643 0.30191 0.32014 0.0
H349 H 0.07734 0.15641 0.06432 0.0
H350 H 1.00816 0.21321 0.95398 0.0
H351 H 0.0205 0.25459 0.05362 0.0
H352 H 0.13154 0.20335 0.09965 0.0
H353 H 0.12599 0.16511 0.13711 0.0
H354 H 0.144 0.19392 0.20015 0.0
H355 H 0.05486 0.16916 0.23197 0.0
H356 H 0.07746 0.18464 0.31142 0.0
H357 H 0.09203 0.15362 0.24918 0.0
H358 H 0.13215 0.16165 0.46181 0.0
C359 C 0.13246 0.19565 0.36866 0.0
C360 C 0.33503 0.04199 0.03097 0.0
C361 C 0.35751 0.06055 0.98858 0.0
C362 C 0.3525 0.09246 0.98774 0.0
C363 C 0.31247 0.08777 0.08818 0.0
C364 C 0.31154 0.05668 0.07911 0.0
C365 C 0.28312 0.04457 0.12681 0.0
H366 H 0.16835 0.08945 0.4083 0.0
C367 C 0.29116 0.09756 0.15136 0.0
C368 C 0.27103 0.07363 0.17158 0.0
H369 H 0.17232 1.00051 0.29472 0.0
H370 H 0.21893 0.01626 0.21853 0.0
H371 H 0.22422 0.09248 0.46522 0.0
H372 H 0.18783 0.13315 0.25695 0.0
H373 H 0.21351 0.15941 0.30449 0.0
H374 H 0.18362 0.14185 0.36444 0.0
H375 H 0.2266 0.13258 0.46057 0.0
H376 H 0.259 0.10897 0.43213 0.0
C377 C 0.29291 0.01997 0.18857 0.0
C378 C 0.25941 0.03221 0.06464 0.0
C379 C 0.33632 0.16033 0.37531 0.0
C380 C 0.3235 0.16663 0.45319 0.0
C381 C 0.29205 0.17442 0.45529 0.0
C382 C 0.27282 0.16675 0.38874 0.0
C383 C 0.28553 0.15137 0.32137 0.0
C384 C 0.31682 0.15199 0.31034 0.0
C385 C 0.32603 0.13679 0.2312 0.0
C386 C 0.29513 0.12271 0.20471 0.0
C387 C 0.27223 0.12946 0.26182 0.0
C388 C 0.35075 0.11214 0.24786 0.0
C389 C 0.33813 0.16171 0.17249 0.0
C390 C 0.1784 0.07335 0.36555 0.0
C391 C 0.16576 0.04399 0.35719 0.0
C392 C 0.18112 0.0235 0.30291 0.0
C393 C 0.20794 0.03262 0.2581 0.0
C394 C 0.22005 0.06242 0.26812 0.0
C395 C 0.20521 0.08171 0.32296 0.0
C396 C 0.22215 0.11102 0.33674 0.0
C397 C 0.24798 0.10811 0.27473 0.0
C398 C 0.24749 0.07944 0.23318 0.0
C399 C 0.23367 0.11152 0.4278 0.0
C400 C 0.20066 0.13792 0.31494 0.0
H401 H 0.32623 0.13025 0.03282 0.0
H402 H 0.33633 0.01732 0.02885 0.0
H403 H 0.25325 0.05017 1.01937 0.0
H404 H 0.23806 0.02479 0.09532 0.0
H405 H 0.2689 1.01237 0.0305 0.0
H406 H 0.31065 0.02922 0.23142 0.0
H407 H 0.30266 0.99988 0.15611 0.0
H408 H 0.27303 1.01215 0.22546 0.0
H409 H 0.3607 0.15704 0.36799 0.0
H410 H 0.28175 0.18331 0.51075 0.0
H411 H 0.24864 0.17097 0.39385 0.0
H412 H 0.34231 0.09512 0.29317 0.0
H413 H 0.37234 0.12253 0.27167 0.0
H414 H 0.35723 0.09982 0.19112 0.0
H415 H 0.35132 0.17955 0.20665 0.0
H416 H 0.31893 0.17316 0.13968 0.0
H417 H 0.35456 0.15232 0.12732 0.0
H418 H 0.36676 0.10733 0.95071 0.0
C419 C 0.33001 0.10596 0.03638 0.0
C420 C 0.50496 0.3396 1.0058 0.0
C421 C 0.48777 0.36387 0.96703 0.0
C422 C 0.45665 0.3669 0.98973 0.0
C423 C 0.46182 0.32857 0.09517 0.0
C424 C 0.49081 0.32136 0.0691 0.0
C425 C 0.50125 0.29202 0.11484 0.0
H426 H 0.46231 0.19147 0.43763 0.0
C427 C 0.45291 0.30924 0.16417 0.0
C428 C 0.47433 0.2856 0.17517 0.0
H429 H 0.54187 0.18086 0.28407 0.0
H430 H 0.52629 0.22628 0.20335 0.0
H431 H 0.46455 0.24697 0.48225 0.0
H432 H 0.41371 0.20846 0.29409 0.0
H433 H 0.39094 0.23761 0.33736 0.0
H434 H 0.40784 0.20919 0.40336 0.0
H435 H 0.42463 0.25286 0.48671 0.0
H436 H 0.45004 0.28209 0.44681 0.0
C437 C 0.53136 0.2983 0.16156 0.0
C438 C 0.50473 0.26589 0.05224 0.0
C439 C 0.40146 0.35998 0.40078 0.0
C440 C 0.39523 0.34803 0.47975 0.0
C441 C 0.38477 0.31744 0.48339 0.0
C442 C 0.39 0.29754 0.41708 0.0
C443 C 0.4053 0.3088 0.34774 0.0
C444 C 0.40714 0.33979 0.33589 0.0
C445 C 0.42049 0.34761 0.25347 0.0
C446 C 0.43068 0.31575 0.22454 0.0
C447 C 0.42389 0.29375 0.28393 0.0
C448 C 0.44812 0.36972 0.26404 0.0
C449 C 0.39466 0.36205 0.20106 0.0
C450 C 0.47668 0.19855 0.38683 0.0
C451 C 0.50345 0.18226 0.36883 0.0
C452 C 0.52095 0.19265 0.30034 0.0
C453 C 0.51201 0.21899 0.25355 0.0
C454 C 0.48512 0.23525 0.27449 0.0
C455 C 0.46826 0.22443 0.34077 0.0
C456 C 0.44097 0.2437 0.35939 0.0
C457 C 0.44307 0.26768 0.29225 0.0
C458 C 0.46905 0.26345 0.24076 0.0
C459 C 0.44503 0.25718 0.44784 0.0
C460 C 0.41171 0.22376 0.34857 0.0
H461 H 0.41924 0.34976 0.06015 0.0
H462 H 0.52821 0.33481 0.98667 0.0
H463 H 0.483 0.2625 1.01711 0.0
H464 H 0.51027 0.24407 0.08286 0.0
H465 H 0.52333 0.27119 1.00786 0.0
H466 H 0.52848 0.31775 0.20498 0.0
H467 H 0.55009 0.30416 0.11808 0.0
H468 H 0.53849 0.27805 0.19747 0.0
H469 H 0.40662 0.38386 0.39184 0.0
H470 H 0.37569 0.30805 0.5397 0.0
H471 H 0.38393 0.27389 0.42382 0.0
H472 H 0.46559 0.3599 0.30632 0.0
H473 H 0.44072 0.39215 0.28894 0.0
H474 H 0.45933 0.3745 0.20447 0.0
H475 H 0.37818 0.37497 0.23972 0.0
H476 H 0.38135 0.34428 0.16712 0.0
H477 H 0.40382 0.37925 0.15759 0.0
H478 H 0.44204 0.3836 0.96033 0.0
C479 C 0.4436 0.34878 0.05082 0.0
Tb480 Tb 0.98953 0.04169 0.63402 0.0
C481 C 0.09437 0.04879 0.87049 0.0
N482 N 0.09253 0.03409 0.79675 0.0
C483 C 0.14157 0.05502 0.75869 0.0
C484 C 0.11955 0.06796 0.89006 0.0
C485 C 0.11606 0.03646 0.74174 0.0
C486 C 0.14326 0.07098 0.83293 0.0
C487 C 0.07055 0.06169 1.00039 0.0
C488 C 0.07012 0.04571 0.92483 0.0
C489 C 0.09553 0.08084 1.02003 0.0
C490 C 0.12 0.08391 0.96509 0.0
Tb491 Tb 0.04972 1.00414 0.77638 0.0
N492 N 0.04585 0.02761 0.90281 0.0
C493 C 0.04585 0.05798 0.05403 0.0
C494 C 0.0228 0.02249 0.95773 0.0
C495 C 0.02208 0.03796 0.03301 0.0
H496 H 0.1158 0.0236 0.68545 0.0
H497 H 1.00339 0.034 0.07539 0.0
H498 H 0.92713 0.06768 0.72412 0.0
H499 H 1.00539 0.98591 0.33976 0.0
H500 H 1.00543 1.00582 0.94585 0.0
H501 H 0.04526 0.0699 0.11249 0.0
H502 H 0.02192 1.0136 0.46418 0.0
H503 H 0.16001 0.05685 0.71455 0.0
H504 H 0.09613 0.09341 0.07754 0.0
H505 H 0.13906 0.09886 0.98094 0.0
H506 H 0.87079 0.06134 0.70968 0.0
H507 H 0.16298 0.08548 0.84563 0.0
H508 H 0.95027 0.97456 0.3165 0.0
N509 N 0.93727 0.03971 0.62097 0.0
C510 C 0.92589 0.02379 0.55596 0.0
C511 C 0.88604 0.05044 0.66631 0.0
C512 C 0.89401 0.02015 0.54379 0.0
C513 C 0.91789 0.05361 0.6751 0.0
C514 C 0.87402 0.0334 0.60072 0.0
N515 N 0.97681 0.01712 0.51352 0.0
C516 C 0.99785 1.00885 0.45539 0.0
C517 C 0.93582 0.99674 0.42894 0.0
C518 C 0.9464 1.0123 0.49967 0.0
C519 C 0.95741 0.98669 0.37157 0.0
C520 C 0.98854 0.99309 0.38447 0.0
H521 H 0.84935 0.03114 0.59368 0.0
H522 H 0.85879 1.00079 0.46417 0.0
H523 H 0.89547 0.98026 0.36343 0.0
O524 O 1.01579 0.07689 0.58345 0.0
O525 O 0.98987 0.99114 0.61752 0.0
O526 O 0.03554 0.97326 0.67306 0.0
O527 O 0.96646 0.08094 0.59132 0.0
O528 O 0.03815 0.04167 0.58867 0.0
O529 O 0.06585 1.00297 0.6492 0.0
O530 O 0.05129 0.9692 0.86469 0.0
O531 O 0.04728 0.05492 0.76092 0.0
O532 O 0.99638 0.06305 0.75584 0.0
O533 O 0.08996 0.97789 0.78723 0.0
O534 O 1.00066 0.99166 0.80202 0.0
O535 O 0.97232 0.03299 0.75979 0.0
C536 C 1.011 0.96967 0.62519 0.0
C537 C 0.99723 0.12404 0.62834 0.0
C538 C 0.03428 0.16144 0.68133 0.0
C539 C 1.01187 0.17249 0.73564 0.0
C540 C 0.97495 0.13563 0.68219 0.0
C541 C 0.98225 0.15995 0.73489 0.0
C542 C 0.02642 0.13764 0.62701 0.0
C543 C 0.06231 0.02332 0.59073 0.0
C544 C 0.9924 0.09545 0.58143 0.0
C545 C 0.88321 1.00396 0.47459 0.0
C546 C 0.90409 0.99227 0.41721 0.0
C547 C 0.02357 0.0718 0.78205 0.0
C548 C 0.07472 0.92691 0.80023 0.0
C549 C 0.0424 0.88569 0.74499 0.0
C550 C 0.06833 0.87325 0.70629 0.0
C551 C 0.10045 0.91365 0.76301 0.0
C552 C 0.04602 0.91235 0.79237 0.0
C553 C 0.09723 0.88687 0.71667 0.0
C554 C 0.97526 1.0083 0.80558 0.0
C555 C 0.07658 0.95815 0.8345 0.0
H556 H 0.01722 0.19056 0.77907 0.0
H557 H 0.95228 0.12542 0.68545 0.0
H558 H 0.96514 0.16852 0.77705 0.0
H559 H 0.04332 0.12923 0.58382 0.0
H560 H 0.06635 0.8532 0.66748 0.0
H561 H 0.12277 0.92464 0.76712 0.0
H562 H 0.02619 0.92201 0.82272 0.0
H563 H 0.11707 0.87712 0.68671 0.0
Tb564 Tb 0.54496 0.05887 0.78627 0.0
C565 C 0.51048 0.95309 0.5084 0.0
N566 N 0.5195 0.98259 0.51763 0.0
C567 C 0.54603 0.98001 0.38843 0.0
C568 C 0.51877 0.93578 0.43868 0.0
C569 C 0.53712 0.9962 0.4586 0.0
C570 C 0.5368 0.94965 0.3783 0.0
C571 C 0.48231 0.90986 0.56225 0.0
C572 C 0.49264 0.94037 0.569 0.0
C573 C 0.49054 0.89237 0.49326 0.0
C574 C 0.50876 0.90531 0.43154 0.0
Tb575 Tb 0.50417 1.00705 0.63559 0.0
N576 N 0.48517 0.95808 0.63433 0.0
C577 C 0.46398 0.89793 0.6249 0.0
C578 C 0.46725 0.94648 0.69568 0.0
C579 C 0.45643 0.91635 0.69193 0.0
H580 H 0.54518 0.01931 0.4659 0.0
H581 H 0.44239 0.90733 0.741 0.0
H582 H 0.52067 0.04286 0.97415 0.0
H583 H 0.59155 0.16371 0.66315 0.0
H584 H 0.46162 0.96001 0.74877 0.0
H585 H 0.45559 0.87459 0.62216 0.0
H586 H 0.58386 0.10781 0.67036 0.0
H587 H 0.56017 0.99094 0.34241 0.0
H588 H 0.48288 0.86887 0.48697 0.0
H589 H 0.5149 0.89162 0.37853 0.0
H590 H 0.5028 0.07132 0.09588 0.0
H591 H 0.54372 0.93715 0.32389 0.0
H592 H 0.56875 0.19735 0.76902 0.0
N593 N 0.52932 0.08287 0.90361 0.0
C594 C 0.5306 0.11381 0.90348 0.0
C595 C 0.51034 0.08358 0.04187 0.0
C596 C 0.5208 0.13107 0.97167 0.0
C597 C 0.52046 0.06751 0.97261 0.0
C598 C 0.51002 0.11551 0.04093 0.0
N599 N 0.55592 0.10992 0.77721 0.0
C600 C 0.57373 0.12228 0.71672 0.0
C601 C 0.54852 0.15985 0.83677 0.0
C602 C 0.54435 0.12791 0.83747 0.0
C603 C 0.56508 0.17287 0.77206 0.0
C604 C 0.5781 0.15394 0.7124 0.0
H605 H 0.50236 0.1279 0.0948 0.0
H606 H 0.51563 0.17685 1.02106 0.0
H607 H 0.53982 0.20212 0.90251 0.0
O608 O 0.58237 0.07119 0.86131 0.0
O609 O 0.52542 0.08411 0.67915 0.0
O610 O 0.52316 0.04881 0.57431 0.0
O611 O 0.58032 0.02705 0.79976 0.0
O612 O 0.57215 0.05141 0.67211 0.0
O613 O 0.55507 1.0046 0.62543 0.0
O614 O 0.47473 0.0445 0.63455 0.0
O615 O 0.52211 0.98019 0.74062 0.0
O616 O 0.52943 0.01539 0.84539 0.0
O617 O 0.46628 1.0048 0.55539 0.0
O618 O 0.47654 1.01235 0.75026 0.0
O619 O 0.49499 0.0562 0.81353 0.0
C620 C 0.52369 0.07768 0.59961 0.0
C621 C 0.6018 0.02829 0.93329 0.0
C622 C 0.61533 0.98129 1.0054 0.0
C623 C 0.61702 0.99804 0.07942 0.0
C624 C 0.60302 0.04439 1.00812 0.0
C625 C 0.61061 0.02926 0.08066 0.0
C626 C 0.60804 0.99685 0.93259 0.0
C627 C 0.57661 0.02594 0.62991 0.0
C628 C 0.59418 0.04386 0.85556 0.0
C629 C 0.52333 0.1631 0.96968 0.0
C630 C 0.53713 0.17749 0.90218 0.0
C631 C 0.52743 0.9868 0.81871 0.0
C632 C 0.42328 0.03492 0.5978 0.0
C633 C 0.3802 0.07043 0.60965 0.0
C634 C 0.35997 0.0452 0.60234 0.0
C635 C 0.40273 1.01024 0.59246 0.0
C636 C 0.41196 0.06457 0.6103 0.0
C637 C 0.3712 0.01543 0.59612 0.0
C638 C 0.47295 0.03556 0.80203 0.0
C639 C 0.45625 0.03139 0.58137 0.0
H640 H 0.62414 0.98733 0.13622 0.0
H641 H 0.59835 0.06866 1.01066 0.0
H642 H 0.61194 0.04185 0.13795 0.0
H643 H 0.60726 0.98454 0.87485 0.0
H644 H 0.33542 0.04818 0.59679 0.0
H645 H 0.41093 0.98714 0.58351 0.0
H646 H 0.42822 0.08328 0.61601 0.0
H647 H 0.35534 0.99641 0.59025 0.0
Tb648 Tb 0.5578 0.49721 0.59859 0.0
C649 C 0.45423 0.48827 0.83391 0.0
N650 N 0.45563 0.50214 0.75922 0.0
C651 C 0.4086 0.47728 0.71874 0.0
C652 C 0.43051 0.4674 0.85263 0.0
C653 C 0.43263 0.49773 0.70292 0.0
C654 C 0.40767 0.46183 0.79361 0.0
C655 C 0.47702 0.4801 0.96807 0.0
C656 C 0.47748 0.49424 0.89023 0.0
C657 C 0.45373 0.45891 0.98664 0.0
C658 C 0.43052 0.4526 0.92906 0.0
Tb659 Tb 0.49638 0.53474 0.73946 0.0
N660 N 0.50016 0.51429 0.86927 0.0
C661 C 0.49952 0.48827 1.0257 0.0
C662 C 0.52041 0.52424 0.92812 0.0
C663 C 0.52077 0.51103 1.00635 0.0
H664 H 0.43251 0.51006 0.64602 0.0
H665 H 0.5373 0.51867 0.05199 0.0
H666 H 0.62089 0.47365 0.69477 0.0
H667 H 0.54162 0.56266 0.32107 0.0
H668 H 0.53589 0.543 0.91637 0.0
H669 H 0.49992 0.47805 0.08627 0.0
H670 H 0.52543 0.53048 0.4375 0.0
H671 H 0.39073 0.47357 0.67327 0.0
H672 H 0.45324 0.44759 0.04575 0.0
H673 H 0.4126 0.43635 0.94439 0.0
H674 H 0.67696 0.48078 0.68195 0.0
H675 H 0.38909 0.4459 0.80553 0.0
H676 H 0.59657 0.57576 0.30325 0.0
N677 N 0.61017 0.5021 0.59265 0.0
C678 C 0.6214 0.51956 0.53085 0.0
C679 C 0.66157 0.49188 0.63911 0.0
C680 C 0.65323 0.5243 0.5212 0.0
C681 C 0.62977 0.48812 0.64658 0.0
C682 C 0.67337 0.51017 0.57638 0.0
N683 N 0.57046 0.52662 0.4875 0.0
C684 C 0.54938 0.53617 0.43071 0.0
C685 C 0.61125 0.55011 0.40994 0.0
C686 C 0.60084 0.53215 0.476 0.0
C687 C 0.58956 0.56168 0.35457 0.0
C688 C 0.55852 0.55436 0.36448 0.0
H689 H 0.69801 0.51316 0.57099 0.0
H690 H 0.68823 0.54674 0.44821 0.0
H691 H 0.65139 0.56948 0.35088 0.0
O692 O 0.53936 0.46787 0.50945 0.0
O693 O 0.55962 0.5483 0.59843 0.0
O694 O 0.51136 0.56448 0.63625 0.0
O695 O 0.58266 0.45753 0.56708 0.0
O696 O 0.50841 0.49454 0.55915 0.0
O697 O 0.48179 0.53565 0.60986 0.0
O698 O 0.45575 0.56119 0.74038 0.0
O699 O 0.4973 0.4842 0.71934 0.0
O700 O 0.54756 0.47179 0.71291 0.0
O701 O 0.49162 0.56953 0.82727 0.0
O702 O 0.54632 0.54346 0.77258 0.0
O703 O 0.5723 0.5007 0.72813 0.0
C704 C 0.53793 0.56942 0.59965 0.0
C705 C 0.54833 0.41664 0.54299 0.0
C706 C 0.50521 0.38413 0.58436 0.0
C707 C 0.52333 0.35833 0.56592 0.0
C708 C 0.566 0.39074 0.52668 0.0
C709 C 0.55363 0.3617 0.53931 0.0
C710 C 0.51857 0.4132 0.57531 0.0
C711 C 0.4853 0.5141 0.55409 0.0
C712 C 0.56019 0.44714 0.52215 0.0
C713 C 0.66386 0.54266 0.45642 0.0
C714 C 0.64289 0.55559 0.40096 0.0
C715 C 0.51993 0.46604 0.74115 0.0
C716 C 0.46424 0.61214 0.78441 0.0
C717 C 0.49589 0.65624 0.75019 0.0
C718 C 0.47661 0.67473 0.79861 0.0
C719 C 0.44544 0.63057 0.83321 0.0
C720 C 0.48691 0.62588 0.73617 0.0
C721 C 0.45087 0.66207 0.83734 0.0
C722 C 0.57035 0.52463 0.77696 0.0
C723 C 0.46549 0.579 0.79876 0.0
H724 H 0.51389 0.33545 0.56764 0.0
H725 H 0.58905 0.393 0.50251 0.0
H726 H 0.56713 0.34167 0.52499 0.0
H727 H 0.50531 0.43331 0.58988 0.0
H728 H 0.48237 0.69838 0.81122 0.0
H729 H 0.42766 0.62049 0.87093 0.0
H730 H 0.50012 0.61199 0.69541 0.0
H731 H 0.43663 0.67627 0.87604 0.0
Tb732 Tb 0.03669 0.55191 0.62878 0.0
C733 C 0.03247 0.43135 0.84102 0.0
N734 N 1.01443 0.43902 0.77606 0.0
C735 C 1.01453 0.38677 0.73 0.0
C736 C 0.04273 0.40111 0.85238 0.0
C737 C 1.00479 0.41703 0.72192 0.0
C738 C 0.03377 0.37879 0.79526 0.0
C739 C 0.05939 0.44716 0.96478 0.0
C740 C 0.0406 0.45396 0.89642 0.0
C741 C 0.0698 0.41714 0.97636 0.0
C742 C 0.06144 0.39414 0.92032 0.0
Tb743 Tb 1.00033 0.48938 0.76688 0.0
N744 N 0.03062 0.48286 0.88191 0.0
C745 C 0.06714 0.47074 1.01934 0.0
C746 C 0.03683 0.50552 0.93766 0.0
C747 C 0.05553 0.49998 1.00612 0.0
H748 H 0.98863 0.42255 0.67427 0.0
H749 H 0.06078 0.51825 0.04901 0.0
H750 H 0.02939 0.61969 0.71974 0.0
H751 H 0.9977 0.51168 0.32943 0.0
H752 H 0.02743 0.52791 0.93052 0.0
H753 H 0.08165 0.46652 0.07237 0.0
H754 H 0.02951 0.51088 0.45359 0.0
H755 H 1.00684 0.36957 0.68651 0.0
H756 H 0.0843 0.41149 0.02839 0.0
H757 H 0.06957 0.37106 0.93005 0.0
H758 H 1.00033 0.66702 0.69866 0.0
H759 H 0.04118 0.35531 0.80166 0.0
H760 H 0.96378 0.5557 0.30225 0.0
N761 N 1.01219 0.59777 0.61233 0.0
C762 C 0.99521 0.60104 0.5426 0.0
C763 C 0.99845 0.64853 0.65453 0.0
C764 C 0.97842 0.62793 0.52723 0.0
C765 C 1.01461 0.62138 0.66705 0.0
C766 C 0.98007 0.65175 0.58461 0.0
N767 N 1.01082 0.55149 0.50469 0.0
C768 C 1.01328 0.52898 0.44671 0.0
C769 C 0.97662 0.57923 0.41457 0.0
C770 C 0.99429 0.577 0.48724 0.0
C771 C 0.97707 0.55493 0.35868 0.0
C772 C 0.99595 0.52994 0.37417 0.0
H773 H 0.96749 0.67277 0.57519 0.0
H774 H 0.94717 0.65045 0.44306 0.0
H775 H 0.94569 0.6078 0.34417 0.0
O776 O 0.07096 0.58636 0.62957 0.0
O777 O 0.9859 0.55185 0.64511 0.0
O778 O 0.97315 0.50152 0.6555 0.0
O779 O 0.06855 0.55327 0.53258 0.0
O780 O 0.04532 0.50269 0.59599 0.0
O781 O 1.0027 0.47556 0.63628 0.0
O782 O 0.96982 0.49854 0.86267 0.0
O783 O 0.05162 0.48864 0.76037 0.0
O784 O 0.06575 0.53823 0.7347 0.0
O785 O 0.96301 0.45918 0.78551 0.0
O786 O 0.99401 0.53835 0.8053 0.0
O787 O 0.03515 0.56636 0.75867 0.0
C788 C 0.96682 0.52914 0.62852 0.0
C789 C 0.11691 0.56191 0.59245 0.0
C790 C 0.15199 0.51882 0.60852 0.0
C791 C 0.17526 0.53925 0.63356 0.0
C792 C 0.14027 0.58203 0.61765 0.0
C793 C 0.16922 0.57062 0.63916 0.0
C794 C 0.12273 0.53037 0.59153 0.0
C795 C 0.02638 0.47894 0.58682 0.0
C796 C 0.0859 0.57293 0.571 0.0
C797 C 0.96041 0.63007 0.45564 0.0
C798 C 0.95948 0.60575 0.39948 0.0
C799 C 0.07211 0.51102 0.76432 0.0
C800 C 0.91918 0.48645 0.82637 0.0
C801 C 0.88311 0.52759 0.79558 0.0
C802 C 0.85885 0.50797 0.81887 0.0
C803 C 0.89476 0.46722 0.84761 0.0
C804 C 0.91314 0.51597 0.79669 0.0
C805 C 0.86465 0.47786 0.84262 0.0
C806 C 1.01274 0.56232 0.81172 0.0
C807 C 0.951 0.47677 0.84087 0.0
H808 H 0.19836 0.53128 0.6454 0.0
H809 H 0.13613 0.60639 0.62079 0.0
H810 H 0.1873 0.58624 0.65805 0.0
H811 H 0.10461 0.51447 0.57479 0.0
H812 H 0.83548 0.51607 0.82298 0.0
H813 H 0.89903 0.44434 0.87 0.0
H814 H 0.93214 0.53043 0.77861 0.0
H815 H 0.84581 0.46316 0.86079 0.0
C816 C 0.11294 0.05654 0.41662 0.0
C817 C 0.13767 0.03577 0.40886 0.0
C818 C 0.08852 0.05192 0.4728 0.0
C819 C 0.08739 0.02638 0.52564 0.0
H820 H 0.11273 0.0771 0.37974 0.0
H821 H 0.07078 0.06913 0.47631 0.0
S822 S 0.14587 0.96442 0.52971 0.0
N823 N 0.15873 0.9881 0.4588 0.0
N824 N 0.11346 0.97928 0.56331 0.0
C825 C 0.11157 1.00495 0.51689 0.0
C826 C 0.13636 1.00962 0.45914 0.0
C827 C 0.51112 0.15897 0.51126 0.0
C828 C 0.51224 0.15554 0.42473 0.0
C829 C 0.51536 0.13413 0.5659 0.0
C830 C 0.52076 0.10399 0.53794 0.0
H831 H 0.50642 0.18124 0.53747 0.0
H832 H 0.51366 0.13868 0.63116 0.0
S833 S 0.52613 0.08198 0.31697 0.0
N834 N 0.51962 0.11913 0.31403 0.0
N835 N 0.5273 0.07273 0.4153 0.0
C836 C 0.52236 0.10025 0.45134 0.0
C837 C 0.5183 0.12577 0.39552 0.0
C838 C 0.43804 0.47822 0.37549 0.0
C839 C 0.41081 0.49586 0.3704 0.0
C840 C 0.46195 0.48476 0.4324 0.0
C841 C 0.46055 0.50965 0.48768 0.0
H842 H 0.44043 0.45811 0.33708 0.0
H843 H 0.48136 0.46939 0.43444 0.0
S844 S 0.3964 0.56572 0.49421 0.0
N845 N 0.38535 0.54098 0.42296 0.0
N846 N 0.43042 0.55415 0.52659 0.0
C847 C 0.43447 0.52884 0.47941 0.0
C848 C 0.40981 0.52184 0.42189 0.0
C849 C 0.06745 0.43234 0.41685 0.0
C850 C 0.04766 0.40721 0.39802 0.0
C851 C 0.06042 0.45481 0.47668 0.0
C852 C 0.03241 0.45491 0.51971 0.0
H853 H 0.08922 0.43488 0.38588 0.0
H854 H 0.07738 0.47238 0.48933 0.0
S855 S 0.9683 0.39997 0.47974 0.0
N856 N 0.99645 0.38689 0.42198 0.0
N857 N 0.98183 0.43106 0.52519 0.0
C858 C 1.01088 0.43204 0.49543 0.0
C859 C 0.01866 0.40809 0.43694 0.0
C860 C 0.90052 1.01357 0.93719 0.0
C861 C 0.90141 0.9876 0.98833 0.0
C862 C 0.92434 0.0202 0.88005 0.0
C863 C 0.95013 1.00086 0.86863 0.0
H864 H 0.88073 0.02845 0.93924 0.0
H865 H 0.92219 0.04072 0.84407 0.0
S866 S 0.96617 0.93213 0.99519 0.0
N867 N 0.93321 0.94482 0.03125 0.0
N868 N 0.97549 0.95535 0.91967 0.0
C869 C 0.95166 0.9753 0.92127 0.0
C870 C 0.92817 0.96927 0.98173 0.0
C871 C 0.56081 0.91555 0.92333 0.0
C872 C 0.53917 0.90639 0.98412 0.0
C873 C 0.55648 0.94092 0.87111 0.0
C874 C 0.53121 0.96046 0.8787 0.0
H875 H 0.5818 0.90292 0.91452 0.0
H876 H 0.57347 0.94536 0.82415 0.0
S877 S 0.46803 0.95026 0.02898 0.0
N878 N 0.49089 0.92099 0.0478 0.0
N879 N 0.48432 0.96997 0.95431 0.0
C880 C 0.50995 0.95312 0.94124 0.0
C881 C 0.51366 0.92621 0.99292 0.0
C882 C 0.62367 0.5249 0.97089 0.0
C883 C 0.65074 0.53986 0.9445 0.0
C884 C 0.59806 0.51996 0.91729 0.0
C885 C 0.59747 0.53061 0.83507 0.0
H886 H 0.62202 0.51717 0.03386 0.0
H887 H 0.57886 0.5071 0.94056 0.0
S888 S 0.66426 0.56552 0.72902 0.0
N889 N 0.67657 0.56056 0.82406 0.0
N890 N 0.6286 0.55256 0.72722 0.0
C891 C 0.62507 0.54361 0.80651 0.0
C892 C 0.65132 0.54818 0.86006 0.0
C893 C 0.97469 0.60783 0.98925 0.0
C894 C 0.9937 0.63397 1.0021 0.0
C895 C 0.98139 0.58487 0.93025 0.0
C896 C 1.00773 0.58613 0.88007 0.0
H897 H 0.95368 0.60528 1.02393 0.0
H898 H 0.96528 0.56612 0.92315 0.0
S899 S 0.06875 0.6459 0.89877 0.0
N900 N 0.04226 0.65731 0.96427 0.0
N901 N 0.05582 0.6136 0.85842 0.0
C902 C 0.02841 0.61063 0.89713 0.0
C903 C 0.02125 0.63444 0.95651 0.0
C904 C 0.11708 0.16911 0.62 0.0
C905 C 0.1179 0.19967 0.59303 0.0
C906 C 0.09105 0.15727 0.65936 0.0
C907 C 0.0652 0.17571 0.67425 0.0
H908 H 0.13499 0.15336 0.60219 0.0
H909 H 0.08993 0.13288 0.67042 0.0
S910 S 0.06097 0.25966 0.64897 0.0
N911 N 0.09447 0.25002 0.61022 0.0
N912 N 0.04565 0.22745 0.68161 0.0
C913 C 0.06827 0.20727 0.66304 0.0
C914 C 0.09479 0.21941 0.62341 0.0
C915 C 0.37183 0.1505 0.52459 0.0
C916 C 0.33972 0.15418 0.52755 0.0
C917 C 0.38577 0.12451 0.55769 0.0
C918 C 0.36855 0.10255 0.60147 0.0
H919 H 0.38571 0.16529 0.4864 0.0
H920 H 0.40943 0.12055 0.54104 0.0
S921 S 0.28814 0.11232 0.67098 0.0
N922 N 0.29374 0.1403 0.60496 0.0
N923 N 0.32113 0.09405 0.67678 0.0
C924 C 0.33843 0.11062 0.62351 0.0
C925 C 0.32374 0.13611 0.58545 0.0
C926 C 0.42032 0.39362 0.54478 0.0
C927 C 0.41085 0.3629 0.55241 0.0
C928 C 0.45072 0.40202 0.56283 0.0
C929 C 0.47133 0.38083 0.59779 0.0
H930 H 0.40635 0.40969 0.51084 0.0
H931 H 0.4585 0.42397 0.54055 0.0
S932 S 0.4489 0.3069 0.69081 0.0
N933 N 0.41863 0.31731 0.63639 0.0
N934 N 0.47438 0.33461 0.67989 0.0
C935 C 0.45853 0.35399 0.63045 0.0
C936 C 0.42818 0.34481 0.6074 0.0
C937 C 0.15672 0.44683 0.48089 0.0
C938 C 0.17874 0.42908 0.52253 0.0
C939 C 0.14728 0.47494 0.5117 0.0
C940 C 0.15874 0.48651 0.5866 0.0
H941 H 0.14905 0.44091 0.41945 0.0
H942 H 0.13266 0.48873 0.47275 0.0
S943 S 0.21007 0.44549 0.73085 0.0
N944 N 0.20685 0.42229 0.6509 0.0
N945 N 0.18883 0.47562 0.70914 0.0
C946 C 0.17793 0.46759 0.63372 0.0
C947 C 0.1877 0.43868 0.60204 0.0
C948 C 0.95673 0.87553 0.76914 0.0
C949 C 0.95486 0.84545 0.79923 0.0
C950 C 0.98472 0.88768 0.74175 0.0
C951 C 1.01187 0.8702 0.74335 0.0
H952 H 0.93728 0.89073 0.7746 0.0
H953 H 0.98564 0.91173 0.72655 0.0
S954 S 0.01752 0.78772 0.79215 0.0
N955 N 0.98133 0.79646 0.8089 0.0
N956 N 0.03366 0.81963 0.76025 0.0
C957 C 1.00926 0.83893 0.76061 0.0
C958 C 0.98074 0.82644 0.78762 0.0
C959 C 0.65466 0.90756 0.9436 0.0
C960 C 0.65378 0.8907 1.01744 0.0
C961 C 0.64104 0.93638 0.93808 0.0
C962 C 0.62364 0.94829 1.00334 0.0
H963 H 0.66887 0.90038 0.89285 0.0
H964 H 0.64615 0.95007 0.88455 0.0
S965 S 0.598 0.90526 0.18665 0.0
N966 N 0.62333 0.88281 0.1421 0.0
N967 N 0.59586 0.93579 0.12791 0.0
C968 C 0.61635 0.92852 0.0682 0.0
C969 C 0.63125 0.89965 0.07542 0.0
C970 C 0.56436 0.709 0.72871 0.0
C971 C 0.58859 0.68979 0.75385 0.0
C972 C 0.53458 0.69734 0.71669 0.0
C973 C 0.52801 0.66629 0.731 0.0
H974 H 0.56716 0.7336 0.72959 0.0
H975 H 0.51616 0.71329 0.70478 0.0
S976 S 0.58615 0.60639 0.77392 0.0
N977 N 0.60646 0.63794 0.76492 0.0
N978 N 0.55022 0.61613 0.75792 0.0
C979 C 0.55326 0.64646 0.74272 0.0
C980 C 0.58376 0.65827 0.74855 0.0
C981 C 0.8912 0.61302 0.8285 0.0
C982 C 0.86053 0.62266 0.81887 0.0
C983 C 0.89921 0.58246 0.81573 0.0
C984 C 0.87778 0.56109 0.78438 0.0
H985 H 0.90813 0.62788 0.85713 0.0
H986 H 0.92162 0.57543 0.8368 0.0
S987 S 0.80111 0.57985 0.69879 0.0
N988 N 0.81265 0.61154 0.74504 0.0
N989 N 0.82938 0.55528 0.7108 0.0
C990 C 0.84987 0.57258 0.75406 0.0
C991 C 0.84101 0.6033 0.7719 0.0
C992 C 0.06032 0.14193 0.89307 0.0
C993 C 0.03612 0.15495 0.93917 0.0
C994 C 0.05601 0.11578 0.84212 0.0
C995 C 0.02742 0.10047 0.83544 0.0
H996 H 0.08301 0.15213 0.89635 0.0
H997 H 0.07543 0.10752 0.80742 0.0
S998 S 0.95656 0.12401 0.94537 0.0
N999 N 0.98232 0.14975 0.97461 0.0
N1000 N 0.97445 0.10061 0.88192 0.0
C1001 C 1.00304 0.11315 0.88152 0.0
C1002 C 1.00731 0.14016 0.93235 0.0
C1003 C 0.41437 0.06689 0.95872 0.0
C1004 C 0.38711 0.04953 0.94734 0.0
C1005 C 0.44126 0.06196 0.91241 0.0
C1006 C 0.44346 0.03862 0.85269 0.0
H1007 H 0.41476 0.08551 1.00278 0.0
H1008 H 0.46033 0.07738 0.92282 0.0
S1009 S 0.37971 0.98463 0.80084 0.0
N1010 N 0.36466 1.00692 0.87214 0.0
N1011 N 0.41538 0.99669 0.78771 0.0
C1012 C 0.41682 0.02002 0.84269 0.0
C1013 C 0.38891 0.02551 0.88939 0.0
C1014 C 0.48083 0.39478 0.83489 0.0
C1015 C 0.49982 0.38639 0.90239 0.0
C1016 C 0.48754 0.42003 0.7835 0.0
C1017 C 0.51415 0.43805 0.79439 0.0
H1018 H 0.45974 0.38228 0.823 0.0
H1019 H 0.4714 0.42571 0.73513 0.0
S1020 S 0.57232 0.42652 0.95915 0.0
N1021 N 0.54689 0.39907 0.97571 0.0
N1022 N 0.56015 0.44519 0.87719 0.0
C1023 C 0.53411 0.42932 0.85897 0.0
C1024 C 0.52691 0.40392 0.91286 0.0
C1025 C 0.14524 0.52588 0.89828 0.0
C1026 C 0.15756 0.49644 0.91203 0.0
C1027 C 0.1184 0.53053 0.84926 0.0
C1028 C 0.1023 0.50604 0.81096 0.0
H1029 H 0.15578 0.54548 0.92805 0.0
H1030 H 0.10968 0.55356 0.84339 0.0
S1031 S 0.12763 0.42509 0.81446 0.0
N1032 N 0.1528 0.44281 0.87428 0.0
N1033 N 0.10356 0.45161 0.78268 0.0
C1034 C 0.11533 0.47679 0.82064 0.0
C1035 C 0.14243 0.47202 0.87075 0.0
C1036 C 0.97457 0.90406 0.49414 0.0
C1037 C 0.99965 0.88601 0.4675 0.0
C1038 C 0.97837 0.93034 0.5451 0.0
C1039 C 1.00753 0.9404 0.57334 0.0
H1040 H 0.9515 0.89796 0.47475 0.0
H1041 H 0.95806 0.94299 0.56233 0.0
S1042 S 0.08136 0.90403 0.51426 0.0
N1043 N 0.05516 0.88206 0.46977 0.0
N1044 N 0.06232 0.93068 0.56468 0.0
C1045 C 0.03286 0.92271 0.54684 0.0
C1046 C 0.02895 0.89591 0.49469 0.0
C1047 C 0.6455 0.03658 0.48072 0.0
C1048 C 0.66219 1.009 0.48851 0.0
C1049 C 0.61856 0.04251 0.52788 0.0
C1050 C 0.6066 0.02098 0.58432 0.0
H1051 H 0.65262 0.05328 0.43562 0.0
H1052 H 0.60633 0.06368 0.51776 0.0
S1053 S 0.64335 0.9474 0.6382 0.0
N1054 N 0.66602 0.96181 0.56689 0.0
N1055 N 0.61534 0.97229 0.65014 0.0
C1056 C 0.62361 0.99402 0.59491 0.0
C1057 C 0.65126 0.98827 0.54879 0.0
C1058 C 0.52321 0.64164 0.46357 0.0
C1059 C 0.55288 0.65396 0.44957 0.0
C1060 C 0.51836 0.61539 0.51436 0.0
C1061 C 0.54294 0.59938 0.55237 0.0
H1062 H 0.50371 0.65133 0.43157 0.0
H1063 H 0.49516 0.60668 0.52058 0.0
S1064 S 0.62476 0.6236 0.5435 0.0
N1065 N 0.60679 0.64926 0.48702 0.0
N1066 N 0.59794 0.59983 0.57591 0.0
C1067 C 0.57241 0.6122 0.54139 0.0
C1068 C 0.57724 0.63931 0.49228 0.0
C1069 C 0.90075 0.52041 0.46702 0.0
C1070 C 0.8851 0.54866 0.47107 0.0
C1071 C 0.92611 0.5136 0.52002 0.0
C1072 C 0.93772 0.53498 0.57829 0.0
H1073 H 0.89442 0.50402 0.41986 0.0
H1074 H 0.93772 0.49195 0.51226 0.0
S1075 S 0.90389 0.61118 0.61934 0.0
N1076 N 0.88167 0.5966 0.54669 0.0
N1077 N 0.93006 0.58499 0.63873 0.0
C1078 C 0.92161 0.56269 0.58478 0.0
C1079 C 0.89526 0.56912 0.53364 0.0
loop_
_geom_bond_atom_site_label_1
_geom_bond_atom_site_label_2
_geom_bond_distance
_geom_bond_site_symmetry_2
_ccdc_geom_bond_type
C0 C1 1.391 . S
C0 C4 1.391 . S
C0 H42 0.948 . S
C1 C0 1.391 . S
C1 C2 1.391 . S
C2 C1 1.391 . S
C2 H58 0.947 . S
C2 C59 1.392 . S
C3 C4 1.391 . S
C3 C7 1.397 . S
C3 C59 1.419 . S
C4 C0 1.391 . S
C4 C3 1.391 . S
C4 C5 1.399 . S
C5 C4 1.399 . S
C5 C8 1.396 . S
C5 C17 1.453 . S
C5 C18 1.684 . S
H6 C30 0.948 . S
C7 C3 1.397 . S
C7 C8 1.394 . S
C7 C26 1.723 . S
C8 C5 1.396 . S
C8 C7 1.394 . S
C8 C38 1.723 . S
H9 C32 0.947 . S
H10 C33 0.948 . S
H11 C39 0.982 . S
H12 C40 0.979 . S
H13 C40 0.980 . S
H14 C40 0.983 . S
H15 C39 0.979 . S
H16 C39 0.977 . S
C17 C5 1.453 . S
C17 H46 0.982 . S
C17 H47 0.979 . S
C17 H48 0.977 . S
C18 C5 1.684 . S
C18 H43 0.979 . S
C18 H44 0.980 . S
C18 H45 0.983 . S
C19 C20 1.391 . S
C19 C24 1.391 . S
C19 H49 0.948 . S
C20 C19 1.391 . S
C20 C21 1.391 . S
C21 C20 1.391 . S
C21 C22 1.392 . S
C21 H50 0.947 1_554 S
C22 C21 1.392 . S
C22 C23 1.419 . S
C22 H51 0.948 . S
C23 C22 1.419 . S
C23 C24 1.391 . S
C23 C27 1.397 . S
C24 C19 1.391 . S
C24 C23 1.391 . S
C24 C25 1.399 . S
C25 C24 1.399 . S
C25 C26 1.396 . S
C25 C28 1.453 . S
C25 C29 1.684 . S
C26 C7 1.723 . S
C26 C25 1.396 . S
C26 C27 1.394 . S
C27 C23 1.397 . S
C27 C26 1.394 . S
C27 C37 1.723 . S
C28 C25 1.453 . S
C28 H52 0.982 . S
C28 H53 0.979 . S
C28 H54 0.977 . S
C29 C25 1.684 . S
C29 H55 0.979 . S
C29 H56 0.980 . S
C29 H57 0.983 . S
C30 H6 0.948 . S
C30 C31 1.391 . S
C30 C35 1.391 . S
C31 C30 1.391 . S
C31 C32 1.391 . S
C32 H9 0.947 . S
C32 C31 1.391 . S
C32 C33 1.392 . S
C33 H10 0.948 . S
C33 C32 1.392 . S
C33 C34 1.419 . S
C34 C33 1.419 . S
C34 C35 1.391 . S
C34 C38 1.397 . S
C35 C30 1.391 . S
C35 C34 1.391 . S
C35 C36 1.399 . S
C36 C35 1.399 . S
C36 C37 1.396 . S
C36 C39 1.453 . S
C36 C40 1.684 . S
C37 C27 1.723 . S
C37 C36 1.396 . S
C37 C38 1.394 . S
C38 C8 1.723 . S
C38 C34 1.397 . S
C38 C37 1.394 . S
C39 H11 0.982 . S
C39 H15 0.979 . S
C39 H16 0.977 . S
C39 C36 1.453 . S
C40 H12 0.979 . S
C40 H13 0.980 . S
C40 H14 0.983 . S
C40 C36 1.684 . S
H41 C59 0.948 . S
H42 C0 0.948 . S
H43 C18 0.979 . S
H44 C18 0.980 . S
H45 C18 0.983 . S
H46 C17 0.982 . S
H47 C17 0.979 . S
H48 C17 0.977 . S
H49 C19 0.948 . S
H50 C21 0.947 1_556 S
H51 C22 0.948 . S
H52 C28 0.982 . S
H53 C28 0.979 . S
H54 C28 0.977 . S
H55 C29 0.979 . S
H56 C29 0.980 . S
H57 C29 0.983 . S
H58 C2 0.947 . S
C59 C2 1.392 . S
C59 C3 1.419 . S
C59 H41 0.948 . S
C60 C61 1.391 . S
C60 C64 1.391 . S
C60 H102 0.948 . S
C61 C60 1.391 . S
C61 C62 1.391 . S
C62 C61 1.391 . S
C62 H118 0.947 . S
C62 C119 1.392 . S
C63 C64 1.391 . S
C63 C67 1.397 . S
C63 C119 1.419 . S
C64 C60 1.391 . S
C64 C63 1.391 . S
C64 C65 1.399 . S
C65 C64 1.399 . S
C65 C68 1.396 . S
C65 C77 1.453 . S
C65 C78 1.684 . S
H66 C90 0.948 . S
C67 C63 1.397 . S
C67 C68 1.394 . S
C67 C86 1.723 . S
C68 C65 1.396 . S
C68 C67 1.394 . S
C68 C98 1.723 . S
H69 C92 0.947 . S
H70 C93 0.948 . S
H71 C99 0.982 1_455 S
H72 C100 0.979 . S
H73 C100 0.980 . S
H74 C100 0.983 . S
H75 C99 0.979 . S
H76 C99 0.977 . S
C77 C65 1.453 . S
C77 H106 0.982 1_655 S
C77 H107 0.979 . S
C77 H108 0.977 . S
C78 C65 1.684 . S
C78 H103 0.979 . S
C78 H104 0.980 . S
C78 H105 0.983 . S
C79 C80 1.391 . S
C79 C84 1.391 . S
C79 H109 0.948 . S
C80 C79 1.391 . S
C80 C81 1.391 . S
C81 C80 1.391 . S
C81 C82 1.392 . S
C81 H110 0.947 . S
C82 C81 1.392 . S
C82 C83 1.419 . S
C82 H111 0.948 . S
C83 C82 1.419 . S
C83 C84 1.391 . S
C83 C87 1.397 . S
C84 C79 1.391 . S
C84 C83 1.391 . S
C84 C85 1.399 . S
C85 C84 1.399 . S
C85 C86 1.396 . S
C85 C88 1.453 . S
C85 C89 1.684 . S
C86 C67 1.723 . S
C86 C85 1.396 . S
C86 C87 1.394 . S
C87 C83 1.397 . S
C87 C86 1.394 . S
C87 C97 1.723 . S
C88 C85 1.453 . S
C88 H112 0.982 1_655 S
C88 H113 0.979 . S
C88 H114 0.977 . S
C89 C85 1.684 . S
C89 H115 0.979 . S
C89 H116 0.980 . S
C89 H117 0.983 . S
C90 H66 0.948 . S
C90 C91 1.391 . S
C90 C95 1.391 . S
C91 C90 1.391 . S
C91 C92 1.391 . S
C92 H69 0.947 . S
C92 C91 1.391 . S
C92 C93 1.392 . S
C93 H70 0.948 . S
C93 C92 1.392 . S
C93 C94 1.419 . S
C94 C93 1.419 . S
C94 C95 1.391 . S
C94 C98 1.397 . S
C95 C90 1.391 . S
C95 C94 1.391 . S
C95 C96 1.399 . S
C96 C95 1.399 . S
C96 C97 1.396 . S
C96 C99 1.453 . S
C96 C100 1.684 . S
C97 C87 1.723 . S
C97 C96 1.396 . S
C97 C98 1.394 . S
C98 C68 1.723 . S
C98 C94 1.397 . S
C98 C97 1.394 . S
C99 H71 0.982 1_655 S
C99 H75 0.979 . S
C99 H76 0.977 . S
C99 C96 1.453 . S
C100 H72 0.979 . S
C100 H73 0.980 . S
C100 H74 0.983 . S
C100 C96 1.684 . S
H101 C119 0.948 . S
H102 C60 0.948 . S
H103 C78 0.979 . S
H104 C78 0.980 . S
H105 C78 0.983 . S
H106 C77 0.982 1_455 S
H107 C77 0.979 . S
H108 C77 0.977 . S
H109 C79 0.948 . S
H110 C81 0.947 . S
H111 C82 0.948 . S
H112 C88 0.982 1_455 S
H113 C88 0.979 . S
H114 C88 0.977 . S
H115 C89 0.979 . S
H116 C89 0.980 . S
H117 C89 0.983 . S
H118 C62 0.947 . S
C119 C62 1.392 . S
C119 C63 1.419 . S
C119 H101 0.948 . S
C120 C121 1.391 . S
C120 C124 1.391 . S
C120 H162 0.948 . S
C121 C120 1.391 . S
C121 C122 1.391 . S
C122 C121 1.391 . S
C122 H178 0.947 . S
C122 C179 1.392 . S
C123 C124 1.391 . S
C123 C127 1.397 . S
C123 C179 1.419 . S
C124 C120 1.391 . S
C124 C123 1.391 . S
C124 C125 1.399 . S
C125 C124 1.399 . S
C125 C128 1.396 . S
C125 C137 1.453 . S
C125 C138 1.684 . S
H126 C150 0.948 . S
C127 C123 1.397 . S
C127 C128 1.394 . S
C127 C146 1.723 . S
C128 C125 1.396 . S
C128 C127 1.394 . S
C128 C158 1.723 . S
H129 C152 0.947 . S
H130 C153 0.948 . S
H131 C159 0.982 1_545 S
H132 C160 0.979 . S
H133 C160 0.980 . S
H134 C160 0.983 . S
H135 C159 0.979 . S
H136 C159 0.977 . S
C137 C125 1.453 . S
C137 H166 0.982 1_565 S
C137 H167 0.979 . S
C137 H168 0.977 . S
C138 C125 1.684 . S
C138 H163 0.979 . S
C138 H164 0.980 . S
C138 H165 0.983 . S
C139 C140 1.391 . S
C139 C144 1.391 . S
C139 H169 0.948 . S
C140 C139 1.391 . S
C140 C141 1.391 . S
C141 C140 1.391 . S
C141 C142 1.392 . S
C141 H170 0.947 . S
C142 C141 1.392 . S
C142 C143 1.419 . S
C142 H171 0.948 . S
C143 C142 1.419 . S
C143 C144 1.391 . S
C143 C147 1.397 . S
C144 C139 1.391 . S
C144 C143 1.391 . S
C144 C145 1.399 . S
C145 C144 1.399 . S
C145 C146 1.396 . S
C145 C148 1.453 . S
C145 C149 1.684 . S
C146 C127 1.723 . S
C146 C145 1.396 . S
C146 C147 1.394 . S
C147 C143 1.397 . S
C147 C146 1.394 . S
C147 C157 1.723 . S
C148 C145 1.453 . S
C148 H172 0.982 1_565 S
C148 H173 0.979 . S
C148 H174 0.977 . S
C149 C145 1.684 . S
C149 H175 0.979 . S
C149 H176 0.980 . S
C149 H177 0.983 . S
C150 H126 0.948 . S
C150 C151 1.391 . S
C150 C155 1.391 . S
C151 C150 1.391 . S
C151 C152 1.391 . S
C152 H129 0.947 . S
C152 C151 1.391 . S
C152 C153 1.392 . S
C153 H130 0.948 . S
C153 C152 1.392 . S
C153 C154 1.419 . S
C154 C153 1.419 . S
C154 C155 1.391 . S
C154 C158 1.397 . S
C155 C150 1.391 . S
C155 C154 1.391 . S
C155 C156 1.399 . S
C156 C155 1.399 . S
C156 C157 1.396 . S
C156 C159 1.453 . S
C156 C160 1.684 . S
C157 C147 1.723 . S
C157 C156 1.396 . S
C157 C158 1.394 . S
C158 C128 1.723 . S
C158 C154 1.397 . S
C158 C157 1.394 . S
C159 H131 0.982 1_565 S
C159 H135 0.979 . S
C159 H136 0.977 . S
C159 C156 1.453 . S
C160 H132 0.979 . S
C160 H133 0.980 . S
C160 H134 0.983 . S
C160 C156 1.684 . S
H161 C179 0.948 . S
H162 C120 0.948 . S
H163 C138 0.979 . S
H164 C138 0.980 . S
H165 C138 0.983 . S
H166 C137 0.982 1_545 S
H167 C137 0.979 . S
H168 C137 0.977 . S
H169 C139 0.948 . S
H170 C141 0.947 . S
H171 C142 0.948 . S
H172 C148 0.982 1_545 S
H173 C148 0.979 . S
H174 C148 0.977 . S
H175 C149 0.979 . S
H176 C149 0.980 . S
H177 C149 0.983 . S
H178 C122 0.947 . S
C179 C122 1.392 . S
C179 C123 1.419 . S
C179 H161 0.948 . S
C180 C181 1.391 . S
C180 C184 1.391 . S
C180 H222 0.948 . S
C181 C180 1.391 . S
C181 C182 1.391 . S
C182 C181 1.391 . S
C182 H238 0.947 . S
C182 C239 1.392 . S
C183 C184 1.391 . S
C183 C187 1.397 . S
C183 C239 1.419 . S
C184 C180 1.391 . S
C184 C183 1.391 . S
C184 C185 1.399 . S
C185 C184 1.399 . S
C185 C188 1.396 . S
C185 C197 1.453 . S
C185 C198 1.684 . S
H186 C210 0.948 . S
C187 C183 1.397 . S
C187 C188 1.394 . S
C187 C206 1.723 . S
C188 C185 1.396 . S
C188 C187 1.394 . S
C188 C218 1.723 . S
H189 C212 0.947 . S
H190 C213 0.948 . S
H191 C219 0.982 . S
H192 C220 0.979 . S
H193 C220 0.980 . S
H194 C220 0.983 . S
H195 C219 0.979 . S
H196 C219 0.977 . S
C197 C185 1.453 . S
C197 H226 0.982 . S
C197 H227 0.979 . S
C197 H228 0.977 . S
C198 C185 1.684 . S
C198 H223 0.979 . S
C198 H224 0.980 . S
C198 H225 0.983 . S
C199 C200 1.391 . S
C199 C204 1.391 . S
C199 H229 0.948 . S
C200 C199 1.391 . S
C200 C201 1.391 . S
C201 C200 1.391 . S
C201 C202 1.392 . S
C201 H230 0.947 1_554 S
C202 C201 1.392 . S
C202 C203 1.419 . S
C202 H231 0.948 . S
C203 C202 1.419 . S
C203 C204 1.391 . S
C203 C207 1.397 . S
C204 C199 1.391 . S
C204 C203 1.391 . S
C204 C205 1.399 . S
C205 C204 1.399 . S
C205 C206 1.396 . S
C205 C208 1.453 . S
C205 C209 1.684 . S
C206 C187 1.723 . S
C206 C205 1.396 . S
C206 C207 1.394 . S
C207 C203 1.397 . S
C207 C206 1.394 . S
C207 C217 1.723 . S
C208 C205 1.453 . S
C208 H232 0.982 . S
C208 H233 0.979 . S
C208 H234 0.977 . S
C209 C205 1.684 . S
C209 H235 0.979 . S
C209 H236 0.980 . S
C209 H237 0.983 . S
C210 H186 0.948 . S
C210 C211 1.391 . S
C210 C215 1.391 . S
C211 C210 1.391 . S
C211 C212 1.391 . S
C212 H189 0.947 . S
C212 C211 1.391 . S
C212 C213 1.392 . S
C213 H190 0.948 . S
C213 C212 1.392 . S
C213 C214 1.419 . S
C214 C213 1.419 . S
C214 C215 1.391 . S
C214 C218 1.397 . S
C215 C210 1.391 . S
C215 C214 1.391 . S
C215 C216 1.399 . S
C216 C215 1.399 . S
C216 C217 1.396 . S
C216 C219 1.453 . S
C216 C220 1.684 . S
C217 C207 1.723 . S
C217 C216 1.396 . S
C217 C218 1.394 . S
C218 C188 1.723 . S
C218 C214 1.397 . S
C218 C217 1.394 . S
C219 H191 0.982 . S
C219 H195 0.979 . S
C219 H196 0.977 . S
C219 C216 1.453 . S
C220 H192 0.979 . S
C220 H193 0.980 . S
C220 H194 0.983 . S
C220 C216 1.684 . S
H221 C239 0.948 . S
H222 C180 0.948 . S
H223 C198 0.979 . S
H224 C198 0.980 . S
H225 C198 0.983 . S
H226 C197 0.982 . S
H227 C197 0.979 . S
H228 C197 0.977 . S
H229 C199 0.948 . S
H230 C201 0.947 1_556 S
H231 C202 0.948 . S
H232 C208 0.982 . S
H233 C208 0.979 . S
H234 C208 0.977 . S
H235 C209 0.979 . S
H236 C209 0.980 . S
H237 C209 0.983 . S
H238 C182 0.947 . S
C239 C182 1.392 . S
C239 C183 1.419 . S
C239 H221 0.948 . S
C240 C241 1.391 . S
C240 C244 1.391 . S
C240 H282 0.948 . S
C241 C240 1.391 . S
C241 C242 1.391 . S
C242 C241 1.391 . S
C242 H298 0.947 . S
C242 C299 1.392 . S
C243 C244 1.391 . S
C243 C247 1.397 . S
C243 C299 1.419 . S
C244 C240 1.391 . S
C244 C243 1.391 . S
C244 C245 1.399 1_554 S
C245 C244 1.399 1_556 S
C245 C248 1.396 . S
C245 C257 1.453 . S
C245 C258 1.684 . S
H246 C270 0.948 . S
C247 C243 1.397 . S
C247 C248 1.394 1_554 S
C247 C266 1.723 . S
C248 C245 1.396 . S
C248 C247 1.394 1_556 S
C248 C278 1.723 . S
H249 C272 0.947 . S
H250 C273 0.948 . S
H251 C279 0.982 . S
H252 C280 0.979 . S
H253 C280 0.980 . S
H254 C280 0.983 . S
H255 C279 0.979 . S
H256 C279 0.966 1_554 S
C257 C245 1.453 . S
C257 H286 0.982 . S
C257 H287 0.979 . S
C257 H288 0.977 . S
C258 C245 1.684 . S
C258 H283 0.979 . S
C258 H284 0.980 . S
C258 H285 0.983 . S
C259 C260 1.391 . S
C259 C264 1.391 . S
C259 H289 0.948 . S
C260 C259 1.391 . S
C260 C261 1.391 . S
C261 C260 1.391 . S
C261 C262 1.392 . S
C261 H290 0.947 . S
C262 C261 1.392 . S
C262 C263 1.419 . S
C262 H291 0.948 . S
C263 C262 1.419 . S
C263 C264 1.391 . S
C263 C267 1.397 . S
C264 C259 1.391 . S
C264 C263 1.391 . S
C264 C265 1.399 . S
C265 C264 1.399 . S
C265 C266 1.396 . S
C265 C268 1.453 . S
C265 C269 1.684 . S
C266 C247 1.723 . S
C266 C265 1.396 . S
C266 C267 1.394 . S
C267 C263 1.397 . S
C267 C266 1.394 . S
C267 C277 1.723 1_554 S
C268 C265 1.453 . S
C268 H292 0.982 . S
C268 H293 0.979 . S
C268 H294 0.977 . S
C269 C265 1.684 . S
C269 H295 0.979 . S
C269 H296 0.980 . S
C269 H297 0.983 . S
C270 H246 0.948 . S
C270 C271 1.391 . S
C270 C275 1.391 . S
C271 C270 1.391 . S
C271 C272 1.391 . S
C272 H249 0.947 . S
C272 C271 1.391 . S
C272 C273 1.392 . S
C273 H250 0.948 . S
C273 C272 1.392 . S
C273 C274 1.419 . S
C274 C273 1.419 . S
C274 C275 1.391 . S
C274 C278 1.397 . S
C275 C270 1.391 . S
C275 C274 1.391 . S
C275 C276 1.399 . S
C276 C275 1.399 . S
C276 C277 1.396 . S
C276 C279 1.453 . S
C276 C280 1.684 . S
C277 C267 1.723 1_556 S
C277 C276 1.396 . S
C277 C278 1.394 . S
C278 C248 1.723 . S
C278 C274 1.397 . S
C278 C277 1.394 . S
C279 H251 0.982 . S
C279 H255 0.979 . S
C279 H256 0.966 1_556 S
C279 C276 1.453 . S
C280 H252 0.979 . S
C280 H253 0.980 . S
C280 H254 0.983 . S
C280 C276 1.684 . S
H281 C299 0.948 . S
H282 C240 0.948 . S
H283 C258 0.979 . S
H284 C258 0.980 . S
H285 C258 0.983 . S
H286 C257 0.982 . S
H287 C257 0.979 . S
H288 C257 0.977 . S
H289 C259 0.948 . S
H290 C261 0.947 . S
H291 C262 0.948 . S
H292 C268 0.982 . S
H293 C268 0.979 . S
H294 C268 0.977 . S
H295 C269 0.979 . S
H296 C269 0.980 . S
H297 C269 0.983 . S
H298 C242 0.947 . S
C299 C242 1.392 . S
C299 C243 1.419 . S
C299 H281 0.948 . S
C300 C301 1.391 . S
C300 C304 1.391 . S
C300 H342 0.948 . S
C301 C300 1.391 . S
C301 C302 1.391 . S
C302 C301 1.391 . S
C302 H358 0.947 . S
C302 C359 1.392 . S
C303 C304 1.391 . S
C303 C307 1.397 . S
C303 C359 1.419 . S
C304 C300 1.391 . S
C304 C303 1.391 . S
C304 C305 1.399 . S
C305 C304 1.399 . S
C305 C308 1.396 . S
C305 C317 1.453 . S
C305 C318 1.684 . S
H306 C330 0.948 . S
C307 C303 1.397 . S
C307 C308 1.394 . S
C307 C326 1.723 1_554 S
C308 C305 1.396 . S
C308 C307 1.394 . S
C308 C338 1.723 . S
H309 C332 0.947 . S
H310 C333 0.948 . S
H311 C339 0.982 . S
H312 C340 0.979 1_655 S
H313 C340 0.980 . S
H314 C340 0.983 . S
H315 C339 0.979 . S
H316 C339 0.977 . S
C317 C305 1.453 . S
C317 H346 0.982 . S
C317 H347 0.979 . S
C317 H348 0.977 . S
C318 C305 1.684 . S
C318 H343 0.979 1_455 S
C318 H344 0.980 . S
C318 H345 0.983 . S
C319 C320 1.391 . S
C319 C324 1.391 . S
C319 H349 0.948 . S
C320 C319 1.391 . S
C320 C321 1.391 . S
C321 C320 1.391 . S
C321 C322 1.392 . S
C321 H350 0.947 . S
C322 C321 1.392 . S
C322 C323 1.419 . S
C322 H351 0.948 . S
C323 C322 1.419 . S
C323 C324 1.391 . S
C323 C327 1.397 . S
C324 C319 1.391 . S
C324 C323 1.391 . S
C324 C325 1.399 . S
C325 C324 1.399 . S
C325 C326 1.396 . S
C325 C328 1.453 . S
C325 C329 1.684 . S
C326 C307 1.723 1_556 S
C326 C325 1.396 . S
C326 C327 1.394 . S
C327 C323 1.397 . S
C327 C326 1.394 . S
C327 C337 1.723 . S
C328 C325 1.453 . S
C328 H352 0.982 . S
C328 H353 0.979 . S
C328 H354 0.977 1_556 S
C329 C325 1.684 . S
C329 H355 0.979 1_455 S
C329 H356 0.982 . S
C329 H357 0.983 . S
C330 H306 0.948 . S
C330 C331 1.391 . S
C330 C335 1.391 . S
C331 C330 1.391 . S
C331 C332 1.391 . S
C332 H309 0.947 . S
C332 C331 1.391 . S
C332 C333 1.392 . S
C333 H310 0.948 . S
C333 C332 1.392 . S
C333 C334 1.419 . S
C334 C333 1.419 . S
C334 C335 1.391 . S
C334 C338 1.397 . S
C335 C330 1.391 . S
C335 C334 1.391 . S
C335 C336 1.399 1_554 S
C336 C335 1.399 1_556 S
C336 C337 1.396 . S
C336 C339 1.453 . S
C336 C340 1.684 . S
C337 C327 1.723 . S
C337 C336 1.396 . S
C337 C338 1.394 1_556 S
C338 C308 1.723 . S
C338 C334 1.397 . S
C338 C337 1.394 1_554 S
C339 H311 0.982 . S
C339 H315 0.979 . S
C339 H316 0.977 . S
C339 C336 1.453 . S
C340 H312 0.979 1_455 S
C340 H313 0.980 . S
C340 H314 0.983 . S
C340 C336 1.684 . S
H341 C359 0.948 . S
H342 C300 0.948 . S
H343 C318 0.979 1_655 S
H344 C318 0.980 . S
H345 C318 0.983 . S
H346 C317 0.982 . S
H347 C317 0.979 . S
H348 C317 0.977 . S
H349 C319 0.948 . S
H350 C321 0.947 . S
H351 C322 0.948 . S
H352 C328 0.982 . S
H353 C328 0.979 . S
H354 C328 0.977 1_554 S
H355 C329 0.979 1_655 S
H356 C329 0.982 . S
H357 C329 0.983 . S
H358 C302 0.947 . S
C359 C302 1.392 . S
C359 C303 1.419 . S
C359 H341 0.948 . S
C360 C361 1.391 . S
C360 C364 1.391 . S
C360 H402 0.948 . S
C361 C360 1.391 . S
C361 C362 1.391 . S
C362 C361 1.391 . S
C362 H418 0.947 . S
C362 C419 1.392 . S
C363 C364 1.391 . S
C363 C367 1.397 . S
C363 C419 1.419 . S
C364 C360 1.391 . S
C364 C363 1.391 . S
C364 C365 1.399 . S
C365 C364 1.399 . S
C365 C368 1.396 . S
C365 C377 1.453 . S
C365 C378 1.684 . S
H366 C390 0.948 . S
C367 C363 1.397 . S
C367 C368 1.394 . S
C367 C386 1.723 1_556 S
C368 C365 1.396 . S
C368 C367 1.394 . S
C368 C398 1.723 1_556 S
H369 C392 0.947 1_556 S
H370 C393 0.935 1_556 S
H371 C399 0.982 . S
H372 C400 0.979 . S
H373 C400 0.980 . S
H374 C400 0.983 . S
H375 C399 0.979 . S
H376 C399 0.977 . S
C377 C365 1.453 . S
C377 H406 0.982 . S
C377 H407 0.979 . S
C377 H408 0.977 . S
C378 C365 1.684 . S
C378 H403 0.979 . S
C378 H404 0.980 . S
C378 H405 0.983 . S
C379 C380 1.391 . S
C379 C384 1.391 . S
C379 H409 0.948 . S
C380 C379 1.391 . S
C380 C381 1.391 . S
C381 C380 1.391 . S
C381 C382 1.392 . S
C381 H410 0.947 . S
C382 C381 1.392 . S
C382 C383 1.419 . S
C382 H411 0.948 . S
C383 C382 1.419 . S
C383 C384 1.391 . S
C383 C387 1.397 . S
C384 C379 1.391 . S
C384 C383 1.391 . S
C384 C385 1.399 . S
C385 C384 1.399 . S
C385 C386 1.396 . S
C385 C388 1.453 . S
C385 C389 1.684 . S
C386 C367 1.723 1_554 S
C386 C385 1.396 . S
C386 C387 1.394 . S
C387 C383 1.397 . S
C387 C386 1.394 . S
C387 C397 1.723 . S
C388 C385 1.453 . S
C388 H412 0.982 . S
C388 H413 0.979 . S
C388 H414 0.977 1_554 S
C389 C385 1.684 . S
C389 H415 0.979 . S
C389 H416 0.980 1_554 S
C389 H417 0.983 . S
C390 H366 0.948 . S
C390 C391 1.391 . S
C390 C395 1.391 . S
C391 C390 1.391 . S
C391 C392 1.391 . S
C392 H369 0.947 1_554 S
C392 C391 1.391 . S
C392 C393 1.396 . S
C393 H370 0.935 1_554 S
C393 C392 1.396 . S
C393 C394 1.428 . S
C394 C393 1.428 . S
C394 C395 1.391 . S
C394 C398 1.397 . S
C395 C390 1.391 . S
C395 C394 1.391 . S
C395 C396 1.399 . S
C396 C395 1.399 . S
C396 C397 1.396 . S
C396 C399 1.453 . S
C396 C400 1.684 . S
C397 C387 1.723 . S
C397 C396 1.396 . S
C397 C398 1.394 . S
C398 C368 1.723 1_554 S
C398 C394 1.397 . S
C398 C397 1.394 . S
C399 H371 0.982 . S
C399 H375 0.979 . S
C399 H376 0.977 . S
C399 C396 1.453 . S
C400 H372 0.979 . S
C400 H373 0.980 . S
C400 H374 0.983 . S
C400 C396 1.684 . S
H401 C419 0.948 . S
H402 C360 0.948 . S
H403 C378 0.979 . S
H404 C378 0.980 . S
H405 C378 0.983 . S
H406 C377 0.982 . S
H407 C377 0.979 . S
H408 C377 0.977 . S
H409 C379 0.948 . S
H410 C381 0.947 . S
H411 C382 0.948 . S
H412 C388 0.982 . S
H413 C388 0.979 . S
H414 C388 0.977 1_556 S
H415 C389 0.979 . S
H416 C389 0.980 1_556 S
H417 C389 0.983 . S
H418 C362 0.947 . S
C419 C362 1.392 . S
C419 C363 1.419 . S
C419 H401 0.948 . S
C420 C421 1.391 . S
C420 C424 1.391 . S
C420 H462 0.948 . S
C421 C420 1.391 . S
C421 C422 1.391 . S
C422 C421 1.391 . S
C422 H478 0.947 . S
C422 C479 1.392 . S
C423 C424 1.391 . S
C423 C427 1.397 . S
C423 C479 1.419 . S
C424 C420 1.391 . S
C424 C423 1.391 . S
C424 C425 1.399 . S
C425 C424 1.399 . S
C425 C428 1.396 . S
C425 C437 1.453 . S
C425 C438 1.684 . S
H426 C450 0.948 . S
C427 C423 1.397 . S
C427 C428 1.394 . S
C427 C446 1.723 1_556 S
C428 C425 1.396 . S
C428 C427 1.394 . S
C428 C458 1.723 1_556 S
H429 C452 0.947 1_556 S
H430 C453 0.948 . S
H431 C459 0.982 . S
H432 C460 0.979 . S
H433 C460 0.980 . S
H434 C460 0.983 . S
H435 C459 0.979 . S
H436 C459 0.977 . S
C437 C425 1.453 . S
C437 H466 0.982 . S
C437 H467 0.979 . S
C437 H468 0.977 . S
C438 C425 1.684 . S
C438 H463 0.979 . S
C438 H464 0.980 . S
C438 H465 0.983 . S
C439 C440 1.391 . S
C439 C444 1.391 . S
C439 H469 0.948 . S
C440 C439 1.391 . S
C440 C441 1.391 . S
C441 C440 1.391 . S
C441 C442 1.392 . S
C441 H470 0.947 . S
C442 C441 1.392 . S
C442 C443 1.419 . S
C442 H471 0.948 . S
C443 C442 1.419 . S
C443 C444 1.391 . S
C443 C447 1.397 . S
C444 C439 1.391 . S
C444 C443 1.391 . S
C444 C445 1.399 . S
C445 C444 1.399 . S
C445 C446 1.396 . S
C445 C448 1.453 . S
C445 C449 1.684 . S
C446 C427 1.723 1_554 S
C446 C445 1.396 . S
C446 C447 1.394 . S
C447 C443 1.397 . S
C447 C446 1.394 . S
C447 C457 1.723 . S
C448 C445 1.453 . S
C448 H472 0.982 . S
C448 H473 0.979 . S
C448 H474 0.977 1_554 S
C449 C445 1.684 . S
C449 H475 0.979 . S
C449 H476 0.980 1_554 S
C449 H477 0.983 . S
C450 H426 0.948 . S
C450 C451 1.391 . S
C450 C455 1.391 . S
C451 C450 1.391 . S
C451 C452 1.391 . S
C452 H429 0.947 1_554 S
C452 C451 1.391 . S
C452 C453 1.392 1_554 S
C453 H430 0.948 . S
C453 C452 1.392 1_556 S
C453 C454 1.419 1_556 S
C454 C453 1.419 1_554 S
C454 C455 1.391 . S
C454 C458 1.397 . S
C455 C450 1.391 . S
C455 C454 1.391 . S
C455 C456 1.399 . S
C456 C455 1.399 . S
C456 C457 1.396 . S
C456 C459 1.453 . S
C456 C460 1.684 . S
C457 C447 1.723 . S
C457 C456 1.396 . S
C457 C458 1.394 . S
C458 C428 1.723 1_554 S
C458 C454 1.397 . S
C458 C457 1.394 . S
C459 H431 0.982 . S
C459 H435 0.979 . S
C459 H436 0.977 . S
C459 C456 1.453 . S
C460 H432 0.979 . S
C460 H433 0.980 . S
C460 H434 0.983 . S
C460 C456 1.684 . S
H461 C479 0.948 . S
H462 C420 0.948 . S
H463 C438 0.979 . S
H464 C438 0.980 . S
H465 C438 0.983 . S
H466 C437 0.982 . S
H467 C437 0.979 . S
H468 C437 0.977 . S
H469 C439 0.948 . S
H470 C441 0.947 . S
H471 C442 0.948 . S
H472 C448 0.982 . S
H473 C448 0.979 . S
H474 C448 0.977 1_556 S
H475 C449 0.979 . S
H476 C449 0.980 1_556 S
H477 C449 0.983 . S
H478 C422 0.947 . S
C479 C422 1.392 . S
C479 C423 1.419 . S
C479 H461 0.948 . S
Tb480 N509 2.617 . S
Tb480 N515 2.572 . S
Tb480 O524 2.465 . S
Tb480 O525 2.387 1_545 S
Tb480 O527 2.428 . S
Tb480 O528 2.308 1_655 S
Tb480 O532 2.349 1_655 S
Tb480 O535 2.393 . S
Tb480 C544 2.802 . S
C481 N482 1.379 . S
C481 C484 1.416 . S
C481 C488 1.424 . S
N482 C481 1.379 . S
N482 C485 1.334 1_545 S
N482 Tb491 2.617 1_545 S
C483 C485 1.390 1_545 S
C483 C486 1.339 . S
C483 H503 0.930 . S
C484 C481 1.416 . S
C484 C486 1.416 . S
C484 C490 1.448 . S
C485 N482 1.334 1_565 S
C485 C483 1.390 1_565 S
C485 H496 0.930 . S
C486 C483 1.339 . S
C486 C484 1.416 . S
C486 H507 0.930 . S
C487 C488 1.413 . S
C487 C489 1.427 1_556 S
C487 C493 1.416 1_556 S
C488 C481 1.424 . S
C488 C487 1.413 . S
C488 N492 1.361 . S
C489 C487 1.427 1_554 S
C489 C490 1.328 1_554 S
C489 H504 0.929 . S
C490 C484 1.448 . S
C490 C489 1.328 1_556 S
C490 H505 0.930 . S
Tb491 N482 2.617 1_565 S
Tb491 N492 2.572 1_565 S
Tb491 O526 2.349 . S
Tb491 O529 2.393 . S
Tb491 O530 2.465 . S
Tb491 O531 2.387 1_565 S
Tb491 O533 2.428 . S
Tb491 O534 2.306 1_465 S
Tb491 C555 2.802 . S
N492 C488 1.361 . S
N492 Tb491 2.572 1_545 S
N492 C494 1.340 . S
C493 C487 1.416 1_554 S
C493 C495 1.332 . S
C493 H501 0.931 . S
C494 N492 1.340 . S
C494 C495 1.407 1_556 S
C494 H500 0.930 . S
C495 C493 1.332 . S
C495 C494 1.407 1_554 S
C495 H497 0.929 . S
H496 C485 0.930 . S
H497 C495 0.929 . S
H498 C513 0.930 . S
H499 C520 0.929 1_455 S
H500 C494 0.930 . S
H501 C493 0.931 . S
H502 C516 0.930 1_455 S
H503 C483 0.930 . S
H504 C489 0.929 . S
H505 C490 0.930 . S
H506 C511 0.930 . S
H507 C486 0.930 . S
H508 C519 0.931 . S
N509 Tb480 2.617 . S
N509 C510 1.370 1_545 S
N509 C513 1.334 . S
C510 N509 1.370 1_565 S
C510 C512 1.423 . S
C510 C518 1.426 . S
C511 H506 0.930 . S
C511 C513 1.390 . S
C511 C514 1.339 1_545 S
C512 C510 1.423 . S
C512 C514 1.416 . S
C512 C545 1.448 . S
C513 H498 0.930 . S
C513 N509 1.334 . S
C513 C511 1.390 . S
C514 C511 1.339 1_565 S
C514 C512 1.416 . S
C514 H521 0.930 . S
N515 Tb480 2.572 . S
N515 C516 1.340 . S
N515 C518 1.361 1_545 S
C516 H502 0.930 1_655 S
C516 N515 1.340 . S
C516 C520 1.407 1_545 S
C517 C518 1.413 . S
C517 C519 1.416 . S
C517 C546 1.427 . S
C518 C510 1.426 . S
C518 N515 1.361 1_565 S
C518 C517 1.413 . S
C519 H508 0.931 . S
C519 C517 1.416 . S
C519 C520 1.332 . S
C520 H499 0.929 1_655 S
C520 C516 1.407 1_565 S
C520 C519 1.332 . S
H521 C514 0.930 . S
H522 C545 0.930 . S
H523 C546 0.929 . S
O524 Tb480 2.465 . S
O524 C544 1.264 . S
O525 Tb480 2.387 1_565 S
O525 C536 1.264 . S
O526 Tb491 2.349 . S
O526 C536 1.243 1_455 S
O527 Tb480 2.428 . S
O527 C544 1.256 . S
O528 Tb480 2.308 1_455 S
O528 C543 1.266 . S
O529 Tb491 2.393 . S
O529 C543 1.248 1_565 S
O530 Tb491 2.465 . S
O530 C555 1.264 . S
O531 Tb491 2.387 1_545 S
O531 C547 1.264 . S
O532 Tb480 2.349 1_455 S
O532 C547 1.243 . S
O533 Tb491 2.428 . S
O533 C555 1.256 . S
O534 Tb491 2.306 1_645 S
O534 C554 1.268 . S
O535 Tb480 2.393 . S
O535 C554 1.248 . S
C536 O525 1.264 . S
C536 O526 1.243 1_655 S
C537 C540 1.399 . S
C537 C542 1.383 . S
C537 C544 1.496 . S
C538 C539 1.399 . S
C538 C542 1.389 . S
C539 C538 1.399 . S
C539 C541 1.380 . S
C539 H556 0.929 . S
C540 C537 1.399 . S
C540 C541 1.392 . S
C540 H557 0.929 . S
C541 C539 1.380 . S
C541 C540 1.392 . S
C541 H558 0.929 . S
C542 C537 1.383 . S
C542 C538 1.389 . S
C542 H559 0.931 1_655 S
C543 O528 1.266 . S
C543 O529 1.248 1_545 S
C544 Tb480 2.802 . S
C544 O524 1.264 . S
C544 O527 1.256 . S
C544 C537 1.496 . S
C545 C512 1.448 . S
C545 H522 0.930 . S
C545 C546 1.328 . S
C546 C517 1.427 . S
C546 H523 0.929 . S
C546 C545 1.328 . S
C547 O531 1.264 . S
C547 O532 1.243 . S
C548 C551 1.399 . S
C548 C552 1.383 . S
C548 C555 1.496 . S
C549 C550 1.399 . S
C549 C552 1.389 . S
C550 C549 1.399 . S
C550 C553 1.380 . S
C550 H560 0.929 . S
C551 C548 1.399 . S
C551 C553 1.392 . S
C551 H561 0.929 . S
C552 C548 1.383 . S
C552 C549 1.389 . S
C552 H562 0.931 . S
C553 C550 1.380 . S
C553 C551 1.392 . S
C553 H563 0.929 . S
C554 O534 1.268 . S
C554 O535 1.248 . S
C555 Tb491 2.802 . S
C555 O530 1.264 . S
C555 O533 1.256 . S
C555 C548 1.496 . S
H556 C539 0.929 . S
H557 C540 0.929 . S
H558 C541 0.929 . S
H559 C542 0.931 1_455 S
H560 C550 0.929 . S
H561 C551 0.929 . S
H562 C552 0.931 . S
H563 C553 0.929 . S
Tb564 N593 2.617 . S
Tb564 N599 2.572 . S
Tb564 O608 2.465 . S
Tb564 O609 2.387 . S
Tb564 O611 2.428 . S
Tb564 O612 2.308 . S
Tb564 O616 2.349 1_545 S
Tb564 O619 2.393 . S
Tb564 C628 2.802 . S
C565 N566 1.379 . S
C565 C568 1.416 . S
C565 C572 1.424 . S
N566 C565 1.379 . S
N566 C569 1.334 . S
N566 Tb575 2.617 . S
C567 C569 1.390 . S
C567 C570 1.339 . S
C567 H587 0.930 . S
C568 C565 1.416 . S
C568 C570 1.416 . S
C568 C574 1.448 . S
C569 N566 1.334 . S
C569 C567 1.390 . S
C569 H580 0.930 . S
C570 C567 1.339 . S
C570 C568 1.416 . S
C570 H591 0.930 . S
C571 C572 1.413 . S
C571 C573 1.427 . S
C571 C577 1.416 . S
C572 C565 1.424 . S
C572 C571 1.413 . S
C572 N576 1.361 . S
C573 C571 1.427 . S
C573 C574 1.328 . S
C573 H588 0.929 . S
C574 C568 1.448 . S
C574 C573 1.328 . S
C574 H589 0.930 . S
Tb575 N566 2.617 . S
Tb575 N576 2.572 . S
Tb575 O610 2.349 1_565 S
Tb575 O613 2.393 . S
Tb575 O614 2.465 . S
Tb575 O615 2.387 . S
Tb575 O617 2.428 . S
Tb575 O618 2.308 1_565 S
Tb575 C639 2.802 . S
N576 C572 1.361 . S
N576 Tb575 2.572 . S
N576 C578 1.340 . S
C577 C571 1.416 . S
C577 C579 1.332 . S
C577 H585 0.931 . S
C578 N576 1.340 . S
C578 C579 1.407 . S
C578 H584 0.930 . S
C579 C577 1.332 . S
C579 C578 1.407 . S
C579 H581 0.929 . S
H580 C569 0.930 . S
H581 C579 0.929 . S
H582 C597 0.930 . S
H583 C604 0.929 . S
H584 C578 0.930 . S
H585 C577 0.931 . S
H586 C600 0.930 . S
H587 C567 0.930 . S
H588 C573 0.929 . S
H589 C574 0.930 . S
H590 C595 0.930 . S
H591 C570 0.930 . S
H592 C603 0.931 . S
N593 Tb564 2.617 . S
N593 C594 1.379 . S
N593 C597 1.334 . S
C594 N593 1.379 . S
C594 C596 1.416 . S
C594 C602 1.424 . S
C595 H590 0.930 . S
C595 C597 1.390 . S
C595 C598 1.339 . S
C596 C594 1.416 . S
C596 C598 1.416 . S
C596 C629 1.448 . S
C597 H582 0.930 . S
C597 N593 1.334 . S
C597 C595 1.390 . S
C598 C595 1.339 . S
C598 C596 1.416 . S
C598 H605 0.930 . S
N599 Tb564 2.572 . S
N599 C600 1.340 . S
N599 C602 1.361 . S
C600 H586 0.930 . S
C600 N599 1.340 . S
C600 C604 1.407 . S
C601 C602 1.413 . S
C601 C603 1.416 . S
C601 C630 1.427 . S
C602 C594 1.424 . S
C602 N599 1.361 . S
C602 C601 1.413 . S
C603 H592 0.931 . S
C603 C601 1.416 . S
C603 C604 1.332 . S
C604 H583 0.929 . S
C604 C600 1.407 . S
C604 C603 1.332 . S
H605 C598 0.930 . S
H606 C629 0.930 . S
H607 C630 0.929 . S
O608 Tb564 2.465 . S
O608 C628 1.264 . S
O609 Tb564 2.387 . S
O609 C620 1.264 . S
O610 Tb575 2.349 1_545 S
O610 C620 1.243 . S
O611 Tb564 2.428 . S
O611 C628 1.256 . S
O612 Tb564 2.308 . S
O612 C627 1.266 1_545 S
O613 Tb575 2.393 . S
O613 C627 1.248 . S
O614 Tb575 2.465 . S
O614 C639 1.264 . S
O615 Tb575 2.387 . S
O615 C631 1.264 . S
O616 Tb564 2.349 1_565 S
O616 C631 1.243 . S
O617 Tb575 2.428 . S
O617 C639 1.256 . S
O618 Tb575 2.308 1_545 S
O618 C638 1.266 . S
O619 Tb564 2.393 . S
O619 C638 1.248 . S
C620 O609 1.264 . S
C620 O610 1.243 . S
C621 C624 1.399 1_556 S
C621 C626 1.383 . S
C621 C628 1.496 . S
C622 C623 1.399 1_556 S
C622 C626 1.389 . S
C623 C622 1.399 1_554 S
C623 C625 1.380 . S
C623 H640 0.929 . S
C624 C621 1.399 1_554 S
C624 C625 1.392 . S
C624 H641 0.929 . S
C625 C623 1.380 . S
C625 C624 1.392 . S
C625 H642 0.929 . S
C626 C621 1.383 . S
C626 C622 1.389 . S
C626 H643 0.931 . S
C627 O612 1.266 1_565 S
C627 O613 1.248 . S
C628 Tb564 2.802 . S
C628 O608 1.264 . S
C628 O611 1.256 . S
C628 C621 1.496 . S
C629 C596 1.448 . S
C629 H606 0.930 . S
C629 C630 1.328 . S
C630 C601 1.427 . S
C630 H607 0.929 . S
C630 C629 1.328 . S
C631 O615 1.264 . S
C631 O616 1.243 . S
C632 C635 1.399 . S
C632 C636 1.383 . S
C632 C639 1.496 . S
C633 C634 1.399 . S
C633 C636 1.389 . S
C634 C633 1.399 . S
C634 C637 1.380 . S
C634 H644 0.929 . S
C635 C632 1.399 . S
C635 C637 1.392 . S
C635 H645 0.929 . S
C636 C632 1.383 . S
C636 C633 1.389 . S
C636 H646 0.931 . S
C637 C634 1.380 . S
C637 C635 1.392 . S
C637 H647 0.929 . S
C638 O618 1.266 . S
C638 O619 1.248 . S
C639 Tb575 2.802 . S
C639 O614 1.264 . S
C639 O617 1.256 . S
C639 C632 1.496 . S
H640 C623 0.929 . S
H641 C624 0.929 . S
H642 C625 0.929 . S
H643 C626 0.931 . S
H644 C634 0.929 . S
H645 C635 0.929 . S
H646 C636 0.931 . S
H647 C637 0.929 . S
Tb648 N677 2.617 . S
Tb648 N683 2.572 . S
Tb648 O692 2.465 . S
Tb648 O693 2.387 . S
Tb648 O695 2.428 . S
Tb648 O696 2.308 . S
Tb648 O700 2.349 . S
Tb648 O703 2.393 . S
Tb648 C712 2.802 . S
C649 N650 1.379 . S
C649 C652 1.416 . S
C649 C656 1.424 . S
N650 C649 1.379 . S
N650 C653 1.334 . S
N650 Tb659 2.617 . S
C651 C653 1.390 . S
C651 C654 1.339 . S
C651 H671 0.930 . S
C652 C649 1.416 . S
C652 C654 1.416 . S
C652 C658 1.448 . S
C653 N650 1.334 . S
C653 C651 1.390 . S
C653 H664 0.930 . S
C654 C651 1.339 . S
C654 C652 1.416 . S
C654 H675 0.930 . S
C655 C656 1.413 . S
C655 C657 1.427 1_556 S
C655 C661 1.416 1_556 S
C656 C649 1.424 . S
C656 C655 1.413 . S
C656 N660 1.361 . S
C657 C655 1.427 1_554 S
C657 C658 1.328 1_554 S
C657 H672 0.929 . S
C658 C652 1.448 . S
C658 C657 1.328 1_556 S
C658 H673 0.930 . S
Tb659 N650 2.617 . S
Tb659 N660 2.572 . S
Tb659 O694 2.349 . S
Tb659 O697 2.393 . S
Tb659 O698 2.465 . S
Tb659 O699 2.387 . S
Tb659 O701 2.428 . S
Tb659 O702 2.308 . S
Tb659 C723 2.802 . S
N660 C656 1.361 . S
N660 Tb659 2.572 . S
N660 C662 1.340 . S
C661 C655 1.416 1_554 S
C661 C663 1.332 . S
C661 H669 0.931 . S
C662 N660 1.340 . S
C662 C663 1.407 1_556 S
C662 H668 0.930 . S
C663 C661 1.332 . S
C663 C662 1.407 1_554 S
C663 H665 0.929 . S
H664 C653 0.930 . S
H665 C663 0.929 . S
H666 C681 0.930 . S
H667 C688 0.929 . S
H668 C662 0.930 . S
H669 C661 0.931 . S
H670 C684 0.930 . S
H671 C651 0.930 . S
H672 C657 0.929 . S
H673 C658 0.930 . S
H674 C679 0.930 . S
H675 C654 0.930 . S
H676 C687 0.931 . S
N677 Tb648 2.617 . S
N677 C678 1.379 . S
N677 C681 1.334 . S
C678 N677 1.379 . S
C678 C680 1.416 . S
C678 C686 1.424 . S
C679 H674 0.930 . S
C679 C681 1.390 . S
C679 C682 1.339 . S
C680 C678 1.416 . S
C680 C682 1.416 . S
C680 C713 1.448 . S
C681 H666 0.930 . S
C681 N677 1.334 . S
C681 C679 1.390 . S
C682 C679 1.339 . S
C682 C680 1.416 . S
C682 H689 0.930 . S
N683 Tb648 2.572 . S
N683 C684 1.340 . S
N683 C686 1.361 . S
C684 H670 0.930 . S
C684 N683 1.340 . S
C684 C688 1.407 . S
C685 C686 1.413 . S
C685 C687 1.416 . S
C685 C714 1.427 . S
C686 C678 1.424 . S
C686 N683 1.361 . S
C686 C685 1.413 . S
C687 H676 0.931 . S
C687 C685 1.416 . S
C687 C688 1.332 . S
C688 H667 0.929 . S
C688 C684 1.407 . S
C688 C687 1.332 . S
H689 C682 0.930 . S
H690 C713 0.930 . S
H691 C714 0.929 . S
O692 Tb648 2.465 . S
O692 C712 1.264 . S
O693 Tb648 2.387 . S
O693 C704 1.264 . S
O694 Tb659 2.349 . S
O694 C704 1.243 . S
O695 Tb648 2.428 . S
O695 C712 1.256 . S
O696 Tb648 2.308 . S
O696 C711 1.266 . S
O697 Tb659 2.393 . S
O697 C711 1.248 . S
O698 Tb659 2.465 . S
O698 C723 1.264 . S
O699 Tb659 2.387 . S
O699 C715 1.264 . S
O700 Tb648 2.349 . S
O700 C715 1.243 . S
O701 Tb659 2.428 . S
O701 C723 1.256 . S
O702 Tb659 2.308 . S
O702 C722 1.266 . S
O703 Tb648 2.393 . S
O703 C722 1.248 . S
C704 O693 1.264 . S
C704 O694 1.243 . S
C705 C708 1.399 . S
C705 C710 1.383 . S
C705 C712 1.496 . S
C706 C707 1.399 . S
C706 C710 1.389 . S
C707 C706 1.399 . S
C707 C709 1.380 . S
C707 H724 0.929 . S
C708 C705 1.399 . S
C708 C709 1.392 . S
C708 H725 0.929 . S
C709 C707 1.380 . S
C709 C708 1.392 . S
C709 H726 0.929 . S
C710 C705 1.383 . S
C710 C706 1.389 . S
C710 H727 0.931 . S
C711 O696 1.266 . S
C711 O697 1.248 . S
C712 Tb648 2.802 . S
C712 O692 1.264 . S
C712 O695 1.256 . S
C712 C705 1.496 . S
C713 C680 1.448 . S
C713 H690 0.930 . S
C713 C714 1.328 . S
C714 C685 1.427 . S
C714 H691 0.929 . S
C714 C713 1.328 . S
C715 O699 1.264 . S
C715 O700 1.243 . S
C716 C719 1.399 . S
C716 C720 1.383 . S
C716 C723 1.496 . S
C717 C718 1.399 . S
C717 C720 1.389 . S
C718 C717 1.399 . S
C718 C721 1.380 . S
C718 H728 0.929 . S
C719 C716 1.399 . S
C719 C721 1.392 . S
C719 H729 0.929 . S
C720 C716 1.383 . S
C720 C717 1.389 . S
C720 H730 0.931 . S
C721 C718 1.380 . S
C721 C719 1.392 . S
C721 H731 0.929 . S
C722 O702 1.266 . S
C722 O703 1.248 . S
C723 Tb659 2.802 . S
C723 O698 1.264 . S
C723 O701 1.256 . S
C723 C716 1.496 . S
H724 C707 0.929 . S
H725 C708 0.929 . S
H726 C709 0.929 . S
H727 C710 0.931 . S
H728 C718 0.929 . S
H729 C719 0.929 . S
H730 C720 0.931 . S
H731 C721 0.929 . S
Tb732 N761 2.617 . S
Tb732 N767 2.572 . S
Tb732 O776 2.465 . S
Tb732 O777 2.387 1_455 S
Tb732 O779 2.428 . S
Tb732 O780 2.308 . S
Tb732 O784 2.349 . S
Tb732 O787 2.393 . S
Tb732 C796 2.802 . S
C733 N734 1.379 1_455 S
C733 C736 1.416 . S
C733 C740 1.424 . S
N734 C733 1.379 1_655 S
N734 C737 1.334 . S
N734 Tb743 2.617 . S
C735 C737 1.390 1_455 S
C735 C738 1.339 . S
C735 H755 0.930 . S
C736 C733 1.416 . S
C736 C738 1.416 . S
C736 C742 1.448 . S
C737 N734 1.334 . S
C737 C735 1.390 1_655 S
C737 H748 0.930 . S
C738 C735 1.339 . S
C738 C736 1.416 . S
C738 H759 0.930 . S
C739 C740 1.413 . S
C739 C741 1.424 1_556 S
C739 C745 1.416 1_556 S
C740 C733 1.424 . S
C740 C739 1.413 . S
C740 N744 1.361 . S
C741 C739 1.424 1_554 S
C741 C742 1.320 1_554 S
C741 H756 0.940 . S
C742 C736 1.448 . S
C742 C741 1.320 1_556 S
C742 H757 0.930 . S
Tb743 N734 2.617 . S
Tb743 N744 2.572 1_655 S
Tb743 O778 2.349 . S
Tb743 O781 2.393 . S
Tb743 O782 2.465 . S
Tb743 O783 2.387 1_655 S
Tb743 O785 2.428 . S
Tb743 O786 2.308 . S
Tb743 C807 2.802 . S
N744 C740 1.361 . S
N744 Tb743 2.572 1_455 S
N744 C746 1.340 . S
C745 C739 1.416 1_554 S
C745 C747 1.332 . S
C745 H753 0.931 . S
C746 N744 1.340 . S
C746 C747 1.407 1_556 S
C746 H752 0.926 1_455 S
C747 C745 1.332 . S
C747 C746 1.407 1_554 S
C747 H749 0.929 . S
H748 C737 0.930 . S
H749 C747 0.929 . S
H750 C765 0.930 . S
H751 C772 0.929 . S
H752 C746 0.926 1_655 S
H753 C745 0.931 . S
H754 C768 0.930 . S
H755 C735 0.930 . S
H756 C741 0.940 . S
H757 C742 0.930 . S
H758 C763 0.930 . S
H759 C738 0.930 . S
H760 C771 0.931 . S
N761 Tb732 2.617 . S
N761 C762 1.368 1_455 S
N761 C765 1.334 . S
C762 N761 1.368 1_655 S
C762 C764 1.425 . S
C762 C770 1.426 . S
C763 H758 0.930 . S
C763 C765 1.390 . S
C763 C766 1.339 1_455 S
C764 C762 1.425 . S
C764 C766 1.416 . S
C764 C797 1.448 . S
C765 H750 0.930 . S
C765 N761 1.334 . S
C765 C763 1.390 . S
C766 C763 1.339 1_655 S
C766 C764 1.416 . S
C766 H773 0.930 . S
N767 Tb732 2.572 . S
N767 C768 1.340 . S
N767 C770 1.361 1_455 S
C768 H754 0.930 . S
C768 N767 1.340 . S
C768 C772 1.407 1_455 S
C769 C770 1.413 . S
C769 C771 1.416 . S
C769 C798 1.427 . S
C770 C762 1.426 . S
C770 N767 1.361 1_655 S
C770 C769 1.413 . S
C771 H760 0.931 . S
C771 C769 1.416 . S
C771 C772 1.332 . S
C772 H751 0.929 . S
C772 C768 1.407 1_655 S
C772 C771 1.332 . S
H773 C766 0.930 . S
H774 C797 0.930 . S
H775 C798 0.929 . S
O776 Tb732 2.465 . S
O776 C796 1.264 . S
O777 Tb732 2.387 1_655 S
O777 C788 1.264 . S
O778 Tb743 2.349 . S
O778 C788 1.243 . S
O779 Tb732 2.428 . S
O779 C796 1.256 . S
O780 Tb732 2.308 . S
O780 C795 1.266 . S
O781 Tb743 2.393 . S
O781 C795 1.248 1_655 S
O782 Tb743 2.465 . S
O782 C807 1.264 . S
O783 Tb743 2.387 1_455 S
O783 C799 1.264 . S
O784 Tb732 2.349 . S
O784 C799 1.243 . S
O785 Tb743 2.428 . S
O785 C807 1.256 . S
O786 Tb743 2.308 . S
O786 C806 1.266 1_655 S
O787 Tb732 2.393 . S
O787 C806 1.248 . S
C788 O777 1.264 . S
C788 O778 1.243 . S
C789 C792 1.399 . S
C789 C794 1.383 . S
C789 C796 1.496 . S
C790 C791 1.399 . S
C790 C794 1.389 . S
C791 C790 1.399 . S
C791 C793 1.380 . S
C791 H808 0.929 . S
C792 C789 1.399 . S
C792 C793 1.392 . S
C792 H809 0.929 . S
C793 C791 1.380 . S
C793 C792 1.392 . S
C793 H810 0.929 . S
C794 C789 1.383 . S
C794 C790 1.389 . S
C794 H811 0.931 . S
C795 O780 1.266 . S
C795 O781 1.248 1_455 S
C796 Tb732 2.802 . S
C796 O776 1.264 . S
C796 O779 1.256 . S
C796 C789 1.496 . S
C797 C764 1.448 . S
C797 H774 0.930 . S
C797 C798 1.328 . S
C798 C769 1.427 . S
C798 H775 0.929 . S
C798 C797 1.328 . S
C799 O783 1.264 . S
C799 O784 1.243 . S
C800 C803 1.399 . S
C800 C804 1.383 . S
C800 C807 1.496 . S
C801 C802 1.399 . S
C801 C804 1.389 . S
C802 C801 1.399 . S
C802 C805 1.380 . S
C802 H812 0.929 . S
C803 C800 1.399 . S
C803 C805 1.392 . S
C803 H813 0.929 . S
C804 C800 1.383 . S
C804 C801 1.389 . S
C804 H814 0.931 . S
C805 C802 1.380 . S
C805 C803 1.392 . S
C805 H815 0.929 . S
C806 O786 1.266 1_455 S
C806 O787 1.248 . S
C807 Tb743 2.802 . S
C807 O782 1.264 . S
C807 O785 1.256 . S
C807 C800 1.496 . S
H808 C791 0.929 . S
H809 C792 0.929 . S
H810 C793 0.929 . S
H811 C794 0.931 . S
H812 C802 0.929 . S
H813 C803 0.929 . S
H814 C804 0.931 . S
H815 C805 0.929 . S
C816 C817 1.369 . S
C816 C818 1.419 . S
C816 H820 0.930 . S
C817 C816 1.369 . S
C817 C826 1.429 . S
C818 C816 1.419 . S
C818 C819 1.363 . S
C818 H821 0.929 . S
C819 C818 1.363 . S
C819 C825 1.428 1_545 S
H820 C816 0.930 . S
H821 C818 0.929 . S
S822 N823 1.613 . S
S822 N824 1.610 . S
N823 S822 1.613 . S
N823 C826 1.350 1_565 S
N824 S822 1.610 . S
N824 C825 1.351 . S
C825 C819 1.428 1_565 S
C825 N824 1.351 . S
C825 C826 1.434 1_565 S
C826 C817 1.429 . S
C826 N823 1.350 1_545 S
C826 C825 1.434 1_545 S
C827 C828 1.369 . S
C827 C829 1.419 . S
C827 H831 0.930 . S
C828 C827 1.369 . S
C828 C837 1.429 . S
C829 C827 1.419 . S
C829 C830 1.363 . S
C829 H832 0.929 . S
C830 C829 1.363 . S
C830 C836 1.428 . S
H831 C827 0.930 . S
H832 C829 0.929 . S
S833 N834 1.613 . S
S833 N835 1.610 . S
N834 S833 1.613 . S
N834 C837 1.350 . S
N835 S833 1.610 . S
N835 C836 1.351 . S
C836 C830 1.428 . S
C836 N835 1.351 . S
C836 C837 1.434 . S
C837 C828 1.429 . S
C837 N834 1.350 . S
C837 C836 1.434 . S
C838 C839 1.369 . S
C838 C840 1.419 . S
C838 H842 0.930 . S
C839 C838 1.369 . S
C839 C848 1.429 . S
C840 C838 1.419 . S
C840 C841 1.363 . S
C840 H843 0.929 . S
C841 C840 1.363 . S
C841 C847 1.428 . S
H842 C838 0.930 . S
H843 C840 0.929 . S
S844 N845 1.613 . S
S844 N846 1.610 . S
N845 S844 1.613 . S
N845 C848 1.350 . S
N846 S844 1.610 . S
N846 C847 1.351 . S
C847 C841 1.428 . S
C847 N846 1.351 . S
C847 C848 1.434 . S
C848 C839 1.429 . S
C848 N845 1.350 . S
C848 C847 1.434 . S
C849 C850 1.369 . S
C849 C851 1.419 . S
C849 H853 0.930 . S
C850 C849 1.369 . S
C850 C859 1.429 . S
C851 C849 1.419 . S
C851 C852 1.363 . S
C851 H854 0.929 . S
C852 C851 1.363 . S
C852 C858 1.428 . S
H853 C849 0.930 . S
H854 C851 0.929 . S
S855 N856 1.613 . S
S855 N857 1.610 . S
N856 S855 1.613 . S
N856 C859 1.350 1_655 S
N857 S855 1.610 . S
N857 C858 1.351 1_655 S
C858 C852 1.428 . S
C858 N857 1.351 1_455 S
C858 C859 1.434 . S
C859 C850 1.429 . S
C859 N856 1.350 1_455 S
C859 C858 1.434 . S
C860 C861 1.383 . S
C860 C862 1.415 1_564 S
C860 H864 0.920 1_565 S
C861 C860 1.383 . S
C861 C870 1.429 . S
C862 C860 1.415 1_546 S
C862 C863 1.363 1_545 S
C862 H865 0.929 . S
C863 C862 1.363 1_565 S
C863 C869 1.428 . S
H864 C860 0.920 1_545 S
H865 C862 0.929 . S
S866 N867 1.613 1_556 S
S866 N868 1.610 . S
N867 S866 1.613 1_554 S
N867 C870 1.350 . S
N868 S866 1.610 . S
N868 C869 1.351 . S
C869 C863 1.428 . S
C869 N868 1.351 . S
C869 C870 1.434 1_556 S
C870 C861 1.429 . S
C870 N867 1.350 . S
C870 C869 1.434 1_554 S
C871 C872 1.369 . S
C871 C873 1.419 1_554 S
C871 H875 0.930 . S
C872 C871 1.369 . S
C872 C881 1.429 . S
C873 C871 1.419 1_556 S
C873 C874 1.363 . S
C873 H876 0.929 . S
C874 C873 1.363 . S
C874 C880 1.428 . S
H875 C871 0.930 . S
H876 C873 0.929 . S
S877 N878 1.613 . S
S877 N879 1.610 1_554 S
N878 S877 1.613 . S
N878 C881 1.350 . S
N879 S877 1.610 1_556 S
N879 C880 1.351 . S
C880 C874 1.428 . S
C880 N879 1.351 . S
C880 C881 1.434 1_556 S
C881 C872 1.429 . S
C881 N878 1.350 . S
C881 C880 1.434 1_554 S
C882 C883 1.369 . S
C882 C884 1.419 1_554 S
C882 H886 0.930 . S
C883 C882 1.369 . S
C883 C892 1.429 . S
C884 C882 1.419 1_556 S
C884 C885 1.363 . S
C884 H887 0.929 . S
C885 C884 1.363 . S
C885 C891 1.428 . S
H886 C882 0.930 . S
H887 C884 0.929 . S
S888 N889 1.613 1_556 S
S888 N890 1.610 . S
N889 S888 1.613 1_554 S
N889 C892 1.350 . S
N890 S888 1.610 . S
N890 C891 1.351 . S
C891 C885 1.428 . S
C891 N890 1.351 . S
C891 C892 1.434 1_556 S
C892 C883 1.429 . S
C892 N889 1.350 . S
C892 C891 1.434 1_554 S
C893 C894 1.369 . S
C893 C895 1.419 1_554 S
C893 H897 0.930 . S
C894 C893 1.369 . S
C894 C903 1.429 . S
C895 C893 1.419 1_556 S
C895 C896 1.363 . S
C895 H898 0.929 . S
C896 C895 1.363 . S
C896 C902 1.421 1_655 S
H897 C893 0.930 . S
H898 C895 0.929 . S
S899 N900 1.613 1_556 S
S899 N901 1.610 . S
N900 S899 1.613 1_554 S
N900 C903 1.350 1_455 S
N901 S899 1.610 . S
N901 C902 1.362 . S
C902 C896 1.421 1_455 S
C902 N901 1.362 . S
C902 C903 1.430 1_456 S
C903 C894 1.429 . S
C903 N900 1.350 1_655 S
C903 C902 1.430 1_654 S
C904 C905 1.369 . S
C904 C906 1.419 . S
C904 H908 0.930 . S
C905 C904 1.369 . S
C905 C914 1.429 . S
C906 C904 1.419 . S
C906 C907 1.363 1_455 S
C906 H909 0.929 . S
C907 C906 1.363 1_655 S
C907 C913 1.428 . S
H908 C904 0.930 . S
H909 C906 0.929 . S
S910 N911 1.613 . S
S910 N912 1.610 . S
N911 S910 1.613 . S
N911 C914 1.350 1_655 S
N912 S910 1.610 . S
N912 C913 1.351 . S
C913 C907 1.428 . S
C913 N912 1.351 . S
C913 C914 1.434 1_655 S
C914 C905 1.429 . S
C914 N911 1.350 1_455 S
C914 C913 1.434 1_455 S
C915 C916 1.369 . S
C915 C917 1.419 . S
C915 H919 0.930 . S
C916 C915 1.369 . S
C916 C925 1.429 . S
C917 C915 1.419 . S
C917 C918 1.363 1_545 S
C917 H920 0.929 . S
C918 C917 1.363 1_565 S
C918 C924 1.428 . S
H919 C915 0.930 . S
H920 C917 0.929 . S
S921 N922 1.613 1_565 S
S921 N923 1.610 . S
N922 S921 1.613 1_545 S
N922 C925 1.350 . S
N923 S921 1.610 . S
N923 C924 1.351 . S
C924 C918 1.428 . S
C924 N923 1.351 . S
C924 C925 1.434 1_565 S
C925 C916 1.429 . S
C925 N922 1.350 . S
C925 C924 1.434 1_545 S
C926 C927 1.369 . S
C926 C928 1.419 . S
C926 H930 0.930 . S
C927 C926 1.369 . S
C927 C936 1.429 . S
C928 C926 1.419 . S
C928 C929 1.363 . S
C928 H931 0.929 . S
C929 C928 1.363 . S
C929 C935 1.428 . S
H930 C926 0.930 . S
H931 C928 0.929 . S
S932 N933 1.613 . S
S932 N934 1.610 . S
N933 S932 1.613 . S
N933 C936 1.350 . S
N934 S932 1.610 . S
N934 C935 1.351 . S
C935 C929 1.428 . S
C935 N934 1.351 . S
C935 C936 1.434 . S
C936 C927 1.429 . S
C936 N933 1.350 . S
C936 C935 1.434 . S
C937 C938 1.369 . S
C937 C939 1.419 . S
C937 H941 0.930 . S
C938 C937 1.369 . S
C938 C947 1.429 . S
C939 C937 1.419 . S
C939 C940 1.363 . S
C939 H942 0.929 . S
C940 C939 1.363 . S
C940 C946 1.428 . S
H941 C937 0.930 . S
H942 C939 0.929 . S
S943 N944 1.613 . S
S943 N945 1.610 . S
N944 S943 1.613 . S
N944 C947 1.350 . S
N945 S943 1.610 . S
N945 C946 1.351 . S
C946 C940 1.428 . S
C946 N945 1.351 . S
C946 C947 1.434 . S
C947 C938 1.429 . S
C947 N944 1.350 . S
C947 C946 1.434 . S
C948 C949 1.369 1_556 S
C948 C950 1.419 . S
C948 H952 0.930 . S
C949 C948 1.369 1_554 S
C949 C958 1.429 . S
C950 C948 1.419 . S
C950 C951 1.363 1_655 S
C950 H953 0.929 . S
C951 C950 1.363 1_455 S
C951 C957 1.428 1_556 S
H952 C948 0.930 . S
H953 C950 0.929 . S
S954 N955 1.613 1_455 S
S954 N956 1.610 . S
N955 S954 1.613 1_655 S
N955 C958 1.350 . S
N956 S954 1.610 . S
N956 C957 1.351 . S
C957 C951 1.428 1_554 S
C957 N956 1.351 . S
C957 C958 1.434 1_455 S
C958 C949 1.429 . S
C958 N955 1.350 . S
C958 C957 1.434 1_655 S
C959 C960 1.369 1_556 S
C959 C961 1.419 1_565 S
C959 H963 0.930 . S
C960 C959 1.369 1_554 S
C960 C969 1.429 . S
C961 C959 1.419 1_545 S
C961 C962 1.363 . S
C961 H964 0.929 . S
C962 C961 1.363 . S
C962 C968 1.428 1_556 S
H963 C959 0.930 . S
H964 C961 0.929 . S
S965 N966 1.613 . S
S965 N967 1.610 1_565 S
N966 S965 1.613 . S
N966 C969 1.350 . S
N967 S965 1.610 1_545 S
N967 C968 1.351 . S
C968 C962 1.428 1_554 S
C968 N967 1.351 . S
C968 C969 1.434 1_545 S
C969 C960 1.429 . S
C969 N966 1.350 . S
C969 C968 1.434 1_565 S
C970 C971 1.369 1_556 S
C970 C972 1.419 . S
C970 H974 0.930 . S
C971 C970 1.369 1_554 S
C971 C980 1.429 . S
C972 C970 1.419 . S
C972 C973 1.363 . S
C972 H975 0.929 . S
C973 C972 1.363 . S
C973 C979 1.428 1_556 S
H974 C970 0.930 . S
H975 C972 0.929 . S
S976 N977 1.613 . S
S976 N978 1.610 . S
N977 S976 1.613 . S
N977 C980 1.350 . S
N978 S976 1.610 . S
N978 C979 1.351 . S
C979 C973 1.428 1_554 S
C979 N978 1.351 . S
C979 C980 1.434 . S
C980 C971 1.429 . S
C980 N977 1.350 . S
C980 C979 1.434 . S
C981 C982 1.369 . S
C981 C983 1.419 . S
C981 H985 0.930 . S
C982 C981 1.369 . S
C982 C991 1.429 1_554 S
C983 C981 1.419 . S
C983 C984 1.363 1_554 S
C983 H986 0.929 . S
C984 C983 1.363 1_556 S
C984 C990 1.428 . S
H985 C981 0.930 . S
H986 C983 0.929 . S
S987 N988 1.613 . S
S987 N989 1.610 . S
N988 S987 1.613 . S
N988 C991 1.350 . S
N989 S987 1.610 . S
N989 C990 1.351 . S
C990 C984 1.428 . S
C990 N989 1.351 . S
C990 C991 1.434 . S
C991 C982 1.429 1_556 S
C991 N988 1.350 . S
C991 C990 1.434 . S
C992 C993 1.369 . S
C992 C994 1.419 . S
C992 H996 0.930 . S
C993 C992 1.369 . S
C993 C1002 1.429 . S
C994 C992 1.419 . S
C994 C995 1.363 . S
C994 H997 0.929 . S
C995 C994 1.363 . S
C995 C1001 1.428 . S
H996 C992 0.930 . S
H997 C994 0.929 . S
S998 N999 1.613 . S
S998 N1000 1.610 . S
N999 S998 1.613 . S
N999 C1002 1.350 1_655 S
N1000 S998 1.610 . S
N1000 C1001 1.351 1_655 S
C1001 C995 1.428 . S
C1001 N1000 1.351 1_455 S
C1001 C1002 1.434 . S
C1002 C993 1.429 . S
C1002 N999 1.350 1_455 S
C1002 C1001 1.434 . S
C1003 C1004 1.369 . S
C1003 C1005 1.419 . S
C1003 H1007 0.930 . S
C1004 C1003 1.369 . S
C1004 C1013 1.429 . S
C1005 C1003 1.419 . S
C1005 C1006 1.363 . S
C1005 H1008 0.929 . S
C1006 C1005 1.363 . S
C1006 C1012 1.428 . S
H1007 C1003 0.930 . S
H1008 C1005 0.929 . S
S1009 N1010 1.613 . S
S1009 N1011 1.610 . S
N1010 S1009 1.613 . S
N1010 C1013 1.350 . S
N1011 S1009 1.610 . S
N1011 C1012 1.351 . S
C1012 C1006 1.428 . S
C1012 N1011 1.351 . S
C1012 C1013 1.434 . S
C1013 C1004 1.429 . S
C1013 N1010 1.350 . S
C1013 C1012 1.434 . S
C1014 C1015 1.369 . S
C1014 C1016 1.419 . S
C1014 H1018 0.930 . S
C1015 C1014 1.369 . S
C1015 C1024 1.429 . S
C1016 C1014 1.419 . S
C1016 C1017 1.363 . S
C1016 H1019 0.929 . S
C1017 C1016 1.363 . S
C1017 C1023 1.428 . S
H1018 C1014 0.930 . S
H1019 C1016 0.929 . S
S1020 N1021 1.613 . S
S1020 N1022 1.610 . S
N1021 S1020 1.613 . S
N1021 C1024 1.350 . S
N1022 S1020 1.610 . S
N1022 C1023 1.351 . S
C1023 C1017 1.428 . S
C1023 N1022 1.351 . S
C1023 C1024 1.434 . S
C1024 C1015 1.429 . S
C1024 N1021 1.350 . S
C1024 C1023 1.434 . S
C1025 C1026 1.369 . S
C1025 C1027 1.419 . S
C1025 H1029 0.930 . S
C1026 C1025 1.369 . S
C1026 C1035 1.429 . S
C1027 C1025 1.419 . S
C1027 C1028 1.363 . S
C1027 H1030 0.929 . S
C1028 C1027 1.363 . S
C1028 C1034 1.428 . S
H1029 C1025 0.930 . S
H1030 C1027 0.929 . S
S1031 N1032 1.613 . S
S1031 N1033 1.610 . S
N1032 S1031 1.613 . S
N1032 C1035 1.350 . S
N1033 S1031 1.610 . S
N1033 C1034 1.351 . S
C1034 C1028 1.428 . S
C1034 N1033 1.351 . S
C1034 C1035 1.434 . S
C1035 C1026 1.429 . S
C1035 N1032 1.350 . S
C1035 C1034 1.434 . S
C1036 C1037 1.369 . S
C1036 C1038 1.419 . S
C1036 H1040 0.930 . S
C1037 C1036 1.369 . S
C1037 C1046 1.429 . S
C1038 C1036 1.419 . S
C1038 C1039 1.363 . S
C1038 H1041 0.929 . S
C1039 C1038 1.363 . S
C1039 C1045 1.428 . S
H1040 C1036 0.930 . S
H1041 C1038 0.929 . S
S1042 N1043 1.613 . S
S1042 N1044 1.610 . S
N1043 S1042 1.613 . S
N1043 C1046 1.350 1_455 S
N1044 S1042 1.610 . S
N1044 C1045 1.351 1_455 S
C1045 C1039 1.428 . S
C1045 N1044 1.351 1_655 S
C1045 C1046 1.434 . S
C1046 C1037 1.429 . S
C1046 N1043 1.350 1_655 S
C1046 C1045 1.434 . S
C1047 C1048 1.369 1_545 S
C1047 C1049 1.419 . S
C1047 H1051 0.930 . S
C1048 C1047 1.369 1_565 S
C1048 C1057 1.429 . S
C1049 C1047 1.419 . S
C1049 C1050 1.363 1_545 S
C1049 H1052 0.929 . S
C1050 C1049 1.363 1_565 S
C1050 C1056 1.428 . S
H1051 C1047 0.930 . S
H1052 C1049 0.929 . S
S1053 N1054 1.613 . S
S1053 N1055 1.610 . S
N1054 S1053 1.613 . S
N1054 C1057 1.350 . S
N1055 S1053 1.610 . S
N1055 C1056 1.351 . S
C1056 C1050 1.428 . S
C1056 N1055 1.351 . S
C1056 C1057 1.434 . S
C1057 C1048 1.429 . S
C1057 N1054 1.350 . S
C1057 C1056 1.434 . S
C1058 C1059 1.369 . S
C1058 C1060 1.419 . S
C1058 H1062 0.930 . S
C1059 C1058 1.369 . S
C1059 C1068 1.429 . S
C1060 C1058 1.419 . S
C1060 C1061 1.363 . S
C1060 H1063 0.929 . S
C1061 C1060 1.363 . S
C1061 C1067 1.428 . S
H1062 C1058 0.930 . S
H1063 C1060 0.929 . S
S1064 N1065 1.613 . S
S1064 N1066 1.610 . S
N1065 S1064 1.613 . S
N1065 C1068 1.350 . S
N1066 S1064 1.610 . S
N1066 C1067 1.351 . S
C1067 C1061 1.428 . S
C1067 N1066 1.351 . S
C1067 C1068 1.434 . S
C1068 C1059 1.429 . S
C1068 N1065 1.350 . S
C1068 C1067 1.434 . S
C1069 C1070 1.369 . S
C1069 C1071 1.419 . S
C1069 H1073 0.930 . S
C1070 C1069 1.369 . S
C1070 C1079 1.429 . S
C1071 C1069 1.419 . S
C1071 C1072 1.363 . S
C1071 H1074 0.929 . S
C1072 C1071 1.363 . S
C1072 C1078 1.428 . S
H1073 C1069 0.930 . S
H1074 C1071 0.929 . S
S1075 N1076 1.613 . S
S1075 N1077 1.610 . S
N1076 S1075 1.613 . S
N1076 C1079 1.350 . S
N1077 S1075 1.610 . S
N1077 C1078 1.351 . S
C1078 C1072 1.428 . S
C1078 N1077 1.351 . S
C1078 C1079 1.434 . S
C1079 C1070 1.429 . S
C1079 N1076 1.350 . S
C1079 C1078 1.434 . S
C817 C391 2.739 . S
C819 C543 2.830 . S
C830 C620 2.821 . S
C828 C451 2.752 . S
C841 C711 2.835 . S
C839 C241 2.346 . S
C852 C795 2.814 . S
C850 C331 2.322 . S
C863 C554 2.833 1_565 S
C861 C121 2.375 . S
C872 C211 2.709 . S
C874 C631 2.826 . S
C883 C31 2.711 . S
C885 C722 2.839 . S
C894 C91 2.357 . S
C896 C806 2.816 1_655 S
C907 C538 0.755 . S
C905 C301 0.748 . S
C918 C633 0.757 . S
C916 C380 0.747 . S
C929 C706 0.772 . S
C927 C440 0.776 . S
C938 C260 0.757 . S
C940 C790 0.745 . S
C949 C61 0.744 . S
C951 C549 0.763 . S
C962 C622 0.741 . S
C960 C140 0.742 . S
C973 C717 0.782 . S
C971 C200 0.777 . S
C982 C20 0.746 . S
C984 C801 0.745 . S
C993 C320 3.056 . S
C995 C547 3.290 . S
C1004 C361 2.675 . S
C1006 C638 3.392 . S
C1017 C715 3.312 . S
C1015 C421 2.683 . S
C1028 C799 3.313 . S
C1026 C271 3.078 . S
C1037 C80 3.080 . S
C1039 C536 3.288 . S
C1050 C627 3.393 . S
C1048 C151 3.079 . S
C1061 C704 3.312 . S
C1059 C181 2.660 . S
C1070 C1 2.671 . S
C1072 C788 3.310 . S
