# Generated by pormake.
# Topology zzz, (3,6)-cn, num edge types: 1
# Building blocks:
#     Node 0, Type 0, BuildingBlock: BELTOD_clean_linker_0, # of connection points: 3
#     Node 1, Type 0, BuildingBlock: BELTOD_clean_linker_0, # of connection points: 3
#     Node 2, Type 0, BuildingBlock: BELTOD_clean_linker_0, # of connection points: 3
#     Node 3, Type 0, BuildingBlock: BELTOD_clean_linker_0, # of connection points: 3
#     Node 4, Type 0, BuildingBlock: BELTOD_clean_linker_0, # of connection points: 3
#     Node 5, Type 0, BuildingBlock: BELTOD_clean_linker_0, # of connection points: 3
#     Node 6, Type 0, BuildingBlock: BELTOD_clean_linker_0, # of connection points: 3
#     Node 7, Type 0, BuildingBlock: BELTOD_clean_linker_0, # of connection points: 3
#     Node 8, Type 1, BuildingBlock: GEDQOX_clean_sbu_0, # of connection points: 6
#     Node 9, Type 1, BuildingBlock: GEDQOX_clean_sbu_0, # of connection points: 6
#     Node 10, Type 1, BuildingBlock: GEDQOX_clean_sbu_0, # of connection points: 6
#     Node 11, Type 1, BuildingBlock: GEDQOX_clean_sbu_0, # of connection points: 6
#     Edge 12, Type (0, 1), BuildingBlock: KIFKEQ_clean_linker_1, # of connection points: 2
#     Edge 13, Type (0, 1), BuildingBlock: KIFKEQ_clean_linker_1, # of connection points: 2
#     Edge 14, Type (0, 1), BuildingBlock: KIFKEQ_clean_linker_1, # of connection points: 2
#     Edge 15, Type (0, 1), BuildingBlock: KIFKEQ_clean_linker_1, # of connection points: 2
#     Edge 16, Type (0, 1), BuildingBlock: KIFKEQ_clean_linker_1, # of connection points: 2
#     Edge 17, Type (0, 1), BuildingBlock: KIFKEQ_clean_linker_1, # of connection points: 2
#     Edge 18, Type (0, 1), BuildingBlock: KIFKEQ_clean_linker_1, # of connection points: 2
#     Edge 19, Type (0, 1), BuildingBlock: KIFKEQ_clean_linker_1, # of connection points: 2
#     Edge 20, Type (0, 1), BuildingBlock: KIFKEQ_clean_linker_1, # of connection points: 2
#     Edge 21, Type (0, 1), BuildingBlock: KIFKEQ_clean_linker_1, # of connection points: 2
#     Edge 22, Type (0, 1), BuildingBlock: KIFKEQ_clean_linker_1, # of connection points: 2
#     Edge 23, Type (0, 1), BuildingBlock: KIFKEQ_clean_linker_1, # of connection points: 2
#     Edge 24, Type (0, 1), BuildingBlock: KIFKEQ_clean_linker_1, # of connection points: 2
#     Edge 25, Type (0, 1), BuildingBlock: KIFKEQ_clean_linker_1, # of connection points: 2
#     Edge 26, Type (0, 1), BuildingBlock: KIFKEQ_clean_linker_1, # of connection points: 2
#     Edge 27, Type (0, 1), BuildingBlock: KIFKEQ_clean_linker_1, # of connection points: 2
#     Edge 28, Type (0, 1), BuildingBlock: KIFKEQ_clean_linker_1, # of connection points: 2
#     Edge 29, Type (0, 1), BuildingBlock: KIFKEQ_clean_linker_1, # of connection points: 2
#     Edge 30, Type (0, 1), BuildingBlock: KIFKEQ_clean_linker_1, # of connection points: 2
#     Edge 31, Type (0, 1), BuildingBlock: KIFKEQ_clean_linker_1, # of connection points: 2
#     Edge 32, Type (0, 1), BuildingBlock: KIFKEQ_clean_linker_1, # of connection points: 2
#     Edge 33, Type (0, 1), BuildingBlock: KIFKEQ_clean_linker_1, # of connection points: 2
#     Edge 34, Type (0, 1), BuildingBlock: KIFKEQ_clean_linker_1, # of connection points: 2
#     Edge 35, Type (0, 1), BuildingBlock: KIFKEQ_clean_linker_1, # of connection points: 2
# Relax obj value: 0.288
# Max RMSD: 0.263
# Mean RMSD: 0.186
data_MOF--net-zzz--node1-GEDQOX_clean_sbu_0--node2-BELTOD_clean_linker_0--edge1-KIFKEQ_clean_linker_1
_symmetry_space_group_name_H-M    P1
_symmetry_Int_Tables_number       1
_symmetry_cell_setting            triclinic
loop_
_symmetry_equiv_pos_as_xyz
'x, y, z'
_cell_length_a     59.74118
_cell_length_b     55.506415
_cell_length_c     20.649427
_cell_angle_alpha  81.55576
_cell_angle_beta   90.901661
_cell_angle_gamma 102.26577
loop_
_atom_site_label
_atom_site_type_symbol
_atom_site_fract_x
_atom_site_fract_y
_atom_site_fract_z
_atom_type_partial_charge
P0 P 0.74306 0.40383 0.1744 0.0
H1 H 0.75914 0.38632 0.30391 0.0
H2 H 0.78407 0.40777 0.3819 0.0
H3 H 0.78591 0.47817 0.25837 0.0
H4 H 0.76044 0.45656 0.18152 0.0
H5 H 0.72197 0.40892 0.04489 0.0
H6 H 0.68935 0.42668 1.00381 0.0
H7 H 0.67776 0.44339 0.19652 0.0
H8 H 0.71095 0.42653 0.23695 0.0
H9 H 0.77604 0.37315 0.15949 0.0
H10 H 0.75943 0.44073 0.05928 0.0
O11 O 0.73278 0.37393 0.20396 0.0
H12 H 0.80971 0.37962 0.08863 0.0
H13 H 0.79185 0.44636 0.9849 0.0
C14 C 0.7577 0.41991 0.23748 0.0
C15 C 0.76444 0.40643 0.29445 0.0
C16 C 0.77889 0.41871 0.33868 0.0
C17 C 0.78714 0.4447 0.32621 0.0
C18 C 0.77967 0.45822 0.27 0.0
C19 C 0.76514 0.44589 0.22592 0.0
C20 C 0.71944 0.41733 0.14336 0.0
C21 C 0.7128 0.41697 0.07796 0.0
C22 C 0.69414 0.427 0.05456 0.0
C23 C 0.68132 0.43662 0.09693 0.0
C24 C 0.68754 0.43623 0.16288 0.0
C25 C 0.70651 0.42671 0.18586 0.0
C26 C 0.76481 0.40601 0.11334 0.0
C27 C 0.77916 0.38888 0.12055 0.0
C28 C 0.79841 0.39259 0.0797 0.0
C29 C 0.80364 0.41355 0.03076 0.0
C30 C 0.78867 0.43021 0.02256 0.0
C31 C 0.76977 0.42677 0.06436 0.0
P32 P 0.01646 0.72281 0.31276 0.0
H33 H 0.01867 0.7158 0.45592 0.0
H34 H 0.00106 0.73442 0.53606 0.0
H35 H 0.95603 0.7594 0.38701 0.0
H36 H 0.97257 0.73919 0.30893 0.0
H37 H 0.03932 0.70749 0.21039 0.0
H38 H 0.02972 0.67348 0.14627 0.0
H39 H 0.96508 0.64707 0.2513 0.0
H40 H 0.97513 0.68155 0.3166 0.0
H41 H 0.05198 0.76876 0.29436 0.0
H42 H 0.9892 0.73822 0.20228 0.0
O43 O 0.04174 0.72067 0.34597 0.0
H44 H 0.05552 0.80772 0.21959 0.0
H45 H 0.99137 0.77762 0.13127 0.0
C46 C 0.99748 0.72678 0.37572 0.0
C47 C 0.00442 0.72447 0.44107 0.0
C48 C 0.9945 0.73548 0.48677 0.0
C49 C 0.97773 0.74941 0.46761 0.0
C50 C 0.969 0.74909 0.4039 0.0
C51 C 0.97864 0.73762 0.35864 0.0
C52 C 0.00798 0.69694 0.26821 0.0
C53 C 0.02304 0.69442 0.21967 0.0
C54 C 0.01741 0.67507 0.18252 0.0
C55 C 0.99649 0.65771 0.19297 0.0
C56 C 0.98134 0.66016 0.24213 0.0
C57 C 0.98702 0.6798 0.27941 0.0
C58 C 0.02039 0.75063 0.25362 0.0
C59 C 0.03898 0.77045 0.25786 0.0
C60 C 0.04078 0.79288 0.21551 0.0
C61 C 0.02362 0.79613 0.16938 0.0
C62 C 0.00519 0.77589 0.16495 0.0
C63 C 0.00377 0.75332 0.20614 0.0
P64 P 0.78367 0.08021 0.17013 0.0
H65 H 0.78735 0.07412 0.31293 0.0
H66 H 0.76265 0.04766 0.4004 0.0
H67 H 0.72148 0.01023 0.25581 0.0
H68 H 0.74674 0.036 0.16935 0.0
H69 H 0.82585 0.1096 0.108 0.0
H70 H 0.85763 0.09883 0.05423 0.0
H71 H 0.82597 0.02065 0.10148 0.0
H72 H 0.79437 0.03169 0.15689 0.0
H73 H 0.74578 0.10576 0.16103 0.0
H74 H 0.77627 0.06356 0.04101 0.0
O75 O 0.79259 0.10707 0.19932 0.0
H76 H 0.71398 0.10576 0.085 0.0
H77 H 0.74486 0.06387 0.96443 0.0
C78 C 0.76858 0.0574 0.23464 0.0
C79 C 0.77326 0.05987 0.30028 0.0
C80 C 0.759 0.04485 0.3502 0.0
C81 C 0.73974 0.02711 0.33524 0.0
C82 C 0.73613 0.02358 0.26944 0.0
C83 C 0.75051 0.03849 0.2197 0.0
C84 C 0.80805 0.07144 0.13761 0.0
C85 C 0.82593 0.09012 0.10778 0.0
C86 C 0.84395 0.08392 0.07624 0.0
C87 C 0.8443 0.05886 0.07306 0.0
C88 C 0.82637 0.04011 0.10362 0.0
C89 C 0.80831 0.04638 0.1354 0.0
C90 C 0.76349 0.08489 0.10644 0.0
C91 C 0.74599 0.09717 0.11727 0.0
C92 C 0.72786 0.09721 0.07369 0.0
C93 C 0.72687 0.08472 0.01885 0.0
C94 C 0.74504 0.07344 1.0066 0.0
C95 C 0.76313 0.07341 0.05021 0.0
P96 P 0.51521 0.77853 0.4554 0.0
H97 H 0.49873 0.75129 0.58209 0.0
H98 H 0.51275 0.71972 0.65578 0.0
H99 H 0.57599 0.73626 0.54374 0.0
H100 H 0.56201 0.76884 0.47059 0.0
H101 H 0.51773 0.83098 0.46536 0.0
H102 H 0.53052 0.86857 0.38664 0.0
H103 H 0.56157 0.82657 0.26705 0.0
H104 H 0.54892 0.78904 0.34624 0.0
H105 H 0.53748 0.74438 0.39739 0.0
H106 H 0.4722 0.76623 0.3842 0.0
O107 O 0.49212 0.78527 0.48709 0.0
H108 H 0.52565 0.71696 0.31647 0.0
H109 H 0.46012 0.73827 0.30235 0.0
C110 C 0.5293 0.76247 0.52072 0.0
C111 C 0.51602 0.74901 0.57475 0.0
C112 C 0.52407 0.73083 0.617 0.0
C113 C 0.54541 0.72535 0.6053 0.0
C114 C 0.55941 0.74002 0.5537 0.0
C115 C 0.55149 0.7587 0.51215 0.0
C116 C 0.53177 0.80699 0.41096 0.0
C117 C 0.52789 0.82995 0.4233 0.0
C118 C 0.53527 0.8515 0.37818 0.0
C119 C 0.54662 0.8504 0.31986 0.0
C120 C 0.55243 0.82786 0.31087 0.0
C121 C 0.54523 0.80636 0.35638 0.0
C122 C 0.50565 0.75718 0.39785 0.0
C123 C 0.52049 0.74316 0.3778 0.0
C124 C 0.5138 0.72762 0.33077 0.0
C125 C 0.49205 0.72567 0.30286 0.0
C126 C 0.47698 0.73946 0.32333 0.0
C127 C 0.48386 0.75535 0.37009 0.0
P128 P 0.23824 0.46661 0.64817 0.0
H129 H 0.2022 0.4257 0.61759 0.0
H130 H 0.17909 0.41942 0.52063 0.0
H131 H 0.21741 0.4894 0.41932 0.0
H132 H 0.24086 0.49521 0.51651 0.0
H133 H 0.27153 0.5022 0.71176 0.0
H134 H 0.31335 0.51165 0.71127 0.0
H135 H 0.31375 0.46454 0.56262 0.0
H136 H 0.2718 0.45534 0.56278 0.0
H137 H 0.20271 0.45724 0.74841 0.0
H138 H 0.24141 0.52077 0.62245 0.0
O139 O 0.23525 0.43981 0.69913 0.0
H140 H 0.17984 0.48343 0.78785 0.0
H141 H 0.21899 0.5477 0.66376 0.0
C142 C 0.22354 0.46066 0.57365 0.0
C143 C 0.20595 0.43945 0.57408 0.0
C144 C 0.19256 0.43602 0.51879 0.0
C145 C 0.19634 0.45393 0.46218 0.0
C146 C 0.21425 0.47506 0.46172 0.0
C147 C 0.22766 0.47844 0.51719 0.0
C148 C 0.26854 0.47855 0.63609 0.0
C149 C 0.28056 0.49465 0.67721 0.0
C150 C 0.30451 0.50001 0.67704 0.0
C151 C 0.31679 0.48882 0.6369 0.0
C152 C 0.3047 0.47337 0.59412 0.0
C153 C 0.28075 0.46827 0.59382 0.0
C154 C 0.22408 0.48716 0.68368 0.0
C155 C 0.20674 0.47704 0.73066 0.0
C156 C 0.19372 0.49218 0.75354 0.0
C157 C 0.19772 0.51787 0.72981 0.0
C158 C 0.2154 0.52804 0.68311 0.0
C159 C 0.22836 0.51273 0.65984 0.0
P160 P 0.11326 0.31023 0.42623 0.0
H161 H 0.14317 0.31074 0.31495 0.0
H162 H 0.13769 0.28575 0.22599 0.0
H163 H 0.0655 0.26291 0.2746 0.0
H164 H 0.07101 0.28821 0.36278 0.0
H165 H 0.13129 0.34798 0.50729 0.0
H166 H 0.11542 0.37984 0.54794 0.0
H167 H 0.05518 0.36153 0.4314 0.0
H168 H 0.07141 0.32954 0.39008 0.0
H169 H 0.13148 0.26757 0.48414 0.0
H170 H 0.06746 0.29158 0.48734 0.0
O171 O 0.14158 0.31639 0.43652 0.0
H172 H 0.11345 0.22715 0.54464 0.0
H173 H 0.04926 0.25104 0.54773 0.0
C174 C 0.10755 0.30122 0.34617 0.0
C175 C 0.12599 0.30114 0.30508 0.0
C176 C 0.12289 0.28661 0.2545 0.0
C177 C 0.10126 0.27186 0.24421 0.0
C178 C 0.08238 0.27405 0.28108 0.0
C179 C 0.08552 0.28862 0.33165 0.0
C180 C 0.10268 0.33653 0.44499 0.0
C181 C 0.11492 0.35117 0.48903 0.0
C182 C 0.1058 0.36943 0.51237 0.0
C183 C 0.08401 0.3732 0.49302 0.0
C184 C 0.07195 0.35891 0.44757 0.0
C185 C 0.08127 0.34075 0.42355 0.0
C186 C 0.10099 0.28282 0.48247 0.0
C187 C 0.11371 0.26442 0.49946 0.0
C188 C 0.10335 0.24128 0.53389 0.0
C189 C 0.07994 0.23597 0.55101 0.0
C190 C 0.0673 0.2546 0.53496 0.0
C191 C 0.07777 0.27788 0.50104 0.0
P192 P 0.29688 0.06484 0.60566 0.0
H193 H 0.30596 0.10305 0.49029 0.0
H194 H 0.32588 0.10497 0.38659 0.0
H195 H 0.32937 0.02751 0.43776 0.0
H196 H 0.30885 0.02556 0.53995 0.0
H197 H 0.26638 0.08292 0.6853 0.0
H198 H 0.22552 0.07085 0.70903 0.0
H199 H 0.21927 0.01412 0.58297 0.0
H200 H 0.26042 0.02726 0.55712 0.0
H201 H 0.33995 0.07467 0.67387 0.0
H202 H 0.28545 0.01113 0.65706 0.0
O203 O 0.30565 0.09395 0.62177 0.0
H204 H 0.36151 0.04777 0.74014 0.0
H205 H 0.30713 0.98389 0.72365 0.0
C206 C 0.30635 0.06432 0.52353 0.0
C207 C 0.31061 0.08635 0.47855 0.0
C208 C 0.3222 0.08748 0.41949 0.0
C209 C 0.3297 0.06655 0.40433 0.0
C210 C 0.32386 0.044 0.44759 0.0
C211 C 0.31219 0.04288 0.50649 0.0
C212 C 0.26635 0.05628 0.61857 0.0
C213 C 0.25621 0.0681 0.66197 0.0
C214 C 0.2328 0.06091 0.67626 0.0
C215 C 0.21902 0.04133 0.64843 0.0
C216 C 0.22928 0.02946 0.60473 0.0
C217 C 0.2528 0.03689 0.58996 0.0
C218 C 0.31091 0.04501 0.66161 0.0
C219 C 0.33238 0.05499 0.68569 0.0
C220 C 0.34467 0.03956 0.72374 0.0
C221 C 0.33588 0.01373 0.73771 0.0
C222 C 0.31427 0.00373 0.71382 0.0
C223 C 0.30183 0.01931 0.67618 0.0
P224 P 0.42936 0.2019 0.27192 0.0
H225 H 0.412 0.21344 0.13975 0.0
H226 H 0.42465 0.24899 0.05436 0.0
H227 H 0.48675 0.27077 0.16097 0.0
H228 H 0.47435 0.23478 0.24449 0.0
H229 H 0.40981 0.15607 0.35567 0.0
H230 H 0.42717 0.12456 0.41859 0.0
H231 H 0.49133 0.15617 0.31418 0.0
H232 H 0.47374 0.18823 0.25231 0.0
H233 H 0.411 0.2445 0.29496 0.0
H234 H 0.4609 0.20438 0.38321 0.0
O235 O 0.40111 0.19349 0.26253 0.0
H236 H 0.42357 0.2767 0.36488 0.0
H237 H 0.47372 0.23641 0.45149 0.0
C238 C 0.44215 0.22152 0.19877 0.0
C239 C 0.42872 0.22533 0.1435 0.0
C240 C 0.43587 0.2459 0.09503 0.0
C241 C 0.45649 0.26318 0.1014 0.0
C242 C 0.47083 0.25792 0.15398 0.0
C243 C 0.46375 0.23723 0.20202 0.0
C244 C 0.4404 0.1744 0.29894 0.0
C245 C 0.42739 0.15572 0.3446 0.0
C246 C 0.43743 0.13764 0.38076 0.0
C247 C 0.46081 0.13791 0.37222 0.0
C248 C 0.4734 0.15566 0.32296 0.0
C249 C 0.46329 0.17384 0.2868 0.0
C250 C 0.43471 0.22182 0.33433 0.0
C251 C 0.42421 0.24227 0.33051 0.0
C252 C 0.4316 0.26078 0.36991 0.0
C253 C 0.44974 0.25918 0.4135 0.0
C254 C 0.4595 0.23808 0.41917 0.0
C255 C 0.45213 0.21964 0.3798 0.0
Nd256 Nd 0.00385 1.00017 0.78291 0.0
Nd257 Nd 0.0331 0.02413 0.88392 0.0
C258 C 0.97186 0.97274 0.71816 0.0
C259 C 0.96825 0.94703 0.70362 0.0
C260 C 0.94787 0.93613 0.67512 0.0
C261 C 0.94492 0.91201 0.65891 0.0
C262 C 0.96233 0.8984 0.671 0.0
C263 C 0.98259 0.90939 0.70062 0.0
C264 C 0.98549 0.93343 0.71678 0.0
C265 C 0.04983 0.00784 0.75569 0.0
C266 C 0.0182 0.96369 0.9082 0.0
C267 C 0.06274 0.04427 0.9674 0.0
C268 C 0.06772 0.06897 0.9888 0.0
C269 C 0.08653 0.07586 0.02852 0.0
C270 C 0.09094 0.09926 0.0496 0.0
C271 C 0.07648 0.11605 0.03154 0.0
C272 C 0.05779 0.1091 0.99109 0.0
C273 C 0.05352 0.08584 0.96972 0.0
C274 C 0.98906 0.03214 0.88215 0.0
C275 C 0.0248 0.05808 0.75103 0.0
O276 O 0.96954 0.97518 0.77951 0.0
O277 O 0.98982 0.98816 0.69009 0.0
O278 O 0.03462 0.01098 0.71158 0.0
O279 O 0.04068 1.00014 0.81165 0.0
O280 O 0.00999 0.96512 0.84843 0.0
O281 O 0.02704 0.98373 0.93467 0.0
O282 O 0.06805 0.04387 0.90634 0.0
O283 O 0.04263 0.0303 0.98515 0.0
O284 O 0.00717 0.04909 0.88823 0.0
O285 O 0.99446 0.01173 0.8775 0.0
O286 O 0.04075 0.05277 0.792 0.0
O287 O 0.0052 0.04192 0.74793 0.0
H288 H 0.93435 0.94635 0.66481 0.0
H289 H 0.92902 0.90405 0.63684 0.0
H290 H 0.99654 0.89973 0.70967 0.0
H291 H 0.00141 0.94158 0.7385 0.0
H292 H 0.0977 0.06309 0.04359 0.0
H293 H 0.10537 0.10401 0.08113 0.0
H294 H 0.04653 0.12173 0.97561 0.0
H295 H 0.03906 0.08098 0.93847 0.0
Nd296 Nd 0.53184 0.98857 0.81153 0.0
Nd297 Nd 0.51574 0.02914 0.88557 0.0
C298 C 0.54589 0.95235 0.76559 0.0
C299 C 0.56535 0.95227 0.72189 0.0
C300 C 0.58527 0.9453 0.74832 0.0
C301 C 0.60482 0.94828 0.70901 0.0
C302 C 0.60482 0.9581 0.64223 0.0
C303 C 0.58452 0.96386 0.61512 0.0
C304 C 0.56502 0.96099 0.65443 0.0
C305 C 0.52572 0.03138 0.73403 0.0
C306 C 0.56972 0.03529 0.84981 0.0
C307 C 0.49743 0.0659 0.91257 0.0
C308 C 0.47909 0.06757 0.95748 0.0
C309 C 0.48 0.08952 0.98432 0.0
C310 C 0.4631 0.09093 0.02895 0.0
C311 C 0.44493 0.0704 0.04733 0.0
C312 C 0.44401 0.04848 0.01982 0.0
C313 C 0.46097 0.04704 0.97556 0.0
C314 C 0.52709 0.99181 0.97583 0.0
C315 C 0.4781 0.97899 0.86346 0.0
O316 O 0.55131 0.95841 0.82373 0.0
O317 O 0.52926 0.96236 0.7392 0.0
O318 O 0.54167 0.0197 0.72356 0.0
O319 O 0.51343 0.01982 0.7825 0.0
O320 O 0.56564 0.01159 0.84154 0.0
O321 O 0.55317 0.0473 0.85645 0.0
O322 O 0.49101 0.05364 0.8635 0.0
O323 O 0.5161 0.06081 0.94019 0.0
O324 O 0.51976 0.01052 0.99217 0.0
O325 O 0.52775 0.99377 0.91449 0.0
O326 O 0.48245 1.00035 0.88692 0.0
O327 O 0.49369 0.9704 0.83387 0.0
H328 H 0.586 0.93829 0.79995 0.0
H329 H 0.62008 0.94331 0.73116 0.0
H330 H 0.58397 0.97166 0.56401 0.0
H331 H 0.54997 0.96646 0.63221 0.0
H332 H 0.49389 0.10552 0.97109 0.0
H333 H 0.46419 0.10814 0.04885 0.0
H334 H 0.43044 0.03222 0.03363 0.0
H335 H 0.46005 0.02979 0.95599 0.0
Nd336 Nd 0.49565 0.5003 0.89888 0.0
Nd337 Nd 0.52521 0.49099 0.79325 0.0
C338 C 0.466 0.51677 0.96536 0.0
C339 C 0.46618 0.5404 0.98914 0.0
C340 C 0.4482 0.54275 0.02878 0.0
C341 C 0.44906 0.56492 0.05432 0.0
C342 C 0.46796 0.585 0.04038 0.0
C343 C 0.48562 0.58268 0.999 0.0
C344 C 0.4848 0.56051 0.97402 0.0
C345 C 0.53794 0.49418 0.94161 0.0
C346 C 0.52862 0.54791 0.8051 0.0
C347 C 0.54998 0.47191 0.71814 0.0
C348 C 0.54222 0.44899 0.68942 0.0
C349 C 0.5569 0.43978 0.65184 0.0
C350 C 0.54867 0.41793 0.62466 0.0
C351 C 0.5257 0.40506 0.63519 0.0
C352 C 0.51121 0.41447 0.67319 0.0
C353 C 0.51938 0.43619 0.69992 0.0
C354 C 0.48162 0.49524 0.75569 0.0
C355 C 0.49484 0.44326 0.89179 0.0
O356 O 0.46556 0.51757 0.90173 0.0
O357 O 0.4806 0.50412 0.99314 0.0
O358 O 0.5194 0.48673 0.97722 0.0
O359 O 0.53431 0.50628 0.88716 0.0
O360 O 0.50947 0.5394 0.84009 0.0
O361 O 0.54086 0.5325 0.78862 0.0
O362 O 0.55118 0.46861 0.78201 0.0
O363 O 0.53972 0.48996 0.69586 0.0
O364 O 0.49966 0.50513 0.71954 0.0
O365 O 0.48684 0.48321 0.80793 0.0
O366 O 0.51352 0.45207 0.85508 0.0
O367 O 0.48213 0.45826 0.90783 0.0
H368 H 0.43374 0.5273 0.04104 0.0
H369 H 0.43532 0.56602 0.08661 0.0
H370 H 0.50024 0.5979 0.98648 0.0
H371 H 0.4989 0.55892 0.94379 0.0
H372 H 0.57459 0.44947 0.6434 0.0
H373 H 0.56025 0.41103 0.59582 0.0
H374 H 0.49335 0.40534 0.68117 0.0
H375 H 0.50774 0.44318 0.72839 0.0
Nd376 Nd 0.9977 0.52258 0.78278 0.0
Nd377 Nd 0.01557 0.48082 0.8818 0.0
C378 C 0.97215 0.55107 0.71844 0.0
C379 C 0.95274 0.54319 0.67623 0.0
C380 C 0.93721 0.55844 0.65631 0.0
C381 C 0.91869 0.5501 0.61674 0.0
C382 C 0.91563 0.52648 0.59648 0.0
C383 C 0.93115 0.51126 0.61747 0.0
C384 C 0.94945 0.51951 0.65693 0.0
C385 C 0.01717 0.49011 0.7264 0.0
C386 C 0.96167 0.46986 0.84523 0.0
C387 C 0.03754 0.44607 0.93141 0.0
C388 C 0.0555 0.44574 0.98072 0.0
C389 C 0.06179 0.42336 1.00627 0.0
C390 C 0.0782 0.42302 0.05538 0.0
C391 C 0.08856 0.4451 0.07968 0.0
C392 C 0.08228 0.46752 0.05322 0.0
C393 C 0.0659 0.46782 1.00426 0.0
C394 C 0.00559 0.51708 0.94886 0.0
C395 C 0.04968 0.53496 0.82644 0.0
O396 O 0.96888 0.5422 0.78067 0.0
O397 O 0.9921 0.54932 0.69652 0.0
O398 O 0.01869 0.51328 0.70179 0.0
O399 O 0.00424 0.48422 0.7766 0.0
O400 O 0.96523 0.4923 0.8101 0.0
O401 O 0.97836 0.46032 0.87436 0.0
O402 O 0.04366 0.46083 0.87604 0.0
O403 O 0.01751 0.44757 0.95359 0.0
O404 O 0.01291 0.49784 0.97736 0.0
O405 O 0.00399 0.51587 0.88882 0.0
O406 O 0.04744 0.51072 0.84548 0.0
O407 O 0.03217 0.54548 0.80917 0.0
H408 H 0.9394 0.5767 0.67124 0.0
H409 H 0.90699 0.56222 0.60123 0.0
H410 H 0.92901 0.49278 0.60392 0.0
H411 H 0.9611 0.50731 0.67254 0.0
H412 H 0.05388 0.40615 0.98864 0.0
H413 H 0.08283 0.4055 0.07418 0.0
H414 H 0.08961 0.48478 0.0714 0.0
H415 H 0.06111 0.48526 0.98534 0.0
H416 H 0.18323 0.02663 0.56779 0.0
H417 H 0.19826 0.03837 0.76759 0.0
H418 H 0.14243 0.01615 0.59466 0.0
H419 H 0.15759 0.02962 0.79324 0.0
H420 H 0.08289 0.99349 0.83598 0.0
H421 H 0.12357 0.99881 0.81016 0.0
H422 H 0.11291 0.03629 0.61685 0.0
H423 H 0.07223 0.02996 0.64207 0.0
C424 C 0.17788 0.02688 0.6175 0.0
C425 C 0.19411 0.03359 0.66528 0.0
C426 C 0.15443 0.02121 0.63274 0.0
C427 C 0.1466 0.02229 0.69602 0.0
C428 C 0.16288 0.02837 0.74415 0.0
C429 C 0.18629 0.03379 0.7291 0.0
C430 C 0.08932 1.00276 0.78796 0.0
C431 C 0.07446 0.01124 0.74092 0.0
C432 C 0.11264 0.00594 0.77317 0.0
C433 C 0.12162 0.01796 0.71126 0.0
C434 C 0.10662 0.02649 0.66448 0.0
C435 C 0.0833 0.02305 0.67906 0.0
H436 H 0.5037 0.14921 0.42422 0.0
H437 H 0.4438 0.08946 0.42819 0.0
H438 H 0.52054 0.12422 0.51091 0.0
H439 H 0.46042 0.06496 0.51653 0.0
H440 H 0.48429 0.0447 0.72668 0.0
H441 H 0.46973 0.07014 0.63576 0.0
H442 H 0.53474 0.08328 0.53399 0.0
H443 H 0.54931 0.05759 0.62495 0.0
C444 C 0.49427 0.1306 0.44253 0.0
C445 C 0.47228 0.12146 0.41917 0.0
C446 C 0.50389 0.11638 0.49263 0.0
C447 C 0.49165 0.09282 0.52106 0.0
C448 C 0.47005 0.08328 0.49635 0.0
C449 C 0.46055 0.09735 0.44573 0.0
C450 C 0.49556 0.05325 0.68527 0.0
C451 C 0.51792 0.04915 0.68278 0.0
C452 C 0.48716 0.06761 0.63298 0.0
C453 C 0.50102 0.07844 0.5775 0.0
C454 C 0.52369 0.07515 0.57614 0.0
C455 C 0.53201 0.06048 0.62813 0.0
H456 H 0.33996 0.45126 0.65211 0.0
H457 H 0.34987 0.53107 0.64273 0.0
H458 H 0.38034 0.45374 0.67756 0.0
H459 H 0.3905 0.53352 0.66816 0.0
H460 H 0.46719 0.5244 0.65207 0.0
H461 H 0.42754 0.52394 0.61809 0.0
H462 H 0.40321 0.46592 0.77977 0.0
H463 H 0.4426 0.46661 0.81418 0.0
C464 C 0.35088 0.46939 0.65429 0.0
C465 C 0.3418 0.49099 0.6453 0.0
C466 C 0.37392 0.47076 0.66945 0.0
C467 C 0.38844 0.49379 0.67519 0.0
C468 C 0.37964 0.51555 0.66378 0.0
C469 C 0.35644 0.51414 0.64954 0.0
C470 C 0.45331 0.51162 0.68027 0.0
C471 C 0.45789 0.49546 0.73549 0.0
C472 C 0.4307 0.51143 0.66102 0.0
C473 C 0.4124 0.49477 0.69607 0.0
C474 C 0.41704 0.47873 0.75147 0.0
C475 C 0.43955 0.47921 0.77128 0.0
H476 H 0.04023 0.36624 0.54043 0.0
H477 H 0.10446 0.42007 0.51589 0.0
H478 H 0.02402 0.39425 0.59784 0.0
H479 H 0.08854 0.44768 0.57489 0.0
H480 H 0.04481 0.50164 0.61888 0.0
H481 H 0.06036 0.47356 0.56105 0.0
H482 H 0.0279 0.41114 0.70274 0.0
H483 H 0.01193 0.43947 0.76037 0.0
C484 C 0.05081 0.38415 0.54675 0.0
C485 C 0.07361 0.39096 0.5235 0.0
C486 C 0.04163 0.40002 0.58048 0.0
C487 C 0.05502 0.42313 0.59133 0.0
C488 C 0.0777 0.4301 0.56702 0.0
C489 C 0.08688 0.41421 0.53356 0.0
C490 C 0.04101 0.48192 0.63782 0.0
C491 C 0.02711 0.4727 0.694 0.0
C492 C 0.05003 0.46584 0.60483 0.0
C493 C 0.04538 0.4401 0.62718 0.0
C494 C 0.03156 0.43085 0.6838 0.0
C495 C 0.02255 0.44703 0.71705 0.0
H496 H 0.86459 0.08259 0.9565 0.0
H497 H 0.86691 0.02085 0.10872 0.0
H498 H 0.89778 0.07474 0.90267 0.0
H499 H 0.90003 0.01284 0.05422 0.0
H500 H 0.9507 0.99527 0.91271 0.0
H501 H 0.91366 1.0 0.95273 0.0
H502 H 0.93864 0.07977 0.93105 0.0
H503 H 0.97539 0.07503 0.89112 0.0
C504 C 0.87218 0.06733 0.97853 0.0
C505 C 0.86328 0.05258 0.03752 0.0
C506 C 0.89114 0.06279 0.94749 0.0
C507 C 0.90163 0.0433 0.97444 0.0
C508 C 0.89219 0.02786 0.03191 0.0
C509 C 0.87323 0.03247 0.06318 0.0
C510 C 0.94809 0.0138 0.91576 0.0
C511 C 0.9659 0.03479 0.89922 0.0
C512 C 0.92699 0.0165 0.93902 0.0
C513 C 0.92326 0.04025 0.94527 0.0
C514 C 0.94086 0.06125 0.92623 0.0
C515 C 0.96196 0.05854 0.90366 0.0
H516 H 0.56222 0.90018 0.32621 0.0
H517 H 0.53684 0.84864 0.19108 0.0
H518 H 0.56119 0.93509 0.24003 0.0
H519 H 0.53523 0.88334 0.10553 0.0
H520 H 0.54473 0.95214 0.9513 0.0
H521 H 0.55415 0.91885 0.03173 0.0
H522 H 0.53163 0.95276 0.18757 0.0
H523 H 0.52308 0.98611 0.10762 0.0
C524 C 0.55664 0.89634 0.2779 0.0
C525 C 0.54954 0.87167 0.26557 0.0
C526 C 0.55591 0.91631 0.22855 0.0
C527 C 0.54779 0.91209 0.1659 0.0
C528 C 0.5418 0.88739 0.15279 0.0
C529 C 0.54273 0.86744 0.20197 0.0
C530 C 0.54199 0.95245 1.00277 0.0
C531 C 0.53316 0.97164 0.02319 0.0
C532 C 0.54729 0.93338 0.04892 0.0
C533 C 0.54376 0.93311 0.11639 0.0
C534 C 0.53508 0.95254 0.13636 0.0
C535 C 0.52993 0.97158 0.09039 0.0
H536 H 0.63782 0.42104 0.1444 0.0
H537 H 0.67915 0.47353 0.99558 0.0
H538 H 0.60395 0.43606 0.10509 0.0
H539 H 0.64555 0.48994 0.95813 0.0
H540 H 0.576 0.49649 0.86685 0.0
H541 H 0.61104 0.48287 0.90302 0.0
H542 H 0.58555 0.46848 0.10308 0.0
H543 H 0.55012 0.48023 0.06584 0.0
C544 C 0.63961 0.4361 0.10372 0.0
C545 C 0.66098 0.44622 0.07308 0.0
C546 C 0.62026 0.44492 0.08136 0.0
C547 C 0.6219 0.46453 0.02871 0.0
C548 C 0.64345 0.47464 0.99814 0.0
C549 C 0.66275 0.46539 0.01974 0.0
C550 C 0.57801 0.49037 0.91845 0.0
C551 C 0.56027 0.48901 0.96343 0.0
C552 C 0.59816 0.48273 0.93943 0.0
C553 C 0.60114 0.47413 1.00609 0.0
C554 C 0.5837 0.47411 0.05117 0.0
C555 C 0.56343 0.48113 0.02997 0.0
H556 H 0.97804 0.60837 0.23554 0.0
H557 H 0.00368 0.65966 0.06179 0.0
H558 H 0.97556 0.57345 0.1744 0.0
H559 H 0.00235 0.62491 1.0017 0.0
H560 H 0.9887 0.55779 0.89651 0.0
H561 H 0.98096 0.59085 0.95382 0.0
H562 H 0.0033 0.55385 0.13466 0.0
H563 H 0.0102 0.52069 0.07784 0.0
C564 C 0.98279 0.61222 0.18407 0.0
C565 C 0.9914 0.63677 0.15384 0.0
C566 C 0.98166 0.59219 0.14916 0.0
C567 C 0.98915 0.59628 0.08332 0.0
C568 C 0.99635 0.62096 0.05213 0.0
C569 C 0.99737 0.64093 0.08688 0.0
C570 C 0.99169 0.5567 0.94862 0.0
C571 C 9e-05 0.53677 0.98275 0.0
C572 C 0.98736 0.57565 0.98147 0.0
C573 C 0.99147 0.57507 0.04903 0.0
C574 C -0.00051 0.55476 0.08303 0.0
C575 C 0.00368 0.53584 0.05031 0.0
H576 H 0.03917 0.20721 0.51943 0.0
H577 H 0.09551 0.20747 0.65314 0.0
H578 H 0.02331 0.16345 0.56283 0.0
H579 H 0.07969 0.16408 0.69661 0.0
H580 H 0.06566 0.08227 0.69864 0.0
H581 H 0.07671 0.1256 0.64906 0.0
H582 H 0.00661 0.13344 0.66357 0.0
H583 H 0.99539 0.08935 0.71277 0.0
C584 C 0.04791 0.19805 0.5589 0.0
C585 C 0.06873 0.21061 0.58243 0.0
C586 C 0.03885 0.17303 0.5836 0.0
C587 C 0.0505 0.16023 0.63213 0.0
C588 C 0.07064 0.17326 0.65793 0.0
C589 C 0.07968 0.19812 0.63323 0.0
C590 C 0.05252 0.09313 0.69037 0.0
C591 C 0.02974 0.08265 0.71002 0.0
C592 C 0.05888 0.11799 0.66247 0.0
C593 C 0.04265 0.13309 0.65415 0.0
C594 C 0.01949 0.12223 0.66978 0.0
C595 C 0.01305 0.09706 0.69756 0.0
H596 H 0.36028 0.02114 0.848 0.0
H597 H 0.34415 0.96996 0.7072 0.0
H598 H 0.39041 1.00067 0.89126 0.0
H599 H 0.3739 0.94845 0.75252 0.0
H600 H 0.44635 0.97061 0.96116 0.0
H601 H 0.4054 0.96746 0.94487 0.0
H602 H 0.41443 0.96049 0.74156 0.0
H603 H 0.45501 0.96215 0.75943 0.0
C604 C 0.36281 0.00501 0.82751 0.0
C605 C 0.35022 0.9975 0.77336 0.0
C606 C 0.37993 0.99295 0.85293 0.0
C607 C 0.38485 0.97294 0.82503 0.0
C608 C 0.37083 0.96401 0.77454 0.0
C609 C 0.35365 0.9762 0.74892 0.0
C610 C 0.43926 0.96704 0.914 0.0
C611 C 0.45375 0.96691 0.86129 0.0
C612 C 0.41586 0.96557 0.90433 0.0
C613 C 0.40672 0.96474 0.84128 0.0
C614 C 0.42077 0.96121 0.79079 0.0
C615 C 0.44412 0.96211 0.80095 0.0
H616 H 0.4647 0.25702 0.53993 0.0
H617 H 0.45809 0.30895 0.36667 0.0
H618 H 0.48465 0.29145 0.59414 0.0
H619 H 0.47707 0.34343 0.42186 0.0
H620 H 0.53311 0.39661 0.51084 0.0
H621 H 0.51497 0.36075 0.45902 0.0
H622 H 0.47808 0.32705 0.63932 0.0
H623 H 0.49696 0.36232 0.69178 0.0
C624 C 0.46735 0.2758 0.51361 0.0
C625 C 0.45981 0.28023 0.44898 0.0
C626 C 0.47863 0.29555 0.54483 0.0
C627 C 0.4826 0.32017 0.51215 0.0
C628 C 0.47463 0.32464 0.44802 0.0
C629 C 0.4634 0.3049 0.41677 0.0
C630 C 0.52147 0.38132 0.5397 0.0
C631 C 0.51637 0.38236 0.60526 0.0
C632 C 0.51082 0.36093 0.50979 0.0
C633 C 0.49486 0.34118 0.54483 0.0
C634 C 0.49035 0.34188 0.61101 0.0
C635 C 0.50101 0.36221 0.64089 0.0
H636 H 0.18126 0.55535 0.65457 0.0
H637 H 0.17844 0.51501 0.85081 0.0
H638 H 0.14948 0.5733 0.68142 0.0
H639 H 0.14549 0.53076 0.87575 0.0
H640 H 0.08199 0.54857 0.91551 0.0
H641 H 0.12326 0.5574 0.89526 0.0
H642 H 0.11094 0.55747 0.68795 0.0
H643 H 0.07015 0.55087 0.7087 0.0
C644 C 0.17417 0.55063 0.70387 0.0
C645 C 0.18198 0.53306 0.7499 0.0
C646 C 0.15564 0.56067 0.71906 0.0
C647 C 0.14417 0.55295 0.7801 0.0
C648 C 0.15358 0.53735 0.82809 0.0
C649 C 0.17237 0.5278 0.81338 0.0
C650 C 0.08838 0.55193 0.86546 0.0
C651 C 0.07313 0.54924 0.81353 0.0
C652 C 0.112 0.5565 0.85372 0.0
C653 C 0.12065 0.55722 0.79015 0.0
C654 C 0.10527 0.55717 0.73761 0.0
C655 C 0.08173 0.55338 0.7493 0.0
H656 H 0.0406 0.84284 0.20147 0.0
H657 H 0.00797 0.80558 0.04395 0.0
H658 H 0.04067 0.88276 0.13647 0.0
H659 H 0.00561 0.84548 0.98207 0.0
H660 H 0.02157 0.92166 0.85908 0.0
H661 H 0.02455 0.88153 0.92014 0.0
H662 H 0.01739 0.90976 0.10169 0.0
H663 H 0.01617 0.9503 0.04024 0.0
C664 C 0.03347 0.84304 0.15294 0.0
C665 C 0.02427 0.82074 0.12836 0.0
C666 C 0.03304 0.8661 0.116 0.0
C667 C 0.02284 0.86758 0.05405 0.0
C668 C 0.01385 0.84529 0.02914 0.0
C669 C 0.01482 0.82223 0.0654 0.0
C670 C 0.02066 0.91918 0.91209 0.0
C671 C 0.01875 0.93904 0.94508 0.0
C672 C 0.02223 0.89611 0.94725 0.0
C673 C 0.02131 0.89221 0.01622 0.0
C674 C 0.01883 0.91209 0.04886 0.0
C675 C 0.01789 0.93532 0.01369 0.0
H676 H 0.70108 0.11895 0.97271 0.0
H677 H 0.70478 0.04186 0.97712 0.0
H678 H 0.6643 0.11109 0.91723 0.0
H679 H 0.66823 0.0339 0.92328 0.0
H680 H 0.586 0.07434 0.91625 0.0
H681 H 0.62569 0.08959 0.94515 0.0
H682 H 0.64745 0.04051 0.82636 0.0
H683 H 0.60772 0.02456 0.79998 0.0
C684 C 0.69412 0.1004 0.96134 0.0
C685 C 0.70586 0.08105 0.97906 0.0
C686 C 0.67306 0.09588 0.92973 0.0
C687 C 0.66327 0.07187 0.91561 0.0
C688 C 0.67541 0.05277 0.93184 0.0
C689 C 0.69643 0.05731 0.96295 0.0
C690 C 0.59934 0.0672 0.89534 0.0
C691 C 0.59378 0.04798 0.85683 0.0
C692 C 0.62213 0.07601 0.91166 0.0
C693 C 0.63977 0.06596 0.88905 0.0
C694 C 0.63425 0.04817 0.84614 0.0
C695 C 0.61149 0.03911 0.83071 0.0
H696 H 0.45292 0.68991 0.29986 0.0
H697 H 0.51641 0.7235 0.19482 0.0
H698 H 0.44541 0.65759 0.22862 0.0
H699 H 0.50882 0.69159 0.12314 0.0
H700 H 0.50617 0.61094 0.09222 0.0
H701 H 0.50984 0.64744 0.14646 0.0
H702 H 0.43804 0.64696 0.11614 0.0
H703 H 0.43434 0.61021 0.06085 0.0
C704 C 0.46494 0.69071 0.26045 0.0
C705 C 0.4854 0.70888 0.25331 0.0
C706 C 0.46065 0.67227 0.21967 0.0
C707 C 0.47674 0.67183 0.17106 0.0
C708 C 0.49638 0.69111 0.16116 0.0
C709 C 0.5007 0.70939 0.20199 0.0
C710 C 0.49122 0.61884 0.09588 0.0
C711 C 0.47 0.60776 0.07174 0.0
C712 C 0.49333 0.6398 0.12702 0.0
C713 C 0.47427 0.65023 0.13501 0.0
C714 C 0.453 0.63924 0.11092 0.0
C715 C 0.45088 0.6182 0.07944 0.0
H716 H 0.82633 0.38065 0.98556 0.0
H717 H 0.83105 0.45928 0.98999 0.0
H718 H 0.86379 0.39043 0.93005 0.0
H719 H 0.86754 0.46879 0.93231 0.0
H720 H 0.92353 0.48185 0.78609 0.0
H721 H 0.8839 0.4651 0.82095 0.0
H722 H 0.90528 0.4103 0.96517 0.0
H723 H 0.94521 0.42708 0.93066 0.0
C724 C 0.83517 0.39996 0.97443 0.0
C725 C 0.82548 0.41915 0.9922 0.0
C726 C 0.85653 0.40551 0.94232 0.0
C727 C 0.86838 0.43035 0.92635 0.0
C728 C 0.85853 0.44949 0.94278 0.0
C729 C 0.83748 0.44398 0.97566 0.0
C730 C 0.91986 0.46592 0.82441 0.0
C731 C 0.93763 0.45614 0.85658 0.0
C732 C 0.89712 0.45636 0.8443 0.0
C733 C 0.89162 0.43671 0.89638 0.0
C734 C 0.9091 0.42546 0.92479 0.0
C735 C 0.93195 0.43513 0.90511 0.0
H736 H 0.12995 0.24014 0.2378 0.0
H737 H 0.06708 0.25762 0.15802 0.0
H738 H 0.12439 0.20415 0.18081 0.0
H739 H 0.06163 0.22162 0.09956 0.0
H740 H 0.04496 0.13789 0.08114 0.0
H741 H 0.05161 0.17725 0.12458 0.0
H742 H 0.12385 0.18921 0.07881 0.0
H743 H 0.11716 0.14948 0.03672 0.0
C744 C 0.11522 0.23669 0.20659 0.0
C745 C 0.099 0.25185 0.2023 0.0
C746 C 0.11201 0.21595 0.17384 0.0
C747 C 0.09252 0.20983 0.13559 0.0
C748 C 0.07665 0.22549 0.12948 0.0
C749 C 0.07981 0.24621 0.16268 0.0
C750 C 0.06222 0.14906 0.07978 0.0
C751 C 0.08055 0.14052 0.05577 0.0
C752 C 0.06604 0.17172 0.10443 0.0
C753 C 0.08829 0.1865 0.10531 0.0
C754 C 0.10655 0.17815 0.07998 0.0
C755 C 0.10274 0.15539 0.0558 0.0
H756 H 0.32961 0.03237 0.3206 0.0
H757 H 0.36483 0.10536 0.35787 0.0
H758 H 0.35705 0.03432 0.23302 0.0
H759 H 0.39151 0.10787 0.26819 0.0
H760 H 0.45151 0.08988 0.1621 0.0
H761 H 0.42289 0.09009 0.24462 0.0
H762 H 0.36975 0.05389 0.12526 0.0
H763 H 0.3985 0.05338 0.04322 0.0
C764 C 0.34306 0.04894 0.30974 0.0
C765 C 0.34498 0.06866 0.34652 0.0
C766 C 0.35867 0.05019 0.25895 0.0
C767 C 0.37658 0.07123 0.24347 0.0
C768 C 0.37814 0.09122 0.2792 0.0
C769 C 0.36259 0.08993 0.33011 0.0
C770 C 0.43368 0.08223 0.15315 0.0
C771 C 0.4273 0.07155 0.09618 0.0
C772 C 0.41723 0.08238 0.20045 0.0
C773 C 0.39395 0.07196 0.19178 0.0
C774 C 0.38754 0.06168 0.13417 0.0
C775 C 0.40402 0.06141 0.08705 0.0
H776 H 0.49838 0.29075 0.05323 0.0
H777 H 0.42632 0.29213 0.05431 0.0
H778 H 0.50701 0.33368 0.99796 0.0
H779 H 0.43483 0.3344 0.9961 0.0
H780 H 0.51389 0.40617 0.857 0.0
H781 H 0.504 0.36175 0.89896 0.0
H782 H 0.45152 0.37467 0.02321 0.0
H783 H 0.461 0.41888 0.98015 0.0
C784 C 0.48434 0.30003 0.04089 0.0
C785 C 0.46166 0.2879 0.05873 0.0
C786 C 0.48927 0.32461 0.00855 0.0
C787 C 0.47163 0.33765 0.9931 0.0
C788 C 0.44889 0.32512 0.00825 0.0
C789 C 0.44397 0.30064 0.04077 0.0
C790 C 0.50016 0.39951 0.89308 0.0
C791 C 0.48827 0.41613 0.91538 0.0
C792 C 0.49456 0.37403 0.91734 0.0
C793 C 0.47697 0.36456 0.96457 0.0
C794 C 0.46491 0.38118 0.98611 0.0
C795 C 0.47044 0.40662 0.96169 0.0
H796 H 0.14976 0.43749 0.46299 0.0
H797 H 0.2083 0.46391 0.33182 0.0
H798 H 0.12454 0.43391 0.36964 0.0
H799 H 0.18303 0.46028 0.23818 0.0
H800 H 0.12821 0.47933 0.09227 0.0
H801 H 0.15437 0.48039 0.1839 0.0
H802 H 0.11375 0.41072 0.27971 0.0
H803 H 0.087 0.41023 0.18924 0.0
C804 C 0.1573 0.44222 0.4142 0.0
C805 C 0.18108 0.45102 0.40493 0.0
C806 C 0.14282 0.44015 0.36059 0.0
C807 C 0.15174 0.44684 0.2963 0.0
C808 C 0.17555 0.45534 0.28701 0.0
C809 C 0.19004 0.45743 0.34068 0.0
C810 C 0.12479 0.46429 0.13301 0.0
C811 C 0.10541 0.44478 0.13352 0.0
C812 C 0.13996 0.46474 0.18524 0.0
C813 C 0.13617 0.44566 0.2393 0.0
C814 C 0.11704 0.42587 0.23923 0.0
C815 C 0.10185 0.42543 0.18696 0.0
H816 H 0.00611 0.77616 0.5492 0.0
H817 H 0.93639 0.76336 0.48071 0.0
H818 H -0.00125 0.80883 0.60625 0.0
H819 H 0.92932 0.79695 0.5368 0.0
H820 H 0.94345 0.88264 0.55845 0.0
H821 H 0.94365 0.84339 0.51897 0.0
H822 H 0.97662 0.81832 0.69609 0.0
H823 H 0.97613 0.85741 0.73621 0.0
C824 C 0.98898 0.77975 0.5476 0.0
C825 C 0.97186 0.7669 0.51002 0.0
C826 C 0.98481 0.79869 0.58026 0.0
C827 C 0.96348 0.80558 0.57589 0.0
C828 C 0.94603 0.79225 0.54044 0.0
C829 C 0.95013 0.77303 0.5082 0.0
C830 C 0.95024 0.86856 0.58976 0.0
C831 C 0.96003 0.87337 0.65023 0.0
C832 C 0.95035 0.84602 0.56707 0.0
C833 C 0.96032 0.82782 0.60416 0.0
C834 C 0.96913 0.83214 0.66591 0.0
C835 C 0.96893 0.85459 0.68875 0.0
H836 H 0.72476 0.04601 0.4376 0.0
H837 H 0.71494 0.97869 0.34914 0.0
H838 H 0.69393 0.02636 0.51553 0.0
H839 H 0.68368 0.95912 0.42698 0.0
H840 H 0.61014 0.95054 0.51552 0.0
H841 H 0.64444 0.96481 0.4459 0.0
H842 H 0.68235 0.99315 0.60836 0.0
H843 H 0.64793 0.97955 0.67737 0.0
C844 C 0.7164 0.02682 0.43557 0.0
C845 C 0.72242 0.01398 0.38687 0.0
C846 C 0.69862 0.01555 0.48031 0.0
C847 C 0.6863 0.99118 0.47741 0.0
C848 C 0.69266 0.97804 0.42994 0.0
C849 C 0.71057 0.98928 0.38532 0.0
C850 C 0.62583 0.9597 0.53643 0.0
C851 C 0.62625 0.96404 0.60189 0.0
C852 C 0.64555 0.96766 0.49673 0.0
C853 C 0.6661 0.98024 0.5215 0.0
C854 C 0.66672 0.98375 0.5876 0.0
C855 C 0.64705 0.97571 0.62735 0.0
H856 H 0.54238 0.70916 0.73723 0.0
H857 H 0.56037 0.6889 0.55402 0.0
H858 H 0.54314 0.6673 0.79222 0.0
H859 H 0.56065 0.64691 0.6084 0.0
H860 H 0.56597 0.57324 0.72853 0.0
H861 H 0.57584 0.61785 0.68699 0.0
H862 H 0.5169 0.62842 0.78924 0.0
H863 H 0.50737 0.58437 0.83128 0.0
C864 C 0.54692 0.69587 0.70901 0.0
C865 C 0.55112 0.70225 0.64125 0.0
C866 C 0.54721 0.67184 0.74034 0.0
C867 C 0.55148 0.65353 0.70453 0.0
C868 C 0.55741 0.66051 0.63769 0.0
C869 C 0.55729 0.68464 0.60643 0.0
C870 C 0.5553 0.58517 0.74271 0.0
C871 C 0.53583 0.57514 0.78314 0.0
C872 C 0.56092 0.61074 0.7187 0.0
C873 C 0.54722 0.62682 0.7348 0.0
C874 C 0.52814 0.61679 0.77669 0.0
C875 C 0.52254 0.59135 0.8005 0.0
H876 H 0.82396 0.42785 0.38005 0.0
H877 H 0.79065 0.49025 0.36763 0.0
H878 H 0.85409 0.44893 0.44501 0.0
H879 H 0.82148 0.51187 0.43102 0.0
H880 H 0.87039 0.52889 0.60626 0.0
H881 H 0.83848 0.50993 0.54158 0.0
H882 H 0.88595 0.48464 0.42539 0.0
H883 H 0.91758 0.50337 0.48985 0.0
C884 C 0.82293 0.44599 0.3917 0.0
C885 C 0.80482 0.45731 0.36872 0.0
C886 C 0.84041 0.45825 0.42819 0.0
C887 C 0.84034 0.48221 0.44257 0.0
C888 C 0.822 0.49339 0.42091 0.0
C889 C 0.80446 0.4811 0.38417 0.0
C890 C 0.87397 0.51957 0.56628 0.0
C891 C 0.89644 0.51734 0.55365 0.0
C892 C 0.85572 0.5087 0.52931 0.0
C893 C 0.85964 0.49544 0.47904 0.0
C894 C 0.88226 0.49417 0.46484 0.0
C895 C 0.9004 0.50496 0.50168 0.0
loop_
_geom_bond_atom_site_label_1
_geom_bond_atom_site_label_2
_geom_bond_distance
_geom_bond_site_symmetry_2
_ccdc_geom_bond_type
P0 O11 1.490 . S
P0 C14 1.812 . S
P0 C20 1.803 . S
P0 C26 1.819 . S
H1 C15 0.941 . S
H2 C16 0.939 . S
H3 C18 0.940 . S
H4 C19 0.940 . S
H5 C21 0.939 . S
H6 C22 0.942 1_556 S
H7 C24 0.940 . S
H8 C25 0.939 . S
H9 C27 0.941 . S
H10 C31 0.939 . S
O11 P0 1.490 . S
H12 C28 0.939 . S
H13 C30 0.940 . S
C14 P0 1.812 . S
C14 C15 1.389 . S
C14 C19 1.391 . S
C15 H1 0.941 . S
C15 C14 1.389 . S
C15 C16 1.397 . S
C16 H2 0.939 . S
C16 C15 1.397 . S
C16 C17 1.378 . S
C17 C16 1.378 . S
C17 C18 1.378 . S
C18 H3 0.940 . S
C18 C17 1.378 . S
C18 C19 1.396 . S
C19 H4 0.940 . S
C19 C14 1.391 . S
C19 C18 1.396 . S
C20 P0 1.803 . S
C20 C21 1.378 . S
C20 C25 1.400 . S
C21 H5 0.939 . S
C21 C20 1.378 . S
C21 C22 1.361 . S
C22 H6 0.942 1_554 S
C22 C21 1.361 . S
C22 C23 1.369 . S
C23 C22 1.369 . S
C23 C24 1.404 . S
C24 H7 0.940 . S
C24 C23 1.404 . S
C24 C25 1.389 . S
C25 H8 0.939 . S
C25 C20 1.400 . S
C25 C24 1.389 . S
C26 P0 1.819 . S
C26 C27 1.391 . S
C26 C31 1.391 1_554 S
C27 H9 0.941 . S
C27 C26 1.391 . S
C27 C28 1.396 1_554 S
C28 H12 0.939 . S
C28 C27 1.396 1_556 S
C28 C29 1.397 . S
C29 C28 1.397 . S
C29 C30 1.385 . S
C30 H13 0.940 . S
C30 C29 1.385 . S
C30 C31 1.388 . S
C31 H10 0.939 . S
C31 C26 1.391 1_556 S
C31 C30 1.388 . S
P32 O43 1.490 . S
P32 C46 1.812 . S
P32 C52 1.803 . S
P32 C58 1.819 . S
H33 C47 0.941 . S
H34 C48 0.939 . S
H35 C50 0.940 . S
H36 C51 0.940 . S
H37 C53 0.939 . S
H38 C54 0.942 . S
H39 C56 0.940 . S
H40 C57 0.939 . S
H41 C59 0.941 . S
H42 C63 0.939 . S
O43 P32 1.490 . S
H44 C60 0.939 . S
H45 C62 0.940 . S
C46 P32 1.812 . S
C46 C47 1.389 . S
C46 C51 1.391 . S
C47 H33 0.941 . S
C47 C46 1.389 . S
C47 C48 1.397 . S
C48 H34 0.939 . S
C48 C47 1.397 . S
C48 C49 1.378 . S
C49 C48 1.378 . S
C49 C50 1.378 . S
C50 H35 0.940 . S
C50 C49 1.378 . S
C50 C51 1.396 . S
C51 H36 0.940 . S
C51 C46 1.391 . S
C51 C50 1.396 . S
C52 P32 1.803 . S
C52 C53 1.378 . S
C52 C57 1.400 . S
C53 H37 0.939 . S
C53 C52 1.378 . S
C53 C54 1.361 . S
C54 H38 0.942 . S
C54 C53 1.361 . S
C54 C55 1.369 . S
C55 C54 1.369 . S
C55 C56 1.404 . S
C56 H39 0.940 . S
C56 C55 1.404 . S
C56 C57 1.389 . S
C57 H40 0.939 . S
C57 C52 1.400 . S
C57 C56 1.389 . S
C58 P32 1.819 . S
C58 C59 1.391 . S
C58 C63 1.391 1_554 S
C59 H41 0.941 . S
C59 C58 1.391 . S
C59 C60 1.396 1_554 S
C60 H44 0.939 . S
C60 C59 1.396 1_556 S
C60 C61 1.397 . S
C61 C60 1.397 . S
C61 C62 1.385 . S
C62 H45 0.940 . S
C62 C61 1.385 . S
C62 C63 1.388 . S
C63 H42 0.939 . S
C63 C58 1.391 1_556 S
C63 C62 1.388 . S
P64 O75 1.490 . S
P64 C78 1.812 1_556 S
P64 C84 1.803 . S
P64 C90 1.819 . S
H65 C79 0.941 . S
H66 C80 0.939 . S
H67 C82 0.940 . S
H68 C83 0.952 . S
H69 C85 0.939 . S
H70 C86 0.942 . S
H71 C88 0.940 1_554 S
H72 C89 0.952 . S
H73 C91 0.941 . S
H74 C95 0.923 1_565 S
O75 P64 1.490 . S
H76 C92 0.939 . S
H77 C94 0.940 . S
C78 P64 1.812 1_554 S
C78 C79 1.389 . S
C78 C83 1.377 1_545 S
C79 H65 0.941 . S
C79 C78 1.389 . S
C79 C80 1.397 . S
C80 H66 0.939 . S
C80 C79 1.397 . S
C80 C81 1.378 . S
C81 C80 1.378 . S
C81 C82 1.378 1_545 S
C82 H67 0.940 . S
C82 C81 1.378 1_565 S
C82 C83 1.399 . S
C83 H68 0.952 . S
C83 C78 1.377 1_565 S
C83 C82 1.399 . S
C84 P64 1.803 . S
C84 C85 1.378 . S
C84 C89 1.368 1_546 S
C85 H69 0.939 . S
C85 C84 1.378 . S
C85 C86 1.361 . S
C86 H70 0.942 . S
C86 C85 1.361 . S
C86 C87 1.369 . S
C87 C86 1.369 . S
C87 C88 1.404 1_545 S
C88 H71 0.940 1_556 S
C88 C87 1.404 1_565 S
C88 C89 1.410 1_556 S
C89 H72 0.952 . S
C89 C84 1.368 1_564 S
C89 C88 1.410 1_554 S
C90 P64 1.819 . S
C90 C91 1.391 . S
C90 C95 1.391 . S
C91 H73 0.941 . S
C91 C90 1.391 . S
C91 C92 1.396 . S
C92 H76 0.939 . S
C92 C91 1.396 . S
C92 C93 1.397 . S
C93 C92 1.397 . S
C93 C94 1.385 1_545 S
C94 H77 0.940 . S
C94 C93 1.385 1_565 S
C94 C95 1.388 1_565 S
C95 H74 0.923 1_545 S
C95 C90 1.391 . S
C95 C94 1.388 1_545 S
P96 O107 1.490 . S
P96 C110 1.812 . S
P96 C116 1.803 . S
P96 C122 1.819 . S
H97 C111 0.941 . S
H98 C112 0.939 . S
H99 C114 0.940 . S
H100 C115 0.940 . S
H101 C117 0.939 . S
H102 C118 0.942 . S
H103 C120 0.940 . S
H104 C121 0.939 . S
H105 C123 0.941 . S
H106 C127 0.939 . S
O107 P96 1.490 . S
H108 C124 0.939 . S
H109 C126 0.940 . S
C110 P96 1.812 . S
C110 C111 1.389 . S
C110 C115 1.391 . S
C111 H97 0.941 . S
C111 C110 1.389 . S
C111 C112 1.397 . S
C112 H98 0.939 . S
C112 C111 1.397 . S
C112 C113 1.378 . S
C113 C112 1.378 . S
C113 C114 1.378 . S
C114 H99 0.940 . S
C114 C113 1.378 . S
C114 C115 1.396 . S
C115 H100 0.940 . S
C115 C110 1.391 . S
C115 C114 1.396 . S
C116 P96 1.803 . S
C116 C117 1.378 . S
C116 C121 1.400 . S
C117 H101 0.939 . S
C117 C116 1.378 . S
C117 C118 1.361 . S
C118 H102 0.942 . S
C118 C117 1.361 . S
C118 C119 1.369 . S
C119 C118 1.369 . S
C119 C120 1.404 . S
C120 H103 0.940 . S
C120 C119 1.404 . S
C120 C121 1.389 . S
C121 H104 0.939 . S
C121 C116 1.400 . S
C121 C120 1.389 . S
C122 P96 1.819 . S
C122 C123 1.391 . S
C122 C127 1.391 . S
C123 H105 0.941 . S
C123 C122 1.391 . S
C123 C124 1.396 . S
C124 H108 0.939 . S
C124 C123 1.396 . S
C124 C125 1.397 . S
C125 C124 1.397 . S
C125 C126 1.385 . S
C126 H109 0.940 . S
C126 C125 1.385 . S
C126 C127 1.388 . S
C127 H106 0.939 . S
C127 C122 1.391 . S
C127 C126 1.388 . S
P128 O139 1.490 . S
P128 C142 1.812 . S
P128 C148 1.803 . S
P128 C154 1.819 . S
H129 C143 0.941 . S
H130 C144 0.939 . S
H131 C146 0.940 . S
H132 C147 0.940 . S
H133 C149 0.939 . S
H134 C150 0.942 . S
H135 C152 0.940 . S
H136 C153 0.939 . S
H137 C155 0.941 . S
H138 C159 0.939 . S
O139 P128 1.490 . S
H140 C156 0.939 . S
H141 C158 0.940 . S
C142 P128 1.812 . S
C142 C143 1.389 . S
C142 C147 1.391 . S
C143 H129 0.941 . S
C143 C142 1.389 . S
C143 C144 1.397 . S
C144 H130 0.939 . S
C144 C143 1.397 . S
C144 C145 1.378 . S
C145 C144 1.378 . S
C145 C146 1.378 . S
C146 H131 0.940 . S
C146 C145 1.378 . S
C146 C147 1.396 . S
C147 H132 0.940 . S
C147 C142 1.391 . S
C147 C146 1.396 . S
C148 P128 1.803 . S
C148 C149 1.378 . S
C148 C153 1.400 . S
C149 H133 0.939 . S
C149 C148 1.378 . S
C149 C150 1.361 . S
C150 H134 0.942 . S
C150 C149 1.361 . S
C150 C151 1.369 . S
C151 C150 1.369 . S
C151 C152 1.404 . S
C152 H135 0.940 . S
C152 C151 1.404 . S
C152 C153 1.389 . S
C153 H136 0.939 . S
C153 C148 1.400 . S
C153 C152 1.389 . S
C154 P128 1.819 . S
C154 C155 1.391 . S
C154 C159 1.391 . S
C155 H137 0.941 . S
C155 C154 1.391 . S
C155 C156 1.396 . S
C156 H140 0.939 . S
C156 C155 1.396 . S
C156 C157 1.397 . S
C157 C156 1.397 . S
C157 C158 1.385 . S
C158 H141 0.940 . S
C158 C157 1.385 . S
C158 C159 1.388 . S
C159 H138 0.939 . S
C159 C154 1.391 . S
C159 C158 1.388 . S
P160 O171 1.490 . S
P160 C174 1.812 . S
P160 C180 1.803 . S
P160 C186 1.819 . S
H161 C175 0.941 . S
H162 C176 0.939 . S
H163 C178 0.940 . S
H164 C179 0.940 . S
H165 C181 0.939 . S
H166 C182 0.942 . S
H167 C184 0.940 . S
H168 C185 0.939 . S
H169 C187 0.941 . S
H170 C191 0.939 . S
O171 P160 1.490 . S
H172 C188 0.939 . S
H173 C190 0.940 . S
C174 P160 1.812 . S
C174 C175 1.389 . S
C174 C179 1.391 . S
C175 H161 0.941 . S
C175 C174 1.389 . S
C175 C176 1.397 . S
C176 H162 0.939 . S
C176 C175 1.397 . S
C176 C177 1.378 . S
C177 C176 1.378 . S
C177 C178 1.378 . S
C178 H163 0.940 . S
C178 C177 1.378 . S
C178 C179 1.396 . S
C179 H164 0.940 . S
C179 C174 1.391 . S
C179 C178 1.396 . S
C180 P160 1.803 . S
C180 C181 1.378 . S
C180 C185 1.400 . S
C181 H165 0.939 . S
C181 C180 1.378 . S
C181 C182 1.361 . S
C182 H166 0.942 . S
C182 C181 1.361 . S
C182 C183 1.369 . S
C183 C182 1.369 . S
C183 C184 1.404 . S
C184 H167 0.940 . S
C184 C183 1.404 . S
C184 C185 1.389 . S
C185 H168 0.939 . S
C185 C180 1.400 . S
C185 C184 1.389 . S
C186 P160 1.819 . S
C186 C187 1.391 . S
C186 C191 1.391 . S
C187 H169 0.941 . S
C187 C186 1.391 . S
C187 C188 1.396 . S
C188 H172 0.939 . S
C188 C187 1.396 . S
C188 C189 1.397 . S
C189 C188 1.397 . S
C189 C190 1.385 . S
C190 H173 0.940 . S
C190 C189 1.385 . S
C190 C191 1.388 . S
C191 H170 0.939 . S
C191 C186 1.391 . S
C191 C190 1.388 . S
P192 O203 1.490 . S
P192 C206 1.812 . S
P192 C212 1.803 . S
P192 C218 1.819 . S
H193 C207 0.941 . S
H194 C208 0.939 . S
H195 C210 0.940 . S
H196 C211 0.943 . S
H197 C213 0.939 . S
H198 C214 0.942 . S
H199 C216 0.940 . S
H200 C217 0.958 . S
H201 C219 0.941 . S
H202 C223 0.937 1_565 S
O203 P192 1.490 . S
H204 C220 0.939 . S
H205 C222 0.940 . S
C206 P192 1.812 . S
C206 C207 1.389 . S
C206 C211 1.384 1_545 S
C207 H193 0.941 . S
C207 C206 1.389 . S
C207 C208 1.397 . S
C208 H194 0.939 . S
C208 C207 1.397 . S
C208 C209 1.378 . S
C209 C208 1.378 . S
C209 C210 1.378 1_545 S
C210 H195 0.940 . S
C210 C209 1.378 1_565 S
C210 C211 1.400 . S
C211 H196 0.943 . S
C211 C206 1.384 1_565 S
C211 C210 1.400 . S
C212 P192 1.803 . S
C212 C213 1.378 . S
C212 C217 1.379 1_545 S
C213 H197 0.939 . S
C213 C212 1.378 . S
C213 C214 1.361 . S
C214 H198 0.942 . S
C214 C213 1.361 . S
C214 C215 1.369 . S
C215 C214 1.369 . S
C215 C216 1.404 1_545 S
C216 H199 0.940 . S
C216 C215 1.404 1_565 S
C216 C217 1.392 . S
C217 H200 0.958 . S
C217 C212 1.379 1_565 S
C217 C216 1.392 . S
C218 P192 1.819 . S
C218 C219 1.391 . S
C218 C223 1.391 . S
C219 H201 0.941 . S
C219 C218 1.391 . S
C219 C220 1.396 . S
C220 H204 0.939 . S
C220 C219 1.396 . S
C220 C221 1.397 . S
C221 C220 1.397 . S
C221 C222 1.385 1_545 S
C222 H205 0.940 . S
C222 C221 1.385 1_565 S
C222 C223 1.388 1_565 S
C223 H202 0.937 1_545 S
C223 C218 1.391 . S
C223 C222 1.388 1_545 S
P224 O235 1.490 . S
P224 C238 1.812 . S
P224 C244 1.803 . S
P224 C250 1.819 . S
H225 C239 0.941 . S
H226 C240 0.939 . S
H227 C242 0.940 . S
H228 C243 0.940 . S
H229 C245 0.939 . S
H230 C246 0.942 . S
H231 C248 0.940 . S
H232 C249 0.939 . S
H233 C251 0.941 . S
H234 C255 0.939 . S
O235 P224 1.490 . S
H236 C252 0.939 . S
H237 C254 0.940 . S
C238 P224 1.812 . S
C238 C239 1.389 . S
C238 C243 1.391 . S
C239 H225 0.941 . S
C239 C238 1.389 . S
C239 C240 1.397 . S
C240 H226 0.939 . S
C240 C239 1.397 . S
C240 C241 1.378 . S
C241 C240 1.378 . S
C241 C242 1.378 . S
C242 H227 0.940 . S
C242 C241 1.378 . S
C242 C243 1.396 . S
C243 H228 0.940 . S
C243 C238 1.391 . S
C243 C242 1.396 . S
C244 P224 1.803 . S
C244 C245 1.378 . S
C244 C249 1.400 . S
C245 H229 0.939 . S
C245 C244 1.378 . S
C245 C246 1.361 . S
C246 H230 0.942 . S
C246 C245 1.361 . S
C246 C247 1.369 . S
C247 C246 1.369 . S
C247 C248 1.404 . S
C248 H231 0.940 . S
C248 C247 1.404 . S
C248 C249 1.389 . S
C249 H232 0.939 . S
C249 C244 1.400 . S
C249 C248 1.389 . S
C250 P224 1.819 . S
C250 C251 1.391 . S
C250 C255 1.391 . S
C251 H233 0.941 . S
C251 C250 1.391 . S
C251 C252 1.396 . S
C252 H236 0.939 . S
C252 C251 1.396 . S
C252 C253 1.397 . S
C253 C252 1.397 . S
C253 C254 1.385 . S
C254 H237 0.940 . S
C254 C253 1.385 . S
C254 C255 1.388 . S
C255 H234 0.939 . S
C255 C250 1.391 . S
C255 C254 1.388 . S
Nd256 C258 2.836 1_455 S
Nd256 O276 2.500 1_455 S
Nd256 O277 2.492 . S
Nd256 O278 2.487 . S
Nd256 O279 2.682 1_565 S
Nd256 O280 2.410 . S
Nd256 O285 2.414 1_455 S
Nd256 O287 2.424 1_565 S
Nd257 C267 2.836 1_556 S
Nd257 O279 2.414 . S
Nd257 O281 2.424 1_545 S
Nd257 O282 2.500 . S
Nd257 O283 2.492 1_556 S
Nd257 O284 2.487 1_455 S
Nd257 O285 2.682 1_445 S
Nd257 O286 2.410 . S
C258 Nd256 2.836 1_655 S
C258 C259 1.498 . S
C258 O276 1.258 . S
C258 O277 1.239 1_655 S
C259 C258 1.498 . S
C259 C260 1.366 . S
C259 C264 1.407 . S
C260 C259 1.366 . S
C260 C261 1.392 . S
C260 H288 0.930 . S
C261 C260 1.392 . S
C261 C262 1.398 . S
C261 H289 0.929 . S
C262 C261 1.398 . S
C262 C263 1.352 . S
C263 C262 1.352 . S
C263 C264 1.384 . S
C263 H290 0.930 . S
C264 C259 1.407 . S
C264 C263 1.384 . S
C264 H291 0.929 1_655 S
C265 O278 1.241 . S
C265 O279 1.273 1_565 S
C266 O280 1.251 . S
C266 O281 1.268 . S
C267 Nd257 2.836 1_554 S
C267 C268 1.498 . S
C267 O282 1.258 1_554 S
C267 O283 1.239 . S
C268 C267 1.498 . S
C268 C269 1.366 . S
C268 C273 1.407 . S
C269 C268 1.366 . S
C269 C270 1.392 . S
C269 H292 0.930 1_554 S
C270 C269 1.392 . S
C270 C271 1.398 . S
C270 H293 0.929 . S
C271 C270 1.398 . S
C271 C272 1.352 . S
C272 C271 1.352 . S
C272 C273 1.384 . S
C272 H294 0.930 . S
C273 C268 1.407 . S
C273 C272 1.384 . S
C273 H295 0.929 . S
C274 O284 1.241 . S
C274 O285 1.273 1_545 S
C275 O286 1.251 . S
C275 O287 1.268 . S
O276 Nd256 2.500 1_655 S
O276 C258 1.258 . S
O277 Nd256 2.492 . S
O277 C258 1.239 1_455 S
O278 Nd256 2.487 . S
O278 C265 1.241 . S
O279 Nd256 2.682 1_545 S
O279 Nd257 2.414 . S
O279 C265 1.273 1_545 S
O280 Nd256 2.410 . S
O280 C266 1.251 . S
O281 Nd257 2.424 1_565 S
O281 C266 1.268 . S
O282 Nd257 2.500 . S
O282 C267 1.258 1_556 S
O283 Nd257 2.492 1_554 S
O283 C267 1.239 . S
O284 Nd257 2.487 1_655 S
O284 C274 1.241 . S
O285 Nd256 2.414 1_655 S
O285 Nd257 2.682 1_665 S
O285 C274 1.273 1_565 S
O286 Nd257 2.410 . S
O286 C275 1.251 . S
O287 Nd256 2.424 1_545 S
O287 C275 1.268 . S
H288 C260 0.930 . S
H289 C261 0.929 . S
H290 C263 0.930 . S
H291 C264 0.929 1_455 S
H292 C269 0.930 1_556 S
H293 C270 0.929 . S
H294 C272 0.930 . S
H295 C273 0.929 . S
Nd296 C298 2.836 . S
Nd296 O316 2.500 . S
Nd296 O317 2.492 . S
Nd296 O318 2.487 1_565 S
Nd296 O319 2.682 1_565 S
Nd296 O320 2.410 1_565 S
Nd296 O325 2.414 . S
Nd296 O327 2.424 . S
Nd297 C307 2.836 1_556 S
Nd297 O319 2.414 . S
Nd297 O321 2.424 . S
Nd297 O322 2.500 . S
Nd297 O323 2.492 1_556 S
Nd297 O324 2.487 1_545 S
Nd297 O325 2.682 1_545 S
Nd297 O326 2.410 1_545 S
C298 Nd296 2.836 . S
C298 C299 1.498 . S
C298 O316 1.258 . S
C298 O317 1.239 . S
C299 C298 1.498 . S
C299 C300 1.366 . S
C299 C304 1.407 . S
C300 C299 1.366 . S
C300 C301 1.392 . S
C300 H328 0.930 . S
C301 C300 1.392 . S
C301 C302 1.398 . S
C301 H329 0.929 . S
C302 C301 1.398 . S
C302 C303 1.352 . S
C303 C302 1.352 . S
C303 C304 1.384 . S
C303 H330 0.930 . S
C304 C299 1.407 . S
C304 C303 1.384 . S
C304 H331 0.929 1_565 S
C305 O318 1.241 . S
C305 O319 1.273 . S
C306 O320 1.251 . S
C306 O321 1.268 . S
C307 Nd297 2.836 1_554 S
C307 C308 1.498 . S
C307 O322 1.258 1_554 S
C307 O323 1.239 . S
C308 C307 1.498 . S
C308 C309 1.366 . S
C308 C313 1.407 . S
C309 C308 1.366 . S
C309 C310 1.392 . S
C309 H332 0.930 1_554 S
C310 C309 1.392 . S
C310 C311 1.398 . S
C310 H333 0.929 . S
C311 C310 1.398 . S
C311 C312 1.352 . S
C312 C311 1.352 . S
C312 C313 1.384 . S
C312 H334 0.930 . S
C313 C308 1.407 . S
C313 C312 1.384 . S
C313 H335 0.929 1_545 S
C314 O324 1.241 . S
C314 O325 1.273 . S
C315 O326 1.251 . S
C315 O327 1.268 . S
O316 Nd296 2.500 . S
O316 C298 1.258 . S
O317 Nd296 2.492 . S
O317 C298 1.239 . S
O318 Nd296 2.487 1_545 S
O318 C305 1.241 . S
O319 Nd296 2.682 1_545 S
O319 Nd297 2.414 . S
O319 C305 1.273 . S
O320 Nd296 2.410 1_545 S
O320 C306 1.251 . S
O321 Nd297 2.424 . S
O321 C306 1.268 . S
O322 Nd297 2.500 . S
O322 C307 1.258 1_556 S
O323 Nd297 2.492 1_554 S
O323 C307 1.239 . S
O324 Nd297 2.487 1_565 S
O324 C314 1.241 . S
O325 Nd296 2.414 . S
O325 Nd297 2.682 1_565 S
O325 C314 1.273 . S
O326 Nd297 2.410 1_565 S
O326 C315 1.251 . S
O327 Nd296 2.424 . S
O327 C315 1.268 . S
H328 C300 0.930 . S
H329 C301 0.929 . S
H330 C303 0.930 . S
H331 C304 0.929 1_545 S
H332 C309 0.930 1_556 S
H333 C310 0.929 . S
H334 C312 0.930 . S
H335 C313 0.929 1_565 S
Nd336 C338 2.836 . S
Nd336 O356 2.500 . S
Nd336 O357 2.492 . S
Nd336 O358 2.487 . S
Nd336 O359 2.682 . S
Nd336 O360 2.410 . S
Nd336 O365 2.414 . S
Nd336 O367 2.424 . S
Nd337 C347 2.836 . S
Nd337 O359 2.414 . S
Nd337 O361 2.424 . S
Nd337 O362 2.500 . S
Nd337 O363 2.492 . S
Nd337 O364 2.487 . S
Nd337 O365 2.682 . S
Nd337 O366 2.410 . S
C338 Nd336 2.836 . S
C338 C339 1.498 . S
C338 O356 1.258 . S
C338 O357 1.239 . S
C339 C338 1.498 . S
C339 C340 1.366 . S
C339 C344 1.407 1_556 S
C340 C339 1.366 . S
C340 C341 1.392 . S
C340 H368 0.930 . S
C341 C340 1.392 . S
C341 C342 1.398 1_556 S
C341 H369 0.929 . S
C342 C341 1.398 1_554 S
C342 C343 1.352 . S
C343 C342 1.352 . S
C343 C344 1.384 . S
C343 H370 0.930 . S
C344 C339 1.407 1_554 S
C344 C343 1.384 . S
C344 H371 0.929 . S
C345 O358 1.241 . S
C345 O359 1.273 . S
C346 O360 1.251 . S
C346 O361 1.268 . S
C347 Nd337 2.836 . S
C347 C348 1.498 . S
C347 O362 1.258 . S
C347 O363 1.239 . S
C348 C347 1.498 . S
C348 C349 1.366 . S
C348 C353 1.407 . S
C349 C348 1.366 . S
C349 C350 1.392 . S
C349 H372 0.930 . S
C350 C349 1.392 . S
C350 C351 1.398 . S
C350 H373 0.929 . S
C351 C350 1.398 . S
C351 C352 1.352 . S
C352 C351 1.352 . S
C352 C353 1.384 . S
C352 H374 0.930 . S
C353 C348 1.407 . S
C353 C352 1.384 . S
C353 H375 0.929 . S
C354 O364 1.241 . S
C354 O365 1.273 . S
C355 O366 1.251 . S
C355 O367 1.268 . S
O356 Nd336 2.500 . S
O356 C338 1.258 . S
O357 Nd336 2.492 . S
O357 C338 1.239 . S
O358 Nd336 2.487 . S
O358 C345 1.241 . S
O359 Nd336 2.682 . S
O359 Nd337 2.414 . S
O359 C345 1.273 . S
O360 Nd336 2.410 . S
O360 C346 1.251 . S
O361 Nd337 2.424 . S
O361 C346 1.268 . S
O362 Nd337 2.500 . S
O362 C347 1.258 . S
O363 Nd337 2.492 . S
O363 C347 1.239 . S
O364 Nd337 2.487 . S
O364 C354 1.241 . S
O365 Nd336 2.414 . S
O365 Nd337 2.682 . S
O365 C354 1.273 . S
O366 Nd337 2.410 . S
O366 C355 1.251 . S
O367 Nd336 2.424 . S
O367 C355 1.268 . S
H368 C340 0.930 . S
H369 C341 0.929 . S
H370 C343 0.930 . S
H371 C344 0.929 . S
H372 C349 0.930 . S
H373 C350 0.929 . S
H374 C352 0.930 . S
H375 C353 0.929 . S
Nd376 C378 2.836 1_455 S
Nd376 O396 2.500 1_455 S
Nd376 O397 2.492 1_455 S
Nd376 O398 2.487 . S
Nd376 O399 2.682 . S
Nd376 O400 2.410 1_455 S
Nd376 O405 2.414 . S
Nd376 O407 2.424 . S
Nd377 C387 2.836 1_556 S
Nd377 O399 2.414 . S
Nd377 O401 2.424 1_455 S
Nd377 O402 2.500 . S
Nd377 O403 2.492 1_556 S
Nd377 O404 2.487 . S
Nd377 O405 2.682 . S
Nd377 O406 2.410 . S
C378 Nd376 2.836 1_655 S
C378 C379 1.498 . S
C378 O396 1.258 . S
C378 O397 1.239 . S
C379 C378 1.498 . S
C379 C380 1.366 . S
C379 C384 1.407 . S
C380 C379 1.366 . S
C380 C381 1.392 . S
C380 H408 0.930 . S
C381 C380 1.392 . S
C381 C382 1.398 . S
C381 H409 0.929 . S
C382 C381 1.398 . S
C382 C383 1.352 . S
C383 C382 1.352 . S
C383 C384 1.384 . S
C383 H410 0.930 . S
C384 C379 1.407 . S
C384 C383 1.384 . S
C384 H411 0.929 . S
C385 O398 1.241 . S
C385 O399 1.273 . S
C386 O400 1.251 . S
C386 O401 1.268 . S
C387 Nd377 2.836 1_554 S
C387 C388 1.498 . S
C387 O402 1.258 1_554 S
C387 O403 1.239 . S
C388 C387 1.498 . S
C388 C389 1.366 . S
C388 C393 1.407 . S
C389 C388 1.366 . S
C389 C390 1.392 . S
C389 H412 0.930 . S
C390 C389 1.392 . S
C390 C391 1.398 . S
C390 H413 0.929 . S
C391 C390 1.398 . S
C391 C392 1.352 . S
C392 C391 1.352 . S
C392 C393 1.384 . S
C392 H414 0.930 . S
C393 C388 1.407 . S
C393 C392 1.384 . S
C393 H415 0.929 . S
C394 O404 1.241 . S
C394 O405 1.273 . S
C395 O406 1.251 . S
C395 O407 1.268 . S
O396 Nd376 2.500 1_655 S
O396 C378 1.258 . S
O397 Nd376 2.492 1_655 S
O397 C378 1.239 . S
O398 Nd376 2.487 . S
O398 C385 1.241 . S
O399 Nd376 2.682 . S
O399 Nd377 2.414 . S
O399 C385 1.273 . S
O400 Nd376 2.410 1_655 S
O400 C386 1.251 . S
O401 Nd377 2.424 1_655 S
O401 C386 1.268 . S
O402 Nd377 2.500 . S
O402 C387 1.258 1_556 S
O403 Nd377 2.492 1_554 S
O403 C387 1.239 . S
O404 Nd377 2.487 . S
O404 C394 1.241 . S
O405 Nd376 2.414 . S
O405 Nd377 2.682 . S
O405 C394 1.273 . S
O406 Nd377 2.410 . S
O406 C395 1.251 . S
O407 Nd376 2.424 . S
O407 C395 1.268 . S
H408 C380 0.930 . S
H409 C381 0.929 . S
H410 C383 0.930 . S
H411 C384 0.929 . S
H412 C389 0.930 . S
H413 C390 0.929 . S
H414 C392 0.930 . S
H415 C393 0.929 . S
H416 C424 0.950 . S
H417 C429 0.950 . S
H418 C426 0.950 . S
H419 C428 0.950 . S
H420 C430 0.950 . S
H421 C432 0.950 . S
H422 C434 0.950 . S
H423 C435 0.950 . S
C424 H416 0.950 . S
C424 C425 1.396 . S
C424 C426 1.391 . S
C425 C424 1.396 . S
C425 C429 1.375 1_565 S
C426 H418 0.950 . S
C426 C424 1.391 . S
C426 C427 1.400 . S
C427 C426 1.400 . S
C427 C428 1.398 1_565 S
C427 C433 1.491 . S
C428 H419 0.950 . S
C428 C427 1.398 1_545 S
C428 C429 1.391 . S
C429 H417 0.950 . S
C429 C425 1.375 1_545 S
C429 C428 1.391 . S
C430 H420 0.950 . S
C430 C431 1.386 1_545 S
C430 C432 1.391 . S
C431 C430 1.386 1_565 S
C431 C435 1.393 . S
C432 H421 0.950 . S
C432 C430 1.391 . S
C432 C433 1.400 1_545 S
C433 C427 1.491 . S
C433 C432 1.400 1_565 S
C433 C434 1.398 . S
C434 H422 0.950 . S
C434 C433 1.398 . S
C434 C435 1.391 . S
C435 H423 0.950 . S
C435 C431 1.393 . S
C435 C434 1.391 . S
H436 C444 0.950 . S
H437 C449 0.950 . S
H438 C446 0.950 . S
H439 C448 0.950 . S
H440 C450 0.950 . S
H441 C452 0.950 . S
H442 C454 0.950 . S
H443 C455 0.950 . S
C444 H436 0.950 . S
C444 C445 1.386 . S
C444 C446 1.391 . S
C445 C444 1.386 . S
C445 C449 1.393 . S
C446 H438 0.950 . S
C446 C444 1.391 . S
C446 C447 1.400 . S
C447 C446 1.400 . S
C447 C448 1.398 . S
C447 C453 1.491 . S
C448 H439 0.950 . S
C448 C447 1.398 . S
C448 C449 1.391 . S
C449 H437 0.950 . S
C449 C445 1.393 . S
C449 C448 1.391 . S
C450 H440 0.950 . S
C450 C451 1.386 . S
C450 C452 1.391 . S
C451 C450 1.386 . S
C451 C455 1.393 . S
C452 H441 0.950 . S
C452 C450 1.391 . S
C452 C453 1.400 . S
C453 C447 1.491 . S
C453 C452 1.400 . S
C453 C454 1.398 . S
C454 H442 0.950 . S
C454 C453 1.398 . S
C454 C455 1.391 . S
C455 H443 0.950 . S
C455 C451 1.393 . S
C455 C454 1.391 . S
H456 C464 0.950 . S
H457 C469 0.950 . S
H458 C466 0.950 . S
H459 C468 0.950 . S
H460 C470 0.950 . S
H461 C472 0.950 . S
H462 C474 0.950 . S
H463 C475 0.950 . S
C464 H456 0.950 . S
C464 C465 1.386 . S
C464 C466 1.391 . S
C465 C464 1.386 . S
C465 C469 1.393 . S
C466 H458 0.950 . S
C466 C464 1.391 . S
C466 C467 1.400 . S
C467 C466 1.400 . S
C467 C468 1.398 . S
C467 C473 1.491 . S
C468 H459 0.950 . S
C468 C467 1.398 . S
C468 C469 1.391 . S
C469 H457 0.950 . S
C469 C465 1.393 . S
C469 C468 1.391 . S
C470 H460 0.950 . S
C470 C471 1.386 . S
C470 C472 1.391 . S
C471 C470 1.386 . S
C471 C475 1.393 . S
C472 H461 0.950 . S
C472 C470 1.391 . S
C472 C473 1.400 . S
C473 C467 1.491 . S
C473 C472 1.400 . S
C473 C474 1.398 . S
C474 H462 0.950 . S
C474 C473 1.398 . S
C474 C475 1.391 . S
C475 H463 0.950 . S
C475 C471 1.393 . S
C475 C474 1.391 . S
H476 C484 0.950 . S
H477 C489 0.950 . S
H478 C486 0.950 . S
H479 C488 0.950 . S
H480 C490 0.950 . S
H481 C492 0.950 . S
H482 C494 0.950 . S
H483 C495 0.950 . S
C484 H476 0.950 . S
C484 C485 1.386 . S
C484 C486 1.391 . S
C485 C484 1.386 . S
C485 C489 1.393 . S
C486 H478 0.950 . S
C486 C484 1.391 . S
C486 C487 1.400 . S
C487 C486 1.400 . S
C487 C488 1.398 . S
C487 C493 1.491 . S
C488 H479 0.950 . S
C488 C487 1.398 . S
C488 C489 1.391 . S
C489 H477 0.950 . S
C489 C485 1.393 . S
C489 C488 1.391 . S
C490 H480 0.950 . S
C490 C491 1.386 . S
C490 C492 1.391 . S
C491 C490 1.386 . S
C491 C495 1.393 . S
C492 H481 0.950 . S
C492 C490 1.391 . S
C492 C493 1.400 . S
C493 C487 1.491 . S
C493 C492 1.400 . S
C493 C494 1.398 . S
C494 H482 0.950 . S
C494 C493 1.398 . S
C494 C495 1.391 . S
C495 H483 0.950 . S
C495 C491 1.393 . S
C495 C494 1.391 . S
H496 C504 0.950 . S
H497 C509 0.950 1_554 S
H498 C506 0.950 . S
H499 C508 0.950 1_554 S
H500 C510 0.950 . S
H501 C512 0.950 . S
H502 C514 0.950 . S
H503 C515 0.950 . S
C504 H496 0.950 . S
C504 C505 1.386 1_565 S
C504 C506 1.391 . S
C505 C504 1.386 1_545 S
C505 C509 1.393 . S
C506 H498 0.950 . S
C506 C504 1.391 . S
C506 C507 1.400 1_565 S
C507 C506 1.400 1_545 S
C507 C508 1.398 . S
C507 C513 1.491 . S
C508 H499 0.950 1_556 S
C508 C507 1.398 . S
C508 C509 1.391 . S
C509 H497 0.950 1_556 S
C509 C505 1.393 . S
C509 C508 1.391 . S
C510 H500 0.950 . S
C510 C511 1.386 . S
C510 C512 1.391 . S
C511 C510 1.386 . S
C511 C515 1.393 1_545 S
C512 H501 0.950 . S
C512 C510 1.391 . S
C512 C513 1.400 . S
C513 C507 1.491 . S
C513 C512 1.400 . S
C513 C514 1.398 1_545 S
C514 H502 0.950 . S
C514 C513 1.398 1_565 S
C514 C515 1.391 . S
C515 H503 0.950 . S
C515 C511 1.393 1_565 S
C515 C514 1.391 . S
H516 C524 0.950 . S
H517 C529 0.950 . S
H518 C526 0.950 . S
H519 C528 0.950 . S
H520 C530 0.950 . S
H521 C532 0.950 . S
H522 C534 0.950 . S
H523 C535 0.950 . S
C524 H516 0.950 . S
C524 C525 1.386 . S
C524 C526 1.391 . S
C525 C524 1.386 . S
C525 C529 1.393 . S
C526 H518 0.950 . S
C526 C524 1.391 . S
C526 C527 1.400 . S
C527 C526 1.400 . S
C527 C528 1.398 . S
C527 C533 1.491 . S
C528 H519 0.950 . S
C528 C527 1.398 . S
C528 C529 1.391 . S
C529 H517 0.950 . S
C529 C525 1.393 . S
C529 C528 1.391 . S
C530 H520 0.950 . S
C530 C531 1.386 . S
C530 C532 1.391 1_556 S
C531 C530 1.386 . S
C531 C535 1.393 1_556 S
C532 H521 0.950 . S
C532 C530 1.391 1_554 S
C532 C533 1.400 . S
C533 C527 1.491 . S
C533 C532 1.400 . S
C533 C534 1.398 . S
C534 H522 0.950 . S
C534 C533 1.398 . S
C534 C535 1.391 . S
C535 H523 0.950 . S
C535 C531 1.393 1_554 S
C535 C534 1.391 . S
H536 C544 0.950 . S
H537 C549 0.950 . S
H538 C546 0.950 . S
H539 C548 0.950 . S
H540 C550 0.950 . S
H541 C552 0.950 . S
H542 C554 0.950 1_554 S
H543 C555 0.950 . S
C544 H536 0.950 . S
C544 C545 1.386 1_554 S
C544 C546 1.391 . S
C545 C544 1.386 1_556 S
C545 C549 1.393 . S
C546 H538 0.950 . S
C546 C544 1.391 . S
C546 C547 1.400 1_554 S
C547 C546 1.400 1_556 S
C547 C548 1.398 . S
C547 C553 1.491 . S
C548 H539 0.950 . S
C548 C547 1.398 . S
C548 C549 1.391 . S
C549 H537 0.950 . S
C549 C545 1.393 . S
C549 C548 1.391 . S
C550 H540 0.950 . S
C550 C551 1.386 . S
C550 C552 1.391 . S
C551 C550 1.386 . S
C551 C555 1.393 . S
C552 H541 0.950 . S
C552 C550 1.391 . S
C552 C553 1.400 . S
C553 C547 1.491 . S
C553 C552 1.400 . S
C553 C554 1.398 . S
C554 H542 0.950 1_556 S
C554 C553 1.398 . S
C554 C555 1.391 . S
C555 H543 0.950 . S
C555 C551 1.393 . S
C555 C554 1.391 . S
H556 C564 0.950 . S
H557 C569 0.950 . S
H558 C566 0.950 . S
H559 C568 0.950 . S
H560 C570 0.950 . S
H561 C572 0.950 . S
H562 C574 0.950 1_554 S
H563 C575 0.950 1_455 S
C564 H556 0.950 . S
C564 C565 1.386 . S
C564 C566 1.391 . S
C565 C564 1.386 . S
C565 C569 1.393 1_554 S
C566 H558 0.950 . S
C566 C564 1.391 . S
C566 C567 1.400 1_554 S
C567 C566 1.400 1_556 S
C567 C568 1.398 . S
C567 C573 1.491 . S
C568 H559 0.950 . S
C568 C567 1.398 . S
C568 C569 1.391 . S
C569 H557 0.950 . S
C569 C565 1.393 1_556 S
C569 C568 1.391 . S
C570 H560 0.950 . S
C570 C571 1.386 . S
C570 C572 1.391 . S
C571 C570 1.386 . S
C571 C575 1.393 . S
C572 H561 0.950 . S
C572 C570 1.391 . S
C572 C573 1.400 . S
C573 C567 1.491 . S
C573 C572 1.400 . S
C573 C574 1.398 . S
C574 H562 0.950 1_556 S
C574 C573 1.398 . S
C574 C575 1.391 . S
C575 H563 0.950 1_655 S
C575 C571 1.393 . S
C575 C574 1.391 . S
H576 C584 0.950 . S
H577 C589 0.950 . S
H578 C586 0.950 . S
H579 C588 0.950 . S
H580 C590 0.950 . S
H581 C592 0.950 . S
H582 C594 0.950 . S
H583 C595 0.950 . S
C584 H576 0.950 . S
C584 C585 1.386 . S
C584 C586 1.391 . S
C585 C584 1.386 . S
C585 C589 1.393 . S
C586 H578 0.950 . S
C586 C584 1.391 . S
C586 C587 1.400 . S
C587 C586 1.400 . S
C587 C588 1.398 . S
C587 C593 1.491 . S
C588 H579 0.950 . S
C588 C587 1.398 . S
C588 C589 1.391 . S
C589 H577 0.950 . S
C589 C585 1.393 . S
C589 C588 1.391 . S
C590 H580 0.950 . S
C590 C591 1.386 . S
C590 C592 1.391 . S
C591 C590 1.386 . S
C591 C595 1.393 . S
C592 H581 0.950 . S
C592 C590 1.391 . S
C592 C593 1.400 . S
C593 C587 1.491 . S
C593 C592 1.400 . S
C593 C594 1.398 . S
C594 H582 0.950 . S
C594 C593 1.398 . S
C594 C595 1.391 . S
C595 H583 0.950 . S
C595 C591 1.393 . S
C595 C594 1.391 . S
H596 C604 0.950 . S
H597 C609 0.950 . S
H598 C606 0.950 . S
H599 C608 0.950 . S
H600 C610 0.950 . S
H601 C612 0.950 . S
H602 C614 0.950 . S
H603 C615 0.950 . S
C604 H596 0.950 . S
C604 C605 1.373 1_545 S
C604 C606 1.391 . S
C605 C604 1.373 1_565 S
C605 C609 1.413 . S
C606 H598 0.950 . S
C606 C604 1.391 . S
C606 C607 1.400 1_545 S
C607 C606 1.400 1_565 S
C607 C608 1.398 . S
C607 C613 1.491 . S
C608 H599 0.950 . S
C608 C607 1.398 . S
C608 C609 1.391 . S
C609 H597 0.950 . S
C609 C605 1.413 . S
C609 C608 1.391 . S
C610 H600 0.950 . S
C610 C611 1.386 . S
C610 C612 1.391 . S
C611 C610 1.386 . S
C611 C615 1.393 1_565 S
C612 H601 0.950 . S
C612 C610 1.391 . S
C612 C613 1.400 . S
C613 C607 1.491 . S
C613 C612 1.400 . S
C613 C614 1.398 1_565 S
C614 H602 0.950 . S
C614 C613 1.398 1_545 S
C614 C615 1.391 . S
C615 H603 0.950 . S
C615 C611 1.393 1_545 S
C615 C614 1.391 . S
H616 C624 0.950 . S
H617 C629 0.950 . S
H618 C626 0.950 . S
H619 C628 0.950 . S
H620 C630 0.950 . S
H621 C632 0.950 . S
H622 C634 0.950 . S
H623 C635 0.950 . S
C624 H616 0.950 . S
C624 C625 1.386 . S
C624 C626 1.391 . S
C625 C624 1.386 . S
C625 C629 1.393 . S
C626 H618 0.950 . S
C626 C624 1.391 . S
C626 C627 1.400 . S
C627 C626 1.400 . S
C627 C628 1.398 . S
C627 C633 1.491 . S
C628 H619 0.950 . S
C628 C627 1.398 . S
C628 C629 1.391 . S
C629 H617 0.950 . S
C629 C625 1.393 . S
C629 C628 1.391 . S
C630 H620 0.950 . S
C630 C631 1.386 . S
C630 C632 1.391 . S
C631 C630 1.386 . S
C631 C635 1.393 . S
C632 H621 0.950 . S
C632 C630 1.391 . S
C632 C633 1.400 . S
C633 C627 1.491 . S
C633 C632 1.400 . S
C633 C634 1.398 . S
C634 H622 0.950 . S
C634 C633 1.398 . S
C634 C635 1.391 . S
C635 H623 0.950 . S
C635 C631 1.393 . S
C635 C634 1.391 . S
H636 C644 0.950 . S
H637 C649 0.950 . S
H638 C646 0.950 . S
H639 C648 0.950 . S
H640 C650 0.950 . S
H641 C652 0.950 . S
H642 C654 0.950 . S
H643 C655 0.950 . S
C644 H636 0.950 . S
C644 C645 1.386 . S
C644 C646 1.391 . S
C645 C644 1.386 . S
C645 C649 1.393 . S
C646 H638 0.950 . S
C646 C644 1.391 . S
C646 C647 1.400 . S
C647 C646 1.400 . S
C647 C648 1.398 . S
C647 C653 1.491 . S
C648 H639 0.950 . S
C648 C647 1.398 . S
C648 C649 1.391 . S
C649 H637 0.950 . S
C649 C645 1.393 . S
C649 C648 1.391 . S
C650 H640 0.950 . S
C650 C651 1.386 . S
C650 C652 1.391 . S
C651 C650 1.386 . S
C651 C655 1.393 . S
C652 H641 0.950 . S
C652 C650 1.391 . S
C652 C653 1.400 . S
C653 C647 1.491 . S
C653 C652 1.400 . S
C653 C654 1.398 . S
C654 H642 0.950 . S
C654 C653 1.398 . S
C654 C655 1.391 . S
C655 H643 0.950 . S
C655 C651 1.393 . S
C655 C654 1.391 . S
H656 C664 0.950 . S
H657 C669 0.950 . S
H658 C666 0.950 . S
H659 C668 0.950 . S
H660 C670 0.950 1_455 S
H661 C672 0.950 . S
H662 C674 0.950 . S
H663 C675 0.950 . S
C664 H656 0.950 . S
C664 C665 1.386 . S
C664 C666 1.391 . S
C665 C664 1.386 . S
C665 C669 1.393 . S
C666 H658 0.950 . S
C666 C664 1.391 . S
C666 C667 1.400 . S
C667 C666 1.400 . S
C667 C668 1.398 . S
C667 C673 1.491 . S
C668 H659 0.950 . S
C668 C667 1.398 . S
C668 C669 1.391 . S
C669 H657 0.950 . S
C669 C665 1.393 . S
C669 C668 1.391 . S
C670 H660 0.950 1_655 S
C670 C671 1.386 . S
C670 C672 1.391 . S
C671 C670 1.386 . S
C671 C675 1.393 . S
C672 H661 0.950 . S
C672 C670 1.391 . S
C672 C673 1.400 . S
C673 C667 1.491 . S
C673 C672 1.400 . S
C673 C674 1.398 . S
C674 H662 0.950 . S
C674 C673 1.398 . S
C674 C675 1.391 . S
C675 H663 0.950 . S
C675 C671 1.393 . S
C675 C674 1.391 . S
H676 C684 0.950 . S
H677 C689 0.950 . S
H678 C686 0.950 . S
H679 C688 0.950 . S
H680 C690 0.950 . S
H681 C692 0.950 . S
H682 C694 0.950 . S
H683 C695 0.950 . S
C684 H676 0.950 . S
C684 C685 1.390 1_545 S
C684 C686 1.391 . S
C685 C684 1.390 1_565 S
C685 C689 1.390 . S
C686 H678 0.950 . S
C686 C684 1.391 . S
C686 C687 1.400 . S
C687 C686 1.400 . S
C687 C688 1.398 1_545 S
C687 C693 1.491 . S
C688 H679 0.950 . S
C688 C687 1.398 1_565 S
C688 C689 1.391 . S
C689 H677 0.950 . S
C689 C685 1.390 . S
C689 C688 1.391 . S
C690 H680 0.950 . S
C690 C691 1.386 1_565 S
C690 C692 1.391 . S
C691 C690 1.386 1_545 S
C691 C695 1.393 . S
C692 H681 0.950 . S
C692 C690 1.391 . S
C692 C693 1.400 1_565 S
C693 C687 1.491 . S
C693 C692 1.400 1_545 S
C693 C694 1.398 . S
C694 H682 0.950 . S
C694 C693 1.398 . S
C694 C695 1.391 . S
C695 H683 0.950 . S
C695 C691 1.393 . S
C695 C694 1.391 . S
H696 C704 0.950 . S
H697 C709 0.950 . S
H698 C706 0.950 . S
H699 C708 0.950 . S
H700 C710 0.950 . S
H701 C712 0.950 . S
H702 C714 0.950 . S
H703 C715 0.950 1_556 S
C704 H696 0.950 . S
C704 C705 1.386 . S
C704 C706 1.391 . S
C705 C704 1.386 . S
C705 C709 1.393 . S
C706 H698 0.950 . S
C706 C704 1.391 . S
C706 C707 1.400 . S
C707 C706 1.400 . S
C707 C708 1.398 . S
C707 C713 1.491 . S
C708 H699 0.950 . S
C708 C707 1.398 . S
C708 C709 1.391 . S
C709 H697 0.950 . S
C709 C705 1.393 . S
C709 C708 1.391 . S
C710 H700 0.950 . S
C710 C711 1.386 . S
C710 C712 1.391 . S
C711 C710 1.386 . S
C711 C715 1.393 . S
C712 H701 0.950 . S
C712 C710 1.391 . S
C712 C713 1.400 . S
C713 C707 1.491 . S
C713 C712 1.400 . S
C713 C714 1.398 . S
C714 H702 0.950 . S
C714 C713 1.398 . S
C714 C715 1.391 . S
C715 H703 0.950 1_554 S
C715 C711 1.393 . S
C715 C714 1.391 . S
H716 C724 0.950 . S
H717 C729 0.950 . S
H718 C726 0.950 . S
H719 C728 0.950 . S
H720 C730 0.950 . S
H721 C732 0.950 . S
H722 C734 0.950 . S
H723 C735 0.950 . S
C724 H716 0.950 . S
C724 C725 1.386 . S
C724 C726 1.391 . S
C725 C724 1.386 . S
C725 C729 1.393 . S
C726 H718 0.950 . S
C726 C724 1.391 . S
C726 C727 1.400 . S
C727 C726 1.400 . S
C727 C728 1.398 . S
C727 C733 1.491 . S
C728 H719 0.950 . S
C728 C727 1.398 . S
C728 C729 1.391 . S
C729 H717 0.950 . S
C729 C725 1.393 . S
C729 C728 1.391 . S
C730 H720 0.950 . S
C730 C731 1.386 . S
C730 C732 1.391 . S
C731 C730 1.386 . S
C731 C735 1.393 . S
C732 H721 0.950 . S
C732 C730 1.391 . S
C732 C733 1.400 . S
C733 C727 1.491 . S
C733 C732 1.400 . S
C733 C734 1.398 . S
C734 H722 0.950 . S
C734 C733 1.398 . S
C734 C735 1.391 . S
C735 H723 0.950 . S
C735 C731 1.393 . S
C735 C734 1.391 . S
H736 C744 0.950 . S
H737 C749 0.950 . S
H738 C746 0.950 . S
H739 C748 0.950 . S
H740 C750 0.950 . S
H741 C752 0.950 . S
H742 C754 0.950 . S
H743 C755 0.950 . S
C744 H736 0.950 . S
C744 C745 1.386 . S
C744 C746 1.391 . S
C745 C744 1.386 . S
C745 C749 1.393 . S
C746 H738 0.950 . S
C746 C744 1.391 . S
C746 C747 1.400 . S
C747 C746 1.400 . S
C747 C748 1.398 . S
C747 C753 1.491 . S
C748 H739 0.950 . S
C748 C747 1.398 . S
C748 C749 1.391 . S
C749 H737 0.950 . S
C749 C745 1.393 . S
C749 C748 1.391 . S
C750 H740 0.950 . S
C750 C751 1.386 . S
C750 C752 1.391 . S
C751 C750 1.386 . S
C751 C755 1.393 . S
C752 H741 0.950 . S
C752 C750 1.391 . S
C752 C753 1.400 . S
C753 C747 1.491 . S
C753 C752 1.400 . S
C753 C754 1.398 . S
C754 H742 0.950 . S
C754 C753 1.398 . S
C754 C755 1.391 . S
C755 H743 0.950 . S
C755 C751 1.393 . S
C755 C754 1.391 . S
H756 C764 0.950 . S
H757 C769 0.950 . S
H758 C766 0.950 . S
H759 C768 0.950 . S
H760 C770 0.950 . S
H761 C772 0.950 . S
H762 C774 0.950 . S
H763 C775 0.950 1_565 S
C764 H756 0.950 . S
C764 C765 1.386 1_565 S
C764 C766 1.391 . S
C765 C764 1.386 1_545 S
C765 C769 1.393 . S
C766 H758 0.950 . S
C766 C764 1.391 . S
C766 C767 1.400 1_565 S
C767 C766 1.400 1_545 S
C767 C768 1.398 . S
C767 C773 1.491 . S
C768 H759 0.950 . S
C768 C767 1.398 . S
C768 C769 1.391 . S
C769 H757 0.950 . S
C769 C765 1.393 . S
C769 C768 1.391 . S
C770 H760 0.950 . S
C770 C771 1.386 . S
C770 C772 1.391 . S
C771 C770 1.386 . S
C771 C775 1.393 . S
C772 H761 0.950 . S
C772 C770 1.391 . S
C772 C773 1.400 . S
C773 C767 1.491 . S
C773 C772 1.400 . S
C773 C774 1.398 1_545 S
C774 H762 0.950 . S
C774 C773 1.398 1_565 S
C774 C775 1.391 1_565 S
C775 H763 0.950 1_545 S
C775 C771 1.393 . S
C775 C774 1.391 1_545 S
H776 C784 0.950 . S
H777 C789 0.950 . S
H778 C786 0.950 . S
H779 C788 0.950 1_556 S
H780 C790 0.950 . S
H781 C792 0.950 . S
H782 C794 0.950 . S
H783 C795 0.950 1_554 S
C784 H776 0.950 . S
C784 C785 1.386 . S
C784 C786 1.391 . S
C785 C784 1.386 . S
C785 C789 1.393 . S
C786 H778 0.950 . S
C786 C784 1.391 . S
C786 C787 1.400 . S
C787 C786 1.400 . S
C787 C788 1.398 . S
C787 C793 1.491 . S
C788 H779 0.950 1_554 S
C788 C787 1.398 . S
C788 C789 1.391 . S
C789 H777 0.950 . S
C789 C785 1.393 . S
C789 C788 1.391 . S
C790 H780 0.950 . S
C790 C791 1.386 . S
C790 C792 1.391 . S
C791 C790 1.386 . S
C791 C795 1.393 . S
C792 H781 0.950 . S
C792 C790 1.391 . S
C792 C793 1.400 1_556 S
C793 C787 1.491 . S
C793 C792 1.400 1_554 S
C793 C794 1.398 . S
C794 H782 0.950 . S
C794 C793 1.398 . S
C794 C795 1.391 1_554 S
C795 H783 0.950 1_556 S
C795 C791 1.393 . S
C795 C794 1.391 1_556 S
H796 C804 0.950 . S
H797 C809 0.950 . S
H798 C806 0.950 . S
H799 C808 0.950 . S
H800 C810 0.950 . S
H801 C812 0.950 . S
H802 C814 0.950 . S
H803 C815 0.950 . S
C804 H796 0.950 . S
C804 C805 1.386 . S
C804 C806 1.391 . S
C805 C804 1.386 . S
C805 C809 1.393 . S
C806 H798 0.950 . S
C806 C804 1.391 . S
C806 C807 1.400 . S
C807 C806 1.400 . S
C807 C808 1.398 . S
C807 C813 1.491 . S
C808 H799 0.950 . S
C808 C807 1.398 . S
C808 C809 1.391 . S
C809 H797 0.950 . S
C809 C805 1.393 . S
C809 C808 1.391 . S
C810 H800 0.950 . S
C810 C811 1.386 . S
C810 C812 1.391 . S
C811 C810 1.386 . S
C811 C815 1.393 . S
C812 H801 0.950 . S
C812 C810 1.391 . S
C812 C813 1.400 . S
C813 C807 1.491 . S
C813 C812 1.400 . S
C813 C814 1.398 . S
C814 H802 0.950 . S
C814 C813 1.398 . S
C814 C815 1.391 . S
C815 H803 0.950 . S
C815 C811 1.393 . S
C815 C814 1.391 . S
H816 C824 0.950 . S
H817 C829 0.950 . S
H818 C826 0.950 . S
H819 C828 0.950 . S
H820 C830 0.950 . S
H821 C832 0.950 . S
H822 C834 0.950 . S
H823 C835 0.950 . S
C824 H816 0.950 . S
C824 C825 1.386 . S
C824 C826 1.391 . S
C825 C824 1.386 . S
C825 C829 1.393 . S
C826 H818 0.950 . S
C826 C824 1.391 . S
C826 C827 1.400 . S
C827 C826 1.400 . S
C827 C828 1.398 . S
C827 C833 1.491 . S
C828 H819 0.950 . S
C828 C827 1.398 . S
C828 C829 1.391 . S
C829 H817 0.950 . S
C829 C825 1.393 . S
C829 C828 1.391 . S
C830 H820 0.950 . S
C830 C831 1.386 . S
C830 C832 1.391 . S
C831 C830 1.386 . S
C831 C835 1.393 . S
C832 H821 0.950 . S
C832 C830 1.391 . S
C832 C833 1.400 . S
C833 C827 1.491 . S
C833 C832 1.400 . S
C833 C834 1.398 . S
C834 H822 0.950 . S
C834 C833 1.398 . S
C834 C835 1.391 . S
C835 H823 0.950 . S
C835 C831 1.393 . S
C835 C834 1.391 . S
H836 C844 0.950 . S
H837 C849 0.950 . S
H838 C846 0.950 . S
H839 C848 0.950 . S
H840 C850 0.950 . S
H841 C852 0.950 . S
H842 C854 0.931 1_545 S
H843 C855 0.950 1_545 S
C844 H836 0.950 . S
C844 C845 1.386 1_545 S
C844 C846 1.391 . S
C845 C844 1.386 1_565 S
C845 C849 1.393 . S
C846 H838 0.950 . S
C846 C844 1.391 . S
C846 C847 1.400 1_545 S
C847 C846 1.400 1_565 S
C847 C848 1.398 . S
C847 C853 1.491 . S
C848 H839 0.950 . S
C848 C847 1.398 . S
C848 C849 1.391 . S
C849 H837 0.950 . S
C849 C845 1.393 . S
C849 C848 1.391 . S
C850 H840 0.950 . S
C850 C851 1.386 . S
C850 C852 1.391 . S
C851 C850 1.386 . S
C851 C855 1.393 . S
C852 H841 0.950 . S
C852 C850 1.391 . S
C852 C853 1.400 . S
C853 C847 1.491 . S
C853 C852 1.400 . S
C853 C854 1.420 . S
C854 H842 0.931 1_565 S
C854 C853 1.420 . S
C854 C855 1.388 . S
C855 H843 0.950 1_565 S
C855 C851 1.393 . S
C855 C854 1.388 . S
H856 C864 0.950 . S
H857 C869 0.950 . S
H858 C866 0.950 . S
H859 C868 0.950 . S
H860 C870 0.950 . S
H861 C872 0.950 . S
H862 C874 0.950 . S
H863 C875 0.950 . S
C864 H856 0.950 . S
C864 C865 1.386 . S
C864 C866 1.391 . S
C865 C864 1.386 . S
C865 C869 1.393 . S
C866 H858 0.950 . S
C866 C864 1.391 . S
C866 C867 1.400 . S
C867 C866 1.400 . S
C867 C868 1.398 . S
C867 C873 1.491 . S
C868 H859 0.950 . S
C868 C867 1.398 . S
C868 C869 1.391 . S
C869 H857 0.950 . S
C869 C865 1.393 . S
C869 C868 1.391 . S
C870 H860 0.950 . S
C870 C871 1.386 . S
C870 C872 1.391 . S
C871 C870 1.386 . S
C871 C875 1.393 . S
C872 H861 0.950 . S
C872 C870 1.391 . S
C872 C873 1.400 . S
C873 C867 1.491 . S
C873 C872 1.400 . S
C873 C874 1.398 . S
C874 H862 0.950 . S
C874 C873 1.398 . S
C874 C875 1.391 . S
C875 H863 0.950 . S
C875 C871 1.393 . S
C875 C874 1.391 . S
H876 C884 0.950 . S
H877 C889 0.950 . S
H878 C886 0.950 . S
H879 C888 0.950 . S
H880 C890 0.950 . S
H881 C892 0.950 . S
H882 C894 0.950 . S
H883 C895 0.950 . S
C884 H876 0.950 . S
C884 C885 1.386 . S
C884 C886 1.391 . S
C885 C884 1.386 . S
C885 C889 1.393 . S
C886 H878 0.950 . S
C886 C884 1.391 . S
C886 C887 1.400 . S
C887 C886 1.400 . S
C887 C888 1.398 . S
C887 C893 1.491 . S
C888 H879 0.950 . S
C888 C887 1.398 . S
C888 C889 1.391 . S
C889 H877 0.950 . S
C889 C885 1.393 . S
C889 C888 1.391 . S
C890 H880 0.950 . S
C890 C891 1.386 . S
C890 C892 1.391 . S
C891 C890 1.386 . S
C891 C895 1.393 . S
C892 H881 0.950 . S
C892 C890 1.391 . S
C892 C893 1.400 . S
C893 C887 1.491 . S
C893 C892 1.400 . S
C893 C894 1.398 . S
C894 H882 0.950 . S
C894 C893 1.398 . S
C894 C895 1.391 . S
C895 H883 0.950 . S
C895 C891 1.393 . S
C895 C894 1.391 . S
C425 C215 1.019 1_565 S
C431 C265 0.983 . S
C451 C305 1.734 . S
C445 C247 1.858 . S
C471 C354 1.601 . S
C465 C151 1.493 . S
C491 C385 2.054 . S
C485 C183 2.163 . S
C511 C274 0.989 . S
C505 C87 0.988 . S
C525 C119 1.706 . S
C531 C314 1.767 . S
C545 C23 1.640 1_556 S
C551 C345 1.583 . S
C565 C55 1.962 . S
C571 C394 2.068 1_655 S
C591 C275 1.254 . S
C585 C189 1.177 . S
C611 C315 0.853 . S
C605 C221 0.848 1_565 S
C631 C351 0.622 . S
C625 C253 0.617 . S
C645 C157 1.175 . S
C651 C395 1.378 . S
C665 C61 0.967 . S
C671 C266 1.250 1_655 S
C691 C306 0.859 . S
C685 C93 0.849 1_565 S
C711 C342 0.644 . S
C705 C125 0.716 . S
C725 C29 1.326 . S
C731 C386 1.381 . S
C745 C177 1.959 . S
C751 C271 2.004 . S
C765 C209 1.594 . S
C771 C311 1.627 . S
C791 C355 2.577 . S
C785 C241 2.424 . S
C811 C391 1.652 . S
C805 C145 1.518 . S
C825 C49 1.852 . S
C831 C262 2.009 . S
C851 C302 1.637 . S
C845 C81 1.626 1_565 S
C871 C346 2.576 . S
C865 C113 2.270 . S
C885 C17 1.651 . S
C891 C382 1.644 . S
