# Generated by pormake.
# Topology nom, (4,4)-cn, num edge types: 1
# Building blocks:
#     Node 0, Type 0, BuildingBlock: KUFVIS_clean_linker_0, # of connection points: 4
#     Node 1, Type 0, BuildingBlock: KUFVIS_clean_linker_0, # of connection points: 4
#     Node 2, Type 0, BuildingBlock: KUFVIS_clean_linker_0, # of connection points: 4
#     Node 3, Type 0, BuildingBlock: KUFVIS_clean_linker_0, # of connection points: 4
#     Node 4, Type 0, BuildingBlock: KUFVIS_clean_linker_0, # of connection points: 4
#     Node 5, Type 0, BuildingBlock: KUFVIS_clean_linker_0, # of connection points: 4
#     Node 6, Type 1, BuildingBlock: TATPOV_clean_sbu_0, # of connection points: 4
#     Node 7, Type 1, BuildingBlock: TATPOV_clean_sbu_0, # of connection points: 4
#     Node 8, Type 1, BuildingBlock: TATPOV_clean_sbu_0, # of connection points: 4
#     Node 9, Type 1, BuildingBlock: TATPOV_clean_sbu_0, # of connection points: 4
#     Node 10, Type 1, BuildingBlock: TATPOV_clean_sbu_0, # of connection points: 4
#     Node 11, Type 1, BuildingBlock: TATPOV_clean_sbu_0, # of connection points: 4
#     Edge 12, Type (0, 1), BuildingBlock: ZUJKAS_clean_linker_0, # of connection points: 2
#     Edge 13, Type (0, 1), BuildingBlock: ZUJKAS_clean_linker_0, # of connection points: 2
#     Edge 14, Type (0, 1), BuildingBlock: ZUJKAS_clean_linker_0, # of connection points: 2
#     Edge 15, Type (0, 1), BuildingBlock: ZUJKAS_clean_linker_0, # of connection points: 2
#     Edge 16, Type (0, 1), BuildingBlock: ZUJKAS_clean_linker_0, # of connection points: 2
#     Edge 17, Type (0, 1), BuildingBlock: ZUJKAS_clean_linker_0, # of connection points: 2
#     Edge 18, Type (0, 1), BuildingBlock: ZUJKAS_clean_linker_0, # of connection points: 2
#     Edge 19, Type (0, 1), BuildingBlock: ZUJKAS_clean_linker_0, # of connection points: 2
#     Edge 20, Type (0, 1), BuildingBlock: ZUJKAS_clean_linker_0, # of connection points: 2
#     Edge 21, Type (0, 1), BuildingBlock: ZUJKAS_clean_linker_0, # of connection points: 2
#     Edge 22, Type (0, 1), BuildingBlock: ZUJKAS_clean_linker_0, # of connection points: 2
#     Edge 23, Type (0, 1), BuildingBlock: ZUJKAS_clean_linker_0, # of connection points: 2
#     Edge 24, Type (0, 1), BuildingBlock: ZUJKAS_clean_linker_0, # of connection points: 2
#     Edge 25, Type (0, 1), BuildingBlock: ZUJKAS_clean_linker_0, # of connection points: 2
#     Edge 26, Type (0, 1), BuildingBlock: ZUJKAS_clean_linker_0, # of connection points: 2
#     Edge 27, Type (0, 1), BuildingBlock: ZUJKAS_clean_linker_0, # of connection points: 2
#     Edge 28, Type (0, 1), BuildingBlock: ZUJKAS_clean_linker_0, # of connection points: 2
#     Edge 29, Type (0, 1), BuildingBlock: ZUJKAS_clean_linker_0, # of connection points: 2
#     Edge 30, Type (0, 1), BuildingBlock: ZUJKAS_clean_linker_0, # of connection points: 2
#     Edge 31, Type (0, 1), BuildingBlock: ZUJKAS_clean_linker_0, # of connection points: 2
#     Edge 32, Type (0, 1), BuildingBlock: ZUJKAS_clean_linker_0, # of connection points: 2
#     Edge 33, Type (0, 1), BuildingBlock: ZUJKAS_clean_linker_0, # of connection points: 2
#     Edge 34, Type (0, 1), BuildingBlock: ZUJKAS_clean_linker_0, # of connection points: 2
#     Edge 35, Type (0, 1), BuildingBlock: ZUJKAS_clean_linker_0, # of connection points: 2
# Relax obj value: 0.019
# Max RMSD: 0.117
# Mean RMSD: 0.079
data_MOF--net-nom--node1-TATPOV_clean_sbu_0--node2-KUFVIS_clean_linker_0--edge1-ZUJKAS_clean_linker_0
_symmetry_space_group_name_H-M    P1
_symmetry_Int_Tables_number       1
_symmetry_cell_setting            triclinic
loop_
_symmetry_equiv_pos_as_xyz
'x, y, z'
_cell_length_a     58.191551
_cell_length_b     58.759391
_cell_length_c     59.846297
_cell_angle_alpha  90.608965
_cell_angle_beta   90.563014
_cell_angle_gamma 119.94564
loop_
_atom_site_label
_atom_site_type_symbol
_atom_site_fract_x
_atom_site_fract_y
_atom_site_fract_z
_atom_type_partial_charge
H0 H 0.11297 0.53758 0.32973 0.0
H1 H 0.04895 0.51528 0.28272 0.0
H2 H 0.03323 0.48928 0.35123 0.0
H3 H 0.99554 0.48995 0.3439 0.0
H4 H 0.93196 0.44319 0.29778 0.0
H5 H 1.01208 0.4759 0.27629 0.0
C6 C 0.09191 0.52644 0.32575 0.0
C7 C 0.07402 0.51347 0.3428 0.0
C8 C 0.08306 0.52698 0.30406 0.0
C9 C 0.05563 0.51401 0.29937 0.0
C10 C 0.03708 0.49973 0.31613 0.0
C11 C 0.04672 0.49987 0.33793 0.0
C12 C 1.00785 0.48455 0.31096 0.0
C13 C 0.98908 0.48077 0.32753 0.0
C14 C 0.96171 0.46519 0.32303 0.0
C15 C 0.95306 0.4541 0.30167 0.0
C16 C 0.9711 0.45847 0.28474 0.0
C17 C 0.99841 0.47338 0.28945 0.0
H18 H 0.56362 0.12328 0.48928 0.0
H19 H 0.52588 0.05853 0.44263 0.0
H20 H 0.54258 0.04606 0.51071 0.0
H21 H 0.50329 1.00705 0.50377 0.0
H22 H 0.49374 0.94506 0.45935 0.0
H23 H 0.53502 0.02454 0.43704 0.0
C24 C 0.55508 0.10246 0.48554 0.0
C25 C 0.55415 0.0857 0.50232 0.0
C26 C 0.54494 0.09283 0.46408 0.0
C27 C 0.53393 0.06586 0.45923 0.0
C28 C 0.53261 0.04843 0.47603 0.0
C29 C 0.54279 0.05875 0.49762 0.0
C30 C 0.5211 0.01965 0.47118 0.0
C31 C 0.50703 1.00088 0.48775 0.0
C32 C 0.49764 0.974 0.48373 0.0
C33 C 0.50187 0.96586 0.46288 0.0
C34 C 0.51487 0.98388 0.44597 0.0
C35 C 0.52451 1.01073 0.45012 0.0
H36 H 0.54931 0.47556 0.63787 0.0
H37 H 0.51538 0.50867 0.6811 0.0
H38 H 0.51444 0.51813 0.6094 0.0
H39 H 0.48055 0.52426 0.61711 0.0
H40 H 0.47368 0.5811 0.65746 0.0
H41 H 0.51984 0.54826 0.68206 0.0
C42 C 0.53908 0.4866 0.63989 0.0
C43 C 0.53111 0.49493 0.62101 0.0
C44 C 0.53367 0.49171 0.66143 0.0
C45 C 0.52034 0.50585 0.66431 0.0
C46 C 0.51386 0.51644 0.6457 0.0
C47 C 0.5193 0.5106 0.62401 0.0
C48 C 0.50218 0.53401 0.64895 0.0
C49 C 0.48596 0.53618 0.63224 0.0
C50 C 0.4765 0.55386 0.63498 0.0
C51 C 0.48217 0.56853 0.65487 0.0
C52 C 0.49704 0.56589 0.67205 0.0
C53 C 0.50746 0.54913 0.66888 0.0
H54 H 0.09906 0.54773 0.79026 0.0
H55 H 0.03423 0.51811 0.83504 0.0
H56 H 0.02177 0.48967 0.7663 0.0
H57 H 0.98077 0.48368 0.77148 0.0
H58 H 0.91947 0.4399 0.81816 0.0
H59 H 1.00026 0.47909 0.84088 0.0
C60 C 0.0781 0.53493 0.7932 0.0
C61 C 0.06151 0.51897 0.77574 0.0
C62 C 0.06851 0.53411 0.81463 0.0
C63 C 0.04135 0.51782 0.81847 0.0
C64 C 0.02375 0.50171 0.80111 0.0
C65 C 0.03432 0.50244 0.77972 0.0
C66 C 0.99472 0.48388 0.80551 0.0
C67 C 0.97523 0.47646 0.78825 0.0
C68 C 0.94814 0.46044 0.79285 0.0
C69 C 0.94042 0.45177 0.81458 0.0
C70 C 0.95911 0.45884 0.8319 0.0
C71 C 0.98614 0.47452 0.8273 0.0
H72 H 0.51475 0.93435 -0.00176 0.0
H73 H 0.5581 0.9937 0.95035 0.0
H74 H 0.55205 0.01507 0.01886 0.0
H75 H 0.59075 0.05054 0.012 0.0
H76 H 0.61706 0.11126 0.96369 0.0
H77 H 0.56104 0.03233 0.94354 0.0
C78 C 0.5267 0.95498 -0.00581 0.0
C79 C 0.53346 0.974 0.01099 0.0
C80 C 0.53485 0.96202 0.97226 0.0
C81 C 0.55102 0.9887 0.96723 0.0
C82 C 0.55761 1.00855 0.98386 0.0
C83 C 0.54815 1.0007 0.00576 0.0
C84 C 0.57408 0.0372 0.97838 0.0
C85 C 0.58996 0.0562 -0.00501 0.0
C86 C 0.6054 0.08286 0.98966 0.0
C87 C 0.60558 0.09058 0.96765 0.0
C88 C 0.5899 0.07244 0.951 0.0
C89 C 0.57383 0.04592 0.95646 0.0
H90 H 0.51236 0.60617 0.14169 0.0
H91 H 0.53577 0.56772 0.18965 0.0
H92 H 0.52431 0.54336 0.11985 0.0
H93 H 0.55677 0.53436 0.12778 0.0
H94 H 0.55644 0.47749 0.17202 0.0
H95 H 0.52516 0.52588 0.19441 0.0
C96 C 0.51849 0.59192 0.1454 0.0
C97 C 0.5188 0.57583 0.1282 0.0
C98 C 0.52402 0.58872 0.16754 0.0
C99 C 0.53095 0.56953 0.1725 0.0
C100 C 0.53191 0.55319 0.15531 0.0
C101 C 0.52511 0.55629 0.13323 0.0
C102 C 0.53924 0.53253 0.1602 0.0
C103 C 0.55138 0.52468 0.14371 0.0
C104 C 0.5568 0.50427 0.14769 0.0
C105 C 0.55105 0.49233 0.16853 0.0
C106 C 0.54034 0.50052 0.1855 0.0
C107 C 0.53416 0.52035 0.18127 0.0
Zn108 Zn 0.68505 0.45614 0.40657 0.0
Zn109 Zn 0.65846 0.40426 0.40268 0.0
O110 O 0.69875 0.41552 0.40121 0.0
O111 O 0.72037 0.45864 0.40412 0.0
O112 O 0.64057 0.36442 0.4039 0.0
O113 O 0.67029 0.45598 0.43671 0.0
O114 O 0.64417 0.41343 0.43103 0.0
C115 C 0.72062 0.43735 0.40193 0.0
C116 C 0.6479 0.4356 0.36845 0.0
O117 O 0.64353 0.41315 0.37483 0.0
O118 O 0.6645 0.45622 0.37907 0.0
C119 C 0.63295 0.34849 0.38726 0.0
O120 O 0.63597 0.35771 0.36695 0.0
C121 C 0.65112 0.43425 0.44265 0.0
Zn122 Zn 0.24613 0.68872 0.56892 0.0
Zn123 Zn 0.27744 0.66768 0.56561 0.0
O124 O 0.30314 0.70827 0.56491 0.0
O125 O 0.27713 0.72538 0.56711 0.0
O126 O 0.30223 0.65278 0.56565 0.0
O127 O 0.23262 0.67196 0.59872 0.0
O128 O 0.25446 0.65076 0.59334 0.0
C129 C 0.30014 0.72838 0.56543 0.0
C130 C 0.23437 0.65342 0.53041 0.0
O131 O 0.25442 0.65211 0.53741 0.0
O132 O 0.22705 0.66758 0.54082 0.0
C133 C 0.29333 0.62819 0.56357 0.0
O134 O 0.26766 0.61241 0.56089 0.0
C135 C 0.23823 0.65467 0.60461 0.0
Zn136 Zn 0.5735 0.24831 0.73681 0.0
Zn137 Zn 0.62623 0.27733 0.73734 0.0
O138 O 0.61316 0.30461 0.73785 0.0
O139 O 0.56968 0.28027 0.73907 0.0
O140 O 0.66641 0.3002 0.73925 0.0
O141 O 0.57411 0.22979 0.76446 0.0
O142 O 0.61771 0.25329 0.76487 0.0
C143 C 0.59034 0.30269 0.73888 0.0
C144 C 0.59716 0.23901 0.69825 0.0
O145 O 0.61877 0.256 0.70784 0.0
O146 O 0.57513 0.23297 0.70698 0.0
C147 C 0.68101 0.31079 0.72245 0.0
O148 O 0.6699 0.30693 0.70251 0.0
C149 C 0.59622 0.23539 0.77325 0.0
Zn150 Zn 0.35615 0.59126 0.89947 0.0
Zn151 Zn 0.3811 0.6435 0.90246 0.0
O152 O 0.34093 0.63253 0.89999 0.0
O153 O 0.32085 0.58931 0.89883 0.0
O154 O 0.40022 0.68334 0.90625 0.0
O155 O 0.37178 0.58889 0.92858 0.0
O156 O 0.39306 0.63207 0.93106 0.0
C157 C 0.31963 0.61021 0.89908 0.0
C158 C 0.39294 0.61585 0.86401 0.0
O159 O 0.39699 0.63686 0.874 0.0
O160 O 0.37587 0.59369 0.87133 0.0
C161 C 0.41164 0.69949 0.89059 0.0
O162 O 0.4109 0.69043 0.87027 0.0
C163 C 0.38779 0.60989 0.93894 0.0
Zn164 Zn 0.79787 0.4542 0.06182 0.0
Zn165 Zn 0.76774 0.40175 0.06045 0.0
O166 O 0.73991 0.41414 0.06366 0.0
O167 O 0.76507 0.45723 0.06403 0.0
O168 O 0.74673 0.36201 0.05731 0.0
O169 O 0.81366 0.45455 0.03206 0.0
O170 O 0.78946 0.41144 0.03144 0.0
C171 C 0.74229 0.43697 0.06472 0.0
C172 C 0.81027 0.42909 0.0973 0.0
O173 O 0.79158 0.40818 0.08824 0.0
O174 O 0.81638 0.45129 0.08939 0.0
C175 C 0.72697 0.34604 0.0687 0.0
O176 O 0.71784 0.35521 0.08427 0.0
C177 C 0.80682 0.43269 0.02256 0.0
Zn178 Zn 0.35872 0.79526 0.22887 0.0
Zn179 Zn 0.38556 0.76967 0.22725 0.0
O180 O 0.34577 0.74028 0.22972 0.0
O181 O 0.32391 0.76188 0.23026 0.0
O182 O 0.40501 0.74907 0.22442 0.0
O183 O 0.37304 0.81207 0.19947 0.0
O184 O 0.39636 0.79195 0.19849 0.0
C185 C 0.32385 0.74032 0.23054 0.0
C186 C 0.3975 0.81043 0.26459 0.0
O187 O 0.40225 0.7936 0.25528 0.0
O188 O 0.3793 0.8141 0.25681 0.0
C189 C 0.40994 0.73844 0.24082 0.0
O190 O 0.40234 0.74084 0.26089 0.0
C191 C 0.38986 0.80779 0.18992 0.0
H192 H 0.12757 0.52542 0.29329 0.0
H193 H 0.16622 0.55918 0.27394 0.0
H194 H 0.12311 0.59916 0.25808 0.0
H195 H 0.08444 0.56559 0.2779 0.0
H196 H 0.17818 0.58287 0.2312 0.0
H197 H 0.18485 0.65137 0.29912 0.0
H198 H 0.1631 0.61632 0.30045 0.0
H199 H 0.15412 0.63583 0.28348 0.0
C200 C 0.12612 0.54107 0.28518 0.0
C201 C 0.10315 0.54309 0.28732 0.0
C202 C 0.1482 0.56031 0.27411 0.0
C203 C 0.14773 0.58196 0.26501 0.0
C204 C 0.124 0.5828 0.26533 0.0
H205 H 0.27443 0.73413 0.22616 0.0
H206 H 0.23189 0.69474 0.23198 0.0
C207 C 0.10184 0.56349 0.27644 0.0
C208 C 0.17287 0.60486 0.25765 0.0
H209 H 0.21732 0.66871 0.2715 0.0
C210 C 0.18672 0.60171 0.23989 0.0
C211 C 0.18415 0.62929 0.26926 0.0
C212 C 0.17098 0.63348 0.28926 0.0
C213 C 0.21135 0.62253 0.2332 0.0
C214 C 0.22256 0.64693 0.24483 0.0
C215 C 0.20866 0.65001 0.26254 0.0
C216 C 0.24853 0.66983 0.23897 0.0
C217 C 0.22499 0.61837 0.21358 0.0
C218 C 0.27219 0.66894 0.24073 0.0
C219 C 0.29678 0.69159 0.23734 0.0
C220 C 0.29808 0.71556 0.23238 0.0
C221 C 0.27426 0.7161 0.23011 0.0
C222 C 0.24984 0.69355 0.23338 0.0
H223 H 0.21101 0.60109 0.20314 0.0
H224 H 0.23418 0.63599 0.20292 0.0
H225 H 0.24094 0.61485 0.21983 0.0
H226 H 0.27171 0.65097 0.24545 0.0
H227 H 0.31474 0.69052 0.23929 0.0
H228 H 0.5215 0.12263 0.46596 0.0
H229 H 0.53326 0.16208 0.44465 0.0
H230 H 0.58523 0.14693 0.40411 0.0
H231 H 0.57349 0.10729 0.42571 0.0
H232 H 0.61058 0.1956 0.42413 0.0
H233 H 0.51844 0.18066 0.38314 0.0
H234 H 0.51378 0.17268 0.4122 0.0
H235 H 0.52194 0.15372 0.39341 0.0
C236 C 0.53464 0.12719 0.45193 0.0
C237 C 0.54642 0.11186 0.4473 0.0
C238 C 0.54133 0.14973 0.43971 0.0
C239 C 0.55996 0.15742 0.4226 0.0
C240 C 0.57064 0.14127 0.41711 0.0
H241 H 0.61249 0.30844 0.35587 0.0
H242 H 0.5953 0.26149 0.362 0.0
C243 C 0.56379 0.11855 0.4293 0.0
C244 C 0.57087 0.18401 0.41293 0.0
H245 H 0.55271 0.22583 0.38988 0.0
C246 C 0.59799 0.20205 0.41626 0.0
C247 C 0.55455 0.1925 0.40254 0.0
C248 C 0.52561 0.17378 0.3974 0.0
C249 C 0.60891 0.22856 0.41057 0.0
C250 C 0.59222 0.2374 0.40158 0.0
C251 C 0.56542 0.21912 0.39709 0.0
C252 C 0.60207 0.26573 0.39778 0.0
C253 C 0.63817 0.247 0.4146 0.0
C254 C 0.61111 0.28361 0.4159 0.0
C255 C 0.62084 0.31038 0.4125 0.0
C256 C 0.62172 0.31989 0.39086 0.0
C257 C 0.61221 0.30184 0.37275 0.0
C258 C 0.60235 0.27499 0.3762 0.0
H259 H 0.6493 0.23621 0.41563 0.0
H260 H 0.64668 0.26165 0.40112 0.0
H261 H 0.64113 0.25776 0.43069 0.0
H262 H 0.61065 0.27684 0.43275 0.0
H263 H 0.62787 0.32364 0.42685 0.0
H264 H 0.42933 0.51548 0.61698 0.0
H265 H 0.39653 0.52226 0.59636 0.0
H266 H 0.45176 0.60562 0.59586 0.0
H267 H 0.48444 0.59885 0.61603 0.0
H268 H 0.37632 0.55104 0.61465 0.0
H269 H 0.42025 0.59372 0.53354 0.0
H270 H 0.43224 0.57644 0.55051 0.0
H271 H 0.44303 0.6105 0.55629 0.0
C272 C 0.43474 0.53507 0.61164 0.0
C273 C 0.45938 0.55665 0.61801 0.0
C274 C 0.41597 0.53896 0.60002 0.0
C275 C 0.42173 0.56444 0.59437 0.0
C276 C 0.447 0.58574 0.59954 0.0
H277 H 0.3472 0.6551 0.57045 0.0
H278 H 0.37653 0.63683 0.57559 0.0
C279 C 0.46563 0.58188 0.61118 0.0
C280 C 0.40053 0.56948 0.58613 0.0
H281 H 0.38724 0.60378 0.5473 0.0
C282 C 0.37838 0.56206 0.59965 0.0
C283 C 0.40332 0.58401 0.56664 0.0
C284 C 0.42588 0.59139 0.55081 0.0
C285 C 0.35978 0.57002 0.59492 0.0
C286 C 0.36319 0.58549 0.57594 0.0
C287 C 0.38474 0.59204 0.56191 0.0
C288 C 0.34547 0.59635 0.57121 0.0
C289 C 0.33742 0.56298 0.61094 0.0
C290 C 0.31834 0.57968 0.56659 0.0
C291 C 0.30148 0.59005 0.56372 0.0
C292 C 0.31146 0.61733 0.5653 0.0
C293 C 0.33882 0.63401 0.56922 0.0
C294 C 0.35564 0.62361 0.5721 0.0
H295 H 0.34069 0.55563 0.62701 0.0
H296 H 0.33501 0.58025 0.61453 0.0
H297 H 0.31862 0.54732 0.60328 0.0
H298 H 0.31015 0.5586 0.56547 0.0
H299 H 0.28057 0.57663 0.56056 0.0
H300 H 0.9097 0.4735 0.79191 0.0
H301 H 0.86716 0.44981 0.77188 0.0
H302 H 0.89505 0.40451 0.73593 0.0
H303 H 0.93769 0.42803 0.75645 0.0
H304 H 0.84735 0.43819 0.72849 0.0
H305 H 0.83372 0.34912 0.77193 0.0
H306 H 0.86082 0.38153 0.77869 0.0
H307 H 0.8618 0.36446 0.75394 0.0
C308 C 0.90706 0.45914 0.77914 0.0
C309 C 0.92688 0.45253 0.77569 0.0
C310 C 0.88271 0.44553 0.76776 0.0
C311 C 0.87766 0.42494 0.7528 0.0
C312 C 0.89834 0.41998 0.74774 0.0
H313 H 0.71828 0.3341 0.68999 0.0
H314 H 0.76642 0.36131 0.69497 0.0
C315 C 0.92281 0.43364 0.75921 0.0
C316 C 0.84996 0.40708 0.74479 0.0
H317 H 0.79773 0.34484 0.75065 0.0
C318 C 0.83655 0.41768 0.73305 0.0
C319 C 0.83576 0.38042 0.75114 0.0
C320 C 0.8486 0.36815 0.76477 0.0
C321 C 0.80927 0.40254 0.72792 0.0
C322 C 0.79508 0.37594 0.73439 0.0
C323 C 0.80864 0.36519 0.74563 0.0
C324 C 0.76586 0.35934 0.73106 0.0
C325 C 0.79563 0.4155 0.71655 0.0
C326 C 0.74953 0.3486 0.74962 0.0
C327 C 0.72204 0.33284 0.74683 0.0
C328 C 0.71024 0.32741 0.72537 0.0
C329 C 0.72666 0.33802 0.70677 0.0
C330 C 0.75421 0.35373 0.70958 0.0
H331 H 0.80789 0.43728 0.71732 0.0
H332 H 0.79196 0.40928 0.69869 0.0
H333 H 0.77621 0.40956 0.72428 0.0
H334 H 0.75807 0.35258 0.76636 0.0
H335 H 0.71005 0.325 0.76154 0.0
H336 H 0.484 0.92767 0.96062 0.0
H337 H 0.46735 0.88609 0.94009 0.0
H338 H 0.54761 0.90591 0.92541 0.0
H339 H 0.56439 0.94765 0.94644 0.0
H340 H 0.47169 0.86969 0.89757 0.0
H341 H 0.51998 0.83888 0.96183 0.0
H342 H 0.51756 0.86815 0.96511 0.0
H343 H 0.54169 0.86794 0.94674 0.0
C344 C 0.49805 0.92344 0.95249 0.0
C345 C 0.52545 0.94072 0.95514 0.0
C346 C 0.48854 0.89967 0.9408 0.0
C347 C 0.50622 0.89262 0.9316 0.0
C348 C 0.53362 0.91076 0.93273 0.0
H349 H 0.44103 0.73918 0.86168 0.0
H350 H 0.46564 0.78646 0.86973 0.0
C351 C 0.54319 0.9347 0.94448 0.0
C352 C 0.4957 0.86535 0.92285 0.0
H353 H 0.49314 0.80737 0.93474 0.0
C354 C 0.47663 0.85612 0.90547 0.0
C355 C 0.50182 0.84755 0.93347 0.0
C356 C 0.52121 0.85595 0.95294 0.0
C357 C 0.46308 0.82949 0.89876 0.0
C358 C 0.46908 0.81169 0.9095 0.0
C359 C 0.48863 0.82106 0.92649 0.0
C360 C 0.45424 0.78299 0.90438 0.0
C361 C 0.44161 0.82046 0.88096 0.0
C362 C 0.4401 0.7652 0.92128 0.0
C363 C 0.42618 0.73814 0.9168 0.0
C364 C 0.42614 0.72825 0.89529 0.0
C365 C 0.44044 0.7461 0.8784 0.0
C366 C 0.45444 0.77319 0.88293 0.0
H367 H 0.4353 0.83521 0.87811 0.0
H368 H 0.44921 0.81729 0.86498 0.0
H369 H 0.42397 0.8016 0.88554 0.0
H370 H 0.43971 0.7723 0.93798 0.0
H371 H 0.41545 0.725 0.93022 0.0
H372 H 0.54101 0.45455 0.13302 0.0
H373 H 0.56751 0.43958 0.11274 0.0
H374 H 0.62966 0.51995 0.10551 0.0
H375 H 0.60303 0.53507 0.12572 0.0
H376 H 0.62082 0.48544 0.06692 0.0
H377 H 0.63202 0.44442 0.147 0.0
H378 H 0.59847 0.43315 0.13788 0.0
H379 H 0.61962 0.46707 0.14571 0.0
C380 C 0.56008 0.46904 0.12664 0.0
C381 C 0.57009 0.49596 0.13108 0.0
C382 C 0.57523 0.46047 0.11517 0.0
C383 C 0.60077 0.47862 0.10807 0.0
C384 C 0.61003 0.50561 0.11097 0.0
H385 H 0.74109 0.48264 0.06249 0.0
H386 H 0.70435 0.48992 0.07038 0.0
C387 C 0.59477 0.51425 0.12239 0.0
C388 C 0.61863 0.46938 0.09949 0.0
H389 H 0.65231 0.43829 0.11553 0.0
C390 C 0.62763 0.47502 0.07749 0.0
C391 C 0.6274 0.45568 0.11329 0.0
C392 C 0.61911 0.44985 0.13734 0.0
C393 C 0.6453 0.46744 0.06895 0.0
C394 C 0.6546 0.45435 0.08295 0.0
C395 C 0.64507 0.44816 0.10477 0.0
C396 C 0.67602 0.44905 0.07612 0.0
C397 C 0.65379 0.47349 0.04499 0.0
C398 C 0.67254 0.4236 0.07701 0.0
C399 C 0.69375 0.41931 0.07262 0.0
C400 C 0.71889 0.44048 0.06756 0.0
C401 C 0.72205 0.46582 0.06632 0.0
C402 C 0.70094 0.47003 0.07062 0.0
H403 H 0.63872 0.47518 0.03471 0.0
H404 H 0.67256 0.49259 0.04443 0.0
H405 H 0.65722 0.45814 0.03739 0.0
H406 H 0.65353 0.40713 0.08144 0.0
H407 H 0.69065 0.39959 0.0738 0.0
H408 H 0.45466 0.96775 0.50707 0.0
H409 H 0.42358 0.92895 0.52802 0.0
H410 H 0.47323 0.89473 0.51744 0.0
H411 H 0.50447 0.93354 0.49704 0.0
H412 H 0.39706 0.88029 0.50801 0.0
H413 H 0.4527 0.87613 0.58193 0.0
H414 H 0.46371 0.90565 0.56601 0.0
H415 H 0.47002 0.88021 0.55632 0.0
C416 C 0.45938 0.95236 0.50994 0.0
C417 C 0.48194 0.95363 0.50038 0.0
C418 C 0.44154 0.93013 0.52177 0.0
C419 C 0.44613 0.90896 0.52446 0.0
C420 C 0.46946 0.91094 0.51601 0.0
H421 H 0.35132 0.74307 0.55376 0.0
H422 H 0.38723 0.78755 0.54554 0.0
C423 C 0.48721 0.93307 0.50419 0.0
C424 C 0.42512 0.88355 0.53335 0.0
H425 H 0.41312 0.83604 0.57146 0.0
C426 C 0.40046 0.87081 0.5221 0.0
C427 C 0.42968 0.87099 0.55153 0.0
C428 C 0.45539 0.88406 0.56478 0.0
C429 C 0.38051 0.84565 0.52812 0.0
C430 C 0.3851 0.83298 0.54618 0.0
C431 C 0.40966 0.84576 0.5576 0.0
C432 C 0.36445 0.80647 0.55331 0.0
C433 C 0.35495 0.83248 0.51459 0.0
C434 C 0.34009 0.8025 0.56108 0.0
C435 C 0.31959 0.77723 0.56567 0.0
C436 C 0.32305 0.75531 0.56279 0.0
C437 C 0.34796 0.75948 0.55609 0.0
C438 C 0.36849 0.78487 0.5514 0.0
H439 H 0.3571 0.84185 0.49813 0.0
H440 H 0.34808 0.81132 0.51172 0.0
H441 H 0.33937 0.83403 0.52388 0.0
H442 H 0.33671 0.81894 0.5631 0.0
H443 H 0.30081 0.77485 0.57105 0.0
H444 H 0.50138 0.45669 0.6922 0.0
H445 H 0.51225 0.4291 0.71553 0.0
H446 H 0.5937 0.47308 0.69496 0.0
H447 H 0.58296 0.50075 0.67206 0.0
H448 H 0.529 0.39908 0.69405 0.0
H449 H 0.60323 0.459 0.75955 0.0
H450 H 0.58275 0.46981 0.74561 0.0
H451 H 0.61204 0.4734 0.73246 0.0
C452 C 0.52181 0.46118 0.69356 0.0
C453 C 0.54135 0.48077 0.6804 0.0
C454 C 0.52799 0.44534 0.70675 0.0
C455 C 0.55383 0.44907 0.70709 0.0
C456 C 0.57378 0.47011 0.69539 0.0
H457 H 0.62588 0.35256 0.72515 0.0
H458 H 0.61732 0.38918 0.72022 0.0
C459 C 0.56761 0.48585 0.68221 0.0
C460 C 0.55891 0.42844 0.71597 0.0
H461 H 0.60091 0.41811 0.74916 0.0
C462 C 0.54439 0.40314 0.70643 0.0
C463 C 0.57935 0.43387 0.73178 0.0
C464 C 0.59507 0.46045 0.74309 0.0
C465 C 0.55022 0.38336 0.71168 0.0
C466 C 0.5708 0.3888 0.72733 0.0
C467 C 0.58515 0.41399 0.73716 0.0
C468 C 0.5776 0.3684 0.73331 0.0
C469 C 0.53491 0.35706 0.69973 0.0
C470 C 0.55854 0.34506 0.74307 0.0
C471 C 0.56323 0.32415 0.74565 0.0
C472 C 0.58728 0.32626 0.73882 0.0
C473 C 0.60713 0.35032 0.73049 0.0
C474 C 0.60228 0.37124 0.72769 0.0
H475 H 0.52465 0.35822 0.68439 0.0
H476 H 0.5482 0.34937 0.69501 0.0
H477 H 0.5196 0.34278 0.71101 0.0
H478 H 0.53958 0.34266 0.74795 0.0
H479 H 0.54767 0.30604 0.75247 0.0
H480 H 0.10775 0.58559 0.81631 0.0
H481 H 0.14855 0.60356 0.83895 0.0
H482 H 0.11513 0.53212 0.87647 0.0
H483 H 0.07442 0.51386 0.85359 0.0
H484 H 0.16596 0.6094 0.88704 0.0
H485 H 0.1758 0.53436 0.83712 0.0
H486 H 0.1516 0.54396 0.83032 0.0
H487 H 0.14606 0.5222 0.85307 0.0
C488 C 0.10873 0.57413 0.82997 0.0
C489 C 0.0881 0.54818 0.83299 0.0
C490 C 0.13204 0.58444 0.84291 0.0
C491 C 0.13502 0.56897 0.85907 0.0
C492 C 0.11326 0.54427 0.86391 0.0
H493 H 0.2729 0.56879 0.91148 0.0
H494 H 0.22838 0.56153 0.9048 0.0
C495 C 0.08992 0.53393 0.85095 0.0
C496 C 0.16193 0.57651 0.86765 0.0
H497 H 0.21015 0.55996 0.86271 0.0
C498 C 0.17565 0.59857 0.88188 0.0
C499 C 0.17466 0.5626 0.86051 0.0
C500 C 0.16146 0.53959 0.84427 0.0
C501 C 0.2016 0.60664 0.88965 0.0
C502 C 0.21417 0.59252 0.88263 0.0
C503 C 0.20044 0.57066 0.86822 0.0
C504 C 0.24138 0.59941 0.89004 0.0
C505 C 0.21517 0.62985 0.90555 0.0
C506 C 0.26368 0.62349 0.88452 0.0
C507 C 0.2894 0.62783 0.88853 0.0
C508 C 0.29311 0.60794 0.89773 0.0
C509 C 0.27074 0.58441 0.90412 0.0
C510 C 0.24523 0.58023 0.90038 0.0
H511 H 0.20077 0.63444 0.91354 0.0
H512 H 0.22636 0.62621 0.91882 0.0
H513 H 0.22947 0.64735 0.89618 0.0
H514 H 0.26122 0.6384 0.87615 0.0
H515 H 0.30626 0.6461 0.88335 0.0
H516 H 0.58499 0.09639 0.0248 0.0
H517 H 0.60642 0.13934 0.04426 0.0
H518 H 0.67964 0.16035 0.0111 0.0
H519 H 0.65826 0.1177 -0.00847 0.0
H520 H 0.65842 0.17329 0.07057 0.0
H521 H 0.6514 0.20956 0.98678 0.0
H522 H 0.63256 0.17531 -0.00608 0.0
H523 H 0.66711 0.18988 0.98755 0.0
C524 C 0.60596 0.10975 0.02248 0.0
C525 C 0.62004 0.10381 0.00673 0.0
C526 C 0.61813 0.13432 0.03346 0.0
C527 C 0.64447 0.15313 0.02882 0.0
C528 C 0.65923 0.14617 0.01476 0.0
H529 H 0.74409 0.32086 0.04058 0.0
H530 H 0.72373 0.27379 0.03297 0.0
C531 C 0.64708 0.12176 0.00373 0.0
C532 C 0.65543 0.18097 0.03592 0.0
H533 H 0.67474 0.2416 0.01495 0.0
C534 C 0.66191 0.18827 0.0585 0.0
C535 C 0.65975 0.20038 0.02011 0.0
C536 C 0.65217 0.19348 -0.00425 0.0
C537 C 0.67352 0.21476 0.06555 0.0
C538 C 0.67827 0.23425 0.04962 0.0
C539 C 0.67125 0.22672 0.02714 0.0
C540 C 0.69116 0.2627 0.05557 0.0
C541 C 0.68135 0.22173 0.08983 0.0
C542 C 0.67961 0.27226 0.07078 0.0
C543 C 0.69131 0.2993 0.07525 0.0
C544 C 0.71463 0.31731 0.06441 0.0
C545 C 0.72612 0.30762 0.04921 0.0
C546 C 0.71451 0.28066 0.04485 0.0
H547 H 0.68254 0.20579 0.09865 0.0
H548 H 0.70081 0.2401 0.09158 0.0
H549 H 0.66626 0.22492 0.09823 0.0
H550 H 0.66126 0.25888 0.07887 0.0
H551 H 0.68186 0.30608 0.08697 0.0
H552 H 0.4896 0.57051 0.20218 0.0
H553 H 0.47236 0.59527 0.22245 0.0
H554 H 0.53015 0.66646 0.19103 0.0
H555 H 0.54752 0.64188 0.17102 0.0
H556 H 0.51841 0.67425 0.23588 0.0
H557 H 0.4282 0.61678 0.18229 0.0
H558 H 0.43756 0.59796 0.19978 0.0
H559 H 0.45873 0.61674 0.17746 0.0
C560 C 0.49933 0.59162 0.2004 0.0
C561 C 0.51983 0.60431 0.18503 0.0
C562 C 0.48927 0.6057 0.21175 0.0
C563 C 0.49959 0.63261 0.20784 0.0
C564 C 0.52179 0.64572 0.19422 0.0
H565 H 0.4268 0.72826 0.20135 0.0
H566 H 0.44875 0.70249 0.19544 0.0
C567 C 0.53178 0.63169 0.18287 0.0
C568 C 0.48548 0.64649 0.21538 0.0
H569 H 0.42909 0.64953 0.20565 0.0
C570 C 0.49874 0.66869 0.22953 0.0
C571 C 0.46002 0.63949 0.20669 0.0
C572 C 0.44528 0.61659 0.19057 0.0
C573 C 0.48732 0.6842 0.23504 0.0
C574 C 0.4619 0.67719 0.22629 0.0
C575 C 0.44852 0.6548 0.21241 0.0
C576 C 0.44928 0.69347 0.23033 0.0
C577 C 0.50295 0.70851 0.24948 0.0
C578 C 0.44213 0.6969 0.25192 0.0
C579 C 0.42953 0.71164 0.25537 0.0
C580 C 0.42373 0.72318 0.23727 0.0
C581 C 0.43097 0.71971 0.21568 0.0
C582 C 0.44351 0.70495 0.21226 0.0
H583 H 0.52419 0.71413 0.25099 0.0
H584 H 0.50162 0.7253 0.2426 0.0
H585 H 0.49455 0.70476 0.26649 0.0
H586 H 0.44595 0.68785 0.26607 0.0
H587 H 0.42416 0.71381 0.27221 0.0
H588 H 0.9588 0.50291 0.34805 0.0
H589 H 0.92026 0.49762 0.36874 0.0
H590 H 0.87974 0.41422 0.35485 0.0
H591 H 0.91826 0.41935 0.33468 0.0
H592 H 0.8724 0.47951 0.34715 0.0
H593 H 0.85937 0.416 0.41919 0.0
H594 H 0.89018 0.43308 0.40435 0.0
H595 H 0.86324 0.40278 0.39325 0.0
C596 C 0.94205 0.48336 0.35017 0.0
C597 C 0.94146 0.46155 0.33971 0.0
C598 C 0.91999 0.48036 0.36185 0.0
C599 C 0.89714 0.45549 0.36347 0.0
C600 C 0.89725 0.43351 0.35423 0.0
H601 H 0.73017 0.39779 0.38866 0.0
H602 H 0.77346 0.40184 0.38093 0.0
C603 C 0.91922 0.43649 0.34255 0.0
C604 C 0.87202 0.45295 0.37185 0.0
H605 H 0.82153 0.41964 0.4083 0.0
C606 C 0.86148 0.4667 0.36074 0.0
C607 C 0.85756 0.4359 0.38933 0.0
C608 C 0.86827 0.42128 0.40237 0.0
C609 C 0.83668 0.46348 0.36626 0.0
C610 C 0.82215 0.44638 0.38368 0.0
C611 C 0.83268 0.43268 0.39492 0.0
C612 C 0.79619 0.44297 0.3905 0.0
C613 C 0.82589 0.4779 0.35297 0.0
C614 C 0.79474 0.46449 0.39907 0.0
C615 C 0.7702 0.4623 0.40335 0.0
C616 C 0.74649 0.43843 0.39935 0.0
C617 C 0.74802 0.41646 0.39184 0.0
C618 C 0.77272 0.41873 0.38744 0.0
H619 H 0.83616 0.48484 0.33682 0.0
H620 H 0.80431 0.46516 0.34951 0.0
H621 H 0.82884 0.49534 0.36275 0.0
H622 H 0.81263 0.48323 0.40194 0.0
H623 H 0.76984 0.47955 0.40942 0.0
H624 H 0.06061 0.53283 0.3787 0.0
H625 H 0.08672 0.5505 0.41336 0.0
H626 H 0.13771 0.52044 0.39344 0.0
H627 H 0.11202 0.5033 0.35853 0.0
H628 H 0.10443 0.53262 0.44939 0.0
H629 H 0.18755 0.5999 0.39547 0.0
H630 H 0.1542 0.57951 0.38476 0.0
H631 H 0.17509 0.56559 0.38992 0.0
C632 C 0.07684 0.52924 0.3821 0.0
C633 C 0.08451 0.51695 0.36595 0.0
C634 C 0.09182 0.53945 0.40182 0.0
C635 C 0.11456 0.53739 0.40563 0.0
C636 C 0.12062 0.52279 0.39053 0.0
H637 H 0.24341 0.62027 0.50404 0.0
H638 H 0.21441 0.59035 0.47433 0.0
C639 C 0.10583 0.51283 0.37073 0.0
C640 C 0.13332 0.5528 0.42404 0.0
H641 H 0.19594 0.60401 0.43428 0.0
C642 C 0.12448 0.54813 0.44613 0.0
C643 C 0.15944 0.57317 0.41967 0.0
C644 C 0.16964 0.58008 0.39618 0.0
C645 C 0.14108 0.56332 0.464 0.0
C646 C 0.16703 0.58383 0.45956 0.0
C647 C 0.17605 0.58817 0.43756 0.0
C648 C 0.18465 0.60195 0.47738 0.0
C649 C 0.13077 0.55737 0.48748 0.0
C650 C 0.17781 0.61883 0.48842 0.0
C651 C 0.19437 0.63607 0.50519 0.0
C652 C 0.21815 0.63678 0.51126 0.0
C653 C 0.22525 0.62023 0.49978 0.0
C654 C 0.20868 0.60306 0.48289 0.0
H655 H 0.11332 0.5373 0.48864 0.0
H656 H 0.14644 0.55925 0.49935 0.0
H657 H 0.12458 0.57165 0.49275 0.0
H658 H 0.1596 0.61864 0.48405 0.0
H659 H 0.18828 0.64854 0.51363 0.0
H660 H 0.60382 0.12464 0.51362 0.0
H661 H 0.61827 0.14938 0.54905 0.0
H662 H 0.54114 0.09834 0.57642 0.0
H663 H 0.52707 0.07304 0.54123 0.0
H664 H 0.59776 0.17696 0.5647 0.0
H665 H 0.58704 0.10592 0.62922 0.0
H666 H 0.58677 0.09888 0.59975 0.0
H667 H 0.55704 0.09408 0.61303 0.0
C668 C 0.59031 0.11825 0.52751 0.0
C669 C 0.56441 0.09693 0.52486 0.0
C670 C 0.59852 0.13242 0.54768 0.0
C671 C 0.5809 0.12565 0.56551 0.0
C672 C 0.55536 0.10356 0.56317 0.0
H673 H 0.55451 0.19968 0.67595 0.0
H674 H 0.55443 0.17366 0.64395 0.0
C675 C 0.54727 0.08914 0.54306 0.0
C676 C 0.588 0.14352 0.5853 0.0
H677 H 0.5866 0.14483 0.64233 0.0
C678 C 0.59586 0.17002 0.58168 0.0
C679 C 0.58555 0.13454 0.60747 0.0
C680 C 0.57891 0.10686 0.6126 0.0
C681 C 0.60006 0.1874 0.59955 0.0
C682 C 0.59629 0.17803 0.62158 0.0
C683 C 0.58937 0.15186 0.62533 0.0
C684 C 0.59705 0.19446 0.64075 0.0
C685 C 0.6073 0.21534 0.59481 0.0
C686 C 0.62114 0.21496 0.64938 0.0
C687 C 0.62133 0.22998 0.6678 0.0
C688 C 0.59739 0.22471 0.67777 0.0
C689 C 0.57333 0.20437 0.66872 0.0
C690 C 0.5732 0.18936 0.65048 0.0
H691 H 0.60773 0.21907 0.57662 0.0
H692 H 0.59285 0.2199 0.60274 0.0
H693 H 0.62716 0.22899 0.6022 0.0
H694 H 0.63974 0.21911 0.64203 0.0
H695 H 0.64018 0.24544 0.6744 0.0
H696 H 0.48453 0.54282 0.71263 0.0
H697 H 0.47657 0.56085 0.74681 0.0
H698 H 0.50538 0.63568 0.71516 0.0
H699 H 0.51265 0.61743 0.68068 0.0
H700 H 0.50423 0.60209 0.77626 0.0
H701 H 0.42942 0.6152 0.72809 0.0
H702 H 0.44504 0.5979 0.71667 0.0
H703 H 0.46268 0.63321 0.71803 0.0
C704 C 0.48987 0.56332 0.71319 0.0
C705 C 0.49891 0.57867 0.69399 0.0
C706 C 0.48522 0.57359 0.73268 0.0
C707 C 0.48969 0.5994 0.73331 0.0
C708 C 0.50109 0.6155 0.71483 0.0
H709 H 0.42771 0.65893 0.83997 0.0
H710 H 0.45524 0.65974 0.8087 0.0
C711 C 0.50543 0.60515 0.69523 0.0
C712 C 0.47996 0.60828 0.75246 0.0
H713 H 0.43297 0.62437 0.76657 0.0
C714 C 0.48893 0.60733 0.77411 0.0
C715 C 0.45988 0.61504 0.74964 0.0
C716 C 0.44847 0.61523 0.72691 0.0
C717 C 0.47773 0.61208 0.79301 0.0
C718 C 0.45707 0.61785 0.79016 0.0
C719 C 0.44898 0.62011 0.76858 0.0
C720 C 0.44121 0.61803 0.80922 0.0
C721 C 0.48741 0.61004 0.81596 0.0
C722 C 0.42395 0.59427 0.81941 0.0
C723 C 0.40804 0.59366 0.8369 0.0
C724 C 0.40914 0.61687 0.8447 0.0
C725 C 0.42641 0.64074 0.83437 0.0
C726 C 0.44218 0.64126 0.81659 0.0
H727 H 0.50723 0.6116 0.81542 0.0
H728 H 0.48852 0.62561 0.82735 0.0
H729 H 0.47321 0.59072 0.82305 0.0
H730 H 0.42266 0.5761 0.8137 0.0
H731 H 0.39507 0.57494 0.84447 0.0
H732 H 0.97154 0.49145 0.86813 0.0
H733 H 0.94732 0.48165 0.90312 0.0
H734 H 0.90008 0.40033 0.88242 0.0
H735 H 0.92394 0.41025 0.84717 0.0
H736 H 0.86978 0.42101 0.89253 0.0
H737 H 0.94348 0.44581 0.96092 0.0
H738 H 0.9538 0.47222 0.94169 0.0
H739 H 0.95024 0.44137 0.93231 0.0
C740 C 0.95668 0.47132 0.87144 0.0
C741 C 0.94955 0.45161 0.85499 0.0
C742 C 0.94283 0.4657 0.89146 0.0
C743 C 0.92195 0.4402 0.89548 0.0
C744 C 0.91611 0.42012 0.87969 0.0
H745 H 0.80004 0.38944 -0.00123 0.0
H746 H 0.82694 0.38869 0.96778 0.0
C747 C 0.92978 0.42578 0.85961 0.0
C748 C 0.90398 0.43536 0.91449 0.0
H749 H 0.90297 0.44504 0.97074 0.0
C750 C 0.87695 0.4258 0.9097 0.0
C751 C 0.91335 0.44167 0.93686 0.0
C752 C 0.94176 0.45058 0.94329 0.0
C753 C 0.85931 0.42349 0.9265 0.0
C754 C 0.86893 0.4308 0.94867 0.0
C755 C 0.89573 0.43959 0.95364 0.0
C756 C 0.85184 0.43094 0.96674 0.0
C757 C 0.83077 0.41434 0.92032 0.0
C758 C 0.85688 0.45492 0.97622 0.0
C759 C 0.84154 0.45546 -0.00623 0.0
C760 C 0.82096 0.43195 0.00235 0.0
C761 C 0.81563 0.4079 -0.0075 0.0
C762 C 0.83098 0.40741 0.97483 0.0
H763 H 0.82741 0.41315 0.90193 0.0
H764 H 0.81789 0.39455 0.92723 0.0
H765 H 0.82455 0.42783 0.92766 0.0
H766 H 0.87286 0.47327 0.97013 0.0
H767 H 0.84627 0.47433 0.00095 0.0
H768 H 0.49634 0.97889 0.03465 0.0
H769 H 0.47347 0.95382 0.06788 0.0
H770 H 0.52606 0.92195 0.07049 0.0
H771 H 0.54879 0.94693 0.03747 0.0
H772 H 0.448 0.89838 0.06633 0.0
H773 H 0.52131 0.93889 0.13644 0.0
H774 H 0.52452 0.95708 0.11139 0.0
H775 H 0.53377 0.9321 0.11141 0.0
C776 C 0.50358 0.96733 0.04293 0.0
C777 C 0.52441 0.96496 0.03381 0.0
C778 C 0.49044 0.95289 0.06174 0.0
C779 C 0.49822 0.93619 0.07173 0.0
C780 C 0.52006 0.93508 0.06334 0.0
H781 H 0.43341 0.81146 0.16902 0.0
H782 H 0.45899 0.84167 0.13927 0.0
C783 C 0.53303 0.94933 0.04451 0.0
C784 C 0.48161 0.91736 0.08894 0.0
H785 H 0.48324 0.89675 0.14174 0.0
C786 C 0.45557 0.89819 0.08292 0.0
C787 C 0.49172 0.91693 0.1104 0.0
C788 C 0.51929 0.93748 0.11792 0.0
C789 C 0.43951 0.87826 0.09766 0.0
C790 C 0.44961 0.8778 0.11914 0.0
C791 C 0.47561 0.89705 0.1252 0.0
C792 C 0.43316 0.85812 0.13589 0.0
C793 C 0.41212 0.85748 0.08988 0.0
C794 C 0.41007 0.8572 0.14364 0.0
C795 C 0.3954 0.83995 0.16048 0.0
C796 C 0.40363 0.82336 0.17009 0.0
C797 C 0.42643 0.82384 0.1619 0.0
C798 C 0.44115 0.84118 0.14501 0.0
H799 H 0.4103 0.85622 0.07135 0.0
H800 H 0.40708 0.83788 0.09627 0.0
H801 H 0.39735 0.86252 0.0963 0.0
H802 H 0.40378 0.87039 0.13713 0.0
H803 H 0.378 0.84021 0.16641 0.0
H804 H 0.56335 0.52794 0.22393 0.0
H805 H 0.57255 0.51036 0.25766 0.0
H806 H 0.52383 0.43155 0.23142 0.0
H807 H 0.51508 0.44912 0.19745 0.0
H808 H 0.54439 0.47339 0.29083 0.0
H809 H 0.59781 0.43976 0.23485 0.0
H810 H 0.58594 0.46119 0.22551 0.0
H811 H 0.56324 0.42663 0.22829 0.0
C812 C 0.55383 0.50684 0.22576 0.0
C813 C 0.5387 0.48987 0.20809 0.0
C814 C 0.55922 0.49681 0.24495 0.0
C815 C 0.54947 0.4697 0.24673 0.0
C816 C 0.53207 0.45257 0.23012 0.0
H817 H 0.60888 0.3963 0.34201 0.0
H818 H 0.58149 0.40117 0.313 0.0
C819 C 0.52688 0.46258 0.21086 0.0
C820 C 0.55992 0.45986 0.26461 0.0
H821 H 0.59958 0.43307 0.27326 0.0
C822 C 0.5562 0.46431 0.28701 0.0
C823 C 0.57541 0.44805 0.25956 0.0
C824 C 0.58109 0.44377 0.23578 0.0
C825 C 0.56801 0.45777 0.30449 0.0
C826 C 0.58419 0.4468 0.29939 0.0
C827 C 0.58706 0.44138 0.27707 0.0
C828 C 0.60048 0.44342 0.31677 0.0
C829 C 0.56344 0.46303 0.32829 0.0
C830 C 0.62066 0.46561 0.32791 0.0
C831 C 0.63641 0.46297 0.34419 0.0
C832 C 0.63237 0.43802 0.34974 0.0
C833 C 0.61251 0.41578 0.33816 0.0
C834 C 0.59677 0.4185 0.32168 0.0
H835 H 0.54506 0.46423 0.32971 0.0
H836 H 0.56206 0.44748 0.33952 0.0
H837 H 0.58038 0.48209 0.33414 0.0
H838 H 0.62425 0.48507 0.32398 0.0
H839 H 0.65156 0.48057 0.35266 0.0
H840 H 0.53559 0.95273 0.43534 0.0
H841 H 0.52653 0.9261 0.40117 0.0
H842 H 0.48505 0.96307 0.37297 0.0
H843 H 0.49484 0.99022 0.40684 0.0
H844 H 0.47781 0.89074 0.38966 0.0
H845 H 0.52102 0.95713 0.31851 0.0
H846 H 0.53094 0.96816 0.34708 0.0
H847 H 0.50165 0.96664 0.33511 0.0
C848 C 0.52548 0.95586 0.42144 0.0
C849 C 0.51597 0.97354 0.4236 0.0
C850 C 0.5202 0.94058 0.40199 0.0
C851 C 0.5052 0.94259 0.38441 0.0
C852 C 0.49722 0.96154 0.38601 0.0
H853 H 0.39307 0.84897 0.28634 0.0
H854 H 0.42267 0.87983 0.31485 0.0
C855 C 0.50277 0.97707 0.40539 0.0
C856 C 0.4944 0.92238 0.36618 0.0
H857 H 0.48288 0.91418 0.30981 0.0
C858 C 0.47951 0.89584 0.37215 0.0
C859 C 0.49657 0.92895 0.34332 0.0
C860 C 0.51367 0.95677 0.33564 0.0
C861 C 0.46545 0.87596 0.35605 0.0
C862 C 0.46633 0.88278 0.33342 0.0
C863 C 0.48219 0.90908 0.32726 0.0
C864 C 0.4486 0.86341 0.31635 0.0
C865 C 0.4485 0.84796 0.36339 0.0
C866 C 0.45326 0.8437 0.30796 0.0
C867 C 0.43628 0.82585 0.29152 0.0
C868 C 0.4144 0.82749 0.28334 0.0
C869 C 0.40966 0.84703 0.29222 0.0
C870 C 0.42664 0.86483 0.30846 0.0
H871 H 0.44874 0.84614 0.38184 0.0
H872 H 0.42769 0.84016 0.35754 0.0
H873 H 0.45581 0.83554 0.35572 0.0
H874 H 0.47019 0.84237 0.3139 0.0
H875 H 0.44055 0.81113 0.28498 0.0
H876 H 0.54724 0.52391 0.5824 0.0
H877 H 0.55966 0.51154 0.54724 0.0
H878 H 0.53994 0.43642 0.57473 0.0
H879 H 0.52492 0.44742 0.60849 0.0
H880 H 0.59777 0.50488 0.5402 0.0
H881 H 0.51152 0.41068 0.51522 0.0
H882 H 0.50934 0.43108 0.53684 0.0
H883 H 0.51967 0.40753 0.54346 0.0
C884 C 0.54461 0.5044 0.58059 0.0
C885 C 0.53548 0.48686 0.59847 0.0
C886 C 0.55197 0.4974 0.56053 0.0
C887 C 0.55055 0.47286 0.55807 0.0
C888 C 0.54054 0.45511 0.57568 0.0
H889 H 0.66629 0.45278 0.48521 0.0
H890 H 0.64011 0.46074 0.51276 0.0
C891 C 0.53252 0.46175 0.59533 0.0
C892 C 0.56234 0.4668 0.53848 0.0
H893 H 0.55467 0.41617 0.50473 0.0
C894 C 0.58803 0.48564 0.53213 0.0
C895 C 0.54963 0.44198 0.52735 0.0
C896 C 0.5209 0.42188 0.53095 0.0
C897 C 0.6018 0.47993 0.51595 0.0
C898 C 0.59027 0.4541 0.50681 0.0
C899 C 0.56402 0.43572 0.51221 0.0
C900 C 0.60497 0.4459 0.4915 0.0
C901 C 0.62838 0.50193 0.50871 0.0
C902 C 0.59322 0.43257 0.47125 0.0
C903 C 0.60772 0.42667 0.4561 0.0
C904 C 0.63435 0.43447 0.46074 0.0
C905 C 0.64575 0.4466 0.48135 0.0
C906 C 0.63094 0.45161 0.49686 0.0
H907 H 0.62947 0.52129 0.51055 0.0
H908 H 0.64425 0.5025 0.51953 0.0
H909 H 0.63236 0.49936 0.49103 0.0
H910 H 0.57318 0.42767 0.46672 0.0
H911 H 0.59868 0.41761 0.44011 0.0
H912 H 0.04232 0.52099 0.73401 0.0
H913 H 0.06723 0.53318 0.6992 0.0
H914 H 0.13375 0.53514 0.7337 0.0
H915 H 0.10817 0.52043 0.7674 0.0
H916 H 0.10599 0.57629 0.69183 0.0
H917 H 0.14335 0.50854 0.67743 0.0
H918 H 0.11749 0.5012 0.69721 0.0
H919 H 0.15205 0.52012 0.70567 0.0
C920 C 0.0618 0.52285 0.73381 0.0
C921 C 0.07347 0.52028 0.75358 0.0
C922 C 0.07619 0.5301 0.71396 0.0
C923 C 0.10254 0.53514 0.7136 0.0
C924 C 0.11336 0.53078 0.73305 0.0
H925 H 0.2251 0.6663 0.64497 0.0
H926 H 0.19212 0.63536 0.67068 0.0
C927 C 0.0988 0.52285 0.75259 0.0
C928 C 0.12012 0.54871 0.69443 0.0
H929 H 0.17362 0.55439 0.66656 0.0
C930 C 0.12031 0.57102 0.68595 0.0
C931 C 0.1386 0.54181 0.68611 0.0
C932 C 0.13756 0.5164 0.69195 0.0
C933 C 0.13929 0.58732 0.67057 0.0
C934 C 0.1598 0.58222 0.66448 0.0
C935 C 0.1586 0.55901 0.67179 0.0
C936 C 0.18251 0.60069 0.6506 0.0
C937 C 0.1368 0.60967 0.66095 0.0
C938 C 0.19006 0.59144 0.63189 0.0
C939 C 0.20996 0.60906 0.61787 0.0
C940 C 0.22226 0.63623 0.62207 0.0
C941 C 0.21577 0.64542 0.64136 0.0
C942 C 0.19656 0.62775 0.6558 0.0
H943 H 0.11576 0.6049 0.66038 0.0
H944 H 0.14788 0.6274 0.67181 0.0
H945 H 0.14469 0.61432 0.64377 0.0
H946 H 0.17982 0.57069 0.62757 0.0
H947 H 0.21446 0.60154 0.60294 0.0
H948 H 0.63225 0.10353 0.92545 0.0
H949 H 0.63256 0.12855 0.89292 0.0
H950 H 0.54712 0.08948 0.89337 0.0
H951 H 0.54673 0.06463 0.92625 0.0
H952 H 0.60793 0.11596 0.84945 0.0
H953 H 0.57195 0.16831 0.90421 0.0
H954 H 0.58432 0.1479 0.91517 0.0
H955 H 0.55149 0.13315 0.90315 0.0
C956 C 0.61351 0.09987 0.91828 0.0
C957 C 0.58947 0.08237 0.92844 0.0
C958 C 0.61372 0.11415 0.89972 0.0
C959 C 0.58991 0.11124 0.89108 0.0
C960 C 0.56573 0.09227 0.90007 0.0
H961 H 0.55391 0.19871 0.79618 0.0
H962 H 0.55354 0.16908 0.82451 0.0
C963 C 0.5655 0.0779 0.91866 0.0
C964 C 0.59074 0.12971 0.87404 0.0
H965 H 0.57811 0.17994 0.86626 0.0
C966 C 0.60138 0.12994 0.85305 0.0
C967 C 0.58248 0.14812 0.87897 0.0
C968 C 0.57212 0.14964 0.90164 0.0
C969 C 0.60343 0.14775 0.83663 0.0
C970 C 0.59509 0.16609 0.84156 0.0
C971 C 0.58454 0.16589 0.86258 0.0
C972 C 0.59601 0.18494 0.82484 0.0
C973 C 0.61395 0.14641 0.81401 0.0
C974 C 0.62016 0.20422 0.81603 0.0
C975 C 0.6205 0.22134 0.79975 0.0
C976 C 0.59666 0.21946 0.7921 0.0
C977 C 0.57265 0.20067 0.80158 0.0
C978 C 0.57236 0.18366 0.81779 0.0
H979 H 0.61376 0.12758 0.81127 0.0
H980 H 0.6021 0.14865 0.80045 0.0
H981 H 0.63474 0.16267 0.81278 0.0
H982 H 0.6387 0.2059 0.82163 0.0
H983 H 0.63931 0.2356 0.79283 0.0
H984 H 0.53616 0.62093 0.10492 0.0
H985 H 0.51577 0.62708 0.07128 0.0
H986 H 0.46187 0.54353 0.06654 0.0
H987 H 0.4819 0.5373 0.10051 0.0
H988 H 0.50577 0.60595 0.02672 0.0
H989 H 0.41346 0.57608 0.07392 0.0
H990 H 0.44446 0.5839 0.08747 0.0
H991 H 0.42466 0.55258 0.07367 0.0
C992 C 0.52025 0.60383 0.09647 0.0
C993 C 0.51039 0.57867 0.10542 0.0
C994 C 0.50867 0.60737 0.07727 0.0
C995 C 0.48699 0.58583 0.06675 0.0
C996 C 0.47833 0.56045 0.07469 0.0
H997 H 0.37691 0.56582 0.96165 0.0
H998 H 0.40185 0.56178 -0.00726 0.0
C999 C 0.48995 0.55688 0.09392 0.0
C1000 C 0.47232 0.59025 0.04856 0.0
H1001 H 0.41242 0.5846 0.03553 0.0
C1002 C 0.48538 0.60134 0.0286 0.0
C1003 C 0.44583 0.5845 0.05125 0.0
C1004 C 0.43128 0.57383 0.07278 0.0
C1005 C 0.47234 0.60612 0.01095 0.0
C1006 C 0.44574 0.60006 0.01356 0.0
C1007 C 0.43282 0.58926 0.03362 0.0
C1008 C 0.43039 0.6033 -0.00477 0.0
C1009 C 0.48684 0.61691 0.98944 0.0
C1010 C 0.43778 0.62816 0.98667 0.0
C1011 C 0.42346 0.63061 0.9688 0.0
C1012 C 0.40154 0.6082 0.95928 0.0
C1013 C 0.39377 0.58349 0.96847 0.0
C1014 C 0.408 0.5811 0.98626 0.0
H1015 H 0.50507 0.61534 0.98848 0.0
H1016 H 0.47383 0.60639 0.97478 0.0
H1017 H 0.49276 0.63797 0.98834 0.0
H1018 H 0.45472 0.64561 -0.00631 0.0
H1019 H 0.42993 0.64991 0.96214 0.0
H1020 H 0.9824 0.4882 0.24765 0.0
H1021 H 0.95589 0.47608 0.21297 0.0
H1022 H 0.90921 0.39649 0.23562 0.0
H1023 H 0.93521 0.40878 0.27061 0.0
H1024 H 0.94055 0.43938 0.17834 0.0
H1025 H 0.85477 0.42033 0.23114 0.0
H1026 H 0.88822 0.4355 0.24216 0.0
H1027 H 0.86952 0.40056 0.23733 0.0
C1028 C 0.96704 0.46794 0.24487 0.0
C1029 C 0.96063 0.44945 0.26178 0.0
C1030 C 0.95182 0.46105 0.22514 0.0
C1031 C 0.93011 0.43556 0.22203 0.0
C1032 C 0.92543 0.41643 0.23796 0.0
H1033 H 0.80245 0.38563 0.12043 0.0
H1034 H 0.83114 0.38389 0.14996 0.0
C1035 C 0.94041 0.42338 0.2578 0.0
C1036 C 0.91095 0.42997 0.20339 0.0
H1037 H 0.84721 0.4153 0.19232 0.0
C1038 C 0.92008 0.43385 0.18138 0.0
C1039 C 0.88424 0.4229 0.20741 0.0
C1040 C 0.87358 0.41979 0.23077 0.0
C1041 C 0.90333 0.43129 0.16331 0.0
C1042 C 0.87689 0.42485 0.16743 0.0
C1043 C 0.86748 0.42006 0.1893 0.0
C1044 C 0.85952 0.42551 0.14957 0.0
C1045 C 0.9141 0.43592 0.13996 0.0
C1046 C 0.8657 0.44956 0.1401 0.0
C1047 C 0.84931 0.45069 0.12354 0.0
C1048 C 0.82637 0.42774 0.11603 0.0
C1049 C 0.81997 0.40365 0.12582 0.0
C1050 C 0.83635 0.40259 0.1426 0.0
H1051 H 0.93222 0.43417 0.13895 0.0
H1052 H 0.89899 0.42177 0.12786 0.0
H1053 H 0.91936 0.45604 0.1349 0.0
H1054 H 0.88323 0.46753 0.1456 0.0
H1055 H 0.85488 0.46959 0.11641 0.0
loop_
_geom_bond_atom_site_label_1
_geom_bond_atom_site_label_2
_geom_bond_distance
_geom_bond_site_symmetry_2
_ccdc_geom_bond_type
H0 C6 0.930 . S
H1 C9 0.931 . S
H2 C11 0.931 . S
H3 C13 0.930 . S
H4 C15 0.930 . S
H5 C17 0.931 . S
C6 H0 0.930 . S
C6 C7 1.380 . S
C6 C8 1.394 . S
C7 C6 1.380 . S
C7 C11 1.382 . S
C8 C6 1.394 . S
C8 C9 1.400 . S
C9 H1 0.931 . S
C9 C8 1.400 . S
C9 C10 1.375 . S
C10 C9 1.375 . S
C10 C11 1.415 . S
C10 C12 1.501 1_455 S
C11 H2 0.931 . S
C11 C7 1.382 . S
C11 C10 1.415 . S
C12 C10 1.501 1_655 S
C12 C13 1.384 . S
C12 C17 1.408 . S
C13 H3 0.930 . S
C13 C12 1.384 . S
C13 C14 1.389 . S
C14 C13 1.389 . S
C14 C15 1.405 . S
C15 H4 0.930 . S
C15 C14 1.405 . S
C15 C16 1.364 . S
C16 C15 1.364 . S
C16 C17 1.400 . S
C17 H5 0.931 . S
C17 C12 1.408 . S
C17 C16 1.400 . S
H18 C24 0.930 . S
H19 C27 0.931 . S
H20 C29 0.931 . S
H21 C31 0.930 . S
H22 C33 0.930 . S
H23 C35 0.931 . S
C24 H18 0.930 . S
C24 C25 1.380 . S
C24 C26 1.394 . S
C25 C24 1.380 . S
C25 C29 1.382 . S
C26 C24 1.394 . S
C26 C27 1.400 . S
C27 H19 0.931 . S
C27 C26 1.400 . S
C27 C28 1.375 . S
C28 C27 1.375 . S
C28 C29 1.415 . S
C28 C30 1.501 1_545 S
C29 H20 0.931 . S
C29 C25 1.382 . S
C29 C28 1.415 . S
C30 C28 1.501 1_565 S
C30 C31 1.384 . S
C30 C35 1.408 . S
C31 H21 0.930 . S
C31 C30 1.384 . S
C31 C32 1.389 . S
C32 C31 1.389 . S
C32 C33 1.405 . S
C33 H22 0.930 . S
C33 C32 1.405 . S
C33 C34 1.364 . S
C34 C33 1.364 . S
C34 C35 1.400 . S
C35 H23 0.931 . S
C35 C30 1.408 . S
C35 C34 1.400 . S
H36 C42 0.930 . S
H37 C45 0.931 . S
H38 C47 0.931 . S
H39 C49 0.930 . S
H40 C51 0.930 . S
H41 C53 0.931 . S
C42 H36 0.930 . S
C42 C43 1.380 . S
C42 C44 1.394 . S
C43 C42 1.380 . S
C43 C47 1.382 . S
C44 C42 1.394 . S
C44 C45 1.400 . S
C45 H37 0.931 . S
C45 C44 1.400 . S
C45 C46 1.375 . S
C46 C45 1.375 . S
C46 C47 1.415 . S
C46 C48 1.501 . S
C47 H38 0.931 . S
C47 C43 1.382 . S
C47 C46 1.415 . S
C48 C46 1.501 . S
C48 C49 1.384 . S
C48 C53 1.408 . S
C49 H39 0.930 . S
C49 C48 1.384 . S
C49 C50 1.389 . S
C50 C49 1.389 . S
C50 C51 1.405 . S
C51 H40 0.930 . S
C51 C50 1.405 . S
C51 C52 1.364 . S
C52 C51 1.364 . S
C52 C53 1.400 . S
C53 H41 0.931 . S
C53 C48 1.408 . S
C53 C52 1.400 . S
H54 C60 0.930 . S
H55 C63 0.931 . S
H56 C65 0.931 . S
H57 C67 0.930 . S
H58 C69 0.930 . S
H59 C71 0.904 1_455 S
C60 H54 0.930 . S
C60 C61 1.380 . S
C60 C62 1.394 . S
C61 C60 1.380 . S
C61 C65 1.382 . S
C62 C60 1.394 . S
C62 C63 1.400 . S
C63 H55 0.931 . S
C63 C62 1.400 . S
C63 C64 1.375 . S
C64 C63 1.375 . S
C64 C65 1.415 . S
C64 C66 1.501 1_455 S
C65 H56 0.931 . S
C65 C61 1.382 . S
C65 C64 1.415 . S
C66 C64 1.501 1_655 S
C66 C67 1.384 . S
C66 C71 1.408 . S
C67 H57 0.930 . S
C67 C66 1.384 . S
C67 C68 1.389 . S
C68 C67 1.389 . S
C68 C69 1.405 . S
C69 H58 0.930 . S
C69 C68 1.405 . S
C69 C70 1.364 . S
C70 C69 1.364 . S
C70 C71 1.400 . S
C71 H59 0.904 1_655 S
C71 C66 1.408 . S
C71 C70 1.400 . S
H72 C78 0.930 . S
H73 C81 0.931 . S
H74 C83 0.931 1_545 S
H75 C85 0.930 . S
H76 C87 0.930 . S
H77 C89 0.931 . S
C78 H72 0.930 . S
C78 C79 1.380 . S
C78 C80 1.394 1_554 S
C79 C78 1.380 . S
C79 C83 1.382 . S
C80 C78 1.394 1_556 S
C80 C81 1.400 . S
C81 H73 0.931 . S
C81 C80 1.400 . S
C81 C82 1.375 . S
C82 C81 1.375 . S
C82 C83 1.415 1_556 S
C82 C84 1.501 1_565 S
C83 H74 0.931 1_565 S
C83 C79 1.382 . S
C83 C82 1.415 1_554 S
C84 C82 1.501 1_545 S
C84 C85 1.384 1_556 S
C84 C89 1.408 . S
C85 H75 0.930 . S
C85 C84 1.384 1_554 S
C85 C86 1.389 1_554 S
C86 C85 1.389 1_556 S
C86 C87 1.405 . S
C87 H76 0.930 . S
C87 C86 1.405 . S
C87 C88 1.364 . S
C88 C87 1.364 . S
C88 C89 1.400 . S
C89 H77 0.931 . S
C89 C84 1.408 . S
C89 C88 1.400 . S
H90 C96 0.930 . S
H91 C99 0.931 . S
H92 C101 0.931 . S
H93 C103 0.930 . S
H94 C105 0.930 . S
H95 C107 0.931 . S
C96 H90 0.930 . S
C96 C97 1.380 . S
C96 C98 1.394 . S
C97 C96 1.380 . S
C97 C101 1.382 . S
C98 C96 1.394 . S
C98 C99 1.400 . S
C99 H91 0.931 . S
C99 C98 1.400 . S
C99 C100 1.375 . S
C100 C99 1.375 . S
C100 C101 1.415 . S
C100 C102 1.501 . S
C101 H92 0.931 . S
C101 C97 1.382 . S
C101 C100 1.415 . S
C102 C100 1.501 . S
C102 C103 1.384 . S
C102 C107 1.408 . S
C103 H93 0.930 . S
C103 C102 1.384 . S
C103 C104 1.389 . S
C104 C103 1.389 . S
C104 C105 1.405 . S
C105 H94 0.930 . S
C105 C104 1.405 . S
C105 C106 1.364 . S
C106 C105 1.364 . S
C106 C107 1.400 . S
C107 H95 0.931 . S
C107 C102 1.408 . S
C107 C106 1.400 . S
Zn108 O111 2.031 . S
Zn108 O113 2.049 . S
Zn108 O118 2.067 . S
Zn109 O110 1.962 . S
Zn109 O112 1.986 . S
Zn109 O114 1.996 . S
Zn109 O117 1.943 . S
O110 Zn109 1.962 . S
O110 C115 1.254 . S
O111 Zn108 2.031 . S
O111 C115 1.269 . S
O112 Zn109 1.986 . S
O112 C119 1.262 . S
O113 Zn108 2.049 . S
O113 C121 1.260 . S
O114 Zn109 1.996 . S
O114 C121 1.257 . S
C115 O110 1.254 . S
C115 O111 1.269 . S
C116 O117 1.249 . S
C116 O118 1.270 . S
O117 Zn109 1.943 . S
O117 C116 1.249 . S
O118 Zn108 2.067 . S
O118 C116 1.270 . S
C119 O112 1.262 . S
C119 O120 1.232 . S
O120 C119 1.232 . S
C121 O113 1.260 . S
C121 O114 1.257 . S
Zn122 O125 2.031 . S
Zn122 O127 2.049 . S
Zn122 O132 2.067 . S
Zn123 O124 1.962 . S
Zn123 O126 1.986 . S
Zn123 O128 1.996 . S
Zn123 O131 1.943 . S
O124 Zn123 1.962 . S
O124 C129 1.254 . S
O125 Zn122 2.031 . S
O125 C129 1.269 . S
O126 Zn123 1.986 . S
O126 C133 1.262 . S
O127 Zn122 2.049 . S
O127 C135 1.260 . S
O128 Zn123 1.996 . S
O128 C135 1.257 . S
C129 O124 1.254 . S
C129 O125 1.269 . S
C130 O131 1.249 . S
C130 O132 1.270 . S
O131 Zn123 1.943 . S
O131 C130 1.249 . S
O132 Zn122 2.067 . S
O132 C130 1.270 . S
C133 O126 1.262 . S
C133 O134 1.232 . S
O134 C133 1.232 . S
C135 O127 1.260 . S
C135 O128 1.257 . S
Zn136 O139 2.031 . S
Zn136 O141 2.049 . S
Zn136 O146 2.067 . S
Zn137 O138 1.962 . S
Zn137 O140 1.986 . S
Zn137 O142 1.996 . S
Zn137 O145 1.943 . S
O138 Zn137 1.962 . S
O138 C143 1.254 . S
O139 Zn136 2.031 . S
O139 C143 1.269 . S
O140 Zn137 1.986 . S
O140 C147 1.262 . S
O141 Zn136 2.049 . S
O141 C149 1.260 . S
O142 Zn137 1.996 . S
O142 C149 1.257 . S
C143 O138 1.254 . S
C143 O139 1.269 . S
C144 O145 1.249 . S
C144 O146 1.270 . S
O145 Zn137 1.943 . S
O145 C144 1.249 . S
O146 Zn136 2.067 . S
O146 C144 1.270 . S
C147 O140 1.262 . S
C147 O148 1.232 . S
O148 C147 1.232 . S
C149 O141 1.260 . S
C149 O142 1.257 . S
Zn150 O153 2.031 . S
Zn150 O155 2.049 . S
Zn150 O160 2.067 . S
Zn151 O152 1.962 . S
Zn151 O154 1.986 . S
Zn151 O156 1.996 . S
Zn151 O159 1.943 . S
O152 Zn151 1.962 . S
O152 C157 1.254 . S
O153 Zn150 2.031 . S
O153 C157 1.269 . S
O154 Zn151 1.986 . S
O154 C161 1.262 . S
O155 Zn150 2.049 . S
O155 C163 1.260 . S
O156 Zn151 1.996 . S
O156 C163 1.257 . S
C157 O152 1.254 . S
C157 O153 1.269 . S
C158 O159 1.249 . S
C158 O160 1.270 . S
O159 Zn151 1.943 . S
O159 C158 1.249 . S
O160 Zn150 2.067 . S
O160 C158 1.270 . S
C161 O154 1.262 . S
C161 O162 1.232 . S
O162 C161 1.232 . S
C163 O155 1.260 . S
C163 O156 1.257 . S
Zn164 O167 2.031 . S
Zn164 O169 2.049 . S
Zn164 O174 2.067 . S
Zn165 O166 1.962 . S
Zn165 O168 1.986 . S
Zn165 O170 1.996 . S
Zn165 O173 1.943 . S
O166 Zn165 1.962 . S
O166 C171 1.254 . S
O167 Zn164 2.031 . S
O167 C171 1.269 . S
O168 Zn165 1.986 . S
O168 C175 1.262 . S
O169 Zn164 2.049 . S
O169 C177 1.260 . S
O170 Zn165 1.996 . S
O170 C177 1.257 . S
C171 O166 1.254 . S
C171 O167 1.269 . S
C172 O173 1.249 . S
C172 O174 1.270 . S
O173 Zn165 1.943 . S
O173 C172 1.249 . S
O174 Zn164 2.067 . S
O174 C172 1.270 . S
C175 O168 1.262 . S
C175 O176 1.232 . S
O176 C175 1.232 . S
C177 O169 1.260 . S
C177 O170 1.257 . S
Zn178 O181 2.031 . S
Zn178 O183 2.049 . S
Zn178 O188 2.067 . S
Zn179 O180 1.962 . S
Zn179 O182 1.986 . S
Zn179 O184 1.996 . S
Zn179 O187 1.943 . S
O180 Zn179 1.962 . S
O180 C185 1.254 . S
O181 Zn178 2.031 . S
O181 C185 1.269 . S
O182 Zn179 1.986 . S
O182 C189 1.262 . S
O183 Zn178 2.049 . S
O183 C191 1.260 . S
O184 Zn179 1.996 . S
O184 C191 1.257 . S
C185 O180 1.254 . S
C185 O181 1.269 . S
C186 O187 1.249 . S
C186 O188 1.270 . S
O187 Zn179 1.943 . S
O187 C186 1.249 . S
O188 Zn178 2.067 . S
O188 C186 1.270 . S
C189 O182 1.262 . S
C189 O190 1.232 . S
O190 C189 1.232 . S
C191 O183 1.260 . S
C191 O184 1.257 . S
H192 C200 0.929 . S
H193 C202 0.930 . S
H194 C204 0.930 . S
H195 C207 0.929 . S
H196 C210 0.930 . S
H197 C212 0.960 . S
H198 C212 0.960 . S
H199 C212 0.960 . S
C200 H192 0.929 . S
C200 C201 1.377 . S
C200 C202 1.384 . S
C201 C200 1.377 . S
C201 C207 1.390 . S
C202 H193 0.930 . S
C202 C200 1.384 . S
C202 C203 1.372 . S
C203 C202 1.372 . S
C203 C204 1.400 . S
C203 C208 1.490 . S
C204 H194 0.930 . S
C204 C203 1.400 . S
C204 C207 1.386 . S
H205 C221 0.930 . S
H206 C222 0.931 . S
C207 H195 0.929 . S
C207 C201 1.390 . S
C207 C204 1.386 . S
C208 C203 1.490 . S
C208 C210 1.395 . S
C208 C211 1.403 . S
H209 C215 0.930 . S
C210 H196 0.930 . S
C210 C208 1.395 . S
C210 C213 1.403 . S
C211 C208 1.403 . S
C211 C212 1.524 . S
C211 C215 1.400 . S
C212 H197 0.960 . S
C212 H198 0.960 . S
C212 H199 0.960 . S
C212 C211 1.524 . S
C213 C210 1.403 . S
C213 C214 1.392 . S
C213 C217 1.495 . S
C214 C213 1.392 . S
C214 C215 1.385 . S
C214 C216 1.478 . S
C215 H209 0.930 . S
C215 C211 1.400 . S
C215 C214 1.385 . S
C216 C214 1.478 . S
C216 C218 1.381 . S
C216 C222 1.383 . S
C217 C213 1.495 . S
C217 H223 0.959 . S
C217 H224 0.961 . S
C217 H225 0.960 . S
C218 C216 1.381 . S
C218 C219 1.394 . S
C218 H226 0.930 . S
C219 C218 1.394 . S
C219 C220 1.383 . S
C219 H227 0.929 . S
C220 C219 1.383 . S
C220 C221 1.377 . S
C221 H205 0.930 . S
C221 C220 1.377 . S
C221 C222 1.379 . S
C222 H206 0.931 . S
C222 C216 1.383 . S
C222 C221 1.379 . S
H223 C217 0.959 . S
H224 C217 0.961 . S
H225 C217 0.960 . S
H226 C218 0.930 . S
H227 C219 0.929 . S
H228 C236 0.929 . S
H229 C238 0.930 . S
H230 C240 0.930 . S
H231 C243 0.929 . S
H232 C246 0.930 . S
H233 C248 0.960 . S
H234 C248 0.960 . S
H235 C248 0.960 . S
C236 H228 0.929 . S
C236 C237 1.377 . S
C236 C238 1.384 . S
C237 C236 1.377 . S
C237 C243 1.390 . S
C238 H229 0.930 . S
C238 C236 1.384 . S
C238 C239 1.372 . S
C239 C238 1.372 . S
C239 C240 1.400 . S
C239 C244 1.490 . S
C240 H230 0.930 . S
C240 C239 1.400 . S
C240 C243 1.386 . S
H241 C257 0.930 . S
H242 C258 0.931 . S
C243 H231 0.929 . S
C243 C237 1.390 . S
C243 C240 1.386 . S
C244 C239 1.490 . S
C244 C246 1.395 . S
C244 C247 1.403 . S
H245 C251 0.930 . S
C246 H232 0.930 . S
C246 C244 1.395 . S
C246 C249 1.403 . S
C247 C244 1.403 . S
C247 C248 1.524 . S
C247 C251 1.400 . S
C248 H233 0.960 . S
C248 H234 0.960 . S
C248 H235 0.960 . S
C248 C247 1.524 . S
C249 C246 1.403 . S
C249 C250 1.392 . S
C249 C253 1.495 . S
C250 C249 1.392 . S
C250 C251 1.385 . S
C250 C252 1.478 . S
C251 H245 0.930 . S
C251 C247 1.400 . S
C251 C250 1.385 . S
C252 C250 1.478 . S
C252 C254 1.381 . S
C252 C258 1.383 . S
C253 C249 1.495 . S
C253 H259 0.959 . S
C253 H260 0.961 . S
C253 H261 0.960 . S
C254 C252 1.381 . S
C254 C255 1.394 . S
C254 H262 0.930 . S
C255 C254 1.394 . S
C255 C256 1.383 . S
C255 H263 0.929 . S
C256 C255 1.383 . S
C256 C257 1.377 . S
C257 H241 0.930 . S
C257 C256 1.377 . S
C257 C258 1.379 . S
C258 H242 0.931 . S
C258 C252 1.383 . S
C258 C257 1.379 . S
H259 C253 0.959 . S
H260 C253 0.961 . S
H261 C253 0.960 . S
H262 C254 0.930 . S
H263 C255 0.929 . S
H264 C272 0.929 . S
H265 C274 0.930 . S
H266 C276 0.930 . S
H267 C279 0.929 . S
H268 C282 0.930 . S
H269 C284 0.960 . S
H270 C284 0.960 . S
H271 C284 0.960 . S
C272 H264 0.929 . S
C272 C273 1.377 . S
C272 C274 1.384 . S
C273 C272 1.377 . S
C273 C279 1.390 . S
C274 H265 0.930 . S
C274 C272 1.384 . S
C274 C275 1.372 . S
C275 C274 1.372 . S
C275 C276 1.400 . S
C275 C280 1.490 . S
C276 H266 0.930 . S
C276 C275 1.400 . S
C276 C279 1.386 . S
H277 C293 0.930 . S
H278 C294 0.931 . S
C279 H267 0.929 . S
C279 C273 1.390 . S
C279 C276 1.386 . S
C280 C275 1.490 . S
C280 C282 1.395 . S
C280 C283 1.403 . S
H281 C287 0.930 . S
C282 H268 0.930 . S
C282 C280 1.395 . S
C282 C285 1.403 . S
C283 C280 1.403 . S
C283 C284 1.524 . S
C283 C287 1.400 . S
C284 H269 0.960 . S
C284 H270 0.960 . S
C284 H271 0.960 . S
C284 C283 1.524 . S
C285 C282 1.403 . S
C285 C286 1.392 . S
C285 C289 1.495 . S
C286 C285 1.392 . S
C286 C287 1.385 . S
C286 C288 1.478 . S
C287 H281 0.930 . S
C287 C283 1.400 . S
C287 C286 1.385 . S
C288 C286 1.478 . S
C288 C290 1.381 . S
C288 C294 1.383 . S
C289 C285 1.495 . S
C289 H295 0.959 . S
C289 H296 0.961 . S
C289 H297 0.960 . S
C290 C288 1.381 . S
C290 C291 1.394 . S
C290 H298 0.930 . S
C291 C290 1.394 . S
C291 C292 1.383 . S
C291 H299 0.929 . S
C292 C291 1.383 . S
C292 C293 1.377 . S
C293 H277 0.930 . S
C293 C292 1.377 . S
C293 C294 1.379 . S
C294 H278 0.931 . S
C294 C288 1.383 . S
C294 C293 1.379 . S
H295 C289 0.959 . S
H296 C289 0.961 . S
H297 C289 0.960 . S
H298 C290 0.930 . S
H299 C291 0.929 . S
H300 C308 0.929 . S
H301 C310 0.930 . S
H302 C312 0.930 . S
H303 C315 0.929 . S
H304 C318 0.930 . S
H305 C320 0.960 . S
H306 C320 0.960 . S
H307 C320 0.960 . S
C308 H300 0.929 . S
C308 C309 1.377 . S
C308 C310 1.384 . S
C309 C308 1.377 . S
C309 C315 1.390 . S
C310 H301 0.930 . S
C310 C308 1.384 . S
C310 C311 1.372 . S
C311 C310 1.372 . S
C311 C312 1.400 . S
C311 C316 1.490 . S
C312 H302 0.930 . S
C312 C311 1.400 . S
C312 C315 1.386 . S
H313 C329 0.930 . S
H314 C330 0.931 . S
C315 H303 0.929 . S
C315 C309 1.390 . S
C315 C312 1.386 . S
C316 C311 1.490 . S
C316 C318 1.395 . S
C316 C319 1.403 . S
H317 C323 0.930 . S
C318 H304 0.930 . S
C318 C316 1.395 . S
C318 C321 1.403 . S
C319 C316 1.403 . S
C319 C320 1.524 . S
C319 C323 1.400 . S
C320 H305 0.960 . S
C320 H306 0.960 . S
C320 H307 0.960 . S
C320 C319 1.524 . S
C321 C318 1.403 . S
C321 C322 1.392 . S
C321 C325 1.495 . S
C322 C321 1.392 . S
C322 C323 1.385 . S
C322 C324 1.478 . S
C323 H317 0.930 . S
C323 C319 1.400 . S
C323 C322 1.385 . S
C324 C322 1.478 . S
C324 C326 1.381 . S
C324 C330 1.383 . S
C325 C321 1.495 . S
C325 H331 0.959 . S
C325 H332 0.961 . S
C325 H333 0.960 . S
C326 C324 1.381 . S
C326 C327 1.394 . S
C326 H334 0.930 . S
C327 C326 1.394 . S
C327 C328 1.383 . S
C327 H335 0.929 . S
C328 C327 1.383 . S
C328 C329 1.377 . S
C329 H313 0.930 . S
C329 C328 1.377 . S
C329 C330 1.379 . S
C330 H314 0.931 . S
C330 C324 1.383 . S
C330 C329 1.379 . S
H331 C325 0.959 . S
H332 C325 0.961 . S
H333 C325 0.960 . S
H334 C326 0.930 . S
H335 C327 0.929 . S
H336 C344 0.929 1_554 S
H337 C346 0.930 . S
H338 C348 0.930 . S
H339 C351 0.929 . S
H340 C354 0.930 . S
H341 C356 0.960 . S
H342 C356 0.960 . S
H343 C356 0.960 . S
C344 H336 0.929 1_556 S
C344 C345 1.377 . S
C344 C346 1.384 . S
C345 C344 1.377 . S
C345 C351 1.390 . S
C346 H337 0.930 . S
C346 C344 1.384 . S
C346 C347 1.372 . S
C347 C346 1.372 . S
C347 C348 1.400 . S
C347 C352 1.490 . S
C348 H338 0.930 . S
C348 C347 1.400 . S
C348 C351 1.386 . S
H349 C365 0.930 . S
H350 C366 0.931 . S
C351 H339 0.929 . S
C351 C345 1.390 . S
C351 C348 1.386 . S
C352 C347 1.490 . S
C352 C354 1.395 . S
C352 C355 1.403 . S
H353 C359 0.930 . S
C354 H340 0.930 . S
C354 C352 1.395 . S
C354 C357 1.403 . S
C355 C352 1.403 . S
C355 C356 1.524 . S
C355 C359 1.400 . S
C356 H341 0.960 . S
C356 H342 0.960 . S
C356 H343 0.960 . S
C356 C355 1.524 . S
C357 C354 1.403 . S
C357 C358 1.392 . S
C357 C361 1.495 . S
C358 C357 1.392 . S
C358 C359 1.385 . S
C358 C360 1.478 . S
C359 H353 0.930 . S
C359 C355 1.400 . S
C359 C358 1.385 . S
C360 C358 1.478 . S
C360 C362 1.381 . S
C360 C366 1.383 . S
C361 C357 1.495 . S
C361 H367 0.959 . S
C361 H368 0.961 . S
C361 H369 0.960 . S
C362 C360 1.381 . S
C362 C363 1.394 . S
C362 H370 0.930 . S
C363 C362 1.394 . S
C363 C364 1.383 . S
C363 H371 0.929 . S
C364 C363 1.383 . S
C364 C365 1.377 . S
C365 H349 0.930 . S
C365 C364 1.377 . S
C365 C366 1.379 . S
C366 H350 0.931 . S
C366 C360 1.383 . S
C366 C365 1.379 . S
H367 C361 0.959 . S
H368 C361 0.961 . S
H369 C361 0.960 . S
H370 C362 0.930 . S
H371 C363 0.929 . S
H372 C380 0.929 . S
H373 C382 0.930 . S
H374 C384 0.930 . S
H375 C387 0.929 . S
H376 C390 0.930 . S
H377 C392 0.960 . S
H378 C392 0.960 . S
H379 C392 0.960 . S
C380 H372 0.929 . S
C380 C381 1.377 . S
C380 C382 1.384 . S
C381 C380 1.377 . S
C381 C387 1.390 . S
C382 H373 0.930 . S
C382 C380 1.384 . S
C382 C383 1.372 . S
C383 C382 1.372 . S
C383 C384 1.400 . S
C383 C388 1.490 . S
C384 H374 0.930 . S
C384 C383 1.400 . S
C384 C387 1.386 . S
H385 C401 0.930 . S
H386 C402 0.931 . S
C387 H375 0.929 . S
C387 C381 1.390 . S
C387 C384 1.386 . S
C388 C383 1.490 . S
C388 C390 1.395 . S
C388 C391 1.403 . S
H389 C395 0.930 . S
C390 H376 0.930 . S
C390 C388 1.395 . S
C390 C393 1.403 . S
C391 C388 1.403 . S
C391 C392 1.524 . S
C391 C395 1.400 . S
C392 H377 0.960 . S
C392 H378 0.960 . S
C392 H379 0.960 . S
C392 C391 1.524 . S
C393 C390 1.403 . S
C393 C394 1.392 . S
C393 C397 1.495 . S
C394 C393 1.392 . S
C394 C395 1.385 . S
C394 C396 1.478 . S
C395 H389 0.930 . S
C395 C391 1.400 . S
C395 C394 1.385 . S
C396 C394 1.478 . S
C396 C398 1.381 . S
C396 C402 1.383 . S
C397 C393 1.495 . S
C397 H403 0.959 . S
C397 H404 0.961 . S
C397 H405 0.960 . S
C398 C396 1.381 . S
C398 C399 1.394 . S
C398 H406 0.930 . S
C399 C398 1.394 . S
C399 C400 1.383 . S
C399 H407 0.929 . S
C400 C399 1.383 . S
C400 C401 1.377 . S
C401 H385 0.930 . S
C401 C400 1.377 . S
C401 C402 1.379 . S
C402 H386 0.931 . S
C402 C396 1.383 . S
C402 C401 1.379 . S
H403 C397 0.959 . S
H404 C397 0.961 . S
H405 C397 0.960 . S
H406 C398 0.930 . S
H407 C399 0.929 . S
H408 C416 0.929 . S
H409 C418 0.930 . S
H410 C420 0.930 . S
H411 C423 0.929 . S
H412 C426 0.930 . S
H413 C428 0.960 . S
H414 C428 0.960 . S
H415 C428 0.960 . S
C416 H408 0.929 . S
C416 C417 1.377 . S
C416 C418 1.384 . S
C417 C416 1.377 . S
C417 C423 1.390 . S
C418 H409 0.930 . S
C418 C416 1.384 . S
C418 C419 1.372 . S
C419 C418 1.372 . S
C419 C420 1.400 . S
C419 C424 1.490 . S
C420 H410 0.930 . S
C420 C419 1.400 . S
C420 C423 1.386 . S
H421 C437 0.930 . S
H422 C438 0.931 . S
C423 H411 0.929 . S
C423 C417 1.390 . S
C423 C420 1.386 . S
C424 C419 1.490 . S
C424 C426 1.395 . S
C424 C427 1.403 . S
H425 C431 0.930 . S
C426 H412 0.930 . S
C426 C424 1.395 . S
C426 C429 1.403 . S
C427 C424 1.403 . S
C427 C428 1.524 . S
C427 C431 1.400 . S
C428 H413 0.960 . S
C428 H414 0.960 . S
C428 H415 0.960 . S
C428 C427 1.524 . S
C429 C426 1.403 . S
C429 C430 1.392 . S
C429 C433 1.495 . S
C430 C429 1.392 . S
C430 C431 1.385 . S
C430 C432 1.478 . S
C431 H425 0.930 . S
C431 C427 1.400 . S
C431 C430 1.385 . S
C432 C430 1.478 . S
C432 C434 1.381 . S
C432 C438 1.383 . S
C433 C429 1.495 . S
C433 H439 0.959 . S
C433 H440 0.961 . S
C433 H441 0.960 . S
C434 C432 1.381 . S
C434 C435 1.394 . S
C434 H442 0.930 . S
C435 C434 1.394 . S
C435 C436 1.383 . S
C435 H443 0.929 . S
C436 C435 1.383 . S
C436 C437 1.377 . S
C437 H421 0.930 . S
C437 C436 1.377 . S
C437 C438 1.379 . S
C438 H422 0.931 . S
C438 C432 1.383 . S
C438 C437 1.379 . S
H439 C433 0.959 . S
H440 C433 0.961 . S
H441 C433 0.960 . S
H442 C434 0.930 . S
H443 C435 0.929 . S
H444 C452 0.929 . S
H445 C454 0.930 . S
H446 C456 0.930 . S
H447 C459 0.929 . S
H448 C462 0.930 . S
H449 C464 0.960 . S
H450 C464 0.960 . S
H451 C464 0.960 . S
C452 H444 0.929 . S
C452 C453 1.377 . S
C452 C454 1.384 . S
C453 C452 1.377 . S
C453 C459 1.390 . S
C454 H445 0.930 . S
C454 C452 1.384 . S
C454 C455 1.372 . S
C455 C454 1.372 . S
C455 C456 1.400 . S
C455 C460 1.490 . S
C456 H446 0.930 . S
C456 C455 1.400 . S
C456 C459 1.386 . S
H457 C473 0.930 . S
H458 C474 0.931 . S
C459 H447 0.929 . S
C459 C453 1.390 . S
C459 C456 1.386 . S
C460 C455 1.490 . S
C460 C462 1.395 . S
C460 C463 1.403 . S
H461 C467 0.930 . S
C462 H448 0.930 . S
C462 C460 1.395 . S
C462 C465 1.403 . S
C463 C460 1.403 . S
C463 C464 1.524 . S
C463 C467 1.400 . S
C464 H449 0.960 . S
C464 H450 0.960 . S
C464 H451 0.960 . S
C464 C463 1.524 . S
C465 C462 1.403 . S
C465 C466 1.392 . S
C465 C469 1.495 . S
C466 C465 1.392 . S
C466 C467 1.385 . S
C466 C468 1.478 . S
C467 H461 0.930 . S
C467 C463 1.400 . S
C467 C466 1.385 . S
C468 C466 1.478 . S
C468 C470 1.381 . S
C468 C474 1.383 . S
C469 C465 1.495 . S
C469 H475 0.959 . S
C469 H476 0.961 . S
C469 H477 0.960 . S
C470 C468 1.381 . S
C470 C471 1.394 . S
C470 H478 0.930 . S
C471 C470 1.394 . S
C471 C472 1.383 . S
C471 H479 0.929 . S
C472 C471 1.383 . S
C472 C473 1.377 . S
C473 H457 0.930 . S
C473 C472 1.377 . S
C473 C474 1.379 . S
C474 H458 0.931 . S
C474 C468 1.383 . S
C474 C473 1.379 . S
H475 C469 0.959 . S
H476 C469 0.961 . S
H477 C469 0.960 . S
H478 C470 0.930 . S
H479 C471 0.929 . S
H480 C488 0.929 . S
H481 C490 0.930 . S
H482 C492 0.930 . S
H483 C495 0.929 . S
H484 C498 0.930 . S
H485 C500 0.960 . S
H486 C500 0.960 . S
H487 C500 0.960 . S
C488 H480 0.929 . S
C488 C489 1.377 . S
C488 C490 1.384 . S
C489 C488 1.377 . S
C489 C495 1.390 . S
C490 H481 0.930 . S
C490 C488 1.384 . S
C490 C491 1.372 . S
C491 C490 1.372 . S
C491 C492 1.400 . S
C491 C496 1.490 . S
C492 H482 0.930 . S
C492 C491 1.400 . S
C492 C495 1.386 . S
H493 C509 0.930 . S
H494 C510 0.931 . S
C495 H483 0.929 . S
C495 C489 1.390 . S
C495 C492 1.386 . S
C496 C491 1.490 . S
C496 C498 1.395 . S
C496 C499 1.403 . S
H497 C503 0.930 . S
C498 H484 0.930 . S
C498 C496 1.395 . S
C498 C501 1.403 . S
C499 C496 1.403 . S
C499 C500 1.524 . S
C499 C503 1.400 . S
C500 H485 0.960 . S
C500 H486 0.960 . S
C500 H487 0.960 . S
C500 C499 1.524 . S
C501 C498 1.403 . S
C501 C502 1.392 . S
C501 C505 1.495 . S
C502 C501 1.392 . S
C502 C503 1.385 . S
C502 C504 1.478 . S
C503 H497 0.930 . S
C503 C499 1.400 . S
C503 C502 1.385 . S
C504 C502 1.478 . S
C504 C506 1.381 . S
C504 C510 1.383 . S
C505 C501 1.495 . S
C505 H511 0.959 . S
C505 H512 0.961 . S
C505 H513 0.960 . S
C506 C504 1.381 . S
C506 C507 1.394 . S
C506 H514 0.930 . S
C507 C506 1.394 . S
C507 C508 1.383 . S
C507 H515 0.929 . S
C508 C507 1.383 . S
C508 C509 1.377 . S
C509 H493 0.930 . S
C509 C508 1.377 . S
C509 C510 1.379 . S
C510 H494 0.931 . S
C510 C504 1.383 . S
C510 C509 1.379 . S
H511 C505 0.959 . S
H512 C505 0.961 . S
H513 C505 0.960 . S
H514 C506 0.930 . S
H515 C507 0.929 . S
H516 C524 0.929 . S
H517 C526 0.930 . S
H518 C528 0.930 . S
H519 C531 0.929 . S
H520 C534 0.930 . S
H521 C536 0.960 . S
H522 C536 0.960 . S
H523 C536 0.960 . S
C524 H516 0.929 . S
C524 C525 1.377 . S
C524 C526 1.384 . S
C525 C524 1.377 . S
C525 C531 1.390 . S
C526 H517 0.930 . S
C526 C524 1.384 . S
C526 C527 1.372 . S
C527 C526 1.372 . S
C527 C528 1.400 . S
C527 C532 1.490 . S
C528 H518 0.930 . S
C528 C527 1.400 . S
C528 C531 1.386 . S
H529 C545 0.930 . S
H530 C546 0.931 . S
C531 H519 0.929 . S
C531 C525 1.390 . S
C531 C528 1.386 . S
C532 C527 1.490 . S
C532 C534 1.395 . S
C532 C535 1.403 . S
H533 C539 0.930 . S
C534 H520 0.930 . S
C534 C532 1.395 . S
C534 C537 1.403 . S
C535 C532 1.403 . S
C535 C536 1.524 1_554 S
C535 C539 1.400 . S
C536 H521 0.960 . S
C536 H522 0.960 . S
C536 H523 0.960 . S
C536 C535 1.524 1_556 S
C537 C534 1.403 . S
C537 C538 1.392 . S
C537 C541 1.495 . S
C538 C537 1.392 . S
C538 C539 1.385 . S
C538 C540 1.478 . S
C539 H533 0.930 . S
C539 C535 1.400 . S
C539 C538 1.385 . S
C540 C538 1.478 . S
C540 C542 1.381 . S
C540 C546 1.383 . S
C541 C537 1.495 . S
C541 H547 0.959 . S
C541 H548 0.961 . S
C541 H549 0.960 . S
C542 C540 1.381 . S
C542 C543 1.394 . S
C542 H550 0.930 . S
C543 C542 1.394 . S
C543 C544 1.383 . S
C543 H551 0.929 . S
C544 C543 1.383 . S
C544 C545 1.377 . S
C545 H529 0.930 . S
C545 C544 1.377 . S
C545 C546 1.379 . S
C546 H530 0.931 . S
C546 C540 1.383 . S
C546 C545 1.379 . S
H547 C541 0.959 . S
H548 C541 0.961 . S
H549 C541 0.960 . S
H550 C542 0.930 . S
H551 C543 0.929 . S
H552 C560 0.929 . S
H553 C562 0.930 . S
H554 C564 0.930 . S
H555 C567 0.929 . S
H556 C570 0.930 . S
H557 C572 0.960 . S
H558 C572 0.960 . S
H559 C572 0.960 . S
C560 H552 0.929 . S
C560 C561 1.377 . S
C560 C562 1.384 . S
C561 C560 1.377 . S
C561 C567 1.390 . S
C562 H553 0.930 . S
C562 C560 1.384 . S
C562 C563 1.372 . S
C563 C562 1.372 . S
C563 C564 1.400 . S
C563 C568 1.490 . S
C564 H554 0.930 . S
C564 C563 1.400 . S
C564 C567 1.386 . S
H565 C581 0.930 . S
H566 C582 0.931 . S
C567 H555 0.929 . S
C567 C561 1.390 . S
C567 C564 1.386 . S
C568 C563 1.490 . S
C568 C570 1.395 . S
C568 C571 1.403 . S
H569 C575 0.930 . S
C570 H556 0.930 . S
C570 C568 1.395 . S
C570 C573 1.403 . S
C571 C568 1.403 . S
C571 C572 1.524 . S
C571 C575 1.400 . S
C572 H557 0.960 . S
C572 H558 0.960 . S
C572 H559 0.960 . S
C572 C571 1.524 . S
C573 C570 1.403 . S
C573 C574 1.392 . S
C573 C577 1.495 . S
C574 C573 1.392 . S
C574 C575 1.385 . S
C574 C576 1.478 . S
C575 H569 0.930 . S
C575 C571 1.400 . S
C575 C574 1.385 . S
C576 C574 1.478 . S
C576 C578 1.381 . S
C576 C582 1.383 . S
C577 C573 1.495 . S
C577 H583 0.959 . S
C577 H584 0.961 . S
C577 H585 0.960 . S
C578 C576 1.381 . S
C578 C579 1.394 . S
C578 H586 0.930 . S
C579 C578 1.394 . S
C579 C580 1.383 . S
C579 H587 0.929 . S
C580 C579 1.383 . S
C580 C581 1.377 . S
C581 H565 0.930 . S
C581 C580 1.377 . S
C581 C582 1.379 . S
C582 H566 0.931 . S
C582 C576 1.383 . S
C582 C581 1.379 . S
H583 C577 0.959 . S
H584 C577 0.961 . S
H585 C577 0.960 . S
H586 C578 0.930 . S
H587 C579 0.929 . S
H588 C596 0.929 . S
H589 C598 0.930 . S
H590 C600 0.930 . S
H591 C603 0.929 . S
H592 C606 0.930 . S
H593 C608 0.960 . S
H594 C608 0.960 . S
H595 C608 0.960 . S
C596 H588 0.929 . S
C596 C597 1.377 . S
C596 C598 1.384 . S
C597 C596 1.377 . S
C597 C603 1.390 . S
C598 H589 0.930 . S
C598 C596 1.384 . S
C598 C599 1.372 . S
C599 C598 1.372 . S
C599 C600 1.400 . S
C599 C604 1.490 . S
C600 H590 0.930 . S
C600 C599 1.400 . S
C600 C603 1.386 . S
H601 C617 0.930 . S
H602 C618 0.931 . S
C603 H591 0.929 . S
C603 C597 1.390 . S
C603 C600 1.386 . S
C604 C599 1.490 . S
C604 C606 1.395 . S
C604 C607 1.403 . S
H605 C611 0.930 . S
C606 H592 0.930 . S
C606 C604 1.395 . S
C606 C609 1.403 . S
C607 C604 1.403 . S
C607 C608 1.524 . S
C607 C611 1.400 . S
C608 H593 0.960 . S
C608 H594 0.960 . S
C608 H595 0.960 . S
C608 C607 1.524 . S
C609 C606 1.403 . S
C609 C610 1.392 . S
C609 C613 1.495 . S
C610 C609 1.392 . S
C610 C611 1.385 . S
C610 C612 1.478 . S
C611 H605 0.930 . S
C611 C607 1.400 . S
C611 C610 1.385 . S
C612 C610 1.478 . S
C612 C614 1.381 . S
C612 C618 1.383 . S
C613 C609 1.495 . S
C613 H619 0.959 . S
C613 H620 0.961 . S
C613 H621 0.960 . S
C614 C612 1.381 . S
C614 C615 1.394 . S
C614 H622 0.930 . S
C615 C614 1.394 . S
C615 C616 1.383 . S
C615 H623 0.929 . S
C616 C615 1.383 . S
C616 C617 1.377 . S
C617 H601 0.930 . S
C617 C616 1.377 . S
C617 C618 1.379 . S
C618 H602 0.931 . S
C618 C612 1.383 . S
C618 C617 1.379 . S
H619 C613 0.959 . S
H620 C613 0.961 . S
H621 C613 0.960 . S
H622 C614 0.930 . S
H623 C615 0.929 . S
H624 C632 0.929 . S
H625 C634 0.930 . S
H626 C636 0.930 . S
H627 C639 0.929 . S
H628 C642 0.930 . S
H629 C644 0.960 . S
H630 C644 0.960 . S
H631 C644 0.960 . S
C632 H624 0.929 . S
C632 C633 1.377 . S
C632 C634 1.384 . S
C633 C632 1.377 . S
C633 C639 1.390 . S
C634 H625 0.930 . S
C634 C632 1.384 . S
C634 C635 1.372 . S
C635 C634 1.372 . S
C635 C636 1.400 . S
C635 C640 1.490 . S
C636 H626 0.930 . S
C636 C635 1.400 . S
C636 C639 1.386 . S
H637 C653 0.930 . S
H638 C654 0.931 . S
C639 H627 0.929 . S
C639 C633 1.390 . S
C639 C636 1.386 . S
C640 C635 1.490 . S
C640 C642 1.395 . S
C640 C643 1.403 . S
H641 C647 0.930 . S
C642 H628 0.930 . S
C642 C640 1.395 . S
C642 C645 1.403 . S
C643 C640 1.403 . S
C643 C644 1.524 . S
C643 C647 1.400 . S
C644 H629 0.960 . S
C644 H630 0.960 . S
C644 H631 0.960 . S
C644 C643 1.524 . S
C645 C642 1.403 . S
C645 C646 1.392 . S
C645 C649 1.495 . S
C646 C645 1.392 . S
C646 C647 1.385 . S
C646 C648 1.478 . S
C647 H641 0.930 . S
C647 C643 1.400 . S
C647 C646 1.385 . S
C648 C646 1.478 . S
C648 C650 1.381 . S
C648 C654 1.383 . S
C649 C645 1.495 . S
C649 H655 0.959 . S
C649 H656 0.961 . S
C649 H657 0.960 . S
C650 C648 1.381 . S
C650 C651 1.394 . S
C650 H658 0.930 . S
C651 C650 1.394 . S
C651 C652 1.383 . S
C651 H659 0.929 . S
C652 C651 1.383 . S
C652 C653 1.377 . S
C653 H637 0.930 . S
C653 C652 1.377 . S
C653 C654 1.379 . S
C654 H638 0.931 . S
C654 C648 1.383 . S
C654 C653 1.379 . S
H655 C649 0.959 . S
H656 C649 0.961 . S
H657 C649 0.960 . S
H658 C650 0.930 . S
H659 C651 0.929 . S
H660 C668 0.929 . S
H661 C670 0.930 . S
H662 C672 0.930 . S
H663 C675 0.929 . S
H664 C678 0.930 . S
H665 C680 0.960 . S
H666 C680 0.960 . S
H667 C680 0.960 . S
C668 H660 0.929 . S
C668 C669 1.377 . S
C668 C670 1.384 . S
C669 C668 1.377 . S
C669 C675 1.390 . S
C670 H661 0.930 . S
C670 C668 1.384 . S
C670 C671 1.372 . S
C671 C670 1.372 . S
C671 C672 1.400 . S
C671 C676 1.490 . S
C672 H662 0.930 . S
C672 C671 1.400 . S
C672 C675 1.386 . S
H673 C689 0.930 . S
H674 C690 0.931 . S
C675 H663 0.929 . S
C675 C669 1.390 . S
C675 C672 1.386 . S
C676 C671 1.490 . S
C676 C678 1.395 . S
C676 C679 1.403 . S
H677 C683 0.930 . S
C678 H664 0.930 . S
C678 C676 1.395 . S
C678 C681 1.403 . S
C679 C676 1.403 . S
C679 C680 1.524 . S
C679 C683 1.400 . S
C680 H665 0.960 . S
C680 H666 0.960 . S
C680 H667 0.960 . S
C680 C679 1.524 . S
C681 C678 1.403 . S
C681 C682 1.392 . S
C681 C685 1.495 . S
C682 C681 1.392 . S
C682 C683 1.385 . S
C682 C684 1.478 . S
C683 H677 0.930 . S
C683 C679 1.400 . S
C683 C682 1.385 . S
C684 C682 1.478 . S
C684 C686 1.381 . S
C684 C690 1.383 . S
C685 C681 1.495 . S
C685 H691 0.959 . S
C685 H692 0.961 . S
C685 H693 0.960 . S
C686 C684 1.381 . S
C686 C687 1.394 . S
C686 H694 0.930 . S
C687 C686 1.394 . S
C687 C688 1.383 . S
C687 H695 0.929 . S
C688 C687 1.383 . S
C688 C689 1.377 . S
C689 H673 0.930 . S
C689 C688 1.377 . S
C689 C690 1.379 . S
C690 H674 0.931 . S
C690 C684 1.383 . S
C690 C689 1.379 . S
H691 C685 0.959 . S
H692 C685 0.961 . S
H693 C685 0.960 . S
H694 C686 0.930 . S
H695 C687 0.929 . S
H696 C704 0.929 . S
H697 C706 0.930 . S
H698 C708 0.930 . S
H699 C711 0.929 . S
H700 C714 0.930 . S
H701 C716 0.960 . S
H702 C716 0.960 . S
H703 C716 0.960 . S
C704 H696 0.929 . S
C704 C705 1.377 . S
C704 C706 1.384 . S
C705 C704 1.377 . S
C705 C711 1.390 . S
C706 H697 0.930 . S
C706 C704 1.384 . S
C706 C707 1.372 . S
C707 C706 1.372 . S
C707 C708 1.400 . S
C707 C712 1.490 . S
C708 H698 0.930 . S
C708 C707 1.400 . S
C708 C711 1.386 . S
H709 C725 0.930 . S
H710 C726 0.931 . S
C711 H699 0.929 . S
C711 C705 1.390 . S
C711 C708 1.386 . S
C712 C707 1.490 . S
C712 C714 1.395 . S
C712 C715 1.403 . S
H713 C719 0.930 . S
C714 H700 0.930 . S
C714 C712 1.395 . S
C714 C717 1.403 . S
C715 C712 1.403 . S
C715 C716 1.524 . S
C715 C719 1.400 . S
C716 H701 0.960 . S
C716 H702 0.960 . S
C716 H703 0.960 . S
C716 C715 1.524 . S
C717 C714 1.403 . S
C717 C718 1.392 . S
C717 C721 1.495 . S
C718 C717 1.392 . S
C718 C719 1.385 . S
C718 C720 1.478 . S
C719 H713 0.930 . S
C719 C715 1.400 . S
C719 C718 1.385 . S
C720 C718 1.478 . S
C720 C722 1.381 . S
C720 C726 1.383 . S
C721 C717 1.495 . S
C721 H727 0.959 . S
C721 H728 0.961 . S
C721 H729 0.960 . S
C722 C720 1.381 . S
C722 C723 1.394 . S
C722 H730 0.930 . S
C723 C722 1.394 . S
C723 C724 1.383 . S
C723 H731 0.929 . S
C724 C723 1.383 . S
C724 C725 1.377 . S
C725 H709 0.930 . S
C725 C724 1.377 . S
C725 C726 1.379 . S
C726 H710 0.931 . S
C726 C720 1.383 . S
C726 C725 1.379 . S
H727 C721 0.959 . S
H728 C721 0.961 . S
H729 C721 0.960 . S
H730 C722 0.930 . S
H731 C723 0.929 . S
H732 C740 0.929 . S
H733 C742 0.930 . S
H734 C744 0.930 . S
H735 C747 0.929 . S
H736 C750 0.930 . S
H737 C752 0.960 . S
H738 C752 0.960 . S
H739 C752 0.960 . S
C740 H732 0.929 . S
C740 C741 1.377 . S
C740 C742 1.384 . S
C741 C740 1.377 . S
C741 C747 1.390 . S
C742 H733 0.930 . S
C742 C740 1.384 . S
C742 C743 1.372 . S
C743 C742 1.372 . S
C743 C744 1.400 . S
C743 C748 1.490 . S
C744 H734 0.930 . S
C744 C743 1.400 . S
C744 C747 1.386 . S
H745 C761 0.930 . S
H746 C762 0.931 . S
C747 H735 0.929 . S
C747 C741 1.390 . S
C747 C744 1.386 . S
C748 C743 1.490 . S
C748 C750 1.395 . S
C748 C751 1.403 . S
H749 C755 0.930 . S
C750 H736 0.930 . S
C750 C748 1.395 . S
C750 C753 1.403 . S
C751 C748 1.403 . S
C751 C752 1.524 . S
C751 C755 1.400 . S
C752 H737 0.960 . S
C752 H738 0.960 . S
C752 H739 0.960 . S
C752 C751 1.524 . S
C753 C750 1.403 . S
C753 C754 1.392 . S
C753 C757 1.495 . S
C754 C753 1.392 . S
C754 C755 1.385 . S
C754 C756 1.478 . S
C755 H749 0.930 . S
C755 C751 1.400 . S
C755 C754 1.385 . S
C756 C754 1.478 . S
C756 C758 1.381 . S
C756 C762 1.383 . S
C757 C753 1.495 . S
C757 H763 0.959 . S
C757 H764 0.961 . S
C757 H765 0.960 . S
C758 C756 1.381 . S
C758 C759 1.394 1_556 S
C758 H766 0.930 . S
C759 C758 1.394 1_554 S
C759 C760 1.383 . S
C759 H767 0.929 . S
C760 C759 1.383 . S
C760 C761 1.377 . S
C761 H745 0.930 . S
C761 C760 1.377 . S
C761 C762 1.379 1_554 S
C762 H746 0.931 . S
C762 C756 1.383 . S
C762 C761 1.379 1_556 S
H763 C757 0.959 . S
H764 C757 0.961 . S
H765 C757 0.960 . S
H766 C758 0.930 . S
H767 C759 0.929 . S
H768 C776 0.929 . S
H769 C778 0.930 . S
H770 C780 0.930 . S
H771 C783 0.929 . S
H772 C786 0.930 . S
H773 C788 0.960 . S
H774 C788 0.960 . S
H775 C788 0.960 . S
C776 H768 0.929 . S
C776 C777 1.377 . S
C776 C778 1.384 . S
C777 C776 1.377 . S
C777 C783 1.390 . S
C778 H769 0.930 . S
C778 C776 1.384 . S
C778 C779 1.372 . S
C779 C778 1.372 . S
C779 C780 1.400 . S
C779 C784 1.490 . S
C780 H770 0.930 . S
C780 C779 1.400 . S
C780 C783 1.386 . S
H781 C797 0.930 . S
H782 C798 0.931 . S
C783 H771 0.929 . S
C783 C777 1.390 . S
C783 C780 1.386 . S
C784 C779 1.490 . S
C784 C786 1.395 . S
C784 C787 1.403 . S
H785 C791 0.930 . S
C786 H772 0.930 . S
C786 C784 1.395 . S
C786 C789 1.403 . S
C787 C784 1.403 . S
C787 C788 1.524 . S
C787 C791 1.400 . S
C788 H773 0.960 . S
C788 H774 0.960 . S
C788 H775 0.960 . S
C788 C787 1.524 . S
C789 C786 1.403 . S
C789 C790 1.392 . S
C789 C793 1.495 . S
C790 C789 1.392 . S
C790 C791 1.385 . S
C790 C792 1.478 . S
C791 H785 0.930 . S
C791 C787 1.400 . S
C791 C790 1.385 . S
C792 C790 1.478 . S
C792 C794 1.381 . S
C792 C798 1.383 . S
C793 C789 1.495 . S
C793 H799 0.959 . S
C793 H800 0.961 . S
C793 H801 0.960 . S
C794 C792 1.381 . S
C794 C795 1.394 . S
C794 H802 0.930 . S
C795 C794 1.394 . S
C795 C796 1.383 . S
C795 H803 0.929 . S
C796 C795 1.383 . S
C796 C797 1.377 . S
C797 H781 0.930 . S
C797 C796 1.377 . S
C797 C798 1.379 . S
C798 H782 0.931 . S
C798 C792 1.383 . S
C798 C797 1.379 . S
H799 C793 0.959 . S
H800 C793 0.961 . S
H801 C793 0.960 . S
H802 C794 0.930 . S
H803 C795 0.929 . S
H804 C812 0.929 . S
H805 C814 0.930 . S
H806 C816 0.930 . S
H807 C819 0.929 . S
H808 C822 0.930 . S
H809 C824 0.960 . S
H810 C824 0.960 . S
H811 C824 0.960 . S
C812 H804 0.929 . S
C812 C813 1.377 . S
C812 C814 1.384 . S
C813 C812 1.377 . S
C813 C819 1.390 . S
C814 H805 0.930 . S
C814 C812 1.384 . S
C814 C815 1.372 . S
C815 C814 1.372 . S
C815 C816 1.400 . S
C815 C820 1.490 . S
C816 H806 0.930 . S
C816 C815 1.400 . S
C816 C819 1.386 . S
H817 C833 0.930 . S
H818 C834 0.931 . S
C819 H807 0.929 . S
C819 C813 1.390 . S
C819 C816 1.386 . S
C820 C815 1.490 . S
C820 C822 1.395 . S
C820 C823 1.403 . S
H821 C827 0.930 . S
C822 H808 0.930 . S
C822 C820 1.395 . S
C822 C825 1.403 . S
C823 C820 1.403 . S
C823 C824 1.524 . S
C823 C827 1.400 . S
C824 H809 0.960 . S
C824 H810 0.960 . S
C824 H811 0.960 . S
C824 C823 1.524 . S
C825 C822 1.403 . S
C825 C826 1.392 . S
C825 C829 1.495 . S
C826 C825 1.392 . S
C826 C827 1.385 . S
C826 C828 1.478 . S
C827 H821 0.930 . S
C827 C823 1.400 . S
C827 C826 1.385 . S
C828 C826 1.478 . S
C828 C830 1.381 . S
C828 C834 1.383 . S
C829 C825 1.495 . S
C829 H835 0.959 . S
C829 H836 0.961 . S
C829 H837 0.960 . S
C830 C828 1.381 . S
C830 C831 1.394 . S
C830 H838 0.930 . S
C831 C830 1.394 . S
C831 C832 1.383 . S
C831 H839 0.929 . S
C832 C831 1.383 . S
C832 C833 1.377 . S
C833 H817 0.930 . S
C833 C832 1.377 . S
C833 C834 1.379 . S
C834 H818 0.931 . S
C834 C828 1.383 . S
C834 C833 1.379 . S
H835 C829 0.959 . S
H836 C829 0.961 . S
H837 C829 0.960 . S
H838 C830 0.930 . S
H839 C831 0.929 . S
H840 C848 0.929 . S
H841 C850 0.930 . S
H842 C852 0.930 . S
H843 C855 0.929 . S
H844 C858 0.930 . S
H845 C860 0.960 . S
H846 C860 0.960 . S
H847 C860 0.960 . S
C848 H840 0.929 . S
C848 C849 1.377 . S
C848 C850 1.384 . S
C849 C848 1.377 . S
C849 C855 1.390 . S
C850 H841 0.930 . S
C850 C848 1.384 . S
C850 C851 1.372 . S
C851 C850 1.372 . S
C851 C852 1.400 . S
C851 C856 1.490 . S
C852 H842 0.930 . S
C852 C851 1.400 . S
C852 C855 1.386 . S
H853 C869 0.930 . S
H854 C870 0.931 . S
C855 H843 0.929 . S
C855 C849 1.390 . S
C855 C852 1.386 . S
C856 C851 1.490 . S
C856 C858 1.395 . S
C856 C859 1.403 . S
H857 C863 0.930 . S
C858 H844 0.930 . S
C858 C856 1.395 . S
C858 C861 1.403 . S
C859 C856 1.403 . S
C859 C860 1.524 . S
C859 C863 1.400 . S
C860 H845 0.960 . S
C860 H846 0.960 . S
C860 H847 0.960 . S
C860 C859 1.524 . S
C861 C858 1.403 . S
C861 C862 1.392 . S
C861 C865 1.495 . S
C862 C861 1.392 . S
C862 C863 1.385 . S
C862 C864 1.478 . S
C863 H857 0.930 . S
C863 C859 1.400 . S
C863 C862 1.385 . S
C864 C862 1.478 . S
C864 C866 1.381 . S
C864 C870 1.383 . S
C865 C861 1.495 . S
C865 H871 0.959 . S
C865 H872 0.961 . S
C865 H873 0.960 . S
C866 C864 1.381 . S
C866 C867 1.394 . S
C866 H874 0.930 . S
C867 C866 1.394 . S
C867 C868 1.383 . S
C867 H875 0.929 . S
C868 C867 1.383 . S
C868 C869 1.377 . S
C869 H853 0.930 . S
C869 C868 1.377 . S
C869 C870 1.379 . S
C870 H854 0.931 . S
C870 C864 1.383 . S
C870 C869 1.379 . S
H871 C865 0.959 . S
H872 C865 0.961 . S
H873 C865 0.960 . S
H874 C866 0.930 . S
H875 C867 0.929 . S
H876 C884 0.929 . S
H877 C886 0.930 . S
H878 C888 0.930 . S
H879 C891 0.929 . S
H880 C894 0.930 . S
H881 C896 0.960 . S
H882 C896 0.960 . S
H883 C896 0.960 . S
C884 H876 0.929 . S
C884 C885 1.377 . S
C884 C886 1.384 . S
C885 C884 1.377 . S
C885 C891 1.390 . S
C886 H877 0.930 . S
C886 C884 1.384 . S
C886 C887 1.372 . S
C887 C886 1.372 . S
C887 C888 1.400 . S
C887 C892 1.490 . S
C888 H878 0.930 . S
C888 C887 1.400 . S
C888 C891 1.386 . S
H889 C905 0.930 . S
H890 C906 0.931 . S
C891 H879 0.929 . S
C891 C885 1.390 . S
C891 C888 1.386 . S
C892 C887 1.490 . S
C892 C894 1.395 . S
C892 C895 1.403 . S
H893 C899 0.930 . S
C894 H880 0.930 . S
C894 C892 1.395 . S
C894 C897 1.403 . S
C895 C892 1.403 . S
C895 C896 1.524 . S
C895 C899 1.400 . S
C896 H881 0.960 . S
C896 H882 0.960 . S
C896 H883 0.960 . S
C896 C895 1.524 . S
C897 C894 1.403 . S
C897 C898 1.392 . S
C897 C901 1.495 . S
C898 C897 1.392 . S
C898 C899 1.385 . S
C898 C900 1.478 . S
C899 H893 0.930 . S
C899 C895 1.400 . S
C899 C898 1.385 . S
C900 C898 1.478 . S
C900 C902 1.381 . S
C900 C906 1.383 . S
C901 C897 1.495 . S
C901 H907 0.959 . S
C901 H908 0.961 . S
C901 H909 0.960 . S
C902 C900 1.381 . S
C902 C903 1.394 . S
C902 H910 0.930 . S
C903 C902 1.394 . S
C903 C904 1.383 . S
C903 H911 0.929 . S
C904 C903 1.383 . S
C904 C905 1.377 . S
C905 H889 0.930 . S
C905 C904 1.377 . S
C905 C906 1.379 . S
C906 H890 0.931 . S
C906 C900 1.383 . S
C906 C905 1.379 . S
H907 C901 0.959 . S
H908 C901 0.961 . S
H909 C901 0.960 . S
H910 C902 0.930 . S
H911 C903 0.929 . S
H912 C920 0.929 . S
H913 C922 0.930 . S
H914 C924 0.930 . S
H915 C927 0.929 . S
H916 C930 0.930 . S
H917 C932 0.960 . S
H918 C932 0.960 . S
H919 C932 0.960 . S
C920 H912 0.929 . S
C920 C921 1.377 . S
C920 C922 1.384 . S
C921 C920 1.377 . S
C921 C927 1.390 . S
C922 H913 0.930 . S
C922 C920 1.384 . S
C922 C923 1.372 . S
C923 C922 1.372 . S
C923 C924 1.400 . S
C923 C928 1.490 . S
C924 H914 0.930 . S
C924 C923 1.400 . S
C924 C927 1.386 . S
H925 C941 0.930 . S
H926 C942 0.931 . S
C927 H915 0.929 . S
C927 C921 1.390 . S
C927 C924 1.386 . S
C928 C923 1.490 . S
C928 C930 1.395 . S
C928 C931 1.403 . S
H929 C935 0.930 . S
C930 H916 0.930 . S
C930 C928 1.395 . S
C930 C933 1.403 . S
C931 C928 1.403 . S
C931 C932 1.524 . S
C931 C935 1.400 . S
C932 H917 0.960 . S
C932 H918 0.960 . S
C932 H919 0.960 . S
C932 C931 1.524 . S
C933 C930 1.403 . S
C933 C934 1.392 . S
C933 C937 1.495 . S
C934 C933 1.392 . S
C934 C935 1.385 . S
C934 C936 1.478 . S
C935 H929 0.930 . S
C935 C931 1.400 . S
C935 C934 1.385 . S
C936 C934 1.478 . S
C936 C938 1.381 . S
C936 C942 1.383 . S
C937 C933 1.495 . S
C937 H943 0.959 . S
C937 H944 0.961 . S
C937 H945 0.960 . S
C938 C936 1.381 . S
C938 C939 1.394 . S
C938 H946 0.930 . S
C939 C938 1.394 . S
C939 C940 1.383 . S
C939 H947 0.929 . S
C940 C939 1.383 . S
C940 C941 1.377 . S
C941 H925 0.930 . S
C941 C940 1.377 . S
C941 C942 1.379 . S
C942 H926 0.931 . S
C942 C936 1.383 . S
C942 C941 1.379 . S
H943 C937 0.959 . S
H944 C937 0.961 . S
H945 C937 0.960 . S
H946 C938 0.930 . S
H947 C939 0.929 . S
H948 C956 0.929 . S
H949 C958 0.930 . S
H950 C960 0.930 . S
H951 C963 0.929 . S
H952 C966 0.930 . S
H953 C968 0.960 . S
H954 C968 0.960 . S
H955 C968 0.960 . S
C956 H948 0.929 . S
C956 C957 1.377 . S
C956 C958 1.384 . S
C957 C956 1.377 . S
C957 C963 1.390 . S
C958 H949 0.930 . S
C958 C956 1.384 . S
C958 C959 1.372 . S
C959 C958 1.372 . S
C959 C960 1.400 . S
C959 C964 1.490 . S
C960 H950 0.930 . S
C960 C959 1.400 . S
C960 C963 1.386 . S
H961 C977 0.930 . S
H962 C978 0.931 . S
C963 H951 0.929 . S
C963 C957 1.390 . S
C963 C960 1.386 . S
C964 C959 1.490 . S
C964 C966 1.395 . S
C964 C967 1.403 . S
H965 C971 0.930 . S
C966 H952 0.930 . S
C966 C964 1.395 . S
C966 C969 1.403 . S
C967 C964 1.403 . S
C967 C968 1.524 . S
C967 C971 1.400 . S
C968 H953 0.960 . S
C968 H954 0.960 . S
C968 H955 0.960 . S
C968 C967 1.524 . S
C969 C966 1.403 . S
C969 C970 1.392 . S
C969 C973 1.495 . S
C970 C969 1.392 . S
C970 C971 1.385 . S
C970 C972 1.478 . S
C971 H965 0.930 . S
C971 C967 1.400 . S
C971 C970 1.385 . S
C972 C970 1.478 . S
C972 C974 1.381 . S
C972 C978 1.383 . S
C973 C969 1.495 . S
C973 H979 0.959 . S
C973 H980 0.961 . S
C973 H981 0.960 . S
C974 C972 1.381 . S
C974 C975 1.394 . S
C974 H982 0.930 . S
C975 C974 1.394 . S
C975 C976 1.383 . S
C975 H983 0.929 . S
C976 C975 1.383 . S
C976 C977 1.377 . S
C977 H961 0.930 . S
C977 C976 1.377 . S
C977 C978 1.379 . S
C978 H962 0.931 . S
C978 C972 1.383 . S
C978 C977 1.379 . S
H979 C973 0.959 . S
H980 C973 0.961 . S
H981 C973 0.960 . S
H982 C974 0.930 . S
H983 C975 0.929 . S
H984 C992 0.929 . S
H985 C994 0.930 . S
H986 C996 0.930 . S
H987 C999 0.929 . S
H988 C1002 0.930 . S
H989 C1004 0.960 . S
H990 C1004 0.960 . S
H991 C1004 0.960 . S
C992 H984 0.929 . S
C992 C993 1.377 . S
C992 C994 1.384 . S
C993 C992 1.377 . S
C993 C999 1.390 . S
C994 H985 0.930 . S
C994 C992 1.384 . S
C994 C995 1.372 . S
C995 C994 1.372 . S
C995 C996 1.400 . S
C995 C1000 1.490 . S
C996 H986 0.930 . S
C996 C995 1.400 . S
C996 C999 1.386 . S
H997 C1013 0.930 . S
H998 C1014 0.931 . S
C999 H987 0.929 . S
C999 C993 1.390 . S
C999 C996 1.386 . S
C1000 C995 1.490 . S
C1000 C1002 1.395 . S
C1000 C1003 1.403 . S
H1001 C1007 0.930 . S
C1002 H988 0.930 . S
C1002 C1000 1.395 . S
C1002 C1005 1.403 . S
C1003 C1000 1.403 . S
C1003 C1004 1.524 . S
C1003 C1007 1.400 . S
C1004 H989 0.960 . S
C1004 H990 0.960 . S
C1004 H991 0.960 . S
C1004 C1003 1.524 . S
C1005 C1002 1.403 . S
C1005 C1006 1.392 . S
C1005 C1009 1.495 1_554 S
C1006 C1005 1.392 . S
C1006 C1007 1.385 . S
C1006 C1008 1.478 1_554 S
C1007 H1001 0.930 . S
C1007 C1003 1.400 . S
C1007 C1006 1.385 . S
C1008 C1006 1.478 1_556 S
C1008 C1010 1.381 . S
C1008 C1014 1.383 . S
C1009 C1005 1.495 1_556 S
C1009 H1015 0.959 . S
C1009 H1016 0.961 . S
C1009 H1017 0.960 . S
C1010 C1008 1.381 . S
C1010 C1011 1.394 . S
C1010 H1018 0.930 . S
C1011 C1010 1.394 . S
C1011 C1012 1.383 . S
C1011 H1019 0.929 . S
C1012 C1011 1.383 . S
C1012 C1013 1.377 . S
C1013 H997 0.930 . S
C1013 C1012 1.377 . S
C1013 C1014 1.379 . S
C1014 H998 0.931 . S
C1014 C1008 1.383 . S
C1014 C1013 1.379 . S
H1015 C1009 0.959 . S
H1016 C1009 0.961 . S
H1017 C1009 0.960 . S
H1018 C1010 0.930 . S
H1019 C1011 0.929 . S
H1020 C1028 0.929 . S
H1021 C1030 0.930 . S
H1022 C1032 0.930 . S
H1023 C1035 0.929 . S
H1024 C1038 0.930 . S
H1025 C1040 0.960 . S
H1026 C1040 0.960 . S
H1027 C1040 0.960 . S
C1028 H1020 0.929 . S
C1028 C1029 1.377 . S
C1028 C1030 1.384 . S
C1029 C1028 1.377 . S
C1029 C1035 1.390 . S
C1030 H1021 0.930 . S
C1030 C1028 1.384 . S
C1030 C1031 1.372 . S
C1031 C1030 1.372 . S
C1031 C1032 1.400 . S
C1031 C1036 1.490 . S
C1032 H1022 0.930 . S
C1032 C1031 1.400 . S
C1032 C1035 1.386 . S
H1033 C1049 0.930 . S
H1034 C1050 0.931 . S
C1035 H1023 0.929 . S
C1035 C1029 1.390 . S
C1035 C1032 1.386 . S
C1036 C1031 1.490 . S
C1036 C1038 1.395 . S
C1036 C1039 1.403 . S
H1037 C1043 0.930 . S
C1038 H1024 0.930 . S
C1038 C1036 1.395 . S
C1038 C1041 1.403 . S
C1039 C1036 1.403 . S
C1039 C1040 1.524 . S
C1039 C1043 1.400 . S
C1040 H1025 0.960 . S
C1040 H1026 0.960 . S
C1040 H1027 0.960 . S
C1040 C1039 1.524 . S
C1041 C1038 1.403 . S
C1041 C1042 1.392 . S
C1041 C1045 1.495 . S
C1042 C1041 1.392 . S
C1042 C1043 1.385 . S
C1042 C1044 1.478 . S
C1043 H1037 0.930 . S
C1043 C1039 1.400 . S
C1043 C1042 1.385 . S
C1044 C1042 1.478 . S
C1044 C1046 1.381 . S
C1044 C1050 1.383 . S
C1045 C1041 1.495 . S
C1045 H1051 0.959 . S
C1045 H1052 0.961 . S
C1045 H1053 0.960 . S
C1046 C1044 1.381 . S
C1046 C1047 1.394 . S
C1046 H1054 0.930 . S
C1047 C1046 1.394 . S
C1047 C1048 1.383 . S
C1047 H1055 0.929 . S
C1048 C1047 1.383 . S
C1048 C1049 1.377 . S
C1049 H1033 0.930 . S
C1049 C1048 1.377 . S
C1049 C1050 1.379 . S
C1050 H1034 0.931 . S
C1050 C1044 1.383 . S
C1050 C1049 1.379 . S
H1051 C1045 0.959 . S
H1052 C1045 0.961 . S
H1053 C1045 0.960 . S
H1054 C1046 0.930 . S
H1055 C1047 0.929 . S
C220 C185 1.567 . S
C201 C8 1.521 . S
C237 C26 1.415 . S
C256 C119 1.435 . S
C273 C50 1.353 . S
C292 C133 1.390 . S
C309 C68 1.395 . S
C328 C147 1.422 . S
C364 C161 1.434 . S
C345 C80 1.418 . S
C381 C104 1.457 . S
C400 C171 1.501 . S
C417 C32 1.527 . S
C436 C129 1.563 . S
C453 C44 1.584 . S
C472 C143 1.623 . S
C489 C62 1.497 . S
C508 C157 1.544 . S
C544 C175 1.433 . S
C525 C86 1.401 1_554 S
C580 C189 1.505 . S
C561 C98 1.463 . S
C616 C115 1.540 . S
C597 C14 1.510 . S
C633 C7 1.466 . S
C652 C130 1.425 . S
C669 C25 1.553 . S
C688 C144 1.553 . S
C724 C158 1.513 . S
C705 C52 1.552 . S
C741 C70 1.449 . S
C760 C177 1.415 . S
C796 C191 1.398 . S
C777 C79 1.423 . S
C832 C116 1.418 . S
C813 C106 1.449 . S
C868 C186 1.453 . S
C849 C34 1.451 . S
C885 C43 1.336 . S
C904 C121 1.274 . S
C940 C135 1.289 . S
C921 C61 1.347 . S
C957 C88 1.419 . S
C976 C149 1.424 . S
C993 C97 1.430 . S
C1012 C163 1.405 . S
C1029 C16 1.473 . S
C1048 C172 1.428 . S
