# Generated by pormake.
# Topology anh, (6,3)-cn, num edge types: 1
# Building blocks:
#     Node 0, Type 0, BuildingBlock: BETFEN_clean_sbu_0, # of connection points: 6
#     Node 1, Type 0, BuildingBlock: BETFEN_clean_sbu_0, # of connection points: 6
#     Node 2, Type 0, BuildingBlock: BETFEN_clean_sbu_0, # of connection points: 6
#     Node 3, Type 1, BuildingBlock: BETDIP_clean_linker_0, # of connection points: 3
#     Node 4, Type 1, BuildingBlock: BETDIP_clean_linker_0, # of connection points: 3
#     Node 5, Type 1, BuildingBlock: BETDIP_clean_linker_0, # of connection points: 3
#     Node 6, Type 1, BuildingBlock: BETDIP_clean_linker_0, # of connection points: 3
#     Node 7, Type 1, BuildingBlock: BETDIP_clean_linker_0, # of connection points: 3
#     Node 8, Type 1, BuildingBlock: BETDIP_clean_linker_0, # of connection points: 3
#     Edge 9, Type (0, 1), BuildingBlock: UVAHIK_clean_linker_0, # of connection points: 2
#     Edge 10, Type (0, 1), BuildingBlock: UVAHIK_clean_linker_0, # of connection points: 2
#     Edge 11, Type (0, 1), BuildingBlock: UVAHIK_clean_linker_0, # of connection points: 2
#     Edge 12, Type (0, 1), BuildingBlock: UVAHIK_clean_linker_0, # of connection points: 2
#     Edge 13, Type (0, 1), BuildingBlock: UVAHIK_clean_linker_0, # of connection points: 2
#     Edge 14, Type (0, 1), BuildingBlock: UVAHIK_clean_linker_0, # of connection points: 2
#     Edge 15, Type (0, 1), BuildingBlock: UVAHIK_clean_linker_0, # of connection points: 2
#     Edge 16, Type (0, 1), BuildingBlock: UVAHIK_clean_linker_0, # of connection points: 2
#     Edge 17, Type (0, 1), BuildingBlock: UVAHIK_clean_linker_0, # of connection points: 2
#     Edge 18, Type (0, 1), BuildingBlock: UVAHIK_clean_linker_0, # of connection points: 2
#     Edge 19, Type (0, 1), BuildingBlock: UVAHIK_clean_linker_0, # of connection points: 2
#     Edge 20, Type (0, 1), BuildingBlock: UVAHIK_clean_linker_0, # of connection points: 2
#     Edge 21, Type (0, 1), BuildingBlock: UVAHIK_clean_linker_0, # of connection points: 2
#     Edge 22, Type (0, 1), BuildingBlock: UVAHIK_clean_linker_0, # of connection points: 2
#     Edge 23, Type (0, 1), BuildingBlock: UVAHIK_clean_linker_0, # of connection points: 2
#     Edge 24, Type (0, 1), BuildingBlock: UVAHIK_clean_linker_0, # of connection points: 2
#     Edge 25, Type (0, 1), BuildingBlock: UVAHIK_clean_linker_0, # of connection points: 2
#     Edge 26, Type (0, 1), BuildingBlock: UVAHIK_clean_linker_0, # of connection points: 2
# Relax obj value: 0.131
# Max RMSD: 0.178
# Mean RMSD: 0.126
data_MOF--net-anh--node1-BETFEN_clean_sbu_0--node2-BETDIP_clean_linker_0--edge1-UVAHIK_clean_linker_0
_symmetry_space_group_name_H-M    P1
_symmetry_Int_Tables_number       1
_symmetry_cell_setting            triclinic
loop_
_symmetry_equiv_pos_as_xyz
'x, y, z'
_cell_length_a     38.805288
_cell_length_b     40.205939
_cell_length_c     64.00052
_cell_angle_alpha  92.97944
_cell_angle_beta   93.68831
_cell_angle_gamma 106.75444
loop_
_atom_site_label
_atom_site_type_symbol
_atom_site_fract_x
_atom_site_fract_y
_atom_site_fract_z
_atom_type_partial_charge
Pr0 Pr 0.04456 0.55727 0.16254 0.0
Pr1 Pr 0.06601 0.63767 0.14804 0.0
C2 C 1.02346 0.50301 0.18627 0.0
C3 C 0.99125 0.4733 0.1876 0.0
C4 C 0.96598 0.46068 0.17022 0.0
C5 C 0.93426 0.43389 0.17219 0.0
C6 C 0.92717 0.41962 0.19162 0.0
C7 C 0.95285 0.43215 0.2089 0.0
C8 C 0.9846 0.45874 0.20688 0.0
C9 C 0.03177 0.55866 0.11896 0.0
C10 C 0.98046 0.59671 0.15161 0.0
C11 C 0.09339 0.69792 0.13026 0.0
C12 C 0.12883 0.72454 0.13148 0.0
C13 C 0.13073 0.75973 0.13035 0.0
C14 C 0.16412 0.78547 0.13323 0.0
C15 C 0.19626 0.77645 0.13729 0.0
C16 C 0.19418 0.74098 0.13791 0.0
C17 C 0.16081 0.71536 0.13516 0.0
C18 C 0.06431 0.62923 0.19091 0.0
C19 C 0.13028 0.59598 0.1548 0.0
O20 O 1.01964 0.53373 0.19126 0.0
O21 O 0.04216 0.50233 0.16994 0.0
O22 O 0.04323 0.58368 0.13253 0.0
O23 O 0.02678 0.52961 0.12804 0.0
O24 O 1.00316 0.62096 0.14185 0.0
O25 O 0.99098 0.57378 0.16265 0.0
O26 O 0.09124 0.66738 0.12109 0.0
O27 O 0.07622 0.69592 0.14731 0.0
O28 O 0.07586 0.61134 0.17786 0.0
O29 O 0.05557 0.65447 0.18217 0.0
O30 O 0.10729 0.56897 0.16233 0.0
O31 O 0.12069 0.62301 0.14811 0.0
H32 H 0.97047 0.47195 0.15526 0.0
H33 H 0.91483 0.42505 0.15867 0.0
H34 H 0.94835 0.42143 0.22401 0.0
H35 H 1.00373 0.46831 0.22048 0.0
H36 H 0.1063 0.76737 0.12772 0.0
H37 H 0.16457 0.8125 0.13294 0.0
H38 H 0.21834 0.73296 0.14068 0.0
H39 H 0.15993 0.6884 0.13629 0.0
Pr40 Pr 0.56707 0.07482 0.50785 0.0
Pr41 Pr 0.49343 0.05565 0.52219 0.0
C42 C 0.62741 0.10216 0.48837 0.0
C43 C 0.65265 0.13675 0.48597 0.0
C44 C 0.6609 0.16327 0.50229 0.0
C45 C 0.68526 0.19581 0.49975 0.0
C46 C 0.70146 0.20253 0.48076 0.0
C47 C 0.69275 0.17599 0.4644 0.0
C48 C 0.66864 0.14341 0.46701 0.0
C49 C 0.56688 0.06947 0.55093 0.0
C50 C 0.52913 0.13958 0.51933 0.0
C51 C 0.4308 1.02662 0.53916 0.0
C52 C 0.40355 0.99233 0.53585 0.0
C53 C 0.40565 0.96875 0.5194 0.0
C54 C 0.37936 0.93649 0.51579 0.0
C55 C 0.35048 0.92701 0.52866 0.0
C56 C 0.34876 0.9507 0.5453 0.0
C57 C 0.37509 0.9831 0.54884 0.0
C58 C 0.49548 0.05815 0.47879 0.0
C59 C 0.53191 0.99085 0.51236 0.0
O60 O 0.59489 0.0957 0.4791 0.0
O61 O 0.62772 0.09025 0.50698 0.0
O62 O 0.54764 0.08459 0.5406 0.0
O63 O 0.58722 0.05745 0.53916 0.0
O64 O 0.50491 0.11639 0.52884 0.0
O65 O 0.55328 0.12947 0.50885 0.0
O66 O 0.46231 1.0269 0.54788 0.0
O67 O 0.43328 0.04626 0.52336 0.0
O68 O 0.51363 0.04394 0.49037 0.0
O69 O 0.47481 0.07151 0.48945 0.0
O70 O 0.55655 1.01375 0.50287 0.0
O71 O 0.50725 1.00119 0.52218 0.0
H72 H 0.64854 0.15883 0.517 0.0
H73 H 0.69108 0.21586 0.51254 0.0
H74 H 0.70502 0.18023 0.44966 0.0
H75 H 0.66256 0.12331 0.45423 0.0
H76 H 0.42745 0.97548 0.50917 0.0
H77 H 0.38133 0.91928 0.50263 0.0
H78 H 0.32722 0.94415 0.55568 0.0
H79 H 0.37315 1.00097 0.56167 0.0
Pr80 Pr 0.458 0.53372 0.81591 0.0
Pr81 Pr 0.48255 0.61538 0.83242 0.0
C82 C 0.44676 0.47257 0.79408 0.0
C83 C 0.46287 0.44412 0.79802 0.0
C84 C 0.44143 0.41221 0.80419 0.0
C85 C 0.45744 0.38751 0.81153 0.0
C86 C 0.49518 0.39437 0.81282 0.0
C87 C 0.51635 0.42553 0.80559 0.0
C88 C 0.50044 0.45015 0.79833 0.0
C89 C 0.46816 0.54146 0.86003 0.0
C90 C 0.54567 0.57619 0.82856 0.0
C91 C 0.49565 0.68027 0.85015 0.0
C92 C 0.5226 0.71393 0.84838 0.0
C93 C 0.55736 0.71552 0.84273 0.0
C94 C 0.58195 0.74755 0.83962 0.0
C95 C 0.57209 0.77852 0.8419 0.0
C96 C 0.53729 0.77671 0.84779 0.0
C97 C 0.51281 0.74469 0.85102 0.0
C98 C 0.48646 0.60045 0.78979 0.0
C99 C 0.39455 0.5708 0.82505 0.0
O100 O 0.46861 0.50162 0.78843 0.0
O101 O 0.42488 0.47769 0.80788 0.0
O102 O 0.47155 0.56467 0.8474 0.0
O103 O 0.45882 0.51125 0.8496 0.0
O104 O 0.53671 0.60178 0.83853 0.0
O105 O 0.52162 0.55062 0.81694 0.0
O106 O 0.47308 0.66828 0.83352 0.0
O107 O 0.50725 0.65631 0.85894 0.0
O108 O 0.46136 0.58477 0.8005 0.0
O109 O 0.50947 0.6264 0.8008 0.0
O110 O 0.40217 0.54532 0.81412 0.0
O111 O 0.41996 0.59687 0.83537 0.0
H112 H 0.41243 0.40699 0.80418 0.0
H113 H 0.44041 0.3637 0.81696 0.0
H114 H 0.54542 0.43119 0.80585 0.0
H115 H 0.51787 0.47441 0.79369 0.0
H116 H 0.56531 0.69196 0.84044 0.0
H117 H 0.60864 0.74803 0.83537 0.0
H118 H 0.52858 0.79993 0.84935 0.0
H119 H 0.48593 0.74384 0.85514 0.0
H120 H 0.53218 0.07809 0.196 0.0
H121 H 0.56962 0.12457 0.25855 0.0
H122 H 0.48646 1.02709 0.24974 0.0
H123 H 0.57879 0.17435 0.24078 0.0
C124 C 0.59217 0.16689 0.22769 0.0
C125 C 0.53076 0.07736 0.21283 0.0
C126 C 0.5065 0.04895 0.22117 0.0
C127 C 0.55321 0.10507 0.22613 0.0
C128 C 0.55171 0.104 0.24801 0.0
C129 C 0.52798 0.07572 0.25654 0.0
C130 C 0.50556 0.04837 0.24308 0.0
N131 N 0.57797 0.13308 0.21725 0.0
H132 H 0.52825 0.53092 0.50871 0.0
H133 H 0.52267 0.59475 0.56407 0.0
H134 H 0.51533 0.4872 0.56901 0.0
H135 H 0.57055 0.63338 0.54537 0.0
C136 C 0.55042 0.6322 0.5325 0.0
C137 C 0.5258 0.53385 0.52541 0.0
C138 C 0.52141 0.50426 0.53771 0.0
C139 C 0.52688 0.56727 0.53499 0.0
C140 C 0.52322 0.57008 0.55666 0.0
C141 C 0.51892 0.54146 0.56886 0.0
C142 C 0.51806 0.50903 0.55933 0.0
N143 N 0.5305 0.59788 0.52332 0.0
H144 H 0.93721 0.57532 0.83667 0.0
H145 H 1.01014 0.57339 0.88983 0.0
H146 H 0.90255 0.57619 0.89938 0.0
H147 H 0.04287 0.6221 0.86536 0.0
C148 C 0.04036 0.6002 0.85405 0.0
C149 C 0.94246 0.57469 0.85345 0.0
C150 C 0.91553 0.576 0.86703 0.0
C151 C 0.97698 0.57476 0.86171 0.0
C152 C 0.98375 0.57396 0.88346 0.0
C153 C 0.95703 0.57438 0.89707 0.0
C154 C 0.92322 0.57589 0.88881 0.0
N155 N 1.00535 0.5768 0.84836 0.0
H156 H 0.0428 0.59394 0.47358 0.0
H157 H 1.00117 0.55113 0.4107 0.0
H158 H 0.09604 0.63892 0.42035 0.0
H159 H 0.9479 0.54042 0.42659 0.0
C160 C 0.95544 0.52896 0.44053 0.0
C161 C 0.04442 0.59429 0.45674 0.0
C162 C 0.07281 0.61908 0.44854 0.0
C163 C 1.01806 0.56989 0.44322 0.0
C164 C 1.02073 0.57019 0.42136 0.0
C165 C 0.0485 0.5953 0.41305 0.0
C166 C 0.07444 0.61953 0.42672 0.0
N167 N 0.98958 0.54489 0.45182 0.0
H168 H 0.74012 0.17475 0.82355 0.0
H169 H 0.74022 0.12173 0.76363 0.0
H170 H 0.64745 0.15332 0.77868 0.0
H171 H 0.8181 0.1207 0.79038 0.0
C172 C 0.79109 0.11679 0.79537 0.0
C173 C 0.72626 0.16373 0.80843 0.0
C174 C 0.69113 0.16541 0.80308 0.0
C175 C 0.74351 0.14722 0.79446 0.0
C176 C 0.72606 0.13309 0.77469 0.0
C177 C 0.69151 0.13571 0.76874 0.0
C178 C 0.67408 0.15123 0.78322 0.0
N179 N 0.77922 0.14641 0.80009 0.0
H180 H 0.52198 0.59601 0.14649 0.0
H181 H 0.57063 0.57829 0.09002 0.0
H182 H 0.46638 0.59558 0.08591 0.0
H183 H 0.58277 0.53464 0.11792 0.0
C184 C 0.59835 0.55879 0.12665 0.0
C185 C 0.52086 0.59345 0.1295 0.0
C186 C 0.49045 0.59658 0.11739 0.0
C187 C 0.54971 0.58653 0.11967 0.0
C188 C 0.54817 0.58302 0.09765 0.0
C189 C 0.51852 0.58698 0.08542 0.0
C190 C 0.48985 0.59373 0.09539 0.0
N191 N 0.58077 0.58426 0.1319 0.0
C192 C 0.19219 0.62143 0.14287 0.0
C193 C 0.16871 0.59657 0.15407 0.0
C194 C 0.2284 0.62245 0.14218 0.0
C195 C 0.29079 0.56873 0.14898 0.0
H196 H 0.36395 0.65798 0.14951 0.0
C197 C 0.4417 0.57893 0.14219 0.0
C198 C 0.45827 0.60127 0.12721 0.0
C199 C 0.40818 0.57975 0.14883 0.0
C200 C 0.34385 0.63283 0.14928 0.0
H201 H 0.16519 0.55302 0.1733 0.0
H202 H 0.22856 0.5549 0.17218 0.0
H203 H 0.30164 0.65603 0.15442 0.0
H204 H 0.4538 0.64329 0.10837 0.0
H205 H 0.39565 0.64486 0.11992 0.0
H206 H 0.33302 0.54558 0.14353 0.0
C207 C 0.21878 0.57352 0.16379 0.0
C208 C 0.30807 0.6317 0.15204 0.0
C209 C 0.18243 0.57251 0.16448 0.0
C210 C 0.44159 0.62564 0.11986 0.0
C211 C 0.40834 0.62666 0.12659 0.0
C212 C 0.32665 0.56987 0.14627 0.0
C213 C 0.24228 0.5986 0.15267 0.0
C214 C 0.2809 0.59964 0.15152 0.0
C215 C 0.39076 0.60319 0.14078 0.0
C216 C 0.35351 0.60196 0.146 0.0
H217 H 0.18257 0.63994 0.13432 0.0
H218 H 0.24539 0.64162 0.13305 0.0
H219 H 0.27059 0.54358 0.14828 0.0
H220 H 0.4538 0.55971 0.14802 0.0
H221 H 0.39556 0.56158 0.15995 0.0
C222 C 0.72551 0.2533 0.4592 0.0
C223 C 0.72745 0.23701 0.47795 0.0
C224 C 0.75055 0.28516 0.45621 0.0
C225 C 0.81943 0.36124 0.48449 0.0
H226 H 0.85234 0.37586 0.42884 0.0
C227 C 0.93667 0.48072 0.46496 0.0
C228 C 0.93005 0.49642 0.4466 0.0
C229 C 0.91248 0.44927 0.46977 0.0
C230 C 0.84324 0.37228 0.44444 0.0
H231 H 0.75718 0.24149 0.50832 0.0
H232 H 0.80132 0.29689 0.503 0.0
H233 H 0.80936 0.32077 0.43535 0.0
H234 H 0.89301 0.49197 0.41911 0.0
H235 H 0.85105 0.43721 0.42741 0.0
H236 H 0.85392 0.41288 0.49352 0.0
C237 C 0.78003 0.28536 0.49072 0.0
C238 C 0.81845 0.34071 0.44818 0.0
C239 C 0.75477 0.25356 0.49377 0.0
C240 C 0.8988 0.48036 0.43333 0.0
C241 C 0.87489 0.44891 0.43802 0.0
C242 C 0.84451 0.39281 0.48077 0.0
C243 C 0.77842 0.30148 0.47182 0.0
C244 C 0.80583 0.33486 0.46818 0.0
C245 C 0.88154 0.43284 0.4562 0.0
C246 C 0.85635 0.39881 0.46063 0.0
H247 H 0.70441 0.24151 0.44686 0.0
H248 H 0.74786 0.29711 0.44165 0.0
H249 H 0.81009 0.35786 0.50004 0.0
H250 H 0.96056 0.49254 0.4755 0.0
H251 H 0.91839 0.43741 0.48386 0.0
C252 C 0.61938 0.81473 0.82068 0.0
C253 C 0.59754 0.81244 0.83757 0.0
C254 C 0.64239 0.84681 0.81617 0.0
C255 C 0.68587 0.93702 0.83927 0.0
H256 H 0.69363 0.95862 0.78106 0.0
C257 C 0.74468 0.07643 0.81506 0.0
C258 C 0.76945 0.08135 0.79961 0.0
C259 C 0.72524 0.04293 0.81947 0.0
C260 C 0.69201 0.95278 0.79737 0.0
H261 H 0.58343 0.84209 0.86323 0.0
H262 H 0.62254 0.8981 0.85495 0.0
H263 H 0.6569 0.9013 0.7894 0.0
H264 H 0.79378 0.05541 0.7769 0.0
H265 H 0.75928 0.99641 0.78446 0.0
H266 H 0.72026 0.98886 0.84719 0.0
C267 C 0.62237 0.87504 0.84537 0.0
C268 C 0.67106 0.91994 0.80217 0.0
C269 C 0.59953 0.84295 0.84995 0.0
C270 C 0.77457 0.05218 0.78874 0.0
C271 C 0.75481 1.01856 0.79301 0.0
C272 C 0.70653 0.9699 0.83446 0.0
C273 C 0.64398 0.8774 0.82837 0.0
C274 C 0.6675 0.91176 0.82319 0.0
C275 C 0.73012 1.01365 0.80852 0.0
C276 C 0.70955 0.9782 0.81348 0.0
H277 H 0.61823 0.79183 0.81066 0.0
H278 H 0.65897 0.8476 0.80312 0.0
H279 H 0.68436 0.9314 0.8556 0.0
H280 H 0.74079 0.09838 0.82409 0.0
H281 H 0.70624 1.03992 0.83141 0.0
C282 C 0.91549 0.56309 0.15329 0.0
C283 C 0.94152 0.59445 0.14993 0.0
C284 C 0.87869 0.56047 0.15133 0.0
C285 C 0.81378 0.60991 0.15479 0.0
H286 H 0.75002 0.53414 0.11834 0.0
C287 C 0.66162 0.59788 0.13624 0.0
C288 C 0.63741 0.56436 0.13204 0.0
C289 C 0.69892 0.60253 0.13909 0.0
C290 C 0.76713 0.5551 0.12894 0.0
H291 H 0.94924 0.64787 0.14225 0.0
H292 H 0.88471 0.64346 0.13936 0.0
H293 H 0.81434 0.54028 0.1223 0.0
H294 H 0.6328 0.50945 0.12834 0.0
H295 H 0.69721 0.51712 0.13449 0.0
H296 H 0.76662 0.62416 0.1621 0.0
C297 C 0.893 0.62088 0.14332 0.0
C298 C 0.80414 0.55872 0.13105 0.0
C299 C 0.92987 0.62332 0.14486 0.0
C300 C 0.65096 0.53559 0.13147 0.0
C301 C 0.68803 0.54012 0.13474 0.0
C302 C 0.77657 0.60594 0.15302 0.0
C303 C 0.86704 0.58933 0.14636 0.0
C304 C 0.82785 0.58611 0.14399 0.0
C305 C 0.71275 0.57369 0.13813 0.0
C306 C 0.75261 0.57837 0.1401 0.0
H307 H 0.92351 0.54031 0.15714 0.0
H308 H 0.85926 0.53589 0.15386 0.0
H309 H 0.83147 0.63115 0.165 0.0
H310 H 0.65192 0.62059 0.13654 0.0
H311 H 0.71688 0.62883 0.1414 0.0
C312 C 0.33115 0.86296 0.51739 0.0
C313 C 0.32203 0.89287 0.52435 0.0
C314 C 0.30435 0.8315 0.51191 0.0
C315 C 0.20947 0.78266 0.51764 0.0
H316 H 0.21666 0.73612 0.46423 0.0
C317 C 0.09188 0.67047 0.47502 0.0
C318 C 0.1009 0.64527 0.46229 0.0
C319 C 0.11905 0.69882 0.48503 0.0
C320 C 0.21445 0.74825 0.47939 0.0
H321 H 0.27727 0.91263 0.53144 0.0
H322 H 0.23056 0.85748 0.52215 0.0
H323 H 0.26358 0.78877 0.47725 0.0
H324 H 0.14496 0.62844 0.451 0.0
H325 H 0.19238 0.6768 0.46913 0.0
H326 H 0.16031 0.74194 0.51981 0.0
C327 C 0.25858 0.8585 0.52102 0.0
C328 C 0.24139 0.77862 0.48681 0.0
C329 C 0.2854 0.8901 0.52638 0.0
C330 C 0.13741 0.64771 0.46068 0.0
C331 C 0.16451 0.67566 0.47089 0.0
C332 C 0.18258 0.75197 0.5103 0.0
C333 C 0.26773 0.82901 0.51338 0.0
C334 C 0.23922 0.79624 0.50598 0.0
C335 C 0.15575 0.70227 0.48262 0.0
C336 C 0.1847 0.73436 0.49104 0.0
H337 H 0.35908 0.86384 0.51609 0.0
H338 H 0.3123 0.80908 0.50641 0.0
H339 H 0.2072 0.79556 0.53255 0.0
H340 H 0.06384 0.66925 0.47629 0.0
H341 H 0.11118 0.71884 0.49378 0.0
C342 C 0.49889 0.3336 0.81687 0.0
C343 C 0.51288 0.36965 0.82193 0.0
C344 C 0.51786 0.31093 0.82377 0.0
C345 C 0.61049 0.31197 0.83462 0.0
H346 H 0.56928 0.21821 0.85102 0.0
C347 C 0.69239 0.21652 0.82775 0.0
C348 C 0.67299 0.18446 0.81712 0.0
C349 C 0.67416 0.23801 0.83704 0.0
C350 C 0.58125 0.24431 0.84643 0.0
H351 H 0.55599 0.40981 0.83974 0.0
H352 H 0.58939 0.37029 0.85137 0.0
H353 H 0.53267 0.25853 0.85027 0.0
H354 H 0.6196 0.14783 0.81041 0.0
H355 H 0.58783 0.1859 0.82525 0.0
H356 H 0.6579 0.2976 0.82912 0.0
C357 C 0.56403 0.35967 0.84188 0.0
C358 C 0.56028 0.26738 0.84609 0.0
C359 C 0.54503 0.38227 0.83508 0.0
C360 C 0.6353 0.1729 0.81785 0.0
C361 C 0.61705 0.19462 0.82675 0.0
C362 C 0.6312 0.28887 0.83464 0.0
C363 C 0.55116 0.32393 0.83581 0.0
C364 C 0.57445 0.30111 0.83962 0.0
C365 C 0.63615 0.2282 0.83554 0.0
C366 C 0.61654 0.25435 0.8399 0.0
H367 H 0.47423 0.3231 0.80674 0.0
H368 H 0.50751 0.28351 0.81868 0.0
H369 H 0.62201 0.3377 0.82933 0.0
H370 H 0.72146 0.2262 0.82766 0.0
H371 H 0.68986 0.2632 0.8443 0.0
C372 C 0.55864 0.94132 0.50286 0.0
C373 C 0.53189 0.95299 0.51226 0.0
C374 C 0.55914 0.90629 0.50327 0.0
C375 C 0.50259 0.81511 0.514 0.0
H376 H 0.5954 0.79698 0.51783 0.0
C377 C 0.51735 0.67153 0.51366 0.0
C378 C 0.54614 0.66709 0.52675 0.0
C379 C 0.51426 0.70541 0.51045 0.0
C380 C 0.56905 0.80122 0.51689 0.0
H381 H 0.48424 0.93552 0.52934 0.0
H382 H 0.48524 0.87512 0.53022 0.0
H383 H 0.59263 0.8563 0.51583 0.0
H384 H 0.59397 0.69549 0.5466 0.0
H385 H 0.58881 0.75309 0.54113 0.0
H386 H 0.4792 0.75978 0.51558 0.0
C387 C 0.50585 0.89291 0.52226 0.0
C388 C 0.56744 0.83569 0.51544 0.0
C389 C 0.5054 0.92798 0.52188 0.0
C390 C 0.57158 0.69752 0.53623 0.0
C391 C 0.56869 0.73098 0.53297 0.0
C392 C 0.50422 0.78046 0.51538 0.0
C393 C 0.53289 0.88122 0.51309 0.0
C394 C 0.53422 0.84361 0.51411 0.0
C395 C 0.54002 0.73593 0.52005 0.0
C396 C 0.53755 0.77275 0.51711 0.0
H397 H 0.57951 0.95936 0.49519 0.0
H398 H 0.58019 0.89887 0.49564 0.0
H399 H 0.47629 0.81942 0.51272 0.0
H400 H 0.49695 0.64893 0.50619 0.0
H401 H 0.49176 0.70766 0.50029 0.0
C402 C 0.61023 0.60221 0.84312 0.0
C403 C 0.58415 0.57632 0.8303 0.0
C404 C 0.64643 0.60242 0.84479 0.0
C405 C 0.70584 0.54589 0.83635 0.0
H406 H 0.7812 0.6342 0.84179 0.0
C407 C 0.8586 0.55488 0.84269 0.0
C408 C 0.87948 0.57825 0.85897 0.0
C409 C 0.82317 0.55506 0.83679 0.0
C410 C 0.76048 0.60931 0.84036 0.0
H411 H 0.57605 0.53031 0.80909 0.0
H412 H 0.63921 0.53101 0.81176 0.0
H413 H 0.71822 0.63335 0.8363 0.0
H414 H 0.88028 0.62115 0.88112 0.0
H415 H 0.8189 0.62161 0.87084 0.0
H416 H 0.74833 0.52194 0.84052 0.0
C417 C 0.63158 0.55091 0.82079 0.0
C418 C 0.7243 0.6088 0.83729 0.0
C419 C 0.5953 0.55064 0.81916 0.0
C420 C 0.86474 0.60263 0.86863 0.0
C421 C 0.82963 0.60306 0.86262 0.0
C422 C 0.74211 0.5464 0.83932 0.0
C423 C 0.65769 0.57684 0.83361 0.0
C424 C 0.69639 0.57713 0.83559 0.0
C425 C 0.80815 0.57896 0.84685 0.0
C426 C 0.76985 0.57815 0.8417 0.0
H427 H 0.60272 0.62233 0.85202 0.0
H428 H 0.66553 0.62243 0.85513 0.0
H429 H 0.68518 0.521 0.83534 0.0
H430 H 0.8692 0.53571 0.83503 0.0
H431 H 0.80743 0.53635 0.82446 0.0
C432 C 0.23974 0.83447 0.131 0.0
C433 C 0.23157 0.8039 0.1418 0.0
C434 C 0.27227 0.86082 0.136 0.0
C435 C 0.36403 0.87843 0.16265 0.0
H436 H 0.35915 0.97309 0.17114 0.0
C437 C 0.47349 0.98571 0.21254 0.0
C438 C 0.48088 1.02045 0.2073 0.0
C439 C 0.44615 0.95934 0.20118 0.0
C440 C 0.36124 0.94695 0.16844 0.0
H441 H 0.25144 0.77733 0.16642 0.0
H442 H 0.3081 0.82295 0.17492 0.0
H443 H 0.30533 0.92689 0.15751 0.0
H444 H 0.46637 0.05446 0.18537 0.0
H445 H 0.41907 1.00824 0.16519 0.0
H446 H 0.41979 0.89835 0.17388 0.0
C447 C 0.28957 0.82636 0.16238 0.0
C448 C 0.33031 0.92043 0.16066 0.0
C449 C 0.25703 0.80014 0.15747 0.0
C450 C 0.46146 1.02795 0.18976 0.0
C451 C 0.43406 1.00151 0.17836 0.0
C452 C 0.39501 0.90497 0.17034 0.0
C453 C 0.29746 0.85713 0.15184 0.0
C454 C 0.33117 0.88575 0.15808 0.0
C455 C 0.42554 0.967 0.18422 0.0
C456 C 0.39383 0.93946 0.17375 0.0
H457 H 0.22105 0.83805 0.11862 0.0
H458 H 0.27774 0.88407 0.12744 0.0
H459 H 0.36572 0.85206 0.16049 0.0
H460 H 0.4883 0.97899 0.2258 0.0
H461 H 0.44022 0.93318 0.2063 0.0
C462 C 0.50119 0.18808 0.52906 0.0
C463 C 0.52897 0.17745 0.52012 0.0
C464 C 0.50052 0.22311 0.52948 0.0
C465 C 0.54224 0.31025 0.50651 0.0
H466 H 0.49708 0.34545 0.5514 0.0
C467 C 0.54927 0.45967 0.52088 0.0
C468 C 0.51967 0.46763 0.52938 0.0
C469 C 0.55044 0.42469 0.51813 0.0
C470 C 0.50946 0.33623 0.5385 0.0
H471 H 0.57815 0.19675 0.50465 0.0
H472 H 0.57754 0.25743 0.50579 0.0
H473 H 0.49951 0.28576 0.55041 0.0
H474 H 0.46751 0.44405 0.54077 0.0
H475 H 0.46905 0.38406 0.53562 0.0
H476 H 0.5527 0.36135 0.49492 0.0
C477 C 0.5556 0.23861 0.51219 0.0
C478 C 0.51083 0.30145 0.53789 0.0
C479 C 0.55614 0.20347 0.51166 0.0
C480 C 0.49073 0.43925 0.53408 0.0
C481 C 0.4919 0.40457 0.53141 0.0
C482 C 0.54107 0.34524 0.50721 0.0
C483 C 0.52775 0.24937 0.52111 0.0
C484 C 0.527 0.28738 0.52182 0.0
C485 C 0.52218 0.39643 0.52395 0.0
C486 C 0.52435 0.35897 0.52313 0.0
H487 H 0.4795 0.16916 0.53561 0.0
H488 H 0.47802 0.22934 0.53615 0.0
H489 H 0.55462 0.30103 0.49363 0.0
H490 H 0.57245 0.48059 0.51746 0.0
H491 H 0.57438 0.42002 0.51238 0.0
C492 C 0.34821 0.59964 0.83534 0.0
C493 C 0.3563 0.57093 0.8256 0.0
C494 C 0.31255 0.60061 0.83558 0.0
C495 C 0.21788 0.54582 0.83129 0.0
H496 H 0.19859 0.63364 0.82233 0.0
C497 C 0.07445 0.56446 0.835 0.0
C498 C 0.07396 0.59497 0.8466 0.0
C499 C 0.10738 0.55974 0.82964 0.0
C500 C 0.20348 0.60894 0.82497 0.0
H501 H 0.33277 0.52041 0.80866 0.0
H502 H 0.27024 0.52213 0.80918 0.0
H503 H 0.25887 0.6284 0.81858 0.0
H504 H 0.10716 0.6444 0.86146 0.0
H505 H 0.16414 0.63635 0.8522 0.0
H506 H 0.16249 0.52666 0.83815 0.0
C507 C 0.29173 0.54387 0.81665 0.0
C508 C 0.23809 0.60594 0.82283 0.0
C509 C 0.32759 0.54297 0.81629 0.0
C510 C 0.10672 0.62075 0.85239 0.0
C511 C 0.1394 0.61617 0.84697 0.0
C512 C 0.18313 0.54884 0.83349 0.0
C513 C 0.28383 0.57288 0.82615 0.0
C514 C 0.24599 0.57462 0.82643 0.0
C515 C 0.14029 0.58557 0.83563 0.0
C516 C 0.17575 0.58072 0.83083 0.0
H517 H 0.36946 0.62165 0.84274 0.0
H518 H 0.30745 0.62309 0.84337 0.0
H519 H 0.22308 0.52136 0.83426 0.0
H520 H 0.04958 0.54405 0.83042 0.0
H521 H 0.1071 0.53593 0.82081 0.0
C522 C 0.8735 0.39484 0.21179 0.0
C523 C 0.89267 0.39254 0.19415 0.0
C524 C 0.8412 0.36944 0.21441 0.0
C525 C 0.76752 0.29834 0.18575 0.0
H526 H 0.74804 0.27114 0.24206 0.0
C527 C 0.64413 0.18466 0.20486 0.0
C528 C 0.62582 0.19185 0.22199 0.0
C529 C 0.67676 0.20831 0.20049 0.0
C530 C 0.75297 0.27862 0.22625 0.0
H531 H 0.89292 0.36174 0.16538 0.0
H532 H 0.83664 0.31693 0.17009 0.0
H533 H 0.80502 0.31344 0.23631 0.0
H534 H 0.62677 0.22936 0.24771 0.0
H535 H 0.68361 0.2705 0.24016 0.0
H536 H 0.71532 0.26304 0.17578 0.0
C537 C 0.84632 0.33873 0.18175 0.0
C538 C 0.78561 0.30297 0.22295 0.0
C539 C 0.8786 0.36434 0.17906 0.0
C540 C 0.64041 0.22316 0.23445 0.0
C541 C 0.67304 0.24659 0.2302 0.0
C542 C 0.73488 0.27372 0.18906 0.0
C543 C 0.82729 0.34088 0.19952 0.0
C544 C 0.79315 0.31356 0.20271 0.0
C545 C 0.69176 0.23933 0.21329 0.0
C546 C 0.72707 0.26398 0.2094 0.0
H547 H 0.88324 0.41661 0.22348 0.0
H548 H 0.8269 0.37245 0.22803 0.0
H549 H 0.77224 0.30609 0.16999 0.0
H550 H 0.63349 0.1607 0.19498 0.0
H551 H 0.69067 0.20197 0.1874 0.0
C552 C 1.02349 0.59286 0.08851 0.0
C553 C 0.02576 0.56149 0.09625 0.0
C554 C 1.01613 0.59489 0.067 0.0
C555 C 0.9803 0.53826 0.01766 0.0
H556 H 1.02121 0.62378 0.9911 0.0
C557 C 0.97819 0.54725 0.92774 0.0
C558 C 0.96459 0.57338 0.91995 0.0
C559 C 0.98531 0.54615 0.94933 0.0
C560 C 1.00948 0.59982 -0.00161 0.0
H561 H 1.02319 0.50796 0.08776 0.0
H562 H 1.01211 0.51176 0.05022 0.0
H563 H 0.03555 0.62121 0.02857 0.0
H564 H 0.94824 0.61912 0.92841 0.0
H565 H 0.96156 0.61769 0.96631 0.0
H566 H 0.95535 0.51668 0.98717 0.0
C567 C 1.01461 0.53456 0.06065 0.0
C568 C 1.01749 0.59833 0.01988 0.0
C569 C 1.02131 0.5324 0.08216 0.0
C570 C 0.95854 0.59862 0.93409 0.0
C571 C 0.96633 0.59792 0.95568 0.0
C572 C 0.97286 0.53961 0.99613 0.0
C573 C 1.01147 0.56571 0.05276 0.0
C574 C 1.003 0.5675 0.02984 0.0
C575 C 0.9796 0.57156 0.96347 0.0
C576 C 0.98734 0.57038 0.98632 0.0
H577 H 0.02659 0.6156 0.09912 0.0
H578 H 1.01337 0.61917 0.06166 0.0
H579 H 0.96786 0.51432 0.02476 0.0
H580 H 0.98294 0.52745 0.91712 0.0
H581 H 0.99569 0.52568 0.95498 0.0
C582 C 0.48487 0.08351 0.445 0.0
C583 C 0.49823 0.0599 0.456 0.0
C584 C 0.48856 0.08585 0.42348 0.0
C585 C 0.49665 1.03614 0.37607 0.0
H586 H 0.54174 0.1253 0.35448 0.0
C587 C 0.52922 0.04556 0.28966 0.0
C588 C 0.52618 0.07482 0.27954 0.0
C589 C 0.52667 0.04429 0.31129 0.0
C590 C 0.52851 0.10025 0.36012 0.0
H591 H 0.52558 1.02006 0.45327 0.0
H592 H 0.53103 1.02343 0.41549 0.0
H593 H 0.53424 0.12195 0.39194 0.0
H594 H 0.51781 0.12558 0.28388 0.0
H595 H 0.5118 0.12296 0.32151 0.0
H596 H 0.48959 1.01437 0.3444 0.0
C597 C 0.51802 1.04028 0.42355 0.0
C598 C 0.52443 0.09839 0.38162 0.0
C599 C 0.51498 1.03842 0.44512 0.0
C600 C 0.52059 0.10286 0.29141 0.0
C601 C 0.51735 0.10136 0.313 0.0
C602 C 0.5001 1.03805 0.35454 0.0
C603 C 0.50502 0.06414 0.41257 0.0
C604 C 0.50867 0.06629 0.38978 0.0
C605 C 0.52029 0.07201 0.32326 0.0
C606 C 0.51631 0.0701 0.34625 0.0
H607 H 0.47202 0.10048 0.45307 0.0
H608 H 0.4782 0.10434 0.41531 0.0
H609 H 0.48406 1.01112 0.38199 0.0
H610 H 0.53391 1.02376 0.28083 0.0
H611 H 0.52996 1.02161 0.31861 0.0
C612 C 0.46273 0.56404 0.75601 0.0
C613 C 0.48863 0.59213 0.76727 0.0
C614 C 0.46494 0.55698 0.73455 0.0
C615 C 0.50283 0.59967 0.68817 0.0
H616 H 0.49037 0.50596 0.66423 0.0
C617 C 0.53799 0.57436 0.60408 0.0
C618 C 0.51512 0.54559 0.59174 0.0
C619 C 0.53394 0.57887 0.62548 0.0
C620 C 0.49345 0.53223 0.67061 0.0
H621 H 0.53733 0.63455 0.76508 0.0
H622 H 0.54108 0.62238 0.72775 0.0
H623 H 0.48409 0.51576 0.70163 0.0
H624 H 0.47006 0.49893 0.59216 0.0
H625 H 0.46267 0.50697 0.62953 0.0
H626 H 0.5119 0.61627 0.6573 0.0
C627 C 0.51892 0.60596 0.73537 0.0
C628 C 0.48989 0.53782 0.69204 0.0
C629 C 0.51686 0.61283 0.75678 0.0
C630 C 0.48833 0.52118 0.60133 0.0
C631 C 0.48414 0.52578 0.62274 0.0
C632 C 0.50619 0.59409 0.66679 0.0
C633 C 0.49289 0.57811 0.72397 0.0
C634 C 0.49494 0.57167 0.70108 0.0
C635 C 0.50677 0.55482 0.63506 0.0
C636 C 0.50195 0.56036 0.65775 0.0
H637 H 0.44066 0.5477 0.76374 0.0
H638 H 0.44438 0.53545 0.72614 0.0
H639 H 0.50622 0.62598 0.69461 0.0
H640 H 0.55925 0.59331 0.59721 0.0
H641 H 0.55236 0.60113 0.63455 0.0
C642 C 0.5616 0.09536 0.58669 0.0
C643 C 0.57158 0.07072 0.57401 0.0
C644 C 0.57039 0.09869 0.60844 0.0
C645 C 0.63586 0.07955 0.64723 0.0
H646 H 0.57711 0.10615 0.68797 0.0
C647 C 0.67691 0.09394 0.73643 0.0
C648 C 0.67445 0.12458 0.74703 0.0
C649 C 0.66142 0.08428 0.71583 0.0
C650 C 0.59381 0.09878 0.67674 0.0
H651 H 0.59612 1.02866 0.57404 0.0
H652 H 0.61028 1.03357 0.61183 0.0
H653 H 0.5542 0.09444 0.65104 0.0
H654 H 0.65427 0.16937 0.74406 0.0
H655 H 0.62691 0.15218 0.70845 0.0
H656 H 0.67547 0.084 0.67289 0.0
C657 C 0.59695 0.05125 0.60511 0.0
C658 C 0.58076 0.0922 0.65558 0.0
C659 C 0.58862 0.04826 0.58346 0.0
C660 C 0.65597 0.14515 0.7366 0.0
C661 C 0.64029 0.13536 0.71614 0.0
C662 C 0.64875 0.08587 0.66836 0.0
C663 C 0.58893 0.07715 0.61783 0.0
C664 C 0.60175 0.08275 0.64053 0.0
C665 C 0.643 0.10495 0.70548 0.0
C666 C 0.62804 0.09587 0.68331 0.0
H667 H 0.54843 0.11299 0.57974 0.0
H668 H 0.56397 0.11906 0.61772 0.0
H669 H 0.65316 0.07308 0.63607 0.0
H670 H 0.69063 0.07734 0.74407 0.0
H671 H 0.66371 0.06054 0.70803 0.0
C672 C 0.47905 0.51982 0.89482 0.0
C673 C 0.47559 0.54724 0.88299 0.0
C674 C 0.48592 0.52486 0.91661 0.0
C675 C 0.51666 0.59407 0.96049 0.0
H676 H 0.47189 0.51804 0.99396 0.0
C677 C 0.50796 0.60894 0.0504 0.0
C678 C 0.51708 0.58374 0.0622 0.0
C679 C 0.50525 0.60529 0.02847 0.0
C680 C 0.48483 0.53937 0.98479 0.0
H681 H 0.47637 0.60135 0.88445 0.0
H682 H 0.48708 0.61003 0.92265 0.0
H683 H 0.46167 0.51033 0.95586 0.0
H684 H 0.53068 0.53512 0.06043 0.0
H685 H 0.52538 0.52843 0.02199 0.0
H686 H 0.53872 0.62338 0.9897 0.0
C687 C 0.48551 0.58482 0.91514 0.0
C688 C 0.47912 0.53497 0.96293 0.0
C689 C 0.47915 0.57986 0.89327 0.0
C690 C 0.52379 0.55498 0.05168 0.0
C691 C 0.52053 0.55106 0.02975 0.0
C692 C 0.52193 0.59861 0.9824 0.0
C693 C 0.48891 0.55733 0.92712 0.0
C694 C 0.49503 0.56221 0.95045 0.0
C695 C 0.51108 0.57611 0.01795 0.0
C696 C 0.50613 0.57126 0.99473 0.0
H697 H 0.47674 0.49447 0.88722 0.0
H698 H 0.48915 0.50328 0.92517 0.0
H699 H 0.52987 0.61544 0.95145 0.0
H700 H 0.50289 0.63146 0.05815 0.0
H701 H 0.49771 0.62485 0.01974 0.0
C702 C 0.07232 0.59564 0.22185 0.0
C703 C 0.06326 0.62397 0.21353 0.0
C704 C 0.07106 0.59086 0.24332 0.0
C705 C 0.0797 0.63842 0.29408 0.0
H706 H 1.02257 0.55185 0.31401 0.0
C707 C 0.05244 0.6285 0.38098 0.0
C708 C 0.05006 0.59701 0.39007 0.0
C709 C 0.05435 0.63058 0.35936 0.0
C710 C 0.0392 0.576 0.30878 0.0
H711 H 0.04637 0.66978 0.22108 0.0
H712 H 0.04525 0.66199 0.25867 0.0
H713 H 0.02639 0.5574 0.27633 0.0
H714 H 0.04794 0.543 0.38388 0.0
H715 H 0.05267 0.54677 0.34612 0.0
H716 H 0.09353 0.65697 0.32625 0.0
C717 C 0.05285 0.64329 0.24855 0.0
C718 C 0.0412 0.57916 0.28719 0.0
C719 C 0.05342 0.64767 0.22706 0.0
C720 C 0.04953 0.56753 0.37716 0.0
C721 C 0.05206 0.56972 0.35553 0.0
C722 C 0.07825 0.6351 0.31563 0.0
C723 C 0.06157 0.61483 0.25686 0.0
C724 C 0.06105 0.61057 0.27967 0.0
C725 C 0.05459 0.60134 0.34633 0.0
C726 C 0.05751 0.60405 0.32331 0.0
H727 H 0.08044 0.57723 0.21179 0.0
H728 H 0.07814 0.56885 0.24942 0.0
H729 H 0.09559 0.66276 0.28864 0.0
H730 H 0.05239 0.65147 0.39059 0.0
H731 H 0.05527 0.65514 0.35289 0.0
loop_
_geom_bond_atom_site_label_1
_geom_bond_atom_site_label_2
_geom_bond_distance
_geom_bond_site_symmetry_2
_ccdc_geom_bond_type
Pr0 C2 2.880 1_455 S
Pr0 O20 2.562 1_455 S
Pr0 O21 2.490 1_455 S
Pr0 O22 2.695 . S
Pr0 O23 2.512 . S
Pr0 O25 2.437 1_455 S
Pr0 O28 2.436 . S
Pr0 O30 2.438 . S
Pr1 C11 2.880 . S
Pr1 O22 2.436 . S
Pr1 O24 2.438 1_455 S
Pr1 O26 2.562 . S
Pr1 O27 2.490 . S
Pr1 O28 2.695 . S
Pr1 O29 2.512 . S
Pr1 O31 2.437 . S
C2 Pr0 2.880 1_655 S
C2 C3 1.491 . S
C2 O20 1.254 . S
C2 O21 1.225 . S
C3 C2 1.491 . S
C3 C4 1.392 . S
C3 C8 1.356 . S
C4 C3 1.392 . S
C4 C5 1.368 . S
C4 H32 0.929 . S
C5 C4 1.368 . S
C5 C6 1.386 . S
C5 H33 0.929 . S
C6 C5 1.386 . S
C6 C7 1.373 . S
C7 C6 1.373 . S
C7 C8 1.409 . S
C7 H34 0.931 . S
C8 C3 1.356 . S
C8 C7 1.409 . S
C8 H35 0.930 . S
C9 O22 1.270 . S
C9 O23 1.248 . S
C10 O24 1.267 . S
C10 O25 1.278 . S
C11 Pr1 2.880 . S
C11 C12 1.491 . S
C11 O26 1.254 . S
C11 O27 1.225 . S
C12 C11 1.491 . S
C12 C13 1.392 . S
C12 C17 1.356 . S
C13 C12 1.392 . S
C13 C14 1.368 . S
C13 H36 0.929 . S
C14 C13 1.368 . S
C14 C15 1.386 . S
C14 H37 0.929 . S
C15 C14 1.386 . S
C15 C16 1.373 . S
C16 C15 1.373 . S
C16 C17 1.409 . S
C16 H38 0.931 . S
C17 C12 1.356 . S
C17 C16 1.409 . S
C17 H39 0.930 . S
C18 O28 1.270 . S
C18 O29 1.248 . S
C19 O30 1.267 . S
C19 O31 1.278 . S
O20 Pr0 2.562 1_655 S
O20 C2 1.254 . S
O21 Pr0 2.490 1_655 S
O21 C2 1.225 . S
O22 Pr0 2.695 . S
O22 Pr1 2.436 . S
O22 C9 1.270 . S
O23 Pr0 2.512 . S
O23 C9 1.248 . S
O24 Pr1 2.438 1_655 S
O24 C10 1.267 . S
O25 Pr0 2.437 1_655 S
O25 C10 1.278 . S
O26 Pr1 2.562 . S
O26 C11 1.254 . S
O27 Pr1 2.490 . S
O27 C11 1.225 . S
O28 Pr0 2.436 . S
O28 Pr1 2.695 . S
O28 C18 1.270 . S
O29 Pr1 2.512 . S
O29 C18 1.248 . S
O30 Pr0 2.438 . S
O30 C19 1.267 . S
O31 Pr1 2.437 . S
O31 C19 1.278 . S
H32 C4 0.929 . S
H33 C5 0.929 . S
H34 C7 0.931 . S
H35 C8 0.930 . S
H36 C13 0.929 . S
H37 C14 0.929 . S
H38 C16 0.931 . S
H39 C17 0.930 . S
Pr40 C42 2.880 . S
Pr40 O60 2.562 . S
Pr40 O61 2.490 . S
Pr40 O62 2.695 . S
Pr40 O63 2.512 . S
Pr40 O65 2.437 . S
Pr40 O68 2.436 . S
Pr40 O70 2.438 . S
Pr41 C51 2.880 1_545 S
Pr41 O62 2.436 . S
Pr41 O64 2.438 . S
Pr41 O66 2.562 1_545 S
Pr41 O67 2.490 1_545 S
Pr41 O68 2.695 . S
Pr41 O69 2.512 . S
Pr41 O71 2.437 1_545 S
C42 Pr40 2.880 . S
C42 C43 1.491 . S
C42 O60 1.254 . S
C42 O61 1.225 . S
C43 C42 1.491 . S
C43 C44 1.392 . S
C43 C48 1.356 . S
C44 C43 1.392 . S
C44 C45 1.368 . S
C44 H72 0.929 . S
C45 C44 1.368 . S
C45 C46 1.386 . S
C45 H73 0.929 . S
C46 C45 1.386 . S
C46 C47 1.373 . S
C47 C46 1.373 . S
C47 C48 1.409 . S
C47 H74 0.931 . S
C48 C43 1.356 . S
C48 C47 1.409 . S
C48 H75 0.930 . S
C49 O62 1.270 . S
C49 O63 1.248 . S
C50 O64 1.267 . S
C50 O65 1.278 . S
C51 Pr41 2.880 1_565 S
C51 C52 1.491 . S
C51 O66 1.254 . S
C51 O67 1.225 . S
C52 C51 1.491 . S
C52 C53 1.392 . S
C52 C57 1.356 . S
C53 C52 1.392 . S
C53 C54 1.368 . S
C53 H76 0.929 . S
C54 C53 1.368 . S
C54 C55 1.386 . S
C54 H77 0.929 . S
C55 C54 1.386 . S
C55 C56 1.373 . S
C56 C55 1.373 . S
C56 C57 1.409 . S
C56 H78 0.931 . S
C57 C52 1.356 . S
C57 C56 1.409 . S
C57 H79 0.930 . S
C58 O68 1.270 . S
C58 O69 1.248 . S
C59 O70 1.267 1_565 S
C59 O71 1.278 . S
O60 Pr40 2.562 . S
O60 C42 1.254 . S
O61 Pr40 2.490 . S
O61 C42 1.225 . S
O62 Pr40 2.695 . S
O62 Pr41 2.436 . S
O62 C49 1.270 . S
O63 Pr40 2.512 . S
O63 C49 1.248 . S
O64 Pr41 2.438 . S
O64 C50 1.267 . S
O65 Pr40 2.437 . S
O65 C50 1.278 . S
O66 Pr41 2.562 1_565 S
O66 C51 1.254 . S
O67 Pr41 2.490 1_565 S
O67 C51 1.225 . S
O68 Pr40 2.436 . S
O68 Pr41 2.695 . S
O68 C58 1.270 . S
O69 Pr41 2.512 . S
O69 C58 1.248 . S
O70 Pr40 2.438 . S
O70 C59 1.267 1_545 S
O71 Pr41 2.437 1_565 S
O71 C59 1.278 . S
H72 C44 0.929 . S
H73 C45 0.929 . S
H74 C47 0.931 . S
H75 C48 0.930 . S
H76 C53 0.929 . S
H77 C54 0.929 . S
H78 C56 0.931 . S
H79 C57 0.930 . S
Pr80 C82 2.880 . S
Pr80 O100 2.562 . S
Pr80 O101 2.490 . S
Pr80 O102 2.695 . S
Pr80 O103 2.512 . S
Pr80 O105 2.437 . S
Pr80 O108 2.436 . S
Pr80 O110 2.438 . S
Pr81 C91 2.880 . S
Pr81 O102 2.436 . S
Pr81 O104 2.438 . S
Pr81 O106 2.562 . S
Pr81 O107 2.490 . S
Pr81 O108 2.695 . S
Pr81 O109 2.512 . S
Pr81 O111 2.437 . S
C82 Pr80 2.880 . S
C82 C83 1.491 . S
C82 O100 1.254 . S
C82 O101 1.225 . S
C83 C82 1.491 . S
C83 C84 1.392 . S
C83 C88 1.356 . S
C84 C83 1.392 . S
C84 C85 1.368 . S
C84 H112 0.929 . S
C85 C84 1.368 . S
C85 C86 1.386 . S
C85 H113 0.929 . S
C86 C85 1.386 . S
C86 C87 1.373 . S
C87 C86 1.373 . S
C87 C88 1.409 . S
C87 H114 0.931 . S
C88 C83 1.356 . S
C88 C87 1.409 . S
C88 H115 0.930 . S
C89 O102 1.270 . S
C89 O103 1.248 . S
C90 O104 1.267 . S
C90 O105 1.278 . S
C91 Pr81 2.880 . S
C91 C92 1.491 . S
C91 O106 1.254 . S
C91 O107 1.225 . S
C92 C91 1.491 . S
C92 C93 1.392 . S
C92 C97 1.356 . S
C93 C92 1.392 . S
C93 C94 1.368 . S
C93 H116 0.929 . S
C94 C93 1.368 . S
C94 C95 1.386 . S
C94 H117 0.929 . S
C95 C94 1.386 . S
C95 C96 1.373 . S
C96 C95 1.373 . S
C96 C97 1.409 . S
C96 H118 0.931 . S
C97 C92 1.356 . S
C97 C96 1.409 . S
C97 H119 0.930 . S
C98 O108 1.270 . S
C98 O109 1.248 . S
C99 O110 1.267 . S
C99 O111 1.278 . S
O100 Pr80 2.562 . S
O100 C82 1.254 . S
O101 Pr80 2.490 . S
O101 C82 1.225 . S
O102 Pr80 2.695 . S
O102 Pr81 2.436 . S
O102 C89 1.270 . S
O103 Pr80 2.512 . S
O103 C89 1.248 . S
O104 Pr81 2.438 . S
O104 C90 1.267 . S
O105 Pr80 2.437 . S
O105 C90 1.278 . S
O106 Pr81 2.562 . S
O106 C91 1.254 . S
O107 Pr81 2.490 . S
O107 C91 1.225 . S
O108 Pr80 2.436 . S
O108 Pr81 2.695 . S
O108 C98 1.270 . S
O109 Pr81 2.512 . S
O109 C98 1.248 . S
O110 Pr80 2.438 . S
O110 C99 1.267 . S
O111 Pr81 2.437 . S
O111 C99 1.278 . S
H112 C84 0.929 . S
H113 C85 0.929 . S
H114 C87 0.931 . S
H115 C88 0.930 . S
H116 C93 0.929 . S
H117 C94 0.929 . S
H118 C96 0.931 . S
H119 C97 0.930 . S
H120 C125 0.930 . S
H121 C128 0.930 . S
H122 C130 0.930 . S
H123 C124 1.016 . S
C124 H123 1.016 . S
C124 N131 1.286 . S
C125 H120 0.930 . S
C125 C126 1.397 . S
C125 C127 1.361 . S
C126 C125 1.397 . S
C126 C130 1.390 . S
C127 C125 1.361 . S
C127 C128 1.393 . S
C127 N131 1.413 . S
C128 H121 0.930 . S
C128 C127 1.393 . S
C128 C129 1.399 . S
C129 C128 1.399 . S
C129 C130 1.381 . S
C130 H122 0.930 . S
C130 C126 1.390 . S
C130 C129 1.381 . S
N131 C124 1.286 . S
N131 C127 1.413 . S
H132 C137 0.930 . S
H133 C140 0.930 . S
H134 C142 0.930 . S
H135 C136 1.016 . S
C136 H135 1.016 . S
C136 N143 1.286 . S
C137 H132 0.930 . S
C137 C138 1.397 . S
C137 C139 1.361 . S
C138 C137 1.397 . S
C138 C142 1.390 . S
C139 C137 1.361 . S
C139 C140 1.393 . S
C139 N143 1.413 . S
C140 H133 0.930 . S
C140 C139 1.393 . S
C140 C141 1.399 . S
C141 C140 1.399 . S
C141 C142 1.381 . S
C142 H134 0.930 . S
C142 C138 1.390 . S
C142 C141 1.381 . S
N143 C136 1.286 . S
N143 C139 1.413 . S
H144 C149 0.930 1_655 S
H145 C152 0.930 . S
H146 C154 0.930 . S
H147 C148 1.016 . S
C148 H147 1.016 . S
C148 N155 1.286 . S
C149 H144 0.930 1_455 S
C149 C150 1.397 1_455 S
C149 C151 1.361 . S
C150 C149 1.397 1_655 S
C150 C154 1.390 . S
C151 C149 1.361 . S
C151 C152 1.393 . S
C151 N155 1.413 . S
C152 H145 0.930 . S
C152 C151 1.393 . S
C152 C153 1.399 . S
C153 C152 1.399 . S
C153 C154 1.381 1_455 S
C154 H146 0.930 . S
C154 C150 1.390 . S
C154 C153 1.381 1_655 S
N155 C148 1.286 . S
N155 C151 1.413 . S
H156 C161 0.930 . S
H157 C164 0.930 . S
H158 C166 0.930 . S
H159 C160 1.016 . S
C160 H159 1.016 . S
C160 N167 1.286 . S
C161 H156 0.930 . S
C161 C162 1.397 . S
C161 C163 1.361 1_455 S
C162 C161 1.397 . S
C162 C166 1.390 . S
C163 C161 1.361 1_655 S
C163 C164 1.393 . S
C163 N167 1.413 . S
C164 H157 0.930 . S
C164 C163 1.393 . S
C164 C165 1.399 1_655 S
C165 C164 1.399 1_455 S
C165 C166 1.381 . S
C166 H158 0.930 . S
C166 C162 1.390 . S
C166 C165 1.381 . S
N167 C160 1.286 . S
N167 C163 1.413 . S
H168 C173 0.930 . S
H169 C176 0.930 1_565 S
H170 C178 0.930 . S
H171 C172 1.016 . S
C172 H171 1.016 . S
C172 N179 1.286 . S
C173 H168 0.930 . S
C173 C174 1.397 . S
C173 C175 1.361 . S
C174 C173 1.397 . S
C174 C178 1.390 . S
C175 C173 1.361 . S
C175 C176 1.393 . S
C175 N179 1.413 1_545 S
C176 H169 0.930 1_545 S
C176 C175 1.393 . S
C176 C177 1.399 . S
C177 C176 1.399 . S
C177 C178 1.381 . S
C178 H170 0.930 . S
C178 C174 1.390 . S
C178 C177 1.381 . S
N179 C172 1.286 . S
N179 C175 1.413 1_565 S
H180 C185 0.930 . S
H181 C188 0.930 . S
H182 C190 0.930 . S
H183 C184 1.016 . S
C184 H183 1.016 . S
C184 N191 1.286 . S
C185 H180 0.930 . S
C185 C186 1.397 . S
C185 C187 1.361 . S
C186 C185 1.397 . S
C186 C190 1.390 . S
C187 C185 1.361 . S
C187 C188 1.393 . S
C187 N191 1.413 . S
C188 H181 0.930 . S
C188 C187 1.393 . S
C188 C189 1.399 . S
C189 C188 1.399 . S
C189 C190 1.381 . S
C190 H182 0.930 . S
C190 C186 1.390 . S
C190 C189 1.381 . S
N191 C184 1.286 . S
N191 C187 1.413 . S
C192 C193 1.349 . S
C192 C194 1.327 . S
C192 H217 0.950 . S
C193 C192 1.349 . S
C193 C209 1.349 . S
C194 C192 1.327 . S
C194 C213 1.429 . S
C194 H218 0.950 . S
C195 C212 1.574 . S
C195 C214 1.368 . S
C195 H219 0.949 . S
H196 C200 0.949 . S
C197 C198 1.349 . S
C197 C199 1.327 . S
C197 H220 0.950 . S
C198 C197 1.349 . S
C198 C210 1.349 . S
C199 C197 1.327 . S
C199 C215 1.429 . S
C199 H221 0.950 . S
C200 H196 0.949 . S
C200 C208 1.574 . S
C200 C216 1.368 . S
H201 C209 0.950 . S
H202 C207 0.950 . S
H203 C208 0.949 . S
H204 C210 0.950 . S
H205 C211 0.950 . S
H206 C212 0.949 . S
C207 H202 0.950 . S
C207 C209 1.327 . S
C207 C213 1.429 . S
C208 C200 1.574 . S
C208 H203 0.949 . S
C208 C214 1.368 . S
C209 C193 1.349 . S
C209 H201 0.950 . S
C209 C207 1.327 . S
C210 C198 1.349 . S
C210 H204 0.950 . S
C210 C211 1.327 . S
C211 H205 0.950 . S
C211 C210 1.327 . S
C211 C215 1.429 . S
C212 C195 1.574 . S
C212 H206 0.949 . S
C212 C216 1.368 . S
C213 C194 1.429 . S
C213 C207 1.429 . S
C213 C214 1.523 . S
C214 C195 1.368 . S
C214 C208 1.368 . S
C214 C213 1.523 . S
C215 C199 1.429 . S
C215 C211 1.429 . S
C215 C216 1.523 . S
C216 C200 1.368 . S
C216 C212 1.368 . S
C216 C215 1.523 . S
H217 C192 0.950 . S
H218 C194 0.950 . S
H219 C195 0.949 . S
H220 C197 0.950 . S
H221 C199 0.950 . S
C222 C223 1.349 . S
C222 C224 1.327 . S
C222 H247 0.950 . S
C223 C222 1.349 . S
C223 C239 1.349 . S
C224 C222 1.327 . S
C224 C243 1.429 . S
C224 H248 0.950 . S
C225 C242 1.574 . S
C225 C244 1.368 . S
C225 H249 0.949 . S
H226 C230 0.949 . S
C227 C228 1.349 . S
C227 C229 1.327 . S
C227 H250 0.950 . S
C228 C227 1.349 . S
C228 C240 1.349 . S
C229 C227 1.327 . S
C229 C245 1.429 . S
C229 H251 0.950 . S
C230 H226 0.949 . S
C230 C238 1.574 . S
C230 C246 1.368 . S
H231 C239 0.950 . S
H232 C237 0.950 . S
H233 C238 0.949 . S
H234 C240 0.950 . S
H235 C241 0.950 . S
H236 C242 0.949 . S
C237 H232 0.950 . S
C237 C239 1.327 . S
C237 C243 1.429 . S
C238 C230 1.574 . S
C238 H233 0.949 . S
C238 C244 1.368 . S
C239 C223 1.349 . S
C239 H231 0.950 . S
C239 C237 1.327 . S
C240 C228 1.349 . S
C240 H234 0.950 . S
C240 C241 1.327 . S
C241 H235 0.950 . S
C241 C240 1.327 . S
C241 C245 1.429 . S
C242 C225 1.574 . S
C242 H236 0.949 . S
C242 C246 1.368 . S
C243 C224 1.429 . S
C243 C237 1.429 . S
C243 C244 1.523 . S
C244 C225 1.368 . S
C244 C238 1.368 . S
C244 C243 1.523 . S
C245 C229 1.429 . S
C245 C241 1.429 . S
C245 C246 1.523 . S
C246 C230 1.368 . S
C246 C242 1.368 . S
C246 C245 1.523 . S
H247 C222 0.950 . S
H248 C224 0.950 . S
H249 C225 0.949 . S
H250 C227 0.950 . S
H251 C229 0.950 . S
C252 C253 1.349 . S
C252 C254 1.327 . S
C252 H277 0.950 . S
C253 C252 1.349 . S
C253 C269 1.349 . S
C254 C252 1.327 . S
C254 C273 1.429 . S
C254 H278 0.950 . S
C255 C272 1.574 . S
C255 C274 1.368 . S
C255 H279 0.949 . S
H256 C260 0.949 . S
C257 C258 1.349 . S
C257 C259 1.327 . S
C257 H280 0.950 . S
C258 C257 1.349 . S
C258 C270 1.349 . S
C259 C257 1.327 . S
C259 C275 1.429 . S
C259 H281 0.950 . S
C260 H256 0.949 . S
C260 C268 1.574 . S
C260 C276 1.368 . S
H261 C269 0.950 . S
H262 C267 0.950 . S
H263 C268 0.949 . S
H264 C270 0.950 . S
H265 C271 0.950 . S
H266 C272 0.949 . S
C267 H262 0.950 . S
C267 C269 1.327 . S
C267 C273 1.429 . S
C268 C260 1.574 . S
C268 H263 0.949 . S
C268 C274 1.368 . S
C269 C253 1.349 . S
C269 H261 0.950 . S
C269 C267 1.327 . S
C270 C258 1.349 . S
C270 H264 0.950 . S
C270 C271 1.327 . S
C271 H265 0.950 . S
C271 C270 1.327 . S
C271 C275 1.429 . S
C272 C255 1.574 . S
C272 H266 0.949 . S
C272 C276 1.368 . S
C273 C254 1.429 . S
C273 C267 1.429 . S
C273 C274 1.523 . S
C274 C255 1.368 . S
C274 C268 1.368 . S
C274 C273 1.523 . S
C275 C259 1.429 . S
C275 C271 1.429 . S
C275 C276 1.523 . S
C276 C260 1.368 . S
C276 C272 1.368 . S
C276 C275 1.523 . S
H277 C252 0.950 . S
H278 C254 0.950 . S
H279 C255 0.949 . S
H280 C257 0.950 . S
H281 C259 0.950 . S
C282 C283 1.349 . S
C282 C284 1.327 . S
C282 H307 0.950 . S
C283 C282 1.349 . S
C283 C299 1.349 . S
C284 C282 1.327 . S
C284 C303 1.429 . S
C284 H308 0.950 . S
C285 C302 1.574 . S
C285 C304 1.368 . S
C285 H309 0.949 . S
H286 C290 0.949 . S
C287 C288 1.349 . S
C287 C289 1.327 . S
C287 H310 0.950 . S
C288 C287 1.349 . S
C288 C300 1.349 . S
C289 C287 1.327 . S
C289 C305 1.429 . S
C289 H311 0.950 . S
C290 H286 0.949 . S
C290 C298 1.574 . S
C290 C306 1.368 . S
H291 C299 0.950 . S
H292 C297 0.950 . S
H293 C298 0.949 . S
H294 C300 0.950 . S
H295 C301 0.950 . S
H296 C302 0.949 . S
C297 H292 0.950 . S
C297 C299 1.327 . S
C297 C303 1.429 . S
C298 C290 1.574 . S
C298 H293 0.949 . S
C298 C304 1.368 . S
C299 C283 1.349 . S
C299 H291 0.950 . S
C299 C297 1.327 . S
C300 C288 1.349 . S
C300 H294 0.950 . S
C300 C301 1.327 . S
C301 H295 0.950 . S
C301 C300 1.327 . S
C301 C305 1.429 . S
C302 C285 1.574 . S
C302 H296 0.949 . S
C302 C306 1.368 . S
C303 C284 1.429 . S
C303 C297 1.429 . S
C303 C304 1.523 . S
C304 C285 1.368 . S
C304 C298 1.368 . S
C304 C303 1.523 . S
C305 C289 1.429 . S
C305 C301 1.429 . S
C305 C306 1.523 . S
C306 C290 1.368 . S
C306 C302 1.368 . S
C306 C305 1.523 . S
H307 C282 0.950 . S
H308 C284 0.950 . S
H309 C285 0.949 . S
H310 C287 0.950 . S
H311 C289 0.950 . S
C312 C313 1.349 . S
C312 C314 1.327 . S
C312 H337 0.950 . S
C313 C312 1.349 . S
C313 C329 1.349 . S
C314 C312 1.327 . S
C314 C333 1.429 . S
C314 H338 0.950 . S
C315 C332 1.574 . S
C315 C334 1.368 . S
C315 H339 0.949 . S
H316 C320 0.949 . S
C317 C318 1.349 . S
C317 C319 1.327 . S
C317 H340 0.950 . S
C318 C317 1.349 . S
C318 C330 1.349 . S
C319 C317 1.327 . S
C319 C335 1.429 . S
C319 H341 0.950 . S
C320 H316 0.949 . S
C320 C328 1.574 . S
C320 C336 1.368 . S
H321 C329 0.950 . S
H322 C327 0.950 . S
H323 C328 0.949 . S
H324 C330 0.950 . S
H325 C331 0.950 . S
H326 C332 0.949 . S
C327 H322 0.950 . S
C327 C329 1.327 . S
C327 C333 1.429 . S
C328 C320 1.574 . S
C328 H323 0.949 . S
C328 C334 1.368 . S
C329 C313 1.349 . S
C329 H321 0.950 . S
C329 C327 1.327 . S
C330 C318 1.349 . S
C330 H324 0.950 . S
C330 C331 1.327 . S
C331 H325 0.950 . S
C331 C330 1.327 . S
C331 C335 1.429 . S
C332 C315 1.574 . S
C332 H326 0.949 . S
C332 C336 1.368 . S
C333 C314 1.429 . S
C333 C327 1.429 . S
C333 C334 1.523 . S
C334 C315 1.368 . S
C334 C328 1.368 . S
C334 C333 1.523 . S
C335 C319 1.429 . S
C335 C331 1.429 . S
C335 C336 1.523 . S
C336 C320 1.368 . S
C336 C332 1.368 . S
C336 C335 1.523 . S
H337 C312 0.950 . S
H338 C314 0.950 . S
H339 C315 0.949 . S
H340 C317 0.950 . S
H341 C319 0.950 . S
C342 C343 1.349 . S
C342 C344 1.327 . S
C342 H367 0.950 . S
C343 C342 1.349 . S
C343 C359 1.349 . S
C344 C342 1.327 . S
C344 C363 1.429 . S
C344 H368 0.950 . S
C345 C362 1.574 . S
C345 C364 1.368 . S
C345 H369 0.949 . S
H346 C350 0.949 . S
C347 C348 1.349 . S
C347 C349 1.327 . S
C347 H370 0.950 . S
C348 C347 1.349 . S
C348 C360 1.349 . S
C349 C347 1.327 . S
C349 C365 1.429 . S
C349 H371 0.950 . S
C350 H346 0.949 . S
C350 C358 1.574 . S
C350 C366 1.368 . S
H351 C359 0.950 . S
H352 C357 0.950 . S
H353 C358 0.949 . S
H354 C360 0.950 . S
H355 C361 0.950 . S
H356 C362 0.949 . S
C357 H352 0.950 . S
C357 C359 1.327 . S
C357 C363 1.429 . S
C358 C350 1.574 . S
C358 H353 0.949 . S
C358 C364 1.368 . S
C359 C343 1.349 . S
C359 H351 0.950 . S
C359 C357 1.327 . S
C360 C348 1.349 . S
C360 H354 0.950 . S
C360 C361 1.327 . S
C361 H355 0.950 . S
C361 C360 1.327 . S
C361 C365 1.429 . S
C362 C345 1.574 . S
C362 H356 0.949 . S
C362 C366 1.368 . S
C363 C344 1.429 . S
C363 C357 1.429 . S
C363 C364 1.523 . S
C364 C345 1.368 . S
C364 C358 1.368 . S
C364 C363 1.523 . S
C365 C349 1.429 . S
C365 C361 1.429 . S
C365 C366 1.523 . S
C366 C350 1.368 . S
C366 C362 1.368 . S
C366 C365 1.523 . S
H367 C342 0.950 . S
H368 C344 0.950 . S
H369 C345 0.949 . S
H370 C347 0.950 . S
H371 C349 0.950 . S
C372 C373 1.349 . S
C372 C374 1.327 . S
C372 H397 0.950 . S
C373 C372 1.349 . S
C373 C389 1.349 . S
C374 C372 1.327 . S
C374 C393 1.429 . S
C374 H398 0.950 . S
C375 C392 1.574 . S
C375 C394 1.368 . S
C375 H399 0.949 . S
H376 C380 0.949 . S
C377 C378 1.349 . S
C377 C379 1.327 . S
C377 H400 0.950 . S
C378 C377 1.349 . S
C378 C390 1.349 . S
C379 C377 1.327 . S
C379 C395 1.429 . S
C379 H401 0.950 . S
C380 H376 0.949 . S
C380 C388 1.574 . S
C380 C396 1.368 . S
H381 C389 0.950 . S
H382 C387 0.950 . S
H383 C388 0.949 . S
H384 C390 0.950 . S
H385 C391 0.950 . S
H386 C392 0.949 . S
C387 H382 0.950 . S
C387 C389 1.327 . S
C387 C393 1.429 . S
C388 C380 1.574 . S
C388 H383 0.949 . S
C388 C394 1.368 . S
C389 C373 1.349 . S
C389 H381 0.950 . S
C389 C387 1.327 . S
C390 C378 1.349 . S
C390 H384 0.950 . S
C390 C391 1.327 . S
C391 H385 0.950 . S
C391 C390 1.327 . S
C391 C395 1.429 . S
C392 C375 1.574 . S
C392 H386 0.949 . S
C392 C396 1.368 . S
C393 C374 1.429 . S
C393 C387 1.429 . S
C393 C394 1.523 . S
C394 C375 1.368 . S
C394 C388 1.368 . S
C394 C393 1.523 . S
C395 C379 1.429 . S
C395 C391 1.429 . S
C395 C396 1.523 . S
C396 C380 1.368 . S
C396 C392 1.368 . S
C396 C395 1.523 . S
H397 C372 0.950 . S
H398 C374 0.950 . S
H399 C375 0.949 . S
H400 C377 0.950 . S
H401 C379 0.950 . S
C402 C403 1.349 . S
C402 C404 1.327 . S
C402 H427 0.950 . S
C403 C402 1.349 . S
C403 C419 1.349 . S
C404 C402 1.327 . S
C404 C423 1.429 . S
C404 H428 0.950 . S
C405 C422 1.574 . S
C405 C424 1.368 . S
C405 H429 0.949 . S
H406 C410 0.949 . S
C407 C408 1.349 . S
C407 C409 1.327 . S
C407 H430 0.950 . S
C408 C407 1.349 . S
C408 C420 1.349 . S
C409 C407 1.327 . S
C409 C425 1.429 . S
C409 H431 0.950 . S
C410 H406 0.949 . S
C410 C418 1.574 . S
C410 C426 1.368 . S
H411 C419 0.950 . S
H412 C417 0.950 . S
H413 C418 0.949 . S
H414 C420 0.950 . S
H415 C421 0.950 . S
H416 C422 0.949 . S
C417 H412 0.950 . S
C417 C419 1.327 . S
C417 C423 1.429 . S
C418 C410 1.574 . S
C418 H413 0.949 . S
C418 C424 1.368 . S
C419 C403 1.349 . S
C419 H411 0.950 . S
C419 C417 1.327 . S
C420 C408 1.349 . S
C420 H414 0.950 . S
C420 C421 1.327 . S
C421 H415 0.950 . S
C421 C420 1.327 . S
C421 C425 1.429 . S
C422 C405 1.574 . S
C422 H416 0.949 . S
C422 C426 1.368 . S
C423 C404 1.429 . S
C423 C417 1.429 . S
C423 C424 1.523 . S
C424 C405 1.368 . S
C424 C418 1.368 . S
C424 C423 1.523 . S
C425 C409 1.429 . S
C425 C421 1.429 . S
C425 C426 1.523 . S
C426 C410 1.368 . S
C426 C422 1.368 . S
C426 C425 1.523 . S
H427 C402 0.950 . S
H428 C404 0.950 . S
H429 C405 0.949 . S
H430 C407 0.950 . S
H431 C409 0.950 . S
C432 C433 1.349 . S
C432 C434 1.327 . S
C432 H457 0.950 . S
C433 C432 1.349 . S
C433 C449 1.349 . S
C434 C432 1.327 . S
C434 C453 1.429 . S
C434 H458 0.950 . S
C435 C452 1.574 . S
C435 C454 1.368 . S
C435 H459 0.949 . S
H436 C440 0.949 . S
C437 C438 1.349 1_565 S
C437 C439 1.327 . S
C437 H460 0.950 . S
C438 C437 1.349 1_545 S
C438 C450 1.349 . S
C439 C437 1.327 . S
C439 C455 1.429 . S
C439 H461 0.950 . S
C440 H436 0.949 . S
C440 C448 1.574 . S
C440 C456 1.368 . S
H441 C449 0.950 . S
H442 C447 0.950 . S
H443 C448 0.949 . S
H444 C450 0.950 . S
H445 C451 0.950 . S
H446 C452 0.949 . S
C447 H442 0.950 . S
C447 C449 1.327 . S
C447 C453 1.429 . S
C448 C440 1.574 . S
C448 H443 0.949 . S
C448 C454 1.368 . S
C449 C433 1.349 . S
C449 H441 0.950 . S
C449 C447 1.327 . S
C450 C438 1.349 . S
C450 H444 0.950 . S
C450 C451 1.327 1_545 S
C451 H445 0.950 . S
C451 C450 1.327 1_565 S
C451 C455 1.429 . S
C452 C435 1.574 . S
C452 H446 0.949 . S
C452 C456 1.368 . S
C453 C434 1.429 . S
C453 C447 1.429 . S
C453 C454 1.523 . S
C454 C435 1.368 . S
C454 C448 1.368 . S
C454 C453 1.523 . S
C455 C439 1.429 . S
C455 C451 1.429 . S
C455 C456 1.523 . S
C456 C440 1.368 . S
C456 C452 1.368 . S
C456 C455 1.523 . S
H457 C432 0.950 . S
H458 C434 0.950 . S
H459 C435 0.949 . S
H460 C437 0.950 . S
H461 C439 0.950 . S
C462 C463 1.349 . S
C462 C464 1.327 . S
C462 H487 0.950 . S
C463 C462 1.349 . S
C463 C479 1.349 . S
C464 C462 1.327 . S
C464 C483 1.429 . S
C464 H488 0.950 . S
C465 C482 1.574 . S
C465 C484 1.368 . S
C465 H489 0.949 . S
H466 C470 0.949 . S
C467 C468 1.349 . S
C467 C469 1.327 . S
C467 H490 0.950 . S
C468 C467 1.349 . S
C468 C480 1.349 . S
C469 C467 1.327 . S
C469 C485 1.429 . S
C469 H491 0.950 . S
C470 H466 0.949 . S
C470 C478 1.574 . S
C470 C486 1.368 . S
H471 C479 0.950 . S
H472 C477 0.950 . S
H473 C478 0.949 . S
H474 C480 0.950 . S
H475 C481 0.950 . S
H476 C482 0.949 . S
C477 H472 0.950 . S
C477 C479 1.327 . S
C477 C483 1.429 . S
C478 C470 1.574 . S
C478 H473 0.949 . S
C478 C484 1.368 . S
C479 C463 1.349 . S
C479 H471 0.950 . S
C479 C477 1.327 . S
C480 C468 1.349 . S
C480 H474 0.950 . S
C480 C481 1.327 . S
C481 H475 0.950 . S
C481 C480 1.327 . S
C481 C485 1.429 . S
C482 C465 1.574 . S
C482 H476 0.949 . S
C482 C486 1.368 . S
C483 C464 1.429 . S
C483 C477 1.429 . S
C483 C484 1.523 . S
C484 C465 1.368 . S
C484 C478 1.368 . S
C484 C483 1.523 . S
C485 C469 1.429 . S
C485 C481 1.429 . S
C485 C486 1.523 . S
C486 C470 1.368 . S
C486 C482 1.368 . S
C486 C485 1.523 . S
H487 C462 0.950 . S
H488 C464 0.950 . S
H489 C465 0.949 . S
H490 C467 0.950 . S
H491 C469 0.950 . S
C492 C493 1.349 . S
C492 C494 1.327 . S
C492 H517 0.950 . S
C493 C492 1.349 . S
C493 C509 1.349 . S
C494 C492 1.327 . S
C494 C513 1.429 . S
C494 H518 0.950 . S
C495 C512 1.574 . S
C495 C514 1.368 . S
C495 H519 0.949 . S
H496 C500 0.949 . S
C497 C498 1.349 . S
C497 C499 1.327 . S
C497 H520 0.950 . S
C498 C497 1.349 . S
C498 C510 1.349 . S
C499 C497 1.327 . S
C499 C515 1.429 . S
C499 H521 0.950 . S
C500 H496 0.949 . S
C500 C508 1.574 . S
C500 C516 1.368 . S
H501 C509 0.950 . S
H502 C507 0.950 . S
H503 C508 0.949 . S
H504 C510 0.950 . S
H505 C511 0.950 . S
H506 C512 0.949 . S
C507 H502 0.950 . S
C507 C509 1.327 . S
C507 C513 1.429 . S
C508 C500 1.574 . S
C508 H503 0.949 . S
C508 C514 1.368 . S
C509 C493 1.349 . S
C509 H501 0.950 . S
C509 C507 1.327 . S
C510 C498 1.349 . S
C510 H504 0.950 . S
C510 C511 1.327 . S
C511 H505 0.950 . S
C511 C510 1.327 . S
C511 C515 1.429 . S
C512 C495 1.574 . S
C512 H506 0.949 . S
C512 C516 1.368 . S
C513 C494 1.429 . S
C513 C507 1.429 . S
C513 C514 1.523 . S
C514 C495 1.368 . S
C514 C508 1.368 . S
C514 C513 1.523 . S
C515 C499 1.429 . S
C515 C511 1.429 . S
C515 C516 1.523 . S
C516 C500 1.368 . S
C516 C512 1.368 . S
C516 C515 1.523 . S
H517 C492 0.950 . S
H518 C494 0.950 . S
H519 C495 0.949 . S
H520 C497 0.950 . S
H521 C499 0.950 . S
C522 C523 1.349 . S
C522 C524 1.327 . S
C522 H547 0.950 . S
C523 C522 1.349 . S
C523 C539 1.349 . S
C524 C522 1.327 . S
C524 C543 1.429 . S
C524 H548 0.950 . S
C525 C542 1.574 . S
C525 C544 1.368 . S
C525 H549 0.949 . S
H526 C530 0.949 . S
C527 C528 1.349 . S
C527 C529 1.327 . S
C527 H550 0.950 . S
C528 C527 1.349 . S
C528 C540 1.349 . S
C529 C527 1.327 . S
C529 C545 1.429 . S
C529 H551 0.950 . S
C530 H526 0.949 . S
C530 C538 1.574 . S
C530 C546 1.368 . S
H531 C539 0.950 . S
H532 C537 0.950 . S
H533 C538 0.949 . S
H534 C540 0.950 . S
H535 C541 0.950 . S
H536 C542 0.949 . S
C537 H532 0.950 . S
C537 C539 1.327 . S
C537 C543 1.429 . S
C538 C530 1.574 . S
C538 H533 0.949 . S
C538 C544 1.368 . S
C539 C523 1.349 . S
C539 H531 0.950 . S
C539 C537 1.327 . S
C540 C528 1.349 . S
C540 H534 0.950 . S
C540 C541 1.327 . S
C541 H535 0.950 . S
C541 C540 1.327 . S
C541 C545 1.429 . S
C542 C525 1.574 . S
C542 H536 0.949 . S
C542 C546 1.368 . S
C543 C524 1.429 . S
C543 C537 1.429 . S
C543 C544 1.523 . S
C544 C525 1.368 . S
C544 C538 1.368 . S
C544 C543 1.523 . S
C545 C529 1.429 . S
C545 C541 1.429 . S
C545 C546 1.523 . S
C546 C530 1.368 . S
C546 C542 1.368 . S
C546 C545 1.523 . S
H547 C522 0.950 . S
H548 C524 0.950 . S
H549 C525 0.949 . S
H550 C527 0.950 . S
H551 C529 0.950 . S
C552 C553 1.349 . S
C552 C554 1.327 . S
C552 H577 0.950 . S
C553 C552 1.349 . S
C553 C569 1.349 . S
C554 C552 1.327 . S
C554 C573 1.429 . S
C554 H578 0.950 . S
C555 C572 1.571 . S
C555 C574 1.368 . S
C555 H579 0.949 . S
H556 C560 0.961 . S
C557 C558 1.349 . S
C557 C559 1.327 . S
C557 H580 0.950 . S
C558 C557 1.349 . S
C558 C570 1.349 . S
C559 C557 1.327 . S
C559 C575 1.429 . S
C559 H581 0.950 . S
C560 H556 0.961 . S
C560 C568 1.555 1_556 S
C560 C576 1.374 . S
H561 C569 0.950 . S
H562 C567 0.950 . S
H563 C568 0.949 . S
H564 C570 0.950 . S
H565 C571 0.950 . S
H566 C572 0.951 1_556 S
C567 H562 0.950 . S
C567 C569 1.327 . S
C567 C573 1.429 . S
C568 C560 1.555 1_554 S
C568 H563 0.949 . S
C568 C574 1.368 . S
C569 C553 1.349 . S
C569 H561 0.950 . S
C569 C567 1.327 . S
C570 C558 1.349 . S
C570 H564 0.950 . S
C570 C571 1.327 . S
C571 H565 0.950 . S
C571 C570 1.327 . S
C571 C575 1.429 . S
C572 C555 1.571 . S
C572 H566 0.951 1_554 S
C572 C576 1.370 1_554 S
C573 C554 1.429 . S
C573 C567 1.429 . S
C573 C574 1.523 . S
C574 C555 1.368 . S
C574 C568 1.368 . S
C574 C573 1.523 . S
C575 C559 1.429 . S
C575 C571 1.429 . S
C575 C576 1.523 . S
C576 C560 1.374 . S
C576 C572 1.370 1_556 S
C576 C575 1.523 . S
H577 C552 0.950 . S
H578 C554 0.950 . S
H579 C555 0.949 . S
H580 C557 0.950 . S
H581 C559 0.950 . S
C582 C583 1.349 . S
C582 C584 1.327 . S
C582 H607 0.950 . S
C583 C582 1.349 . S
C583 C599 1.349 . S
C584 C582 1.327 . S
C584 C603 1.429 . S
C584 H608 0.950 . S
C585 C602 1.574 . S
C585 C604 1.368 . S
C585 H609 0.949 . S
H586 C590 0.949 . S
C587 C588 1.349 . S
C587 C589 1.327 . S
C587 H610 0.950 . S
C588 C587 1.349 . S
C588 C600 1.349 . S
C589 C587 1.327 . S
C589 C605 1.429 . S
C589 H611 0.950 . S
C590 H586 0.949 . S
C590 C598 1.574 . S
C590 C606 1.368 . S
H591 C599 0.950 . S
H592 C597 0.950 . S
H593 C598 0.949 . S
H594 C600 0.950 . S
H595 C601 0.950 . S
H596 C602 0.949 . S
C597 H592 0.950 . S
C597 C599 1.327 . S
C597 C603 1.429 . S
C598 C590 1.574 . S
C598 H593 0.949 . S
C598 C604 1.368 . S
C599 C583 1.349 . S
C599 H591 0.950 . S
C599 C597 1.327 . S
C600 C588 1.349 . S
C600 H594 0.950 . S
C600 C601 1.327 . S
C601 H595 0.950 . S
C601 C600 1.327 . S
C601 C605 1.429 . S
C602 C585 1.574 . S
C602 H596 0.949 . S
C602 C606 1.368 . S
C603 C584 1.429 . S
C603 C597 1.429 . S
C603 C604 1.523 . S
C604 C585 1.368 . S
C604 C598 1.368 . S
C604 C603 1.523 . S
C605 C589 1.429 . S
C605 C601 1.429 . S
C605 C606 1.523 . S
C606 C590 1.368 . S
C606 C602 1.368 . S
C606 C605 1.523 . S
H607 C582 0.950 . S
H608 C584 0.950 . S
H609 C585 0.949 . S
H610 C587 0.950 . S
H611 C589 0.950 . S
C612 C613 1.349 . S
C612 C614 1.327 . S
C612 H637 0.950 . S
C613 C612 1.349 . S
C613 C629 1.349 . S
C614 C612 1.327 . S
C614 C633 1.429 . S
C614 H638 0.950 . S
C615 C632 1.574 . S
C615 C634 1.368 . S
C615 H639 0.949 . S
H616 C620 0.949 . S
C617 C618 1.349 . S
C617 C619 1.327 . S
C617 H640 0.950 . S
C618 C617 1.349 . S
C618 C630 1.349 . S
C619 C617 1.327 . S
C619 C635 1.429 . S
C619 H641 0.950 . S
C620 H616 0.949 . S
C620 C628 1.574 . S
C620 C636 1.368 . S
H621 C629 0.950 . S
H622 C627 0.950 . S
H623 C628 0.949 . S
H624 C630 0.950 . S
H625 C631 0.950 . S
H626 C632 0.949 . S
C627 H622 0.950 . S
C627 C629 1.327 . S
C627 C633 1.429 . S
C628 C620 1.574 . S
C628 H623 0.949 . S
C628 C634 1.368 . S
C629 C613 1.349 . S
C629 H621 0.950 . S
C629 C627 1.327 . S
C630 C618 1.349 . S
C630 H624 0.950 . S
C630 C631 1.327 . S
C631 H625 0.950 . S
C631 C630 1.327 . S
C631 C635 1.429 . S
C632 C615 1.574 . S
C632 H626 0.949 . S
C632 C636 1.368 . S
C633 C614 1.429 . S
C633 C627 1.429 . S
C633 C634 1.523 . S
C634 C615 1.368 . S
C634 C628 1.368 . S
C634 C633 1.523 . S
C635 C619 1.429 . S
C635 C631 1.429 . S
C635 C636 1.523 . S
C636 C620 1.368 . S
C636 C632 1.368 . S
C636 C635 1.523 . S
H637 C612 0.950 . S
H638 C614 0.950 . S
H639 C615 0.949 . S
H640 C617 0.950 . S
H641 C619 0.950 . S
C642 C643 1.349 . S
C642 C644 1.327 . S
C642 H667 0.950 . S
C643 C642 1.349 . S
C643 C659 1.349 . S
C644 C642 1.327 . S
C644 C663 1.429 . S
C644 H668 0.950 . S
C645 C662 1.574 . S
C645 C664 1.368 . S
C645 H669 0.949 1_545 S
H646 C650 0.949 . S
C647 C648 1.349 1_565 S
C647 C649 1.327 . S
C647 H670 0.950 . S
C648 C647 1.349 1_545 S
C648 C660 1.349 . S
C649 C647 1.327 . S
C649 C665 1.429 1_565 S
C649 H671 0.950 . S
C650 H646 0.949 . S
C650 C658 1.574 . S
C650 C666 1.368 . S
H651 C659 0.950 1_565 S
H652 C657 0.950 1_565 S
H653 C658 0.949 . S
H654 C660 0.950 . S
H655 C661 0.950 . S
H656 C662 0.944 1_565 S
C657 H652 0.950 1_545 S
C657 C659 1.327 . S
C657 C663 1.429 . S
C658 C650 1.574 . S
C658 H653 0.949 . S
C658 C664 1.368 . S
C659 C643 1.349 . S
C659 H651 0.950 1_545 S
C659 C657 1.327 . S
C660 C648 1.349 . S
C660 H654 0.950 . S
C660 C661 1.327 . S
C661 H655 0.950 . S
C661 C660 1.327 . S
C661 C665 1.429 . S
C662 C645 1.574 . S
C662 H656 0.944 1_545 S
C662 C666 1.373 . S
C663 C644 1.429 . S
C663 C657 1.429 . S
C663 C664 1.523 . S
C664 C645 1.368 . S
C664 C658 1.368 . S
C664 C663 1.523 . S
C665 C649 1.429 1_545 S
C665 C661 1.429 . S
C665 C666 1.523 . S
C666 C650 1.368 . S
C666 C662 1.373 . S
C666 C665 1.523 . S
H667 C642 0.950 . S
H668 C644 0.950 . S
H669 C645 0.949 1_565 S
H670 C647 0.950 . S
H671 C649 0.950 . S
C672 C673 1.349 . S
C672 C674 1.327 . S
C672 H697 0.950 . S
C673 C672 1.349 . S
C673 C689 1.349 . S
C674 C672 1.327 . S
C674 C693 1.429 . S
C674 H698 0.950 . S
C675 C692 1.574 1_556 S
C675 C694 1.368 . S
C675 H699 0.949 . S
H676 C680 0.949 . S
C677 C678 1.349 . S
C677 C679 1.327 . S
C677 H700 0.950 . S
C678 C677 1.349 . S
C678 C690 1.349 . S
C679 C677 1.327 . S
C679 C695 1.429 . S
C679 H701 0.950 . S
C680 H676 0.949 . S
C680 C688 1.574 1_554 S
C680 C696 1.368 . S
H681 C689 0.950 . S
H682 C687 0.950 . S
H683 C688 0.949 . S
H684 C690 0.950 . S
H685 C691 0.950 . S
H686 C692 0.949 . S
C687 H682 0.950 . S
C687 C689 1.327 . S
C687 C693 1.429 . S
C688 C680 1.574 1_556 S
C688 H683 0.949 . S
C688 C694 1.368 . S
C689 C673 1.349 . S
C689 H681 0.950 . S
C689 C687 1.327 . S
C690 C678 1.349 . S
C690 H684 0.950 . S
C690 C691 1.327 . S
C691 H685 0.950 . S
C691 C690 1.327 . S
C691 C695 1.429 . S
C692 C675 1.574 1_554 S
C692 H686 0.949 . S
C692 C696 1.368 . S
C693 C674 1.429 . S
C693 C687 1.429 . S
C693 C694 1.523 . S
C694 C675 1.368 . S
C694 C688 1.368 . S
C694 C693 1.523 . S
C695 C679 1.429 . S
C695 C691 1.429 . S
C695 C696 1.523 . S
C696 C680 1.368 . S
C696 C692 1.368 . S
C696 C695 1.523 . S
H697 C672 0.950 . S
H698 C674 0.950 . S
H699 C675 0.949 . S
H700 C677 0.950 . S
H701 C679 0.950 . S
C702 C703 1.349 . S
C702 C704 1.327 . S
C702 H727 0.950 . S
C703 C702 1.349 . S
C703 C719 1.349 . S
C704 C702 1.327 . S
C704 C723 1.429 . S
C704 H728 0.950 . S
C705 C722 1.574 . S
C705 C724 1.368 . S
C705 H729 0.949 . S
H706 C710 0.949 . S
C707 C708 1.349 . S
C707 C709 1.327 . S
C707 H730 0.950 1_455 S
C708 C707 1.349 . S
C708 C720 1.349 . S
C709 C707 1.327 . S
C709 C725 1.429 . S
C709 H731 0.950 . S
C710 H706 0.949 . S
C710 C718 1.574 . S
C710 C726 1.368 . S
H711 C719 0.950 . S
H712 C717 0.950 . S
H713 C718 0.949 . S
H714 C720 0.950 . S
H715 C721 0.950 . S
H716 C722 0.949 . S
C717 H712 0.950 . S
C717 C719 1.327 . S
C717 C723 1.429 . S
C718 C710 1.574 . S
C718 H713 0.949 . S
C718 C724 1.368 . S
C719 C703 1.349 . S
C719 H711 0.950 . S
C719 C717 1.327 . S
C720 C708 1.349 . S
C720 H714 0.950 . S
C720 C721 1.327 . S
C721 H715 0.950 . S
C721 C720 1.327 . S
C721 C725 1.429 . S
C722 C705 1.574 . S
C722 H716 0.949 . S
C722 C726 1.368 . S
C723 C704 1.429 . S
C723 C717 1.429 . S
C723 C724 1.523 . S
C724 C705 1.368 . S
C724 C718 1.368 . S
C724 C723 1.523 . S
C725 C709 1.429 . S
C725 C721 1.429 . S
C725 C726 1.523 . S
C726 C710 1.368 . S
C726 C722 1.368 . S
C726 C725 1.523 . S
H727 C702 0.950 . S
H728 C704 0.950 . S
H729 C705 0.949 . S
H730 C707 0.950 1_655 S
H731 C709 0.950 . S
C193 C19 2.150 . S
C198 C186 2.136 . S
C223 C46 1.251 . S
C228 C160 1.234 . S
C253 C95 0.403 . S
C258 C172 0.383 . S
C283 C10 1.658 . S
C288 C184 1.583 . S
C318 C162 1.099 . S
C313 C55 1.103 . S
C348 C174 0.306 . S
C343 C86 0.295 . S
C373 C59 3.159 . S
C378 C136 3.074 . S
C403 C90 2.218 . S
C408 C150 2.236 . S
C433 C15 1.101 . S
C438 C126 1.098 . S
C468 C138 2.853 . S
C463 C50 2.871 . S
C498 C148 1.537 . S
C493 C99 1.602 . S
C523 C6 1.240 . S
C528 C124 1.219 . S
C558 C153 1.489 . S
C553 C9 1.425 . S
C583 C58 1.524 . S
C588 C129 1.546 . S
C613 C98 1.647 . S
C618 C141 1.738 . S
C648 C177 1.282 . S
C643 C49 1.233 . S
C678 C189 1.502 . S
C673 C89 1.461 . S
C703 C18 1.502 . S
C708 C165 1.524 . S
