# Generated by pormake.
# Topology zzz, (3,6)-cn, num edge types: 1
# Building blocks:
#     Node 0, Type 0, BuildingBlock: MIDCAF_clean_linker_0, # of connection points: 3
#     Node 1, Type 0, BuildingBlock: MIDCAF_clean_linker_0, # of connection points: 3
#     Node 2, Type 0, BuildingBlock: MIDCAF_clean_linker_0, # of connection points: 3
#     Node 3, Type 0, BuildingBlock: MIDCAF_clean_linker_0, # of connection points: 3
#     Node 4, Type 0, BuildingBlock: MIDCAF_clean_linker_0, # of connection points: 3
#     Node 5, Type 0, BuildingBlock: MIDCAF_clean_linker_0, # of connection points: 3
#     Node 6, Type 0, BuildingBlock: MIDCAF_clean_linker_0, # of connection points: 3
#     Node 7, Type 0, BuildingBlock: MIDCAF_clean_linker_0, # of connection points: 3
#     Node 8, Type 1, BuildingBlock: BETDEL_clean_sbu_0, # of connection points: 6
#     Node 9, Type 1, BuildingBlock: BETDEL_clean_sbu_0, # of connection points: 6
#     Node 10, Type 1, BuildingBlock: BETDEL_clean_sbu_0, # of connection points: 6
#     Node 11, Type 1, BuildingBlock: BETDEL_clean_sbu_0, # of connection points: 6
#     Edge 12, Type (0, 1), BuildingBlock: UVAHIK_clean_linker_0, # of connection points: 2
#     Edge 13, Type (0, 1), BuildingBlock: UVAHIK_clean_linker_0, # of connection points: 2
#     Edge 14, Type (0, 1), BuildingBlock: UVAHIK_clean_linker_0, # of connection points: 2
#     Edge 15, Type (0, 1), BuildingBlock: UVAHIK_clean_linker_0, # of connection points: 2
#     Edge 16, Type (0, 1), BuildingBlock: UVAHIK_clean_linker_0, # of connection points: 2
#     Edge 17, Type (0, 1), BuildingBlock: UVAHIK_clean_linker_0, # of connection points: 2
#     Edge 18, Type (0, 1), BuildingBlock: UVAHIK_clean_linker_0, # of connection points: 2
#     Edge 19, Type (0, 1), BuildingBlock: UVAHIK_clean_linker_0, # of connection points: 2
#     Edge 20, Type (0, 1), BuildingBlock: UVAHIK_clean_linker_0, # of connection points: 2
#     Edge 21, Type (0, 1), BuildingBlock: UVAHIK_clean_linker_0, # of connection points: 2
#     Edge 22, Type (0, 1), BuildingBlock: UVAHIK_clean_linker_0, # of connection points: 2
#     Edge 23, Type (0, 1), BuildingBlock: UVAHIK_clean_linker_0, # of connection points: 2
#     Edge 24, Type (0, 1), BuildingBlock: UVAHIK_clean_linker_0, # of connection points: 2
#     Edge 25, Type (0, 1), BuildingBlock: UVAHIK_clean_linker_0, # of connection points: 2
#     Edge 26, Type (0, 1), BuildingBlock: UVAHIK_clean_linker_0, # of connection points: 2
#     Edge 27, Type (0, 1), BuildingBlock: UVAHIK_clean_linker_0, # of connection points: 2
#     Edge 28, Type (0, 1), BuildingBlock: UVAHIK_clean_linker_0, # of connection points: 2
#     Edge 29, Type (0, 1), BuildingBlock: UVAHIK_clean_linker_0, # of connection points: 2
#     Edge 30, Type (0, 1), BuildingBlock: UVAHIK_clean_linker_0, # of connection points: 2
#     Edge 31, Type (0, 1), BuildingBlock: UVAHIK_clean_linker_0, # of connection points: 2
#     Edge 32, Type (0, 1), BuildingBlock: UVAHIK_clean_linker_0, # of connection points: 2
#     Edge 33, Type (0, 1), BuildingBlock: UVAHIK_clean_linker_0, # of connection points: 2
#     Edge 34, Type (0, 1), BuildingBlock: UVAHIK_clean_linker_0, # of connection points: 2
#     Edge 35, Type (0, 1), BuildingBlock: UVAHIK_clean_linker_0, # of connection points: 2
# Relax obj value: 0.327
# Max RMSD: 0.229
# Mean RMSD: 0.209
data_MOF--net-zzz--node1-BETDEL_clean_sbu_0--node2-MIDCAF_clean_linker_0--edge1-UVAHIK_clean_linker_0
_symmetry_space_group_name_H-M    P1
_symmetry_Int_Tables_number       1
_symmetry_cell_setting            triclinic
loop_
_symmetry_equiv_pos_as_xyz
'x, y, z'
_cell_length_a     70.264665
_cell_length_b     69.566496
_cell_length_c     24.700556
_cell_angle_alpha  91.10311
_cell_angle_beta   89.59142
_cell_angle_gamma 96.217412
loop_
_atom_site_label
_atom_site_type_symbol
_atom_site_fract_x
_atom_site_fract_y
_atom_site_fract_z
_atom_type_partial_charge
C0 C 0.78781 0.45518 0.24224 0.0
C1 C 0.79104 0.47521 0.25272 0.0
C2 C 0.78085 0.48758 0.22206 0.0
C3 C 0.76893 0.48017 0.17935 0.0
H4 H 0.71389 0.47809 0.07315 0.0
H5 H 0.68543 0.4866 0.02579 0.0
H6 H 0.69642 0.44714 0.8951 0.0
H7 H 0.72425 0.43852 0.94162 0.0
H8 H 0.76124 0.41905 0.93234 0.0
H9 H 0.78546 0.40456 0.87886 0.0
H10 H 0.82167 0.40597 0.02 0.0
H11 H 0.79738 0.41957 0.07349 0.0
H12 H 0.77483 0.43246 0.19114 0.0
H13 H 0.79546 0.44509 0.26403 0.0
H14 H 0.7827 0.50305 0.2295 0.0
H15 H 0.76233 0.4901 0.15401 0.0
N16 N 0.74408 0.45885 0.08949 0.0
N17 N 0.74914 0.43894 0.01364 0.0
N18 N 0.76979 0.43987 0.08718 0.0
C19 C 0.73857 0.45168 0.03935 0.0
C20 C 0.76476 0.43298 0.03723 0.0
C21 C 0.75968 0.45268 0.11368 0.0
C22 C 0.7214 0.45752 0.01159 0.0
C23 C 0.71019 0.47124 0.03435 0.0
C24 C 0.69394 0.47618 0.00715 0.0
C25 C 0.68853 0.46737 0.95697 0.0
C26 C 0.6999 0.45391 0.93417 0.0
C27 C 0.71604 0.44906 0.96096 0.0
C28 C 0.77752 0.42092 0.00696 0.0
C29 C 0.77418 0.41583 0.95222 0.0
C30 C 0.78812 0.4076 0.92147 0.0
C31 C 0.8057 0.4044 0.94477 0.0
C32 C 0.80831 0.40805 0.00054 0.0
C33 C 0.79437 0.41611 0.03126 0.0
C34 C 0.76709 0.4603 0.16663 0.0
C35 C 0.77599 0.44787 0.19999 0.0
C36 C 0.93046 0.77422 0.27129 0.0
C37 C 0.94878 0.77608 0.29469 0.0
C38 C 0.9618 0.76308 0.2777 0.0
C39 C 0.95742 0.75023 0.23395 0.0
H40 H 0.94583 0.68895 0.12877 0.0
H41 H 0.94985 0.65719 0.0878 0.0
H42 H 0.9518 0.68235 0.92917 0.0
H43 H 0.94765 0.71357 0.96906 0.0
H44 H 0.94997 0.7585 0.95537 0.0
H45 H 0.9554 0.78819 0.90361 0.0
H46 H 0.92838 0.81913 0.03093 0.0
H47 H 0.92262 0.7896 0.08188 0.0
H48 H 0.91265 0.76183 0.20705 0.0
H49 H 0.92003 0.78395 0.28274 0.0
H50 H 0.97589 0.7638 0.29558 0.0
H51 H 0.96843 0.7419 0.218 0.0
N52 N 0.94245 0.72671 0.13002 0.0
N53 N 0.94012 0.73762 0.04082 0.0
N54 N 0.93576 0.75844 0.11375 0.0
C55 C 0.94278 0.72313 0.07538 0.0
C56 C 0.93656 0.75527 0.05974 0.0
C57 C 0.93866 0.74444 0.14907 0.0
C58 C 0.94621 0.70387 0.05237 0.0
C59 C 0.94718 0.68767 0.08519 0.0
C60 C 0.94951 0.6695 0.06177 0.0
C61 C 0.95083 0.66719 0.00516 0.0
C62 C 0.95035 0.68349 0.97277 0.0
C63 C 0.94807 0.7015 0.99593 0.0
C64 C 0.93616 0.77178 0.02313 0.0
C65 C 0.94473 0.77152 0.97158 0.0
C66 C 0.94799 0.78855 0.94215 0.0
C67 C 0.9426 0.80605 0.9636 0.0
C68 C 0.93265 0.8059 0.01312 0.0
C69 C 0.92947 0.78896 0.04255 0.0
C70 C 0.93998 0.75022 0.20669 0.0
C71 C 0.92614 0.76145 0.2278 0.0
C72 C 0.70773 0.97118 0.20359 0.0
C73 C 0.71069 0.98016 0.25477 0.0
C74 C 0.72831 0.99129 0.26503 0.0
C75 C 0.74203 0.99453 0.22373 0.0
H76 H 0.79153 0.96691 0.06201 0.0
H77 H 0.82079 0.9608 0.01239 0.0
H78 H 0.83406 0.02216 0.98925 0.0
H79 H 0.80483 0.02812 0.0376 0.0
H80 H 0.7617 0.03891 0.96594 0.0
H81 H 0.74281 0.05305 0.89681 0.0
H82 H 0.69078 0.02776 0.97249 0.0
H83 H 0.70929 0.0139 0.04176 0.0
H84 H 0.71792 0.96887 0.12202 0.0
H85 H 0.69428 0.96271 0.19405 0.0
H86 H 0.73105 0.99829 0.30416 0.0
H87 H 0.75483 0.00431 0.23141 0.0
N88 N 0.76747 0.9928 0.11405 0.0
N89 N 0.76668 0.01243 0.03753 0.0
N90 N 0.7393 0.00611 0.09101 0.0
C91 C 0.77644 0.00147 0.07019 0.0
C92 C 0.7481 0.01475 0.04756 0.0
C93 C 0.74883 0.99537 0.12463 0.0
C94 C 0.79603 0.99799 0.05376 0.0
C95 C 0.80108 0.97907 0.04784 0.0
C96 C 0.81768 0.97558 0.01899 0.0
C97 C 0.82965 0.991 0.99673 0.0
C98 C 0.82523 0.00999 0.00626 0.0
C99 C 0.8085 0.01342 0.03395 0.0
C100 C 0.73701 0.02514 0.00913 0.0
C101 C 0.74623 0.0366 0.96827 0.0
C102 C 0.73549 0.04476 0.92893 0.0
C103 C 0.71547 0.04133 0.92961 0.0
C104 C 0.70626 0.03051 0.97135 0.0
C105 C 0.7169 0.02262 0.01097 0.0
C106 C 0.73826 0.98682 0.17153 0.0
C107 C 0.72129 0.97464 0.16231 0.0
C108 C 0.61034 0.70049 0.00964 0.0
C109 C 0.60196 0.6996 0.9581 0.0
C110 C 0.59644 0.71664 0.93606 0.0
C111 C 0.59717 0.73364 0.96746 0.0
H112 H 0.60071 0.79799 0.99053 0.0
H113 H 0.59077 0.82685 0.95026 0.0
H114 H 0.5477 0.82981 0.07479 0.0
H115 H 0.55773 0.80064 0.11567 0.0
H116 H 0.55378 0.75804 0.20599 0.0
H117 H 0.54292 0.73699 0.2812 0.0
H118 H 0.59829 0.71525 0.28324 0.0
H119 H 0.60902 0.73648 0.21024 0.0
H120 H 0.61612 0.71718 0.08227 0.0
H121 H 0.61475 0.68765 0.0278 0.0
H122 H 0.59026 0.71644 0.89597 0.0
H123 H 0.59131 0.74604 0.95098 0.0
N124 N 0.59319 0.76602 0.04264 0.0
N125 N 0.58165 0.77321 0.12974 0.0
N126 N 0.59514 0.74427 0.11252 0.0
C127 C 0.58526 0.77842 0.07726 0.0
C128 C 0.58697 0.75617 0.14758 0.0
C129 C 0.59817 0.74891 0.06007 0.0
C130 C 0.57995 0.79693 0.05621 0.0
C131 C 0.58919 0.80481 0.00973 0.0
C132 C 0.5836 0.82147 0.98679 0.0
C133 C 0.56847 0.83062 0.00934 0.0
C134 C 0.55936 0.82299 0.0564 0.0
C135 C 0.56517 0.80639 0.07995 0.0
C136 C 0.58219 0.74879 0.20223 0.0
C137 C 0.5638 0.74935 0.22434 0.0
C138 C 0.55752 0.73706 0.26682 0.0
C139 C 0.56958 0.7241 0.28788 0.0
C140 C 0.58856 0.72503 0.26877 0.0
C141 C 0.59475 0.7372 0.22658 0.0
C142 C 0.60331 0.73378 0.02149 0.0
C143 C 0.611 0.71743 0.04105 0.0
C144 C 0.22653 0.54192 0.90431 0.0
C145 C 0.2237 0.52188 0.89361 0.0
C146 C 0.23423 0.50972 0.92395 0.0
C147 C 0.24609 0.5173 0.96658 0.0
H148 H 0.30183 0.52106 0.07089 0.0
H149 H 0.33079 0.51338 0.11728 0.0
H150 H 0.31841 0.55121 0.25051 0.0
H151 H 0.29005 0.55901 0.20498 0.0
H152 H 0.25276 0.57781 0.21464 0.0
H153 H 0.22829 0.5917 0.26867 0.0
H154 H 0.19182 0.58986 0.12803 0.0
H155 H 0.21632 0.57684 0.07399 0.0
H156 H 0.23912 0.56478 0.95557 0.0
H157 H 0.2186 0.55184 0.88275 0.0
H158 H 0.23269 0.49425 0.91633 0.0
H159 H 0.25296 0.50751 0.9917 0.0
N160 N 0.2707 0.53903 0.05631 0.0
N161 N 0.26525 0.55854 0.13269 0.0
N162 N 0.24443 0.55725 0.05948 0.0
C163 C 0.27613 0.54618 0.10651 0.0
C164 C 0.24939 0.56412 0.1095 0.0
C165 C 0.25484 0.54482 0.03253 0.0
C166 C 0.29357 0.54077 0.1338 0.0
C167 C 0.30532 0.52773 0.11006 0.0
C168 C 0.32187 0.52326 0.13669 0.0
C169 C 0.32703 0.53188 0.18728 0.0
C170 C 0.31511 0.54463 0.2111 0.0
C171 C 0.29868 0.54901 0.18487 0.0
C172 C 0.23636 0.57578 0.14021 0.0
C173 C 0.23969 0.5808 0.19499 0.0
C174 C 0.22562 0.58868 0.22606 0.0
C175 C 0.20792 0.59161 0.20303 0.0
C176 C 0.20528 0.58799 0.14727 0.0
C177 C 0.21934 0.58027 0.11623 0.0
C178 C 0.24752 0.53714 0.97956 0.0
C179 C 0.23828 0.54941 0.94651 0.0
C180 C 0.09445 0.2294 0.86494 0.0
C181 C 0.0763 0.2297 0.84163 0.0
C182 C 0.06475 0.24394 0.85954 0.0
C183 C 0.07055 0.25643 0.90304 0.0
H184 H 0.06467 0.30979 0.00871 0.0
H185 H 0.05529 0.34021 0.04711 0.0
H186 H 0.09521 0.33714 0.17795 0.0
H187 H 0.10444 0.30697 0.14015 0.0
H188 H 0.09045 0.25743 0.18481 0.0
H189 H 0.08528 0.23002 0.24526 0.0
H190 H 0.10338 0.19237 0.11819 0.0
H191 H 0.10909 0.21966 0.05869 0.0
H192 H 0.11355 0.24005 0.92827 0.0
H193 H 0.10369 0.21859 0.85269 0.0
H194 H 0.05079 0.2447 0.84193 0.0
H195 H 0.06078 0.2662 0.91883 0.0
N196 N 0.08731 0.28059 0.00021 0.0
N197 N 0.09436 0.27378 0.09052 0.0
N198 N 0.09643 0.25028 0.02271 0.0
C199 C 0.08938 0.28644 0.05314 0.0
C200 C 0.09785 0.25563 0.07557 0.0
C201 C 0.09127 0.26253 0.98486 0.0
C202 C 0.08519 0.30592 0.07162 0.0
C203 C 0.07165 0.31583 0.04514 0.0
C204 C 0.06621 0.33316 0.06723 0.0
C205 C 0.07452 0.34105 0.11552 0.0
C206 C 0.08869 0.33156 0.14041 0.0
C207 C 0.09387 0.31417 0.11894 0.0
C208 C 0.09972 0.24066 0.11644 0.0
C209 C 0.09392 0.24342 0.17036 0.0
C210 C 0.0908 0.22768 0.20489 0.0
C211 C 0.09346 0.20892 0.18616 0.0
C212 C 0.10117 0.20658 0.13411 0.0
C213 C 0.10431 0.22227 0.09971 0.0
C214 C 0.08788 0.25469 0.92946 0.0
C215 C 0.10012 0.2417 0.90845 0.0
C216 C 0.29198 0.98166 0.86667 0.0
C217 C 0.29427 1.00023 0.84445 0.0
C218 C 0.28199 0.0138 0.86266 0.0
C219 C 0.2688 0.00931 0.90483 0.0
H220 H 0.19979 0.98362 0.00209 0.0
H221 H 0.16863 0.9873 0.04479 0.0
H222 H 0.19742 0.01874 0.17845 0.0
H223 H 0.22835 0.0146 0.1366 0.0
H224 H 0.25781 0.9766 0.18208 0.0
H225 H 0.27911 0.96399 0.24716 0.0
H226 H 0.31085 0.94065 0.11551 0.0
H227 H 0.28996 0.95352 0.05065 0.0
H228 H 0.27844 0.96314 0.92673 0.0
H229 H 0.3012 0.97082 0.8546 0.0
H230 H 0.28312 0.02816 0.84593 0.0
H231 H 0.26046 0.02042 0.92053 0.0
N232 N 0.24175 0.99496 0.99732 0.0
N233 N 0.24469 0.98319 0.0855 0.0
N234 N 0.26789 0.97837 0.02012 0.0
C235 C 0.2348 0.99246 0.04882 0.0
C236 C 0.26118 0.97596 0.07124 0.0
C237 C 0.25849 0.98787 0.98306 0.0
C238 C 0.21637 0.99895 0.06602 0.0
C239 C 0.19934 0.99187 0.03965 0.0
C240 C 0.18158 0.99382 0.06428 0.0
C241 C 0.18064 0.00326 0.115 0.0
C242 C 0.19769 0.01156 0.13918 0.0
C243 C 0.21537 0.00921 0.11526 0.0
C244 C 0.27238 0.96636 0.11116 0.0
C245 C 0.26917 0.96855 0.16708 0.0
C246 C 0.28131 0.96124 0.20439 0.0
C247 C 0.2968 0.95155 0.1864 0.0
C248 C 0.29928 0.94842 0.13058 0.0
C249 C 0.28727 0.95578 0.09341 0.0
C250 C 0.26778 0.99122 0.9296 0.0
C251 C 0.27893 0.97724 0.90851 0.0
C252 C 0.40503 0.30673 0.11871 0.0
C253 C 0.40883 0.30606 0.17433 0.0
C254 C 0.41059 0.28805 0.1976 0.0
C255 C 0.41083 0.27146 0.16493 0.0
H256 H 0.42708 0.21889 0.16966 0.0
H257 H 0.43566 0.19042 0.21345 0.0
H258 H 0.45141 0.16653 0.05887 0.0
H259 H 0.44313 0.19569 0.01423 0.0
H260 H 0.46211 0.24543 0.93656 0.0
H261 H 0.47484 0.2658 0.86192 0.0
H262 H 0.41964 0.28712 0.84551 0.0
H263 H 0.40707 0.26653 0.91811 0.0
H264 H 0.40364 0.29152 0.04277 0.0
H265 H 0.40358 0.32035 0.09947 0.0
H266 H 0.41311 0.28703 0.24061 0.0
H267 H 0.41367 0.25812 0.18369 0.0
N268 N 0.42016 0.24037 0.09354 0.0
N269 N 0.43289 0.23146 0.00947 0.0
N270 N 0.419 0.26057 0.0198 0.0
C271 C 0.42873 0.22739 0.06244 0.0
C272 C 0.42771 0.24804 0.98794 0.0
C273 C 0.41524 0.25697 0.07258 0.0
C274 C 0.43426 0.20964 0.08808 0.0
C275 C 0.43229 0.20764 0.14449 0.0
C276 C 0.43711 0.19115 0.16983 0.0
C277 C 0.44394 0.17599 0.13971 0.0
C278 C 0.44621 0.17797 0.08331 0.0
C279 C 0.44141 0.19465 0.05771 0.0
C280 C 0.43365 0.25452 0.93321 0.0
C281 C 0.45255 0.25382 0.91514 0.0
C282 C 0.4599 0.26575 0.87298 0.0
C283 C 0.44841 0.27846 0.84823 0.0
C284 C 0.42897 0.27753 0.86301 0.0
C285 C 0.42171 0.26572 0.90491 0.0
C286 C 0.40933 0.27262 0.10838 0.0
C287 C 0.40523 0.29016 0.08607 0.0
Dy288 Dy 0.0117 0.99628 0.61293 0.0
C289 C 0.00202 0.036 0.41387 0.0
C290 C 0.00854 0.98136 0.71368 0.0
Dy291 Dy 0.99975 0.01464 0.50523 0.0
O292 O 0.02477 0.98548 0.68824 0.0
O293 O 0.99446 0.98566 0.68427 0.0
O294 O 0.03433 0.9818 0.5668 0.0
O295 O 0.02624 0.00834 0.54165 0.0
C296 C 0.03616 0.99488 0.52957 0.0
C297 C 0.9716 0.00523 0.57668 0.0
O298 O 0.9976 0.98321 0.48121 0.0
O299 O 0.99499 0.97163 0.56885 0.0
O300 O 0.99025 0.03806 0.45393 0.0
O301 O 0.01182 0.02157 0.42277 0.0
O302 O 0.96867 0.0047 0.52457 0.0
O303 O 0.98857 0.01196 0.58647 0.0
O304 O 0.02063 0.02733 0.63488 0.0
O305 O 0.01257 0.04071 0.55299 0.0
C306 C 0.99383 0.96886 0.51567 0.0
C307 C 0.01951 0.04239 0.6031 0.0
Dy308 Dy 0.49129 0.98704 0.54739 0.0
C309 C 0.55347 0.03922 0.63356 0.0
C310 C 0.45687 0.96899 0.51466 0.0
Dy311 Dy 0.52092 0.01804 0.59783 0.0
O312 O 0.47296 0.96138 0.51136 0.0
O313 O 0.4597 0.98634 0.53521 0.0
O314 O 0.51445 0.97026 0.51388 0.0
O315 O 0.5195 1.00045 0.52379 0.0
C316 C 0.52721 0.98528 0.51262 0.0
C317 C 0.48466 0.01933 0.63087 0.0
O318 O 0.51288 0.0349 0.52723 0.0
O319 O 0.48799 0.01281 0.49541 0.0
O320 O 0.53844 0.03436 0.66328 0.0
O321 O 0.55068 0.03248 0.58463 0.0
O322 O 0.49695 0.03467 0.62767 0.0
O323 O 0.49285 0.00439 0.62121 0.0
O324 O 0.49767 0.97258 0.62415 0.0
O325 O 0.527 0.9906 0.6386 0.0
C326 C 0.49841 0.02992 0.49385 0.0
C327 C 0.51449 0.97536 0.64875 0.0
Dy328 Dy 0.50815 0.51115 0.62533 0.0
C329 C 0.50206 0.47698 0.41057 0.0
C330 C 0.51682 0.52567 0.72653 0.0
Dy331 Dy 0.51093 0.49192 0.51125 0.0
O332 O 0.50157 0.52849 0.69958 0.0
O333 O 0.52686 0.51432 0.69884 0.0
O334 O 0.4808 0.52271 0.60131 0.0
O335 O 0.48804 0.49653 0.56757 0.0
C336 C 0.47642 0.50907 0.56538 0.0
C337 C 0.54262 0.4939 0.57146 0.0
O338 O 0.51531 0.52345 0.48988 0.0
O339 O 0.51966 0.53676 0.5769 0.0
O340 O 0.51712 0.47393 0.43805 0.0
O341 O 0.49241 0.48894 0.4373 0.0
O342 O 0.53824 0.48029 0.53544 0.0
O343 O 0.53102 0.50645 0.56905 0.0
O344 O 0.50401 0.47958 0.6466 0.0
O345 O 0.4992 0.46642 0.55966 0.0
C346 C 0.5192 0.53851 0.5235 0.0
C347 C 0.49993 0.46456 0.61297 0.0
Dy348 Dy 0.99848 0.48227 0.61283 0.0
C349 C 0.03797 0.53641 0.47017 0.0
C350 C 0.97619 0.45886 0.68099 0.0
Dy351 Dy 0.01575 0.51269 0.5377 0.0
O352 O 0.9822 0.45383 0.63368 0.0
O353 O 0.9825 0.47678 0.69164 0.0
O354 O 0.01659 0.46105 0.57561 0.0
O355 O 0.00634 0.48203 0.52658 0.0
C356 C 0.01675 0.46833 0.52759 0.0
C357 C 0.99728 0.52624 0.62321 0.0
O358 O 0.98756 0.50651 0.49647 0.0
O359 O 0.97268 0.49202 0.57158 0.0
O360 O 0.03224 0.54116 0.51804 0.0
O361 O 0.03143 0.51863 0.45866 0.0
O362 O 0.99706 0.53347 0.5752 0.0
O363 O 0.00804 0.51286 0.62384 0.0
O364 O 0.02678 0.48834 0.65362 0.0
O365 O 0.04156 0.50273 0.57825 0.0
C366 C 0.97191 0.49965 0.52294 0.0
C367 C 0.0424 0.4951 0.62686 0.0
C368 C 0.15152 0.98468 0.15472 0.0
C369 C 0.16239 0.00255 0.14602 0.0
C370 C 0.13605 0.98336 0.19091 0.0
C371 C 0.10119 0.01046 0.26185 0.0
H372 H 0.10439 0.9737 0.37656 0.0
C373 C 0.05452 0.01225 0.45501 0.0
C374 C 0.04909 0.99495 0.48213 0.0
C375 C 0.06708 0.01259 0.41081 0.0
C376 C 0.10293 0.98377 0.34438 0.0
H377 H 0.16504 0.03314 0.16628 0.0
H378 H 0.13759 0.0309 0.22853 0.0
H379 H 0.12769 0.97528 0.30302 0.0
H380 H 0.05202 0.96433 0.48358 0.0
H381 H 0.07337 0.96464 0.4051 0.0
H382 H 0.07623 0.01873 0.30214 0.0
C383 C 0.14118 0.01793 0.20766 0.0
C384 C 0.1164 0.98472 0.3023 0.0
C385 C 0.15689 0.01921 0.1722 0.0
C386 C 0.05616 0.9779 0.46366 0.0
C387 C 0.0685 0.97815 0.41882 0.0
C388 C 0.08747 0.00928 0.30341 0.0
C389 C 0.13092 0.99991 0.21843 0.0
C390 C 0.11581 0.99821 0.26095 0.0
C391 C 0.07433 0.99555 0.39201 0.0
C392 C 0.08828 0.99608 0.34578 0.0
H393 H 0.15558 0.97158 0.13559 0.0
H394 H 0.12832 0.96931 0.19828 0.0
H395 H 0.10032 0.02089 0.2302 0.0
H396 H 0.04937 0.02565 0.46867 0.0
H397 H 0.07142 0.02636 0.39227 0.0
C398 C 0.43729 0.1511 0.21154 0.0
C399 C 0.44876 0.15844 0.1681 0.0
C400 C 0.4428 0.13616 0.24276 0.0
C401 C 0.47254 0.09612 0.24726 0.0
H402 H 0.47196 0.10613 0.40235 0.0
C403 C 0.48144 0.03821 0.40957 0.0
C404 C 0.49378 0.04399 0.45289 0.0
C405 C 0.47675 0.05166 0.37177 0.0
C406 C 0.47229 0.10316 0.35916 0.0
H407 H 0.47454 0.15499 0.12175 0.0
H408 H 0.48396 0.12846 0.17595 0.0
H409 H 0.46183 0.13005 0.34085 0.0
H410 H 0.51097 0.06846 0.49007 0.0
H411 H 0.50254 0.0919 0.42461 0.0
H412 H 0.48285 0.06907 0.26595 0.0
C413 C 0.47077 0.13451 0.18584 0.0
C414 C 0.46634 0.11677 0.32398 0.0
C415 C 0.46534 0.14965 0.15475 0.0
C416 C 0.50144 0.06349 0.45724 0.0
C417 C 0.49655 0.07695 0.41988 0.0
C418 C 0.47825 0.08233 0.28262 0.0
C419 C 0.45979 0.12798 0.23101 0.0
C420 C 0.46637 0.11341 0.26769 0.0
C421 C 0.48408 0.07121 0.37692 0.0
C422 C 0.47821 0.08575 0.33894 0.0
H423 H 0.42416 0.15714 0.22212 0.0
H424 H 0.43385 0.13115 0.27665 0.0
H425 H 0.47265 0.09315 0.20406 0.0
H426 H 0.47533 0.0233 0.40489 0.0
H427 H 0.46699 0.04685 0.33928 0.0
C428 C 0.35619 0.54317 0.24174 0.0
C429 C 0.34475 0.52792 0.21588 0.0
C430 C 0.37177 0.53956 0.27329 0.0
C431 C 0.39027 0.50107 0.3519 0.0
H432 H 0.43535 0.5384 0.36156 0.0
C433 C 0.45474 0.49279 0.49406 0.0
C434 C 0.46155 0.50957 0.5236 0.0
C435 C 0.44127 0.49363 0.45281 0.0
C436 C 0.42282 0.52788 0.35947 0.0
H437 H 0.34118 0.49693 0.20132 0.0
H438 H 0.36874 0.4906 0.2559 0.0
H439 H 0.41121 0.54212 0.29336 0.0
H440 H 0.45943 0.54024 0.53407 0.0
H441 H 0.43596 0.54174 0.46229 0.0
H442 H 0.40199 0.4869 0.41841 0.0
C443 C 0.36541 0.50536 0.25236 0.0
C444 C 0.40896 0.53001 0.3204 0.0
C445 C 0.34975 0.509 0.22061 0.0
C446 C 0.45444 0.5271 0.51187 0.0
C447 C 0.44114 0.52798 0.47044 0.0
C448 C 0.40426 0.49886 0.39082 0.0
C449 C 0.37646 0.5206 0.27971 0.0
C450 C 0.39226 0.51691 0.31691 0.0
C451 C 0.43449 0.51129 0.44017 0.0
C452 C 0.42046 0.5125 0.39583 0.0
H453 H 0.3529 0.55795 0.23835 0.0
H454 H 0.37974 0.55166 0.29412 0.0
H455 H 0.37754 0.4908 0.3508 0.0
H456 H 0.45993 0.47906 0.50259 0.0
H457 H 0.43646 0.48054 0.43013 0.0
C458 C 0.08049 0.37278 0.16607 0.0
C459 C 0.06752 0.35817 0.14286 0.0
C460 C 0.07395 0.38726 0.19915 0.0
C461 C 0.03489 0.39337 0.29274 0.0
H462 H 0.05588 0.44731 0.29885 0.0
C463 C 0.02178 0.46564 0.42694 0.0
C464 C 0.02334 0.45817 0.47901 0.0
C465 C 0.02688 0.45508 0.38113 0.0
C466 C 0.0498 0.43232 0.29729 0.0
H467 H 0.03747 0.3478 0.13411 0.0
H468 H 0.02604 0.37307 0.19203 0.0
H469 H 0.06477 0.42634 0.22379 0.0
H470 H 0.03196 0.43414 0.52413 0.0
H471 H 0.04053 0.41569 0.44448 0.0
H472 H 0.02039 0.39912 0.36686 0.0
C473 C 0.04127 0.37329 0.18466 0.0
C474 C 0.05494 0.42032 0.25459 0.0
C475 C 0.0478 0.35892 0.15113 0.0
C476 C 0.03049 0.44023 0.48453 0.0
C477 C 0.03532 0.42961 0.43894 0.0
C478 C 0.02998 0.40526 0.33564 0.0
C479 C 0.05431 0.38731 0.21015 0.0
C480 C 0.04767 0.40066 0.2522 0.0
C481 C 0.03334 0.43679 0.38676 0.0
C482 C 0.03758 0.42477 0.33878 0.0
H483 H 0.09577 0.37264 0.16008 0.0
H484 H 0.08435 0.3978 0.21843 0.0
H485 H 0.02921 0.37826 0.29243 0.0
H486 H 0.01633 0.47945 0.42159 0.0
H487 H 0.02524 0.46092 0.34131 0.0
C488 C 0.84224 0.97442 0.91501 0.0
C489 C 0.84553 0.98749 0.95895 0.0
C490 C 0.85617 0.97323 0.87462 0.0
C491 C 0.9075 0.98492 0.84287 0.0
H492 H 0.89028 0.99051 0.69573 0.0
C493 C 0.96029 0.00843 0.67185 0.0
C494 C 0.95691 0.00097 0.61918 0.0
C495 C 0.9468 0.00443 0.71296 0.0
C496 C 0.89535 0.98856 0.73634 0.0
H497 H 0.86633 0.00882 0.99641 0.0
H498 H 0.8908 0.0065 0.92639 0.0
H499 H 0.86694 0.98692 0.76935 0.0
H500 H 0.9367 0.98357 0.56791 0.0
H501 H 0.91303 0.97626 0.6401 0.0
H502 H 0.93588 0.98647 0.81019 0.0
C503 C 0.87742 0.99725 0.92301 0.0
C504 C 0.88194 0.98655 0.7786 0.0
C505 C 0.86339 0.99865 0.96298 0.0
C506 C 0.93963 0.98953 0.60821 0.0
C507 C 0.92608 0.98541 0.64958 0.0
C508 C 0.9209 0.9867 0.80058 0.0
C509 C 0.87379 0.98487 0.87772 0.0
C510 C 0.88789 0.98507 0.83245 0.0
C511 C 0.92952 0.9928 0.7026 0.0
C512 C 0.91506 0.98899 0.74684 0.0
H513 H 0.82854 0.96579 0.9105 0.0
H514 H 0.85303 0.96345 0.84041 0.0
H515 H 0.9125 0.98354 0.88385 0.0
H516 H 0.97339 0.01755 0.68132 0.0
H517 H 0.94982 0.01081 0.75273 0.0
C518 C 0.57514 0.86227 0.96196 0.0
C519 C 0.56182 0.8475 0.98184 0.0
C520 C 0.56912 0.87708 0.93101 0.0
C521 C 0.53043 0.88677 0.84006 0.0
H522 H 0.55229 0.9402 0.85522 0.0
C523 C 0.50532 0.94678 0.70768 0.0
C524 C 0.51929 0.96126 0.68953 0.0
C525 C 0.50982 0.93351 0.74618 0.0
C526 C 0.5462 0.92531 0.84997 0.0
H527 H 0.53169 0.83697 0.98596 0.0
H528 H 0.52113 0.86291 0.93186 0.0
H529 H 0.56121 0.9163 0.91868 0.0
H530 H 0.54903 0.97305 0.69758 0.0
H531 H 0.55698 0.94968 0.7636 0.0
H532 H 0.5158 0.89556 0.77063 0.0
C533 C 0.53625 0.86295 0.94009 0.0
C534 C 0.55126 0.91163 0.88654 0.0
C535 C 0.54227 0.84821 0.97152 0.0
C536 C 0.53787 0.96215 0.71082 0.0
C537 C 0.54241 0.94879 0.74905 0.0
C538 C 0.52547 0.90041 0.80325 0.0
C539 C 0.54964 0.87739 0.91881 0.0
C540 C 0.54351 0.89218 0.88185 0.0
C541 C 0.52845 0.93428 0.76728 0.0
C542 C 0.53336 0.91985 0.80749 0.0
H543 H 0.59029 0.86217 0.96958 0.0
H544 H 0.57981 0.8879 0.91497 0.0
H545 H 0.52444 0.87185 0.83478 0.0
H546 H 0.49082 0.94573 0.69247 0.0
H547 H 0.4986 0.92275 0.7598 0.0
C548 C 0.66699 0.49106 0.92175 0.0
C549 C 0.67114 0.4719 0.92768 0.0
C550 C 0.65167 0.49517 0.88927 0.0
C551 C 0.60761 0.47183 0.82079 0.0
H552 H 0.61673 0.51421 0.7209 0.0
C553 C 0.56358 0.47537 0.62684 0.0
C554 C 0.55717 0.49313 0.614 0.0
C555 C 0.57655 0.47424 0.66898 0.0
C556 C 0.61387 0.50247 0.74901 0.0
H557 H 0.66183 0.44197 0.9066 0.0
H558 H 0.63561 0.44905 0.84956 0.0
H559 H 0.64058 0.50971 0.78976 0.0
H560 H 0.55969 0.52376 0.63375 0.0
H561 H 0.58263 0.52185 0.70744 0.0
H562 H 0.58122 0.46423 0.77886 0.0
C563 C 0.64397 0.46099 0.87001 0.0
C564 C 0.62751 0.49992 0.78864 0.0
C565 C 0.6592 0.45692 0.90229 0.0
C566 C 0.56435 0.50987 0.64314 0.0
C567 C 0.5775 0.50878 0.68509 0.0
C568 C 0.59409 0.4743 0.78099 0.0
C569 C 0.64014 0.48017 0.86236 0.0
C570 C 0.62473 0.48431 0.82434 0.0
C571 C 0.58357 0.49089 0.69886 0.0
C572 C 0.59723 0.48941 0.74396 0.0
H573 H 0.67596 0.50293 0.94065 0.0
H574 H 0.649 0.51009 0.88482 0.0
H575 H 0.60474 0.45993 0.84834 0.0
H576 H 0.55829 0.46225 0.60496 0.0
H577 H 0.58118 0.46031 0.67801 0.0
C578 C 0.94222 0.64263 0.93149 0.0
C579 C 0.95257 0.64802 0.97887 0.0
C580 C 0.94523 0.62576 0.90275 0.0
C581 C 0.98214 0.59266 0.87954 0.0
H582 H 0.94189 0.56462 0.79356 0.0
C583 C 0.99664 0.53229 0.72365 0.0
C584 C 0.98972 0.53557 0.67177 0.0
C585 C 0.99075 0.54278 0.76862 0.0
C586 C 0.95326 0.57226 0.81752 0.0
H587 H 0.97356 0.63935 0.03471 0.0
H588 H 0.97858 0.60951 0.98493 0.0
H589 H 0.9338 0.5885 0.8611 0.0
H590 H 0.97061 0.55157 0.62642 0.0
H591 H 0.96007 0.56957 0.70482 0.0
H592 H 0.0016 0.5765 0.83515 0.0
C593 C 0.96836 0.6186 0.9695 0.0
C594 C 0.94866 0.58601 0.85608 0.0
C595 C 0.96535 0.63559 0.99835 0.0
C596 C 0.97622 0.54882 0.66596 0.0
C597 C 0.9701 0.55904 0.71088 0.0
C598 C 0.98671 0.57874 0.84131 0.0
C599 C 0.95859 0.61367 0.92073 0.0
C600 C 0.9631 0.59686 0.88635 0.0
C601 C 0.97755 0.5564 0.76255 0.0
C602 C 0.97238 0.56883 0.80876 0.0
H603 H 0.93204 0.65173 0.91582 0.0
H604 H 0.93758 0.62266 0.86514 0.0
H605 H 0.99368 0.60083 0.90162 0.0
H606 H 0.00708 0.52212 0.72919 0.0
H607 H 0.99665 0.5404 0.80803 0.0
C608 C 0.0676 0.19117 0.24182 0.0
C609 C 0.0857 0.19163 0.21692 0.0
C610 C 0.05862 0.17402 0.26277 0.0
C611 C 0.05727 0.1215 0.24414 0.0
H612 H 0.02771 0.12 0.37738 0.0
C613 C 0.02519 0.05096 0.34616 0.0
C614 C 0.00801 0.05139 0.37532 0.0
C615 C 0.03372 0.06761 0.32125 0.0
C616 C 0.03563 0.12023 0.33957 0.0
H617 H 0.10906 0.17464 0.19764 0.0
H618 H 0.0933 0.14459 0.23429 0.0
H619 H 0.04584 0.15015 0.35052 0.0
H620 H 0.98536 0.06889 0.3973 0.0
H621 H 0.99996 0.09784 0.3525 0.0
H622 H 0.04702 0.09155 0.23324 0.0
C623 C 0.08596 0.1575 0.23666 0.0
C624 C 0.04612 0.13749 0.32441 0.0
C625 C 0.095 0.17471 0.21587 0.0
C626 C 0.99865 0.06821 0.37522 0.0
C627 C 0.00713 0.08483 0.35013 0.0
C628 C 0.04673 0.10422 0.25928 0.0
C629 C 0.06749 0.15689 0.25919 0.0
C630 C 0.05704 0.13833 0.27651 0.0
C631 C 0.02516 0.08495 0.32493 0.0
C632 C 0.03574 0.10341 0.30711 0.0
H633 H 0.05983 0.2038 0.24246 0.0
H634 H 0.04431 0.17398 0.27941 0.0
H635 H 0.0653 0.12178 0.20652 0.0
H636 H 0.03276 0.03818 0.34585 0.0
H637 H 0.04762 0.06721 0.30228 0.0
C638 C 0.30604 0.93827 0.27553 0.0
C639 C 0.31134 0.94623 0.22503 0.0
C640 C 0.32005 0.93446 0.31268 0.0
C641 C 0.35236 0.94252 0.39469 0.0
H642 H 0.40167 0.92906 0.34424 0.0
C643 C 0.42225 0.97052 0.4987 0.0
C644 C 0.43825 0.96014 0.49446 0.0
C645 C 0.40501 0.96341 0.4744 0.0
C646 C 0.38792 0.9324 0.35961 0.0
H647 H 0.33545 0.95659 0.17418 0.0
H648 H 0.35968 0.95018 0.23854 0.0
H649 H 0.37455 0.92553 0.28319 0.0
H650 H 0.44857 0.93364 0.46488 0.0
H651 H 0.41823 0.92094 0.42287 0.0
H652 H 0.36578 0.94953 0.47105 0.0
C653 C 0.3448 0.9463 0.24916 0.0
C654 C 0.3724 0.93063 0.32426 0.0
C655 C 0.33087 0.95004 0.21219 0.0
C656 C 0.43645 0.94198 0.4682 0.0
C657 C 0.41911 0.93478 0.44403 0.0
C658 C 0.36784 0.94412 0.43026 0.0
C659 C 0.3396 0.93861 0.30003 0.0
C660 C 0.35469 0.93652 0.34063 0.0
C661 C 0.40334 0.94567 0.44558 0.0
C662 C 0.38602 0.93991 0.41238 0.0
H663 H 0.29108 0.93506 0.28636 0.0
H664 H 0.31559 0.92843 0.35142 0.0
H665 H 0.33892 0.94716 0.4087 0.0
H666 H 0.42324 0.98453 0.51905 0.0
H667 H 0.39334 0.97237 0.47585 0.0
C668 C 0.43103 0.32586 0.23684 0.0
C669 C 0.41438 0.32428 0.20522 0.0
C670 C 0.43857 0.34367 0.2584 0.0
C671 C 0.43929 0.39593 0.23505 0.0
H672 H 0.46762 0.39927 0.36966 0.0
C673 C 0.47499 0.46536 0.34945 0.0
C674 C 0.49362 0.46371 0.36794 0.0
C675 C 0.46462 0.4498 0.32246 0.0
C676 C 0.45982 0.39849 0.33184 0.0
H677 H 0.392 0.34003 0.17381 0.0
H678 H 0.40501 0.37131 0.21272 0.0
H679 H 0.44865 0.36915 0.34422 0.0
H680 H 0.51672 0.44544 0.36802 0.0
H681 H 0.49855 0.41825 0.32125 0.0
H682 H 0.45033 0.42566 0.22393 0.0
C683 C 0.41244 0.35874 0.21975 0.0
C684 C 0.44897 0.38126 0.3172 0.0
C685 C 0.40492 0.34084 0.19779 0.0
C686 C 0.50237 0.44707 0.35435 0.0
C687 C 0.49196 0.43148 0.32796 0.0
C688 C 0.44996 0.41335 0.25027 0.0
C689 C 0.4296 0.36043 0.2493 0.0
C690 C 0.43896 0.37957 0.26796 0.0
C691 C 0.47274 0.43242 0.31411 0.0
C692 C 0.46068 0.41456 0.29812 0.0
H693 H 0.43895 0.31352 0.24231 0.0
H694 H 0.452 0.34442 0.27995 0.0
H695 H 0.4319 0.39511 0.19662 0.0
H696 H 0.46792 0.47807 0.35945 0.0
H697 H 0.44982 0.45081 0.312 0.0
C698 C 0.18816 0.58624 0.28723 0.0
C699 C 0.19134 0.59566 0.23759 0.0
C700 C 0.17075 0.58651 0.31451 0.0
C701 C 0.13367 0.59298 0.37218 0.0
H702 H 0.09135 0.57566 0.27682 0.0
C703 C 0.05938 0.56692 0.4575 0.0
C704 C 0.05198 0.54859 0.43767 0.0
C705 C 0.07455 0.5775 0.43091 0.0
C706 C 0.10298 0.58063 0.3039 0.0
H707 H 0.17931 0.61435 0.18058 0.0
H708 H 0.14865 0.61441 0.22788 0.0
H709 H 0.1226 0.58682 0.23829 0.0
H710 H 0.05383 0.52734 0.37317 0.0
H711 H 0.08044 0.54577 0.32662 0.0
H712 H 0.11436 0.58583 0.43781 0.0
C713 C 0.15966 0.60667 0.24516 0.0
C714 C 0.12082 0.58723 0.28188 0.0
C715 C 0.17719 0.60658 0.21809 0.0
C716 C 0.05929 0.54145 0.38922 0.0
C717 C 0.07445 0.55206 0.36249 0.0
C718 C 0.11581 0.5865 0.39418 0.0
C719 C 0.15605 0.59608 0.29265 0.0
C720 C 0.13649 0.59287 0.31585 0.0
C721 C 0.08257 0.56996 0.38389 0.0
C722 C 0.10045 0.57969 0.36027 0.0
H723 H 0.19855 0.57746 0.30324 0.0
H724 H 0.16833 0.57804 0.35075 0.0
H725 H 0.14547 0.59735 0.39927 0.0
H726 H 0.05391 0.5728 0.49469 0.0
H727 H 0.08037 0.59134 0.44796 0.0
C728 C 0.93704 0.8396 0.93682 0.0
C729 C 0.94906 0.82473 0.93794 0.0
C730 C 0.944 0.85796 0.91894 0.0
C731 C 0.98915 0.88962 0.90025 0.0
H732 H 0.95822 0.91818 0.80827 0.0
C733 C 0.01807 0.95527 0.77209 0.0
C734 C 0.0054 0.96892 0.76092 0.0
C735 C 0.01212 0.9395 0.80471 0.0
C736 C 0.96692 0.9106 0.83489 0.0
H737 H 0.97772 0.81739 0.92019 0.0
H738 H 0.98968 0.84928 0.88749 0.0
H739 H 0.94554 0.88636 0.83888 0.0
H740 H 0.97765 0.97829 0.77965 0.0
H741 H 0.96753 0.95122 0.83806 0.0
H742 H 0.01071 0.91382 0.89515 0.0
C743 C 0.97497 0.84682 0.90133 0.0
C744 C 0.95965 0.89229 0.85222 0.0
C745 C 0.96801 0.82846 0.91918 0.0
C746 C 0.98761 0.96782 0.78745 0.0
C747 C 0.98175 0.95223 0.82039 0.0
C748 C 0.99644 0.90798 0.88284 0.0
C749 C 0.96313 0.86185 0.9018 0.0
C750 C 0.97073 0.88153 0.8847 0.0
C751 C 0.9935 0.93733 0.82679 0.0
C752 C 0.98543 0.91862 0.8497 0.0
H753 H 0.92234 0.83713 0.95071 0.0
H754 H 0.93453 0.86926 0.91997 0.0
H755 H 0.99791 0.88178 0.92601 0.0
H756 H 0.03182 0.95578 0.75175 0.0
H757 H 0.02151 0.92826 0.80888 0.0
C758 C 0.70256 0.06703 0.87535 0.0
C759 C 0.70399 0.04741 0.88472 0.0
C760 C 0.68969 0.07234 0.83674 0.0
C761 C 0.64955 0.07522 0.79021 0.0
H762 H 0.63966 0.04508 0.65778 0.0
C763 C 0.5745 0.05263 0.70906 0.0
C764 C 0.5718 0.04885 0.65355 0.0
C765 C 0.59268 0.05907 0.7289 0.0
C766 C 0.64236 0.05404 0.69383 0.0
H767 H 0.69416 0.01802 0.86017 0.0
H768 H 0.67192 0.02716 0.79262 0.0
H769 H 0.66968 0.04387 0.70511 0.0
H770 H 0.58547 0.05021 0.57458 0.0
H771 H 0.61723 0.06175 0.60908 0.0
H772 H 0.62185 0.08479 0.78004 0.0
C773 C 0.68063 0.0385 0.81454 0.0
C774 C 0.65952 0.05319 0.72118 0.0
C775 C 0.69321 0.03323 0.85343 0.0
C776 C 0.58725 0.05285 0.61771 0.0
C777 C 0.60542 0.0594 0.63747 0.0
C778 C 0.63234 0.07609 0.76277 0.0
C779 C 0.67841 0.05807 0.80654 0.0
C780 C 0.66288 0.06303 0.77093 0.0
C781 C 0.60848 0.06193 0.69347 0.0
C782 C 0.6282 0.0648 0.71561 0.0
H783 H 0.71078 0.07814 0.89937 0.0
H784 H 0.68822 0.08753 0.83131 0.0
H785 H 0.65175 0.08295 0.82852 0.0
H786 H 0.56278 0.04968 0.73748 0.0
H787 H 0.59453 0.06063 0.7723 0.0
C788 C 0.5769 0.67655 0.91397 0.0
C789 C 0.5958 0.68048 0.9326 0.0
C790 C 0.5696 0.65779 0.89915 0.0
C791 C 0.5818 0.61037 0.85526 0.0
H792 H 0.53159 0.59295 0.91365 0.0
C793 C 0.54332 0.53698 0.78971 0.0
C794 C 0.52457 0.53815 0.7717 0.0
C795 C 0.55266 0.5519 0.82149 0.0
C796 C 0.5456 0.59758 0.897 0.0
H797 H 0.62217 0.66796 0.94762 0.0
H798 H 0.60936 0.63498 0.92072 0.0
H799 H 0.54736 0.62463 0.94037 0.0
H800 H 0.50027 0.55479 0.77654 0.0
H801 H 0.51649 0.58084 0.8315 0.0
H802 H 0.57973 0.58375 0.80995 0.0
C803 C 0.60024 0.64652 0.91816 0.0
C804 C 0.55461 0.61571 0.91223 0.0
C805 C 0.60754 0.66534 0.93351 0.0
C806 C 0.51473 0.55354 0.78994 0.0
C807 C 0.52406 0.56846 0.82159 0.0
C808 C 0.57271 0.59227 0.83963 0.0
C809 C 0.58103 0.64252 0.90236 0.0
C810 C 0.57256 0.62248 0.89042 0.0
C811 C 0.5434 0.56822 0.83574 0.0
C812 C 0.55428 0.58587 0.85928 0.0
H813 H 0.56737 0.68779 0.91354 0.0
H814 H 0.55483 0.65515 0.88618 0.0
H815 H 0.59562 0.61528 0.83781 0.0
H816 H 0.5512 0.52519 0.77637 0.0
H817 H 0.56742 0.55109 0.83268 0.0
C818 C 0.82562 0.4094 0.86074 0.0
C819 C 0.82226 0.40008 0.91048 0.0
C820 C 0.84309 0.40899 0.83386 0.0
C821 C 0.88038 0.40228 0.77746 0.0
H822 H 0.92223 0.42011 0.87392 0.0
C823 C 0.95499 0.42828 0.69435 0.0
C824 C 0.96213 0.44677 0.71356 0.0
C825 C 0.93975 0.41775 0.72075 0.0
C826 C 0.91072 0.41498 0.84656 0.0
H827 H 0.834 0.38136 0.96797 0.0
H828 H 0.86478 0.38108 0.92143 0.0
H829 H 0.89085 0.4089 0.91161 0.0
H830 H 0.95979 0.46837 0.77687 0.0
H831 H 0.93307 0.44997 0.82319 0.0
H832 H 0.89995 0.4093 0.71235 0.0
C833 C 0.85387 0.38884 0.90376 0.0
C834 C 0.89282 0.40837 0.86809 0.0
C835 C 0.83627 0.38907 0.9304 0.0
C836 C 0.95452 0.45413 0.76131 0.0
C837 C 0.9393 0.44355 0.7879 0.0
C838 C 0.8983 0.40876 0.75594 0.0
C839 C 0.85767 0.39937 0.85625 0.0
C840 C 0.87732 0.40255 0.83369 0.0
C841 C 0.93143 0.42548 0.76701 0.0
C842 C 0.91349 0.41575 0.79025 0.0
H843 H 0.81535 0.41824 0.84438 0.0
H844 H 0.84567 0.4174 0.79757 0.0
H845 H 0.8687 0.39778 0.75006 0.0
H846 H 0.96069 0.42224 0.6577 0.0
H847 H 0.93412 0.40377 0.70413 0.0
C848 C 0.05003 0.2043 0.81295 0.0
C849 C 0.06865 0.21346 0.80498 0.0
C850 C 0.04398 0.18682 0.78625 0.0
C851 C 0.05589 0.15335 0.67477 0.0
H852 H 0.02883 0.11448 0.76582 0.0
C853 C 0.02463 0.07834 0.59156 0.0
C854 C 0.02586 0.06216 0.62424 0.0
C855 C 0.02989 0.09705 0.61165 0.0
C856 C 0.03652 0.1251 0.73994 0.0
H857 H 0.09501 0.21209 0.75958 0.0
H858 H 0.08459 0.18147 0.71365 0.0
H859 H 0.0373 0.14706 0.80189 0.0
H860 H 0.03394 0.05312 0.70366 0.0
H861 H 0.04334 0.0858 0.7385 0.0
H862 H 0.05556 0.13119 0.6133 0.0
C863 C 0.07461 0.1878 0.74046 0.0
C864 C 0.04112 0.14389 0.76036 0.0
C865 C 0.08065 0.20531 0.7671 0.0
C866 C 0.03274 0.06521 0.67737 0.0
C867 C 0.03801 0.08397 0.69748 0.0
C868 C 0.05129 0.13453 0.65433 0.0
C869 C 0.05641 0.17805 0.75097 0.0
C870 C 0.05088 0.15827 0.72809 0.0
C871 C 0.03654 0.10014 0.66496 0.0
C872 C 0.04158 0.12015 0.68672 0.0
H873 H 0.04045 0.21002 0.84216 0.0
H874 H 0.02973 0.1799 0.79447 0.0
H875 H 0.06332 0.16407 0.64869 0.0
H876 H 0.01938 0.07662 0.55044 0.0
H877 H 0.02833 0.10915 0.58568 0.0
C878 C 0.32166 0.02388 0.81282 0.0
C879 C 0.31084 0.00571 0.80749 0.0
C880 C 0.3392 0.02771 0.78568 0.0
C881 C 0.37136 0.00724 0.68165 0.0
H882 H 0.41128 0.03657 0.76589 0.0
C883 C 0.45243 0.00176 0.65072 0.0
C884 C 0.46432 0.01927 0.64691 0.0
C885 C 0.4331 0.00168 0.66482 0.0
C886 C 0.40024 0.02851 0.74165 0.0
H887 H 0.30937 0.97796 0.76523 0.0
H888 H 0.34015 0.98415 0.7206 0.0
H889 H 0.37835 0.03399 0.79845 0.0
H890 H 0.46545 0.05041 0.65619 0.0
H891 H 0.43175 0.05022 0.68292 0.0
H892 H 0.39371 0.00094 0.62649 0.0
C893 C 0.33512 0.99566 0.74508 0.0
C894 C 0.38127 0.02712 0.76005 0.0
C895 C 0.31747 0.99197 0.77146 0.0
C896 C 0.4566 0.0367 0.65863 0.0
C897 C 0.43735 0.0366 0.6739 0.0
C898 C 0.39041 0.00834 0.66384 0.0
C899 C 0.34656 0.01338 0.75302 0.0
C900 C 0.36652 0.01628 0.73066 0.0
C901 C 0.42538 0.01909 0.67682 0.0
C902 C 0.40505 0.01885 0.69392 0.0
H903 H 0.31714 0.03486 0.84023 0.0
H904 H 0.34725 0.04174 0.79174 0.0
H905 H 0.36048 0.99913 0.65708 0.0
H906 H 0.45805 0.98808 0.64288 0.0
H907 H 0.42427 0.98796 0.66749 0.0
C908 C 0.44618 0.30136 0.77119 0.0
C909 C 0.4569 0.29445 0.81313 0.0
C910 C 0.45244 0.3187 0.74567 0.0
C911 C 0.48446 0.3641 0.77081 0.0
H912 H 0.47064 0.37466 0.62365 0.0
C913 C 0.49097 0.4421 0.68993 0.0
C914 C 0.4958 0.44488 0.63515 0.0
C915 C 0.48705 0.42339 0.71013 0.0
C916 C 0.47488 0.37198 0.66463 0.0
H917 H 0.4834 0.29992 0.85826 0.0
H918 H 0.49479 0.32944 0.81175 0.0
H919 H 0.46396 0.34214 0.65778 0.0
H920 H 0.50083 0.43016 0.55897 0.0
H921 H 0.49471 0.39777 0.59433 0.0
H922 H 0.49604 0.39376 0.77701 0.0
C923 C 0.48114 0.32185 0.79995 0.0
C924 C 0.47077 0.35329 0.68454 0.0
C925 C 0.47475 0.30463 0.82599 0.0
C926 C 0.49689 0.42856 0.60125 0.0
C927 C 0.49326 0.40991 0.62155 0.0
C928 C 0.4888 0.38273 0.75067 0.0
C929 C 0.46976 0.32949 0.76075 0.0
C930 C 0.47532 0.3491 0.73811 0.0
C931 C 0.48816 0.40701 0.6762 0.0
C932 C 0.48392 0.38701 0.69743 0.0
H933 H 0.43253 0.29376 0.75943 0.0
H934 H 0.44318 0.32404 0.71589 0.0
H935 H 0.48794 0.36162 0.81255 0.0
H936 H 0.48994 0.45436 0.71706 0.0
H937 H 0.48287 0.42182 0.75221 0.0
C938 C 0.19621 0.49706 0.86778 0.0
C939 C 0.20821 0.51397 0.85553 0.0
C940 C 0.17954 0.49168 0.83787 0.0
C941 C 0.15244 0.50457 0.7147 0.0
H942 H 0.10883 0.48253 0.79811 0.0
C943 C 0.07741 0.49206 0.61826 0.0
C944 C 0.06142 0.49417 0.65134 0.0
C945 C 0.09556 0.49175 0.64089 0.0
C946 C 0.12074 0.48895 0.7742 0.0
H947 H 0.21278 0.53744 0.79866 0.0
H948 H 0.18344 0.52892 0.74927 0.0
H949 H 0.14012 0.48708 0.83952 0.0
H950 H 0.05182 0.49765 0.73401 0.0
H951 H 0.08353 0.49833 0.77353 0.0
H952 H 0.13287 0.50796 0.65094 0.0
C953 C 0.18687 0.51948 0.78125 0.0
C954 C 0.13893 0.49118 0.79775 0.0
C955 C 0.2037 0.5246 0.81035 0.0
C956 C 0.06389 0.49586 0.70759 0.0
C957 C 0.08214 0.49608 0.73021 0.0
C958 C 0.1342 0.50278 0.69161 0.0
C959 C 0.17421 0.50323 0.79545 0.0
C960 C 0.15507 0.49924 0.76861 0.0
C961 C 0.09833 0.4941 0.69721 0.0
C962 C 0.11799 0.4951 0.72111 0.0
H963 H 0.19909 0.48847 0.90226 0.0
H964 H 0.17058 0.47874 0.84923 0.0
H965 H 0.16444 0.51043 0.69019 0.0
H966 H 0.07587 0.49048 0.57473 0.0
H967 H 0.10739 0.48964 0.61394 0.0
C968 C 0.94203 0.80152 0.36443 0.0
C969 C 0.95502 0.79342 0.3294 0.0
C970 C 0.94668 0.81982 0.38838 0.0
C971 C 0.96193 0.85652 0.44976 0.0
H972 H 0.99123 0.89427 0.36002 0.0
C973 C 0.98804 0.93319 0.53045 0.0
C974 C 0.98869 0.94881 0.49488 0.0
C975 C 0.98391 0.91417 0.51141 0.0
C976 C 0.98285 0.88401 0.38544 0.0
H977 H 0.98364 0.79798 0.29493 0.0
H978 H 0.99205 0.82923 0.33874 0.0
H979 H 0.98443 0.86111 0.32722 0.0
H980 H 0.98522 0.95658 0.41126 0.0
H981 H 0.97746 0.92338 0.37811 0.0
H982 H 0.95966 0.87962 0.507 0.0
C983 C 0.97799 0.82175 0.34632 0.0
C984 C 0.97922 0.86483 0.36701 0.0
C985 C 0.97327 0.80356 0.32197 0.0
C986 C 0.9849 0.94491 0.43974 0.0
C987 C 0.98058 0.92583 0.42071 0.0
C988 C 0.96542 0.87574 0.46801 0.0
C989 C 0.96454 0.83043 0.37841 0.0
C990 C 0.96876 0.85078 0.39895 0.0
C991 C 0.98011 0.91018 0.45628 0.0
C992 C 0.97599 0.88976 0.43619 0.0
H993 H 0.92795 0.79405 0.37181 0.0
H994 H 0.9359 0.82596 0.41272 0.0
H995 H 0.95396 0.84615 0.47575 0.0
H996 H 0.99106 0.93557 0.57314 0.0
H997 H 0.98407 0.90257 0.53995 0.0
C998 C 0.68209 0.96296 0.30245 0.0
C999 C 0.69446 0.97994 0.29401 0.0
C1000 C 0.66523 0.9635 0.33283 0.0
C1001 C 0.63012 0.99693 0.36871 0.0
H1002 H 0.61079 0.9579 0.47102 0.0
C1003 C 0.55886 0.00212 0.48335 0.0
C1004 C 0.54706 0.98488 0.49244 0.0
C1005 C 0.57755 0.00168 0.46371 0.0
C1006 C 0.61584 0.96881 0.44207 0.0
H1007 H 0.69904 0.0107 0.31232 0.0
H1008 H 0.66972 0.0116 0.36542 0.0
H1009 H 0.64234 0.95657 0.42982 0.0
H1010 H 0.54546 0.95363 0.48765 0.0
H1011 H 0.57777 0.95278 0.45161 0.0
H1012 H 0.60355 0.00887 0.3792 0.0
C1013 C 0.67303 0.99788 0.34839 0.0
C1014 C 0.63398 0.96807 0.41866 0.0
C1015 C 0.68996 0.99731 0.3185 0.0
C1016 C 0.55428 0.96717 0.48126 0.0
C1017 C 0.5729 0.96671 0.46106 0.0
C1018 C 0.61194 0.99757 0.39162 0.0
C1019 C 0.66027 0.98107 0.35493 0.0
C1020 C 0.64132 0.98212 0.38165 0.0
C1021 C 0.58481 0.98397 0.45184 0.0
C1022 C 0.60448 0.9835 0.42857 0.0
H1023 H 0.68519 0.94934 0.2843 0.0
H1024 H 0.65567 0.9503 0.33696 0.0
H1025 H 0.63521 0.00779 0.3396 0.0
H1026 H 0.55359 0.01599 0.49072 0.0
H1027 H 0.5863 0.01529 0.45793 0.0
C1028 C 0.5438 0.69799 0.31504 0.0
C1029 C 0.56207 0.70799 0.32394 0.0
C1030 C 0.53812 0.68068 0.34157 0.0
C1031 C 0.55885 0.63937 0.39386 0.0
H1032 H 0.50971 0.62576 0.46342 0.0
C1033 C 0.52973 0.56069 0.4472 0.0
C1034 C 0.52351 0.55811 0.50104 0.0
C1035 C 0.53401 0.57932 0.42681 0.0
C1036 C 0.52348 0.6294 0.44409 0.0
H1037 H 0.58797 0.70829 0.37151 0.0
H1038 H 0.57824 0.67781 0.41632 0.0
H1039 H 0.5177 0.65849 0.42876 0.0
H1040 H 0.51644 0.57306 0.57523 0.0
H1041 H 0.52353 0.60549 0.53914 0.0
H1042 H 0.5645 0.61022 0.40814 0.0
C1043 C 0.56844 0.68336 0.38837 0.0
C1044 C 0.52801 0.64806 0.42419 0.0
C1045 C 0.574 0.7008 0.36257 0.0
C1046 C 0.52134 0.57454 0.53369 0.0
C1047 C 0.52526 0.59312 0.51299 0.0
C1048 C 0.55418 0.62063 0.4128 0.0
C1049 C 0.55066 0.67287 0.37705 0.0
C1050 C 0.5458 0.65325 0.39918 0.0
C1051 C 0.53177 0.59571 0.4595 0.0
C1052 C 0.53648 0.61548 0.43829 0.0
H1053 H 0.53427 0.70286 0.28519 0.0
H1054 H 0.52434 0.67285 0.33202 0.0
H1055 H 0.57258 0.64293 0.3742 0.0
H1056 H 0.53154 0.54834 0.42106 0.0
H1057 H 0.53892 0.58094 0.3853 0.0
C1058 C 0.81078 0.47214 0.33633 0.0
C1059 C 0.80658 0.48285 0.29101 0.0
C1060 C 0.8276 0.47697 0.36572 0.0
C1061 C 0.87596 0.50453 0.35016 0.0
H1062 H 0.88136 0.48756 0.49708 0.0
C1063 C 0.95058 0.49895 0.44189 0.0
C1064 C 0.95294 0.5006 0.49818 0.0
C1065 C 0.93241 0.49888 0.41891 0.0
C1066 C 0.88022 0.49279 0.45638 0.0
H1067 H 0.81625 0.50821 0.24431 0.0
H1068 H 0.84474 0.51747 0.29785 0.0
H1069 H 0.84992 0.48559 0.45716 0.0
H1070 H 0.93835 0.50437 0.57452 0.0
H1071 H 0.90695 0.50548 0.53472 0.0
H1072 H 0.90613 0.51278 0.35047 0.0
C1073 C 0.83554 0.50466 0.3091 0.0
C1074 C 0.86205 0.49128 0.4329 0.0
C1075 C 0.81889 0.49956 0.27889 0.0
C1076 C 0.93689 0.5028 0.53098 0.0
C1077 C 0.91882 0.50327 0.50799 0.0
C1078 C 0.89408 0.5065 0.37412 0.0
C1079 C 0.84055 0.49301 0.3517 0.0
C1080 C 0.85965 0.49669 0.37894 0.0
C1081 C 0.91618 0.501 0.4516 0.0
C1082 C 0.8966 0.50027 0.42725 0.0
H1083 H 0.80145 0.45946 0.34795 0.0
H1084 H 0.83076 0.46746 0.39782 0.0
H1085 H 0.87496 0.50868 0.30837 0.0
H1086 H 0.96271 0.49709 0.41569 0.0
H1087 H 0.93112 0.49667 0.37556 0.0
loop_
_geom_bond_atom_site_label_1
_geom_bond_atom_site_label_2
_geom_bond_distance
_geom_bond_site_symmetry_2
_ccdc_geom_bond_type
C0 C1 1.384 . S
C0 H13 0.947 . S
C0 C35 1.382 . S
C1 C0 1.384 . S
C1 C2 1.378 . S
C2 C1 1.378 . S
C2 C3 1.378 . S
C2 H14 0.952 . S
C3 C2 1.378 . S
C3 H15 0.950 . S
C3 C34 1.383 . S
H4 C23 0.947 . S
H5 C24 0.946 . S
H6 C26 0.953 . S
H7 C27 0.945 . S
H8 C29 0.952 . S
H9 C30 0.949 . S
H10 C32 0.950 . S
H11 C33 0.948 . S
H12 C35 0.951 . S
H13 C0 0.947 . S
H14 C2 0.952 . S
H15 C3 0.950 . S
N16 C19 1.382 . S
N16 C21 1.363 . S
N17 C19 1.371 1_556 S
N17 C20 1.372 . S
N18 C20 1.361 1_554 S
N18 C21 1.377 . S
C19 N16 1.382 . S
C19 N17 1.371 1_554 S
C19 C22 1.480 1_554 S
C20 N17 1.372 . S
C20 N18 1.361 1_556 S
C20 C28 1.457 . S
C21 N16 1.363 . S
C21 N18 1.377 . S
C21 C34 1.479 . S
C22 C19 1.480 1_556 S
C22 C23 1.383 1_556 S
C22 C27 1.385 . S
C23 H4 0.947 . S
C23 C22 1.383 1_554 S
C23 C24 1.388 . S
C24 H5 0.946 . S
C24 C23 1.388 . S
C24 C25 1.384 1_554 S
C25 C24 1.384 1_556 S
C25 C26 1.377 . S
C26 H6 0.953 . S
C26 C25 1.377 . S
C26 C27 1.369 . S
C27 H7 0.945 . S
C27 C22 1.385 . S
C27 C26 1.369 . S
C28 C20 1.457 . S
C28 C29 1.372 . S
C28 C33 1.364 . S
C29 H8 0.952 . S
C29 C28 1.372 . S
C29 C30 1.389 . S
C30 H9 0.949 . S
C30 C29 1.389 . S
C30 C31 1.387 . S
C31 C30 1.387 . S
C31 C32 1.372 . S
C32 H10 0.950 . S
C32 C31 1.372 . S
C32 C33 1.379 . S
C33 H11 0.948 . S
C33 C28 1.364 . S
C33 C32 1.379 . S
C34 C3 1.383 . S
C34 C21 1.479 . S
C34 C35 1.398 . S
C35 C0 1.382 . S
C35 H12 0.951 . S
C35 C34 1.398 . S
C36 C37 1.384 . S
C36 H49 0.947 . S
C36 C71 1.382 . S
C37 C36 1.384 . S
C37 C38 1.378 . S
C38 C37 1.378 . S
C38 C39 1.378 . S
C38 H50 0.952 . S
C39 C38 1.378 . S
C39 H51 0.950 . S
C39 C70 1.383 . S
H40 C59 0.947 . S
H41 C60 0.946 . S
H42 C62 0.953 . S
H43 C63 0.945 . S
H44 C65 0.952 . S
H45 C66 0.949 . S
H46 C68 0.950 . S
H47 C69 0.948 . S
H48 C71 0.951 . S
H49 C36 0.947 . S
H50 C38 0.952 . S
H51 C39 0.950 . S
N52 C55 1.382 1_554 S
N52 C57 1.363 . S
N53 C55 1.371 . S
N53 C56 1.372 . S
N54 C56 1.361 1_554 S
N54 C57 1.377 . S
C55 N52 1.382 1_556 S
C55 N53 1.371 . S
C55 C58 1.480 . S
C56 N53 1.372 . S
C56 N54 1.361 1_556 S
C56 C64 1.457 . S
C57 N52 1.363 . S
C57 N54 1.377 . S
C57 C70 1.479 . S
C58 C55 1.480 . S
C58 C59 1.383 1_556 S
C58 C63 1.385 . S
C59 H40 0.947 . S
C59 C58 1.383 1_554 S
C59 C60 1.388 . S
C60 H41 0.946 . S
C60 C59 1.388 . S
C60 C61 1.384 1_554 S
C61 C60 1.384 1_556 S
C61 C62 1.377 . S
C62 H42 0.953 . S
C62 C61 1.377 . S
C62 C63 1.369 . S
C63 H43 0.945 . S
C63 C58 1.385 . S
C63 C62 1.369 . S
C64 C56 1.457 . S
C64 C65 1.372 . S
C64 C69 1.364 . S
C65 H44 0.952 . S
C65 C64 1.372 . S
C65 C66 1.389 . S
C66 H45 0.949 . S
C66 C65 1.389 . S
C66 C67 1.387 . S
C67 C66 1.387 . S
C67 C68 1.372 . S
C68 H46 0.950 . S
C68 C67 1.372 . S
C68 C69 1.379 . S
C69 H47 0.948 . S
C69 C64 1.364 . S
C69 C68 1.379 . S
C70 C39 1.383 . S
C70 C57 1.479 . S
C70 C71 1.398 . S
C71 C36 1.382 . S
C71 H48 0.951 . S
C71 C70 1.398 . S
C72 C73 1.384 1_565 S
C72 H85 0.947 . S
C72 C107 1.382 1_565 S
C73 C72 1.384 1_545 S
C73 C74 1.378 . S
C74 C73 1.378 . S
C74 C75 1.378 . S
C74 H86 0.952 . S
C75 C74 1.378 . S
C75 H87 0.950 . S
C75 C106 1.383 . S
H76 C95 0.947 . S
H77 C96 0.954 . S
H78 C98 0.953 . S
H79 C99 0.945 . S
H80 C101 0.947 1_565 S
H81 C102 0.957 . S
H82 C104 0.950 . S
H83 C105 0.948 1_554 S
H84 C107 0.951 1_565 S
H85 C72 0.947 . S
H86 C74 0.952 . S
H87 C75 0.950 . S
N88 C91 1.382 . S
N88 C93 1.363 . S
N89 C91 1.371 1_556 S
N89 C92 1.372 . S
N90 C92 1.361 1_554 S
N90 C93 1.377 . S
C91 N88 1.382 . S
C91 N89 1.371 1_554 S
C91 C94 1.480 . S
C92 N89 1.372 . S
C92 N90 1.361 1_556 S
C92 C100 1.457 . S
C93 N88 1.363 . S
C93 N90 1.377 . S
C93 C106 1.479 . S
C94 C91 1.480 . S
C94 C95 1.383 . S
C94 C99 1.385 1_554 S
C95 H76 0.947 . S
C95 C94 1.383 . S
C95 C96 1.383 1_545 S
C96 H77 0.954 . S
C96 C95 1.383 1_565 S
C96 C97 1.382 1_564 S
C97 C96 1.382 1_546 S
C97 C98 1.377 . S
C98 H78 0.953 . S
C98 C97 1.377 . S
C98 C99 1.369 . S
C99 H79 0.945 . S
C99 C94 1.385 1_556 S
C99 C98 1.369 . S
C100 C92 1.457 . S
C100 C101 1.376 . S
C100 C105 1.364 . S
C101 H80 0.947 1_545 S
C101 C100 1.376 . S
C101 C102 1.392 1_545 S
C102 H81 0.957 . S
C102 C101 1.392 1_565 S
C102 C103 1.378 1_565 S
C103 C102 1.378 1_545 S
C103 C104 1.372 . S
C104 H82 0.950 . S
C104 C103 1.372 . S
C104 C105 1.379 . S
C105 H83 0.948 1_556 S
C105 C100 1.364 . S
C105 C104 1.379 . S
C106 C75 1.383 . S
C106 C93 1.479 . S
C106 C107 1.398 . S
C107 C72 1.382 1_545 S
C107 H84 0.951 1_545 S
C107 C106 1.398 . S
C108 C109 1.384 . S
C108 H121 0.947 . S
C108 C143 1.382 . S
C109 C108 1.384 . S
C109 C110 1.378 . S
C110 C109 1.378 . S
C110 C111 1.378 . S
C110 H122 0.952 . S
C111 C110 1.378 . S
C111 H123 0.950 . S
C111 C142 1.383 . S
H112 C131 0.947 . S
H113 C132 0.946 . S
H114 C134 0.953 . S
H115 C135 0.945 . S
H116 C137 0.952 . S
H117 C138 0.949 . S
H118 C140 0.950 . S
H119 C141 0.948 . S
H120 C143 0.951 1_554 S
H121 C108 0.947 . S
H122 C110 0.952 . S
H123 C111 0.950 . S
N124 C127 1.382 . S
N124 C129 1.363 . S
N125 C127 1.371 . S
N125 C128 1.372 . S
N126 C128 1.361 . S
N126 C129 1.377 . S
C127 N124 1.382 . S
C127 N125 1.371 . S
C127 C130 1.480 . S
C128 N125 1.372 . S
C128 N126 1.361 . S
C128 C136 1.457 . S
C129 N124 1.363 . S
C129 N126 1.377 . S
C129 C142 1.479 1_554 S
C130 C127 1.480 . S
C130 C131 1.383 1_554 S
C130 C135 1.385 . S
C131 H112 0.947 . S
C131 C130 1.383 1_556 S
C131 C132 1.388 . S
C132 H113 0.946 . S
C132 C131 1.388 . S
C132 C133 1.384 1_556 S
C133 C132 1.384 1_554 S
C133 C134 1.377 . S
C134 H114 0.953 . S
C134 C133 1.377 . S
C134 C135 1.369 . S
C135 H115 0.945 . S
C135 C130 1.385 . S
C135 C134 1.369 . S
C136 C128 1.457 . S
C136 C137 1.372 . S
C136 C141 1.364 . S
C137 H116 0.952 . S
C137 C136 1.372 . S
C137 C138 1.389 . S
C138 H117 0.949 . S
C138 C137 1.389 . S
C138 C139 1.387 . S
C139 C138 1.387 . S
C139 C140 1.372 . S
C140 H118 0.950 . S
C140 C139 1.372 . S
C140 C141 1.379 . S
C141 H119 0.948 . S
C141 C136 1.364 . S
C141 C140 1.379 . S
C142 C111 1.383 . S
C142 C129 1.479 1_556 S
C142 C143 1.398 . S
C143 C108 1.382 . S
C143 H120 0.951 1_556 S
C143 C142 1.398 . S
C144 C145 1.384 . S
C144 H157 0.947 . S
C144 C179 1.382 . S
C145 C144 1.384 . S
C145 C146 1.378 . S
C146 C145 1.378 . S
C146 C147 1.378 . S
C146 H158 0.952 . S
C147 C146 1.378 . S
C147 H159 0.950 . S
C147 C178 1.383 1_556 S
H148 C167 0.947 . S
H149 C168 0.946 . S
H150 C170 0.953 . S
H151 C171 0.945 . S
H152 C173 0.952 . S
H153 C174 0.949 . S
H154 C176 0.950 . S
H155 C177 0.948 . S
H156 C179 0.951 1_554 S
H157 C144 0.947 . S
H158 C146 0.952 . S
H159 C147 0.950 . S
N160 C163 1.382 . S
N160 C165 1.363 . S
N161 C163 1.371 . S
N161 C164 1.372 . S
N162 C164 1.361 . S
N162 C165 1.377 . S
C163 N160 1.382 . S
C163 N161 1.371 . S
C163 C166 1.480 . S
C164 N161 1.372 . S
C164 N162 1.361 . S
C164 C172 1.457 . S
C165 N160 1.363 . S
C165 N162 1.377 . S
C165 C178 1.479 . S
C166 C163 1.480 . S
C166 C167 1.383 . S
C166 C171 1.385 . S
C167 H148 0.947 . S
C167 C166 1.383 . S
C167 C168 1.388 . S
C168 H149 0.946 . S
C168 C167 1.388 . S
C168 C169 1.384 . S
C169 C168 1.384 . S
C169 C170 1.377 . S
C170 H150 0.953 . S
C170 C169 1.377 . S
C170 C171 1.369 . S
C171 H151 0.945 . S
C171 C166 1.385 . S
C171 C170 1.369 . S
C172 C164 1.457 . S
C172 C173 1.372 . S
C172 C177 1.364 . S
C173 H152 0.952 . S
C173 C172 1.372 . S
C173 C174 1.389 . S
C174 H153 0.949 . S
C174 C173 1.389 . S
C174 C175 1.387 . S
C175 C174 1.387 . S
C175 C176 1.372 . S
C176 H154 0.950 . S
C176 C175 1.372 . S
C176 C177 1.379 . S
C177 H155 0.948 . S
C177 C172 1.364 . S
C177 C176 1.379 . S
C178 C147 1.383 1_554 S
C178 C165 1.479 . S
C178 C179 1.398 1_554 S
C179 C144 1.382 . S
C179 H156 0.951 1_556 S
C179 C178 1.398 1_556 S
C180 C181 1.384 . S
C180 H193 0.947 . S
C180 C215 1.382 1_556 S
C181 C180 1.384 . S
C181 C182 1.378 . S
C182 C181 1.378 . S
C182 C183 1.378 . S
C182 H194 0.952 . S
C183 C182 1.378 . S
C183 H195 0.950 . S
C183 C214 1.383 1_556 S
H184 C203 0.947 . S
H185 C204 0.946 . S
H186 C206 0.953 . S
H187 C207 0.945 . S
H188 C209 0.952 . S
H189 C210 0.949 . S
H190 C212 0.950 . S
H191 C213 0.948 . S
H192 C215 0.951 . S
H193 C180 0.947 . S
H194 C182 0.952 . S
H195 C183 0.950 . S
N196 C199 1.382 . S
N196 C201 1.363 . S
N197 C199 1.371 . S
N197 C200 1.372 . S
N198 C200 1.361 . S
N198 C201 1.377 . S
C199 N196 1.382 . S
C199 N197 1.371 . S
C199 C202 1.480 . S
C200 N197 1.372 . S
C200 N198 1.361 . S
C200 C208 1.457 . S
C201 N196 1.363 . S
C201 N198 1.377 . S
C201 C214 1.479 . S
C202 C199 1.480 . S
C202 C203 1.383 . S
C202 C207 1.385 . S
C203 H184 0.947 . S
C203 C202 1.383 . S
C203 C204 1.388 . S
C204 H185 0.946 . S
C204 C203 1.388 . S
C204 C205 1.384 . S
C205 C204 1.384 . S
C205 C206 1.377 . S
C206 H186 0.953 . S
C206 C205 1.377 . S
C206 C207 1.369 . S
C207 H187 0.945 . S
C207 C202 1.385 . S
C207 C206 1.369 . S
C208 C200 1.457 . S
C208 C209 1.372 . S
C208 C213 1.364 . S
C209 H188 0.952 . S
C209 C208 1.372 . S
C209 C210 1.389 . S
C210 H189 0.949 . S
C210 C209 1.389 . S
C210 C211 1.387 . S
C211 C210 1.387 . S
C211 C212 1.372 . S
C212 H190 0.950 . S
C212 C211 1.372 . S
C212 C213 1.379 . S
C213 H191 0.948 . S
C213 C208 1.364 . S
C213 C212 1.379 . S
C214 C183 1.383 1_554 S
C214 C201 1.479 . S
C214 C215 1.398 . S
C215 C180 1.382 1_554 S
C215 H192 0.951 . S
C215 C214 1.398 . S
C216 C217 1.383 . S
C216 H229 0.948 1_545 S
C216 C251 1.381 . S
C217 C216 1.383 . S
C217 C218 1.378 . S
C218 C217 1.378 . S
C218 C219 1.378 . S
C218 H230 0.952 . S
C219 C218 1.378 . S
C219 H231 0.950 . S
C219 C250 1.383 . S
H220 C239 0.947 . S
H221 C240 0.947 . S
H222 C242 0.953 . S
H223 C243 0.945 . S
H224 C245 0.951 1_565 S
H225 C246 0.953 . S
H226 C248 0.950 . S
H227 C249 0.948 . S
H228 C251 0.949 1_564 S
H229 C216 0.948 1_565 S
H230 C218 0.952 . S
H231 C219 0.950 . S
N232 C235 1.382 . S
N232 C237 1.363 . S
N233 C235 1.371 . S
N233 C236 1.372 . S
N234 C236 1.361 . S
N234 C237 1.377 . S
C235 N232 1.382 . S
C235 N233 1.371 . S
C235 C238 1.480 . S
C236 N233 1.372 . S
C236 N234 1.361 . S
C236 C244 1.457 . S
C237 N232 1.363 . S
C237 N234 1.377 . S
C237 C250 1.479 1_554 S
C238 C235 1.480 . S
C238 C239 1.383 . S
C238 C243 1.385 . S
C239 H220 0.947 . S
C239 C238 1.383 . S
C239 C240 1.388 1_545 S
C240 H221 0.947 . S
C240 C239 1.388 1_565 S
C240 C241 1.382 1_565 S
C241 C240 1.382 1_545 S
C241 C242 1.377 . S
C242 H222 0.953 . S
C242 C241 1.377 . S
C242 C243 1.369 . S
C243 H223 0.945 . S
C243 C238 1.385 . S
C243 C242 1.369 . S
C244 C236 1.457 . S
C244 C245 1.378 . S
C244 C249 1.364 . S
C245 H224 0.951 1_545 S
C245 C244 1.378 . S
C245 C246 1.381 1_545 S
C246 H225 0.953 . S
C246 C245 1.381 1_565 S
C246 C247 1.387 1_565 S
C247 C246 1.387 1_545 S
C247 C248 1.372 . S
C248 H226 0.950 . S
C248 C247 1.372 . S
C248 C249 1.379 . S
C249 H227 0.948 . S
C249 C244 1.364 . S
C249 C248 1.379 . S
C250 C219 1.383 . S
C250 C237 1.479 1_556 S
C250 C251 1.400 . S
C251 C216 1.381 . S
C251 H228 0.949 1_546 S
C251 C250 1.400 . S
C252 C253 1.384 . S
C252 H265 0.947 . S
C252 C287 1.382 . S
C253 C252 1.384 . S
C253 C254 1.378 . S
C254 C253 1.378 . S
C254 C255 1.378 . S
C254 H266 0.952 . S
C255 C254 1.378 . S
C255 H267 0.950 . S
C255 C286 1.383 . S
H256 C275 0.947 . S
H257 C276 0.946 . S
H258 C278 0.953 . S
H259 C279 0.945 . S
H260 C281 0.952 . S
H261 C282 0.949 . S
H262 C284 0.950 . S
H263 C285 0.948 . S
H264 C287 0.951 . S
H265 C252 0.947 . S
H266 C254 0.952 . S
H267 C255 0.950 . S
N268 C271 1.382 . S
N268 C273 1.363 . S
N269 C271 1.371 . S
N269 C272 1.372 . S
N270 C272 1.361 . S
N270 C273 1.377 . S
C271 N268 1.382 . S
C271 N269 1.371 . S
C271 C274 1.480 . S
C272 N269 1.372 . S
C272 N270 1.361 . S
C272 C280 1.457 1_554 S
C273 N268 1.363 . S
C273 N270 1.377 . S
C273 C286 1.479 . S
C274 C271 1.480 . S
C274 C275 1.383 . S
C274 C279 1.385 . S
C275 H256 0.947 . S
C275 C274 1.383 . S
C275 C276 1.388 . S
C276 H257 0.946 . S
C276 C275 1.388 . S
C276 C277 1.384 . S
C277 C276 1.384 . S
C277 C278 1.377 . S
C278 H258 0.953 . S
C278 C277 1.377 . S
C278 C279 1.369 . S
C279 H259 0.945 . S
C279 C274 1.385 . S
C279 C278 1.369 . S
C280 C272 1.457 1_556 S
C280 C281 1.372 . S
C280 C285 1.364 . S
C281 H260 0.952 . S
C281 C280 1.372 . S
C281 C282 1.389 . S
C282 H261 0.949 . S
C282 C281 1.389 . S
C282 C283 1.387 . S
C283 C282 1.387 . S
C283 C284 1.372 . S
C284 H262 0.950 . S
C284 C283 1.372 . S
C284 C285 1.379 . S
C285 H263 0.948 . S
C285 C280 1.364 . S
C285 C284 1.379 . S
C286 C255 1.383 . S
C286 C273 1.479 . S
C286 C287 1.398 . S
C287 C252 1.382 . S
C287 H264 0.951 . S
C287 C286 1.398 . S
Dy288 O292 2.398 . S
Dy288 O293 2.491 1_455 S
Dy288 O294 2.403 . S
Dy288 O295 2.664 1_565 S
Dy288 O299 2.326 . S
Dy288 O303 2.310 1_455 S
Dy288 O304 2.351 1_565 S
C289 O300 1.185 1_455 S
C289 O301 1.355 . S
C290 O292 1.185 . S
C290 O293 1.355 1_455 S
Dy291 O295 2.284 1_655 S
Dy291 O298 2.357 1_545 S
Dy291 O300 2.406 . S
Dy291 O301 2.473 1_655 S
Dy291 O302 2.429 . S
Dy291 O303 2.673 1_545 S
Dy291 O305 2.320 1_655 S
O292 Dy288 2.398 . S
O292 C290 1.185 . S
O293 Dy288 2.491 1_655 S
O293 C290 1.355 1_655 S
O294 Dy288 2.403 . S
O294 C296 1.254 . S
O295 Dy288 2.664 1_545 S
O295 Dy291 2.284 1_455 S
O295 C296 1.268 1_545 S
C296 O294 1.254 . S
C296 O295 1.268 1_565 S
C297 O302 1.254 . S
C297 O303 1.268 1_545 S
O298 Dy291 2.357 1_565 S
O298 C306 1.249 . S
O299 Dy288 2.326 . S
O299 C306 1.267 1_455 S
O300 C289 1.185 1_655 S
O300 Dy291 2.406 . S
O301 C289 1.355 . S
O301 Dy291 2.473 1_455 S
O302 Dy291 2.429 . S
O302 C297 1.254 . S
O303 Dy288 2.310 1_655 S
O303 Dy291 2.673 1_565 S
O303 C297 1.268 1_565 S
O304 Dy288 2.351 1_545 S
O304 C307 1.249 . S
O305 Dy291 2.320 1_455 S
O305 C307 1.267 . S
C306 O298 1.249 . S
C306 O299 1.267 1_655 S
C307 O304 1.249 . S
C307 O305 1.267 . S
Dy308 O312 2.398 . S
Dy308 O313 2.491 . S
Dy308 O314 2.403 . S
Dy308 O315 2.664 . S
Dy308 O319 2.326 1_565 S
Dy308 O323 2.310 1_565 S
Dy308 O324 2.351 . S
C309 O320 1.185 . S
C309 O321 1.355 . S
C310 O312 1.185 . S
C310 O313 1.355 . S
Dy311 O315 2.310 1_545 S
Dy311 O318 2.351 . S
Dy311 O320 2.398 . S
Dy311 O321 2.491 . S
Dy311 O322 2.403 . S
Dy311 O323 2.664 . S
Dy311 O325 2.326 1_545 S
O312 Dy308 2.398 . S
O312 C310 1.185 . S
O313 Dy308 2.491 . S
O313 C310 1.355 . S
O314 Dy308 2.403 . S
O314 C316 1.254 . S
O315 Dy308 2.664 . S
O315 Dy311 2.310 1_565 S
O315 C316 1.268 . S
C316 O314 1.254 . S
C316 O315 1.268 . S
C317 O322 1.254 . S
C317 O323 1.268 . S
O318 Dy311 2.351 . S
O318 C326 1.249 . S
O319 Dy308 2.326 1_545 S
O319 C326 1.267 . S
O320 C309 1.185 . S
O320 Dy311 2.398 . S
O321 C309 1.355 . S
O321 Dy311 2.491 . S
O322 Dy311 2.403 . S
O322 C317 1.254 . S
O323 Dy308 2.310 1_545 S
O323 Dy311 2.664 . S
O323 C317 1.268 . S
O324 Dy308 2.351 . S
O324 C327 1.249 . S
O325 Dy311 2.326 1_565 S
O325 C327 1.267 . S
C326 O318 1.249 . S
C326 O319 1.267 . S
C327 O324 1.249 . S
C327 O325 1.267 . S
Dy328 O332 2.398 . S
Dy328 O333 2.491 . S
Dy328 O334 2.403 . S
Dy328 O335 2.664 . S
Dy328 O339 2.326 . S
Dy328 O343 2.310 . S
Dy328 O344 2.351 . S
C329 O340 1.185 . S
C329 O341 1.355 . S
C330 O332 1.185 . S
C330 O333 1.355 . S
Dy331 O335 2.310 . S
Dy331 O338 2.351 . S
Dy331 O340 2.398 . S
Dy331 O341 2.491 . S
Dy331 O342 2.403 . S
Dy331 O343 2.664 . S
Dy331 O345 2.326 . S
O332 Dy328 2.398 . S
O332 C330 1.185 . S
O333 Dy328 2.491 . S
O333 C330 1.355 . S
O334 Dy328 2.403 . S
O334 C336 1.254 . S
O335 Dy328 2.664 . S
O335 Dy331 2.310 . S
O335 C336 1.268 . S
C336 O334 1.254 . S
C336 O335 1.268 . S
C337 O342 1.254 . S
C337 O343 1.268 . S
O338 Dy331 2.351 . S
O338 C346 1.249 . S
O339 Dy328 2.326 . S
O339 C346 1.267 . S
O340 C329 1.185 . S
O340 Dy331 2.398 . S
O341 C329 1.355 . S
O341 Dy331 2.491 . S
O342 Dy331 2.403 . S
O342 C337 1.254 . S
O343 Dy328 2.310 . S
O343 Dy331 2.664 . S
O343 C337 1.268 . S
O344 Dy328 2.351 . S
O344 C347 1.249 . S
O345 Dy331 2.326 . S
O345 C347 1.267 . S
C346 O338 1.249 . S
C346 O339 1.267 . S
C347 O344 1.249 . S
C347 O345 1.267 . S
Dy348 O352 2.398 . S
Dy348 O353 2.491 . S
Dy348 O354 2.403 1_655 S
Dy348 O355 2.664 1_655 S
Dy348 O359 2.326 . S
Dy348 O363 2.310 . S
Dy348 O364 2.351 1_655 S
C349 O360 1.185 . S
C349 O361 1.355 . S
C350 O352 1.185 . S
C350 O353 1.355 . S
Dy351 O355 2.310 . S
Dy351 O358 2.351 1_455 S
Dy351 O360 2.398 . S
Dy351 O361 2.491 . S
Dy351 O362 2.403 . S
Dy351 O363 2.664 1_455 S
Dy351 O365 2.326 . S
O352 Dy348 2.398 . S
O352 C350 1.185 . S
O353 Dy348 2.491 . S
O353 C350 1.355 . S
O354 Dy348 2.403 1_455 S
O354 C356 1.254 . S
O355 Dy348 2.664 1_455 S
O355 Dy351 2.310 . S
O355 C356 1.268 . S
C356 O354 1.254 . S
C356 O355 1.268 . S
C357 O362 1.254 1_655 S
C357 O363 1.268 . S
O358 Dy351 2.351 1_655 S
O358 C366 1.249 . S
O359 Dy348 2.326 . S
O359 C366 1.267 . S
O360 C349 1.185 . S
O360 Dy351 2.398 . S
O361 C349 1.355 . S
O361 Dy351 2.491 . S
O362 Dy351 2.403 . S
O362 C357 1.254 1_455 S
O363 Dy348 2.310 . S
O363 Dy351 2.664 1_655 S
O363 C357 1.268 . S
O364 Dy348 2.351 1_455 S
O364 C367 1.249 . S
O365 Dy351 2.326 . S
O365 C367 1.267 . S
C366 O358 1.249 . S
C366 O359 1.267 . S
C367 O364 1.249 . S
C367 O365 1.267 . S
C368 C369 1.352 . S
C368 C370 1.327 . S
C368 H393 0.950 . S
C369 C368 1.352 . S
C369 C385 1.346 1_565 S
C370 C368 1.327 . S
C370 C389 1.473 . S
C370 H394 0.950 . S
C371 C388 1.574 . S
C371 C390 1.368 1_545 S
C371 H395 0.949 . S
H372 C376 0.949 . S
C373 C374 1.349 1_545 S
C373 C375 1.327 . S
C373 H396 0.950 . S
C374 C373 1.349 1_565 S
C374 C386 1.349 . S
C375 C373 1.327 . S
C375 C391 1.429 1_545 S
C375 H397 0.950 . S
C376 H372 0.949 . S
C376 C384 1.574 . S
C376 C392 1.368 . S
H377 C385 0.950 . S
H378 C383 0.950 . S
H379 C384 0.949 . S
H380 C386 0.950 . S
H381 C387 0.950 . S
H382 C388 0.949 . S
C383 H378 0.950 . S
C383 C385 1.327 . S
C383 C389 1.388 1_545 S
C384 C376 1.574 . S
C384 H379 0.949 . S
C384 C390 1.368 . S
C385 C369 1.346 1_545 S
C385 H377 0.950 . S
C385 C383 1.327 . S
C386 C374 1.349 . S
C386 H380 0.950 . S
C386 C387 1.327 . S
C387 H381 0.950 . S
C387 C386 1.327 . S
C387 C391 1.429 . S
C388 C371 1.574 . S
C388 H382 0.949 . S
C388 C392 1.368 1_545 S
C389 C370 1.473 . S
C389 C383 1.388 1_565 S
C389 C390 1.521 . S
C390 C371 1.368 1_565 S
C390 C384 1.368 . S
C390 C389 1.521 . S
C391 C375 1.429 1_565 S
C391 C387 1.429 . S
C391 C392 1.523 . S
C392 C376 1.368 . S
C392 C388 1.368 1_565 S
C392 C391 1.523 . S
H393 C368 0.950 . S
H394 C370 0.950 . S
H395 C371 0.949 . S
H396 C373 0.950 . S
H397 C375 0.950 . S
C398 C399 1.349 . S
C398 C400 1.327 . S
C398 H423 0.950 . S
C399 C398 1.349 . S
C399 C415 1.349 . S
C400 C398 1.327 . S
C400 C419 1.429 . S
C400 H424 0.950 . S
C401 C418 1.574 . S
C401 C420 1.368 . S
C401 H425 0.949 . S
H402 C406 0.949 . S
C403 C404 1.349 . S
C403 C405 1.327 . S
C403 H426 0.950 . S
C404 C403 1.349 . S
C404 C416 1.349 . S
C405 C403 1.327 . S
C405 C421 1.429 . S
C405 H427 0.950 . S
C406 H402 0.949 . S
C406 C414 1.574 . S
C406 C422 1.368 . S
H407 C415 0.950 . S
H408 C413 0.950 . S
H409 C414 0.949 . S
H410 C416 0.950 . S
H411 C417 0.950 . S
H412 C418 0.949 . S
C413 H408 0.950 . S
C413 C415 1.327 . S
C413 C419 1.429 . S
C414 C406 1.574 . S
C414 H409 0.949 . S
C414 C420 1.368 . S
C415 C399 1.349 . S
C415 H407 0.950 . S
C415 C413 1.327 . S
C416 C404 1.349 . S
C416 H410 0.950 . S
C416 C417 1.327 . S
C417 H411 0.950 . S
C417 C416 1.327 . S
C417 C421 1.429 . S
C418 C401 1.574 . S
C418 H412 0.949 . S
C418 C422 1.368 . S
C419 C400 1.429 . S
C419 C413 1.429 . S
C419 C420 1.523 . S
C420 C401 1.368 . S
C420 C414 1.368 . S
C420 C419 1.523 . S
C421 C405 1.429 . S
C421 C417 1.429 . S
C421 C422 1.523 . S
C422 C406 1.368 . S
C422 C418 1.368 . S
C422 C421 1.523 . S
H423 C398 0.950 . S
H424 C400 0.950 . S
H425 C401 0.949 . S
H426 C403 0.950 . S
H427 C405 0.950 . S
C428 C429 1.349 . S
C428 C430 1.327 . S
C428 H453 0.950 . S
C429 C428 1.349 . S
C429 C445 1.349 . S
C430 C428 1.327 . S
C430 C449 1.429 . S
C430 H454 0.950 . S
C431 C448 1.574 . S
C431 C450 1.368 . S
C431 H455 0.949 . S
H432 C436 0.949 . S
C433 C434 1.349 . S
C433 C435 1.327 . S
C433 H456 0.950 . S
C434 C433 1.349 . S
C434 C446 1.349 . S
C435 C433 1.327 . S
C435 C451 1.429 . S
C435 H457 0.950 . S
C436 H432 0.949 . S
C436 C444 1.574 . S
C436 C452 1.368 . S
H437 C445 0.950 . S
H438 C443 0.950 . S
H439 C444 0.949 . S
H440 C446 0.950 . S
H441 C447 0.950 . S
H442 C448 0.949 . S
C443 H438 0.950 . S
C443 C445 1.327 . S
C443 C449 1.429 . S
C444 C436 1.574 . S
C444 H439 0.949 . S
C444 C450 1.368 . S
C445 C429 1.349 . S
C445 H437 0.950 . S
C445 C443 1.327 . S
C446 C434 1.349 . S
C446 H440 0.950 . S
C446 C447 1.327 . S
C447 H441 0.950 . S
C447 C446 1.327 . S
C447 C451 1.429 . S
C448 C431 1.574 . S
C448 H442 0.949 . S
C448 C452 1.368 . S
C449 C430 1.429 . S
C449 C443 1.429 . S
C449 C450 1.523 . S
C450 C431 1.368 . S
C450 C444 1.368 . S
C450 C449 1.523 . S
C451 C435 1.429 . S
C451 C447 1.429 . S
C451 C452 1.523 . S
C452 C436 1.368 . S
C452 C448 1.368 . S
C452 C451 1.523 . S
H453 C428 0.950 . S
H454 C430 0.950 . S
H455 C431 0.949 . S
H456 C433 0.950 . S
H457 C435 0.950 . S
C458 C459 1.349 . S
C458 C460 1.327 . S
C458 H483 0.950 . S
C459 C458 1.349 . S
C459 C475 1.349 . S
C460 C458 1.327 . S
C460 C479 1.429 . S
C460 H484 0.950 . S
C461 C478 1.574 . S
C461 C480 1.368 . S
C461 H485 0.949 . S
H462 C466 0.949 . S
C463 C464 1.349 . S
C463 C465 1.327 . S
C463 H486 0.950 . S
C464 C463 1.349 . S
C464 C476 1.349 . S
C465 C463 1.327 . S
C465 C481 1.429 . S
C465 H487 0.950 . S
C466 H462 0.949 . S
C466 C474 1.574 . S
C466 C482 1.368 . S
H467 C475 0.950 . S
H468 C473 0.950 . S
H469 C474 0.949 . S
H470 C476 0.950 . S
H471 C477 0.950 . S
H472 C478 0.949 . S
C473 H468 0.950 . S
C473 C475 1.327 . S
C473 C479 1.429 . S
C474 C466 1.574 . S
C474 H469 0.949 . S
C474 C480 1.368 . S
C475 C459 1.349 . S
C475 H467 0.950 . S
C475 C473 1.327 . S
C476 C464 1.349 . S
C476 H470 0.950 . S
C476 C477 1.327 . S
C477 H471 0.950 . S
C477 C476 1.327 . S
C477 C481 1.429 . S
C478 C461 1.574 . S
C478 H472 0.949 . S
C478 C482 1.368 . S
C479 C460 1.429 . S
C479 C473 1.429 . S
C479 C480 1.523 . S
C480 C461 1.368 . S
C480 C474 1.368 . S
C480 C479 1.523 . S
C481 C465 1.429 . S
C481 C477 1.429 . S
C481 C482 1.523 . S
C482 C466 1.368 . S
C482 C478 1.368 . S
C482 C481 1.523 . S
H483 C458 0.950 . S
H484 C460 0.950 . S
H485 C461 0.949 . S
H486 C463 0.950 . S
H487 C465 0.950 . S
C488 C489 1.337 1_565 S
C488 C490 1.327 . S
C488 H513 0.950 . S
C489 C488 1.337 1_545 S
C489 C505 1.360 . S
C490 C488 1.327 . S
C490 C509 1.429 1_565 S
C490 H514 0.950 . S
C491 C508 1.574 . S
C491 C510 1.368 . S
C491 H515 0.949 . S
H492 C496 0.949 . S
C493 C494 1.349 . S
C493 C495 1.327 . S
C493 H516 0.950 . S
C494 C493 1.349 . S
C494 C506 1.349 1_545 S
C495 C493 1.327 . S
C495 C511 1.429 . S
C495 H517 0.950 . S
C496 H492 0.949 . S
C496 C504 1.574 . S
C496 C512 1.368 1_565 S
H497 C505 0.950 . S
H498 C503 0.950 . S
H499 C504 0.949 . S
H500 C506 0.950 . S
H501 C507 0.950 . S
H502 C508 0.949 . S
C503 H498 0.950 . S
C503 C505 1.327 . S
C503 C509 1.429 . S
C504 C496 1.574 . S
C504 H499 0.949 . S
C504 C510 1.368 1_565 S
C505 C489 1.360 . S
C505 H497 0.950 . S
C505 C503 1.327 . S
C506 C494 1.349 1_565 S
C506 H500 0.950 . S
C506 C507 1.327 . S
C507 H501 0.950 . S
C507 C506 1.327 . S
C507 C511 1.429 1_565 S
C508 C491 1.574 . S
C508 H502 0.949 . S
C508 C512 1.368 . S
C509 C490 1.429 1_545 S
C509 C503 1.429 . S
C509 C510 1.523 . S
C510 C491 1.368 . S
C510 C504 1.368 1_545 S
C510 C509 1.523 . S
C511 C495 1.429 . S
C511 C507 1.429 1_545 S
C511 C512 1.523 . S
C512 C496 1.368 1_545 S
C512 C508 1.368 . S
C512 C511 1.523 . S
H513 C488 0.950 . S
H514 C490 0.950 . S
H515 C491 0.949 . S
H516 C493 0.950 . S
H517 C495 0.950 . S
C518 C519 1.349 . S
C518 C520 1.327 . S
C518 H543 0.950 . S
C519 C518 1.349 . S
C519 C535 1.349 . S
C520 C518 1.327 . S
C520 C539 1.429 . S
C520 H544 0.950 . S
C521 C538 1.574 . S
C521 C540 1.368 . S
C521 H545 0.949 . S
H522 C526 0.949 . S
C523 C524 1.349 . S
C523 C525 1.327 . S
C523 H546 0.950 . S
C524 C523 1.349 . S
C524 C536 1.349 . S
C525 C523 1.327 . S
C525 C541 1.429 . S
C525 H547 0.950 . S
C526 H522 0.949 . S
C526 C534 1.574 . S
C526 C542 1.368 . S
H527 C535 0.950 . S
H528 C533 0.950 . S
H529 C534 0.949 . S
H530 C536 0.950 . S
H531 C537 0.950 . S
H532 C538 0.949 . S
C533 H528 0.950 . S
C533 C535 1.327 . S
C533 C539 1.429 . S
C534 C526 1.574 . S
C534 H529 0.949 . S
C534 C540 1.368 . S
C535 C519 1.349 . S
C535 H527 0.950 . S
C535 C533 1.327 . S
C536 C524 1.349 . S
C536 H530 0.950 . S
C536 C537 1.327 . S
C537 H531 0.950 . S
C537 C536 1.327 . S
C537 C541 1.429 . S
C538 C521 1.574 . S
C538 H532 0.949 . S
C538 C542 1.368 . S
C539 C520 1.429 . S
C539 C533 1.429 . S
C539 C540 1.523 . S
C540 C521 1.368 . S
C540 C534 1.368 . S
C540 C539 1.523 . S
C541 C525 1.429 . S
C541 C537 1.429 . S
C541 C542 1.523 . S
C542 C526 1.368 . S
C542 C538 1.368 . S
C542 C541 1.523 . S
H543 C518 0.950 . S
H544 C520 0.950 . S
H545 C521 0.949 . S
H546 C523 0.950 . S
H547 C525 0.950 . S
C548 C549 1.349 . S
C548 C550 1.327 . S
C548 H573 0.950 . S
C549 C548 1.349 . S
C549 C565 1.349 . S
C550 C548 1.327 . S
C550 C569 1.429 . S
C550 H574 0.950 . S
C551 C568 1.574 . S
C551 C570 1.368 . S
C551 H575 0.949 . S
H552 C556 0.949 . S
C553 C554 1.349 . S
C553 C555 1.327 . S
C553 H576 0.950 . S
C554 C553 1.349 . S
C554 C566 1.349 . S
C555 C553 1.327 . S
C555 C571 1.429 . S
C555 H577 0.950 . S
C556 H552 0.949 . S
C556 C564 1.574 . S
C556 C572 1.368 . S
H557 C565 0.950 . S
H558 C563 0.950 . S
H559 C564 0.949 . S
H560 C566 0.950 . S
H561 C567 0.950 . S
H562 C568 0.949 . S
C563 H558 0.950 . S
C563 C565 1.327 . S
C563 C569 1.429 . S
C564 C556 1.574 . S
C564 H559 0.949 . S
C564 C570 1.368 . S
C565 C549 1.349 . S
C565 H557 0.950 . S
C565 C563 1.327 . S
C566 C554 1.349 . S
C566 H560 0.950 . S
C566 C567 1.327 . S
C567 H561 0.950 . S
C567 C566 1.327 . S
C567 C571 1.429 . S
C568 C551 1.574 . S
C568 H562 0.949 . S
C568 C572 1.368 . S
C569 C550 1.429 . S
C569 C563 1.429 . S
C569 C570 1.523 . S
C570 C551 1.368 . S
C570 C564 1.368 . S
C570 C569 1.523 . S
C571 C555 1.429 . S
C571 C567 1.429 . S
C571 C572 1.523 . S
C572 C556 1.368 . S
C572 C568 1.368 . S
C572 C571 1.523 . S
H573 C548 0.950 . S
H574 C550 0.950 . S
H575 C551 0.949 . S
H576 C553 0.950 . S
H577 C555 0.950 . S
C578 C579 1.349 . S
C578 C580 1.327 . S
C578 H603 0.950 . S
C579 C578 1.349 . S
C579 C595 1.349 . S
C580 C578 1.327 . S
C580 C599 1.429 . S
C580 H604 0.950 . S
C581 C598 1.574 . S
C581 C600 1.368 . S
C581 H605 0.949 . S
H582 C586 0.949 . S
C583 C584 1.349 . S
C583 C585 1.327 . S
C583 H606 0.950 1_655 S
C584 C583 1.349 . S
C584 C596 1.349 . S
C585 C583 1.327 . S
C585 C601 1.429 . S
C585 H607 0.950 . S
C586 H582 0.949 . S
C586 C594 1.574 . S
C586 C602 1.368 . S
H587 C595 0.950 . S
H588 C593 0.950 . S
H589 C594 0.949 . S
H590 C596 0.950 . S
H591 C597 0.950 . S
H592 C598 0.949 . S
C593 H588 0.950 . S
C593 C595 1.327 . S
C593 C599 1.429 . S
C594 C586 1.574 . S
C594 H589 0.949 . S
C594 C600 1.368 . S
C595 C579 1.349 . S
C595 H587 0.950 . S
C595 C593 1.327 . S
C596 C584 1.349 . S
C596 H590 0.950 . S
C596 C597 1.327 . S
C597 H591 0.950 . S
C597 C596 1.327 . S
C597 C601 1.429 . S
C598 C581 1.574 . S
C598 H592 0.949 . S
C598 C602 1.368 . S
C599 C580 1.429 . S
C599 C593 1.429 . S
C599 C600 1.523 . S
C600 C581 1.368 . S
C600 C594 1.368 . S
C600 C599 1.523 . S
C601 C585 1.429 . S
C601 C597 1.429 . S
C601 C602 1.523 . S
C602 C586 1.368 . S
C602 C598 1.368 . S
C602 C601 1.523 . S
H603 C578 0.950 . S
H604 C580 0.950 . S
H605 C581 0.949 . S
H606 C583 0.950 1_455 S
H607 C585 0.950 . S
C608 C609 1.349 . S
C608 C610 1.327 . S
C608 H633 0.950 . S
C609 C608 1.349 . S
C609 C625 1.349 . S
C610 C608 1.327 . S
C610 C629 1.429 . S
C610 H634 0.950 . S
C611 C628 1.574 . S
C611 C630 1.368 . S
C611 H635 0.949 . S
H612 C616 0.949 . S
C613 C614 1.349 . S
C613 C615 1.327 . S
C613 H636 0.950 . S
C614 C613 1.349 . S
C614 C626 1.349 . S
C615 C613 1.327 . S
C615 C631 1.429 . S
C615 H637 0.950 . S
C616 H612 0.949 . S
C616 C624 1.574 . S
C616 C632 1.368 . S
H617 C625 0.950 . S
H618 C623 0.950 . S
H619 C624 0.949 . S
H620 C626 0.950 1_655 S
H621 C627 0.950 . S
H622 C628 0.949 . S
C623 H618 0.950 . S
C623 C625 1.327 . S
C623 C629 1.429 . S
C624 C616 1.574 . S
C624 H619 0.949 . S
C624 C630 1.368 . S
C625 C609 1.349 . S
C625 H617 0.950 . S
C625 C623 1.327 . S
C626 C614 1.349 . S
C626 H620 0.950 1_455 S
C626 C627 1.327 . S
C627 H621 0.950 . S
C627 C626 1.327 . S
C627 C631 1.429 . S
C628 C611 1.574 . S
C628 H622 0.949 . S
C628 C632 1.368 . S
C629 C610 1.429 . S
C629 C623 1.429 . S
C629 C630 1.523 . S
C630 C611 1.368 . S
C630 C624 1.368 . S
C630 C629 1.523 . S
C631 C615 1.429 . S
C631 C627 1.429 . S
C631 C632 1.523 . S
C632 C616 1.368 . S
C632 C628 1.368 . S
C632 C631 1.523 . S
H633 C608 0.950 . S
H634 C610 0.950 . S
H635 C611 0.949 . S
H636 C613 0.950 . S
H637 C615 0.950 . S
C638 C639 1.349 1_565 S
C638 C640 1.327 . S
C638 H663 0.950 . S
C639 C638 1.349 1_545 S
C639 C655 1.349 . S
C640 C638 1.327 . S
C640 C659 1.429 . S
C640 H664 0.950 . S
C641 C658 1.574 . S
C641 C660 1.368 1_545 S
C641 H665 0.949 . S
H642 C646 0.949 . S
C643 C644 1.349 1_545 S
C643 C645 1.327 . S
C643 H666 0.950 . S
C644 C643 1.349 1_565 S
C644 C656 1.349 . S
C645 C643 1.327 . S
C645 C661 1.429 1_545 S
C645 H667 0.950 . S
C646 H642 0.949 . S
C646 C654 1.574 . S
C646 C662 1.368 . S
H647 C655 0.950 . S
H648 C653 0.950 . S
H649 C654 0.949 . S
H650 C656 0.950 . S
H651 C657 0.950 . S
H652 C658 0.949 . S
C653 H648 0.950 . S
C653 C655 1.327 . S
C653 C659 1.429 1_545 S
C654 C646 1.574 . S
C654 H649 0.949 . S
C654 C660 1.368 . S
C655 C639 1.349 . S
C655 H647 0.950 . S
C655 C653 1.327 . S
C656 C644 1.349 . S
C656 H650 0.950 . S
C656 C657 1.327 . S
C657 H651 0.950 . S
C657 C656 1.327 . S
C657 C661 1.429 . S
C658 C641 1.574 . S
C658 H652 0.949 . S
C658 C662 1.368 1_545 S
C659 C640 1.429 . S
C659 C653 1.429 1_565 S
C659 C660 1.523 . S
C660 C641 1.368 1_565 S
C660 C654 1.368 . S
C660 C659 1.523 . S
C661 C645 1.429 1_565 S
C661 C657 1.429 . S
C661 C662 1.523 . S
C662 C646 1.368 . S
C662 C658 1.368 1_565 S
C662 C661 1.523 . S
H663 C638 0.950 . S
H664 C640 0.950 . S
H665 C641 0.949 . S
H666 C643 0.950 . S
H667 C645 0.950 . S
C668 C669 1.349 . S
C668 C670 1.327 . S
C668 H693 0.950 . S
C669 C668 1.349 . S
C669 C685 1.349 . S
C670 C668 1.327 . S
C670 C689 1.429 . S
C670 H694 0.950 . S
C671 C688 1.574 . S
C671 C690 1.368 . S
C671 H695 0.949 . S
H672 C676 0.949 . S
C673 C674 1.349 . S
C673 C675 1.327 . S
C673 H696 0.950 . S
C674 C673 1.349 . S
C674 C686 1.349 . S
C675 C673 1.327 . S
C675 C691 1.429 . S
C675 H697 0.950 . S
C676 H672 0.949 . S
C676 C684 1.574 . S
C676 C692 1.368 . S
H677 C685 0.950 . S
H678 C683 0.950 . S
H679 C684 0.949 . S
H680 C686 0.950 . S
H681 C687 0.950 . S
H682 C688 0.949 . S
C683 H678 0.950 . S
C683 C685 1.327 . S
C683 C689 1.429 . S
C684 C676 1.574 . S
C684 H679 0.949 . S
C684 C690 1.368 . S
C685 C669 1.349 . S
C685 H677 0.950 . S
C685 C683 1.327 . S
C686 C674 1.349 . S
C686 H680 0.950 . S
C686 C687 1.327 . S
C687 H681 0.950 . S
C687 C686 1.327 . S
C687 C691 1.429 . S
C688 C671 1.574 . S
C688 H682 0.949 . S
C688 C692 1.368 . S
C689 C670 1.429 . S
C689 C683 1.429 . S
C689 C690 1.523 . S
C690 C671 1.368 . S
C690 C684 1.368 . S
C690 C689 1.523 . S
C691 C675 1.429 . S
C691 C687 1.429 . S
C691 C692 1.523 . S
C692 C676 1.368 . S
C692 C688 1.368 . S
C692 C691 1.523 . S
H693 C668 0.950 . S
H694 C670 0.950 . S
H695 C671 0.949 . S
H696 C673 0.950 . S
H697 C675 0.950 . S
C698 C699 1.349 . S
C698 C700 1.327 . S
C698 H723 0.950 . S
C699 C698 1.349 . S
C699 C715 1.349 . S
C700 C698 1.327 . S
C700 C719 1.429 . S
C700 H724 0.950 . S
C701 C718 1.574 . S
C701 C720 1.368 . S
C701 H725 0.949 . S
H702 C706 0.949 . S
C703 C704 1.349 . S
C703 C705 1.327 . S
C703 H726 0.950 . S
C704 C703 1.349 . S
C704 C716 1.349 . S
C705 C703 1.327 . S
C705 C721 1.429 . S
C705 H727 0.950 . S
C706 H702 0.949 . S
C706 C714 1.574 . S
C706 C722 1.368 . S
H707 C715 0.950 . S
H708 C713 0.950 . S
H709 C714 0.949 . S
H710 C716 0.950 . S
H711 C717 0.950 . S
H712 C718 0.949 . S
C713 H708 0.950 . S
C713 C715 1.327 . S
C713 C719 1.429 . S
C714 C706 1.574 . S
C714 H709 0.949 . S
C714 C720 1.368 . S
C715 C699 1.349 . S
C715 H707 0.950 . S
C715 C713 1.327 . S
C716 C704 1.349 . S
C716 H710 0.950 . S
C716 C717 1.327 . S
C717 H711 0.950 . S
C717 C716 1.327 . S
C717 C721 1.429 . S
C718 C701 1.574 . S
C718 H712 0.949 . S
C718 C722 1.368 . S
C719 C700 1.429 . S
C719 C713 1.429 . S
C719 C720 1.523 . S
C720 C701 1.368 . S
C720 C714 1.368 . S
C720 C719 1.523 . S
C721 C705 1.429 . S
C721 C717 1.429 . S
C721 C722 1.523 . S
C722 C706 1.368 . S
C722 C718 1.368 . S
C722 C721 1.523 . S
H723 C698 0.950 . S
H724 C700 0.950 . S
H725 C701 0.949 . S
H726 C703 0.950 . S
H727 C705 0.950 . S
C728 C729 1.349 . S
C728 C730 1.327 . S
C728 H753 0.950 . S
C729 C728 1.349 . S
C729 C745 1.349 . S
C730 C728 1.327 . S
C730 C749 1.429 . S
C730 H754 0.950 . S
C731 C748 1.574 . S
C731 C750 1.368 . S
C731 H755 0.949 . S
H732 C736 0.949 . S
C733 C734 1.357 . S
C733 C735 1.327 1_455 S
C733 H756 0.950 . S
C734 C733 1.357 . S
C734 C746 1.329 1_455 S
C735 C733 1.327 1_655 S
C735 C751 1.429 . S
C735 H757 0.950 . S
C736 H732 0.949 . S
C736 C744 1.574 . S
C736 C752 1.368 . S
H737 C745 0.950 . S
H738 C743 0.950 . S
H739 C744 0.949 . S
H740 C746 0.950 . S
H741 C747 0.950 . S
H742 C748 0.949 . S
C743 H738 0.950 . S
C743 C745 1.327 . S
C743 C749 1.429 . S
C744 C736 1.574 . S
C744 H739 0.949 . S
C744 C750 1.368 . S
C745 C729 1.349 . S
C745 H737 0.950 . S
C745 C743 1.327 . S
C746 C734 1.329 1_655 S
C746 H740 0.950 . S
C746 C747 1.327 . S
C747 H741 0.950 . S
C747 C746 1.327 . S
C747 C751 1.429 . S
C748 C731 1.574 . S
C748 H742 0.949 . S
C748 C752 1.368 . S
C749 C730 1.429 . S
C749 C743 1.429 . S
C749 C750 1.523 . S
C750 C731 1.368 . S
C750 C744 1.368 . S
C750 C749 1.523 . S
C751 C735 1.429 . S
C751 C747 1.429 . S
C751 C752 1.523 . S
C752 C736 1.368 . S
C752 C748 1.368 . S
C752 C751 1.523 . S
H753 C728 0.950 . S
H754 C730 0.950 . S
H755 C731 0.949 . S
H756 C733 0.950 . S
H757 C735 0.950 . S
C758 C759 1.299 1_545 S
C758 C760 1.327 . S
C758 H783 0.950 . S
C759 C758 1.299 1_565 S
C759 C775 1.390 . S
C760 C758 1.327 . S
C760 C779 1.429 . S
C760 H784 0.950 . S
C761 C778 1.574 . S
C761 C780 1.368 1_565 S
C761 H785 0.949 . S
H762 C766 0.949 . S
C763 C764 1.349 1_565 S
C763 C765 1.327 . S
C763 H786 0.950 . S
C764 C763 1.349 1_545 S
C764 C776 1.349 . S
C765 C763 1.327 . S
C765 C781 1.429 1_565 S
C765 H787 0.950 . S
C766 H762 0.949 . S
C766 C774 1.574 . S
C766 C782 1.368 . S
H767 C775 0.950 . S
H768 C773 0.950 . S
H769 C774 0.949 . S
H770 C776 0.950 . S
H771 C777 0.950 . S
H772 C778 0.949 . S
C773 H768 0.950 . S
C773 C775 1.327 . S
C773 C779 1.429 1_565 S
C774 C766 1.574 . S
C774 H769 0.949 . S
C774 C780 1.368 . S
C775 C759 1.390 . S
C775 H767 0.950 . S
C775 C773 1.327 . S
C776 C764 1.349 . S
C776 H770 0.950 . S
C776 C777 1.327 . S
C777 H771 0.950 . S
C777 C776 1.327 . S
C777 C781 1.429 . S
C778 C761 1.574 . S
C778 H772 0.949 . S
C778 C782 1.368 1_565 S
C779 C760 1.429 . S
C779 C773 1.429 1_545 S
C779 C780 1.523 . S
C780 C761 1.368 1_545 S
C780 C774 1.368 . S
C780 C779 1.523 . S
C781 C765 1.429 1_545 S
C781 C777 1.429 . S
C781 C782 1.523 . S
C782 C766 1.368 . S
C782 C778 1.368 1_545 S
C782 C781 1.523 . S
H783 C758 0.950 . S
H784 C760 0.950 . S
H785 C761 0.949 . S
H786 C763 0.950 . S
H787 C765 0.950 . S
C788 C789 1.349 . S
C788 C790 1.327 . S
C788 H813 0.950 . S
C789 C788 1.349 . S
C789 C805 1.349 . S
C790 C788 1.327 . S
C790 C809 1.429 . S
C790 H814 0.950 . S
C791 C808 1.574 . S
C791 C810 1.368 . S
C791 H815 0.949 . S
H792 C796 0.949 . S
C793 C794 1.349 . S
C793 C795 1.327 . S
C793 H816 0.950 . S
C794 C793 1.349 . S
C794 C806 1.349 . S
C795 C793 1.327 . S
C795 C811 1.429 . S
C795 H817 0.950 . S
C796 H792 0.949 . S
C796 C804 1.574 . S
C796 C812 1.368 . S
H797 C805 0.950 . S
H798 C803 0.950 . S
H799 C804 0.949 . S
H800 C806 0.950 . S
H801 C807 0.950 . S
H802 C808 0.949 . S
C803 H798 0.950 . S
C803 C805 1.327 . S
C803 C809 1.429 . S
C804 C796 1.574 . S
C804 H799 0.949 . S
C804 C810 1.368 . S
C805 C789 1.349 . S
C805 H797 0.950 . S
C805 C803 1.327 . S
C806 C794 1.349 . S
C806 H800 0.950 . S
C806 C807 1.327 . S
C807 H801 0.950 . S
C807 C806 1.327 . S
C807 C811 1.429 . S
C808 C791 1.574 . S
C808 H802 0.949 . S
C808 C812 1.368 . S
C809 C790 1.429 . S
C809 C803 1.429 . S
C809 C810 1.523 . S
C810 C791 1.368 . S
C810 C804 1.368 . S
C810 C809 1.523 . S
C811 C795 1.429 . S
C811 C807 1.429 . S
C811 C812 1.523 . S
C812 C796 1.368 . S
C812 C808 1.368 . S
C812 C811 1.523 . S
H813 C788 0.950 . S
H814 C790 0.950 . S
H815 C791 0.949 . S
H816 C793 0.950 . S
H817 C795 0.950 . S
C818 C819 1.349 . S
C818 C820 1.327 . S
C818 H843 0.950 . S
C819 C818 1.349 . S
C819 C835 1.349 . S
C820 C818 1.327 . S
C820 C839 1.429 . S
C820 H844 0.950 . S
C821 C838 1.574 . S
C821 C840 1.368 . S
C821 H845 0.949 . S
H822 C826 0.949 . S
C823 C824 1.349 . S
C823 C825 1.327 . S
C823 H846 0.950 . S
C824 C823 1.349 . S
C824 C836 1.349 . S
C825 C823 1.327 . S
C825 C841 1.429 . S
C825 H847 0.950 . S
C826 H822 0.949 . S
C826 C834 1.574 . S
C826 C842 1.368 . S
H827 C835 0.950 . S
H828 C833 0.950 . S
H829 C834 0.949 . S
H830 C836 0.950 . S
H831 C837 0.950 . S
H832 C838 0.949 . S
C833 H828 0.950 . S
C833 C835 1.327 . S
C833 C839 1.429 . S
C834 C826 1.574 . S
C834 H829 0.949 . S
C834 C840 1.368 . S
C835 C819 1.349 . S
C835 H827 0.950 . S
C835 C833 1.327 . S
C836 C824 1.349 . S
C836 H830 0.950 . S
C836 C837 1.327 . S
C837 H831 0.950 . S
C837 C836 1.327 . S
C837 C841 1.429 . S
C838 C821 1.574 . S
C838 H832 0.949 . S
C838 C842 1.368 . S
C839 C820 1.429 . S
C839 C833 1.429 . S
C839 C840 1.523 . S
C840 C821 1.368 . S
C840 C834 1.368 . S
C840 C839 1.523 . S
C841 C825 1.429 . S
C841 C837 1.429 . S
C841 C842 1.523 . S
C842 C826 1.368 . S
C842 C838 1.368 . S
C842 C841 1.523 . S
H843 C818 0.950 . S
H844 C820 0.950 . S
H845 C821 0.949 . S
H846 C823 0.950 . S
H847 C825 0.950 . S
C848 C849 1.349 . S
C848 C850 1.327 . S
C848 H873 0.950 . S
C849 C848 1.349 . S
C849 C865 1.349 . S
C850 C848 1.327 . S
C850 C869 1.429 . S
C850 H874 0.950 . S
C851 C868 1.574 . S
C851 C870 1.368 . S
C851 H875 0.949 . S
H852 C856 0.949 . S
C853 C854 1.349 . S
C853 C855 1.327 . S
C853 H876 0.950 . S
C854 C853 1.349 . S
C854 C866 1.349 . S
C855 C853 1.327 . S
C855 C871 1.429 . S
C855 H877 0.950 . S
C856 H852 0.949 . S
C856 C864 1.574 . S
C856 C872 1.368 . S
H857 C865 0.950 . S
H858 C863 0.950 . S
H859 C864 0.949 . S
H860 C866 0.950 . S
H861 C867 0.950 . S
H862 C868 0.949 . S
C863 H858 0.950 . S
C863 C865 1.327 . S
C863 C869 1.429 . S
C864 C856 1.574 . S
C864 H859 0.949 . S
C864 C870 1.368 . S
C865 C849 1.349 . S
C865 H857 0.950 . S
C865 C863 1.327 . S
C866 C854 1.349 . S
C866 H860 0.950 . S
C866 C867 1.327 . S
C867 H861 0.950 . S
C867 C866 1.327 . S
C867 C871 1.429 . S
C868 C851 1.574 . S
C868 H862 0.949 . S
C868 C872 1.368 . S
C869 C850 1.429 . S
C869 C863 1.429 . S
C869 C870 1.523 . S
C870 C851 1.368 . S
C870 C864 1.368 . S
C870 C869 1.523 . S
C871 C855 1.429 . S
C871 C867 1.429 . S
C871 C872 1.523 . S
C872 C856 1.368 . S
C872 C868 1.368 . S
C872 C871 1.523 . S
H873 C848 0.950 . S
H874 C850 0.950 . S
H875 C851 0.949 . S
H876 C853 0.950 . S
H877 C855 0.950 . S
C878 C879 1.361 . S
C878 C880 1.327 . S
C878 H903 0.950 . S
C879 C878 1.361 . S
C879 C895 1.335 1_545 S
C880 C878 1.327 . S
C880 C899 1.429 . S
C880 H904 0.950 . S
C881 C898 1.574 . S
C881 C900 1.368 1_565 S
C881 H905 0.949 . S
H882 C886 0.949 . S
C883 C884 1.349 1_565 S
C883 C885 1.327 . S
C883 H906 0.950 . S
C884 C883 1.349 1_545 S
C884 C896 1.349 . S
C885 C883 1.327 . S
C885 C901 1.429 1_565 S
C885 H907 0.950 . S
C886 H882 0.949 . S
C886 C894 1.574 . S
C886 C902 1.368 . S
H887 C895 0.950 . S
H888 C893 0.950 . S
H889 C894 0.949 . S
H890 C896 0.950 . S
H891 C897 0.950 . S
H892 C898 0.949 . S
C893 H888 0.950 . S
C893 C895 1.327 . S
C893 C899 1.429 1_565 S
C894 C886 1.574 . S
C894 H889 0.949 . S
C894 C900 1.368 . S
C895 C879 1.335 1_565 S
C895 H887 0.950 . S
C895 C893 1.327 . S
C896 C884 1.349 . S
C896 H890 0.950 . S
C896 C897 1.327 . S
C897 H891 0.950 . S
C897 C896 1.327 . S
C897 C901 1.429 . S
C898 C881 1.574 . S
C898 H892 0.949 . S
C898 C902 1.368 1_565 S
C899 C880 1.429 . S
C899 C893 1.429 1_545 S
C899 C900 1.523 . S
C900 C881 1.368 1_545 S
C900 C894 1.368 . S
C900 C899 1.523 . S
C901 C885 1.429 1_545 S
C901 C897 1.429 . S
C901 C902 1.523 . S
C902 C886 1.368 . S
C902 C898 1.368 1_545 S
C902 C901 1.523 . S
H903 C878 0.950 . S
H904 C880 0.950 . S
H905 C881 0.949 . S
H906 C883 0.950 . S
H907 C885 0.950 . S
C908 C909 1.349 . S
C908 C910 1.327 . S
C908 H933 0.950 . S
C909 C908 1.349 . S
C909 C925 1.349 . S
C910 C908 1.327 . S
C910 C929 1.429 . S
C910 H934 0.950 . S
C911 C928 1.574 . S
C911 C930 1.368 . S
C911 H935 0.949 . S
H912 C916 0.949 . S
C913 C914 1.349 . S
C913 C915 1.327 . S
C913 H936 0.950 . S
C914 C913 1.349 . S
C914 C926 1.349 . S
C915 C913 1.327 . S
C915 C931 1.429 . S
C915 H937 0.950 . S
C916 H912 0.949 . S
C916 C924 1.574 . S
C916 C932 1.368 . S
H917 C925 0.950 . S
H918 C923 0.950 . S
H919 C924 0.949 . S
H920 C926 0.950 . S
H921 C927 0.950 . S
H922 C928 0.949 . S
C923 H918 0.950 . S
C923 C925 1.327 . S
C923 C929 1.429 . S
C924 C916 1.574 . S
C924 H919 0.949 . S
C924 C930 1.368 . S
C925 C909 1.349 . S
C925 H917 0.950 . S
C925 C923 1.327 . S
C926 C914 1.349 . S
C926 H920 0.950 . S
C926 C927 1.327 . S
C927 H921 0.950 . S
C927 C926 1.327 . S
C927 C931 1.429 . S
C928 C911 1.574 . S
C928 H922 0.949 . S
C928 C932 1.368 . S
C929 C910 1.429 . S
C929 C923 1.429 . S
C929 C930 1.523 . S
C930 C911 1.368 . S
C930 C924 1.368 . S
C930 C929 1.523 . S
C931 C915 1.429 . S
C931 C927 1.429 . S
C931 C932 1.523 . S
C932 C916 1.368 . S
C932 C928 1.368 . S
C932 C931 1.523 . S
H933 C908 0.950 . S
H934 C910 0.950 . S
H935 C911 0.949 . S
H936 C913 0.950 . S
H937 C915 0.950 . S
C938 C939 1.349 . S
C938 C940 1.327 . S
C938 H963 0.950 . S
C939 C938 1.349 . S
C939 C955 1.349 . S
C940 C938 1.327 . S
C940 C959 1.429 . S
C940 H964 0.950 . S
C941 C958 1.574 . S
C941 C960 1.368 . S
C941 H965 0.949 . S
H942 C946 0.949 . S
C943 C944 1.349 . S
C943 C945 1.327 . S
C943 H966 0.950 . S
C944 C943 1.349 . S
C944 C956 1.349 . S
C945 C943 1.327 . S
C945 C961 1.429 . S
C945 H967 0.950 . S
C946 H942 0.949 . S
C946 C954 1.574 . S
C946 C962 1.368 . S
H947 C955 0.950 . S
H948 C953 0.950 . S
H949 C954 0.949 . S
H950 C956 0.950 . S
H951 C957 0.950 . S
H952 C958 0.949 . S
C953 H948 0.950 . S
C953 C955 1.327 . S
C953 C959 1.429 . S
C954 C946 1.574 . S
C954 H949 0.949 . S
C954 C960 1.368 . S
C955 C939 1.349 . S
C955 H947 0.950 . S
C955 C953 1.327 . S
C956 C944 1.349 . S
C956 H950 0.950 . S
C956 C957 1.327 . S
C957 H951 0.950 . S
C957 C956 1.327 . S
C957 C961 1.429 . S
C958 C941 1.574 . S
C958 H952 0.949 . S
C958 C962 1.368 . S
C959 C940 1.429 . S
C959 C953 1.429 . S
C959 C960 1.523 . S
C960 C941 1.368 . S
C960 C954 1.368 . S
C960 C959 1.523 . S
C961 C945 1.429 . S
C961 C957 1.429 . S
C961 C962 1.523 . S
C962 C946 1.368 . S
C962 C958 1.368 . S
C962 C961 1.523 . S
H963 C938 0.950 . S
H964 C940 0.950 . S
H965 C941 0.949 . S
H966 C943 0.950 . S
H967 C945 0.950 . S
C968 C969 1.349 . S
C968 C970 1.327 . S
C968 H993 0.950 . S
C969 C968 1.349 . S
C969 C985 1.349 . S
C970 C968 1.327 . S
C970 C989 1.429 . S
C970 H994 0.950 . S
C971 C988 1.574 . S
C971 C990 1.368 . S
C971 H995 0.949 . S
H972 C976 0.949 . S
C973 C974 1.349 . S
C973 C975 1.327 . S
C973 H996 0.950 . S
C974 C973 1.349 . S
C974 C986 1.349 . S
C975 C973 1.327 . S
C975 C991 1.429 . S
C975 H997 0.950 . S
C976 H972 0.949 . S
C976 C984 1.574 . S
C976 C992 1.368 . S
H977 C985 0.950 . S
H978 C983 0.950 . S
H979 C984 0.949 . S
H980 C986 0.950 . S
H981 C987 0.950 . S
H982 C988 0.949 . S
C983 H978 0.950 . S
C983 C985 1.327 . S
C983 C989 1.429 . S
C984 C976 1.574 . S
C984 H979 0.949 . S
C984 C990 1.368 . S
C985 C969 1.349 . S
C985 H977 0.950 . S
C985 C983 1.327 . S
C986 C974 1.349 . S
C986 H980 0.950 . S
C986 C987 1.327 . S
C987 H981 0.950 . S
C987 C986 1.327 . S
C987 C991 1.429 . S
C988 C971 1.574 . S
C988 H982 0.949 . S
C988 C992 1.368 . S
C989 C970 1.429 . S
C989 C983 1.429 . S
C989 C990 1.523 . S
C990 C971 1.368 . S
C990 C984 1.368 . S
C990 C989 1.523 . S
C991 C975 1.429 . S
C991 C987 1.429 . S
C991 C992 1.523 . S
C992 C976 1.368 . S
C992 C988 1.368 . S
C992 C991 1.523 . S
H993 C968 0.950 . S
H994 C970 0.950 . S
H995 C971 0.949 . S
H996 C973 0.950 . S
H997 C975 0.950 . S
C998 C999 1.352 . S
C998 C1000 1.327 . S
C998 H1023 0.950 . S
C999 C998 1.352 . S
C999 C1015 1.345 1_565 S
C1000 C998 1.327 . S
C1000 C1019 1.470 . S
C1000 H1024 0.950 . S
C1001 C1018 1.574 . S
C1001 C1020 1.368 1_545 S
C1001 H1025 0.949 . S
H1002 C1006 0.949 . S
C1003 C1004 1.349 1_545 S
C1003 C1005 1.327 . S
C1003 H1026 0.950 . S
C1004 C1003 1.349 1_565 S
C1004 C1016 1.349 . S
C1005 C1003 1.327 . S
C1005 C1021 1.429 1_545 S
C1005 H1027 0.950 . S
C1006 H1002 0.949 . S
C1006 C1014 1.574 . S
C1006 C1022 1.368 . S
H1007 C1015 0.950 . S
H1008 C1013 0.950 . S
H1009 C1014 0.949 . S
H1010 C1016 0.950 . S
H1011 C1017 0.950 . S
H1012 C1018 0.949 . S
C1013 H1008 0.950 . S
C1013 C1015 1.327 . S
C1013 C1019 1.393 1_545 S
C1014 C1006 1.574 . S
C1014 H1009 0.949 . S
C1014 C1020 1.368 . S
C1015 C999 1.345 1_545 S
C1015 H1007 0.950 . S
C1015 C1013 1.327 . S
C1016 C1004 1.349 . S
C1016 H1010 0.950 . S
C1016 C1017 1.327 . S
C1017 H1011 0.950 . S
C1017 C1016 1.327 . S
C1017 C1021 1.429 . S
C1018 C1001 1.574 . S
C1018 H1012 0.949 . S
C1018 C1022 1.368 1_545 S
C1019 C1000 1.470 . S
C1019 C1013 1.393 1_565 S
C1019 C1020 1.520 . S
C1020 C1001 1.368 1_565 S
C1020 C1014 1.368 . S
C1020 C1019 1.520 . S
C1021 C1005 1.429 1_565 S
C1021 C1017 1.429 . S
C1021 C1022 1.523 . S
C1022 C1006 1.368 . S
C1022 C1018 1.368 1_565 S
C1022 C1021 1.523 . S
H1023 C998 0.950 . S
H1024 C1000 0.950 . S
H1025 C1001 0.949 . S
H1026 C1003 0.950 . S
H1027 C1005 0.950 . S
C1028 C1029 1.349 . S
C1028 C1030 1.327 . S
C1028 H1053 0.950 . S
C1029 C1028 1.349 . S
C1029 C1045 1.349 . S
C1030 C1028 1.327 . S
C1030 C1049 1.429 . S
C1030 H1054 0.950 . S
C1031 C1048 1.574 . S
C1031 C1050 1.368 . S
C1031 H1055 0.949 . S
H1032 C1036 0.949 . S
C1033 C1034 1.349 . S
C1033 C1035 1.327 . S
C1033 H1056 0.950 . S
C1034 C1033 1.349 . S
C1034 C1046 1.349 . S
C1035 C1033 1.327 . S
C1035 C1051 1.429 . S
C1035 H1057 0.950 . S
C1036 H1032 0.949 . S
C1036 C1044 1.574 . S
C1036 C1052 1.368 . S
H1037 C1045 0.950 . S
H1038 C1043 0.950 . S
H1039 C1044 0.949 . S
H1040 C1046 0.950 . S
H1041 C1047 0.950 . S
H1042 C1048 0.949 . S
C1043 H1038 0.950 . S
C1043 C1045 1.327 . S
C1043 C1049 1.429 . S
C1044 C1036 1.574 . S
C1044 H1039 0.949 . S
C1044 C1050 1.368 . S
C1045 C1029 1.349 . S
C1045 H1037 0.950 . S
C1045 C1043 1.327 . S
C1046 C1034 1.349 . S
C1046 H1040 0.950 . S
C1046 C1047 1.327 . S
C1047 H1041 0.950 . S
C1047 C1046 1.327 . S
C1047 C1051 1.429 . S
C1048 C1031 1.574 . S
C1048 H1042 0.949 . S
C1048 C1052 1.368 . S
C1049 C1030 1.429 . S
C1049 C1043 1.429 . S
C1049 C1050 1.523 . S
C1050 C1031 1.368 . S
C1050 C1044 1.368 . S
C1050 C1049 1.523 . S
C1051 C1035 1.429 . S
C1051 C1047 1.429 . S
C1051 C1052 1.523 . S
C1052 C1036 1.368 . S
C1052 C1048 1.368 . S
C1052 C1051 1.523 . S
H1053 C1028 0.950 . S
H1054 C1030 0.950 . S
H1055 C1031 0.949 . S
H1056 C1033 0.950 . S
H1057 C1035 0.950 . S
C1058 C1059 1.349 . S
C1058 C1060 1.327 . S
C1058 H1083 0.950 . S
C1059 C1058 1.349 . S
C1059 C1075 1.349 . S
C1060 C1058 1.327 . S
C1060 C1079 1.429 . S
C1060 H1084 0.950 . S
C1061 C1078 1.574 . S
C1061 C1080 1.368 . S
C1061 H1085 0.949 . S
H1062 C1066 0.949 . S
C1063 C1064 1.349 . S
C1063 C1065 1.327 . S
C1063 H1086 0.950 . S
C1064 C1063 1.349 . S
C1064 C1076 1.349 . S
C1065 C1063 1.327 . S
C1065 C1081 1.429 . S
C1065 H1087 0.950 . S
C1066 H1062 0.949 . S
C1066 C1074 1.574 . S
C1066 C1082 1.368 . S
H1067 C1075 0.950 . S
H1068 C1073 0.950 . S
H1069 C1074 0.949 . S
H1070 C1076 0.950 . S
H1071 C1077 0.950 . S
H1072 C1078 0.949 . S
C1073 H1068 0.950 . S
C1073 C1075 1.327 . S
C1073 C1079 1.429 . S
C1074 C1066 1.574 . S
C1074 H1069 0.949 . S
C1074 C1080 1.368 . S
C1075 C1059 1.349 . S
C1075 H1067 0.950 . S
C1075 C1073 1.327 . S
C1076 C1064 1.349 . S
C1076 H1070 0.950 . S
C1076 C1077 1.327 . S
C1077 H1071 0.950 . S
C1077 C1076 1.327 . S
C1077 C1081 1.429 . S
C1078 C1061 1.574 . S
C1078 H1072 0.949 . S
C1078 C1082 1.368 . S
C1079 C1060 1.429 . S
C1079 C1073 1.429 . S
C1079 C1080 1.523 . S
C1080 C1061 1.368 . S
C1080 C1074 1.368 . S
C1080 C1079 1.523 . S
C1081 C1065 1.429 . S
C1081 C1077 1.429 . S
C1081 C1082 1.523 . S
C1082 C1066 1.368 . S
C1082 C1078 1.368 . S
C1082 C1081 1.523 . S
H1083 C1058 0.950 . S
H1084 C1060 0.950 . S
H1085 C1061 0.949 . S
H1086 C1063 0.950 . S
H1087 C1065 0.950 . S
C369 C241 1.579 1_565 S
C374 C296 1.647 . S
C404 C326 2.383 . S
C399 C277 2.263 . S
C434 C336 1.724 . S
C429 C169 1.628 . S
C464 C356 1.600 . S
C459 C205 1.523 . S
C494 C297 1.647 . S
C489 C97 1.577 . S
C519 C133 2.335 1_556 S
C524 C327 2.387 . S
C549 C25 1.671 . S
C554 C337 1.724 . S
C579 C61 1.475 . S
C584 C357 1.600 . S
C614 C289 0.500 . S
C609 C211 0.530 . S
C644 C310 0.399 . S
C639 C247 0.512 . S
C674 C329 0.850 . S
C669 C253 0.831 . S
C699 C175 0.449 . S
C704 C349 0.319 . S
C729 C67 0.585 . S
C734 C290 0.507 . S
C764 C309 0.400 . S
C759 C103 0.515 1_565 S
C794 C330 0.849 . S
C789 C109 0.842 . S
C819 C31 0.382 . S
C824 C350 0.319 . S
C849 C181 2.259 . S
C854 C307 2.382 . S
C879 C217 1.597 . S
C884 C317 1.726 . S
C914 C347 2.557 . S
C909 C283 2.296 . S
C944 C367 2.421 . S
C939 C145 2.264 . S
C969 C37 2.223 . S
C974 C306 2.390 . S
C1004 C316 1.726 . S
C999 C73 1.596 1_565 S
C1034 C346 2.556 . S
C1029 C139 2.357 . S
C1059 C1 2.303 . S
C1064 C366 2.422 . S
