# Generated by pormake.
# Topology ftw, (4,12)-cn, num edge types: 1
# Building blocks:
#     Node 0, Type 0, BuildingBlock: NAHDIM_clean_linker_0, # of connection points: 4
#     Node 1, Type 0, BuildingBlock: NAHDIM_clean_linker_0, # of connection points: 4
#     Node 2, Type 0, BuildingBlock: NAHDIM_clean_linker_0, # of connection points: 4
#     Node 3, Type 1, BuildingBlock: EZIPEK_clean_sbu_0, # of connection points: 12
#     Edge 4, Type (0, 1), BuildingBlock: AJUNOK_clean_linker_0, # of connection points: 2
#     Edge 5, Type (0, 1), BuildingBlock: AJUNOK_clean_linker_0, # of connection points: 2
#     Edge 6, Type (0, 1), BuildingBlock: AJUNOK_clean_linker_0, # of connection points: 2
#     Edge 7, Type (0, 1), BuildingBlock: AJUNOK_clean_linker_0, # of connection points: 2
#     Edge 8, Type (0, 1), BuildingBlock: AJUNOK_clean_linker_0, # of connection points: 2
#     Edge 9, Type (0, 1), BuildingBlock: AJUNOK_clean_linker_0, # of connection points: 2
#     Edge 10, Type (0, 1), BuildingBlock: AJUNOK_clean_linker_0, # of connection points: 2
#     Edge 11, Type (0, 1), BuildingBlock: AJUNOK_clean_linker_0, # of connection points: 2
#     Edge 12, Type (0, 1), BuildingBlock: AJUNOK_clean_linker_0, # of connection points: 2
#     Edge 13, Type (0, 1), BuildingBlock: AJUNOK_clean_linker_0, # of connection points: 2
#     Edge 14, Type (0, 1), BuildingBlock: AJUNOK_clean_linker_0, # of connection points: 2
#     Edge 15, Type (0, 1), BuildingBlock: AJUNOK_clean_linker_0, # of connection points: 2
# Relax obj value: 0.006
# Max RMSD: 0.061
# Mean RMSD: 0.048
data_MOF--net-ftw--node1-EZIPEK_clean_sbu_0--node2-NAHDIM_clean_linker_0--edge1-AJUNOK_clean_linker_0
_symmetry_space_group_name_H-M    P1
_symmetry_Int_Tables_number       1
_symmetry_cell_setting            triclinic
loop_
_symmetry_equiv_pos_as_xyz
'x, y, z'
_cell_length_a     27.426999
_cell_length_b     26.932212
_cell_length_c     26.539643
_cell_angle_alpha  90.38633
_cell_angle_beta   89.438678
_cell_angle_gamma 89.517408
loop_
_atom_site_label
_atom_site_type_symbol
_atom_site_fract_x
_atom_site_fract_y
_atom_site_fract_z
_atom_type_partial_charge
C0 C 0.11971 0.71275 0.22587 0.0
C1 C 0.06578 0.72083 0.23952 0.0
C2 C 0.04976 0.68943 0.32234 0.0
C3 C 0.00122 0.67794 0.33307 0.0
C4 C 0.98957 0.63688 0.3631 0.0
C5 C 0.02753 0.60667 0.3823 0.0
C6 C 0.07676 0.61871 0.3718 0.0
C7 C 0.08729 0.66046 0.34234 0.0
C8 C 0.93676 0.6254 0.3738 0.0
C9 C 0.11818 0.5871 0.39105 0.0
C10 C 0.94181 0.33659 0.20299 0.0
C11 C 0.98208 0.31334 0.23491 0.0
C12 C 0.97226 0.34568 0.31877 0.0
C13 C 0.01921 0.35918 0.33339 0.0
C14 C 0.0264 0.40042 0.36488 0.0
C15 C 0.98563 0.42881 0.38166 0.0
C16 C 0.938 0.41428 0.36809 0.0
C17 C 0.93188 0.37232 0.33714 0.0
C18 C 0.07763 0.41438 0.37919 0.0
C19 C 0.89384 0.44385 0.38516 0.0
C20 C 0.94723 0.34348 0.70353 0.0
C21 C 0.99623 0.34833 0.68867 0.0
C22 C 0.01232 0.39152 0.66454 0.0
C23 C 0.97864 0.43037 0.65505 0.0
C24 C 0.92979 0.42637 0.67204 0.0
C25 C 0.91487 0.38305 0.69661 0.0
C26 C 0.06501 0.39532 0.64827 0.0
C27 C 0.89307 0.4673 0.66298 0.0
C28 C 0.13733 0.80641 0.6857 0.0
C29 C 0.09224 0.77716 0.70155 0.0
C30 C 0.08419 0.68721 0.69679 0.0
C31 C 0.11304 0.64525 0.6872 0.0
C32 C 0.09304 0.60246 0.66566 0.0
C33 C 0.04266 0.6015 0.65473 0.0
C34 C 0.01256 0.64259 0.6679 0.0
C35 C 0.03373 0.68527 0.68862 0.0
C36 C 0.12608 0.55902 0.65274 0.0
C37 C 0.95844 0.64198 0.65838 0.0
C38 C 0.01566 0.56188 0.41231 0.0
C39 C 0.00431 0.51826 0.38627 0.0
C40 C 0.99328 0.47454 0.41197 0.0
C41 C 0.99241 0.47431 0.46521 0.0
C42 C 0.98018 0.43137 0.49222 0.0
C43 C 0.97974 0.43146 0.54465 0.0
C44 C 0.99283 0.47411 0.57209 0.0
C45 C 0.99378 0.47422 0.6254 0.0
C46 C 0.00901 0.51654 0.65142 0.0
C47 C 0.02266 0.55934 0.62555 0.0
C48 C 0.01995 0.56069 0.57237 0.0
C49 C 0.03173 0.6038 0.54532 0.0
C50 C 0.02932 0.60463 0.49301 0.0
C51 C 0.01651 0.56195 0.46559 0.0
C52 C 0.0046 0.51805 0.49208 0.0
C53 C 0.00558 0.51768 0.54556 0.0
C54 C 0.9007 0.22245 0.69859 0.0
C55 C 0.94522 0.25336 0.71245 0.0
O56 O 0.0603 0.72748 0.29109 0.0
O57 O 0.10639 0.72908 0.71302 0.0
O58 O 0.92989 0.30122 0.72441 0.0
O59 O 0.96583 0.30907 0.28429 0.0
H60 H 0.04601 0.68679 0.2276 0.0
H61 H 0.1331 0.67741 0.2422 0.0
H62 H 0.14221 0.74365 0.24056 0.0
H63 H 0.12457 0.71029 0.18429 0.0
H64 H 0.97257 0.70081 0.31727 0.0
H65 H 0.12477 0.67009 0.33407 0.0
H66 H 0.9273 0.58951 0.35569 0.0
H67 H 0.91177 0.65466 0.35952 0.0
H68 H 0.93071 0.62138 0.415 0.0
H69 H 0.15417 0.59932 0.37635 0.0
H70 H 0.11271 0.54769 0.38007 0.0
H71 H 0.11875 0.58891 0.43282 0.0
H72 H 0.01385 0.33879 0.2333 0.0
H73 H 0.95465 0.34092 0.16345 0.0
H74 H 0.93203 0.37398 0.21806 0.0
H75 H 0.90862 0.3132 0.20357 0.0
H76 H 0.05019 0.33788 0.31924 0.0
H77 H 0.89576 0.3614 0.32541 0.0
H78 H 0.08014 0.41885 0.42071 0.0
H79 H 0.08694 0.45058 0.36197 0.0
H80 H 0.10499 0.38622 0.36645 0.0
H81 H 0.85937 0.42825 0.37047 0.0
H82 H 0.89715 0.48285 0.37231 0.0
H83 H 0.89186 0.4446 0.42695 0.0
H84 H 0.9693 0.25347 0.67845 0.0
H85 H 0.02187 0.31847 0.69585 0.0
H86 H 0.87733 0.37915 0.709 0.0
H87 H 0.06735 0.39657 0.60652 0.0
H88 H 0.08735 0.36349 0.66157 0.0
H89 H 0.08079 0.4303 0.663 0.0
H90 H 0.85647 0.4585 0.67866 0.0
H91 H 0.88974 0.47377 0.62187 0.0
H92 H 0.90585 0.50239 0.68043 0.0
H93 H 0.06742 0.77705 0.66857 0.0
H94 H 0.12687 0.84485 0.67503 0.0
H95 H 0.15508 0.7882 0.65254 0.0
H96 H 0.16407 0.80804 0.71686 0.0
H97 H 0.15179 0.64697 0.69456 0.0
H98 H 0.01098 0.71718 0.6979 0.0
H99 H 0.12516 0.55162 0.61154 0.0
H100 H 0.11286 0.5252 0.67206 0.0
H101 H 0.16445 0.56562 0.66384 0.0
H102 H 0.9393 0.67427 0.67607 0.0
H103 H 0.94237 0.60721 0.67318 0.0
H104 H 0.95196 0.64273 0.61717 0.0
H105 H 0.00483 0.51812 0.34538 0.0
H106 H 0.9705 0.39725 0.47313 0.0
H107 H 0.96966 0.39741 0.56335 0.0
H108 H 0.01077 0.51599 0.69224 0.0
H109 H 0.0427 0.63757 0.56423 0.0
H110 H 0.03834 0.639 0.47431 0.0
H111 H 0.87429 0.22114 0.73059 0.0
H112 H 0.91195 0.1839 0.68835 0.0
H113 H 0.88215 0.23916 0.66568 0.0
C114 C 0.78219 0.11501 0.67874 0.0
C115 C 0.7624 0.07892 0.71849 0.0
C116 C 0.70049 0.02842 0.67573 0.0
C117 C 0.68944 0.98041 0.65946 0.0
C118 C 0.64439 0.96966 0.63748 0.0
C119 C 0.60977 0.00825 0.63092 0.0
C120 C 0.62035 0.05686 0.64791 0.0
C121 C 0.66546 0.06643 0.67036 0.0
C122 C 0.63417 0.91729 0.6203 0.0
C123 C 0.58417 0.09889 0.64194 0.0
C124 C 0.25954 0.01054 0.80708 0.0
C125 C 0.30206 0.02015 0.77317 0.0
C126 C 0.35079 0.98295 0.70578 0.0
C127 C 0.37 0.02788 0.68804 0.0
C128 C 0.40973 0.02828 0.65447 0.0
C129 C 0.43173 0.98286 0.63917 0.0
C130 C 0.41201 0.93746 0.65609 0.0
C131 C 0.37121 0.93811 0.68864 0.0
C132 C 0.42867 0.07743 0.63593 0.0
C133 C 0.4346 0.88843 0.64045 0.0
C134 C 0.33846 0.95682 0.31138 0.0
C135 C 0.34883 0.00489 0.32876 0.0
C136 C 0.39153 0.01428 0.3558 0.0
C137 C 0.42444 0.97479 0.36537 0.0
C138 C 0.41465 0.92662 0.34669 0.0
C139 C 0.37189 0.9184 0.31943 0.0
C140 C 0.40169 0.06638 0.37388 0.0
C141 C 0.44931 0.88386 0.3557 0.0
C142 C 0.7954 0.09028 0.32043 0.0
C143 C 0.7697 0.04937 0.29082 0.0
C144 C 0.68193 0.04873 0.30512 0.0
C145 C 0.64683 0.08388 0.31973 0.0
C146 C 0.60526 0.06992 0.34713 0.0
C147 C 0.59834 0.0193 0.35903 0.0
C148 C 0.63268 0.9832 0.34224 0.0
C149 C 0.67425 0.99833 0.31538 0.0
C150 C 0.5692 0.10932 0.36423 0.0
C151 C 0.62564 0.92884 0.35323 0.0
C152 C 0.56391 0.99853 0.60333 0.0
C153 C 0.52111 0.99088 0.63112 0.0
C154 C 0.47647 0.98362 0.60716 0.0
C155 C 0.47457 0.98228 0.55391 0.0
C156 C 0.43061 0.97382 0.52851 0.0
C157 C 0.42904 0.97352 0.47606 0.0
C158 C 0.47114 0.98283 0.44705 0.0
C159 C 0.46975 0.98409 0.39378 0.0
C160 C 0.51191 0.99505 0.36621 0.0
C161 C 0.55587 0.00457 0.39035 0.0
C162 C 0.55838 0.00223 0.44345 0.0
C163 C 0.60229 0.01092 0.4688 0.0
C164 C 0.60429 0.00923 0.52106 0.0
C165 C 0.56237 0.99923 0.5501 0.0
C166 C 0.51765 0.9906 0.52534 0.0
C167 C 0.51577 0.9916 0.4719 0.0
C168 C 0.22213 0.92244 0.32283 0.0
C169 C 0.25088 0.96406 0.29765 0.0
O170 O 0.74544 0.03623 0.6954 0.0
O171 O 0.72244 0.0645 0.28059 0.0
O172 O 0.29726 0.94655 0.28562 0.0
O173 O 0.31337 0.98175 0.73985 0.0
H174 H 0.73229 0.09856 0.73898 0.0
H175 H 0.75188 0.13006 0.65589 0.0
H176 H 0.80811 0.09585 0.65257 0.0
H177 H 0.80056 0.14683 0.69721 0.0
H178 H 0.71654 0.95127 0.66383 0.0
H179 H 0.67311 0.10386 0.68265 0.0
H180 H 0.59808 0.90528 0.63486 0.0
H181 H 0.6625 0.89056 0.63301 0.0
H182 H 0.63282 0.91604 0.57853 0.0
H183 H 0.59991 0.13549 0.65192 0.0
H184 H 0.55224 0.09229 0.66691 0.0
H185 H 0.57091 0.10036 0.60257 0.0
H186 H 0.33508 0.03471 0.79244 0.0
H187 H 0.27529 0.00842 0.84602 0.0
H188 H 0.25177 0.96958 0.80426 0.0
H189 H 0.20895 0.06534 0.78631 0.0
H190 H 0.35419 0.06292 0.70021 0.0
H191 H 0.35605 0.90359 0.70218 0.0
H192 H 0.46534 0.08395 0.65174 0.0
H193 H 0.40449 0.10902 0.64709 0.0
H194 H 0.43241 0.07679 0.59423 0.0
H195 H 0.41516 0.85635 0.6571 0.0
H196 H 0.4733 0.8871 0.65232 0.0
H197 H 0.43419 0.88478 0.59877 0.0
H198 H 0.25254 0.99526 0.32519 0.0
H199 H 0.32411 0.03525 0.3205 0.0
H200 H 0.36386 0.88164 0.30504 0.0
H201 H 0.40432 0.06689 0.41559 0.0
H202 H 0.37292 0.09322 0.3625 0.0
H203 H 0.43729 0.07886 0.35846 0.0
H204 H 0.4355 0.84824 0.34032 0.0
H205 H 0.45542 0.87964 0.39676 0.0
H206 H 0.48514 0.89176 0.33779 0.0
H207 H 0.7698 0.0158 0.31508 0.0
H208 H 0.83336 0.07872 0.32918 0.0
H209 H 0.77566 0.09739 0.35655 0.0
H210 H 0.79631 0.12537 0.29867 0.0
H211 H 0.65288 0.12257 0.31083 0.0
H212 H 0.70051 0.97083 0.30214 0.0
H213 H 0.56573 0.10893 0.40595 0.0
H214 H 0.53272 0.10116 0.34858 0.0
H215 H 0.58012 0.14711 0.35224 0.0
H216 H 0.6545 0.90514 0.33555 0.0
H217 H 0.58956 0.91673 0.33929 0.0
H218 H 0.62594 0.92295 0.39459 0.0
H219 H 0.5223 0.99208 0.67197 0.0
H220 H 0.39697 0.96712 0.54893 0.0
H221 H 0.39426 0.96654 0.45854 0.0
H222 H 0.51034 0.99683 0.32541 0.0
H223 H 0.63567 0.01914 0.44853 0.0
H224 H 0.63913 0.01635 0.53838 0.0
H225 H 0.18487 0.93563 0.33337 0.0
H226 H 0.24092 0.91049 0.35766 0.0
H227 H 0.2192 0.88989 0.2971 0.0
C228 C 0.73646 0.76612 0.87708 0.0
C229 C 0.73533 0.76739 0.93488 0.0
C230 C 0.69602 0.69394 0.96636 0.0
C231 C 0.68315 0.68755 0.01693 0.0
C232 C 0.64071 0.66173 0.03037 0.0
C233 C 0.61076 0.64194 0.99211 0.0
C234 C 0.62419 0.64785 0.94086 0.0
C235 C 0.66711 0.67327 0.92863 0.0
C236 C 0.62781 0.6556 0.08534 0.0
C237 C 0.59329 0.6272 0.89903 0.0
C238 C 0.24334 0.70756 0.10182 0.0
C239 C 0.26509 0.72672 0.05238 0.0
C240 C 0.35249 0.71183 0.0515 0.0
C241 C 0.36036 0.68892 0.00451 0.0
C242 C 0.40162 0.65874 0.99576 0.0
C243 C 0.43525 0.6509 0.03515 0.0
C244 C 0.42766 0.67467 0.08236 0.0
C245 C 0.38661 0.70548 0.08965 0.0
C246 C 0.40945 0.63555 0.94436 0.0
C247 C 0.46278 0.6674 0.12513 0.0
C248 C 0.34282 0.32245 0.05487 0.0
C249 C 0.35284 0.34142 0.00677 0.0
C250 C 0.39432 0.37042 0.99802 0.0
C251 C 0.42642 0.38046 0.03819 0.0
C252 C 0.4167 0.3608 0.08653 0.0
C253 C 0.37518 0.33155 0.09408 0.0
C254 C 0.40441 0.38953 0.94565 0.0
C255 C 0.45039 0.37039 0.13006 0.0
C256 C 0.80053 0.33664 0.93021 0.0
C257 C 0.77466 0.30774 0.97192 0.0
C258 C 0.68669 0.31956 0.96974 0.0
C259 C 0.65294 0.33129 0.93256 0.0
C260 C 0.6105 0.35849 0.9444 0.0
C261 C 0.6014 0.37325 0.99492 0.0
C262 C 0.63426 0.35922 0.03314 0.0
C263 C 0.67666 0.3324 0.02012 0.0
C264 C 0.57589 0.3724 0.90286 0.0
C265 C 0.62481 0.37316 0.08754 0.0
C266 C 0.56564 0.61467 0.00555 0.0
C267 C 0.52312 0.64225 0.01515 0.0
C268 C 0.47902 0.61894 0.02656 0.0
C269 C 0.47704 0.56646 0.02851 0.0
C270 C 0.43348 0.54164 0.04029 0.0
C271 C 0.43169 0.48994 0.04073 0.0
C272 C 0.47343 0.4611 0.02958 0.0
C273 C 0.47191 0.40856 0.0288 0.0
C274 C 0.51421 0.38115 0.01781 0.0
C275 C 0.55829 0.40466 0.00746 0.0
C276 C 0.56065 0.45706 0.00798 0.0
C277 C 0.60456 0.4818 0.99773 0.0
C278 C 0.60642 0.53336 0.99757 0.0
C279 C 0.56434 0.56223 0.00714 0.0
C280 C 0.51981 0.53807 0.0183 0.0
C281 C 0.51799 0.48538 0.0188 0.0
C282 C 0.22741 0.32908 0.09166 0.0
C283 C 0.25615 0.30475 0.04827 0.0
O284 O 0.73665 0.71978 0.95438 0.0
O285 O 0.72831 0.29541 0.95596 0.0
O286 O 0.30307 0.29414 0.06423 0.0
O287 O 0.31283 0.74107 0.06053 0.0
H288 H 0.70064 0.78617 0.94685 0.0
H289 H 0.70104 0.75319 0.86237 0.0
H290 H 0.76589 0.74103 0.8628 0.0
H291 H 0.74245 0.80397 0.8619 0.0
H292 H 0.70618 0.70329 0.04577 0.0
H293 H 0.67823 0.67667 0.88961 0.0
H294 H 0.593 0.67541 0.09379 0.0
H295 H 0.65645 0.67038 0.11052 0.0
H296 H 0.62226 0.61571 0.09382 0.0
H297 H 0.60639 0.63885 0.8612 0.0
H298 H 0.55482 0.63959 0.90406 0.0
H299 H 0.59389 0.58602 0.90047 0.0
H300 H 0.26402 0.69584 0.02435 0.0
H301 H 0.20523 0.69513 0.0962 0.0
H302 H 0.24357 0.73709 0.13127 0.0
H303 H 0.26511 0.6754 0.11529 0.0
H304 H 0.33466 0.69533 0.97446 0.0
H305 H 0.3804 0.72394 0.12558 0.0
H306 H 0.44667 0.64394 0.93011 0.0
H307 H 0.3824 0.64892 0.91657 0.0
H308 H 0.40651 0.59458 0.94717 0.0
H309 H 0.4492 0.68448 0.16086 0.0
H310 H 0.4983 0.68438 0.11518 0.0
H311 H 0.46937 0.62716 0.1313 0.0
H312 H 0.25684 0.3319 0.01694 0.0
H313 H 0.32897 0.33263 0.97577 0.0
H314 H 0.36742 0.31612 0.13088 0.0
H315 H 0.406 0.4307 0.94647 0.0
H316 H 0.37614 0.37804 0.91834 0.0
H317 H 0.44046 0.37556 0.93211 0.0
H318 H 0.4357 0.35582 0.16616 0.0
H319 H 0.45661 0.41089 0.13427 0.0
H320 H 0.48629 0.35244 0.12226 0.0
H321 H 0.77275 0.33239 0.00568 0.0
H322 H 0.83772 0.3473 0.94226 0.0
H323 H 0.77964 0.37109 0.9219 0.0
H324 H 0.80342 0.31395 0.89515 0.0
H325 H 0.66075 0.32034 0.89393 0.0
H326 H 0.70179 0.32131 0.04927 0.0
H327 H 0.57234 0.41345 0.90091 0.0
H328 H 0.53913 0.35741 0.91128 0.0
H329 H 0.58824 0.35807 0.86548 0.0
H330 H 0.65272 0.35742 0.11309 0.0
H331 H 0.58832 0.35981 0.09951 0.0
H332 H 0.62462 0.41421 0.09165 0.0
H333 H 0.52428 0.68246 0.01326 0.0
H334 H 0.40018 0.56194 0.04901 0.0
H335 H 0.39712 0.47282 0.0497 0.0
H336 H 0.51273 0.34089 0.01694 0.0
H337 H 0.63803 0.46158 0.98959 0.0
H338 H 0.64125 0.55031 0.98947 0.0
H339 H 0.18986 0.33861 0.07946 0.0
H340 H 0.24562 0.36387 0.10356 0.0
H341 H 0.22535 0.30381 0.12453 0.0
C342 C 0.01683 0.13512 0.87765 0.0
C343 C 0.01625 0.13261 0.12091 0.0
C344 C 0.0253 0.89663 0.87136 0.0
C345 C 0.01576 0.89046 0.11473 0.0
C346 C 0.13403 0.89066 0.00141 0.0
C347 C 0.13683 0.13266 0.00421 0.0
C348 C 0.89757 0.89727 0.98671 0.0
C349 C 0.9024 0.13693 0.99926 0.0
C350 C 0.89679 0.01596 0.11725 0.0
C351 C 0.13143 0.00845 0.1236 0.0
C352 C 0.90465 0.02481 0.87299 0.0
C353 C 0.14068 0.01969 0.87937 0.0
Eu354 Eu 0.0196 0.10706 0.99913 0.0
O355 O 0.06076 0.05624 0.04481 0.0
O356 O 0.97751 0.05877 0.95307 0.0
Eu357 Eu 0.11125 0.01224 0.00054 0.0
Eu358 Eu 0.9259 0.01635 0.99553 0.0
O359 O 0.0645 0.05767 0.95468 0.0
O360 O 0.97416 0.05819 0.04231 0.0
Eu361 Eu 0.02191 0.01533 0.90239 0.0
Eu362 Eu 0.01487 0.01216 0.0929 0.0
O363 O 0.06336 0.96967 0.95282 0.0
O364 O 0.05847 0.96892 0.04102 0.0
O365 O 0.97234 0.9696 0.04025 0.0
O366 O 0.97508 0.97167 0.94976 0.0
Eu367 Eu 0.01644 0.9203 0.99395 0.0
O368 O 0.01451 0.14991 0.92576 0.0
O369 O 0.02068 0.14736 0.07335 0.0
O370 O 0.02453 0.87999 0.91866 0.0
O371 O 0.0135 0.87724 0.06633 0.0
O372 O 0.15043 0.93732 0.00118 0.0
O373 O 0.15194 0.08552 0.00855 0.0
O374 O 0.88394 0.94483 0.99053 0.0
O375 O 0.88624 0.09054 0.99487 0.0
O376 O 0.94238 0.01093 0.13335 0.0
O377 O 0.0846 0.01184 0.13712 0.0
O378 O 0.95142 0.02124 0.85867 0.0
O379 O 0.09523 0.01671 0.8623 0.0
O380 O 0.94368 0.88071 0.98703 0.0
O381 O 0.08733 0.87733 0.9992 0.0
O382 O 0.9489 0.15039 0.00262 0.0
O383 O 0.09088 0.1476 0.99826 0.0
O384 O 0.0117 0.08569 0.13641 0.0
O385 O 0.01757 0.9371 0.1323 0.0
O386 O 0.02172 0.08836 0.86169 0.0
O387 O 0.02315 0.94407 0.85778 0.0
O388 O 0.15418 0.01933 0.92753 0.0
O389 O 0.14879 0.00659 0.07639 0.0
O390 O 0.88829 0.02332 0.92046 0.0
O391 O 0.88296 0.01948 0.06927 0.0
C392 C 0.96686 0.22133 0.22 0.0
C393 C 0.99691 0.26309 0.21327 0.0
C394 C 0.9757 0.17694 0.19313 0.0
C395 C 0.01448 0.17323 0.15832 0.0
H396 H 0.93496 0.22383 0.24428 0.0
H397 H 0.95013 0.14671 0.19703 0.0
S398 S 0.1062 0.26964 0.12994 0.0
N399 N 0.06899 0.29613 0.17157 0.0
N400 N 0.08534 0.21294 0.1214 0.0
C401 C 0.04622 0.21355 0.15332 0.0
C402 C 0.03743 0.25848 0.18059 0.0
C403 C 0.83091 0.99816 0.24113 0.0
C404 C 0.79734 0.03797 0.24235 0.0
C405 C 0.86143 0.98986 0.19931 0.0
C406 C 0.85922 0.02076 0.15696 0.0
H407 H 0.83472 0.97416 0.27347 0.0
H408 H 0.88785 0.95975 0.20062 0.0
S409 S 0.77905 0.13082 0.14124 0.0
N410 N 0.76455 0.10926 0.19751 0.0
N411 N 0.82149 0.0928 0.11846 0.0
C412 C 0.82521 0.05995 0.15692 0.0
C413 C 0.79449 0.06889 0.19981 0.0
C414 C 0.06134 0.81383 0.22434 0.0
C415 C 0.04575 0.7656 0.21177 0.0
C416 C 0.04888 0.85488 0.19458 0.0
C417 C 0.02058 0.84912 0.15101 0.0
H418 H 0.08504 0.81951 0.25623 0.0
H419 H 0.06378 0.89079 0.20427 0.0
S420 S 0.96563 0.73184 0.10514 0.0
N421 N 0.99705 0.71537 0.15515 0.0
N422 N 0.97316 0.7923 0.09977 0.0
C423 C 0.00242 0.80161 0.13977 0.0
C424 C 0.01516 0.75993 0.16993 0.0
C425 C 0.2322 0.9562 0.20424 0.0
C426 C 0.22479 0.98113 0.25063 0.0
C427 C 0.20385 0.96755 0.16209 0.0
C428 C 0.16633 0.00329 0.16518 0.0
H429 H 0.259 0.92658 0.20088 0.0
H430 H 0.20958 0.94629 0.12773 0.0
S431 S 0.13358 0.08082 0.27663 0.0
N432 N 0.17856 0.04483 0.2961 0.0
N433 N 0.12488 0.06551 0.21706 0.0
C434 C 0.15944 0.02947 0.21069 0.0
C435 C 0.18863 0.01842 0.25337 0.0
C436 C 0.08418 0.79277 0.79575 0.0
C437 C 0.06777 0.80216 0.74654 0.0
C438 C 0.06719 0.82112 0.83687 0.0
C439 C 0.03407 0.86052 0.83012 0.0
H440 H 0.11188 0.76471 0.80229 0.0
H441 H 0.08256 0.81421 0.87357 0.0
S442 S 0.97705 0.89787 0.70985 0.0
N443 N 0.01408 0.85153 0.6941 0.0
N444 N 0.98256 0.90512 0.77134 0.0
C445 C 0.01571 0.86885 0.7816 0.0
C446 C 0.0326 0.83972 0.73984 0.0
C447 C 0.26777 0.09601 0.81069 0.0
C448 C 0.2706 0.05604 0.75284 0.0
C449 C 0.22298 0.07709 0.85705 0.0
C450 C 0.17868 0.02974 0.84203 0.0
H451 H 0.29668 0.12132 0.82034 0.0
H452 H 0.22212 0.09486 0.89372 0.0
S453 S 0.16502 0.95542 0.70563 0.0
N454 N 0.21407 0.98981 0.69022 0.0
N455 N 0.14425 0.96726 0.76464 0.0
C456 C 0.17556 0.00218 0.78002 0.0
C457 C 0.21809 0.01791 0.73192 0.0
C458 C 0.95343 0.23712 0.80611 0.0
C459 C 0.97122 0.22987 0.75658 0.0
C460 C 0.97151 0.20911 0.84628 0.0
C461 C 0.00738 0.17224 0.83816 0.0
H462 H 0.92365 0.26291 0.81349 0.0
H463 H 0.95481 0.21398 0.88318 0.0
S464 S 0.06932 0.14191 0.71683 0.0
N465 N 0.02939 0.18574 0.7026 0.0
N466 N 0.06314 0.13294 0.77802 0.0
C467 C 0.02733 0.1665 0.78946 0.0
C468 C 0.0092 0.19521 0.74868 0.0
C469 C 0.85031 0.06434 0.74818 0.0
C470 C 0.79963 0.06387 0.75784 0.0
C471 C 0.88378 0.05051 0.78518 0.0
C472 C 0.86818 0.03462 0.83311 0.0
H473 H 0.86481 0.07607 0.71221 0.0
H474 H 0.92227 0.05333 0.77622 0.0
S475 S 0.73938 0.01905 0.87457 0.0
N476 N 0.73556 0.04126 0.81693 0.0
N477 N 0.79823 0.01445 0.88625 0.0
C478 C 0.81762 0.03137 0.84232 0.0
C479 C 0.78357 0.04588 0.80473 0.0
C480 C 0.23659 0.213 0.05795 0.0
C481 C 0.23081 0.25773 0.0312 0.0
C482 C 0.2084 0.17111 0.0467 0.0
C483 C 0.17283 0.17286 0.00898 0.0
H484 H 0.26181 0.21094 0.08903 0.0
H485 H 0.2125 0.13821 0.06959 0.0
S486 S 0.14528 0.27955 0.92599 0.0
N487 N 0.18837 0.3 0.96365 0.0
N488 N 0.13543 0.22157 0.94277 0.0
C489 C 0.16795 0.21659 0.9808 0.0
C490 C 0.19677 0.25898 0.99194 0.0
C491 C 0.24426 0.81909 0.04851 0.0
C492 C 0.23462 0.76991 0.03332 0.0
C493 C 0.21297 0.8584 0.03556 0.0
C494 C 0.17012 0.84993 0.00817 0.0
H495 H 0.27552 0.82717 0.07169 0.0
H496 H 0.22135 0.89533 0.04914 0.0
S497 S 0.12902 0.72831 0.95811 0.0
N498 N 0.18006 0.71534 0.9879 0.0
N499 N 0.12085 0.78881 0.96449 0.0
C500 C 0.16062 0.80112 0.9919 0.0
C501 C 0.19281 0.76129 0.00441 0.0
C502 C 0.79822 0.21768 0.95508 0.0
C503 C 0.80363 0.26129 0.98414 0.0
C504 C 0.82864 0.17629 0.96219 0.0
C505 C 0.86626 0.17756 0.99768 0.0
H506 H 0.77123 0.21601 0.92562 0.0
H507 H 0.82424 0.14408 0.938 0.0
S508 S 0.89448 0.28124 0.0848 0.0
N509 N 0.84832 0.30204 0.05122 0.0
N510 N 0.90588 0.2244 0.06396 0.0
C511 C 0.87136 0.2202 0.0278 0.0
C512 C 0.84007 0.26206 0.02106 0.0
C513 C 0.76991 0.84585 0.97218 0.0
C514 C 0.77802 0.79722 0.95435 0.0
C515 C 0.80873 0.87686 0.9845 0.0
C516 C 0.85763 0.86087 0.97912 0.0
H517 H 0.73315 0.86067 0.97534 0.0
H518 H 0.80002 0.91424 0.99712 0.0
S519 S 0.89845 0.73545 0.93627 0.0
N520 N 0.83836 0.7334 0.93402 0.0
N521 N 0.91169 0.79171 0.95678 0.0
C522 C 0.86628 0.81154 0.96304 0.0
C523 C 0.82649 0.77983 0.95062 0.0
loop_
_geom_bond_atom_site_label_1
_geom_bond_atom_site_label_2
_geom_bond_distance
_geom_bond_site_symmetry_2
_ccdc_geom_bond_type
C0 C1 1.560 . S
C0 H61 0.959 . S
C0 H62 0.959 . S
C0 H63 0.960 . S
C1 C0 1.560 . S
C1 O56 1.426 . S
C1 H60 0.980 . S
C2 C3 1.407 . S
C2 C7 1.418 . S
C2 O56 1.334 . S
C3 C2 1.407 . S
C3 C4 1.360 1_455 S
C3 H64 0.929 1_455 S
C4 C3 1.360 1_655 S
C4 C5 1.401 1_655 S
C4 C8 1.527 . S
C5 C4 1.401 1_455 S
C5 C6 1.405 . S
C5 C38 1.586 1_455 S
C6 C5 1.405 . S
C6 C7 1.332 . S
C6 C9 1.496 . S
C7 C2 1.418 . S
C7 C6 1.332 . S
C7 H65 0.929 . S
C8 C4 1.527 . S
C8 H66 0.959 . S
C8 H67 0.961 . S
C8 H68 0.961 . S
C9 C6 1.496 . S
C9 H69 0.960 . S
C9 H70 0.960 . S
C9 H71 0.961 . S
C10 C11 1.517 . S
C10 H73 0.961 1_655 S
C10 H74 0.960 . S
C10 H75 0.959 . S
C11 C10 1.517 . S
C11 O59 1.468 . S
C11 H72 0.980 1_655 S
C12 C13 1.349 1_655 S
C12 C17 1.367 . S
C12 O59 1.408 . S
C13 C12 1.349 1_455 S
C13 C14 1.407 . S
C13 H76 0.930 . S
C14 C13 1.407 . S
C14 C15 1.449 1_455 S
C14 C18 1.535 . S
C15 C14 1.449 1_655 S
C15 C16 1.384 . S
C15 C40 1.553 . S
C16 C15 1.384 . S
C16 C17 1.364 . S
C16 C19 1.450 . S
C17 C12 1.367 . S
C17 C16 1.364 . S
C17 H77 0.931 . S
C18 C14 1.535 . S
C18 H78 0.959 . S
C18 H79 0.961 . S
C18 H80 0.959 . S
C19 C16 1.450 . S
C19 H81 0.960 . S
C19 H82 0.960 . S
C19 H83 0.960 . S
C20 C21 1.309 1_655 S
C20 C25 1.304 . S
C20 O58 1.435 . S
C21 C20 1.309 1_455 S
C21 C22 1.476 . S
C21 H85 0.930 . S
C22 C21 1.476 . S
C22 C23 1.400 1_455 S
C22 C26 1.567 . S
C23 C22 1.400 1_655 S
C23 C24 1.373 . S
C23 C45 1.432 . S
C24 C23 1.373 . S
C24 C25 1.339 . S
C24 C27 1.530 . S
C25 C20 1.304 . S
C25 C24 1.339 . S
C25 H86 0.930 . S
C26 C22 1.567 . S
C26 H87 0.961 . S
C26 H88 0.960 . S
C26 H89 0.958 . S
C27 C24 1.530 . S
C27 H90 0.961 . S
C27 H91 0.960 . S
C27 H92 0.960 . S
C28 C29 1.530 . S
C28 H94 0.961 . S
C28 H95 0.961 . S
C28 H96 0.959 . S
C29 C28 1.530 . S
C29 O57 1.412 . S
C29 H93 0.980 . S
C30 C31 1.288 . S
C30 C35 1.377 . S
C30 O57 1.393 . S
C31 C30 1.288 . S
C31 C32 1.369 . S
C31 H97 0.932 . S
C32 C31 1.369 . S
C32 C33 1.398 . S
C32 C36 1.527 . S
C33 C32 1.398 . S
C33 C34 1.380 1_455 S
C33 C47 1.497 . S
C34 C33 1.380 1_655 S
C34 C35 1.383 1_655 S
C34 C37 1.603 . S
C35 C30 1.377 . S
C35 C34 1.383 1_455 S
C35 H98 0.929 1_455 S
C36 C32 1.527 . S
C36 H99 0.961 . S
C36 H100 0.959 . S
C36 H101 0.959 . S
C37 C34 1.603 . S
C37 H102 0.960 . S
C37 H103 0.962 . S
C37 H104 0.961 . S
C38 C5 1.586 1_655 S
C38 C39 1.361 . S
C38 C51 1.412 1_655 S
C39 C38 1.361 . S
C39 C40 1.365 . S
C39 H105 0.929 . S
C40 C15 1.553 . S
C40 C39 1.365 . S
C40 C41 1.404 . S
C41 C40 1.404 . S
C41 C42 1.395 . S
C41 C52 1.451 . S
C42 C41 1.395 . S
C42 C43 1.322 . S
C42 H106 0.930 . S
C43 C42 1.322 . S
C43 C44 1.459 . S
C43 H107 0.929 . S
C44 C43 1.459 . S
C44 C45 1.445 . S
C44 C53 1.395 . S
C45 C23 1.432 . S
C45 C44 1.445 . S
C45 C46 1.370 1_655 S
C46 C45 1.370 1_455 S
C46 C47 1.438 . S
C46 H108 0.930 . S
C47 C33 1.497 . S
C47 C46 1.438 . S
C47 C48 1.360 . S
C48 C47 1.360 . S
C48 C49 1.401 . S
C48 C53 1.446 1_455 S
C49 C48 1.401 . S
C49 C50 1.347 . S
C49 H109 0.929 . S
C50 C49 1.347 . S
C50 C51 1.455 . S
C50 H110 0.930 . S
C51 C38 1.412 1_455 S
C51 C50 1.455 . S
C51 C52 1.331 1_455 S
C52 C41 1.451 . S
C52 C51 1.331 1_655 S
C52 C53 1.497 . S
C53 C44 1.395 . S
C53 C48 1.446 1_655 S
C53 C52 1.497 . S
C54 C55 1.582 1_655 S
C54 H111 0.962 1_655 S
C54 H112 0.959 . S
C54 H113 0.958 . S
C55 C54 1.582 1_455 S
C55 O58 1.458 1_455 S
C55 H84 0.980 . S
O56 C1 1.426 . S
O56 C2 1.334 . S
O57 C29 1.412 . S
O57 C30 1.393 . S
O58 C20 1.435 . S
O58 C55 1.458 1_655 S
O59 C11 1.468 . S
O59 C12 1.408 . S
H60 C1 0.980 . S
H61 C0 0.959 . S
H62 C0 0.959 . S
H63 C0 0.960 . S
H64 C3 0.929 1_655 S
H65 C7 0.929 . S
H66 C8 0.959 . S
H67 C8 0.961 . S
H68 C8 0.961 . S
H69 C9 0.960 . S
H70 C9 0.960 . S
H71 C9 0.961 . S
H72 C11 0.980 1_455 S
H73 C10 0.961 1_455 S
H74 C10 0.960 . S
H75 C10 0.959 . S
H76 C13 0.930 . S
H77 C17 0.931 . S
H78 C18 0.959 . S
H79 C18 0.961 . S
H80 C18 0.959 . S
H81 C19 0.960 . S
H82 C19 0.960 . S
H83 C19 0.960 . S
H84 C55 0.980 . S
H85 C21 0.930 . S
H86 C25 0.930 . S
H87 C26 0.961 . S
H88 C26 0.960 . S
H89 C26 0.958 . S
H90 C27 0.961 . S
H91 C27 0.960 . S
H92 C27 0.960 . S
H93 C29 0.980 . S
H94 C28 0.961 . S
H95 C28 0.961 . S
H96 C28 0.959 . S
H97 C31 0.932 . S
H98 C35 0.929 1_655 S
H99 C36 0.961 . S
H100 C36 0.959 . S
H101 C36 0.959 . S
H102 C37 0.960 . S
H103 C37 0.962 . S
H104 C37 0.961 . S
H105 C39 0.929 . S
H106 C42 0.930 . S
H107 C43 0.929 . S
H108 C46 0.930 . S
H109 C49 0.929 . S
H110 C50 0.930 . S
H111 C54 0.962 1_455 S
H112 C54 0.959 . S
H113 C54 0.958 . S
C114 C115 1.560 . S
C114 H175 0.959 . S
C114 H176 0.959 . S
C114 H177 0.960 . S
C115 C114 1.560 . S
C115 O170 1.426 . S
C115 H174 0.980 . S
C116 C117 1.407 1_545 S
C116 C121 1.418 . S
C116 O170 1.334 . S
C117 C116 1.407 1_565 S
C117 C118 1.360 . S
C117 H178 0.929 . S
C118 C117 1.360 . S
C118 C119 1.401 1_565 S
C118 C122 1.527 . S
C119 C118 1.401 1_545 S
C119 C120 1.405 . S
C119 C152 1.587 1_545 S
C120 C119 1.405 . S
C120 C121 1.332 . S
C120 C123 1.496 . S
C121 C116 1.418 . S
C121 C120 1.332 . S
C121 H179 0.929 . S
C122 C118 1.527 . S
C122 H180 0.959 . S
C122 H181 0.961 . S
C122 H182 0.961 . S
C123 C120 1.496 . S
C123 H183 0.960 . S
C123 H184 0.960 . S
C123 H185 0.961 . S
C124 C125 1.517 . S
C124 H187 0.961 1_565 S
C124 H188 0.960 . S
C124 H189 0.959 . S
C125 C124 1.517 . S
C125 O173 1.468 . S
C125 H186 0.980 1_565 S
C126 C127 1.349 1_565 S
C126 C131 1.367 . S
C126 O173 1.408 . S
C127 C126 1.349 1_545 S
C127 C128 1.407 . S
C127 H190 0.930 . S
C128 C127 1.407 . S
C128 C129 1.449 1_545 S
C128 C132 1.535 . S
C129 C128 1.449 1_565 S
C129 C130 1.384 . S
C129 C154 1.553 . S
C130 C129 1.384 . S
C130 C131 1.364 . S
C130 C133 1.450 . S
C131 C126 1.367 . S
C131 C130 1.364 . S
C131 H191 0.931 . S
C132 C128 1.535 . S
C132 H192 0.959 . S
C132 H193 0.961 . S
C132 H194 0.959 . S
C133 C130 1.450 . S
C133 H195 0.960 . S
C133 H196 0.960 . S
C133 H197 0.960 . S
C134 C135 1.309 1_565 S
C134 C139 1.304 . S
C134 O172 1.435 . S
C135 C134 1.309 1_545 S
C135 C136 1.476 . S
C135 H199 0.930 . S
C136 C135 1.476 . S
C136 C137 1.400 1_545 S
C136 C140 1.567 . S
C137 C136 1.400 1_565 S
C137 C138 1.373 . S
C137 C159 1.432 . S
C138 C137 1.373 . S
C138 C139 1.339 . S
C138 C141 1.530 . S
C139 C134 1.304 . S
C139 C138 1.339 . S
C139 H200 0.930 . S
C140 C136 1.567 . S
C140 H201 0.961 . S
C140 H202 0.960 . S
C140 H203 0.958 . S
C141 C138 1.530 . S
C141 H204 0.961 . S
C141 H205 0.960 . S
C141 H206 0.960 . S
C142 C143 1.530 . S
C142 H208 0.961 . S
C142 H209 0.961 . S
C142 H210 0.959 . S
C143 C142 1.530 . S
C143 O171 1.412 . S
C143 H207 0.980 . S
C144 C145 1.288 . S
C144 C149 1.377 1_545 S
C144 O171 1.393 . S
C145 C144 1.288 . S
C145 C146 1.369 . S
C145 H211 0.932 . S
C146 C145 1.369 . S
C146 C147 1.398 . S
C146 C150 1.527 . S
C147 C146 1.398 . S
C147 C148 1.380 1_545 S
C147 C161 1.497 . S
C148 C147 1.380 1_565 S
C148 C149 1.383 . S
C148 C151 1.603 . S
C149 C144 1.377 1_565 S
C149 C148 1.383 . S
C149 H212 0.929 . S
C150 C146 1.527 . S
C150 H213 0.961 . S
C150 H214 0.959 . S
C150 H215 0.959 . S
C151 C148 1.603 . S
C151 H216 0.960 . S
C151 H217 0.962 . S
C151 H218 0.961 . S
C152 C119 1.587 1_565 S
C152 C153 1.360 . S
C152 C165 1.412 . S
C153 C152 1.360 . S
C153 C154 1.365 . S
C153 H219 0.929 . S
C154 C129 1.553 . S
C154 C153 1.365 . S
C154 C155 1.404 . S
C155 C154 1.404 . S
C155 C156 1.395 . S
C155 C166 1.451 . S
C156 C155 1.395 . S
C156 C157 1.322 . S
C156 H220 0.930 . S
C157 C156 1.322 . S
C157 C158 1.459 . S
C157 H221 0.929 . S
C158 C157 1.459 . S
C158 C159 1.445 . S
C158 C167 1.395 . S
C159 C137 1.432 . S
C159 C158 1.445 . S
C159 C160 1.370 . S
C160 C159 1.370 . S
C160 C161 1.438 1_565 S
C160 H222 0.931 1_565 S
C161 C147 1.497 . S
C161 C160 1.438 1_545 S
C161 C162 1.359 1_545 S
C162 C161 1.359 1_565 S
C162 C163 1.400 1_565 S
C162 C167 1.447 . S
C163 C162 1.400 1_545 S
C163 C164 1.347 . S
C163 H223 0.929 . S
C164 C163 1.347 . S
C164 C165 1.455 1_545 S
C164 H224 0.930 . S
C165 C152 1.412 . S
C165 C164 1.455 1_565 S
C165 C166 1.331 . S
C166 C155 1.451 . S
C166 C165 1.331 . S
C166 C167 1.497 . S
C167 C158 1.395 . S
C167 C162 1.447 . S
C167 C166 1.497 . S
C168 C169 1.582 1_565 S
C168 H225 0.962 . S
C168 H226 0.959 . S
C168 H227 0.958 . S
C169 C168 1.582 1_545 S
C169 O172 1.458 1_545 S
C169 H198 0.980 . S
O170 C115 1.426 . S
O170 C116 1.334 . S
O171 C143 1.412 . S
O171 C144 1.393 . S
O172 C134 1.435 . S
O172 C169 1.458 1_565 S
O173 C125 1.468 . S
O173 C126 1.408 . S
H174 C115 0.980 . S
H175 C114 0.959 . S
H176 C114 0.959 . S
H177 C114 0.960 . S
H178 C117 0.929 . S
H179 C121 0.929 . S
H180 C122 0.959 . S
H181 C122 0.961 . S
H182 C122 0.961 . S
H183 C123 0.960 . S
H184 C123 0.960 . S
H185 C123 0.961 . S
H186 C125 0.980 1_545 S
H187 C124 0.961 1_545 S
H188 C124 0.960 . S
H189 C124 0.959 . S
H190 C127 0.930 . S
H191 C131 0.931 . S
H192 C132 0.959 . S
H193 C132 0.961 . S
H194 C132 0.959 . S
H195 C133 0.960 . S
H196 C133 0.960 . S
H197 C133 0.960 . S
H198 C169 0.980 . S
H199 C135 0.930 . S
H200 C139 0.930 . S
H201 C140 0.961 . S
H202 C140 0.960 . S
H203 C140 0.958 . S
H204 C141 0.961 . S
H205 C141 0.960 . S
H206 C141 0.960 . S
H207 C143 0.980 . S
H208 C142 0.961 . S
H209 C142 0.961 . S
H210 C142 0.959 . S
H211 C145 0.932 . S
H212 C149 0.929 . S
H213 C150 0.961 . S
H214 C150 0.959 . S
H215 C150 0.959 . S
H216 C151 0.960 . S
H217 C151 0.962 . S
H218 C151 0.961 . S
H219 C153 0.929 . S
H220 C156 0.930 . S
H221 C157 0.929 . S
H222 C160 0.931 1_545 S
H223 C163 0.929 . S
H224 C164 0.930 . S
H225 C168 0.962 . S
H226 C168 0.959 . S
H227 C168 0.958 . S
C228 C229 1.560 . S
C228 H289 0.959 . S
C228 H290 0.959 . S
C228 H291 0.960 . S
C229 C228 1.560 . S
C229 O284 1.426 . S
C229 H288 0.980 . S
C230 C231 1.407 1_556 S
C230 C235 1.418 . S
C230 O284 1.334 . S
C231 C230 1.407 1_554 S
C231 C232 1.360 . S
C231 H292 0.929 . S
C232 C231 1.360 . S
C232 C233 1.401 . S
C232 C236 1.527 . S
C233 C232 1.401 . S
C233 C234 1.405 1_554 S
C233 C266 1.587 . S
C234 C233 1.405 1_556 S
C234 C235 1.332 . S
C234 C237 1.496 . S
C235 C230 1.418 . S
C235 C234 1.332 . S
C235 H293 0.929 . S
C236 C232 1.527 . S
C236 H294 0.959 . S
C236 H295 0.961 . S
C236 H296 0.961 . S
C237 C234 1.496 . S
C237 H297 0.960 . S
C237 H298 0.960 . S
C237 H299 0.961 . S
C238 C239 1.517 . S
C238 H301 0.961 . S
C238 H302 0.960 . S
C238 H303 0.959 . S
C239 C238 1.517 . S
C239 O287 1.468 . S
C239 H300 0.980 . S
C240 C241 1.349 . S
C240 C245 1.367 . S
C240 O287 1.408 . S
C241 C240 1.349 . S
C241 C242 1.407 . S
C241 H304 0.930 1_554 S
C242 C241 1.407 . S
C242 C243 1.449 . S
C242 C246 1.535 1_554 S
C243 C242 1.449 . S
C243 C244 1.384 . S
C243 C268 1.553 . S
C244 C243 1.384 . S
C244 C245 1.364 . S
C244 C247 1.450 . S
C245 C240 1.367 . S
C245 C244 1.364 . S
C245 H305 0.931 . S
C246 C242 1.535 1_556 S
C246 H306 0.959 . S
C246 H307 0.961 . S
C246 H308 0.959 . S
C247 C244 1.450 . S
C247 H309 0.960 . S
C247 H310 0.960 . S
C247 H311 0.960 . S
C248 C249 1.288 1_554 S
C248 C253 1.304 . S
C248 O286 1.435 . S
C249 C248 1.288 1_556 S
C249 C250 1.479 . S
C249 H313 0.947 . S
C250 C249 1.479 . S
C250 C251 1.400 1_556 S
C250 C254 1.567 . S
C251 C250 1.400 1_554 S
C251 C252 1.373 . S
C251 C273 1.432 . S
C252 C251 1.373 . S
C252 C253 1.339 . S
C252 C255 1.530 . S
C253 C248 1.304 . S
C253 C252 1.339 . S
C253 H314 0.930 . S
C254 C250 1.567 . S
C254 H315 0.961 . S
C254 H316 0.960 . S
C254 H317 0.958 . S
C255 C252 1.530 . S
C255 H318 0.961 . S
C255 H319 0.960 . S
C255 H320 0.960 . S
C256 C257 1.530 . S
C256 H322 0.961 . S
C256 H323 0.961 . S
C256 H324 0.959 . S
C257 C256 1.530 . S
C257 O285 1.412 . S
C257 H321 0.980 1_556 S
C258 C259 1.288 . S
C258 C263 1.377 1_556 S
C258 O285 1.393 . S
C259 C258 1.288 . S
C259 C260 1.369 . S
C259 H325 0.932 . S
C260 C259 1.369 . S
C260 C261 1.398 . S
C260 C264 1.527 . S
C261 C260 1.398 . S
C261 C262 1.380 1_556 S
C261 C275 1.497 1_556 S
C262 C261 1.380 1_554 S
C262 C263 1.383 . S
C262 C265 1.603 . S
C263 C258 1.377 1_554 S
C263 C262 1.383 . S
C263 H326 0.929 . S
C264 C260 1.527 . S
C264 H327 0.961 . S
C264 H328 0.959 . S
C264 H329 0.959 . S
C265 C262 1.603 . S
C265 H330 0.960 . S
C265 H331 0.962 . S
C265 H332 0.961 . S
C266 C233 1.587 . S
C266 C267 1.360 . S
C266 C279 1.412 . S
C267 C266 1.360 . S
C267 C268 1.365 . S
C267 H333 0.929 . S
C268 C243 1.553 . S
C268 C267 1.365 . S
C268 C269 1.404 . S
C269 C268 1.404 . S
C269 C270 1.395 . S
C269 C280 1.451 . S
C270 C269 1.395 . S
C270 C271 1.322 . S
C270 H334 0.930 . S
C271 C270 1.322 . S
C271 C272 1.459 . S
C271 H335 0.929 . S
C272 C271 1.459 . S
C272 C273 1.445 . S
C272 C281 1.395 . S
C273 C251 1.432 . S
C273 C272 1.445 . S
C273 C274 1.370 . S
C274 C273 1.370 . S
C274 C275 1.438 . S
C274 H336 0.930 . S
C275 C261 1.497 1_554 S
C275 C274 1.438 . S
C275 C276 1.360 . S
C276 C275 1.360 . S
C276 C277 1.401 . S
C276 C281 1.446 . S
C277 C276 1.401 . S
C277 C278 1.347 . S
C277 H337 0.929 . S
C278 C277 1.347 . S
C278 C279 1.455 . S
C278 H338 0.930 . S
C279 C266 1.412 . S
C279 C278 1.455 . S
C279 C280 1.331 . S
C280 C269 1.451 . S
C280 C279 1.331 . S
C280 C281 1.497 . S
C281 C272 1.395 . S
C281 C276 1.446 . S
C281 C280 1.497 . S
C282 C283 1.582 . S
C282 H339 0.962 . S
C282 H340 0.959 . S
C282 H341 0.958 . S
C283 C282 1.582 . S
C283 O286 1.458 . S
C283 H312 0.980 . S
O284 C229 1.426 . S
O284 C230 1.334 . S
O285 C257 1.412 . S
O285 C258 1.393 . S
O286 C248 1.435 . S
O286 C283 1.458 . S
O287 C239 1.468 . S
O287 C240 1.408 . S
H288 C229 0.980 . S
H289 C228 0.959 . S
H290 C228 0.959 . S
H291 C228 0.960 . S
H292 C231 0.929 . S
H293 C235 0.929 . S
H294 C236 0.959 . S
H295 C236 0.961 . S
H296 C236 0.961 . S
H297 C237 0.960 . S
H298 C237 0.960 . S
H299 C237 0.961 . S
H300 C239 0.980 . S
H301 C238 0.961 . S
H302 C238 0.960 . S
H303 C238 0.959 . S
H304 C241 0.930 1_556 S
H305 C245 0.931 . S
H306 C246 0.959 . S
H307 C246 0.961 . S
H308 C246 0.959 . S
H309 C247 0.960 . S
H310 C247 0.960 . S
H311 C247 0.960 . S
H312 C283 0.980 . S
H313 C249 0.947 . S
H314 C253 0.930 . S
H315 C254 0.961 . S
H316 C254 0.960 . S
H317 C254 0.958 . S
H318 C255 0.961 . S
H319 C255 0.960 . S
H320 C255 0.960 . S
H321 C257 0.980 1_554 S
H322 C256 0.961 . S
H323 C256 0.961 . S
H324 C256 0.959 . S
H325 C259 0.932 . S
H326 C263 0.929 . S
H327 C264 0.961 . S
H328 C264 0.959 . S
H329 C264 0.959 . S
H330 C265 0.960 . S
H331 C265 0.962 . S
H332 C265 0.961 . S
H333 C267 0.929 . S
H334 C270 0.930 . S
H335 C271 0.929 . S
H336 C274 0.930 . S
H337 C277 0.929 . S
H338 C278 0.930 . S
H339 C282 0.962 . S
H340 C282 0.959 . S
H341 C282 0.958 . S
C342 O368 1.283 . S
C342 O386 1.283 . S
C343 O369 1.283 . S
C343 O384 1.283 . S
C344 O370 1.283 . S
C344 O387 1.283 . S
C345 O371 1.283 . S
C345 O385 1.283 . S
C346 O372 1.283 . S
C346 O381 1.283 . S
C347 O373 1.283 1_554 S
C347 O383 1.283 . S
C348 O374 1.283 . S
C348 O380 1.283 1_554 S
C349 O375 1.283 . S
C349 O382 1.283 . S
C350 O376 1.283 . S
C350 O391 1.283 . S
C351 O377 1.283 . S
C351 O389 1.283 . S
C352 O378 1.283 . S
C352 O390 1.283 . S
C353 O379 1.283 . S
C353 O388 1.283 . S
Eu354 O355 2.378 . S
Eu354 O356 2.362 1_454 S
Eu354 O359 2.363 1_554 S
Eu354 O360 2.378 1_455 S
Eu354 O368 2.350 1_554 S
Eu354 O369 2.376 . S
Eu354 O382 2.363 1_455 S
Eu354 O383 2.363 . S
O355 Eu354 2.378 . S
O355 Eu357 2.366 1_554 S
O355 Eu362 2.370 . S
O356 Eu354 2.362 1_656 S
O356 Eu358 2.363 1_556 S
O356 Eu361 2.370 1_655 S
Eu357 O355 2.366 1_556 S
Eu357 O359 2.374 . S
Eu357 O363 2.374 1_545 S
Eu357 O364 2.366 1_546 S
Eu357 O372 2.363 1_545 S
Eu357 O373 2.363 . S
Eu357 O388 2.369 . S
Eu357 O389 2.356 1_556 S
Eu358 O356 2.363 1_554 S
Eu358 O360 2.378 . S
Eu358 O365 2.378 1_545 S
Eu358 O366 2.363 1_544 S
Eu358 O374 2.363 1_545 S
Eu358 O375 2.363 . S
Eu358 O390 2.350 1_554 S
Eu358 O391 2.375 . S
O359 Eu354 2.363 1_556 S
O359 Eu357 2.374 . S
O359 Eu361 2.370 . S
O360 Eu354 2.378 1_655 S
O360 Eu358 2.378 . S
O360 Eu362 2.370 1_655 S
Eu361 O356 2.370 1_455 S
Eu361 O359 2.370 . S
Eu361 O363 2.370 1_545 S
Eu361 O366 2.370 1_445 S
Eu361 O378 2.363 1_455 S
Eu361 O379 2.363 . S
Eu361 O386 2.363 . S
Eu361 O387 2.363 1_545 S
Eu362 O355 2.370 . S
Eu362 O360 2.370 1_455 S
Eu362 O364 2.370 1_545 S
Eu362 O365 2.370 1_445 S
Eu362 O376 2.363 1_455 S
Eu362 O377 2.363 . S
Eu362 O384 2.363 . S
Eu362 O385 2.363 1_545 S
O363 Eu357 2.374 1_565 S
O363 Eu361 2.370 1_565 S
O363 Eu367 2.374 . S
O364 Eu357 2.366 1_564 S
O364 Eu362 2.370 1_565 S
O364 Eu367 2.366 1_554 S
O365 Eu358 2.378 1_565 S
O365 Eu362 2.370 1_665 S
O365 Eu367 2.366 1_654 S
O366 Eu358 2.363 1_566 S
O366 Eu361 2.370 1_665 S
O366 Eu367 2.374 1_655 S
Eu367 O363 2.374 . S
Eu367 O364 2.366 1_556 S
Eu367 O365 2.366 1_456 S
Eu367 O366 2.374 1_455 S
Eu367 O370 2.370 . S
Eu367 O371 2.356 1_556 S
Eu367 O380 2.363 1_455 S
Eu367 O381 2.363 . S
O368 C342 1.283 . S
O368 Eu354 2.350 1_556 S
O369 C343 1.283 . S
O369 Eu354 2.376 . S
O370 C344 1.283 . S
O370 Eu367 2.370 . S
O371 C345 1.283 . S
O371 Eu367 2.356 1_554 S
O372 C346 1.283 . S
O372 Eu357 2.363 1_565 S
O373 C347 1.283 1_556 S
O373 Eu357 2.363 . S
O374 C348 1.283 . S
O374 Eu358 2.363 1_565 S
O375 C349 1.283 . S
O375 Eu358 2.363 . S
O376 C350 1.283 . S
O376 Eu362 2.363 1_655 S
O377 C351 1.283 . S
O377 Eu362 2.363 . S
O378 C352 1.283 . S
O378 Eu361 2.363 1_655 S
O379 C353 1.283 . S
O379 Eu361 2.363 . S
O380 C348 1.283 1_556 S
O380 Eu367 2.363 1_655 S
O381 C346 1.283 . S
O381 Eu367 2.363 . S
O382 C349 1.283 . S
O382 Eu354 2.363 1_655 S
O383 C347 1.283 . S
O383 Eu354 2.363 . S
O384 C343 1.283 . S
O384 Eu362 2.363 . S
O385 C345 1.283 . S
O385 Eu362 2.363 1_565 S
O386 C342 1.283 . S
O386 Eu361 2.363 . S
O387 C344 1.283 . S
O387 Eu361 2.363 1_565 S
O388 C353 1.283 . S
O388 Eu357 2.369 . S
O389 C351 1.283 . S
O389 Eu357 2.356 1_554 S
O390 C352 1.283 . S
O390 Eu358 2.350 1_556 S
O391 C350 1.283 . S
O391 Eu358 2.375 . S
C392 C393 1.369 1_655 S
C392 C394 1.419 . S
C392 H396 0.930 . S
C393 C392 1.369 1_455 S
C393 C402 1.429 . S
C394 C392 1.419 . S
C394 C395 1.363 1_655 S
C394 H397 0.929 . S
C395 C394 1.363 1_455 S
C395 C401 1.428 . S
H396 C392 0.930 . S
H397 C394 0.929 . S
S398 N399 1.613 . S
S398 N400 1.610 . S
N399 S398 1.613 . S
N399 C402 1.350 . S
N400 S398 1.610 . S
N400 C401 1.351 . S
C401 C395 1.428 . S
C401 N400 1.351 . S
C401 C402 1.434 . S
C402 C393 1.429 . S
C402 N399 1.350 . S
C402 C401 1.434 . S
C403 C404 1.369 1_565 S
C403 C405 1.419 . S
C403 H407 0.930 . S
C404 C403 1.369 1_545 S
C404 C413 1.429 . S
C405 C403 1.419 . S
C405 C406 1.363 1_565 S
C405 H408 0.929 . S
C406 C405 1.363 1_545 S
C406 C412 1.428 . S
H407 C403 0.930 . S
H408 C405 0.929 . S
S409 N410 1.613 . S
S409 N411 1.610 . S
N410 S409 1.613 . S
N410 C413 1.350 . S
N411 S409 1.610 . S
N411 C412 1.351 . S
C412 C406 1.428 . S
C412 N411 1.351 . S
C412 C413 1.434 . S
C413 C404 1.429 . S
C413 N410 1.350 . S
C413 C412 1.434 . S
C414 C415 1.369 . S
C414 C416 1.419 . S
C414 H418 0.930 . S
C415 C414 1.369 . S
C415 C424 1.429 1_455 S
C416 C414 1.419 . S
C416 C417 1.363 . S
C416 H419 0.929 . S
C417 C416 1.363 . S
C417 C423 1.428 1_455 S
H418 C414 0.930 . S
H419 C416 0.929 . S
S420 N421 1.613 . S
S420 N422 1.610 . S
N421 S420 1.613 . S
N421 C424 1.350 . S
N422 S420 1.610 . S
N422 C423 1.351 . S
C423 C417 1.428 1_655 S
C423 N422 1.351 . S
C423 C424 1.434 . S
C424 C415 1.429 1_655 S
C424 N421 1.350 . S
C424 C423 1.434 . S
C425 C426 1.369 1_565 S
C425 C427 1.419 . S
C425 H429 0.930 . S
C426 C425 1.369 1_545 S
C426 C435 1.429 . S
C427 C425 1.419 . S
C427 C428 1.363 1_565 S
C427 H430 0.929 . S
C428 C427 1.363 1_545 S
C428 C434 1.428 . S
H429 C425 0.930 . S
H430 C427 0.929 . S
S431 N432 1.613 . S
S431 N433 1.610 . S
N432 S431 1.613 . S
N432 C435 1.350 . S
N433 S431 1.610 . S
N433 C434 1.351 . S
C434 C428 1.428 . S
C434 N433 1.351 . S
C434 C435 1.434 . S
C435 C426 1.429 . S
C435 N432 1.350 . S
C435 C434 1.434 . S
C436 C437 1.369 . S
C436 C438 1.419 . S
C436 H440 0.930 . S
C437 C436 1.369 . S
C437 C446 1.429 1_455 S
C438 C436 1.419 . S
C438 C439 1.363 . S
C438 H441 0.929 . S
C439 C438 1.363 . S
C439 C445 1.428 1_455 S
H440 C436 0.930 . S
H441 C438 0.929 . S
S442 N443 1.613 . S
S442 N444 1.610 . S
N443 S442 1.613 . S
N443 C446 1.350 . S
N444 S442 1.610 . S
N444 C445 1.351 . S
C445 C439 1.428 1_655 S
C445 N444 1.351 . S
C445 C446 1.434 . S
C446 C437 1.429 1_655 S
C446 N443 1.350 . S
C446 C445 1.434 . S
C447 C448 1.369 . S
C447 C449 1.419 . S
C447 H451 0.930 . S
C448 C447 1.369 . S
C448 C457 1.429 1_545 S
C449 C447 1.419 . S
C449 C450 1.363 . S
C449 H452 0.929 . S
C450 C449 1.363 . S
C450 C456 1.428 1_545 S
H451 C447 0.930 . S
H452 C449 0.929 . S
S453 N454 1.613 . S
S453 N455 1.610 . S
N454 S453 1.613 . S
N454 C457 1.350 . S
N455 S453 1.610 . S
N455 C456 1.351 . S
C456 C450 1.428 1_565 S
C456 N455 1.351 . S
C456 C457 1.434 . S
C457 C448 1.429 1_565 S
C457 N454 1.350 . S
C457 C456 1.434 . S
C458 C459 1.369 . S
C458 C460 1.419 . S
C458 H462 0.930 . S
C459 C458 1.369 . S
C459 C468 1.429 . S
C460 C458 1.419 . S
C460 C461 1.363 . S
C460 H463 0.929 . S
C461 C460 1.363 . S
C461 C467 1.428 . S
H462 C458 0.930 . S
H463 C460 0.929 . S
S464 N465 1.613 . S
S464 N466 1.610 . S
N465 S464 1.613 . S
N465 C468 1.350 . S
N466 S464 1.610 . S
N466 C467 1.351 . S
C467 C461 1.428 . S
C467 N466 1.351 . S
C467 C468 1.434 . S
C468 C459 1.429 . S
C468 N465 1.350 . S
C468 C467 1.434 . S
C469 C470 1.369 . S
C469 C471 1.419 . S
C469 H473 0.930 . S
C470 C469 1.369 . S
C470 C479 1.429 . S
C471 C469 1.419 . S
C471 C472 1.363 . S
C471 H474 0.929 . S
C472 C471 1.363 . S
C472 C478 1.428 . S
H473 C469 0.930 . S
H474 C471 0.929 . S
S475 N476 1.613 . S
S475 N477 1.610 . S
N476 S475 1.613 . S
N476 C479 1.350 . S
N477 S475 1.610 . S
N477 C478 1.351 . S
C478 C472 1.428 . S
C478 N477 1.351 . S
C478 C479 1.434 . S
C479 C470 1.429 . S
C479 N476 1.350 . S
C479 C478 1.434 . S
C480 C481 1.369 1_554 S
C480 C482 1.419 . S
C480 H484 0.930 . S
C481 C480 1.369 1_556 S
C481 C490 1.429 . S
C482 C480 1.419 . S
C482 C483 1.363 1_554 S
C482 H485 0.929 . S
C483 C482 1.363 1_556 S
C483 C489 1.428 . S
H484 C480 0.930 . S
H485 C482 0.929 . S
S486 N487 1.613 . S
S486 N488 1.610 . S
N487 S486 1.613 . S
N487 C490 1.350 . S
N488 S486 1.610 . S
N488 C489 1.351 . S
C489 C483 1.428 . S
C489 N488 1.351 . S
C489 C490 1.434 . S
C490 C481 1.429 . S
C490 N487 1.350 . S
C490 C489 1.434 . S
C491 C492 1.369 . S
C491 C493 1.419 . S
C491 H495 0.930 . S
C492 C491 1.369 . S
C492 C501 1.429 1_554 S
C493 C491 1.419 . S
C493 C494 1.368 . S
C493 H496 0.929 . S
C494 C493 1.368 . S
C494 C500 1.424 1_554 S
H495 C491 0.930 . S
H496 C493 0.929 . S
S497 N498 1.613 . S
S497 N499 1.610 . S
N498 S497 1.613 . S
N498 C501 1.350 . S
N499 S497 1.610 . S
N499 C500 1.351 . S
C500 C494 1.424 1_556 S
C500 N499 1.351 . S
C500 C501 1.434 . S
C501 C492 1.429 1_556 S
C501 N498 1.350 . S
C501 C500 1.434 . S
C502 C503 1.369 1_556 S
C502 C504 1.419 . S
C502 H506 0.930 . S
C503 C502 1.369 1_554 S
C503 C512 1.429 . S
C504 C502 1.419 . S
C504 C505 1.363 1_556 S
C504 H507 0.929 . S
C505 C504 1.363 1_554 S
C505 C511 1.428 . S
H506 C502 0.930 . S
H507 C504 0.929 . S
S508 N509 1.613 . S
S508 N510 1.610 . S
N509 S508 1.613 . S
N509 C512 1.350 . S
N510 S508 1.610 . S
N510 C511 1.351 . S
C511 C505 1.428 . S
C511 N510 1.351 . S
C511 C512 1.434 . S
C512 C503 1.429 . S
C512 N509 1.350 . S
C512 C511 1.434 . S
C513 C514 1.369 1_554 S
C513 C515 1.419 . S
C513 H517 0.930 . S
C514 C513 1.369 1_556 S
C514 C523 1.429 . S
C515 C513 1.419 . S
C515 C516 1.363 1_554 S
C515 H518 0.929 . S
C516 C515 1.363 1_556 S
C516 C522 1.428 . S
H517 C513 0.930 . S
H518 C515 0.929 . S
S519 N520 1.613 . S
S519 N521 1.610 . S
N520 S519 1.613 . S
N520 C523 1.350 . S
N521 S519 1.610 . S
N521 C522 1.351 . S
C522 C516 1.428 . S
C522 N521 1.351 . S
C522 C523 1.434 . S
C523 C514 1.429 . S
C523 N520 1.350 . S
C523 C522 1.434 . S
C395 C343 1.534 . S
C393 C11 0.837 1_455 S
C406 C350 1.489 . S
C404 C143 1.186 . S
C417 C345 1.300 . S
C415 C1 0.991 . S
C428 C351 1.605 . S
C426 C169 1.208 . S
C437 C29 1.133 . S
C439 C344 1.408 . S
C450 C353 1.600 . S
C448 C125 0.903 1_545 S
C459 C55 1.160 . S
C461 C342 1.533 . S
C470 C115 1.049 . S
C472 C352 1.374 . S
C481 C283 1.288 1_556 S
C483 C347 1.689 1_556 S
C492 C239 0.966 . S
C494 C346 1.690 1_554 S
C505 C349 1.563 . S
C503 C257 1.274 1_554 S
C516 C348 1.453 1_556 S
C514 C229 1.114 . S
