# Generated by pormake.
# Topology zzz, (3,6)-cn, num edge types: 1
# Building blocks:
#     Node 0, Type 0, BuildingBlock: BETDIP_clean_linker_0, # of connection points: 3
#     Node 1, Type 0, BuildingBlock: BETDIP_clean_linker_0, # of connection points: 3
#     Node 2, Type 0, BuildingBlock: BETDIP_clean_linker_0, # of connection points: 3
#     Node 3, Type 0, BuildingBlock: BETDIP_clean_linker_0, # of connection points: 3
#     Node 4, Type 0, BuildingBlock: BETDIP_clean_linker_0, # of connection points: 3
#     Node 5, Type 0, BuildingBlock: BETDIP_clean_linker_0, # of connection points: 3
#     Node 6, Type 0, BuildingBlock: BETDIP_clean_linker_0, # of connection points: 3
#     Node 7, Type 0, BuildingBlock: BETDIP_clean_linker_0, # of connection points: 3
#     Node 8, Type 1, BuildingBlock: GEDQOX_clean_sbu_0, # of connection points: 6
#     Node 9, Type 1, BuildingBlock: GEDQOX_clean_sbu_0, # of connection points: 6
#     Node 10, Type 1, BuildingBlock: GEDQOX_clean_sbu_0, # of connection points: 6
#     Node 11, Type 1, BuildingBlock: GEDQOX_clean_sbu_0, # of connection points: 6
#     Edge 12, Type (0, 1), BuildingBlock: TEMPAE_clean_linker_10, # of connection points: 2
#     Edge 13, Type (0, 1), BuildingBlock: TEMPAE_clean_linker_10, # of connection points: 2
#     Edge 14, Type (0, 1), BuildingBlock: TEMPAE_clean_linker_10, # of connection points: 2
#     Edge 15, Type (0, 1), BuildingBlock: TEMPAE_clean_linker_10, # of connection points: 2
#     Edge 16, Type (0, 1), BuildingBlock: TEMPAE_clean_linker_10, # of connection points: 2
#     Edge 17, Type (0, 1), BuildingBlock: TEMPAE_clean_linker_10, # of connection points: 2
#     Edge 18, Type (0, 1), BuildingBlock: TEMPAE_clean_linker_10, # of connection points: 2
#     Edge 19, Type (0, 1), BuildingBlock: TEMPAE_clean_linker_10, # of connection points: 2
#     Edge 20, Type (0, 1), BuildingBlock: TEMPAE_clean_linker_10, # of connection points: 2
#     Edge 21, Type (0, 1), BuildingBlock: TEMPAE_clean_linker_10, # of connection points: 2
#     Edge 22, Type (0, 1), BuildingBlock: TEMPAE_clean_linker_10, # of connection points: 2
#     Edge 23, Type (0, 1), BuildingBlock: TEMPAE_clean_linker_10, # of connection points: 2
#     Edge 24, Type (0, 1), BuildingBlock: TEMPAE_clean_linker_10, # of connection points: 2
#     Edge 25, Type (0, 1), BuildingBlock: TEMPAE_clean_linker_10, # of connection points: 2
#     Edge 26, Type (0, 1), BuildingBlock: TEMPAE_clean_linker_10, # of connection points: 2
#     Edge 27, Type (0, 1), BuildingBlock: TEMPAE_clean_linker_10, # of connection points: 2
#     Edge 28, Type (0, 1), BuildingBlock: TEMPAE_clean_linker_10, # of connection points: 2
#     Edge 29, Type (0, 1), BuildingBlock: TEMPAE_clean_linker_10, # of connection points: 2
#     Edge 30, Type (0, 1), BuildingBlock: TEMPAE_clean_linker_10, # of connection points: 2
#     Edge 31, Type (0, 1), BuildingBlock: TEMPAE_clean_linker_10, # of connection points: 2
#     Edge 32, Type (0, 1), BuildingBlock: TEMPAE_clean_linker_10, # of connection points: 2
#     Edge 33, Type (0, 1), BuildingBlock: TEMPAE_clean_linker_10, # of connection points: 2
#     Edge 34, Type (0, 1), BuildingBlock: TEMPAE_clean_linker_10, # of connection points: 2
#     Edge 35, Type (0, 1), BuildingBlock: TEMPAE_clean_linker_10, # of connection points: 2
# Relax obj value: 0.126
# Max RMSD: 0.180
# Mean RMSD: 0.085
data_MOF--net-zzz--node1-GEDQOX_clean_sbu_0--node2-BETDIP_clean_linker_0--edge1-TEMPAE_clean_linker_10
_symmetry_space_group_name_H-M    P1
_symmetry_Int_Tables_number       1
_symmetry_cell_setting            triclinic
loop_
_symmetry_equiv_pos_as_xyz
'x, y, z'
_cell_length_a     55.425746
_cell_length_b     54.659336
_cell_length_c     17.397148
_cell_angle_alpha  79.42275
_cell_angle_beta   89.285904
_cell_angle_gamma 99.872826
loop_
_atom_site_label
_atom_site_type_symbol
_atom_site_fract_x
_atom_site_fract_y
_atom_site_fract_z
_atom_type_partial_charge
H0 H 0.77267 0.55884 0.2697 0.0
H1 H 0.78465 0.53072 0.05808 0.0
H2 H 0.84501 0.55133 0.19928 0.0
H3 H 0.74406 0.51575 0.07274 0.0
C4 C 0.7359 0.52888 0.10013 0.0
C5 C 0.78483 0.55361 0.22869 0.0
C6 C 0.80999 0.55625 0.24126 0.0
C7 C 0.77527 0.54418 0.16315 0.0
C8 C 0.79137 0.53744 0.10989 0.0
C9 C 0.81667 0.54037 0.12227 0.0
C10 C 0.8256 0.5496 0.18825 0.0
N11 N 0.74968 0.54273 0.15163 0.0
H12 H 0.01587 0.74502 0.38414 0.0
H13 H 0.03658 0.77311 0.1386 0.0
H14 H 0.02986 0.82496 0.29105 0.0
H15 H 0.0561 0.73793 0.16205 0.0
C16 C 0.04068 0.72383 0.18953 0.0
C17 C 0.02108 0.76057 0.33526 0.0
C18 C 0.02238 0.78579 0.34643 0.0
C19 C 0.02693 0.75562 0.26039 0.0
C20 C 0.03312 0.77625 0.19709 0.0
C21 C 0.03415 0.80108 0.20878 0.0
C22 C 0.02908 0.80558 0.28295 0.0
N23 N 0.02594 0.73012 0.2488 0.0
H24 H 0.77145 0.98202 0.30618 0.0
H25 H 0.75989 0.99685 0.05803 0.0
H26 H 0.70122 0.99496 0.22357 0.0
H27 H 0.78999 0.97024 0.06272 0.0
C28 C 0.80265 0.97986 0.09929 0.0
C29 C 0.75955 0.98591 0.25818 0.0
C30 C 0.73524 0.98823 0.27364 0.0
C31 C 0.76858 0.98873 0.18054 0.0
C32 C 0.75307 0.99407 0.11815 0.0
C33 C 0.72863 0.99601 0.13368 0.0
C34 C 0.72004 0.99319 0.21133 0.0
N35 N 0.79354 0.98715 0.16683 0.0
H36 H 0.53567 0.77237 0.51259 0.0
H37 H 0.49062 0.78567 0.31423 0.0
H38 H 0.48307 0.71152 0.4554 0.0
H39 H 0.53884 0.80657 0.27699 0.0
C40 C 0.53436 0.81892 0.31541 0.0
C41 C 0.52094 0.76556 0.47735 0.0
C42 C 0.51024 0.73969 0.49168 0.0
C43 C 0.51386 0.78223 0.41301 0.0
C44 C 0.49564 0.77306 0.36477 0.0
C45 C 0.48426 0.74765 0.38035 0.0
C46 C 0.49129 0.7314 0.44477 0.0
N47 N 0.52588 0.80789 0.39382 0.0
H48 H 0.28042 0.50155 0.53356 0.0
H49 H 0.26679 0.52457 0.75286 0.0
H50 H 0.20852 0.51256 0.59661 0.0
H51 H 0.30753 0.5397 0.74118 0.0
C52 C 0.31568 0.5266 0.71362 0.0
C53 C 0.26811 0.50667 0.57438 0.0
C54 C 0.24346 0.50657 0.557 0.0
C55 C 0.27705 0.51386 0.64393 0.0
C56 C 0.26067 0.52003 0.69753 0.0
C57 C 0.23581 0.51913 0.68097 0.0
C58 C 0.22763 0.51287 0.61019 0.0
N59 N 0.30227 0.51378 0.65901 0.0
H60 H 0.03503 0.30682 0.43204 0.0
H61 H 0.01312 0.27903 0.67686 0.0
H62 H 0.0191 0.22688 0.52485 0.0
H63 H 0.99388 0.31454 0.65117 0.0
C64 C 0.00971 0.32838 0.6254 0.0
C65 C 0.02935 0.29133 0.48073 0.0
C66 C 0.02757 0.26603 0.46958 0.0
C67 C 0.02337 0.2964 0.55538 0.0
C68 C 0.01664 0.27582 0.61848 0.0
C69 C 0.01508 0.25094 0.6068 0.0
C70 C 0.02023 0.24631 0.53284 0.0
N71 N 0.02472 0.32193 0.56713 0.0
H72 H 0.27945 0.07604 0.51534 0.0
H73 H 0.29274 0.05384 0.7601 0.0
H74 H 0.35078 0.0629 0.58559 0.0
H75 H 0.25158 0.03045 0.74729 0.0
C76 C 0.24427 0.04706 0.72039 0.0
C77 C 0.29178 0.07111 0.5612 0.0
C78 C 0.31621 0.07021 0.54192 0.0
C79 C 0.28302 0.06456 0.63982 0.0
C80 C 0.29917 0.05816 0.69926 0.0
C81 C 0.32385 0.05815 0.68022 0.0
C82 C 0.33198 0.06378 0.60135 0.0
N83 N 0.25797 0.0646 0.65805 0.0
H84 H 0.52994 0.27753 0.26732 0.0
H85 H 0.56541 0.26647 0.4872 0.0
H86 H 0.56761 0.34137 0.3568 0.0
H87 H 0.57532 0.23178 0.39606 0.0
C88 C 0.5559 0.22536 0.41172 0.0
C89 C 0.54074 0.28529 0.31151 0.0
C90 C 0.54901 0.31165 0.30182 0.0
C91 C 0.54722 0.26887 0.37755 0.0
C92 C 0.56107 0.27894 0.43526 0.0
C93 C 0.56867 0.30506 0.42733 0.0
C94 C 0.56259 0.32109 0.36087 0.0
N95 N 0.53937 0.24226 0.38754 0.0
Nd96 Nd 0.0163 0.01701 0.83166 0.0
Nd97 Nd 0.03309 0.03525 0.98191 0.0
C98 C 0.99691 0.988 0.73299 0.0
C99 C 1.00041 0.96423 0.70643 0.0
C100 C 0.98339 0.94171 0.73045 0.0
C101 C 0.98571 0.91959 0.7027 0.0
C102 C 0.00502 0.91936 0.64953 0.0
C103 C 0.02222 0.94184 0.62637 0.0
C104 C 0.01995 0.96392 0.65429 0.0
C105 C 0.06441 0.0407 0.82283 0.0
C106 C 0.03963 0.97897 0.97152 0.0
C107 C 0.0524 0.06331 0.08347 0.0
C108 C 0.04958 0.08675 0.11223 0.0
C109 C 0.05571 0.08899 0.18895 0.0
C110 C 0.05363 0.11095 0.21763 0.0
C111 C 0.04521 0.13139 0.17048 0.0
C112 C 0.03908 0.12908 0.09328 0.0
C113 C 0.04126 0.10706 0.06453 0.0
C114 C 0.9851 0.0112 0.98838 0.0
C115 C 0.00982 0.07331 0.84169 0.0
O116 O 0.98807 0.98589 0.80456 0.0
O117 O 0.01381 0.00817 0.71198 0.0
O118 O 0.04986 0.04254 0.76494 0.0
O119 O 0.05372 0.02564 0.8821 0.0
O120 O 0.02591 0.9817 0.91016 0.0
O121 O 0.04764 0.9979 0.00748 0.0
O122 O 0.06121 0.06586 0.01169 0.0
O123 O 0.03476 0.04374 0.10249 0.0
O124 O 0.99944 0.00857 0.04668 0.0
O125 O 0.99593 0.02691 0.93099 0.0
O126 O 0.02341 0.07059 0.90343 0.0
O127 O 1.00192 0.0544 0.80551 0.0
H128 H 0.96799 0.94127 0.76993 0.0
H129 H 0.97192 0.90284 0.72134 0.0
H130 H 0.03755 0.94241 0.58648 0.0
H131 H 0.03344 0.98082 0.63424 0.0
H132 H 0.06233 0.07372 0.22682 0.0
H133 H 0.059 0.11201 0.27672 0.0
H134 H 0.03229 0.14417 0.05519 0.0
H135 H 0.03647 0.10592 0.00502 0.0
Nd136 Nd 0.52537 0.00794 0.85747 0.0
Nd137 Nd 0.52733 0.04572 0.96191 0.0
C138 C 0.53498 0.971 0.78964 0.0
C139 C 0.55687 0.96708 0.74673 0.0
C140 C 0.57536 0.95597 0.78682 0.0
C141 C 0.59682 0.95408 0.74671 0.0
C142 C 0.60024 0.96318 0.66559 0.0
C143 C 0.58145 0.97374 0.62546 0.0
C144 C 0.56001 0.97551 0.66537 0.0
C145 C 0.52342 0.05591 0.77812 0.0
C146 C 0.57914 0.03772 0.90242 0.0
C147 C 0.51725 0.08182 0.03255 0.0
C148 C 0.49532 0.08425 0.07818 0.0
C149 C 0.48073 0.10212 0.04803 0.0
C150 C 0.45903 0.10334 0.08815 0.0
C151 C 0.45161 0.08683 0.15959 0.0
C152 C 0.46633 0.06911 0.1899 0.0
C153 C 0.48789 0.06781 0.14975 0.0
C154 C 0.52968 0.9977 0.03946 0.0
C155 C 0.47354 0.01627 0.91576 0.0
O156 O 0.53677 0.97065 0.86477 0.0
O157 O 0.52353 0.9888 0.75538 0.0
O158 O 0.511 0.03547 0.76051 0.0
O159 O 0.5373 0.05067 0.83363 0.0
O160 O 0.56648 0.01778 0.87958 0.0
O161 O 0.56818 0.05442 0.92819 0.0
O162 O 0.51454 0.08226 0.95774 0.0
O163 O 0.53001 0.06481 0.0641 0.0
O164 O 0.54255 0.01797 0.05661 0.0
O165 O 0.51538 1.00315 0.9855 0.0
O166 O 0.48623 0.03599 0.9396 0.0
O167 O 0.48446 0.99967 0.8894 0.0
H168 H 0.57346 0.94906 0.84945 0.0
H169 H 0.61075 0.94555 0.77935 0.0
H170 H 0.58355 0.98136 0.56326 0.0
H171 H 0.54612 0.98407 0.63254 0.0
H172 H 0.48598 0.11496 0.99286 0.0
H173 H 0.44816 0.11732 0.06361 0.0
H174 H 0.46094 0.05586 0.24419 0.0
H175 H 0.4985 0.05361 0.17445 0.0
Nd176 Nd 0.50775 0.52824 0.9785 0.0
Nd177 Nd 0.54264 0.52444 0.84751 0.0
C178 C 0.47198 0.53954 0.05961 0.0
C179 C 0.46709 0.56361 0.0761 0.0
C180 C 0.44377 0.56574 0.10332 0.0
C181 C 0.43969 0.58855 0.12232 0.0
C182 C 0.459 0.60929 0.11468 0.0
C183 C 0.48204 0.60732 0.08445 0.0
C184 C 0.48603 0.5847 0.06495 0.0
C185 C 0.55629 0.53356 0.01482 0.0
C186 C 0.5308 0.57943 0.8463 0.0
C187 C 0.57817 0.51246 0.76781 0.0
C188 C 0.58117 0.48796 0.74995 0.0
C189 C 0.60425 0.48351 0.72851 0.0
C190 C 0.60669 0.45998 0.71126 0.0
C191 C 0.586 0.44083 0.71512 0.0
C192 C 0.5631 0.44515 0.73935 0.0
C193 C 0.56072 0.46849 0.75683 0.0
C194 C 0.49422 0.51955 0.81061 0.0
C195 C 0.51935 0.4729 0.97909 0.0
O196 O 0.47026 0.53696 0.98657 0.0
O197 O 0.49137 0.53202 0.09136 0.0
O198 O 0.53849 0.52184 0.06432 0.0
O199 O 0.54808 0.54315 0.95129 0.0
O200 O 0.51241 0.5675 0.89595 0.0
O201 O 0.54814 0.56761 0.82689 0.0
O202 O 0.5794 0.51394 0.84189 0.0
O203 O 0.55996 0.52209 0.73447 0.0
O204 O 0.51214 0.5313 0.76149 0.0
O205 O 0.50226 0.50967 0.8742 0.0
O206 O 0.53658 0.48428 0.92473 0.0
O207 O 0.50331 0.48518 0.00453 0.0
H208 H 0.42891 0.54966 0.11138 0.0
H209 H 0.42182 0.58969 0.14587 0.0
H210 H 0.49713 0.62316 0.07755 0.0
H211 H 0.50407 0.58348 0.04286 0.0
H212 H 0.62026 0.49827 0.72413 0.0
H213 H 0.62449 0.45706 0.69228 0.0
H214 H 0.54696 0.43056 0.74346 0.0
H215 H 0.54282 0.47147 0.77472 0.0
Nd216 Nd 0.02137 0.54683 0.82963 0.0
Nd217 Nd 0.0294 0.50521 0.9867 0.0
C218 C 0.00707 0.58524 0.73842 0.0
C219 C 0.98485 0.58713 0.69292 0.0
C220 C 0.96127 0.57833 0.72892 0.0
C221 C 0.94043 0.57844 0.6846 0.0
C222 C 0.94266 0.58713 0.60325 0.0
C223 C 0.96619 0.59635 0.56748 0.0
C224 C 0.98707 0.59642 0.61196 0.0
C225 C 0.0197 0.4987 0.79481 0.0
C226 C 0.97361 0.51029 0.93475 0.0
C227 C 0.04359 0.46676 0.07788 0.0
C228 C 0.06411 0.46569 0.13112 0.0
C229 C 0.08053 0.44914 0.12515 0.0
C230 C 0.10182 0.45024 0.16791 0.0
C231 C 0.10698 0.46785 0.21778 0.0
C232 C 0.09021 0.48401 0.22484 0.0
C233 C 0.06908 0.48303 0.18176 0.0
C234 C 0.03099 0.55316 0.02234 0.0
C235 C 0.07716 0.54188 0.88072 0.0
O236 O 0.00371 0.58054 0.81474 0.0
O237 O 0.02259 0.57242 0.71379 0.0
O238 O 0.01729 0.51855 0.74358 0.0
O239 O 0.02269 0.50543 0.86025 0.0
O240 O 0.9825 0.53021 0.88032 0.0
O241 O 0.98748 0.4964 0.97917 0.0
O242 O 0.05019 0.47362 0.0034 0.0
O243 O 0.02548 0.47732 0.09808 0.0
O244 O 0.0335 0.53327 0.0733 0.0
O245 O 0.02794 0.54657 0.95666 0.0
O246 O 0.06828 0.52209 0.93571 0.0
O247 O 0.06326 0.55561 0.83588 0.0
H248 H 0.95886 0.57081 0.79115 0.0
H249 H 0.92259 0.57093 0.71367 0.0
H250 H 0.96845 0.60334 0.50492 0.0
H251 H 0.005 0.60326 0.58286 0.0
H252 H 0.07722 0.43582 0.08574 0.0
H253 H 0.11431 0.43744 0.16162 0.0
H254 H 0.09383 0.49805 0.26178 0.0
H255 H 0.05704 0.49639 0.18646 0.0
C256 C 0.2104 0.0716 0.72927 0.0
C257 C 0.21854 0.04838 0.73937 0.0
C258 C 0.18586 0.07269 0.74745 0.0
C259 C 0.16901 0.04995 0.77359 0.0
C260 C 0.17728 0.02647 0.78398 0.0
C261 C 0.20206 0.02604 0.76812 0.0
C262 C 0.17794 0.09811 0.73828 0.0
C263 C 0.1598 1.00174 0.80945 0.0
C264 C 0.10671 0.04689 0.87288 0.0
C265 C 0.09132 0.04597 0.80985 0.0
C266 C 0.13226 0.04958 0.8614 0.0
C267 C 0.14245 0.05042 0.78561 0.0
C268 C 0.12695 0.04998 0.72163 0.0
C269 C 0.10163 0.0482 0.73435 0.0
C270 C 0.14827 0.05087 0.9306 0.0
C271 C 0.13693 0.05008 0.64033 0.0
H272 H 0.22328 0.08893 0.70811 0.0
H273 H 0.20845 0.0081 0.77591 0.0
H274 H 0.16483 0.10001 0.69082 0.0
H275 H 0.16829 0.09972 0.79294 0.0
H276 H 0.19368 0.11402 0.72417 0.0
H277 H 0.16917 0.98514 0.81452 0.0
H278 H 0.15066 1.00133 0.86685 0.0
H279 H 0.14523 0.99989 0.76663 0.0
H280 H 0.09873 0.04525 0.93123 0.0
H281 H 0.08977 0.04732 0.68548 0.0
H282 H 0.1639 0.06685 0.916 0.0
H283 H 0.15602 0.03327 0.94539 0.0
H284 H 0.13793 0.0532 0.98313 0.0
H285 H 0.15147 0.06685 0.62107 0.0
H286 H 0.12248 0.05021 0.59663 0.0
H287 H 0.1454 0.03307 0.64083 0.0
C288 C 0.56429 0.18275 0.46917 0.0
C289 C 0.54819 0.20011 0.46226 0.0
C290 C 0.55877 0.15934 0.52066 0.0
C291 C 0.53682 0.1533 0.56806 0.0
C292 C 0.52037 0.17074 0.56105 0.0
C293 C 0.52614 0.19388 0.5076 0.0
C294 C 0.57661 0.14117 0.52484 0.0
C295 C 0.49701 0.16522 0.61146 0.0
C296 C 0.5151 0.08351 0.65349 0.0
C297 C 0.52541 0.08117 0.72717 0.0
C298 C 0.51814 0.10696 0.6019 0.0
C299 C 0.5314 0.12876 0.62506 0.0
C300 C 0.54099 0.12667 0.70077 0.0
C301 C 0.53809 0.10285 0.75061 0.0
C302 C 0.50795 0.10819 0.52145 0.0
C303 C 0.55481 0.1495 0.72845 0.0
H304 H 0.58138 0.18759 0.43429 0.0
H305 H 0.51379 0.2074 0.50323 0.0
H306 H 0.58387 0.13793 0.58429 0.0
H307 H 0.56711 0.1226 0.51407 0.0
H308 H 0.59231 0.14824 0.4816 0.0
H309 H 0.486 0.18054 0.59829 0.0
H310 H 0.48563 0.14724 0.60289 0.0
H311 H 0.50145 0.16282 0.67412 0.0
H312 H 0.50523 0.06682 0.63504 0.0
H313 H 0.54591 0.10117 0.80775 0.0
H314 H 0.52323 0.11369 0.47642 0.0
H315 H 0.49618 0.12285 0.51036 0.0
H316 H 0.49702 0.08983 0.51384 0.0
H317 H 0.57227 0.15655 0.69327 0.0
H318 H 0.55908 0.14518 0.7912 0.0
H319 H 0.54398 0.16501 0.71985 0.0
C320 C 0.35532 0.54036 0.77269 0.0
C321 C 0.34168 0.52448 0.72805 0.0
C322 C 0.38006 0.53917 0.78674 0.0
C323 C 0.39141 0.52148 0.756 0.0
C324 C 0.37761 0.50516 0.71163 0.0
C325 C 0.35294 0.50692 0.69791 0.0
C326 C 0.39412 0.55704 0.83384 0.0
C327 C 0.38896 0.48589 0.67846 0.0
C328 C 0.46104 0.53463 0.72879 0.0
C329 C 0.46794 0.51935 0.79575 0.0
C330 C 0.43622 0.53542 0.71502 0.0
C331 C 0.41782 0.52039 0.7692 0.0
C332 C 0.42472 0.5047 0.83655 0.0
C333 C 0.44971 0.50445 0.84917 0.0
C334 C 0.42971 0.55262 0.64297 0.0
C335 C 0.40572 0.48831 0.89558 0.0
H336 H 0.34666 0.55394 0.79612 0.0
H337 H 0.34248 0.49447 0.66375 0.0
H338 H 0.40151 0.54617 0.88571 0.0
H339 H 0.41 0.56902 0.79799 0.0
H340 H 0.38258 0.56955 0.85413 0.0
H341 H 0.37562 0.47418 0.64691 0.0
H342 H 0.40459 0.49559 0.63736 0.0
H343 H 0.39631 0.47321 0.72622 0.0
H344 H 0.47508 0.5463 0.68754 0.0
H345 H 0.45498 0.49261 0.90105 0.0
H346 H 0.41949 0.56666 0.66039 0.0
H347 H 0.41752 0.54147 0.60694 0.0
H348 H 0.44616 0.56294 0.60627 0.0
H349 H 0.39491 0.50032 0.9215 0.0
H350 H 0.41405 0.47662 0.94361 0.0
H351 H 0.39272 0.47558 0.86626 0.0
C352 C 0.99472 0.35882 0.69713 0.0
C353 C 0.01326 0.35358 0.65013 0.0
C354 C 0.99685 0.38193 0.72354 0.0
C355 C 0.01831 0.40045 0.70381 0.0
C356 C 0.03738 0.39513 0.65737 0.0
C357 C 0.03458 0.37186 0.63061 0.0
C358 C 0.9758 0.38669 0.77139 0.0
C359 C 0.06072 0.41411 0.63567 0.0
C360 C 0.01142 0.46905 0.70098 0.0
C361 C 0.01953 0.47323 0.77447 0.0
C362 C 0.01126 0.44574 0.67727 0.0
C363 C 0.01984 0.42588 0.7275 0.0
C364 C 0.02838 0.43004 0.8016 0.0
C365 C 0.0279 0.45355 0.82448 0.0
C366 C 1.00144 0.44226 0.59865 0.0
C367 C 0.03803 0.40964 0.85675 0.0
H368 H 0.97822 0.34479 0.7128 0.0
H369 H 0.04913 0.36793 0.59509 0.0
H370 H 0.98224 0.39121 0.8281 0.0
H371 H 0.96853 0.40327 0.73997 0.0
H372 H 0.96058 0.37018 0.78326 0.0
H373 H 0.07445 0.40661 0.6038 0.0
H374 H 0.0566 0.43148 0.59814 0.0
H375 H 0.06892 0.41967 0.68914 0.0
H376 H 0.00487 0.48407 0.66172 0.0
H377 H 0.03436 0.45659 0.88094 0.0
H378 H 0.98542 0.42662 0.60679 0.0
H379 H 0.01558 0.43691 0.56244 0.0
H380 H 0.99573 0.45962 0.56593 0.0
H381 H 0.0232 0.39305 0.87481 0.0
H382 H 0.0453 0.41621 0.9101 0.0
H383 H 0.05283 0.40316 0.82658 0.0
C384 C 0.84594 0.99998 0.1156 0.0
C385 C 0.82933 0.98309 0.08191 0.0
C386 C 0.87121 1.0036 0.09752 0.0
C387 C 0.88009 0.98963 0.04569 0.0
C388 C 0.86338 0.97233 0.01228 0.0
C389 C 0.83814 0.96949 0.03013 0.0
C390 C 0.88839 0.02258 0.13322 0.0
C391 C 0.87217 0.95677 0.95797 0.0
C392 C 0.94306 0.01662 0.94732 0.0
C393 C 0.95819 1.0038 0.99796 0.0
C394 C 0.91752 0.01183 0.96121 0.0
C395 C 0.90688 0.99338 0.0263 0.0
C396 C 0.92204 0.97952 0.07533 0.0
C397 C 0.94756 0.98509 0.06102 0.0
C398 C 0.90205 0.02728 0.90822 0.0
C399 C 0.91135 0.9593 0.14422 0.0
H400 H 0.83918 0.01073 0.15508 0.0
H401 H 0.82526 0.95643 0.00414 0.0
H402 H 0.90178 0.01303 0.16868 0.0
H403 H 0.89898 0.03709 0.08625 0.0
H404 H 0.87851 0.03225 0.17121 0.0
H405 H 0.85687 0.94366 0.93856 0.0
H406 H 0.88194 0.96938 0.9055 0.0
H407 H 0.88543 0.94554 0.98768 0.0
H408 H 0.95125 0.03116 0.89858 0.0
H409 H 0.95926 0.97505 0.09989 0.0
H410 H 0.89313 0.03885 0.9422 0.0
H411 H 0.88725 0.01468 0.88487 0.0
H412 H 0.91302 0.04011 0.85822 0.0
H413 H 0.90318 0.96805 0.1886 0.0
H414 H 0.92537 0.94876 0.17238 0.0
H415 H 0.89645 0.94567 0.12532 0.0
C416 C 0.52368 0.86176 0.31931 0.0
C417 C 0.53514 0.84603 0.28132 0.0
C418 C 0.52275 0.88679 0.28252 0.0
C419 C 0.5338 0.89634 0.20649 0.0
C420 C 0.54595 0.88066 0.16904 0.0
C421 C 0.5463 0.85569 0.20665 0.0
C422 C 0.50945 0.90282 0.32415 0.0
C423 C 0.5583 0.89013 0.08862 0.0
C424 C 0.51242 0.95134 0.07312 0.0
C425 C 0.53046 0.97181 0.08233 0.0
C426 C 0.513 0.92678 0.11444 0.0
C427 C 0.53232 0.92252 0.16516 0.0
C428 C 0.55068 0.94316 0.1741 0.0
C429 C 0.54941 0.96756 0.13304 0.0
C430 C 0.49299 0.90535 0.10359 0.0
C431 C 0.57185 0.93944 0.22616 0.0
H432 H 0.51485 0.85433 0.37677 0.0
H433 H 0.55514 0.84354 0.17712 0.0
H434 H 0.52193 0.92054 0.32957 0.0
H435 H 0.49392 0.90828 0.28933 0.0
H436 H 0.50222 0.89282 0.38354 0.0
H437 H 0.56786 0.87592 0.06899 0.0
H438 H 0.54449 0.89497 0.04544 0.0
H439 H 0.57183 0.90764 0.0884 0.0
H440 H 0.49773 0.95455 0.03402 0.0
H441 H 0.5635 0.98332 0.13992 0.0
H442 H 0.48409 0.8956 0.16114 0.0
H443 H 0.50097 0.89119 0.07808 0.0
H444 H 0.47873 0.91194 0.06466 0.0
H445 H 0.5649 0.93081 0.28685 0.0
H446 H 0.58451 0.95747 0.22729 0.0
H447 H 0.58241 0.9262 0.20545 0.0
C448 C 0.69845 0.54801 0.11799 0.0
C449 C 0.70963 0.53031 0.08827 0.0
C450 C 0.67358 0.54929 0.1064 0.0
C451 C 0.65949 0.53234 0.06461 0.0
C452 C 0.67073 0.51445 0.0345 0.0
C453 C 0.69567 0.51375 0.04641 0.0
C454 C 0.66236 0.56879 0.13881 0.0
C455 C 0.65637 0.49595 0.99007 0.0
C456 C 0.58994 0.51917 0.09612 0.0
C457 C 0.58266 0.53394 0.02875 0.0
C458 C 0.61486 0.51854 0.10865 0.0
C459 C 0.63297 0.5332 0.05275 0.0
C460 C 0.62568 0.54839 0.98501 0.0
C461 C 0.60061 0.5485 0.97372 0.0
C462 C 0.62181 0.50191 0.18125 0.0
C463 C 0.64435 0.56439 0.92415 0.0
H464 H 0.70913 0.56099 0.15004 0.0
H465 H 0.70427 0.50006 0.02333 0.0
H466 H 0.65475 0.58114 0.09081 0.0
H467 H 0.64693 0.55929 0.18093 0.0
H468 H 0.67585 0.58082 0.16896 0.0
H469 H 0.66779 0.48321 0.97049 0.0
H470 H 0.64071 0.48422 0.02752 0.0
H471 H 0.64865 0.5063 0.93793 0.0
H472 H 0.57612 0.50778 0.13864 0.0
H473 H 0.59506 0.55996 0.92152 0.0
H474 H 0.63424 0.51346 0.21562 0.0
H475 H 0.63191 0.48769 0.16449 0.0
H476 H 0.60556 0.49184 0.21933 0.0
H477 H 0.65754 0.57748 0.9517 0.0
H478 H 0.63573 0.57567 0.8759 0.0
H479 H 0.655 0.55212 0.89879 0.0
C480 C 0.01655 0.67974 0.18858 0.0
C481 C 0.03739 0.69846 0.1661 0.0
C482 C 0.0139 0.65629 0.16298 0.0
C483 C 0.03265 0.65126 0.11463 0.0
C484 C 0.05366 0.6702 0.09206 0.0
C485 C 0.05564 0.69346 0.11746 0.0
C486 C 0.99106 0.63685 0.18779 0.0
C487 C 0.07434 0.66577 0.04193 0.0
C488 C 0.04039 0.58298 0.11539 0.0
C489 C 0.03133 0.5786 0.04311 0.0
C490 C 0.04062 0.60626 0.13947 0.0
C491 C 0.03117 0.62586 0.09088 0.0
C492 C 0.02168 0.62148 0.01809 0.0
C493 C 0.02206 0.59802 0.99489 0.0
C494 C 0.05138 0.60998 0.2167 0.0
C495 C 0.0111 0.64159 0.96471 0.0
H496 H 0.00223 0.68347 0.22547 0.0
H497 H 0.07177 0.70783 0.09955 0.0
H498 H 0.9822 0.63104 0.13554 0.0
H499 H 0.99594 0.61968 0.22434 0.0
H500 H 0.97759 0.64403 0.22172 0.0
H501 H 0.08929 0.68251 0.02846 0.0
H502 H 0.08215 0.64942 0.07234 0.0
H503 H 0.06735 0.66106 0.98602 0.0
H504 H 0.0476 0.56814 0.15336 0.0
H505 H 0.01473 0.59479 0.93975 0.0
H506 H 0.03759 0.61509 0.2548 0.0
H507 H 0.06719 0.62585 0.2067 0.0
H508 H 0.05768 0.5928 0.24831 0.0
H509 H 0.99643 0.64766 0.99681 0.0
H510 H 0.00336 0.63493 0.91205 0.0
H511 H 0.02552 0.65848 0.94542 0.0
C512 C 0.02945 0.21851 0.70389 0.0
C513 C 0.00973 0.22884 0.67077 0.0
C514 C 0.02628 0.19305 0.74066 0.0
C515 C 0.00274 0.17776 0.74466 0.0
C516 C 0.98234 0.18883 0.71798 0.0
C517 C 0.98614 0.2143 0.68036 0.0
C518 C 0.04854 0.18201 0.76829 0.0
C519 C 0.95688 0.17333 0.72316 0.0
C520 C 0.00477 0.1093 0.73558 0.0
C521 C 0.00347 0.09847 0.81513 0.0
C522 C 0.00345 0.13501 0.71149 0.0
C523 C 1.00024 0.14987 0.76852 0.0
C524 C 0.9971 0.13843 0.84855 0.0
C525 C 0.99899 0.11289 0.87092 0.0
C526 C 0.00711 0.14662 0.62548 0.0
C527 C 0.99311 0.15341 0.91093 0.0
H528 H 0.04775 0.22973 0.69461 0.0
H529 H 0.97102 0.22227 0.65309 0.0
H530 H 0.04507 0.17083 0.82856 0.0
H531 H 0.05255 0.16898 0.72972 0.0
H532 H 0.06503 0.19684 0.76753 0.0
H533 H 0.94263 0.18546 0.71315 0.0
H534 H 0.95544 0.1612 0.67822 0.0
H535 H 0.95302 0.16069 0.78123 0.0
H536 H 0.00837 0.09814 0.69265 0.0
H537 H 0.99762 0.10433 0.93255 0.0
H538 H 0.0245 0.16051 0.61537 0.0
H539 H 0.99206 0.157 0.60621 0.0
H540 H 0.00787 0.13223 0.58838 0.0
H541 H 0.01038 0.16631 0.91789 0.0
H542 H 0.98737 0.14099 0.96854 0.0
H543 H 0.97899 0.16528 0.89375 0.0
C544 C 0.36533 0.06618 0.73338 0.0
C545 C 0.34159 0.05189 0.74076 0.0
C546 C 0.38408 0.05793 0.77861 0.0
C547 C 0.37884 0.0351 0.83425 0.0
C548 C 0.3544 0.02187 0.8475 0.0
C549 C 0.336 0.03032 0.79993 0.0
C550 C 0.40986 0.07277 0.76258 0.0
C551 C 0.34794 0.99802 0.90845 0.0
C552 C 0.43474 1.00411 0.8508 0.0
C553 C 0.44685 0.01503 0.90962 0.0
C554 C 0.41131 0.00865 0.83009 0.0
C555 C 0.39961 0.02401 0.8705 0.0
C556 C 0.4106 0.03254 0.93601 0.0
C557 C 0.43429 0.02824 0.95416 0.0
C558 C 0.40033 0.9993 0.75953 0.0
C559 C 0.3984 0.04812 0.98268 0.0
H560 H 0.36954 0.08326 0.68908 0.0
H561 H 0.31762 0.01929 0.8062 0.0
H562 H 0.41768 0.07745 0.81752 0.0
H563 H 0.42174 0.06115 0.73933 0.0
H564 H 0.4106 0.09065 0.71955 0.0
H565 H 0.32793 0.9933 0.92349 0.0
H566 H 0.35343 0.98201 0.8857 0.0
H567 H 0.35792 0.99987 0.96258 0.0
H568 H 0.44436 0.99386 0.81634 0.0
H569 H 0.44348 0.0364 0.00065 0.0
H570 H 0.4011 0.01555 0.71024 0.0
H571 H 0.38079 0.99052 0.77223 0.0
H572 H 0.41025 0.98528 0.74037 0.0
H573 H 0.40203 0.06819 0.9524 0.0
H574 H 0.40566 0.04722 0.0422 0.0
H575 H 0.37825 0.04168 0.98816 0.0
C576 C 0.56916 0.31119 0.56575 0.0
C577 C 0.58064 0.31656 0.49089 0.0
C578 C 0.57475 0.328 0.61767 0.0
C579 C 0.5919 0.3506 0.59316 0.0
C580 C 0.60605 0.35403 0.52251 0.0
C581 C 0.60029 0.33682 0.47221 0.0
C582 C 0.55995 0.32322 0.69397 0.0
C583 C 0.62474 0.37767 0.49449 0.0
C584 C 0.57171 0.41016 0.62989 0.0
C585 C 0.58758 0.41725 0.68694 0.0
C586 C 0.57289 0.38835 0.59994 0.0
C587 C 0.59019 0.37298 0.62867 0.0
C588 C 0.60599 0.37974 0.68763 0.0
C589 C 0.60473 0.40211 0.71543 0.0
C590 C 0.55584 0.38208 0.53635 0.0
C591 C 0.62439 0.36367 0.72045 0.0
H592 H 0.55411 0.29538 0.58068 0.0
H593 H 0.60951 0.34062 0.4148 0.0
H594 H 0.57134 0.3297 0.74084 0.0
H595 H 0.54461 0.33398 0.68646 0.0
H596 H 0.55206 0.30285 0.71292 0.0
H597 H 0.63733 0.3752 0.44739 0.0
H598 H 0.6151 0.39346 0.47091 0.0
H599 H 0.63575 0.38317 0.54332 0.0
H600 H 0.55866 0.42207 0.60733 0.0
H601 H 0.61693 0.40764 0.75986 0.0
H602 H 0.54425 0.3632 0.55577 0.0
H603 H 0.56664 0.38132 0.48295 0.0
H604 H 0.5436 0.39616 0.52045 0.0
H605 H 0.61621 0.34328 0.73068 0.0
H606 H 0.63148 0.3685 0.77625 0.0
H607 H 0.64014 0.36672 0.67774 0.0
C608 C 0.21924 0.54751 0.75865 0.0
C609 C 0.21742 0.52393 0.7363 0.0
C610 C 0.19892 0.55412 0.79421 0.0
C611 C 0.1764 0.53683 0.80634 0.0
C612 C 0.17523 0.5123 0.78931 0.0
C613 C 0.19581 0.50613 0.75516 0.0
C614 C 0.20112 0.58013 0.81395 0.0
C615 C 0.1517 0.49316 0.80144 0.0
C616 C 0.11948 0.53919 0.92452 0.0
C617 C 0.10401 0.54687 0.8649 0.0
C618 C 0.1441 0.5383 0.90754 0.0
C619 C 0.15328 0.54469 0.82884 0.0
C620 C 0.1383 0.55448 0.76943 0.0
C621 C 0.11387 0.55568 0.78837 0.0
C622 C 0.15959 0.52852 0.97302 0.0
C623 C 0.14729 0.56135 0.68464 0.0
H624 H 0.23595 0.56129 0.74391 0.0
H625 H 0.19453 0.48781 0.73837 0.0
H626 H 0.1924 0.59234 0.76851 0.0
H627 H 0.19148 0.57927 0.87093 0.0
H628 H 0.22058 0.58913 0.81645 0.0
H629 H 0.15426 0.47453 0.78895 0.0
H630 H 0.14429 0.49035 0.86253 0.0
H631 H 0.13773 0.50026 0.76234 0.0
H632 H 0.11202 0.53268 0.98413 0.0
H633 H 0.102 0.56159 0.74213 0.0
H634 H 0.17867 0.53915 0.965 0.0
H635 H 0.16032 0.50837 0.97286 0.0
H636 H 0.15192 0.52981 0.03117 0.0
H637 H 0.16563 0.57359 0.67837 0.0
H638 H 0.13455 0.5713 0.64708 0.0
H639 H 0.14916 0.54388 0.66282 0.0
C640 C 0.01908 0.83392 0.1151 0.0
C641 C 0.03902 0.82324 0.14485 0.0
C642 C 0.02226 0.85939 0.07842 0.0
C643 C 0.04602 0.87436 0.071 0.0
C644 C 0.06651 0.86296 0.09451 0.0
C645 C 0.06272 0.83748 0.13212 0.0
C646 C 0.99989 0.87077 0.05425 0.0
C647 C 0.09217 0.87812 0.08569 0.0
C648 C 0.049 0.93874 0.94254 0.0
C649 C 0.04582 0.9537 0.99811 0.0
C650 C 0.05083 0.91321 0.96551 0.0
C651 C 0.04881 0.90225 0.04599 0.0
C652 C 0.04685 0.9176 0.10258 0.0
C653 C 0.04566 0.94332 0.07783 0.0
C654 C 0.05352 0.89771 0.90347 0.0
C655 C 0.04434 0.9065 0.18906 0.0
H656 H 1.00073 0.82294 0.12683 0.0
H657 H 0.07803 0.82926 0.15687 0.0
H658 H 0.99698 0.88419 0.09279 0.0
H659 H 0.00258 0.88159 0.99339 0.0
H660 H 0.98307 0.85617 0.05815 0.0
H661 H 0.10624 0.86575 0.09397 0.0
H662 H 0.09543 0.89053 0.0271 0.0
H663 H 0.09454 0.89047 0.13002 0.0
H664 H 0.04934 0.94687 0.88068 0.0
H665 H 0.04304 0.95487 0.12065 0.0
H666 H 0.03589 0.885 0.89924 0.0
H667 H 0.06756 0.88562 0.91914 0.0
H668 H 0.0587 0.90978 0.84497 0.0
H669 H 0.02682 0.89289 0.20218 0.0
H670 H 0.04457 0.92121 0.22555 0.0
H671 H 0.05938 0.89588 0.20636 0.0
C672 C 0.71698 0.02352 0.01316 0.0
C673 C 0.71151 1.00157 0.07083 0.0
C674 C 0.69849 0.03214 0.96637 0.0
C675 C 0.67414 0.01861 0.97882 0.0
C676 C 0.66915 0.99524 0.0321 0.0
C677 C 0.68796 0.98694 0.07694 0.0
C678 C 0.70466 0.05651 0.90752 0.0
C679 C 0.64352 0.97994 0.04649 0.0
C680 C 0.61788 0.04908 0.96854 0.0
C681 C 0.60585 0.03909 0.90796 0.0
C682 C 0.64137 0.04441 0.98809 0.0
C683 C 0.65319 0.02991 0.94471 0.0
C684 C 0.64224 0.02241 0.87776 0.0
C685 C 0.61848 0.02673 0.86089 0.0
C686 C 0.65231 0.05268 0.06023 0.0
C687 C 0.65448 0.00785 0.82776 0.0
H688 H 0.73523 0.0348 0.00822 0.0
H689 H 0.68389 0.96972 0.12076 0.0
H690 H 0.69524 0.0548 0.85232 0.0
H691 H 0.69821 0.07189 0.93117 0.0
H692 H 0.72472 0.06204 0.89411 0.0
H693 H 0.64302 0.96161 0.08714 0.0
H694 H 0.63139 0.99087 0.07195 0.0
H695 H 0.63585 0.97607 0.9905 0.0
H696 H 0.60816 0.05862 0.00504 0.0
H697 H 0.60933 0.01926 0.81318 0.0
H698 H 0.67181 0.06169 0.0481 0.0
H699 H 0.65167 0.03586 0.10749 0.0
H700 H 0.64228 0.06618 0.08193 0.0
H701 H 0.64887 0.01187 0.76628 0.0
H702 H 0.64869 0.98729 0.85038 0.0
H703 H 0.67476 0.01243 0.82828 0.0
C704 C 0.44847 0.71713 0.34963 0.0
C705 C 0.46856 0.73637 0.32297 0.0
C706 C 0.44015 0.69888 0.30449 0.0
C707 C 0.45211 0.70029 0.2311 0.0
C708 C 0.46914 0.72226 0.19831 0.0
C709 C 0.47734 0.74009 0.24504 0.0
C710 C 0.4214 0.67616 0.34075 0.0
C711 C 0.48154 0.725 0.11875 0.0
C712 C 0.47236 0.64019 0.19984 0.0
C713 C 0.45612 0.63219 0.14494 0.0
C714 C 0.47081 0.66207 0.22892 0.0
C715 C 0.45271 0.6766 0.20144 0.0
C716 C 0.43608 0.66855 0.14613 0.0
C717 C 0.43779 0.64612 0.11918 0.0
C718 C 0.48878 0.66968 0.28874 0.0
C719 C 0.41657 0.68347 0.11553 0.0
H720 H 0.44118 0.71467 0.40923 0.0
H721 H 0.49263 0.75514 0.22354 0.0
H722 H 0.40922 0.66938 0.29613 0.0
H723 H 0.43099 0.66057 0.3667 0.0
H724 H 0.41001 0.68045 0.38791 0.0
H725 H 0.48948 0.74505 0.09434 0.0
H726 H 0.49664 0.7139 0.12404 0.0
H727 H 0.4685 0.71761 0.07711 0.0
H728 H 0.4863 0.62914 0.22043 0.0
H729 H 0.4252 0.63977 0.07677 0.0
H730 H 0.47878 0.67147 0.3425 0.0
H731 H 0.5002 0.68836 0.26501 0.0
H732 H 0.50119 0.65582 0.30541 0.0
H733 H 0.40149 0.6802 0.16074 0.0
H734 H 0.40873 0.67776 0.06171 0.0
H735 H 0.42398 0.70406 0.10262 0.0
C736 C 0.83232 0.50933 0.05305 0.0
C737 C 0.83459 0.53386 0.06874 0.0
C738 C 0.85229 0.50139 0.01996 0.0
C739 C 0.87497 0.51829 0.00369 0.0
C740 C 0.87659 0.54365 0.01367 0.0
C741 C 0.8563 0.55115 0.04518 0.0
C742 C 0.84956 0.4745 0.00734 0.0
C743 C 0.90032 0.56242 0.99702 0.0
C744 C 0.93705 0.49856 0.02759 0.0
C745 C 0.94679 0.50548 0.95052 0.0
C746 C 0.91277 0.50067 0.04529 0.0
C747 C 0.89782 0.50935 0.98414 0.0
C748 C 0.90684 0.5137 0.90549 0.0
C749 C 0.93134 0.51206 0.88968 0.0
C750 C 0.90399 0.49608 0.13008 0.0
C751 C 0.89134 0.52215 0.83836 0.0
H752 H 0.81555 0.49593 0.07124 0.0
H753 H 0.85794 0.57022 0.05644 0.0
H754 H 0.85909 0.47366 0.95165 0.0
H755 H 0.85806 0.46314 0.05558 0.0
H756 H 0.82999 0.46567 0.00638 0.0
H757 H 0.89815 0.58168 0.00462 0.0
H758 H 0.91435 0.55603 0.0372 0.0
H759 H 0.90744 0.56359 0.93637 0.0
H760 H 0.94897 0.49361 0.07473 0.0
H761 H 0.93878 0.51718 0.82978 0.0
H762 H 0.88554 0.48408 0.13902 0.0
H763 H 0.90246 0.51442 0.14688 0.0
H764 H 0.91669 0.48684 0.16981 0.0
H765 H 0.8989 0.51942 0.78169 0.0
H766 H 0.89075 0.54255 0.83381 0.0
H767 H 0.87223 0.51168 0.84822 0.0
C768 C 0.01406 0.24919 0.3507 0.0
C769 C 0.03346 0.25822 0.39491 0.0
C770 C 0.0165 0.23144 0.30283 0.0
C771 C 0.03885 0.22223 0.29948 0.0
C772 C 0.05915 0.23305 0.33848 0.0
C773 C 0.05619 0.25083 0.38571 0.0
C774 C 0.99438 0.22078 0.26202 0.0
C775 C 0.08336 0.22403 0.33676 0.0
C776 C 0.0352 0.15304 0.28065 0.0
C777 C 0.04294 0.15484 0.20218 0.0
C778 C 0.03373 0.17471 0.31241 0.0
C779 C 0.03998 0.19911 0.26481 0.0
C780 C 0.04744 0.20114 0.18527 0.0
C781 C 0.04885 0.17909 0.15504 0.0
C782 C 0.02557 0.17143 0.39746 0.0
C783 C 0.05422 0.22666 0.13229 0.0
H784 H 0.99625 0.25419 0.35934 0.0
H785 H 0.07103 0.25709 0.42153 0.0
H786 H 0.99957 0.21916 0.20159 0.0
H787 H 0.98662 0.20149 0.29415 0.0
H788 H 0.97988 0.2326 0.25943 0.0
H789 H 0.09822 0.23678 0.35959 0.0
H790 H 0.08154 0.20486 0.37337 0.0
H791 H 0.08878 0.22264 0.27633 0.0
H792 H 0.03007 0.13455 0.31758 0.0
H793 H 0.0551 0.18093 0.09466 0.0
H794 H 0.00904 0.18006 0.40239 0.0
H795 H 0.04015 0.18135 0.42958 0.0
H796 H 0.02126 0.15124 0.42666 0.0
H797 H 0.03889 0.23732 0.13197 0.0
H798 H 0.05873 0.2251 0.07117 0.0
H799 H 0.07028 0.23788 0.15475 0.0
C800 C 0.33119 0.05454 0.42915 0.0
C801 C 0.32619 0.07503 0.46054 0.0
C802 C 0.34853 0.05814 0.36689 0.0
C803 C 0.36115 0.08287 0.33573 0.0
C804 C 0.35415 0.10385 0.3618 0.0
C805 C 0.3368 0.09965 0.42459 0.0
C806 C 0.35534 0.03522 0.34105 0.0
C807 C 0.36682 0.13052 0.3293 0.0
C808 C 0.42838 0.08591 0.28446 0.0
C809 C 0.42862 0.08785 0.20299 0.0
C810 C 0.40663 0.08495 0.32767 0.0
C811 C 0.38447 0.08613 0.2885 0.0
C812 C 0.38469 0.08896 0.20592 0.0
C813 C 0.40679 0.08976 0.16405 0.0
C814 C 0.4073 0.08198 0.41571 0.0
C815 C 0.36149 0.0904 0.16211 0.0
H816 H 0.32319 0.03549 0.45802 0.0
H817 H 0.33316 0.11544 0.44987 0.0
H818 H 0.35778 0.03837 0.27641 0.0
H819 H 0.37304 0.03171 0.36595 0.0
H820 H 0.34128 0.01801 0.36103 0.0
H821 H 0.3561 0.14467 0.34338 0.0
H822 H 0.38503 0.13397 0.35504 0.0
H823 H 0.36987 0.13346 0.26487 0.0
H824 H 0.44527 0.08491 0.3147 0.0
H825 H 0.40683 0.09111 0.1011 0.0
H826 H 0.39552 0.06395 0.44383 0.0
H827 H 0.39993 0.09754 0.43546 0.0
H828 H 0.42614 0.08202 0.43684 0.0
H829 H 0.34883 0.07199 0.17689 0.0
H830 H 0.36514 0.09505 0.09767 0.0
H831 H 0.35195 0.10487 0.17997 0.0
C832 C 0.56153 0.3512 0.20195 0.0
C833 C 0.54338 0.33031 0.23311 0.0
C834 C 0.55575 0.37244 0.15227 0.0
C835 C 0.53131 0.3725 0.12976 0.0
C836 C 0.51338 0.3504 0.15403 0.0
C837 C 0.51954 0.32963 0.20636 0.0
C838 C 0.57548 0.39558 0.1292 0.0
C839 C 0.48739 0.34921 0.12833 0.0
C840 C 0.51359 0.43775 0.09536 0.0
C841 C 0.5191 0.44608 0.01504 0.0
C842 C 0.51656 0.41345 0.13285 0.0
C843 C 0.52438 0.39667 0.08844 0.0
C844 C 0.52835 0.40445 0.00626 0.0
C845 C 0.5262 0.42925 0.97082 0.0
C846 C 0.51286 0.40636 0.22082 0.0
C847 C 0.53576 0.38696 0.95606 0.0
H848 H 0.58017 0.3516 0.22058 0.0
H849 H 0.5054 0.31356 0.22958 0.0
H850 H 0.57686 0.40188 0.06478 0.0
H851 H 0.57066 0.41134 0.15501 0.0
H852 H 0.59376 0.39213 0.14931 0.0
H853 H 0.47714 0.32948 0.13878 0.0
H854 H 0.47767 0.36037 0.16152 0.0
H855 H 0.48712 0.35754 0.06522 0.0
H856 H 0.50831 0.45078 0.12981 0.0
H857 H 0.53028 0.43557 0.9085 0.0
H858 H 0.53052 0.40337 0.24713 0.0
H859 H 0.49969 0.38837 0.23756 0.0
H860 H 0.50596 0.42116 0.24645 0.0
H861 H 0.55529 0.38541 0.96415 0.0
H862 H 0.53349 0.39392 0.89288 0.0
H863 H 0.52475 0.36768 0.97353 0.0
C864 C 0.22503 0.47394 0.48231 0.0
C865 C 0.23292 0.4995 0.48499 0.0
C866 C 0.20736 0.4667 0.42964 0.0
C867 C 0.19735 0.48552 0.37932 0.0
C868 C 0.20708 0.51138 0.37698 0.0
C869 C 0.22472 0.51804 0.43013 0.0
C870 C 0.1977 0.43895 0.43345 0.0
C871 C 0.19707 0.53209 0.3242 0.0
C872 C 0.15268 0.4705 0.2226 0.0
C873 C 0.13008 0.47008 0.26067 0.0
C874 C 0.17479 0.47469 0.26103 0.0
C875 C 0.17424 0.47857 0.33926 0.0
C876 C 0.15139 0.47733 0.37865 0.0
C877 C 0.12965 0.47311 0.33893 0.0
C878 C 0.19873 0.47583 0.21715 0.0
C879 C 0.14992 0.48124 0.46225 0.0
H880 H 0.23108 0.45963 0.52582 0.0
H881 H 0.23059 0.5378 0.4333 0.0
H882 H 0.17962 0.43375 0.46581 0.0
H883 H 0.19498 0.43471 0.37388 0.0
H884 H 0.21025 0.42693 0.46395 0.0
H885 H 0.20896 0.55086 0.32077 0.0
H886 H 0.19511 0.528 0.26425 0.0
H887 H 0.17857 0.53315 0.34715 0.0
H888 H 0.15317 0.46842 0.16186 0.0
H889 H 0.11223 0.47242 0.369 0.0
H890 H 0.21013 0.4635 0.25226 0.0
H891 H 0.20921 0.49542 0.20709 0.0
H892 H 0.19593 0.46996 0.15958 0.0
H893 H 0.15949 0.46778 0.50057 0.0
H894 H 0.1307 0.47866 0.48544 0.0
H895 H 0.15926 0.50062 0.46591 0.0
C896 C 0.0363 0.80301 0.46414 0.0
C897 C 0.01672 0.79343 0.42151 0.0
C898 C 0.03375 0.82066 0.51219 0.0
C899 C 0.01109 0.82916 0.51746 0.0
C900 C 0.99068 0.81775 0.4802 0.0
C901 C 0.99377 0.80011 0.43261 0.0
C902 C 0.05601 0.83203 0.55101 0.0
C903 C 0.96614 0.82596 0.48418 0.0
C904 C 1.00148 0.8718 0.66359 0.0
C905 C 0.00682 0.89609 0.61657 0.0
C906 C 0.00284 0.84989 0.63264 0.0
C907 C 0.00965 0.85213 0.55248 0.0
C908 C 0.01509 0.87658 0.50477 0.0
C909 C 0.01363 0.89812 0.53723 0.0
C910 C 0.997 0.82431 0.68576 0.0
C911 C 0.02234 0.88004 0.41891 0.0
H912 H 0.05425 0.79854 0.45399 0.0
H913 H 0.97878 0.79341 0.39801 0.0
H914 H 0.06304 0.85145 0.51846 0.0
H915 H 0.05121 0.83348 0.6119 0.0
H916 H 0.07093 0.82076 0.55202 0.0
H917 H 0.95135 0.81276 0.46276 0.0
H918 H 0.96112 0.82729 0.545 0.0
H919 H 0.9672 0.84503 0.44747 0.0
H920 H 0.99648 0.86989 0.72509 0.0
H921 H 0.01742 0.91663 0.49977 0.0
H922 H 0.013 0.81457 0.68657 0.0
H923 H 0.98152 0.81232 0.66312 0.0
H924 H 0.99207 0.82568 0.74673 0.0
H925 H 0.03896 0.87174 0.41178 0.0
H926 H 0.02613 0.90025 0.38977 0.0
H927 H 0.00748 0.8699 0.38829 0.0
C928 C 0.71361 1.00441 0.37379 0.0
C929 C 0.72456 0.98503 0.35384 0.0
C930 C 0.69659 0.99961 0.43723 0.0
C931 C 0.69042 0.97479 0.48175 0.0
C932 C 0.70339 0.95582 0.46685 0.0
C933 C 0.72034 0.96116 0.40255 0.0
C934 C 0.68334 0.02047 0.4511 0.0
C935 C 0.69771 0.92928 0.51395 0.0
C936 C 0.64629 0.96853 0.65614 0.0
C937 C 0.62356 0.96271 0.62276 0.0
C938 C 0.66842 0.97118 0.61253 0.0
C939 C 0.66777 0.96804 0.53359 0.0
C940 C 0.64495 0.96078 0.50101 0.0
C941 C 0.62319 0.95804 0.54611 0.0
C942 C 0.69236 0.97858 0.64973 0.0
C943 C 0.64338 0.95714 0.41704 0.0
H944 H 0.71693 0.02286 0.33579 0.0
H945 H 0.7287 0.94614 0.38665 0.0
H946 H 0.66433 0.01671 0.43129 0.0
H947 H 0.68216 0.02112 0.51434 0.0
H948 H 0.69251 0.0393 0.4188 0.0
H949 H 0.71252 0.91845 0.50629 0.0
H950 H 0.69503 0.9295 0.57711 0.0
H951 H 0.68043 0.91921 0.49448 0.0
H952 H 0.64684 0.97205 0.71535 0.0
H953 H 0.60577 0.95281 0.52051 0.0
H954 H 0.7002 0.99861 0.62515 0.0
H955 H 0.70586 0.96693 0.63651 0.0
H956 H 0.68998 0.97649 0.71426 0.0
H957 H 0.65034 0.97537 0.37706 0.0
H958 H 0.62433 0.95019 0.40196 0.0
H959 H 0.65506 0.94348 0.40596 0.0
C960 C 0.52303 0.69759 0.52631 0.0
C961 C 0.51964 0.72014 0.54937 0.0
C962 C 0.52713 0.67663 0.58088 0.0
C963 C 0.52885 0.67835 0.66085 0.0
C964 C 0.52754 0.70174 0.68384 0.0
C965 C 0.52273 0.72236 0.62782 0.0
C966 C 0.52811 0.65214 0.55324 0.0
C967 C 0.53014 0.70463 0.76803 0.0
C968 C 0.50871 0.61504 0.79732 0.0
C969 C 0.5309 0.60607 0.80792 0.0
C970 C 0.50793 0.63909 0.75279 0.0
C971 C 0.52998 0.65495 0.71982 0.0
C972 C 0.55262 0.64664 0.73497 0.0
C973 C 0.55279 0.62214 0.77764 0.0
C974 C 0.48331 0.64678 0.73673 0.0
C975 C 0.57661 0.66322 0.70334 0.0
H976 H 0.52134 0.69594 0.46535 0.0
H977 H 0.52031 0.73975 0.64602 0.0
H978 H 0.54538 0.64538 0.57025 0.0
H979 H 0.51272 0.63735 0.58166 0.0
H980 H 0.52688 0.65411 0.48876 0.0
H981 H 0.53286 0.72478 0.77422 0.0
H982 H 0.51336 0.69441 0.80299 0.0
H983 H 0.54582 0.69621 0.79322 0.0
H984 H 0.49171 0.60271 0.82032 0.0
H985 H 0.57004 0.61544 0.78647 0.0
H986 H 0.47988 0.64811 0.6735 0.0
H987 H 0.48313 0.66571 0.75095 0.0
H988 H 0.46805 0.6331 0.77085 0.0
H989 H 0.5786 0.66395 0.63941 0.0
H990 H 0.59256 0.65603 0.73141 0.0
H991 H 0.57702 0.68285 0.71248 0.0
C992 C 0.83597 0.58913 0.2992 0.0
C993 C 0.82101 0.56526 0.30994 0.0
C994 C 0.85332 0.59507 0.35403 0.0
C995 C 0.85595 0.5765 0.42031 0.0
C996 C 0.83939 0.55315 0.43456 0.0
C997 C 0.82206 0.5478 0.37896 0.0
C998 C 0.87037 0.6203 0.33698 0.0
C999 C 0.84155 0.53281 0.50433 0.0
C1000 C 0.92076 0.57526 0.48709 0.0
C1001 C 0.92059 0.58534 0.55552 0.0
C1002 C 0.89982 0.57232 0.44288 0.0
C1003 C 0.87819 0.57988 0.4672 0.0
C1004 C 0.87796 0.59038 0.53571 0.0
C1005 C 0.89914 0.59284 0.57939 0.0
C1006 C 0.90081 0.56081 0.37052 0.0
C1007 C 0.85538 0.59898 0.56279 0.0
H1008 H 0.83539 0.60241 0.24495 0.0
H1009 H 0.81079 0.52916 0.38621 0.0
H1010 H 0.87312 0.62843 0.39079 0.0
H1011 H 0.88856 0.61767 0.31587 0.0
H1012 H 0.86335 0.63405 0.29143 0.0
H1013 H 0.82516 0.51754 0.51358 0.0
H1014 H 0.85789 0.5243 0.49495 0.0
H1015 H 0.8441 0.54087 0.5583 0.0
H1016 H 0.93715 0.56908 0.46905 0.0
H1017 H 0.899 0.60082 0.63199 0.0
H1018 H 0.89675 0.57426 0.31839 0.0
H1019 H 0.88663 0.54349 0.37623 0.0
H1020 H 0.91898 0.55575 0.35998 0.0
H1021 H 0.84996 0.61348 0.51605 0.0
H1022 H 0.85829 0.60705 0.61677 0.0
H1023 H 0.83985 0.58284 0.57437 0.0
loop_
_geom_bond_atom_site_label_1
_geom_bond_atom_site_label_2
_geom_bond_distance
_geom_bond_site_symmetry_2
_ccdc_geom_bond_type
H0 C5 0.930 . S
H1 C8 0.930 . S
H2 C10 0.930 . S
H3 C4 1.016 . S
C4 H3 1.016 . S
C4 N11 1.286 1_556 S
C5 H0 0.930 . S
C5 C6 1.397 . S
C5 C7 1.361 . S
C6 C5 1.397 . S
C6 C10 1.390 . S
C7 C5 1.361 . S
C7 C8 1.393 1_554 S
C7 N11 1.413 . S
C8 H1 0.930 . S
C8 C7 1.393 1_556 S
C8 C9 1.399 . S
C9 C8 1.399 . S
C9 C10 1.381 1_556 S
C10 H2 0.930 . S
C10 C6 1.390 . S
C10 C9 1.381 1_554 S
N11 C4 1.286 1_554 S
N11 C7 1.413 . S
H12 C17 0.930 . S
H13 C20 0.936 . S
H14 C22 0.930 . S
H15 C16 1.016 . S
C16 H15 1.016 . S
C16 N23 1.286 1_655 S
C17 H12 0.930 . S
C17 C18 1.397 1_455 S
C17 C19 1.361 . S
C18 C17 1.397 1_655 S
C18 C22 1.390 . S
C19 C17 1.361 . S
C19 C20 1.404 . S
C19 N23 1.413 . S
C20 H13 0.936 . S
C20 C19 1.404 . S
C20 C21 1.385 1_455 S
C21 C20 1.385 1_655 S
C21 C22 1.381 . S
C22 H14 0.930 . S
C22 C18 1.390 . S
C22 C21 1.381 . S
N23 C16 1.286 1_455 S
N23 C19 1.413 . S
H24 C29 0.930 . S
H25 C32 0.930 1_556 S
H26 C34 0.930 . S
H27 C28 1.016 1_556 S
C28 H27 1.016 1_554 S
C28 N35 1.286 . S
C29 H24 0.930 . S
C29 C30 1.397 . S
C29 C31 1.361 . S
C30 C29 1.397 . S
C30 C34 1.390 . S
C31 C29 1.361 . S
C31 C32 1.393 . S
C31 N35 1.413 . S
C32 H25 0.930 1_554 S
C32 C31 1.393 . S
C32 C33 1.399 . S
C33 C32 1.399 . S
C33 C34 1.381 . S
C34 H26 0.930 . S
C34 C30 1.390 . S
C34 C33 1.381 . S
N35 C28 1.286 . S
N35 C31 1.413 . S
H36 C41 0.930 . S
H37 C44 0.930 . S
H38 C46 0.930 . S
H39 C40 1.016 . S
C40 H39 1.016 . S
C40 N47 1.286 . S
C41 H36 0.930 . S
C41 C42 1.397 . S
C41 C43 1.361 . S
C42 C41 1.397 . S
C42 C46 1.390 . S
C43 C41 1.361 . S
C43 C44 1.393 . S
C43 N47 1.413 . S
C44 H37 0.930 . S
C44 C43 1.393 . S
C44 C45 1.399 . S
C45 C44 1.399 . S
C45 C46 1.381 . S
C46 H38 0.930 . S
C46 C42 1.390 . S
C46 C45 1.381 . S
N47 C40 1.286 . S
N47 C43 1.413 . S
H48 C53 0.930 . S
H49 C56 0.930 . S
H50 C58 0.930 . S
H51 C52 1.016 . S
C52 H51 1.016 . S
C52 N59 1.286 . S
C53 H48 0.930 . S
C53 C54 1.397 . S
C53 C55 1.361 . S
C54 C53 1.397 . S
C54 C58 1.390 . S
C55 C53 1.361 . S
C55 C56 1.393 . S
C55 N59 1.413 . S
C56 H49 0.930 . S
C56 C55 1.393 . S
C56 C57 1.399 . S
C57 C56 1.399 . S
C57 C58 1.381 . S
C58 H50 0.930 . S
C58 C54 1.390 . S
C58 C57 1.381 . S
N59 C52 1.286 . S
N59 C55 1.413 . S
H60 C65 0.930 . S
H61 C68 0.930 . S
H62 C70 0.930 . S
H63 C64 1.016 . S
C64 H63 1.016 . S
C64 N71 1.286 . S
C65 H60 0.930 . S
C65 C66 1.397 . S
C65 C67 1.361 . S
C66 C65 1.397 . S
C66 C70 1.390 . S
C67 C65 1.361 . S
C67 C68 1.393 . S
C67 N71 1.413 . S
C68 H61 0.930 . S
C68 C67 1.393 . S
C68 C69 1.399 . S
C69 C68 1.399 . S
C69 C70 1.381 . S
C70 H62 0.930 . S
C70 C66 1.390 . S
C70 C69 1.381 . S
N71 C64 1.286 . S
N71 C67 1.413 . S
H72 C77 0.930 . S
H73 C80 0.930 . S
H74 C82 0.930 . S
H75 C76 1.016 . S
C76 H75 1.016 . S
C76 N83 1.286 . S
C77 H72 0.930 . S
C77 C78 1.397 . S
C77 C79 1.361 . S
C78 C77 1.397 . S
C78 C82 1.390 . S
C79 C77 1.361 . S
C79 C80 1.393 . S
C79 N83 1.413 . S
C80 H73 0.930 . S
C80 C79 1.393 . S
C80 C81 1.399 . S
C81 C80 1.399 . S
C81 C82 1.381 . S
C82 H74 0.930 . S
C82 C78 1.390 . S
C82 C81 1.381 . S
N83 C76 1.286 . S
N83 C79 1.413 . S
H84 C89 0.930 . S
H85 C92 0.930 . S
H86 C94 0.930 . S
H87 C88 1.016 . S
C88 H87 1.016 . S
C88 N95 1.286 . S
C89 H84 0.930 . S
C89 C90 1.397 . S
C89 C91 1.361 . S
C90 C89 1.397 . S
C90 C94 1.390 . S
C91 C89 1.361 . S
C91 C92 1.393 . S
C91 N95 1.413 . S
C92 H85 0.930 . S
C92 C91 1.393 . S
C92 C93 1.399 . S
C93 C92 1.399 . S
C93 C94 1.381 . S
C94 H86 0.930 . S
C94 C90 1.390 . S
C94 C93 1.381 . S
N95 C88 1.286 . S
N95 C91 1.413 . S
Nd96 C98 2.836 1_545 S
Nd96 O116 2.500 1_445 S
Nd96 O117 2.492 1_545 S
Nd96 O118 2.487 . S
Nd96 O119 2.682 . S
Nd96 O120 2.410 1_545 S
Nd96 O125 2.414 1_455 S
Nd96 O127 2.424 . S
Nd97 C107 2.836 . S
Nd97 O119 2.414 1_554 S
Nd97 O121 2.424 1_545 S
Nd97 O122 2.500 . S
Nd97 O123 2.492 . S
Nd97 O124 2.487 1_455 S
Nd97 O125 2.682 1_454 S
Nd97 O126 2.410 1_554 S
C98 Nd96 2.836 1_565 S
C98 C99 1.498 . S
C98 O116 1.258 1_455 S
C98 O117 1.239 . S
C99 C98 1.498 . S
C99 C100 1.366 1_455 S
C99 C104 1.407 . S
C100 C99 1.366 1_655 S
C100 C101 1.392 . S
C100 H128 0.930 . S
C101 C100 1.392 . S
C101 C102 1.398 1_655 S
C101 H129 0.929 . S
C102 C101 1.398 1_455 S
C102 C103 1.352 . S
C103 C102 1.352 . S
C103 C104 1.384 . S
C103 H130 0.930 . S
C104 C99 1.407 . S
C104 C103 1.384 . S
C104 H131 0.929 . S
C105 O118 1.241 . S
C105 O119 1.273 . S
C106 O120 1.251 . S
C106 O121 1.268 1_556 S
C107 Nd97 2.836 . S
C107 C108 1.498 . S
C107 O122 1.258 . S
C107 O123 1.239 . S
C108 C107 1.498 . S
C108 C109 1.366 . S
C108 C113 1.407 . S
C109 C108 1.366 . S
C109 C110 1.392 . S
C109 H132 0.930 . S
C110 C109 1.392 . S
C110 C111 1.398 . S
C110 H133 0.929 . S
C111 C110 1.398 . S
C111 C112 1.352 . S
C112 C111 1.352 . S
C112 C113 1.384 . S
C112 H134 0.930 . S
C113 C108 1.407 . S
C113 C112 1.384 . S
C113 H135 0.929 . S
C114 O124 1.241 1_556 S
C114 O125 1.273 . S
C115 O126 1.251 . S
C115 O127 1.268 . S
O116 Nd96 2.500 1_665 S
O116 C98 1.258 1_655 S
O117 Nd96 2.492 1_565 S
O117 C98 1.239 . S
O118 Nd96 2.487 . S
O118 C105 1.241 . S
O119 Nd96 2.682 . S
O119 Nd97 2.414 1_556 S
O119 C105 1.273 . S
O120 Nd96 2.410 1_565 S
O120 C106 1.251 . S
O121 Nd97 2.424 1_565 S
O121 C106 1.268 1_554 S
O122 Nd97 2.500 . S
O122 C107 1.258 . S
O123 Nd97 2.492 . S
O123 C107 1.239 . S
O124 Nd97 2.487 1_655 S
O124 C114 1.241 1_554 S
O125 Nd96 2.414 1_655 S
O125 Nd97 2.682 1_656 S
O125 C114 1.273 . S
O126 Nd97 2.410 1_556 S
O126 C115 1.251 . S
O127 Nd96 2.424 . S
O127 C115 1.268 . S
H128 C100 0.930 . S
H129 C101 0.929 . S
H130 C103 0.930 . S
H131 C104 0.929 . S
H132 C109 0.930 . S
H133 C110 0.929 . S
H134 C112 0.930 . S
H135 C113 0.929 . S
Nd136 C138 2.836 1_545 S
Nd136 O156 2.500 1_545 S
Nd136 O157 2.492 . S
Nd136 O158 2.487 . S
Nd136 O159 2.682 . S
Nd136 O160 2.410 . S
Nd136 O165 2.414 1_545 S
Nd136 O167 2.424 . S
Nd137 C147 2.836 . S
Nd137 O159 2.414 1_554 S
Nd137 O161 2.424 1_554 S
Nd137 O162 2.500 . S
Nd137 O163 2.492 . S
Nd137 O164 2.487 1_545 S
Nd137 O165 2.682 1_544 S
Nd137 O166 2.410 1_554 S
C138 Nd136 2.836 1_565 S
C138 C139 1.498 . S
C138 O156 1.258 . S
C138 O157 1.239 1_565 S
C139 C138 1.498 . S
C139 C140 1.366 . S
C139 C144 1.407 . S
C140 C139 1.366 . S
C140 C141 1.392 . S
C140 H168 0.930 . S
C141 C140 1.392 . S
C141 C142 1.398 . S
C141 H169 0.929 . S
C142 C141 1.398 . S
C142 C143 1.352 . S
C143 C142 1.352 . S
C143 C144 1.384 . S
C143 H170 0.930 . S
C144 C139 1.407 . S
C144 C143 1.384 . S
C144 H171 0.929 1_565 S
C145 O158 1.241 . S
C145 O159 1.273 . S
C146 O160 1.251 . S
C146 O161 1.268 . S
C147 Nd137 2.836 . S
C147 C148 1.498 . S
C147 O162 1.258 . S
C147 O163 1.239 . S
C148 C147 1.498 . S
C148 C149 1.366 . S
C148 C153 1.407 . S
C149 C148 1.366 . S
C149 C150 1.392 . S
C149 H172 0.930 . S
C150 C149 1.392 . S
C150 C151 1.398 . S
C150 H173 0.929 . S
C151 C150 1.398 . S
C151 C152 1.352 . S
C152 C151 1.352 . S
C152 C153 1.384 . S
C152 H174 0.930 . S
C153 C148 1.407 . S
C153 C152 1.384 . S
C153 H175 0.929 . S
C154 O164 1.241 . S
C154 O165 1.273 1_554 S
C155 O166 1.251 . S
C155 O167 1.268 . S
O156 Nd136 2.500 1_565 S
O156 C138 1.258 . S
O157 Nd136 2.492 . S
O157 C138 1.239 1_545 S
O158 Nd136 2.487 . S
O158 C145 1.241 . S
O159 Nd136 2.682 . S
O159 Nd137 2.414 1_556 S
O159 C145 1.273 . S
O160 Nd136 2.410 . S
O160 C146 1.251 . S
O161 Nd137 2.424 1_556 S
O161 C146 1.268 . S
O162 Nd137 2.500 . S
O162 C147 1.258 . S
O163 Nd137 2.492 . S
O163 C147 1.239 . S
O164 Nd137 2.487 1_565 S
O164 C154 1.241 . S
O165 Nd136 2.414 1_565 S
O165 Nd137 2.682 1_566 S
O165 C154 1.273 1_556 S
O166 Nd137 2.410 1_556 S
O166 C155 1.251 . S
O167 Nd136 2.424 . S
O167 C155 1.268 . S
H168 C140 0.930 . S
H169 C141 0.929 . S
H170 C143 0.930 . S
H171 C144 0.929 1_545 S
H172 C149 0.930 . S
H173 C150 0.929 . S
H174 C152 0.930 . S
H175 C153 0.929 . S
Nd176 C178 2.836 . S
Nd176 O196 2.500 . S
Nd176 O197 2.492 . S
Nd176 O198 2.487 1_554 S
Nd176 O199 2.682 1_554 S
Nd176 O200 2.410 1_554 S
Nd176 O205 2.414 1_554 S
Nd176 O207 2.424 . S
Nd177 C187 2.836 . S
Nd177 O199 2.414 . S
Nd177 O201 2.424 . S
Nd177 O202 2.500 . S
Nd177 O203 2.492 . S
Nd177 O204 2.487 . S
Nd177 O205 2.682 . S
Nd177 O206 2.410 . S
C178 Nd176 2.836 . S
C178 C179 1.498 . S
C178 O196 1.258 . S
C178 O197 1.239 . S
C179 C178 1.498 . S
C179 C180 1.366 . S
C179 C184 1.407 . S
C180 C179 1.366 . S
C180 C181 1.392 . S
C180 H208 0.930 . S
C181 C180 1.392 . S
C181 C182 1.398 . S
C181 H209 0.929 . S
C182 C181 1.398 . S
C182 C183 1.352 . S
C183 C182 1.352 . S
C183 C184 1.384 . S
C183 H210 0.930 . S
C184 C179 1.407 . S
C184 C183 1.384 . S
C184 H211 0.929 . S
C185 O198 1.241 . S
C185 O199 1.273 . S
C186 O200 1.251 . S
C186 O201 1.268 . S
C187 Nd177 2.836 . S
C187 C188 1.498 . S
C187 O202 1.258 . S
C187 O203 1.239 . S
C188 C187 1.498 . S
C188 C189 1.366 . S
C188 C193 1.407 . S
C189 C188 1.366 . S
C189 C190 1.392 . S
C189 H212 0.930 . S
C190 C189 1.392 . S
C190 C191 1.398 . S
C190 H213 0.929 . S
C191 C190 1.398 . S
C191 C192 1.352 . S
C192 C191 1.352 . S
C192 C193 1.384 . S
C192 H214 0.930 . S
C193 C188 1.407 . S
C193 C192 1.384 . S
C193 H215 0.929 . S
C194 O204 1.241 . S
C194 O205 1.273 . S
C195 O206 1.251 . S
C195 O207 1.268 1_556 S
O196 Nd176 2.500 . S
O196 C178 1.258 . S
O197 Nd176 2.492 . S
O197 C178 1.239 . S
O198 Nd176 2.487 1_556 S
O198 C185 1.241 . S
O199 Nd176 2.682 1_556 S
O199 Nd177 2.414 . S
O199 C185 1.273 . S
O200 Nd176 2.410 1_556 S
O200 C186 1.251 . S
O201 Nd177 2.424 . S
O201 C186 1.268 . S
O202 Nd177 2.500 . S
O202 C187 1.258 . S
O203 Nd177 2.492 . S
O203 C187 1.239 . S
O204 Nd177 2.487 . S
O204 C194 1.241 . S
O205 Nd176 2.414 1_556 S
O205 Nd177 2.682 . S
O205 C194 1.273 . S
O206 Nd177 2.410 . S
O206 C195 1.251 . S
O207 Nd176 2.424 . S
O207 C195 1.268 1_554 S
H208 C180 0.930 . S
H209 C181 0.929 . S
H210 C183 0.930 . S
H211 C184 0.929 . S
H212 C189 0.930 . S
H213 C190 0.929 . S
H214 C192 0.930 . S
H215 C193 0.929 . S
Nd216 C218 2.836 1_455 S
Nd216 O236 2.500 1_455 S
Nd216 O237 2.492 1_455 S
Nd216 O238 2.487 . S
Nd216 O239 2.682 . S
Nd216 O240 2.410 1_455 S
Nd216 O245 2.414 . S
Nd216 O247 2.424 . S
Nd217 C227 2.836 . S
Nd217 O239 2.414 1_554 S
Nd217 O241 2.424 1_454 S
Nd217 O242 2.500 . S
Nd217 O243 2.492 . S
Nd217 O244 2.487 . S
Nd217 O245 2.682 1_554 S
Nd217 O246 2.410 1_554 S
C218 Nd216 2.836 1_655 S
C218 C219 1.498 . S
C218 O236 1.258 . S
C218 O237 1.239 . S
C219 C218 1.498 . S
C219 C220 1.366 . S
C219 C224 1.407 . S
C220 C219 1.366 . S
C220 C221 1.392 . S
C220 H248 0.930 . S
C221 C220 1.392 . S
C221 C222 1.398 . S
C221 H249 0.929 . S
C222 C221 1.398 . S
C222 C223 1.352 . S
C223 C222 1.352 . S
C223 C224 1.384 . S
C223 H250 0.930 . S
C224 C219 1.407 . S
C224 C223 1.384 . S
C224 H251 0.929 . S
C225 O238 1.241 . S
C225 O239 1.273 . S
C226 O240 1.251 . S
C226 O241 1.268 . S
C227 Nd217 2.836 . S
C227 C228 1.498 . S
C227 O242 1.258 . S
C227 O243 1.239 . S
C228 C227 1.498 . S
C228 C229 1.366 . S
C228 C233 1.407 . S
C229 C228 1.366 . S
C229 C230 1.392 . S
C229 H252 0.930 . S
C230 C229 1.392 . S
C230 C231 1.398 . S
C230 H253 0.929 . S
C231 C230 1.398 . S
C231 C232 1.352 . S
C232 C231 1.352 . S
C232 C233 1.384 . S
C232 H254 0.930 . S
C233 C228 1.407 . S
C233 C232 1.384 . S
C233 H255 0.929 . S
C234 O244 1.241 1_556 S
C234 O245 1.273 . S
C235 O246 1.251 . S
C235 O247 1.268 . S
O236 Nd216 2.500 1_655 S
O236 C218 1.258 . S
O237 Nd216 2.492 1_655 S
O237 C218 1.239 . S
O238 Nd216 2.487 . S
O238 C225 1.241 . S
O239 Nd216 2.682 . S
O239 Nd217 2.414 1_556 S
O239 C225 1.273 . S
O240 Nd216 2.410 1_655 S
O240 C226 1.251 . S
O241 Nd217 2.424 1_656 S
O241 C226 1.268 . S
O242 Nd217 2.500 . S
O242 C227 1.258 . S
O243 Nd217 2.492 . S
O243 C227 1.239 . S
O244 Nd217 2.487 . S
O244 C234 1.241 1_554 S
O245 Nd216 2.414 . S
O245 Nd217 2.682 1_556 S
O245 C234 1.273 . S
O246 Nd217 2.410 1_556 S
O246 C235 1.251 . S
O247 Nd216 2.424 . S
O247 C235 1.268 . S
H248 C220 0.930 . S
H249 C221 0.929 . S
H250 C223 0.930 . S
H251 C224 0.929 . S
H252 C229 0.930 . S
H253 C230 0.929 . S
H254 C232 0.930 . S
H255 C233 0.929 . S
C256 C257 1.391 . S
C256 C258 1.394 . S
C256 H272 0.931 . S
C257 C256 1.391 . S
C257 C261 1.376 . S
C258 C256 1.394 . S
C258 C259 1.369 . S
C258 C262 1.531 . S
C259 C258 1.369 . S
C259 C260 1.410 . S
C259 C267 1.503 . S
C260 C259 1.410 . S
C260 C261 1.392 . S
C260 C263 1.511 . S
C261 C257 1.376 . S
C261 C260 1.392 . S
C261 H273 0.929 . S
C262 C258 1.531 . S
C262 H274 0.960 . S
C262 H275 0.962 . S
C262 H276 0.960 . S
C263 C260 1.511 . S
C263 H277 0.961 . S
C263 H278 0.961 . S
C263 H279 0.961 . S
C264 C265 1.370 . S
C264 C266 1.363 . S
C264 H280 0.931 . S
C265 C264 1.370 . S
C265 C269 1.408 . S
C266 C264 1.363 . S
C266 C267 1.370 . S
C266 C270 1.524 . S
C267 C259 1.503 . S
C267 C266 1.370 . S
C267 C268 1.403 . S
C268 C267 1.403 . S
C268 C269 1.404 . S
C268 C271 1.539 . S
C269 C265 1.408 . S
C269 C268 1.404 . S
C269 H281 0.930 . S
C270 C266 1.524 . S
C270 H282 0.956 . S
C270 H283 0.961 . S
C270 H284 0.961 1_556 S
C271 C268 1.539 . S
C271 H285 0.958 . S
C271 H286 0.961 . S
C271 H287 0.960 . S
H272 C256 0.931 . S
H273 C261 0.929 . S
H274 C262 0.960 . S
H275 C262 0.962 . S
H276 C262 0.960 . S
H277 C263 0.961 . S
H278 C263 0.961 . S
H279 C263 0.961 . S
H280 C264 0.931 . S
H281 C269 0.930 . S
H282 C270 0.956 . S
H283 C270 0.961 . S
H284 C270 0.961 1_554 S
H285 C271 0.958 . S
H286 C271 0.961 . S
H287 C271 0.960 . S
C288 C289 1.391 . S
C288 C290 1.394 . S
C288 H304 0.931 . S
C289 C288 1.391 . S
C289 C293 1.376 . S
C290 C288 1.394 . S
C290 C291 1.369 . S
C290 C294 1.531 . S
C291 C290 1.369 . S
C291 C292 1.410 . S
C291 C299 1.503 . S
C292 C291 1.410 . S
C292 C293 1.392 . S
C292 C295 1.511 . S
C293 C289 1.376 . S
C293 C292 1.392 . S
C293 H305 0.929 . S
C294 C290 1.531 . S
C294 H306 0.960 . S
C294 H307 0.962 . S
C294 H308 0.960 . S
C295 C292 1.511 . S
C295 H309 0.961 . S
C295 H310 0.961 . S
C295 H311 0.961 . S
C296 C297 1.370 . S
C296 C298 1.363 . S
C296 H312 0.931 . S
C297 C296 1.370 . S
C297 C301 1.408 . S
C298 C296 1.363 . S
C298 C299 1.370 . S
C298 C302 1.524 . S
C299 C291 1.503 . S
C299 C298 1.370 . S
C299 C300 1.403 . S
C300 C299 1.403 . S
C300 C301 1.404 . S
C300 C303 1.539 . S
C301 C297 1.408 . S
C301 C300 1.404 . S
C301 H313 0.930 . S
C302 C298 1.524 . S
C302 H314 0.956 . S
C302 H315 0.961 . S
C302 H316 0.961 . S
C303 C300 1.539 . S
C303 H317 0.958 . S
C303 H318 0.961 . S
C303 H319 0.960 . S
H304 C288 0.931 . S
H305 C293 0.929 . S
H306 C294 0.960 . S
H307 C294 0.962 . S
H308 C294 0.960 . S
H309 C295 0.961 . S
H310 C295 0.961 . S
H311 C295 0.961 . S
H312 C296 0.931 . S
H313 C301 0.930 . S
H314 C302 0.956 . S
H315 C302 0.961 . S
H316 C302 0.961 . S
H317 C303 0.958 . S
H318 C303 0.961 . S
H319 C303 0.960 . S
C320 C321 1.391 . S
C320 C322 1.394 . S
C320 H336 0.931 . S
C321 C320 1.391 . S
C321 C325 1.376 . S
C322 C320 1.394 . S
C322 C323 1.369 . S
C322 C326 1.531 . S
C323 C322 1.369 . S
C323 C324 1.410 . S
C323 C331 1.503 . S
C324 C323 1.410 . S
C324 C325 1.392 . S
C324 C327 1.511 . S
C325 C321 1.376 . S
C325 C324 1.392 . S
C325 H337 0.929 . S
C326 C322 1.531 . S
C326 H338 0.962 . S
C326 H339 0.962 . S
C326 H340 0.960 1_556 S
C327 C324 1.511 . S
C327 H341 0.961 . S
C327 H342 0.961 . S
C327 H343 0.961 . S
C328 C329 1.370 . S
C328 C330 1.363 . S
C328 H344 0.931 . S
C329 C328 1.370 . S
C329 C333 1.408 . S
C330 C328 1.363 . S
C330 C331 1.370 . S
C330 C334 1.524 . S
C331 C323 1.503 . S
C331 C330 1.370 . S
C331 C332 1.403 . S
C332 C331 1.403 . S
C332 C333 1.404 . S
C332 C335 1.539 1_556 S
C333 C329 1.408 . S
C333 C332 1.404 . S
C333 H345 0.930 . S
C334 C330 1.524 . S
C334 H346 0.956 . S
C334 H347 0.961 . S
C334 H348 0.961 . S
C335 C332 1.539 1_554 S
C335 H349 0.958 . S
C335 H350 0.961 . S
C335 H351 0.960 1_554 S
H336 C320 0.931 . S
H337 C325 0.929 . S
H338 C326 0.962 . S
H339 C326 0.962 . S
H340 C326 0.960 1_554 S
H341 C327 0.961 . S
H342 C327 0.961 . S
H343 C327 0.961 . S
H344 C328 0.931 . S
H345 C333 0.930 . S
H346 C334 0.956 . S
H347 C334 0.961 . S
H348 C334 0.961 . S
H349 C335 0.958 . S
H350 C335 0.961 . S
H351 C335 0.960 1_556 S
C352 C353 1.391 . S
C352 C354 1.394 . S
C352 H368 0.931 . S
C353 C352 1.391 . S
C353 C357 1.376 . S
C354 C352 1.394 . S
C354 C355 1.369 . S
C354 C358 1.531 . S
C355 C354 1.369 . S
C355 C356 1.410 . S
C355 C363 1.503 . S
C356 C355 1.410 . S
C356 C357 1.392 . S
C356 C359 1.511 . S
C357 C353 1.376 . S
C357 C356 1.392 . S
C357 H369 0.929 . S
C358 C354 1.531 . S
C358 H370 0.960 . S
C358 H371 0.962 . S
C358 H372 0.960 . S
C359 C356 1.511 . S
C359 H373 0.961 . S
C359 H374 0.961 . S
C359 H375 0.961 . S
C360 C361 1.370 . S
C360 C362 1.363 . S
C360 H376 0.931 1_455 S
C361 C360 1.370 . S
C361 C365 1.408 . S
C362 C360 1.363 . S
C362 C363 1.370 . S
C362 C366 1.524 1_455 S
C363 C355 1.503 . S
C363 C362 1.370 . S
C363 C364 1.403 . S
C364 C363 1.403 . S
C364 C365 1.404 . S
C364 C367 1.539 . S
C365 C361 1.408 . S
C365 C364 1.404 . S
C365 H377 0.930 . S
C366 C362 1.524 1_655 S
C366 H378 0.956 . S
C366 H379 0.961 1_655 S
C366 H380 0.961 . S
C367 C364 1.539 . S
C367 H381 0.958 . S
C367 H382 0.961 . S
C367 H383 0.960 . S
H368 C352 0.931 . S
H369 C357 0.929 . S
H370 C358 0.960 . S
H371 C358 0.962 . S
H372 C358 0.960 . S
H373 C359 0.961 . S
H374 C359 0.961 . S
H375 C359 0.961 . S
H376 C360 0.931 1_655 S
H377 C365 0.930 . S
H378 C366 0.956 . S
H379 C366 0.961 1_455 S
H380 C366 0.961 . S
H381 C367 0.958 . S
H382 C367 0.961 . S
H383 C367 0.960 . S
C384 C385 1.391 . S
C384 C386 1.394 . S
C384 H400 0.931 . S
C385 C384 1.391 . S
C385 C389 1.376 . S
C386 C384 1.394 . S
C386 C387 1.369 . S
C386 C390 1.531 1_564 S
C387 C386 1.369 . S
C387 C388 1.410 . S
C387 C395 1.503 1_554 S
C388 C387 1.410 . S
C388 C389 1.392 . S
C388 C391 1.511 . S
C389 C385 1.376 . S
C389 C388 1.392 . S
C389 H401 0.929 . S
C390 C386 1.531 1_546 S
C390 H402 0.960 1_556 S
C390 H403 0.962 . S
C390 H404 0.960 1_556 S
C391 C388 1.511 . S
C391 H405 0.961 . S
C391 H406 0.961 . S
C391 H407 0.961 . S
C392 C393 1.370 . S
C392 C394 1.363 . S
C392 H408 0.931 . S
C393 C392 1.370 . S
C393 C397 1.408 1_556 S
C394 C392 1.363 . S
C394 C395 1.370 . S
C394 C398 1.524 . S
C395 C387 1.503 1_556 S
C395 C394 1.370 . S
C395 C396 1.403 1_556 S
C396 C395 1.403 1_554 S
C396 C397 1.404 . S
C396 C399 1.539 . S
C397 C393 1.408 1_554 S
C397 C396 1.404 . S
C397 H409 0.930 . S
C398 C394 1.524 . S
C398 H410 0.956 . S
C398 H411 0.961 . S
C398 H412 0.961 . S
C399 C396 1.539 . S
C399 H413 0.958 . S
C399 H414 0.961 . S
C399 H415 0.960 . S
H400 C384 0.931 . S
H401 C389 0.929 . S
H402 C390 0.960 1_554 S
H403 C390 0.962 . S
H404 C390 0.960 1_554 S
H405 C391 0.961 . S
H406 C391 0.961 . S
H407 C391 0.961 . S
H408 C392 0.931 . S
H409 C397 0.930 . S
H410 C398 0.956 . S
H411 C398 0.961 . S
H412 C398 0.961 . S
H413 C399 0.958 . S
H414 C399 0.961 . S
H415 C399 0.960 . S
C416 C417 1.391 . S
C416 C418 1.394 . S
C416 H432 0.931 . S
C417 C416 1.391 . S
C417 C421 1.376 . S
C418 C416 1.394 . S
C418 C419 1.369 . S
C418 C422 1.531 . S
C419 C418 1.369 . S
C419 C420 1.410 . S
C419 C427 1.503 . S
C420 C419 1.410 . S
C420 C421 1.392 . S
C420 C423 1.511 . S
C421 C417 1.376 . S
C421 C420 1.392 . S
C421 H433 0.929 . S
C422 C418 1.531 . S
C422 H434 0.960 . S
C422 H435 0.962 . S
C422 H436 0.960 . S
C423 C420 1.511 . S
C423 H437 0.961 . S
C423 H438 0.961 . S
C423 H439 0.961 . S
C424 C425 1.370 . S
C424 C426 1.363 . S
C424 H440 0.931 . S
C425 C424 1.370 . S
C425 C429 1.408 . S
C426 C424 1.363 . S
C426 C427 1.370 . S
C426 C430 1.524 . S
C427 C419 1.503 . S
C427 C426 1.370 . S
C427 C428 1.403 . S
C428 C427 1.403 . S
C428 C429 1.404 . S
C428 C431 1.539 . S
C429 C425 1.408 . S
C429 C428 1.404 . S
C429 H441 0.930 . S
C430 C426 1.524 . S
C430 H442 0.956 . S
C430 H443 0.961 . S
C430 H444 0.961 . S
C431 C428 1.539 . S
C431 H445 0.958 . S
C431 H446 0.961 . S
C431 H447 0.960 . S
H432 C416 0.931 . S
H433 C421 0.929 . S
H434 C422 0.960 . S
H435 C422 0.962 . S
H436 C422 0.960 . S
H437 C423 0.961 . S
H438 C423 0.961 . S
H439 C423 0.961 . S
H440 C424 0.931 . S
H441 C429 0.930 . S
H442 C430 0.956 . S
H443 C430 0.961 . S
H444 C430 0.961 . S
H445 C431 0.958 . S
H446 C431 0.961 . S
H447 C431 0.960 . S
C448 C449 1.391 . S
C448 C450 1.394 . S
C448 H464 0.931 1_556 S
C449 C448 1.391 . S
C449 C453 1.376 . S
C450 C448 1.394 . S
C450 C451 1.369 . S
C450 C454 1.531 1_556 S
C451 C450 1.369 . S
C451 C452 1.410 . S
C451 C459 1.503 . S
C452 C451 1.410 . S
C452 C453 1.392 . S
C452 C455 1.511 . S
C453 C449 1.376 . S
C453 C452 1.392 . S
C453 H465 0.929 . S
C454 C450 1.531 1_554 S
C454 H466 0.960 1_554 S
C454 H467 0.962 . S
C454 H468 0.960 . S
C455 C452 1.511 . S
C455 H469 0.961 . S
C455 H470 0.961 . S
C455 H471 0.961 . S
C456 C457 1.370 . S
C456 C458 1.363 . S
C456 H472 0.931 1_556 S
C457 C456 1.370 . S
C457 C461 1.408 . S
C458 C456 1.363 . S
C458 C459 1.370 . S
C458 C462 1.524 1_556 S
C459 C451 1.503 . S
C459 C458 1.370 . S
C459 C460 1.403 . S
C460 C459 1.403 . S
C460 C461 1.404 . S
C460 C463 1.539 . S
C461 C457 1.408 . S
C461 C460 1.404 . S
C461 H473 0.930 . S
C462 C458 1.524 1_554 S
C462 H474 0.956 . S
C462 H475 0.961 . S
C462 H476 0.961 . S
C463 C460 1.539 . S
C463 H477 0.958 . S
C463 H478 0.961 . S
C463 H479 0.960 . S
H464 C448 0.931 1_554 S
H465 C453 0.929 . S
H466 C454 0.960 1_556 S
H467 C454 0.962 . S
H468 C454 0.960 . S
H469 C455 0.961 . S
H470 C455 0.961 . S
H471 C455 0.961 . S
H472 C456 0.931 1_554 S
H473 C461 0.930 . S
H474 C462 0.956 . S
H475 C462 0.961 . S
H476 C462 0.961 . S
H477 C463 0.958 . S
H478 C463 0.961 . S
H479 C463 0.960 . S
C480 C481 1.391 . S
C480 C482 1.394 . S
C480 H496 0.931 . S
C481 C480 1.391 . S
C481 C485 1.376 1_655 S
C482 C480 1.394 . S
C482 C483 1.369 1_655 S
C482 C486 1.531 . S
C483 C482 1.369 1_455 S
C483 C484 1.410 1_554 S
C483 C491 1.503 1_554 S
C484 C483 1.410 1_556 S
C484 C485 1.392 1_556 S
C484 C487 1.511 . S
C485 C481 1.376 1_455 S
C485 C484 1.392 1_554 S
C485 H497 0.929 1_554 S
C486 C482 1.531 . S
C486 H498 0.960 . S
C486 H499 0.962 . S
C486 H500 0.960 . S
C487 C484 1.511 . S
C487 H501 0.961 . S
C487 H502 0.961 . S
C487 H503 0.961 . S
C488 C489 1.370 1_554 S
C488 C490 1.363 . S
C488 H504 0.931 . S
C489 C488 1.370 1_556 S
C489 C493 1.408 . S
C490 C488 1.363 . S
C490 C491 1.370 1_554 S
C490 C494 1.524 . S
C491 C483 1.503 1_556 S
C491 C490 1.370 1_556 S
C491 C492 1.411 . S
C492 C491 1.411 . S
C492 C493 1.412 . S
C492 C495 1.524 1_455 S
C493 C489 1.408 . S
C493 C492 1.412 . S
C493 H505 0.927 1_455 S
C494 C490 1.524 . S
C494 H506 0.956 . S
C494 H507 0.961 . S
C494 H508 0.961 . S
C495 C492 1.524 1_655 S
C495 H509 0.958 . S
C495 H510 0.961 . S
C495 H511 0.960 . S
H496 C480 0.931 . S
H497 C485 0.929 1_556 S
H498 C486 0.960 . S
H499 C486 0.962 . S
H500 C486 0.960 . S
H501 C487 0.961 . S
H502 C487 0.961 . S
H503 C487 0.961 . S
H504 C488 0.931 . S
H505 C493 0.927 1_655 S
H506 C494 0.956 . S
H507 C494 0.961 . S
H508 C494 0.961 . S
H509 C495 0.958 . S
H510 C495 0.961 . S
H511 C495 0.960 . S
C512 C513 1.391 . S
C512 C514 1.394 . S
C512 H528 0.931 . S
C513 C512 1.391 . S
C513 C517 1.376 . S
C514 C512 1.394 . S
C514 C515 1.369 . S
C514 C518 1.531 . S
C515 C514 1.369 . S
C515 C516 1.410 . S
C515 C523 1.503 . S
C516 C515 1.410 . S
C516 C517 1.392 . S
C516 C519 1.511 . S
C517 C513 1.376 . S
C517 C516 1.392 . S
C517 H529 0.929 . S
C518 C514 1.531 . S
C518 H530 0.960 . S
C518 H531 0.962 . S
C518 H532 0.960 . S
C519 C516 1.511 . S
C519 H533 0.955 1_455 S
C519 H534 0.961 . S
C519 H535 0.961 1_455 S
C520 C521 1.370 . S
C520 C522 1.363 . S
C520 H536 0.931 . S
C521 C520 1.370 . S
C521 C525 1.408 . S
C522 C520 1.363 . S
C522 C523 1.370 . S
C522 C526 1.524 . S
C523 C515 1.503 . S
C523 C522 1.370 . S
C523 C524 1.403 . S
C524 C523 1.403 . S
C524 C525 1.404 . S
C524 C527 1.539 . S
C525 C521 1.408 . S
C525 C524 1.404 . S
C525 H537 0.930 . S
C526 C522 1.524 . S
C526 H538 0.956 . S
C526 H539 0.961 . S
C526 H540 0.961 . S
C527 C524 1.539 . S
C527 H541 0.969 . S
C527 H542 0.961 1_455 S
C527 H543 0.960 . S
H528 C512 0.931 . S
H529 C517 0.929 . S
H530 C518 0.960 . S
H531 C518 0.962 . S
H532 C518 0.960 . S
H533 C519 0.955 1_655 S
H534 C519 0.961 . S
H535 C519 0.961 1_655 S
H536 C520 0.931 . S
H537 C525 0.930 . S
H538 C526 0.956 . S
H539 C526 0.961 . S
H540 C526 0.961 . S
H541 C527 0.969 . S
H542 C527 0.961 1_655 S
H543 C527 0.960 . S
C544 C545 1.391 . S
C544 C546 1.394 . S
C544 H560 0.931 . S
C545 C544 1.391 . S
C545 C549 1.376 . S
C546 C544 1.394 . S
C546 C547 1.369 . S
C546 C550 1.531 . S
C547 C546 1.369 . S
C547 C548 1.410 . S
C547 C555 1.503 . S
C548 C547 1.410 . S
C548 C549 1.392 . S
C548 C551 1.511 . S
C549 C545 1.376 . S
C549 C548 1.392 . S
C549 H561 0.929 . S
C550 C546 1.531 . S
C550 H562 0.960 . S
C550 H563 0.962 . S
C550 H564 0.960 . S
C551 C548 1.511 . S
C551 H565 0.963 . S
C551 H566 0.961 . S
C551 H567 0.961 1_556 S
C552 C553 1.370 . S
C552 C554 1.363 . S
C552 H568 0.931 . S
C553 C552 1.370 . S
C553 C557 1.408 . S
C554 C552 1.363 . S
C554 C555 1.370 . S
C554 C558 1.524 . S
C555 C547 1.503 . S
C555 C554 1.370 . S
C555 C556 1.403 . S
C556 C555 1.403 . S
C556 C557 1.404 . S
C556 C559 1.539 . S
C557 C553 1.408 . S
C557 C556 1.404 . S
C557 H569 0.930 . S
C558 C554 1.524 . S
C558 H570 0.956 . S
C558 H571 0.961 . S
C558 H572 0.961 . S
C559 C556 1.539 . S
C559 H573 0.958 . S
C559 H574 0.961 . S
C559 H575 0.960 . S
H560 C544 0.931 . S
H561 C549 0.929 . S
H562 C550 0.960 . S
H563 C550 0.962 . S
H564 C550 0.960 . S
H565 C551 0.963 . S
H566 C551 0.961 . S
H567 C551 0.961 1_554 S
H568 C552 0.931 . S
H569 C557 0.930 . S
H570 C558 0.956 . S
H571 C558 0.961 . S
H572 C558 0.961 . S
H573 C559 0.958 . S
H574 C559 0.961 . S
H575 C559 0.960 . S
C576 C577 1.391 . S
C576 C578 1.394 . S
C576 H592 0.931 . S
C577 C576 1.391 . S
C577 C581 1.376 . S
C578 C576 1.394 . S
C578 C579 1.369 . S
C578 C582 1.531 . S
C579 C578 1.369 . S
C579 C580 1.410 . S
C579 C587 1.503 . S
C580 C579 1.410 . S
C580 C581 1.392 . S
C580 C583 1.511 . S
C581 C577 1.376 . S
C581 C580 1.392 . S
C581 H593 0.929 . S
C582 C578 1.531 . S
C582 H594 0.960 . S
C582 H595 0.962 . S
C582 H596 0.960 . S
C583 C580 1.511 . S
C583 H597 0.961 . S
C583 H598 0.961 . S
C583 H599 0.961 . S
C584 C585 1.370 . S
C584 C586 1.363 . S
C584 H600 0.931 . S
C585 C584 1.370 . S
C585 C589 1.408 . S
C586 C584 1.363 . S
C586 C587 1.370 . S
C586 C590 1.524 . S
C587 C579 1.503 . S
C587 C586 1.370 . S
C587 C588 1.403 . S
C588 C587 1.403 . S
C588 C589 1.404 . S
C588 C591 1.539 . S
C589 C585 1.408 . S
C589 C588 1.404 . S
C589 H601 0.930 . S
C590 C586 1.524 . S
C590 H602 0.956 . S
C590 H603 0.961 . S
C590 H604 0.961 . S
C591 C588 1.539 . S
C591 H605 0.958 . S
C591 H606 0.961 . S
C591 H607 0.960 . S
H592 C576 0.931 . S
H593 C581 0.929 . S
H594 C582 0.960 . S
H595 C582 0.962 . S
H596 C582 0.960 . S
H597 C583 0.961 . S
H598 C583 0.961 . S
H599 C583 0.961 . S
H600 C584 0.931 . S
H601 C589 0.930 . S
H602 C590 0.956 . S
H603 C590 0.961 . S
H604 C590 0.961 . S
H605 C591 0.958 . S
H606 C591 0.961 . S
H607 C591 0.960 . S
C608 C609 1.391 . S
C608 C610 1.394 . S
C608 H624 0.931 . S
C609 C608 1.391 . S
C609 C613 1.376 . S
C610 C608 1.394 . S
C610 C611 1.369 . S
C610 C614 1.531 . S
C611 C610 1.369 . S
C611 C612 1.410 . S
C611 C619 1.503 . S
C612 C611 1.410 . S
C612 C613 1.392 . S
C612 C615 1.511 . S
C613 C609 1.376 . S
C613 C612 1.392 . S
C613 H625 0.929 . S
C614 C610 1.531 . S
C614 H626 0.960 . S
C614 H627 0.962 . S
C614 H628 0.960 . S
C615 C612 1.511 . S
C615 H629 0.961 . S
C615 H630 0.961 . S
C615 H631 0.961 . S
C616 C617 1.370 . S
C616 C618 1.363 . S
C616 H632 0.938 . S
C617 C616 1.370 . S
C617 C621 1.408 . S
C618 C616 1.363 . S
C618 C619 1.370 . S
C618 C622 1.524 1_556 S
C619 C611 1.503 . S
C619 C618 1.370 . S
C619 C620 1.403 . S
C620 C619 1.403 . S
C620 C621 1.404 . S
C620 C623 1.539 . S
C621 C617 1.408 . S
C621 C620 1.404 . S
C621 H633 0.930 . S
C622 C618 1.524 1_554 S
C622 H634 0.956 . S
C622 H635 0.961 . S
C622 H636 0.961 . S
C623 C620 1.539 . S
C623 H637 0.958 . S
C623 H638 0.961 . S
C623 H639 0.960 . S
H624 C608 0.931 . S
H625 C613 0.929 . S
H626 C614 0.960 . S
H627 C614 0.962 . S
H628 C614 0.960 . S
H629 C615 0.961 . S
H630 C615 0.961 . S
H631 C615 0.961 . S
H632 C616 0.938 . S
H633 C621 0.930 . S
H634 C622 0.956 . S
H635 C622 0.961 . S
H636 C622 0.961 . S
H637 C623 0.958 . S
H638 C623 0.961 . S
H639 C623 0.960 . S
C640 C641 1.391 . S
C640 C642 1.394 . S
C640 H656 0.931 . S
C641 C640 1.391 . S
C641 C645 1.376 1_655 S
C642 C640 1.394 . S
C642 C643 1.369 1_655 S
C642 C646 1.531 . S
C643 C642 1.369 1_455 S
C643 C644 1.410 . S
C643 C651 1.504 . S
C644 C643 1.410 . S
C644 C645 1.392 . S
C644 C647 1.511 1_554 S
C645 C641 1.376 1_455 S
C645 C644 1.392 . S
C645 H657 0.929 . S
C646 C642 1.531 . S
C646 H658 0.960 . S
C646 H659 0.962 . S
C646 H660 0.960 . S
C647 C644 1.511 1_556 S
C647 H661 0.961 . S
C647 H662 0.961 . S
C647 H663 0.961 1_556 S
C648 C649 1.370 . S
C648 C650 1.363 . S
C648 H664 0.931 . S
C649 C648 1.370 . S
C649 C653 1.408 1_556 S
C650 C648 1.363 . S
C650 C651 1.364 1_556 S
C650 C654 1.524 1_455 S
C651 C643 1.504 . S
C651 C650 1.364 1_554 S
C651 C652 1.409 . S
C652 C651 1.409 . S
C652 C653 1.404 . S
C652 C655 1.539 . S
C653 C649 1.408 1_554 S
C653 C652 1.404 . S
C653 H665 0.930 . S
C654 C650 1.524 1_655 S
C654 H666 0.956 . S
C654 H667 0.961 1_655 S
C654 H668 0.961 . S
C655 C652 1.539 . S
C655 H669 0.958 . S
C655 H670 0.961 . S
C655 H671 0.960 . S
H656 C640 0.931 . S
H657 C645 0.929 . S
H658 C646 0.960 . S
H659 C646 0.962 . S
H660 C646 0.960 . S
H661 C647 0.961 . S
H662 C647 0.961 . S
H663 C647 0.961 1_554 S
H664 C648 0.931 . S
H665 C653 0.930 . S
H666 C654 0.956 . S
H667 C654 0.961 1_455 S
H668 C654 0.961 . S
H669 C655 0.958 . S
H670 C655 0.961 . S
H671 C655 0.960 . S
C672 C673 1.390 . S
C672 C674 1.394 . S
C672 H688 0.931 . S
C673 C672 1.390 . S
C673 C677 1.376 1_556 S
C674 C672 1.394 . S
C674 C675 1.369 . S
C674 C678 1.530 . S
C675 C674 1.369 . S
C675 C676 1.410 1_556 S
C675 C683 1.503 . S
C676 C675 1.410 1_554 S
C676 C677 1.392 . S
C676 C679 1.511 . S
C677 C673 1.376 1_554 S
C677 C676 1.392 . S
C677 H689 0.929 . S
C678 C674 1.530 . S
C678 H690 0.958 1_565 S
C678 H691 0.962 1_565 S
C678 H692 0.961 1_565 S
C679 C676 1.511 . S
C679 H693 0.961 . S
C679 H694 0.961 . S
C679 H695 0.961 . S
C680 C681 1.370 . S
C680 C682 1.363 1_546 S
C680 H696 0.931 1_556 S
C681 C680 1.370 . S
C681 C685 1.408 1_545 S
C682 C680 1.363 1_564 S
C682 C683 1.361 1_554 S
C682 C686 1.528 1_565 S
C683 C675 1.503 . S
C683 C682 1.361 1_556 S
C683 C684 1.403 . S
C684 C683 1.403 . S
C684 C685 1.404 . S
C684 C687 1.539 . S
C685 C681 1.408 1_565 S
C685 C684 1.404 . S
C685 H697 0.930 . S
C686 C682 1.528 1_545 S
C686 H698 0.964 . S
C686 H699 0.933 1_545 S
C686 H700 0.989 . S
C687 C684 1.539 . S
C687 H701 0.958 . S
C687 H702 0.961 . S
C687 H703 0.960 . S
H688 C672 0.931 . S
H689 C677 0.929 . S
H690 C678 0.958 1_545 S
H691 C678 0.962 1_545 S
H692 C678 0.961 1_545 S
H693 C679 0.961 . S
H694 C679 0.961 . S
H695 C679 0.961 . S
H696 C680 0.931 1_554 S
H697 C685 0.930 . S
H698 C686 0.964 . S
H699 C686 0.933 1_565 S
H700 C686 0.989 . S
H701 C687 0.958 . S
H702 C687 0.961 . S
H703 C687 0.960 . S
C704 C705 1.391 . S
C704 C706 1.394 . S
C704 H720 0.931 . S
C705 C704 1.391 . S
C705 C709 1.376 . S
C706 C704 1.394 . S
C706 C707 1.369 . S
C706 C710 1.531 . S
C707 C706 1.369 . S
C707 C708 1.410 . S
C707 C715 1.503 . S
C708 C707 1.410 . S
C708 C709 1.392 . S
C708 C711 1.511 . S
C709 C705 1.376 . S
C709 C708 1.392 . S
C709 H721 0.929 . S
C710 C706 1.531 . S
C710 H722 0.960 . S
C710 H723 0.962 . S
C710 H724 0.960 . S
C711 C708 1.511 . S
C711 H725 0.961 . S
C711 H726 0.961 . S
C711 H727 0.961 . S
C712 C713 1.370 . S
C712 C714 1.363 . S
C712 H728 0.931 . S
C713 C712 1.370 . S
C713 C717 1.408 . S
C714 C712 1.363 . S
C714 C715 1.370 . S
C714 C718 1.524 . S
C715 C707 1.503 . S
C715 C714 1.370 . S
C715 C716 1.403 . S
C716 C715 1.403 . S
C716 C717 1.404 . S
C716 C719 1.539 . S
C717 C713 1.408 . S
C717 C716 1.404 . S
C717 H729 0.930 . S
C718 C714 1.524 . S
C718 H730 0.956 . S
C718 H731 0.961 . S
C718 H732 0.961 . S
C719 C716 1.539 . S
C719 H733 0.958 . S
C719 H734 0.961 . S
C719 H735 0.960 . S
H720 C704 0.931 . S
H721 C709 0.929 . S
H722 C710 0.960 . S
H723 C710 0.962 . S
H724 C710 0.960 . S
H725 C711 0.961 . S
H726 C711 0.961 . S
H727 C711 0.961 . S
H728 C712 0.931 . S
H729 C717 0.930 . S
H730 C718 0.956 . S
H731 C718 0.961 . S
H732 C718 0.961 . S
H733 C719 0.958 . S
H734 C719 0.961 . S
H735 C719 0.960 . S
C736 C737 1.391 . S
C736 C738 1.394 . S
C736 H752 0.931 . S
C737 C736 1.391 . S
C737 C741 1.376 . S
C738 C736 1.394 . S
C738 C739 1.369 . S
C738 C742 1.531 . S
C739 C738 1.369 . S
C739 C740 1.410 . S
C739 C747 1.503 . S
C740 C739 1.410 . S
C740 C741 1.392 . S
C740 C743 1.511 . S
C741 C737 1.376 . S
C741 C740 1.392 . S
C741 H753 0.929 . S
C742 C738 1.531 . S
C742 H754 0.960 . S
C742 H755 0.962 . S
C742 H756 0.960 . S
C743 C740 1.511 . S
C743 H757 0.961 . S
C743 H758 0.961 . S
C743 H759 0.961 . S
C744 C745 1.370 . S
C744 C746 1.363 . S
C744 H760 0.931 1_556 S
C745 C744 1.370 . S
C745 C749 1.408 . S
C746 C744 1.363 . S
C746 C747 1.370 . S
C746 C750 1.524 1_556 S
C747 C739 1.503 . S
C747 C746 1.370 . S
C747 C748 1.403 . S
C748 C747 1.403 . S
C748 C749 1.404 . S
C748 C751 1.539 . S
C749 C745 1.408 . S
C749 C748 1.404 . S
C749 H761 0.930 . S
C750 C746 1.524 1_554 S
C750 H762 0.956 . S
C750 H763 0.961 . S
C750 H764 0.961 . S
C751 C748 1.539 . S
C751 H765 0.958 . S
C751 H766 0.961 . S
C751 H767 0.960 . S
H752 C736 0.931 . S
H753 C741 0.929 . S
H754 C742 0.960 . S
H755 C742 0.962 . S
H756 C742 0.960 . S
H757 C743 0.961 . S
H758 C743 0.961 . S
H759 C743 0.961 . S
H760 C744 0.931 1_554 S
H761 C749 0.930 . S
H762 C750 0.956 . S
H763 C750 0.961 . S
H764 C750 0.961 . S
H765 C751 0.958 . S
H766 C751 0.961 . S
H767 C751 0.960 . S
C768 C769 1.391 . S
C768 C770 1.394 . S
C768 H784 0.931 . S
C769 C768 1.391 . S
C769 C773 1.376 . S
C770 C768 1.394 . S
C770 C771 1.369 . S
C770 C774 1.531 . S
C771 C770 1.369 . S
C771 C772 1.410 . S
C771 C779 1.503 . S
C772 C771 1.410 . S
C772 C773 1.392 . S
C772 C775 1.511 . S
C773 C769 1.376 . S
C773 C772 1.392 . S
C773 H785 0.929 . S
C774 C770 1.531 . S
C774 H786 0.960 . S
C774 H787 0.962 . S
C774 H788 0.960 1_455 S
C775 C772 1.511 . S
C775 H789 0.961 . S
C775 H790 0.961 . S
C775 H791 0.961 . S
C776 C777 1.370 . S
C776 C778 1.363 . S
C776 H792 0.931 . S
C777 C776 1.370 . S
C777 C781 1.408 . S
C778 C776 1.363 . S
C778 C779 1.370 . S
C778 C782 1.524 . S
C779 C771 1.503 . S
C779 C778 1.370 . S
C779 C780 1.403 . S
C780 C779 1.403 . S
C780 C781 1.404 . S
C780 C783 1.539 . S
C781 C777 1.408 . S
C781 C780 1.404 . S
C781 H793 0.930 . S
C782 C778 1.524 . S
C782 H794 0.956 . S
C782 H795 0.961 . S
C782 H796 0.961 . S
C783 C780 1.539 . S
C783 H797 0.958 . S
C783 H798 0.961 . S
C783 H799 0.960 . S
H784 C768 0.931 . S
H785 C773 0.929 . S
H786 C774 0.960 . S
H787 C774 0.962 . S
H788 C774 0.960 1_655 S
H789 C775 0.961 . S
H790 C775 0.961 . S
H791 C775 0.961 . S
H792 C776 0.931 . S
H793 C781 0.930 . S
H794 C782 0.956 . S
H795 C782 0.961 . S
H796 C782 0.961 . S
H797 C783 0.958 . S
H798 C783 0.961 . S
H799 C783 0.960 . S
C800 C801 1.391 . S
C800 C802 1.394 . S
C800 H816 0.931 . S
C801 C800 1.391 . S
C801 C805 1.376 . S
C802 C800 1.394 . S
C802 C803 1.369 . S
C802 C806 1.531 . S
C803 C802 1.369 . S
C803 C804 1.410 . S
C803 C811 1.503 . S
C804 C803 1.410 . S
C804 C805 1.392 . S
C804 C807 1.511 . S
C805 C801 1.376 . S
C805 C804 1.392 . S
C805 H817 0.929 . S
C806 C802 1.531 . S
C806 H818 0.960 . S
C806 H819 0.962 . S
C806 H820 0.960 . S
C807 C804 1.511 . S
C807 H821 0.961 . S
C807 H822 0.961 . S
C807 H823 0.961 . S
C808 C809 1.370 . S
C808 C810 1.363 . S
C808 H824 0.931 . S
C809 C808 1.370 . S
C809 C813 1.408 . S
C810 C808 1.363 . S
C810 C811 1.370 . S
C810 C814 1.524 . S
C811 C803 1.503 . S
C811 C810 1.370 . S
C811 C812 1.403 . S
C812 C811 1.403 . S
C812 C813 1.404 . S
C812 C815 1.539 . S
C813 C809 1.408 . S
C813 C812 1.404 . S
C813 H825 0.930 . S
C814 C810 1.524 . S
C814 H826 0.956 . S
C814 H827 0.961 . S
C814 H828 0.961 . S
C815 C812 1.539 . S
C815 H829 0.958 . S
C815 H830 0.961 . S
C815 H831 0.960 . S
H816 C800 0.931 . S
H817 C805 0.929 . S
H818 C806 0.960 . S
H819 C806 0.962 . S
H820 C806 0.960 . S
H821 C807 0.961 . S
H822 C807 0.961 . S
H823 C807 0.961 . S
H824 C808 0.931 . S
H825 C813 0.930 . S
H826 C814 0.956 . S
H827 C814 0.961 . S
H828 C814 0.961 . S
H829 C815 0.958 . S
H830 C815 0.961 . S
H831 C815 0.960 . S
C832 C833 1.391 . S
C832 C834 1.394 . S
C832 H848 0.931 . S
C833 C832 1.391 . S
C833 C837 1.376 . S
C834 C832 1.394 . S
C834 C835 1.369 . S
C834 C838 1.531 . S
C835 C834 1.369 . S
C835 C836 1.410 . S
C835 C843 1.503 . S
C836 C835 1.410 . S
C836 C837 1.392 . S
C836 C839 1.511 . S
C837 C833 1.376 . S
C837 C836 1.392 . S
C837 H849 0.929 . S
C838 C834 1.531 . S
C838 H850 0.960 1_554 S
C838 H851 0.962 . S
C838 H852 0.960 1_554 S
C839 C836 1.511 . S
C839 H853 0.961 . S
C839 H854 0.961 . S
C839 H855 0.961 . S
C840 C841 1.370 . S
C840 C842 1.363 . S
C840 H856 0.931 . S
C841 C840 1.370 . S
C841 C845 1.408 . S
C842 C840 1.363 . S
C842 C843 1.370 . S
C842 C846 1.524 . S
C843 C835 1.503 . S
C843 C842 1.370 . S
C843 C844 1.403 . S
C844 C843 1.403 . S
C844 C845 1.404 . S
C844 C847 1.539 . S
C845 C841 1.408 . S
C845 C844 1.404 . S
C845 H857 0.930 1_554 S
C846 C842 1.524 . S
C846 H858 0.956 . S
C846 H859 0.961 . S
C846 H860 0.961 . S
C847 C844 1.539 . S
C847 H861 0.958 1_554 S
C847 H862 0.961 1_554 S
C847 H863 0.960 . S
H848 C832 0.931 . S
H849 C837 0.929 . S
H850 C838 0.960 1_556 S
H851 C838 0.962 . S
H852 C838 0.960 1_556 S
H853 C839 0.961 . S
H854 C839 0.961 . S
H855 C839 0.961 . S
H856 C840 0.931 . S
H857 C845 0.930 1_556 S
H858 C846 0.956 . S
H859 C846 0.961 . S
H860 C846 0.961 . S
H861 C847 0.958 1_556 S
H862 C847 0.961 1_556 S
H863 C847 0.960 . S
C864 C865 1.391 . S
C864 C866 1.394 . S
C864 H880 0.931 . S
C865 C864 1.391 . S
C865 C869 1.376 . S
C866 C864 1.394 . S
C866 C867 1.369 . S
C866 C870 1.531 . S
C867 C866 1.369 . S
C867 C868 1.410 . S
C867 C875 1.503 . S
C868 C867 1.410 . S
C868 C869 1.392 . S
C868 C871 1.511 . S
C869 C865 1.376 . S
C869 C868 1.392 . S
C869 H881 0.929 . S
C870 C866 1.531 . S
C870 H882 0.960 . S
C870 H883 0.962 . S
C870 H884 0.960 . S
C871 C868 1.511 . S
C871 H885 0.961 . S
C871 H886 0.961 . S
C871 H887 0.961 . S
C872 C873 1.370 . S
C872 C874 1.363 . S
C872 H888 0.931 . S
C873 C872 1.370 . S
C873 C877 1.408 . S
C874 C872 1.363 . S
C874 C875 1.370 . S
C874 C878 1.524 . S
C875 C867 1.503 . S
C875 C874 1.370 . S
C875 C876 1.403 . S
C876 C875 1.403 . S
C876 C877 1.404 . S
C876 C879 1.539 . S
C877 C873 1.408 . S
C877 C876 1.404 . S
C877 H889 0.930 . S
C878 C874 1.524 . S
C878 H890 0.956 . S
C878 H891 0.961 . S
C878 H892 0.961 . S
C879 C876 1.539 . S
C879 H893 0.958 . S
C879 H894 0.961 . S
C879 H895 0.960 . S
H880 C864 0.931 . S
H881 C869 0.929 . S
H882 C870 0.960 . S
H883 C870 0.962 . S
H884 C870 0.960 . S
H885 C871 0.961 . S
H886 C871 0.961 . S
H887 C871 0.961 . S
H888 C872 0.931 . S
H889 C877 0.930 . S
H890 C878 0.956 . S
H891 C878 0.961 . S
H892 C878 0.961 . S
H893 C879 0.958 . S
H894 C879 0.961 . S
H895 C879 0.960 . S
C896 C897 1.391 1_455 S
C896 C898 1.394 . S
C896 H912 0.931 . S
C897 C896 1.391 1_655 S
C897 C901 1.376 . S
C898 C896 1.394 . S
C898 C899 1.395 . S
C898 C902 1.531 . S
C899 C898 1.395 . S
C899 C900 1.385 1_455 S
C899 C907 1.501 . S
C900 C899 1.385 1_655 S
C900 C901 1.392 . S
C900 C903 1.511 . S
C901 C897 1.376 . S
C901 C900 1.392 . S
C901 H913 0.929 . S
C902 C898 1.531 . S
C902 H914 0.960 . S
C902 H915 0.962 . S
C902 H916 0.960 . S
C903 C900 1.511 . S
C903 H917 0.961 . S
C903 H918 0.961 . S
C903 H919 0.961 . S
C904 C905 1.370 1_655 S
C904 C906 1.363 . S
C904 H920 0.931 . S
C905 C904 1.370 1_455 S
C905 C909 1.408 . S
C906 C904 1.363 . S
C906 C907 1.370 1_655 S
C906 C910 1.524 . S
C907 C899 1.501 . S
C907 C906 1.370 1_455 S
C907 C908 1.403 . S
C908 C907 1.403 . S
C908 C909 1.404 . S
C908 C911 1.539 . S
C909 C905 1.408 . S
C909 C908 1.404 . S
C909 H921 0.930 . S
C910 C906 1.524 . S
C910 H922 0.956 1_655 S
C910 H923 0.961 . S
C910 H924 0.961 . S
C911 C908 1.539 . S
C911 H925 0.958 . S
C911 H926 0.961 . S
C911 H927 0.960 . S
H912 C896 0.931 . S
H913 C901 0.929 . S
H914 C902 0.960 . S
H915 C902 0.962 . S
H916 C902 0.960 . S
H917 C903 0.961 . S
H918 C903 0.961 . S
H919 C903 0.961 . S
H920 C904 0.931 . S
H921 C909 0.930 . S
H922 C910 0.956 1_455 S
H923 C910 0.961 . S
H924 C910 0.961 . S
H925 C911 0.958 . S
H926 C911 0.961 . S
H927 C911 0.960 . S
C928 C929 1.391 . S
C928 C930 1.394 . S
C928 H944 0.931 . S
C929 C928 1.391 . S
C929 C933 1.376 . S
C930 C928 1.394 . S
C930 C931 1.369 . S
C930 C934 1.531 . S
C931 C930 1.369 . S
C931 C932 1.410 . S
C931 C939 1.503 . S
C932 C931 1.410 . S
C932 C933 1.392 . S
C932 C935 1.511 . S
C933 C929 1.376 . S
C933 C932 1.392 . S
C933 H945 0.929 . S
C934 C930 1.531 . S
C934 H946 0.960 . S
C934 H947 0.962 . S
C934 H948 0.960 . S
C935 C932 1.511 . S
C935 H949 0.961 . S
C935 H950 0.961 . S
C935 H951 0.961 . S
C936 C937 1.370 . S
C936 C938 1.363 . S
C936 H952 0.931 . S
C937 C936 1.370 . S
C937 C941 1.408 . S
C938 C936 1.363 . S
C938 C939 1.370 . S
C938 C942 1.524 . S
C939 C931 1.503 . S
C939 C938 1.370 . S
C939 C940 1.403 . S
C940 C939 1.403 . S
C940 C941 1.404 . S
C940 C943 1.539 . S
C941 C937 1.408 . S
C941 C940 1.404 . S
C941 H953 0.930 . S
C942 C938 1.524 . S
C942 H954 0.956 . S
C942 H955 0.961 . S
C942 H956 0.961 . S
C943 C940 1.539 . S
C943 H957 0.958 . S
C943 H958 0.961 . S
C943 H959 0.960 . S
H944 C928 0.931 . S
H945 C933 0.929 . S
H946 C934 0.960 . S
H947 C934 0.962 . S
H948 C934 0.960 . S
H949 C935 0.961 . S
H950 C935 0.961 . S
H951 C935 0.961 . S
H952 C936 0.931 . S
H953 C941 0.930 . S
H954 C942 0.956 . S
H955 C942 0.961 . S
H956 C942 0.961 . S
H957 C943 0.958 . S
H958 C943 0.961 . S
H959 C943 0.960 . S
C960 C961 1.391 . S
C960 C962 1.394 . S
C960 H976 0.931 . S
C961 C960 1.391 . S
C961 C965 1.376 . S
C962 C960 1.394 . S
C962 C963 1.369 . S
C962 C966 1.531 . S
C963 C962 1.369 . S
C963 C964 1.410 . S
C963 C971 1.503 . S
C964 C963 1.410 . S
C964 C965 1.392 . S
C964 C967 1.511 . S
C965 C961 1.376 . S
C965 C964 1.392 . S
C965 H977 0.929 . S
C966 C962 1.531 . S
C966 H978 0.960 . S
C966 H979 0.962 . S
C966 H980 0.960 . S
C967 C964 1.511 . S
C967 H981 0.961 . S
C967 H982 0.961 . S
C967 H983 0.961 . S
C968 C969 1.370 . S
C968 C970 1.363 . S
C968 H984 0.931 . S
C969 C968 1.370 . S
C969 C973 1.408 . S
C970 C968 1.363 . S
C970 C971 1.370 . S
C970 C974 1.524 . S
C971 C963 1.503 . S
C971 C970 1.370 . S
C971 C972 1.403 . S
C972 C971 1.403 . S
C972 C973 1.404 . S
C972 C975 1.539 . S
C973 C969 1.408 . S
C973 C972 1.404 . S
C973 H985 0.930 . S
C974 C970 1.524 . S
C974 H986 0.956 . S
C974 H987 0.961 . S
C974 H988 0.961 . S
C975 C972 1.539 . S
C975 H989 0.958 . S
C975 H990 0.961 . S
C975 H991 0.960 . S
H976 C960 0.931 . S
H977 C965 0.929 . S
H978 C966 0.960 . S
H979 C966 0.962 . S
H980 C966 0.960 . S
H981 C967 0.961 . S
H982 C967 0.961 . S
H983 C967 0.961 . S
H984 C968 0.931 . S
H985 C973 0.930 . S
H986 C974 0.956 . S
H987 C974 0.961 . S
H988 C974 0.961 . S
H989 C975 0.958 . S
H990 C975 0.961 . S
H991 C975 0.960 . S
C992 C993 1.391 . S
C992 C994 1.394 . S
C992 H1008 0.931 . S
C993 C992 1.391 . S
C993 C997 1.376 . S
C994 C992 1.394 . S
C994 C995 1.369 . S
C994 C998 1.531 . S
C995 C994 1.369 . S
C995 C996 1.410 . S
C995 C1003 1.503 . S
C996 C995 1.410 . S
C996 C997 1.392 . S
C996 C999 1.511 . S
C997 C993 1.376 . S
C997 C996 1.392 . S
C997 H1009 0.929 . S
C998 C994 1.531 . S
C998 H1010 0.960 . S
C998 H1011 0.962 . S
C998 H1012 0.960 . S
C999 C996 1.511 . S
C999 H1013 0.961 . S
C999 H1014 0.961 . S
C999 H1015 0.961 . S
C1000 C1001 1.370 . S
C1000 C1002 1.363 . S
C1000 H1016 0.931 . S
C1001 C1000 1.370 . S
C1001 C1005 1.408 . S
C1002 C1000 1.363 . S
C1002 C1003 1.370 . S
C1002 C1006 1.524 . S
C1003 C995 1.503 . S
C1003 C1002 1.370 . S
C1003 C1004 1.403 . S
C1004 C1003 1.403 . S
C1004 C1005 1.404 . S
C1004 C1007 1.539 . S
C1005 C1001 1.408 . S
C1005 C1004 1.404 . S
C1005 H1017 0.930 . S
C1006 C1002 1.524 . S
C1006 H1018 0.956 . S
C1006 H1019 0.961 . S
C1006 H1020 0.961 . S
C1007 C1004 1.539 . S
C1007 H1021 0.958 . S
C1007 H1022 0.961 . S
C1007 H1023 0.960 . S
H1008 C992 0.931 . S
H1009 C997 0.929 . S
H1010 C998 0.960 . S
H1011 C998 0.962 . S
H1012 C998 0.960 . S
H1013 C999 0.961 . S
H1014 C999 0.961 . S
H1015 C999 0.961 . S
H1016 C1000 0.931 . S
H1017 C1005 0.930 . S
H1018 C1006 0.956 . S
H1019 C1006 0.961 . S
H1020 C1006 0.961 . S
H1021 C1007 0.958 . S
H1022 C1007 0.961 . S
H1023 C1007 0.960 . S
C257 C76 1.671 . S
C265 C105 1.651 . S
C297 C145 1.318 . S
C289 C88 1.280 . S
C329 C194 1.323 . S
C321 C52 1.363 . S
C361 C225 1.660 . S
C353 C64 1.727 . S
C393 C114 1.651 1_565 S
C385 C28 1.691 . S
C417 C40 1.306 . S
C425 C154 1.308 . S
C449 C4 1.364 . S
C457 C185 1.327 . S
C481 C16 1.722 . S
C489 C234 1.670 . S
C521 C115 0.937 . S
C513 C69 0.941 . S
C553 C155 1.477 . S
C545 C81 1.372 . S
C585 C191 0.773 . S
C577 C93 0.789 . S
C609 C57 0.965 . S
C617 C235 1.129 . S
C641 C21 0.811 . S
C649 C106 0.938 . S
C681 C146 1.476 . S
C673 C33 1.369 1_556 S
C713 C182 0.775 . S
C705 C45 0.782 . S
C737 C9 1.093 . S
C745 C226 1.127 . S
C769 C66 1.646 . S
C777 C111 1.665 . S
C801 C78 1.436 . S
C809 C151 1.421 . S
C841 C195 1.940 1_554 S
C833 C90 1.801 . S
C873 C231 1.421 . S
C865 C54 1.404 . S
C897 C18 1.599 . S
C905 C102 1.662 . S
C937 C142 1.421 . S
C929 C30 1.401 . S
C969 C186 1.940 . S
C961 C42 1.801 . S
C993 C6 1.435 . S
C1001 C222 1.432 . S
