# Generated by pormake.
# Topology ptr, (4,4)-cn, num edge types: 1
# Building blocks:
#     Node 0, Type 0, BuildingBlock: UXUYUI_clean_sbu_0, # of connection points: 4
#     Node 1, Type 0, BuildingBlock: UXUYUI_clean_sbu_0, # of connection points: 4
#     Node 2, Type 0, BuildingBlock: UXUYUI_clean_sbu_0, # of connection points: 4
#     Node 3, Type 0, BuildingBlock: UXUYUI_clean_sbu_0, # of connection points: 4
#     Node 4, Type 0, BuildingBlock: UXUYUI_clean_sbu_0, # of connection points: 4
#     Node 5, Type 0, BuildingBlock: UXUYUI_clean_sbu_0, # of connection points: 4
#     Node 6, Type 0, BuildingBlock: UXUYUI_clean_sbu_0, # of connection points: 4
#     Node 7, Type 0, BuildingBlock: UXUYUI_clean_sbu_0, # of connection points: 4
#     Node 8, Type 0, BuildingBlock: UXUYUI_clean_sbu_0, # of connection points: 4
#     Node 9, Type 0, BuildingBlock: UXUYUI_clean_sbu_0, # of connection points: 4
#     Node 10, Type 0, BuildingBlock: UXUYUI_clean_sbu_0, # of connection points: 4
#     Node 11, Type 0, BuildingBlock: UXUYUI_clean_sbu_0, # of connection points: 4
#     Node 12, Type 0, BuildingBlock: UXUYUI_clean_sbu_0, # of connection points: 4
#     Node 13, Type 0, BuildingBlock: UXUYUI_clean_sbu_0, # of connection points: 4
#     Node 14, Type 0, BuildingBlock: UXUYUI_clean_sbu_0, # of connection points: 4
#     Node 15, Type 0, BuildingBlock: UXUYUI_clean_sbu_0, # of connection points: 4
#     Node 16, Type 0, BuildingBlock: UXUYUI_clean_sbu_0, # of connection points: 4
#     Node 17, Type 0, BuildingBlock: UXUYUI_clean_sbu_0, # of connection points: 4
#     Node 18, Type 1, BuildingBlock: MIFKUJ_clean_linker_1, # of connection points: 4
#     Node 19, Type 1, BuildingBlock: MIFKUJ_clean_linker_1, # of connection points: 4
#     Node 20, Type 1, BuildingBlock: MIFKUJ_clean_linker_1, # of connection points: 4
#     Node 21, Type 1, BuildingBlock: MIFKUJ_clean_linker_1, # of connection points: 4
#     Node 22, Type 1, BuildingBlock: MIFKUJ_clean_linker_1, # of connection points: 4
#     Node 23, Type 1, BuildingBlock: MIFKUJ_clean_linker_1, # of connection points: 4
#     Node 24, Type 1, BuildingBlock: MIFKUJ_clean_linker_1, # of connection points: 4
#     Node 25, Type 1, BuildingBlock: MIFKUJ_clean_linker_1, # of connection points: 4
#     Node 26, Type 1, BuildingBlock: MIFKUJ_clean_linker_1, # of connection points: 4
#     Node 27, Type 1, BuildingBlock: MIFKUJ_clean_linker_1, # of connection points: 4
#     Node 28, Type 1, BuildingBlock: MIFKUJ_clean_linker_1, # of connection points: 4
#     Node 29, Type 1, BuildingBlock: MIFKUJ_clean_linker_1, # of connection points: 4
#     Node 30, Type 1, BuildingBlock: MIFKUJ_clean_linker_1, # of connection points: 4
#     Node 31, Type 1, BuildingBlock: MIFKUJ_clean_linker_1, # of connection points: 4
#     Node 32, Type 1, BuildingBlock: MIFKUJ_clean_linker_1, # of connection points: 4
#     Node 33, Type 1, BuildingBlock: MIFKUJ_clean_linker_1, # of connection points: 4
#     Node 34, Type 1, BuildingBlock: MIFKUJ_clean_linker_1, # of connection points: 4
#     Node 35, Type 1, BuildingBlock: MIFKUJ_clean_linker_1, # of connection points: 4
#     Edge 36, Type (0, 1), BuildingBlock: UVAHIK_clean_linker_0, # of connection points: 2
#     Edge 37, Type (0, 1), BuildingBlock: UVAHIK_clean_linker_0, # of connection points: 2
#     Edge 38, Type (0, 1), BuildingBlock: UVAHIK_clean_linker_0, # of connection points: 2
#     Edge 39, Type (0, 1), BuildingBlock: UVAHIK_clean_linker_0, # of connection points: 2
#     Edge 40, Type (0, 1), BuildingBlock: UVAHIK_clean_linker_0, # of connection points: 2
#     Edge 41, Type (0, 1), BuildingBlock: UVAHIK_clean_linker_0, # of connection points: 2
#     Edge 42, Type (0, 1), BuildingBlock: UVAHIK_clean_linker_0, # of connection points: 2
#     Edge 43, Type (0, 1), BuildingBlock: UVAHIK_clean_linker_0, # of connection points: 2
#     Edge 44, Type (0, 1), BuildingBlock: UVAHIK_clean_linker_0, # of connection points: 2
#     Edge 45, Type (0, 1), BuildingBlock: UVAHIK_clean_linker_0, # of connection points: 2
#     Edge 46, Type (0, 1), BuildingBlock: UVAHIK_clean_linker_0, # of connection points: 2
#     Edge 47, Type (0, 1), BuildingBlock: UVAHIK_clean_linker_0, # of connection points: 2
#     Edge 48, Type (0, 1), BuildingBlock: UVAHIK_clean_linker_0, # of connection points: 2
#     Edge 49, Type (0, 1), BuildingBlock: UVAHIK_clean_linker_0, # of connection points: 2
#     Edge 50, Type (0, 1), BuildingBlock: UVAHIK_clean_linker_0, # of connection points: 2
#     Edge 51, Type (0, 1), BuildingBlock: UVAHIK_clean_linker_0, # of connection points: 2
#     Edge 52, Type (0, 1), BuildingBlock: UVAHIK_clean_linker_0, # of connection points: 2
#     Edge 53, Type (0, 1), BuildingBlock: UVAHIK_clean_linker_0, # of connection points: 2
#     Edge 54, Type (0, 1), BuildingBlock: UVAHIK_clean_linker_0, # of connection points: 2
#     Edge 55, Type (0, 1), BuildingBlock: UVAHIK_clean_linker_0, # of connection points: 2
#     Edge 56, Type (0, 1), BuildingBlock: UVAHIK_clean_linker_0, # of connection points: 2
#     Edge 57, Type (0, 1), BuildingBlock: UVAHIK_clean_linker_0, # of connection points: 2
#     Edge 58, Type (0, 1), BuildingBlock: UVAHIK_clean_linker_0, # of connection points: 2
#     Edge 59, Type (0, 1), BuildingBlock: UVAHIK_clean_linker_0, # of connection points: 2
#     Edge 60, Type (0, 1), BuildingBlock: UVAHIK_clean_linker_0, # of connection points: 2
#     Edge 61, Type (0, 1), BuildingBlock: UVAHIK_clean_linker_0, # of connection points: 2
#     Edge 62, Type (0, 1), BuildingBlock: UVAHIK_clean_linker_0, # of connection points: 2
#     Edge 63, Type (0, 1), BuildingBlock: UVAHIK_clean_linker_0, # of connection points: 2
#     Edge 64, Type (0, 1), BuildingBlock: UVAHIK_clean_linker_0, # of connection points: 2
#     Edge 65, Type (0, 1), BuildingBlock: UVAHIK_clean_linker_0, # of connection points: 2
#     Edge 66, Type (0, 1), BuildingBlock: UVAHIK_clean_linker_0, # of connection points: 2
#     Edge 67, Type (0, 1), BuildingBlock: UVAHIK_clean_linker_0, # of connection points: 2
#     Edge 68, Type (0, 1), BuildingBlock: UVAHIK_clean_linker_0, # of connection points: 2
#     Edge 69, Type (0, 1), BuildingBlock: UVAHIK_clean_linker_0, # of connection points: 2
#     Edge 70, Type (0, 1), BuildingBlock: UVAHIK_clean_linker_0, # of connection points: 2
#     Edge 71, Type (0, 1), BuildingBlock: UVAHIK_clean_linker_0, # of connection points: 2
#     Edge 72, Type (0, 1), BuildingBlock: UVAHIK_clean_linker_0, # of connection points: 2
#     Edge 73, Type (0, 1), BuildingBlock: UVAHIK_clean_linker_0, # of connection points: 2
#     Edge 74, Type (0, 1), BuildingBlock: UVAHIK_clean_linker_0, # of connection points: 2
#     Edge 75, Type (0, 1), BuildingBlock: UVAHIK_clean_linker_0, # of connection points: 2
#     Edge 76, Type (0, 1), BuildingBlock: UVAHIK_clean_linker_0, # of connection points: 2
#     Edge 77, Type (0, 1), BuildingBlock: UVAHIK_clean_linker_0, # of connection points: 2
#     Edge 78, Type (0, 1), BuildingBlock: UVAHIK_clean_linker_0, # of connection points: 2
#     Edge 79, Type (0, 1), BuildingBlock: UVAHIK_clean_linker_0, # of connection points: 2
#     Edge 80, Type (0, 1), BuildingBlock: UVAHIK_clean_linker_0, # of connection points: 2
#     Edge 81, Type (0, 1), BuildingBlock: UVAHIK_clean_linker_0, # of connection points: 2
#     Edge 82, Type (0, 1), BuildingBlock: UVAHIK_clean_linker_0, # of connection points: 2
#     Edge 83, Type (0, 1), BuildingBlock: UVAHIK_clean_linker_0, # of connection points: 2
#     Edge 84, Type (0, 1), BuildingBlock: UVAHIK_clean_linker_0, # of connection points: 2
#     Edge 85, Type (0, 1), BuildingBlock: UVAHIK_clean_linker_0, # of connection points: 2
#     Edge 86, Type (0, 1), BuildingBlock: UVAHIK_clean_linker_0, # of connection points: 2
#     Edge 87, Type (0, 1), BuildingBlock: UVAHIK_clean_linker_0, # of connection points: 2
#     Edge 88, Type (0, 1), BuildingBlock: UVAHIK_clean_linker_0, # of connection points: 2
#     Edge 89, Type (0, 1), BuildingBlock: UVAHIK_clean_linker_0, # of connection points: 2
#     Edge 90, Type (0, 1), BuildingBlock: UVAHIK_clean_linker_0, # of connection points: 2
#     Edge 91, Type (0, 1), BuildingBlock: UVAHIK_clean_linker_0, # of connection points: 2
#     Edge 92, Type (0, 1), BuildingBlock: UVAHIK_clean_linker_0, # of connection points: 2
#     Edge 93, Type (0, 1), BuildingBlock: UVAHIK_clean_linker_0, # of connection points: 2
#     Edge 94, Type (0, 1), BuildingBlock: UVAHIK_clean_linker_0, # of connection points: 2
#     Edge 95, Type (0, 1), BuildingBlock: UVAHIK_clean_linker_0, # of connection points: 2
#     Edge 96, Type (0, 1), BuildingBlock: UVAHIK_clean_linker_0, # of connection points: 2
#     Edge 97, Type (0, 1), BuildingBlock: UVAHIK_clean_linker_0, # of connection points: 2
#     Edge 98, Type (0, 1), BuildingBlock: UVAHIK_clean_linker_0, # of connection points: 2
#     Edge 99, Type (0, 1), BuildingBlock: UVAHIK_clean_linker_0, # of connection points: 2
#     Edge 100, Type (0, 1), BuildingBlock: UVAHIK_clean_linker_0, # of connection points: 2
#     Edge 101, Type (0, 1), BuildingBlock: UVAHIK_clean_linker_0, # of connection points: 2
#     Edge 102, Type (0, 1), BuildingBlock: UVAHIK_clean_linker_0, # of connection points: 2
#     Edge 103, Type (0, 1), BuildingBlock: UVAHIK_clean_linker_0, # of connection points: 2
#     Edge 104, Type (0, 1), BuildingBlock: UVAHIK_clean_linker_0, # of connection points: 2
#     Edge 105, Type (0, 1), BuildingBlock: UVAHIK_clean_linker_0, # of connection points: 2
#     Edge 106, Type (0, 1), BuildingBlock: UVAHIK_clean_linker_0, # of connection points: 2
#     Edge 107, Type (0, 1), BuildingBlock: UVAHIK_clean_linker_0, # of connection points: 2
# Relax obj value: 0.094
# Max RMSD: 0.272
# Mean RMSD: 0.119
data_MOF--net-ptr--node1-UXUYUI_clean_sbu_0--node2-MIFKUJ_clean_linker_1--edge1-UVAHIK_clean_linker_0
_symmetry_space_group_name_H-M    P1
_symmetry_Int_Tables_number       1
_symmetry_cell_setting            triclinic
loop_
_symmetry_equiv_pos_as_xyz
'x, y, z'
_cell_length_a     129.56109
_cell_length_b     129.55165
_cell_length_c     85.044364
_cell_angle_alpha  90.129188
_cell_angle_beta   89.892081
_cell_angle_gamma 120.12625
loop_
_atom_site_label
_atom_site_type_symbol
_atom_site_fract_x
_atom_site_fract_y
_atom_site_fract_z
_atom_type_partial_charge
Li0 Li 0.99057 0.3372 0.005 0.0
Li1 Li 0.01179 0.34743 0.01454 0.0
Li2 Li 0.99826 0.354 0.02294 0.0
Li3 Li 0.00541 0.35789 0.99651 0.0
C4 C 0.99229 0.33602 0.04142 0.0
N5 N 0.98346 0.33297 0.07168 0.0
C6 C 2e-05 0.33916 0.05425 0.0
C7 C 0.98007 0.33126 0.04396 0.0
C8 C 0.99538 0.33756 0.06947 0.0
C9 C 0.97578 0.3298 0.05935 0.0
C10 C 0.01434 0.34504 0.98173 0.0
C11 C 0.03467 0.35664 0.97267 0.0
N12 N 0.03179 0.34956 0.9597 0.0
C13 C 0.01157 0.3379 0.96831 0.0
C14 C 0.02597 0.3545 0.98395 0.0
C15 C 0.02052 0.34032 0.95731 0.0
C16 C 0.97378 0.32196 0.9831 0.0
N17 N 0.97808 0.32245 0.9978 0.0
C18 C 0.96638 0.30128 0.00037 0.0
C19 C 0.97449 0.31246 0.00656 0.0
C20 C 0.96206 0.30043 0.985 0.0
C21 C 0.9657 0.31098 0.97643 0.0
H22 H 0.97694 0.33009 0.9764 0.0
H23 H 0.97826 0.31314 0.01811 0.0
C24 C 0.0321 0.35138 0.03153 0.0
N25 N 0.02402 0.3444 0.02049 0.0
C26 C 0.04059 0.34861 0.03694 0.0
C27 C 0.03238 0.33167 0.01927 0.0
C28 C 0.02404 0.33476 0.01424 0.0
C29 C 0.04071 0.33854 0.03092 0.0
H30 H 0.03174 0.35891 0.03642 0.0
H31 H 0.01742 0.32934 0.00554 0.0
C32 C 0.97916 0.35283 0.00414 0.0
N33 N 0.95952 0.35585 0.00505 0.0
C34 C 0.98038 0.36392 0.00055 0.0
C35 C 0.96791 0.34322 0.00788 0.0
C36 C 0.97035 0.36528 0.00117 0.0
C37 C 0.9581 0.34494 0.00836 0.0
C38 C 0.02063 0.37606 0.01707 0.0
C39 C 0.01396 0.38181 0.01658 0.0
C40 C 0.03303 0.38278 0.01856 0.0
C41 C 0.01983 0.39425 0.01756 0.0
C42 C 0.03858 0.39521 0.01948 0.0
N43 N 0.03192 0.40063 0.01897 0.0
C44 C 0.00417 0.36702 0.05086 0.0
C45 C 0.98415 0.36016 0.04343 0.0
C46 C 0.00311 0.37323 0.0636 0.0
N47 N 0.99486 0.36088 0.04087 0.0
C48 C 0.9827 0.36628 0.05602 0.0
C49 C 0.99235 0.37313 0.06612 0.0
H50 H 0.01252 0.36725 0.04878 0.0
H51 H 0.97676 0.35502 0.03566 0.0
C52 C -1e-05 0.36529 0.969 0.0
N53 N 0.00919 0.36825 0.97905 0.0
C54 C 0.00127 0.37278 0.9565 0.0
C55 C 0.02167 0.38604 0.96455 0.0
C56 C 0.02 0.37824 0.9769 0.0
C57 C 0.01214 0.38345 0.95435 0.0
H58 H 0.99155 0.35721 0.97091 0.0
H59 H 0.02723 0.3803 0.98493 0.0
O60 O 0.99669 0.33786 0.02645 0.0
O61 O 0.00563 0.34286 0.99251 0.0
O62 O 0.98883 0.35128 0.00342 0.0
O63 O 0.01512 0.3639 0.016 0.0
H64 H 0.00951 0.34291 0.05245 0.0
H65 H 0.97398 0.32882 0.03414 0.0
H66 H 0.00126 0.34001 0.07952 0.0
H67 H 0.96635 0.32619 0.0615 0.0
H68 H 0.0437 0.36393 0.97422 0.0
H69 H 0.00258 0.33057 0.96642 0.0
H70 H 0.02825 0.36017 0.99422 0.0
H71 H 0.01852 0.33487 0.94686 0.0
H72 H 0.96393 0.29337 0.00729 0.0
H73 H 0.96248 0.31071 0.96461 0.0
H74 H 0.04673 0.35405 0.04609 0.0
H75 H 0.03224 0.32393 0.01418 0.0
H76 H 0.98895 0.37137 0.99721 0.0
H77 H 0.96678 0.33454 0.01047 0.0
H78 H 0.97117 0.37382 0.9985 0.0
H79 H 0.94936 0.33761 0.01134 0.0
H80 H 0.00437 0.37673 0.01553 0.0
H81 H 0.03832 0.37844 0.0189 0.0
H82 H 0.01478 0.39882 0.01722 0.0
H83 H 0.04818 0.40053 0.02059 0.0
H84 H 0.0107 0.37814 0.07129 0.0
H85 H 0.97424 0.36595 0.05748 0.0
H86 H 0.99377 0.3703 0.94873 0.0
H87 H 0.03018 0.39418 0.96336 0.0
Li88 Li 0.6585 0.64718 0.00303 0.0
Li89 Li 0.64934 0.657 0.01513 0.0
Li90 Li 0.64308 0.63695 0.02239 0.0
Li91 Li 0.63794 0.64137 0.99639 0.0
C92 C 0.66588 0.64781 0.03381 0.0
N93 N 0.67984 0.64106 0.05044 0.0
C94 C 0.67248 0.6545 0.04677 0.0
C95 C 0.66638 0.63768 0.0293 0.0
C96 C 0.67949 0.65094 0.05502 0.0
C97 C 0.67349 0.63442 0.03786 0.0
C98 C 0.66189 0.66692 0.98636 0.0
C99 C 0.67187 0.6799 0.96439 0.0
N100 N 0.68105 0.68723 0.974 0.0
C101 C 0.67142 0.67456 0.99602 0.0
C102 C 0.66211 0.66958 0.97041 0.0
C103 C 0.68102 0.68479 0.98955 0.0
C104 C 0.67279 0.64373 0.98096 0.0
N105 N 0.67305 0.6496 0.99435 0.0
C106 C 0.69435 0.66052 0.99408 0.0
C107 C 0.68353 0.65777 0.00105 0.0
C108 C 0.69441 0.65478 0.98007 0.0
C109 C 0.68342 0.64617 0.97359 0.0
H110 H 0.6643 0.63733 0.97585 0.0
H111 H 0.6835 0.66244 0.01158 0.0
C112 C 0.65404 0.6733 0.0393 0.0
N113 N 0.6522 0.67181 0.02355 0.0
C114 C 0.65697 0.68417 0.04633 0.0
C115 C 0.65582 0.69169 0.02078 0.0
C116 C 0.65281 0.68063 0.01428 0.0
C117 C 0.6581 0.69363 0.037 0.0
H118 H 0.65337 0.66606 0.04638 0.0
H119 H 0.65119 0.67917 0.00179 0.0
C120 C 0.63602 0.61921 0.99893 0.0
N121 N 0.6185 0.59581 0.99364 0.0
C122 C 0.62446 0.61496 0.00469 0.0
C123 C 0.63866 0.61157 0.99045 0.0
C124 C 0.61574 0.6031 0.00189 0.0
C125 C 0.62968 0.59976 0.98792 0.0
C126 C 0.62701 0.65004 0.01982 0.0
C127 C 0.62248 0.65029 0.03465 0.0
C128 C 0.62616 0.65675 0.00757 0.0
C129 C 0.6172 0.6573 0.03699 0.0
C130 C 0.62081 0.66364 0.01037 0.0
N131 N 0.6165 0.66378 0.02491 0.0
C132 C 0.63424 0.6291 0.05263 0.0
C133 C 0.63787 0.61546 0.0385 0.0
C134 C 0.62977 0.62129 0.06537 0.0
N135 N 0.63788 0.62595 0.03941 0.0
C136 C 0.63352 0.60739 0.05098 0.0
C137 C 0.62921 0.61019 0.06454 0.0
H138 H 0.63478 0.63768 0.05325 0.0
H139 H 0.64114 0.61328 0.02804 0.0
C140 C 0.62954 0.63332 0.96579 0.0
N141 N 0.62629 0.63519 0.98024 0.0
C142 C 0.62096 0.62769 0.95404 0.0
C143 C 0.60595 0.62633 0.97219 0.0
C144 C 0.61477 0.63182 0.98362 0.0
C145 C 0.60894 0.62401 0.9572 0.0
H146 H 0.63875 0.63589 0.96357 0.0
H147 H 0.61237 0.63314 0.99532 0.0
O148 O 0.65896 0.65122 0.02573 0.0
O149 O 0.65245 0.65676 0.99233 0.0
O150 O 0.64471 0.63083 0.00128 0.0
O151 O 0.63248 0.64348 0.01733 0.0
H152 H 0.67219 0.66236 0.05041 0.0
H153 H 0.66138 0.63239 0.0193 0.0
H154 H 0.68464 0.65604 0.06508 0.0
H155 H 0.67395 0.62661 0.0345 0.0
H156 H 0.67216 0.68208 0.95206 0.0
H157 H 0.67144 0.6726 0.00837 0.0
H158 H 0.65481 0.66372 0.96277 0.0
H159 H 0.68846 0.69077 0.9969 0.0
H160 H 0.70257 0.66737 0.99934 0.0
H161 H 0.68305 0.64144 0.9629 0.0
H162 H 0.65839 0.68516 0.05891 0.0
H163 H 0.65668 0.69874 0.0131 0.0
H164 H 0.62223 0.62073 0.01126 0.0
H165 H 0.64755 0.61474 0.98588 0.0
H166 H 0.60676 0.5997 0.00628 0.0
H167 H 0.6316 0.59375 0.98138 0.0
H168 H 0.62299 0.64514 0.04427 0.0
H169 H 0.62975 0.65678 0.99606 0.0
H170 H 0.61368 0.6576 0.04842 0.0
H171 H 0.62016 0.66892 0.00102 0.0
H172 H 0.62679 0.62392 0.07575 0.0
H173 H 0.63324 0.59892 0.04986 0.0
H174 H 0.62369 0.62592 0.94279 0.0
H175 H 0.59686 0.62383 0.97515 0.0
Li176 Li 0.35374 0.99686 0.99703 0.0
Li177 Li 0.35697 0.00523 0.02393 0.0
Li178 Li 0.33677 0.99109 0.01583 0.0
Li179 Li 0.34817 0.01117 0.0048 0.0
C180 C 0.34659 0.97645 0.01568 0.0
N181 N 0.33889 0.95251 0.01146 0.0
C182 C 0.3503 0.97056 0.02599 0.0
C183 C 0.33895 0.97015 0.00323 0.0
C184 C 0.34631 0.95846 0.02366 0.0
C185 C 0.33516 0.95806 0.0013 0.0
C186 C 0.371 0.02392 0.99611 0.0
C187 C 0.38048 0.04539 0.99481 0.0
N188 N 0.38391 0.0451 0.97978 0.0
C189 C 0.37477 0.02387 0.98071 0.0
C190 C 0.37402 0.0348 0.00328 0.0
C191 C 0.38123 0.03465 0.97263 0.0
C192 C 0.35874 0.9924 0.96588 0.0
N193 N 0.36037 0.99132 0.98143 0.0
C194 C 0.37375 0.9842 0.97558 0.0
C195 C 0.3676 0.98721 0.98643 0.0
C196 C 0.37267 0.98569 0.9594 0.0
C197 C 0.36486 0.98966 0.9546 0.0
H198 H 0.35319 0.99597 0.96224 0.0
H199 H 0.36885 0.98657 0.99888 0.0
C200 C 0.36462 0.00107 0.05277 0.0
N201 N 0.3674 0.00942 0.04141 0.0
C202 C 0.37244 0.0033 0.06526 0.0
C203 C 0.38565 0.02283 0.05436 0.0
C204 C 0.3776 0.02018 0.04203 0.0
C205 C 0.38323 0.01424 0.06604 0.0
H206 H 0.35644 0.99257 0.05192 0.0
H207 H 0.3796 0.02663 0.03281 0.0
C208 C 0.33026 0.99808 0.98552 0.0
N209 N 0.31502 0.00392 0.97035 0.0
C210 C 0.32269 0.00072 0.99421 0.0
C211 C 0.32998 0.99831 0.9691 0.0
C212 C 0.31508 0.00368 0.98633 0.0
C213 C 0.32223 0.0013 0.96165 0.0
C214 C 0.34478 0.01152 0.04137 0.0
C215 C 0.33944 0.00434 0.05454 0.0
C216 C 0.35271 0.02372 0.04343 0.0
C217 C 0.34233 0.00942 0.06954 0.0
C218 C 0.35538 0.02848 0.05861 0.0
N219 N 0.3502 0.02129 0.07125 0.0
C220 C 0.32179 0.97352 0.03727 0.0
C221 C 0.3118 0.97403 0.01424 0.0
C222 C 0.31101 0.96502 0.04401 0.0
N223 N 0.32193 0.97818 0.02292 0.0
C224 C 0.30082 0.9655 0.02048 0.0
C225 C 0.30031 0.96113 0.03574 0.0
H226 H 0.33005 0.97664 0.04365 0.0
H227 H 0.31216 0.97749 0.0026 0.0
C228 C 0.34907 0.02702 0.9812 0.0
N229 N 0.34646 0.02397 0.99658 0.0
C230 C 0.34665 0.03538 0.97444 0.0
C231 C 0.33893 0.03733 0.99948 0.0
C232 C 0.34154 0.02897 0.00577 0.0
C233 C 0.34137 0.04053 0.98357 0.0
H234 H 0.35261 0.02263 0.97401 0.0
H235 H 0.33922 0.02613 0.01783 0.0
O236 O 0.35039 0.98829 0.0179 0.0
O237 O 0.3646 0.01341 0.00417 0.0
O238 O 0.33805 0.99555 0.9931 0.0
O239 O 0.34232 0.00665 0.02658 0.0
H240 H 0.3562 0.97531 0.03569 0.0
H241 H 0.33596 0.97453 0.99514 0.0
H242 H 0.34911 0.95379 0.03154 0.0
H243 H 0.32925 0.95308 0.99172 0.0
H244 H 0.38277 0.05385 0.0002 0.0
H245 H 0.37274 0.01561 0.97502 0.0
H246 H 0.37135 0.03509 0.01521 0.0
H247 H 0.38413 0.0347 0.96067 0.0
H248 H 0.37948 0.98097 0.97987 0.0
H249 H 0.36389 0.99117 0.94231 0.0
H250 H 0.37026 0.99634 0.07385 0.0
H251 H 0.39375 0.03144 0.0546 0.0
H252 H 0.32282 0.00066 0.00693 0.0
H253 H 0.33569 0.99624 0.96214 0.0
H254 H 0.30927 0.00584 0.99292 0.0
H255 H 0.32197 0.00156 0.94895 0.0
H256 H 0.33315 0.99495 0.05324 0.0
H257 H 0.35679 0.02947 0.03343 0.0
H258 H 0.33832 0.00393 0.07982 0.0
H259 H 0.36157 0.03789 0.06035 0.0
H260 H 0.31104 0.96165 0.05564 0.0
H261 H 0.29279 0.9627 0.01367 0.0
H262 H 0.34846 0.03742 0.96205 0.0
H263 H 0.3349 0.04113 0.00694 0.0
Li264 Li 0.00884 0.66288 0.01151 0.0
Li265 Li 0.99539 0.64261 0.01936 0.0
Li266 Li 0.00177 0.64811 0.99181 0.0
Li267 Li 0.98812 0.65384 0.00315 0.0
C268 C 0.02282 0.65345 0.01565 0.0
N269 N 0.04577 0.66242 0.02686 0.0
C270 C 0.02474 0.64983 0.0303 0.0
C271 C 0.03257 0.66156 0.00665 0.0
C272 C 0.03641 0.65448 0.03576 0.0
C273 C 0.0441 0.66603 0.01255 0.0
C274 C 0.99866 0.66334 0.03879 0.0
C275 C 0.0037 0.68094 0.05419 0.0
N276 N 0.00811 0.67695 0.06568 0.0
C277 C 0.00331 0.65946 0.05074 0.0
C278 C 0.99888 0.67419 0.04054 0.0
C279 C 0.008 0.66643 0.06425 0.0
C280 C 0.02335 0.6878 0.01055 0.0
N281 N 0.02165 0.67797 0.01849 0.0
C282 C 0.03551 0.69016 0.03829 0.0
C283 C 0.02774 0.67896 0.03195 0.0
C284 C 0.03708 0.70044 0.03066 0.0
C285 C 0.03114 0.6992 0.0164 0.0
H286 H 0.01825 0.68679 2e-05 0.0
H287 H 0.02616 0.67108 0.03823 0.0
C288 C 0.99536 0.62266 0.0307 0.0
N289 N 0.99111 0.6301 0.03399 0.0
C290 C 0.99358 0.6137 0.04123 0.0
C291 C 0.98252 0.61981 0.05803 0.0
C292 C 0.98449 0.62867 0.0471 0.0
C293 C 0.98732 0.61236 0.05529 0.0
H294 H 0.00042 0.62392 0.02003 0.0
H295 H 0.98108 0.63463 0.04929 0.0
C296 C 0.00514 0.66615 0.97521 0.0
N297 N 0.01012 0.67016 0.94349 0.0
C298 C 0.99588 0.66282 0.96441 0.0
C299 C 0.01694 0.67163 0.96992 0.0
C300 C 0.99859 0.66489 0.94841 0.0
C301 C 0.01927 0.67355 0.95383 0.0
C302 C 0.97411 0.62863 0.00354 0.0
C303 C 0.96883 0.61788 0.99519 0.0
C304 C 0.96788 0.63023 0.01584 0.0
C305 C 0.95734 0.60889 0.99927 0.0
C306 C 0.95642 0.62103 0.01957 0.0
N307 N 0.95142 0.61064 0.01128 0.0
C308 C 0.01499 0.64173 0.97121 0.0
C309 C 0.99541 0.63621 0.96294 0.0
C310 C 0.01623 0.63546 0.95867 0.0
N311 N 0.00463 0.64182 0.97321 0.0
C312 C 0.99628 0.62985 0.95024 0.0
C313 C 0.00668 0.62916 0.94821 0.0
H314 H 0.02207 0.64605 0.97972 0.0
H315 H 0.98722 0.63632 0.96497 0.0
C316 C 0.97664 0.66724 0.0029 0.0
N317 N 0.97541 0.65663 0.99832 0.0
C318 C 0.96817 0.67033 0.99861 0.0
C319 C 0.95732 0.65155 0.98478 0.0
C320 C 0.966 0.6488 0.98939 0.0
C321 C 0.9584 0.6625 0.98927 0.0
H322 H 0.9844 0.67345 0.0095 0.0
H323 H 0.96543 0.64061 0.98539 0.0
O324 O 0.01146 0.64895 0.01007 0.0
O325 O 0.99414 0.65668 0.02538 0.0
O326 O 0.00267 0.66395 0.99088 0.0
O327 O 0.9854 0.63744 -0.00024 0.0
H328 H 0.01731 0.64359 0.03746 0.0
H329 H 0.03125 0.66447 0.99531 0.0
H330 H 0.03802 0.65181 0.04711 0.0
H331 H 0.05173 0.67236 0.00575 0.0
H332 H 0.00398 0.68937 0.05563 0.0
H333 H 0.00362 0.65134 0.04947 0.0
H334 H 0.99552 0.67748 0.03141 0.0
H335 H 0.01167 0.66355 0.07353 0.0
H336 H 0.04001 0.69076 0.04927 0.0
H337 H 0.03204 0.70693 0.01026 0.0
H338 H 0.9972 0.60797 0.03847 0.0
H339 H 0.97766 0.6191 0.06872 0.0
H340 H 0.98671 0.65854 0.9683 0.0
H341 H 0.02421 0.67434 0.97816 0.0
H342 H 0.99151 0.66229 0.93989 0.0
H343 H 0.02836 0.67773 0.94955 0.0
H344 H 0.97357 0.6165 0.98567 0.0
H345 H 0.97184 0.63848 0.02245 0.0
H346 H 0.95313 0.60053 0.99291 0.0
H347 H 0.95149 0.62214 0.02906 0.0
H348 H 0.02434 0.63502 0.95769 0.0
H349 H 0.98875 0.62524 0.94237 0.0
H350 H 0.96935 0.67884 0.0024 0.0
H351 H 0.95008 0.64535 0.9773 0.0
Li352 Li 0.33997 0.34993 0.01836 0.0
Li353 Li 0.36035 0.35591 0.02419 0.0
Li354 Li 0.35627 0.36216 0.999 0.0
Li355 Li 0.3507 0.34153 0.00416 0.0
C356 C 0.35728 0.37367 0.03346 0.0
N357 N 0.36575 0.38782 0.06002 0.0
C358 C 0.35135 0.36959 0.04783 0.0
C359 C 0.36748 0.38496 0.03259 0.0
C360 C 0.35577 0.37689 0.06112 0.0
C361 C 0.37165 0.39197 0.04616 0.0
C362 C 0.3469 0.33575 0.04099 0.0
C363 C 0.35607 0.32819 0.05868 0.0
N364 N 0.34852 0.32751 0.07029 0.0
C365 C 0.33919 0.33492 0.05307 0.0
C366 C 0.35538 0.3323 0.04377 0.0
C367 C 0.34016 0.33075 0.06781 0.0
C368 C 0.31612 0.33436 0.02471 0.0
N369 N 0.32465 0.34605 0.0256 0.0
C370 C 0.31079 0.35101 0.03683 0.0
C371 C 0.32221 0.35441 0.03125 0.0
C372 C 0.3018 0.33892 0.03635 0.0
C373 C 0.30457 0.33057 0.03 0.0
H374 H 0.31834 0.32796 0.01994 0.0
H375 H 0.32913 0.36369 0.03155 0.0
C376 C 0.38377 0.36917 0.03466 0.0
N377 N 0.37249 0.36199 0.04011 0.0
C378 C 0.3932 0.37532 0.04513 0.0
C379 C 0.37937 0.36632 0.0667 0.0
C380 C 0.37016 0.36047 0.05581 0.0
C381 C 0.39102 0.37401 0.06137 0.0
H382 H 0.38537 0.37044 0.02214 0.0
H383 H 0.36112 0.35515 0.05997 0.0
C384 C 0.33257 0.34963 0.98749 0.0
N385 N 0.31608 0.35377 0.97255 0.0
C386 C 0.32503 0.34169 0.97603 0.0
C387 C 0.33169 0.35965 0.99141 0.0
C388 C 0.31676 0.34395 0.96859 0.0
C389 C 0.3233 0.36159 0.9837 0.0
C390 C 0.37273 0.35153 0.99466 0.0
C391 C 0.3739 0.35342 0.97843 0.0
C392 C 0.3774 0.34507 0.00183 0.0
C393 C 0.37962 0.34866 0.96957 0.0
C394 C 0.38306 0.34045 0.99257 0.0
N395 N 0.38404 0.34232 0.97677 0.0
C396 C 0.37389 0.38354 0.98684 0.0
C397 C 0.35734 0.37383 0.96963 0.0
C398 C 0.38003 0.39264 0.97595 0.0
N399 N 0.36275 0.37442 0.98357 0.0
C400 C 0.36316 0.38279 0.95838 0.0
C401 C 0.37471 0.3923 0.96144 0.0
H402 H 0.37813 0.38355 0.99777 0.0
H403 H 0.3487 0.36627 0.96696 0.0
C404 C 0.34656 0.31795 0.0029 0.0
N405 N 0.34833 0.32744 0.99412 0.0
C406 C 0.34388 0.30722 0.99563 0.0
C407 C 0.34503 0.31631 0.9704 0.0
C408 C 0.34763 0.32685 0.97817 0.0
C409 C 0.34297 0.30626 0.97916 0.0
H410 H 0.34691 0.31858 0.01556 0.0
H411 H 0.34892 0.33451 0.97152 0.0
O412 O 0.35323 0.36652 0.02041 0.0
O413 O 0.34598 0.33967 0.02644 0.0
O414 O 0.34055 0.3474 0.99504 0.0
O415 O 0.36694 0.35589 0.00349 0.0
H416 H 0.34357 0.3608 0.04881 0.0
H417 H 0.37218 0.38828 0.02159 0.0
H418 H 0.35132 0.37381 0.07233 0.0
H419 H 0.37957 0.4007 0.04566 0.0
H420 H 0.36263 0.32556 0.06103 0.0
H421 H 0.33254 0.3375 0.05111 0.0
H422 H 0.36142 0.3329 0.03456 0.0
H423 H 0.33428 0.3301 0.07728 0.0
H424 H 0.30911 0.35775 0.04173 0.0
H425 H 0.2979 0.32121 0.02906 0.0
H426 H 0.40209 0.38118 0.04058 0.0
H427 H 0.37731 0.36527 0.07915 0.0
H428 H 0.32557 0.33386 0.97294 0.0
H429 H 0.33743 0.36588 0.00026 0.0
H430 H 0.31088 0.33789 0.95968 0.0
H431 H 0.32253 0.36931 0.9866 0.0
H432 H 0.3703 0.35838 0.9727 0.0
H433 H 0.37662 0.34361 0.0144 0.0
H434 H 0.38053 0.34998 0.95698 0.0
H435 H 0.38667 0.33538 0.99794 0.0
H436 H 0.38891 0.39982 0.9788 0.0
H437 H 0.35884 0.38206 0.94722 0.0
H438 H 0.34214 0.29966 0.00288 0.0
H439 H 0.34454 0.31602 0.95768 0.0
Li440 Li 0.65206 0.98951 0.01486 0.0
Li441 Li 0.64584 0.00327 0.02378 0.0
Li442 Li 0.64193 0.99588 0.99635 0.0
Li443 Li 0.66191 0.01007 0.00506 0.0
C444 C 0.62913 0.97927 0.02846 0.0
N445 N 0.6164 0.96492 0.0535 0.0
C446 C 0.63501 0.97937 0.04226 0.0
C447 C 0.61676 0.97185 0.02738 0.0
C448 C 0.62843 0.97206 0.05479 0.0
C449 C 0.61049 0.96466 0.04017 0.0
C450 C 0.66659 0.01001 0.04062 0.0
C451 C 0.67449 0.02731 0.05749 0.0
N452 N 0.67624 0.02107 0.069 0.0
C453 C 0.66852 0.00378 0.05258 0.0
C454 C 0.66965 0.02188 0.04306 0.0
C455 C 0.67339 0.00953 0.06685 0.0
C456 C 0.66655 0.98064 0.02415 0.0
N457 N 0.65505 0.97715 0.02058 0.0
C458 C 0.64894 0.95688 0.02656 0.0
C459 C 0.64629 0.96551 0.02141 0.0
C460 C 0.66072 0.96028 0.03076 0.0
C461 C 0.6696 0.97233 0.02932 0.0
H462 H 0.67331 0.98997 0.02328 0.0
H463 H 0.63723 0.96296 0.01828 0.0
C464 C 0.63093 0.01081 0.03645 0.0
N465 N 0.63883 0.00733 0.04068 0.0
C466 C 0.62445 0.0129 0.04788 0.0
C467 C 0.63454 0.00804 0.06788 0.0
C468 C 0.64073 0.00593 0.05605 0.0
C469 C 0.62611 0.01139 0.06386 0.0
H470 H 0.62942 0.01162 0.02413 0.0
H471 H 0.64679 0.00285 0.05921 0.0
C472 C 0.65449 0.98576 0.98335 0.0
N473 N 0.65024 0.96671 0.96434 0.0
C474 C 0.66323 0.98676 0.97281 0.0
C475 C 0.64358 0.97508 0.98422 0.0
C476 C 0.66091 0.97702 0.9633 0.0
C477 C 0.64161 0.96555 0.97452 0.0
C478 C 0.65202 0.02369 0.99939 0.0
C479 C 0.65294 0.02631 0.98334 0.0
C480 C 0.6553 0.03283 0.0104 0.0
C481 C 0.65745 0.03812 0.97857 0.0
C482 C 0.65975 0.04453 0.00517 0.0
N483 N 0.66075 0.04691 0.98949 0.0
C484 C 0.61956 0.98694 0.98159 0.0
C485 C 0.63622 0.99477 0.96438 0.0
C486 C 0.6119 0.98506 0.969 0.0
N487 N 0.63146 0.99184 0.97906 0.0
C488 C 0.62891 0.99312 0.95148 0.0
C489 C 0.61661 0.98839 0.95375 0.0
H490 H 0.61608 0.98486 0.99344 0.0
H491 H 0.64575 0.99873 0.96278 0.0
C492 C 0.68633 0.02861 0.00673 0.0
N493 N 0.67666 0.02249 0.9973 0.0
C494 C 0.69739 0.03671 0.00024 0.0
C495 C 0.68829 0.03208 0.97448 0.0
C496 C 0.67744 0.02405 0.98146 0.0
C497 C 0.6985 0.03841 0.98388 0.0
H498 H 0.68562 0.02689 0.0192 0.0
H499 H 0.66968 0.01878 0.9742 0.0
O500 O 0.63537 0.98642 0.01606 0.0
O501 O 0.66171 0.00448 0.02662 0.0
O502 O 0.65668 0.99524 0.99273 0.0
O503 O 0.64768 0.01218 0.00428 0.0
H504 H 0.64456 0.98503 0.04329 0.0
H505 H 0.61206 0.97165 0.01677 0.0
H506 H 0.63288 0.97207 0.06554 0.0
H507 H 0.60091 0.95888 0.0395 0.0
H508 H 0.67688 0.03649 0.05954 0.0
H509 H 0.66621 0.99459 0.05092 0.0
H510 H 0.66834 0.02686 0.03389 0.0
H511 H 0.67488 0.0048 0.07623 0.0
H512 H 0.64186 0.94766 0.0273 0.0
H513 H 0.67876 0.97537 0.0326 0.0
H514 H 0.61789 0.01523 0.04416 0.0
H515 H 0.63622 0.00687 0.08002 0.0
H516 H 0.67171 0.99498 0.972 0.0
H517 H 0.6367 0.97414 0.99227 0.0
H518 H 0.66759 0.97767 0.95508 0.0
H519 H 0.63321 0.95723 0.97507 0.0
H520 H 0.65029 0.01932 0.97466 0.0
H521 H 0.65431 0.03091 0.02286 0.0
H522 H 0.65832 0.0403 0.96619 0.0
H523 H 0.66237 0.0517 0.01356 0.0
H524 H 0.60249 0.98153 0.97127 0.0
H525 H 0.63287 0.99572 0.9399 0.0
H526 H 0.70507 0.0412 0.0079 0.0
H527 H 0.68871 0.03316 0.96183 0.0
Li528 Li 0.65718 0.67627 0.33718 0.0
Li529 Li 0.67615 0.68584 0.34919 0.0
Li530 Li 0.66209 0.69157 0.35807 0.0
Li531 Li 0.67157 0.69722 0.33043 0.0
C532 C 0.66293 0.6686 0.36895 0.0
N533 N 0.66899 0.65492 0.38739 0.0
C534 C 0.66424 0.65948 0.36218 0.0
C535 C 0.66453 0.67065 0.38513 0.0
C536 C 0.66736 0.6527 0.37169 0.0
C537 C 0.66763 0.66366 0.39425 0.0
C538 C 0.67695 0.67863 0.31549 0.0
C539 C 0.69049 0.68191 0.29407 0.0
N540 N 0.68581 0.66991 0.29268 0.0
C541 C 0.67226 0.66633 0.31382 0.0
C542 C 0.68612 0.68649 0.30551 0.0
C543 C 0.67687 0.6621 0.30223 0.0
C544 C 0.64386 0.66114 0.31224 0.0
N545 N 0.64516 0.66182 0.32812 0.0
C546 C 0.63048 0.64122 0.33083 0.0
C547 C 0.63856 0.65222 0.33748 0.0
C548 C 0.6292 0.64013 0.3144 0.0
C549 C 0.63588 0.65033 0.30509 0.0
H550 H 0.64925 0.66896 0.30513 0.0
H551 H 0.63978 0.65305 0.35009 0.0
C552 C 0.69269 0.68713 0.37189 0.0
N553 N 0.6887 0.68341 0.35701 0.0
C554 C 0.70107 0.68474 0.37865 0.0
C555 C 0.70115 0.67477 0.35466 0.0
C556 C 0.69284 0.67743 0.34834 0.0
C557 C 0.70532 0.67834 0.37007 0.0
H558 H 0.68912 0.6917 0.37867 0.0
H559 H 0.68948 0.67438 0.33669 0.0
C560 C 0.64314 0.68471 0.33103 0.0
N561 N 0.6203 0.67251 0.31887 0.0
C562 C 0.64099 0.68681 0.3156 0.0
C563 C 0.63367 0.67646 0.34031 0.0
C564 C 0.62938 0.68054 0.30966 0.0
C565 C 0.62219 0.67037 0.33394 0.0
C566 C 0.69093 0.70919 0.35482 0.0
C567 C 0.69486 0.71533 0.36907 0.0
C568 C 0.69927 0.70996 0.34373 0.0
C569 C 0.7071 0.72204 0.37208 0.0
C570 C 0.71142 0.71676 0.34718 0.0
N571 N 0.71506 0.7226 0.36117 0.0
C572 C 0.66258 0.70016 0.38878 0.0
C573 C 0.64684 0.69836 0.37271 0.0
C574 C 0.65902 0.70487 0.40105 0.0
N575 N 0.65652 0.69709 0.37495 0.0
C576 C 0.6429 0.70292 0.38469 0.0
C577 C 0.64908 0.70639 0.39906 0.0
H578 H 0.67032 0.69915 0.39018 0.0
H579 H 0.64227 0.69601 0.36154 0.0
C580 C 0.67345 0.70549 0.29941 0.0
N581 N 0.67727 0.70889 0.3144 0.0
C582 C 0.67736 0.71395 0.28739 0.0
C583 C 0.68935 0.72919 0.30642 0.0
C584 C 0.68506 0.72046 0.31809 0.0
C585 C 0.68542 0.72603 0.29081 0.0
H586 H 0.66729 0.69619 0.29684 0.0
H587 H 0.68793 0.72293 0.33012 0.0
O588 O 0.66021 0.67556 0.35975 0.0
O589 O 0.6725 0.68298 0.32665 0.0
O590 O 0.65449 0.6905 0.33693 0.0
O591 O 0.67899 0.70242 0.35172 0.0
H592 H 0.66303 0.65779 0.34967 0.0
H593 H 0.66348 0.67762 0.39058 0.0
H594 H 0.66852 0.6457 0.36657 0.0
H595 H 0.66899 0.6652 0.40678 0.0
H596 H 0.69759 0.68789 0.28628 0.0
H597 H 0.66521 0.6601 0.32145 0.0
H598 H 0.68984 0.69603 0.30657 0.0
H599 H 0.67334 0.65261 0.30084 0.0
H600 H 0.62561 0.63358 0.33845 0.0
H601 H 0.63504 0.64994 0.29241 0.0
H602 H 0.70411 0.68779 0.39051 0.0
H603 H 0.70398 0.66962 0.34768 0.0
H604 H 0.6482 0.69318 0.30827 0.0
H605 H 0.63522 0.67465 0.35223 0.0
H606 H 0.62759 0.68204 0.29772 0.0
H607 H 0.6148 0.66389 0.34095 0.0
H608 H 0.68853 0.7149 0.37773 0.0
H609 H 0.69636 0.70526 0.33265 0.0
H610 H 0.71027 0.7268 0.38309 0.0
H611 H 0.71797 0.71738 0.33875 0.0
H612 H 0.66419 0.70758 0.4118 0.0
H613 H 0.6351 0.70375 0.38266 0.0
H614 H 0.67391 0.71107 0.27564 0.0
H615 H 0.69572 0.73831 0.30962 0.0
Li616 Li 0.29866 0.97354 0.33222 0.0
Li617 Li 0.3034 0.96952 0.36007 0.0
Li618 Li 0.31101 0.98957 0.35006 0.0
Li619 Li 0.31877 0.97786 0.33979 0.0
C620 C 0.28959 0.9838 0.35945 0.0
N621 N 0.28167 0.99817 0.3724 0.0
C622 C 0.28787 0.98378 0.37568 0.0
C623 C 0.28714 0.99102 0.34979 0.0
C624 C 0.28389 0.99113 0.38201 0.0
C625 C 0.28319 0.99826 0.35656 0.0
C626 C 0.30825 0.95489 0.3357 0.0
C627 C 0.31934 0.94517 0.34259 0.0
N628 N 0.31842 0.94132 0.32749 0.0
C629 C 0.30738 0.95081 0.32027 0.0
C630 C 0.31425 0.95203 0.34698 0.0
C631 C 0.31259 0.94396 0.31635 0.0
C632 C 0.29014 0.966 0.30155 0.0
N633 N 0.28707 0.96787 0.31612 0.0
C634 C 0.26713 0.96119 0.30771 0.0
C635 C 0.27588 0.96564 0.31938 0.0
C636 C 0.26991 0.95887 0.29258 0.0
C637 C 0.28164 0.96142 0.28957 0.0
H638 H 0.29917 0.96798 0.2993 0.0
H639 H 0.27373 0.96728 0.33108 0.0
C640 C 0.29943 0.96334 0.3923 0.0
N641 N 0.29747 0.95899 0.37737 0.0
C642 C 0.29508 0.95551 0.40506 0.0
C643 C 0.28717 0.93894 0.3868 0.0
C644 C 0.29144 0.94707 0.37441 0.0
C645 C 0.28894 0.94316 0.40232 0.0
H646 H 0.30436 0.97288 0.39426 0.0
H647 H 0.28999 0.94388 0.3624 0.0
C648 C 0.3166 0.99611 0.31658 0.0
N649 N 0.32176 0.01319 0.29375 0.0
C650 C 0.32834 0.00333 0.31136 0.0
C651 C 0.30747 0.99748 0.31003 0.0
C652 C 0.33077 0.01194 0.29986 0.0
C653 C 0.31026 0.00618 0.29854 0.0
C654 C 0.33084 0.9918 0.36629 0.0
C655 C 0.33795 0.00096 0.35585 0.0
C656 C 0.33511 0.9917 0.38133 0.0
C657 C 0.34928 0.00988 0.3606 0.0
C658 C 0.34649 0.00078 0.38565 0.0
N659 N 0.35328 0.0096 0.37528 0.0
C660 C 0.31635 0.00685 0.37314 0.0
C661 C 0.3182 0.01458 0.34743 0.0
C662 C 0.32035 0.01811 0.37966 0.0
N663 N 0.31544 0.0053 0.35728 0.0
C664 C 0.32234 0.02603 0.35344 0.0
C665 C 0.32359 0.02795 0.36977 0.0
H666 H 0.31411 0.99932 0.38072 0.0
H667 H 0.31745 0.01325 0.33491 0.0
C668 C 0.33359 0.9781 0.31574 0.0
N669 N 0.33243 0.9779 0.33163 0.0
C670 C 0.34354 0.97839 0.30894 0.0
C671 C 0.35085 0.97816 0.33502 0.0
C672 C 0.34069 0.97775 0.34131 0.0
C673 C 0.35238 0.97856 0.31864 0.0
H674 H 0.3268 0.9781 0.30836 0.0
H675 H 0.33942 0.97734 0.3539 0.0
O676 O 0.29377 0.97689 0.35309 0.0
O677 O 0.30356 0.96193 0.33968 0.0
O678 O 0.31406 0.98755 0.32772 0.0
O679 O 0.31965 0.98303 0.36199 0.0
H680 H 0.28966 0.97821 0.38332 0.0
H681 H 0.28837 0.9911 0.33721 0.0
H682 H 0.28259 0.99126 0.39456 0.0
H683 H 0.28135 0.00395 0.34923 0.0
H684 H 0.32408 0.94296 0.35117 0.0
H685 H 0.30279 0.95295 0.31139 0.0
H686 H 0.31514 0.95526 0.35893 0.0
H687 H 0.31203 0.94078 0.30443 0.0
H688 H 0.25829 0.95959 0.31054 0.0
H689 H 0.28419 0.95966 0.27819 0.0
H690 H 0.29662 0.95904 0.41692 0.0
H691 H 0.28238 0.92946 0.38429 0.0
H692 H 0.33551 0.0023 0.3161 0.0
H693 H 0.29833 0.99192 0.31377 0.0
H694 H 0.33981 0.01762 0.29576 0.0
H695 H 0.30329 0.00737 0.29343 0.0
H696 H 0.33474 0.00122 0.34424 0.0
H697 H 0.32967 0.98468 0.38957 0.0
H698 H 0.35487 0.01703 0.35264 0.0
H699 H 0.34992 0.00081 0.39725 0.0
H700 H 0.32096 0.0191 0.39233 0.0
H701 H 0.32486 0.03334 0.34533 0.0
H702 H 0.34444 0.97877 0.29626 0.0
H703 H 0.3574 0.97812 0.34286 0.0
Li704 Li 0.02449 0.3272 0.32953 0.0
Li705 Li 0.02911 0.3356 0.35674 0.0
Li706 Li 0.00822 0.32316 0.34742 0.0
Li707 Li 0.02086 0.34288 0.33739 0.0
C708 C 0.0154 0.30633 0.3479 0.0
N709 N 0.00497 0.28198 0.34365 0.0
C710 C 0.0175 0.29947 0.35867 0.0
C711 C 0.00798 0.30081 0.33497 0.0
C712 C 0.01215 0.28717 0.35631 0.0
C713 C 0.00279 0.28849 0.33303 0.0
C714 C 0.04339 0.35432 0.32968 0.0
C715 C 0.05443 0.37581 0.3312 0.0
N716 N 0.05654 0.37634 0.31547 0.0
C717 C 0.04575 0.35507 0.31355 0.0
C718 C 0.04784 0.36476 0.33861 0.0
C719 C 0.05239 0.36629 0.30658 0.0
C720 C 0.02723 0.32248 0.29805 0.0
N721 N 0.02959 0.32093 0.31314 0.0
C722 C 0.03984 0.31092 0.30458 0.0
C723 C 0.03572 0.31526 0.31662 0.0
C724 C 0.03775 0.3126 0.28884 0.0
C725 C 0.0313 0.31841 0.28563 0.0
H726 H 0.02235 0.32706 0.29568 0.0
H727 H 0.03753 0.31424 0.32876 0.0
C728 C 0.03452 0.33425 0.38833 0.0
N729 N 0.0393 0.33918 0.37417 0.0
C730 C 0.04189 0.33678 0.40144 0.0
C731 C 0.0589 0.34947 0.38508 0.0
C732 C 0.05121 0.34666 0.3723 0.0
C733 C 0.05426 0.34447 0.39988 0.0
H734 H 0.02498 0.32837 0.38941 0.0
H735 H 0.05474 0.35039 0.36085 0.0
C736 C 0.00027 0.32846 0.31986 0.0
N737 N 0.98032 0.32884 0.30928 0.0
C738 C 0.99475 0.33309 0.32939 0.0
C739 C 0.99565 0.32404 0.30494 0.0
C740 C 0.98468 0.33321 0.32383 0.0
C741 C 0.98555 0.3243 0.2998 0.0
C742 C 0.0147 0.34562 0.36993 0.0
C743 C 0.0035 0.34378 0.37434 0.0
C744 C 0.02498 0.35496 0.37674 0.0
C745 C 0.00278 0.35143 0.38533 0.0
C746 C 0.02389 0.3624 0.38769 0.0
N747 N 0.01291 0.36051 0.39172 0.0
C748 C 0.99066 0.31127 0.37007 0.0
C749 C 0.98389 0.30491 0.34405 0.0
C750 C 0.97927 0.30368 0.37603 0.0
N751 N 0.9927 0.31185 0.35434 0.0
C752 C 0.97233 0.29726 0.34947 0.0
C753 C 0.96987 0.29666 0.36566 0.0
H754 H 0.9979 0.31683 0.37797 0.0
H755 H 0.98578 0.30543 0.33161 0.0
C756 C 0.02077 0.35722 0.3132 0.0
N757 N 0.02073 0.35656 0.32915 0.0
C758 C 0.01985 0.36632 0.30581 0.0
C759 C 0.01904 0.37404 0.33139 0.0
C760 C 0.02005 0.36482 0.33828 0.0
C761 C 0.01878 0.37479 0.31493 0.0
H762 H 0.02133 0.35054 0.3062 0.0
H763 H 0.02003 0.36419 0.35089 0.0
O764 O 0.02055 0.31838 0.35012 0.0
O765 O 0.03666 0.34342 0.33664 0.0
O766 O 0.01019 0.32829 0.32498 0.0
O767 O 0.01553 0.3381 0.35934 0.0
H768 H 0.02321 0.30363 0.36876 0.0
H769 H 0.00623 0.30597 0.32652 0.0
H770 H 0.0137 0.28174 0.36456 0.0
H771 H 0.99703 0.2841 0.32308 0.0
H772 H 0.05785 0.38396 0.33795 0.0
H773 H 0.0424 0.34709 0.30647 0.0
H774 H 0.04613 0.36434 0.3511 0.0
H775 H 0.05422 0.36701 0.29409 0.0
H776 H 0.0449 0.30661 0.30752 0.0
H777 H 0.02946 0.31981 0.27365 0.0
H778 H 0.03795 0.33283 0.41267 0.0
H779 H 0.06839 0.35528 0.38333 0.0
H780 H 0.99823 0.3366 0.34091 0.0
H781 H -0.00018 0.32042 0.29742 0.0
H782 H 0.98033 0.33678 0.33108 0.0
H783 H 0.98187 0.3209 0.28829 0.0
H784 H 0.99543 0.33652 0.36934 0.0
H785 H 0.03371 0.3565 0.37355 0.0
H786 H 0.99418 0.35014 0.3888 0.0
H787 H 0.03178 0.36969 0.393 0.0
H788 H 0.97786 0.30334 0.38861 0.0
H789 H 0.96537 0.2921 0.34102 0.0
H790 H 0.0199 0.36666 0.29309 0.0
H791 H 0.0181 0.38028 0.3389 0.0
Li792 Li 0.67519 0.98912 0.34917 0.0
Li793 Li 0.66194 0.96948 0.35795 0.0
Li794 Li 0.67219 0.97298 0.33164 0.0
Li795 Li 0.65591 0.97766 0.33716 0.0
C796 C 0.69078 0.98231 0.35808 0.0
N797 N 0.71422 0.99426 0.36818 0.0
C798 C 0.69366 0.98771 0.37291 0.0
C799 C 0.69983 0.98295 0.34842 0.0
C800 C 0.70557 0.99373 0.37779 0.0
C801 C 0.71162 0.98903 0.35374 0.0
C802 C 0.65452 0.98119 0.37373 0.0
C803 C 0.63763 0.97049 0.39101 0.0
N804 N 0.64473 0.97616 0.40358 0.0
C805 C 0.66165 0.98691 0.38683 0.0
C806 C 0.64241 0.97293 0.37584 0.0
C807 C 0.65652 0.98425 0.40182 0.0
C808 C 0.68216 0.01147 0.36253 0.0
N809 N 0.68657 0.00522 0.35504 0.0
C810 C 0.70632 0.02209 0.35608 0.0
C811 C 0.69836 0.01039 0.35139 0.0
C812 C 0.70206 0.02859 0.36434 0.0
C813 C 0.68977 0.02319 0.36738 0.0
H814 H 0.67269 0.00734 0.36476 0.0
H815 H 0.70161 0.00547 0.34479 0.0
C816 C 0.64669 0.94767 0.37347 0.0
N817 N 0.65657 0.95861 0.37523 0.0
C818 C 0.64278 0.93945 0.38579 0.0
C819 C 0.65924 0.95392 0.40152 0.0
C820 C 0.66285 0.96183 0.38889 0.0
C821 C 0.64914 0.9425 0.40002 0.0
H822 H 0.64196 0.94525 0.36243 0.0
H823 H 0.67068 0.97054 0.39 0.0
C824 C 0.67732 0.99878 0.32119 0.0
N825 N 0.68976 0.02245 0.31225 0.0
C826 C 0.67221 0.00597 0.32308 0.0
C827 C 0.68873 0.00359 0.31469 0.0
C828 C 0.67865 0.01793 0.31851 0.0
C829 C 0.69488 0.01559 0.31025 0.0
C830 C 0.64522 0.95509 0.32829 0.0
C831 C 0.64654 0.95204 0.31293 0.0
C832 C 0.6338 0.95139 0.33416 0.0
C833 C 0.6364 0.94544 0.30366 0.0
C834 C 0.62389 0.94482 0.3245 0.0
N835 N 0.62539 0.94201 0.30958 0.0
C836 C 0.679 0.95692 0.32129 0.0
C837 C 0.68163 0.97132 0.30213 0.0
C838 C 0.68265 0.9512 0.31062 0.0
N839 N 0.67849 0.96671 0.31685 0.0
C840 C 0.6854 0.9659 0.29107 0.0
C841 C 0.68578 0.95561 0.29522 0.0
H842 H 0.67636 0.95345 0.33308 0.0
H843 H 0.68091 0.97899 0.29885 0.0
C844 C 0.63655 0.98189 0.33609 0.0
N845 N 0.64325 0.97862 0.32741 0.0
C846 C 0.62741 0.98294 0.32903 0.0
C847 C 0.63235 0.97737 0.30418 0.0
C848 C 0.64145 0.97651 0.31171 0.0
C849 C 0.62522 0.98066 0.31287 0.0
H850 H 0.63839 0.98384 0.34846 0.0
H851 H 0.64714 0.97424 0.30503 0.0
O852 O 0.67918 0.97629 0.3531 0.0
O853 O 0.65942 0.98349 0.35897 0.0
O854 O 0.67129 0.98715 0.326 0.0
O855 O 0.65506 0.96171 0.33749 0.0
H856 H 0.68684 0.98751 0.38044 0.0
H857 H 0.69779 0.97884 0.33691 0.0
H858 H 0.70793 0.99803 0.38918 0.0
H859 H 0.71871 0.98961 0.34637 0.0
H860 H 0.62829 0.96406 0.3928 0.0
H861 H 0.67107 0.99319 0.38551 0.0
H862 H 0.63678 0.96832 0.36589 0.0
H863 H 0.66195 0.98857 0.41205 0.0
H864 H 0.71569 0.02602 0.35317 0.0
H865 H 0.6861 0.02787 0.37371 0.0
H866 H 0.63506 0.93068 0.38401 0.0
H867 H 0.66433 0.95672 0.41233 0.0
H868 H 0.66342 0.0024 0.32822 0.0
H869 H 0.69287 0.99817 0.31332 0.0
H870 H 0.67484 0.02363 0.31999 0.0
H871 H 0.70375 0.01946 0.30529 0.0
H872 H 0.65528 0.95481 0.30816 0.0
H873 H 0.6326 0.95369 0.34598 0.0
H874 H 0.6373 0.94307 0.29173 0.0
H875 H 0.61501 0.94198 0.32886 0.0
H876 H 0.68294 0.94336 0.31434 0.0
H877 H 0.68759 0.96948 0.27926 0.0
H878 H 0.62209 0.98547 0.33615 0.0
H879 H 0.63109 0.97575 0.29164 0.0
Li880 Li 0.02887 0.69615 0.35591 0.0
Li881 Li 0.00803 0.68823 0.34957 0.0
Li882 Li 0.01933 0.67996 0.33639 0.0
Li883 Li 0.02262 0.69957 0.33008 0.0
C884 C 0.01185 0.6767 0.37457 0.0
N885 N 0.00407 0.67095 0.4053 0.0
C886 C 0.01378 0.68566 0.38533 0.0
C887 C 0.00597 0.6648 0.37947 0.0
C888 C 0.00979 0.68258 0.4008 0.0
C889 C 0.0021 0.66207 0.39505 0.0
C890 C 0.01589 0.71139 0.3576 0.0
C891 C 0.00155 0.71808 0.35721 0.0
N892 N 0.00567 0.72347 0.37138 0.0
C893 C 0.02003 0.71706 0.37212 0.0
C894 C 0.00662 0.71196 0.35004 0.0
C895 C 0.01473 0.72309 0.37891 0.0
C896 C 0.04815 0.71526 0.37072 0.0
N897 N 0.04112 0.70321 0.37131 0.0
C898 C 0.05169 0.70225 0.39374 0.0
C899 C 0.04283 0.69662 0.38233 0.0
C900 C 0.05891 0.71475 0.3937 0.0
C901 C 0.05713 0.72125 0.38185 0.0
H902 H 0.04669 0.72024 0.36166 0.0
H903 H 0.03722 0.68702 0.38238 0.0
C904 C 0.98309 0.67493 0.34979 0.0
N905 N 0.99256 0.6835 0.35792 0.0
C906 C 0.97149 0.67052 0.35539 0.0
C907 C 0.97957 0.68384 0.37765 0.0
C908 C 0.991 0.68795 0.37165 0.0
C909 C 0.96961 0.67494 0.36955 0.0
H910 H 0.98457 0.67137 0.33906 0.0
H911 H 0.99861 0.69465 0.37806 0.0
C912 C 0.04415 0.69295 0.33637 0.0
N913 N 0.06308 0.689 0.34003 0.0
C914 C 0.05474 0.69983 0.32803 0.0
C915 C 0.04317 0.68405 0.34657 0.0
C916 C 0.06421 0.6977 0.33004 0.0
C917 C 0.05285 0.6822 0.34826 0.0
C918 C 0.00436 0.68553 0.31267 0.0
C919 C 0.00891 0.683 0.29922 0.0
C920 C 0.99648 0.68986 0.31113 0.0
C921 C 0.00566 0.68507 0.28441 0.0
C922 C 0.99344 0.6918 0.29612 0.0
N923 N 0.99807 0.6894 0.28318 0.0
C924 C 0.0108 0.65529 0.33411 0.0
C925 C 0.02535 0.66707 0.31505 0.0
C926 C 0.00964 0.64486 0.32758 0.0
N927 N 0.01855 0.66608 0.32777 0.0
C928 C 0.02437 0.65687 0.30802 0.0
C929 C 0.01639 0.64558 0.31426 0.0
H930 H 0.00537 0.65478 0.34405 0.0
H931 H 0.0314 0.67578 0.31021 0.0
C932 C 0.02489 0.71965 0.313 0.0
N933 N 0.02737 0.71063 0.31315 0.0
C934 C 0.029 0.72791 0.30071 0.0
C935 C 0.03804 0.71735 0.28892 0.0
C936 C 0.03379 0.70934 0.30145 0.0
C937 C 0.03575 0.72686 0.28851 0.0
H938 H 0.01987 0.72057 0.32249 0.0
H939 H 0.03572 0.70213 0.30196 0.0
O940 O 0.01562 0.67951 0.35931 0.0
O941 O 0.02096 0.7054 0.3508 0.0
O942 O 0.03484 0.69499 0.33453 0.0
O943 O 0.00768 0.68384 0.32727 0.0
H944 H 0.01828 0.6949 0.38176 0.0
H945 H 0.00441 0.65772 0.37135 0.0
H946 H 0.01121 0.68945 0.40921 0.0
H947 H 0.99753 0.65289 0.39898 0.0
H948 H 0.99432 0.71852 0.35152 0.0
H949 H 0.02722 0.71677 0.37814 0.0
H950 H 0.00328 0.7076 0.33885 0.0
H951 H 0.01781 0.72748 0.39017 0.0
H952 H 0.05269 0.69688 0.40269 0.0
H953 H 0.06264 0.73086 0.38113 0.0
H954 H 0.9641 0.66352 0.34888 0.0
H955 H 0.97855 0.68761 0.38851 0.0
H956 H 0.05562 0.70675 0.3201 0.0
H957 H 0.03506 0.67862 0.35313 0.0
H958 H 0.07246 0.70296 0.32366 0.0
H959 H 0.05222 0.67535 0.35612 0.0
H960 H 0.01502 0.67965 0.30019 0.0
H961 H 0.99272 0.69168 0.3214 0.0
H962 H 0.0092 0.68326 0.2739 0.0
H963 H 0.98738 0.6952 0.29475 0.0
H964 H 0.00327 0.63631 0.3326 0.0
H965 H 0.02977 0.65778 0.29781 0.0
H966 H 0.02697 0.73506 0.30079 0.0
H967 H 0.04336 0.71631 0.27989 0.0
Li968 Li 0.31053 0.33947 0.35739 0.0
Li969 Li 0.31642 0.32494 0.34977 0.0
Li970 Li 0.32632 0.34531 0.33739 0.0
Li971 Li 0.306 0.33 0.33052 0.0
C972 C 0.33282 0.34756 0.37228 0.0
N973 N 0.34591 0.3612 0.39766 0.0
C974 C 0.33384 0.34206 0.38584 0.0
C975 C 0.33868 0.36001 0.37152 0.0
C976 C 0.34043 0.3491 0.39858 0.0
C977 C 0.3452 0.36675 0.38449 0.0
C978 C 0.2935 0.31148 0.35836 0.0
C979 C 0.28413 0.29002 0.35731 0.0
N980 N 0.28075 0.2894 0.37259 0.0
C981 C 0.28981 0.31061 0.37399 0.0
C982 C 0.29052 0.3011 0.34989 0.0
C983 C 0.28341 0.29937 0.381 0.0
C984 C 0.29833 0.35021 0.37124 0.0
N985 N 0.3047 0.34473 0.37436 0.0
C986 C 0.30163 0.34539 0.40197 0.0
C987 C 0.30642 0.34229 0.38935 0.0
C988 C 0.29497 0.35103 0.39912 0.0
C989 C 0.29344 0.35355 0.38353 0.0
H990 H 0.29682 0.35176 0.3592 0.0
H991 H 0.31117 0.33757 0.3915 0.0
C992 C 0.32529 0.30907 0.34838 0.0
N993 N 0.31946 0.31304 0.35769 0.0
C994 C 0.32858 0.3011 0.35427 0.0
C995 C 0.31971 0.30135 0.37921 0.0
C996 C 0.3166 0.30932 0.37282 0.0
C997 C 0.32592 0.29725 0.36995 0.0
H998 H 0.32769 0.31237 0.33649 0.0
H999 H 0.31216 0.31277 0.38007 0.0
C1000 C 0.31459 0.35836 0.33301 0.0
N1001 N 0.32009 0.38142 0.32612 0.0
C1002 C 0.31194 0.3611 0.3182 0.0
C1003 C 0.31982 0.36733 0.3444 0.0
C1004 C 0.31485 0.37282 0.31492 0.0
C1005 C 0.32259 0.37893 0.34067 0.0
C1006 C 0.32003 0.32485 0.31279 0.0
C1007 C 0.32624 0.33233 0.30019 0.0
C1008 C 0.31286 0.31258 0.31024 0.0
C1009 C 0.32497 0.32744 0.28517 0.0
C1010 C 0.31181 0.30803 0.29505 0.0
N1011 N 0.31782 0.31549 0.28293 0.0
C1012 C 0.35121 0.35927 0.33637 0.0
C1013 C 0.34147 0.36408 0.31659 0.0
C1014 C 0.36235 0.3676 0.33039 0.0
N1015 N 0.34107 0.35769 0.32946 0.0
C1016 C 0.35243 0.37246 0.31012 0.0
C1017 C 0.36307 0.37423 0.31695 0.0
H1018 H 0.35063 0.35389 0.3464 0.0
H1019 H 0.3333 0.36236 0.31095 0.0
C1020 C 0.28346 0.31529 0.3162 0.0
N1021 N 0.29482 0.3243 0.31372 0.0
C1022 C 0.2751 0.31142 0.30403 0.0
C1023 C 0.29031 0.32613 0.28701 0.0
C1024 C 0.29835 0.32971 0.29949 0.0
C1025 C 0.27846 0.31694 0.28923 0.0
H1026 H 0.28083 0.31126 0.3277 0.0
H1027 H 0.3074 0.33693 0.29788 0.0
O1028 O 0.32641 0.34078 0.35968 0.0
O1029 O 0.29987 0.32242 0.35135 0.0
O1030 O 0.31181 0.34692 0.3364 0.0
O1031 O 0.32106 0.3295 0.32755 0.0
H1032 H 0.32952 0.33246 0.38659 0.0
H1033 H 0.33837 0.36446 0.36096 0.0
H1034 H 0.3412 0.34495 0.40919 0.0
H1035 H 0.34975 0.37639 0.38406 0.0
H1036 H 0.28183 0.28193 0.35091 0.0
H1037 H 0.29187 0.31852 0.38068 0.0
H1038 H 0.29311 0.30158 0.33772 0.0
H1039 H 0.28057 0.29858 0.39312 0.0
H1040 H 0.30301 0.34328 0.41382 0.0
H1041 H 0.28817 0.35769 0.38082 0.0
H1042 H 0.33352 0.29831 0.34681 0.0
H1043 H 0.31739 0.29853 0.3913 0.0
H1044 H 0.30773 0.35427 0.30931 0.0
H1045 H 0.32157 0.36532 0.35607 0.0
H1046 H 0.31293 0.37506 0.30346 0.0
H1047 H 0.32667 0.38595 0.34938 0.0
H1048 H 0.3319 0.34182 0.30194 0.0
H1049 H 0.30818 0.30663 0.31988 0.0
H1050 H 0.32965 0.33315 0.2753 0.0
H1051 H 0.30624 0.29856 0.2929 0.0
H1052 H 0.37031 0.36875 0.33614 0.0
H1053 H 0.35253 0.37716 0.29956 0.0
H1054 H 0.26602 0.30443 0.30634 0.0
H1055 H 0.29333 0.33055 0.27576 0.0
Li1056 Li 0.32157 0.00949 0.66944 0.0
Li1057 Li 0.34148 0.02094 0.68174 0.0
Li1058 Li 0.32556 0.02491 0.68741 0.0
Li1059 Li 0.33499 0.03028 0.66121 0.0
C1060 C 0.32214 0.00837 0.707 0.0
N1061 N 0.31446 0.00596 0.73781 0.0
C1062 C 0.33042 0.01272 0.71927 0.0
C1063 C 0.30994 0.0027 0.7104 0.0
C1064 C 0.32636 0.01143 0.73477 0.0
C1065 C 0.30624 0.0016 0.72605 0.0
C1066 C 0.3419 0.01109 0.65012 0.0
C1067 C 0.35501 0.0117 0.62949 0.0
N1068 N 0.35073 -0.00019 0.63139 0.0
C1069 C 0.33762 0.99887 0.65183 0.0
C1070 C 0.35065 0.01756 0.63882 0.0
C1071 C 0.3422 0.99333 0.64228 0.0
C1072 C 0.30863 0.99267 0.64565 0.0
N1073 N 0.31058 0.99413 0.6614 0.0
C1074 C 0.29796 0.97324 0.66572 0.0
C1075 C 0.30543 0.98474 0.67145 0.0
C1076 C 0.2958 0.9714 0.64947 0.0
C1077 C 0.30118 0.98133 0.6394 0.0
H1078 H 0.31302 0.00031 0.63793 0.0
H1079 H 0.30737 0.98613 0.68388 0.0
C1080 C 0.3622 0.02857 0.70052 0.0
N1081 N 0.35469 0.02009 0.69019 0.0
C1082 C 0.37161 0.0278 0.70727 0.0
C1083 C 0.36531 0.00952 0.6928 0.0
C1084 C 0.356 0.01062 0.6864 0.0
C1085 C 0.37324 0.01817 0.70343 0.0
H1086 H 0.36078 0.03582 0.70378 0.0
H1087 H 0.34968 0.00375 0.67871 0.0
C1088 C 0.30727 0.01669 0.65857 0.0
N1089 N 0.28621 0.00442 0.64187 0.0
C1090 C 0.30678 0.01954 0.64286 0.0
C1091 C 0.297 0.0077 0.66585 0.0
C1092 C 0.29606 0.01322 0.6346 0.0
C1093 C 0.28645 0.00157 0.65719 0.0
C1094 C 0.354 0.04589 0.68033 0.0
C1095 C 0.35822 0.05648 0.68887 0.0
C1096 C 0.36156 0.04467 0.6697 0.0
C1097 C 0.36995 0.06571 0.68659 0.0
C1098 C 0.37323 0.05409 0.66776 0.0
N1099 N 0.37715 0.06433 0.67617 0.0
C1100 C 0.32699 0.03722 0.71522 0.0
C1101 C 0.30791 0.02797 0.70322 0.0
C1102 C 0.32308 0.04189 0.7271 0.0
N1103 N 0.31941 0.03045 0.70359 0.0
C1104 C 0.30361 0.03244 0.71488 0.0
C1105 C 0.31126 0.0396 0.72697 0.0
H1106 H 0.33612 0.03909 0.71514 0.0
H1107 H 0.3021 0.02262 0.6938 0.0
C1108 C 0.33869 0.03687 0.62921 0.0
N1109 N 0.34008 0.04116 0.64413 0.0
C1110 C 0.34203 0.04463 0.61641 0.0
C1111 C 0.34845 0.06111 0.6346 0.0
C1112 C 0.34475 0.05301 0.64702 0.0
C1113 C 0.34702 0.05692 0.61909 0.0
H1114 H 0.3348 0.02738 0.62728 0.0
H1115 H 0.3455 0.05617 0.65896 0.0
O1116 O 0.32596 0.00986 0.69172 0.0
O1117 O 0.33735 0.01666 0.65912 0.0
O1118 O 0.31774 0.02269 0.66679 0.0
O1119 O 0.34251 0.03682 0.68242 0.0
H1120 H 0.33988 0.01716 0.71686 0.0
H1121 H 0.30341 0.99931 0.70106 0.0
H1122 H 0.33268 0.01482 0.74437 0.0
H1123 H 0.29683 0.99731 0.72885 0.0
H1124 H 0.36178 0.0166 0.62072 0.0
H1125 H 0.33096 0.99373 0.66061 0.0
H1126 H 0.35404 0.02701 0.63725 0.0
H1127 H 0.339 0.98389 0.64353 0.0
H1128 H 0.29419 0.96583 0.67388 0.0
H1129 H 0.29968 0.98035 0.62683 0.0
H1130 H 0.37752 0.03465 0.71543 0.0
H1131 H 0.36608 0.0018 0.68981 0.0
H1132 H 0.31458 0.02656 0.63709 0.0
H1133 H 0.29721 0.00533 0.67797 0.0
H1134 H 0.29558 0.0153 0.62241 0.0
H1135 H 0.27848 0.99451 0.66264 0.0
H1136 H 0.35247 0.05757 0.69714 0.0
H1137 H 0.35848 0.03652 0.6631 0.0
H1138 H 0.37333 0.07396 0.6931 0.0
H1139 H 0.37917 0.05325 0.65958 0.0
H1140 H 0.32934 0.0475 0.73604 0.0
H1141 H 0.2944 0.03034 0.71441 0.0
H1142 H 0.34078 0.0411 0.60457 0.0
H1143 H 0.35211 0.07052 0.63706 0.0
Li1144 Li 0.98934 0.31186 0.66681 0.0
Li1145 Li 0.9786 0.31995 0.67909 0.0
Li1146 Li 0.97356 0.29931 0.68531 0.0
Li1147 Li 0.96923 0.3047 0.65784 0.0
C1148 C 0.99694 0.31905 0.70051 0.0
N1149 N 0.01458 0.32875 0.72316 0.0
C1150 C 0.00367 0.33143 0.70251 0.0
C1151 C -0.00087 0.31161 0.71009 0.0
C1152 C 0.01257 0.33615 0.71401 0.0
C1153 C 0.00811 0.31669 0.72145 0.0
C1154 C 0.99222 0.32885 0.64754 0.0
C1155 C 0.00234 0.33448 0.62252 0.0
N1156 N 0.01191 0.3438 0.62957 0.0
C1157 C 0.00209 0.33856 0.65451 0.0
C1158 C 0.99229 0.32684 0.6314 0.0
C1159 C 0.01198 0.34598 0.64523 0.0
C1160 C 0.00539 0.31175 0.64432 0.0
N1161 N 0.00478 0.31557 0.65901 0.0
C1162 C 0.02603 0.32575 0.66131 0.0
C1163 C 0.01482 0.32242 0.66753 0.0
C1164 C 0.02696 0.32197 0.64615 0.0
C1165 C 0.01642 0.31478 0.63768 0.0
H1166 H 0.99731 0.30652 0.63762 0.0
H1167 H 0.01423 0.32561 0.67899 0.0
C1168 C 0.97849 0.33379 0.70446 0.0
N1169 N 0.97956 0.33365 0.68858 0.0
C1170 C 0.97963 0.34388 0.71198 0.0
C1171 C 0.98276 0.35342 0.68662 0.0
C1172 C 0.98154 0.34312 0.67958 0.0
C1173 C 0.98191 0.35393 0.70305 0.0
H1174 H 0.97688 0.32607 0.71128 0.0
H1175 H 0.9823 0.34272 0.66696 0.0
C1176 C 0.98215 0.28861 0.66081 0.0
N1177 N 0.99389 0.2762 0.6545 0.0
C1178 C 0.98024 0.28252 0.64656 0.0
C1179 C 0.98994 0.28831 0.6719 0.0
C1180 C 0.98628 0.27631 0.64358 0.0
C1181 C 0.99582 0.28202 0.66847 0.0
C1182 C 0.95577 0.30957 0.68527 0.0
C1183 C 0.95133 0.3067 0.7006 0.0
C1184 C 0.95377 0.31749 0.67644 0.0
C1185 C 0.94504 0.3119 0.7069 0.0
C1186 C 0.94745 0.32251 0.68317 0.0
N1187 N 0.94326 0.31964 0.69814 0.0
C1188 C 0.96762 0.29072 0.71617 0.0
C1189 C 0.96476 0.27604 0.69728 0.0
C1190 C 0.96324 0.28217 0.72809 0.0
N1191 N 0.96817 0.28749 0.70112 0.0
C1192 C 0.96049 0.26723 0.70886 0.0
C1193 C 0.95953 0.2702 0.72451 0.0
H1194 H 0.97043 0.29993 0.71885 0.0
H1195 H 0.96527 0.27372 0.6852 0.0
C1196 C 0.96149 0.29615 0.62695 0.0
N1197 N 0.9582 0.29871 0.64094 0.0
C1198 C 0.95328 0.29128 0.61464 0.0
C1199 C 0.93851 0.29196 0.63132 0.0
C1200 C 0.94696 0.29669 0.64332 0.0
C1201 C 0.94156 0.28907 0.61676 0.0
H1202 H 0.97046 0.29773 0.62543 0.0
H1203 H 0.9445 0.29862 0.65461 0.0
O1204 O 0.98809 0.31421 0.68945 0.0
O1205 O 0.9826 0.32128 0.65652 0.0
O1206 O 0.97647 0.29489 0.66386 0.0
O1207 O 0.96224 0.30484 0.67903 0.0
H1208 H 0.00213 0.33734 0.69521 0.0
H1209 H 0.99396 0.30202 0.70881 0.0
H1210 H 0.01787 0.34571 0.71564 0.0
H1211 H 0.00991 0.31104 0.72894 0.0
H1212 H 0.00256 0.33298 0.61004 0.0
H1213 H 0.00218 0.34023 0.66698 0.0
H1214 H 0.9847 0.3194 0.62582 0.0
H1215 H 0.01973 0.35346 0.6505 0.0
H1216 H 0.03389 0.33151 0.66817 0.0
H1217 H 0.01666 0.31155 0.62601 0.0
H1218 H 0.97873 0.34382 0.72465 0.0
H1219 H 0.98463 0.36099 0.67929 0.0
H1220 H 0.97419 0.2826 0.63789 0.0
H1221 H 0.99151 0.29299 0.68296 0.0
H1222 H 0.98493 0.27159 0.63258 0.0
H1223 H 0.00192 0.28177 0.67692 0.0
H1224 H 0.95275 0.30056 0.70756 0.0
H1225 H 0.95725 0.3199 0.6646 0.0
H1226 H 0.94159 0.30979 0.71877 0.0
H1227 H 0.94593 0.32873 0.67653 0.0
H1228 H 0.96251 0.2849 0.73988 0.0
H1229 H 0.95797 0.25819 0.70554 0.0
H1230 H 0.95601 0.28903 0.60373 0.0
H1231 H 0.92967 0.29059 0.63348 0.0
Li1232 Li 0.68152 0.67505 0.66586 0.0
Li1233 Li 0.67255 0.65551 0.67779 0.0
Li1234 Li 0.69354 0.67053 0.68174 0.0
Li1235 Li 0.68785 0.66098 0.65645 0.0
C1236 C 0.67613 0.679 0.69365 0.0
N1237 N 0.66971 0.69551 0.7027 0.0
C1238 C 0.66409 0.67574 0.6944 0.0
C1239 C 0.68489 0.6906 0.69769 0.0
C1240 C 0.66103 0.68423 0.69895 0.0
C1241 C 0.68147 0.69883 0.70219 0.0
C1242 C 0.66434 0.64966 0.64656 0.0
C1243 C 0.6558 0.62874 0.64058 0.0
N1244 N 0.64964 0.62994 0.62847 0.0
C1245 C 0.65795 0.6507 0.63406 0.0
C1246 C 0.66328 0.6386 0.64987 0.0
C1247 C 0.65055 0.64062 0.62505 0.0
C1248 C 0.68558 0.69814 0.65744 0.0
N1249 N 0.67735 0.68639 0.65913 0.0
C1250 C 0.66171 0.68985 0.65102 0.0
C1251 C 0.66561 0.68214 0.65602 0.0
C1252 C 0.67 0.70205 0.64914 0.0
C1253 C 0.68208 0.70618 0.65245 0.0
H1254 H 0.69485 0.70126 0.65994 0.0
H1255 H 0.65928 0.67273 0.65745 0.0
C1256 C 0.65726 0.63623 0.69813 0.0
N1257 N 0.65781 0.64347 0.68623 0.0
C1258 C 0.64629 0.62826 0.70497 0.0
C1259 C 0.63665 0.63504 0.68675 0.0
C1260 C 0.6478 0.64294 0.68039 0.0
C1261 C 0.63579 0.62769 0.69942 0.0
H1262 H 0.66533 0.63682 0.70256 0.0
H1263 H 0.64851 0.64886 0.67099 0.0
C1264 C 0.70965 0.6863 0.66091 0.0
N1265 N 0.73386 0.70252 0.66139 0.0
C1266 C 0.71755 0.68402 0.65241 0.0
C1267 C 0.71407 0.69687 0.66958 0.0
C1268 C 0.72975 0.69233 0.65282 0.0
C1269 C 0.72634 0.70494 0.66971 0.0
C1270 C 0.69439 0.65083 0.68494 0.0
C1271 C 0.70433 0.65152 0.67743 0.0
C1272 C 0.69275 0.64841 0.70106 0.0
C1273 C 0.71237 0.64964 0.68612 0.0
C1274 C 0.70103 0.64663 0.70935 0.0
N1275 N 0.71058 0.64726 0.70177 0.0
C1276 C 0.70295 0.67749 0.71241 0.0
C1277 C 0.71693 0.67825 0.6938 0.0
C1278 C 0.7112 0.68034 0.72457 0.0
N1279 N 0.7059 0.67639 0.69739 0.0
C1280 C 0.72548 0.68127 0.7055 0.0
C1281 C 0.7226 0.68212 0.72121 0.0
H1282 H 0.69403 0.67568 0.71506 0.0
H1283 H 0.719 0.67693 0.68196 0.0
C1284 C 0.69525 0.66242 0.6253 0.0
N1285 N 0.69197 0.65537 0.63826 0.0
C1286 C 0.69956 0.65944 0.61204 0.0
C1287 C 0.69636 0.64161 0.62541 0.0
C1288 C 0.69203 0.64491 0.63838 0.0
C1289 C 0.7005 0.64909 0.61215 0.0
H1290 H 0.69489 0.67059 0.62549 0.0
H1291 H 0.68912 0.63934 0.64875 0.0
O1292 O 0.67932 0.67092 0.68876 0.0
O1293 O 0.67166 0.65949 0.6554 0.0
O1294 O 0.69765 0.67831 0.66053 0.0
O1295 O 0.68651 0.65284 0.67667 0.0
H1296 H 0.65719 0.66681 0.69132 0.0
H1297 H 0.69424 0.69323 0.69731 0.0
H1298 H 0.65175 0.68187 0.69945 0.0
H1299 H 0.68816 0.70786 0.70527 0.0
H1300 H 0.65489 0.62012 0.64301 0.0
H1301 H 0.6587 0.65921 0.63134 0.0
H1302 H 0.66817 0.63762 0.65949 0.0
H1303 H 0.64554 0.64128 0.61534 0.0
H1304 H 0.65235 0.68625 0.64837 0.0
H1305 H 0.68874 0.71553 0.65129 0.0
H1306 H 0.6461 0.62288 0.71481 0.0
H1307 H 0.62881 0.63477 0.68187 0.0
H1308 H 0.71433 0.67587 0.64574 0.0
H1309 H 0.70813 0.69876 0.67629 0.0
H1310 H 0.73597 0.69065 0.64636 0.0
H1311 H 0.72988 0.71311 0.67644 0.0
H1312 H 0.70599 0.65376 0.66511 0.0
H1313 H 0.68535 0.64822 0.7072 0.0
H1314 H 0.72012 0.65019 0.68046 0.0
H1315 H 0.69991 0.64484 0.72184 0.0
H1316 H 0.7085 0.6807 0.73652 0.0
H1317 H 0.73419 0.68271 0.70227 0.0
H1318 H 0.70238 0.66532 0.60196 0.0
H1319 H 0.69696 0.63358 0.62608 0.0
Li1320 Li 0.34285 0.32339 0.68287 0.0
Li1321 Li 0.32688 0.30323 0.68915 0.0
Li1322 Li 0.33716 0.30764 0.66293 0.0
Li1323 Li 0.32291 0.31426 0.66928 0.0
C1324 C 0.35546 0.31197 0.68819 0.0
N1325 N 0.37879 0.31897 0.69589 0.0
C1326 C 0.35811 0.30881 0.70271 0.0
C1327 C 0.36467 0.31853 0.67751 0.0
C1328 C 0.36996 0.31247 0.70641 0.0
C1329 C 0.37641 0.32202 0.68163 0.0
C1330 C 0.32151 0.31732 0.70608 0.0
C1331 C 0.30381 0.31063 0.72189 0.0
N1332 N 0.31071 0.31476 0.735 0.0
C1333 C 0.32844 0.32163 0.71968 0.0
C1334 C 0.3091 0.31189 0.70716 0.0
C1335 C 0.32281 0.32019 0.7342 0.0
C1336 C 0.35771 0.34814 0.68355 0.0
N1337 N 0.35525 0.33797 0.69121 0.0
C1338 C 0.36904 0.3492 0.71161 0.0
C1339 C 0.36076 0.33828 0.70495 0.0
C1340 C 0.37167 0.35987 0.70402 0.0
C1341 C 0.366 0.35925 0.68971 0.0
H1342 H 0.35298 0.34764 0.67286 0.0
H1343 H 0.35845 0.33008 0.711 0.0
C1344 C 0.31026 0.28111 0.70299 0.0
N1345 N 0.32021 0.29183 0.70566 0.0
C1346 C 0.30556 0.27251 0.71483 0.0
C1347 C 0.32152 0.2861 0.73195 0.0
C1348 C 0.32583 0.29447 0.71981 0.0
C1349 C 0.31128 0.27489 0.72951 0.0
H1350 H 0.30604 0.27913 0.69159 0.0
H1351 H 0.3338 0.30302 0.72159 0.0
C1352 C 0.34481 0.32891 0.64643 0.0
N1353 N 0.35611 0.33938 0.61847 0.0
C1354 C 0.33811 0.32767 0.63296 0.0
C1355 C 0.35726 0.3357 0.64574 0.0
C1356 C 0.34399 0.33296 0.61892 0.0
C1357 C 0.36281 0.34086 0.63148 0.0
C1358 C 0.30889 0.29101 0.661 0.0
C1359 C 0.30787 0.28597 0.64612 0.0
C1360 C 0.29863 0.28926 0.6688 0.0
C1361 C 0.29661 0.27944 0.63919 0.0
C1362 C 0.28754 0.28269 0.66147 0.0
N1363 N 0.28677 0.27797 0.64693 0.0
C1364 C 0.34915 0.29616 0.65082 0.0
C1365 C 0.33942 0.30138 0.63155 0.0
C1366 C 0.3527 0.29081 0.63942 0.0
N1367 N 0.34268 0.30135 0.64673 0.0
C1368 C 0.34265 0.29601 0.61979 0.0
C1369 C 0.34931 0.29052 0.62366 0.0
H1370 H 0.35136 0.29592 0.663 0.0
H1371 H 0.33388 0.30514 0.62865 0.0
C1372 C 0.30985 0.32601 0.66963 0.0
N1373 N 0.31159 0.31812 0.66113 0.0
C1374 C 0.30204 0.32969 0.66427 0.0
C1375 C 0.298 0.31711 0.64141 0.0
C1376 C 0.30591 0.31369 0.64721 0.0
C1377 C 0.29601 0.32525 0.64996 0.0
H1378 H 0.31468 0.32959 0.68049 0.0
H1379 H 0.30762 0.30762 0.64049 0.0
O1380 O 0.34392 0.30861 0.68443 0.0
O1381 O 0.32686 0.31851 0.69178 0.0
O1382 O 0.33918 0.32384 0.66031 0.0
O1383 O 0.31986 0.29752 0.66792 0.0
H1384 H 0.35111 0.3036 0.71105 0.0
H1385 H 0.36274 0.32077 0.66609 0.0
H1386 H 0.37214 0.31015 0.71763 0.0
H1387 H 0.38361 0.32713 0.67347 0.0
H1388 H 0.29421 0.3064 0.7229 0.0
H1389 H 0.33804 0.3259 0.71907 0.0
H1390 H 0.30361 0.30875 0.69675 0.0
H1391 H 0.32807 0.32339 0.74483 0.0
H1392 H 0.37324 0.34932 0.72265 0.0
H1393 H 0.36763 0.36727 0.68363 0.0
H1394 H 0.29758 0.26406 0.71244 0.0
H1395 H 0.32637 0.28829 0.74294 0.0
H1396 H 0.32849 0.32256 0.63328 0.0
H1397 H 0.36261 0.3371 0.65612 0.0
H1398 H 0.3389 0.33197 0.60838 0.0
H1399 H 0.37243 0.3461 0.63078 0.0
H1400 H 0.31565 0.28704 0.64001 0.0
H1401 H 0.29922 0.29295 0.68037 0.0
H1402 H 0.29571 0.27554 0.62765 0.0
H1403 H 0.27954 0.28134 0.66735 0.0
H1404 H 0.35793 0.28681 0.64299 0.0
H1405 H 0.33956 0.29577 0.6079 0.0
H1406 H 0.30096 0.33615 0.6711 0.0
H1407 H 0.29348 0.3134 0.63038 0.0
Li1408 Li 0.67895 0.0191 0.68062 0.0
Li1409 Li 0.69874 0.02312 0.68817 0.0
Li1410 Li 0.69611 0.02968 0.66195 0.0
Li1411 Li 0.68848 0.00896 0.66826 0.0
C1412 C 0.69194 0.04436 0.68145 0.0
N1413 N 0.68862 0.06366 0.67758 0.0
C1414 C 0.69901 0.05492 0.68976 0.0
C1415 C 0.68319 0.04361 0.67114 0.0
C1416 C 0.69719 0.06458 0.68765 0.0
C1417 C 0.68165 0.05346 0.66936 0.0
C1418 C 0.68468 0.00502 0.7051 0.0
C1419 C 0.69222 0.99596 0.723 0.0
N1420 N 0.68839 -0.00015 0.73534 0.0
C1421 C 0.68075 0.00887 0.71795 0.0
C1422 C 0.6904 0.99845 0.70761 0.0
C1423 C 0.68273 0.00619 0.73315 0.0
C1424 C 0.65398 0.00879 0.68315 0.0
N1425 N 0.66457 0.01779 0.68848 0.0
C1426 C 0.65456 0.02439 0.70592 0.0
C1427 C 0.66506 0.02551 0.69972 0.0
C1428 C 0.64346 0.01516 0.70062 0.0
C1429 C 0.64326 0.0073 0.68905 0.0
H1430 H 0.65384 0.00266 0.67446 0.0
H1431 H 0.6736 0.03242 0.70407 0.0
C1432 C 0.71855 0.02574 0.70586 0.0
N1433 N 0.70939 0.028 0.70557 0.0
C1434 C 0.72674 0.02999 0.71822 0.0
C1435 C 0.71582 0.0387 0.72984 0.0
C1436 C 0.70784 0.03428 0.71725 0.0
C1437 C 0.72552 0.03669 0.73034 0.0
H1438 H 0.71963 0.02081 0.69639 0.0
H1439 H 0.70051 0.03601 0.71663 0.0
C1440 C 0.67628 0.00994 0.64379 0.0
N1441 N 0.66929 0.99674 0.61627 0.0
C1442 C 0.68389 0.01357 0.63074 0.0
C1443 C 0.66515 -0.00049 0.64284 0.0
C1444 C 0.68018 0.00682 0.61693 0.0
C1445 C 0.66178 0.99297 0.62884 0.0
C1446 C 0.71138 0.01737 0.65997 0.0
C1447 C 0.71605 0.02155 0.64498 0.0
C1448 C 0.71284 0.00839 0.66686 0.0
C1449 C 0.72205 0.01663 0.63711 0.0
C1450 C 0.71888 0.00369 0.65859 0.0
N1451 N 0.72332 0.00787 0.64401 0.0
C1452 C 0.71533 0.04979 0.64853 0.0
C1453 C 0.69683 0.0441 0.63619 0.0
C1454 C 0.72133 0.05911 0.63786 0.0
N1455 N 0.70336 0.0424 0.64732 0.0
C1456 C 0.70247 0.05328 0.62522 0.0
C1457 C 0.71492 0.06085 0.62584 0.0
H1458 H 0.72023 0.04833 0.65769 0.0
H1459 H 0.68728 0.03819 0.63567 0.0
C1460 C 0.67654 0.98388 0.6679 0.0
N1461 N 0.68453 0.99367 0.65971 0.0
C1462 C 0.67244 0.97246 0.6618 0.0
C1463 C 0.68495 0.98137 0.63902 0.0
C1464 C 0.68876 0.9926 0.64552 0.0
C1465 C 0.67658 0.97109 0.6471 0.0
H1466 H 0.67311 0.98496 0.679 0.0
H1467 H 0.69491 0.00044 0.63901 0.0
O1468 O 0.69372 0.03488 0.68328 0.0
O1469 O 0.68314 0.00785 0.69015 0.0
O1470 O 0.67983 0.01639 0.65749 0.0
O1471 O 0.70557 0.02215 0.6679 0.0
H1472 H 0.70585 0.05564 0.69773 0.0
H1473 H 0.67766 0.03551 0.66457 0.0
H1474 H 0.7026 0.07282 0.69401 0.0
H1475 H 0.67492 0.05301 0.66142 0.0
H1476 H 0.69668 0.99093 0.72512 0.0
H1477 H 0.67635 0.014 0.7162 0.0
H1478 H 0.69345 0.99537 0.69778 0.0
H1479 H 0.67981 0.00918 0.74322 0.0
H1480 H 0.65512 0.03051 0.71503 0.0
H1481 H 0.63491 0.00011 0.68457 0.0
H1482 H 0.73401 0.02812 0.71821 0.0
H1483 H 0.71461 0.04395 0.7388 0.0
H1484 H 0.6927 0.02134 0.63135 0.0
H1485 H 0.65923 0.99636 0.65284 0.0
H1486 H 0.68601 0.00952 0.6068 0.0
H1487 H 0.65321 0.98487 0.62798 0.0
H1488 H 0.71499 0.02846 0.63943 0.0
H1489 H 0.70919 0.00496 0.67837 0.0
H1490 H 0.72567 0.01976 0.62549 0.0
H1491 H 0.71999 0.99669 0.66375 0.0
H1492 H 0.73088 0.06488 0.63903 0.0
H1493 H 0.69718 0.05424 0.61612 0.0
H1494 H 0.66584 0.9648 0.66834 0.0
H1495 H 0.6885 0.98076 0.62774 0.0
Li1496 Li 0.97485 0.67368 0.68819 0.0
Li1497 Li 0.97772 0.65647 0.68088 0.0
Li1498 Li 0.99031 0.67594 0.66984 0.0
Li1499 Li 0.9704 0.66421 0.66119 0.0
C1500 C -0.00026 0.67629 0.69771 0.0
N1501 N 0.02321 0.68677 0.70737 0.0
C1502 C 0.00638 0.67072 0.69458 0.0
C1503 C 0.00499 0.68714 0.70582 0.0
C1504 C 0.01825 0.67618 0.69954 0.0
C1505 C 0.01688 0.69231 0.71059 0.0
C1506 C 0.95532 0.647 0.69011 0.0
C1507 C 0.94402 0.62555 0.69252 0.0
N1508 N 0.94117 0.62671 0.70757 0.0
C1509 C 0.9522 0.64797 0.70556 0.0
C1510 C 0.95112 0.6357 0.68349 0.0
C1511 C 0.94506 0.63761 0.7142 0.0
C1512 C 0.96276 0.68471 0.70127 0.0
N1513 N 0.97012 0.68034 0.70452 0.0
C1514 C 0.96958 0.68401 0.73195 0.0
C1515 C 0.97365 0.68 0.71945 0.0
C1516 C 0.9619 0.68849 0.72899 0.0
C1517 C 0.95861 0.68896 0.7134 0.0
H1518 H 0.96 0.68472 0.68927 0.0
H1519 H 0.97938 0.67632 0.72167 0.0
C1520 C 0.98026 0.63595 0.68096 0.0
N1521 N 0.97776 0.64313 0.68989 0.0
C1522 C 0.98096 0.62656 0.68787 0.0
C1523 C 0.97656 0.6322 0.71305 0.0
C1524 C 0.97599 0.64149 0.70565 0.0
C1525 C 0.97917 0.62464 0.70416 0.0
H1526 H 0.98201 0.63769 0.66854 0.0
H1527 H 0.97427 0.64752 0.7125 0.0
C1528 C 0.98537 0.69305 0.66243 0.0
N1529 N -0.00077 0.71652 0.65292 0.0
C1530 C 0.99062 0.69571 0.64751 0.0
C1531 C 0.98715 0.70236 0.67249 0.0
C1532 C 0.99761 0.70762 0.64293 0.0
C1533 C 0.99418 0.71416 0.66747 0.0
C1534 C 0.98077 0.65581 0.64414 0.0
C1535 C 0.98661 0.66309 0.63121 0.0
C1536 C 0.97196 0.64392 0.64169 0.0
C1537 C 0.9835 0.65834 0.61605 0.0
C1538 C 0.96909 0.63952 0.62635 0.0
N1539 N 0.97487 0.64676 0.61395 0.0
C1540 C 0.01225 0.68219 0.65546 0.0
C1541 C 0.0125 0.69818 0.66936 0.0
C1542 C 0.02405 0.68953 0.65072 0.0
N1543 N 0.00663 0.68667 0.66425 0.0
C1544 C 0.0243 0.70586 0.66484 0.0
C1545 C 0.03016 0.70159 0.65522 0.0
H1546 H 0.00756 0.67289 0.65208 0.0
H1547 H 0.00805 0.70141 0.67696 0.0
C1548 C 0.94828 0.65048 0.64557 0.0
N1549 N 0.95947 0.66001 0.64406 0.0
C1550 C 0.94007 0.64727 0.6333 0.0
C1551 C 0.95509 0.66373 0.61811 0.0
C1552 C 0.96296 0.66664 0.6307 0.0
C1553 C 0.94343 0.65398 0.61935 0.0
H1554 H 0.94565 0.64544 0.65637 0.0
H1555 H 0.97187 0.67418 0.62975 0.0
O1556 O 0.98822 0.67124 0.6926 0.0
O1557 O 0.96247 0.65705 0.68154 0.0
O1558 O 0.97844 0.68144 0.66713 0.0
O1559 O 0.98352 0.66035 0.65909 0.0
H1560 H 0.00246 0.66235 0.68823 0.0
H1561 H -2e-05 0.69159 0.70822 0.0
H1562 H 0.02353 0.67202 0.69712 0.0
H1563 H 0.02109 0.70074 0.7168 0.0
H1564 H 0.94079 0.61676 0.68757 0.0
H1565 H 0.95526 0.65661 0.71087 0.0
H1566 H 0.95342 0.63475 0.67157 0.0
H1567 H 0.94262 0.63824 0.72619 0.0
H1568 H 0.97234 0.68353 0.74382 0.0
H1569 H 0.95257 0.69221 0.71068 0.0
H1570 H 0.98323 0.62111 0.68063 0.0
H1571 H 0.97503 0.63099 0.72561 0.0
H1572 H 0.98958 0.68868 0.63967 0.0
H1573 H 0.98326 0.70052 0.68411 0.0
H1574 H 0.00181 0.70979 0.63147 0.0
H1575 H 0.99566 0.72143 0.67516 0.0
H1576 H 0.99334 0.67235 0.63281 0.0
H1577 H 0.9673 0.63816 0.65151 0.0
H1578 H 0.9879 0.6639 0.60595 0.0
H1579 H 0.96224 0.63035 0.6243 0.0
H1580 H 0.02825 0.68587 0.64333 0.0
H1581 H 0.02879 0.71503 0.66888 0.0
H1582 H 0.93112 0.63981 0.63488 0.0
H1583 H 0.95812 0.66907 0.60752 0.0
H1584 H 0.13953 0.308 0.17604 0.0
H1585 H 0.12344 0.3083 0.19076 0.0
H1586 H 0.09747 0.27707 0.16546 0.0
H1587 H 0.11365 0.27685 0.1506 0.0
H1588 H 0.14618 0.29115 0.17403 0.0
H1589 H 0.13446 0.31232 0.14121 0.0
H1590 H 0.1218 0.31751 0.12596 0.0
H1591 H 0.11168 0.28695 0.0959 0.0
H1592 H 0.12416 0.28159 0.1116 0.0
H1593 H 0.15997 0.28057 0.11434 0.0
H1594 H 0.17815 0.28568 0.09931 0.0
H1595 H 0.19707 0.31902 0.12466 0.0
H1596 H 0.17896 0.31386 0.13961 0.0
H1597 H 0.14868 0.29547 0.11597 0.0
H1598 H 0.16649 0.27864 0.15084 0.0
H1599 H 0.18332 0.28009 0.16586 0.0
H1600 H 0.18555 0.30974 0.1921 0.0
H1601 H 0.16893 0.30839 0.17692 0.0
C1602 C 0.12776 0.29241 0.16225 0.0
C1603 C 0.13038 0.30119 0.1737 0.0
C1604 C 0.12119 0.30141 0.182 0.0
C1605 C 0.10924 0.29274 0.17917 0.0
C1606 C 0.10662 0.28383 0.16787 0.0
C1607 C 0.11583 0.28371 0.15938 0.0
C1608 C 0.13758 0.29255 0.15316 0.0
C1609 C 0.14669 0.29201 0.16133 0.0
C1610 C 0.13828 0.29378 0.13661 0.0
C1611 C 0.13009 0.29646 0.1277 0.0
C1612 C 0.12935 0.30661 0.13152 0.0
C1613 C 0.12223 0.30965 0.12266 0.0
C1614 C 0.11579 0.30267 0.10968 0.0
C1615 C 0.11645 0.29244 0.10593 0.0
C1616 C 0.12361 0.2894 0.11483 0.0
C1617 C 0.1682 0.2968 0.12813 0.0
C1618 C 0.16807 0.28893 0.11667 0.0
C1619 C 0.17843 0.29184 0.10817 0.0
C1620 C 0.18897 0.30276 0.11082 0.0
C1621 C 0.18904 0.3106 0.1223 0.0
C1622 C 0.17874 0.30763 0.1309 0.0
C1623 C 0.15723 0.29402 0.13684 0.0
C1624 C 0.14792 0.29412 0.1286 0.0
C1625 C 0.15661 0.29294 0.1534 0.0
C1626 C 0.1665 0.29344 0.16273 0.0
C1627 C 0.17064 0.28546 0.15981 0.0
C1628 C 0.18019 0.28625 0.16845 0.0
C1629 C 0.18578 0.29507 0.18009 0.0
C1630 C 0.18153 0.30296 0.18306 0.0
C1631 C 0.17197 0.30213 0.1745 0.0
H1632 H 0.72466 0.87823 0.16522 0.0
H1633 H 0.72361 0.89247 0.18329 0.0
H1634 H 0.68648 0.87806 0.17135 0.0
H1635 H 0.68754 0.8638 0.15351 0.0
H1636 H 0.71102 0.85347 0.1679 0.0
H1637 H 0.71702 0.88341 0.12922 0.0
H1638 H 0.71221 0.89692 0.11515 0.0
H1639 H 0.67803 0.86693 0.10201 0.0
H1640 H 0.68289 0.85351 0.11601 0.0
H1641 H 0.68346 0.82518 0.11651 0.0
H1642 H 0.67893 0.80689 0.1027 0.0
H1643 H 0.71464 0.81378 0.1121 0.0
H1644 H 0.71902 0.83203 0.12626 0.0
H1645 H 0.69949 0.84805 0.11162 0.0
H1646 H 0.69037 0.81871 0.1504 0.0
H1647 H 0.69127 0.80361 0.16647 0.0
H1648 H 0.72642 0.82991 0.1825 0.0
H1649 H 0.72571 0.84498 0.16586 0.0
C1650 C 0.70621 0.87004 0.15795 0.0
C1651 C 0.71635 0.87825 0.1664 0.0
C1652 C 0.71575 0.8864 0.17663 0.0
C1653 C 0.70495 0.88634 0.17874 0.0
C1654 C 0.69489 0.87824 0.17004 0.0
C1655 C 0.69551 0.87017 0.15976 0.0
C1656 C 0.7065 0.86074 0.14811 0.0
C1657 C 0.70883 0.85245 0.15547 0.0
C1658 C 0.70312 0.85916 0.13209 0.0
C1659 C 0.70031 0.86746 0.1237 0.0
C1660 C 0.70847 0.87977 0.12338 0.0
C1661 C 0.7057 0.88748 0.11536 0.0
C1662 C 0.69476 0.88298 0.10743 0.0
C1663 C 0.68662 0.87065 0.10778 0.0
C1664 C 0.68937 0.86297 0.11581 0.0
C1665 C 0.70156 0.82994 0.12244 0.0
C1666 C 0.69035 0.82281 0.11546 0.0
C1667 C 0.68779 0.81237 0.10752 0.0
C1668 C 0.69643 0.80887 0.10624 0.0
C1669 C 0.70774 0.81613 0.11304 0.0
C1670 C 0.71028 0.82658 0.12107 0.0
C1671 C 0.70388 0.84069 0.13145 0.0
C1672 C 0.70202 0.84924 0.12393 0.0
C1673 C 0.70728 0.84227 0.14747 0.0
C1674 C 0.70809 0.83295 0.15662 0.0
C1675 C 0.69843 0.82119 0.15698 0.0
C1676 C 0.69892 0.81256 0.16622 0.0
C1677 C 0.70894 0.8156 0.17562 0.0
C1678 C 0.7186 0.82736 0.17534 0.0
C1679 C 0.71819 0.83595 0.16586 0.0
H1680 H 0.11637 0.84741 0.16698 0.0
H1681 H 0.10073 0.83153 0.18293 0.0
H1682 H 0.11202 0.80711 0.16664 0.0
H1683 H 0.12753 0.82297 0.15069 0.0
H1684 H 0.1406 0.85668 0.16901 0.0
H1685 H 0.10976 0.83527 0.13026 0.0
H1686 H 0.0955 0.8173 0.11585 0.0
H1687 H 0.12461 0.81342 0.09804 0.0
H1688 H 0.13877 0.83111 0.11272 0.0
H1689 H 0.16709 0.85827 0.11434 0.0
H1690 H 0.1855 0.87192 0.10062 0.0
H1691 H 0.18262 0.90188 0.11737 0.0
H1692 H 0.164 0.88812 0.13096 0.0
H1693 H 0.14518 0.85319 0.11168 0.0
H1694 H 0.17505 0.87012 0.15136 0.0
H1695 H 0.19063 0.88524 0.16812 0.0
H1696 H 0.16561 0.89525 0.18582 0.0
H1697 H 0.15008 0.8803 0.16869 0.0
C1698 C 0.12301 0.83633 0.15751 0.0
C1699 C 0.11541 0.83861 0.16681 0.0
C1700 C 0.10651 0.82954 0.17595 0.0
C1701 C 0.1051 0.81804 0.17602 0.0
C1702 C 0.11271 0.81579 0.16663 0.0
C1703 C 0.1216 0.82486 0.15753 0.0
C1704 C 0.13274 0.84605 0.14829 0.0
C1705 C 0.14149 0.85607 0.15641 0.0
C1706 C 0.13407 0.84501 0.13194 0.0
C1707 C 0.12534 0.83449 0.1227 0.0
C1708 C 0.11306 0.83051 0.12333 0.0
C1709 C 0.10493 0.82028 0.11508 0.0
C1710 C 0.10898 0.81401 0.10583 0.0
C1711 C 0.12127 0.81817 0.10493 0.0
C1712 C 0.12936 0.82828 0.11332 0.0
C1713 C 0.16418 0.87216 0.12376 0.0
C1714 C 0.17032 0.86777 0.11491 0.0
C1715 C 0.18084 0.87557 0.10706 0.0
C1716 C 0.18548 0.88796 0.10792 0.0
C1717 C 0.17929 0.89238 0.11664 0.0
C1718 C 0.16867 0.88453 0.1244 0.0
C1719 C 0.15323 0.86368 0.13246 0.0
C1720 C 0.1442 0.85394 0.12424 0.0
C1721 C 0.15186 0.86476 0.1488 0.0
C1722 C 0.16144 0.87422 0.15855 0.0
C1723 C 0.17297 0.87574 0.15858 0.0
C1724 C 0.18186 0.88436 0.16818 0.0
C1725 C 0.17932 0.89144 0.1782 0.0
C1726 C 0.16778 0.88987 0.17824 0.0
C1727 C 0.15893 0.88136 0.16847 0.0
H1728 H 0.27335 0.15484 0.85133 0.0
H1729 H 0.27226 0.17008 0.8355 0.0
H1730 H 0.30841 0.19579 0.84879 0.0
H1731 H 0.30959 0.18053 0.86415 0.0
H1732 H 0.28761 0.14564 0.84816 0.0
H1733 H 0.28133 0.16797 0.88961 0.0
H1734 H 0.28612 0.18653 0.90321 0.0
H1735 H 0.32186 0.19328 0.91182 0.0
H1736 H 0.31697 0.17471 0.89844 0.0
H1737 H 0.31756 0.14601 0.89744 0.0
H1738 H 0.32289 0.1326 0.91058 0.0
H1739 H 0.28773 0.10282 0.90086 0.0
H1740 H 0.28233 0.11637 0.88805 0.0
H1741 H 0.30119 0.15198 0.90366 0.0
H1742 H 0.3105 0.13389 0.8616 0.0
H1743 H 0.30975 0.11815 0.84501 0.0
H1744 H 0.27259 0.10553 0.83505 0.0
H1745 H 0.27341 0.12138 0.85173 0.0
C1746 C 0.29147 0.16659 0.85918 0.0
C1747 C 0.28102 0.16377 0.85086 0.0
C1748 C 0.28041 0.17246 0.84184 0.0
C1749 C 0.29021 0.18413 0.84107 0.0
C1750 C 0.30064 0.18693 0.84943 0.0
C1751 C 0.30131 0.17822 0.85825 0.0
C1752 C 0.29233 0.15728 0.86827 0.0
C1753 C 0.29027 0.14687 0.86042 0.0
C1754 C 0.29624 0.15909 0.8841 0.0
C1755 C 0.29881 0.16999 0.89297 0.0
C1756 C 0.29017 0.17345 0.89448 0.0
C1757 C 0.29294 0.18407 0.90219 0.0
C1758 C 0.30438 0.19139 0.90858 0.0
C1759 C 0.31292 0.18777 0.90726 0.0
C1760 C 0.31014 0.17716 0.89958 0.0
C1761 C 0.29957 0.13218 0.89171 0.0
C1762 C 0.31096 0.1366 0.89824 0.0
C1763 C 0.31404 0.12892 0.9056 0.0
C1764 C 0.30575 0.11664 0.90665 0.0
C1765 C 0.29427 0.11224 0.90031 0.0
C1766 C 0.29121 0.11995 0.8929 0.0
C1767 C 0.29659 0.14042 0.88349 0.0
C1768 C 0.29821 0.15059 0.89152 0.0
C1769 C 0.29261 0.13855 0.86772 0.0
C1770 C 0.29196 0.1287 0.85808 0.0
C1771 C 0.30213 0.12762 0.85606 0.0
C1772 C 0.30169 0.1186 0.84658 0.0
C1773 C 0.29109 0.11054 0.83878 0.0
C1774 C 0.2809 0.11165 0.84081 0.0
C1775 C 0.28135 0.12066 0.85036 0.0
H1776 H 0.84666 0.11803 0.85105 0.0
H1777 H 0.83061 0.10241 0.83523 0.0
H1778 H 0.80698 0.11511 0.84995 0.0
H1779 H 0.823 0.13063 0.86569 0.0
H1780 H 0.85683 0.14243 0.84852 0.0
H1781 H 0.83445 0.11236 0.88855 0.0
H1782 H 0.81619 0.09881 0.90292 0.0
H1783 H 0.81203 0.12874 0.91623 0.0
H1784 H 0.83025 0.14218 0.902 0.0
H1785 H 0.85895 0.1696 0.90305 0.0
H1786 H 0.87296 0.18744 0.91754 0.0
H1787 H 0.90218 0.1831 0.90135 0.0
H1788 H 0.88803 0.16499 0.88705 0.0
H1789 H 0.85266 0.14759 0.90552 0.0
H1790 H 0.87147 0.17723 0.86629 0.0
H1791 H 0.88705 0.19241 0.84963 0.0
H1792 H 0.89542 0.16621 0.83189 0.0
H1793 H 0.88006 0.15107 0.84901 0.0
C1794 C 0.83598 0.12538 0.85972 0.0
C1795 C 0.838 0.1174 0.85089 0.0
C1796 C 0.82884 0.10851 0.84184 0.0
C1797 C 0.8175 0.10748 0.8414 0.0
C1798 C 0.81553 0.1155 0.85026 0.0
C1799 C 0.82469 0.1244 0.85926 0.0
C1800 C 0.84576 0.13502 0.86899 0.0
C1801 C 0.85608 0.14345 0.86107 0.0
C1802 C 0.84453 0.13656 0.88521 0.0
C1803 C 0.83368 0.12826 0.89417 0.0
C1804 C 0.82958 0.11597 0.89456 0.0
C1805 C 0.81914 0.10825 0.90274 0.0
C1806 C 0.81268 0.11271 0.91074 0.0
C1807 C 0.8169 0.12504 0.91043 0.0
C1808 C 0.8273 0.13273 0.90226 0.0
C1809 C 0.87242 0.16596 0.8939 0.0
C1810 C 0.86835 0.17238 0.90274 0.0
C1811 C 0.87636 0.18257 0.91103 0.0
C1812 C 0.88865 0.18662 0.91061 0.0
C1813 C 0.89276 0.1802 0.90178 0.0
C1814 C 0.88469 0.16989 0.8936 0.0
C1815 C 0.86369 0.1552 0.88503 0.0
C1816 C 0.85359 0.14651 0.89304 0.0
C1817 C 0.86494 0.15369 0.86876 0.0
C1818 C 0.87473 0.16304 0.85914 0.0
C1819 C 0.87684 0.17479 0.85913 0.0
C1820 C 0.88572 0.18346 0.84957 0.0
C1821 C 0.89245 0.18047 0.83955 0.0
C1822 C 0.89032 0.16872 0.8395 0.0
C1823 C 0.88156 0.16009 0.84925 0.0
H1824 H 0.82944 0.68722 0.84045 0.0
H1825 H 0.8135 0.68548 0.82356 0.0
H1826 H 0.8164 0.71717 0.84495 0.0
H1827 H 0.83207 0.7185 0.86236 0.0
H1828 H 0.85265 0.70517 0.84362 0.0
H1829 H 0.81764 0.68407 0.87358 0.0
H1830 H 0.79893 0.67945 0.88631 0.0
H1831 H 0.81792 0.71026 0.91642 0.0
H1832 H 0.83671 0.715 0.90337 0.0
H1833 H 0.8729 0.71654 0.90651 0.0
H1834 H 0.88531 0.71193 0.92366 0.0
H1835 H 0.87472 0.67964 0.89715 0.0
H1836 H 0.86232 0.68421 0.88028 0.0
H1837 H 0.84761 0.70156 0.90158 0.0
H1838 H 0.884 0.72055 0.86866 0.0
H1839 H 0.90081 0.72092 0.85465 0.0
H1840 H 0.87623 0.68823 0.83077 0.0
H1841 H 0.85952 0.68798 0.84459 0.0
C1842 C 0.83194 0.703 0.8526 0.0
C1843 C 0.82668 0.69383 0.84143 0.0
C1844 C 0.81759 0.69289 0.83172 0.0
C1845 C 0.8137 0.70125 0.83275 0.0
C1846 C 0.81906 0.7105 0.84394 0.0
C1847 C 0.82807 0.71133 0.85382 0.0
C1848 C 0.84131 0.70359 0.86312 0.0
C1849 C 0.85157 0.70447 0.85631 0.0
C1850 C 0.83989 0.70263 0.87964 0.0
C1851 C 0.82854 0.70004 0.88728 0.0
C1852 C 0.81777 0.68999 0.88269 0.0
C1853 C 0.80708 0.68734 0.89 0.0
C1854 C 0.80696 0.69456 0.90226 0.0
C1855 C 0.81777 0.70453 0.90702 0.0
C1856 C 0.82848 0.70726 0.89957 0.0
C1857 C 0.86683 0.70078 0.89204 0.0
C1858 C 0.87333 0.70851 0.9044 0.0
C1859 C 0.88042 0.70589 0.91412 0.0
C1860 C 0.88093 0.69541 0.91176 0.0
C1861 C 0.8744 0.68772 0.89936 0.0
C1862 C 0.86741 0.69037 0.88961 0.0
C1863 C 0.85892 0.70314 0.88205 0.0
C1864 C 0.84888 0.70275 0.88896 0.0
C1865 C 0.86032 0.70411 0.86556 0.0
C1866 C 0.87055 0.70425 0.8576 0.0
C1867 C 0.88227 0.71346 0.86044 0.0
C1868 C 0.89183 0.71368 0.85244 0.0
C1869 C 0.88978 0.70458 0.8417 0.0
C1870 C 0.87805 0.69528 0.83911 0.0
C1871 C 0.86851 0.69517 0.84689 0.0
H1872 H 0.80579 0.64142 0.50602 0.0
H1873 H 0.79039 0.64284 0.5207 0.0
H1874 H 0.76331 0.61581 0.49087 0.0
H1875 H 0.77884 0.6142 0.47635 0.0
H1876 H 0.81107 0.62482 0.50115 0.0
H1877 H 0.80065 0.64832 0.47115 0.0
H1878 H 0.78726 0.65371 0.45811 0.0
H1879 H 0.77745 0.62513 0.42466 0.0
H1880 H 0.79071 0.61953 0.43809 0.0
H1881 H 0.82506 0.61754 0.43927 0.0
H1882 H 0.8434 0.62174 0.42542 0.0
H1883 H 0.86379 0.65207 0.45582 0.0
H1884 H 0.8455 0.64794 0.46943 0.0
H1885 H 0.81496 0.63234 0.44366 0.0
H1886 H 0.83274 0.61408 0.47793 0.0
H1887 H 0.84992 0.61631 0.49303 0.0
H1888 H 0.85023 0.64482 0.51989 0.0
H1889 H 0.83334 0.6427 0.50473 0.0
C1890 C 0.79348 0.62773 0.49005 0.0
C1891 C 0.79653 0.63567 0.50275 0.0
C1892 C 0.78773 0.63658 0.51101 0.0
C1893 C 0.77566 0.62955 0.5068 0.0
C1894 C 0.77254 0.62133 0.49438 0.0
C1895 C 0.7814 0.62044 0.48605 0.0
C1896 C 0.80309 0.62764 0.48065 0.0
C1897 C 0.81185 0.62634 0.48855 0.0
C1898 C 0.80425 0.62989 0.46426 0.0
C1899 C 0.79643 0.63332 0.45584 0.0
C1900 C 0.7955 0.64309 0.46115 0.0
C1901 C 0.78787 0.64618 0.45368 0.0
C1902 C 0.78123 0.63974 0.44051 0.0
C1903 C 0.78248 0.63023 0.43482 0.0
C1904 C 0.79002 0.62702 0.44246 0.0
C1905 C 0.83397 0.63227 0.45558 0.0
C1906 C 0.83349 0.62511 0.44289 0.0
C1907 C 0.84395 0.62753 0.43498 0.0
C1908 C 0.85503 0.63715 0.43967 0.0
C1909 C 0.85542 0.64445 0.45216 0.0
C1910 C 0.84498 0.6421 0.45995 0.0
C1911 C 0.82297 0.62961 0.46423 0.0
C1912 C 0.81392 0.63035 0.45615 0.0
C1913 C 0.82195 0.62766 0.48067 0.0
C1914 C 0.83179 0.62825 0.4902 0.0
C1915 C 0.83652 0.62077 0.48711 0.0
C1916 C 0.84628 0.62203 0.49575 0.0
C1917 C 0.85147 0.63083 0.5075 0.0
C1918 C 0.84655 0.6381 0.51072 0.0
C1919 C 0.83681 0.63681 0.50219 0.0
H1920 H 0.3859 0.20878 0.5004 0.0
H1921 H 0.3838 0.22266 0.51773 0.0
H1922 H 0.35105 0.21451 0.49401 0.0
H1923 H 0.35283 0.2001 0.47747 0.0
H1924 H 0.37167 0.18535 0.49823 0.0
H1925 H 0.38415 0.21848 0.4617 0.0
H1926 H 0.38098 0.23337 0.44826 0.0
H1927 H 0.34879 0.20506 0.42726 0.0
H1928 H 0.35199 0.19029 0.44067 0.0
H1929 H 0.35195 0.16137 0.44069 0.0
H1930 H 0.3489 0.14359 0.42685 0.0
H1931 H 0.38242 0.14904 0.44512 0.0
H1932 H 0.38525 0.16677 0.45928 0.0
H1933 H 0.36869 0.18452 0.44007 0.0
H1934 H 0.35379 0.15202 0.47538 0.0
H1935 H 0.35259 0.13558 0.49053 0.0
H1936 H 0.38419 0.16046 0.51635 0.0
H1937 H 0.38593 0.17671 0.50006 0.0
C1938 C 0.36962 0.2035 0.48749 0.0
C1939 C 0.37829 0.21001 0.49893 0.0
C1940 C 0.37712 0.21804 0.50873 0.0
C1941 C 0.36726 0.21975 0.50727 0.0
C1942 C 0.35868 0.21333 0.49562 0.0
C1943 C 0.35978 0.2052 0.48597 0.0
C1944 C 0.37051 0.19445 0.47775 0.0
C1945 C 0.37134 0.18533 0.48548 0.0
C1946 C 0.36958 0.19417 0.46115 0.0
C1947 C 0.36826 0.20327 0.45228 0.0
C1948 C 0.37644 0.2155 0.45416 0.0
C1949 C 0.3746 0.22399 0.44651 0.0
C1950 C 0.36462 0.22038 0.43672 0.0
C1951 C 0.35665 0.20813 0.43453 0.0
C1952 C 0.35846 0.19967 0.44222 0.0
C1953 C 0.36878 0.16534 0.45108 0.0
C1954 C 0.35872 0.15884 0.44153 0.0
C1955 C 0.35702 0.14868 0.43358 0.0
C1956 C 0.36541 0.14486 0.43487 0.0
C1957 C 0.37569 0.15163 0.44406 0.0
C1958 C 0.37737 0.16179 0.45208 0.0
C1959 C 0.36986 0.17544 0.46056 0.0
C1960 C 0.36938 0.18473 0.45279 0.0
C1961 C 0.37076 0.17569 0.47716 0.0
C1962 C 0.37012 0.1656 0.48628 0.0
C1963 C 0.36067 0.1539 0.48398 0.0
C1964 C 0.35987 0.1445 0.49291 0.0
C1965 C 0.36827 0.14662 0.50478 0.0
C1966 C 0.37768 0.15839 0.50714 0.0
C1967 C 0.37862 0.16775 0.49795 0.0
H1968 H 0.78824 0.17769 0.49626 0.0
H1969 H 0.77515 0.16224 0.51486 0.0
H1970 H 0.7866 0.1386 0.49595 0.0
H1971 H 0.80005 0.15425 0.47799 0.0
H1972 H 0.81217 0.18833 0.49539 0.0
H1973 H 0.7801 0.16426 0.45862 0.0
H1974 H 0.76622 0.1454 0.44568 0.0
H1975 H 0.7961 0.14305 0.42724 0.0
H1976 H 0.80984 0.16158 0.44064 0.0
H1977 H 0.83749 0.19031 0.43992 0.0
H1978 H 0.85519 0.20453 0.42543 0.0
H1979 H 0.84913 0.2331 0.43979 0.0
H1980 H 0.83147 0.21875 0.45457 0.0
H1981 H 0.81453 0.1834 0.4379 0.0
H1982 H 0.84566 0.20234 0.47496 0.0
H1983 H 0.86161 0.2177 0.49097 0.0
H1984 H 0.83675 0.22726 0.51055 0.0
H1985 H 0.82081 0.21197 0.49424 0.0
C1986 C 0.79502 0.16709 0.48561 0.0
C1987 C 0.78784 0.16914 0.49607 0.0
C1988 C 0.78031 0.16026 0.50661 0.0
C1989 C 0.77984 0.14918 0.50692 0.0
C1990 C 0.78685 0.14708 0.49617 0.0
C1991 C 0.79443 0.15597 0.48572 0.0
C1992 C 0.80382 0.17686 0.47545 0.0
C1993 C 0.81249 0.1874 0.48275 0.0
C1994 C 0.80455 0.1754 0.45906 0.0
C1995 C 0.79601 0.16429 0.4507 0.0
C1996 C 0.78364 0.15964 0.45185 0.0
C1997 C 0.77573 0.14892 0.44434 0.0
C1998 C 0.78006 0.14269 0.43551 0.0
C1999 C 0.79246 0.14751 0.43416 0.0
C2000 C 0.80034 0.15818 0.44168 0.0
C2001 C 0.83319 0.20348 0.44836 0.0
C2002 C 0.83989 0.19961 0.4398 0.0
C2003 C 0.84999 0.20776 0.43147 0.0
C2004 C 0.85357 0.21996 0.43141 0.0
C2005 C 0.8467 0.22379 0.43976 0.0
C2006 C 0.83659 0.21561 0.44815 0.0
C2007 C 0.82292 0.19478 0.45789 0.0
C2008 C 0.81398 0.18448 0.45048 0.0
C2009 C 0.82222 0.19623 0.47427 0.0
C2010 C 0.83206 0.20613 0.48319 0.0
C2011 C 0.84369 0.20793 0.48238 0.0
C2012 C 0.8528 0.21671 0.49157 0.0
C2013 C 0.85043 0.2237 0.50197 0.0
C2014 C 0.83881 0.22195 0.50269 0.0
C2015 C 0.82972 0.21325 0.49337 0.0
H2016 H 0.96824 0.50028 0.1808 0.0
H2017 H 0.96736 0.51483 0.1634 0.0
H2018 H 0.00299 0.54138 0.17773 0.0
H2019 H 0.00396 0.52668 0.19466 0.0
H2020 H 0.98347 0.49177 0.1791 0.0
H2021 H 0.9746 0.51424 0.21639 0.0
H2022 H 0.97788 0.53243 0.22965 0.0
H2023 H 0.01179 0.53845 0.2469 0.0
H2024 H 0.00868 0.52048 0.23327 0.0
H2025 H 0.00974 0.49087 0.23244 0.0
H2026 H 0.01323 0.47648 0.24651 0.0
H2027 H 0.97748 0.44849 0.23496 0.0
H2028 H 0.97419 0.46291 0.2206 0.0
H2029 H 0.99337 0.49809 0.23592 0.0
H2030 H 0.00488 0.4793 0.19735 0.0
H2031 H 0.00465 0.46305 0.18251 0.0
H2032 H 0.96883 0.45176 0.16669 0.0
H2033 H 0.96896 0.46781 0.18211 0.0
C2034 C 0.98612 0.51243 0.1891 0.0
C2035 C 0.97584 0.50925 0.18021 0.0
C2036 C 0.97531 0.5176 0.17038 0.0
C2037 C 0.9851 0.52926 0.1692 0.0
C2038 C 0.99534 0.53244 0.17826 0.0
C2039 C 0.99587 0.52409 0.18806 0.0
C2040 C 0.98685 0.5034 0.19896 0.0
C2041 C 0.98538 0.49303 0.1916 0.0
C2042 C 0.9898 0.50529 0.21514 0.0
C2043 C 0.99146 0.51606 0.22364 0.0
C2044 C 0.9828 0.51953 0.22288 0.0
C2045 C 0.98466 0.5299 0.23049 0.0
C2046 C 0.99509 0.53684 0.23926 0.0
C2047 C 0.00362 0.53321 0.24032 0.0
C2048 C 0.00184 0.52294 0.23254 0.0
C2049 C 0.99175 0.47792 0.22539 0.0
C2050 C 0.00263 0.48165 0.23307 0.0
C2051 C 0.00459 0.47342 0.24114 0.0
C2052 C 0.99565 0.46132 0.24181 0.0
C2053 C 0.98464 0.45769 0.23443 0.0
C2054 C 0.98271 0.46592 0.22629 0.0
C2055 C 0.99 0.48654 0.21603 0.0
C2056 C 0.99128 0.49678 0.22347 0.0
C2057 C 0.98714 0.48469 0.19985 0.0
C2058 C 0.98687 0.47468 0.19101 0.0
C2059 C 0.9969 0.47322 0.19089 0.0
C2060 C 0.99681 0.464 0.18225 0.0
C2061 C 0.98673 0.45611 0.17338 0.0
C2062 C 0.97668 0.45758 0.17355 0.0
C2063 C 0.97677 0.4668 0.18224 0.0
H2064 H 0.50997 0.4558 0.18542 0.0
H2065 H 0.49416 0.44159 0.1678 0.0
H2066 H 0.47378 0.45903 0.177 0.0
H2067 H 0.48952 0.47311 0.19461 0.0
H2068 H 0.52266 0.48167 0.1821 0.0
H2069 H 0.49702 0.45112 0.21895 0.0
H2070 H 0.47786 0.4377 0.23138 0.0
H2071 H 0.47551 0.46815 0.2474 0.0
H2072 H 0.49433 0.48146 0.23428 0.0
H2073 H 0.52353 0.50882 0.23542 0.0
H2074 H 0.53762 0.52684 0.24951 0.0
H2075 H 0.56615 0.51999 0.23804 0.0
H2076 H 0.55194 0.50189 0.22385 0.0
H2077 H 0.51596 0.48601 0.23859 0.0
H2078 H 0.53694 0.51585 0.20051 0.0
H2079 H 0.55361 0.53123 0.18547 0.0
H2080 H 0.56282 0.50512 0.16982 0.0
H2081 H 0.54621 0.48974 0.18524 0.0
C2082 C 0.50085 0.46542 0.19135 0.0
C2083 C 0.50205 0.45649 0.18368 0.0
C2084 C 0.49302 0.44837 0.17371 0.0
C2085 C 0.48279 0.44926 0.17105 0.0
C2086 C 0.48162 0.45821 0.17878 0.0
C2087 C 0.49056 0.4662 0.18888 0.0
C2088 C 0.51048 0.47426 0.20155 0.0
C2089 C 0.52136 0.48246 0.19456 0.0
C2090 C 0.50851 0.47552 0.21762 0.0
C2091 C 0.49706 0.4673 0.22554 0.0
C2092 C 0.49231 0.45489 0.22499 0.0
C2093 C 0.48141 0.44723 0.23226 0.0
C2094 C 0.47512 0.45185 0.24036 0.0
C2095 C 0.48 0.46429 0.24104 0.0
C2096 C 0.49084 0.47192 0.2337 0.0
C2097 C 0.53669 0.50404 0.22851 0.0
C2098 C 0.53279 0.51109 0.23612 0.0
C2099 C 0.54086 0.52139 0.2442 0.0
C2100 C 0.55301 0.52485 0.24489 0.0
C2101 C 0.55687 0.51764 0.23754 0.0
C2102 C 0.54877 0.50729 0.22948 0.0
C2103 C 0.52811 0.49358 0.2191 0.0
C2104 C 0.51743 0.48506 0.22623 0.0
C2105 C 0.53008 0.4923 0.203 0.0
C2106 C 0.54047 0.50168 0.19426 0.0
C2107 C 0.5427 0.51347 0.19415 0.0
C2108 C 0.55222 0.52225 0.18553 0.0
C2109 C 0.55956 0.51938 0.17658 0.0
C2110 C 0.55728 0.50757 0.1766 0.0
C2111 C 0.54782 0.4988 0.1854 0.0
H2112 H 0.52956 0.02936 0.18586 0.0
H2113 H 0.54559 0.0308 0.16891 0.0
H2114 H 0.53192 0.99299 0.17461 0.0
H2115 H 0.51592 0.99159 0.19138 0.0
H2116 H 0.50494 0.01553 0.18125 0.0
H2117 H 0.53344 0.02036 0.22021 0.0
H2118 H 0.5481 0.01642 0.23257 0.0
H2119 H 0.52064 0.97976 0.24034 0.0
H2120 H 0.50597 0.98384 0.22812 0.0
H2121 H 0.47432 0.98387 0.2286 0.0
H2122 H 0.45625 0.97957 0.24313 0.0
H2123 H 0.46615 0.0167 0.23996 0.0
H2124 H 0.48426 0.02096 0.22554 0.0
H2125 H 0.49813 0.99907 0.23536 0.0
H2126 H 0.46986 0.99393 0.19556 0.0
H2127 H 0.45561 0.99711 0.18066 0.0
H2128 H 0.48266 0.03398 0.17338 0.0
H2129 H 0.4969 0.03072 0.18833 0.0
C2130 C 0.52162 0.01039 0.18993 0.0
C2131 C 0.53006 0.02141 0.18346 0.0
C2132 C 0.53922 0.02222 0.17388 0.0
C2133 C 0.53997 0.012 0.17045 0.0
C2134 C 0.5315 0.00099 0.17696 0.0
C2135 C 0.52242 0.0002 0.18661 0.0
C2136 C 0.51176 0.00939 0.19985 0.0
C2137 C 0.50358 0.01218 0.19321 0.0
C2138 C 0.50986 0.00474 0.21527 0.0
C2139 C 0.51865 0.00236 0.22314 0.0
C2140 C 0.53059 0.01146 0.22453 0.0
C2141 C 0.53897 0.00918 0.23154 0.0
C2142 C 0.53556 0.99775 0.23734 0.0
C2143 C 0.52354 0.98869 0.23613 0.0
C2144 C 0.51515 0.99099 0.22913 0.0
C2145 C 0.48057 0.00271 0.22594 0.0
C2146 C 0.47262 0.99108 0.23113 0.0
C2147 C 0.46228 0.98863 0.23931 0.0
C2148 C 0.4598 0.9978 0.24261 0.0
C2149 C 0.4679 0.00948 0.23766 0.0
C2150 C 0.47819 0.01191 0.22936 0.0
C2151 C 0.49125 0.00514 0.21672 0.0
C2152 C 0.49958 0.00258 0.22349 0.0
C2153 C 0.49327 0.01001 0.2014 0.0
C2154 C 0.48442 0.01212 0.19318 0.0
C2155 C 0.47266 0.00276 0.19101 0.0
C2156 C 0.46452 0.00459 0.1825 0.0
C2157 C 0.46801 0.0158 0.17585 0.0
C2158 C 0.47974 0.02521 0.17822 0.0
C2159 C 0.48788 0.02338 0.18678 0.0
H2160 H 0.48816 0.0055 0.84515 0.0
H2161 H 0.47187 0.00335 0.86191 0.0
H2162 H 0.44688 0.9728 0.83453 0.0
H2163 H 0.46322 0.97519 0.8176 0.0
H2164 H 0.49609 0.99005 0.84037 0.0
H2165 H 0.48154 0.01039 0.80937 0.0
H2166 H 0.46676 0.01356 0.79586 0.0
H2167 H 0.45767 0.98306 0.76612 0.0
H2168 H 0.47264 0.98005 0.77961 0.0
H2169 H 0.50621 0.98 0.77778 0.0
H2170 H 0.52346 0.98298 0.76226 0.0
H2171 H 0.54645 0.01383 0.7906 0.0
H2172 H 0.52918 0.01099 0.80571 0.0
H2173 H 0.4969 0.99501 0.78244 0.0
H2174 H 0.51282 0.97545 0.81557 0.0
H2175 H 0.52863 0.97435 0.83 0.0
H2176 H 0.53619 0.00607 0.85599 0.0
H2177 H 0.52039 0.00711 0.8416 0.0
C2178 C 0.47689 0.99053 0.83012 0.0
C2179 C 0.47916 0.99836 0.84276 0.0
C2180 C 0.46984 0.99708 0.85236 0.0
C2181 C 0.45806 0.98785 0.84963 0.0
C2182 C 0.45581 0.98009 0.83685 0.0
C2183 C 0.46514 0.98142 0.82719 0.0
C2184 C 0.4869 0.99171 0.82032 0.0
C2185 C 0.4963 0.99122 0.82772 0.0
C2186 C 0.48712 0.9931 0.80381 0.0
C2187 C 0.47808 0.9949 0.7956 0.0
C2188 C 0.47629 0.00433 0.80002 0.0
C2189 C 0.46782 0.00611 0.79231 0.0
C2190 C 0.46098 0.99852 0.77997 0.0
C2191 C 0.46287 0.98913 0.77547 0.0
C2192 C 0.47138 0.98737 0.78319 0.0
C2193 C 0.51645 0.99519 0.793 0.0
C2194 C 0.51497 0.98743 0.78057 0.0
C2195 C 0.52484 0.9891 0.7718 0.0
C2196 C 0.53632 0.99863 0.77523 0.0
C2197 C 0.53771 0.00648 0.78756 0.0
C2198 C 0.52787 0.00479 0.79631 0.0
C2199 C 0.50607 0.99333 0.80252 0.0
C2200 C 0.4966 0.99368 0.79507 0.0
C2201 C 0.50587 0.99202 0.81903 0.0
C2202 C 0.51548 0.99138 0.82752 0.0
C2203 C 0.51793 0.98218 0.82434 0.0
C2204 C 0.5269 0.98153 0.8326 0.0
C2205 C 0.53364 0.99015 0.84405 0.0
C2206 C 0.53122 0.99939 0.8471 0.0
C2207 C 0.52216 -5e-05 0.83899 0.0
H2208 H 0.02828 0.5307 0.83667 0.0
H2209 H 0.02847 0.54661 0.85248 0.0
H2210 H 0.99222 0.53481 0.83814 0.0
H2211 H 0.99194 0.51869 0.82294 0.0
H2212 H 0.01451 0.5068 0.83932 0.0
H2213 H 0.02184 0.53584 0.79931 0.0
H2214 H 0.01798 0.55012 0.78558 0.0
H2215 H 0.98271 0.52157 0.7733 0.0
H2216 H 0.98667 0.50733 0.78694 0.0
H2217 H 0.98763 0.47711 0.78762 0.0
H2218 H 0.98463 0.45923 0.77388 0.0
H2219 H 0.02085 0.46851 0.78487 0.0
H2220 H 0.02375 0.48634 0.79872 0.0
H2221 H 0.00291 0.50054 0.78302 0.0
H2222 H 0.99448 0.4719 0.82365 0.0
H2223 H 0.99683 0.45725 0.83887 0.0
H2224 H 0.03284 0.48433 0.85083 0.0
H2225 H 0.03041 0.49898 0.83556 0.0
C2226 C 0.01014 0.52358 0.8285 0.0
C2227 C 0.02038 0.53155 0.83697 0.0
C2228 C 0.02051 0.5407 0.84588 0.0
C2229 C 0.01037 0.542 0.84654 0.0
C2230 C 0.00014 0.53399 0.83802 0.0
C2231 C 1e-05 0.52484 0.82918 0.0
C2232 C 0.00991 0.51376 0.81922 0.0
C2233 C 0.01221 0.50556 0.82693 0.0
C2234 C 0.00662 0.51197 0.80316 0.0
C2235 C 0.0045 0.52055 0.79426 0.0
C2236 C 0.01327 0.53267 0.79366 0.0
C2237 C 0.01104 0.54082 0.78586 0.0
C2238 C 1e-05 0.53698 0.77842 0.0
C2239 C 0.99134 0.52479 0.77876 0.0
C2240 C 0.99358 0.51665 0.78657 0.0
C2241 C 0.00588 0.48299 0.7943 0.0
C2242 C 0.99495 0.47533 0.78696 0.0
C2243 C 0.99326 0.46513 0.77909 0.0
C2244 C 0.00249 0.46243 0.77832 0.0
C2245 C 0.0135 0.47024 0.78546 0.0
C2246 C 0.01519 0.48044 0.79334 0.0
C2247 C 0.00742 0.49354 0.80315 0.0
C2248 C 0.00537 0.50186 0.79535 0.0
C2249 C 0.01086 0.49539 0.81916 0.0
C2250 C 0.01233 0.48649 0.82832 0.0
C2251 C 0.00293 0.47465 0.8294 0.0
C2252 C 0.00429 0.46628 0.83808 0.0
C2253 C 0.01504 0.46961 0.84598 0.0
C2254 C 0.02442 0.48151 0.84497 0.0
C2255 C 0.02306 0.48988 0.83624 0.0
H2256 H 0.45407 0.50911 0.83421 0.0
H2257 H 0.43985 0.49343 0.8518 0.0
H2258 H 0.4522 0.46991 0.83532 0.0
H2259 H 0.46655 0.48568 0.81808 0.0
H2260 H 0.47863 0.51917 0.83564 0.0
H2261 H 0.44723 0.49649 0.79791 0.0
H2262 H 0.43318 0.47788 0.78455 0.0
H2263 H 0.46274 0.47504 0.7661 0.0
H2264 H 0.47671 0.49342 0.7797 0.0
H2265 H 0.50421 0.5209 0.77979 0.0
H2266 H 0.52258 0.5347 0.76622 0.0
H2267 H 0.51998 0.56447 0.78459 0.0
H2268 H 0.50115 0.55052 0.79744 0.0
H2269 H 0.48232 0.51533 0.77817 0.0
H2270 H 0.51268 0.53259 0.81686 0.0
H2271 H 0.52845 0.54744 0.83367 0.0
H2272 H 0.50374 0.55741 0.85264 0.0
H2273 H 0.48803 0.54275 0.83545 0.0
C2274 C 0.46128 0.49852 0.82476 0.0
C2275 C 0.45362 0.50053 0.83431 0.0
C2276 C 0.44546 0.49155 0.84426 0.0
C2277 C 0.44493 0.48045 0.84495 0.0
C2278 C 0.45247 0.4784 0.83515 0.0
C2279 C 0.4606 0.48737 0.82519 0.0
C2280 C 0.47057 0.50831 0.81515 0.0
C2281 C 0.4793 0.5185 0.823 0.0
C2282 C 0.47166 0.50714 0.79878 0.0
C2283 C 0.46304 0.49631 0.78994 0.0
C2284 C 0.45068 0.49184 0.79104 0.0
C2285 C 0.44267 0.48123 0.7834 0.0
C2286 C 0.44689 0.47503 0.7743 0.0
C2287 C 0.45925 0.4797 0.77287 0.0
C2288 C 0.46723 0.49021 0.78064 0.0
C2289 C 0.50134 0.53466 0.78977 0.0
C2290 C 0.50747 0.53039 0.7807 0.0
C2291 C 0.51808 0.53831 0.77311 0.0
C2292 C 0.52287 0.55071 0.77451 0.0
C2293 C 0.51653 0.55498 0.78321 0.0
C2294 C 0.50581 0.54702 0.79069 0.0
C2295 C 0.49056 0.5261 0.79871 0.0
C2296 C 0.48152 0.51618 0.79075 0.0
C2297 C 0.48946 0.52724 0.81511 0.0
C2298 C 0.49921 0.5367 0.82467 0.0
C2299 C 0.51072 0.53817 0.82434 0.0
C2300 C 0.51972 0.54663 0.83397 0.0
C2301 C 0.51731 0.55358 0.8444 0.0
C2302 C 0.50581 0.55212 0.84474 0.0
C2303 C 0.49685 0.54377 0.83493 0.0
H2304 H 0.6105 0.83127 0.53931 0.0
H2305 H 0.6116 0.84766 0.5236 0.0
H2306 H 0.63908 0.8476 0.49482 0.0
H2307 H 0.63813 0.83147 0.51069 0.0
H2308 H 0.62147 0.80927 0.51691 0.0
H2309 H 0.61615 0.82649 0.57812 0.0
H2310 H 0.62137 0.84548 0.5909 0.0
H2311 H 0.64996 0.86414 0.55744 0.0
H2312 H 0.64483 0.84519 0.5449 0.0
H2313 H 0.64505 0.80867 0.57333 0.0
H2314 H 0.64859 0.79463 0.58807 0.0
H2315 H 0.61434 0.76567 0.57308 0.0
H2316 H 0.61086 0.77982 0.55825 0.0
H2317 H 0.62929 0.81567 0.57421 0.0
H2318 H 0.64155 0.79614 0.53797 0.0
H2319 H 0.64212 0.7805 0.52255 0.0
H2320 H 0.60737 0.77013 0.50343 0.0
H2321 H 0.60677 0.78572 0.51906 0.0
C2322 C 0.62429 0.83022 0.52622 0.0
C2323 C 0.61671 0.83477 0.52956 0.0
C2324 C 0.61731 0.84408 0.52055 0.0
C2325 C 0.62551 0.84897 0.50809 0.0
C2326 C 0.63281 0.84413 0.50451 0.0
C2327 C 0.63219 0.83483 0.51346 0.0
C2328 C 0.6245 0.82106 0.53643 0.0
C2329 C 0.62299 0.81057 0.52949 0.0
C2330 C 0.6269 0.82297 0.55272 0.0
C2331 C 0.62996 0.83445 0.56039 0.0
C2332 C 0.62354 0.83468 0.57356 0.0
C2333 C 0.62654 0.84552 0.58086 0.0
C2334 C 0.63601 0.85629 0.57508 0.0
C2335 C 0.64248 0.85601 0.56197 0.0
C2336 C 0.63955 0.84519 0.55479 0.0
C2337 C 0.62773 0.79528 0.56461 0.0
C2338 C 0.63822 0.79933 0.57341 0.0
C2339 C 0.64022 0.79128 0.58186 0.0
C2340 C 0.63176 0.77903 0.58171 0.0
C2341 C 0.6211 0.77503 0.57324 0.0
C2342 C 0.61908 0.7831 0.5648 0.0
C2343 C 0.62616 0.80379 0.55472 0.0
C2344 C 0.62741 0.81418 0.56172 0.0
C2345 C 0.62407 0.80203 0.53833 0.0
C2346 C 0.62404 0.792 0.52983 0.0
C2347 C 0.63393 0.79033 0.53074 0.0
C2348 C 0.63426 0.78139 0.52191 0.0
C2349 C 0.62479 0.77409 0.5118 0.0
C2350 C 0.61484 0.77569 0.51103 0.0
C2351 C 0.61447 0.78456 0.51997 0.0
H2352 H 0.17707 0.78885 0.5206 0.0
H2353 H 0.16114 0.77575 0.50256 0.0
H2354 H 0.13775 0.78661 0.52387 0.0
H2355 H 0.15387 0.8001 0.54129 0.0
H2356 H 0.18749 0.81271 0.52197 0.0
H2357 H 0.16454 0.78022 0.55851 0.0
H2358 H 0.14603 0.76616 0.57199 0.0
H2359 H 0.14442 0.79576 0.59292 0.0
H2360 H 0.16253 0.8097 0.57891 0.0
H2361 H 0.19078 0.83711 0.57899 0.0
H2362 H 0.20522 0.85499 0.59298 0.0
H2363 H 0.23387 0.85024 0.57527 0.0
H2364 H 0.21927 0.83227 0.56117 0.0
H2365 H 0.1843 0.81446 0.5799 0.0
H2366 H 0.20274 0.84624 0.54345 0.0
H2367 H 0.21809 0.86228 0.52746 0.0
H2368 H 0.22573 0.83699 0.50485 0.0
H2369 H 0.2107 0.82099 0.52136 0.0
C2370 C 0.16663 0.79536 0.53242 0.0
C2371 C 0.16847 0.78834 0.52144 0.0
C2372 C 0.15932 0.78078 0.51121 0.0
C2373 C 0.14816 0.78013 0.51175 0.0
C2374 C 0.14628 0.787 0.523 0.0
C2375 C 0.15545 0.7946 0.53313 0.0
C2376 C 0.17665 0.80414 0.5423 0.0
C2377 C 0.18695 0.81292 0.53469 0.0
C2378 C 0.17569 0.80468 0.55883 0.0
C2379 C 0.16486 0.79601 0.56757 0.0
C2380 C 0.16015 0.78366 0.56594 0.0
C2381 C 0.14963 0.77564 0.57376 0.0
C2382 C 0.1437 0.77984 0.58344 0.0
C2383 C 0.14863 0.79222 0.58533 0.0
C2384 C 0.15907 0.80021 0.57746 0.0
C2385 C 0.20395 0.83338 0.56897 0.0
C2386 C 0.20015 0.83979 0.57831 0.0
C2387 C 0.20843 0.85001 0.58634 0.0
C2388 C 0.2207 0.85404 0.58524 0.0
C2389 C 0.22448 0.84744 0.5762 0.0
C2390 C 0.21616 0.83716 0.56818 0.0
C2391 C 0.19506 0.82312 0.55954 0.0
C2392 C 0.185 0.81406 0.56722 0.0
C2393 C 0.19602 0.82257 0.54301 0.0
C2394 C 0.20572 0.83243 0.53386 0.0
C2395 C 0.20794 0.84418 0.53539 0.0
C2396 C 0.21666 0.85333 0.52621 0.0
C2397 C 0.2231 0.85085 0.51501 0.0
C2398 C 0.22087 0.83911 0.51342 0.0
C2399 C 0.2123 0.82999 0.52282 0.0
H2400 H 0.16354 0.35321 0.51367 0.0
H2401 H 0.14642 0.35099 0.49883 0.0
H2402 H 0.14828 0.38092 0.52388 0.0
H2403 H 0.16554 0.38316 0.53875 0.0
H2404 H 0.18625 0.37081 0.51659 0.0
H2405 H 0.15243 0.3488 0.54801 0.0
H2406 H 0.13374 0.34433 0.56073 0.0
H2407 H 0.15295 0.37476 0.59136 0.0
H2408 H 0.17172 0.37945 0.5782 0.0
H2409 H 0.20815 0.38099 0.57853 0.0
H2410 H 0.22149 0.37655 0.59386 0.0
H2411 H 0.21096 0.34514 0.56537 0.0
H2412 H 0.19745 0.3494 0.55056 0.0
H2413 H 0.183 0.36615 0.57461 0.0
H2414 H 0.21865 0.38474 0.53948 0.0
H2415 H 0.23443 0.38375 0.52456 0.0
H2416 H 0.20766 0.35195 0.50105 0.0
H2417 H 0.19201 0.35303 0.51577 0.0
C2418 C 0.16579 0.36834 0.52731 0.0
C2419 C 0.16036 0.35939 0.51585 0.0
C2420 C 0.15051 0.35805 0.50751 0.0
C2421 C 0.14598 0.36571 0.51034 0.0
C2422 C 0.15163 0.37491 0.52148 0.0
C2423 C 0.16144 0.37618 0.52997 0.0
C2424 C 0.17557 0.36893 0.53697 0.0
C2425 C 0.1856 0.36993 0.52929 0.0
C2426 C 0.17462 0.36757 0.55351 0.0
C2427 C 0.16343 0.36465 0.56187 0.0
C2428 C 0.15262 0.35463 0.5573 0.0
C2429 C 0.14196 0.35206 0.5646 0.0
C2430 C 0.14191 0.35929 0.57688 0.0
C2431 C 0.15277 0.36906 0.58189 0.0
C2432 C 0.16346 0.37174 0.5744 0.0
C2433 C 0.20197 0.36563 0.56328 0.0
C2434 C 0.20875 0.37316 0.57564 0.0
C2435 C 0.2164 0.37065 0.5843 0.0
C2436 C 0.21727 0.36048 0.58083 0.0
C2437 C 0.21039 0.35295 0.56847 0.0
C2438 C 0.20278 0.35546 0.55986 0.0
C2439 C 0.19369 0.36805 0.55419 0.0
C2440 C 0.1839 0.36757 0.56199 0.0
C2441 C 0.19456 0.36928 0.53766 0.0
C2442 C 0.20419 0.36897 0.52868 0.0
C2443 C 0.21622 0.37759 0.53108 0.0
C2444 C 0.22519 0.37703 0.52257 0.0
C2445 C 0.22222 0.36773 0.51176 0.0
C2446 C 0.21018 0.35913 0.50944 0.0
C2447 C 0.20124 0.35979 0.51773 0.0
C2448 C 0.00099 0.39211 0.08171 0.0
C2449 C 0.9914 0.38057 0.07875 0.0
C2450 C 8e-05 0.39932 0.09319 0.0
C2451 C 0.97817 0.40397 0.1148 0.0
H2452 H 0.00529 0.42386 0.14146 0.0
C2453 C 0.97677 0.43515 0.16274 0.0
C2454 C 0.98687 0.44664 0.16365 0.0
C2455 C 0.97694 0.42632 0.15342 0.0
C2456 C 0.99767 0.41843 0.13403 0.0
H2457 H 0.97337 0.36751 0.08576 0.0
H2458 H 0.97176 0.38019 0.1058 0.0
H2459 H 0.00627 0.40972 0.12344 0.0
H2460 H 0.00497 0.45791 0.15523 0.0
H2461 H 0.00527 0.44256 0.13905 0.0
H2462 H 0.96965 0.41283 0.12523 0.0
C2463 C 0.97995 0.38366 0.0991 0.0
C2464 C 0.99823 0.41032 0.12371 0.0
C2465 C 0.98087 0.3764 0.08762 0.0
C2466 C 0.99712 0.44909 0.15504 0.0
C2467 C 0.9973 0.44028 0.14576 0.0
C2468 C 0.97762 0.4121 0.12513 0.0
C2469 C 0.98955 0.39521 0.10198 0.0
C2470 C 0.98856 0.40313 0.11381 0.0
C2471 C 0.98722 0.42879 0.14483 0.0
C2472 C 0.98744 0.41955 0.13468 0.0
H2473 H 0.00914 0.39571 0.07489 0.0
H2474 H 0.00755 0.40826 0.09491 0.0
H2475 H 0.97062 0.39865 0.10721 0.0
H2476 H 0.96878 0.43293 0.16937 0.0
H2477 H 0.96908 0.41752 0.15308 0.0
C2478 C 0.62891 0.59474 0.08267 0.0
C2479 C 0.62376 0.60144 0.07751 0.0
C2480 C 0.62351 0.58627 0.09461 0.0
C2481 C 0.60109 0.57703 0.12665 0.0
H2482 H 0.59922 0.54635 0.12213 0.0
C2483 C 0.57671 0.54012 0.17262 0.0
C2484 C 0.56914 0.52861 0.16665 0.0
C2485 C 0.58498 0.54914 0.16283 0.0
C2486 C 0.59964 0.55486 0.12354 0.0
H2487 H 0.60882 0.60438 0.08066 0.0
H2488 H 0.59935 0.58957 0.10129 0.0
H2489 H 0.61032 0.562 0.10285 0.0
H2490 H 0.56447 0.51743 0.14589 0.0
H2491 H 0.57873 0.5332 0.12871 0.0
H2492 H 0.58995 0.56976 0.14685 0.0
C2493 C 0.60771 0.59104 0.09642 0.0
C2494 C 0.60612 0.56388 0.1126 0.0
C2495 C 0.61313 0.59952 0.08457 0.0
C2496 C 0.57028 0.52619 0.15084 0.0
C2497 C 0.57849 0.53523 0.14102 0.0
C2498 C 0.59457 0.56801 0.13753 0.0
C2499 C 0.61282 0.58429 0.10158 0.0
C2500 C 0.60676 0.57501 0.11388 0.0
C2501 C 0.58579 0.54688 0.14682 0.0
C2502 C 0.59361 0.55675 0.13599 0.0
H2503 H 0.63717 0.59612 0.07755 0.0
H2504 H 0.62776 0.58133 0.09844 0.0
H2505 H 0.60156 0.58556 0.12814 0.0
H2506 H 0.57613 0.54217 0.18483 0.0
H2507 H 0.59063 0.55793 0.16777 0.0
C2508 C 0.38865 0.01208 0.09378 0.0
C2509 C 0.3922 0.01635 0.07838 0.0
C2510 C 0.39707 0.01323 0.10496 0.0
C2511 C 0.42717 0.01696 0.10738 0.0
H2512 H 0.42504 0.02343 0.15144 0.0
C2513 C 0.46355 0.02367 0.15147 0.0
C2514 C 0.45962 0.01746 0.16576 0.0
C2515 C 0.45553 0.02453 0.14138 0.0
C2516 C 0.42569 0.02155 0.13919 0.0
H2517 H 0.40748 0.02542 0.06281 0.0
H2518 H 0.42214 0.02777 0.08239 0.0
H2519 H 0.41066 0.02329 0.13273 0.0
H2520 H 0.44425 0.00767 0.18095 0.0
H2521 H 0.43019 0.00905 0.1632 0.0
H2522 H 0.44214 0.01516 0.11379 0.0
C2523 C 0.41282 0.02333 0.08576 0.0
C2524 C 0.41746 0.02145 0.12847 0.0
C2525 C 0.40441 0.02213 0.07458 0.0
C2526 C 0.44753 0.01241 0.16994 0.0
C2527 C 0.4395 0.0133 0.15985 0.0
C2528 C 0.4354 0.0171 0.11805 0.0
C2529 C 0.40923 0.01871 0.101 0.0
C2530 C 0.4181 0.01914 0.11244 0.0
C2531 C 0.44339 0.01921 0.14535 0.0
C2532 C 0.43475 0.01938 0.13407 0.0
H2533 H 0.37934 0.00772 0.09716 0.0
H2534 H 0.39399 0.00951 0.11656 0.0
H2535 H 0.42778 0.01488 0.09519 0.0
H2536 H 0.47278 0.02757 0.14784 0.0
H2537 H 0.45882 0.02926 0.13036 0.0
C2538 C 0.3759 0.97934 0.93263 0.0
C2539 C 0.38022 0.98389 0.94775 0.0
C2540 C 0.3833 0.97832 0.92149 0.0
C2541 C 0.41065 0.97653 0.91752 0.0
H2542 H 0.41319 0.99015 0.87616 0.0
C2543 C 0.45023 0.98783 0.87664 0.0
C2544 C 0.44826 0.98619 0.86035 0.0
C2545 C 0.44111 0.98638 0.88677 0.0
C2546 C 0.41245 0.98611 0.88754 0.0
H2547 H 0.39582 0.99099 0.96286 0.0
H2548 H 0.40853 0.98889 0.94363 0.0
H2549 H 0.39848 0.98935 0.89483 0.0
H2550 H 0.43509 0.9817 0.84195 0.0
H2551 H 0.41905 0.97885 0.85971 0.0
H2552 H 0.42459 0.97329 0.91035 0.0
C2553 C 0.39939 0.98603 0.94045 0.0
C2554 C 0.40403 0.98568 0.89824 0.0
C2555 C 0.39206 0.98718 0.95151 0.0
C2556 C 0.43688 0.98293 0.85445 0.0
C2557 C 0.42773 0.98143 0.86462 0.0
C2558 C 0.41899 0.97687 0.9068 0.0
C2559 C 0.39513 0.98168 0.9253 0.0
C2560 C 0.40321 0.98109 0.91344 0.0
C2561 C 0.42974 0.98316 0.88091 0.0
C2562 C 0.42017 0.98189 0.89179 0.0
H2563 H 0.36679 0.97657 0.92938 0.0
H2564 H 0.37976 0.97484 0.90992 0.0
H2565 H 0.41008 0.97278 0.92908 0.0
H2566 H 0.45881 0.99016 0.88163 0.0
H2567 H 0.44306 0.98797 0.89921 0.0
C2568 C 0.00378 0.3941 0.9391 0.0
C2569 C 0.01327 0.39203 0.94196 0.0
C2570 C 0.00474 0.40219 0.92759 0.0
C2571 C 0.02659 0.42839 0.90536 0.0
H2572 H -0.00076 0.42071 0.87903 0.0
C2573 C 0.02167 0.46387 0.87051 0.0
C2574 C 0.01631 0.46076 0.85559 0.0
C2575 C 0.02225 0.45536 0.87994 0.0
C2576 C 0.00701 0.42296 0.88613 0.0
H2577 H 0.03123 0.39684 0.93489 0.0
H2578 H 0.03293 0.41108 0.91478 0.0
H2579 H 0.99838 0.40587 0.89731 0.0
H2580 H 0.00781 0.4464 0.83858 0.0
H2581 H 0.00881 0.43152 0.85505 0.0
H2582 H 0.03521 0.4455 0.89415 0.0
C2583 C 0.02477 0.40646 0.92155 0.0
C2584 C 0.00647 0.41449 0.89674 0.0
C2585 C 0.0238 0.39832 0.93307 0.0
C2586 C 0.01181 0.44902 0.85014 0.0
C2587 C 0.01239 0.44051 0.85956 0.0
C2588 C 0.02713 0.43688 0.89475 0.0
C2589 C 0.01523 0.40845 0.91867 0.0
C2590 C 0.01619 0.41717 0.90663 0.0
C2591 C 0.01748 0.44354 0.87465 0.0
C2592 C 0.01729 0.4343 0.88515 0.0
H2593 H 0.99564 0.38963 0.94596 0.0
H2594 H 0.99732 0.40371 0.9259 0.0
H2595 H 0.0342 0.43075 0.91288 0.0
H2596 H 0.02509 0.4728 0.87513 0.0
H2597 H 0.02607 0.45795 0.89159 0.0
C2598 C 0.58817 0.60811 0.9498 0.0
C2599 C 0.5995 0.61737 0.94521 0.0
C2600 C 0.57934 0.60172 0.93864 0.0
C2601 C 0.57091 0.6026 0.89707 0.0
H2602 H 0.54969 0.56875 0.90402 0.0
C2603 C 0.53829 0.56969 0.85023 0.0
C2604 C 0.52662 0.56186 0.85548 0.0
C2605 C 0.5472 0.57701 0.86089 0.0
C2606 C 0.5555 0.57822 0.902 0.0
H2607 H 0.6103 0.62723 0.92513 0.0
H2608 H 0.59506 0.61573 0.9056 0.0
H2609 H 0.56538 0.58032 0.92298 0.0
H2610 H 0.51509 0.55556 0.87593 0.0
H2611 H 0.53068 0.56827 0.89459 0.0
H2612 H 0.56112 0.60029 0.87577 0.0
C2613 C 0.59292 0.61357 0.91791 0.0
C2614 C 0.56447 0.58488 0.91289 0.0
C2615 C 0.60174 0.62007 0.92911 0.0
C2616 C 0.52399 0.56158 0.87155 0.0
C2617 C 0.53291 0.56878 0.88223 0.0
C2618 C 0.56202 0.59588 0.88605 0.0
C2619 C 0.58161 0.60428 0.92253 0.0
C2620 C 0.57224 0.59718 0.91066 0.0
C2621 C 0.54462 0.57649 0.87702 0.0
C2622 C 0.55417 0.58365 0.8885 0.0
H2623 H 0.58614 0.60561 0.96204 0.0
H2624 H 0.57069 0.59478 0.9427 0.0
H2625 H 0.57661 0.61208 0.89505 0.0
H2626 H 0.54053 0.5701 0.83788 0.0
H2627 H 0.55617 0.58284 0.8566 0.0
C2628 C 0.01765 0.62433 0.92767 0.0
C2629 C 0.00715 0.62105 0.93621 0.0
C2630 C 0.01827 0.61625 0.91731 0.0
C2631 C 0.0044 0.58396 0.91037 0.0
H2632 H 0.01905 0.59304 0.86914 0.0
C2633 C 0.0002 0.54897 0.86535 0.0
C2634 C 0.01032 0.55146 0.85639 0.0
C2635 C 0.00012 0.55777 0.87475 0.0
C2636 C 0.01506 0.59041 0.8807 0.0
H2637 H 0.98902 0.60674 0.94043 0.0
H2638 H 0.99003 0.59279 0.9222 0.0
H2639 H 0.01833 0.60799 0.88598 0.0
H2640 H 0.02825 0.56525 0.85015 0.0
H2641 H 0.0282 0.58058 0.86687 0.0
H2642 H 0.00117 0.56644 0.90523 0.0
C2643 C 0.99783 0.60156 0.92361 0.0
C2644 C 0.01464 0.59896 0.89032 0.0
C2645 C 0.9972 0.60962 0.9339 0.0
C2646 C 0.02036 0.563 0.85703 0.0
C2647 C 0.02028 0.57183 0.86647 0.0
C2648 C 0.00485 0.57544 0.9008 0.0
C2649 C 0.00841 0.60471 0.91536 0.0
C2650 C 0.00919 0.59579 0.9052 0.0
C2651 C 0.01017 0.56928 0.87549 0.0
C2652 C 0.01008 0.57852 0.88579 0.0
H2653 H 0.02544 0.6331 0.92911 0.0
H2654 H 0.02656 0.61891 0.91116 0.0
H2655 H 0.00037 0.5813 0.92191 0.0
H2656 H 0.99236 0.54014 0.86528 0.0
H2657 H 0.99212 0.55555 0.88138 0.0
C2658 C 0.37578 0.40646 0.94047 0.0
C2659 C 0.3814 0.40154 0.94936 0.0
C2660 C 0.38219 0.41522 0.92917 0.0
C2661 C 0.41312 0.43746 0.91775 0.0
H2662 H 0.39907 0.43667 0.87721 0.0
C2663 C 0.4414 0.4652 0.86546 0.0
C2664 C 0.43703 0.47127 0.85647 0.0
C2665 C 0.4342 0.45688 0.87675 0.0
C2666 C 0.40306 0.43707 0.88855 0.0
H2667 H 0.39803 0.40168 0.95301 0.0
H2668 H 0.40916 0.41686 0.93331 0.0
H2669 H 0.38721 0.42178 0.89711 0.0
H2670 H 0.42162 0.47323 0.85207 0.0
H2671 H 0.40901 0.45864 0.87192 0.0
H2672 H 0.429 0.45262 0.90914 0.0
C2673 C 0.39989 0.41418 0.9353 0.0
C2674 C 0.39627 0.42856 0.89995 0.0
C2675 C 0.3935 0.40547 0.94659 0.0
C2676 C 0.42525 0.46874 0.8589 0.0
C2677 C 0.41801 0.46034 0.87016 0.0
C2678 C 0.4199 0.44591 0.90636 0.0
C2679 C 0.39434 0.41922 0.92651 0.0
C2680 C 0.40128 0.42858 0.91462 0.0
C2681 C 0.42246 0.4544 0.87929 0.0
C2682 C 0.41499 0.44573 0.89158 0.0
H2683 H 0.36648 0.40367 0.94243 0.0
H2684 H 0.37768 0.41901 0.92271 0.0
H2685 H 0.41716 0.43789 0.92905 0.0
H2686 H 0.45048 0.46705 0.86398 0.0
H2687 H 0.43784 0.45235 0.88347 0.0
C2688 C 0.61266 0.99748 0.93028 0.0
C2689 C 0.60887 0.98774 0.94052 0.0
C2690 C 0.60507 0.99735 0.91855 0.0
C2691 C 0.57842 0.97787 0.89519 0.0
H2692 H 0.5749 0.00585 0.89302 0.0
C2693 C 0.54055 0.97865 0.86023 0.0
C2694 C 0.54298 0.98941 0.85311 0.0
C2695 C 0.54907 0.97819 0.86979 0.0
C2696 C 0.57591 0.99804 0.89323 0.0
H2697 H 0.59434 0.97005 0.94617 0.0
H2698 H 0.58105 0.9698 0.92555 0.0
H2699 H 0.58897 0.00543 0.91151 0.0
H2700 H 0.55639 0.00796 0.8497 0.0
H2701 H 0.57141 0.00713 0.86601 0.0
H2702 H 0.56541 0.9705 0.87681 0.0
C2703 C 0.5899 0.97753 0.92664 0.0
C2704 C 0.58395 0.9978 0.90388 0.0
C2705 C 0.59746 0.97771 0.9385 0.0
C2706 C 0.55424 -0.0004 0.85526 0.0
C2707 C 0.56281 0.99912 0.86466 0.0
C2708 C 0.57043 0.97816 0.88439 0.0
C2709 C 0.59358 0.98743 0.91673 0.0
C2710 C 0.58526 0.98771 0.90503 0.0
C2711 C 0.56026 0.98847 0.87229 0.0
C2712 C 0.56904 0.98823 0.88333 0.0
H2713 H 0.62135 0.00539 0.93165 0.0
H2714 H 0.60817 0.00506 0.91098 0.0
H2715 H 0.57933 0.97002 0.89575 0.0
H2716 H 0.5319 0.97069 0.85886 0.0
H2717 H 0.54673 0.96988 0.87563 0.0
C2718 C 0.61516 0.0213 0.07477 0.0
C2719 C 0.61862 0.01264 0.07615 0.0
C2720 C 0.60742 0.02187 0.08575 0.0
C2721 C 0.58461 0.00306 0.1151 0.0
H2722 H 0.58699 0.03299 0.12753 0.0
C2723 C 0.54644 0.00419 0.14788 0.0
C2724 C 0.54938 0.01269 0.15986 0.0
C2725 C 0.55528 0.00463 0.13803 0.0
C2726 C 0.58627 0.02456 0.12431 0.0
H2727 H 0.61677 0.99793 0.09043 0.0
H2728 H 0.60374 0.99926 0.10986 0.0
H2729 H 0.60219 0.03314 0.11042 0.0
H2730 H 0.56385 0.02832 0.17096 0.0
H2731 H 0.57939 0.02898 0.15393 0.0
H2732 H 0.56891 0.99447 0.12929 0.0
C2733 C 0.60679 0.00545 0.1001 0.0
C2734 C 0.5949 0.02464 0.11434 0.0
C2735 C 0.61443 0.00481 0.08906 0.0
C2736 C 0.56133 0.02172 0.16172 0.0
C2737 C 0.57021 0.0221 0.15194 0.0
C2738 C 0.57605 0.00298 0.12514 0.0
C2739 C 0.60302 0.01385 0.09844 0.0
C2740 C 0.59414 0.01388 0.10953 0.0
C2741 C 0.56729 0.01352 0.14002 0.0
C2742 C 0.57669 0.01371 0.12975 0.0
H2743 H 0.61835 0.02759 0.06512 0.0
H2744 H 0.60463 0.02839 0.08402 0.0
H2745 H 0.58362 0.99459 0.11149 0.0
H2746 H 0.53727 0.99726 0.14601 0.0
H2747 H 0.55265 0.99805 0.12876 0.0
C2748 C 0.99617 0.6021 0.07035 0.0
C2749 C 0.98633 0.60357 0.06725 0.0
C2750 C 0.99535 0.59382 0.08144 0.0
C2751 C 0.97853 0.57676 0.1161 0.0
H2752 H 0.99275 0.55741 0.10593 0.0
C2753 C 0.97447 0.53875 0.15631 0.0
C2754 C 0.98482 0.53792 0.15806 0.0
C2755 C 0.97412 0.54661 0.14536 0.0
C2756 C 0.98884 0.56283 0.10902 0.0
H2757 H 0.96793 0.59755 0.07351 0.0
H2758 H 0.96652 0.58304 0.09302 0.0
H2759 H 0.99296 0.57128 0.08651 0.0
H2760 H 0.00292 0.5447 0.14969 0.0
H2761 H 0.0024 0.55856 0.13088 0.0
H2762 H 0.9745 0.56833 0.13869 0.0
C2763 C 0.97488 0.58838 0.08686 0.0
C2764 C 0.98894 0.57076 0.09788 0.0
C2765 C 0.97569 0.59668 0.07571 0.0
C2766 C 0.99485 0.54521 0.14876 0.0
C2767 C 0.9945 0.55304 0.13783 0.0
C2768 C 0.97843 0.5688 0.12728 0.0
C2769 C 0.98469 0.58681 0.08975 0.0
C2770 C 0.98393 0.57792 0.10135 0.0
C2771 C 0.98411 0.55376 0.13591 0.0
C2772 C 0.98372 0.56186 0.12391 0.0
H2773 H 0.00458 0.60747 0.06433 0.0
H2774 H 0.00315 0.59301 0.08364 0.0
H2775 H 0.97468 0.58223 0.11916 0.0
H2776 H 0.96663 0.53333 0.16341 0.0
H2777 H 0.96596 0.54691 0.14409 0.0
C2778 C 0.40256 0.37588 0.0859 0.0
C2779 C 0.40069 0.3812 0.07266 0.0
C2780 C 0.41151 0.38283 0.09674 0.0
C2781 C 0.42823 0.41308 0.11225 0.0
H2782 H 0.45168 0.40469 0.12556 0.0
C2783 C 0.46922 0.4457 0.14832 0.0
C2784 C 0.47346 0.44109 0.15993 0.0
C2785 C 0.46034 0.43808 0.13788 0.0
C2786 C 0.4451 0.40707 0.12218 0.0
H2787 H 0.40654 0.3979 0.06043 0.0
H2788 H 0.42207 0.41006 0.07949 0.0
H2789 H 0.43601 0.39178 0.10712 0.0
H2790 H 0.47177 0.42492 0.16982 0.0
H2791 H 0.45596 0.4115 0.15187 0.0
H2792 H 0.437 0.42817 0.12747 0.0
C2793 C 0.41669 0.40052 0.08141 0.0
C2794 C 0.43616 0.39969 0.11158 0.0
C2795 C 0.40789 0.39357 0.07046 0.0
C2796 C 0.46869 0.42869 0.16088 0.0
C2797 C 0.45968 0.42103 0.15055 0.0
C2798 C 0.43703 0.42036 0.123 0.0
C2799 C 0.41856 0.39523 0.09466 0.0
C2800 C 0.42774 0.40272 0.10638 0.0
C2801 C 0.45536 0.42563 0.13894 0.0
C2802 C 0.44569 0.41755 0.12797 0.0
H2803 H 0.39713 0.36636 0.08782 0.0
H2804 H 0.41275 0.37855 0.10692 0.0
H2805 H 0.42172 0.41551 0.10861 0.0
H2806 H 0.47288 0.45524 0.1472 0.0
H2807 H 0.45748 0.44199 0.12887 0.0
C2808 C 0.64122 0.71971 0.40773 0.0
C2809 C 0.64542 0.71191 0.41164 0.0
C2810 C 0.63794 0.72507 0.41946 0.0
C2811 C 0.64346 0.73448 0.46055 0.0
H2812 H 0.61473 0.73649 0.4562 0.0
C2813 C 0.62995 0.75804 0.50718 0.0
C2814 C 0.62562 0.76531 0.50142 0.0
C2815 C 0.63136 0.75028 0.49712 0.0
C2816 C 0.62284 0.7361 0.45753 0.0
H2817 H 0.64927 0.70354 0.43108 0.0
H2818 H 0.64378 0.71314 0.45158 0.0
H2819 H 0.61918 0.72533 0.43687 0.0
H2820 H 0.61941 0.77017 0.48061 0.0
H2821 H 0.62202 0.75683 0.46303 0.0
H2822 H 0.64735 0.74556 0.48089 0.0
C2823 C 0.64307 0.71508 0.43938 0.0
C2824 C 0.62536 0.72968 0.44648 0.0
C2825 C 0.64625 0.70962 0.42763 0.0
C2826 C 0.62258 0.76454 0.48545 0.0
C2827 C 0.62406 0.75686 0.47537 0.0
C2828 C 0.64099 0.74099 0.47154 0.0
C2829 C 0.63888 0.72285 0.4354 0.0
C2830 C 0.63577 0.72893 0.44777 0.0
C2831 C 0.62856 0.74969 0.48104 0.0
C2832 C 0.63073 0.74202 0.47005 0.0
H2833 H 0.64071 0.72191 0.39559 0.0
H2834 H 0.63494 0.73118 0.41605 0.0
H2835 H 0.65161 0.73415 0.46174 0.0
H2836 H 0.63224 0.75835 0.51948 0.0
H2837 H 0.63467 0.74476 0.50193 0.0
C2838 C 0.27649 0.93526 0.42656 0.0
C2839 C 0.28421 0.93463 0.41552 0.0
C2840 C 0.27125 0.92661 0.4383 0.0
C2841 C 0.26437 0.89575 0.44762 0.0
H2842 H 0.2553 0.90296 0.48783 0.0
C2843 C 0.23058 0.85863 0.48808 0.0
C2844 C 0.2316 0.86037 0.50441 0.0
C2845 C 0.23805 0.86784 0.47793 0.0
C2846 C 0.25793 0.90078 0.47678 0.0
H2847 H 0.29301 0.92492 0.40843 0.0
H2848 H 0.28435 0.91012 0.42935 0.0
H2849 H 0.26699 0.91903 0.46954 0.0
H2850 H 0.2414 0.8729 0.52304 0.0
H2851 H 0.25485 0.88889 0.50537 0.0
H2852 H 0.25575 0.87759 0.4551 0.0
C2853 C 0.28192 0.91697 0.42866 0.0
C2854 C 0.26448 0.91001 0.46614 0.0
C2855 C 0.28696 0.92549 0.41674 0.0
C2856 C 0.24041 0.87139 0.51046 0.0
C2857 C 0.24804 0.88056 0.50031 0.0
C2858 C 0.258 0.88656 0.45837 0.0
C2859 C 0.2738 0.91727 0.43943 0.0
C2860 C 0.26761 0.9076 0.45129 0.0
C2861 C 0.24687 0.87895 0.48389 0.0
C2862 C 0.25449 0.8889 0.47298 0.0
H2863 H 0.27417 0.9422 0.42574 0.0
H2864 H 0.2649 0.92706 0.44615 0.0
H2865 H 0.26645 0.89346 0.43627 0.0
H2866 H 0.22374 0.85025 0.48314 0.0
H2867 H 0.23667 0.86631 0.4654 0.0
C2868 C 0.0608 0.33769 0.42347 0.0
C2869 C 0.06235 0.34697 0.41345 0.0
C2870 C 0.0689 0.33986 0.43559 0.0
C2871 C 0.09269 0.36361 0.45969 0.0
H2872 H 0.10426 0.34128 0.46264 0.0
C2873 C 0.13525 0.37355 0.49417 0.0
C2874 C 0.13532 0.36395 0.50167 0.0
C2875 C 0.12555 0.3716 0.48483 0.0
C2876 C 0.10099 0.3475 0.4622 0.0
H2877 H 0.07331 0.36591 0.40871 0.0
H2878 H 0.08754 0.36967 0.4298 0.0
H2879 H 0.08864 0.33761 0.4439 0.0
H2880 H 0.12508 0.34494 0.50617 0.0
H2881 H 0.10808 0.34154 0.49016 0.0
H2882 H 0.10514 0.37355 0.47797 0.0
C2883 C 0.08004 0.36073 0.4283 0.0
C2884 C 0.09204 0.34539 0.45142 0.0
C2885 C 0.07197 0.35855 0.41612 0.0
C2886 C 0.12533 0.35246 0.50026 0.0
C2887 C 0.11562 0.35052 0.49105 0.0
C2888 C 0.10163 0.36569 0.47056 0.0
C2889 C 0.0787 0.35136 0.43799 0.0
C2890 C 0.08783 0.35344 0.44999 0.0
C2891 C 0.11573 0.36001 0.48293 0.0
C2892 C 0.10592 0.35768 0.47188 0.0
H2893 H 0.05354 0.32866 0.42165 0.0
H2894 H 0.06757 0.33249 0.44298 0.0
H2895 H 0.08954 0.36991 0.45893 0.0
H2896 H 0.14287 0.38248 0.49504 0.0
H2897 H 0.12597 0.37909 0.47863 0.0
C2898 C 0.04887 0.31662 0.26345 0.0
C2899 C 0.04275 0.30879 0.27588 0.0
C2900 C 0.05426 0.31338 0.25171 0.0
C2901 C 0.06579 0.29285 0.24441 0.0
H2902 H 0.06862 0.30433 0.20165 0.0
C2903 C 0.09084 0.28279 0.19587 0.0
C2904 C 0.0996 0.29303 0.18813 0.0
C2905 C 0.08233 0.28337 0.20538 0.0
C2906 C 0.06788 0.30105 0.21355 0.0
H2907 H 0.03704 0.29126 0.28549 0.0
H2908 H 0.0462 0.28544 0.26477 0.0
H2909 H 0.05631 0.30756 0.22053 0.0
H2910 H 0.10606 0.31175 0.18363 0.0
H2911 H 0.09112 0.31276 0.2001 0.0
H2912 H 0.07739 0.28636 0.23735 0.0
C2913 C 0.04712 0.29422 0.26428 0.0
C2914 C 0.06088 0.30295 0.2244 0.0
C2915 C 0.04184 0.29752 0.27613 0.0
C2916 C 0.09944 0.30375 0.18958 0.0
C2917 C 0.09085 0.3043 0.19889 0.0
C2918 C 0.07267 0.29083 0.23351 0.0
C2919 C 0.05353 0.30217 0.25203 0.0
C2920 C 0.05996 0.2991 0.24006 0.0
C2921 C 0.08233 0.29417 0.20708 0.0
C2922 C 0.07397 0.29513 0.21807 0.0
H2923 H 0.04985 0.32542 0.26308 0.0
H2924 H 0.05931 0.31984 0.24266 0.0
H2925 H 0.06545 0.2899 0.2564 0.0
H2926 H 0.09081 0.27443 0.19498 0.0
H2927 H 0.07582 0.27543 0.21153 0.0
C2928 C 0.69119 0.73267 0.26272 0.0
C2929 C 0.68951 0.73529 0.27828 0.0
C2930 C 0.69465 0.74128 0.25091 0.0
C2931 C 0.70952 0.77341 0.24398 0.0
H2932 H 0.68964 0.7653 0.20681 0.0
C2933 C 0.71155 0.80936 0.2024 0.0
C2934 C 0.70895 0.80665 0.1864 0.0
C2935 C 0.71047 0.80061 0.21292 0.0
C2936 C 0.69547 0.76769 0.21692 0.0
H2937 H 0.69014 0.74912 0.29345 0.0
H2938 H 0.69658 0.76419 0.27295 0.0
H2939 H 0.68553 0.75003 0.22641 0.0
H2940 H 0.70372 0.79291 0.16867 0.0
H2941 H 0.70227 0.7777 0.1869 0.0
H2942 H 0.71958 0.79101 0.23453 0.0
C2943 C 0.69522 0.75546 0.26998 0.0
C2944 C 0.69306 0.75892 0.22818 0.0
C2945 C 0.69158 0.74681 0.28173 0.0
C2946 C 0.70566 0.79517 0.181 0.0
C2947 C 0.70476 0.78645 0.19147 0.0
C2948 C 0.71207 0.78214 0.23261 0.0
C2949 C 0.69669 0.75274 0.25445 0.0
C2950 C 0.69992 0.76176 0.24193 0.0
C2951 C 0.70693 0.78899 0.20763 0.0
C2952 C 0.70493 0.77946 0.21906 0.0
H2953 H 0.68991 0.724 0.25964 0.0
H2954 H 0.6958 0.73901 0.23902 0.0
H2955 H 0.71502 0.77577 0.25443 0.0
H2956 H 0.71395 0.81812 0.20689 0.0
H2957 H 0.712 0.80288 0.22528 0.0
C2958 C 0.24876 0.9449 0.28411 0.0
C2959 C 0.26056 0.95351 0.28018 0.0
C2960 C 0.24006 0.93955 0.27246 0.0
C2961 C 0.23649 0.93152 0.23103 0.0
H2962 H 0.20486 0.92733 0.23615 0.0
C2963 C 0.20022 0.90781 0.1837 0.0
C2964 C 0.18858 0.90005 0.18907 0.0
C2965 C 0.20907 0.91552 0.19416 0.0
C2966 C 0.21361 0.92831 0.2346 0.0
H2967 H 0.27232 0.96344 0.26082 0.0
H2968 H 0.25716 0.95378 0.24045 0.0
H2969 H 0.22019 0.93853 0.2558 0.0
H2970 H 0.17704 0.89423 0.20952 0.0
H2971 H 0.19251 0.90741 0.22785 0.0
H2972 H 0.22988 0.92094 0.21022 0.0
C2973 C 0.25472 0.95122 0.2526 0.0
C2974 C 0.22239 0.93477 0.24583 0.0
C2975 C 0.26339 0.95669 0.26428 0.0
C2976 C 0.18591 0.90024 0.20504 0.0
C2977 C 0.19479 0.90783 0.21552 0.0
C2978 C 0.22768 0.92494 0.2199 0.0
C2979 C 0.24298 0.94257 0.25659 0.0
C2980 C 0.23388 0.93635 0.24422 0.0
C2981 C 0.20651 0.91552 0.21025 0.0
C2982 C 0.21608 0.92315 0.22161 0.0
H2983 H 0.24627 0.94204 0.29616 0.0
H2984 H 0.23112 0.93278 0.27583 0.0
H2985 H 0.24525 0.9325 0.22961 0.0
H2986 H 0.20246 0.90793 0.1714 0.0
H2987 H 0.21793 0.92147 0.18961 0.0
C2988 C 0.69849 0.95537 0.273 0.0
C2989 C 0.68889 0.94915 0.28342 0.0
C2990 C 0.7013 0.94918 0.26187 0.0
C2991 C 0.69618 0.9189 0.25284 0.0
H2992 H 0.70484 0.93108 0.21034 0.0
C2993 C 0.69428 0.88948 0.2011 0.0
C2994 C 0.70397 0.8942 0.19061 0.0
C2995 C 0.69338 0.89671 0.21256 0.0
C2996 C 0.70257 0.92765 0.22222 0.0
H2997 H 0.6745 0.93164 0.29006 0.0
H2998 H 0.67925 0.92088 0.2706 0.0
H2999 H 0.70152 0.94278 0.23019 0.0
H3000 H 0.72025 0.9102 0.18377 0.0
H3001 H 0.71862 0.92292 0.20384 0.0
H3002 H 0.69692 0.90363 0.24476 0.0
C3003 C 0.68485 0.93049 0.27125 0.0
C3004 C 0.70069 0.93435 0.2336 0.0
C3005 C 0.6821 0.93666 0.28241 0.0
C3006 C 0.71272 0.90633 0.19176 0.0
C3007 C 0.71175 0.91361 0.20315 0.0
C3008 C 0.69797 0.91217 0.24146 0.0
C3009 C 0.69451 0.93665 0.26088 0.0
C3010 C 0.6973 0.92997 0.24899 0.0
C3011 C 0.7021 0.90884 0.21373 0.0
C3012 C 0.70102 0.9164 0.22598 0.0
H3013 H 0.70394 0.965 0.27359 0.0
H3014 H 0.70887 0.95419 0.25417 0.0
H3015 H 0.69386 0.91537 0.26466 0.0
H3016 H 0.68747 0.88014 0.20061 0.0
H3017 H 0.68578 0.89282 0.22045 0.0
C3018 C 0.04606 0.74812 0.27931 0.0
C3019 C 0.04083 0.7359 0.27578 0.0
C3020 C 0.05155 0.75669 0.26753 0.0
C3021 C 0.06572 0.76083 0.22871 0.0
H3022 H 0.06419 0.78997 0.22819 0.0
C3023 C 0.08948 0.79666 0.18092 0.0
C3024 C 0.09605 0.80851 0.18628 0.0
C3025 C 0.08154 0.78758 0.19092 0.0
C3026 C 0.06475 0.7819 0.22824 0.0
H3027 H 0.03683 0.72309 0.25701 0.0
H3028 H 0.04637 0.73806 0.23641 0.0
H3029 H 0.05235 0.7744 0.2473 0.0
H3030 H 0.09928 0.82012 0.20634 0.0
H3031 H 0.08541 0.8043 0.22376 0.0
H3032 H 0.07823 0.76837 0.2098 0.0
C3033 C 0.04642 0.74101 0.24835 0.0
C3034 C 0.05797 0.77299 0.23918 0.0
C3035 C 0.04095 0.73244 0.26014 0.0
C3036 C 0.09425 0.81112 0.20176 0.0
C3037 C 0.08629 0.80204 0.21175 0.0
C3038 C 0.07247 0.76972 0.21775 0.0
C3039 C 0.05192 0.75325 0.25194 0.0
C3040 C 0.05848 0.7624 0.23966 0.0
C3041 C 0.07996 0.79015 0.20651 0.0
C3042 C 0.07217 0.78041 0.2175 0.0
H3043 H 0.04628 0.75109 0.29128 0.0
H3044 H 0.05586 0.76603 0.27076 0.0
H3045 H 0.06648 0.75288 0.22891 0.0
H3046 H 0.09051 0.79438 0.16898 0.0
H3047 H 0.07665 0.77853 0.18646 0.0
C3048 C 0.26947 0.32235 0.26693 0.0
C3049 C 0.26957 0.31352 0.27639 0.0
C3050 C 0.26091 0.31926 0.25517 0.0
C3051 C 0.23086 0.29563 0.24377 0.0
H3052 H 0.23908 0.3128 0.2042 0.0
C3053 C 0.19572 0.28594 0.19548 0.0
C3054 C 0.19602 0.29611 0.18919 0.0
C3055 C 0.2051 0.28708 0.20485 0.0
C3056 C 0.23664 0.30795 0.21522 0.0
H3057 H 0.26089 0.29448 0.28068 0.0
H3058 H 0.24589 0.28907 0.2601 0.0
H3059 H 0.25478 0.31653 0.22299 0.0
H3060 H 0.20657 0.31537 0.18724 0.0
H3061 H 0.22285 0.31737 0.20367 0.0
H3062 H 0.21269 0.28721 0.23608 0.0
C3063 C 0.25238 0.2984 0.26193 0.0
C3064 C 0.24563 0.3101 0.22598 0.0
C3065 C 0.26096 0.3015 0.27371 0.0
C3066 C 0.20602 0.30739 0.19208 0.0
C3067 C 0.21541 0.30851 0.20135 0.0
C3068 C 0.22187 0.29347 0.23297 0.0
C3069 C 0.25223 0.30726 0.25257 0.0
C3070 C 0.24282 0.30414 0.24052 0.0
C3071 C 0.215 0.29839 0.20799 0.0
C3072 C 0.22464 0.29978 0.21871 0.0
H3073 H 0.27583 0.33171 0.26886 0.0
H3074 H 0.26091 0.32633 0.24839 0.0
H3075 H 0.22838 0.29098 0.25492 0.0
H3076 H 0.18809 0.27714 0.19351 0.0
H3077 H 0.20458 0.27911 0.20971 0.0
C3078 C 0.28913 0.36449 0.41297 0.0
C3079 C 0.28905 0.35361 0.41225 0.0
C3080 C 0.28302 0.3666 0.42497 0.0
C3081 C 0.25762 0.35053 0.45138 0.0
H3082 H 0.27096 0.38033 0.4745 0.0
C3083 C 0.23145 0.35609 0.50175 0.0
C3084 C 0.23155 0.36696 0.50266 0.0
C3085 C 0.23946 0.35493 0.49196 0.0
C3086 C 0.26706 0.372 0.46804 0.0
H3087 H 0.28258 0.33645 0.42356 0.0
H3088 H 0.27193 0.34015 0.44447 0.0
H3089 H 0.2831 0.37752 0.45476 0.0
H3090 H 0.24028 0.38523 0.49448 0.0
H3091 H 0.25414 0.38317 0.47699 0.0
H3092 H 0.24152 0.34506 0.46417 0.0
C3093 C 0.27671 0.34703 0.43577 0.0
C3094 C 0.27403 0.3704 0.45677 0.0
C3095 C 0.2829 0.34497 0.42388 0.0
C3096 C 0.24009 0.37678 0.49403 0.0
C3097 C 0.24803 0.37559 0.48406 0.0
C3098 C 0.25065 0.35216 0.4625 0.0
C3099 C 0.27661 0.35782 0.43635 0.0
C3100 C 0.26937 0.35962 0.44838 0.0
C3101 C 0.24765 0.36457 0.48267 0.0
C3102 C 0.25527 0.36289 0.47103 0.0
H3103 H 0.29387 0.37134 0.40422 0.0
H3104 H 0.28302 0.37496 0.42508 0.0
H3105 H 0.25373 0.34221 0.44488 0.0
H3106 H 0.22506 0.34844 0.50848 0.0
H3107 H 0.23912 0.34641 0.49152 0.0
C3108 C 0.65431 0.93272 0.42157 0.0
C3109 C 0.64557 0.93368 0.41297 0.0
C3110 C 0.65104 0.92419 0.43338 0.0
C3111 C 0.62635 0.89521 0.44602 0.0
H3112 H 0.64501 0.90249 0.48427 0.0
C3113 C 0.61662 0.85959 0.49371 0.0
C3114 C 0.62673 0.85929 0.49903 0.0
C3115 C 0.61791 0.86915 0.4846 0.0
C3116 C 0.63974 0.90031 0.47363 0.0
H3117 H 0.62653 0.92658 0.41032 0.0
H3118 H 0.62081 0.91157 0.43095 0.0
H3119 H 0.64909 0.91842 0.46572 0.0
H3120 H 0.64607 0.86894 0.49953 0.0
H3121 H 0.64833 0.88549 0.48351 0.0
H3122 H 0.61718 0.87703 0.45377 0.0
C3123 C 0.63019 0.91738 0.42841 0.0
C3124 C 0.64207 0.90943 0.46301 0.0
C3125 C 0.63347 0.92596 0.41658 0.0
C3126 C 0.63812 0.86885 0.49541 0.0
C3127 C 0.63941 0.8784 0.4864 0.0
C3128 C 0.62401 0.88607 0.45666 0.0
C3129 C 0.63895 0.91638 0.43689 0.0
C3130 C 0.63558 0.90694 0.44892 0.0
C3131 C 0.62933 0.87862 0.48078 0.0
C3132 C 0.63086 0.88849 0.4704 0.0
H3133 H 0.6637 0.93836 0.41889 0.0
H3134 H 0.65799 0.92349 0.43948 0.0
H3135 H 0.62127 0.89298 0.43521 0.0
H3136 H 0.60773 0.85232 0.49629 0.0
H3137 H 0.60998 0.86912 0.48051 0.0
C3138 C 0.06998 0.73188 0.41235 0.0
C3139 C 0.06811 0.72103 0.40604 0.0
C3140 C 0.0787 0.73791 0.42379 0.0
C3141 C 0.09648 0.73377 0.45411 0.0
H3142 H 0.11687 0.76806 0.45023 0.0
C3143 C 0.13676 0.76155 0.49535 0.0
C3144 C 0.13871 0.77279 0.50011 0.0
C3145 C 0.12817 0.75491 0.48394 0.0
C3146 C 0.11116 0.75851 0.4516 0.0
H3147 H 0.07397 0.70802 0.40688 0.0
H3148 H 0.08914 0.71853 0.42704 0.0
H3149 H 0.10185 0.75707 0.43022 0.0
H3150 H 0.13315 0.78587 0.49655 0.0
H3151 H 0.11798 0.77419 0.4771 0.0
H3152 H 0.10571 0.73524 0.4756 0.0
C3153 C 0.08378 0.72231 0.42314 0.0
C3154 C 0.10257 0.75221 0.44011 0.0
C3155 C 0.07508 0.71628 0.41162 0.0
C3156 C 0.13179 0.77718 0.49333 0.0
C3157 C 0.1232 0.77055 0.48199 0.0
C3158 C 0.10505 0.74009 0.46566 0.0
C3159 C 0.08572 0.73322 0.42927 0.0
C3160 C 0.09508 0.73979 0.44129 0.0
C3161 C 0.12135 0.75938 0.47704 0.0
C3162 C 0.11243 0.75255 0.4646 0.0
H3163 H 0.06461 0.73567 0.40859 0.0
H3164 H 0.07984 0.7462 0.42849 0.0
H3165 H 0.09076 0.72422 0.4554 0.0
H3166 H 0.14186 0.75785 0.50045 0.0
H3167 H 0.12704 0.74639 0.48033 0.0
C3168 C 0.29988 0.04981 0.73464 0.0
C3169 C 0.30712 0.04506 0.73899 0.0
C3170 C 0.29658 0.05561 0.7457 0.0
C3171 C 0.29473 0.05991 0.78853 0.0
H3172 H 0.2972 0.08972 0.77543 0.0
C3173 C 0.29674 0.09512 0.83219 0.0
C3174 C 0.29087 0.10137 0.82807 0.0
C3175 C 0.29731 0.08716 0.82161 0.0
C3176 C 0.29628 0.08132 0.77923 0.0
H3177 H 0.31619 0.0423 0.75853 0.0
H3178 H 0.31066 0.05266 0.77777 0.0
H3179 H 0.30079 0.0778 0.75643 0.0
H3180 H 0.28076 0.10394 0.80974 0.0
H3181 H 0.2816 0.0899 0.79137 0.0
H3182 H 0.29044 0.0636 0.81144 0.0
C3183 C 0.30745 0.0518 0.76582 0.0
C3184 C 0.29833 0.07448 0.76833 0.0
C3185 C 0.31074 0.04599 0.75475 0.0
C3186 C 0.28528 0.09921 0.81332 0.0
C3187 C 0.28587 0.09126 0.80273 0.0
C3188 C 0.29269 0.06678 0.79946 0.0
C3189 C 0.30046 0.05682 0.76138 0.0
C3190 C 0.29767 0.06374 0.77287 0.0
C3191 C 0.29205 0.08528 0.80666 0.0
C3192 C 0.29353 0.07761 0.79495 0.0
H3193 H 0.29703 0.04936 0.72257 0.0
H3194 H 0.29107 0.05924 0.74194 0.0
H3195 H 0.29399 0.0516 0.79235 0.0
H3196 H 0.30101 0.09649 0.84354 0.0
H3197 H 0.30222 0.08277 0.82496 0.0
C3198 C 0.94496 0.24929 0.73329 0.0
C3199 C 0.95434 0.26082 0.7369 0.0
C3200 C 0.93979 0.2406 0.74497 0.0
C3201 C 0.93368 0.23716 0.78677 0.0
H3202 H 0.9275 0.2049 0.78043 0.0
C3203 C 0.90958 0.20095 0.834 0.0
C3204 C 0.90125 0.18948 0.82863 0.0
C3205 C 0.9174 0.20965 0.82347 0.0
C3206 C 0.92903 0.21382 0.78234 0.0
H3207 H 0.96583 0.27208 0.75572 0.0
H3208 H 0.95645 0.25697 0.7762 0.0
H3209 H 0.93857 0.22011 0.76059 0.0
H3210 H 0.89454 0.17807 0.80812 0.0
H3211 H 0.90788 0.19329 0.78965 0.0
H3212 H 0.92372 0.23087 0.80809 0.0
C3213 C 0.95317 0.25473 0.76425 0.0
C3214 C 0.93543 0.22253 0.771 0.0
C3215 C 0.95847 0.26339 0.75252 0.0
C3216 C 0.90099 0.18681 0.81258 0.0
C3217 C 0.90869 0.19554 0.80202 0.0
C3218 C 0.92714 0.22842 0.798 0.0
C3219 C 0.94375 0.24328 0.76058 0.0
C3220 C 0.93771 0.23425 0.77306 0.0
C3221 C 0.91693 0.20711 0.80729 0.0
C3222 C 0.92461 0.21659 0.79586 0.0
H3223 H 0.94135 0.24702 0.7215 0.0
H3224 H 0.93242 0.23187 0.74188 0.0
H3225 H 0.93522 0.24611 0.78854 0.0
H3226 H 0.91002 0.20319 0.84636 0.0
H3227 H 0.92378 0.21837 0.82803 0.0
C3228 C 0.73856 0.67907 0.7331 0.0
C3229 C 0.73127 0.68422 0.734 0.0
C3230 C 0.74679 0.68103 0.74492 0.0
C3231 C 0.76323 0.70125 0.77809 0.0
H3232 H 0.77005 0.67603 0.78781 0.0
C3233 C 0.7954 0.70289 0.82758 0.0
C3234 C 0.80408 0.70021 0.82218 0.0
C3235 C 0.78605 0.70129 0.81776 0.0
C3236 C 0.76821 0.68314 0.7852 0.0
H3237 H 0.72687 0.69541 0.74823 0.0
H3238 H 0.74093 0.69844 0.76923 0.0
H3239 H 0.75409 0.67216 0.76946 0.0
H3240 H 0.80998 0.6943 0.80189 0.0
H3241 H 0.79344 0.69109 0.78509 0.0
H3242 H 0.77733 0.71212 0.79419 0.0
C3243 C 0.74046 0.6931 0.75915 0.0
C3244 C 0.75914 0.68097 0.77462 0.0
C3245 C 0.73229 0.69124 0.7472 0.0
C3246 C 0.8033 0.69615 0.80663 0.0
C3247 C 0.79388 0.69437 0.79695 0.0
C3248 C 0.77222 0.70336 0.7889 0.0
C3249 C 0.74783 0.68802 0.75814 0.0
C3250 C 0.75671 0.69007 0.77061 0.0
C3251 C 0.78512 0.69682 0.80247 0.0
C3252 C 0.77494 0.69439 0.79225 0.0
H3253 H 0.73788 0.67341 0.7233 0.0
H3254 H 0.75243 0.67714 0.74354 0.0
H3255 H 0.7617 0.7085 0.7752 0.0
H3256 H 0.79563 0.70591 0.83952 0.0
H3257 H 0.77936 0.7032 0.82224 0.0
C3258 C 0.71694 0.65609 0.59226 0.0
C3259 C 0.70666 0.64664 0.59913 0.0
C3260 C 0.72342 0.65385 0.58102 0.0
C3261 C 0.7224 0.63118 0.55351 0.0
H3262 H 0.75677 0.6494 0.55865 0.0
C3263 C 0.75578 0.62107 0.52039 0.0
C3264 C 0.76649 0.63102 0.51533 0.0
C3265 C 0.74767 0.62261 0.52958 0.0
C3266 C 0.74719 0.64433 0.55692 0.0
H3267 H 0.69487 0.62744 0.59902 0.0
H3268 H 0.7064 0.62351 0.57958 0.0
H3269 H 0.74409 0.65273 0.57653 0.0
H3270 H 0.7767 0.65036 0.51498 0.0
H3271 H 0.7626 0.65304 0.53093 0.0
H3272 H 0.72562 0.6227 0.53392 0.0
C3273 C 0.70936 0.63266 0.58285 0.0
C3274 C 0.73992 0.64625 0.56717 0.0
C3275 C 0.70283 0.63491 0.59411 0.0
C3276 C 0.76867 0.64252 0.51903 0.0
C3277 C 0.76059 0.64405 0.52816 0.0
C3278 C 0.72972 0.62923 0.54323 0.0
C3279 C 0.71986 0.64211 0.57641 0.0
C3280 C 0.72744 0.63979 0.56551 0.0
C3281 C 0.75013 0.63412 0.53383 0.0
C3282 C 0.7422 0.63588 0.54476 0.0
H3283 H 0.72026 0.66523 0.59596 0.0
H3284 H 0.73136 0.66135 0.5761 0.0
H3285 H 0.71282 0.6261 0.55189 0.0
H3286 H 0.75389 0.61211 0.51775 0.0
H3287 H 0.7397 0.61479 0.53384 0.0
C3288 C 0.34193 0.06346 0.59413 0.0
C3289 C 0.35033 0.06532 0.6058 0.0
C3290 C 0.34475 0.07184 0.58218 0.0
C3291 C 0.36627 0.10363 0.57272 0.0
H3292 H 0.35154 0.09423 0.53157 0.0
C3293 C 0.37707 0.13663 0.52098 0.0
C3294 C 0.36697 0.1367 0.515 0.0
C3295 C 0.37579 0.12761 0.53119 0.0
C3296 C 0.35572 0.09695 0.54302 0.0
H3297 H 0.36836 0.07706 0.6139 0.0
H3298 H 0.37354 0.09146 0.59264 0.0
H3299 H 0.34829 0.07892 0.5508 0.0
H3300 H 0.34756 0.12717 0.51522 0.0
H3301 H 0.34543 0.11122 0.53242 0.0
H3302 H 0.37388 0.12168 0.56466 0.0
C3303 C 0.36462 0.08378 0.59295 0.0
C3304 C 0.35381 0.0882 0.5541 0.0
C3305 C 0.36171 0.07551 0.60507 0.0
C3306 C 0.35557 0.12733 0.51924 0.0
C3307 C 0.35431 0.11821 0.52918 0.0
C3308 C 0.36837 0.11235 0.56152 0.0
C3309 C 0.35611 0.08217 0.58147 0.0
C3310 C 0.35888 0.09143 0.56921 0.0
C3311 C 0.3644 0.11835 0.53537 0.0
C3312 C 0.36296 0.10908 0.54669 0.0
H3313 H 0.33304 0.05571 0.59456 0.0
H3314 H 0.33786 0.07036 0.57379 0.0
H3315 H 0.37016 0.10653 0.58428 0.0
H3316 H 0.38599 0.14352 0.51777 0.0
H3317 H 0.3837 0.12784 0.53577 0.0
C3318 C 0.93566 0.28637 0.58816 0.0
C3319 C 0.93249 0.28352 0.60406 0.0
C3320 C 0.92708 0.28106 0.5763 0.0
C3321 C 0.89477 0.26614 0.56925 0.0
H3322 H 0.90129 0.25172 0.53343 0.0
C3323 C 0.85744 0.23249 0.52874 0.0
C3324 C 0.85989 0.23227 0.51269 0.0
C3325 C 0.86652 0.23989 0.53913 0.0
C3326 C 0.89938 0.25589 0.54318 0.0
H3327 H 0.9178 0.27263 0.61984 0.0
H3328 H 0.90287 0.26364 0.59922 0.0
H3329 H 0.91685 0.26261 0.5529 0.0
H3330 H 0.87364 0.23992 0.49481 0.0
H3331 H 0.88948 0.25305 0.51289 0.0
H3332 H 0.87733 0.25949 0.5596 0.0
C3333 C 0.91197 0.27007 0.59596 0.0
C3334 C 0.9083 0.2621 0.55436 0.0
C3335 C 0.92054 0.27526 0.60778 0.0
C3336 C 0.87154 0.23982 0.50716 0.0
C3337 C 0.88061 0.2473 0.51754 0.0
C3338 C 0.88589 0.26004 0.55801 0.0
C3339 C 0.91515 0.27289 0.58011 0.0
C3340 C 0.90602 0.26711 0.56763 0.0
C3341 C 0.87824 0.24732 0.53369 0.0
C3342 C 0.88801 0.25465 0.54497 0.0
H3343 H 0.94473 0.29281 0.58485 0.0
H3344 H 0.92976 0.28346 0.56417 0.0
H3345 H 0.89283 0.27008 0.57925 0.0
H3346 H 0.84859 0.22663 0.53338 0.0
H3347 H 0.86439 0.23949 0.55151 0.0
C3348 C 0.3548 0.2882 0.59595 0.0
C3349 C 0.35215 0.28401 0.61152 0.0
C3350 C 0.35684 0.28171 0.58443 0.0
C3351 C 0.35113 0.25118 0.57613 0.0
H3352 H 0.37437 0.26692 0.54292 0.0
C3353 C 0.35425 0.22467 0.5239 0.0
C3354 C 0.36567 0.2278 0.51828 0.0
C3355 C 0.35275 0.23193 0.53471 0.0
C3356 C 0.36791 0.26237 0.55219 0.0
H3357 H 0.34967 0.26969 0.62711 0.0
H3358 H 0.35375 0.25872 0.60728 0.0
H3359 H 0.37199 0.27884 0.56328 0.0
H3360 H 0.38444 0.24126 0.51939 0.0
H3361 H 0.38188 0.25369 0.53873 0.0
H3362 H 0.34735 0.23471 0.56546 0.0
C3363 C 0.35399 0.26689 0.60386 0.0
C3364 C 0.36644 0.26922 0.56376 0.0
C3365 C 0.35184 0.2733 0.61533 0.0
C3366 C 0.37554 0.23848 0.52362 0.0
C3367 C 0.37405 0.2457 0.53457 0.0
C3368 C 0.35267 0.24434 0.56467 0.0
C3369 C 0.35636 0.27091 0.58821 0.0
C3370 C 0.35803 0.2637 0.57588 0.0
C3371 C 0.36264 0.24246 0.54035 0.0
C3372 C 0.36105 0.24984 0.55251 0.0
H3373 H 0.35526 0.29648 0.59263 0.0
H3374 H 0.35854 0.28504 0.57249 0.0
H3375 H 0.34443 0.2466 0.58512 0.0
H3376 H 0.34645 0.21645 0.52024 0.0
H3377 H 0.34381 0.22925 0.53869 0.0
C3378 C 0.71623 0.07698 0.60803 0.0
C3379 C 0.72125 0.07031 0.61383 0.0
C3380 C 0.72222 0.08579 0.59663 0.0
C3381 C 0.75215 0.10538 0.5803 0.0
H3382 H 0.73525 0.1072 0.54378 0.0
C3383 C 0.77715 0.13358 0.5265 0.0
C3384 C 0.77258 0.14008 0.51895 0.0
C3385 C 0.77057 0.12529 0.53815 0.0
C3386 C 0.74007 0.10692 0.55401 0.0
H3387 H 0.73637 0.0675 0.61187 0.0
H3388 H 0.74684 0.08294 0.59222 0.0
H3389 H 0.72432 0.09243 0.56421 0.0
H3390 H 0.7574 0.1428 0.5176 0.0
H3391 H 0.74599 0.12847 0.53825 0.0
H3392 H 0.76788 0.11985 0.57023 0.0
C3393 C 0.73836 0.08147 0.59664 0.0
C3394 C 0.73381 0.09846 0.56569 0.0
C3395 C 0.73236 0.07264 0.60794 0.0
C3396 C 0.76122 0.13802 0.52328 0.0
C3397 C 0.75463 0.12972 0.535 0.0
C3398 C 0.75839 0.11387 0.56868 0.0
C3399 C 0.73337 0.08815 0.59088 0.0
C3400 C 0.73982 0.09751 0.57886 0.0
C3401 C 0.75928 0.12331 0.54263 0.0
C3402 C 0.75246 0.11464 0.5553 0.0
H3403 H 0.70776 0.07552 0.61244 0.0
H3404 H 0.71821 0.09088 0.5925 0.0
H3405 H 0.75699 0.10501 0.59045 0.0
H3406 H 0.78593 0.13505 0.52362 0.0
H3407 H 0.77435 0.12038 0.54361 0.0
C3408 C 0.92649 0.63923 0.6024 0.0
C3409 C 0.9347 0.65113 0.60643 0.0
C3410 C 0.91796 0.63663 0.59068 0.0
C3411 C 0.90232 0.65002 0.57067 0.0
H3412 H 0.89347 0.62461 0.54021 0.0
C3413 C 0.87149 0.64418 0.51937 0.0
C3414 C 0.86201 0.63258 0.51651 0.0
C3415 C 0.88085 0.64606 0.52925 0.0
C3416 C 0.8958 0.63167 0.54872 0.0
H3417 H 0.94042 0.66963 0.60118 0.0
H3418 H 0.92581 0.66511 0.58054 0.0
H3419 H 0.90892 0.62864 0.55973 0.0
H3420 H 0.85517 0.6138 0.52115 0.0
H3421 H 0.8716 0.61711 0.53857 0.0
H3422 H 0.88925 0.65307 0.5598 0.0
C3423 C 0.92584 0.65777 0.58657 0.0
C3424 C 0.90462 0.63398 0.5599 0.0
C3425 C 0.93432 0.66036 0.59828 0.0
C3426 C 0.86238 0.62284 0.52312 0.0
C3427 C 0.87178 0.62473 0.53308 0.0
C3428 C 0.89356 0.64775 0.55953 0.0
C3429 C 0.91746 0.64589 0.58276 0.0
C3430 C 0.90803 0.64324 0.57094 0.0
C3431 C 0.88095 0.6364 0.53654 0.0
C3432 C 0.89025 0.63861 0.54836 0.0
H3433 H 0.92663 0.63191 0.60833 0.0
H3434 H 0.91159 0.62738 0.58808 0.0
H3435 H 0.90452 0.65703 0.57923 0.0
H3436 H 0.87156 0.65184 0.51415 0.0
H3437 H 0.88793 0.65514 0.53139 0.0
C3438 C 0.9519 0.68458 0.75523 0.0
C3439 C 0.95686 0.69207 0.74214 0.0
C3440 C 0.94646 0.68753 0.76722 0.0
C3441 C 0.93258 0.70605 0.77469 0.0
H3442 H 0.93264 0.69647 0.81786 0.0
C3443 C 0.90772 0.71519 0.82433 0.0
C3444 C 0.89973 0.70491 0.83272 0.0
C3445 C 0.91632 0.71506 0.81449 0.0
C3446 C 0.93258 0.69922 0.80585 0.0
H3447 H 0.96042 0.70874 0.73156 0.0
H3448 H 0.95122 0.71411 0.75271 0.0
H3449 H 0.94495 0.69388 0.79828 0.0
H3450 H 0.89479 0.68666 0.83808 0.0
H3451 H 0.90992 0.68648 0.82106 0.0
H3452 H 0.9202 0.71139 0.78236 0.0
C3453 C 0.95123 0.70578 0.75355 0.0
C3454 C 0.93957 0.69768 0.7946 0.0
C3455 C 0.95655 0.70274 0.74146 0.0
C3456 C 0.90081 0.69468 0.83165 0.0
C3457 C 0.90951 0.6946 0.82201 0.0
C3458 C 0.92572 0.70773 0.78599 0.0
C3459 C 0.94597 0.69813 0.76649 0.0
C3460 C 0.93947 0.70084 0.7788 0.0
C3461 C 0.91718 0.70471 0.81309 0.0
C3462 C 0.92547 0.70412 0.8016 0.0
H3463 H 0.95188 0.67622 0.75595 0.0
H3464 H 0.94231 0.68129 0.7768 0.0
H3465 H 0.9321 0.70842 0.76263 0.0
H3466 H 0.90702 0.72317 0.82489 0.0
H3467 H 0.92217 0.72299 0.80779 0.0
C3468 C 0.30762 0.26867 0.75795 0.0
C3469 C 0.30694 0.26557 0.74196 0.0
C3470 C 0.30423 0.25998 0.76963 0.0
C3471 C 0.28683 0.22762 0.77692 0.0
H3472 H 0.30975 0.23432 0.81023 0.0
C3473 C 0.28592 0.19061 0.8154 0.0
C3474 C 0.28986 0.19327 0.83104 0.0
C3475 C 0.28663 0.19952 0.80548 0.0
C3476 C 0.30311 0.23235 0.80123 0.0
H3477 H 0.30202 0.25081 0.7258 0.0
H3478 H 0.2959 0.23569 0.74617 0.0
H3479 H 0.31333 0.24979 0.79124 0.0
H3480 H 0.29704 0.20713 0.84881 0.0
H3481 H 0.298 0.22265 0.83162 0.0
H3482 H 0.2766 0.21017 0.78685 0.0
C3483 C 0.29898 0.24483 0.74963 0.0
C3484 C 0.3052 0.24123 0.79031 0.0
C3485 C 0.30247 0.25352 0.73795 0.0
C3486 C 0.29409 0.20489 0.83673 0.0
C3487 C 0.29468 0.21377 0.82686 0.0
C3488 C 0.28467 0.21876 0.78793 0.0
C3489 C 0.29998 0.248 0.76558 0.0
C3490 C 0.29718 0.23889 0.77791 0.0
C3491 C 0.29118 0.21126 0.81101 0.0
C3492 C 0.29289 0.22095 0.80008 0.0
H3493 H 0.3108 0.27782 0.76146 0.0
H3494 H 0.30497 0.26264 0.78185 0.0
H3495 H 0.28043 0.22563 0.76757 0.0
H3496 H 0.28274 0.18175 0.81067 0.0
H3497 H 0.28402 0.19728 0.7933 0.0
C3498 C 0.7312 0.04241 0.75861 0.0
C3499 C 0.7346 0.04206 0.743 0.0
C3500 C 0.73983 0.04807 0.77031 0.0
C3501 C 0.77177 0.05957 0.77945 0.0
H3502 H 0.76759 0.08058 0.80798 0.0
C3503 C 0.81035 0.09612 0.81603 0.0
C3504 C 0.80785 0.09835 0.83135 0.0
C3505 C 0.80117 0.08808 0.80622 0.0
C3506 C 0.76882 0.07461 0.80028 0.0
H3507 H 0.74975 0.04736 0.72748 0.0
H3508 H 0.76476 0.05722 0.74784 0.0
H3509 H 0.75194 0.06857 0.78916 0.0
H3510 H 0.7938 0.09351 0.84859 0.0
H3511 H 0.77777 0.07948 0.83144 0.0
H3512 H 0.78875 0.06579 0.79042 0.0
C3513 C 0.75543 0.05295 0.75111 0.0
C3514 C 0.75984 0.06772 0.78949 0.0
C3515 C 0.74681 0.04729 0.73943 0.0
C3516 C 0.79599 0.09214 0.83676 0.0
C3517 C 0.78681 0.0841 0.82694 0.0
C3518 C 0.78076 0.06647 0.79025 0.0
C3519 C 0.75204 0.05352 0.76666 0.0
C3520 C 0.76126 0.06022 0.77883 0.0
C3521 C 0.78927 0.08209 0.81149 0.0
C3522 C 0.77944 0.07417 0.80068 0.0
H3523 H 0.72187 0.0383 0.7618 0.0
H3524 H 0.73693 0.0482 0.78223 0.0
H3525 H 0.77306 0.05374 0.77156 0.0
H3526 H 0.81936 0.10087 0.81143 0.0
H3527 H 0.80335 0.08687 0.79431 0.0
C3528 C 0.04517 0.32283 0.04022 0.0
C3529 C 0.04909 0.33492 0.03728 0.0
C3530 C 0.05286 0.31943 0.04685 0.0
C3531 C 0.07989 0.33116 0.07111 0.0
H3532 H 0.07995 0.30262 0.05737 0.0
C3533 C 0.11314 0.3183 0.09604 0.0
C3534 C 0.1086 0.30625 0.09998 0.0
C3535 C 0.10626 0.32182 0.08745 0.0
C3536 C 0.07996 0.31055 0.06142 0.0
H3537 H 0.06428 0.35289 0.03857 0.0
H3538 H 0.07772 0.34693 0.05017 0.0
H3539 H 0.06735 0.30884 0.04388 0.0
H3540 H 0.09333 0.28841 0.09781 0.0
H3541 H 0.08126 0.29456 0.08282 0.0
H3542 H 0.09238 0.33283 0.08874 0.0
C3543 C 0.06863 0.34011 0.04755 0.0
C3544 C 0.07275 0.31412 0.05369 0.0
C3545 C 0.06094 0.34352 0.0409 0.0
C3546 C 0.09711 0.29775 0.09484 0.0
C3547 C 0.09021 0.30127 0.08625 0.0
C3548 C 0.08708 0.32759 0.07883 0.0
C3549 C 0.06464 0.32803 0.05071 0.0
C3550 C 0.07261 0.32444 0.0585 0.0
C3551 C 0.09467 0.31337 0.08259 0.0
C3552 C 0.08717 0.31723 0.07412 0.0
H3553 H 0.03604 0.316 0.03781 0.0
H3554 H 0.04946 0.31007 0.04936 0.0
H3555 H 0.07983 0.33903 0.07528 0.0
H3556 H 0.12205 0.32504 0.09956 0.0
H3557 H 0.11005 0.33117 0.08456 0.0
C3558 C 0.65727 0.71259 0.03882 0.0
C3559 C 0.66202 0.70554 0.04406 0.0
C3560 C 0.66124 0.72392 0.04519 0.0
C3561 C 0.68639 0.74797 0.06764 0.0
H3562 H 0.66388 0.7589 0.07504 0.0
C3563 C 0.69736 0.78999 0.10428 0.0
C3564 C 0.69347 0.79754 0.09815 0.0
C3565 C 0.69395 0.779 0.09718 0.0
C3566 C 0.67028 0.756 0.07289 0.0
H3567 H 0.67477 0.70499 0.06007 0.0
H3568 H 0.68131 0.72449 0.07159 0.0
H3569 H 0.65686 0.73912 0.06393 0.0
H3570 H 0.68336 0.79964 0.07935 0.0
H3571 H 0.67726 0.78037 0.06717 0.0
H3572 H 0.69975 0.76482 0.07695 0.0
C3573 C 0.67467 0.72136 0.06235 0.0
C3574 C 0.66628 0.74468 0.06649 0.0
C3575 C 0.67077 0.71008 0.05591 0.0
C3576 C 0.68631 0.79394 0.08457 0.0
C3577 C 0.68283 0.78292 0.07756 0.0
C3578 C 0.69037 0.75925 0.07417 0.0
C3579 C 0.67001 0.72845 0.05702 0.0
C3580 C 0.67428 0.74053 0.06378 0.0
C3581 C 0.68652 0.7753 0.08388 0.0
C3582 C 0.68236 0.76338 0.07684 0.0
H3583 H 0.65043 0.70933 0.02984 0.0
H3584 H 0.65754 0.72918 0.04068 0.0
H3585 H 0.69284 0.74515 0.06545 0.0
H3586 H 0.70274 0.7924 0.11484 0.0
H3587 H 0.69683 0.77324 0.10237 0.0
C3588 C 0.27933 0.94378 0.03481 0.0
C3589 C 0.28864 0.95312 0.0433 0.0
C3590 C 0.26816 0.93669 0.04175 0.0
C3591 C 0.25289 0.92814 0.08043 0.0
H3592 H 0.22454 0.91919 0.05557 0.0
C3593 C 0.20586 0.90617 0.10799 0.0
C3594 C 0.19692 0.89617 0.10001 0.0
C3595 C 0.21696 0.9134 0.10093 0.0
C3596 C 0.23238 0.92156 0.06262 0.0
H3597 H 0.2935 0.96241 0.06569 0.0
H3598 H 0.27401 0.95013 0.07776 0.0
H3599 H 0.24421 0.93095 0.04359 0.0
H3600 H 0.19241 0.88613 0.07822 0.0
H3601 H 0.21181 0.89873 0.0659 0.0
H3602 H 0.24103 0.91881 0.09948 0.0
C3603 C 0.27539 0.9481 0.06584 0.0
C3604 C 0.24364 0.92825 0.05575 0.0
C3605 C 0.28657 0.95514 0.05893 0.0
C3606 C 0.19918 0.89373 0.08469 0.0
C3607 C 0.21024 0.90099 0.07759 0.0
C3608 C 0.24162 0.9215 0.08731 0.0
C3609 C 0.26602 0.93884 0.05732 0.0
C3610 C 0.25403 0.93161 0.06457 0.0
C3611 C 0.2193 0.91082 0.08571 0.0
C3612 C 0.23125 0.91812 0.07847 0.0
H3613 H 0.28071 0.94192 0.0228 0.0
H3614 H 0.2612 0.9295 0.03495 0.0
H3615 H 0.26069 0.93041 0.08749 0.0
H3616 H 0.20439 0.90822 0.11985 0.0
H3617 H 0.22374 0.92099 0.1074 0.0
C3618 C 0.32675 0.04759 0.9797 0.0
C3619 C 0.3379 0.04874 0.97632 0.0
C3620 C 0.32324 0.05498 0.9724 0.0
C3621 C 0.335 0.08363 0.95156 0.0
H3622 H 0.30272 0.0696 0.93545 0.0
C3623 C 0.32041 0.10976 0.91151 0.0
C3624 C 0.30915 0.10852 0.91434 0.0
C3625 C 0.32379 0.10238 0.91908 0.0
C3626 C 0.31172 0.07368 0.94004 0.0
H3627 H 0.3542 0.05867 0.96283 0.0
H3628 H 0.34802 0.07151 0.94994 0.0
H3629 H 0.30896 0.05704 0.94892 0.0
H3630 H 0.2926 0.09854 0.92732 0.0
H3631 H 0.29853 0.08565 0.94061 0.0
H3632 H 0.33776 0.10028 0.94272 0.0
C3633 C 0.34203 0.06494 0.95833 0.0
C3634 C 0.31529 0.06648 0.94776 0.0
C3635 C 0.34552 0.05752 0.96559 0.0
C3636 C 0.30128 0.09962 0.92477 0.0
C3637 C 0.30468 0.09224 0.93237 0.0
C3638 C 0.33142 0.09083 0.94387 0.0
C3639 C 0.33081 0.0637 0.96158 0.0
C3640 C 0.32698 0.07138 0.95357 0.0
C3641 C 0.31601 0.09359 0.92969 0.0
C3642 C 0.31975 0.08593 0.93798 0.0
H3643 H 0.32061 0.04081 0.98776 0.0
H3644 H 0.31459 0.05389 0.97526 0.0
H3645 H 0.344 0.08769 0.95611 0.0
H3646 H 0.32658 0.11639 0.90333 0.0
H3647 H 0.33249 0.10349 0.91652 0.0
C3648 C 0.9451 0.27927 0.98616 0.0
C3649 C 0.95438 0.2886 0.97763 0.0
C3650 C 0.93818 0.26801 0.97933 0.0
C3651 C 0.93869 0.24875 0.94779 0.0
H3652 H 0.90429 0.23187 0.95257 0.0
C3653 C 0.90736 0.20659 0.9117 0.0
C3654 C 0.89707 0.19765 0.91916 0.0
C3655 C 0.91473 0.21742 0.91935 0.0
C3656 C 0.9139 0.23637 0.95132 0.0
H3657 H 0.96375 0.2934 0.9553 0.0
H3658 H 0.95158 0.27381 0.94332 0.0
H3659 H 0.91626 0.25132 0.96494 0.0
H3660 H 0.88672 0.19274 0.94069 0.0
H3661 H 0.89967 0.21152 0.95415 0.0
H3662 H 0.93634 0.2338 0.93422 0.0
C3663 C 0.9497 0.27518 0.95532 0.0
C3664 C 0.92075 0.24753 0.95838 0.0
C3665 C 0.95657 0.28644 0.96211 0.0
C3666 C 0.89451 0.19956 0.93458 0.0
C3667 C 0.9019 0.21034 0.94226 0.0
C3668 C 0.93184 0.23755 0.94079 0.0
C3669 C 0.94046 0.26583 0.96386 0.0
C3670 C 0.93321 0.25387 0.95663 0.0
C3671 C 0.91198 0.21948 0.93464 0.0
C3672 C 0.91935 0.23124 0.94242 0.0
H3673 H 0.94317 0.28068 0.99811 0.0
H3674 H 0.93117 0.26095 0.98624 0.0
H3675 H 0.9483 0.25336 0.94643 0.0
H3676 H 0.90947 0.20539 0.89975 0.0
H3677 H 0.92235 0.22431 0.91306 0.0
C3678 C 0.70674 0.65929 0.95552 0.0
C3679 C 0.70585 0.65817 0.97198 0.0
C3680 C 0.71766 0.66315 0.94799 0.0
C3681 C 0.74995 0.68041 0.95495 0.0
H3682 H 0.75195 0.66493 0.91694 0.0
C3683 C 0.79496 0.6914 0.92677 0.0
C3684 C 0.79559 0.69141 0.91028 0.0
C3685 C 0.78405 0.68763 0.93432 0.0
C3686 C 0.75153 0.66947 0.92742 0.0
H3687 H 0.71571 0.65989 0.99337 0.0
H3688 H 0.7348 0.66675 0.9802 0.0
H3689 H 0.73276 0.65747 0.93004 0.0
H3690 H 0.78545 0.68797 0.88875 0.0
H3691 H 0.76644 0.68159 0.90189 0.0
H3692 H 0.76868 0.69249 0.95227 0.0
C3693 C 0.72705 0.66477 0.97317 0.0
C3694 C 0.74053 0.66516 0.93494 0.0
C3695 C 0.71611 0.66084 0.9807 0.0
C3696 C 0.78518 0.68788 0.90149 0.0
C3697 C 0.77429 0.68418 0.90902 0.0
C3698 C 0.76094 0.68477 0.94738 0.0
C3699 C 0.72795 0.66605 0.95675 0.0
C3700 C 0.73964 0.67058 0.9488 0.0
C3701 C 0.77356 0.68386 0.92553 0.0
C3702 C 0.76186 0.67934 0.93352 0.0
H3703 H 0.69907 0.6575 0.94846 0.0
H3704 H 0.71812 0.66418 0.93532 0.0
H3705 H 0.7495 0.68488 0.9655 0.0
H3706 H 0.80282 0.69394 0.93384 0.0
H3707 H 0.78379 0.68735 0.94704 0.0
C3708 C 0.93752 0.65757 0.98261 0.0
C3709 C 0.94976 0.666 0.98358 0.0
C3710 C 0.92951 0.66078 0.97653 0.0
C3711 C 0.92592 0.68671 0.96749 0.0
H3712 H 0.90309 0.66541 0.93668 0.0
C3713 C 0.89995 0.70095 0.92604 0.0
C3714 C 0.88816 0.69236 0.92217 0.0
C3715 C 0.90699 0.69778 0.93496 0.0
C3716 C 0.90927 0.67138 0.94545 0.0
H3717 H 0.96316 0.68443 0.9789 0.0
H3718 H 0.94919 0.69002 0.96842 0.0
H3719 H 0.91612 0.65969 0.94985 0.0
H3720 H 0.87429 0.67392 0.92528 0.0
H3721 H 0.88649 0.66843 0.94101 0.0
H3722 H 0.91911 0.69844 0.96299 0.0
C3723 C 0.94576 0.68097 0.97257 0.0
C3724 C 0.91675 0.66809 0.95299 0.0
C3725 C 0.95377 0.67776 0.97859 0.0
C3726 C 0.88342 0.68067 0.92784 0.0
C3727 C 0.89042 0.67753 0.93683 0.0
C3728 C 0.9184 0.68998 0.95998 0.0
C3729 C 0.93357 0.67249 0.97132 0.0
C3730 C 0.92521 0.67576 0.964 0.0
C3731 C 0.90235 0.68599 0.94027 0.0
C3732 C 0.91004 0.68238 0.94879 0.0
H3733 H 0.93412 0.64849 0.98657 0.0
H3734 H 0.92013 0.65409 0.97591 0.0
H3735 H 0.93227 0.69273 0.97606 0.0
H3736 H 0.90385 0.71001 0.92172 0.0
H3737 H 0.91618 0.70449 0.93725 0.0
C3738 C 0.33136 0.29083 0.95855 0.0
C3739 C 0.33936 0.29469 0.97129 0.0
C3740 C 0.32751 0.27969 0.95163 0.0
C3741 C 0.32363 0.25019 0.96006 0.0
H3742 H 0.3219 0.24643 0.91473 0.0
C3743 C 0.31469 0.20659 0.92989 0.0
C3744 C 0.30754 0.2029 0.91631 0.0
C3745 C 0.31821 0.21768 0.9367 0.0
C3746 C 0.32216 0.24729 0.92741 0.0
H3747 H 0.34986 0.29 0.9864 0.0
H3748 H 0.34303 0.27051 0.97439 0.0
H3749 H 0.32902 0.26614 0.92619 0.0
H3750 H 0.29838 0.20794 0.89935 0.0
H3751 H 0.30423 0.22716 0.91151 0.0
H3752 H 0.31669 0.23136 0.96134 0.0
C3753 C 0.33964 0.27606 0.96991 0.0
C3754 C 0.32628 0.25859 0.93396 0.0
C3755 C 0.34354 0.28722 0.97679 0.0
C3756 C 0.30379 0.21046 0.90989 0.0
C3757 C 0.30728 0.22155 0.91674 0.0
C3758 C 0.31946 0.23888 0.95352 0.0
C3759 C 0.33152 0.27215 0.95733 0.0
C3760 C 0.32711 0.26016 0.95035 0.0
C3761 C 0.31462 0.22534 0.93014 0.0
C3762 C 0.31872 0.2373 0.93711 0.0
H3763 H 0.32781 0.29626 0.95419 0.0
H3764 H 0.32115 0.27686 0.94206 0.0
H3765 H 0.32399 0.2511 0.97274 0.0
H3766 H 0.31761 0.20091 0.93525 0.0
H3767 H 0.32396 0.22035 0.94692 0.0
C3768 C 0.71359 0.04266 0.96268 0.0
C3769 C 0.71035 0.04621 0.97659 0.0
C3770 C 0.72484 0.04978 0.95601 0.0
C3771 C 0.75034 0.08059 0.95546 0.0
H3772 H 0.76724 0.06556 0.93799 0.0
C3773 C 0.79891 0.1079 0.93378 0.0
C3774 C 0.80145 0.10458 0.91917 0.0
C3775 C 0.78805 0.10061 0.94131 0.0
C3776 C 0.76259 0.06987 0.94271 0.0
H3777 H 0.71636 0.06013 0.99429 0.0
H3778 H 0.73611 0.07247 0.9828 0.0
H3779 H 0.74773 0.05327 0.95015 0.0
H3780 H 0.79463 0.09091 0.90109 0.0
H3781 H 0.77567 0.07811 0.9143 0.0
H3782 H 0.76521 0.09719 0.94803 0.0
C3783 C 0.72988 0.06422 0.97697 0.0
C3784 C 0.75141 0.06284 0.94965 0.0
C3785 C 0.71861 0.05709 0.98364 0.0
C3786 C 0.793 0.09365 0.91243 0.0
C3787 C 0.78214 0.08633 0.91998 0.0
C3788 C 0.76153 0.08762 0.94856 0.0
C3789 C 0.73314 0.06062 0.9631 0.0
C3790 C 0.74513 0.06812 0.95603 0.0
C3791 C 0.7795 0.0898 0.93441 0.0
C3792 C 0.76775 0.08233 0.94206 0.0
H3793 H 0.70751 0.03425 0.95706 0.0
H3794 H 0.727 0.04682 0.94522 0.0
H3795 H 0.74566 0.08492 0.96005 0.0
H3796 H 0.80533 0.11617 0.93942 0.0
H3797 H 0.78635 0.10342 0.95255 0.0
C3798 C 0.65619 0.943 0.04833 0.0
C3799 C 0.6637 0.95147 0.03721 0.0
C3800 C 0.65943 0.93529 0.0553 0.0
C3801 C 0.67928 0.92267 0.0508 0.0
H3802 H 0.67473 0.91784 0.09584 0.0
C3803 C 0.68617 0.88779 0.08406 0.0
C3804 C 0.69175 0.89108 0.09884 0.0
C3805 C 0.68295 0.8952 0.07619 0.0
C3806 C 0.67615 0.91918 0.08328 0.0
H3807 H 0.68027 0.95818 0.02424 0.0
H3808 H 0.686 0.94483 0.03657 0.0
H3809 H 0.66853 0.93048 0.08254 0.0
H3810 H 0.69843 0.90477 0.11689 0.0
H3811 H 0.69298 0.91781 0.10302 0.0
H3812 H 0.68711 0.91154 0.0516 0.0
C3813 C 0.67759 0.94411 0.03985 0.0
C3814 C 0.67245 0.92629 0.07563 0.0
C3815 C 0.67436 0.95184 0.0329 0.0
C3816 C 0.69421 0.90203 0.10547 0.0
C3817 C 0.69097 0.90943 0.09761 0.0
C3818 C 0.68297 0.91554 0.05845 0.0
C3819 C 0.67023 0.93586 0.05127 0.0
C3820 C 0.67398 0.92812 0.0593 0.0
C3821 C 0.68523 0.90606 0.08293 0.0
C3822 C 0.68145 0.91373 0.07478 0.0
H3823 H 0.64797 0.94256 0.05201 0.0
H3824 H 0.65349 0.92891 0.06391 0.0
H3825 H 0.6805 0.92384 0.03819 0.0
H3826 H 0.68428 0.87948 0.07856 0.0
H3827 H 0.67846 0.8923 0.06496 0.0
C3828 C 0.04257 0.71382 0.05409 0.0
C3829 C 0.04423 0.71229 0.03812 0.0
C3830 C 0.04906 0.725 0.06118 0.0
C3831 C 0.06713 0.75731 0.05207 0.0
H3832 H 0.07835 0.7592 0.09481 0.0
C3833 C 0.10255 0.80108 0.0818 0.0
C3834 C 0.10045 0.80294 0.09748 0.0
C3835 C 0.09501 0.79027 0.07429 0.0
C3836 C 0.07516 0.75879 0.08294 0.0
H3837 H 0.05397 0.72122 0.01701 0.0
H3838 H 0.06559 0.74077 0.02947 0.0
H3839 H 0.06689 0.7398 0.08216 0.0
H3840 H 0.08873 0.79506 0.11753 0.0
H3841 H 0.07554 0.7761 0.10439 0.0
H3842 H 0.07573 0.7764 0.05282 0.0
C3843 C 0.05908 0.73338 0.03646 0.0
C3844 C 0.06857 0.74768 0.07568 0.0
C3845 C 0.05249 0.72218 0.02933 0.0
C3846 C 0.0905 0.79389 0.1054 0.0
C3847 C 0.08303 0.78302 0.09794 0.0
C3848 C 0.07382 0.76844 0.0593 0.0
C3849 C 0.05744 0.73492 0.05248 0.0
C3850 C 0.06446 0.74679 0.06016 0.0
C3851 C 0.0853 0.78107 0.08237 0.0
C3852 C 0.07789 0.76928 0.07481 0.0
H3853 H 0.03607 0.70638 0.06106 0.0
H3854 H 0.04737 0.7259 0.07344 0.0
H3855 H 0.06394 0.75695 0.04021 0.0
H3856 H 0.11011 0.80796 0.0754 0.0
H3857 H 0.09701 0.78898 0.06231 0.0
C3858 C 0.2844 0.34212 0.04091 0.0
C3859 C 0.28967 0.33498 0.04269 0.0
C3860 C 0.27313 0.33851 0.04724 0.0
C3861 C 0.24553 0.31224 0.06062 0.0
H3862 H 0.24158 0.33489 0.08607 0.0
C3863 C 0.20408 0.29805 0.09978 0.0
C3864 C 0.19988 0.30608 0.10157 0.0
C3865 C 0.21471 0.30145 0.09169 0.0
C3866 C 0.24244 0.3285 0.07878 0.0
H3867 H 0.28718 0.31846 0.05267 0.0
H3868 H 0.26743 0.31208 0.06335 0.0
H3869 H 0.26065 0.34111 0.0733 0.0
H3870 H 0.20318 0.32377 0.09582 0.0
H3871 H 0.22155 0.32963 0.08134 0.0
H3872 H 0.2273 0.29965 0.06591 0.0
C3873 C 0.27201 0.32043 0.05696 0.0
C3874 C 0.25339 0.33207 0.07151 0.0
C3875 C 0.28332 0.32408 0.05079 0.0
C3876 C 0.20633 0.31747 0.0948 0.0
C3877 C 0.21688 0.32083 0.08656 0.0
C3878 C 0.23452 0.3087 0.06775 0.0
C3879 C 0.26685 0.32764 0.05534 0.0
C3880 C 0.25507 0.32396 0.06246 0.0
C3881 C 0.22129 0.31293 0.08507 0.0
C3882 C 0.23286 0.31676 0.07702 0.0
H3883 H 0.28893 0.35046 0.03451 0.0
H3884 H 0.26929 0.34418 0.04569 0.0
H3885 H 0.24656 0.30585 0.05356 0.0
H3886 H 0.19931 0.28925 0.10501 0.0
H3887 H 0.21792 0.29519 0.09098 0.0
C3888 C 0.71241 0.67154 0.39318 0.0
C3889 C 0.71366 0.67498 0.3773 0.0
C3890 C 0.71994 0.66793 0.39983 0.0
C3891 C 0.73854 0.65506 0.38971 0.0
H3892 H 0.75308 0.66718 0.43042 0.0
C3893 C 0.77329 0.64458 0.41649 0.0
C3894 C 0.77304 0.64303 0.43285 0.0
C3895 C 0.76604 0.6484 0.40946 0.0
C3896 C 0.74896 0.66356 0.41915 0.0
H3897 H 0.72403 0.67758 0.35608 0.0
H3898 H 0.73699 0.67101 0.36765 0.0
H3899 H 0.74054 0.67418 0.41874 0.0
H3900 H 0.76471 0.64374 0.45461 0.0
H3901 H 0.75182 0.65008 0.44236 0.0
H3902 H 0.74671 0.64424 0.39022 0.0
C3903 C 0.73012 0.67107 0.37488 0.0
C3904 C 0.74182 0.66762 0.41244 0.0
C3905 C 0.72268 0.6748 0.36827 0.0
C3906 C 0.76519 0.64505 0.44199 0.0
C3907 C 0.75786 0.64874 0.43497 0.0
C3908 C 0.74559 0.6509 0.39649 0.0
C3909 C 0.7288 0.66756 0.39071 0.0
C3910 C 0.73653 0.6634 0.39768 0.0
C3911 C 0.75831 0.65063 0.41864 0.0
C3912 C 0.75086 0.65508 0.41131 0.0
H3913 H 0.70543 0.67135 0.40042 0.0
H3914 H 0.71864 0.66514 0.41202 0.0
H3915 H 0.73445 0.65156 0.37838 0.0
H3916 H 0.77935 0.64318 0.4092 0.0
H3917 H 0.76673 0.6499 0.39689 0.0
C3918 C 0.32574 0.04835 0.36961 0.0
C3919 C 0.32853 0.04016 0.37639 0.0
C3920 C 0.33063 0.05991 0.37564 0.0
C3921 C 0.34326 0.0775 0.41141 0.0
H3922 H 0.35663 0.10463 0.38316 0.0
C3923 C 0.36568 0.1256 0.43514 0.0
C3924 C 0.36308 0.13355 0.42724 0.0
C3925 C 0.36256 0.11453 0.42854 0.0
C3926 C 0.35283 0.09715 0.39121 0.0
H3927 H 0.33882 0.03782 0.39474 0.0
H3928 H 0.34709 0.0579 0.40545 0.0
H3929 H 0.34864 0.08454 0.37252 0.0
H3930 H 0.35565 0.13629 0.40587 0.0
H3931 H 0.34981 0.11684 0.39466 0.0
H3932 H 0.34708 0.08998 0.43006 0.0
C3933 C 0.34107 0.05532 0.39551 0.0
C3934 C 0.34827 0.08565 0.3851 0.0
C3935 C 0.33628 0.0438 0.38941 0.0
C3936 C 0.35762 0.13031 0.41239 0.0
C3937 C 0.35441 0.1192 0.40585 0.0
C3938 C 0.3477 0.08898 0.41751 0.0
C3939 C 0.33832 0.0635 0.38865 0.0
C3940 C 0.3434 0.07572 0.39514 0.0
C3941 C 0.35669 0.1111 0.41394 0.0
C3942 C 0.35249 0.09895 0.40748 0.0
H3943 H 0.31966 0.04581 0.35975 0.0
H3944 H 0.32823 0.06599 0.37026 0.0
H3945 H 0.33943 0.06998 0.4194 0.0
H3946 H 0.36979 0.12776 0.44666 0.0
H3947 H 0.36463 0.10859 0.43498 0.0
C3948 C 0.95317 0.29283 0.38414 0.0
C3949 C 0.95754 0.28894 0.37167 0.0
C3950 C 0.94159 0.28561 0.3898 0.0
C3951 C 0.91698 0.25421 0.39045 0.0
H3952 H 0.89823 0.26834 0.40416 0.0
C3953 C 0.86774 0.22561 0.40865 0.0
C3954 C 0.86468 0.22863 0.42313 0.0
C3955 C 0.87867 0.23329 0.40152 0.0
C3956 C 0.9034 0.26429 0.40043 0.0
H3957 H 0.95309 0.27435 0.35543 0.0
H3958 H 0.93277 0.26195 0.36493 0.0
H3959 H 0.91813 0.28105 0.3932 0.0
H3960 H 0.8706 0.24225 0.44125 0.0
H3961 H 0.88961 0.25575 0.42861 0.0
H3962 H 0.90219 0.23745 0.39757 0.0
C3963 C 0.93838 0.2705 0.37053 0.0
C3964 C 0.91481 0.27156 0.39421 0.0
C3965 C 0.95 0.27769 0.36494 0.0
C3966 C 0.87261 0.23971 0.43001 0.0
C3967 C 0.88351 0.24744 0.4228 0.0
C3968 C 0.90555 0.24695 0.39653 0.0
C3969 C 0.93404 0.27436 0.38306 0.0
C3970 C 0.92177 0.26661 0.38924 0.0
C3971 C 0.88673 0.2442 0.40864 0.0
C3972 C 0.89867 0.25192 0.40166 0.0
H3973 H 0.95866 0.30151 0.38946 0.0
H3974 H 0.93861 0.2888 0.3996 0.0
H3975 H 0.92216 0.25012 0.38702 0.0
H3976 H 0.86174 0.21725 0.40287 0.0
H3977 H 0.88086 0.23066 0.39047 0.0
C3978 C 0.00946 0.38114 0.29411 0.0
C3979 C 0.0169 0.38402 0.30735 0.0
C3980 C 0.00732 0.38966 0.28725 0.0
C3981 C 0.01898 0.42219 0.2849 0.0
H3982 H 0.98702 0.41217 0.27002 0.0
C3983 C 0.00443 0.45541 0.26396 0.0
C3984 C 0.9979 0.45248 0.24985 0.0
C3985 C 0.00676 0.44716 0.2713 0.0
C3986 C 0.99601 0.41508 0.27402 0.0
H3987 H 0.02809 0.39821 0.32358 0.0
H3988 H 0.02407 0.413 0.31187 0.0
H3989 H 0.99117 0.39765 0.28225 0.0
H3990 H 0.98886 0.4386 0.2323 0.0
H3991 H 0.99277 0.42416 0.24525 0.0
H3992 H 0.02375 0.43967 0.27677 0.0
C3993 C 0.02002 0.40418 0.30666 0.0
C3994 C 0.9984 0.40676 0.28098 0.0
C3995 C 0.02221 0.39566 0.31349 0.0
C3996 C 0.99371 0.44108 0.24331 0.0
C3997 C 0.99598 0.43281 0.25069 0.0
C3998 C 0.01656 0.43053 0.27802 0.0
C3999 C 0.0125 0.40125 0.29351 0.0
C4000 C 0.00994 0.41019 0.28641 0.0
C4001 C 0.00256 0.43578 0.26473 0.0
C4002 C 0.00507 0.42703 0.27242 0.0
H4003 H 0.00509 0.37222 0.28919 0.0
H4004 H 0.00162 0.38715 0.27699 0.0
H4005 H 0.028 0.4251 0.28875 0.0
H4006 H 0.00763 0.46404 0.26944 0.0
H4007 H 0.01173 0.44963 0.28222 0.0
C4008 C 0.61026 0.62025 0.31374 0.0
C4009 C 0.62135 0.62832 0.30702 0.0
C4010 C 0.60314 0.60895 0.30712 0.0
C4011 C 0.59798 0.59192 0.27037 0.0
H4012 H 0.5825 0.56438 0.29781 0.0
C4013 C 0.5727 0.54395 0.24585 0.0
C4014 C 0.56161 0.53616 0.25281 0.0
C4015 C 0.58042 0.55499 0.25274 0.0
C4016 C 0.58667 0.57199 0.29 0.0
H4017 H 0.63368 0.6308 0.28814 0.0
H4018 H 0.6212 0.61115 0.27654 0.0
H4019 H 0.59488 0.58419 0.30912 0.0
H4020 H 0.55014 0.53368 0.27276 0.0
H4021 H 0.56349 0.55302 0.28461 0.0
H4022 H 0.5897 0.57976 0.25126 0.0
C4023 C 0.61795 0.61361 0.28681 0.0
C4024 C 0.59375 0.58334 0.29648 0.0
C4025 C 0.62509 0.62489 0.29344 0.0
C4026 C 0.55856 0.53953 0.26701 0.0
C4027 C 0.56627 0.55057 0.2739 0.0
C4028 C 0.59088 0.58058 0.26389 0.0
C4029 C 0.60693 0.60549 0.29363 0.0
C4030 C 0.59946 0.59343 0.28674 0.0
C4031 C 0.57723 0.55848 0.26675 0.0
C4032 C 0.58511 0.57048 0.27363 0.0
H4033 H 0.60705 0.62268 0.32406 0.0
H4034 H 0.5946 0.60296 0.3125 0.0
H4035 H 0.60214 0.59955 0.26257 0.0
H4036 H 0.57527 0.54166 0.23483 0.0
H4037 H 0.58887 0.56082 0.24705 0.0
C4038 C 0.36252 0.97244 0.29865 0.0
C4039 C 0.36328 0.97947 0.31167 0.0
C4040 C 0.37285 0.97367 0.29169 0.0
C4041 C 0.40532 0.98616 0.2985 0.0
H4042 H 0.40646 0.98517 0.25297 0.0
C4043 C 0.44902 0.00249 0.26338 0.0
C4044 C 0.44871 0.99514 0.25099 0.0
C4045 C 0.43853 3e-05 0.27117 0.0
C4046 C 0.40622 0.98535 0.2657 0.0
H4047 H 0.37542 0.99331 0.32762 0.0
H4048 H 0.39348 0.99566 0.31531 0.0
H4049 H 0.38825 0.98183 0.26593 0.0
H4050 H 0.43723 0.97955 0.23696 0.0
H4051 H 0.41886 0.97527 0.25056 0.0
H4052 H 0.42344 0.98999 0.29816 0.0
C4053 C 0.38491 0.98898 0.31067 0.0
C4054 C 0.39578 0.98339 0.27314 0.0
C4055 C 0.37457 0.98767 0.31772 0.0
C4056 C 0.43772 0.9853 0.24655 0.0
C4057 C 0.42722 0.98291 0.25423 0.0
C4058 C 0.4158 0.98822 0.29103 0.0
C4059 C 0.38418 0.98206 0.29751 0.0
C4060 C 0.3952 0.9838 0.28964 0.0
C4061 C 0.42752 0.99026 0.26661 0.0
C4062 C 0.41635 0.98786 0.27456 0.0
H4063 H 0.35391 0.96594 0.29389 0.0
H4064 H 0.37195 0.96803 0.28176 0.0
H4065 H 0.40513 0.98635 0.31122 0.0
H4066 H 0.45739 0.01008 0.2671 0.0
H4067 H 0.439 0.00589 0.28058 0.0
C4068 C 0.61433 0.99183 0.30853 0.0
C4069 C 0.61574 0.98201 0.30505 0.0
C4070 C 0.60554 0.99323 0.30102 0.0
C4071 C 0.57707 0.97671 0.27984 0.0
H4072 H 0.58512 0.00805 0.2645 0.0
C4073 C 0.54175 0.98825 0.25822 0.0
C4074 C 0.54454 0.99533 0.24464 0.0
C4075 C 0.55032 0.98625 0.26528 0.0
C4076 C 0.58276 0.99923 0.26862 0.0
H4077 H 0.60895 0.96584 0.29114 0.0
H4078 H 0.5936 0.96833 0.27791 0.0
H4079 H 0.60036 0.00527 0.27735 0.0
H4080 H 0.55842 0.00554 0.22754 0.0
H4081 H 0.57339 0.00213 0.23995 0.0
H4082 H 0.55947 0.97066 0.271 0.0
C4083 C 0.59928 0.97492 0.28651 0.0
C4084 C 0.59145 0.99766 0.27613 0.0
C4085 C 0.60812 0.97356 0.29397 0.0
C4086 C 0.55605 0.00024 0.23817 0.0
C4087 C 0.56462 0.99827 0.24525 0.0
C4088 C 0.56835 0.97829 0.27241 0.0
C4089 C 0.59793 0.9848 0.28991 0.0
C4090 C 0.5887 0.98639 0.28183 0.0
C4091 C 0.56187 0.99132 0.25893 0.0
C4092 C 0.57111 0.98957 0.26672 0.0
H4093 H 0.62014 0.99855 0.3169 0.0
H4094 H 0.60464 0.00087 0.304 0.0
H4095 H 0.57467 0.96794 0.28423 0.0
H4096 H 0.53302 0.98447 0.26362 0.0
H4097 H 0.54799 0.98097 0.27593 0.0
C4098 C 0.01451 0.62539 0.31566 0.0
C4099 C 0.01481 0.63459 0.30663 0.0
C4100 C 0.01271 0.6149 0.30847 0.0
C4101 C 0.0134 0.60214 0.26945 0.0
H4102 H 0.99406 0.57198 0.29085 0.0
C4103 C 0.99551 0.55637 0.23897 0.0
C4104 C 0.99717 0.54792 0.24717 0.0
C4105 C 0.9978 0.56698 0.2463 0.0
C4106 C -0.00045 0.58036 0.2848 0.0
H4107 H 0.01331 0.64002 0.28307 0.0
H4108 H 0.00986 0.62163 0.27053 0.0
H4109 H 0.99785 0.59049 0.30346 0.0
H4110 H 0.0023 0.54378 0.26948 0.0
H4111 H 0.00617 0.5623 0.28237 0.0
H4112 H 0.0148 0.59189 0.25063 0.0
C4113 C 0.01135 0.62259 0.2831 0.0
C4114 C 0.00178 0.59097 0.29204 0.0
C4115 C 0.01329 0.63313 0.29028 0.0
C4116 C 0.00102 0.55019 0.26288 0.0
C4117 C 0.00315 0.56073 0.27027 0.0
C4118 C 0.01104 0.59151 0.26215 0.0
C4119 C 0.01101 0.61332 0.2921 0.0
C4120 C 0.00874 0.60202 0.28447 0.0
C4121 C 0.00164 0.56926 0.26201 0.0
C4122 C 0.00411 0.58052 0.26976 0.0
H4123 H 0.01578 0.62635 0.32828 0.0
H4124 H 0.01274 0.60807 0.31575 0.0
H4125 H 0.01898 0.61047 0.26338 0.0
H4126 H 0.99264 0.55487 0.22681 0.0
H4127 H 0.99648 0.57338 0.23971 0.0
C4128 C 0.38381 0.3795 0.30897 0.0
C4129 C 0.37481 0.38253 0.3097 0.0
C4130 C 0.39472 0.38709 0.30173 0.0
C4131 C 0.41395 0.41826 0.28837 0.0
H4132 H 0.42862 0.40431 0.26272 0.0
C4133 C 0.45418 0.44628 0.2477 0.0
C4134 C 0.46354 0.44375 0.24812 0.0
C4135 C 0.44338 0.43883 0.25528 0.0
C4136 C 0.42468 0.40832 0.26996 0.0
H4137 H 0.37034 0.39607 0.30357 0.0
H4138 H 0.38924 0.40915 0.29051 0.0
H4139 H 0.40971 0.39135 0.27588 0.0
H4140 H 0.46887 0.4314 0.25691 0.0
H4141 H 0.44991 0.4183 0.26993 0.0
H4142 H 0.42888 0.43524 0.28222 0.0
C4143 C 0.38792 0.40097 0.29576 0.0
C4144 C 0.41386 0.40091 0.27754 0.0
C4145 C 0.37702 0.39339 0.30308 0.0
C4146 C 0.46179 0.43352 0.25615 0.0
C4147 C 0.45095 0.42602 0.26364 0.0
C4148 C 0.42473 0.42567 0.28071 0.0
C4149 C 0.39688 0.39788 0.29493 0.0
C4150 C 0.40838 0.40579 0.28686 0.0
C4151 C 0.44166 0.42864 0.26334 0.0
C4152 C 0.43021 0.42077 0.27145 0.0
H4153 H 0.38237 0.37113 0.31375 0.0
H4154 H 0.40147 0.3845 0.30151 0.0
H4155 H 0.41008 0.42231 0.29566 0.0
H4156 H 0.45515 0.45397 0.24138 0.0
H4157 H 0.4363 0.44097 0.25466 0.0
C4158 C 0.32951 0.27995 0.36807 0.0
C4159 C 0.33008 0.28944 0.37681 0.0
C4160 C 0.33374 0.27283 0.37442 0.0
C4161 C 0.34085 0.26386 0.41217 0.0
H4162 H 0.35926 0.25434 0.38611 0.0
C4163 C 0.36351 0.23914 0.43791 0.0
C4164 C 0.3622 0.22929 0.42927 0.0
C4165 C 0.36033 0.24702 0.43131 0.0
C4166 C 0.35405 0.25685 0.3935 0.0
H4167 H 0.33569 0.29901 0.39897 0.0
H4168 H 0.34302 0.28657 0.41005 0.0
H4169 H 0.35193 0.26682 0.37501 0.0
H4170 H 0.35698 0.22025 0.40673 0.0
H4171 H 0.35125 0.23389 0.3953 0.0
H4172 H 0.34289 0.25384 0.43063 0.0
C4173 C 0.33914 0.28451 0.39839 0.0
C4174 C 0.34984 0.26398 0.38714 0.0
C4175 C 0.33492 0.29163 0.39204 0.0
C4176 C 0.35797 0.22769 0.41374 0.0
C4177 C 0.3548 0.23557 0.40714 0.0
C4178 C 0.34506 0.25674 0.41853 0.0
C4179 C 0.33863 0.27505 0.38964 0.0
C4180 C 0.34317 0.26753 0.3964 0.0
C4181 C 0.35579 0.24522 0.41593 0.0
C4182 C 0.35168 0.25312 0.40926 0.0
H4183 H 0.3257 0.27794 0.35638 0.0
H4184 H 0.33305 0.26549 0.36748 0.0
H4185 H 0.33558 0.2663 0.41955 0.0
H4186 H 0.36666 0.24057 0.44995 0.0
H4187 H 0.36134 0.25446 0.43831 0.0
C4188 C 0.70729 0.0498 0.36916 0.0
C4189 C 0.71037 0.04085 0.37009 0.0
C4190 C 0.71487 0.06117 0.3753 0.0
C4191 C 0.746 0.08131 0.38812 0.0
H4192 H 0.73202 0.09657 0.41251 0.0
C4193 C 0.7742 0.12173 0.42801 0.0
C4194 C 0.77176 0.13115 0.42782 0.0
C4195 C 0.76664 0.11098 0.42042 0.0
C4196 C 0.73605 0.09249 0.40557 0.0
H4197 H 0.72381 0.0368 0.37814 0.0
H4198 H 0.73701 0.05661 0.38889 0.0
H4199 H 0.71908 0.07738 0.39991 0.0
H4200 H 0.7594 0.13661 0.41954 0.0
H4201 H 0.74612 0.11775 0.40633 0.0
H4202 H 0.76297 0.09635 0.39395 0.0
C4203 C 0.72884 0.05491 0.38321 0.0
C4204 C 0.72864 0.0815 0.39833 0.0
C4205 C 0.72127 0.04356 0.37705 0.0
C4206 C 0.76146 0.12949 0.42005 0.0
C4207 C 0.75387 0.1187 0.41247 0.0
C4208 C 0.7534 0.09227 0.39538 0.0
C4209 C 0.72568 0.06383 0.38251 0.0
C4210 C 0.73353 0.07574 0.38963 0.0
C4211 C 0.75643 0.10936 0.41249 0.0
C4212 C 0.74851 0.09793 0.40429 0.0
H4213 H 0.69903 0.04804 0.36365 0.0
H4214 H 0.71227 0.06789 0.37435 0.0
H4215 H 0.75004 0.07721 0.38127 0.0
H4216 H 0.78192 0.12263 0.43416 0.0
H4217 H 0.76873 0.10387 0.42092 0.0
C4218 C 0.94771 0.66748 0.366 0.0
C4219 C 0.95738 0.67016 0.37599 0.0
C4220 C 0.93622 0.66299 0.37212 0.0
C4221 C 0.91787 0.64827 0.40743 0.0
H4222 H 0.89792 0.66036 0.39158 0.0
C4223 C 0.87644 0.6424 0.44048 0.0
C4224 C 0.86621 0.63963 0.43164 0.0
C4225 C 0.88712 0.64516 0.43301 0.0
C4226 C 0.90332 0.65678 0.39598 0.0
H4227 H 0.96248 0.67003 0.40024 0.0
H4228 H 0.94256 0.66255 0.41094 0.0
H4229 H 0.91746 0.66712 0.37982 0.0
H4230 H 0.85912 0.63748 0.40804 0.0
H4231 H 0.87784 0.6423 0.39492 0.0
H4232 H 0.90381 0.63813 0.42381 0.0
C4233 C 0.94381 0.66376 0.39834 0.0
C4234 C 0.91452 0.66064 0.38924 0.0
C4235 C 0.95527 0.66821 0.39223 0.0
C4236 C 0.86685 0.63951 0.41515 0.0
C4237 C 0.87757 0.64237 0.40765 0.0
C4238 C 0.9067 0.64446 0.41421 0.0
C4239 C 0.93413 0.66109 0.38837 0.0
C4240 C 0.92198 0.65653 0.39499 0.0
C4241 C 0.88783 0.64528 0.41652 0.0
C4242 C 0.89936 0.64876 0.40867 0.0
H4243 H 0.94903 0.66898 0.35345 0.0
H4244 H 0.92895 0.66093 0.36409 0.0
H4245 H 0.92329 0.64474 0.41194 0.0
H4246 H 0.87618 0.64243 0.45322 0.0
H4247 H 0.89489 0.64747 0.44016 0.0
C4248 C 0.38962 0.01322 0.7019 0.0
C4249 C 0.38289 0.01688 0.71084 0.0
C4250 C 0.39841 0.0116 0.709 0.0
C4251 C 0.41715 0.01918 0.74475 0.0
H4252 H 0.41976 0.99168 0.73274 0.0
C4253 C 0.44479 0.00377 0.78032 0.0
C4254 C 0.45199 0.00048 0.77178 0.0
C4255 C 0.43654 0.00591 0.77262 0.0
C4256 C 0.41922 -0.00053 0.7361 0.0
H4257 H 0.38005 0.02165 0.73426 0.0
H4258 H 0.39532 0.01872 0.74669 0.0
H4259 H 0.40516 0.99535 0.71973 0.0
H4260 H 0.45619 0.99689 0.74841 0.0
H4261 H 0.44167 0.00051 0.73498 0.0
H4262 H 0.43113 0.02319 0.76126 0.0
C4263 C 0.39397 0.01732 0.73413 0.0
C4264 C 0.41087 0.00159 0.72863 0.0
C4265 C 0.38521 0.01899 0.72701 0.0
C4266 C 0.45066 0.99924 0.75536 0.0
C4267 C 0.44236 0.00134 0.74766 0.0
C4268 C 0.42546 0.01703 0.75226 0.0
C4269 C 0.40063 0.01355 0.72523 0.0
C4270 C 0.40971 0.01145 0.7329 0.0
C4271 C 0.43526 0.00475 0.7562 0.0
C4272 C 0.42656 0.00713 0.74805 0.0
H4273 H 0.38813 0.01168 0.68937 0.0
H4274 H 0.40352 0.00888 0.70176 0.0
H4275 H 0.41663 0.02697 0.74814 0.0
H4276 H 0.44543 0.00459 0.79301 0.0
H4277 H 0.43105 0.00833 0.77955 0.0
C4278 C 0.97904 0.37171 0.70429 0.0
C4279 C 0.98373 0.36498 0.71086 0.0
C4280 C 0.98102 0.38226 0.71148 0.0
C4281 C 0.00126 0.40556 0.73933 0.0
H4282 H 0.97581 0.41301 0.74184 0.0
C4283 C 0.00493 0.44442 0.77688 0.0
C4284 C 0.00057 0.45142 0.77027 0.0
C4285 C 0.00294 0.43394 0.76947 0.0
C4286 C 0.98304 0.41111 0.74107 0.0
H4287 H 0.99423 0.36411 0.73011 0.0
H4288 H 0.99743 0.38233 0.74285 0.0
H4289 H 0.97209 0.3945 0.7293 0.0
H4290 H 0.99091 0.45303 0.75052 0.0
H4291 H 0.98739 0.43472 0.7376 0.0
H4292 H 0.0122 0.42215 0.75117 0.0
C4293 C 0.99234 0.37953 0.73203 0.0
C4294 C 0.98091 0.40051 0.73389 0.0
C4295 C 0.99038 0.369 0.72484 0.0
C4296 C 0.99422 0.44774 0.75604 0.0
C4297 C 0.99221 0.43725 0.74864 0.0
C4298 C 0.00338 0.41614 0.74654 0.0
C4299 C 0.98773 0.38631 0.72541 0.0
C4300 C 0.98999 0.39761 0.73296 0.0
C4301 C 0.99652 0.43023 0.75529 0.0
C4302 C 0.99429 0.41903 0.74751 0.0
H4303 H 0.97379 0.36879 0.69361 0.0
H4304 H 0.97743 0.38732 0.706 0.0
H4305 H 0.00851 0.40369 0.73856 0.0
H4306 H 0.00968 0.4469 0.78797 0.0
H4307 H 0.00623 0.42863 0.77499 0.0
C4308 C 0.61575 0.62367 0.70897 0.0
C4309 C 0.62409 0.61982 0.70709 0.0
C4310 C 0.6048 0.61637 0.71632 0.0
C4311 C 0.59003 0.59182 0.74431 0.0
H4312 H 0.56075 0.5871 0.72539 0.0
C4313 C 0.54385 0.55644 0.76728 0.0
C4314 C 0.53456 0.55908 0.76719 0.0
C4315 C 0.55478 0.56411 0.76019 0.0
C4316 C 0.56885 0.58847 0.73097 0.0
H4317 H 0.62733 0.60517 0.71135 0.0
H4318 H 0.60829 0.59255 0.72448 0.0
H4319 H 0.57982 0.59996 0.71247 0.0
H4320 H 0.52957 0.57196 0.75964 0.0
H4321 H 0.54882 0.58558 0.74771 0.0
H4322 H 0.57916 0.58052 0.76294 0.0
C4323 C 0.6103 0.60126 0.72029 0.0
C4324 C 0.57976 0.59579 0.72352 0.0
C4325 C 0.62121 0.6085 0.7128 0.0
C4326 C 0.53656 0.56969 0.76002 0.0
C4327 C 0.54755 0.57743 0.75301 0.0
C4328 C 0.57914 0.58459 0.75184 0.0
C4329 C 0.60199 0.60512 0.7221 0.0
C4330 C 0.59044 0.59747 0.73008 0.0
C4331 C 0.55678 0.5747 0.75294 0.0
C4332 C 0.5684 0.58275 0.74521 0.0
H4333 H 0.61775 0.63242 0.70504 0.0
H4334 H 0.59862 0.61964 0.71774 0.0
H4335 H 0.59815 0.59311 0.74974 0.0
H4336 H 0.54271 0.54845 0.77293 0.0
H4337 H 0.56162 0.56163 0.7602 0.0
C4338 C 0.67287 0.71907 0.63211 0.0
C4339 C 0.66606 0.71032 0.64335 0.0
C4340 C 0.66889 0.72648 0.6261 0.0
C4341 C 0.64822 0.73775 0.63383 0.0
H4342 H 0.65149 0.74398 0.58898 0.0
C4343 C 0.63993 0.77318 0.60459 0.0
C4344 C 0.63435 0.77044 0.58979 0.0
C4345 C 0.64319 0.76551 0.61163 0.0
C4346 C 0.6504 0.74223 0.6015 0.0
H4347 H 0.64993 0.70272 0.65744 0.0
H4348 H 0.64287 0.71552 0.64671 0.0
H4349 H 0.65852 0.73139 0.60035 0.0
H4350 H 0.62761 0.7574 0.57092 0.0
H4351 H 0.63306 0.74388 0.58338 0.0
H4352 H 0.63991 0.74845 0.6349 0.0
C4353 C 0.65132 0.7167 0.64263 0.0
C4354 C 0.65458 0.73515 0.60805 0.0
C4355 C 0.6553 0.70929 0.64865 0.0
C4356 C 0.6318 0.75971 0.58239 0.0
C4357 C 0.63506 0.75204 0.58944 0.0
C4358 C 0.64404 0.74484 0.62727 0.0
C4359 C 0.65802 0.72531 0.63118 0.0
C4360 C 0.65357 0.73286 0.62429 0.0
C4361 C 0.64094 0.75493 0.60404 0.0
C4362 C 0.6451 0.74717 0.61103 0.0
H4363 H 0.68115 0.72003 0.62768 0.0
H4364 H 0.67433 0.73313 0.61744 0.0
H4365 H 0.64739 0.73621 0.6464 0.0
H4366 H 0.64189 0.78132 0.61066 0.0
H4367 H 0.64778 0.76804 0.62283 0.0
C4368 C 0.29142 0.95567 0.62908 0.0
C4369 C 0.28823 0.95916 0.64308 0.0
C4370 C 0.28444 0.9441 0.62323 0.0
C4371 C 0.25415 0.9177 0.62577 0.0
H4372 H 0.26928 0.90122 0.60728 0.0
C4373 C 0.22711 0.86827 0.60802 0.0
C4374 C 0.22945 0.86538 0.59299 0.0
C4375 C 0.23473 0.87941 0.61469 0.0
C4376 C 0.26494 0.90574 0.61232 0.0
H4377 H 0.2751 0.95323 0.66181 0.0
H4378 H 0.2631 0.93297 0.65184 0.0
H4379 H 0.2816 0.92136 0.61775 0.0
H4380 H 0.24182 0.87183 0.57336 0.0
H4381 H 0.2552 0.89127 0.58509 0.0
H4382 H 0.2375 0.90208 0.62038 0.0
C4383 C 0.27092 0.93922 0.64526 0.0
C4384 C 0.27198 0.91729 0.61828 0.0
C4385 C 0.27788 0.95081 0.65108 0.0
C4386 C 0.23984 0.87372 0.58503 0.0
C4387 C 0.24749 0.88487 0.59174 0.0
C4388 C 0.24712 0.90615 0.61989 0.0
C4389 C 0.27412 0.93572 0.63126 0.0
C4390 C 0.26667 0.92341 0.62504 0.0
C4391 C 0.24489 0.8879 0.60651 0.0
C4392 C 0.25244 0.90006 0.61308 0.0
H4393 H 0.29942 0.96184 0.62272 0.0
H4394 H 0.28708 0.94175 0.61232 0.0
H4395 H 0.24976 0.92223 0.63063 0.0
H4396 H 0.2193 0.86195 0.61457 0.0
H4397 H 0.23262 0.88142 0.62622 0.0
C4398 C 0.04096 0.32868 0.62305 0.0
C4399 C 0.03885 0.32578 0.63911 0.0
C4400 C 0.05219 0.33248 0.61649 0.0
C4401 C 0.08388 0.34648 0.62643 0.0
H4402 H 0.08635 0.33264 0.58714 0.0
C4403 C 0.1292 0.35587 0.60074 0.0
C4404 C 0.13047 0.35654 0.58432 0.0
C4405 C 0.11813 0.35247 0.60762 0.0
C4406 C 0.08584 0.33675 0.59799 0.0
H4407 H 0.04693 0.32444 0.66078 0.0
H4408 H 0.06661 0.33132 0.64935 0.0
H4409 H 0.06679 0.32596 0.59868 0.0
H4410 H 0.12141 0.35474 0.56223 0.0
H4411 H 0.10221 0.34914 0.57418 0.0
H4412 H 0.1029 0.35743 0.62565 0.0
C4413 C 0.05954 0.3307 0.6419 0.0
C4414 C 0.07462 0.33287 0.60462 0.0
C4415 C 0.04828 0.32679 0.64844 0.0
C4416 C 0.12061 0.35411 0.57492 0.0
C4417 C 0.1096 0.35084 0.58179 0.0
C4418 C 0.09512 0.35046 0.61972 0.0
C4419 C 0.0616 0.33357 0.62586 0.0
C4420 C 0.07353 0.33769 0.6189 0.0
C4421 C 0.10816 0.34979 0.59821 0.0
C4422 C 0.09623 0.34564 0.6054 0.0
H4423 H 0.034 0.32825 0.61557 0.0
H4424 H 0.05358 0.33478 0.60413 0.0
H4425 H 0.08328 0.35044 0.63738 0.0
H4426 H 0.13666 0.35762 0.60822 0.0
H4427 H 0.11733 0.35162 0.62029 0.0
C4428 C 0.2803 0.33094 0.65402 0.0
C4429 C 0.28793 0.32933 0.64382 0.0
C4430 C 0.27284 0.33495 0.64827 0.0
C4431 C 0.26885 0.3505 0.61441 0.0
H4432 H 0.23625 0.33588 0.62948 0.0
C4433 C 0.23687 0.36667 0.59401 0.0
C4434 C 0.22528 0.35766 0.58997 0.0
C4435 C 0.2446 0.36383 0.60183 0.0
C4436 C 0.24532 0.34003 0.62512 0.0
H4437 H 0.29378 0.33079 0.6196 0.0
H4438 H 0.28055 0.33748 0.60951 0.0
H4439 H 0.24958 0.32953 0.64024 0.0
H4440 H 0.21256 0.3387 0.59154 0.0
H4441 H 0.2261 0.33373 0.60484 0.0
H4442 H 0.26447 0.3607 0.59889 0.0
C4443 C 0.28044 0.3358 0.622 0.0
C4444 C 0.253 0.33648 0.63141 0.0
C4445 C 0.28791 0.3318 0.62774 0.0
C4446 C 0.22149 0.34582 0.59429 0.0
C4447 C 0.22921 0.34299 0.60209 0.0
C4448 C 0.26117 0.35404 0.60811 0.0
C4449 C 0.27283 0.33744 0.63219 0.0
C4450 C 0.26482 0.34159 0.62601 0.0
C4451 C 0.24089 0.35194 0.60581 0.0
C4452 C 0.24927 0.34875 0.61327 0.0
H4453 H 0.28001 0.32901 0.66645 0.0
H4454 H 0.26715 0.33622 0.65646 0.0
H4455 H 0.27796 0.35473 0.61016 0.0
H4456 H 0.24007 0.37587 0.59077 0.0
H4457 H 0.25351 0.37095 0.60469 0.0
C4458 C 0.66963 0.95735 0.62378 0.0
C4459 C 0.67198 0.95908 0.64 0.0
C4460 C 0.66543 0.94611 0.61701 0.0
C4461 C 0.65 0.91406 0.62608 0.0
H4462 H 0.6643 0.91185 0.58706 0.0
C4463 C 0.64014 0.86893 0.59923 0.0
C4464 C 0.63929 0.86782 0.58278 0.0
C4465 C 0.64378 0.87995 0.6064 0.0
C4466 C 0.66008 0.91231 0.59784 0.0
H4467 H 0.6717 0.9503 0.66182 0.0
H4468 H 0.66423 0.93063 0.64999 0.0
H4469 H 0.67131 0.93128 0.59923 0.0
H4470 H 0.64116 0.87724 0.56097 0.0
H4471 H 0.64735 0.89642 0.57346 0.0
H4472 H 0.6387 0.8951 0.62462 0.0
C4473 C 0.66559 0.93799 0.64256 0.0
C4474 C 0.66413 0.92345 0.60483 0.0
C4475 C 0.66986 0.94925 0.64933 0.0
C4476 C 0.64192 0.87788 0.57367 0.0
C4477 C 0.64549 0.88887 0.58083 0.0
C4478 C 0.6459 0.90291 0.61904 0.0
C4479 C 0.6634 0.93632 0.62631 0.0
C4480 C 0.65912 0.92445 0.61901 0.0
C4481 C 0.64659 0.89008 0.59728 0.0
C4482 C 0.65089 0.90191 0.60481 0.0
H4483 H 0.67091 0.96465 0.6163 0.0
H4484 H 0.66364 0.94506 0.6045 0.0
H4485 H 0.64588 0.91458 0.63692 0.0
H4486 H 0.63829 0.86136 0.60653 0.0
H4487 H 0.64468 0.8806 0.61908 0.0
C4488 C 0.04567 0.72115 0.64399 0.0
C4489 C 0.04247 0.70972 0.64954 0.0
C4490 C 0.05707 0.72864 0.63793 0.0
C4491 C 0.0828 0.72796 0.62046 0.0
H4492 H 0.09883 0.76208 0.62798 0.0
C4493 C 0.13069 0.76085 0.59828 0.0
C4494 C 0.13233 0.77144 0.59141 0.0
C4495 C 0.12004 0.75313 0.60607 0.0
C4496 C 0.09443 0.75258 0.6257 0.0
H4497 H 0.04879 0.6973 0.65352 0.0
H4498 H 0.06875 0.71043 0.64304 0.0
H4499 H 0.07979 0.74904 0.64078 0.0
H4500 H 0.12391 0.78199 0.58688 0.0
H4501 H 0.10544 0.76861 0.60058 0.0
H4502 H 0.09747 0.73155 0.60534 0.0
C4503 C 0.06238 0.71352 0.64311 0.0
C4504 C 0.08352 0.74511 0.63302 0.0
C4505 C 0.05096 0.70601 0.64913 0.0
C4506 C 0.12304 0.77405 0.59234 0.0
C4507 C 0.11245 0.76638 0.60018 0.0
C4508 C 0.09375 0.73544 0.6132 0.0
C4509 C 0.06554 0.72489 0.63733 0.0
C4510 C 0.07749 0.73273 0.63032 0.0
C4511 C 0.11086 0.75588 0.60719 0.0
C4512 C 0.09959 0.74784 0.61558 0.0
H4513 H 0.03926 0.72419 0.64392 0.0
H4514 H 0.05912 0.73726 0.63332 0.0
H4515 H 0.07833 0.71848 0.61798 0.0
H4516 H 0.13771 0.75864 0.59792 0.0
H4517 H 0.11908 0.74513 0.61147 0.0
C4518 C 0.98633 0.61723 0.72645 0.0
C4519 C 0.98046 0.61509 0.7119 0.0
C4520 C 0.98784 0.60838 0.73359 0.0
C4521 C 0.98905 0.58124 0.72478 0.0
H4522 H 0.98464 0.57613 0.76979 0.0
C4523 C 0.99144 0.54295 0.75611 0.0
C4524 C 0.99748 0.5457 0.77058 0.0
C4525 C 0.98895 0.55112 0.74886 0.0
C4526 C 0.98603 0.57753 0.75723 0.0
H4527 H 0.97139 0.60191 0.69358 0.0
H4528 H 0.97408 0.58646 0.70606 0.0
H4529 H 0.98089 0.59085 0.75734 0.0
H4530 H 0.00555 0.55914 0.78885 0.0
H4531 H 0.00146 0.5735 0.77602 0.0
H4532 H 0.99431 0.56799 0.7247 0.0
C4533 C 0.97762 0.59504 0.71183 0.0
C4534 C 0.98386 0.58595 0.7501 0.0
C4535 C 0.97609 0.60388 0.70469 0.0
C4536 C 0.001 0.55681 0.77762 0.0
C4537 C 0.99852 0.56497 0.77037 0.0
C4538 C 0.99124 0.57282 0.73192 0.0
C4539 C 0.98354 0.59721 0.72634 0.0
C4540 C 0.98542 0.58795 0.73382 0.0
C4541 C 0.99245 0.56222 0.75592 0.0
C4542 C 0.98982 0.57093 0.74825 0.0
H4543 H 0.99 0.62583 0.73218 0.0
H4544 H 0.99261 0.6104 0.74465 0.0
H4545 H 0.99049 0.58269 0.71224 0.0
H4546 H 0.9887 0.53451 0.75033 0.0
H4547 H 0.98417 0.54869 0.7378 0.0
C4548 C 0.37868 0.37349 0.72739 0.0
C4549 C 0.37978 0.37159 0.71135 0.0
C4550 C 0.38585 0.38471 0.73415 0.0
C4551 C 0.40452 0.41666 0.72367 0.0
H4552 H 0.41644 0.41944 0.76617 0.0
C4553 C 0.44036 0.46124 0.7511 0.0
C4554 C 0.43848 0.46354 0.76669 0.0
C4555 C 0.43285 0.45014 0.74422 0.0
C4556 C 0.41306 0.41879 0.75435 0.0
H4557 H 0.38945 0.37985 0.68991 0.0
H4558 H 0.40218 0.3994 0.70177 0.0
H4559 H 0.40443 0.39974 0.75442 0.0
H4560 H 0.42725 0.45608 0.78726 0.0
H4561 H 0.41411 0.43665 0.77521 0.0
H4562 H 0.41337 0.43576 0.72357 0.0
C4563 C 0.39558 0.3923 0.70906 0.0
C4564 C 0.40617 0.4075 0.74761 0.0
C4565 C 0.38833 0.3811 0.70227 0.0
C4566 C 0.42884 0.45458 0.77518 0.0
C4567 C 0.4214 0.44344 0.76835 0.0
C4568 C 0.41149 0.42794 0.73038 0.0
C4569 C 0.39436 0.39428 0.72505 0.0
C4570 C 0.4018 0.40629 0.73218 0.0
C4571 C 0.42339 0.44108 0.75284 0.0
C4572 C 0.41582 0.42912 0.74579 0.0
H4573 H 0.37203 0.36637 0.73462 0.0
H4574 H 0.38452 0.38594 0.74643 0.0
H4575 H 0.40112 0.41606 0.71188 0.0
H4576 H 0.44767 0.46802 0.74426 0.0
H4577 H 0.43464 0.44855 0.73228 0.0
C4578 C 0.62273 0.00211 0.71102 0.0
C4579 C 0.63217 0.01357 0.70735 0.0
C4580 C 0.61216 0.0006 0.71756 0.0
C4581 C 0.60016 0.01677 0.73968 0.0
H4582 H 0.56952 0.99048 0.7265 0.0
C4583 C 0.55581 0.01184 0.76168 0.0
C4584 C 0.54687 0.00034 0.76616 0.0
C4585 C 0.56599 0.01353 0.75375 0.0
C4586 C 0.57801 0.9978 0.7304 0.0
H4587 H 0.63784 0.03241 0.7074 0.0
H4588 H 0.61938 0.02979 0.7188 0.0
H4589 H 0.58776 0.99334 0.71406 0.0
H4590 H 0.54158 0.98159 0.76577 0.0
H4591 H 0.55936 0.98453 0.75192 0.0
H4592 H 0.59044 0.0212 0.75608 0.0
C4593 C 0.62022 0.02198 0.71683 0.0
C4594 C 0.58846 -0.00056 0.72328 0.0
C4595 C 0.63079 0.02349 0.7103 0.0
C4596 C 0.54824 0.99054 0.76229 0.0
C4597 C 0.55843 0.99223 0.75436 0.0
C4598 C 0.58972 0.01514 0.74679 0.0
C4599 C 0.6108 0.01052 0.72059 0.0
C4600 C 0.59966 0.00892 0.72788 0.0
C4601 C 0.56747 0.00376 0.75012 0.0
C4602 C 0.57853 0.00562 0.74227 0.0
H4603 H 0.62358 0.9943 0.70912 0.0
H4604 H 0.60516 0.99167 0.72056 0.0
H4605 H 0.60865 0.02405 0.74367 0.0
H4606 H 0.55493 0.01955 0.76425 0.0
H4607 H 0.5727 0.0225 0.75039 0.0
loop_
_geom_bond_atom_site_label_1
_geom_bond_atom_site_label_2
_geom_bond_distance
_geom_bond_site_symmetry_2
_ccdc_geom_bond_type
Li0 N17 2.006 . S
Li0 O60 1.956 . S
Li0 O61 1.970 1_654 S
Li0 O62 1.961 . S
Li1 N25 1.990 . S
Li1 O60 1.970 1_455 S
Li1 O61 1.956 1_554 S
Li1 O63 1.961 . S
Li2 N47 1.990 . S
Li2 O60 1.961 . S
Li2 O62 1.956 . S
Li2 O63 1.970 1_655 S
Li3 N53 1.990 . S
Li3 O61 1.961 . S
Li3 O62 1.970 1_456 S
Li3 O63 1.956 1_556 S
C4 C6 1.298 1_655 S
C4 C7 1.356 . S
C4 O60 1.325 . S
N5 C8 1.314 . S
N5 C9 1.279 . S
C6 C4 1.298 1_455 S
C6 C8 1.354 1_455 S
C6 H64 0.979 . S
C7 C4 1.356 . S
C7 C9 1.358 . S
C7 H65 0.930 . S
C8 N5 1.314 . S
C8 C6 1.354 1_655 S
C8 H66 0.930 1_655 S
C9 N5 1.279 . S
C9 C7 1.358 . S
C9 H67 0.930 . S
C10 C13 1.348 . S
C10 C14 1.356 . S
C10 O61 1.325 . S
C11 N12 1.279 . S
C11 C14 1.358 . S
C11 H68 0.930 . S
N12 C11 1.279 . S
N12 C15 1.314 . S
C13 C10 1.348 . S
C13 C15 1.353 . S
C13 H69 0.929 1_455 S
C14 C10 1.356 . S
C14 C11 1.358 . S
C14 H70 0.930 . S
C15 N12 1.314 . S
C15 C13 1.353 . S
C15 H71 0.930 . S
C16 N17 1.255 1_556 S
C16 C21 1.353 . S
C16 H22 0.930 . S
N17 Li0 2.006 . S
N17 C16 1.255 1_554 S
N17 C19 1.317 . S
C18 C19 1.358 . S
C18 C20 1.356 1_554 S
C18 H72 0.930 . S
C19 N17 1.317 . S
C19 C18 1.358 . S
C19 H23 0.930 . S
C20 C18 1.356 1_556 S
C20 C21 1.348 . S
C21 C16 1.353 . S
C21 C20 1.348 . S
C21 H73 0.929 . S
H22 C16 0.930 . S
H23 C19 0.930 . S
C24 N25 1.314 . S
C24 C26 1.353 . S
C24 H30 0.930 . S
N25 Li1 1.990 . S
N25 C24 1.314 . S
N25 C28 1.279 . S
C26 C24 1.353 . S
C26 C29 1.348 . S
C26 H74 0.929 . S
C27 C28 1.358 . S
C27 C29 1.356 . S
C27 H75 0.930 . S
C28 N25 1.279 . S
C28 C27 1.358 . S
C28 H31 0.930 . S
C29 C26 1.348 . S
C29 C27 1.356 . S
H30 C24 0.930 . S
H31 C28 0.930 . S
C32 C34 1.321 1_554 S
C32 C35 1.376 . S
C32 O62 1.336 . S
N33 C36 1.314 . S
N33 C37 1.279 1_556 S
C34 C32 1.321 1_556 S
C34 C36 1.353 . S
C34 H76 0.929 . S
C35 C32 1.376 . S
C35 C37 1.358 . S
C35 H77 0.930 . S
C36 N33 1.314 . S
C36 C34 1.353 . S
C36 H78 0.930 . S
C37 N33 1.279 1_554 S
C37 C35 1.358 . S
C37 H79 0.930 . S
C38 C39 1.348 . S
C38 C40 1.356 . S
C38 O63 1.325 . S
C39 C38 1.348 . S
C39 C41 1.353 . S
C39 H80 0.929 . S
C40 C38 1.356 . S
C40 C42 1.358 . S
C40 H81 0.930 . S
C41 C39 1.353 . S
C41 N43 1.314 . S
C41 H82 0.930 . S
C42 C40 1.358 . S
C42 N43 1.279 . S
C42 H83 0.930 . S
N43 C41 1.314 . S
N43 C42 1.279 . S
C44 C46 1.353 . S
C44 N47 1.314 . S
C44 H50 0.863 1_655 S
C45 N47 1.279 . S
C45 C48 1.358 . S
C45 H51 0.930 . S
C46 C44 1.353 . S
C46 C49 1.348 . S
C46 H84 0.929 . S
N47 Li2 1.990 . S
N47 C44 1.314 . S
N47 C45 1.279 . S
C48 C45 1.358 . S
C48 C49 1.356 . S
C48 H85 0.930 . S
C49 C46 1.348 . S
C49 C48 1.356 . S
H50 C44 0.863 1_455 S
H51 C45 0.930 . S
C52 N53 1.314 . S
C52 C54 1.353 . S
C52 H58 0.930 . S
N53 Li3 1.990 . S
N53 C52 1.314 . S
N53 C56 1.279 . S
C54 C52 1.353 . S
C54 C57 1.348 . S
C54 H86 0.929 . S
C55 C56 1.358 . S
C55 C57 1.356 . S
C55 H87 0.930 . S
C56 N53 1.279 . S
C56 C55 1.358 . S
C56 H59 0.930 . S
C57 C54 1.348 . S
C57 C55 1.356 . S
H58 C52 0.930 . S
H59 C56 0.930 . S
O60 Li0 1.956 . S
O60 Li1 1.970 1_655 S
O60 Li2 1.961 . S
O60 C4 1.325 . S
O61 Li0 1.970 1_456 S
O61 Li1 1.956 1_556 S
O61 Li3 1.961 . S
O61 C10 1.325 . S
O62 Li0 1.961 . S
O62 Li2 1.956 . S
O62 Li3 1.970 1_654 S
O62 C32 1.336 . S
O63 Li1 1.961 . S
O63 Li2 1.970 1_455 S
O63 Li3 1.956 1_554 S
O63 C38 1.325 . S
H64 C6 0.979 . S
H65 C7 0.930 . S
H66 C8 0.930 1_455 S
H67 C9 0.930 . S
H68 C11 0.930 . S
H69 C13 0.929 1_655 S
H70 C14 0.930 . S
H71 C15 0.930 . S
H72 C18 0.930 . S
H73 C21 0.929 . S
H74 C26 0.929 . S
H75 C27 0.930 . S
H76 C34 0.929 . S
H77 C35 0.930 . S
H78 C36 0.930 . S
H79 C37 0.930 . S
H80 C39 0.929 . S
H81 C40 0.930 . S
H82 C41 0.930 . S
H83 C42 0.930 . S
H84 C46 0.929 . S
H85 C48 0.930 . S
H86 C54 0.929 . S
H87 C55 0.930 . S
Li88 N105 1.990 1_554 S
Li88 O148 1.956 . S
Li88 O149 1.970 1_554 S
Li88 O150 1.961 . S
Li89 N113 1.990 . S
Li89 O148 1.970 . S
Li89 O149 1.956 1_554 S
Li89 O151 1.961 . S
Li90 N135 1.990 . S
Li90 O148 1.961 . S
Li90 O150 1.956 . S
Li90 O151 1.970 . S
Li91 N141 1.990 . S
Li91 O149 1.961 . S
Li91 O150 1.970 1_556 S
Li91 O151 1.956 1_556 S
C92 C94 1.348 . S
C92 C95 1.356 . S
C92 O148 1.325 . S
N93 C96 1.314 . S
N93 C97 1.279 . S
C94 C92 1.348 . S
C94 C96 1.353 . S
C94 H152 0.929 . S
C95 C92 1.356 . S
C95 C97 1.358 . S
C95 H153 0.930 . S
C96 N93 1.314 . S
C96 C94 1.353 . S
C96 H154 0.930 . S
C97 N93 1.279 . S
C97 C95 1.358 . S
C97 H155 0.930 . S
C98 C101 1.348 . S
C98 C102 1.356 . S
C98 O149 1.325 . S
C99 N100 1.279 . S
C99 C102 1.358 . S
C99 H156 0.930 . S
N100 C99 1.279 . S
N100 C103 1.314 . S
C101 C98 1.348 . S
C101 C103 1.353 . S
C101 H157 0.929 . S
C102 C98 1.356 . S
C102 C99 1.358 . S
C102 H158 0.930 . S
C103 N100 1.314 . S
C103 C101 1.353 . S
C103 H159 0.930 . S
C104 N105 1.314 . S
C104 C109 1.353 . S
C104 H110 0.930 . S
N105 Li88 1.990 1_556 S
N105 C104 1.314 . S
N105 C107 1.279 1_556 S
C106 C107 1.337 1_556 S
C106 C108 1.421 . S
C106 H160 0.890 1_556 S
C107 N105 1.279 1_554 S
C107 C106 1.337 1_554 S
C107 H111 0.930 . S
C108 C106 1.421 . S
C108 C109 1.348 . S
C109 C104 1.353 . S
C109 C108 1.348 . S
C109 H161 0.929 . S
H110 C104 0.930 . S
H111 C107 0.930 . S
C112 N113 1.314 . S
C112 C114 1.353 . S
C112 H118 0.930 . S
N113 Li89 1.990 . S
N113 C112 1.314 . S
N113 C116 1.279 . S
C114 C112 1.353 . S
C114 C117 1.348 . S
C114 H162 0.929 . S
C115 C116 1.358 . S
C115 C117 1.356 . S
C115 H163 0.930 . S
C116 N113 1.279 . S
C116 C115 1.358 . S
C116 H119 0.930 . S
C117 C114 1.348 . S
C117 C115 1.356 . S
H118 C112 0.930 . S
H119 C116 0.930 . S
C120 C122 1.348 . S
C120 C123 1.356 1_556 S
C120 O150 1.325 1_556 S
N121 C124 1.314 . S
N121 C125 1.279 . S
C122 C120 1.348 . S
C122 C124 1.353 . S
C122 H164 0.929 . S
C123 C120 1.356 1_554 S
C123 C125 1.358 1_554 S
C123 H165 0.930 . S
C124 N121 1.314 . S
C124 C122 1.353 . S
C124 H166 0.930 . S
C125 N121 1.279 . S
C125 C123 1.358 1_556 S
C125 H167 0.926 1_556 S
C126 C127 1.348 . S
C126 C128 1.356 . S
C126 O151 1.325 . S
C127 C126 1.348 . S
C127 C129 1.353 . S
C127 H168 0.929 . S
C128 C126 1.356 . S
C128 C130 1.358 . S
C128 H169 0.930 . S
C129 C127 1.353 . S
C129 N131 1.314 . S
C129 H170 0.930 . S
C130 C128 1.358 . S
C130 N131 1.279 . S
C130 H171 0.930 . S
N131 C129 1.314 . S
N131 C130 1.279 . S
C132 C134 1.353 . S
C132 N135 1.314 . S
C132 H138 0.930 . S
C133 N135 1.279 . S
C133 C136 1.358 . S
C133 H139 0.930 . S
C134 C132 1.353 . S
C134 C137 1.348 . S
C134 H172 0.929 . S
N135 Li90 1.990 . S
N135 C132 1.314 . S
N135 C133 1.279 . S
C136 C133 1.358 . S
C136 C137 1.356 . S
C136 H173 0.930 . S
C137 C134 1.348 . S
C137 C136 1.356 . S
H138 C132 0.930 . S
H139 C133 0.930 . S
C140 N141 1.314 . S
C140 C142 1.353 . S
C140 H146 0.930 . S
N141 Li91 1.990 . S
N141 C140 1.314 . S
N141 C144 1.279 . S
C142 C140 1.353 . S
C142 C145 1.348 . S
C142 H174 0.929 . S
C143 C144 1.358 . S
C143 C145 1.356 . S
C143 H175 0.930 . S
C144 N141 1.279 . S
C144 C143 1.358 . S
C144 H147 0.930 . S
C145 C142 1.348 . S
C145 C143 1.356 . S
H146 C140 0.930 . S
H147 C144 0.930 . S
O148 Li88 1.956 . S
O148 Li89 1.970 . S
O148 Li90 1.961 . S
O148 C92 1.325 . S
O149 Li88 1.970 1_556 S
O149 Li89 1.956 1_556 S
O149 Li91 1.961 . S
O149 C98 1.325 . S
O150 Li88 1.961 . S
O150 Li90 1.956 . S
O150 Li91 1.970 1_554 S
O150 C120 1.325 1_554 S
O151 Li89 1.961 . S
O151 Li90 1.970 . S
O151 Li91 1.956 1_554 S
O151 C126 1.325 . S
H152 C94 0.929 . S
H153 C95 0.930 . S
H154 C96 0.930 . S
H155 C97 0.930 . S
H156 C99 0.930 . S
H157 C101 0.929 . S
H158 C102 0.930 . S
H159 C103 0.930 . S
H160 C106 0.890 1_554 S
H161 C109 0.929 . S
H162 C114 0.929 . S
H163 C115 0.930 . S
H164 C122 0.929 . S
H165 C123 0.930 . S
H166 C124 0.930 . S
H167 C125 0.926 1_554 S
H168 C127 0.929 . S
H169 C128 0.930 . S
H170 C129 0.930 . S
H171 C130 0.930 . S
H172 C134 0.929 . S
H173 C136 0.930 . S
H174 C142 0.929 . S
H175 C143 0.930 . S
Li176 N193 1.990 . S
Li176 O236 1.956 1_556 S
Li176 O237 1.970 1_566 S
Li176 O238 1.961 . S
Li177 N201 1.990 . S
Li177 O236 1.970 1_545 S
Li177 O237 1.956 . S
Li177 O239 1.961 . S
Li178 N223 1.990 . S
Li178 O236 1.961 . S
Li178 O238 1.956 1_554 S
Li178 O239 1.970 1_565 S
Li179 N229 1.995 . S
Li179 O237 1.961 . S
Li179 O238 1.970 1_544 S
Li179 O239 1.956 . S
C180 C182 1.348 . S
C180 C183 1.356 . S
C180 O236 1.325 . S
N181 C184 1.314 . S
N181 C185 1.279 . S
C182 C180 1.348 . S
C182 C184 1.353 . S
C182 H240 0.929 . S
C183 C180 1.356 . S
C183 C185 1.358 . S
C183 H241 0.930 . S
C184 N181 1.314 . S
C184 C182 1.353 . S
C184 H242 0.930 . S
C185 N181 1.279 . S
C185 C183 1.358 . S
C185 H243 0.930 . S
C186 C189 1.341 1_554 S
C186 C190 1.361 . S
C186 O237 1.327 . S
C187 N188 1.279 1_554 S
C187 C190 1.358 . S
C187 H244 0.930 . S
N188 C187 1.279 1_556 S
N188 C191 1.314 . S
C189 C186 1.341 1_556 S
C189 C191 1.353 . S
C189 H245 0.929 . S
C190 C186 1.361 . S
C190 C187 1.358 . S
C190 H246 0.930 . S
C191 N188 1.314 . S
C191 C189 1.353 . S
C191 H247 0.930 . S
C192 N193 1.314 . S
C192 C197 1.353 . S
C192 H198 0.861 1_565 S
N193 Li176 1.990 . S
N193 C192 1.314 . S
N193 C195 1.279 . S
C194 C195 1.358 . S
C194 C196 1.356 . S
C194 H248 0.930 . S
C195 N193 1.279 . S
C195 C194 1.358 . S
C195 H199 0.930 . S
C196 C194 1.356 . S
C196 C197 1.348 . S
C197 C192 1.353 . S
C197 C196 1.348 . S
C197 H249 0.929 . S
H198 C192 0.861 1_545 S
H199 C195 0.930 . S
C200 N201 1.314 . S
C200 C202 1.353 . S
C200 H206 0.930 . S
N201 Li177 1.990 . S
N201 C200 1.314 . S
N201 C204 1.279 . S
C202 C200 1.353 . S
C202 C205 1.348 . S
C202 H250 0.929 . S
C203 C204 1.358 . S
C203 C205 1.356 . S
C203 H251 0.930 . S
C204 N201 1.279 . S
C204 C203 1.358 . S
C204 H207 0.930 . S
C205 C202 1.348 . S
C205 C203 1.356 . S
H206 C200 0.930 . S
H207 C204 0.930 . S
C208 C210 1.297 1_565 S
C208 C211 1.356 . S
C208 O238 1.325 . S
N209 C212 1.314 . S
N209 C213 1.279 . S
C210 C208 1.297 1_545 S
C210 C212 1.354 1_545 S
C210 H252 0.980 . S
C211 C208 1.356 . S
C211 C213 1.358 . S
C211 H253 0.930 . S
C212 N209 1.314 . S
C212 C210 1.354 1_565 S
C212 H254 0.930 1_565 S
C213 N209 1.279 . S
C213 C211 1.358 . S
C213 H255 0.930 . S
C214 C215 1.348 . S
C214 C216 1.356 . S
C214 O239 1.325 . S
C215 C214 1.348 . S
C215 C217 1.353 . S
C215 H256 0.929 1_545 S
C216 C214 1.356 . S
C216 C218 1.358 . S
C216 H257 0.930 . S
C217 C215 1.353 . S
C217 N219 1.314 . S
C217 H258 0.930 . S
C218 C216 1.358 . S
C218 N219 1.279 . S
C218 H259 0.930 . S
N219 C217 1.314 . S
N219 C218 1.279 . S
C220 C222 1.353 . S
C220 N223 1.314 . S
C220 H226 0.930 . S
C221 N223 1.279 . S
C221 C224 1.358 . S
C221 H227 0.930 . S
C222 C220 1.353 . S
C222 C225 1.348 . S
C222 H260 0.929 . S
N223 Li178 1.990 . S
N223 C220 1.314 . S
N223 C221 1.279 . S
C224 C221 1.358 . S
C224 C225 1.356 . S
C224 H261 0.930 . S
C225 C222 1.348 . S
C225 C224 1.356 . S
H226 C220 0.930 . S
H227 C221 0.930 . S
C228 N229 1.294 1_556 S
C228 C230 1.353 . S
C228 H234 0.930 . S
N229 Li179 1.995 . S
N229 C228 1.294 1_554 S
N229 C232 1.292 . S
C230 C228 1.353 . S
C230 C233 1.348 . S
C230 H262 0.929 . S
C231 C232 1.358 . S
C231 C233 1.356 1_554 S
C231 H263 0.930 . S
C232 N229 1.292 . S
C232 C231 1.358 . S
C232 H235 0.930 . S
C233 C230 1.348 . S
C233 C231 1.356 1_556 S
H234 C228 0.930 . S
H235 C232 0.930 . S
O236 Li176 1.956 1_554 S
O236 Li177 1.970 1_565 S
O236 Li178 1.961 . S
O236 C180 1.325 . S
O237 Li176 1.970 1_544 S
O237 Li177 1.956 . S
O237 Li179 1.961 . S
O237 C186 1.327 . S
O238 Li176 1.961 . S
O238 Li178 1.956 1_556 S
O238 Li179 1.970 1_566 S
O238 C208 1.325 . S
O239 Li177 1.961 . S
O239 Li178 1.970 1_545 S
O239 Li179 1.956 . S
O239 C214 1.325 . S
H240 C182 0.929 . S
H241 C183 0.930 . S
H242 C184 0.930 . S
H243 C185 0.930 . S
H244 C187 0.930 . S
H245 C189 0.929 . S
H246 C190 0.930 . S
H247 C191 0.930 . S
H248 C194 0.930 . S
H249 C197 0.929 . S
H250 C202 0.929 . S
H251 C203 0.930 . S
H252 C210 0.980 . S
H253 C211 0.930 . S
H254 C212 0.930 1_545 S
H255 C213 0.930 . S
H256 C215 0.929 1_565 S
H257 C216 0.930 . S
H258 C217 0.930 . S
H259 C218 0.930 . S
H260 C222 0.929 . S
H261 C224 0.930 . S
H262 C230 0.929 . S
H263 C231 0.930 . S
Li264 N281 1.990 . S
Li264 O324 1.956 . S
Li264 O325 1.970 1_455 S
Li264 O326 1.961 1_554 S
Li265 N289 1.990 . S
Li265 O324 1.970 1_655 S
Li265 O325 1.956 . S
Li265 O327 1.961 . S
Li266 N311 1.990 . S
Li266 O324 1.961 1_556 S
Li266 O326 1.956 . S
Li266 O327 1.970 1_456 S
Li267 N317 1.978 1_554 S
Li267 O325 1.961 . S
Li267 O326 1.970 1_654 S
Li267 O327 1.956 . S
C268 C270 1.348 . S
C268 C271 1.356 . S
C268 O324 1.325 . S
N269 C272 1.314 . S
N269 C273 1.279 . S
C270 C268 1.348 . S
C270 C272 1.353 . S
C270 H328 0.929 . S
C271 C268 1.356 . S
C271 C273 1.358 . S
C271 H329 0.930 1_554 S
C272 N269 1.314 . S
C272 C270 1.353 . S
C272 H330 0.930 . S
C273 N269 1.279 . S
C273 C271 1.358 . S
C273 H331 0.930 . S
C274 C277 1.348 1_655 S
C274 C278 1.356 . S
C274 O325 1.325 . S
C275 N276 1.279 . S
C275 C278 1.358 . S
C275 H332 0.930 . S
N276 C275 1.279 . S
N276 C279 1.314 . S
C277 C274 1.348 1_455 S
C277 C279 1.353 1_455 S
C277 H333 0.929 . S
C278 C274 1.356 . S
C278 C275 1.358 . S
C278 H334 0.930 . S
C279 N276 1.314 . S
C279 C277 1.353 1_655 S
C279 H335 0.930 1_655 S
C280 N281 1.314 . S
C280 C285 1.353 . S
C280 H286 0.930 . S
N281 Li264 1.990 . S
N281 C280 1.314 . S
N281 C283 1.279 . S
C282 C283 1.358 . S
C282 C284 1.356 . S
C282 H336 0.930 . S
C283 N281 1.279 . S
C283 C282 1.358 . S
C283 H287 0.930 . S
C284 C282 1.356 . S
C284 C285 1.348 . S
C285 C280 1.353 . S
C285 C284 1.348 . S
C285 H337 0.929 . S
H286 C280 0.930 . S
H287 C283 0.930 . S
C288 N289 1.314 . S
C288 C290 1.353 . S
C288 H294 0.930 . S
N289 Li265 1.990 . S
N289 C288 1.314 . S
N289 C292 1.279 . S
C290 C288 1.353 . S
C290 C293 1.348 . S
C290 H338 0.929 . S
C291 C292 1.358 . S
C291 C293 1.356 . S
C291 H339 0.930 . S
C292 N289 1.279 . S
C292 C291 1.358 . S
C292 H295 0.930 . S
C293 C290 1.348 . S
C293 C291 1.356 . S
H294 C288 0.930 . S
H295 C292 0.930 . S
C296 C298 1.348 1_455 S
C296 C299 1.356 . S
C296 O326 1.325 . S
N297 C300 1.314 . S
N297 C301 1.279 . S
C298 C296 1.348 1_655 S
C298 C300 1.353 1_655 S
C298 H340 0.929 . S
C299 C296 1.356 . S
C299 C301 1.358 . S
C299 H341 0.930 . S
C300 N297 1.314 . S
C300 C298 1.353 1_455 S
C300 H342 0.930 1_455 S
C301 N297 1.279 . S
C301 C299 1.358 . S
C301 H343 0.930 . S
C302 C303 1.343 . S
C302 C304 1.359 1_556 S
C302 O327 1.326 1_556 S
C303 C302 1.343 . S
C303 C305 1.353 . S
C303 H344 0.929 . S
C304 C302 1.359 1_554 S
C304 C306 1.358 . S
C304 H345 0.930 . S
C305 C303 1.353 . S
C305 N307 1.314 . S
C305 H346 0.930 . S
C306 C304 1.358 . S
C306 N307 1.279 1_554 S
C306 H347 0.930 . S
N307 C305 1.314 . S
N307 C306 1.279 1_556 S
C308 C310 1.353 . S
C308 N311 1.314 . S
C308 H314 0.930 . S
C309 N311 1.279 . S
C309 C312 1.358 . S
C309 H315 0.930 . S
C310 C308 1.353 . S
C310 C313 1.348 . S
C310 H348 0.929 . S
N311 Li266 1.990 . S
N311 C308 1.314 . S
N311 C309 1.279 . S
C312 C309 1.358 . S
C312 C313 1.356 . S
C312 H349 0.930 . S
C313 C310 1.348 . S
C313 C312 1.356 . S
H314 C308 0.930 . S
H315 C309 0.930 . S
C316 N317 1.303 1_554 S
C316 C318 1.353 1_554 S
C316 H322 0.930 . S
N317 Li267 1.978 1_556 S
N317 C316 1.303 1_556 S
N317 C320 1.311 . S
C318 C316 1.353 1_556 S
C318 C321 1.348 . S
C318 H350 0.929 1_556 S
C319 C320 1.358 . S
C319 C321 1.356 . S
C319 H351 0.930 . S
C320 N317 1.311 . S
C320 C319 1.358 . S
C320 H323 0.930 . S
C321 C318 1.348 . S
C321 C319 1.356 . S
H322 C316 0.930 . S
H323 C320 0.930 . S
O324 Li264 1.956 . S
O324 Li265 1.970 1_455 S
O324 Li266 1.961 1_554 S
O324 C268 1.325 . S
O325 Li264 1.970 1_655 S
O325 Li265 1.956 . S
O325 Li267 1.961 . S
O325 C274 1.325 . S
O326 Li264 1.961 1_556 S
O326 Li266 1.956 . S
O326 Li267 1.970 1_456 S
O326 C296 1.325 . S
O327 Li265 1.961 . S
O327 Li266 1.970 1_654 S
O327 Li267 1.956 . S
O327 C302 1.326 1_554 S
H328 C270 0.929 . S
H329 C271 0.930 1_556 S
H330 C272 0.930 . S
H331 C273 0.930 . S
H332 C275 0.930 . S
H333 C277 0.929 . S
H334 C278 0.930 . S
H335 C279 0.930 1_455 S
H336 C282 0.930 . S
H337 C285 0.929 . S
H338 C290 0.929 . S
H339 C291 0.930 . S
H340 C298 0.929 . S
H341 C299 0.930 . S
H342 C300 0.930 1_655 S
H343 C301 0.930 . S
H344 C303 0.929 . S
H345 C304 0.930 . S
H346 C305 0.930 . S
H347 C306 0.930 . S
H348 C310 0.929 . S
H349 C312 0.930 . S
H350 C318 0.929 1_554 S
H351 C319 0.930 . S
Li352 N369 1.990 . S
Li352 O412 1.956 . S
Li352 O413 1.970 . S
Li352 O414 1.961 1_554 S
Li353 N377 1.990 . S
Li353 O412 1.970 . S
Li353 O413 1.956 . S
Li353 O415 1.961 . S
Li354 N399 1.990 . S
Li354 O412 1.961 1_556 S
Li354 O414 1.956 . S
Li354 O415 1.970 1_556 S
Li355 N405 1.990 1_554 S
Li355 O413 1.961 . S
Li355 O414 1.970 1_554 S
Li355 O415 1.956 . S
C356 C358 1.348 . S
C356 C359 1.356 . S
C356 O412 1.325 . S
N357 C360 1.314 . S
N357 C361 1.279 . S
C358 C356 1.348 . S
C358 C360 1.353 . S
C358 H416 0.929 . S
C359 C356 1.356 . S
C359 C361 1.358 . S
C359 H417 0.930 . S
C360 N357 1.314 . S
C360 C358 1.353 . S
C360 H418 0.930 . S
C361 N357 1.279 . S
C361 C359 1.358 . S
C361 H419 0.930 . S
C362 C365 1.348 . S
C362 C366 1.356 . S
C362 O413 1.325 . S
C363 N364 1.279 . S
C363 C366 1.358 . S
C363 H420 0.930 . S
N364 C363 1.279 . S
N364 C367 1.314 . S
C365 C362 1.348 . S
C365 C367 1.353 . S
C365 H421 0.929 . S
C366 C362 1.356 . S
C366 C363 1.358 . S
C366 H422 0.930 . S
C367 N364 1.314 . S
C367 C365 1.353 . S
C367 H423 0.930 . S
C368 N369 1.314 . S
C368 C373 1.353 . S
C368 H374 0.930 . S
N369 Li352 1.990 . S
N369 C368 1.314 . S
N369 C371 1.279 . S
C370 C371 1.358 . S
C370 C372 1.356 . S
C370 H424 0.930 . S
C371 N369 1.279 . S
C371 C370 1.358 . S
C371 H375 0.930 . S
C372 C370 1.356 . S
C372 C373 1.348 . S
C373 C368 1.353 . S
C373 C372 1.348 . S
C373 H425 0.929 . S
H374 C368 0.930 . S
H375 C371 0.930 . S
C376 N377 1.314 . S
C376 C378 1.353 . S
C376 H382 0.930 . S
N377 Li353 1.990 . S
N377 C376 1.314 . S
N377 C380 1.279 . S
C378 C376 1.353 . S
C378 C381 1.348 . S
C378 H426 0.929 . S
C379 C380 1.358 . S
C379 C381 1.356 . S
C379 H427 0.930 . S
C380 N377 1.279 . S
C380 C379 1.358 . S
C380 H383 0.930 . S
C381 C378 1.348 . S
C381 C379 1.356 . S
H382 C376 0.930 . S
H383 C380 0.930 . S
C384 C386 1.348 . S
C384 C387 1.356 . S
C384 O414 1.325 . S
N385 C388 1.314 . S
N385 C389 1.279 . S
C386 C384 1.348 . S
C386 C388 1.353 . S
C386 H428 0.929 . S
C387 C384 1.356 . S
C387 C389 1.358 . S
C387 H429 0.930 . S
C388 N385 1.314 . S
C388 C386 1.353 . S
C388 H430 0.930 . S
C389 N385 1.279 . S
C389 C387 1.358 . S
C389 H431 0.930 . S
C390 C391 1.348 . S
C390 C392 1.356 1_556 S
C390 O415 1.325 1_556 S
C391 C390 1.348 . S
C391 C393 1.353 . S
C391 H432 0.929 . S
C392 C390 1.356 1_554 S
C392 C394 1.367 . S
C392 H433 0.930 . S
C393 C391 1.353 . S
C393 N395 1.314 . S
C393 H434 0.930 . S
C394 C392 1.367 . S
C394 N395 1.257 1_554 S
C394 H435 0.945 . S
N395 C393 1.314 . S
N395 C394 1.257 1_556 S
C396 C398 1.353 . S
C396 N399 1.314 . S
C396 H402 0.930 . S
C397 N399 1.279 . S
C397 C400 1.358 . S
C397 H403 0.930 . S
C398 C396 1.353 . S
C398 C401 1.348 . S
C398 H436 0.929 . S
N399 Li354 1.990 . S
N399 C396 1.314 . S
N399 C397 1.279 . S
C400 C397 1.358 . S
C400 C401 1.356 . S
C400 H437 0.930 . S
C401 C398 1.348 . S
C401 C400 1.356 . S
H402 C396 0.930 . S
H403 C397 0.930 . S
C404 N405 1.320 . S
C404 C406 1.361 . S
C404 H410 0.914 1_556 S
N405 Li355 1.990 1_556 S
N405 C404 1.320 . S
N405 C408 1.279 . S
C406 C404 1.361 . S
C406 C409 1.348 . S
C406 H438 0.929 . S
C407 C408 1.358 . S
C407 C409 1.356 . S
C407 H439 0.930 . S
C408 N405 1.279 . S
C408 C407 1.358 . S
C408 H411 0.930 . S
C409 C406 1.348 . S
C409 C407 1.356 . S
H410 C404 0.914 1_554 S
H411 C408 0.930 . S
O412 Li352 1.956 . S
O412 Li353 1.970 . S
O412 Li354 1.961 1_554 S
O412 C356 1.325 . S
O413 Li352 1.970 . S
O413 Li353 1.956 . S
O413 Li355 1.961 . S
O413 C362 1.325 . S
O414 Li352 1.961 1_556 S
O414 Li354 1.956 . S
O414 Li355 1.970 1_556 S
O414 C384 1.325 . S
O415 Li353 1.961 . S
O415 Li354 1.970 1_554 S
O415 Li355 1.956 . S
O415 C390 1.325 1_554 S
H416 C358 0.929 . S
H417 C359 0.930 . S
H418 C360 0.930 . S
H419 C361 0.930 . S
H420 C363 0.930 . S
H421 C365 0.929 . S
H422 C366 0.930 . S
H423 C367 0.930 . S
H424 C370 0.930 . S
H425 C373 0.929 . S
H426 C378 0.929 . S
H427 C379 0.930 . S
H428 C386 0.929 . S
H429 C387 0.930 . S
H430 C388 0.930 . S
H431 C389 0.930 . S
H432 C391 0.929 . S
H433 C392 0.930 . S
H434 C393 0.930 . S
H435 C394 0.945 . S
H436 C398 0.929 . S
H437 C400 0.930 . S
H438 C406 0.929 . S
H439 C407 0.930 . S
Li440 N457 1.990 . S
Li440 O500 1.956 . S
Li440 O501 1.970 1_565 S
Li440 O502 1.961 1_554 S
Li441 N465 1.990 . S
Li441 O500 1.970 1_545 S
Li441 O501 1.956 . S
Li441 O503 1.961 . S
Li442 N487 1.990 . S
Li442 O500 1.961 1_556 S
Li442 O502 1.956 . S
Li442 O503 1.970 1_566 S
Li443 N493 1.999 . S
Li443 O501 1.961 . S
Li443 O502 1.970 1_544 S
Li443 O503 1.956 . S
C444 C446 1.348 . S
C444 C447 1.356 . S
C444 O500 1.325 . S
N445 C448 1.314 . S
N445 C449 1.279 . S
C446 C444 1.348 . S
C446 C448 1.353 . S
C446 H504 0.929 . S
C447 C444 1.356 . S
C447 C449 1.358 . S
C447 H505 0.910 1_554 S
C448 N445 1.314 . S
C448 C446 1.353 . S
C448 H506 0.930 . S
C449 N445 1.279 . S
C449 C447 1.358 . S
C449 H507 0.930 . S
C450 C453 1.348 1_545 S
C450 C454 1.356 . S
C450 O501 1.325 . S
C451 N452 1.279 . S
C451 C454 1.358 . S
C451 H508 0.930 . S
N452 C451 1.279 . S
N452 C455 1.314 . S
C453 C450 1.348 1_565 S
C453 C455 1.353 1_565 S
C453 H509 0.929 . S
C454 C450 1.356 . S
C454 C451 1.358 . S
C454 H510 0.930 . S
C455 N452 1.314 . S
C455 C453 1.353 1_545 S
C455 H511 0.930 1_545 S
C456 N457 1.314 . S
C456 C461 1.353 . S
C456 H462 0.930 . S
N457 Li440 1.990 . S
N457 C456 1.314 . S
N457 C459 1.279 . S
C458 C459 1.358 . S
C458 C460 1.356 . S
C458 H512 0.930 . S
C459 N457 1.279 . S
C459 C458 1.358 . S
C459 H463 0.930 . S
C460 C458 1.356 . S
C460 C461 1.348 . S
C461 C456 1.353 . S
C461 C460 1.348 . S
C461 H513 0.929 . S
H462 C456 0.930 . S
H463 C459 0.930 . S
C464 N465 1.314 . S
C464 C466 1.353 . S
C464 H470 0.930 . S
N465 Li441 1.990 . S
N465 C464 1.314 . S
N465 C468 1.279 . S
C466 C464 1.353 . S
C466 C469 1.348 . S
C466 H514 0.929 . S
C467 C468 1.358 . S
C467 C469 1.356 . S
C467 H515 0.930 . S
C468 N465 1.279 . S
C468 C467 1.358 . S
C468 H471 0.930 . S
C469 C466 1.348 . S
C469 C467 1.356 . S
H470 C464 0.930 . S
H471 C468 0.930 . S
C472 C474 1.348 1_565 S
C472 C475 1.356 . S
C472 O502 1.325 . S
N473 C476 1.314 . S
N473 C477 1.279 . S
C474 C472 1.348 1_545 S
C474 C476 1.353 1_545 S
C474 H516 0.929 . S
C475 C472 1.356 . S
C475 C477 1.358 . S
C475 H517 0.930 . S
C476 N473 1.314 . S
C476 C474 1.353 1_565 S
C476 H518 0.930 1_565 S
C477 N473 1.279 . S
C477 C475 1.358 . S
C477 H519 0.930 . S
C478 C479 1.348 1_554 S
C478 C480 1.356 . S
C478 O503 1.325 . S
C479 C478 1.348 1_556 S
C479 C481 1.353 . S
C479 H520 0.929 . S
C480 C478 1.356 . S
C480 C482 1.358 . S
C480 H521 0.930 . S
C481 C479 1.353 . S
C481 N483 1.314 . S
C481 H522 0.930 . S
C482 C480 1.358 . S
C482 N483 1.279 1_554 S
C482 H523 0.930 . S
N483 C481 1.314 . S
N483 C482 1.279 1_556 S
C484 C486 1.353 . S
C484 N487 1.314 . S
C484 H490 0.930 . S
C485 N487 1.279 . S
C485 C488 1.358 . S
C485 H491 0.930 . S
C486 C484 1.353 . S
C486 C489 1.348 . S
C486 H524 0.929 . S
N487 Li442 1.990 . S
N487 C484 1.314 . S
N487 C485 1.279 . S
C488 C485 1.358 . S
C488 C489 1.356 . S
C488 H525 0.930 . S
C489 C486 1.348 . S
C489 C488 1.356 . S
H490 C484 0.930 . S
H491 C485 0.930 . S
C492 N493 1.323 . S
C492 C494 1.356 . S
C492 H498 0.930 . S
N493 Li443 1.999 . S
N493 C492 1.323 . S
N493 C496 1.260 1_554 S
C494 C492 1.356 . S
C494 C497 1.340 1_554 S
C494 H526 0.934 . S
C495 C496 1.358 . S
C495 C497 1.356 . S
C495 H527 0.930 . S
C496 N493 1.260 1_556 S
C496 C495 1.358 . S
C496 H499 0.930 . S
C497 C494 1.340 1_556 S
C497 C495 1.356 . S
H498 C492 0.930 . S
H499 C496 0.930 . S
O500 Li440 1.956 . S
O500 Li441 1.970 1_565 S
O500 Li442 1.961 1_554 S
O500 C444 1.325 . S
O501 Li440 1.970 1_545 S
O501 Li441 1.956 . S
O501 Li443 1.961 . S
O501 C450 1.325 . S
O502 Li440 1.961 1_556 S
O502 Li442 1.956 . S
O502 Li443 1.970 1_566 S
O502 C472 1.325 . S
O503 Li441 1.961 . S
O503 Li442 1.970 1_544 S
O503 Li443 1.956 . S
O503 C478 1.325 . S
H504 C446 0.929 . S
H505 C447 0.910 1_556 S
H506 C448 0.930 . S
H507 C449 0.930 . S
H508 C451 0.930 . S
H509 C453 0.929 . S
H510 C454 0.930 . S
H511 C455 0.930 1_565 S
H512 C458 0.930 . S
H513 C461 0.929 . S
H514 C466 0.929 . S
H515 C467 0.930 . S
H516 C474 0.929 . S
H517 C475 0.930 . S
H518 C476 0.930 1_545 S
H519 C477 0.930 . S
H520 C479 0.929 . S
H521 C480 0.930 . S
H522 C481 0.930 . S
H523 C482 0.930 . S
H524 C486 0.929 . S
H525 C488 0.930 . S
H526 C494 0.934 . S
H527 C495 0.930 . S
Li528 N545 1.990 . S
Li528 O588 1.956 . S
Li528 O589 1.970 . S
Li528 O590 1.961 . S
Li529 N553 1.990 . S
Li529 O588 1.970 . S
Li529 O589 1.956 . S
Li529 O591 1.961 . S
Li530 N575 1.990 . S
Li530 O588 1.961 . S
Li530 O590 1.956 . S
Li530 O591 1.970 . S
Li531 N581 1.990 . S
Li531 O589 1.961 . S
Li531 O590 1.970 . S
Li531 O591 1.956 . S
C532 C534 1.348 . S
C532 C535 1.356 . S
C532 O588 1.325 . S
N533 C536 1.314 . S
N533 C537 1.279 . S
C534 C532 1.348 . S
C534 C536 1.353 . S
C534 H592 0.929 . S
C535 C532 1.356 . S
C535 C537 1.358 . S
C535 H593 0.930 . S
C536 N533 1.314 . S
C536 C534 1.353 . S
C536 H594 0.930 . S
C537 N533 1.279 . S
C537 C535 1.358 . S
C537 H595 0.930 . S
C538 C541 1.348 . S
C538 C542 1.356 . S
C538 O589 1.325 . S
C539 N540 1.279 . S
C539 C542 1.358 . S
C539 H596 0.930 . S
N540 C539 1.279 . S
N540 C543 1.314 . S
C541 C538 1.348 . S
C541 C543 1.353 . S
C541 H597 0.929 . S
C542 C538 1.356 . S
C542 C539 1.358 . S
C542 H598 0.930 . S
C543 N540 1.314 . S
C543 C541 1.353 . S
C543 H599 0.930 . S
C544 N545 1.314 . S
C544 C549 1.353 . S
C544 H550 0.930 . S
N545 Li528 1.990 . S
N545 C544 1.314 . S
N545 C547 1.279 . S
C546 C547 1.358 . S
C546 C548 1.356 . S
C546 H600 0.930 . S
C547 N545 1.279 . S
C547 C546 1.358 . S
C547 H551 0.930 . S
C548 C546 1.356 . S
C548 C549 1.348 . S
C549 C544 1.353 . S
C549 C548 1.348 . S
C549 H601 0.929 . S
H550 C544 0.930 . S
H551 C547 0.930 . S
C552 N553 1.314 . S
C552 C554 1.353 . S
C552 H558 0.930 . S
N553 Li529 1.990 . S
N553 C552 1.314 . S
N553 C556 1.279 . S
C554 C552 1.353 . S
C554 C557 1.348 . S
C554 H602 0.929 . S
C555 C556 1.358 . S
C555 C557 1.356 . S
C555 H603 0.930 . S
C556 N553 1.279 . S
C556 C555 1.358 . S
C556 H559 0.930 . S
C557 C554 1.348 . S
C557 C555 1.356 . S
H558 C552 0.930 . S
H559 C556 0.930 . S
C560 C562 1.348 . S
C560 C563 1.356 . S
C560 O590 1.325 . S
N561 C564 1.314 . S
N561 C565 1.279 . S
C562 C560 1.348 . S
C562 C564 1.353 . S
C562 H604 0.929 . S
C563 C560 1.356 . S
C563 C565 1.358 . S
C563 H605 0.930 . S
C564 N561 1.314 . S
C564 C562 1.353 . S
C564 H606 0.930 . S
C565 N561 1.279 . S
C565 C563 1.358 . S
C565 H607 0.930 . S
C566 C567 1.348 . S
C566 C568 1.356 . S
C566 O591 1.325 . S
C567 C566 1.348 . S
C567 C569 1.353 . S
C567 H608 0.929 . S
C568 C566 1.356 . S
C568 C570 1.358 . S
C568 H609 0.930 . S
C569 C567 1.353 . S
C569 N571 1.314 . S
C569 H610 0.930 . S
C570 C568 1.358 . S
C570 N571 1.279 . S
C570 H611 0.930 . S
N571 C569 1.314 . S
N571 C570 1.279 . S
C572 C574 1.353 . S
C572 N575 1.314 . S
C572 H578 0.930 . S
C573 N575 1.279 . S
C573 C576 1.358 . S
C573 H579 0.930 . S
C574 C572 1.353 . S
C574 C577 1.348 . S
C574 H612 0.929 . S
N575 Li530 1.990 . S
N575 C572 1.314 . S
N575 C573 1.279 . S
C576 C573 1.358 . S
C576 C577 1.356 . S
C576 H613 0.930 . S
C577 C574 1.348 . S
C577 C576 1.356 . S
H578 C572 0.930 . S
H579 C573 0.930 . S
C580 N581 1.314 . S
C580 C582 1.353 . S
C580 H586 0.930 . S
N581 Li531 1.990 . S
N581 C580 1.314 . S
N581 C584 1.279 . S
C582 C580 1.353 . S
C582 C585 1.348 . S
C582 H614 0.929 . S
C583 C584 1.358 . S
C583 C585 1.356 . S
C583 H615 0.930 . S
C584 N581 1.279 . S
C584 C583 1.358 . S
C584 H587 0.930 . S
C585 C582 1.348 . S
C585 C583 1.356 . S
H586 C580 0.930 . S
H587 C584 0.930 . S
O588 Li528 1.956 . S
O588 Li529 1.970 . S
O588 Li530 1.961 . S
O588 C532 1.325 . S
O589 Li528 1.970 . S
O589 Li529 1.956 . S
O589 Li531 1.961 . S
O589 C538 1.325 . S
O590 Li528 1.961 . S
O590 Li530 1.956 . S
O590 Li531 1.970 . S
O590 C560 1.325 . S
O591 Li529 1.961 . S
O591 Li530 1.970 . S
O591 Li531 1.956 . S
O591 C566 1.325 . S
H592 C534 0.929 . S
H593 C535 0.930 . S
H594 C536 0.930 . S
H595 C537 0.930 . S
H596 C539 0.930 . S
H597 C541 0.929 . S
H598 C542 0.930 . S
H599 C543 0.930 . S
H600 C546 0.930 . S
H601 C549 0.929 . S
H602 C554 0.929 . S
H603 C555 0.930 . S
H604 C562 0.929 . S
H605 C563 0.930 . S
H606 C564 0.930 . S
H607 C565 0.930 . S
H608 C567 0.929 . S
H609 C568 0.930 . S
H610 C569 0.930 . S
H611 C570 0.930 . S
H612 C574 0.929 . S
H613 C576 0.930 . S
H614 C582 0.929 . S
H615 C583 0.930 . S
Li616 N633 1.990 . S
Li616 O676 1.956 . S
Li616 O677 1.970 . S
Li616 O678 1.961 . S
Li617 N641 1.990 . S
Li617 O676 1.970 . S
Li617 O677 1.956 . S
Li617 O679 1.961 . S
Li618 N663 1.990 1_565 S
Li618 O676 1.961 . S
Li618 O678 1.956 . S
Li618 O679 1.970 . S
Li619 N669 1.990 . S
Li619 O677 1.961 . S
Li619 O678 1.970 . S
Li619 O679 1.956 . S
C620 C622 1.348 . S
C620 C623 1.356 . S
C620 O676 1.325 . S
N621 C624 1.314 . S
N621 C625 1.279 . S
C622 C620 1.348 . S
C622 C624 1.353 . S
C622 H680 0.929 . S
C623 C620 1.356 . S
C623 C625 1.358 . S
C623 H681 0.930 . S
C624 N621 1.314 . S
C624 C622 1.353 . S
C624 H682 0.930 . S
C625 N621 1.279 . S
C625 C623 1.358 . S
C625 H683 0.930 . S
C626 C629 1.348 . S
C626 C630 1.356 . S
C626 O677 1.325 . S
C627 N628 1.279 . S
C627 C630 1.358 . S
C627 H684 0.930 . S
N628 C627 1.279 . S
N628 C631 1.314 . S
C629 C626 1.348 . S
C629 C631 1.353 . S
C629 H685 0.929 . S
C630 C626 1.356 . S
C630 C627 1.358 . S
C630 H686 0.930 . S
C631 N628 1.314 . S
C631 C629 1.353 . S
C631 H687 0.930 . S
C632 N633 1.314 . S
C632 C637 1.353 . S
C632 H638 0.930 . S
N633 Li616 1.990 . S
N633 C632 1.314 . S
N633 C635 1.279 . S
C634 C635 1.358 . S
C634 C636 1.356 . S
C634 H688 0.930 . S
C635 N633 1.279 . S
C635 C634 1.358 . S
C635 H639 0.930 . S
C636 C634 1.356 . S
C636 C637 1.348 . S
C637 C632 1.353 . S
C637 C636 1.348 . S
C637 H689 0.929 . S
H638 C632 0.930 . S
H639 C635 0.930 . S
C640 N641 1.314 . S
C640 C642 1.353 . S
C640 H646 0.930 . S
N641 Li617 1.990 . S
N641 C640 1.314 . S
N641 C644 1.279 . S
C642 C640 1.353 . S
C642 C645 1.348 . S
C642 H690 0.929 . S
C643 C644 1.358 . S
C643 C645 1.356 . S
C643 H691 0.930 . S
C644 N641 1.279 . S
C644 C643 1.358 . S
C644 H647 0.930 . S
C645 C642 1.348 . S
C645 C643 1.356 . S
H646 C640 0.930 . S
H647 C644 0.930 . S
C648 C650 1.348 . S
C648 C651 1.357 . S
C648 O678 1.324 1_545 S
N649 C652 1.314 . S
N649 C653 1.279 . S
C650 C648 1.348 . S
C650 C652 1.353 . S
C650 H692 0.929 . S
C651 C648 1.357 . S
C651 C653 1.358 . S
C651 H693 0.930 . S
C652 N649 1.314 . S
C652 C650 1.353 . S
C652 H694 0.930 . S
C653 N649 1.279 . S
C653 C651 1.358 . S
C653 H695 0.930 . S
C654 C655 1.348 1_565 S
C654 C656 1.356 . S
C654 O679 1.325 . S
C655 C654 1.348 1_545 S
C655 C657 1.353 . S
C655 H696 0.929 . S
C656 C654 1.356 . S
C656 C658 1.358 . S
C656 H697 0.930 . S
C657 C655 1.353 . S
C657 N659 1.314 1_545 S
C657 H698 0.930 . S
C658 C656 1.358 . S
C658 N659 1.279 . S
C658 H699 0.930 . S
N659 C657 1.314 1_565 S
N659 C658 1.279 . S
C660 C662 1.353 . S
C660 N663 1.314 . S
C660 H666 0.930 . S
C661 N663 1.279 . S
C661 C664 1.358 . S
C661 H667 0.930 . S
C662 C660 1.353 . S
C662 C665 1.348 . S
C662 H700 0.929 . S
N663 Li618 1.990 1_545 S
N663 C660 1.314 . S
N663 C661 1.279 . S
C664 C661 1.358 . S
C664 C665 1.356 . S
C664 H701 0.930 . S
C665 C662 1.348 . S
C665 C664 1.356 . S
H666 C660 0.930 . S
H667 C661 0.930 . S
C668 N669 1.314 . S
C668 C670 1.353 . S
C668 H674 0.930 . S
N669 Li619 1.990 . S
N669 C668 1.314 . S
N669 C672 1.279 . S
C670 C668 1.353 . S
C670 C673 1.348 . S
C670 H702 0.929 . S
C671 C672 1.358 . S
C671 C673 1.356 . S
C671 H703 0.930 . S
C672 N669 1.279 . S
C672 C671 1.358 . S
C672 H675 0.930 . S
C673 C670 1.348 . S
C673 C671 1.356 . S
H674 C668 0.930 . S
H675 C672 0.930 . S
O676 Li616 1.956 . S
O676 Li617 1.970 . S
O676 Li618 1.961 . S
O676 C620 1.325 . S
O677 Li616 1.970 . S
O677 Li617 1.956 . S
O677 Li619 1.961 . S
O677 C626 1.325 . S
O678 Li616 1.961 . S
O678 Li618 1.956 . S
O678 Li619 1.970 . S
O678 C648 1.324 1_565 S
O679 Li617 1.961 . S
O679 Li618 1.970 . S
O679 Li619 1.956 . S
O679 C654 1.325 . S
H680 C622 0.929 . S
H681 C623 0.930 . S
H682 C624 0.930 . S
H683 C625 0.930 . S
H684 C627 0.930 . S
H685 C629 0.929 . S
H686 C630 0.930 . S
H687 C631 0.930 . S
H688 C634 0.930 . S
H689 C637 0.929 . S
H690 C642 0.929 . S
H691 C643 0.930 . S
H692 C650 0.929 . S
H693 C651 0.930 . S
H694 C652 0.930 . S
H695 C653 0.930 . S
H696 C655 0.929 . S
H697 C656 0.930 . S
H698 C657 0.930 . S
H699 C658 0.930 . S
H700 C662 0.929 . S
H701 C664 0.930 . S
H702 C670 0.929 . S
H703 C671 0.930 . S
Li704 N721 1.990 . S
Li704 O764 1.956 . S
Li704 O765 1.970 . S
Li704 O766 1.961 . S
Li705 N729 1.990 . S
Li705 O764 1.970 . S
Li705 O765 1.956 . S
Li705 O767 1.961 . S
Li706 N751 1.990 1_455 S
Li706 O764 1.961 . S
Li706 O766 1.956 . S
Li706 O767 1.970 . S
Li707 N757 1.990 . S
Li707 O765 1.961 . S
Li707 O766 1.970 . S
Li707 O767 1.956 . S
C708 C710 1.348 . S
C708 C711 1.356 . S
C708 O764 1.325 . S
N709 C712 1.314 . S
N709 C713 1.279 . S
C710 C708 1.348 . S
C710 C712 1.353 . S
C710 H768 0.929 . S
C711 C708 1.356 . S
C711 C713 1.358 . S
C711 H769 0.930 . S
C712 N709 1.314 . S
C712 C710 1.353 . S
C712 H770 0.930 . S
C713 N709 1.279 . S
C713 C711 1.358 . S
C713 H771 0.930 . S
C714 C717 1.348 . S
C714 C718 1.356 . S
C714 O765 1.325 . S
C715 N716 1.279 . S
C715 C718 1.358 . S
C715 H772 0.930 . S
N716 C715 1.279 . S
N716 C719 1.314 . S
C717 C714 1.348 . S
C717 C719 1.353 . S
C717 H773 0.929 . S
C718 C714 1.356 . S
C718 C715 1.358 . S
C718 H774 0.930 . S
C719 N716 1.314 . S
C719 C717 1.353 . S
C719 H775 0.930 . S
C720 N721 1.314 . S
C720 C725 1.353 . S
C720 H726 0.930 . S
N721 Li704 1.990 . S
N721 C720 1.314 . S
N721 C723 1.279 . S
C722 C723 1.358 . S
C722 C724 1.356 . S
C722 H776 0.930 . S
C723 N721 1.279 . S
C723 C722 1.358 . S
C723 H727 0.930 . S
C724 C722 1.356 . S
C724 C725 1.348 . S
C725 C720 1.353 . S
C725 C724 1.348 . S
C725 H777 0.929 . S
H726 C720 0.930 . S
H727 C723 0.930 . S
C728 N729 1.314 . S
C728 C730 1.353 . S
C728 H734 0.930 . S
N729 Li705 1.990 . S
N729 C728 1.314 . S
N729 C732 1.279 . S
C730 C728 1.353 . S
C730 C733 1.348 . S
C730 H778 0.929 . S
C731 C732 1.358 . S
C731 C733 1.356 . S
C731 H779 0.930 . S
C732 N729 1.279 . S
C732 C731 1.358 . S
C732 H735 0.930 . S
C733 C730 1.348 . S
C733 C731 1.356 . S
H734 C728 0.930 . S
H735 C732 0.930 . S
C736 C738 1.348 1_455 S
C736 C739 1.356 1_455 S
C736 O766 1.325 . S
N737 C740 1.314 . S
N737 C741 1.279 . S
C738 C736 1.348 1_655 S
C738 C740 1.353 . S
C738 H780 0.929 . S
C739 C736 1.356 1_655 S
C739 C741 1.358 . S
C739 H781 0.885 1_655 S
C740 N737 1.314 . S
C740 C738 1.353 . S
C740 H782 0.930 . S
C741 N737 1.279 . S
C741 C739 1.358 . S
C741 H783 0.930 . S
C742 C743 1.263 1_455 S
C742 C744 1.356 . S
C742 O767 1.325 . S
C743 C742 1.263 1_655 S
C743 C745 1.408 . S
C743 H784 0.967 . S
C744 C742 1.356 . S
C744 C746 1.358 . S
C744 H785 0.930 . S
C745 C743 1.408 . S
C745 N747 1.314 1_655 S
C745 H786 0.930 . S
C746 C744 1.358 . S
C746 N747 1.279 . S
C746 H787 0.930 . S
N747 C745 1.314 1_455 S
N747 C746 1.279 . S
C748 C750 1.353 . S
C748 N751 1.314 . S
C748 H754 0.930 . S
C749 N751 1.279 . S
C749 C752 1.358 . S
C749 H755 0.930 . S
C750 C748 1.353 . S
C750 C753 1.348 . S
C750 H788 0.929 . S
N751 Li706 1.990 1_655 S
N751 C748 1.314 . S
N751 C749 1.279 . S
C752 C749 1.358 . S
C752 C753 1.356 . S
C752 H789 0.930 . S
C753 C750 1.348 . S
C753 C752 1.356 . S
H754 C748 0.930 . S
H755 C749 0.930 . S
C756 N757 1.314 . S
C756 C758 1.353 . S
C756 H762 0.930 . S
N757 Li707 1.990 . S
N757 C756 1.314 . S
N757 C760 1.279 . S
C758 C756 1.353 . S
C758 C761 1.348 . S
C758 H790 0.929 . S
C759 C760 1.358 . S
C759 C761 1.356 . S
C759 H791 0.930 . S
C760 N757 1.279 . S
C760 C759 1.358 . S
C760 H763 0.930 . S
C761 C758 1.348 . S
C761 C759 1.356 . S
H762 C756 0.930 . S
H763 C760 0.930 . S
O764 Li704 1.956 . S
O764 Li705 1.970 . S
O764 Li706 1.961 . S
O764 C708 1.325 . S
O765 Li704 1.970 . S
O765 Li705 1.956 . S
O765 Li707 1.961 . S
O765 C714 1.325 . S
O766 Li704 1.961 . S
O766 Li706 1.956 . S
O766 Li707 1.970 . S
O766 C736 1.325 . S
O767 Li705 1.961 . S
O767 Li706 1.970 . S
O767 Li707 1.956 . S
O767 C742 1.325 . S
H768 C710 0.929 . S
H769 C711 0.930 . S
H770 C712 0.930 . S
H771 C713 0.930 . S
H772 C715 0.930 . S
H773 C717 0.929 . S
H774 C718 0.930 . S
H775 C719 0.930 . S
H776 C722 0.930 . S
H777 C725 0.929 . S
H778 C730 0.929 . S
H779 C731 0.930 . S
H780 C738 0.929 . S
H781 C739 0.885 1_455 S
H782 C740 0.930 . S
H783 C741 0.930 . S
H784 C743 0.967 . S
H785 C744 0.930 . S
H786 C745 0.930 . S
H787 C746 0.930 . S
H788 C750 0.929 . S
H789 C752 0.930 . S
H790 C758 0.929 . S
H791 C759 0.930 . S
Li792 N809 1.990 1_565 S
Li792 O852 1.956 . S
Li792 O853 1.970 . S
Li792 O854 1.961 . S
Li793 N817 1.990 . S
Li793 O852 1.970 . S
Li793 O853 1.956 . S
Li793 O855 1.961 . S
Li794 N839 1.990 . S
Li794 O852 1.961 . S
Li794 O854 1.956 . S
Li794 O855 1.970 . S
Li795 N845 1.990 . S
Li795 O853 1.961 . S
Li795 O854 1.970 . S
Li795 O855 1.956 . S
C796 C798 1.348 . S
C796 C799 1.356 . S
C796 O852 1.325 . S
N797 C800 1.314 . S
N797 C801 1.279 . S
C798 C796 1.348 . S
C798 C800 1.353 . S
C798 H856 0.929 . S
C799 C796 1.356 . S
C799 C801 1.358 . S
C799 H857 0.930 . S
C800 N797 1.314 . S
C800 C798 1.353 . S
C800 H858 0.930 . S
C801 N797 1.279 . S
C801 C799 1.358 . S
C801 H859 0.930 . S
C802 C805 1.348 . S
C802 C806 1.356 . S
C802 O853 1.325 . S
C803 N804 1.279 . S
C803 C806 1.358 . S
C803 H860 0.930 . S
N804 C803 1.279 . S
N804 C807 1.314 1_565 S
C805 C802 1.348 . S
C805 C807 1.353 1_565 S
C805 H861 0.929 1_565 S
C806 C802 1.356 . S
C806 C803 1.358 . S
C806 H862 0.930 . S
C807 N804 1.314 1_545 S
C807 C805 1.353 1_545 S
C807 H863 0.930 . S
C808 N809 1.314 . S
C808 C813 1.353 . S
C808 H814 0.930 . S
N809 Li792 1.990 1_545 S
N809 C808 1.314 . S
N809 C811 1.279 . S
C810 C811 1.358 . S
C810 C812 1.356 . S
C810 H864 0.930 . S
C811 N809 1.279 . S
C811 C810 1.358 . S
C811 H815 0.930 . S
C812 C810 1.356 . S
C812 C813 1.348 . S
C813 C808 1.353 . S
C813 C812 1.348 . S
C813 H865 0.929 . S
H814 C808 0.930 . S
H815 C811 0.930 . S
C816 N817 1.314 . S
C816 C818 1.353 . S
C816 H822 0.930 . S
N817 Li793 1.990 . S
N817 C816 1.314 . S
N817 C820 1.279 . S
C818 C816 1.353 . S
C818 C821 1.348 . S
C818 H866 0.929 . S
C819 C820 1.358 . S
C819 C821 1.356 . S
C819 H867 0.930 . S
C820 N817 1.279 . S
C820 C819 1.358 . S
C820 H823 0.930 . S
C821 C818 1.348 . S
C821 C819 1.356 . S
H822 C816 0.930 . S
H823 C820 0.930 . S
C824 C826 1.389 . S
C824 C827 1.356 1_565 S
C824 O854 1.325 . S
N825 C828 1.314 . S
N825 C829 1.279 . S
C826 C824 1.389 . S
C826 C828 1.302 1_565 S
C826 H868 0.949 . S
C827 C824 1.356 1_545 S
C827 C829 1.358 . S
C827 H869 0.930 . S
C828 N825 1.314 . S
C828 C826 1.302 1_545 S
C828 H870 0.930 . S
C829 N825 1.279 . S
C829 C827 1.358 . S
C829 H871 0.930 . S
C830 C831 1.348 . S
C830 C832 1.356 . S
C830 O855 1.325 . S
C831 C830 1.348 . S
C831 C833 1.353 . S
C831 H872 0.929 . S
C832 C830 1.356 . S
C832 C834 1.358 . S
C832 H873 0.930 . S
C833 C831 1.353 . S
C833 N835 1.314 . S
C833 H874 0.930 . S
C834 C832 1.358 . S
C834 N835 1.279 . S
C834 H875 0.930 . S
N835 C833 1.314 . S
N835 C834 1.279 . S
C836 C838 1.353 . S
C836 N839 1.314 . S
C836 H842 0.930 . S
C837 N839 1.279 . S
C837 C840 1.358 . S
C837 H843 0.930 . S
C838 C836 1.353 . S
C838 C841 1.348 . S
C838 H876 0.929 . S
N839 Li794 1.990 . S
N839 C836 1.314 . S
N839 C837 1.279 . S
C840 C837 1.358 . S
C840 C841 1.356 . S
C840 H877 0.930 . S
C841 C838 1.348 . S
C841 C840 1.356 . S
H842 C836 0.930 . S
H843 C837 0.930 . S
C844 N845 1.314 . S
C844 C846 1.353 . S
C844 H850 0.930 . S
N845 Li795 1.990 . S
N845 C844 1.314 . S
N845 C848 1.279 . S
C846 C844 1.353 . S
C846 C849 1.348 . S
C846 H878 0.943 . S
C847 C848 1.358 . S
C847 C849 1.356 . S
C847 H879 0.930 . S
C848 N845 1.279 . S
C848 C847 1.358 . S
C848 H851 0.930 . S
C849 C846 1.348 . S
C849 C847 1.356 . S
H850 C844 0.930 . S
H851 C848 0.930 . S
O852 Li792 1.956 . S
O852 Li793 1.970 . S
O852 Li794 1.961 . S
O852 C796 1.325 . S
O853 Li792 1.970 . S
O853 Li793 1.956 . S
O853 Li795 1.961 . S
O853 C802 1.325 . S
O854 Li792 1.961 . S
O854 Li794 1.956 . S
O854 Li795 1.970 . S
O854 C824 1.325 . S
O855 Li793 1.961 . S
O855 Li794 1.970 . S
O855 Li795 1.956 . S
O855 C830 1.325 . S
H856 C798 0.929 . S
H857 C799 0.930 . S
H858 C800 0.930 . S
H859 C801 0.930 . S
H860 C803 0.930 . S
H861 C805 0.929 1_545 S
H862 C806 0.930 . S
H863 C807 0.930 . S
H864 C810 0.930 . S
H865 C813 0.929 . S
H866 C818 0.929 . S
H867 C819 0.930 . S
H868 C826 0.949 . S
H869 C827 0.930 . S
H870 C828 0.930 . S
H871 C829 0.930 . S
H872 C831 0.929 . S
H873 C832 0.930 . S
H874 C833 0.930 . S
H875 C834 0.930 . S
H876 C838 0.929 . S
H877 C840 0.930 . S
H878 C846 0.943 . S
H879 C847 0.930 . S
Li880 N897 1.990 . S
Li880 O940 1.956 . S
Li880 O941 1.970 . S
Li880 O942 1.961 . S
Li881 N905 1.990 1_455 S
Li881 O940 1.970 . S
Li881 O941 1.956 . S
Li881 O943 1.961 . S
Li882 N927 1.990 . S
Li882 O940 1.961 . S
Li882 O942 1.956 . S
Li882 O943 1.970 . S
Li883 N933 1.990 . S
Li883 O941 1.961 . S
Li883 O942 1.970 . S
Li883 O943 1.956 . S
C884 C886 1.348 . S
C884 C887 1.356 . S
C884 O940 1.325 . S
N885 C888 1.314 1_455 S
N885 C889 1.279 . S
C886 C884 1.348 . S
C886 C888 1.353 1_455 S
C886 H944 0.929 1_455 S
C887 C884 1.356 . S
C887 C889 1.358 . S
C887 H945 0.930 . S
C888 N885 1.314 1_655 S
C888 C886 1.353 1_655 S
C888 H946 0.930 . S
C889 N885 1.279 . S
C889 C887 1.358 . S
C889 H947 0.930 . S
C890 C893 1.348 . S
C890 C894 1.356 . S
C890 O941 1.325 . S
C891 N892 1.279 . S
C891 C894 1.358 . S
C891 H948 0.930 . S
N892 C891 1.279 . S
N892 C895 1.314 . S
C893 C890 1.348 . S
C893 C895 1.353 . S
C893 H949 0.929 . S
C894 C890 1.356 . S
C894 C891 1.358 . S
C894 H950 0.930 . S
C895 N892 1.314 . S
C895 C893 1.353 . S
C895 H951 0.930 . S
C896 N897 1.314 . S
C896 C901 1.353 . S
C896 H902 0.930 . S
N897 Li880 1.990 . S
N897 C896 1.314 . S
N897 C899 1.279 . S
C898 C899 1.358 . S
C898 C900 1.356 . S
C898 H952 0.930 . S
C899 N897 1.279 . S
C899 C898 1.358 . S
C899 H903 0.930 . S
C900 C898 1.356 . S
C900 C901 1.348 . S
C901 C896 1.353 . S
C901 C900 1.348 . S
C901 H953 0.929 . S
H902 C896 0.930 . S
H903 C899 0.930 . S
C904 N905 1.314 . S
C904 C906 1.353 . S
C904 H910 0.930 . S
N905 Li881 1.990 1_655 S
N905 C904 1.314 . S
N905 C908 1.279 . S
C906 C904 1.353 . S
C906 C909 1.348 . S
C906 H954 0.929 . S
C907 C908 1.358 . S
C907 C909 1.356 . S
C907 H955 0.930 . S
C908 N905 1.279 . S
C908 C907 1.358 . S
C908 H911 0.930 . S
C909 C906 1.348 . S
C909 C907 1.356 . S
H910 C904 0.930 . S
H911 C908 0.930 . S
C912 C914 1.348 . S
C912 C915 1.356 . S
C912 O942 1.325 . S
N913 C916 1.314 . S
N913 C917 1.279 . S
C914 C912 1.348 . S
C914 C916 1.353 . S
C914 H956 0.929 . S
C915 C912 1.356 . S
C915 C917 1.358 . S
C915 H957 0.930 . S
C916 N913 1.314 . S
C916 C914 1.353 . S
C916 H958 0.930 . S
C917 N913 1.279 . S
C917 C915 1.358 . S
C917 H959 0.930 . S
C918 C919 1.362 . S
C918 C920 1.285 1_455 S
C918 O943 1.370 . S
C919 C918 1.362 . S
C919 C921 1.331 1_455 S
C919 H960 0.965 . S
C920 C918 1.285 1_655 S
C920 C922 1.358 . S
C920 H961 0.930 . S
C921 C919 1.331 1_655 S
C921 N923 1.314 . S
C921 H962 0.930 . S
C922 C920 1.358 . S
C922 N923 1.279 . S
C922 H963 0.930 . S
N923 C921 1.314 . S
N923 C922 1.279 . S
C924 C926 1.353 . S
C924 N927 1.314 . S
C924 H930 0.930 . S
C925 N927 1.279 . S
C925 C928 1.358 . S
C925 H931 0.930 . S
C926 C924 1.353 . S
C926 C929 1.348 . S
C926 H964 0.924 1_455 S
N927 Li882 1.990 . S
N927 C924 1.314 . S
N927 C925 1.279 . S
C928 C925 1.358 . S
C928 C929 1.356 . S
C928 H965 0.930 . S
C929 C926 1.348 . S
C929 C928 1.356 . S
H930 C924 0.930 . S
H931 C925 0.930 . S
C932 N933 1.314 . S
C932 C934 1.353 . S
C932 H938 0.930 . S
N933 Li883 1.990 . S
N933 C932 1.314 . S
N933 C936 1.279 . S
C934 C932 1.353 . S
C934 C937 1.348 . S
C934 H966 0.929 . S
C935 C936 1.358 . S
C935 C937 1.356 . S
C935 H967 0.930 . S
C936 N933 1.279 . S
C936 C935 1.358 . S
C936 H939 0.930 . S
C937 C934 1.348 . S
C937 C935 1.356 . S
H938 C932 0.930 . S
H939 C936 0.930 . S
O940 Li880 1.956 . S
O940 Li881 1.970 . S
O940 Li882 1.961 . S
O940 C884 1.325 . S
O941 Li880 1.970 . S
O941 Li881 1.956 . S
O941 Li883 1.961 . S
O941 C890 1.325 . S
O942 Li880 1.961 . S
O942 Li882 1.956 . S
O942 Li883 1.970 . S
O942 C912 1.325 . S
O943 Li881 1.961 . S
O943 Li882 1.970 . S
O943 Li883 1.956 . S
O943 C918 1.370 . S
H944 C886 0.929 1_655 S
H945 C887 0.930 . S
H946 C888 0.930 . S
H947 C889 0.930 . S
H948 C891 0.930 . S
H949 C893 0.929 . S
H950 C894 0.930 . S
H951 C895 0.930 . S
H952 C898 0.930 . S
H953 C901 0.929 . S
H954 C906 0.929 . S
H955 C907 0.930 . S
H956 C914 0.929 . S
H957 C915 0.930 . S
H958 C916 0.930 . S
H959 C917 0.930 . S
H960 C919 0.965 . S
H961 C920 0.930 . S
H962 C921 0.930 . S
H963 C922 0.930 . S
H964 C926 0.924 1_655 S
H965 C928 0.930 . S
H966 C934 0.929 . S
H967 C935 0.930 . S
Li968 N985 1.990 . S
Li968 O1028 1.956 . S
Li968 O1029 1.970 . S
Li968 O1030 1.961 . S
Li969 N993 1.990 . S
Li969 O1028 1.970 . S
Li969 O1029 1.956 . S
Li969 O1031 1.961 . S
Li970 N1015 1.990 . S
Li970 O1028 1.961 . S
Li970 O1030 1.956 . S
Li970 O1031 1.970 . S
Li971 N1021 1.990 . S
Li971 O1029 1.961 . S
Li971 O1030 1.970 . S
Li971 O1031 1.956 . S
C972 C974 1.348 . S
C972 C975 1.356 . S
C972 O1028 1.325 . S
N973 C976 1.314 . S
N973 C977 1.279 . S
C974 C972 1.348 . S
C974 C976 1.353 . S
C974 H1032 0.929 . S
C975 C972 1.356 . S
C975 C977 1.358 . S
C975 H1033 0.930 . S
C976 N973 1.314 . S
C976 C974 1.353 . S
C976 H1034 0.930 . S
C977 N973 1.279 . S
C977 C975 1.358 . S
C977 H1035 0.930 . S
C978 C981 1.348 . S
C978 C982 1.356 . S
C978 O1029 1.325 . S
C979 N980 1.279 . S
C979 C982 1.358 . S
C979 H1036 0.930 . S
N980 C979 1.279 . S
N980 C983 1.314 . S
C981 C978 1.348 . S
C981 C983 1.353 . S
C981 H1037 0.929 . S
C982 C978 1.356 . S
C982 C979 1.358 . S
C982 H1038 0.930 . S
C983 N980 1.314 . S
C983 C981 1.353 . S
C983 H1039 0.930 . S
C984 N985 1.314 . S
C984 C989 1.353 . S
C984 H990 0.930 . S
N985 Li968 1.990 . S
N985 C984 1.314 . S
N985 C987 1.279 . S
C986 C987 1.358 . S
C986 C988 1.356 . S
C986 H1040 0.930 . S
C987 N985 1.279 . S
C987 C986 1.358 . S
C987 H991 0.930 . S
C988 C986 1.356 . S
C988 C989 1.348 . S
C989 C984 1.353 . S
C989 C988 1.348 . S
C989 H1041 0.929 . S
H990 C984 0.930 . S
H991 C987 0.930 . S
C992 N993 1.314 . S
C992 C994 1.353 . S
C992 H998 0.930 . S
N993 Li969 1.990 . S
N993 C992 1.314 . S
N993 C996 1.279 . S
C994 C992 1.353 . S
C994 C997 1.348 . S
C994 H1042 0.929 . S
C995 C996 1.358 . S
C995 C997 1.356 . S
C995 H1043 0.930 . S
C996 N993 1.279 . S
C996 C995 1.358 . S
C996 H999 0.930 . S
C997 C994 1.348 . S
C997 C995 1.356 . S
H998 C992 0.930 . S
H999 C996 0.930 . S
C1000 C1002 1.348 . S
C1000 C1003 1.356 . S
C1000 O1030 1.325 . S
N1001 C1004 1.314 . S
N1001 C1005 1.279 . S
C1002 C1000 1.348 . S
C1002 C1004 1.353 . S
C1002 H1044 0.929 . S
C1003 C1000 1.356 . S
C1003 C1005 1.358 . S
C1003 H1045 0.930 . S
C1004 N1001 1.314 . S
C1004 C1002 1.353 . S
C1004 H1046 0.930 . S
C1005 N1001 1.279 . S
C1005 C1003 1.358 . S
C1005 H1047 0.930 . S
C1006 C1007 1.348 . S
C1006 C1008 1.356 . S
C1006 O1031 1.325 . S
C1007 C1006 1.348 . S
C1007 C1009 1.353 . S
C1007 H1048 0.929 . S
C1008 C1006 1.356 . S
C1008 C1010 1.358 . S
C1008 H1049 0.930 . S
C1009 C1007 1.353 . S
C1009 N1011 1.314 . S
C1009 H1050 0.930 . S
C1010 C1008 1.358 . S
C1010 N1011 1.279 . S
C1010 H1051 0.930 . S
N1011 C1009 1.314 . S
N1011 C1010 1.279 . S
C1012 C1014 1.353 . S
C1012 N1015 1.314 . S
C1012 H1018 0.930 . S
C1013 N1015 1.279 . S
C1013 C1016 1.358 . S
C1013 H1019 0.930 . S
C1014 C1012 1.353 . S
C1014 C1017 1.348 . S
C1014 H1052 0.929 . S
N1015 Li970 1.990 . S
N1015 C1012 1.314 . S
N1015 C1013 1.279 . S
C1016 C1013 1.358 . S
C1016 C1017 1.356 . S
C1016 H1053 0.930 . S
C1017 C1014 1.348 . S
C1017 C1016 1.356 . S
H1018 C1012 0.930 . S
H1019 C1013 0.930 . S
C1020 N1021 1.314 . S
C1020 C1022 1.353 . S
C1020 H1026 0.930 . S
N1021 Li971 1.990 . S
N1021 C1020 1.314 . S
N1021 C1024 1.279 . S
C1022 C1020 1.353 . S
C1022 C1025 1.348 . S
C1022 H1054 0.929 . S
C1023 C1024 1.358 . S
C1023 C1025 1.356 . S
C1023 H1055 0.930 . S
C1024 N1021 1.279 . S
C1024 C1023 1.358 . S
C1024 H1027 0.930 . S
C1025 C1022 1.348 . S
C1025 C1023 1.356 . S
H1026 C1020 0.930 . S
H1027 C1024 0.930 . S
O1028 Li968 1.956 . S
O1028 Li969 1.970 . S
O1028 Li970 1.961 . S
O1028 C972 1.325 . S
O1029 Li968 1.970 . S
O1029 Li969 1.956 . S
O1029 Li971 1.961 . S
O1029 C978 1.325 . S
O1030 Li968 1.961 . S
O1030 Li970 1.956 . S
O1030 Li971 1.970 . S
O1030 C1000 1.325 . S
O1031 Li969 1.961 . S
O1031 Li970 1.970 . S
O1031 Li971 1.956 . S
O1031 C1006 1.325 . S
H1032 C974 0.929 . S
H1033 C975 0.930 . S
H1034 C976 0.930 . S
H1035 C977 0.930 . S
H1036 C979 0.930 . S
H1037 C981 0.929 . S
H1038 C982 0.930 . S
H1039 C983 0.930 . S
H1040 C986 0.930 . S
H1041 C989 0.929 . S
H1042 C994 0.929 . S
H1043 C995 0.930 . S
H1044 C1002 0.929 . S
H1045 C1003 0.930 . S
H1046 C1004 0.930 . S
H1047 C1005 0.930 . S
H1048 C1007 0.929 . S
H1049 C1008 0.930 . S
H1050 C1009 0.930 . S
H1051 C1010 0.930 . S
H1052 C1014 0.929 . S
H1053 C1016 0.930 . S
H1054 C1022 0.929 . S
H1055 C1023 0.930 . S
Li1056 N1073 1.990 1_545 S
Li1056 O1116 1.956 . S
Li1056 O1117 1.970 . S
Li1056 O1118 1.961 . S
Li1057 N1081 1.990 . S
Li1057 O1116 1.970 . S
Li1057 O1117 1.956 . S
Li1057 O1119 1.961 . S
Li1058 N1103 1.990 . S
Li1058 O1116 1.961 . S
Li1058 O1118 1.956 . S
Li1058 O1119 1.970 . S
Li1059 N1109 1.990 . S
Li1059 O1117 1.961 . S
Li1059 O1118 1.970 . S
Li1059 O1119 1.956 . S
C1060 C1062 1.348 1_545 S
C1060 C1063 1.356 1_545 S
C1060 O1116 1.325 . S
N1061 C1064 1.314 . S
N1061 C1065 1.279 . S
C1062 C1060 1.348 1_565 S
C1062 C1064 1.353 . S
C1062 H1120 0.929 . S
C1063 C1060 1.356 1_565 S
C1063 C1065 1.358 . S
C1063 H1121 0.894 1_565 S
C1064 N1061 1.314 . S
C1064 C1062 1.353 . S
C1064 H1122 0.930 . S
C1065 N1061 1.279 . S
C1065 C1063 1.358 . S
C1065 H1123 0.930 . S
C1066 C1069 1.252 1_545 S
C1066 C1070 1.356 . S
C1066 O1117 1.325 . S
C1067 N1068 1.279 . S
C1067 C1070 1.358 . S
C1067 H1124 0.930 . S
N1068 C1067 1.279 . S
N1068 C1071 1.314 1_545 S
C1069 C1066 1.252 1_565 S
C1069 C1071 1.415 . S
C1069 H1125 0.972 . S
C1070 C1066 1.356 . S
C1070 C1067 1.358 . S
C1070 H1126 0.930 . S
C1071 N1068 1.314 1_565 S
C1071 C1069 1.415 . S
C1071 H1127 0.930 . S
C1072 N1073 1.314 . S
C1072 C1077 1.353 . S
C1072 H1078 0.930 . S
N1073 Li1056 1.990 1_565 S
N1073 C1072 1.314 . S
N1073 C1075 1.279 . S
C1074 C1075 1.358 . S
C1074 C1076 1.356 . S
C1074 H1128 0.930 . S
C1075 N1073 1.279 . S
C1075 C1074 1.358 . S
C1075 H1079 0.930 . S
C1076 C1074 1.356 . S
C1076 C1077 1.348 . S
C1077 C1072 1.353 . S
C1077 C1076 1.348 . S
C1077 H1129 0.929 . S
H1078 C1072 0.930 . S
H1079 C1075 0.930 . S
C1080 N1081 1.314 . S
C1080 C1082 1.353 . S
C1080 H1086 0.930 . S
N1081 Li1057 1.990 . S
N1081 C1080 1.314 . S
N1081 C1084 1.279 . S
C1082 C1080 1.353 . S
C1082 C1085 1.348 . S
C1082 H1130 0.929 . S
C1083 C1084 1.358 . S
C1083 C1085 1.356 . S
C1083 H1131 0.930 . S
C1084 N1081 1.279 . S
C1084 C1083 1.358 . S
C1084 H1087 0.930 . S
C1085 C1082 1.348 . S
C1085 C1083 1.356 . S
H1086 C1080 0.930 . S
H1087 C1084 0.930 . S
C1088 C1090 1.348 . S
C1088 C1091 1.356 . S
C1088 O1118 1.325 . S
N1089 C1092 1.314 . S
N1089 C1093 1.279 . S
C1090 C1088 1.348 . S
C1090 C1092 1.353 . S
C1090 H1132 0.929 . S
C1091 C1088 1.356 . S
C1091 C1093 1.358 . S
C1091 H1133 0.930 . S
C1092 N1089 1.314 . S
C1092 C1090 1.353 . S
C1092 H1134 0.930 . S
C1093 N1089 1.279 . S
C1093 C1091 1.358 . S
C1093 H1135 0.930 . S
C1094 C1095 1.348 . S
C1094 C1096 1.356 . S
C1094 O1119 1.325 . S
C1095 C1094 1.348 . S
C1095 C1097 1.353 . S
C1095 H1136 0.929 . S
C1096 C1094 1.356 . S
C1096 C1098 1.358 . S
C1096 H1137 0.930 . S
C1097 C1095 1.353 . S
C1097 N1099 1.314 . S
C1097 H1138 0.930 . S
C1098 C1096 1.358 . S
C1098 N1099 1.279 . S
C1098 H1139 0.930 . S
N1099 C1097 1.314 . S
N1099 C1098 1.279 . S
C1100 C1102 1.353 . S
C1100 N1103 1.314 . S
C1100 H1106 0.930 . S
C1101 N1103 1.279 . S
C1101 C1104 1.358 . S
C1101 H1107 0.930 . S
C1102 C1100 1.353 . S
C1102 C1105 1.348 . S
C1102 H1140 0.929 . S
N1103 Li1058 1.990 . S
N1103 C1100 1.314 . S
N1103 C1101 1.279 . S
C1104 C1101 1.358 . S
C1104 C1105 1.356 . S
C1104 H1141 0.930 . S
C1105 C1102 1.348 . S
C1105 C1104 1.356 . S
H1106 C1100 0.930 . S
H1107 C1101 0.930 . S
C1108 N1109 1.314 . S
C1108 C1110 1.353 . S
C1108 H1114 0.930 . S
N1109 Li1059 1.990 . S
N1109 C1108 1.314 . S
N1109 C1112 1.279 . S
C1110 C1108 1.353 . S
C1110 C1113 1.348 . S
C1110 H1142 0.929 . S
C1111 C1112 1.358 . S
C1111 C1113 1.356 . S
C1111 H1143 0.930 . S
C1112 N1109 1.279 . S
C1112 C1111 1.358 . S
C1112 H1115 0.930 . S
C1113 C1110 1.348 . S
C1113 C1111 1.356 . S
H1114 C1108 0.930 . S
H1115 C1112 0.930 . S
O1116 Li1056 1.956 . S
O1116 Li1057 1.970 . S
O1116 Li1058 1.961 . S
O1116 C1060 1.325 . S
O1117 Li1056 1.970 . S
O1117 Li1057 1.956 . S
O1117 Li1059 1.961 . S
O1117 C1066 1.325 . S
O1118 Li1056 1.961 . S
O1118 Li1058 1.956 . S
O1118 Li1059 1.970 . S
O1118 C1088 1.325 . S
O1119 Li1057 1.961 . S
O1119 Li1058 1.970 . S
O1119 Li1059 1.956 . S
O1119 C1094 1.325 . S
H1120 C1062 0.929 . S
H1121 C1063 0.894 1_545 S
H1122 C1064 0.930 . S
H1123 C1065 0.930 . S
H1124 C1067 0.930 . S
H1125 C1069 0.972 . S
H1126 C1070 0.930 . S
H1127 C1071 0.930 . S
H1128 C1074 0.930 . S
H1129 C1077 0.929 . S
H1130 C1082 0.929 . S
H1131 C1083 0.930 . S
H1132 C1090 0.929 . S
H1133 C1091 0.930 . S
H1134 C1092 0.930 . S
H1135 C1093 0.930 . S
H1136 C1095 0.929 . S
H1137 C1096 0.930 . S
H1138 C1097 0.930 . S
H1139 C1098 0.930 . S
H1140 C1102 0.929 . S
H1141 C1104 0.930 . S
H1142 C1110 0.929 . S
H1143 C1111 0.930 . S
Li1144 N1161 1.990 1_655 S
Li1144 O1204 1.956 . S
Li1144 O1205 1.970 . S
Li1144 O1206 1.961 . S
Li1145 N1169 1.990 . S
Li1145 O1204 1.970 . S
Li1145 O1205 1.956 . S
Li1145 O1207 1.961 . S
Li1146 N1191 1.990 . S
Li1146 O1204 1.961 . S
Li1146 O1206 1.956 . S
Li1146 O1207 1.970 . S
Li1147 N1197 1.990 . S
Li1147 O1205 1.961 . S
Li1147 O1206 1.970 . S
Li1147 O1207 1.956 . S
C1148 C1150 1.348 . S
C1148 C1151 1.357 . S
C1148 O1204 1.324 1_455 S
N1149 C1152 1.314 . S
N1149 C1153 1.279 . S
C1150 C1148 1.348 . S
C1150 C1152 1.353 . S
C1150 H1208 0.929 . S
C1151 C1148 1.357 . S
C1151 C1153 1.358 . S
C1151 H1209 0.930 . S
C1152 N1149 1.314 . S
C1152 C1150 1.353 . S
C1152 H1210 0.930 . S
C1153 N1149 1.279 . S
C1153 C1151 1.358 . S
C1153 H1211 0.930 . S
C1154 C1157 1.348 1_655 S
C1154 C1158 1.356 . S
C1154 O1205 1.325 . S
C1155 N1156 1.279 . S
C1155 C1158 1.358 . S
C1155 H1212 0.930 . S
N1156 C1155 1.279 . S
N1156 C1159 1.314 1_655 S
C1157 C1154 1.348 1_455 S
C1157 C1159 1.353 . S
C1157 H1213 0.929 . S
C1158 C1154 1.356 . S
C1158 C1155 1.358 . S
C1158 H1214 0.930 . S
C1159 N1156 1.314 1_455 S
C1159 C1157 1.353 . S
C1159 H1215 0.930 . S
C1160 N1161 1.314 . S
C1160 C1165 1.353 . S
C1160 H1166 0.930 . S
N1161 Li1144 1.990 1_455 S
N1161 C1160 1.314 . S
N1161 C1163 1.279 . S
C1162 C1163 1.358 . S
C1162 C1164 1.356 . S
C1162 H1216 0.930 . S
C1163 N1161 1.279 . S
C1163 C1162 1.358 . S
C1163 H1167 0.930 . S
C1164 C1162 1.356 . S
C1164 C1165 1.348 . S
C1165 C1160 1.353 . S
C1165 C1164 1.348 . S
C1165 H1217 0.929 . S
H1166 C1160 0.930 . S
H1167 C1163 0.930 . S
C1168 N1169 1.314 . S
C1168 C1170 1.353 . S
C1168 H1174 0.930 . S
N1169 Li1145 1.990 . S
N1169 C1168 1.314 . S
N1169 C1172 1.279 . S
C1170 C1168 1.353 . S
C1170 C1173 1.348 . S
C1170 H1218 0.929 . S
C1171 C1172 1.358 . S
C1171 C1173 1.356 . S
C1171 H1219 0.930 . S
C1172 N1169 1.279 . S
C1172 C1171 1.358 . S
C1172 H1175 0.930 . S
C1173 C1170 1.348 . S
C1173 C1171 1.356 . S
H1174 C1168 0.930 . S
H1175 C1172 0.930 . S
C1176 C1178 1.348 . S
C1176 C1179 1.356 . S
C1176 O1206 1.325 . S
N1177 C1180 1.314 . S
N1177 C1181 1.279 . S
C1178 C1176 1.348 . S
C1178 C1180 1.353 . S
C1178 H1220 0.929 . S
C1179 C1176 1.356 . S
C1179 C1181 1.358 . S
C1179 H1221 0.930 . S
C1180 N1177 1.314 . S
C1180 C1178 1.353 . S
C1180 H1222 0.930 . S
C1181 N1177 1.279 . S
C1181 C1179 1.358 . S
C1181 H1223 0.930 . S
C1182 C1183 1.348 . S
C1182 C1184 1.356 . S
C1182 O1207 1.325 . S
C1183 C1182 1.348 . S
C1183 C1185 1.353 . S
C1183 H1224 0.929 . S
C1184 C1182 1.356 . S
C1184 C1186 1.358 . S
C1184 H1225 0.930 . S
C1185 C1183 1.353 . S
C1185 N1187 1.314 . S
C1185 H1226 0.930 . S
C1186 C1184 1.358 . S
C1186 N1187 1.279 . S
C1186 H1227 0.930 . S
N1187 C1185 1.314 . S
N1187 C1186 1.279 . S
C1188 C1190 1.353 . S
C1188 N1191 1.314 . S
C1188 H1194 0.930 . S
C1189 N1191 1.279 . S
C1189 C1192 1.358 . S
C1189 H1195 0.930 . S
C1190 C1188 1.353 . S
C1190 C1193 1.348 . S
C1190 H1228 0.929 . S
N1191 Li1146 1.990 . S
N1191 C1188 1.314 . S
N1191 C1189 1.279 . S
C1192 C1189 1.358 . S
C1192 C1193 1.356 . S
C1192 H1229 0.930 . S
C1193 C1190 1.348 . S
C1193 C1192 1.356 . S
H1194 C1188 0.930 . S
H1195 C1189 0.930 . S
C1196 N1197 1.314 . S
C1196 C1198 1.353 . S
C1196 H1202 0.930 . S
N1197 Li1147 1.990 . S
N1197 C1196 1.314 . S
N1197 C1200 1.279 . S
C1198 C1196 1.353 . S
C1198 C1201 1.348 . S
C1198 H1230 0.929 . S
C1199 C1200 1.358 . S
C1199 C1201 1.356 . S
C1199 H1231 0.930 . S
C1200 N1197 1.279 . S
C1200 C1199 1.358 . S
C1200 H1203 0.930 . S
C1201 C1198 1.348 . S
C1201 C1199 1.356 . S
H1202 C1196 0.930 . S
H1203 C1200 0.930 . S
O1204 Li1144 1.956 . S
O1204 Li1145 1.970 . S
O1204 Li1146 1.961 . S
O1204 C1148 1.324 1_655 S
O1205 Li1144 1.970 . S
O1205 Li1145 1.956 . S
O1205 Li1147 1.961 . S
O1205 C1154 1.325 . S
O1206 Li1144 1.961 . S
O1206 Li1146 1.956 . S
O1206 Li1147 1.970 . S
O1206 C1176 1.325 . S
O1207 Li1145 1.961 . S
O1207 Li1146 1.970 . S
O1207 Li1147 1.956 . S
O1207 C1182 1.325 . S
H1208 C1150 0.929 . S
H1209 C1151 0.930 . S
H1210 C1152 0.930 . S
H1211 C1153 0.930 . S
H1212 C1155 0.930 . S
H1213 C1157 0.929 . S
H1214 C1158 0.930 . S
H1215 C1159 0.930 . S
H1216 C1162 0.930 . S
H1217 C1165 0.929 . S
H1218 C1170 0.929 . S
H1219 C1171 0.930 . S
H1220 C1178 0.929 . S
H1221 C1179 0.930 . S
H1222 C1180 0.930 . S
H1223 C1181 0.930 . S
H1224 C1183 0.929 . S
H1225 C1184 0.930 . S
H1226 C1185 0.930 . S
H1227 C1186 0.930 . S
H1228 C1190 0.929 . S
H1229 C1192 0.930 . S
H1230 C1198 0.929 . S
H1231 C1199 0.930 . S
Li1232 N1249 1.990 . S
Li1232 O1292 1.956 . S
Li1232 O1293 1.970 . S
Li1232 O1294 1.961 . S
Li1233 N1257 1.990 . S
Li1233 O1292 1.970 . S
Li1233 O1293 1.956 . S
Li1233 O1295 1.961 . S
Li1234 N1279 1.990 . S
Li1234 O1292 1.961 . S
Li1234 O1294 1.956 . S
Li1234 O1295 1.970 . S
Li1235 N1285 1.990 . S
Li1235 O1293 1.961 . S
Li1235 O1294 1.970 . S
Li1235 O1295 1.956 . S
C1236 C1238 1.348 . S
C1236 C1239 1.356 . S
C1236 O1292 1.325 . S
N1237 C1240 1.314 . S
N1237 C1241 1.279 . S
C1238 C1236 1.348 . S
C1238 C1240 1.353 . S
C1238 H1296 0.929 . S
C1239 C1236 1.356 . S
C1239 C1241 1.358 . S
C1239 H1297 0.930 . S
C1240 N1237 1.314 . S
C1240 C1238 1.353 . S
C1240 H1298 0.930 . S
C1241 N1237 1.279 . S
C1241 C1239 1.358 . S
C1241 H1299 0.930 . S
C1242 C1245 1.348 . S
C1242 C1246 1.356 . S
C1242 O1293 1.325 . S
C1243 N1244 1.279 . S
C1243 C1246 1.358 . S
C1243 H1300 0.930 . S
N1244 C1243 1.279 . S
N1244 C1247 1.314 . S
C1245 C1242 1.348 . S
C1245 C1247 1.353 . S
C1245 H1301 0.929 . S
C1246 C1242 1.356 . S
C1246 C1243 1.358 . S
C1246 H1302 0.930 . S
C1247 N1244 1.314 . S
C1247 C1245 1.353 . S
C1247 H1303 0.930 . S
C1248 N1249 1.314 . S
C1248 C1253 1.353 . S
C1248 H1254 0.930 . S
N1249 Li1232 1.990 . S
N1249 C1248 1.314 . S
N1249 C1251 1.279 . S
C1250 C1251 1.358 . S
C1250 C1252 1.356 . S
C1250 H1304 0.930 . S
C1251 N1249 1.279 . S
C1251 C1250 1.358 . S
C1251 H1255 0.930 . S
C1252 C1250 1.356 . S
C1252 C1253 1.348 . S
C1253 C1248 1.353 . S
C1253 C1252 1.348 . S
C1253 H1305 0.929 . S
H1254 C1248 0.930 . S
H1255 C1251 0.930 . S
C1256 N1257 1.314 . S
C1256 C1258 1.353 . S
C1256 H1262 0.930 . S
N1257 Li1233 1.990 . S
N1257 C1256 1.314 . S
N1257 C1260 1.279 . S
C1258 C1256 1.353 . S
C1258 C1261 1.348 . S
C1258 H1306 0.929 . S
C1259 C1260 1.358 . S
C1259 C1261 1.356 . S
C1259 H1307 0.930 . S
C1260 N1257 1.279 . S
C1260 C1259 1.358 . S
C1260 H1263 0.930 . S
C1261 C1258 1.348 . S
C1261 C1259 1.356 . S
H1262 C1256 0.930 . S
H1263 C1260 0.930 . S
C1264 C1266 1.348 . S
C1264 C1267 1.356 . S
C1264 O1294 1.325 . S
N1265 C1268 1.314 . S
N1265 C1269 1.279 . S
C1266 C1264 1.348 . S
C1266 C1268 1.353 . S
C1266 H1308 0.929 . S
C1267 C1264 1.356 . S
C1267 C1269 1.358 . S
C1267 H1309 0.930 . S
C1268 N1265 1.314 . S
C1268 C1266 1.353 . S
C1268 H1310 0.930 . S
C1269 N1265 1.279 . S
C1269 C1267 1.358 . S
C1269 H1311 0.930 . S
C1270 C1271 1.348 . S
C1270 C1272 1.356 . S
C1270 O1295 1.325 . S
C1271 C1270 1.348 . S
C1271 C1273 1.353 . S
C1271 H1312 0.929 . S
C1272 C1270 1.356 . S
C1272 C1274 1.358 . S
C1272 H1313 0.930 . S
C1273 C1271 1.353 . S
C1273 N1275 1.314 . S
C1273 H1314 0.930 . S
C1274 C1272 1.358 . S
C1274 N1275 1.279 . S
C1274 H1315 0.930 . S
N1275 C1273 1.314 . S
N1275 C1274 1.279 . S
C1276 C1278 1.353 . S
C1276 N1279 1.314 . S
C1276 H1282 0.930 . S
C1277 N1279 1.279 . S
C1277 C1280 1.358 . S
C1277 H1283 0.930 . S
C1278 C1276 1.353 . S
C1278 C1281 1.348 . S
C1278 H1316 0.929 . S
N1279 Li1234 1.990 . S
N1279 C1276 1.314 . S
N1279 C1277 1.279 . S
C1280 C1277 1.358 . S
C1280 C1281 1.356 . S
C1280 H1317 0.930 . S
C1281 C1278 1.348 . S
C1281 C1280 1.356 . S
H1282 C1276 0.930 . S
H1283 C1277 0.930 . S
C1284 N1285 1.314 . S
C1284 C1286 1.353 . S
C1284 H1290 0.930 . S
N1285 Li1235 1.990 . S
N1285 C1284 1.314 . S
N1285 C1288 1.279 . S
C1286 C1284 1.353 . S
C1286 C1289 1.348 . S
C1286 H1318 0.929 . S
C1287 C1288 1.358 . S
C1287 C1289 1.356 . S
C1287 H1319 0.930 . S
C1288 N1285 1.279 . S
C1288 C1287 1.358 . S
C1288 H1291 0.930 . S
C1289 C1286 1.348 . S
C1289 C1287 1.356 . S
H1290 C1284 0.930 . S
H1291 C1288 0.930 . S
O1292 Li1232 1.956 . S
O1292 Li1233 1.970 . S
O1292 Li1234 1.961 . S
O1292 C1236 1.325 . S
O1293 Li1232 1.970 . S
O1293 Li1233 1.956 . S
O1293 Li1235 1.961 . S
O1293 C1242 1.325 . S
O1294 Li1232 1.961 . S
O1294 Li1234 1.956 . S
O1294 Li1235 1.970 . S
O1294 C1264 1.325 . S
O1295 Li1233 1.961 . S
O1295 Li1234 1.970 . S
O1295 Li1235 1.956 . S
O1295 C1270 1.325 . S
H1296 C1238 0.929 . S
H1297 C1239 0.930 . S
H1298 C1240 0.930 . S
H1299 C1241 0.930 . S
H1300 C1243 0.930 . S
H1301 C1245 0.929 . S
H1302 C1246 0.930 . S
H1303 C1247 0.930 . S
H1304 C1250 0.930 . S
H1305 C1253 0.929 . S
H1306 C1258 0.929 . S
H1307 C1259 0.930 . S
H1308 C1266 0.929 . S
H1309 C1267 0.930 . S
H1310 C1268 0.930 . S
H1311 C1269 0.930 . S
H1312 C1271 0.929 . S
H1313 C1272 0.930 . S
H1314 C1273 0.930 . S
H1315 C1274 0.930 . S
H1316 C1278 0.929 . S
H1317 C1280 0.930 . S
H1318 C1286 0.929 . S
H1319 C1287 0.930 . S
Li1320 N1337 1.990 . S
Li1320 O1380 1.956 . S
Li1320 O1381 1.970 . S
Li1320 O1382 1.961 . S
Li1321 N1345 1.990 . S
Li1321 O1380 1.970 . S
Li1321 O1381 1.956 . S
Li1321 O1383 1.961 . S
Li1322 N1367 1.990 . S
Li1322 O1380 1.961 . S
Li1322 O1382 1.956 . S
Li1322 O1383 1.970 . S
Li1323 N1373 1.990 . S
Li1323 O1381 1.961 . S
Li1323 O1382 1.970 . S
Li1323 O1383 1.956 . S
C1324 C1326 1.348 . S
C1324 C1327 1.356 . S
C1324 O1380 1.325 . S
N1325 C1328 1.314 . S
N1325 C1329 1.279 . S
C1326 C1324 1.348 . S
C1326 C1328 1.353 . S
C1326 H1384 0.929 . S
C1327 C1324 1.356 . S
C1327 C1329 1.358 . S
C1327 H1385 0.930 . S
C1328 N1325 1.314 . S
C1328 C1326 1.353 . S
C1328 H1386 0.930 . S
C1329 N1325 1.279 . S
C1329 C1327 1.358 . S
C1329 H1387 0.930 . S
C1330 C1333 1.348 . S
C1330 C1334 1.356 . S
C1330 O1381 1.325 . S
C1331 N1332 1.279 . S
C1331 C1334 1.358 . S
C1331 H1388 0.930 . S
N1332 C1331 1.279 . S
N1332 C1335 1.314 . S
C1333 C1330 1.348 . S
C1333 C1335 1.353 . S
C1333 H1389 0.929 . S
C1334 C1330 1.356 . S
C1334 C1331 1.358 . S
C1334 H1390 0.930 . S
C1335 N1332 1.314 . S
C1335 C1333 1.353 . S
C1335 H1391 0.930 . S
C1336 N1337 1.314 . S
C1336 C1341 1.353 . S
C1336 H1342 0.930 . S
N1337 Li1320 1.990 . S
N1337 C1336 1.314 . S
N1337 C1339 1.279 . S
C1338 C1339 1.358 . S
C1338 C1340 1.356 . S
C1338 H1392 0.930 . S
C1339 N1337 1.279 . S
C1339 C1338 1.358 . S
C1339 H1343 0.930 . S
C1340 C1338 1.356 . S
C1340 C1341 1.348 . S
C1341 C1336 1.353 . S
C1341 C1340 1.348 . S
C1341 H1393 0.929 . S
H1342 C1336 0.930 . S
H1343 C1339 0.930 . S
C1344 N1345 1.314 . S
C1344 C1346 1.353 . S
C1344 H1350 0.930 . S
N1345 Li1321 1.990 . S
N1345 C1344 1.314 . S
N1345 C1348 1.279 . S
C1346 C1344 1.353 . S
C1346 C1349 1.348 . S
C1346 H1394 0.929 . S
C1347 C1348 1.358 . S
C1347 C1349 1.356 . S
C1347 H1395 0.930 . S
C1348 N1345 1.279 . S
C1348 C1347 1.358 . S
C1348 H1351 0.930 . S
C1349 C1346 1.348 . S
C1349 C1347 1.356 . S
H1350 C1344 0.930 . S
H1351 C1348 0.930 . S
C1352 C1354 1.348 . S
C1352 C1355 1.356 . S
C1352 O1382 1.325 . S
N1353 C1356 1.314 . S
N1353 C1357 1.279 . S
C1354 C1352 1.348 . S
C1354 C1356 1.353 . S
C1354 H1396 0.929 . S
C1355 C1352 1.356 . S
C1355 C1357 1.358 . S
C1355 H1397 0.930 . S
C1356 N1353 1.314 . S
C1356 C1354 1.353 . S
C1356 H1398 0.930 . S
C1357 N1353 1.279 . S
C1357 C1355 1.358 . S
C1357 H1399 0.930 . S
C1358 C1359 1.348 . S
C1358 C1360 1.356 . S
C1358 O1383 1.325 . S
C1359 C1358 1.348 . S
C1359 C1361 1.353 . S
C1359 H1400 0.929 . S
C1360 C1358 1.356 . S
C1360 C1362 1.358 . S
C1360 H1401 0.930 . S
C1361 C1359 1.353 . S
C1361 N1363 1.314 . S
C1361 H1402 0.930 . S
C1362 C1360 1.358 . S
C1362 N1363 1.279 . S
C1362 H1403 0.930 . S
N1363 C1361 1.314 . S
N1363 C1362 1.279 . S
C1364 C1366 1.353 . S
C1364 N1367 1.314 . S
C1364 H1370 0.930 . S
C1365 N1367 1.279 . S
C1365 C1368 1.358 . S
C1365 H1371 0.930 . S
C1366 C1364 1.353 . S
C1366 C1369 1.348 . S
C1366 H1404 0.929 . S
N1367 Li1322 1.990 . S
N1367 C1364 1.314 . S
N1367 C1365 1.279 . S
C1368 C1365 1.358 . S
C1368 C1369 1.356 . S
C1368 H1405 0.930 . S
C1369 C1366 1.348 . S
C1369 C1368 1.356 . S
H1370 C1364 0.930 . S
H1371 C1365 0.930 . S
C1372 N1373 1.314 . S
C1372 C1374 1.353 . S
C1372 H1378 0.930 . S
N1373 Li1323 1.990 . S
N1373 C1372 1.314 . S
N1373 C1376 1.279 . S
C1374 C1372 1.353 . S
C1374 C1377 1.348 . S
C1374 H1406 0.929 . S
C1375 C1376 1.358 . S
C1375 C1377 1.356 . S
C1375 H1407 0.930 . S
C1376 N1373 1.279 . S
C1376 C1375 1.358 . S
C1376 H1379 0.930 . S
C1377 C1374 1.348 . S
C1377 C1375 1.356 . S
H1378 C1372 0.930 . S
H1379 C1376 0.930 . S
O1380 Li1320 1.956 . S
O1380 Li1321 1.970 . S
O1380 Li1322 1.961 . S
O1380 C1324 1.325 . S
O1381 Li1320 1.970 . S
O1381 Li1321 1.956 . S
O1381 Li1323 1.961 . S
O1381 C1330 1.325 . S
O1382 Li1320 1.961 . S
O1382 Li1322 1.956 . S
O1382 Li1323 1.970 . S
O1382 C1352 1.325 . S
O1383 Li1321 1.961 . S
O1383 Li1322 1.970 . S
O1383 Li1323 1.956 . S
O1383 C1358 1.325 . S
H1384 C1326 0.929 . S
H1385 C1327 0.930 . S
H1386 C1328 0.930 . S
H1387 C1329 0.930 . S
H1388 C1331 0.930 . S
H1389 C1333 0.929 . S
H1390 C1334 0.930 . S
H1391 C1335 0.930 . S
H1392 C1338 0.930 . S
H1393 C1341 0.929 . S
H1394 C1346 0.929 . S
H1395 C1347 0.930 . S
H1396 C1354 0.929 . S
H1397 C1355 0.930 . S
H1398 C1356 0.930 . S
H1399 C1357 0.930 . S
H1400 C1359 0.929 . S
H1401 C1360 0.930 . S
H1402 C1361 0.930 . S
H1403 C1362 0.930 . S
H1404 C1366 0.929 . S
H1405 C1368 0.930 . S
H1406 C1374 0.929 . S
H1407 C1375 0.930 . S
Li1408 N1425 1.990 . S
Li1408 O1468 1.956 . S
Li1408 O1469 1.970 . S
Li1408 O1470 1.961 . S
Li1409 N1433 1.990 . S
Li1409 O1468 1.970 . S
Li1409 O1469 1.956 . S
Li1409 O1471 1.961 . S
Li1410 N1455 1.990 . S
Li1410 O1468 1.961 . S
Li1410 O1470 1.956 . S
Li1410 O1471 1.970 . S
Li1411 N1461 1.990 1_545 S
Li1411 O1469 1.961 . S
Li1411 O1470 1.970 . S
Li1411 O1471 1.956 . S
C1412 C1414 1.348 . S
C1412 C1415 1.356 . S
C1412 O1468 1.325 . S
N1413 C1416 1.314 . S
N1413 C1417 1.279 . S
C1414 C1412 1.348 . S
C1414 C1416 1.353 . S
C1414 H1472 0.929 . S
C1415 C1412 1.356 . S
C1415 C1417 1.358 . S
C1415 H1473 0.930 . S
C1416 N1413 1.314 . S
C1416 C1414 1.353 . S
C1416 H1474 0.930 . S
C1417 N1413 1.279 . S
C1417 C1415 1.358 . S
C1417 H1475 0.930 . S
C1418 C1421 1.362 . S
C1418 C1422 1.286 1_545 S
C1418 O1469 1.369 . S
C1419 N1420 1.279 . S
C1419 C1422 1.358 . S
C1419 H1476 0.930 . S
N1420 C1419 1.279 . S
N1420 C1423 1.314 . S
C1421 C1418 1.362 . S
C1421 C1423 1.331 1_545 S
C1421 H1477 0.964 . S
C1422 C1418 1.286 1_565 S
C1422 C1419 1.358 . S
C1422 H1478 0.930 . S
C1423 N1420 1.314 . S
C1423 C1421 1.331 1_565 S
C1423 H1479 0.930 . S
C1424 N1425 1.314 . S
C1424 C1429 1.353 . S
C1424 H1430 0.930 . S
N1425 Li1408 1.990 . S
N1425 C1424 1.314 . S
N1425 C1427 1.279 . S
C1426 C1427 1.358 . S
C1426 C1428 1.356 . S
C1426 H1480 0.930 . S
C1427 N1425 1.279 . S
C1427 C1426 1.358 . S
C1427 H1431 0.930 . S
C1428 C1426 1.356 . S
C1428 C1429 1.348 . S
C1429 C1424 1.353 . S
C1429 C1428 1.348 . S
C1429 H1481 0.924 1_545 S
H1430 C1424 0.930 . S
H1431 C1427 0.930 . S
C1432 N1433 1.314 . S
C1432 C1434 1.353 . S
C1432 H1438 0.930 . S
N1433 Li1409 1.990 . S
N1433 C1432 1.314 . S
N1433 C1436 1.279 . S
C1434 C1432 1.353 . S
C1434 C1437 1.348 . S
C1434 H1482 0.929 . S
C1435 C1436 1.358 . S
C1435 C1437 1.356 . S
C1435 H1483 0.930 . S
C1436 N1433 1.279 . S
C1436 C1435 1.358 . S
C1436 H1439 0.930 . S
C1437 C1434 1.348 . S
C1437 C1435 1.356 . S
H1438 C1432 0.930 . S
H1439 C1436 0.930 . S
C1440 C1442 1.348 . S
C1440 C1443 1.356 . S
C1440 O1470 1.325 . S
N1441 C1444 1.314 1_545 S
N1441 C1445 1.279 . S
C1442 C1440 1.348 . S
C1442 C1444 1.353 1_545 S
C1442 H1484 0.929 1_545 S
C1443 C1440 1.356 . S
C1443 C1445 1.358 . S
C1443 H1485 0.930 . S
C1444 N1441 1.314 1_565 S
C1444 C1442 1.353 1_565 S
C1444 H1486 0.930 . S
C1445 N1441 1.279 . S
C1445 C1443 1.358 . S
C1445 H1487 0.930 . S
C1446 C1447 1.348 . S
C1446 C1448 1.356 . S
C1446 O1471 1.325 . S
C1447 C1446 1.348 . S
C1447 C1449 1.353 . S
C1447 H1488 0.929 . S
C1448 C1446 1.356 . S
C1448 C1450 1.358 . S
C1448 H1489 0.930 . S
C1449 C1447 1.353 . S
C1449 N1451 1.314 . S
C1449 H1490 0.930 . S
C1450 C1448 1.358 . S
C1450 N1451 1.279 . S
C1450 H1491 0.930 . S
N1451 C1449 1.314 . S
N1451 C1450 1.279 . S
C1452 C1454 1.353 . S
C1452 N1455 1.314 . S
C1452 H1458 0.930 . S
C1453 N1455 1.279 . S
C1453 C1456 1.358 . S
C1453 H1459 0.930 . S
C1454 C1452 1.353 . S
C1454 C1457 1.348 . S
C1454 H1492 0.929 . S
N1455 Li1410 1.990 . S
N1455 C1452 1.314 . S
N1455 C1453 1.279 . S
C1456 C1453 1.358 . S
C1456 C1457 1.356 . S
C1456 H1493 0.930 . S
C1457 C1454 1.348 . S
C1457 C1456 1.356 . S
H1458 C1452 0.930 . S
H1459 C1453 0.930 . S
C1460 N1461 1.314 . S
C1460 C1462 1.353 . S
C1460 H1466 0.930 . S
N1461 Li1411 1.990 1_565 S
N1461 C1460 1.314 . S
N1461 C1464 1.279 . S
C1462 C1460 1.353 . S
C1462 C1465 1.348 . S
C1462 H1494 0.929 . S
C1463 C1464 1.358 . S
C1463 C1465 1.356 . S
C1463 H1495 0.930 . S
C1464 N1461 1.279 . S
C1464 C1463 1.358 . S
C1464 H1467 0.930 . S
C1465 C1462 1.348 . S
C1465 C1463 1.356 . S
H1466 C1460 0.930 . S
H1467 C1464 0.930 . S
O1468 Li1408 1.956 . S
O1468 Li1409 1.970 . S
O1468 Li1410 1.961 . S
O1468 C1412 1.325 . S
O1469 Li1408 1.970 . S
O1469 Li1409 1.956 . S
O1469 Li1411 1.961 . S
O1469 C1418 1.369 . S
O1470 Li1408 1.961 . S
O1470 Li1410 1.956 . S
O1470 Li1411 1.970 . S
O1470 C1440 1.325 . S
O1471 Li1409 1.961 . S
O1471 Li1410 1.970 . S
O1471 Li1411 1.956 . S
O1471 C1446 1.325 . S
H1472 C1414 0.929 . S
H1473 C1415 0.930 . S
H1474 C1416 0.930 . S
H1475 C1417 0.930 . S
H1476 C1419 0.930 . S
H1477 C1421 0.964 . S
H1478 C1422 0.930 . S
H1479 C1423 0.930 . S
H1480 C1426 0.930 . S
H1481 C1429 0.924 1_565 S
H1482 C1434 0.929 . S
H1483 C1435 0.930 . S
H1484 C1442 0.929 1_565 S
H1485 C1443 0.930 . S
H1486 C1444 0.930 . S
H1487 C1445 0.930 . S
H1488 C1447 0.929 . S
H1489 C1448 0.930 . S
H1490 C1449 0.930 . S
H1491 C1450 0.930 . S
H1492 C1454 0.929 . S
H1493 C1456 0.930 . S
H1494 C1462 0.929 . S
H1495 C1463 0.930 . S
Li1496 N1513 1.990 . S
Li1496 O1556 1.956 . S
Li1496 O1557 1.970 . S
Li1496 O1558 1.961 . S
Li1497 N1521 1.990 . S
Li1497 O1556 1.970 . S
Li1497 O1557 1.956 . S
Li1497 O1559 1.961 . S
Li1498 N1543 1.990 1_655 S
Li1498 O1556 1.961 . S
Li1498 O1558 1.956 . S
Li1498 O1559 1.970 . S
Li1499 N1549 1.990 . S
Li1499 O1557 1.961 . S
Li1499 O1558 1.970 . S
Li1499 O1559 1.956 . S
C1500 C1502 1.335 . S
C1500 C1503 1.346 1_655 S
C1500 O1556 1.391 . S
N1501 C1504 1.314 . S
N1501 C1505 1.279 . S
C1502 C1500 1.335 . S
C1502 C1504 1.310 1_655 S
C1502 H1560 0.945 . S
C1503 C1500 1.346 1_455 S
C1503 C1505 1.358 . S
C1503 H1561 0.930 . S
C1504 N1501 1.314 . S
C1504 C1502 1.310 1_455 S
C1504 H1562 0.930 . S
C1505 N1501 1.279 . S
C1505 C1503 1.358 . S
C1505 H1563 0.930 . S
C1506 C1509 1.348 . S
C1506 C1510 1.356 . S
C1506 O1557 1.325 . S
C1507 N1508 1.279 . S
C1507 C1510 1.358 . S
C1507 H1564 0.930 . S
N1508 C1507 1.279 . S
N1508 C1511 1.314 . S
C1509 C1506 1.348 . S
C1509 C1511 1.353 . S
C1509 H1565 0.929 . S
C1510 C1506 1.356 . S
C1510 C1507 1.358 . S
C1510 H1566 0.930 . S
C1511 N1508 1.314 . S
C1511 C1509 1.353 . S
C1511 H1567 0.930 . S
C1512 N1513 1.314 . S
C1512 C1517 1.353 . S
C1512 H1518 0.930 . S
N1513 Li1496 1.990 . S
N1513 C1512 1.314 . S
N1513 C1515 1.279 . S
C1514 C1515 1.358 . S
C1514 C1516 1.356 . S
C1514 H1568 0.930 . S
C1515 N1513 1.279 . S
C1515 C1514 1.358 . S
C1515 H1519 0.930 . S
C1516 C1514 1.356 . S
C1516 C1517 1.348 . S
C1517 C1512 1.353 . S
C1517 C1516 1.348 . S
C1517 H1569 0.929 . S
H1518 C1512 0.930 . S
H1519 C1515 0.930 . S
C1520 N1521 1.314 . S
C1520 C1522 1.353 . S
C1520 H1526 0.930 . S
N1521 Li1497 1.990 . S
N1521 C1520 1.314 . S
N1521 C1524 1.279 . S
C1522 C1520 1.353 . S
C1522 C1525 1.348 . S
C1522 H1570 0.928 . S
C1523 C1524 1.358 . S
C1523 C1525 1.356 . S
C1523 H1571 0.930 . S
C1524 N1521 1.279 . S
C1524 C1523 1.358 . S
C1524 H1527 0.930 . S
C1525 C1522 1.348 . S
C1525 C1523 1.356 . S
H1526 C1520 0.930 . S
H1527 C1524 0.930 . S
C1528 C1530 1.348 . S
C1528 C1531 1.356 . S
C1528 O1558 1.325 . S
N1529 C1532 1.314 . S
N1529 C1533 1.279 . S
C1530 C1528 1.348 . S
C1530 C1532 1.353 . S
C1530 H1572 0.929 . S
C1531 C1528 1.356 . S
C1531 C1533 1.358 . S
C1531 H1573 0.930 . S
C1532 N1529 1.314 . S
C1532 C1530 1.353 . S
C1532 H1574 0.930 . S
C1533 N1529 1.279 . S
C1533 C1531 1.358 . S
C1533 H1575 0.930 . S
C1534 C1535 1.348 . S
C1534 C1536 1.356 . S
C1534 O1559 1.325 . S
C1535 C1534 1.348 . S
C1535 C1537 1.353 1_655 S
C1535 H1576 0.929 1_655 S
C1536 C1534 1.356 . S
C1536 C1538 1.358 . S
C1536 H1577 0.930 . S
C1537 C1535 1.353 1_455 S
C1537 N1539 1.314 1_455 S
C1537 H1578 0.930 . S
C1538 C1536 1.358 . S
C1538 N1539 1.279 . S
C1538 H1579 0.930 . S
N1539 C1537 1.314 1_655 S
N1539 C1538 1.279 . S
C1540 C1542 1.353 . S
C1540 N1543 1.314 . S
C1540 H1546 0.930 . S
C1541 N1543 1.279 . S
C1541 C1544 1.358 . S
C1541 H1547 0.930 . S
C1542 C1540 1.353 . S
C1542 C1545 1.348 . S
C1542 H1580 0.929 . S
N1543 Li1498 1.990 1_455 S
N1543 C1540 1.314 . S
N1543 C1541 1.279 . S
C1544 C1541 1.358 . S
C1544 C1545 1.356 . S
C1544 H1581 0.930 . S
C1545 C1542 1.348 . S
C1545 C1544 1.356 . S
H1546 C1540 0.930 . S
H1547 C1541 0.930 . S
C1548 N1549 1.314 . S
C1548 C1550 1.353 . S
C1548 H1554 0.930 . S
N1549 Li1499 1.990 . S
N1549 C1548 1.314 . S
N1549 C1552 1.279 . S
C1550 C1548 1.353 . S
C1550 C1553 1.348 . S
C1550 H1582 0.929 . S
C1551 C1552 1.358 . S
C1551 C1553 1.356 . S
C1551 H1583 0.930 . S
C1552 N1549 1.279 . S
C1552 C1551 1.358 . S
C1552 H1555 0.930 . S
C1553 C1550 1.348 . S
C1553 C1551 1.356 . S
H1554 C1548 0.930 . S
H1555 C1552 0.930 . S
O1556 Li1496 1.956 . S
O1556 Li1497 1.970 . S
O1556 Li1498 1.961 . S
O1556 C1500 1.391 . S
O1557 Li1496 1.970 . S
O1557 Li1497 1.956 . S
O1557 Li1499 1.961 . S
O1557 C1506 1.325 . S
O1558 Li1496 1.961 . S
O1558 Li1498 1.956 . S
O1558 Li1499 1.970 . S
O1558 C1528 1.325 . S
O1559 Li1497 1.961 . S
O1559 Li1498 1.970 . S
O1559 Li1499 1.956 . S
O1559 C1534 1.325 . S
H1560 C1502 0.945 . S
H1561 C1503 0.930 . S
H1562 C1504 0.930 . S
H1563 C1505 0.930 . S
H1564 C1507 0.930 . S
H1565 C1509 0.929 . S
H1566 C1510 0.930 . S
H1567 C1511 0.930 . S
H1568 C1514 0.930 . S
H1569 C1517 0.929 . S
H1570 C1522 0.928 . S
H1571 C1523 0.930 . S
H1572 C1530 0.929 . S
H1573 C1531 0.930 . S
H1574 C1532 0.930 . S
H1575 C1533 0.930 . S
H1576 C1535 0.929 1_455 S
H1577 C1536 0.930 . S
H1578 C1537 0.930 . S
H1579 C1538 0.930 . S
H1580 C1542 0.929 . S
H1581 C1544 0.930 . S
H1582 C1550 0.929 . S
H1583 C1551 0.930 . S
H1584 C1603 0.949 . S
H1585 C1604 0.950 . S
H1586 C1606 0.950 . S
H1587 C1607 0.950 . S
H1588 C1609 0.950 . S
H1589 C1612 0.950 . S
H1590 C1613 0.950 . S
H1591 C1615 0.951 . S
H1592 C1616 0.949 . S
H1593 C1618 0.949 . S
H1594 C1619 0.950 . S
H1595 C1621 0.950 . S
H1596 C1622 0.950 . S
H1597 C1624 0.950 . S
H1598 C1627 0.950 . S
H1599 C1628 0.950 . S
H1600 C1630 0.951 . S
H1601 C1631 0.949 . S
C1602 C1603 1.376 . S
C1602 C1607 1.386 . S
C1602 C1608 1.483 . S
C1603 H1584 0.949 . S
C1603 C1602 1.376 . S
C1603 C1604 1.397 . S
C1604 H1585 0.950 . S
C1604 C1603 1.397 . S
C1604 C1605 1.391 . S
C1605 C1604 1.391 . S
C1605 C1606 1.405 . S
C1606 H1586 0.950 . S
C1606 C1605 1.405 . S
C1606 C1607 1.367 . S
C1607 H1587 0.950 . S
C1607 C1602 1.386 . S
C1607 C1606 1.367 . S
C1608 C1602 1.483 . S
C1608 C1609 1.382 . S
C1608 C1610 1.403 . S
C1609 H1588 0.950 . S
C1609 C1608 1.382 . S
C1609 C1625 1.411 . S
C1610 C1608 1.403 . S
C1610 C1611 1.489 . S
C1610 C1624 1.411 . S
C1611 C1610 1.489 . S
C1611 C1612 1.383 . S
C1611 C1616 1.382 . S
C1612 H1589 0.950 . S
C1612 C1611 1.383 . S
C1612 C1613 1.395 . S
C1613 H1590 0.950 . S
C1613 C1612 1.395 . S
C1613 C1614 1.288 . S
C1614 C1613 1.288 . S
C1614 C1615 1.392 . S
C1615 H1591 0.951 . S
C1615 C1614 1.392 . S
C1615 C1616 1.392 . S
C1616 H1592 0.949 . S
C1616 C1611 1.382 . S
C1616 C1615 1.392 . S
C1617 C1618 1.376 . S
C1617 C1622 1.386 . S
C1617 C1623 1.483 . S
C1618 H1593 0.949 . S
C1618 C1617 1.376 . S
C1618 C1619 1.397 . S
C1619 H1594 0.950 . S
C1619 C1618 1.397 . S
C1619 C1620 1.391 . S
C1620 C1619 1.391 . S
C1620 C1621 1.405 . S
C1621 H1595 0.950 . S
C1621 C1620 1.405 . S
C1621 C1622 1.367 . S
C1622 H1596 0.950 . S
C1622 C1617 1.386 . S
C1622 C1621 1.367 . S
C1623 C1617 1.483 . S
C1623 C1624 1.382 . S
C1623 C1625 1.403 . S
C1624 H1597 0.950 . S
C1624 C1610 1.411 . S
C1624 C1623 1.382 . S
C1625 C1609 1.411 . S
C1625 C1623 1.403 . S
C1625 C1626 1.489 . S
C1626 C1625 1.489 . S
C1626 C1627 1.383 . S
C1626 C1631 1.382 . S
C1627 H1598 0.950 . S
C1627 C1626 1.383 . S
C1627 C1628 1.395 . S
C1628 H1599 0.950 . S
C1628 C1627 1.395 . S
C1628 C1629 1.288 . S
C1629 C1628 1.288 . S
C1629 C1630 1.392 . S
C1630 H1600 0.951 . S
C1630 C1629 1.392 . S
C1630 C1631 1.392 . S
C1631 H1601 0.949 . S
C1631 C1626 1.382 . S
C1631 C1630 1.392 . S
H1632 C1651 0.949 . S
H1633 C1652 0.950 . S
H1634 C1654 0.950 . S
H1635 C1655 0.950 . S
H1636 C1657 0.950 . S
H1637 C1660 0.950 . S
H1638 C1661 0.950 . S
H1639 C1663 0.951 . S
H1640 C1664 0.949 . S
H1641 C1666 0.949 . S
H1642 C1667 0.950 . S
H1643 C1669 0.950 . S
H1644 C1670 0.950 . S
H1645 C1672 0.950 . S
H1646 C1675 0.950 . S
H1647 C1676 0.950 . S
H1648 C1678 0.951 . S
H1649 C1679 0.949 . S
C1650 C1651 1.376 . S
C1650 C1655 1.386 . S
C1650 C1656 1.483 . S
C1651 H1632 0.949 . S
C1651 C1650 1.376 . S
C1651 C1652 1.397 . S
C1652 H1633 0.950 . S
C1652 C1651 1.397 . S
C1652 C1653 1.391 . S
C1653 C1652 1.391 . S
C1653 C1654 1.405 . S
C1654 H1634 0.950 . S
C1654 C1653 1.405 . S
C1654 C1655 1.367 . S
C1655 H1635 0.950 . S
C1655 C1650 1.386 . S
C1655 C1654 1.367 . S
C1656 C1650 1.483 . S
C1656 C1657 1.382 . S
C1656 C1658 1.403 . S
C1657 H1636 0.950 . S
C1657 C1656 1.382 . S
C1657 C1673 1.411 . S
C1658 C1656 1.403 . S
C1658 C1659 1.489 . S
C1658 C1672 1.411 . S
C1659 C1658 1.489 . S
C1659 C1660 1.383 . S
C1659 C1664 1.382 . S
C1660 H1637 0.950 . S
C1660 C1659 1.383 . S
C1660 C1661 1.395 . S
C1661 H1638 0.950 . S
C1661 C1660 1.395 . S
C1661 C1662 1.288 . S
C1662 C1661 1.288 . S
C1662 C1663 1.392 . S
C1663 H1639 0.951 . S
C1663 C1662 1.392 . S
C1663 C1664 1.392 . S
C1664 H1640 0.949 . S
C1664 C1659 1.382 . S
C1664 C1663 1.392 . S
C1665 C1666 1.376 . S
C1665 C1670 1.386 . S
C1665 C1671 1.483 . S
C1666 H1641 0.949 . S
C1666 C1665 1.376 . S
C1666 C1667 1.397 . S
C1667 H1642 0.950 . S
C1667 C1666 1.397 . S
C1667 C1668 1.391 . S
C1668 C1667 1.391 . S
C1668 C1669 1.405 . S
C1669 H1643 0.950 . S
C1669 C1668 1.405 . S
C1669 C1670 1.367 . S
C1670 H1644 0.950 . S
C1670 C1665 1.386 . S
C1670 C1669 1.367 . S
C1671 C1665 1.483 . S
C1671 C1672 1.382 . S
C1671 C1673 1.403 . S
C1672 H1645 0.950 . S
C1672 C1658 1.411 . S
C1672 C1671 1.382 . S
C1673 C1657 1.411 . S
C1673 C1671 1.403 . S
C1673 C1674 1.489 . S
C1674 C1673 1.489 . S
C1674 C1675 1.383 . S
C1674 C1679 1.382 . S
C1675 H1646 0.950 . S
C1675 C1674 1.383 . S
C1675 C1676 1.395 . S
C1676 H1647 0.950 . S
C1676 C1675 1.395 . S
C1676 C1677 1.288 . S
C1677 C1676 1.288 . S
C1677 C1678 1.392 . S
C1678 H1648 0.951 . S
C1678 C1677 1.392 . S
C1678 C1679 1.392 . S
C1679 H1649 0.949 . S
C1679 C1674 1.382 . S
C1679 C1678 1.392 . S
H1680 C1699 0.949 . S
H1681 C1700 0.950 . S
H1682 C1702 0.950 . S
H1683 C1703 0.950 . S
H1684 C1705 0.950 . S
H1685 C1708 0.950 . S
H1686 C1709 0.950 . S
H1687 C1711 0.951 . S
H1688 C1712 0.949 . S
H1689 C1714 0.949 . S
H1690 C1715 0.950 . S
H1691 C1717 0.950 . S
H1692 C1718 0.950 . S
H1693 C1720 0.950 . S
H1694 C1723 0.950 . S
H1695 C1724 0.950 . S
H1696 C1726 0.951 . S
H1697 C1727 0.949 . S
C1698 C1699 1.376 . S
C1698 C1703 1.386 . S
C1698 C1704 1.483 . S
C1699 H1680 0.949 . S
C1699 C1698 1.376 . S
C1699 C1700 1.397 . S
C1700 H1681 0.950 . S
C1700 C1699 1.397 . S
C1700 C1701 1.391 . S
C1701 C1700 1.391 . S
C1701 C1702 1.405 . S
C1702 H1682 0.950 . S
C1702 C1701 1.405 . S
C1702 C1703 1.367 . S
C1703 H1683 0.950 . S
C1703 C1698 1.386 . S
C1703 C1702 1.367 . S
C1704 C1698 1.483 . S
C1704 C1705 1.382 . S
C1704 C1706 1.403 . S
C1705 H1684 0.950 . S
C1705 C1704 1.382 . S
C1705 C1721 1.411 . S
C1706 C1704 1.403 . S
C1706 C1707 1.489 . S
C1706 C1720 1.411 . S
C1707 C1706 1.489 . S
C1707 C1708 1.383 . S
C1707 C1712 1.382 . S
C1708 H1685 0.950 . S
C1708 C1707 1.383 . S
C1708 C1709 1.395 . S
C1709 H1686 0.950 . S
C1709 C1708 1.395 . S
C1709 C1710 1.288 . S
C1710 C1709 1.288 . S
C1710 C1711 1.392 . S
C1711 H1687 0.951 . S
C1711 C1710 1.392 . S
C1711 C1712 1.392 . S
C1712 H1688 0.949 . S
C1712 C1707 1.382 . S
C1712 C1711 1.392 . S
C1713 C1714 1.376 . S
C1713 C1718 1.386 . S
C1713 C1719 1.483 . S
C1714 H1689 0.949 . S
C1714 C1713 1.376 . S
C1714 C1715 1.397 . S
C1715 H1690 0.950 . S
C1715 C1714 1.397 . S
C1715 C1716 1.391 . S
C1716 C1715 1.391 . S
C1716 C1717 1.405 . S
C1717 H1691 0.950 . S
C1717 C1716 1.405 . S
C1717 C1718 1.367 . S
C1718 H1692 0.950 . S
C1718 C1713 1.386 . S
C1718 C1717 1.367 . S
C1719 C1713 1.483 . S
C1719 C1720 1.382 . S
C1719 C1721 1.403 . S
C1720 H1693 0.950 . S
C1720 C1706 1.411 . S
C1720 C1719 1.382 . S
C1721 C1705 1.411 . S
C1721 C1719 1.403 . S
C1721 C1722 1.489 . S
C1722 C1721 1.489 . S
C1722 C1723 1.383 . S
C1722 C1727 1.382 . S
C1723 H1694 0.950 . S
C1723 C1722 1.383 . S
C1723 C1724 1.395 . S
C1724 H1695 0.950 . S
C1724 C1723 1.395 . S
C1724 C1725 1.288 . S
C1725 C1724 1.288 . S
C1725 C1726 1.392 . S
C1726 H1696 0.951 . S
C1726 C1725 1.392 . S
C1726 C1727 1.392 . S
C1727 H1697 0.949 . S
C1727 C1722 1.382 . S
C1727 C1726 1.392 . S
H1728 C1747 0.949 . S
H1729 C1748 0.950 . S
H1730 C1750 0.950 . S
H1731 C1751 0.950 . S
H1732 C1753 0.950 . S
H1733 C1756 0.950 . S
H1734 C1757 0.950 . S
H1735 C1759 0.951 . S
H1736 C1760 0.949 . S
H1737 C1762 0.949 . S
H1738 C1763 0.950 . S
H1739 C1765 0.950 . S
H1740 C1766 0.950 . S
H1741 C1768 0.950 . S
H1742 C1771 0.950 . S
H1743 C1772 0.950 . S
H1744 C1774 0.951 . S
H1745 C1775 0.949 . S
C1746 C1747 1.376 . S
C1746 C1751 1.386 . S
C1746 C1752 1.483 . S
C1747 H1728 0.949 . S
C1747 C1746 1.376 . S
C1747 C1748 1.397 . S
C1748 H1729 0.950 . S
C1748 C1747 1.397 . S
C1748 C1749 1.391 . S
C1749 C1748 1.391 . S
C1749 C1750 1.405 . S
C1750 H1730 0.950 . S
C1750 C1749 1.405 . S
C1750 C1751 1.367 . S
C1751 H1731 0.950 . S
C1751 C1746 1.386 . S
C1751 C1750 1.367 . S
C1752 C1746 1.483 . S
C1752 C1753 1.382 . S
C1752 C1754 1.403 . S
C1753 H1732 0.950 . S
C1753 C1752 1.382 . S
C1753 C1769 1.411 . S
C1754 C1752 1.403 . S
C1754 C1755 1.489 . S
C1754 C1768 1.411 . S
C1755 C1754 1.489 . S
C1755 C1756 1.383 . S
C1755 C1760 1.382 . S
C1756 H1733 0.950 . S
C1756 C1755 1.383 . S
C1756 C1757 1.395 . S
C1757 H1734 0.950 . S
C1757 C1756 1.395 . S
C1757 C1758 1.288 . S
C1758 C1757 1.288 . S
C1758 C1759 1.392 . S
C1759 H1735 0.951 . S
C1759 C1758 1.392 . S
C1759 C1760 1.392 . S
C1760 H1736 0.949 . S
C1760 C1755 1.382 . S
C1760 C1759 1.392 . S
C1761 C1762 1.376 . S
C1761 C1766 1.386 . S
C1761 C1767 1.483 . S
C1762 H1737 0.949 . S
C1762 C1761 1.376 . S
C1762 C1763 1.397 . S
C1763 H1738 0.950 . S
C1763 C1762 1.397 . S
C1763 C1764 1.391 . S
C1764 C1763 1.391 . S
C1764 C1765 1.405 . S
C1765 H1739 0.950 . S
C1765 C1764 1.405 . S
C1765 C1766 1.367 . S
C1766 H1740 0.950 . S
C1766 C1761 1.386 . S
C1766 C1765 1.367 . S
C1767 C1761 1.483 . S
C1767 C1768 1.382 . S
C1767 C1769 1.403 . S
C1768 H1741 0.950 . S
C1768 C1754 1.411 . S
C1768 C1767 1.382 . S
C1769 C1753 1.411 . S
C1769 C1767 1.403 . S
C1769 C1770 1.489 . S
C1770 C1769 1.489 . S
C1770 C1771 1.383 . S
C1770 C1775 1.382 . S
C1771 H1742 0.950 . S
C1771 C1770 1.383 . S
C1771 C1772 1.395 . S
C1772 H1743 0.950 . S
C1772 C1771 1.395 . S
C1772 C1773 1.288 . S
C1773 C1772 1.288 . S
C1773 C1774 1.392 . S
C1774 H1744 0.951 . S
C1774 C1773 1.392 . S
C1774 C1775 1.392 . S
C1775 H1745 0.949 . S
C1775 C1770 1.382 . S
C1775 C1774 1.392 . S
H1776 C1795 0.949 . S
H1777 C1796 0.950 . S
H1778 C1798 0.950 . S
H1779 C1799 0.950 . S
H1780 C1801 0.950 . S
H1781 C1804 0.950 . S
H1782 C1805 0.950 . S
H1783 C1807 0.951 . S
H1784 C1808 0.949 . S
H1785 C1810 0.949 . S
H1786 C1811 0.950 . S
H1787 C1813 0.950 . S
H1788 C1814 0.950 . S
H1789 C1816 0.950 . S
H1790 C1819 0.950 . S
H1791 C1820 0.950 . S
H1792 C1822 0.951 . S
H1793 C1823 0.949 . S
C1794 C1795 1.376 . S
C1794 C1799 1.386 . S
C1794 C1800 1.483 . S
C1795 H1776 0.949 . S
C1795 C1794 1.376 . S
C1795 C1796 1.397 . S
C1796 H1777 0.950 . S
C1796 C1795 1.397 . S
C1796 C1797 1.391 . S
C1797 C1796 1.391 . S
C1797 C1798 1.405 . S
C1798 H1778 0.950 . S
C1798 C1797 1.405 . S
C1798 C1799 1.367 . S
C1799 H1779 0.950 . S
C1799 C1794 1.386 . S
C1799 C1798 1.367 . S
C1800 C1794 1.483 . S
C1800 C1801 1.382 . S
C1800 C1802 1.403 . S
C1801 H1780 0.950 . S
C1801 C1800 1.382 . S
C1801 C1817 1.411 . S
C1802 C1800 1.403 . S
C1802 C1803 1.489 . S
C1802 C1816 1.411 . S
C1803 C1802 1.489 . S
C1803 C1804 1.383 . S
C1803 C1808 1.382 . S
C1804 H1781 0.950 . S
C1804 C1803 1.383 . S
C1804 C1805 1.395 . S
C1805 H1782 0.950 . S
C1805 C1804 1.395 . S
C1805 C1806 1.288 . S
C1806 C1805 1.288 . S
C1806 C1807 1.392 . S
C1807 H1783 0.951 . S
C1807 C1806 1.392 . S
C1807 C1808 1.392 . S
C1808 H1784 0.949 . S
C1808 C1803 1.382 . S
C1808 C1807 1.392 . S
C1809 C1810 1.376 . S
C1809 C1814 1.386 . S
C1809 C1815 1.483 . S
C1810 H1785 0.949 . S
C1810 C1809 1.376 . S
C1810 C1811 1.397 . S
C1811 H1786 0.950 . S
C1811 C1810 1.397 . S
C1811 C1812 1.391 . S
C1812 C1811 1.391 . S
C1812 C1813 1.405 . S
C1813 H1787 0.950 . S
C1813 C1812 1.405 . S
C1813 C1814 1.367 . S
C1814 H1788 0.950 . S
C1814 C1809 1.386 . S
C1814 C1813 1.367 . S
C1815 C1809 1.483 . S
C1815 C1816 1.382 . S
C1815 C1817 1.403 . S
C1816 H1789 0.950 . S
C1816 C1802 1.411 . S
C1816 C1815 1.382 . S
C1817 C1801 1.411 . S
C1817 C1815 1.403 . S
C1817 C1818 1.489 . S
C1818 C1817 1.489 . S
C1818 C1819 1.383 . S
C1818 C1823 1.382 . S
C1819 H1790 0.950 . S
C1819 C1818 1.383 . S
C1819 C1820 1.395 . S
C1820 H1791 0.950 . S
C1820 C1819 1.395 . S
C1820 C1821 1.288 . S
C1821 C1820 1.288 . S
C1821 C1822 1.392 . S
C1822 H1792 0.951 . S
C1822 C1821 1.392 . S
C1822 C1823 1.392 . S
C1823 H1793 0.949 . S
C1823 C1818 1.382 . S
C1823 C1822 1.392 . S
H1824 C1843 0.949 . S
H1825 C1844 0.950 . S
H1826 C1846 0.950 . S
H1827 C1847 0.950 . S
H1828 C1849 0.950 . S
H1829 C1852 0.950 . S
H1830 C1853 0.950 . S
H1831 C1855 0.951 . S
H1832 C1856 0.949 . S
H1833 C1858 0.949 . S
H1834 C1859 0.950 . S
H1835 C1861 0.950 . S
H1836 C1862 0.950 . S
H1837 C1864 0.950 . S
H1838 C1867 0.950 . S
H1839 C1868 0.950 . S
H1840 C1870 0.951 . S
H1841 C1871 0.949 . S
C1842 C1843 1.376 . S
C1842 C1847 1.386 . S
C1842 C1848 1.483 . S
C1843 H1824 0.949 . S
C1843 C1842 1.376 . S
C1843 C1844 1.397 . S
C1844 H1825 0.950 . S
C1844 C1843 1.397 . S
C1844 C1845 1.391 . S
C1845 C1844 1.391 . S
C1845 C1846 1.405 . S
C1846 H1826 0.950 . S
C1846 C1845 1.405 . S
C1846 C1847 1.367 . S
C1847 H1827 0.950 . S
C1847 C1842 1.386 . S
C1847 C1846 1.367 . S
C1848 C1842 1.483 . S
C1848 C1849 1.382 . S
C1848 C1850 1.403 . S
C1849 H1828 0.950 . S
C1849 C1848 1.382 . S
C1849 C1865 1.411 . S
C1850 C1848 1.403 . S
C1850 C1851 1.489 . S
C1850 C1864 1.411 . S
C1851 C1850 1.489 . S
C1851 C1852 1.383 . S
C1851 C1856 1.382 . S
C1852 H1829 0.950 . S
C1852 C1851 1.383 . S
C1852 C1853 1.395 . S
C1853 H1830 0.950 . S
C1853 C1852 1.395 . S
C1853 C1854 1.288 . S
C1854 C1853 1.288 . S
C1854 C1855 1.392 . S
C1855 H1831 0.951 . S
C1855 C1854 1.392 . S
C1855 C1856 1.392 . S
C1856 H1832 0.949 . S
C1856 C1851 1.382 . S
C1856 C1855 1.392 . S
C1857 C1858 1.376 . S
C1857 C1862 1.386 . S
C1857 C1863 1.483 . S
C1858 H1833 0.949 . S
C1858 C1857 1.376 . S
C1858 C1859 1.397 . S
C1859 H1834 0.950 . S
C1859 C1858 1.397 . S
C1859 C1860 1.391 . S
C1860 C1859 1.391 . S
C1860 C1861 1.405 . S
C1861 H1835 0.950 . S
C1861 C1860 1.405 . S
C1861 C1862 1.367 . S
C1862 H1836 0.950 . S
C1862 C1857 1.386 . S
C1862 C1861 1.367 . S
C1863 C1857 1.483 . S
C1863 C1864 1.382 . S
C1863 C1865 1.403 . S
C1864 H1837 0.950 . S
C1864 C1850 1.411 . S
C1864 C1863 1.382 . S
C1865 C1849 1.411 . S
C1865 C1863 1.403 . S
C1865 C1866 1.489 . S
C1866 C1865 1.489 . S
C1866 C1867 1.383 . S
C1866 C1871 1.382 . S
C1867 H1838 0.950 . S
C1867 C1866 1.383 . S
C1867 C1868 1.395 . S
C1868 H1839 0.950 . S
C1868 C1867 1.395 . S
C1868 C1869 1.288 . S
C1869 C1868 1.288 . S
C1869 C1870 1.392 . S
C1870 H1840 0.951 . S
C1870 C1869 1.392 . S
C1870 C1871 1.392 . S
C1871 H1841 0.949 . S
C1871 C1866 1.382 . S
C1871 C1870 1.392 . S
H1872 C1891 0.949 . S
H1873 C1892 0.950 . S
H1874 C1894 0.950 . S
H1875 C1895 0.950 . S
H1876 C1897 0.950 . S
H1877 C1900 0.950 . S
H1878 C1901 0.950 . S
H1879 C1903 0.951 . S
H1880 C1904 0.949 . S
H1881 C1906 0.949 . S
H1882 C1907 0.950 . S
H1883 C1909 0.950 . S
H1884 C1910 0.950 . S
H1885 C1912 0.950 . S
H1886 C1915 0.950 . S
H1887 C1916 0.950 . S
H1888 C1918 0.951 . S
H1889 C1919 0.949 . S
C1890 C1891 1.376 . S
C1890 C1895 1.386 . S
C1890 C1896 1.483 . S
C1891 H1872 0.949 . S
C1891 C1890 1.376 . S
C1891 C1892 1.397 . S
C1892 H1873 0.950 . S
C1892 C1891 1.397 . S
C1892 C1893 1.391 . S
C1893 C1892 1.391 . S
C1893 C1894 1.405 . S
C1894 H1874 0.950 . S
C1894 C1893 1.405 . S
C1894 C1895 1.367 . S
C1895 H1875 0.950 . S
C1895 C1890 1.386 . S
C1895 C1894 1.367 . S
C1896 C1890 1.483 . S
C1896 C1897 1.382 . S
C1896 C1898 1.403 . S
C1897 H1876 0.950 . S
C1897 C1896 1.382 . S
C1897 C1913 1.411 . S
C1898 C1896 1.403 . S
C1898 C1899 1.489 . S
C1898 C1912 1.411 . S
C1899 C1898 1.489 . S
C1899 C1900 1.383 . S
C1899 C1904 1.382 . S
C1900 H1877 0.950 . S
C1900 C1899 1.383 . S
C1900 C1901 1.395 . S
C1901 H1878 0.950 . S
C1901 C1900 1.395 . S
C1901 C1902 1.288 . S
C1902 C1901 1.288 . S
C1902 C1903 1.392 . S
C1903 H1879 0.951 . S
C1903 C1902 1.392 . S
C1903 C1904 1.392 . S
C1904 H1880 0.949 . S
C1904 C1899 1.382 . S
C1904 C1903 1.392 . S
C1905 C1906 1.376 . S
C1905 C1910 1.386 . S
C1905 C1911 1.483 . S
C1906 H1881 0.949 . S
C1906 C1905 1.376 . S
C1906 C1907 1.397 . S
C1907 H1882 0.950 . S
C1907 C1906 1.397 . S
C1907 C1908 1.391 . S
C1908 C1907 1.391 . S
C1908 C1909 1.405 . S
C1909 H1883 0.950 . S
C1909 C1908 1.405 . S
C1909 C1910 1.367 . S
C1910 H1884 0.950 . S
C1910 C1905 1.386 . S
C1910 C1909 1.367 . S
C1911 C1905 1.483 . S
C1911 C1912 1.382 . S
C1911 C1913 1.403 . S
C1912 H1885 0.950 . S
C1912 C1898 1.411 . S
C1912 C1911 1.382 . S
C1913 C1897 1.411 . S
C1913 C1911 1.403 . S
C1913 C1914 1.489 . S
C1914 C1913 1.489 . S
C1914 C1915 1.383 . S
C1914 C1919 1.382 . S
C1915 H1886 0.950 . S
C1915 C1914 1.383 . S
C1915 C1916 1.395 . S
C1916 H1887 0.950 . S
C1916 C1915 1.395 . S
C1916 C1917 1.288 . S
C1917 C1916 1.288 . S
C1917 C1918 1.392 . S
C1918 H1888 0.951 . S
C1918 C1917 1.392 . S
C1918 C1919 1.392 . S
C1919 H1889 0.949 . S
C1919 C1914 1.382 . S
C1919 C1918 1.392 . S
H1920 C1939 0.949 . S
H1921 C1940 0.950 . S
H1922 C1942 0.950 . S
H1923 C1943 0.950 . S
H1924 C1945 0.950 . S
H1925 C1948 0.950 . S
H1926 C1949 0.950 . S
H1927 C1951 0.951 . S
H1928 C1952 0.949 . S
H1929 C1954 0.949 . S
H1930 C1955 0.950 . S
H1931 C1957 0.950 . S
H1932 C1958 0.950 . S
H1933 C1960 0.950 . S
H1934 C1963 0.950 . S
H1935 C1964 0.950 . S
H1936 C1966 0.951 . S
H1937 C1967 0.949 . S
C1938 C1939 1.376 . S
C1938 C1943 1.386 . S
C1938 C1944 1.483 . S
C1939 H1920 0.949 . S
C1939 C1938 1.376 . S
C1939 C1940 1.397 . S
C1940 H1921 0.950 . S
C1940 C1939 1.397 . S
C1940 C1941 1.391 . S
C1941 C1940 1.391 . S
C1941 C1942 1.405 . S
C1942 H1922 0.950 . S
C1942 C1941 1.405 . S
C1942 C1943 1.367 . S
C1943 H1923 0.950 . S
C1943 C1938 1.386 . S
C1943 C1942 1.367 . S
C1944 C1938 1.483 . S
C1944 C1945 1.382 . S
C1944 C1946 1.403 . S
C1945 H1924 0.950 . S
C1945 C1944 1.382 . S
C1945 C1961 1.411 . S
C1946 C1944 1.403 . S
C1946 C1947 1.489 . S
C1946 C1960 1.411 . S
C1947 C1946 1.489 . S
C1947 C1948 1.383 . S
C1947 C1952 1.382 . S
C1948 H1925 0.950 . S
C1948 C1947 1.383 . S
C1948 C1949 1.395 . S
C1949 H1926 0.950 . S
C1949 C1948 1.395 . S
C1949 C1950 1.288 . S
C1950 C1949 1.288 . S
C1950 C1951 1.392 . S
C1951 H1927 0.951 . S
C1951 C1950 1.392 . S
C1951 C1952 1.392 . S
C1952 H1928 0.949 . S
C1952 C1947 1.382 . S
C1952 C1951 1.392 . S
C1953 C1954 1.376 . S
C1953 C1958 1.386 . S
C1953 C1959 1.483 . S
C1954 H1929 0.949 . S
C1954 C1953 1.376 . S
C1954 C1955 1.397 . S
C1955 H1930 0.950 . S
C1955 C1954 1.397 . S
C1955 C1956 1.391 . S
C1956 C1955 1.391 . S
C1956 C1957 1.405 . S
C1957 H1931 0.950 . S
C1957 C1956 1.405 . S
C1957 C1958 1.367 . S
C1958 H1932 0.950 . S
C1958 C1953 1.386 . S
C1958 C1957 1.367 . S
C1959 C1953 1.483 . S
C1959 C1960 1.382 . S
C1959 C1961 1.403 . S
C1960 H1933 0.950 . S
C1960 C1946 1.411 . S
C1960 C1959 1.382 . S
C1961 C1945 1.411 . S
C1961 C1959 1.403 . S
C1961 C1962 1.489 . S
C1962 C1961 1.489 . S
C1962 C1963 1.383 . S
C1962 C1967 1.382 . S
C1963 H1934 0.950 . S
C1963 C1962 1.383 . S
C1963 C1964 1.395 . S
C1964 H1935 0.950 . S
C1964 C1963 1.395 . S
C1964 C1965 1.288 . S
C1965 C1964 1.288 . S
C1965 C1966 1.392 . S
C1966 H1936 0.951 . S
C1966 C1965 1.392 . S
C1966 C1967 1.392 . S
C1967 H1937 0.949 . S
C1967 C1962 1.382 . S
C1967 C1966 1.392 . S
H1968 C1987 0.949 . S
H1969 C1988 0.950 . S
H1970 C1990 0.950 . S
H1971 C1991 0.950 . S
H1972 C1993 0.950 . S
H1973 C1996 0.950 . S
H1974 C1997 0.950 . S
H1975 C1999 0.951 . S
H1976 C2000 0.949 . S
H1977 C2002 0.949 . S
H1978 C2003 0.950 . S
H1979 C2005 0.950 . S
H1980 C2006 0.950 . S
H1981 C2008 0.950 . S
H1982 C2011 0.950 . S
H1983 C2012 0.950 . S
H1984 C2014 0.951 . S
H1985 C2015 0.949 . S
C1986 C1987 1.376 . S
C1986 C1991 1.386 . S
C1986 C1992 1.483 . S
C1987 H1968 0.949 . S
C1987 C1986 1.376 . S
C1987 C1988 1.397 . S
C1988 H1969 0.950 . S
C1988 C1987 1.397 . S
C1988 C1989 1.391 . S
C1989 C1988 1.391 . S
C1989 C1990 1.405 . S
C1990 H1970 0.950 . S
C1990 C1989 1.405 . S
C1990 C1991 1.367 . S
C1991 H1971 0.950 . S
C1991 C1986 1.386 . S
C1991 C1990 1.367 . S
C1992 C1986 1.483 . S
C1992 C1993 1.382 . S
C1992 C1994 1.403 . S
C1993 H1972 0.950 . S
C1993 C1992 1.382 . S
C1993 C2009 1.411 . S
C1994 C1992 1.403 . S
C1994 C1995 1.489 . S
C1994 C2008 1.411 . S
C1995 C1994 1.489 . S
C1995 C1996 1.383 . S
C1995 C2000 1.382 . S
C1996 H1973 0.950 . S
C1996 C1995 1.383 . S
C1996 C1997 1.395 . S
C1997 H1974 0.950 . S
C1997 C1996 1.395 . S
C1997 C1998 1.288 . S
C1998 C1997 1.288 . S
C1998 C1999 1.392 . S
C1999 H1975 0.951 . S
C1999 C1998 1.392 . S
C1999 C2000 1.392 . S
C2000 H1976 0.949 . S
C2000 C1995 1.382 . S
C2000 C1999 1.392 . S
C2001 C2002 1.376 . S
C2001 C2006 1.386 . S
C2001 C2007 1.483 . S
C2002 H1977 0.949 . S
C2002 C2001 1.376 . S
C2002 C2003 1.397 . S
C2003 H1978 0.950 . S
C2003 C2002 1.397 . S
C2003 C2004 1.391 . S
C2004 C2003 1.391 . S
C2004 C2005 1.405 . S
C2005 H1979 0.950 . S
C2005 C2004 1.405 . S
C2005 C2006 1.367 . S
C2006 H1980 0.950 . S
C2006 C2001 1.386 . S
C2006 C2005 1.367 . S
C2007 C2001 1.483 . S
C2007 C2008 1.382 . S
C2007 C2009 1.403 . S
C2008 H1981 0.950 . S
C2008 C1994 1.411 . S
C2008 C2007 1.382 . S
C2009 C1993 1.411 . S
C2009 C2007 1.403 . S
C2009 C2010 1.489 . S
C2010 C2009 1.489 . S
C2010 C2011 1.383 . S
C2010 C2015 1.382 . S
C2011 H1982 0.950 . S
C2011 C2010 1.383 . S
C2011 C2012 1.395 . S
C2012 H1983 0.950 . S
C2012 C2011 1.395 . S
C2012 C2013 1.288 . S
C2013 C2012 1.288 . S
C2013 C2014 1.392 . S
C2014 H1984 0.951 . S
C2014 C2013 1.392 . S
C2014 C2015 1.392 . S
C2015 H1985 0.949 . S
C2015 C2010 1.382 . S
C2015 C2014 1.392 . S
H2016 C2035 0.949 . S
H2017 C2036 0.950 . S
H2018 C2038 0.950 . S
H2019 C2039 0.950 . S
H2020 C2041 0.950 . S
H2021 C2044 0.950 . S
H2022 C2045 0.950 . S
H2023 C2047 0.951 . S
H2024 C2048 0.949 . S
H2025 C2050 0.949 . S
H2026 C2051 0.950 . S
H2027 C2053 0.950 . S
H2028 C2054 0.950 . S
H2029 C2056 0.950 . S
H2030 C2059 0.950 . S
H2031 C2060 0.950 . S
H2032 C2062 0.951 . S
H2033 C2063 0.949 . S
C2034 C2035 1.376 . S
C2034 C2039 1.386 1_655 S
C2034 C2040 1.483 . S
C2035 H2016 0.949 . S
C2035 C2034 1.376 . S
C2035 C2036 1.397 . S
C2036 H2017 0.950 . S
C2036 C2035 1.397 . S
C2036 C2037 1.391 . S
C2037 C2036 1.391 . S
C2037 C2038 1.405 1_655 S
C2038 H2018 0.950 . S
C2038 C2037 1.405 1_455 S
C2038 C2039 1.367 . S
C2039 H2019 0.950 . S
C2039 C2034 1.386 1_455 S
C2039 C2038 1.367 . S
C2040 C2034 1.483 . S
C2040 C2041 1.382 . S
C2040 C2042 1.403 1_655 S
C2041 H2020 0.950 . S
C2041 C2040 1.382 . S
C2041 C2057 1.411 . S
C2042 C2040 1.403 1_455 S
C2042 C2043 1.489 . S
C2042 C2056 1.411 . S
C2043 C2042 1.489 . S
C2043 C2044 1.383 1_455 S
C2043 C2048 1.382 . S
C2044 H2021 0.950 . S
C2044 C2043 1.383 1_655 S
C2044 C2045 1.395 . S
C2045 H2022 0.950 . S
C2045 C2044 1.395 . S
C2045 C2046 1.288 1_655 S
C2046 C2045 1.288 1_455 S
C2046 C2047 1.392 . S
C2047 H2023 0.951 . S
C2047 C2046 1.392 . S
C2047 C2048 1.392 . S
C2048 H2024 0.949 . S
C2048 C2043 1.382 . S
C2048 C2047 1.392 . S
C2049 C2050 1.376 . S
C2049 C2054 1.386 1_455 S
C2049 C2055 1.483 . S
C2050 H2025 0.949 . S
C2050 C2049 1.376 . S
C2050 C2051 1.397 . S
C2051 H2026 0.950 . S
C2051 C2050 1.397 . S
C2051 C2052 1.391 . S
C2052 C2051 1.391 . S
C2052 C2053 1.405 1_455 S
C2053 H2027 0.950 . S
C2053 C2052 1.405 1_655 S
C2053 C2054 1.367 . S
C2054 H2028 0.950 . S
C2054 C2049 1.386 1_655 S
C2054 C2053 1.367 . S
C2055 C2049 1.483 . S
C2055 C2056 1.382 . S
C2055 C2057 1.403 1_455 S
C2056 H2029 0.950 . S
C2056 C2042 1.411 . S
C2056 C2055 1.382 . S
C2057 C2041 1.411 . S
C2057 C2055 1.403 1_655 S
C2057 C2058 1.489 . S
C2058 C2057 1.489 . S
C2058 C2059 1.383 1_655 S
C2058 C2063 1.382 . S
C2059 H2030 0.950 . S
C2059 C2058 1.383 1_455 S
C2059 C2060 1.395 . S
C2060 H2031 0.950 . S
C2060 C2059 1.395 . S
C2060 C2061 1.288 1_455 S
C2061 C2060 1.288 1_655 S
C2061 C2062 1.392 . S
C2062 H2032 0.951 . S
C2062 C2061 1.392 . S
C2062 C2063 1.392 . S
C2063 H2033 0.949 . S
C2063 C2058 1.382 . S
C2063 C2062 1.392 . S
H2064 C2083 0.949 . S
H2065 C2084 0.950 . S
H2066 C2086 0.950 . S
H2067 C2087 0.950 . S
H2068 C2089 0.950 . S
H2069 C2092 0.950 . S
H2070 C2093 0.950 . S
H2071 C2095 0.951 . S
H2072 C2096 0.949 . S
H2073 C2098 0.949 . S
H2074 C2099 0.950 . S
H2075 C2101 0.950 . S
H2076 C2102 0.950 . S
H2077 C2104 0.950 . S
H2078 C2107 0.950 . S
H2079 C2108 0.950 . S
H2080 C2110 0.951 . S
H2081 C2111 0.949 . S
C2082 C2083 1.376 . S
C2082 C2087 1.386 . S
C2082 C2088 1.483 . S
C2083 H2064 0.949 . S
C2083 C2082 1.376 . S
C2083 C2084 1.397 . S
C2084 H2065 0.950 . S
C2084 C2083 1.397 . S
C2084 C2085 1.391 . S
C2085 C2084 1.391 . S
C2085 C2086 1.405 . S
C2086 H2066 0.950 . S
C2086 C2085 1.405 . S
C2086 C2087 1.367 . S
C2087 H2067 0.950 . S
C2087 C2082 1.386 . S
C2087 C2086 1.367 . S
C2088 C2082 1.483 . S
C2088 C2089 1.382 . S
C2088 C2090 1.403 . S
C2089 H2068 0.950 . S
C2089 C2088 1.382 . S
C2089 C2105 1.411 . S
C2090 C2088 1.403 . S
C2090 C2091 1.489 . S
C2090 C2104 1.411 . S
C2091 C2090 1.489 . S
C2091 C2092 1.383 . S
C2091 C2096 1.382 . S
C2092 H2069 0.950 . S
C2092 C2091 1.383 . S
C2092 C2093 1.395 . S
C2093 H2070 0.950 . S
C2093 C2092 1.395 . S
C2093 C2094 1.288 . S
C2094 C2093 1.288 . S
C2094 C2095 1.392 . S
C2095 H2071 0.951 . S
C2095 C2094 1.392 . S
C2095 C2096 1.392 . S
C2096 H2072 0.949 . S
C2096 C2091 1.382 . S
C2096 C2095 1.392 . S
C2097 C2098 1.376 . S
C2097 C2102 1.386 . S
C2097 C2103 1.483 . S
C2098 H2073 0.949 . S
C2098 C2097 1.376 . S
C2098 C2099 1.397 . S
C2099 H2074 0.950 . S
C2099 C2098 1.397 . S
C2099 C2100 1.391 . S
C2100 C2099 1.391 . S
C2100 C2101 1.405 . S
C2101 H2075 0.950 . S
C2101 C2100 1.405 . S
C2101 C2102 1.367 . S
C2102 H2076 0.950 . S
C2102 C2097 1.386 . S
C2102 C2101 1.367 . S
C2103 C2097 1.483 . S
C2103 C2104 1.382 . S
C2103 C2105 1.403 . S
C2104 H2077 0.950 . S
C2104 C2090 1.411 . S
C2104 C2103 1.382 . S
C2105 C2089 1.411 . S
C2105 C2103 1.403 . S
C2105 C2106 1.489 . S
C2106 C2105 1.489 . S
C2106 C2107 1.383 . S
C2106 C2111 1.382 . S
C2107 H2078 0.950 . S
C2107 C2106 1.383 . S
C2107 C2108 1.395 . S
C2108 H2079 0.950 . S
C2108 C2107 1.395 . S
C2108 C2109 1.288 . S
C2109 C2108 1.288 . S
C2109 C2110 1.392 . S
C2110 H2080 0.951 . S
C2110 C2109 1.392 . S
C2110 C2111 1.392 . S
C2111 H2081 0.949 . S
C2111 C2106 1.382 . S
C2111 C2110 1.392 . S
H2112 C2131 0.949 . S
H2113 C2132 0.950 . S
H2114 C2134 0.950 . S
H2115 C2135 0.950 . S
H2116 C2137 0.950 . S
H2117 C2140 0.950 . S
H2118 C2141 0.950 . S
H2119 C2143 0.951 . S
H2120 C2144 0.949 . S
H2121 C2146 0.949 . S
H2122 C2147 0.950 . S
H2123 C2149 0.950 . S
H2124 C2150 0.950 . S
H2125 C2152 0.950 . S
H2126 C2155 0.950 . S
H2127 C2156 0.950 . S
H2128 C2158 0.951 . S
H2129 C2159 0.949 . S
C2130 C2131 1.376 . S
C2130 C2135 1.386 1_545 S
C2130 C2136 1.483 . S
C2131 H2112 0.949 . S
C2131 C2130 1.376 . S
C2131 C2132 1.397 . S
C2132 H2113 0.950 . S
C2132 C2131 1.397 . S
C2132 C2133 1.391 . S
C2133 C2132 1.391 . S
C2133 C2134 1.405 1_545 S
C2134 H2114 0.950 . S
C2134 C2133 1.405 1_565 S
C2134 C2135 1.367 . S
C2135 H2115 0.950 . S
C2135 C2130 1.386 1_565 S
C2135 C2134 1.367 . S
C2136 C2130 1.483 . S
C2136 C2137 1.382 . S
C2136 C2138 1.403 1_545 S
C2137 H2116 0.950 . S
C2137 C2136 1.382 . S
C2137 C2153 1.411 . S
C2138 C2136 1.403 1_565 S
C2138 C2139 1.489 . S
C2138 C2152 1.411 . S
C2139 C2138 1.489 . S
C2139 C2140 1.383 1_565 S
C2139 C2144 1.382 . S
C2140 H2117 0.950 . S
C2140 C2139 1.383 1_545 S
C2140 C2141 1.395 . S
C2141 H2118 0.950 . S
C2141 C2140 1.395 . S
C2141 C2142 1.288 1_545 S
C2142 C2141 1.288 1_565 S
C2142 C2143 1.392 . S
C2143 H2119 0.951 . S
C2143 C2142 1.392 . S
C2143 C2144 1.392 . S
C2144 H2120 0.949 . S
C2144 C2139 1.382 . S
C2144 C2143 1.392 . S
C2145 C2146 1.376 . S
C2145 C2150 1.386 1_565 S
C2145 C2151 1.483 . S
C2146 H2121 0.949 . S
C2146 C2145 1.376 . S
C2146 C2147 1.397 . S
C2147 H2122 0.950 . S
C2147 C2146 1.397 . S
C2147 C2148 1.391 . S
C2148 C2147 1.391 . S
C2148 C2149 1.405 1_565 S
C2149 H2123 0.950 . S
C2149 C2148 1.405 1_545 S
C2149 C2150 1.367 . S
C2150 H2124 0.950 . S
C2150 C2145 1.386 1_545 S
C2150 C2149 1.367 . S
C2151 C2145 1.483 . S
C2151 C2152 1.382 . S
C2151 C2153 1.403 1_565 S
C2152 H2125 0.950 . S
C2152 C2138 1.411 . S
C2152 C2151 1.382 . S
C2153 C2137 1.411 . S
C2153 C2151 1.403 1_545 S
C2153 C2154 1.489 . S
C2154 C2153 1.489 . S
C2154 C2155 1.383 1_545 S
C2154 C2159 1.382 . S
C2155 H2126 0.950 . S
C2155 C2154 1.383 1_565 S
C2155 C2156 1.395 . S
C2156 H2127 0.950 . S
C2156 C2155 1.395 . S
C2156 C2157 1.288 1_565 S
C2157 C2156 1.288 1_545 S
C2157 C2158 1.392 . S
C2158 H2128 0.951 . S
C2158 C2157 1.392 . S
C2158 C2159 1.392 . S
C2159 H2129 0.949 . S
C2159 C2154 1.382 . S
C2159 C2158 1.392 . S
H2160 C2179 0.949 . S
H2161 C2180 0.950 . S
H2162 C2182 0.950 . S
H2163 C2183 0.950 . S
H2164 C2185 0.950 . S
H2165 C2188 0.950 . S
H2166 C2189 0.950 . S
H2167 C2191 0.951 . S
H2168 C2192 0.949 . S
H2169 C2194 0.949 . S
H2170 C2195 0.950 . S
H2171 C2197 0.950 . S
H2172 C2198 0.950 . S
H2173 C2200 0.966 . S
H2174 C2203 0.950 . S
H2175 C2204 0.950 . S
H2176 C2206 0.951 . S
H2177 C2207 0.949 . S
C2178 C2179 1.378 . S
C2178 C2183 1.385 1_545 S
C2178 C2184 1.506 . S
C2179 H2160 0.949 . S
C2179 C2178 1.378 . S
C2179 C2180 1.397 . S
C2180 H2161 0.950 . S
C2180 C2179 1.397 . S
C2180 C2181 1.391 1_545 S
C2181 C2180 1.391 1_565 S
C2181 C2182 1.405 . S
C2182 H2162 0.950 . S
C2182 C2181 1.405 . S
C2182 C2183 1.367 . S
C2183 H2163 0.950 . S
C2183 C2178 1.385 1_565 S
C2183 C2182 1.367 . S
C2184 C2178 1.506 . S
C2184 C2185 1.359 . S
C2184 C2186 1.399 1_545 S
C2185 H2164 0.950 . S
C2185 C2184 1.359 . S
C2185 C2201 1.440 . S
C2186 C2184 1.399 1_565 S
C2186 C2187 1.480 . S
C2186 C2200 1.377 . S
C2187 C2186 1.480 . S
C2187 C2188 1.373 1_565 S
C2187 C2192 1.387 . S
C2188 H2165 0.950 . S
C2188 C2187 1.373 1_545 S
C2188 C2189 1.395 . S
C2189 H2166 0.950 . S
C2189 C2188 1.395 . S
C2189 C2190 1.288 . S
C2190 C2189 1.288 . S
C2190 C2191 1.392 1_545 S
C2191 H2167 0.951 . S
C2191 C2190 1.392 1_565 S
C2191 C2192 1.392 . S
C2192 H2168 0.949 . S
C2192 C2187 1.387 . S
C2192 C2191 1.392 . S
C2193 C2194 1.378 1_545 S
C2193 C2198 1.385 . S
C2193 C2199 1.495 1_545 S
C2194 H2169 0.949 . S
C2194 C2193 1.378 1_565 S
C2194 C2195 1.397 . S
C2195 H2170 0.950 . S
C2195 C2194 1.397 . S
C2195 C2196 1.391 1_565 S
C2196 C2195 1.391 1_545 S
C2196 C2197 1.405 . S
C2197 H2171 0.950 . S
C2197 C2196 1.405 . S
C2197 C2198 1.367 . S
C2198 H2172 0.950 . S
C2198 C2193 1.385 . S
C2198 C2197 1.367 . S
C2199 C2193 1.495 1_565 S
C2199 C2200 1.412 . S
C2199 C2201 1.399 1_565 S
C2200 H2173 0.966 . S
C2200 C2186 1.377 . S
C2200 C2199 1.412 . S
C2201 C2185 1.440 . S
C2201 C2199 1.399 1_545 S
C2201 C2202 1.480 . S
C2202 C2201 1.480 . S
C2202 C2203 1.348 1_545 S
C2202 C2207 1.400 . S
C2203 H2174 0.950 . S
C2203 C2202 1.348 1_565 S
C2203 C2204 1.395 . S
C2204 H2175 0.950 . S
C2204 C2203 1.395 . S
C2204 C2205 1.346 . S
C2205 C2204 1.346 . S
C2205 C2206 1.282 1_565 S
C2206 H2176 0.951 . S
C2206 C2205 1.282 1_545 S
C2206 C2207 1.392 . S
C2207 H2177 0.949 . S
C2207 C2202 1.400 . S
C2207 C2206 1.392 . S
H2208 C2227 0.949 . S
H2209 C2228 0.950 . S
H2210 C2230 0.950 . S
H2211 C2231 0.950 . S
H2212 C2233 0.950 . S
H2213 C2236 0.950 . S
H2214 C2237 0.950 . S
H2215 C2239 0.951 . S
H2216 C2240 0.949 . S
H2217 C2242 0.949 . S
H2218 C2243 0.950 . S
H2219 C2245 0.950 . S
H2220 C2246 0.950 . S
H2221 C2248 0.950 . S
H2222 C2251 0.950 . S
H2223 C2252 0.950 . S
H2224 C2254 0.951 . S
H2225 C2255 0.949 . S
C2226 C2227 1.376 . S
C2226 C2231 1.386 1_455 S
C2226 C2232 1.483 . S
C2227 H2208 0.949 . S
C2227 C2226 1.376 . S
C2227 C2228 1.397 . S
C2228 H2209 0.950 . S
C2228 C2227 1.397 . S
C2228 C2229 1.391 . S
C2229 C2228 1.391 . S
C2229 C2230 1.405 1_455 S
C2230 H2210 0.950 . S
C2230 C2229 1.405 1_655 S
C2230 C2231 1.367 . S
C2231 H2211 0.950 . S
C2231 C2226 1.386 1_655 S
C2231 C2230 1.367 . S
C2232 C2226 1.483 . S
C2232 C2233 1.382 . S
C2232 C2234 1.403 1_455 S
C2233 H2212 0.950 . S
C2233 C2232 1.382 . S
C2233 C2249 1.411 . S
C2234 C2232 1.403 1_655 S
C2234 C2235 1.489 . S
C2234 C2248 1.411 . S
C2235 C2234 1.489 . S
C2235 C2236 1.383 1_655 S
C2235 C2240 1.382 . S
C2236 H2213 0.950 . S
C2236 C2235 1.383 1_455 S
C2236 C2237 1.395 . S
C2237 H2214 0.950 . S
C2237 C2236 1.395 . S
C2237 C2238 1.288 1_455 S
C2238 C2237 1.288 1_655 S
C2238 C2239 1.392 . S
C2239 H2215 0.951 . S
C2239 C2238 1.392 . S
C2239 C2240 1.392 . S
C2240 H2216 0.949 . S
C2240 C2235 1.382 . S
C2240 C2239 1.392 . S
C2241 C2242 1.376 . S
C2241 C2246 1.386 1_655 S
C2241 C2247 1.483 . S
C2242 H2217 0.949 . S
C2242 C2241 1.376 . S
C2242 C2243 1.397 . S
C2243 H2218 0.950 . S
C2243 C2242 1.397 . S
C2243 C2244 1.391 . S
C2244 C2243 1.391 . S
C2244 C2245 1.405 1_655 S
C2245 H2219 0.950 . S
C2245 C2244 1.405 1_455 S
C2245 C2246 1.367 . S
C2246 H2220 0.950 . S
C2246 C2241 1.386 1_455 S
C2246 C2245 1.367 . S
C2247 C2241 1.483 . S
C2247 C2248 1.382 . S
C2247 C2249 1.403 1_655 S
C2248 H2221 0.950 . S
C2248 C2234 1.411 . S
C2248 C2247 1.382 . S
C2249 C2233 1.411 . S
C2249 C2247 1.403 1_455 S
C2249 C2250 1.489 . S
C2250 C2249 1.489 . S
C2250 C2251 1.383 1_455 S
C2250 C2255 1.382 . S
C2251 H2222 0.950 . S
C2251 C2250 1.383 1_655 S
C2251 C2252 1.395 . S
C2252 H2223 0.950 . S
C2252 C2251 1.395 . S
C2252 C2253 1.288 1_655 S
C2253 C2252 1.288 1_455 S
C2253 C2254 1.392 . S
C2254 H2224 0.951 . S
C2254 C2253 1.392 . S
C2254 C2255 1.392 . S
C2255 H2225 0.949 . S
C2255 C2250 1.382 . S
C2255 C2254 1.392 . S
H2256 C2275 0.949 . S
H2257 C2276 0.950 . S
H2258 C2278 0.950 . S
H2259 C2279 0.950 . S
H2260 C2281 0.950 . S
H2261 C2284 0.950 . S
H2262 C2285 0.950 . S
H2263 C2287 0.951 . S
H2264 C2288 0.949 . S
H2265 C2290 0.949 . S
H2266 C2291 0.950 . S
H2267 C2293 0.950 . S
H2268 C2294 0.950 . S
H2269 C2296 0.950 . S
H2270 C2299 0.950 . S
H2271 C2300 0.950 . S
H2272 C2302 0.951 . S
H2273 C2303 0.949 . S
C2274 C2275 1.376 . S
C2274 C2279 1.386 . S
C2274 C2280 1.483 . S
C2275 H2256 0.949 . S
C2275 C2274 1.376 . S
C2275 C2276 1.397 . S
C2276 H2257 0.950 . S
C2276 C2275 1.397 . S
C2276 C2277 1.391 . S
C2277 C2276 1.391 . S
C2277 C2278 1.405 . S
C2278 H2258 0.950 . S
C2278 C2277 1.405 . S
C2278 C2279 1.367 . S
C2279 H2259 0.950 . S
C2279 C2274 1.386 . S
C2279 C2278 1.367 . S
C2280 C2274 1.483 . S
C2280 C2281 1.382 . S
C2280 C2282 1.403 . S
C2281 H2260 0.950 . S
C2281 C2280 1.382 . S
C2281 C2297 1.411 . S
C2282 C2280 1.403 . S
C2282 C2283 1.489 . S
C2282 C2296 1.411 . S
C2283 C2282 1.489 . S
C2283 C2284 1.383 . S
C2283 C2288 1.382 . S
C2284 H2261 0.950 . S
C2284 C2283 1.383 . S
C2284 C2285 1.395 . S
C2285 H2262 0.950 . S
C2285 C2284 1.395 . S
C2285 C2286 1.288 . S
C2286 C2285 1.288 . S
C2286 C2287 1.392 . S
C2287 H2263 0.951 . S
C2287 C2286 1.392 . S
C2287 C2288 1.392 . S
C2288 H2264 0.949 . S
C2288 C2283 1.382 . S
C2288 C2287 1.392 . S
C2289 C2290 1.376 . S
C2289 C2294 1.386 . S
C2289 C2295 1.483 . S
C2290 H2265 0.949 . S
C2290 C2289 1.376 . S
C2290 C2291 1.397 . S
C2291 H2266 0.950 . S
C2291 C2290 1.397 . S
C2291 C2292 1.391 . S
C2292 C2291 1.391 . S
C2292 C2293 1.405 . S
C2293 H2267 0.950 . S
C2293 C2292 1.405 . S
C2293 C2294 1.367 . S
C2294 H2268 0.950 . S
C2294 C2289 1.386 . S
C2294 C2293 1.367 . S
C2295 C2289 1.483 . S
C2295 C2296 1.382 . S
C2295 C2297 1.403 . S
C2296 H2269 0.950 . S
C2296 C2282 1.411 . S
C2296 C2295 1.382 . S
C2297 C2281 1.411 . S
C2297 C2295 1.403 . S
C2297 C2298 1.489 . S
C2298 C2297 1.489 . S
C2298 C2299 1.383 . S
C2298 C2303 1.382 . S
C2299 H2270 0.950 . S
C2299 C2298 1.383 . S
C2299 C2300 1.395 . S
C2300 H2271 0.950 . S
C2300 C2299 1.395 . S
C2300 C2301 1.288 . S
C2301 C2300 1.288 . S
C2301 C2302 1.392 . S
C2302 H2272 0.951 . S
C2302 C2301 1.392 . S
C2302 C2303 1.392 . S
C2303 H2273 0.949 . S
C2303 C2298 1.382 . S
C2303 C2302 1.392 . S
H2304 C2323 0.949 . S
H2305 C2324 0.950 . S
H2306 C2326 0.950 . S
H2307 C2327 0.950 . S
H2308 C2329 0.950 . S
H2309 C2332 0.950 . S
H2310 C2333 0.950 . S
H2311 C2335 0.951 . S
H2312 C2336 0.949 . S
H2313 C2338 0.949 . S
H2314 C2339 0.950 . S
H2315 C2341 0.950 . S
H2316 C2342 0.950 . S
H2317 C2344 0.950 . S
H2318 C2347 0.950 . S
H2319 C2348 0.950 . S
H2320 C2350 0.951 . S
H2321 C2351 0.949 . S
C2322 C2323 1.376 . S
C2322 C2327 1.386 . S
C2322 C2328 1.483 . S
C2323 H2304 0.949 . S
C2323 C2322 1.376 . S
C2323 C2324 1.397 . S
C2324 H2305 0.950 . S
C2324 C2323 1.397 . S
C2324 C2325 1.391 . S
C2325 C2324 1.391 . S
C2325 C2326 1.405 . S
C2326 H2306 0.950 . S
C2326 C2325 1.405 . S
C2326 C2327 1.367 . S
C2327 H2307 0.950 . S
C2327 C2322 1.386 . S
C2327 C2326 1.367 . S
C2328 C2322 1.483 . S
C2328 C2329 1.382 . S
C2328 C2330 1.403 . S
C2329 H2308 0.950 . S
C2329 C2328 1.382 . S
C2329 C2345 1.411 . S
C2330 C2328 1.403 . S
C2330 C2331 1.489 . S
C2330 C2344 1.411 . S
C2331 C2330 1.489 . S
C2331 C2332 1.383 . S
C2331 C2336 1.382 . S
C2332 H2309 0.950 . S
C2332 C2331 1.383 . S
C2332 C2333 1.395 . S
C2333 H2310 0.950 . S
C2333 C2332 1.395 . S
C2333 C2334 1.288 . S
C2334 C2333 1.288 . S
C2334 C2335 1.392 . S
C2335 H2311 0.951 . S
C2335 C2334 1.392 . S
C2335 C2336 1.392 . S
C2336 H2312 0.949 . S
C2336 C2331 1.382 . S
C2336 C2335 1.392 . S
C2337 C2338 1.376 . S
C2337 C2342 1.386 . S
C2337 C2343 1.483 . S
C2338 H2313 0.949 . S
C2338 C2337 1.376 . S
C2338 C2339 1.397 . S
C2339 H2314 0.950 . S
C2339 C2338 1.397 . S
C2339 C2340 1.391 . S
C2340 C2339 1.391 . S
C2340 C2341 1.405 . S
C2341 H2315 0.950 . S
C2341 C2340 1.405 . S
C2341 C2342 1.367 . S
C2342 H2316 0.950 . S
C2342 C2337 1.386 . S
C2342 C2341 1.367 . S
C2343 C2337 1.483 . S
C2343 C2344 1.382 . S
C2343 C2345 1.403 . S
C2344 H2317 0.950 . S
C2344 C2330 1.411 . S
C2344 C2343 1.382 . S
C2345 C2329 1.411 . S
C2345 C2343 1.403 . S
C2345 C2346 1.489 . S
C2346 C2345 1.489 . S
C2346 C2347 1.383 . S
C2346 C2351 1.382 . S
C2347 H2318 0.950 . S
C2347 C2346 1.383 . S
C2347 C2348 1.395 . S
C2348 H2319 0.950 . S
C2348 C2347 1.395 . S
C2348 C2349 1.288 . S
C2349 C2348 1.288 . S
C2349 C2350 1.392 . S
C2350 H2320 0.951 . S
C2350 C2349 1.392 . S
C2350 C2351 1.392 . S
C2351 H2321 0.949 . S
C2351 C2346 1.382 . S
C2351 C2350 1.392 . S
H2352 C2371 0.949 . S
H2353 C2372 0.950 . S
H2354 C2374 0.950 . S
H2355 C2375 0.950 . S
H2356 C2377 0.950 . S
H2357 C2380 0.950 . S
H2358 C2381 0.950 . S
H2359 C2383 0.951 . S
H2360 C2384 0.949 . S
H2361 C2386 0.949 . S
H2362 C2387 0.950 . S
H2363 C2389 0.950 . S
H2364 C2390 0.950 . S
H2365 C2392 0.950 . S
H2366 C2395 0.950 . S
H2367 C2396 0.950 . S
H2368 C2398 0.951 . S
H2369 C2399 0.949 . S
C2370 C2371 1.376 . S
C2370 C2375 1.386 . S
C2370 C2376 1.483 . S
C2371 H2352 0.949 . S
C2371 C2370 1.376 . S
C2371 C2372 1.397 . S
C2372 H2353 0.950 . S
C2372 C2371 1.397 . S
C2372 C2373 1.391 . S
C2373 C2372 1.391 . S
C2373 C2374 1.405 . S
C2374 H2354 0.950 . S
C2374 C2373 1.405 . S
C2374 C2375 1.367 . S
C2375 H2355 0.950 . S
C2375 C2370 1.386 . S
C2375 C2374 1.367 . S
C2376 C2370 1.483 . S
C2376 C2377 1.382 . S
C2376 C2378 1.403 . S
C2377 H2356 0.950 . S
C2377 C2376 1.382 . S
C2377 C2393 1.411 . S
C2378 C2376 1.403 . S
C2378 C2379 1.489 . S
C2378 C2392 1.411 . S
C2379 C2378 1.489 . S
C2379 C2380 1.383 . S
C2379 C2384 1.382 . S
C2380 H2357 0.950 . S
C2380 C2379 1.383 . S
C2380 C2381 1.395 . S
C2381 H2358 0.950 . S
C2381 C2380 1.395 . S
C2381 C2382 1.288 . S
C2382 C2381 1.288 . S
C2382 C2383 1.392 . S
C2383 H2359 0.951 . S
C2383 C2382 1.392 . S
C2383 C2384 1.392 . S
C2384 H2360 0.949 . S
C2384 C2379 1.382 . S
C2384 C2383 1.392 . S
C2385 C2386 1.376 . S
C2385 C2390 1.386 . S
C2385 C2391 1.483 . S
C2386 H2361 0.949 . S
C2386 C2385 1.376 . S
C2386 C2387 1.397 . S
C2387 H2362 0.950 . S
C2387 C2386 1.397 . S
C2387 C2388 1.391 . S
C2388 C2387 1.391 . S
C2388 C2389 1.405 . S
C2389 H2363 0.950 . S
C2389 C2388 1.405 . S
C2389 C2390 1.367 . S
C2390 H2364 0.950 . S
C2390 C2385 1.386 . S
C2390 C2389 1.367 . S
C2391 C2385 1.483 . S
C2391 C2392 1.382 . S
C2391 C2393 1.403 . S
C2392 H2365 0.950 . S
C2392 C2378 1.411 . S
C2392 C2391 1.382 . S
C2393 C2377 1.411 . S
C2393 C2391 1.403 . S
C2393 C2394 1.489 . S
C2394 C2393 1.489 . S
C2394 C2395 1.383 . S
C2394 C2399 1.382 . S
C2395 H2366 0.950 . S
C2395 C2394 1.383 . S
C2395 C2396 1.395 . S
C2396 H2367 0.950 . S
C2396 C2395 1.395 . S
C2396 C2397 1.288 . S
C2397 C2396 1.288 . S
C2397 C2398 1.392 . S
C2398 H2368 0.951 . S
C2398 C2397 1.392 . S
C2398 C2399 1.392 . S
C2399 H2369 0.949 . S
C2399 C2394 1.382 . S
C2399 C2398 1.392 . S
H2400 C2419 0.949 . S
H2401 C2420 0.950 . S
H2402 C2422 0.950 . S
H2403 C2423 0.950 . S
H2404 C2425 0.950 . S
H2405 C2428 0.950 . S
H2406 C2429 0.950 . S
H2407 C2431 0.951 . S
H2408 C2432 0.949 . S
H2409 C2434 0.949 . S
H2410 C2435 0.950 . S
H2411 C2437 0.950 . S
H2412 C2438 0.950 . S
H2413 C2440 0.950 . S
H2414 C2443 0.950 . S
H2415 C2444 0.950 . S
H2416 C2446 0.951 . S
H2417 C2447 0.949 . S
C2418 C2419 1.376 . S
C2418 C2423 1.386 . S
C2418 C2424 1.483 . S
C2419 H2400 0.949 . S
C2419 C2418 1.376 . S
C2419 C2420 1.397 . S
C2420 H2401 0.950 . S
C2420 C2419 1.397 . S
C2420 C2421 1.391 . S
C2421 C2420 1.391 . S
C2421 C2422 1.405 . S
C2422 H2402 0.950 . S
C2422 C2421 1.405 . S
C2422 C2423 1.367 . S
C2423 H2403 0.950 . S
C2423 C2418 1.386 . S
C2423 C2422 1.367 . S
C2424 C2418 1.483 . S
C2424 C2425 1.382 . S
C2424 C2426 1.403 . S
C2425 H2404 0.950 . S
C2425 C2424 1.382 . S
C2425 C2441 1.411 . S
C2426 C2424 1.403 . S
C2426 C2427 1.489 . S
C2426 C2440 1.411 . S
C2427 C2426 1.489 . S
C2427 C2428 1.383 . S
C2427 C2432 1.382 . S
C2428 H2405 0.950 . S
C2428 C2427 1.383 . S
C2428 C2429 1.395 . S
C2429 H2406 0.950 . S
C2429 C2428 1.395 . S
C2429 C2430 1.288 . S
C2430 C2429 1.288 . S
C2430 C2431 1.392 . S
C2431 H2407 0.951 . S
C2431 C2430 1.392 . S
C2431 C2432 1.392 . S
C2432 H2408 0.949 . S
C2432 C2427 1.382 . S
C2432 C2431 1.392 . S
C2433 C2434 1.376 . S
C2433 C2438 1.386 . S
C2433 C2439 1.483 . S
C2434 H2409 0.949 . S
C2434 C2433 1.376 . S
C2434 C2435 1.397 . S
C2435 H2410 0.950 . S
C2435 C2434 1.397 . S
C2435 C2436 1.391 . S
C2436 C2435 1.391 . S
C2436 C2437 1.405 . S
C2437 H2411 0.950 . S
C2437 C2436 1.405 . S
C2437 C2438 1.367 . S
C2438 H2412 0.950 . S
C2438 C2433 1.386 . S
C2438 C2437 1.367 . S
C2439 C2433 1.483 . S
C2439 C2440 1.382 . S
C2439 C2441 1.403 . S
C2440 H2413 0.950 . S
C2440 C2426 1.411 . S
C2440 C2439 1.382 . S
C2441 C2425 1.411 . S
C2441 C2439 1.403 . S
C2441 C2442 1.489 . S
C2442 C2441 1.489 . S
C2442 C2443 1.383 . S
C2442 C2447 1.382 . S
C2443 H2414 0.950 . S
C2443 C2442 1.383 . S
C2443 C2444 1.395 . S
C2444 H2415 0.950 . S
C2444 C2443 1.395 . S
C2444 C2445 1.288 . S
C2445 C2444 1.288 . S
C2445 C2446 1.392 . S
C2446 H2416 0.951 . S
C2446 C2445 1.392 . S
C2446 C2447 1.392 . S
C2447 H2417 0.949 . S
C2447 C2442 1.382 . S
C2447 C2446 1.392 . S
C2448 C2449 1.349 . S
C2448 C2450 1.327 . S
C2448 H2473 0.950 1_655 S
C2449 C2448 1.349 . S
C2449 C2465 1.349 . S
C2450 C2448 1.327 . S
C2450 C2469 1.429 . S
C2450 H2474 0.950 1_655 S
C2451 C2468 1.574 . S
C2451 C2470 1.368 . S
C2451 H2475 0.949 . S
H2452 C2456 0.949 . S
C2453 C2454 1.349 . S
C2453 C2455 1.327 . S
C2453 H2476 0.950 . S
C2454 C2453 1.349 . S
C2454 C2466 1.349 1_655 S
C2455 C2453 1.327 . S
C2455 C2471 1.429 . S
C2455 H2477 0.950 . S
C2456 H2452 0.949 . S
C2456 C2464 1.574 . S
C2456 C2472 1.368 1_455 S
H2457 C2465 0.950 . S
H2458 C2463 0.950 . S
H2459 C2464 0.949 . S
H2460 C2466 0.950 . S
H2461 C2467 0.950 . S
H2462 C2468 0.949 . S
C2463 H2458 0.950 . S
C2463 C2465 1.327 . S
C2463 C2469 1.429 . S
C2464 C2456 1.574 . S
C2464 H2459 0.949 . S
C2464 C2470 1.368 1_455 S
C2465 C2449 1.349 . S
C2465 H2457 0.950 . S
C2465 C2463 1.327 . S
C2466 C2454 1.349 1_455 S
C2466 H2460 0.950 . S
C2466 C2467 1.327 . S
C2467 H2461 0.950 . S
C2467 C2466 1.327 . S
C2467 C2471 1.429 1_455 S
C2468 C2451 1.574 . S
C2468 H2462 0.949 . S
C2468 C2472 1.368 . S
C2469 C2450 1.429 . S
C2469 C2463 1.429 . S
C2469 C2470 1.523 . S
C2470 C2451 1.368 . S
C2470 C2464 1.368 1_655 S
C2470 C2469 1.523 . S
C2471 C2455 1.429 . S
C2471 C2467 1.429 1_655 S
C2471 C2472 1.523 . S
C2472 C2456 1.368 1_655 S
C2472 C2468 1.368 . S
C2472 C2471 1.523 . S
H2473 C2448 0.950 1_455 S
H2474 C2450 0.950 1_455 S
H2475 C2451 0.949 . S
H2476 C2453 0.950 . S
H2477 C2455 0.950 . S
C2478 C2479 1.349 . S
C2478 C2480 1.327 . S
C2478 H2503 0.950 . S
C2479 C2478 1.349 . S
C2479 C2495 1.349 . S
C2480 C2478 1.327 . S
C2480 C2499 1.429 . S
C2480 H2504 0.950 . S
C2481 C2498 1.574 . S
C2481 C2500 1.368 . S
C2481 H2505 0.949 . S
H2482 C2486 0.949 . S
C2483 C2484 1.349 . S
C2483 C2485 1.327 . S
C2483 H2506 0.950 . S
C2484 C2483 1.349 . S
C2484 C2496 1.349 . S
C2485 C2483 1.327 . S
C2485 C2501 1.429 . S
C2485 H2507 0.950 . S
C2486 H2482 0.949 . S
C2486 C2494 1.574 . S
C2486 C2502 1.368 . S
H2487 C2495 0.950 . S
H2488 C2493 0.950 . S
H2489 C2494 0.949 . S
H2490 C2496 0.950 . S
H2491 C2497 0.950 . S
H2492 C2498 0.949 . S
C2493 H2488 0.950 . S
C2493 C2495 1.327 . S
C2493 C2499 1.429 . S
C2494 C2486 1.574 . S
C2494 H2489 0.949 . S
C2494 C2500 1.368 . S
C2495 C2479 1.349 . S
C2495 H2487 0.950 . S
C2495 C2493 1.327 . S
C2496 C2484 1.349 . S
C2496 H2490 0.950 . S
C2496 C2497 1.327 . S
C2497 H2491 0.950 . S
C2497 C2496 1.327 . S
C2497 C2501 1.429 . S
C2498 C2481 1.574 . S
C2498 H2492 0.949 . S
C2498 C2502 1.368 . S
C2499 C2480 1.429 . S
C2499 C2493 1.429 . S
C2499 C2500 1.523 . S
C2500 C2481 1.368 . S
C2500 C2494 1.368 . S
C2500 C2499 1.523 . S
C2501 C2485 1.429 . S
C2501 C2497 1.429 . S
C2501 C2502 1.523 . S
C2502 C2486 1.368 . S
C2502 C2498 1.368 . S
C2502 C2501 1.523 . S
H2503 C2478 0.950 . S
H2504 C2480 0.950 . S
H2505 C2481 0.949 . S
H2506 C2483 0.950 . S
H2507 C2485 0.950 . S
C2508 C2509 1.349 . S
C2508 C2510 1.327 . S
C2508 H2533 0.950 . S
C2509 C2508 1.349 . S
C2509 C2525 1.349 . S
C2510 C2508 1.327 . S
C2510 C2529 1.429 . S
C2510 H2534 0.950 . S
C2511 C2528 1.574 . S
C2511 C2530 1.368 . S
C2511 H2535 0.949 . S
H2512 C2516 0.949 . S
C2513 C2514 1.349 . S
C2513 C2515 1.327 . S
C2513 H2536 0.935 1_545 S
C2514 C2513 1.349 . S
C2514 C2526 1.349 . S
C2515 C2513 1.327 . S
C2515 C2531 1.429 . S
C2515 H2537 0.950 . S
C2516 H2512 0.949 . S
C2516 C2524 1.574 . S
C2516 C2532 1.368 . S
H2517 C2525 0.950 . S
H2518 C2523 0.950 . S
H2519 C2524 0.949 . S
H2520 C2526 0.950 . S
H2521 C2527 0.950 . S
H2522 C2528 0.949 . S
C2523 H2518 0.950 . S
C2523 C2525 1.327 . S
C2523 C2529 1.429 . S
C2524 C2516 1.574 . S
C2524 H2519 0.949 . S
C2524 C2530 1.368 . S
C2525 C2509 1.349 . S
C2525 H2517 0.950 . S
C2525 C2523 1.327 . S
C2526 C2514 1.349 . S
C2526 H2520 0.950 . S
C2526 C2527 1.327 . S
C2527 H2521 0.950 . S
C2527 C2526 1.327 . S
C2527 C2531 1.429 . S
C2528 C2511 1.574 . S
C2528 H2522 0.949 . S
C2528 C2532 1.368 . S
C2529 C2510 1.429 . S
C2529 C2523 1.429 . S
C2529 C2530 1.523 . S
C2530 C2511 1.368 . S
C2530 C2524 1.368 . S
C2530 C2529 1.523 . S
C2531 C2515 1.429 . S
C2531 C2527 1.429 . S
C2531 C2532 1.523 . S
C2532 C2516 1.368 . S
C2532 C2528 1.368 . S
C2532 C2531 1.523 . S
H2533 C2508 0.950 . S
H2534 C2510 0.950 . S
H2535 C2511 0.949 . S
H2536 C2513 0.935 1_565 S
H2537 C2515 0.950 . S
C2538 C2539 1.349 . S
C2538 C2540 1.327 . S
C2538 H2563 0.950 . S
C2539 C2538 1.349 . S
C2539 C2555 1.349 . S
C2540 C2538 1.327 . S
C2540 C2559 1.429 . S
C2540 H2564 0.950 . S
C2541 C2558 1.574 . S
C2541 C2560 1.368 . S
C2541 H2565 0.949 . S
H2542 C2546 0.949 . S
C2543 C2544 1.349 . S
C2543 C2545 1.327 . S
C2543 H2566 0.950 . S
C2544 C2543 1.349 . S
C2544 C2556 1.349 . S
C2545 C2543 1.327 . S
C2545 C2561 1.429 . S
C2545 H2567 0.950 . S
C2546 H2542 0.949 . S
C2546 C2554 1.574 . S
C2546 C2562 1.368 . S
H2547 C2555 0.950 . S
H2548 C2553 0.950 . S
H2549 C2554 0.949 . S
H2550 C2556 0.951 1_545 S
H2551 C2557 0.950 . S
H2552 C2558 0.949 . S
C2553 H2548 0.950 . S
C2553 C2555 1.327 . S
C2553 C2559 1.429 . S
C2554 C2546 1.574 . S
C2554 H2549 0.949 . S
C2554 C2560 1.368 . S
C2555 C2539 1.349 . S
C2555 H2547 0.950 . S
C2555 C2553 1.327 . S
C2556 C2544 1.349 . S
C2556 H2550 0.951 1_565 S
C2556 C2557 1.327 . S
C2557 H2551 0.950 . S
C2557 C2556 1.327 . S
C2557 C2561 1.429 . S
C2558 C2541 1.574 . S
C2558 H2552 0.949 . S
C2558 C2562 1.368 . S
C2559 C2540 1.429 . S
C2559 C2553 1.429 . S
C2559 C2560 1.523 . S
C2560 C2541 1.368 . S
C2560 C2554 1.368 . S
C2560 C2559 1.523 . S
C2561 C2545 1.429 . S
C2561 C2557 1.429 . S
C2561 C2562 1.523 . S
C2562 C2546 1.368 . S
C2562 C2558 1.368 . S
C2562 C2561 1.523 . S
H2563 C2538 0.950 . S
H2564 C2540 0.950 . S
H2565 C2541 0.949 . S
H2566 C2543 0.950 . S
H2567 C2545 0.950 . S
C2568 C2569 1.349 . S
C2568 C2570 1.327 . S
C2568 H2593 0.950 . S
C2569 C2568 1.349 . S
C2569 C2585 1.349 . S
C2570 C2568 1.327 . S
C2570 C2589 1.429 . S
C2570 H2594 0.950 1_455 S
C2571 C2588 1.574 . S
C2571 C2590 1.368 . S
C2571 H2595 0.949 . S
H2572 C2576 0.945 . S
C2573 C2574 1.349 . S
C2573 C2575 1.327 . S
C2573 H2596 0.950 . S
C2574 C2573 1.349 . S
C2574 C2586 1.349 1_455 S
C2575 C2573 1.327 . S
C2575 C2591 1.429 . S
C2575 H2597 0.950 . S
C2576 H2572 0.945 . S
C2576 C2584 1.577 1_655 S
C2576 C2592 1.370 1_655 S
H2577 C2585 0.950 . S
H2578 C2583 0.950 . S
H2579 C2584 0.949 1_655 S
H2580 C2586 0.950 . S
H2581 C2587 0.950 . S
H2582 C2588 0.949 . S
C2583 H2578 0.950 . S
C2583 C2585 1.327 . S
C2583 C2589 1.429 . S
C2584 C2576 1.577 1_455 S
C2584 H2579 0.949 1_455 S
C2584 C2590 1.368 . S
C2585 C2569 1.349 . S
C2585 H2577 0.950 . S
C2585 C2583 1.327 . S
C2586 C2574 1.349 1_655 S
C2586 H2580 0.950 . S
C2586 C2587 1.327 . S
C2587 H2581 0.950 . S
C2587 C2586 1.327 . S
C2587 C2591 1.429 1_655 S
C2588 C2571 1.574 . S
C2588 H2582 0.949 . S
C2588 C2592 1.368 . S
C2589 C2570 1.429 . S
C2589 C2583 1.429 . S
C2589 C2590 1.523 . S
C2590 C2571 1.368 . S
C2590 C2584 1.368 . S
C2590 C2589 1.523 . S
C2591 C2575 1.429 . S
C2591 C2587 1.429 1_455 S
C2591 C2592 1.523 . S
C2592 C2576 1.370 1_455 S
C2592 C2588 1.368 . S
C2592 C2591 1.523 . S
H2593 C2568 0.950 . S
H2594 C2570 0.950 1_655 S
H2595 C2571 0.949 . S
H2596 C2573 0.950 . S
H2597 C2575 0.950 . S
C2598 C2599 1.349 . S
C2598 C2600 1.327 . S
C2598 H2623 0.950 . S
C2599 C2598 1.349 . S
C2599 C2615 1.349 . S
C2600 C2598 1.327 . S
C2600 C2619 1.429 . S
C2600 H2624 0.950 . S
C2601 C2618 1.574 . S
C2601 C2620 1.368 . S
C2601 H2625 0.949 . S
H2602 C2606 0.949 . S
C2603 C2604 1.349 . S
C2603 C2605 1.327 . S
C2603 H2626 0.950 . S
C2604 C2603 1.349 . S
C2604 C2616 1.349 . S
C2605 C2603 1.327 . S
C2605 C2621 1.429 . S
C2605 H2627 0.950 . S
C2606 H2602 0.949 . S
C2606 C2614 1.574 . S
C2606 C2622 1.368 . S
H2607 C2615 0.950 . S
H2608 C2613 0.950 . S
H2609 C2614 0.949 . S
H2610 C2616 0.950 . S
H2611 C2617 0.950 . S
H2612 C2618 0.949 . S
C2613 H2608 0.950 . S
C2613 C2615 1.327 . S
C2613 C2619 1.429 . S
C2614 C2606 1.574 . S
C2614 H2609 0.949 . S
C2614 C2620 1.368 . S
C2615 C2599 1.349 . S
C2615 H2607 0.950 . S
C2615 C2613 1.327 . S
C2616 C2604 1.349 . S
C2616 H2610 0.950 . S
C2616 C2617 1.327 . S
C2617 H2611 0.950 . S
C2617 C2616 1.327 . S
C2617 C2621 1.429 . S
C2618 C2601 1.574 . S
C2618 H2612 0.949 . S
C2618 C2622 1.368 . S
C2619 C2600 1.429 . S
C2619 C2613 1.429 . S
C2619 C2620 1.523 . S
C2620 C2601 1.368 . S
C2620 C2614 1.368 . S
C2620 C2619 1.523 . S
C2621 C2605 1.429 . S
C2621 C2617 1.429 . S
C2621 C2622 1.523 . S
C2622 C2606 1.368 . S
C2622 C2618 1.368 . S
C2622 C2621 1.523 . S
H2623 C2598 0.950 . S
H2624 C2600 0.950 . S
H2625 C2601 0.949 . S
H2626 C2603 0.950 . S
H2627 C2605 0.950 . S
C2628 C2629 1.349 . S
C2628 C2630 1.327 . S
C2628 H2653 0.950 . S
C2629 C2628 1.349 . S
C2629 C2645 1.349 . S
C2630 C2628 1.327 . S
C2630 C2649 1.429 . S
C2630 H2654 0.950 . S
C2631 C2648 1.546 . S
C2631 C2650 1.308 1_655 S
C2631 H2655 1.036 . S
H2632 C2636 0.949 . S
C2633 C2634 1.349 1_655 S
C2633 C2635 1.327 . S
C2633 H2656 0.950 . S
C2634 C2633 1.349 1_455 S
C2634 C2646 1.349 . S
C2635 C2633 1.327 . S
C2635 C2651 1.429 1_655 S
C2635 H2657 0.950 . S
C2636 H2632 0.949 . S
C2636 C2644 1.574 . S
C2636 C2652 1.368 . S
H2637 C2645 0.950 1_655 S
H2638 C2643 0.950 1_655 S
H2639 C2644 0.949 . S
H2640 C2646 0.950 . S
H2641 C2647 0.950 . S
H2642 C2648 0.949 . S
C2643 H2638 0.950 1_455 S
C2643 C2645 1.327 . S
C2643 C2649 1.429 . S
C2644 C2636 1.574 . S
C2644 H2639 0.949 . S
C2644 C2650 1.368 . S
C2645 C2629 1.349 . S
C2645 H2637 0.950 1_455 S
C2645 C2643 1.327 . S
C2646 C2634 1.349 . S
C2646 H2640 0.950 . S
C2646 C2647 1.327 . S
C2647 H2641 0.950 . S
C2647 C2646 1.327 . S
C2647 C2651 1.429 . S
C2648 C2631 1.546 . S
C2648 H2642 0.949 . S
C2648 C2652 1.368 1_655 S
C2649 C2630 1.429 . S
C2649 C2643 1.429 . S
C2649 C2650 1.523 . S
C2650 C2631 1.308 1_455 S
C2650 C2644 1.368 . S
C2650 C2649 1.523 . S
C2651 C2635 1.429 1_455 S
C2651 C2647 1.429 . S
C2651 C2652 1.523 . S
C2652 C2636 1.368 . S
C2652 C2648 1.368 1_455 S
C2652 C2651 1.523 . S
H2653 C2628 0.950 . S
H2654 C2630 0.950 . S
H2655 C2631 1.036 . S
H2656 C2633 0.950 . S
H2657 C2635 0.950 . S
C2658 C2659 1.349 . S
C2658 C2660 1.327 . S
C2658 H2683 0.950 . S
C2659 C2658 1.349 . S
C2659 C2675 1.349 . S
C2660 C2658 1.327 . S
C2660 C2679 1.429 . S
C2660 H2684 0.950 . S
C2661 C2678 1.574 . S
C2661 C2680 1.368 . S
C2661 H2685 0.949 . S
H2662 C2666 0.949 . S
C2663 C2664 1.349 . S
C2663 C2665 1.327 . S
C2663 H2686 0.950 . S
C2664 C2663 1.349 . S
C2664 C2676 1.349 . S
C2665 C2663 1.327 . S
C2665 C2681 1.429 . S
C2665 H2687 0.950 . S
C2666 H2662 0.949 . S
C2666 C2674 1.574 . S
C2666 C2682 1.368 . S
H2667 C2675 0.950 . S
H2668 C2673 0.950 . S
H2669 C2674 0.949 . S
H2670 C2676 0.950 . S
H2671 C2677 0.950 . S
H2672 C2678 0.949 . S
C2673 H2668 0.950 . S
C2673 C2675 1.327 . S
C2673 C2679 1.429 . S
C2674 C2666 1.574 . S
C2674 H2669 0.949 . S
C2674 C2680 1.368 . S
C2675 C2659 1.349 . S
C2675 H2667 0.950 . S
C2675 C2673 1.327 . S
C2676 C2664 1.349 . S
C2676 H2670 0.950 . S
C2676 C2677 1.327 . S
C2677 H2671 0.950 . S
C2677 C2676 1.327 . S
C2677 C2681 1.429 . S
C2678 C2661 1.574 . S
C2678 H2672 0.949 . S
C2678 C2682 1.368 . S
C2679 C2660 1.429 . S
C2679 C2673 1.429 . S
C2679 C2680 1.523 . S
C2680 C2661 1.368 . S
C2680 C2674 1.368 . S
C2680 C2679 1.523 . S
C2681 C2665 1.429 . S
C2681 C2677 1.429 . S
C2681 C2682 1.523 . S
C2682 C2666 1.368 . S
C2682 C2678 1.368 . S
C2682 C2681 1.523 . S
H2683 C2658 0.950 . S
H2684 C2660 0.950 . S
H2685 C2661 0.949 . S
H2686 C2663 0.950 . S
H2687 C2665 0.950 . S
C2688 C2689 1.349 . S
C2688 C2690 1.327 . S
C2688 H2713 0.950 1_565 S
C2689 C2688 1.349 . S
C2689 C2705 1.349 . S
C2690 C2688 1.327 . S
C2690 C2709 1.429 . S
C2690 H2714 0.950 1_565 S
C2691 C2708 1.574 . S
C2691 C2710 1.368 . S
C2691 H2715 0.949 . S
H2692 C2696 0.949 . S
C2693 C2694 1.349 . S
C2693 C2695 1.327 . S
C2693 H2716 0.950 . S
C2694 C2693 1.349 . S
C2694 C2706 1.349 1_565 S
C2695 C2693 1.327 . S
C2695 C2711 1.429 . S
C2695 H2717 0.950 . S
C2696 H2692 0.949 . S
C2696 C2704 1.619 . S
C2696 C2712 1.368 1_545 S
H2697 C2705 0.950 . S
H2698 C2703 0.950 . S
H2699 C2704 0.976 . S
H2700 C2706 0.950 . S
H2701 C2707 0.950 . S
H2702 C2708 0.949 . S
C2703 H2698 0.950 . S
C2703 C2705 1.327 . S
C2703 C2709 1.429 . S
C2704 C2696 1.619 . S
C2704 H2699 0.976 . S
C2704 C2710 1.300 1_545 S
C2705 C2689 1.349 . S
C2705 H2697 0.950 . S
C2705 C2703 1.327 . S
C2706 C2694 1.349 1_545 S
C2706 H2700 0.950 . S
C2706 C2707 1.327 . S
C2707 H2701 0.950 . S
C2707 C2706 1.327 . S
C2707 C2711 1.429 1_545 S
C2708 C2691 1.574 . S
C2708 H2702 0.949 . S
C2708 C2712 1.368 . S
C2709 C2690 1.429 . S
C2709 C2703 1.429 . S
C2709 C2710 1.523 . S
C2710 C2691 1.368 . S
C2710 C2704 1.300 1_565 S
C2710 C2709 1.523 . S
C2711 C2695 1.429 . S
C2711 C2707 1.429 1_565 S
C2711 C2712 1.523 . S
C2712 C2696 1.368 1_565 S
C2712 C2708 1.368 . S
C2712 C2711 1.523 . S
H2713 C2688 0.950 1_545 S
H2714 C2690 0.950 1_545 S
H2715 C2691 0.949 . S
H2716 C2693 0.950 . S
H2717 C2695 0.950 . S
C2718 C2719 1.349 . S
C2718 C2720 1.327 . S
C2718 H2743 0.950 . S
C2719 C2718 1.349 . S
C2719 C2735 1.349 . S
C2720 C2718 1.327 . S
C2720 C2739 1.429 . S
C2720 H2744 0.950 . S
C2721 C2738 1.544 . S
C2721 C2740 1.283 1_565 S
C2721 H2745 1.059 . S
H2722 C2726 0.949 . S
C2723 C2724 1.349 1_565 S
C2723 C2725 1.327 . S
C2723 H2746 0.950 . S
C2724 C2723 1.349 1_545 S
C2724 C2736 1.349 . S
C2725 C2723 1.327 . S
C2725 C2741 1.429 1_565 S
C2725 H2747 0.950 . S
C2726 H2722 0.949 . S
C2726 C2734 1.574 . S
C2726 C2742 1.368 . S
H2727 C2735 0.950 1_565 S
H2728 C2733 0.950 1_565 S
H2729 C2734 0.949 . S
H2730 C2736 0.950 . S
H2731 C2737 0.950 . S
H2732 C2738 0.949 . S
C2733 H2728 0.950 1_545 S
C2733 C2735 1.327 . S
C2733 C2739 1.429 . S
C2734 C2726 1.574 . S
C2734 H2729 0.949 . S
C2734 C2740 1.368 . S
C2735 C2719 1.349 . S
C2735 H2727 0.950 1_545 S
C2735 C2733 1.327 . S
C2736 C2724 1.349 . S
C2736 H2730 0.950 . S
C2736 C2737 1.327 . S
C2737 H2731 0.950 . S
C2737 C2736 1.327 . S
C2737 C2741 1.429 . S
C2738 C2721 1.544 . S
C2738 H2732 0.949 . S
C2738 C2742 1.368 1_565 S
C2739 C2720 1.429 . S
C2739 C2733 1.429 . S
C2739 C2740 1.523 . S
C2740 C2721 1.283 1_545 S
C2740 C2734 1.368 . S
C2740 C2739 1.523 . S
C2741 C2725 1.429 1_545 S
C2741 C2737 1.429 . S
C2741 C2742 1.523 . S
C2742 C2726 1.368 . S
C2742 C2738 1.368 1_545 S
C2742 C2741 1.523 . S
H2743 C2718 0.950 . S
H2744 C2720 0.950 . S
H2745 C2721 1.059 . S
H2746 C2723 0.950 . S
H2747 C2725 0.950 . S
C2748 C2749 1.349 . S
C2748 C2750 1.327 . S
C2748 H2773 0.950 . S
C2749 C2748 1.349 . S
C2749 C2765 1.349 . S
C2750 C2748 1.327 . S
C2750 C2769 1.429 . S
C2750 H2774 0.950 . S
C2751 C2768 1.574 . S
C2751 C2770 1.368 . S
C2751 H2775 0.949 . S
H2752 C2756 0.900 1_455 S
C2753 C2754 1.349 . S
C2753 C2755 1.327 . S
C2753 H2776 0.950 . S
C2754 C2753 1.349 . S
C2754 C2766 1.327 1_655 S
C2755 C2753 1.327 . S
C2755 C2771 1.429 . S
C2755 H2777 0.950 . S
C2756 H2752 0.900 1_655 S
C2756 C2764 1.574 . S
C2756 C2772 1.368 . S
H2757 C2765 0.950 . S
H2758 C2763 0.950 . S
H2759 C2764 0.949 . S
H2760 C2766 1.013 . S
H2761 C2767 0.934 1_455 S
H2762 C2768 0.949 . S
C2763 H2758 0.950 . S
C2763 C2765 1.327 . S
C2763 C2769 1.429 . S
C2764 C2756 1.574 . S
C2764 H2759 0.949 . S
C2764 C2770 1.368 . S
C2765 C2749 1.349 . S
C2765 H2757 0.950 . S
C2765 C2763 1.327 . S
C2766 C2754 1.327 1_455 S
C2766 H2760 1.013 . S
C2766 C2767 1.271 1_455 S
C2767 H2761 0.934 1_655 S
C2767 C2766 1.271 1_655 S
C2767 C2771 1.470 . S
C2768 C2751 1.574 . S
C2768 H2762 0.949 . S
C2768 C2772 1.368 . S
C2769 C2750 1.429 . S
C2769 C2763 1.429 . S
C2769 C2770 1.523 . S
C2770 C2751 1.368 . S
C2770 C2764 1.368 . S
C2770 C2769 1.523 . S
C2771 C2755 1.429 . S
C2771 C2767 1.470 . S
C2771 C2772 1.523 . S
C2772 C2756 1.368 . S
C2772 C2768 1.368 . S
C2772 C2771 1.523 . S
H2773 C2748 0.950 . S
H2774 C2750 0.950 . S
H2775 C2751 0.949 . S
H2776 C2753 0.950 . S
H2777 C2755 0.950 . S
C2778 C2779 1.349 . S
C2778 C2780 1.327 . S
C2778 H2803 0.950 . S
C2779 C2778 1.349 . S
C2779 C2795 1.349 . S
C2780 C2778 1.327 . S
C2780 C2799 1.429 . S
C2780 H2804 0.950 . S
C2781 C2798 1.574 . S
C2781 C2800 1.368 . S
C2781 H2805 0.949 . S
H2782 C2786 0.949 . S
C2783 C2784 1.349 . S
C2783 C2785 1.327 . S
C2783 H2806 0.950 . S
C2784 C2783 1.349 . S
C2784 C2796 1.349 . S
C2785 C2783 1.327 . S
C2785 C2801 1.429 . S
C2785 H2807 0.950 . S
C2786 H2782 0.949 . S
C2786 C2794 1.574 . S
C2786 C2802 1.368 . S
H2787 C2795 0.950 . S
H2788 C2793 0.950 . S
H2789 C2794 0.949 . S
H2790 C2796 0.950 . S
H2791 C2797 0.950 . S
H2792 C2798 0.949 . S
C2793 H2788 0.950 . S
C2793 C2795 1.327 . S
C2793 C2799 1.429 . S
C2794 C2786 1.574 . S
C2794 H2789 0.949 . S
C2794 C2800 1.368 . S
C2795 C2779 1.349 . S
C2795 H2787 0.950 . S
C2795 C2793 1.327 . S
C2796 C2784 1.349 . S
C2796 H2790 0.950 . S
C2796 C2797 1.327 . S
C2797 H2791 0.950 . S
C2797 C2796 1.327 . S
C2797 C2801 1.429 . S
C2798 C2781 1.574 . S
C2798 H2792 0.949 . S
C2798 C2802 1.368 . S
C2799 C2780 1.429 . S
C2799 C2793 1.429 . S
C2799 C2800 1.523 . S
C2800 C2781 1.368 . S
C2800 C2794 1.368 . S
C2800 C2799 1.523 . S
C2801 C2785 1.429 . S
C2801 C2797 1.429 . S
C2801 C2802 1.523 . S
C2802 C2786 1.368 . S
C2802 C2798 1.368 . S
C2802 C2801 1.523 . S
H2803 C2778 0.950 . S
H2804 C2780 0.950 . S
H2805 C2781 0.949 . S
H2806 C2783 0.950 . S
H2807 C2785 0.950 . S
C2808 C2809 1.349 . S
C2808 C2810 1.327 . S
C2808 H2833 0.950 . S
C2809 C2808 1.349 . S
C2809 C2825 1.349 . S
C2810 C2808 1.327 . S
C2810 C2829 1.429 . S
C2810 H2834 0.950 . S
C2811 C2828 1.574 . S
C2811 C2830 1.368 . S
C2811 H2835 0.949 . S
H2812 C2816 0.949 . S
C2813 C2814 1.349 . S
C2813 C2815 1.327 . S
C2813 H2836 0.950 . S
C2814 C2813 1.349 . S
C2814 C2826 1.349 . S
C2815 C2813 1.327 . S
C2815 C2831 1.429 . S
C2815 H2837 0.950 . S
C2816 H2812 0.949 . S
C2816 C2824 1.574 . S
C2816 C2832 1.368 . S
H2817 C2825 0.950 . S
H2818 C2823 0.950 . S
H2819 C2824 0.949 . S
H2820 C2826 0.950 . S
H2821 C2827 0.950 . S
H2822 C2828 0.949 . S
C2823 H2818 0.950 . S
C2823 C2825 1.327 . S
C2823 C2829 1.429 . S
C2824 C2816 1.574 . S
C2824 H2819 0.949 . S
C2824 C2830 1.368 . S
C2825 C2809 1.349 . S
C2825 H2817 0.950 . S
C2825 C2823 1.327 . S
C2826 C2814 1.349 . S
C2826 H2820 0.950 . S
C2826 C2827 1.327 . S
C2827 H2821 0.950 . S
C2827 C2826 1.327 . S
C2827 C2831 1.429 . S
C2828 C2811 1.574 . S
C2828 H2822 0.949 . S
C2828 C2832 1.368 . S
C2829 C2810 1.429 . S
C2829 C2823 1.429 . S
C2829 C2830 1.523 . S
C2830 C2811 1.368 . S
C2830 C2824 1.368 . S
C2830 C2829 1.523 . S
C2831 C2815 1.429 . S
C2831 C2827 1.429 . S
C2831 C2832 1.523 . S
C2832 C2816 1.368 . S
C2832 C2828 1.368 . S
C2832 C2831 1.523 . S
H2833 C2808 0.950 . S
H2834 C2810 0.950 . S
H2835 C2811 0.949 . S
H2836 C2813 0.950 . S
H2837 C2815 0.950 . S
C2838 C2839 1.349 . S
C2838 C2840 1.327 . S
C2838 H2863 0.950 . S
C2839 C2838 1.349 . S
C2839 C2855 1.349 . S
C2840 C2838 1.327 . S
C2840 C2859 1.429 . S
C2840 H2864 0.950 . S
C2841 C2858 1.574 . S
C2841 C2860 1.368 . S
C2841 H2865 0.949 . S
H2842 C2846 0.949 . S
C2843 C2844 1.349 . S
C2843 C2845 1.327 . S
C2843 H2866 0.950 . S
C2844 C2843 1.349 . S
C2844 C2856 1.349 . S
C2845 C2843 1.327 . S
C2845 C2861 1.429 . S
C2845 H2867 0.950 . S
C2846 H2842 0.949 . S
C2846 C2854 1.574 . S
C2846 C2862 1.368 . S
H2847 C2855 0.950 . S
H2848 C2853 0.950 . S
H2849 C2854 0.949 . S
H2850 C2856 0.950 . S
H2851 C2857 0.950 . S
H2852 C2858 0.949 . S
C2853 H2848 0.950 . S
C2853 C2855 1.327 . S
C2853 C2859 1.429 . S
C2854 C2846 1.574 . S
C2854 H2849 0.949 . S
C2854 C2860 1.368 . S
C2855 C2839 1.349 . S
C2855 H2847 0.950 . S
C2855 C2853 1.327 . S
C2856 C2844 1.349 . S
C2856 H2850 0.950 . S
C2856 C2857 1.327 . S
C2857 H2851 0.950 . S
C2857 C2856 1.327 . S
C2857 C2861 1.429 . S
C2858 C2841 1.574 . S
C2858 H2852 0.949 . S
C2858 C2862 1.368 . S
C2859 C2840 1.429 . S
C2859 C2853 1.429 . S
C2859 C2860 1.523 . S
C2860 C2841 1.368 . S
C2860 C2854 1.368 . S
C2860 C2859 1.523 . S
C2861 C2845 1.429 . S
C2861 C2857 1.429 . S
C2861 C2862 1.523 . S
C2862 C2846 1.368 . S
C2862 C2858 1.368 . S
C2862 C2861 1.523 . S
H2863 C2838 0.950 . S
H2864 C2840 0.950 . S
H2865 C2841 0.949 . S
H2866 C2843 0.950 . S
H2867 C2845 0.950 . S
C2868 C2869 1.349 . S
C2868 C2870 1.327 . S
C2868 H2893 0.950 . S
C2869 C2868 1.349 . S
C2869 C2885 1.349 . S
C2870 C2868 1.327 . S
C2870 C2889 1.429 . S
C2870 H2894 0.950 . S
C2871 C2888 1.574 . S
C2871 C2890 1.368 . S
C2871 H2895 0.949 . S
H2872 C2876 0.949 . S
C2873 C2874 1.349 . S
C2873 C2875 1.327 . S
C2873 H2896 0.950 . S
C2874 C2873 1.349 . S
C2874 C2886 1.349 . S
C2875 C2873 1.327 . S
C2875 C2891 1.429 . S
C2875 H2897 0.950 . S
C2876 H2872 0.949 . S
C2876 C2884 1.574 . S
C2876 C2892 1.368 . S
H2877 C2885 0.950 . S
H2878 C2883 0.950 . S
H2879 C2884 0.949 . S
H2880 C2886 0.950 . S
H2881 C2887 0.950 . S
H2882 C2888 0.949 . S
C2883 H2878 0.950 . S
C2883 C2885 1.327 . S
C2883 C2889 1.429 . S
C2884 C2876 1.574 . S
C2884 H2879 0.949 . S
C2884 C2890 1.368 . S
C2885 C2869 1.349 . S
C2885 H2877 0.950 . S
C2885 C2883 1.327 . S
C2886 C2874 1.349 . S
C2886 H2880 0.950 . S
C2886 C2887 1.327 . S
C2887 H2881 0.950 . S
C2887 C2886 1.327 . S
C2887 C2891 1.429 . S
C2888 C2871 1.574 . S
C2888 H2882 0.949 . S
C2888 C2892 1.368 . S
C2889 C2870 1.429 . S
C2889 C2883 1.429 . S
C2889 C2890 1.523 . S
C2890 C2871 1.368 . S
C2890 C2884 1.368 . S
C2890 C2889 1.523 . S
C2891 C2875 1.429 . S
C2891 C2887 1.429 . S
C2891 C2892 1.523 . S
C2892 C2876 1.368 . S
C2892 C2888 1.368 . S
C2892 C2891 1.523 . S
H2893 C2868 0.950 . S
H2894 C2870 0.950 . S
H2895 C2871 0.949 . S
H2896 C2873 0.950 . S
H2897 C2875 0.950 . S
C2898 C2899 1.349 . S
C2898 C2900 1.327 . S
C2898 H2923 0.950 . S
C2899 C2898 1.349 . S
C2899 C2915 1.349 . S
C2900 C2898 1.327 . S
C2900 C2919 1.429 . S
C2900 H2924 0.950 . S
C2901 C2918 1.574 . S
C2901 C2920 1.368 . S
C2901 H2925 0.949 . S
H2902 C2906 0.949 . S
C2903 C2904 1.349 . S
C2903 C2905 1.327 . S
C2903 H2926 0.950 . S
C2904 C2903 1.349 . S
C2904 C2916 1.349 . S
C2905 C2903 1.327 . S
C2905 C2921 1.429 . S
C2905 H2927 0.950 . S
C2906 H2902 0.949 . S
C2906 C2914 1.574 . S
C2906 C2922 1.368 . S
H2907 C2915 0.950 . S
H2908 C2913 0.950 . S
H2909 C2914 0.949 . S
H2910 C2916 0.950 . S
H2911 C2917 0.950 . S
H2912 C2918 0.949 . S
C2913 H2908 0.950 . S
C2913 C2915 1.327 . S
C2913 C2919 1.429 . S
C2914 C2906 1.574 . S
C2914 H2909 0.949 . S
C2914 C2920 1.368 . S
C2915 C2899 1.349 . S
C2915 H2907 0.950 . S
C2915 C2913 1.327 . S
C2916 C2904 1.349 . S
C2916 H2910 0.950 . S
C2916 C2917 1.327 . S
C2917 H2911 0.950 . S
C2917 C2916 1.327 . S
C2917 C2921 1.429 . S
C2918 C2901 1.574 . S
C2918 H2912 0.949 . S
C2918 C2922 1.368 . S
C2919 C2900 1.429 . S
C2919 C2913 1.429 . S
C2919 C2920 1.523 . S
C2920 C2901 1.368 . S
C2920 C2914 1.368 . S
C2920 C2919 1.523 . S
C2921 C2905 1.429 . S
C2921 C2917 1.429 . S
C2921 C2922 1.523 . S
C2922 C2906 1.368 . S
C2922 C2918 1.368 . S
C2922 C2921 1.523 . S
H2923 C2898 0.950 . S
H2924 C2900 0.950 . S
H2925 C2901 0.949 . S
H2926 C2903 0.950 . S
H2927 C2905 0.950 . S
C2928 C2929 1.349 . S
C2928 C2930 1.327 . S
C2928 H2953 0.950 . S
C2929 C2928 1.349 . S
C2929 C2945 1.349 . S
C2930 C2928 1.327 . S
C2930 C2949 1.429 . S
C2930 H2954 0.950 . S
C2931 C2948 1.574 . S
C2931 C2950 1.368 . S
C2931 H2955 0.949 . S
H2932 C2936 0.949 . S
C2933 C2934 1.349 . S
C2933 C2935 1.327 . S
C2933 H2956 0.950 . S
C2934 C2933 1.349 . S
C2934 C2946 1.349 . S
C2935 C2933 1.327 . S
C2935 C2951 1.429 . S
C2935 H2957 0.950 . S
C2936 H2932 0.949 . S
C2936 C2944 1.574 . S
C2936 C2952 1.368 . S
H2937 C2945 0.950 . S
H2938 C2943 0.950 . S
H2939 C2944 0.949 . S
H2940 C2946 0.950 . S
H2941 C2947 0.950 . S
H2942 C2948 0.949 . S
C2943 H2938 0.950 . S
C2943 C2945 1.327 . S
C2943 C2949 1.429 . S
C2944 C2936 1.574 . S
C2944 H2939 0.949 . S
C2944 C2950 1.368 . S
C2945 C2929 1.349 . S
C2945 H2937 0.950 . S
C2945 C2943 1.327 . S
C2946 C2934 1.349 . S
C2946 H2940 0.950 . S
C2946 C2947 1.327 . S
C2947 H2941 0.950 . S
C2947 C2946 1.327 . S
C2947 C2951 1.429 . S
C2948 C2931 1.574 . S
C2948 H2942 0.949 . S
C2948 C2952 1.368 . S
C2949 C2930 1.429 . S
C2949 C2943 1.429 . S
C2949 C2950 1.523 . S
C2950 C2931 1.368 . S
C2950 C2944 1.368 . S
C2950 C2949 1.523 . S
C2951 C2935 1.429 . S
C2951 C2947 1.429 . S
C2951 C2952 1.523 . S
C2952 C2936 1.368 . S
C2952 C2948 1.368 . S
C2952 C2951 1.523 . S
H2953 C2928 0.950 . S
H2954 C2930 0.950 . S
H2955 C2931 0.949 . S
H2956 C2933 0.950 . S
H2957 C2935 0.950 . S
C2958 C2959 1.349 . S
C2958 C2960 1.327 . S
C2958 H2983 0.950 . S
C2959 C2958 1.349 . S
C2959 C2975 1.349 . S
C2960 C2958 1.327 . S
C2960 C2979 1.429 . S
C2960 H2984 0.950 . S
C2961 C2978 1.574 . S
C2961 C2980 1.368 . S
C2961 H2985 0.949 . S
H2962 C2966 0.949 . S
C2963 C2964 1.349 . S
C2963 C2965 1.327 . S
C2963 H2986 0.950 . S
C2964 C2963 1.349 . S
C2964 C2976 1.349 . S
C2965 C2963 1.327 . S
C2965 C2981 1.429 . S
C2965 H2987 0.950 . S
C2966 H2962 0.949 . S
C2966 C2974 1.574 . S
C2966 C2982 1.368 . S
H2967 C2975 0.950 . S
H2968 C2973 0.950 . S
H2969 C2974 0.949 . S
H2970 C2976 0.950 . S
H2971 C2977 0.950 . S
H2972 C2978 0.949 . S
C2973 H2968 0.950 . S
C2973 C2975 1.327 . S
C2973 C2979 1.429 . S
C2974 C2966 1.574 . S
C2974 H2969 0.949 . S
C2974 C2980 1.368 . S
C2975 C2959 1.349 . S
C2975 H2967 0.950 . S
C2975 C2973 1.327 . S
C2976 C2964 1.349 . S
C2976 H2970 0.950 . S
C2976 C2977 1.327 . S
C2977 H2971 0.950 . S
C2977 C2976 1.327 . S
C2977 C2981 1.429 . S
C2978 C2961 1.574 . S
C2978 H2972 0.949 . S
C2978 C2982 1.368 . S
C2979 C2960 1.429 . S
C2979 C2973 1.429 . S
C2979 C2980 1.523 . S
C2980 C2961 1.368 . S
C2980 C2974 1.368 . S
C2980 C2979 1.523 . S
C2981 C2965 1.429 . S
C2981 C2977 1.429 . S
C2981 C2982 1.523 . S
C2982 C2966 1.368 . S
C2982 C2978 1.368 . S
C2982 C2981 1.523 . S
H2983 C2958 0.950 . S
H2984 C2960 0.950 . S
H2985 C2961 0.949 . S
H2986 C2963 0.950 . S
H2987 C2965 0.950 . S
C2988 C2989 1.349 . S
C2988 C2990 1.327 . S
C2988 H3013 0.950 . S
C2989 C2988 1.349 . S
C2989 C3005 1.349 . S
C2990 C2988 1.327 . S
C2990 C3009 1.429 . S
C2990 H3014 0.950 . S
C2991 C3008 1.574 . S
C2991 C3010 1.368 . S
C2991 H3015 0.949 . S
H2992 C2996 0.949 . S
C2993 C2994 1.349 . S
C2993 C2995 1.327 . S
C2993 H3016 0.950 . S
C2994 C2993 1.349 . S
C2994 C3006 1.349 . S
C2995 C2993 1.327 . S
C2995 C3011 1.429 . S
C2995 H3017 0.950 . S
C2996 H2992 0.949 . S
C2996 C3004 1.574 . S
C2996 C3012 1.368 . S
H2997 C3005 0.950 . S
H2998 C3003 0.950 . S
H2999 C3004 0.949 . S
H3000 C3006 0.950 . S
H3001 C3007 0.950 . S
H3002 C3008 0.949 . S
C3003 H2998 0.950 . S
C3003 C3005 1.327 . S
C3003 C3009 1.429 . S
C3004 C2996 1.574 . S
C3004 H2999 0.949 . S
C3004 C3010 1.368 . S
C3005 C2989 1.349 . S
C3005 H2997 0.950 . S
C3005 C3003 1.327 . S
C3006 C2994 1.349 . S
C3006 H3000 0.950 . S
C3006 C3007 1.327 . S
C3007 H3001 0.950 . S
C3007 C3006 1.327 . S
C3007 C3011 1.429 . S
C3008 C2991 1.574 . S
C3008 H3002 0.949 . S
C3008 C3012 1.368 . S
C3009 C2990 1.429 . S
C3009 C3003 1.429 . S
C3009 C3010 1.523 . S
C3010 C2991 1.368 . S
C3010 C3004 1.368 . S
C3010 C3009 1.523 . S
C3011 C2995 1.429 . S
C3011 C3007 1.429 . S
C3011 C3012 1.523 . S
C3012 C2996 1.368 . S
C3012 C3008 1.368 . S
C3012 C3011 1.523 . S
H3013 C2988 0.950 . S
H3014 C2990 0.950 . S
H3015 C2991 0.949 . S
H3016 C2993 0.950 . S
H3017 C2995 0.950 . S
C3018 C3019 1.349 . S
C3018 C3020 1.327 . S
C3018 H3043 0.950 . S
C3019 C3018 1.349 . S
C3019 C3035 1.349 . S
C3020 C3018 1.327 . S
C3020 C3039 1.429 . S
C3020 H3044 0.950 . S
C3021 C3038 1.574 . S
C3021 C3040 1.368 . S
C3021 H3045 0.949 . S
H3022 C3026 0.949 . S
C3023 C3024 1.349 . S
C3023 C3025 1.327 . S
C3023 H3046 0.950 . S
C3024 C3023 1.349 . S
C3024 C3036 1.349 . S
C3025 C3023 1.327 . S
C3025 C3041 1.429 . S
C3025 H3047 0.950 . S
C3026 H3022 0.949 . S
C3026 C3034 1.574 . S
C3026 C3042 1.368 . S
H3027 C3035 0.950 . S
H3028 C3033 0.950 . S
H3029 C3034 0.949 . S
H3030 C3036 0.950 . S
H3031 C3037 0.950 . S
H3032 C3038 0.949 . S
C3033 H3028 0.950 . S
C3033 C3035 1.327 . S
C3033 C3039 1.429 . S
C3034 C3026 1.574 . S
C3034 H3029 0.949 . S
C3034 C3040 1.368 . S
C3035 C3019 1.349 . S
C3035 H3027 0.950 . S
C3035 C3033 1.327 . S
C3036 C3024 1.349 . S
C3036 H3030 0.950 . S
C3036 C3037 1.327 . S
C3037 H3031 0.950 . S
C3037 C3036 1.327 . S
C3037 C3041 1.429 . S
C3038 C3021 1.574 . S
C3038 H3032 0.949 . S
C3038 C3042 1.368 . S
C3039 C3020 1.429 . S
C3039 C3033 1.429 . S
C3039 C3040 1.523 . S
C3040 C3021 1.368 . S
C3040 C3034 1.368 . S
C3040 C3039 1.523 . S
C3041 C3025 1.429 . S
C3041 C3037 1.429 . S
C3041 C3042 1.523 . S
C3042 C3026 1.368 . S
C3042 C3038 1.368 . S
C3042 C3041 1.523 . S
H3043 C3018 0.950 . S
H3044 C3020 0.950 . S
H3045 C3021 0.949 . S
H3046 C3023 0.950 . S
H3047 C3025 0.950 . S
C3048 C3049 1.349 . S
C3048 C3050 1.327 . S
C3048 H3073 0.950 . S
C3049 C3048 1.349 . S
C3049 C3065 1.349 . S
C3050 C3048 1.327 . S
C3050 C3069 1.429 . S
C3050 H3074 0.950 . S
C3051 C3068 1.574 . S
C3051 C3070 1.368 . S
C3051 H3075 0.949 . S
H3052 C3056 0.949 . S
C3053 C3054 1.349 . S
C3053 C3055 1.327 . S
C3053 H3076 0.950 . S
C3054 C3053 1.349 . S
C3054 C3066 1.349 . S
C3055 C3053 1.327 . S
C3055 C3071 1.429 . S
C3055 H3077 0.950 . S
C3056 H3052 0.949 . S
C3056 C3064 1.574 . S
C3056 C3072 1.368 . S
H3057 C3065 0.950 . S
H3058 C3063 0.950 . S
H3059 C3064 0.949 . S
H3060 C3066 0.950 . S
H3061 C3067 0.950 . S
H3062 C3068 0.949 . S
C3063 H3058 0.950 . S
C3063 C3065 1.327 . S
C3063 C3069 1.429 . S
C3064 C3056 1.574 . S
C3064 H3059 0.949 . S
C3064 C3070 1.368 . S
C3065 C3049 1.349 . S
C3065 H3057 0.950 . S
C3065 C3063 1.327 . S
C3066 C3054 1.349 . S
C3066 H3060 0.950 . S
C3066 C3067 1.327 . S
C3067 H3061 0.950 . S
C3067 C3066 1.327 . S
C3067 C3071 1.429 . S
C3068 C3051 1.574 . S
C3068 H3062 0.949 . S
C3068 C3072 1.368 . S
C3069 C3050 1.429 . S
C3069 C3063 1.429 . S
C3069 C3070 1.523 . S
C3070 C3051 1.368 . S
C3070 C3064 1.368 . S
C3070 C3069 1.523 . S
C3071 C3055 1.429 . S
C3071 C3067 1.429 . S
C3071 C3072 1.523 . S
C3072 C3056 1.368 . S
C3072 C3068 1.368 . S
C3072 C3071 1.523 . S
H3073 C3048 0.950 . S
H3074 C3050 0.950 . S
H3075 C3051 0.949 . S
H3076 C3053 0.950 . S
H3077 C3055 0.950 . S
C3078 C3079 1.349 . S
C3078 C3080 1.327 . S
C3078 H3103 0.950 . S
C3079 C3078 1.349 . S
C3079 C3095 1.349 . S
C3080 C3078 1.327 . S
C3080 C3099 1.429 . S
C3080 H3104 0.950 . S
C3081 C3098 1.574 . S
C3081 C3100 1.368 . S
C3081 H3105 0.949 . S
H3082 C3086 0.949 . S
C3083 C3084 1.349 . S
C3083 C3085 1.327 . S
C3083 H3106 0.950 . S
C3084 C3083 1.349 . S
C3084 C3096 1.349 . S
C3085 C3083 1.327 . S
C3085 C3101 1.429 . S
C3085 H3107 0.950 . S
C3086 H3082 0.949 . S
C3086 C3094 1.574 . S
C3086 C3102 1.368 . S
H3087 C3095 0.950 . S
H3088 C3093 0.950 . S
H3089 C3094 0.949 . S
H3090 C3096 0.950 . S
H3091 C3097 0.950 . S
H3092 C3098 0.949 . S
C3093 H3088 0.950 . S
C3093 C3095 1.327 . S
C3093 C3099 1.429 . S
C3094 C3086 1.574 . S
C3094 H3089 0.949 . S
C3094 C3100 1.368 . S
C3095 C3079 1.349 . S
C3095 H3087 0.950 . S
C3095 C3093 1.327 . S
C3096 C3084 1.349 . S
C3096 H3090 0.950 . S
C3096 C3097 1.327 . S
C3097 H3091 0.950 . S
C3097 C3096 1.327 . S
C3097 C3101 1.429 . S
C3098 C3081 1.574 . S
C3098 H3092 0.949 . S
C3098 C3102 1.368 . S
C3099 C3080 1.429 . S
C3099 C3093 1.429 . S
C3099 C3100 1.523 . S
C3100 C3081 1.368 . S
C3100 C3094 1.368 . S
C3100 C3099 1.523 . S
C3101 C3085 1.429 . S
C3101 C3097 1.429 . S
C3101 C3102 1.523 . S
C3102 C3086 1.368 . S
C3102 C3098 1.368 . S
C3102 C3101 1.523 . S
H3103 C3078 0.950 . S
H3104 C3080 0.950 . S
H3105 C3081 0.949 . S
H3106 C3083 0.950 . S
H3107 C3085 0.950 . S
C3108 C3109 1.349 . S
C3108 C3110 1.327 . S
C3108 H3133 0.950 . S
C3109 C3108 1.349 . S
C3109 C3125 1.349 . S
C3110 C3108 1.327 . S
C3110 C3129 1.429 . S
C3110 H3134 0.950 . S
C3111 C3128 1.574 . S
C3111 C3130 1.368 . S
C3111 H3135 0.949 . S
H3112 C3116 0.949 . S
C3113 C3114 1.349 . S
C3113 C3115 1.327 . S
C3113 H3136 0.950 . S
C3114 C3113 1.349 . S
C3114 C3126 1.349 . S
C3115 C3113 1.327 . S
C3115 C3131 1.429 . S
C3115 H3137 0.950 . S
C3116 H3112 0.949 . S
C3116 C3124 1.574 . S
C3116 C3132 1.368 . S
H3117 C3125 0.950 . S
H3118 C3123 0.950 . S
H3119 C3124 0.949 . S
H3120 C3126 0.950 . S
H3121 C3127 0.950 . S
H3122 C3128 0.949 . S
C3123 H3118 0.950 . S
C3123 C3125 1.327 . S
C3123 C3129 1.429 . S
C3124 C3116 1.574 . S
C3124 H3119 0.949 . S
C3124 C3130 1.368 . S
C3125 C3109 1.349 . S
C3125 H3117 0.950 . S
C3125 C3123 1.327 . S
C3126 C3114 1.349 . S
C3126 H3120 0.950 . S
C3126 C3127 1.327 . S
C3127 H3121 0.950 . S
C3127 C3126 1.327 . S
C3127 C3131 1.429 . S
C3128 C3111 1.574 . S
C3128 H3122 0.949 . S
C3128 C3132 1.368 . S
C3129 C3110 1.429 . S
C3129 C3123 1.429 . S
C3129 C3130 1.523 . S
C3130 C3111 1.368 . S
C3130 C3124 1.368 . S
C3130 C3129 1.523 . S
C3131 C3115 1.429 . S
C3131 C3127 1.429 . S
C3131 C3132 1.523 . S
C3132 C3116 1.368 . S
C3132 C3128 1.368 . S
C3132 C3131 1.523 . S
H3133 C3108 0.950 . S
H3134 C3110 0.950 . S
H3135 C3111 0.949 . S
H3136 C3113 0.950 . S
H3137 C3115 0.950 . S
C3138 C3139 1.349 . S
C3138 C3140 1.327 . S
C3138 H3163 0.950 . S
C3139 C3138 1.349 . S
C3139 C3155 1.349 . S
C3140 C3138 1.327 . S
C3140 C3159 1.429 . S
C3140 H3164 0.950 . S
C3141 C3158 1.574 . S
C3141 C3160 1.368 . S
C3141 H3165 0.949 . S
H3142 C3146 0.949 . S
C3143 C3144 1.349 . S
C3143 C3145 1.327 . S
C3143 H3166 0.950 . S
C3144 C3143 1.349 . S
C3144 C3156 1.349 . S
C3145 C3143 1.327 . S
C3145 C3161 1.429 . S
C3145 H3167 0.950 . S
C3146 H3142 0.949 . S
C3146 C3154 1.574 . S
C3146 C3162 1.368 . S
H3147 C3155 0.950 . S
H3148 C3153 0.950 . S
H3149 C3154 0.949 . S
H3150 C3156 0.950 . S
H3151 C3157 0.950 . S
H3152 C3158 0.949 . S
C3153 H3148 0.950 . S
C3153 C3155 1.327 . S
C3153 C3159 1.429 . S
C3154 C3146 1.574 . S
C3154 H3149 0.949 . S
C3154 C3160 1.368 . S
C3155 C3139 1.349 . S
C3155 H3147 0.950 . S
C3155 C3153 1.327 . S
C3156 C3144 1.349 . S
C3156 H3150 0.950 . S
C3156 C3157 1.327 . S
C3157 H3151 0.950 . S
C3157 C3156 1.327 . S
C3157 C3161 1.429 . S
C3158 C3141 1.574 . S
C3158 H3152 0.949 . S
C3158 C3162 1.368 . S
C3159 C3140 1.429 . S
C3159 C3153 1.429 . S
C3159 C3160 1.523 . S
C3160 C3141 1.368 . S
C3160 C3154 1.368 . S
C3160 C3159 1.523 . S
C3161 C3145 1.429 . S
C3161 C3157 1.429 . S
C3161 C3162 1.523 . S
C3162 C3146 1.368 . S
C3162 C3158 1.368 . S
C3162 C3161 1.523 . S
H3163 C3138 0.950 . S
H3164 C3140 0.950 . S
H3165 C3141 0.949 . S
H3166 C3143 0.950 . S
H3167 C3145 0.950 . S
C3168 C3169 1.349 . S
C3168 C3170 1.327 . S
C3168 H3193 0.950 . S
C3169 C3168 1.349 . S
C3169 C3185 1.349 . S
C3170 C3168 1.327 . S
C3170 C3189 1.429 . S
C3170 H3194 0.950 . S
C3171 C3188 1.574 . S
C3171 C3190 1.368 . S
C3171 H3195 0.949 . S
H3172 C3176 0.949 . S
C3173 C3174 1.349 . S
C3173 C3175 1.327 . S
C3173 H3196 0.950 . S
C3174 C3173 1.349 . S
C3174 C3186 1.349 . S
C3175 C3173 1.327 . S
C3175 C3191 1.429 . S
C3175 H3197 0.950 . S
C3176 H3172 0.949 . S
C3176 C3184 1.574 . S
C3176 C3192 1.368 . S
H3177 C3185 0.950 . S
H3178 C3183 0.950 . S
H3179 C3184 0.949 . S
H3180 C3186 0.950 . S
H3181 C3187 0.950 . S
H3182 C3188 0.949 . S
C3183 H3178 0.950 . S
C3183 C3185 1.327 . S
C3183 C3189 1.429 . S
C3184 C3176 1.574 . S
C3184 H3179 0.949 . S
C3184 C3190 1.368 . S
C3185 C3169 1.349 . S
C3185 H3177 0.950 . S
C3185 C3183 1.327 . S
C3186 C3174 1.349 . S
C3186 H3180 0.950 . S
C3186 C3187 1.327 . S
C3187 H3181 0.950 . S
C3187 C3186 1.327 . S
C3187 C3191 1.429 . S
C3188 C3171 1.574 . S
C3188 H3182 0.949 . S
C3188 C3192 1.368 . S
C3189 C3170 1.429 . S
C3189 C3183 1.429 . S
C3189 C3190 1.523 . S
C3190 C3171 1.368 . S
C3190 C3184 1.368 . S
C3190 C3189 1.523 . S
C3191 C3175 1.429 . S
C3191 C3187 1.429 . S
C3191 C3192 1.523 . S
C3192 C3176 1.368 . S
C3192 C3188 1.368 . S
C3192 C3191 1.523 . S
H3193 C3168 0.950 . S
H3194 C3170 0.950 . S
H3195 C3171 0.949 . S
H3196 C3173 0.950 . S
H3197 C3175 0.950 . S
C3198 C3199 1.349 . S
C3198 C3200 1.327 . S
C3198 H3223 0.950 . S
C3199 C3198 1.349 . S
C3199 C3215 1.349 . S
C3200 C3198 1.327 . S
C3200 C3219 1.429 . S
C3200 H3224 0.950 . S
C3201 C3218 1.574 . S
C3201 C3220 1.368 . S
C3201 H3225 0.949 . S
H3202 C3206 0.949 . S
C3203 C3204 1.349 . S
C3203 C3205 1.327 . S
C3203 H3226 0.950 . S
C3204 C3203 1.349 . S
C3204 C3216 1.349 . S
C3205 C3203 1.327 . S
C3205 C3221 1.429 . S
C3205 H3227 0.950 . S
C3206 H3202 0.949 . S
C3206 C3214 1.574 . S
C3206 C3222 1.368 . S
H3207 C3215 0.950 . S
H3208 C3213 0.950 . S
H3209 C3214 0.949 . S
H3210 C3216 0.950 . S
H3211 C3217 0.950 . S
H3212 C3218 0.949 . S
C3213 H3208 0.950 . S
C3213 C3215 1.327 . S
C3213 C3219 1.429 . S
C3214 C3206 1.574 . S
C3214 H3209 0.949 . S
C3214 C3220 1.368 . S
C3215 C3199 1.349 . S
C3215 H3207 0.950 . S
C3215 C3213 1.327 . S
C3216 C3204 1.349 . S
C3216 H3210 0.950 . S
C3216 C3217 1.327 . S
C3217 H3211 0.950 . S
C3217 C3216 1.327 . S
C3217 C3221 1.429 . S
C3218 C3201 1.574 . S
C3218 H3212 0.949 . S
C3218 C3222 1.368 . S
C3219 C3200 1.429 . S
C3219 C3213 1.429 . S
C3219 C3220 1.523 . S
C3220 C3201 1.368 . S
C3220 C3214 1.368 . S
C3220 C3219 1.523 . S
C3221 C3205 1.429 . S
C3221 C3217 1.429 . S
C3221 C3222 1.523 . S
C3222 C3206 1.368 . S
C3222 C3218 1.368 . S
C3222 C3221 1.523 . S
H3223 C3198 0.950 . S
H3224 C3200 0.950 . S
H3225 C3201 0.949 . S
H3226 C3203 0.950 . S
H3227 C3205 0.950 . S
C3228 C3229 1.349 . S
C3228 C3230 1.327 . S
C3228 H3253 0.950 . S
C3229 C3228 1.349 . S
C3229 C3245 1.349 . S
C3230 C3228 1.327 . S
C3230 C3249 1.429 . S
C3230 H3254 0.950 . S
C3231 C3248 1.574 . S
C3231 C3250 1.368 . S
C3231 H3255 0.949 . S
H3232 C3236 0.949 . S
C3233 C3234 1.349 . S
C3233 C3235 1.327 . S
C3233 H3256 0.950 . S
C3234 C3233 1.349 . S
C3234 C3246 1.349 . S
C3235 C3233 1.327 . S
C3235 C3251 1.429 . S
C3235 H3257 0.950 . S
C3236 H3232 0.949 . S
C3236 C3244 1.574 . S
C3236 C3252 1.368 . S
H3237 C3245 0.950 . S
H3238 C3243 0.950 . S
H3239 C3244 0.949 . S
H3240 C3246 0.950 . S
H3241 C3247 0.950 . S
H3242 C3248 0.949 . S
C3243 H3238 0.950 . S
C3243 C3245 1.327 . S
C3243 C3249 1.429 . S
C3244 C3236 1.574 . S
C3244 H3239 0.949 . S
C3244 C3250 1.368 . S
C3245 C3229 1.349 . S
C3245 H3237 0.950 . S
C3245 C3243 1.327 . S
C3246 C3234 1.349 . S
C3246 H3240 0.950 . S
C3246 C3247 1.327 . S
C3247 H3241 0.950 . S
C3247 C3246 1.327 . S
C3247 C3251 1.429 . S
C3248 C3231 1.574 . S
C3248 H3242 0.949 . S
C3248 C3252 1.368 . S
C3249 C3230 1.429 . S
C3249 C3243 1.429 . S
C3249 C3250 1.523 . S
C3250 C3231 1.368 . S
C3250 C3244 1.368 . S
C3250 C3249 1.523 . S
C3251 C3235 1.429 . S
C3251 C3247 1.429 . S
C3251 C3252 1.523 . S
C3252 C3236 1.368 . S
C3252 C3248 1.368 . S
C3252 C3251 1.523 . S
H3253 C3228 0.950 . S
H3254 C3230 0.950 . S
H3255 C3231 0.949 . S
H3256 C3233 0.950 . S
H3257 C3235 0.950 . S
C3258 C3259 1.349 . S
C3258 C3260 1.327 . S
C3258 H3283 0.950 . S
C3259 C3258 1.349 . S
C3259 C3275 1.349 . S
C3260 C3258 1.327 . S
C3260 C3279 1.429 . S
C3260 H3284 0.950 . S
C3261 C3278 1.574 . S
C3261 C3280 1.368 . S
C3261 H3285 0.949 . S
H3262 C3266 0.949 . S
C3263 C3264 1.349 . S
C3263 C3265 1.327 . S
C3263 H3286 0.950 . S
C3264 C3263 1.349 . S
C3264 C3276 1.349 . S
C3265 C3263 1.327 . S
C3265 C3281 1.429 . S
C3265 H3287 0.950 . S
C3266 H3262 0.949 . S
C3266 C3274 1.574 . S
C3266 C3282 1.368 . S
H3267 C3275 0.950 . S
H3268 C3273 0.950 . S
H3269 C3274 0.949 . S
H3270 C3276 0.950 . S
H3271 C3277 0.950 . S
H3272 C3278 0.949 . S
C3273 H3268 0.950 . S
C3273 C3275 1.327 . S
C3273 C3279 1.429 . S
C3274 C3266 1.574 . S
C3274 H3269 0.949 . S
C3274 C3280 1.368 . S
C3275 C3259 1.349 . S
C3275 H3267 0.950 . S
C3275 C3273 1.327 . S
C3276 C3264 1.349 . S
C3276 H3270 0.950 . S
C3276 C3277 1.327 . S
C3277 H3271 0.950 . S
C3277 C3276 1.327 . S
C3277 C3281 1.429 . S
C3278 C3261 1.574 . S
C3278 H3272 0.949 . S
C3278 C3282 1.368 . S
C3279 C3260 1.429 . S
C3279 C3273 1.429 . S
C3279 C3280 1.523 . S
C3280 C3261 1.368 . S
C3280 C3274 1.368 . S
C3280 C3279 1.523 . S
C3281 C3265 1.429 . S
C3281 C3277 1.429 . S
C3281 C3282 1.523 . S
C3282 C3266 1.368 . S
C3282 C3278 1.368 . S
C3282 C3281 1.523 . S
H3283 C3258 0.950 . S
H3284 C3260 0.950 . S
H3285 C3261 0.949 . S
H3286 C3263 0.950 . S
H3287 C3265 0.950 . S
C3288 C3289 1.349 . S
C3288 C3290 1.327 . S
C3288 H3313 0.950 . S
C3289 C3288 1.349 . S
C3289 C3305 1.349 . S
C3290 C3288 1.327 . S
C3290 C3309 1.429 . S
C3290 H3314 0.950 . S
C3291 C3308 1.574 . S
C3291 C3310 1.368 . S
C3291 H3315 0.949 . S
H3292 C3296 0.949 . S
C3293 C3294 1.349 . S
C3293 C3295 1.327 . S
C3293 H3316 0.950 . S
C3294 C3293 1.349 . S
C3294 C3306 1.349 . S
C3295 C3293 1.327 . S
C3295 C3311 1.429 . S
C3295 H3317 0.950 . S
C3296 H3292 0.949 . S
C3296 C3304 1.574 . S
C3296 C3312 1.368 . S
H3297 C3305 0.950 . S
H3298 C3303 0.950 . S
H3299 C3304 0.949 . S
H3300 C3306 0.950 . S
H3301 C3307 0.950 . S
H3302 C3308 0.949 . S
C3303 H3298 0.950 . S
C3303 C3305 1.327 . S
C3303 C3309 1.429 . S
C3304 C3296 1.574 . S
C3304 H3299 0.949 . S
C3304 C3310 1.368 . S
C3305 C3289 1.349 . S
C3305 H3297 0.950 . S
C3305 C3303 1.327 . S
C3306 C3294 1.349 . S
C3306 H3300 0.950 . S
C3306 C3307 1.327 . S
C3307 H3301 0.950 . S
C3307 C3306 1.327 . S
C3307 C3311 1.429 . S
C3308 C3291 1.574 . S
C3308 H3302 0.949 . S
C3308 C3312 1.368 . S
C3309 C3290 1.429 . S
C3309 C3303 1.429 . S
C3309 C3310 1.523 . S
C3310 C3291 1.368 . S
C3310 C3304 1.368 . S
C3310 C3309 1.523 . S
C3311 C3295 1.429 . S
C3311 C3307 1.429 . S
C3311 C3312 1.523 . S
C3312 C3296 1.368 . S
C3312 C3308 1.368 . S
C3312 C3311 1.523 . S
H3313 C3288 0.950 . S
H3314 C3290 0.950 . S
H3315 C3291 0.949 . S
H3316 C3293 0.950 . S
H3317 C3295 0.950 . S
C3318 C3319 1.349 . S
C3318 C3320 1.327 . S
C3318 H3343 0.950 . S
C3319 C3318 1.349 . S
C3319 C3335 1.349 . S
C3320 C3318 1.327 . S
C3320 C3339 1.429 . S
C3320 H3344 0.950 . S
C3321 C3338 1.574 . S
C3321 C3340 1.368 . S
C3321 H3345 0.949 . S
H3322 C3326 0.949 . S
C3323 C3324 1.349 . S
C3323 C3325 1.327 . S
C3323 H3346 0.950 . S
C3324 C3323 1.349 . S
C3324 C3336 1.349 . S
C3325 C3323 1.327 . S
C3325 C3341 1.429 . S
C3325 H3347 0.950 . S
C3326 H3322 0.949 . S
C3326 C3334 1.574 . S
C3326 C3342 1.368 . S
H3327 C3335 0.950 . S
H3328 C3333 0.950 . S
H3329 C3334 0.949 . S
H3330 C3336 0.950 . S
H3331 C3337 0.950 . S
H3332 C3338 0.949 . S
C3333 H3328 0.950 . S
C3333 C3335 1.327 . S
C3333 C3339 1.429 . S
C3334 C3326 1.574 . S
C3334 H3329 0.949 . S
C3334 C3340 1.368 . S
C3335 C3319 1.349 . S
C3335 H3327 0.950 . S
C3335 C3333 1.327 . S
C3336 C3324 1.349 . S
C3336 H3330 0.950 . S
C3336 C3337 1.327 . S
C3337 H3331 0.950 . S
C3337 C3336 1.327 . S
C3337 C3341 1.429 . S
C3338 C3321 1.574 . S
C3338 H3332 0.949 . S
C3338 C3342 1.368 . S
C3339 C3320 1.429 . S
C3339 C3333 1.429 . S
C3339 C3340 1.523 . S
C3340 C3321 1.368 . S
C3340 C3334 1.368 . S
C3340 C3339 1.523 . S
C3341 C3325 1.429 . S
C3341 C3337 1.429 . S
C3341 C3342 1.523 . S
C3342 C3326 1.368 . S
C3342 C3338 1.368 . S
C3342 C3341 1.523 . S
H3343 C3318 0.950 . S
H3344 C3320 0.950 . S
H3345 C3321 0.949 . S
H3346 C3323 0.950 . S
H3347 C3325 0.950 . S
C3348 C3349 1.349 . S
C3348 C3350 1.327 . S
C3348 H3373 0.950 . S
C3349 C3348 1.349 . S
C3349 C3365 1.349 . S
C3350 C3348 1.327 . S
C3350 C3369 1.429 . S
C3350 H3374 0.950 . S
C3351 C3368 1.574 . S
C3351 C3370 1.368 . S
C3351 H3375 0.949 . S
H3352 C3356 0.949 . S
C3353 C3354 1.349 . S
C3353 C3355 1.327 . S
C3353 H3376 0.950 . S
C3354 C3353 1.349 . S
C3354 C3366 1.349 . S
C3355 C3353 1.327 . S
C3355 C3371 1.429 . S
C3355 H3377 0.950 . S
C3356 H3352 0.949 . S
C3356 C3364 1.574 . S
C3356 C3372 1.368 . S
H3357 C3365 0.950 . S
H3358 C3363 0.950 . S
H3359 C3364 0.949 . S
H3360 C3366 0.950 . S
H3361 C3367 0.950 . S
H3362 C3368 0.949 . S
C3363 H3358 0.950 . S
C3363 C3365 1.327 . S
C3363 C3369 1.429 . S
C3364 C3356 1.574 . S
C3364 H3359 0.949 . S
C3364 C3370 1.368 . S
C3365 C3349 1.349 . S
C3365 H3357 0.950 . S
C3365 C3363 1.327 . S
C3366 C3354 1.349 . S
C3366 H3360 0.950 . S
C3366 C3367 1.327 . S
C3367 H3361 0.950 . S
C3367 C3366 1.327 . S
C3367 C3371 1.429 . S
C3368 C3351 1.574 . S
C3368 H3362 0.949 . S
C3368 C3372 1.368 . S
C3369 C3350 1.429 . S
C3369 C3363 1.429 . S
C3369 C3370 1.523 . S
C3370 C3351 1.368 . S
C3370 C3364 1.368 . S
C3370 C3369 1.523 . S
C3371 C3355 1.429 . S
C3371 C3367 1.429 . S
C3371 C3372 1.523 . S
C3372 C3356 1.368 . S
C3372 C3368 1.368 . S
C3372 C3371 1.523 . S
H3373 C3348 0.950 . S
H3374 C3350 0.950 . S
H3375 C3351 0.949 . S
H3376 C3353 0.950 . S
H3377 C3355 0.950 . S
C3378 C3379 1.349 . S
C3378 C3380 1.327 . S
C3378 H3403 0.950 . S
C3379 C3378 1.349 . S
C3379 C3395 1.349 . S
C3380 C3378 1.327 . S
C3380 C3399 1.429 . S
C3380 H3404 0.950 . S
C3381 C3398 1.574 . S
C3381 C3400 1.368 . S
C3381 H3405 0.949 . S
H3382 C3386 0.949 . S
C3383 C3384 1.349 . S
C3383 C3385 1.327 . S
C3383 H3406 0.950 . S
C3384 C3383 1.349 . S
C3384 C3396 1.349 . S
C3385 C3383 1.327 . S
C3385 C3401 1.429 . S
C3385 H3407 0.950 . S
C3386 H3382 0.949 . S
C3386 C3394 1.574 . S
C3386 C3402 1.368 . S
H3387 C3395 0.950 . S
H3388 C3393 0.950 . S
H3389 C3394 0.949 . S
H3390 C3396 0.950 . S
H3391 C3397 0.950 . S
H3392 C3398 0.949 . S
C3393 H3388 0.950 . S
C3393 C3395 1.327 . S
C3393 C3399 1.429 . S
C3394 C3386 1.574 . S
C3394 H3389 0.949 . S
C3394 C3400 1.368 . S
C3395 C3379 1.349 . S
C3395 H3387 0.950 . S
C3395 C3393 1.327 . S
C3396 C3384 1.349 . S
C3396 H3390 0.950 . S
C3396 C3397 1.327 . S
C3397 H3391 0.950 . S
C3397 C3396 1.327 . S
C3397 C3401 1.429 . S
C3398 C3381 1.574 . S
C3398 H3392 0.949 . S
C3398 C3402 1.368 . S
C3399 C3380 1.429 . S
C3399 C3393 1.429 . S
C3399 C3400 1.523 . S
C3400 C3381 1.368 . S
C3400 C3394 1.368 . S
C3400 C3399 1.523 . S
C3401 C3385 1.429 . S
C3401 C3397 1.429 . S
C3401 C3402 1.523 . S
C3402 C3386 1.368 . S
C3402 C3398 1.368 . S
C3402 C3401 1.523 . S
H3403 C3378 0.950 . S
H3404 C3380 0.950 . S
H3405 C3381 0.949 . S
H3406 C3383 0.950 . S
H3407 C3385 0.950 . S
C3408 C3409 1.349 . S
C3408 C3410 1.327 . S
C3408 H3433 0.950 . S
C3409 C3408 1.349 . S
C3409 C3425 1.349 . S
C3410 C3408 1.327 . S
C3410 C3429 1.429 . S
C3410 H3434 0.950 . S
C3411 C3428 1.574 . S
C3411 C3430 1.368 . S
C3411 H3435 0.949 . S
H3412 C3416 0.949 . S
C3413 C3414 1.349 . S
C3413 C3415 1.327 . S
C3413 H3436 0.950 . S
C3414 C3413 1.349 . S
C3414 C3426 1.349 . S
C3415 C3413 1.327 . S
C3415 C3431 1.429 . S
C3415 H3437 0.950 . S
C3416 H3412 0.949 . S
C3416 C3424 1.574 . S
C3416 C3432 1.368 . S
H3417 C3425 0.950 . S
H3418 C3423 0.950 . S
H3419 C3424 0.949 . S
H3420 C3426 0.950 . S
H3421 C3427 0.950 . S
H3422 C3428 0.949 . S
C3423 H3418 0.950 . S
C3423 C3425 1.327 . S
C3423 C3429 1.429 . S
C3424 C3416 1.574 . S
C3424 H3419 0.949 . S
C3424 C3430 1.368 . S
C3425 C3409 1.349 . S
C3425 H3417 0.950 . S
C3425 C3423 1.327 . S
C3426 C3414 1.349 . S
C3426 H3420 0.950 . S
C3426 C3427 1.327 . S
C3427 H3421 0.950 . S
C3427 C3426 1.327 . S
C3427 C3431 1.429 . S
C3428 C3411 1.574 . S
C3428 H3422 0.949 . S
C3428 C3432 1.368 . S
C3429 C3410 1.429 . S
C3429 C3423 1.429 . S
C3429 C3430 1.523 . S
C3430 C3411 1.368 . S
C3430 C3424 1.368 . S
C3430 C3429 1.523 . S
C3431 C3415 1.429 . S
C3431 C3427 1.429 . S
C3431 C3432 1.523 . S
C3432 C3416 1.368 . S
C3432 C3428 1.368 . S
C3432 C3431 1.523 . S
H3433 C3408 0.950 . S
H3434 C3410 0.950 . S
H3435 C3411 0.949 . S
H3436 C3413 0.950 . S
H3437 C3415 0.950 . S
C3438 C3439 1.349 . S
C3438 C3440 1.327 . S
C3438 H3463 0.950 . S
C3439 C3438 1.349 . S
C3439 C3455 1.349 . S
C3440 C3438 1.327 . S
C3440 C3459 1.429 . S
C3440 H3464 0.950 . S
C3441 C3458 1.574 . S
C3441 C3460 1.368 . S
C3441 H3465 0.949 . S
H3442 C3446 0.949 . S
C3443 C3444 1.349 . S
C3443 C3445 1.327 . S
C3443 H3466 0.950 . S
C3444 C3443 1.349 . S
C3444 C3456 1.349 . S
C3445 C3443 1.327 . S
C3445 C3461 1.429 . S
C3445 H3467 0.950 . S
C3446 H3442 0.949 . S
C3446 C3454 1.574 . S
C3446 C3462 1.368 . S
H3447 C3455 0.950 . S
H3448 C3453 0.950 . S
H3449 C3454 0.949 . S
H3450 C3456 0.950 . S
H3451 C3457 0.950 . S
H3452 C3458 0.949 . S
C3453 H3448 0.950 . S
C3453 C3455 1.327 . S
C3453 C3459 1.429 . S
C3454 C3446 1.574 . S
C3454 H3449 0.949 . S
C3454 C3460 1.368 . S
C3455 C3439 1.349 . S
C3455 H3447 0.950 . S
C3455 C3453 1.327 . S
C3456 C3444 1.349 . S
C3456 H3450 0.950 . S
C3456 C3457 1.327 . S
C3457 H3451 0.950 . S
C3457 C3456 1.327 . S
C3457 C3461 1.429 . S
C3458 C3441 1.574 . S
C3458 H3452 0.949 . S
C3458 C3462 1.368 . S
C3459 C3440 1.429 . S
C3459 C3453 1.429 . S
C3459 C3460 1.523 . S
C3460 C3441 1.368 . S
C3460 C3454 1.368 . S
C3460 C3459 1.523 . S
C3461 C3445 1.429 . S
C3461 C3457 1.429 . S
C3461 C3462 1.523 . S
C3462 C3446 1.368 . S
C3462 C3458 1.368 . S
C3462 C3461 1.523 . S
H3463 C3438 0.950 . S
H3464 C3440 0.950 . S
H3465 C3441 0.949 . S
H3466 C3443 0.950 . S
H3467 C3445 0.950 . S
C3468 C3469 1.349 . S
C3468 C3470 1.327 . S
C3468 H3493 0.950 . S
C3469 C3468 1.349 . S
C3469 C3485 1.349 . S
C3470 C3468 1.327 . S
C3470 C3489 1.429 . S
C3470 H3494 0.950 . S
C3471 C3488 1.574 . S
C3471 C3490 1.368 . S
C3471 H3495 0.949 . S
H3472 C3476 0.949 . S
C3473 C3474 1.349 . S
C3473 C3475 1.327 . S
C3473 H3496 0.950 . S
C3474 C3473 1.349 . S
C3474 C3486 1.349 . S
C3475 C3473 1.327 . S
C3475 C3491 1.429 . S
C3475 H3497 0.950 . S
C3476 H3472 0.949 . S
C3476 C3484 1.574 . S
C3476 C3492 1.368 . S
H3477 C3485 0.950 . S
H3478 C3483 0.950 . S
H3479 C3484 0.949 . S
H3480 C3486 0.950 . S
H3481 C3487 0.950 . S
H3482 C3488 0.949 . S
C3483 H3478 0.950 . S
C3483 C3485 1.327 . S
C3483 C3489 1.429 . S
C3484 C3476 1.574 . S
C3484 H3479 0.949 . S
C3484 C3490 1.368 . S
C3485 C3469 1.349 . S
C3485 H3477 0.950 . S
C3485 C3483 1.327 . S
C3486 C3474 1.349 . S
C3486 H3480 0.950 . S
C3486 C3487 1.327 . S
C3487 H3481 0.950 . S
C3487 C3486 1.327 . S
C3487 C3491 1.429 . S
C3488 C3471 1.574 . S
C3488 H3482 0.949 . S
C3488 C3492 1.368 . S
C3489 C3470 1.429 . S
C3489 C3483 1.429 . S
C3489 C3490 1.523 . S
C3490 C3471 1.368 . S
C3490 C3484 1.368 . S
C3490 C3489 1.523 . S
C3491 C3475 1.429 . S
C3491 C3487 1.429 . S
C3491 C3492 1.523 . S
C3492 C3476 1.368 . S
C3492 C3488 1.368 . S
C3492 C3491 1.523 . S
H3493 C3468 0.950 . S
H3494 C3470 0.950 . S
H3495 C3471 0.949 . S
H3496 C3473 0.950 . S
H3497 C3475 0.950 . S
C3498 C3499 1.349 . S
C3498 C3500 1.327 . S
C3498 H3523 0.950 . S
C3499 C3498 1.349 . S
C3499 C3515 1.349 . S
C3500 C3498 1.327 . S
C3500 C3519 1.429 . S
C3500 H3524 0.950 . S
C3501 C3518 1.574 . S
C3501 C3520 1.368 . S
C3501 H3525 0.949 . S
H3502 C3506 0.949 . S
C3503 C3504 1.349 . S
C3503 C3505 1.327 . S
C3503 H3526 0.950 . S
C3504 C3503 1.349 . S
C3504 C3516 1.349 . S
C3505 C3503 1.327 . S
C3505 C3521 1.429 . S
C3505 H3527 0.950 . S
C3506 H3502 0.949 . S
C3506 C3514 1.574 . S
C3506 C3522 1.368 . S
H3507 C3515 0.950 . S
H3508 C3513 0.950 . S
H3509 C3514 0.949 . S
H3510 C3516 0.950 . S
H3511 C3517 0.950 . S
H3512 C3518 0.949 . S
C3513 H3508 0.950 . S
C3513 C3515 1.327 . S
C3513 C3519 1.429 . S
C3514 C3506 1.574 . S
C3514 H3509 0.949 . S
C3514 C3520 1.368 . S
C3515 C3499 1.349 . S
C3515 H3507 0.950 . S
C3515 C3513 1.327 . S
C3516 C3504 1.349 . S
C3516 H3510 0.950 . S
C3516 C3517 1.327 . S
C3517 H3511 0.950 . S
C3517 C3516 1.327 . S
C3517 C3521 1.429 . S
C3518 C3501 1.574 . S
C3518 H3512 0.949 . S
C3518 C3522 1.368 . S
C3519 C3500 1.429 . S
C3519 C3513 1.429 . S
C3519 C3520 1.523 . S
C3520 C3501 1.368 . S
C3520 C3514 1.368 . S
C3520 C3519 1.523 . S
C3521 C3505 1.429 . S
C3521 C3517 1.429 . S
C3521 C3522 1.523 . S
C3522 C3506 1.368 . S
C3522 C3518 1.368 . S
C3522 C3521 1.523 . S
H3523 C3498 0.950 . S
H3524 C3500 0.950 . S
H3525 C3501 0.949 . S
H3526 C3503 0.950 . S
H3527 C3505 0.950 . S
C3528 C3529 1.349 . S
C3528 C3530 1.327 . S
C3528 H3553 0.950 . S
C3529 C3528 1.349 . S
C3529 C3545 1.349 . S
C3530 C3528 1.327 . S
C3530 C3549 1.429 . S
C3530 H3554 0.950 . S
C3531 C3548 1.574 . S
C3531 C3550 1.368 . S
C3531 H3555 0.949 . S
H3532 C3536 0.949 . S
C3533 C3534 1.349 . S
C3533 C3535 1.327 . S
C3533 H3556 0.950 . S
C3534 C3533 1.349 . S
C3534 C3546 1.349 . S
C3535 C3533 1.327 . S
C3535 C3551 1.429 . S
C3535 H3557 0.950 . S
C3536 H3532 0.949 . S
C3536 C3544 1.574 . S
C3536 C3552 1.368 . S
H3537 C3545 0.950 . S
H3538 C3543 0.950 . S
H3539 C3544 0.949 . S
H3540 C3546 0.950 . S
H3541 C3547 0.950 . S
H3542 C3548 0.949 . S
C3543 H3538 0.950 . S
C3543 C3545 1.327 . S
C3543 C3549 1.429 . S
C3544 C3536 1.574 . S
C3544 H3539 0.949 . S
C3544 C3550 1.368 . S
C3545 C3529 1.349 . S
C3545 H3537 0.950 . S
C3545 C3543 1.327 . S
C3546 C3534 1.349 . S
C3546 H3540 0.950 . S
C3546 C3547 1.327 . S
C3547 H3541 0.950 . S
C3547 C3546 1.327 . S
C3547 C3551 1.429 . S
C3548 C3531 1.574 . S
C3548 H3542 0.949 . S
C3548 C3552 1.368 . S
C3549 C3530 1.429 . S
C3549 C3543 1.429 . S
C3549 C3550 1.523 . S
C3550 C3531 1.368 . S
C3550 C3544 1.368 . S
C3550 C3549 1.523 . S
C3551 C3535 1.429 . S
C3551 C3547 1.429 . S
C3551 C3552 1.523 . S
C3552 C3536 1.368 . S
C3552 C3548 1.368 . S
C3552 C3551 1.523 . S
H3553 C3528 0.950 . S
H3554 C3530 0.950 . S
H3555 C3531 0.949 . S
H3556 C3533 0.950 . S
H3557 C3535 0.950 . S
C3558 C3559 1.349 . S
C3558 C3560 1.327 . S
C3558 H3583 0.950 . S
C3559 C3558 1.349 . S
C3559 C3575 1.349 . S
C3560 C3558 1.327 . S
C3560 C3579 1.429 . S
C3560 H3584 0.950 . S
C3561 C3578 1.574 . S
C3561 C3580 1.368 . S
C3561 H3585 0.949 . S
H3562 C3566 0.949 . S
C3563 C3564 1.349 . S
C3563 C3565 1.327 . S
C3563 H3586 0.950 . S
C3564 C3563 1.349 . S
C3564 C3576 1.349 . S
C3565 C3563 1.327 . S
C3565 C3581 1.429 . S
C3565 H3587 0.950 . S
C3566 H3562 0.949 . S
C3566 C3574 1.574 . S
C3566 C3582 1.368 . S
H3567 C3575 0.950 . S
H3568 C3573 0.950 . S
H3569 C3574 0.949 . S
H3570 C3576 0.950 . S
H3571 C3577 0.950 . S
H3572 C3578 0.949 . S
C3573 H3568 0.950 . S
C3573 C3575 1.327 . S
C3573 C3579 1.429 . S
C3574 C3566 1.574 . S
C3574 H3569 0.949 . S
C3574 C3580 1.368 . S
C3575 C3559 1.349 . S
C3575 H3567 0.950 . S
C3575 C3573 1.327 . S
C3576 C3564 1.349 . S
C3576 H3570 0.950 . S
C3576 C3577 1.327 . S
C3577 H3571 0.950 . S
C3577 C3576 1.327 . S
C3577 C3581 1.429 . S
C3578 C3561 1.574 . S
C3578 H3572 0.949 . S
C3578 C3582 1.368 . S
C3579 C3560 1.429 . S
C3579 C3573 1.429 . S
C3579 C3580 1.523 . S
C3580 C3561 1.368 . S
C3580 C3574 1.368 . S
C3580 C3579 1.523 . S
C3581 C3565 1.429 . S
C3581 C3577 1.429 . S
C3581 C3582 1.523 . S
C3582 C3566 1.368 . S
C3582 C3578 1.368 . S
C3582 C3581 1.523 . S
H3583 C3558 0.950 . S
H3584 C3560 0.950 . S
H3585 C3561 0.949 . S
H3586 C3563 0.950 . S
H3587 C3565 0.950 . S
C3588 C3589 1.349 . S
C3588 C3590 1.327 . S
C3588 H3613 0.950 . S
C3589 C3588 1.349 . S
C3589 C3605 1.349 . S
C3590 C3588 1.327 . S
C3590 C3609 1.429 . S
C3590 H3614 0.950 . S
C3591 C3608 1.574 . S
C3591 C3610 1.368 . S
C3591 H3615 0.949 . S
H3592 C3596 0.949 . S
C3593 C3594 1.349 . S
C3593 C3595 1.327 . S
C3593 H3616 0.950 . S
C3594 C3593 1.349 . S
C3594 C3606 1.349 . S
C3595 C3593 1.327 . S
C3595 C3611 1.429 . S
C3595 H3617 0.950 . S
C3596 H3592 0.949 . S
C3596 C3604 1.574 . S
C3596 C3612 1.368 . S
H3597 C3605 0.950 . S
H3598 C3603 0.950 . S
H3599 C3604 0.949 . S
H3600 C3606 0.950 . S
H3601 C3607 0.950 . S
H3602 C3608 0.949 . S
C3603 H3598 0.950 . S
C3603 C3605 1.327 . S
C3603 C3609 1.429 . S
C3604 C3596 1.574 . S
C3604 H3599 0.949 . S
C3604 C3610 1.368 . S
C3605 C3589 1.349 . S
C3605 H3597 0.950 . S
C3605 C3603 1.327 . S
C3606 C3594 1.349 . S
C3606 H3600 0.950 . S
C3606 C3607 1.327 . S
C3607 H3601 0.950 . S
C3607 C3606 1.327 . S
C3607 C3611 1.429 . S
C3608 C3591 1.574 . S
C3608 H3602 0.949 . S
C3608 C3612 1.368 . S
C3609 C3590 1.429 . S
C3609 C3603 1.429 . S
C3609 C3610 1.523 . S
C3610 C3591 1.368 . S
C3610 C3604 1.368 . S
C3610 C3609 1.523 . S
C3611 C3595 1.429 . S
C3611 C3607 1.429 . S
C3611 C3612 1.523 . S
C3612 C3596 1.368 . S
C3612 C3608 1.368 . S
C3612 C3611 1.523 . S
H3613 C3588 0.950 . S
H3614 C3590 0.950 . S
H3615 C3591 0.949 . S
H3616 C3593 0.950 . S
H3617 C3595 0.950 . S
C3618 C3619 1.349 . S
C3618 C3620 1.327 . S
C3618 H3643 0.950 . S
C3619 C3618 1.349 . S
C3619 C3635 1.349 . S
C3620 C3618 1.327 . S
C3620 C3639 1.429 . S
C3620 H3644 0.950 . S
C3621 C3638 1.574 . S
C3621 C3640 1.368 . S
C3621 H3645 0.949 . S
H3622 C3626 0.949 . S
C3623 C3624 1.349 . S
C3623 C3625 1.327 . S
C3623 H3646 0.950 . S
C3624 C3623 1.349 . S
C3624 C3636 1.349 . S
C3625 C3623 1.327 . S
C3625 C3641 1.429 . S
C3625 H3647 0.950 . S
C3626 H3622 0.949 . S
C3626 C3634 1.574 . S
C3626 C3642 1.368 . S
H3627 C3635 0.950 . S
H3628 C3633 0.950 . S
H3629 C3634 0.949 . S
H3630 C3636 0.950 . S
H3631 C3637 0.950 . S
H3632 C3638 0.949 . S
C3633 H3628 0.950 . S
C3633 C3635 1.327 . S
C3633 C3639 1.429 . S
C3634 C3626 1.574 . S
C3634 H3629 0.949 . S
C3634 C3640 1.368 . S
C3635 C3619 1.349 . S
C3635 H3627 0.950 . S
C3635 C3633 1.327 . S
C3636 C3624 1.349 . S
C3636 H3630 0.950 . S
C3636 C3637 1.327 . S
C3637 H3631 0.950 . S
C3637 C3636 1.327 . S
C3637 C3641 1.429 . S
C3638 C3621 1.574 . S
C3638 H3632 0.949 . S
C3638 C3642 1.368 . S
C3639 C3620 1.429 . S
C3639 C3633 1.429 . S
C3639 C3640 1.523 . S
C3640 C3621 1.368 . S
C3640 C3634 1.368 . S
C3640 C3639 1.523 . S
C3641 C3625 1.429 . S
C3641 C3637 1.429 . S
C3641 C3642 1.523 . S
C3642 C3626 1.368 . S
C3642 C3638 1.368 . S
C3642 C3641 1.523 . S
H3643 C3618 0.950 . S
H3644 C3620 0.950 . S
H3645 C3621 0.949 . S
H3646 C3623 0.950 . S
H3647 C3625 0.950 . S
C3648 C3649 1.349 . S
C3648 C3650 1.327 . S
C3648 H3673 0.915 1_556 S
C3649 C3648 1.349 . S
C3649 C3665 1.349 . S
C3650 C3648 1.327 . S
C3650 C3669 1.429 . S
C3650 H3674 0.950 . S
C3651 C3668 1.574 . S
C3651 C3670 1.368 . S
C3651 H3675 0.949 . S
H3652 C3656 0.949 . S
C3653 C3654 1.349 . S
C3653 C3655 1.327 . S
C3653 H3676 0.950 . S
C3654 C3653 1.349 . S
C3654 C3666 1.349 . S
C3655 C3653 1.327 . S
C3655 C3671 1.429 . S
C3655 H3677 0.950 . S
C3656 H3652 0.949 . S
C3656 C3664 1.574 . S
C3656 C3672 1.368 . S
H3657 C3665 0.950 . S
H3658 C3663 0.950 . S
H3659 C3664 0.949 . S
H3660 C3666 0.950 . S
H3661 C3667 0.950 . S
H3662 C3668 0.949 . S
C3663 H3658 0.950 . S
C3663 C3665 1.327 . S
C3663 C3669 1.429 . S
C3664 C3656 1.574 . S
C3664 H3659 0.949 . S
C3664 C3670 1.368 . S
C3665 C3649 1.349 . S
C3665 H3657 0.950 . S
C3665 C3663 1.327 . S
C3666 C3654 1.349 . S
C3666 H3660 0.950 . S
C3666 C3667 1.327 . S
C3667 H3661 0.950 . S
C3667 C3666 1.327 . S
C3667 C3671 1.429 . S
C3668 C3651 1.574 . S
C3668 H3662 0.949 . S
C3668 C3672 1.368 . S
C3669 C3650 1.429 . S
C3669 C3663 1.429 . S
C3669 C3670 1.523 . S
C3670 C3651 1.368 . S
C3670 C3664 1.368 . S
C3670 C3669 1.523 . S
C3671 C3655 1.429 . S
C3671 C3667 1.429 . S
C3671 C3672 1.523 . S
C3672 C3656 1.368 . S
C3672 C3668 1.368 . S
C3672 C3671 1.523 . S
H3673 C3648 0.915 1_554 S
H3674 C3650 0.950 . S
H3675 C3651 0.949 . S
H3676 C3653 0.950 . S
H3677 C3655 0.950 . S
C3678 C3679 1.349 . S
C3678 C3680 1.327 . S
C3678 H3703 0.950 . S
C3679 C3678 1.349 . S
C3679 C3695 1.349 . S
C3680 C3678 1.327 . S
C3680 C3699 1.429 . S
C3680 H3704 0.950 . S
C3681 C3698 1.574 . S
C3681 C3700 1.368 . S
C3681 H3705 0.949 . S
H3682 C3686 0.949 . S
C3683 C3684 1.349 . S
C3683 C3685 1.327 . S
C3683 H3706 0.950 . S
C3684 C3683 1.349 . S
C3684 C3696 1.349 . S
C3685 C3683 1.327 . S
C3685 C3701 1.429 . S
C3685 H3707 0.950 . S
C3686 H3682 0.949 . S
C3686 C3694 1.574 . S
C3686 C3702 1.368 . S
H3687 C3695 1.002 . S
H3688 C3693 0.950 . S
H3689 C3694 0.949 . S
H3690 C3696 0.950 . S
H3691 C3697 0.950 . S
H3692 C3698 0.949 . S
C3693 H3688 0.950 . S
C3693 C3695 1.327 . S
C3693 C3699 1.429 . S
C3694 C3686 1.574 . S
C3694 H3689 0.949 . S
C3694 C3700 1.368 . S
C3695 C3679 1.349 . S
C3695 H3687 1.002 . S
C3695 C3693 1.327 . S
C3696 C3684 1.349 . S
C3696 H3690 0.950 . S
C3696 C3697 1.327 . S
C3697 H3691 0.950 . S
C3697 C3696 1.327 . S
C3697 C3701 1.429 . S
C3698 C3681 1.574 . S
C3698 H3692 0.949 . S
C3698 C3702 1.368 . S
C3699 C3680 1.429 . S
C3699 C3693 1.429 . S
C3699 C3700 1.523 . S
C3700 C3681 1.368 . S
C3700 C3694 1.368 . S
C3700 C3699 1.523 . S
C3701 C3685 1.429 . S
C3701 C3697 1.429 . S
C3701 C3702 1.523 . S
C3702 C3686 1.368 . S
C3702 C3698 1.368 . S
C3702 C3701 1.523 . S
H3703 C3678 0.950 . S
H3704 C3680 0.950 . S
H3705 C3681 0.949 . S
H3706 C3683 0.950 . S
H3707 C3685 0.950 . S
C3708 C3709 1.349 . S
C3708 C3710 1.327 . S
C3708 H3733 0.950 . S
C3709 C3708 1.349 . S
C3709 C3725 1.349 . S
C3710 C3708 1.327 . S
C3710 C3729 1.429 . S
C3710 H3734 0.950 . S
C3711 C3728 1.574 . S
C3711 C3730 1.368 . S
C3711 H3735 0.949 . S
H3712 C3716 0.949 . S
C3713 C3714 1.349 . S
C3713 C3715 1.327 . S
C3713 H3736 0.950 . S
C3714 C3713 1.349 . S
C3714 C3726 1.349 . S
C3715 C3713 1.327 . S
C3715 C3731 1.429 . S
C3715 H3737 0.950 . S
C3716 H3712 0.949 . S
C3716 C3724 1.574 . S
C3716 C3732 1.368 . S
H3717 C3725 0.950 . S
H3718 C3723 0.950 . S
H3719 C3724 0.949 . S
H3720 C3726 0.950 . S
H3721 C3727 0.950 . S
H3722 C3728 0.949 . S
C3723 H3718 0.950 . S
C3723 C3725 1.327 . S
C3723 C3729 1.429 . S
C3724 C3716 1.574 . S
C3724 H3719 0.949 . S
C3724 C3730 1.368 . S
C3725 C3709 1.349 . S
C3725 H3717 0.950 . S
C3725 C3723 1.327 . S
C3726 C3714 1.349 . S
C3726 H3720 0.950 . S
C3726 C3727 1.327 . S
C3727 H3721 0.950 . S
C3727 C3726 1.327 . S
C3727 C3731 1.429 . S
C3728 C3711 1.574 . S
C3728 H3722 0.949 . S
C3728 C3732 1.368 . S
C3729 C3710 1.429 . S
C3729 C3723 1.429 . S
C3729 C3730 1.523 . S
C3730 C3711 1.368 . S
C3730 C3724 1.368 . S
C3730 C3729 1.523 . S
C3731 C3715 1.429 . S
C3731 C3727 1.429 . S
C3731 C3732 1.523 . S
C3732 C3716 1.368 . S
C3732 C3728 1.368 . S
C3732 C3731 1.523 . S
H3733 C3708 0.950 . S
H3734 C3710 0.950 . S
H3735 C3711 0.949 . S
H3736 C3713 0.950 . S
H3737 C3715 0.950 . S
C3738 C3739 1.349 . S
C3738 C3740 1.327 . S
C3738 H3763 0.950 . S
C3739 C3738 1.349 . S
C3739 C3755 1.349 . S
C3740 C3738 1.327 . S
C3740 C3759 1.429 . S
C3740 H3764 0.950 . S
C3741 C3758 1.574 . S
C3741 C3760 1.368 . S
C3741 H3765 0.949 . S
H3742 C3746 0.949 . S
C3743 C3744 1.349 . S
C3743 C3745 1.327 . S
C3743 H3766 0.950 . S
C3744 C3743 1.349 . S
C3744 C3756 1.349 . S
C3745 C3743 1.327 . S
C3745 C3761 1.429 . S
C3745 H3767 0.950 . S
C3746 H3742 0.949 . S
C3746 C3754 1.574 . S
C3746 C3762 1.368 . S
H3747 C3755 0.995 . S
H3748 C3753 0.950 . S
H3749 C3754 0.949 . S
H3750 C3756 0.950 . S
H3751 C3757 0.950 . S
H3752 C3758 0.949 . S
C3753 H3748 0.950 . S
C3753 C3755 1.327 . S
C3753 C3759 1.429 . S
C3754 C3746 1.574 . S
C3754 H3749 0.949 . S
C3754 C3760 1.368 . S
C3755 C3739 1.349 . S
C3755 H3747 0.995 . S
C3755 C3753 1.327 . S
C3756 C3744 1.349 . S
C3756 H3750 0.950 . S
C3756 C3757 1.327 . S
C3757 H3751 0.950 . S
C3757 C3756 1.327 . S
C3757 C3761 1.429 . S
C3758 C3741 1.574 . S
C3758 H3752 0.949 . S
C3758 C3762 1.368 . S
C3759 C3740 1.429 . S
C3759 C3753 1.429 . S
C3759 C3760 1.523 . S
C3760 C3741 1.368 . S
C3760 C3754 1.368 . S
C3760 C3759 1.523 . S
C3761 C3745 1.429 . S
C3761 C3757 1.429 . S
C3761 C3762 1.523 . S
C3762 C3746 1.368 . S
C3762 C3758 1.368 . S
C3762 C3761 1.523 . S
H3763 C3738 0.950 . S
H3764 C3740 0.950 . S
H3765 C3741 0.949 . S
H3766 C3743 0.950 . S
H3767 C3745 0.950 . S
C3768 C3769 1.349 . S
C3768 C3770 1.327 . S
C3768 H3793 0.950 . S
C3769 C3768 1.349 . S
C3769 C3785 1.349 . S
C3770 C3768 1.327 . S
C3770 C3789 1.429 . S
C3770 H3794 0.950 . S
C3771 C3788 1.574 . S
C3771 C3790 1.368 . S
C3771 H3795 0.949 . S
H3772 C3776 0.949 . S
C3773 C3774 1.349 . S
C3773 C3775 1.327 . S
C3773 H3796 0.950 . S
C3774 C3773 1.349 . S
C3774 C3786 1.349 . S
C3775 C3773 1.327 . S
C3775 C3791 1.429 . S
C3775 H3797 0.950 . S
C3776 H3772 0.949 . S
C3776 C3784 1.574 . S
C3776 C3792 1.368 . S
H3777 C3785 0.950 1_554 S
H3778 C3783 0.950 . S
H3779 C3784 0.949 . S
H3780 C3786 0.950 . S
H3781 C3787 0.950 . S
H3782 C3788 0.949 . S
C3783 H3778 0.950 . S
C3783 C3785 1.327 . S
C3783 C3789 1.429 . S
C3784 C3776 1.574 . S
C3784 H3779 0.949 . S
C3784 C3790 1.368 . S
C3785 C3769 1.349 . S
C3785 H3777 0.950 1_556 S
C3785 C3783 1.327 . S
C3786 C3774 1.349 . S
C3786 H3780 0.950 . S
C3786 C3787 1.327 . S
C3787 H3781 0.950 . S
C3787 C3786 1.327 . S
C3787 C3791 1.429 . S
C3788 C3771 1.574 . S
C3788 H3782 0.949 . S
C3788 C3792 1.368 . S
C3789 C3770 1.429 . S
C3789 C3783 1.429 . S
C3789 C3790 1.523 . S
C3790 C3771 1.368 . S
C3790 C3784 1.368 . S
C3790 C3789 1.523 . S
C3791 C3775 1.429 . S
C3791 C3787 1.429 . S
C3791 C3792 1.523 . S
C3792 C3776 1.368 . S
C3792 C3788 1.368 . S
C3792 C3791 1.523 . S
H3793 C3768 0.950 . S
H3794 C3770 0.950 . S
H3795 C3771 0.949 . S
H3796 C3773 0.950 . S
H3797 C3775 0.950 . S
C3798 C3799 1.349 . S
C3798 C3800 1.327 . S
C3798 H3823 0.950 . S
C3799 C3798 1.349 . S
C3799 C3815 1.349 . S
C3800 C3798 1.327 . S
C3800 C3819 1.429 . S
C3800 H3824 0.950 . S
C3801 C3818 1.574 . S
C3801 C3820 1.368 . S
C3801 H3825 0.949 . S
H3802 C3806 0.949 . S
C3803 C3804 1.349 . S
C3803 C3805 1.327 . S
C3803 H3826 0.950 . S
C3804 C3803 1.349 . S
C3804 C3816 1.349 . S
C3805 C3803 1.327 . S
C3805 C3821 1.429 . S
C3805 H3827 0.950 . S
C3806 H3802 0.949 . S
C3806 C3814 1.574 . S
C3806 C3822 1.368 . S
H3807 C3815 0.950 . S
H3808 C3813 0.950 . S
H3809 C3814 0.949 . S
H3810 C3816 0.950 . S
H3811 C3817 0.950 . S
H3812 C3818 0.949 . S
C3813 H3808 0.950 . S
C3813 C3815 1.327 . S
C3813 C3819 1.429 . S
C3814 C3806 1.574 . S
C3814 H3809 0.949 . S
C3814 C3820 1.368 . S
C3815 C3799 1.349 . S
C3815 H3807 0.950 . S
C3815 C3813 1.327 . S
C3816 C3804 1.349 . S
C3816 H3810 0.950 . S
C3816 C3817 1.327 . S
C3817 H3811 0.950 . S
C3817 C3816 1.327 . S
C3817 C3821 1.429 . S
C3818 C3801 1.574 . S
C3818 H3812 0.949 . S
C3818 C3822 1.368 . S
C3819 C3800 1.429 . S
C3819 C3813 1.429 . S
C3819 C3820 1.523 . S
C3820 C3801 1.368 . S
C3820 C3814 1.368 . S
C3820 C3819 1.523 . S
C3821 C3805 1.429 . S
C3821 C3817 1.429 . S
C3821 C3822 1.523 . S
C3822 C3806 1.368 . S
C3822 C3818 1.368 . S
C3822 C3821 1.523 . S
H3823 C3798 0.950 . S
H3824 C3800 0.950 . S
H3825 C3801 0.949 . S
H3826 C3803 0.950 . S
H3827 C3805 0.950 . S
C3828 C3829 1.349 . S
C3828 C3830 1.327 . S
C3828 H3853 0.950 . S
C3829 C3828 1.349 . S
C3829 C3845 1.349 . S
C3830 C3828 1.327 . S
C3830 C3849 1.429 . S
C3830 H3854 0.950 . S
C3831 C3848 1.574 . S
C3831 C3850 1.368 . S
C3831 H3855 0.949 . S
H3832 C3836 0.949 . S
C3833 C3834 1.349 . S
C3833 C3835 1.327 . S
C3833 H3856 0.950 . S
C3834 C3833 1.349 . S
C3834 C3846 1.349 . S
C3835 C3833 1.327 . S
C3835 C3851 1.429 . S
C3835 H3857 0.950 . S
C3836 H3832 0.949 . S
C3836 C3844 1.574 . S
C3836 C3852 1.368 . S
H3837 C3845 0.950 . S
H3838 C3843 0.950 . S
H3839 C3844 0.949 . S
H3840 C3846 0.950 . S
H3841 C3847 0.950 . S
H3842 C3848 0.949 . S
C3843 H3838 0.950 . S
C3843 C3845 1.327 . S
C3843 C3849 1.429 . S
C3844 C3836 1.574 . S
C3844 H3839 0.949 . S
C3844 C3850 1.368 . S
C3845 C3829 1.349 . S
C3845 H3837 0.950 . S
C3845 C3843 1.327 . S
C3846 C3834 1.349 . S
C3846 H3840 0.950 . S
C3846 C3847 1.327 . S
C3847 H3841 0.950 . S
C3847 C3846 1.327 . S
C3847 C3851 1.429 . S
C3848 C3831 1.574 . S
C3848 H3842 0.949 . S
C3848 C3852 1.368 . S
C3849 C3830 1.429 . S
C3849 C3843 1.429 . S
C3849 C3850 1.523 . S
C3850 C3831 1.368 . S
C3850 C3844 1.368 . S
C3850 C3849 1.523 . S
C3851 C3835 1.429 . S
C3851 C3847 1.429 . S
C3851 C3852 1.523 . S
C3852 C3836 1.368 . S
C3852 C3848 1.368 . S
C3852 C3851 1.523 . S
H3853 C3828 0.950 . S
H3854 C3830 0.950 . S
H3855 C3831 0.949 . S
H3856 C3833 0.950 . S
H3857 C3835 0.950 . S
C3858 C3859 1.349 . S
C3858 C3860 1.327 . S
C3858 H3883 0.950 . S
C3859 C3858 1.349 . S
C3859 C3875 1.349 . S
C3860 C3858 1.327 . S
C3860 C3879 1.429 . S
C3860 H3884 0.950 . S
C3861 C3878 1.574 . S
C3861 C3880 1.368 . S
C3861 H3885 0.949 . S
H3862 C3866 0.949 . S
C3863 C3864 1.349 . S
C3863 C3865 1.327 . S
C3863 H3886 0.950 . S
C3864 C3863 1.349 . S
C3864 C3876 1.349 . S
C3865 C3863 1.327 . S
C3865 C3881 1.429 . S
C3865 H3887 0.950 . S
C3866 H3862 0.949 . S
C3866 C3874 1.574 . S
C3866 C3882 1.368 . S
H3867 C3875 0.950 . S
H3868 C3873 0.950 . S
H3869 C3874 0.949 . S
H3870 C3876 0.950 . S
H3871 C3877 0.950 . S
H3872 C3878 0.949 . S
C3873 H3868 0.950 . S
C3873 C3875 1.327 . S
C3873 C3879 1.429 . S
C3874 C3866 1.574 . S
C3874 H3869 0.949 . S
C3874 C3880 1.368 . S
C3875 C3859 1.349 . S
C3875 H3867 0.950 . S
C3875 C3873 1.327 . S
C3876 C3864 1.349 . S
C3876 H3870 0.950 . S
C3876 C3877 1.327 . S
C3877 H3871 0.950 . S
C3877 C3876 1.327 . S
C3877 C3881 1.429 . S
C3878 C3861 1.574 . S
C3878 H3872 0.949 . S
C3878 C3882 1.368 . S
C3879 C3860 1.429 . S
C3879 C3873 1.429 . S
C3879 C3880 1.523 . S
C3880 C3861 1.368 . S
C3880 C3874 1.368 . S
C3880 C3879 1.523 . S
C3881 C3865 1.429 . S
C3881 C3877 1.429 . S
C3881 C3882 1.523 . S
C3882 C3866 1.368 . S
C3882 C3878 1.368 . S
C3882 C3881 1.523 . S
H3883 C3858 0.950 . S
H3884 C3860 0.950 . S
H3885 C3861 0.949 . S
H3886 C3863 0.950 . S
H3887 C3865 0.950 . S
C3888 C3889 1.349 . S
C3888 C3890 1.327 . S
C3888 H3913 0.950 . S
C3889 C3888 1.349 . S
C3889 C3905 1.349 . S
C3890 C3888 1.327 . S
C3890 C3909 1.429 . S
C3890 H3914 0.950 . S
C3891 C3908 1.574 . S
C3891 C3910 1.368 . S
C3891 H3915 0.949 . S
H3892 C3896 0.949 . S
C3893 C3894 1.349 . S
C3893 C3895 1.327 . S
C3893 H3916 0.950 . S
C3894 C3893 1.349 . S
C3894 C3906 1.349 . S
C3895 C3893 1.327 . S
C3895 C3911 1.429 . S
C3895 H3917 0.950 . S
C3896 H3892 0.949 . S
C3896 C3904 1.574 . S
C3896 C3912 1.368 . S
H3897 C3905 0.950 . S
H3898 C3903 0.950 . S
H3899 C3904 0.949 . S
H3900 C3906 0.950 . S
H3901 C3907 0.950 . S
H3902 C3908 0.949 . S
C3903 H3898 0.950 . S
C3903 C3905 1.327 . S
C3903 C3909 1.429 . S
C3904 C3896 1.574 . S
C3904 H3899 0.949 . S
C3904 C3910 1.368 . S
C3905 C3889 1.349 . S
C3905 H3897 0.950 . S
C3905 C3903 1.327 . S
C3906 C3894 1.349 . S
C3906 H3900 0.950 . S
C3906 C3907 1.327 . S
C3907 H3901 0.950 . S
C3907 C3906 1.327 . S
C3907 C3911 1.429 . S
C3908 C3891 1.574 . S
C3908 H3902 0.949 . S
C3908 C3912 1.368 . S
C3909 C3890 1.429 . S
C3909 C3903 1.429 . S
C3909 C3910 1.523 . S
C3910 C3891 1.368 . S
C3910 C3904 1.368 . S
C3910 C3909 1.523 . S
C3911 C3895 1.429 . S
C3911 C3907 1.429 . S
C3911 C3912 1.523 . S
C3912 C3896 1.368 . S
C3912 C3908 1.368 . S
C3912 C3911 1.523 . S
H3913 C3888 0.950 . S
H3914 C3890 0.950 . S
H3915 C3891 0.949 . S
H3916 C3893 0.950 . S
H3917 C3895 0.950 . S
C3918 C3919 1.349 . S
C3918 C3920 1.327 . S
C3918 H3943 0.950 . S
C3919 C3918 1.349 . S
C3919 C3935 1.349 . S
C3920 C3918 1.327 . S
C3920 C3939 1.429 . S
C3920 H3944 0.950 . S
C3921 C3938 1.574 . S
C3921 C3940 1.368 . S
C3921 H3945 0.949 . S
H3922 C3926 0.949 . S
C3923 C3924 1.349 . S
C3923 C3925 1.327 . S
C3923 H3946 0.950 . S
C3924 C3923 1.349 . S
C3924 C3936 1.349 . S
C3925 C3923 1.327 . S
C3925 C3941 1.429 . S
C3925 H3947 0.950 . S
C3926 H3922 0.949 . S
C3926 C3934 1.574 . S
C3926 C3942 1.368 . S
H3927 C3935 0.950 . S
H3928 C3933 0.950 . S
H3929 C3934 0.949 . S
H3930 C3936 0.950 . S
H3931 C3937 0.950 . S
H3932 C3938 0.949 . S
C3933 H3928 0.950 . S
C3933 C3935 1.327 . S
C3933 C3939 1.429 . S
C3934 C3926 1.574 . S
C3934 H3929 0.949 . S
C3934 C3940 1.368 . S
C3935 C3919 1.349 . S
C3935 H3927 0.950 . S
C3935 C3933 1.327 . S
C3936 C3924 1.349 . S
C3936 H3930 0.950 . S
C3936 C3937 1.327 . S
C3937 H3931 0.950 . S
C3937 C3936 1.327 . S
C3937 C3941 1.429 . S
C3938 C3921 1.574 . S
C3938 H3932 0.949 . S
C3938 C3942 1.368 . S
C3939 C3920 1.429 . S
C3939 C3933 1.429 . S
C3939 C3940 1.523 . S
C3940 C3921 1.368 . S
C3940 C3934 1.368 . S
C3940 C3939 1.523 . S
C3941 C3925 1.429 . S
C3941 C3937 1.429 . S
C3941 C3942 1.523 . S
C3942 C3926 1.368 . S
C3942 C3938 1.368 . S
C3942 C3941 1.523 . S
H3943 C3918 0.950 . S
H3944 C3920 0.950 . S
H3945 C3921 0.949 . S
H3946 C3923 0.950 . S
H3947 C3925 0.950 . S
C3948 C3949 1.349 . S
C3948 C3950 1.327 . S
C3948 H3973 0.950 . S
C3949 C3948 1.349 . S
C3949 C3965 1.349 . S
C3950 C3948 1.327 . S
C3950 C3969 1.429 . S
C3950 H3974 0.950 . S
C3951 C3968 1.574 . S
C3951 C3970 1.368 . S
C3951 H3975 0.949 . S
H3952 C3956 0.949 . S
C3953 C3954 1.349 . S
C3953 C3955 1.327 . S
C3953 H3976 0.950 . S
C3954 C3953 1.349 . S
C3954 C3966 1.349 . S
C3955 C3953 1.327 . S
C3955 C3971 1.429 . S
C3955 H3977 0.950 . S
C3956 H3952 0.949 . S
C3956 C3964 1.574 . S
C3956 C3972 1.368 . S
H3957 C3965 0.950 . S
H3958 C3963 0.950 . S
H3959 C3964 0.949 . S
H3960 C3966 0.950 . S
H3961 C3967 0.950 . S
H3962 C3968 0.949 . S
C3963 H3958 0.950 . S
C3963 C3965 1.327 . S
C3963 C3969 1.429 . S
C3964 C3956 1.574 . S
C3964 H3959 0.949 . S
C3964 C3970 1.368 . S
C3965 C3949 1.349 . S
C3965 H3957 0.950 . S
C3965 C3963 1.327 . S
C3966 C3954 1.349 . S
C3966 H3960 0.950 . S
C3966 C3967 1.327 . S
C3967 H3961 0.950 . S
C3967 C3966 1.327 . S
C3967 C3971 1.429 . S
C3968 C3951 1.574 . S
C3968 H3962 0.949 . S
C3968 C3972 1.368 . S
C3969 C3950 1.429 . S
C3969 C3963 1.429 . S
C3969 C3970 1.523 . S
C3970 C3951 1.368 . S
C3970 C3964 1.368 . S
C3970 C3969 1.523 . S
C3971 C3955 1.429 . S
C3971 C3967 1.429 . S
C3971 C3972 1.523 . S
C3972 C3956 1.368 . S
C3972 C3968 1.368 . S
C3972 C3971 1.523 . S
H3973 C3948 0.950 . S
H3974 C3950 0.950 . S
H3975 C3951 0.949 . S
H3976 C3953 0.950 . S
H3977 C3955 0.950 . S
C3978 C3979 1.349 . S
C3978 C3980 1.327 . S
C3978 H4003 0.950 . S
C3979 C3978 1.349 . S
C3979 C3995 1.349 . S
C3980 C3978 1.327 . S
C3980 C3999 1.429 . S
C3980 H4004 0.950 1_455 S
C3981 C3998 1.574 . S
C3981 C4000 1.368 . S
C3981 H4005 0.949 . S
H3982 C3986 0.984 . S
C3983 C3984 1.349 . S
C3983 C3985 1.327 . S
C3983 H4006 0.950 . S
C3984 C3983 1.349 . S
C3984 C3996 1.349 1_455 S
C3985 C3983 1.327 . S
C3985 C4001 1.429 . S
C3985 H4007 0.950 . S
C3986 H3982 0.984 . S
C3986 C3994 1.547 1_655 S
C3986 C4002 1.358 1_655 S
H3987 C3995 0.950 . S
H3988 C3993 0.950 . S
H3989 C3994 0.949 1_655 S
H3990 C3996 0.950 . S
H3991 C3997 0.950 . S
H3992 C3998 0.949 . S
C3993 H3988 0.950 . S
C3993 C3995 1.327 . S
C3993 C3999 1.429 . S
C3994 C3986 1.547 1_455 S
C3994 H3989 0.949 1_455 S
C3994 C4000 1.368 . S
C3995 C3979 1.349 . S
C3995 H3987 0.950 . S
C3995 C3993 1.327 . S
C3996 C3984 1.349 1_655 S
C3996 H3990 0.950 . S
C3996 C3997 1.327 . S
C3997 H3991 0.950 . S
C3997 C3996 1.327 . S
C3997 C4001 1.429 1_655 S
C3998 C3981 1.574 . S
C3998 H3992 0.949 . S
C3998 C4002 1.368 . S
C3999 C3980 1.429 . S
C3999 C3993 1.429 . S
C3999 C4000 1.523 . S
C4000 C3981 1.368 . S
C4000 C3994 1.368 . S
C4000 C3999 1.523 . S
C4001 C3985 1.429 . S
C4001 C3997 1.429 1_455 S
C4001 C4002 1.523 . S
C4002 C3986 1.358 1_455 S
C4002 C3998 1.368 . S
C4002 C4001 1.523 . S
H4003 C3978 0.950 . S
H4004 C3980 0.950 1_655 S
H4005 C3981 0.949 . S
H4006 C3983 0.950 . S
H4007 C3985 0.950 . S
C4008 C4009 1.349 . S
C4008 C4010 1.327 . S
C4008 H4033 0.950 . S
C4009 C4008 1.349 . S
C4009 C4025 1.349 . S
C4010 C4008 1.327 . S
C4010 C4029 1.429 . S
C4010 H4034 0.950 . S
C4011 C4028 1.574 . S
C4011 C4030 1.368 . S
C4011 H4035 0.949 . S
H4012 C4016 0.949 . S
C4013 C4014 1.349 . S
C4013 C4015 1.327 . S
C4013 H4036 0.950 . S
C4014 C4013 1.349 . S
C4014 C4026 1.349 . S
C4015 C4013 1.327 . S
C4015 C4031 1.429 . S
C4015 H4037 0.950 . S
C4016 H4012 0.949 . S
C4016 C4024 1.574 . S
C4016 C4032 1.368 . S
H4017 C4025 0.950 . S
H4018 C4023 0.950 . S
H4019 C4024 0.949 . S
H4020 C4026 0.950 . S
H4021 C4027 0.950 . S
H4022 C4028 0.949 . S
C4023 H4018 0.950 . S
C4023 C4025 1.327 . S
C4023 C4029 1.429 . S
C4024 C4016 1.574 . S
C4024 H4019 0.949 . S
C4024 C4030 1.368 . S
C4025 C4009 1.349 . S
C4025 H4017 0.950 . S
C4025 C4023 1.327 . S
C4026 C4014 1.349 . S
C4026 H4020 0.950 . S
C4026 C4027 1.327 . S
C4027 H4021 0.950 . S
C4027 C4026 1.327 . S
C4027 C4031 1.429 . S
C4028 C4011 1.574 . S
C4028 H4022 0.949 . S
C4028 C4032 1.368 . S
C4029 C4010 1.429 . S
C4029 C4023 1.429 . S
C4029 C4030 1.523 . S
C4030 C4011 1.368 . S
C4030 C4024 1.368 . S
C4030 C4029 1.523 . S
C4031 C4015 1.429 . S
C4031 C4027 1.429 . S
C4031 C4032 1.523 . S
C4032 C4016 1.368 . S
C4032 C4028 1.368 . S
C4032 C4031 1.523 . S
H4033 C4008 0.950 . S
H4034 C4010 0.950 . S
H4035 C4011 0.949 . S
H4036 C4013 0.950 . S
H4037 C4015 0.950 . S
C4038 C4039 1.349 . S
C4038 C4040 1.327 . S
C4038 H4063 0.950 . S
C4039 C4038 1.349 . S
C4039 C4055 1.349 . S
C4040 C4038 1.327 . S
C4040 C4059 1.429 . S
C4040 H4064 0.950 . S
C4041 C4058 1.588 1_565 S
C4041 C4060 1.368 . S
C4041 H4065 0.949 1_565 S
H4042 C4046 0.949 . S
C4043 C4044 1.349 1_545 S
C4043 C4045 1.327 . S
C4043 H4066 0.950 . S
C4044 C4043 1.349 1_565 S
C4044 C4056 1.349 . S
C4045 C4043 1.327 . S
C4045 C4061 1.429 1_545 S
C4045 H4067 0.950 . S
C4046 H4042 0.949 . S
C4046 C4054 1.574 . S
C4046 C4062 1.368 . S
H4047 C4055 0.950 . S
H4048 C4053 0.950 1_545 S
H4049 C4054 0.949 . S
H4050 C4056 0.950 . S
H4051 C4057 0.950 . S
H4052 C4058 0.956 . S
C4053 H4048 0.950 1_565 S
C4053 C4055 1.327 . S
C4053 C4059 1.429 . S
C4054 C4046 1.574 . S
C4054 H4049 0.949 . S
C4054 C4060 1.368 . S
C4055 C4039 1.349 . S
C4055 H4047 0.950 . S
C4055 C4053 1.327 . S
C4056 C4044 1.349 . S
C4056 H4050 0.950 . S
C4056 C4057 1.327 . S
C4057 H4051 0.950 . S
C4057 C4056 1.327 . S
C4057 C4061 1.429 . S
C4058 C4041 1.588 1_545 S
C4058 H4052 0.956 . S
C4058 C4062 1.348 1_545 S
C4059 C4040 1.429 . S
C4059 C4053 1.429 . S
C4059 C4060 1.523 . S
C4060 C4041 1.368 . S
C4060 C4054 1.368 . S
C4060 C4059 1.523 . S
C4061 C4045 1.429 1_565 S
C4061 C4057 1.429 . S
C4061 C4062 1.523 . S
C4062 C4046 1.368 . S
C4062 C4058 1.348 1_565 S
C4062 C4061 1.523 . S
H4063 C4038 0.950 . S
H4064 C4040 0.950 . S
H4065 C4041 0.949 1_545 S
H4066 C4043 0.950 . S
H4067 C4045 0.950 . S
C4068 C4069 1.349 . S
C4068 C4070 1.327 . S
C4068 H4093 0.950 1_565 S
C4069 C4068 1.349 . S
C4069 C4085 1.349 . S
C4070 C4068 1.327 . S
C4070 C4089 1.429 . S
C4070 H4094 0.950 1_565 S
C4071 C4088 1.574 . S
C4071 C4090 1.368 . S
C4071 H4095 0.949 . S
H4072 C4076 0.949 . S
C4073 C4074 1.349 . S
C4073 C4075 1.327 . S
C4073 H4096 0.950 . S
C4074 C4073 1.349 . S
C4074 C4086 1.349 1_565 S
C4075 C4073 1.327 . S
C4075 C4091 1.429 . S
C4075 H4097 0.950 . S
C4076 H4072 0.949 . S
C4076 C4084 1.598 . S
C4076 C4092 1.368 1_545 S
H4077 C4085 0.950 . S
H4078 C4083 0.950 . S
H4079 C4084 0.958 . S
H4080 C4086 0.950 . S
H4081 C4087 0.950 . S
H4082 C4088 0.949 . S
C4083 H4078 0.950 . S
C4083 C4085 1.327 . S
C4083 C4089 1.429 . S
C4084 C4076 1.598 . S
C4084 H4079 0.958 . S
C4084 C4090 1.336 1_545 S
C4085 C4069 1.349 . S
C4085 H4077 0.950 . S
C4085 C4083 1.327 . S
C4086 C4074 1.349 1_545 S
C4086 H4080 0.950 . S
C4086 C4087 1.327 . S
C4087 H4081 0.950 . S
C4087 C4086 1.327 . S
C4087 C4091 1.429 1_545 S
C4088 C4071 1.574 . S
C4088 H4082 0.949 . S
C4088 C4092 1.368 . S
C4089 C4070 1.429 . S
C4089 C4083 1.429 . S
C4089 C4090 1.523 . S
C4090 C4071 1.368 . S
C4090 C4084 1.336 1_565 S
C4090 C4089 1.523 . S
C4091 C4075 1.429 . S
C4091 C4087 1.429 1_565 S
C4091 C4092 1.523 . S
C4092 C4076 1.368 1_565 S
C4092 C4088 1.368 . S
C4092 C4091 1.523 . S
H4093 C4068 0.950 1_545 S
H4094 C4070 0.950 1_545 S
H4095 C4071 0.949 . S
H4096 C4073 0.950 . S
H4097 C4075 0.950 . S
C4098 C4099 1.349 . S
C4098 C4100 1.327 . S
C4098 H4123 0.950 . S
C4099 C4098 1.349 . S
C4099 C4115 1.349 . S
C4100 C4098 1.327 . S
C4100 C4119 1.429 . S
C4100 H4124 0.950 . S
C4101 C4118 1.574 . S
C4101 C4120 1.368 . S
C4101 H4125 0.949 . S
H4102 C4106 0.947 . S
C4103 C4104 1.349 . S
C4103 C4105 1.327 . S
C4103 H4126 0.950 . S
C4104 C4103 1.349 . S
C4104 C4116 1.336 1_455 S
C4105 C4103 1.327 . S
C4105 C4121 1.429 . S
C4105 H4127 0.950 . S
C4106 H4102 0.947 . S
C4106 C4114 1.574 . S
C4106 C4122 1.368 . S
H4107 C4115 0.950 . S
H4108 C4113 0.950 . S
H4109 C4114 0.949 . S
H4110 C4116 0.947 . S
H4111 C4117 0.932 1_655 S
H4112 C4118 0.949 . S
C4113 H4108 0.950 . S
C4113 C4115 1.327 . S
C4113 C4119 1.429 . S
C4114 C4106 1.574 . S
C4114 H4109 0.949 . S
C4114 C4120 1.368 . S
C4115 C4099 1.349 . S
C4115 H4107 0.950 . S
C4115 C4113 1.327 . S
C4116 C4104 1.336 1_655 S
C4116 H4110 0.947 . S
C4116 C4117 1.378 1_655 S
C4117 H4111 0.932 1_455 S
C4117 C4116 1.378 1_455 S
C4117 C4121 1.423 . S
C4118 C4101 1.574 . S
C4118 H4112 0.949 . S
C4118 C4122 1.368 . S
C4119 C4100 1.429 . S
C4119 C4113 1.429 . S
C4119 C4120 1.523 . S
C4120 C4101 1.368 . S
C4120 C4114 1.368 . S
C4120 C4119 1.523 . S
C4121 C4105 1.429 . S
C4121 C4117 1.423 . S
C4121 C4122 1.523 . S
C4122 C4106 1.368 . S
C4122 C4118 1.368 . S
C4122 C4121 1.523 . S
H4123 C4098 0.950 . S
H4124 C4100 0.950 . S
H4125 C4101 0.949 . S
H4126 C4103 0.950 . S
H4127 C4105 0.950 . S
C4128 C4129 1.349 . S
C4128 C4130 1.327 . S
C4128 H4153 0.950 . S
C4129 C4128 1.349 . S
C4129 C4145 1.349 . S
C4130 C4128 1.327 . S
C4130 C4149 1.429 . S
C4130 H4154 0.950 . S
C4131 C4148 1.574 . S
C4131 C4150 1.368 . S
C4131 H4155 0.949 . S
H4132 C4136 0.949 . S
C4133 C4134 1.349 . S
C4133 C4135 1.327 . S
C4133 H4156 0.950 . S
C4134 C4133 1.349 . S
C4134 C4146 1.349 . S
C4135 C4133 1.327 . S
C4135 C4151 1.429 . S
C4135 H4157 0.950 . S
C4136 H4132 0.949 . S
C4136 C4144 1.574 . S
C4136 C4152 1.368 . S
H4137 C4145 0.950 . S
H4138 C4143 0.950 . S
H4139 C4144 0.949 . S
H4140 C4146 0.950 . S
H4141 C4147 0.950 . S
H4142 C4148 0.949 . S
C4143 H4138 0.950 . S
C4143 C4145 1.327 . S
C4143 C4149 1.429 . S
C4144 C4136 1.574 . S
C4144 H4139 0.949 . S
C4144 C4150 1.368 . S
C4145 C4129 1.349 . S
C4145 H4137 0.950 . S
C4145 C4143 1.327 . S
C4146 C4134 1.349 . S
C4146 H4140 0.950 . S
C4146 C4147 1.327 . S
C4147 H4141 0.950 . S
C4147 C4146 1.327 . S
C4147 C4151 1.429 . S
C4148 C4131 1.574 . S
C4148 H4142 0.949 . S
C4148 C4152 1.368 . S
C4149 C4130 1.429 . S
C4149 C4143 1.429 . S
C4149 C4150 1.523 . S
C4150 C4131 1.368 . S
C4150 C4144 1.368 . S
C4150 C4149 1.523 . S
C4151 C4135 1.429 . S
C4151 C4147 1.429 . S
C4151 C4152 1.523 . S
C4152 C4136 1.368 . S
C4152 C4148 1.368 . S
C4152 C4151 1.523 . S
H4153 C4128 0.950 . S
H4154 C4130 0.950 . S
H4155 C4131 0.949 . S
H4156 C4133 0.950 . S
H4157 C4135 0.950 . S
C4158 C4159 1.349 . S
C4158 C4160 1.327 . S
C4158 H4183 0.950 . S
C4159 C4158 1.349 . S
C4159 C4175 1.349 . S
C4160 C4158 1.327 . S
C4160 C4179 1.429 . S
C4160 H4184 0.950 . S
C4161 C4178 1.574 . S
C4161 C4180 1.368 . S
C4161 H4185 0.949 . S
H4162 C4166 0.949 . S
C4163 C4164 1.349 . S
C4163 C4165 1.327 . S
C4163 H4186 0.950 . S
C4164 C4163 1.349 . S
C4164 C4176 1.349 . S
C4165 C4163 1.327 . S
C4165 C4181 1.429 . S
C4165 H4187 0.950 . S
C4166 H4162 0.949 . S
C4166 C4174 1.574 . S
C4166 C4182 1.368 . S
H4167 C4175 0.950 . S
H4168 C4173 0.950 . S
H4169 C4174 0.949 . S
H4170 C4176 0.950 . S
H4171 C4177 0.950 . S
H4172 C4178 0.949 . S
C4173 H4168 0.950 . S
C4173 C4175 1.327 . S
C4173 C4179 1.429 . S
C4174 C4166 1.574 . S
C4174 H4169 0.949 . S
C4174 C4180 1.368 . S
C4175 C4159 1.349 . S
C4175 H4167 0.950 . S
C4175 C4173 1.327 . S
C4176 C4164 1.349 . S
C4176 H4170 0.950 . S
C4176 C4177 1.327 . S
C4177 H4171 0.950 . S
C4177 C4176 1.327 . S
C4177 C4181 1.429 . S
C4178 C4161 1.574 . S
C4178 H4172 0.949 . S
C4178 C4182 1.368 . S
C4179 C4160 1.429 . S
C4179 C4173 1.429 . S
C4179 C4180 1.523 . S
C4180 C4161 1.368 . S
C4180 C4174 1.368 . S
C4180 C4179 1.523 . S
C4181 C4165 1.429 . S
C4181 C4177 1.429 . S
C4181 C4182 1.523 . S
C4182 C4166 1.368 . S
C4182 C4178 1.368 . S
C4182 C4181 1.523 . S
H4183 C4158 0.950 . S
H4184 C4160 0.950 . S
H4185 C4161 0.949 . S
H4186 C4163 0.950 . S
H4187 C4165 0.950 . S
C4188 C4189 1.349 . S
C4188 C4190 1.327 . S
C4188 H4213 0.950 . S
C4189 C4188 1.349 . S
C4189 C4205 1.349 . S
C4190 C4188 1.327 . S
C4190 C4209 1.429 . S
C4190 H4214 0.950 . S
C4191 C4208 1.574 . S
C4191 C4210 1.368 . S
C4191 H4215 0.949 . S
H4192 C4196 0.949 . S
C4193 C4194 1.349 . S
C4193 C4195 1.327 . S
C4193 H4216 0.950 . S
C4194 C4193 1.349 . S
C4194 C4206 1.349 . S
C4195 C4193 1.327 . S
C4195 C4211 1.429 . S
C4195 H4217 0.950 . S
C4196 H4192 0.949 . S
C4196 C4204 1.574 . S
C4196 C4212 1.368 . S
H4197 C4205 0.950 . S
H4198 C4203 0.950 . S
H4199 C4204 0.949 . S
H4200 C4206 0.950 . S
H4201 C4207 0.950 . S
H4202 C4208 0.949 . S
C4203 H4198 0.950 . S
C4203 C4205 1.327 . S
C4203 C4209 1.429 . S
C4204 C4196 1.574 . S
C4204 H4199 0.949 . S
C4204 C4210 1.368 . S
C4205 C4189 1.349 . S
C4205 H4197 0.950 . S
C4205 C4203 1.327 . S
C4206 C4194 1.349 . S
C4206 H4200 0.950 . S
C4206 C4207 1.327 . S
C4207 H4201 0.950 . S
C4207 C4206 1.327 . S
C4207 C4211 1.429 . S
C4208 C4191 1.574 . S
C4208 H4202 0.949 . S
C4208 C4212 1.368 . S
C4209 C4190 1.429 . S
C4209 C4203 1.429 . S
C4209 C4210 1.523 . S
C4210 C4191 1.368 . S
C4210 C4204 1.368 . S
C4210 C4209 1.523 . S
C4211 C4195 1.429 . S
C4211 C4207 1.429 . S
C4211 C4212 1.523 . S
C4212 C4196 1.368 . S
C4212 C4208 1.368 . S
C4212 C4211 1.523 . S
H4213 C4188 0.950 . S
H4214 C4190 0.950 . S
H4215 C4191 0.949 . S
H4216 C4193 0.950 . S
H4217 C4195 0.950 . S
C4218 C4219 1.349 . S
C4218 C4220 1.327 . S
C4218 H4243 0.950 . S
C4219 C4218 1.349 . S
C4219 C4235 1.349 . S
C4220 C4218 1.327 . S
C4220 C4239 1.429 . S
C4220 H4244 0.950 . S
C4221 C4238 1.574 . S
C4221 C4240 1.368 . S
C4221 H4245 0.949 . S
H4222 C4226 0.949 . S
C4223 C4224 1.349 . S
C4223 C4225 1.327 . S
C4223 H4246 0.950 . S
C4224 C4223 1.349 . S
C4224 C4236 1.349 . S
C4225 C4223 1.327 . S
C4225 C4241 1.429 . S
C4225 H4247 0.950 . S
C4226 H4222 0.949 . S
C4226 C4234 1.574 . S
C4226 C4242 1.368 . S
H4227 C4235 0.950 . S
H4228 C4233 0.950 . S
H4229 C4234 0.949 . S
H4230 C4236 0.950 . S
H4231 C4237 0.950 . S
H4232 C4238 0.949 . S
C4233 H4228 0.950 . S
C4233 C4235 1.327 . S
C4233 C4239 1.429 . S
C4234 C4226 1.574 . S
C4234 H4229 0.949 . S
C4234 C4240 1.368 . S
C4235 C4219 1.349 . S
C4235 H4227 0.950 . S
C4235 C4233 1.327 . S
C4236 C4224 1.349 . S
C4236 H4230 0.950 . S
C4236 C4237 1.327 . S
C4237 H4231 0.950 . S
C4237 C4236 1.327 . S
C4237 C4241 1.429 . S
C4238 C4221 1.574 . S
C4238 H4232 0.949 . S
C4238 C4242 1.368 . S
C4239 C4220 1.429 . S
C4239 C4233 1.429 . S
C4239 C4240 1.523 . S
C4240 C4221 1.368 . S
C4240 C4234 1.368 . S
C4240 C4239 1.523 . S
C4241 C4225 1.429 . S
C4241 C4237 1.429 . S
C4241 C4242 1.523 . S
C4242 C4226 1.368 . S
C4242 C4238 1.368 . S
C4242 C4241 1.523 . S
H4243 C4218 0.950 . S
H4244 C4220 0.950 . S
H4245 C4221 0.949 . S
H4246 C4223 0.950 . S
H4247 C4225 0.950 . S
C4248 C4249 1.349 . S
C4248 C4250 1.327 . S
C4248 H4273 0.950 . S
C4249 C4248 1.349 . S
C4249 C4265 1.349 . S
C4250 C4248 1.327 . S
C4250 C4269 1.429 . S
C4250 H4274 0.950 . S
C4251 C4268 1.574 . S
C4251 C4270 1.368 . S
C4251 H4275 0.949 . S
H4252 C4256 0.949 1_565 S
C4253 C4254 1.349 . S
C4253 C4255 1.327 . S
C4253 H4276 0.950 . S
C4254 C4253 1.349 . S
C4254 C4266 1.349 1_545 S
C4255 C4253 1.327 . S
C4255 C4271 1.429 . S
C4255 H4277 0.950 . S
C4256 H4252 0.949 1_545 S
C4256 C4264 1.574 . S
C4256 C4272 1.368 . S
H4257 C4265 0.950 . S
H4258 C4263 0.950 . S
H4259 C4264 0.951 . S
H4260 C4266 0.950 . S
H4261 C4267 0.982 . S
H4262 C4268 0.949 . S
C4263 H4258 0.950 . S
C4263 C4265 1.327 . S
C4263 C4269 1.429 . S
C4264 C4256 1.574 . S
C4264 H4259 0.951 . S
C4264 C4270 1.368 . S
C4265 C4249 1.349 . S
C4265 H4257 0.950 . S
C4265 C4263 1.327 . S
C4266 C4254 1.349 1_565 S
C4266 H4260 0.950 . S
C4266 C4267 1.380 . S
C4267 H4261 0.982 . S
C4267 C4266 1.380 . S
C4267 C4271 1.352 1_565 S
C4268 C4251 1.574 . S
C4268 H4262 0.949 . S
C4268 C4272 1.368 . S
C4269 C4250 1.429 . S
C4269 C4263 1.429 . S
C4269 C4270 1.523 . S
C4270 C4251 1.368 . S
C4270 C4264 1.368 . S
C4270 C4269 1.523 . S
C4271 C4255 1.429 . S
C4271 C4267 1.352 1_545 S
C4271 C4272 1.523 . S
C4272 C4256 1.368 . S
C4272 C4268 1.368 . S
C4272 C4271 1.523 . S
H4273 C4248 0.950 . S
H4274 C4250 0.950 . S
H4275 C4251 0.949 . S
H4276 C4253 0.950 . S
H4277 C4255 0.950 . S
C4278 C4279 1.349 . S
C4278 C4280 1.327 . S
C4278 H4303 0.950 . S
C4279 C4278 1.349 . S
C4279 C4295 1.349 . S
C4280 C4278 1.327 . S
C4280 C4299 1.429 . S
C4280 H4304 0.950 . S
C4281 C4298 1.574 . S
C4281 C4300 1.368 . S
C4281 H4305 0.954 . S
H4282 C4286 0.949 . S
C4283 C4284 1.349 1_455 S
C4283 C4285 1.299 . S
C4283 H4306 0.950 . S
C4284 C4283 1.349 1_655 S
C4284 C4296 1.349 . S
C4285 C4283 1.299 . S
C4285 C4301 1.403 1_455 S
C4285 H4307 1.009 . S
C4286 H4282 0.949 . S
C4286 C4294 1.574 . S
C4286 C4302 1.368 . S
H4287 C4295 0.950 . S
H4288 C4293 0.950 . S
H4289 C4294 0.949 . S
H4290 C4296 0.950 . S
H4291 C4297 0.950 . S
H4292 C4298 0.949 1_455 S
C4293 H4288 0.950 . S
C4293 C4295 1.327 . S
C4293 C4299 1.429 . S
C4294 C4286 1.574 . S
C4294 H4289 0.949 . S
C4294 C4300 1.368 . S
C4295 C4279 1.349 . S
C4295 H4287 0.950 . S
C4295 C4293 1.327 . S
C4296 C4284 1.349 . S
C4296 H4290 0.950 . S
C4296 C4297 1.327 . S
C4297 H4291 0.950 . S
C4297 C4296 1.327 . S
C4297 C4301 1.429 . S
C4298 C4281 1.574 . S
C4298 H4292 0.949 1_655 S
C4298 C4302 1.368 . S
C4299 C4280 1.429 . S
C4299 C4293 1.429 . S
C4299 C4300 1.523 . S
C4300 C4281 1.368 . S
C4300 C4294 1.368 . S
C4300 C4299 1.523 . S
C4301 C4285 1.403 1_655 S
C4301 C4297 1.429 . S
C4301 C4302 1.523 . S
C4302 C4286 1.368 . S
C4302 C4298 1.368 . S
C4302 C4301 1.523 . S
H4303 C4278 0.950 . S
H4304 C4280 0.950 . S
H4305 C4281 0.954 . S
H4306 C4283 0.950 . S
H4307 C4285 1.009 . S
C4308 C4309 1.349 . S
C4308 C4310 1.327 . S
C4308 H4333 0.950 . S
C4309 C4308 1.349 . S
C4309 C4325 1.349 . S
C4310 C4308 1.327 . S
C4310 C4329 1.429 . S
C4310 H4334 0.950 . S
C4311 C4328 1.574 . S
C4311 C4330 1.368 . S
C4311 H4335 0.949 . S
H4312 C4316 0.949 . S
C4313 C4314 1.349 . S
C4313 C4315 1.327 . S
C4313 H4336 0.950 . S
C4314 C4313 1.349 . S
C4314 C4326 1.349 . S
C4315 C4313 1.327 . S
C4315 C4331 1.429 . S
C4315 H4337 0.950 . S
C4316 H4312 0.949 . S
C4316 C4324 1.574 . S
C4316 C4332 1.368 . S
H4317 C4325 0.950 . S
H4318 C4323 0.950 . S
H4319 C4324 0.949 . S
H4320 C4326 0.950 . S
H4321 C4327 0.950 . S
H4322 C4328 0.949 . S
C4323 H4318 0.950 . S
C4323 C4325 1.327 . S
C4323 C4329 1.429 . S
C4324 C4316 1.574 . S
C4324 H4319 0.949 . S
C4324 C4330 1.368 . S
C4325 C4309 1.349 . S
C4325 H4317 0.950 . S
C4325 C4323 1.327 . S
C4326 C4314 1.349 . S
C4326 H4320 0.950 . S
C4326 C4327 1.327 . S
C4327 H4321 0.950 . S
C4327 C4326 1.327 . S
C4327 C4331 1.429 . S
C4328 C4311 1.574 . S
C4328 H4322 0.949 . S
C4328 C4332 1.368 . S
C4329 C4310 1.429 . S
C4329 C4323 1.429 . S
C4329 C4330 1.523 . S
C4330 C4311 1.368 . S
C4330 C4324 1.368 . S
C4330 C4329 1.523 . S
C4331 C4315 1.429 . S
C4331 C4327 1.429 . S
C4331 C4332 1.523 . S
C4332 C4316 1.368 . S
C4332 C4328 1.368 . S
C4332 C4331 1.523 . S
H4333 C4308 0.950 . S
H4334 C4310 0.950 . S
H4335 C4311 0.949 . S
H4336 C4313 0.950 . S
H4337 C4315 0.950 . S
C4338 C4339 1.349 . S
C4338 C4340 1.327 . S
C4338 H4363 0.950 . S
C4339 C4338 1.349 . S
C4339 C4355 1.349 . S
C4340 C4338 1.327 . S
C4340 C4359 1.429 . S
C4340 H4364 0.950 . S
C4341 C4358 1.574 . S
C4341 C4360 1.368 . S
C4341 H4365 0.949 . S
H4342 C4346 0.949 . S
C4343 C4344 1.349 . S
C4343 C4345 1.327 . S
C4343 H4366 0.950 . S
C4344 C4343 1.349 . S
C4344 C4356 1.349 . S
C4345 C4343 1.327 . S
C4345 C4361 1.429 . S
C4345 H4367 0.950 . S
C4346 H4342 0.949 . S
C4346 C4354 1.574 . S
C4346 C4362 1.368 . S
H4347 C4355 0.950 . S
H4348 C4353 0.950 . S
H4349 C4354 0.949 . S
H4350 C4356 0.950 . S
H4351 C4357 0.950 . S
H4352 C4358 0.949 . S
C4353 H4348 0.950 . S
C4353 C4355 1.327 . S
C4353 C4359 1.429 . S
C4354 C4346 1.574 . S
C4354 H4349 0.949 . S
C4354 C4360 1.368 . S
C4355 C4339 1.349 . S
C4355 H4347 0.950 . S
C4355 C4353 1.327 . S
C4356 C4344 1.349 . S
C4356 H4350 0.950 . S
C4356 C4357 1.327 . S
C4357 H4351 0.950 . S
C4357 C4356 1.327 . S
C4357 C4361 1.429 . S
C4358 C4341 1.574 . S
C4358 H4352 0.949 . S
C4358 C4362 1.368 . S
C4359 C4340 1.429 . S
C4359 C4353 1.429 . S
C4359 C4360 1.523 . S
C4360 C4341 1.368 . S
C4360 C4354 1.368 . S
C4360 C4359 1.523 . S
C4361 C4345 1.429 . S
C4361 C4357 1.429 . S
C4361 C4362 1.523 . S
C4362 C4346 1.368 . S
C4362 C4358 1.368 . S
C4362 C4361 1.523 . S
H4363 C4338 0.950 . S
H4364 C4340 0.950 . S
H4365 C4341 0.949 . S
H4366 C4343 0.950 . S
H4367 C4345 0.950 . S
C4368 C4369 1.349 . S
C4368 C4370 1.327 . S
C4368 H4393 0.950 . S
C4369 C4368 1.349 . S
C4369 C4385 1.349 . S
C4370 C4368 1.327 . S
C4370 C4389 1.429 . S
C4370 H4394 0.950 . S
C4371 C4388 1.574 . S
C4371 C4390 1.368 . S
C4371 H4395 0.949 . S
H4372 C4376 0.949 . S
C4373 C4374 1.349 . S
C4373 C4375 1.327 . S
C4373 H4396 0.950 . S
C4374 C4373 1.349 . S
C4374 C4386 1.349 . S
C4375 C4373 1.327 . S
C4375 C4391 1.429 . S
C4375 H4397 0.950 . S
C4376 H4372 0.949 . S
C4376 C4384 1.574 . S
C4376 C4392 1.368 . S
H4377 C4385 0.950 . S
H4378 C4383 0.950 . S
H4379 C4384 0.949 . S
H4380 C4386 0.950 . S
H4381 C4387 0.950 . S
H4382 C4388 0.949 . S
C4383 H4378 0.950 . S
C4383 C4385 1.327 . S
C4383 C4389 1.429 . S
C4384 C4376 1.574 . S
C4384 H4379 0.949 . S
C4384 C4390 1.368 . S
C4385 C4369 1.349 . S
C4385 H4377 0.950 . S
C4385 C4383 1.327 . S
C4386 C4374 1.349 . S
C4386 H4380 0.950 . S
C4386 C4387 1.327 . S
C4387 H4381 0.950 . S
C4387 C4386 1.327 . S
C4387 C4391 1.429 . S
C4388 C4371 1.574 . S
C4388 H4382 0.949 . S
C4388 C4392 1.368 . S
C4389 C4370 1.429 . S
C4389 C4383 1.429 . S
C4389 C4390 1.523 . S
C4390 C4371 1.368 . S
C4390 C4384 1.368 . S
C4390 C4389 1.523 . S
C4391 C4375 1.429 . S
C4391 C4387 1.429 . S
C4391 C4392 1.523 . S
C4392 C4376 1.368 . S
C4392 C4388 1.368 . S
C4392 C4391 1.523 . S
H4393 C4368 0.950 . S
H4394 C4370 0.950 . S
H4395 C4371 0.949 . S
H4396 C4373 0.950 . S
H4397 C4375 0.950 . S
C4398 C4399 1.349 . S
C4398 C4400 1.327 . S
C4398 H4423 0.950 . S
C4399 C4398 1.349 . S
C4399 C4415 1.349 . S
C4400 C4398 1.327 . S
C4400 C4419 1.429 . S
C4400 H4424 0.950 . S
C4401 C4418 1.574 . S
C4401 C4420 1.368 . S
C4401 H4425 0.949 . S
H4402 C4406 0.949 . S
C4403 C4404 1.349 . S
C4403 C4405 1.327 . S
C4403 H4426 0.950 . S
C4404 C4403 1.349 . S
C4404 C4416 1.349 . S
C4405 C4403 1.327 . S
C4405 C4421 1.429 . S
C4405 H4427 0.950 . S
C4406 H4402 0.949 . S
C4406 C4414 1.574 . S
C4406 C4422 1.368 . S
H4407 C4415 0.950 . S
H4408 C4413 0.950 . S
H4409 C4414 0.949 . S
H4410 C4416 0.950 . S
H4411 C4417 0.950 . S
H4412 C4418 0.949 . S
C4413 H4408 0.950 . S
C4413 C4415 1.327 . S
C4413 C4419 1.429 . S
C4414 C4406 1.574 . S
C4414 H4409 0.949 . S
C4414 C4420 1.368 . S
C4415 C4399 1.349 . S
C4415 H4407 0.950 . S
C4415 C4413 1.327 . S
C4416 C4404 1.349 . S
C4416 H4410 0.950 . S
C4416 C4417 1.327 . S
C4417 H4411 0.950 . S
C4417 C4416 1.327 . S
C4417 C4421 1.429 . S
C4418 C4401 1.574 . S
C4418 H4412 0.949 . S
C4418 C4422 1.368 . S
C4419 C4400 1.429 . S
C4419 C4413 1.429 . S
C4419 C4420 1.523 . S
C4420 C4401 1.368 . S
C4420 C4414 1.368 . S
C4420 C4419 1.523 . S
C4421 C4405 1.429 . S
C4421 C4417 1.429 . S
C4421 C4422 1.523 . S
C4422 C4406 1.368 . S
C4422 C4418 1.368 . S
C4422 C4421 1.523 . S
H4423 C4398 0.950 . S
H4424 C4400 0.950 . S
H4425 C4401 0.949 . S
H4426 C4403 0.950 . S
H4427 C4405 0.950 . S
C4428 C4429 1.349 . S
C4428 C4430 1.327 . S
C4428 H4453 0.950 . S
C4429 C4428 1.349 . S
C4429 C4445 1.349 . S
C4430 C4428 1.327 . S
C4430 C4449 1.429 . S
C4430 H4454 0.950 . S
C4431 C4448 1.574 . S
C4431 C4450 1.368 . S
C4431 H4455 0.949 . S
H4432 C4436 0.949 . S
C4433 C4434 1.349 . S
C4433 C4435 1.327 . S
C4433 H4456 0.950 . S
C4434 C4433 1.349 . S
C4434 C4446 1.349 . S
C4435 C4433 1.327 . S
C4435 C4451 1.429 . S
C4435 H4457 0.950 . S
C4436 H4432 0.949 . S
C4436 C4444 1.574 . S
C4436 C4452 1.368 . S
H4437 C4445 0.950 . S
H4438 C4443 0.950 . S
H4439 C4444 0.949 . S
H4440 C4446 0.950 . S
H4441 C4447 0.950 . S
H4442 C4448 0.949 . S
C4443 H4438 0.950 . S
C4443 C4445 1.327 . S
C4443 C4449 1.429 . S
C4444 C4436 1.574 . S
C4444 H4439 0.949 . S
C4444 C4450 1.368 . S
C4445 C4429 1.349 . S
C4445 H4437 0.950 . S
C4445 C4443 1.327 . S
C4446 C4434 1.349 . S
C4446 H4440 0.950 . S
C4446 C4447 1.327 . S
C4447 H4441 0.950 . S
C4447 C4446 1.327 . S
C4447 C4451 1.429 . S
C4448 C4431 1.574 . S
C4448 H4442 0.949 . S
C4448 C4452 1.368 . S
C4449 C4430 1.429 . S
C4449 C4443 1.429 . S
C4449 C4450 1.523 . S
C4450 C4431 1.368 . S
C4450 C4444 1.368 . S
C4450 C4449 1.523 . S
C4451 C4435 1.429 . S
C4451 C4447 1.429 . S
C4451 C4452 1.523 . S
C4452 C4436 1.368 . S
C4452 C4448 1.368 . S
C4452 C4451 1.523 . S
H4453 C4428 0.950 . S
H4454 C4430 0.950 . S
H4455 C4431 0.949 . S
H4456 C4433 0.950 . S
H4457 C4435 0.950 . S
C4458 C4459 1.349 . S
C4458 C4460 1.327 . S
C4458 H4483 0.950 . S
C4459 C4458 1.349 . S
C4459 C4475 1.349 . S
C4460 C4458 1.327 . S
C4460 C4479 1.429 . S
C4460 H4484 0.950 . S
C4461 C4478 1.574 . S
C4461 C4480 1.368 . S
C4461 H4485 0.949 . S
H4462 C4466 0.949 . S
C4463 C4464 1.349 . S
C4463 C4465 1.327 . S
C4463 H4486 0.950 . S
C4464 C4463 1.349 . S
C4464 C4476 1.349 . S
C4465 C4463 1.327 . S
C4465 C4481 1.429 . S
C4465 H4487 0.950 . S
C4466 H4462 0.949 . S
C4466 C4474 1.574 . S
C4466 C4482 1.368 . S
H4467 C4475 0.950 . S
H4468 C4473 0.950 . S
H4469 C4474 0.949 . S
H4470 C4476 0.950 . S
H4471 C4477 0.950 . S
H4472 C4478 0.949 . S
C4473 H4468 0.950 . S
C4473 C4475 1.327 . S
C4473 C4479 1.429 . S
C4474 C4466 1.574 . S
C4474 H4469 0.949 . S
C4474 C4480 1.368 . S
C4475 C4459 1.349 . S
C4475 H4467 0.950 . S
C4475 C4473 1.327 . S
C4476 C4464 1.349 . S
C4476 H4470 0.950 . S
C4476 C4477 1.327 . S
C4477 H4471 0.950 . S
C4477 C4476 1.327 . S
C4477 C4481 1.429 . S
C4478 C4461 1.574 . S
C4478 H4472 0.949 . S
C4478 C4482 1.368 . S
C4479 C4460 1.429 . S
C4479 C4473 1.429 . S
C4479 C4480 1.523 . S
C4480 C4461 1.368 . S
C4480 C4474 1.368 . S
C4480 C4479 1.523 . S
C4481 C4465 1.429 . S
C4481 C4477 1.429 . S
C4481 C4482 1.523 . S
C4482 C4466 1.368 . S
C4482 C4478 1.368 . S
C4482 C4481 1.523 . S
H4483 C4458 0.950 . S
H4484 C4460 0.950 . S
H4485 C4461 0.949 . S
H4486 C4463 0.950 . S
H4487 C4465 0.950 . S
C4488 C4489 1.349 . S
C4488 C4490 1.327 . S
C4488 H4513 0.950 . S
C4489 C4488 1.349 . S
C4489 C4505 1.349 . S
C4490 C4488 1.327 . S
C4490 C4509 1.429 . S
C4490 H4514 0.950 . S
C4491 C4508 1.574 . S
C4491 C4510 1.368 . S
C4491 H4515 0.949 . S
H4492 C4496 0.949 . S
C4493 C4494 1.349 . S
C4493 C4495 1.327 . S
C4493 H4516 0.950 . S
C4494 C4493 1.349 . S
C4494 C4506 1.349 . S
C4495 C4493 1.327 . S
C4495 C4511 1.429 . S
C4495 H4517 0.950 . S
C4496 H4492 0.949 . S
C4496 C4504 1.574 . S
C4496 C4512 1.368 . S
H4497 C4505 0.950 . S
H4498 C4503 0.950 . S
H4499 C4504 0.949 . S
H4500 C4506 0.950 . S
H4501 C4507 0.950 . S
H4502 C4508 0.949 . S
C4503 H4498 0.950 . S
C4503 C4505 1.327 . S
C4503 C4509 1.429 . S
C4504 C4496 1.574 . S
C4504 H4499 0.949 . S
C4504 C4510 1.368 . S
C4505 C4489 1.349 . S
C4505 H4497 0.950 . S
C4505 C4503 1.327 . S
C4506 C4494 1.349 . S
C4506 H4500 0.950 . S
C4506 C4507 1.327 . S
C4507 H4501 0.950 . S
C4507 C4506 1.327 . S
C4507 C4511 1.429 . S
C4508 C4491 1.574 . S
C4508 H4502 0.949 . S
C4508 C4512 1.368 . S
C4509 C4490 1.429 . S
C4509 C4503 1.429 . S
C4509 C4510 1.523 . S
C4510 C4491 1.368 . S
C4510 C4504 1.368 . S
C4510 C4509 1.523 . S
C4511 C4495 1.429 . S
C4511 C4507 1.429 . S
C4511 C4512 1.523 . S
C4512 C4496 1.368 . S
C4512 C4508 1.368 . S
C4512 C4511 1.523 . S
H4513 C4488 0.950 . S
H4514 C4490 0.950 . S
H4515 C4491 0.949 . S
H4516 C4493 0.950 . S
H4517 C4495 0.950 . S
C4518 C4519 1.349 . S
C4518 C4520 1.327 . S
C4518 H4543 0.950 . S
C4519 C4518 1.349 . S
C4519 C4535 1.349 . S
C4520 C4518 1.327 . S
C4520 C4539 1.429 . S
C4520 H4544 0.950 . S
C4521 C4538 1.574 . S
C4521 C4540 1.368 . S
C4521 H4545 0.929 1_655 S
H4522 C4526 0.949 . S
C4523 C4524 1.349 1_455 S
C4523 C4525 1.327 . S
C4523 H4546 0.950 . S
C4524 C4523 1.349 1_655 S
C4524 C4536 1.349 . S
C4525 C4523 1.327 . S
C4525 C4541 1.429 1_455 S
C4525 H4547 0.950 . S
C4526 H4522 0.949 . S
C4526 C4534 1.574 . S
C4526 C4542 1.368 . S
H4527 C4535 0.950 . S
H4528 C4533 1.045 . S
H4529 C4534 0.949 . S
H4530 C4536 0.950 . S
H4531 C4537 0.950 . S
H4532 C4538 0.949 1_455 S
C4533 H4528 1.045 . S
C4533 C4535 1.327 . S
C4533 C4539 1.429 . S
C4534 C4526 1.574 . S
C4534 H4529 0.949 . S
C4534 C4540 1.368 . S
C4535 C4519 1.349 . S
C4535 H4527 0.950 . S
C4535 C4533 1.327 . S
C4536 C4524 1.349 . S
C4536 H4530 0.950 . S
C4536 C4537 1.327 . S
C4537 H4531 0.950 . S
C4537 C4536 1.327 . S
C4537 C4541 1.429 . S
C4538 C4521 1.574 . S
C4538 H4532 0.949 1_655 S
C4538 C4542 1.368 . S
C4539 C4520 1.429 . S
C4539 C4533 1.429 . S
C4539 C4540 1.523 . S
C4540 C4521 1.368 . S
C4540 C4534 1.368 . S
C4540 C4539 1.523 . S
C4541 C4525 1.429 1_655 S
C4541 C4537 1.429 . S
C4541 C4542 1.523 . S
C4542 C4526 1.368 . S
C4542 C4538 1.368 . S
C4542 C4541 1.523 . S
H4543 C4518 0.950 . S
H4544 C4520 0.950 . S
H4545 C4521 0.929 1_455 S
H4546 C4523 0.950 . S
H4547 C4525 0.950 . S
C4548 C4549 1.349 . S
C4548 C4550 1.327 . S
C4548 H4573 0.950 . S
C4549 C4548 1.349 . S
C4549 C4565 1.349 . S
C4550 C4548 1.327 . S
C4550 C4569 1.429 . S
C4550 H4574 0.950 . S
C4551 C4568 1.574 . S
C4551 C4570 1.368 . S
C4551 H4575 0.949 . S
H4552 C4556 0.949 . S
C4553 C4554 1.349 . S
C4553 C4555 1.327 . S
C4553 H4576 0.950 . S
C4554 C4553 1.349 . S
C4554 C4566 1.349 . S
C4555 C4553 1.327 . S
C4555 C4571 1.429 . S
C4555 H4577 0.950 . S
C4556 H4552 0.949 . S
C4556 C4564 1.574 . S
C4556 C4572 1.368 . S
H4557 C4565 0.950 . S
H4558 C4563 0.950 . S
H4559 C4564 0.949 . S
H4560 C4566 0.950 . S
H4561 C4567 0.950 . S
H4562 C4568 0.949 . S
C4563 H4558 0.950 . S
C4563 C4565 1.327 . S
C4563 C4569 1.429 . S
C4564 C4556 1.574 . S
C4564 H4559 0.949 . S
C4564 C4570 1.368 . S
C4565 C4549 1.349 . S
C4565 H4557 0.950 . S
C4565 C4563 1.327 . S
C4566 C4554 1.349 . S
C4566 H4560 0.950 . S
C4566 C4567 1.327 . S
C4567 H4561 0.950 . S
C4567 C4566 1.327 . S
C4567 C4571 1.429 . S
C4568 C4551 1.574 . S
C4568 H4562 0.949 . S
C4568 C4572 1.368 . S
C4569 C4550 1.429 . S
C4569 C4563 1.429 . S
C4569 C4570 1.523 . S
C4570 C4551 1.368 . S
C4570 C4564 1.368 . S
C4570 C4569 1.523 . S
C4571 C4555 1.429 . S
C4571 C4567 1.429 . S
C4571 C4572 1.523 . S
C4572 C4556 1.368 . S
C4572 C4568 1.368 . S
C4572 C4571 1.523 . S
H4573 C4548 0.950 . S
H4574 C4550 0.950 . S
H4575 C4551 0.949 . S
H4576 C4553 0.950 . S
H4577 C4555 0.950 . S
C4578 C4579 1.349 . S
C4578 C4580 1.327 . S
C4578 H4603 0.950 1_545 S
C4579 C4578 1.349 . S
C4579 C4595 1.349 . S
C4580 C4578 1.327 . S
C4580 C4599 1.429 . S
C4580 H4604 0.950 1_545 S
C4581 C4598 1.574 . S
C4581 C4600 1.368 . S
C4581 H4605 0.949 . S
H4582 C4586 0.949 . S
C4583 C4584 1.349 . S
C4583 C4585 1.327 . S
C4583 H4606 0.950 . S
C4584 C4583 1.349 . S
C4584 C4596 1.349 1_545 S
C4585 C4583 1.327 . S
C4585 C4601 1.429 . S
C4585 H4607 0.950 . S
C4586 H4582 0.949 . S
C4586 C4594 1.574 . S
C4586 C4602 1.368 1_565 S
H4587 C4595 0.950 . S
H4588 C4593 0.950 . S
H4589 C4594 0.949 . S
H4590 C4596 0.950 . S
H4591 C4597 0.950 . S
H4592 C4598 0.949 . S
C4593 H4588 0.950 . S
C4593 C4595 1.327 . S
C4593 C4599 1.429 . S
C4594 C4586 1.574 . S
C4594 H4589 0.949 . S
C4594 C4600 1.368 1_565 S
C4595 C4579 1.349 . S
C4595 H4587 0.950 . S
C4595 C4593 1.327 . S
C4596 C4584 1.349 1_565 S
C4596 H4590 0.950 . S
C4596 C4597 1.327 . S
C4597 H4591 0.950 . S
C4597 C4596 1.327 . S
C4597 C4601 1.429 1_565 S
C4598 C4581 1.574 . S
C4598 H4592 0.949 . S
C4598 C4602 1.368 . S
C4599 C4580 1.429 . S
C4599 C4593 1.429 . S
C4599 C4600 1.523 . S
C4600 C4581 1.368 . S
C4600 C4594 1.368 1_545 S
C4600 C4599 1.523 . S
C4601 C4585 1.429 . S
C4601 C4597 1.429 1_545 S
C4601 C4602 1.523 . S
C4602 C4586 1.368 1_545 S
C4602 C4598 1.368 . S
C4602 C4601 1.523 . S
H4603 C4578 0.950 1_565 S
H4604 C4580 0.950 1_565 S
H4605 C4581 0.949 . S
H4606 C4583 0.950 . S
H4607 C4585 0.950 . S
C2449 C49 1.560 . S
C2454 C2061 1.578 . S
C2479 C137 1.624 . S
C2484 C2109 1.637 . S
C2514 C2157 1.602 . S
C2509 C205 1.584 . S
C2539 C196 1.563 . S
C2544 C2181 1.594 . S
C2569 C57 1.577 . S
C2574 C2253 1.605 . S
C2599 C145 1.625 . S
C2604 C2301 1.638 . S
C2629 C313 1.566 . S
C2634 C2229 1.588 . S
C2664 C2277 1.641 . S
C2659 C401 1.629 . S
C2694 C2205 1.676 . S
C2689 C489 1.582 . S
C2719 C469 1.564 . S
C2724 C2133 1.587 . S
C2754 C2037 1.616 . S
C2749 C293 1.586 . S
C2779 C381 1.629 . S
C2784 C2085 1.641 . S
C2809 C577 1.702 . S
C2814 C2349 1.712 . S
C2839 C645 1.683 . S
C2844 C2397 1.687 . S
C2874 C2421 1.641 . S
C2869 C733 1.644 . S
C2899 C724 1.616 . S
C2904 C1605 1.618 . S
C2929 C585 1.680 . S
C2934 C1677 1.690 . S
C2959 C636 1.689 . S
C2964 C1725 1.697 . S
C2989 C841 1.613 . S
C2994 C1653 1.622 . S
C3019 C937 1.696 . S
C3024 C1701 1.703 . S
C3054 C1629 1.667 . S
C3049 C1025 1.682 . S
C3084 C2445 1.688 . S
C3079 C988 1.707 . S
C3114 C2325 1.646 . S
C3109 C821 1.641 . S
C3144 C2373 1.692 . S
C3139 C900 1.691 . S
C3169 C1105 1.612 . S
C3174 C1773 1.623 . S
C3199 C1193 1.689 . S
C3204 C1821 1.696 . S
C3229 C1281 1.684 . S
C3234 C1845 1.686 . S
C3259 C1289 1.705 . S
C3264 C1893 1.705 . S
C3294 C1965 1.647 . S
C3289 C1113 1.640 . S
C3324 C2013 1.687 . S
C3319 C1201 1.683 . S
C3354 C1941 1.718 . S
C3349 C1369 1.710 . S
C3384 C1989 1.693 . S
C3379 C1457 1.691 . S
C3409 C1553 1.638 . S
C3414 C1917 1.617 . S
C3444 C1869 1.596 . S
C3439 C1516 1.611 . S
C3469 C1349 1.687 . S
C3474 C1749 1.696 . S
C3504 C1797 1.702 . S
C3499 C1437 1.696 . S
C3534 C1614 1.458 . S
C3529 C29 1.443 . S
C3559 C117 1.352 . S
C3564 C1668 1.328 . S
C3594 C1716 1.464 . S
C3589 C225 1.482 . S
C3624 C1764 1.434 . S
C3619 C233 1.447 . S
C3654 C1812 1.462 . S
C3649 C20 1.480 . S
C3684 C1854 1.354 . S
C3679 C108 1.351 . S
C3709 C321 1.458 . S
C3714 C1860 1.469 . S
C3739 C409 1.357 . S
C3744 C1758 1.320 . S
C3769 C497 1.480 . S
C3774 C1806 1.443 . S
C3799 C460 1.454 . S
C3804 C1662 1.436 . S
C3834 C1710 1.448 . S
C3829 C284 1.479 . S
C3859 C372 1.357 . S
C3864 C1620 1.347 . S
C3894 C1902 1.367 . S
C3889 C557 1.363 . S
C3919 C665 1.495 . S
C3924 C1956 1.467 . S
C3949 C753 1.495 . S
C3954 C2004 1.465 . S
C3984 C2052 1.090 . S
C3979 C761 1.088 . S
C4009 C548 1.356 . S
C4014 C2100 1.335 . S
C4039 C673 1.096 . S
C4044 C2148 1.096 . S
C4069 C849 1.091 . S
C4074 C2142 1.080 . S
C4099 C929 1.106 . S
C4104 C2046 1.106 . S
C4134 C2094 1.328 . S
C4129 C1017 1.361 . S
C4159 C997 1.374 . S
C4164 C1950 1.339 . S
C4189 C812 1.493 . S
C4194 C1998 1.451 . S
C4224 C1908 1.486 . S
C4219 C909 1.500 . S
C4254 C2190 1.090 . S
C4249 C1085 1.084 . S
C4279 C1173 1.096 . S
C4284 C2244 1.096 . S
C4309 C1261 1.358 . S
C4314 C2292 1.337 . S
C4344 C2340 1.345 . S
C4339 C1252 1.368 . S
C4374 C2388 1.462 . S
C4369 C1076 1.492 . S
C4399 C1164 1.494 . S
C4404 C2430 1.493 . S
C4429 C1377 1.378 . S
C4434 C2436 1.367 . S
C4459 C1465 1.499 . S
C4464 C2334 1.459 . S
C4494 C2382 1.449 . S
C4489 C1545 1.490 . S
C4524 C2238 1.082 . S
C4519 C1525 1.081 . S
C4554 C2286 1.331 . S
C4549 C1340 1.365 . S
C4579 C1428 1.107 . S
C4584 C2196 1.109 . S
