# Generated by pormake.
# Topology tsx, (6,3)-cn, num edge types: 1
# Building blocks:
#     Node 0, Type 0, BuildingBlock: JUFBIX_clean_sbu_0, # of connection points: 6
#     Node 1, Type 0, BuildingBlock: JUFBIX_clean_sbu_0, # of connection points: 6
#     Node 2, Type 1, BuildingBlock: ESEHIV_clean_linker_0, # of connection points: 3
#     Node 3, Type 1, BuildingBlock: ESEHIV_clean_linker_0, # of connection points: 3
#     Node 4, Type 1, BuildingBlock: ESEHIV_clean_linker_0, # of connection points: 3
#     Node 5, Type 1, BuildingBlock: ESEHIV_clean_linker_0, # of connection points: 3
#     Edge 6, Type (0, 1), BuildingBlock: ZUJKAS_clean_linker_0, # of connection points: 2
#     Edge 7, Type (0, 1), BuildingBlock: ZUJKAS_clean_linker_0, # of connection points: 2
#     Edge 8, Type (0, 1), BuildingBlock: ZUJKAS_clean_linker_0, # of connection points: 2
#     Edge 9, Type (0, 1), BuildingBlock: ZUJKAS_clean_linker_0, # of connection points: 2
#     Edge 10, Type (0, 1), BuildingBlock: ZUJKAS_clean_linker_0, # of connection points: 2
#     Edge 11, Type (0, 1), BuildingBlock: ZUJKAS_clean_linker_0, # of connection points: 2
#     Edge 12, Type (0, 1), BuildingBlock: ZUJKAS_clean_linker_0, # of connection points: 2
#     Edge 13, Type (0, 1), BuildingBlock: ZUJKAS_clean_linker_0, # of connection points: 2
#     Edge 14, Type (0, 1), BuildingBlock: ZUJKAS_clean_linker_0, # of connection points: 2
#     Edge 15, Type (0, 1), BuildingBlock: ZUJKAS_clean_linker_0, # of connection points: 2
#     Edge 16, Type (0, 1), BuildingBlock: ZUJKAS_clean_linker_0, # of connection points: 2
#     Edge 17, Type (0, 1), BuildingBlock: ZUJKAS_clean_linker_0, # of connection points: 2
# Relax obj value: 0.159
# Max RMSD: 0.167
# Mean RMSD: 0.134
data_MOF--net-tsx--node1-JUFBIX_clean_sbu_0--node2-ESEHIV_clean_linker_0--edge1-ZUJKAS_clean_linker_0
_symmetry_space_group_name_H-M    P1
_symmetry_Int_Tables_number       1
_symmetry_cell_setting            triclinic
loop_
_symmetry_equiv_pos_as_xyz
'x, y, z'
_cell_length_a     24.244201
_cell_length_b     28.743615
_cell_length_c     44.039337
_cell_angle_alpha  92.516502
_cell_angle_beta   89.588185
_cell_angle_gamma 97.624057
loop_
_atom_site_label
_atom_site_type_symbol
_atom_site_fract_x
_atom_site_fract_y
_atom_site_fract_z
_atom_type_partial_charge
Co0 Co 0.04424 0.98571 0.0148 0.0
C1 C 0.99594 0.01076 0.96083 0.0
Co2 Co 0.97378 0.02704 0.02088 0.0
C3 C 0.11884 0.91274 0.01505 0.0
C4 C 0.1471 0.97074 0.98749 0.0
N5 N 0.10571 0.9546 0.00647 0.0
N6 N 0.16658 0.90223 1.00185 0.0
C7 C 0.18437 0.93893 0.98469 0.0
H8 H 0.09306 0.88985 0.02986 0.0
H9 H 0.14954 0.00334 0.97588 0.0
C10 C 0.02206 0.00243 0.07494 0.0
N11 N 0.91292 0.05853 0.02905 0.0
C12 C 0.89942 0.09838 0.01757 0.0
C13 C 0.87325 0.04649 0.04995 0.0
N14 N 0.85317 0.1118 0.03076 0.0
C15 C 0.83662 0.0791 0.05109 0.0
C16 C 0.944 0.92935 0.0172 0.0
O17 O 0.05427 0.98188 0.05752 0.0
O18 O 0.98525 0.02375 0.06326 0.0
O19 O 0.92663 0.96906 0.02063 0.0
O20 O 0.9959 0.92764 0.01391 0.0
O21 O 0.96313 0.03019 0.97843 0.0
H22 H 0.8715 0.01617 0.06381 0.0
H23 H 0.9239 0.11778 1.00049 0.0
O24 O 0.03346 0.98991 0.97224 0.0
O25 O 0.09165 0.04444 0.01577 0.0
O26 O 0.02124 0.0847 0.02097 0.0
C27 C 0.07325 0.08384 0.01826 0.0
H28 H 0.22176 0.94258 0.97094 0.0
H29 H 0.80043 0.07862 0.06566 0.0
Co30 Co 0.53428 0.49144 0.51247 0.0
C31 C 0.48845 0.51959 0.45866 0.0
Co32 Co 0.46422 0.53312 0.51884 0.0
C33 C 0.61013 0.42027 0.51541 0.0
C34 C 0.63714 0.47534 0.48533 0.0
N35 N 0.5956 0.46022 0.50449 0.0
N36 N 0.65944 0.41034 0.50395 0.0
C37 C 0.67625 0.44498 0.48499 0.0
H38 H 0.58541 0.39929 0.53167 0.0
H39 H 0.63882 0.50655 0.47232 0.0
C40 C 0.51 0.50541 0.57276 0.0
N41 N 0.4033 0.56461 0.52704 0.0
C42 C 0.39087 0.60574 0.51697 0.0
C43 C 0.36234 0.55085 0.54688 0.0
N44 N 0.34404 0.61827 0.53005 0.0
C45 C 0.32603 0.58367 0.5488 0.0
C46 C 0.43382 0.43541 0.51292 0.0
O47 O 0.54307 0.48622 0.55516 0.0
O48 O 0.47333 0.5271 0.56129 0.0
O49 O 0.41636 0.4751 0.51648 0.0
O50 O 0.48585 0.43374 0.51068 0.0
O51 O 0.45585 0.53898 0.47644 0.0
H52 H 0.35952 0.5192 0.55954 0.0
H53 H 0.4165 0.62668 0.50104 0.0
O54 O 0.52473 0.49712 0.46986 0.0
O55 O 0.58202 0.54954 0.51437 0.0
O56 O 0.51267 0.59074 0.52088 0.0
C57 C 0.56458 0.58919 0.51795 0.0
H58 H 0.71376 0.44776 0.47134 0.0
H59 H 0.28907 0.58207 0.56286 0.0
H60 H 0.9703 0.0724 0.40429 0.0
H61 H 0.08094 0.96786 0.40747 0.0
H62 H 0.01752 0.02475 0.49063 0.0
C63 C 0.99401 0.05084 0.41733 0.0
C64 C 0.99065 0.05298 0.4493 0.0
C65 C 0.02599 0.01989 0.40202 0.0
C66 C 0.05565 0.99152 0.41909 0.0
C67 C 0.05293 0.99306 0.45098 0.0
C68 C 0.0196 0.02333 0.46602 0.0
H69 H 0.94413 0.95342 0.63076 0.0
H70 H 0.06951 0.07385 0.63195 0.0
H71 H 0.01811 0.00195 0.54688 0.0
C72 C 0.9733 0.97806 0.61878 0.0
C73 C 0.97707 0.97354 0.58695 0.0
C74 C 0.00651 0.01402 0.63526 0.0
C75 C 0.04445 0.04537 0.61947 0.0
C76 C 0.04912 0.04127 0.58761 0.0
C77 C 0.01468 0.00557 0.5714 0.0
H78 H 0.45706 0.55424 0.90406 0.0
H79 H 0.57634 0.45642 0.90305 0.0
H80 H 0.5115 0.50431 0.98829 0.0
C81 C 0.48224 0.53277 0.91622 0.0
C82 C 0.47989 0.53281 0.94823 0.0
C83 C 0.51655 0.50505 0.89971 0.0
C84 C 0.54958 0.47783 0.91559 0.0
C85 C 0.54825 0.47753 0.94747 0.0
C86 C 0.51306 0.50488 0.96371 0.0
H87 H 0.42592 0.47234 0.13042 0.0
H88 H 0.5442 0.59737 0.12762 0.0
H89 H 0.49494 0.51806 0.04481 0.0
C90 C 0.4529 0.49745 0.11757 0.0
C91 C 0.45638 0.49077 0.08584 0.0
C92 C 0.48439 0.5357 0.13294 0.0
C93 C 0.51938 0.56783 0.11602 0.0
C94 C 0.52338 0.56166 0.08424 0.0
C95 C 0.49169 0.52311 0.06926 0.0
H96 H 0.0474 0.17361 0.01841 0.0
H97 H 0.11187 0.24672 0.02 0.0
H98 H 0.25089 0.16733 0.02018 0.0
H99 H 0.18691 0.09415 0.0179 0.0
H100 H 0.18337 0.27627 0.065 0.0
H101 H 0.30144 0.26295 0.95769 0.0
H102 H 0.23681 0.22591 0.96469 0.0
H103 H 0.30121 0.21181 0.97964 0.0
C104 C 0.09172 0.1717 0.01845 0.0
C105 C 0.11206 0.12808 0.01812 0.0
C106 C 0.12849 0.2135 0.01925 0.0
C107 C 0.1862 0.21249 0.01966 0.0
C108 C 0.20659 0.16898 0.01901 0.0
H109 H 0.44386 0.40011 0.10281 0.0
H110 H 0.37809 0.33466 0.0824 0.0
C111 C 0.1699 0.12716 0.01805 0.0
C112 C 0.2249 0.25671 0.02388 0.0
H113 H 0.34434 0.31766 0.99657 0.0
C114 C 0.21797 0.28568 0.04973 0.0
C115 C 0.26982 0.26923 0.00381 0.0
C116 C 0.27747 0.24107 0.97474 0.0
C117 C 0.25622 0.3255 0.05685 0.0
C118 C 0.30292 0.33629 0.03785 0.0
C119 C 0.30866 0.30882 0.01122 0.0
C120 C 0.34777 0.37412 0.04683 0.0
C121 C 0.2473 0.35519 0.08514 0.0
C122 C 0.35374 0.41733 0.03273 0.0
C123 C 0.3912 0.455 0.04447 0.0
C124 C 0.42284 0.44973 0.07046 0.0
C125 C 0.41908 0.40544 0.0832 0.0
C126 C 0.38184 0.36801 0.0715 0.0
H127 H 0.20386 0.34824 0.09365 0.0
H128 H 0.27564 0.34708 0.10329 0.0
H129 H 0.25705 0.39315 0.08073 0.0
H130 H 0.32772 0.42247 0.0136 0.0
H131 H 0.39336 0.48876 0.03418 0.0
H132 H 0.16603 0.84578 0.05003 0.0
H133 H 0.21785 0.7781 0.0541 0.0
H134 H 0.27781 0.79639 0.96244 0.0
H135 H 0.2265 0.86302 0.9582 0.0
H136 H 0.2152 0.69253 0.01802 0.0
H137 H 0.42127 0.80009 0.01222 0.0
H138 H 0.35821 0.82536 0.02058 0.0
H139 H 0.37666 0.81153 0.98186 0.0
C140 C 0.18994 0.83501 0.03073 0.0
C141 C 0.193 0.86034 0.004 0.0
C142 C 0.21967 0.79655 0.03312 0.0
C143 C 0.25288 0.78305 0.00884 0.0
C144 C 0.25385 0.80705 0.98178 0.0
H145 H 0.37357 0.54545 0.93406 0.0
H146 H 0.31812 0.60238 0.95694 0.0
C147 C 0.22446 0.84523 0.97941 0.0
C148 C 0.28676 0.74391 0.01104 0.0
H149 H 0.41826 0.7179 0.99754 0.0
C150 C 0.25979 0.69806 0.01419 0.0
C151 C 0.34515 0.75115 0.00683 0.0
C152 C 0.37711 0.79978 0.00552 0.0
C153 C 0.2891 0.65905 0.01076 0.0
C154 C 0.34651 0.66613 0.00338 0.0
C155 C 0.37415 0.71221 0.00276 0.0
C156 C 0.37725 0.627 0.99262 0.0
C157 C 0.25791 0.61061 0.01438 0.0
C158 C 0.42944 0.62182 0.00483 0.0
C159 C 0.46196 0.58974 0.99129 0.0
C160 C 0.44305 0.56256 0.96512 0.0
C161 C 0.38978 0.56637 0.95387 0.0
C162 C 0.35751 0.59842 0.9673 0.0
H163 H 0.22333 0.61161 0.03099 0.0
H164 H 0.2393 0.59713 0.99223 0.0
H165 H 0.28573 0.58571 0.02203 0.0
H166 H 0.44583 0.64371 0.02422 0.0
H167 H 0.50291 0.58787 1.00045 0.0
H168 H 0.83499 0.92238 0.03341 0.0
H169 H 0.7675 0.8519 0.03482 0.0
H170 H 0.89213 0.7679 0.002 0.0
H171 H 0.96099 0.83868 1.00139 0.0
H172 H 0.72691 0.789 0.99024 0.0
H173 H 0.83675 0.70081 0.07732 0.0
H174 H 0.85691 0.76146 0.06871 0.0
H175 H 0.8758 0.71532 0.04346 0.0
C176 C 0.84828 0.88897 0.0265 0.0
C177 C 0.90351 0.88608 0.01746 0.0
C178 C 0.8095 0.84867 0.02723 0.0
C179 C 0.82482 0.80455 0.01882 0.0
C180 C 0.87966 0.80148 0.00917 0.0
H181 H 0.60243 0.54029 0.04336 0.0
H182 H 0.67572 0.59532 0.02053 0.0
C183 C 0.91888 0.84193 0.00873 0.0
C184 C 0.78288 0.76224 0.02089 0.0
H185 H 0.74991 0.66293 0.06062 0.0
C186 C 0.73225 0.7611 0.00533 0.0
C187 C 0.78992 0.72578 0.04053 0.0
C188 C 0.84253 0.72583 0.05868 0.0
C189 C 0.6877 0.72565 0.00992 0.0
C190 C 0.69404 0.69052 0.03052 0.0
C191 C 0.7455 0.69001 0.04475 0.0
C192 C 0.64612 0.6575 0.04053 0.0
C193 C 0.63355 0.72672 0.99348 0.0
C194 C 0.60507 0.67448 0.05892 0.0
C195 C 0.56377 0.6433 0.07217 0.0
C196 C 0.56273 0.59462 0.06713 0.0
C197 C 0.60228 0.57771 0.0475 0.0
C198 C 0.64411 0.60898 0.03453 0.0
H199 H 0.63935 0.74846 0.97317 0.0
H200 H 0.61457 0.69064 0.9863 0.0
H201 H 0.60394 0.74207 0.00907 0.0
H202 H 0.60636 0.71182 0.06404 0.0
H203 H 0.53346 0.65715 0.08702 0.0
H204 H 0.8497 0.15469 0.97733 0.0
H205 H 0.80074 0.22188 0.96721 0.0
H206 H 0.74763 0.22808 0.06075 0.0
H207 H 0.79667 0.16138 0.07106 0.0
H208 H 0.68021 0.22361 0.97893 0.0
H209 H 0.81758 0.36603 0.04151 0.0
H210 H 0.84124 0.31151 0.02852 0.0
H211 H 0.79716 0.31303 0.06135 0.0
C212 C 0.82822 0.1708 0.99579 0.0
C213 C 0.82688 0.15265 0.02495 0.0
C214 C 0.8001 0.20896 0.98997 0.0
C215 C 0.77096 0.23003 0.01331 0.0
C216 C 0.77031 0.21254 0.04252 0.0
H217 H 0.51572 0.41452 0.99109 0.0
H218 H 0.56971 0.35569 0.01061 0.0
C219 C 0.79794 0.17419 0.04829 0.0
C220 C 0.739 0.26891 0.00683 0.0
H221 H 0.73413 0.38607 0.02123 0.0
C222 C 0.69186 0.25912 0.9882 0.0
C223 C 0.75452 0.31511 0.01897 0.0
C224 C 0.80558 0.32744 0.03856 0.0
C225 C 0.65966 0.29442 0.98138 0.0
C226 C 0.67493 0.34059 0.99367 0.0
C227 C 0.72222 0.35046 0.01221 0.0
C228 C 0.64443 0.37957 0.9855 0.0
C229 C 0.61023 0.28242 0.96052 0.0
C230 C 0.66939 0.41341 0.96595 0.0
C231 C 0.63878 0.44679 0.9548 0.0
C232 C 0.58277 0.44713 0.96319 0.0
C233 C 0.55884 0.41507 0.98431 0.0
C234 C 0.58945 0.38135 0.99529 0.0
H235 H 0.6091 0.24695 0.94926 0.0
H236 H 0.57134 0.28325 0.97386 0.0
H237 H 0.6109 0.30872 0.94273 0.0
H238 H 0.71184 0.41271 0.95827 0.0
H239 H 0.65839 0.47149 0.93883 0.0
H240 H 0.54245 0.68039 0.52254 0.0
H241 H 0.60999 0.75191 0.52434 0.0
H242 H 0.74447 0.66769 0.51694 0.0
H243 H 0.67767 0.59643 0.51455 0.0
H244 H 0.68831 0.77685 0.56722 0.0
H245 H 0.79155 0.76546 0.45531 0.0
H246 H 0.72625 0.73038 0.46379 0.0
H247 H 0.79108 0.71235 0.47527 0.0
C248 C 0.58641 0.67716 0.521 0.0
C249 C 0.6047 0.63273 0.51844 0.0
C250 C 0.62489 0.71803 0.52192 0.0
C251 C 0.68222 0.71516 0.52013 0.0
C252 C 0.70045 0.67085 0.51744 0.0
H253 H 0.95912 0.8812 0.59997 0.0
H254 H 0.8866 0.82135 0.57915 0.0
C255 C 0.66213 0.63008 0.51643 0.0
C256 C 0.72337 0.75796 0.52403 0.0
H257 H 0.84341 0.81448 0.49439 0.0
C258 C 0.72155 0.78558 0.55099 0.0
C259 C 0.76651 0.76965 0.50273 0.0
C260 C 0.76867 0.74315 0.47251 0.0
C261 C 0.76346 0.82283 0.55803 0.0
C262 C 0.80858 0.83231 0.53776 0.0
C263 C 0.80897 0.80659 0.51001 0.0
C264 C 0.85738 0.86648 0.5465 0.0
C265 C 0.76021 0.85093 0.5876 0.0
C266 C 0.86626 0.91093 0.534 0.0
C267 C 0.90771 0.94532 0.54593 0.0
C268 C 0.94044 0.9355 0.57049 0.0
C269 C 0.93378 0.8899 0.58141 0.0
C270 C 0.89259 0.85571 0.56951 0.0
H271 H 0.71753 0.84624 0.59735 0.0
H272 H 0.78891 0.83915 0.60431 0.0
H273 H 0.7732 0.88891 0.58434 0.0
H274 H 0.83943 0.91968 0.51614 0.0
H275 H 0.912 0.98024 0.5372 0.0
H276 H 0.61437 0.32185 0.51738 0.0
H277 H 0.66436 0.2533 0.52118 0.0
H278 H 0.81974 0.34103 0.50576 0.0
H279 H 0.77058 0.4092 0.50286 0.0
H280 H 0.72448 0.21771 0.47561 0.0
H281 H 0.86255 0.26489 0.57434 0.0
H282 H 0.80316 0.29476 0.56732 0.0
H283 H 0.86847 0.31163 0.5484 0.0
C284 C 0.6593 0.3266 0.51559 0.0
C285 C 0.68848 0.37089 0.50961 0.0
C286 C 0.6878 0.28743 0.51764 0.0
C287 C 0.74596 0.29207 0.5142 0.0
C288 C 0.77511 0.3366 0.50922 0.0
H289 H 0.98889 0.14497 0.43753 0.0
H290 H 0.92585 0.19786 0.45861 0.0
C291 C 0.74679 0.37552 0.5071 0.0
C292 C 0.7761 0.25023 0.51234 0.0
H293 H 0.89482 0.2106 0.53613 0.0
C294 C 0.76081 0.21547 0.48942 0.0
C295 C 0.82349 0.24708 0.53041 0.0
C296 C 0.83998 0.28138 0.5567 0.0
C297 C 0.79387 0.17976 0.48268 0.0
C298 C 0.84337 0.17886 0.49922 0.0
C299 C 0.85694 0.21168 0.52337 0.0
C300 C 0.88439 0.14763 0.48915 0.0
C301 C 0.77759 0.14463 0.4568 0.0
C302 C 0.88251 0.10221 0.4999 0.0
C303 C 0.91853 0.07175 0.48782 0.0
C304 C 0.95653 0.08632 0.46471 0.0
C305 C 0.9595 0.13252 0.45496 0.0
C306 C 0.92378 0.16284 0.46707 0.0
H307 H 0.73537 0.14731 0.44796 0.0
H308 H 0.80805 0.15062 0.43797 0.0
H309 H 0.77869 0.1084 0.46433 0.0
H310 H 0.8522 0.08993 0.51693 0.0
H311 H 0.91513 0.03629 0.49561 0.0
H312 H 0.45566 0.34434 0.51468 0.0
H313 H 0.38792 0.27361 0.5185 0.0
H314 H 0.25361 0.35752 0.5136 0.0
H315 H 0.32074 0.42827 0.51042 0.0
H316 H 0.24403 0.30263 0.56187 0.0
H317 H 0.28349 0.19547 0.45819 0.0
H318 H 0.34506 0.21476 0.48013 0.0
H319 H 0.30896 0.25736 0.46264 0.0
C320 C 0.41169 0.3476 0.51396 0.0
C321 C 0.39358 0.39193 0.51241 0.0
C322 C 0.37302 0.3071 0.5159 0.0
C323 C 0.31568 0.31021 0.51594 0.0
C324 C 0.29763 0.35428 0.51347 0.0
H325 H 0.03343 0.08835 0.53608 0.0
H326 H 0.09795 0.1516 0.51437 0.0
C327 C 0.33613 0.39471 0.51172 0.0
C328 C 0.27459 0.26858 0.52179 0.0
H329 H 0.22878 0.15563 0.49725 0.0
C330 C 0.24031 0.27074 0.5475 0.0
C331 C 0.26953 0.22704 0.50294 0.0
C332 C 0.30333 0.22353 0.47426 0.0
C333 C 0.20237 0.23209 0.5554 0.0
C334 C 0.199 0.19001 0.53732 0.0
C335 C 0.23189 0.18801 0.5111 0.0
C336 C 0.16356 0.14731 0.54676 0.0
C337 C 0.1667 0.23611 0.58338 0.0
C338 C 0.18004 0.12332 0.57144 0.0
C339 C 0.14361 0.08742 0.58378 0.0
C340 C 0.08991 0.07491 0.5717 0.0
C341 C 0.07461 0.09717 0.5458 0.0
C342 C 0.11128 0.13326 0.53342 0.0
H343 H 0.1672 0.27317 0.5918 0.0
H344 H 0.123 0.22071 0.57858 0.0
H345 H 0.18247 0.21614 0.60173 0.0
H346 H 0.2204 0.13366 0.58188 0.0
H347 H 0.15689 0.07027 0.60336 0.0
H348 H 0.3432 0.66632 0.47848 0.0
H349 H 0.29502 0.73478 0.47057 0.0
H350 H 0.23843 0.73266 0.56357 0.0
H351 H 0.28659 0.66463 0.57166 0.0
H352 H 0.17266 0.73557 0.48253 0.0
H353 H 0.31143 0.87257 0.549 0.0
H354 H 0.33498 0.81924 0.53367 0.0
H355 H 0.29082 0.81752 0.56655 0.0
C356 C 0.32111 0.68086 0.4973 0.0
C357 C 0.31849 0.65999 0.52564 0.0
C358 C 0.29342 0.71974 0.49274 0.0
C359 C 0.26348 0.7388 0.51656 0.0
C360 C 0.26166 0.71863 0.54499 0.0
H361 H 0.01549 0.93196 0.49501 0.0
H362 H 0.06551 0.87125 0.51564 0.0
C363 C 0.28882 0.67956 0.54948 0.0
C364 C 0.23209 0.77853 0.51135 0.0
H365 H 0.23003 0.89543 0.52827 0.0
C366 C 0.18496 0.77049 0.49262 0.0
C367 C 0.2484 0.8239 0.52461 0.0
C368 C 0.29934 0.83425 0.54447 0.0
C369 C 0.15381 0.80686 0.48658 0.0
C370 C 0.17019 0.85233 0.49975 0.0
C371 C 0.21722 0.86034 0.51859 0.0
C372 C 0.14216 0.89274 0.49152 0.0
C373 C 0.10458 0.79685 0.46541 0.0
C374 C 0.16951 0.92589 0.47226 0.0
C375 C 0.14117 0.96023 0.46048 0.0
C376 C 0.08503 0.96223 0.46791 0.0
C377 C 0.05874 0.9311 0.48892 0.0
C378 C 0.08711 0.89635 0.50055 0.0
H379 H 0.10189 0.76139 0.45397 0.0
H380 H 0.06567 0.79895 0.47853 0.0
H381 H 0.10706 0.8235 0.44777 0.0
H382 H 0.21202 0.92378 0.46516 0.0
H383 H 0.16254 0.98419 0.4446 0.0
H384 H 0.95883 0.04371 0.11682 0.0
H385 H 0.9647 0.04386 0.17199 0.0
H386 H 0.09978 0.96034 0.16482 0.0
H387 H 0.0947 0.9604 0.10913 0.0
H388 H 0.95131 0.96681 0.20882 0.0
H389 H 0.16041 0.07104 0.2234 0.0
H390 H 0.1217 0.06859 0.18836 0.0
H391 H 0.15707 0.02015 0.1979 0.0
C392 C 0.99005 0.02545 0.12684 0.0
C393 C 0.02646 0.00212 0.10849 0.0
C394 C 0.99324 0.02556 0.15845 0.0
C395 C 0.03299 0.00255 0.17252 0.0
C396 C 0.06937 0.97899 0.15439 0.0
H397 H 0.01979 0.94042 0.36498 0.0
H398 H 0.02354 0.93484 0.30943 0.0
C399 C 0.06623 0.97885 0.1226 0.0
C400 C 0.03488 0.0027 0.20619 0.0
H401 H 0.11501 0.04254 0.26786 0.0
C402 C 0.9872 0.98314 0.22174 0.0
C403 C 0.08151 0.02455 0.22296 0.0
C404 C 0.13301 0.04767 0.20742 0.0
C405 C 0.98477 0.98499 0.25362 0.0
C406 C 0.03157 0.00643 0.2704 0.0
C407 C 0.07934 0.02591 0.25489 0.0
C408 C 0.0311 0.00987 0.30409 0.0
C409 C 0.93159 0.96513 0.26908 0.0
C410 C 0.03524 0.05397 0.31951 0.0
C411 C 0.03343 0.05732 0.35129 0.0
C412 C 0.02795 0.01658 0.36822 0.0
C413 C 0.02451 0.97248 0.35264 0.0
C414 C 0.02617 0.96919 0.32089 0.0
H415 H 0.89582 0.95961 0.2531 0.0
H416 H 0.93692 0.93069 0.27828 0.0
H417 H 0.92145 0.9888 0.28834 0.0
H418 H 0.03928 0.08581 0.30693 0.0
H419 H 0.03688 0.0918 0.36261 0.0
H420 H 0.92914 0.06031 0.92825 0.0
H421 H 0.92388 0.06372 0.87276 0.0
H422 H 0.04756 0.96932 0.86262 0.0
H423 H 0.05321 0.96564 0.91776 0.0
H424 H 0.01607 0.09184 0.83131 0.0
H425 H 0.91481 0.90902 0.80794 0.0
H426 H 0.91368 0.93845 0.845 0.0
H427 H 0.97486 0.91431 0.83217 0.0
C428 C 0.95499 0.04009 0.91419 0.0
C429 C 0.99142 0.01255 0.92741 0.0
C430 C 0.95201 0.04217 0.88254 0.0
C431 C 0.98488 0.01635 0.86368 0.0
C432 C 0.02127 0.98896 0.87681 0.0
H433 H 0.09032 0.03418 0.67715 0.0
H434 H 0.08196 0.03856 0.73257 0.0
C435 C 0.02456 0.98706 0.90835 0.0
C436 C 0.9824 0.01861 0.83022 0.0
H437 H 0.95273 0.95065 0.76541 0.0
C438 C 1.00178 0.06114 0.81685 0.0
C439 C 0.96325 0.97858 0.81153 0.0
C440 C 0.93998 0.93255 0.82481 0.0
C441 C 0.00425 0.06426 0.78512 0.0
C442 C 0.98729 0.02369 0.76642 0.0
C443 C 0.96614 0.9816 0.77983 0.0
C444 C 0.9921 0.02379 0.73288 0.0
C445 C 0.02499 0.11086 0.77183 0.0
C446 C 0.94438 0.01363 0.71473 0.0
C447 C 0.94898 0.01128 0.68307 0.0
C448 C 1.0015 0.01856 0.66893 0.0
C449 C 0.04922 0.02909 0.68726 0.0
C450 C 0.04453 0.03159 0.71893 0.0
H451 H 0.02306 0.14058 0.78864 0.0
H452 H 0.069 0.11102 0.7647 0.0
H453 H 1.00034 0.11665 0.7515 0.0
H454 H 0.90355 0.00742 0.72509 0.0
H455 H 0.91133 0.0038 0.66965 0.0
H456 H 0.58604 0.4663 0.60624 0.0
H457 H 0.58992 0.46268 0.6618 0.0
H458 H 0.44584 0.53555 0.67034 0.0
H459 H 0.44136 0.53915 0.61522 0.0
H460 H 0.59949 0.53895 0.70665 0.0
H461 H 0.40411 0.41702 0.71965 0.0
H462 H 0.43957 0.42464 0.68365 0.0
H463 H 0.39657 0.46714 0.69783 0.0
C464 C 0.5551 0.48141 0.61997 0.0
C465 C 0.51327 0.50283 0.60625 0.0
C466 C 0.55743 0.47937 0.65168 0.0
C467 C 0.51769 0.49828 0.67013 0.0
C468 C 0.47631 0.52001 0.65651 0.0
H469 H 0.52016 0.57909 0.86213 0.0
H470 H 0.52235 0.57651 0.80644 0.0
C471 C 0.47403 0.52221 0.62495 0.0
C472 C 0.51963 0.4962 0.70371 0.0
H473 H 0.44323 0.45595 0.7649 0.0
C474 C 0.56556 0.52054 0.71942 0.0
C475 C 0.47555 0.47177 0.72027 0.0
C476 C 0.42635 0.44327 0.70453 0.0
C477 C 0.56782 0.5222 0.75134 0.0
C478 C 0.52267 0.49936 0.76793 0.0
C479 C 0.47752 0.47389 0.75216 0.0
C480 C 0.52152 0.50116 0.80167 0.0
C481 C 0.61866 0.54811 0.76705 0.0
C482 C 0.5189 0.45957 0.81744 0.0
C483 C 0.51717 0.46089 0.8492 0.0
C484 C 0.51763 0.50385 0.86587 0.0
C485 C 0.51948 0.54543 0.84998 0.0
C486 C 0.52137 0.54407 0.81817 0.0
H487 H 0.65485 0.55334 0.75137 0.0
H488 H 0.60948 0.58322 0.77547 0.0
H489 H 0.6303 0.52886 0.78685 0.0
H490 H 0.51844 0.42603 0.80514 0.0
H491 H 0.51487 0.42815 0.86071 0.0
H492 H 0.54894 0.47878 0.41494 0.0
H493 H 0.54509 0.48607 0.35998 0.0
H494 H 0.4171 0.57615 0.37159 0.0
H495 H 0.42077 0.56931 0.42681 0.0
H496 H 0.4517 0.46195 0.32117 0.0
H497 H 0.53647 0.65122 0.31822 0.0
H498 H 0.54365 0.61673 0.35092 0.0
H499 H 0.47848 0.63717 0.34339 0.0
C500 C 0.51995 0.50022 0.40588 0.0
C501 C 0.48521 0.52354 0.4253 0.0
C502 C 0.51783 0.50431 0.37445 0.0
C503 C 0.48131 0.53207 0.36177 0.0
C504 C 0.44621 0.55515 0.38098 0.0
H505 H 0.39256 0.5226 0.16979 0.0
H506 H 0.39009 0.52358 0.22538 0.0
C507 C 0.44815 0.55096 0.4125 0.0
C508 C 0.47945 0.53587 0.32834 0.0
H509 H 0.50647 0.6128 0.27144 0.0
C510 C 0.46346 0.49494 0.31028 0.0
C511 C 0.49544 0.57889 0.31425 0.0
C512 C 0.51494 0.62353 0.33258 0.0
C513 C 0.46287 0.49585 0.27845 0.0
C514 C 0.47811 0.53898 0.26434 0.0
C515 C 0.49435 0.57991 0.28238 0.0
C516 C 0.47904 0.54175 0.23082 0.0
C517 C 0.4472 0.45047 0.26011 0.0
C518 C 0.52967 0.55311 0.21553 0.0
C519 C 0.53129 0.55243 0.18375 0.0
C520 C 0.48217 0.54058 0.1667 0.0
C521 C 0.43125 0.53099 0.18222 0.0
C522 C 0.42972 0.53161 0.21396 0.0
H523 H 0.44822 0.41926 0.27401 0.0
H524 H 0.40435 0.44947 0.2512 0.0
H525 H 0.47569 0.44796 0.24042 0.0
H526 H 0.56819 0.5611 0.22817 0.0
H527 H 0.57124 0.55956 0.17255 0.0
loop_
_geom_bond_atom_site_label_1
_geom_bond_atom_site_label_2
_geom_bond_distance
_geom_bond_site_symmetry_2
_ccdc_geom_bond_type
Co0 N5 2.057 . S
Co0 O17 2.021 . S
Co0 O20 2.062 1_455 S
Co0 O24 2.117 1_554 S
Co0 O25 2.020 1_565 S
C1 O21 1.259 1_455 S
C1 O24 1.258 1_545 S
Co2 N11 2.057 . S
Co2 O18 2.117 . S
Co2 O19 2.020 1_545 S
Co2 O21 2.021 1_554 S
Co2 O26 2.062 1_655 S
C3 N5 1.316 . S
C3 N6 1.347 . S
C3 H8 0.931 . S
C4 N5 1.375 1_556 S
C4 C7 1.350 . S
C4 H9 0.930 . S
N5 Co0 2.057 . S
N5 C3 1.316 . S
N5 C4 1.375 1_554 S
N6 C3 1.347 . S
N6 C7 1.373 1_554 S
C7 C4 1.350 . S
C7 N6 1.373 1_556 S
C7 H28 0.931 . S
H8 C3 0.931 . S
H9 C4 0.930 . S
C10 O17 1.259 1_545 S
C10 O18 1.258 1_455 S
N11 Co2 2.057 . S
N11 C12 1.316 . S
N11 C13 1.375 . S
C12 N11 1.316 . S
C12 N14 1.347 . S
C12 H23 0.931 1_554 S
C13 N11 1.375 . S
C13 C15 1.350 . S
C13 H22 0.930 . S
N14 C12 1.347 . S
N14 C15 1.373 . S
C15 C13 1.350 . S
C15 N14 1.373 . S
C15 H29 0.931 . S
C16 O19 1.256 . S
C16 O20 1.255 . S
O17 Co0 2.021 . S
O17 C10 1.259 1_565 S
O18 Co2 2.117 . S
O18 C10 1.258 1_655 S
O19 Co2 2.020 1_565 S
O19 C16 1.256 . S
O20 Co0 2.062 1_655 S
O20 C16 1.255 . S
O21 C1 1.259 1_655 S
O21 Co2 2.021 1_556 S
H22 C13 0.930 . S
H23 C12 0.931 1_556 S
O24 Co0 2.117 1_556 S
O24 C1 1.258 1_565 S
O25 Co0 2.020 1_545 S
O25 C27 1.256 . S
O26 Co2 2.062 1_455 S
O26 C27 1.255 . S
C27 O25 1.256 . S
C27 O26 1.255 . S
H28 C7 0.931 . S
H29 C15 0.931 . S
Co30 N35 2.057 . S
Co30 O47 2.021 . S
Co30 O50 2.062 . S
Co30 O54 2.117 . S
Co30 O55 2.020 . S
C31 O51 1.259 . S
C31 O54 1.258 . S
Co32 N41 2.057 . S
Co32 O48 2.117 . S
Co32 O49 2.020 . S
Co32 O51 2.021 . S
Co32 O56 2.062 . S
C33 N35 1.316 . S
C33 N36 1.347 . S
C33 H38 0.931 . S
C34 N35 1.375 . S
C34 C37 1.350 . S
C34 H39 0.930 . S
N35 Co30 2.057 . S
N35 C33 1.316 . S
N35 C34 1.375 . S
N36 C33 1.347 . S
N36 C37 1.373 . S
C37 C34 1.350 . S
C37 N36 1.373 . S
C37 H58 0.931 . S
H38 C33 0.931 . S
H39 C34 0.930 . S
C40 O47 1.259 . S
C40 O48 1.258 . S
N41 Co32 2.057 . S
N41 C42 1.316 . S
N41 C43 1.375 . S
C42 N41 1.316 . S
C42 N44 1.347 . S
C42 H53 0.931 . S
C43 N41 1.375 . S
C43 C45 1.350 . S
C43 H52 0.930 . S
N44 C42 1.347 . S
N44 C45 1.373 . S
C45 C43 1.350 . S
C45 N44 1.373 . S
C45 H59 0.931 . S
C46 O49 1.256 . S
C46 O50 1.255 . S
O47 Co30 2.021 . S
O47 C40 1.259 . S
O48 Co32 2.117 . S
O48 C40 1.258 . S
O49 Co32 2.020 . S
O49 C46 1.256 . S
O50 Co30 2.062 . S
O50 C46 1.255 . S
O51 C31 1.259 . S
O51 Co32 2.021 . S
H52 C43 0.930 . S
H53 C42 0.931 . S
O54 Co30 2.117 . S
O54 C31 1.258 . S
O55 Co30 2.020 . S
O55 C57 1.256 . S
O56 Co32 2.062 . S
O56 C57 1.255 . S
C57 O55 1.256 . S
C57 O56 1.255 . S
H58 C37 0.931 . S
H59 C45 0.931 . S
H60 C63 0.931 . S
H61 C66 0.928 . S
H62 C68 0.931 . S
C63 H60 0.931 . S
C63 C64 1.413 . S
C63 C65 1.358 1_655 S
C64 C63 1.413 . S
C64 C68 1.417 1_655 S
C65 C63 1.358 1_455 S
C65 C66 1.374 1_545 S
C66 H61 0.928 . S
C66 C65 1.374 1_565 S
C66 C67 1.404 . S
C67 C66 1.404 . S
C67 C68 1.403 1_565 S
C68 H62 0.931 . S
C68 C64 1.417 1_455 S
C68 C67 1.403 1_545 S
H69 C72 0.931 . S
H70 C75 0.928 . S
H71 C77 0.930 . S
C72 H69 0.931 . S
C72 C73 1.413 . S
C72 C74 1.360 1_665 S
C73 C72 1.413 . S
C73 C77 1.429 1_665 S
C74 C72 1.360 1_445 S
C74 C75 1.372 . S
C75 H70 0.928 . S
C75 C74 1.372 . S
C75 C76 1.404 . S
C76 C75 1.404 . S
C76 C77 1.391 . S
C77 H71 0.930 . S
C77 C73 1.429 1_445 S
C77 C76 1.391 . S
H78 C81 0.931 . S
H79 C84 0.928 . S
H80 C86 0.930 . S
C81 H78 0.931 . S
C81 C82 1.413 . S
C81 C83 1.360 . S
C82 C81 1.413 . S
C82 C86 1.429 . S
C83 C81 1.360 . S
C83 C84 1.372 . S
C84 H79 0.928 . S
C84 C83 1.372 . S
C84 C85 1.404 . S
C85 C84 1.404 . S
C85 C86 1.391 . S
C86 H80 0.930 . S
C86 C82 1.429 . S
C86 C85 1.391 . S
H87 C90 0.931 . S
H88 C93 0.928 . S
H89 C95 0.930 . S
C90 H87 0.931 . S
C90 C91 1.413 . S
C90 C92 1.360 . S
C91 C90 1.413 . S
C91 C95 1.429 . S
C92 C90 1.360 . S
C92 C93 1.372 . S
C93 H88 0.928 . S
C93 C92 1.372 . S
C93 C94 1.404 . S
C94 C93 1.404 . S
C94 C95 1.391 . S
C95 H89 0.930 . S
C95 C91 1.429 . S
C95 C94 1.391 . S
H96 C104 0.929 1_556 S
H97 C106 0.930 . S
H98 C108 0.930 . S
H99 C111 0.929 . S
H100 C114 0.930 . S
H101 C116 0.960 . S
H102 C116 0.960 1_556 S
H103 C116 0.960 . S
C104 H96 0.929 1_554 S
C104 C105 1.377 . S
C104 C106 1.384 . S
C105 C104 1.377 . S
C105 C111 1.390 . S
C106 H97 0.930 . S
C106 C104 1.384 . S
C106 C107 1.372 . S
C107 C106 1.372 . S
C107 C108 1.400 . S
C107 C112 1.490 . S
C108 H98 0.930 . S
C108 C107 1.400 . S
C108 C111 1.386 . S
H109 C125 0.930 . S
H110 C126 0.931 . S
C111 H99 0.929 . S
C111 C105 1.390 . S
C111 C108 1.386 . S
C112 C107 1.490 . S
C112 C114 1.395 . S
C112 C115 1.403 . S
H113 C119 0.930 . S
C114 H100 0.930 . S
C114 C112 1.395 . S
C114 C117 1.403 . S
C115 C112 1.403 . S
C115 C116 1.524 . S
C115 C119 1.400 . S
C116 H101 0.960 . S
C116 H102 0.960 1_554 S
C116 H103 0.960 . S
C116 C115 1.524 . S
C117 C114 1.403 . S
C117 C118 1.392 . S
C117 C121 1.495 . S
C118 C117 1.392 . S
C118 C119 1.385 . S
C118 C120 1.478 . S
C119 H113 0.930 . S
C119 C115 1.400 . S
C119 C118 1.385 . S
C120 C118 1.478 . S
C120 C122 1.381 . S
C120 C126 1.383 . S
C121 C117 1.495 . S
C121 H127 0.959 . S
C121 H128 0.961 . S
C121 H129 0.960 . S
C122 C120 1.381 . S
C122 C123 1.394 . S
C122 H130 0.930 . S
C123 C122 1.394 . S
C123 C124 1.383 . S
C123 H131 0.929 . S
C124 C123 1.383 . S
C124 C125 1.377 . S
C125 H109 0.930 . S
C125 C124 1.377 . S
C125 C126 1.379 . S
C126 H110 0.931 . S
C126 C120 1.383 . S
C126 C125 1.379 . S
H127 C121 0.959 . S
H128 C121 0.961 . S
H129 C121 0.960 . S
H130 C122 0.930 . S
H131 C123 0.929 . S
H132 C140 0.929 . S
H133 C142 0.930 . S
H134 C144 0.930 . S
H135 C147 0.929 . S
H136 C150 0.930 . S
H137 C152 0.960 . S
H138 C152 0.960 . S
H139 C152 0.960 . S
C140 H132 0.929 . S
C140 C141 1.377 . S
C140 C142 1.384 . S
C141 C140 1.377 . S
C141 C147 1.390 1_554 S
C142 H133 0.930 . S
C142 C140 1.384 . S
C142 C143 1.393 . S
C143 C142 1.393 . S
C143 C144 1.383 1_554 S
C143 C148 1.486 1_554 S
C144 H134 0.930 . S
C144 C143 1.383 1_556 S
C144 C147 1.386 . S
H145 C161 0.930 . S
H146 C162 0.931 . S
C147 H135 0.929 . S
C147 C141 1.390 1_556 S
C147 C144 1.386 . S
C148 C143 1.486 1_556 S
C148 C150 1.395 1_556 S
C148 C151 1.403 . S
H149 C155 0.930 . S
C150 H136 0.930 . S
C150 C148 1.395 1_554 S
C150 C153 1.403 1_554 S
C151 C148 1.403 . S
C151 C152 1.524 . S
C151 C155 1.400 . S
C152 H137 0.960 . S
C152 H138 0.960 . S
C152 H139 0.960 . S
C152 C151 1.524 . S
C153 C150 1.403 1_556 S
C153 C154 1.392 . S
C153 C157 1.495 1_556 S
C154 C153 1.392 . S
C154 C155 1.385 . S
C154 C156 1.478 . S
C155 H149 0.930 . S
C155 C151 1.400 . S
C155 C154 1.385 . S
C156 C154 1.478 . S
C156 C158 1.381 . S
C156 C162 1.383 . S
C157 C153 1.495 1_554 S
C157 H163 0.959 . S
C157 H164 0.961 1_554 S
C157 H165 0.960 . S
C158 C156 1.381 . S
C158 C159 1.394 . S
C158 H166 0.930 1_556 S
C159 C158 1.394 . S
C159 C160 1.383 . S
C159 H167 0.929 . S
C160 C159 1.383 . S
C160 C161 1.377 . S
C161 H145 0.930 . S
C161 C160 1.377 . S
C161 C162 1.379 . S
C162 H146 0.931 . S
C162 C156 1.383 . S
C162 C161 1.379 . S
H163 C157 0.959 . S
H164 C157 0.961 1_556 S
H165 C157 0.960 . S
H166 C158 0.930 1_554 S
H167 C159 0.929 . S
H168 C176 0.929 . S
H169 C178 0.930 . S
H170 C180 0.930 1_556 S
H171 C183 0.929 1_556 S
H172 C186 0.930 . S
H173 C188 0.960 . S
H174 C188 0.960 . S
H175 C188 0.960 . S
C176 H168 0.929 . S
C176 C177 1.377 . S
C176 C178 1.384 . S
C177 C176 1.377 . S
C177 C183 1.390 . S
C178 H169 0.930 . S
C178 C176 1.384 . S
C178 C179 1.372 . S
C179 C178 1.372 . S
C179 C180 1.400 . S
C179 C184 1.490 . S
C180 H170 0.930 1_554 S
C180 C179 1.400 . S
C180 C183 1.386 . S
H181 C197 0.930 . S
H182 C198 0.931 . S
C183 H171 0.929 1_554 S
C183 C177 1.390 . S
C183 C180 1.386 . S
C184 C179 1.490 . S
C184 C186 1.395 . S
C184 C187 1.403 . S
H185 C191 0.930 . S
C186 H172 0.930 . S
C186 C184 1.395 . S
C186 C189 1.403 . S
C187 C184 1.403 . S
C187 C188 1.524 . S
C187 C191 1.400 . S
C188 H173 0.960 . S
C188 H174 0.960 . S
C188 H175 0.960 . S
C188 C187 1.524 . S
C189 C186 1.403 . S
C189 C190 1.392 . S
C189 C193 1.495 . S
C190 C189 1.392 . S
C190 C191 1.385 . S
C190 C192 1.478 . S
C191 H185 0.930 . S
C191 C187 1.400 . S
C191 C190 1.385 . S
C192 C190 1.478 . S
C192 C194 1.381 . S
C192 C198 1.383 . S
C193 C189 1.495 . S
C193 H199 0.959 . S
C193 H200 0.961 . S
C193 H201 0.960 . S
C194 C192 1.381 . S
C194 C195 1.394 . S
C194 H202 0.930 . S
C195 C194 1.394 . S
C195 C196 1.383 . S
C195 H203 0.929 . S
C196 C195 1.383 . S
C196 C197 1.377 . S
C197 H181 0.930 . S
C197 C196 1.377 . S
C197 C198 1.379 . S
C198 H182 0.931 . S
C198 C192 1.383 . S
C198 C197 1.379 . S
H199 C193 0.959 . S
H200 C193 0.961 . S
H201 C193 0.960 . S
H202 C194 0.930 . S
H203 C195 0.929 . S
H204 C212 0.929 . S
H205 C214 0.930 . S
H206 C216 0.930 . S
H207 C219 0.929 . S
H208 C222 0.930 . S
H209 C224 0.960 . S
H210 C224 0.960 . S
H211 C224 0.960 . S
C212 H204 0.929 . S
C212 C213 1.377 1_556 S
C212 C214 1.384 . S
C213 C212 1.377 1_554 S
C213 C219 1.390 . S
C214 H205 0.930 . S
C214 C212 1.384 . S
C214 C215 1.372 . S
C215 C214 1.372 . S
C215 C216 1.400 1_556 S
C215 C220 1.490 . S
C216 H206 0.930 . S
C216 C215 1.400 1_554 S
C216 C219 1.386 . S
H217 C233 0.930 . S
H218 C234 0.931 1_554 S
C219 H207 0.929 . S
C219 C213 1.390 . S
C219 C216 1.386 . S
C220 C215 1.490 . S
C220 C222 1.395 . S
C220 C223 1.403 . S
H221 C227 0.930 . S
C222 H208 0.930 . S
C222 C220 1.395 . S
C222 C225 1.403 . S
C223 C220 1.403 . S
C223 C224 1.524 1_556 S
C223 C227 1.400 . S
C224 H209 0.960 . S
C224 H210 0.960 . S
C224 H211 0.960 . S
C224 C223 1.524 1_554 S
C225 C222 1.403 . S
C225 C226 1.392 . S
C225 C229 1.495 . S
C226 C225 1.392 . S
C226 C227 1.385 . S
C226 C228 1.478 . S
C227 H221 0.930 . S
C227 C223 1.400 . S
C227 C226 1.385 . S
C228 C226 1.478 . S
C228 C230 1.381 . S
C228 C234 1.383 . S
C229 C225 1.495 . S
C229 H235 0.959 . S
C229 H236 0.961 . S
C229 H237 0.960 . S
C230 C228 1.381 . S
C230 C231 1.394 . S
C230 H238 0.930 . S
C231 C230 1.394 . S
C231 C232 1.383 . S
C231 H239 0.929 . S
C232 C231 1.383 . S
C232 C233 1.377 . S
C233 H217 0.930 . S
C233 C232 1.377 . S
C233 C234 1.379 . S
C234 H218 0.931 1_556 S
C234 C228 1.383 . S
C234 C233 1.379 . S
H235 C229 0.959 . S
H236 C229 0.961 . S
H237 C229 0.960 . S
H238 C230 0.930 . S
H239 C231 0.929 . S
H240 C248 0.929 . S
H241 C250 0.930 . S
H242 C252 0.930 . S
H243 C255 0.929 . S
H244 C258 0.930 . S
H245 C260 0.960 . S
H246 C260 0.960 . S
H247 C260 0.960 . S
C248 H240 0.929 . S
C248 C249 1.377 . S
C248 C250 1.384 . S
C249 C248 1.377 . S
C249 C255 1.390 . S
C250 H241 0.930 . S
C250 C248 1.384 . S
C250 C251 1.372 . S
C251 C250 1.372 . S
C251 C252 1.400 . S
C251 C256 1.490 . S
C252 H242 0.930 . S
C252 C251 1.400 . S
C252 C255 1.386 . S
H253 C269 0.930 . S
H254 C270 0.931 . S
C255 H243 0.929 . S
C255 C249 1.390 . S
C255 C252 1.386 . S
C256 C251 1.490 . S
C256 C258 1.395 . S
C256 C259 1.403 . S
H257 C263 0.930 . S
C258 H244 0.930 . S
C258 C256 1.395 . S
C258 C261 1.403 . S
C259 C256 1.403 . S
C259 C260 1.524 . S
C259 C263 1.400 . S
C260 H245 0.960 . S
C260 H246 0.960 . S
C260 H247 0.960 . S
C260 C259 1.524 . S
C261 C258 1.403 . S
C261 C262 1.392 . S
C261 C265 1.495 . S
C262 C261 1.392 . S
C262 C263 1.385 . S
C262 C264 1.478 . S
C263 H257 0.930 . S
C263 C259 1.400 . S
C263 C262 1.385 . S
C264 C262 1.478 . S
C264 C266 1.381 . S
C264 C270 1.383 . S
C265 C261 1.495 . S
C265 H271 0.959 . S
C265 H272 0.961 . S
C265 H273 0.960 . S
C266 C264 1.381 . S
C266 C267 1.394 . S
C266 H274 0.930 . S
C267 C266 1.394 . S
C267 C268 1.383 . S
C267 H275 0.929 . S
C268 C267 1.383 . S
C268 C269 1.377 . S
C269 H253 0.930 . S
C269 C268 1.377 . S
C269 C270 1.379 . S
C270 H254 0.931 . S
C270 C264 1.383 . S
C270 C269 1.379 . S
H271 C265 0.959 . S
H272 C265 0.961 . S
H273 C265 0.960 . S
H274 C266 0.930 . S
H275 C267 0.929 . S
H276 C284 0.929 . S
H277 C286 0.930 . S
H278 C288 0.930 . S
H279 C291 0.929 . S
H280 C294 0.930 . S
H281 C296 0.960 . S
H282 C296 0.960 . S
H283 C296 0.960 . S
C284 H276 0.929 . S
C284 C285 1.377 . S
C284 C286 1.384 . S
C285 C284 1.377 . S
C285 C291 1.390 . S
C286 H277 0.930 . S
C286 C284 1.384 . S
C286 C287 1.372 . S
C287 C286 1.372 . S
C287 C288 1.400 . S
C287 C292 1.490 . S
C288 H278 0.930 . S
C288 C287 1.400 . S
C288 C291 1.386 . S
H289 C305 0.930 . S
H290 C306 0.931 . S
C291 H279 0.929 . S
C291 C285 1.390 . S
C291 C288 1.386 . S
C292 C287 1.490 . S
C292 C294 1.395 . S
C292 C295 1.403 . S
H293 C299 0.930 . S
C294 H280 0.930 . S
C294 C292 1.395 . S
C294 C297 1.403 . S
C295 C292 1.403 . S
C295 C296 1.524 . S
C295 C299 1.400 . S
C296 H281 0.960 . S
C296 H282 0.960 . S
C296 H283 0.960 . S
C296 C295 1.524 . S
C297 C294 1.403 . S
C297 C298 1.392 . S
C297 C301 1.495 . S
C298 C297 1.392 . S
C298 C299 1.385 . S
C298 C300 1.478 . S
C299 H293 0.930 . S
C299 C295 1.400 . S
C299 C298 1.385 . S
C300 C298 1.478 . S
C300 C302 1.381 . S
C300 C306 1.383 . S
C301 C297 1.495 . S
C301 H307 0.959 . S
C301 H308 0.961 . S
C301 H309 0.960 . S
C302 C300 1.381 . S
C302 C303 1.394 . S
C302 H310 0.930 . S
C303 C302 1.394 . S
C303 C304 1.383 . S
C303 H311 0.929 . S
C304 C303 1.383 . S
C304 C305 1.377 . S
C305 H289 0.930 . S
C305 C304 1.377 . S
C305 C306 1.379 . S
C306 H290 0.931 . S
C306 C300 1.383 . S
C306 C305 1.379 . S
H307 C301 0.959 . S
H308 C301 0.961 . S
H309 C301 0.960 . S
H310 C302 0.930 . S
H311 C303 0.929 . S
H312 C320 0.929 . S
H313 C322 0.930 . S
H314 C324 0.930 . S
H315 C327 0.929 . S
H316 C330 0.930 . S
H317 C332 0.960 . S
H318 C332 0.960 . S
H319 C332 0.960 . S
C320 H312 0.929 . S
C320 C321 1.377 . S
C320 C322 1.384 . S
C321 C320 1.377 . S
C321 C327 1.390 . S
C322 H313 0.930 . S
C322 C320 1.384 . S
C322 C323 1.372 . S
C323 C322 1.372 . S
C323 C324 1.400 . S
C323 C328 1.490 . S
C324 H314 0.930 . S
C324 C323 1.400 . S
C324 C327 1.386 . S
H325 C341 0.930 . S
H326 C342 0.931 . S
C327 H315 0.929 . S
C327 C321 1.390 . S
C327 C324 1.386 . S
C328 C323 1.490 . S
C328 C330 1.395 . S
C328 C331 1.403 . S
H329 C335 0.930 . S
C330 H316 0.930 . S
C330 C328 1.395 . S
C330 C333 1.403 . S
C331 C328 1.403 . S
C331 C332 1.524 . S
C331 C335 1.400 . S
C332 H317 0.960 . S
C332 H318 0.960 . S
C332 H319 0.960 . S
C332 C331 1.524 . S
C333 C330 1.403 . S
C333 C334 1.392 . S
C333 C337 1.495 . S
C334 C333 1.392 . S
C334 C335 1.385 . S
C334 C336 1.478 . S
C335 H329 0.930 . S
C335 C331 1.400 . S
C335 C334 1.385 . S
C336 C334 1.478 . S
C336 C338 1.381 . S
C336 C342 1.383 . S
C337 C333 1.495 . S
C337 H343 0.959 . S
C337 H344 0.961 . S
C337 H345 0.960 . S
C338 C336 1.381 . S
C338 C339 1.394 . S
C338 H346 0.930 . S
C339 C338 1.394 . S
C339 C340 1.383 . S
C339 H347 0.929 . S
C340 C339 1.383 . S
C340 C341 1.377 . S
C341 H325 0.930 . S
C341 C340 1.377 . S
C341 C342 1.379 . S
C342 H326 0.931 . S
C342 C336 1.383 . S
C342 C341 1.379 . S
H343 C337 0.959 . S
H344 C337 0.961 . S
H345 C337 0.960 . S
H346 C338 0.930 . S
H347 C339 0.929 . S
H348 C356 0.929 . S
H349 C358 0.930 . S
H350 C360 0.930 . S
H351 C363 0.929 . S
H352 C366 0.930 . S
H353 C368 0.960 . S
H354 C368 0.960 . S
H355 C368 0.960 . S
C356 H348 0.929 . S
C356 C357 1.377 . S
C356 C358 1.384 . S
C357 C356 1.377 . S
C357 C363 1.390 . S
C358 H349 0.930 . S
C358 C356 1.384 . S
C358 C359 1.372 . S
C359 C358 1.372 . S
C359 C360 1.400 . S
C359 C364 1.490 . S
C360 H350 0.930 . S
C360 C359 1.400 . S
C360 C363 1.386 . S
H361 C377 0.930 . S
H362 C378 0.931 . S
C363 H351 0.929 . S
C363 C357 1.390 . S
C363 C360 1.386 . S
C364 C359 1.490 . S
C364 C366 1.395 . S
C364 C367 1.403 . S
H365 C371 0.930 . S
C366 H352 0.930 . S
C366 C364 1.395 . S
C366 C369 1.403 . S
C367 C364 1.403 . S
C367 C368 1.524 . S
C367 C371 1.400 . S
C368 H353 0.960 . S
C368 H354 0.960 . S
C368 H355 0.960 . S
C368 C367 1.524 . S
C369 C366 1.403 . S
C369 C370 1.392 . S
C369 C373 1.495 . S
C370 C369 1.392 . S
C370 C371 1.385 . S
C370 C372 1.478 . S
C371 H365 0.930 . S
C371 C367 1.400 . S
C371 C370 1.385 . S
C372 C370 1.478 . S
C372 C374 1.381 . S
C372 C378 1.383 . S
C373 C369 1.495 . S
C373 H379 0.959 . S
C373 H380 0.961 . S
C373 H381 0.960 . S
C374 C372 1.381 . S
C374 C375 1.394 . S
C374 H382 0.930 . S
C375 C374 1.394 . S
C375 C376 1.383 . S
C375 H383 0.929 . S
C376 C375 1.383 . S
C376 C377 1.377 . S
C377 H361 0.930 . S
C377 C376 1.377 . S
C377 C378 1.379 . S
C378 H362 0.931 . S
C378 C372 1.383 . S
C378 C377 1.379 . S
H379 C373 0.959 . S
H380 C373 0.961 . S
H381 C373 0.960 . S
H382 C374 0.930 . S
H383 C375 0.929 . S
H384 C392 0.929 . S
H385 C394 0.930 . S
H386 C396 0.930 . S
H387 C399 0.929 . S
H388 C402 0.930 . S
H389 C404 0.960 . S
H390 C404 0.960 . S
H391 C404 0.960 . S
C392 H384 0.929 . S
C392 C393 1.377 . S
C392 C394 1.384 . S
C393 C392 1.377 . S
C393 C399 1.390 1_445 S
C394 H385 0.930 . S
C394 C392 1.384 . S
C394 C395 1.372 . S
C395 C394 1.372 . S
C395 C396 1.400 1_445 S
C395 C400 1.490 . S
C396 H386 0.930 . S
C396 C395 1.400 1_665 S
C396 C399 1.386 . S
H397 C413 0.930 . S
H398 C414 0.931 . S
C399 H387 0.929 . S
C399 C393 1.390 1_665 S
C399 C396 1.386 . S
C400 C395 1.490 . S
C400 C402 1.395 1_455 S
C400 C403 1.403 1_545 S
H401 C407 0.930 . S
C402 H388 0.930 . S
C402 C400 1.395 1_655 S
C402 C405 1.403 . S
C403 C400 1.403 1_565 S
C403 C404 1.524 . S
C403 C407 1.400 . S
C404 H389 0.960 . S
C404 H390 0.960 . S
C404 H391 0.960 . S
C404 C403 1.524 . S
C405 C402 1.403 . S
C405 C406 1.392 1_655 S
C405 C409 1.495 . S
C406 C405 1.392 1_455 S
C406 C407 1.385 1_545 S
C406 C408 1.477 1_455 S
C407 H401 0.930 . S
C407 C403 1.400 . S
C407 C406 1.385 1_565 S
C408 C406 1.477 1_655 S
C408 C410 1.379 1_655 S
C408 C414 1.385 1_545 S
C409 C405 1.495 . S
C409 H415 0.959 . S
C409 H416 0.961 . S
C409 H417 0.960 1_655 S
C410 C408 1.379 1_455 S
C410 C411 1.394 . S
C410 H418 0.930 . S
C411 C410 1.394 . S
C411 C412 1.382 1_455 S
C411 H419 0.929 . S
C412 C411 1.382 1_655 S
C412 C413 1.378 1_545 S
C413 H397 0.930 . S
C413 C412 1.378 1_565 S
C413 C414 1.379 . S
C414 H398 0.931 . S
C414 C408 1.385 1_565 S
C414 C413 1.379 . S
H415 C409 0.959 . S
H416 C409 0.961 . S
H417 C409 0.960 1_455 S
H418 C410 0.930 . S
H419 C411 0.929 . S
H420 C428 0.929 . S
H421 C430 0.930 . S
H422 C432 0.930 . S
H423 C435 0.929 . S
H424 C438 0.930 . S
H425 C440 0.960 . S
H426 C440 0.960 . S
H427 C440 0.960 . S
C428 H420 0.929 . S
C428 C429 1.377 1_655 S
C428 C430 1.384 . S
C429 C428 1.377 1_455 S
C429 C435 1.390 . S
C430 H421 0.930 . S
C430 C428 1.384 . S
C430 C431 1.372 1_655 S
C431 C430 1.372 1_455 S
C431 C432 1.400 . S
C431 C436 1.490 . S
C432 H422 0.930 . S
C432 C431 1.400 . S
C432 C435 1.386 . S
H433 C449 0.930 . S
H434 C450 0.931 . S
C435 H423 0.929 . S
C435 C429 1.390 . S
C435 C432 1.386 . S
C436 C431 1.490 . S
C436 C438 1.395 1_455 S
C436 C439 1.403 1_545 S
H437 C443 0.930 . S
C438 H424 0.930 . S
C438 C436 1.395 1_655 S
C438 C441 1.403 . S
C439 C436 1.403 1_565 S
C439 C440 1.524 . S
C439 C443 1.400 . S
C440 H425 0.960 . S
C440 H426 0.960 . S
C440 H427 0.960 . S
C440 C439 1.524 . S
C441 C438 1.403 . S
C441 C442 1.396 . S
C441 C445 1.495 . S
C442 C441 1.396 . S
C442 C443 1.381 1_645 S
C442 C444 1.477 1_655 S
C443 H437 0.930 . S
C443 C439 1.400 . S
C443 C442 1.381 1_465 S
C444 C442 1.477 1_455 S
C444 C446 1.373 1_455 S
C444 C450 1.391 . S
C445 C441 1.495 . S
C445 H451 0.959 . S
C445 H452 0.961 . S
C445 H453 0.960 . S
C446 C444 1.373 1_655 S
C446 C447 1.394 . S
C446 H454 0.930 . S
C447 C446 1.394 . S
C447 C448 1.383 1_655 S
C447 H455 0.929 . S
C448 C447 1.383 1_455 S
C448 C449 1.377 . S
C449 H433 0.930 . S
C449 C448 1.377 . S
C449 C450 1.379 . S
C450 H434 0.931 . S
C450 C444 1.391 . S
C450 C449 1.379 . S
H451 C445 0.959 . S
H452 C445 0.961 . S
H453 C445 0.960 . S
H454 C446 0.930 . S
H455 C447 0.929 . S
H456 C464 0.929 . S
H457 C466 0.930 . S
H458 C468 0.930 . S
H459 C471 0.929 . S
H460 C474 0.930 . S
H461 C476 0.960 . S
H462 C476 0.960 . S
H463 C476 0.960 . S
C464 H456 0.929 . S
C464 C465 1.377 . S
C464 C466 1.384 . S
C465 C464 1.377 . S
C465 C471 1.390 . S
C466 H457 0.930 . S
C466 C464 1.384 . S
C466 C467 1.372 . S
C467 C466 1.372 . S
C467 C468 1.400 . S
C467 C472 1.490 . S
C468 H458 0.930 . S
C468 C467 1.400 . S
C468 C471 1.386 . S
H469 C485 0.930 . S
H470 C486 0.931 . S
C471 H459 0.929 . S
C471 C465 1.390 . S
C471 C468 1.386 . S
C472 C467 1.490 . S
C472 C474 1.395 . S
C472 C475 1.403 . S
H473 C479 0.930 . S
C474 H460 0.930 . S
C474 C472 1.395 . S
C474 C477 1.403 . S
C475 C472 1.403 . S
C475 C476 1.524 . S
C475 C479 1.400 . S
C476 H461 0.960 . S
C476 H462 0.960 . S
C476 H463 0.960 . S
C476 C475 1.524 . S
C477 C474 1.403 . S
C477 C478 1.392 . S
C477 C481 1.495 . S
C478 C477 1.392 . S
C478 C479 1.385 . S
C478 C480 1.478 . S
C479 H473 0.930 . S
C479 C475 1.400 . S
C479 C478 1.385 . S
C480 C478 1.478 . S
C480 C482 1.381 . S
C480 C486 1.383 . S
C481 C477 1.495 . S
C481 H487 0.959 . S
C481 H488 0.961 . S
C481 H489 0.960 . S
C482 C480 1.381 . S
C482 C483 1.394 . S
C482 H490 0.930 . S
C483 C482 1.394 . S
C483 C484 1.383 . S
C483 H491 0.929 . S
C484 C483 1.383 . S
C484 C485 1.377 . S
C485 H469 0.930 . S
C485 C484 1.377 . S
C485 C486 1.379 . S
C486 H470 0.931 . S
C486 C480 1.383 . S
C486 C485 1.379 . S
H487 C481 0.959 . S
H488 C481 0.961 . S
H489 C481 0.960 . S
H490 C482 0.930 . S
H491 C483 0.929 . S
H492 C500 0.929 . S
H493 C502 0.930 . S
H494 C504 0.930 . S
H495 C507 0.929 . S
H496 C510 0.930 . S
H497 C512 0.960 . S
H498 C512 0.960 . S
H499 C512 0.960 . S
C500 H492 0.929 . S
C500 C501 1.377 . S
C500 C502 1.384 . S
C501 C500 1.377 . S
C501 C507 1.390 . S
C502 H493 0.930 . S
C502 C500 1.384 . S
C502 C503 1.372 . S
C503 C502 1.372 . S
C503 C504 1.400 . S
C503 C508 1.490 . S
C504 H494 0.930 . S
C504 C503 1.400 . S
C504 C507 1.386 . S
H505 C521 0.930 . S
H506 C522 0.931 . S
C507 H495 0.929 . S
C507 C501 1.390 . S
C507 C504 1.386 . S
C508 C503 1.490 . S
C508 C510 1.395 . S
C508 C511 1.403 . S
H509 C515 0.930 . S
C510 H496 0.930 . S
C510 C508 1.395 . S
C510 C513 1.403 . S
C511 C508 1.403 . S
C511 C512 1.524 . S
C511 C515 1.400 . S
C512 H497 0.960 . S
C512 H498 0.960 . S
C512 H499 0.960 . S
C512 C511 1.524 . S
C513 C510 1.403 . S
C513 C514 1.392 . S
C513 C517 1.495 . S
C514 C513 1.392 . S
C514 C515 1.385 . S
C514 C516 1.478 . S
C515 H509 0.930 . S
C515 C511 1.400 . S
C515 C514 1.385 . S
C516 C514 1.478 . S
C516 C518 1.381 . S
C516 C522 1.383 . S
C517 C513 1.495 . S
C517 H523 0.959 . S
C517 H524 0.961 . S
C517 H525 0.960 . S
C518 C516 1.381 . S
C518 C519 1.394 . S
C518 H526 0.930 . S
C519 C518 1.394 . S
C519 C520 1.383 . S
C519 H527 0.929 . S
C520 C519 1.383 . S
C520 C521 1.377 . S
C521 H505 0.930 . S
C521 C520 1.377 . S
C521 C522 1.379 . S
C522 H506 0.931 . S
C522 C516 1.383 . S
C522 C521 1.379 . S
H523 C517 0.959 . S
H524 C517 0.961 . S
H525 C517 0.960 . S
H526 C518 0.930 . S
H527 C519 0.929 . S
C124 C91 1.311 . S
C105 C27 1.332 . S
C141 N6 1.245 . S
C160 C82 1.300 . S
C177 C16 1.324 . S
C196 C94 1.319 . S
C213 N14 1.300 . S
C232 C85 1.285 . S
C249 C57 1.332 . S
C268 C73 1.306 . S
C285 N36 1.248 . S
C304 C64 1.292 . S
C340 C76 1.304 . S
C321 C46 1.326 . S
C376 C67 1.285 . S
C357 N44 1.300 . S
C393 C10 1.387 . S
C412 C65 1.389 1_655 S
C429 C1 1.529 . S
C448 C74 1.530 . S
C484 C83 1.390 . S
C465 C40 1.390 . S
C501 C31 1.530 . S
C520 C92 1.531 . S
