# Generated by pormake.
# Topology nom, (4,4)-cn, num edge types: 1
# Building blocks:
#     Node 0, Type 0, BuildingBlock: NAWXER_clean_linker_0, # of connection points: 4
#     Node 1, Type 0, BuildingBlock: NAWXER_clean_linker_0, # of connection points: 4
#     Node 2, Type 0, BuildingBlock: NAWXER_clean_linker_0, # of connection points: 4
#     Node 3, Type 0, BuildingBlock: NAWXER_clean_linker_0, # of connection points: 4
#     Node 4, Type 0, BuildingBlock: NAWXER_clean_linker_0, # of connection points: 4
#     Node 5, Type 0, BuildingBlock: NAWXER_clean_linker_0, # of connection points: 4
#     Node 6, Type 1, BuildingBlock: NAHDIM_clean_sbu_0, # of connection points: 4
#     Node 7, Type 1, BuildingBlock: NAHDIM_clean_sbu_0, # of connection points: 4
#     Node 8, Type 1, BuildingBlock: NAHDIM_clean_sbu_0, # of connection points: 4
#     Node 9, Type 1, BuildingBlock: NAHDIM_clean_sbu_0, # of connection points: 4
#     Node 10, Type 1, BuildingBlock: NAHDIM_clean_sbu_0, # of connection points: 4
#     Node 11, Type 1, BuildingBlock: NAHDIM_clean_sbu_0, # of connection points: 4
#     Edge 12, Type (0, 1), BuildingBlock: XUDNAN_clean_linker_2, # of connection points: 2
#     Edge 13, Type (0, 1), BuildingBlock: XUDNAN_clean_linker_2, # of connection points: 2
#     Edge 14, Type (0, 1), BuildingBlock: XUDNAN_clean_linker_2, # of connection points: 2
#     Edge 15, Type (0, 1), BuildingBlock: XUDNAN_clean_linker_2, # of connection points: 2
#     Edge 16, Type (0, 1), BuildingBlock: XUDNAN_clean_linker_2, # of connection points: 2
#     Edge 17, Type (0, 1), BuildingBlock: XUDNAN_clean_linker_2, # of connection points: 2
#     Edge 18, Type (0, 1), BuildingBlock: XUDNAN_clean_linker_2, # of connection points: 2
#     Edge 19, Type (0, 1), BuildingBlock: XUDNAN_clean_linker_2, # of connection points: 2
#     Edge 20, Type (0, 1), BuildingBlock: XUDNAN_clean_linker_2, # of connection points: 2
#     Edge 21, Type (0, 1), BuildingBlock: XUDNAN_clean_linker_2, # of connection points: 2
#     Edge 22, Type (0, 1), BuildingBlock: XUDNAN_clean_linker_2, # of connection points: 2
#     Edge 23, Type (0, 1), BuildingBlock: XUDNAN_clean_linker_2, # of connection points: 2
#     Edge 24, Type (0, 1), BuildingBlock: XUDNAN_clean_linker_2, # of connection points: 2
#     Edge 25, Type (0, 1), BuildingBlock: XUDNAN_clean_linker_2, # of connection points: 2
#     Edge 26, Type (0, 1), BuildingBlock: XUDNAN_clean_linker_2, # of connection points: 2
#     Edge 27, Type (0, 1), BuildingBlock: XUDNAN_clean_linker_2, # of connection points: 2
#     Edge 28, Type (0, 1), BuildingBlock: XUDNAN_clean_linker_2, # of connection points: 2
#     Edge 29, Type (0, 1), BuildingBlock: XUDNAN_clean_linker_2, # of connection points: 2
#     Edge 30, Type (0, 1), BuildingBlock: XUDNAN_clean_linker_2, # of connection points: 2
#     Edge 31, Type (0, 1), BuildingBlock: XUDNAN_clean_linker_2, # of connection points: 2
#     Edge 32, Type (0, 1), BuildingBlock: XUDNAN_clean_linker_2, # of connection points: 2
#     Edge 33, Type (0, 1), BuildingBlock: XUDNAN_clean_linker_2, # of connection points: 2
#     Edge 34, Type (0, 1), BuildingBlock: XUDNAN_clean_linker_2, # of connection points: 2
#     Edge 35, Type (0, 1), BuildingBlock: XUDNAN_clean_linker_2, # of connection points: 2
# Relax obj value: 0.024
# Max RMSD: 0.118
# Mean RMSD: 0.110
data_MOF--net-nom--node1-NAHDIM_clean_sbu_0--node2-NAWXER_clean_linker_0--edge1-XUDNAN_clean_linker_2
_symmetry_space_group_name_H-M    P1
_symmetry_Int_Tables_number       1
_symmetry_cell_setting            triclinic
loop_
_symmetry_equiv_pos_as_xyz
'x, y, z'
_cell_length_a     51.543762
_cell_length_b     53.089581
_cell_length_c     57.661396
_cell_angle_alpha  89.971998
_cell_angle_beta   90.650918
_cell_angle_gamma 121.05702
loop_
_atom_site_label
_atom_site_type_symbol
_atom_site_fract_x
_atom_site_fract_y
_atom_site_fract_z
_atom_type_partial_charge
C0 C 0.89396 0.47816 0.31912 0.0
C1 C 0.87975 0.45925 0.3379 0.0
C2 C 0.92413 0.48811 0.31413 0.0
C3 C 0.94074 0.47917 0.32766 0.0
C4 C 0.89663 0.45088 0.35182 0.0
C5 C 0.92694 0.4609 0.34679 0.0
C6 C 0.97288 0.49019 0.32241 0.0
C7 C 0.91924 0.4296 0.26365 0.0
C8 C 0.92361 0.44327 0.24197 0.0
C9 C 0.93834 0.44482 0.28246 0.0
C10 C 0.96207 0.47412 0.28002 0.0
C11 C 0.94756 0.4725 0.23953 0.0
C12 C 0.9667 0.48768 0.25833 0.0
C13 C 0.98293 0.49026 0.29969 0.0
C14 C 0.11923 0.55171 0.31242 0.0
C15 C 0.128 0.57337 0.29525 0.0
C16 C 0.08863 0.5332 0.31768 0.0
C17 C 0.0664 0.53649 0.30619 0.0
C18 C 0.1055 0.57544 0.28292 0.0
C19 C 0.07501 0.55712 0.28831 0.0
C20 C 0.03419 0.51934 0.31284 0.0
C21 C 0.08906 0.5741 0.37374 0.0
C22 C 0.08669 0.55713 0.39321 0.0
C23 C 0.06819 0.56178 0.35538 0.0
C24 C 0.04508 0.53201 0.35586 0.0
C25 C 0.06257 0.52783 0.39422 0.0
C26 C 0.04196 0.5154 0.3757 0.0
C27 C 0.02417 0.51786 0.33584 0.0
H28 H 0.88189 0.48568 0.30844 0.0
H29 H 0.93458 0.5031 0.2998 0.0
H30 H 0.8863 0.43627 0.36637 0.0
H31 H 0.93949 0.45408 0.35765 0.0
H32 H 0.90092 0.40717 0.26614 0.0
H33 H 0.93473 0.43356 0.29884 0.0
H34 H 0.95183 0.4835 0.22297 0.0
H35 H 0.98505 0.51013 0.25595 0.0
H36 H 0.13605 0.54929 0.32194 0.0
H37 H 0.08242 0.51683 0.33109 0.0
H38 H 0.11152 0.59203 0.26974 0.0
H39 H 0.05821 0.55986 0.27908 0.0
H40 H 0.1071 0.59691 0.3727 0.0
H41 H 0.07043 0.57538 0.34064 0.0
H42 H 0.0602 0.51423 0.40899 0.0
H43 H 0.02407 0.49251 0.37659 0.0
N44 N 0.99385 0.50344 0.33971 0.0
N45 N 0.01317 0.50534 0.29572 0.0
C46 C 0.42938 0.90181 0.50938 0.0
C47 C 0.44403 0.89483 0.52669 0.0
C48 C 0.44256 0.9305 0.50106 0.0
C49 C 0.47081 0.95275 0.50971 0.0
C50 C 0.47221 0.91718 0.53545 0.0
C51 C 0.48536 0.94591 0.52714 0.0
C52 C 0.48395 0.98355 0.50203 0.0
C53 C 0.48682 0.93557 0.43863 0.0
C54 C 0.46893 0.93498 0.4198 0.0
C55 C 0.49161 0.95344 0.45797 0.0
C56 C 0.47851 0.97098 0.45887 0.0
C57 C 0.45584 0.95253 0.42079 0.0
C58 C 0.46074 0.97047 0.44005 0.0
C59 C 0.48495 0.99147 0.47851 0.0
C60 C 0.54446 0.1231 0.48024 0.0
C61 C 0.52465 0.12602 0.46497 0.0
C62 C 0.53681 0.09549 0.48888 0.0
C63 C 0.50921 0.07036 0.48244 0.0
C64 C 0.49683 0.10079 0.45895 0.0
C65 C 0.48935 0.07327 0.46742 0.0
C66 C 0.50132 0.04069 0.49008 0.0
C67 C 0.49882 0.0868 0.55509 0.0
C68 C 0.51899 0.08902 0.57272 0.0
C69 C 0.49374 0.06929 0.5355 0.0
C70 C 0.50893 0.05383 0.53307 0.0
C71 C 0.53453 0.0739 0.57007 0.0
C72 C 0.52935 0.05629 0.55051 0.0
C73 C 0.50172 0.03312 0.51351 0.0
H74 H 0.40775 0.88507 0.50216 0.0
H75 H 0.43036 0.93535 0.48815 0.0
H76 H 0.48387 0.91257 0.549 0.0
H77 H 0.50691 0.96282 0.53436 0.0
H78 H 0.49711 0.92221 0.43842 0.0
H79 H 0.50605 0.95397 0.47198 0.0
H80 H 0.44233 0.95292 0.40642 0.0
H81 H 0.4507 0.98406 0.44022 0.0
H82 H 0.56624 0.14199 0.48499 0.0
H83 H 0.55276 0.09367 0.5001 0.0
H84 H 0.48076 0.10225 0.44762 0.0
H85 H 0.46793 0.05416 0.46225 0.0
H86 H 0.48663 0.09832 0.55658 0.0
H87 H 0.47729 0.06717 0.5226 0.0
H88 H 0.54989 0.07486 0.58349 0.0
H89 H 0.54102 0.04425 0.54911 0.0
N90 N 0.49286 0.0048 0.51857 0.0
N91 N 0.49315 0.01962 0.47352 0.0
C92 C 0.57022 0.50251 0.59305 0.0
C93 C 0.55759 0.47271 0.58715 0.0
C94 C 0.55783 0.51075 0.61081 0.0
C95 C 0.53304 0.48935 0.62329 0.0
C96 C 0.53281 0.45126 0.59979 0.0
C97 C 0.52066 0.45952 0.61777 0.0
C98 C 0.51867 0.49861 0.64054 0.0
C99 C 0.5111 0.42757 0.69693 0.0
C100 C 0.53836 0.42908 0.69152 0.0
C101 C 0.5048 0.44841 0.68837 0.0
C102 C 0.52554 0.4713 0.67416 0.0
C103 C 0.55976 0.45268 0.67805 0.0
C104 C 0.55345 0.47372 0.66951 0.0
C105 C 0.51677 0.4917 0.66432 0.0
C106 C 0.42797 0.51818 0.70483 0.0
C107 C 0.44493 0.53678 0.72349 0.0
C108 C 0.44219 0.51156 0.68738 0.0
C109 C 0.4737 0.5239 0.68801 0.0
C110 C 0.47649 0.54902 0.72399 0.0
C111 C 0.49067 0.54254 0.70648 0.0
C112 C 0.48904 0.5158 0.67067 0.0
C113 C 0.44284 0.55715 0.63462 0.0
C114 C 0.42511 0.54043 0.61544 0.0
C115 C 0.46514 0.55244 0.64411 0.0
C116 C 0.46934 0.53017 0.63515 0.0
C117 C 0.43155 0.52024 0.60524 0.0
C118 C 0.45312 0.51502 0.61507 0.0
C119 C 0.48902 0.52084 0.64657 0.0
H120 H 0.58904 0.51952 0.58341 0.0
H121 H 0.5674 0.53389 0.61465 0.0
H122 H 0.5227 0.42814 0.59565 0.0
H123 H 0.50119 0.44272 0.627 0.0
H124 H 0.49444 0.41009 0.7077 0.0
H125 H 0.48322 0.44615 0.69243 0.0
H126 H 0.58102 0.4545 0.67364 0.0
H127 H 0.57024 0.49163 0.65916 0.0
H128 H 0.40366 0.50853 0.7038 0.0
H129 H 0.42859 0.49661 0.67352 0.0
H130 H 0.49018 0.56292 0.73829 0.0
H131 H 0.51496 0.55184 0.70748 0.0
H132 H 0.43885 0.57313 0.64287 0.0
H133 H 0.47833 0.56557 0.65887 0.0
H134 H 0.41942 0.50785 0.58988 0.0
H135 H 0.45624 0.49817 0.60736 0.0
N136 N 0.50446 0.51255 0.63261 0.0
N137 N 0.50258 0.50117 0.67848 0.0
C138 C 0.89751 0.42695 0.79564 0.0
C139 C 0.88761 0.44072 0.78005 0.0
C140 C 0.92614 0.4427 0.80606 0.0
C141 C 0.94549 0.4727 0.80133 0.0
C142 C 0.90701 0.47081 0.77535 0.0
C143 C 0.93577 0.48659 0.78578 0.0
C144 C 0.97691 0.48843 0.81056 0.0
C145 C 0.91729 0.46668 0.87336 0.0
C146 C 0.91881 0.44656 0.88836 0.0
C147 C 0.93825 0.47985 0.85547 0.0
C148 C 0.96109 0.47318 0.85244 0.0
C149 C 0.9419 0.44027 0.88538 0.0
C150 C 0.96287 0.45355 0.86773 0.0
C151 C 0.98401 0.487 0.83404 0.0
C152 C 0.12155 0.54563 0.8351 0.0
C153 C 0.12271 0.52711 0.85211 0.0
C154 C 0.09371 0.54007 0.82605 0.0
C155 C 0.06649 0.51536 0.83327 0.0
C156 C 0.09531 0.50301 0.85975 0.0
C157 C 0.06773 0.4971 0.85033 0.0
C158 C 0.03626 0.50842 0.82449 0.0
C159 C 0.08443 0.51106 0.75826 0.0
C160 C 0.08715 0.53224 0.74221 0.0
C161 C 0.06657 0.50486 0.77792 0.0
C162 C 0.05128 0.51991 0.78204 0.0
C163 C 0.07245 0.54781 0.74668 0.0
C164 C 0.05443 0.54148 0.76631 0.0
C165 C 0.0293 0.51085 0.80108 0.0
H166 H 0.88356 0.40367 0.79922 0.0
H167 H 0.93353 0.43112 0.81722 0.0
H168 H 0.90002 0.48213 0.76353 0.0
H169 H 0.95053 0.50959 0.78159 0.0
H170 H 0.89971 0.47192 0.87531 0.0
H171 H 0.93676 0.49537 0.84416 0.0
H172 H 0.94395 0.42524 0.8969 0.0
H173 H 0.98039 0.44819 0.86587 0.0
H174 H 0.1421 0.56437 0.82866 0.0
H175 H 0.09359 0.55528 0.81361 0.0
H176 H 0.09493 0.48873 0.87331 0.0
H177 H 0.0472 0.47806 0.85654 0.0
H178 H 0.09563 0.49881 0.75535 0.0
H179 H 0.06391 0.48763 0.7895 0.0
H180 H 0.07381 0.56398 0.7345 0.0
H181 H 0.04244 0.55302 0.76899 0.0
N182 N -0.00011 0.50076 0.79509 0.0
N183 N 0.01328 0.49688 0.83992 0.0
C184 C 0.4658 0.90302 0.98132 0.0
C185 C 0.44971 0.89418 0.96008 0.0
C186 C 0.47582 0.931 0.99055 0.0
C187 C 0.46935 0.9505 0.97901 0.0
C188 C 0.44307 0.9137 0.94874 0.0
C189 C 0.45271 0.94143 0.95812 0.0
C190 C 0.48302 0.98153 0.9866 0.0
C191 C 0.42678 0.93033 0.04866 0.0
C192 C 0.44218 0.93838 0.0701 0.0
C193 C 0.44082 0.94666 0.02873 0.0
C194 C 0.47077 0.97076 0.0299 0.0
C195 C 0.47208 0.96212 0.07124 0.0
C196 C 0.48626 0.97804 0.05135 0.0
C197 C 0.48519 0.99079 0.00997 0.0
C198 C 0.54054 0.12195 1.00015 0.0
C199 C 0.56432 0.13249 0.0166 0.0
C200 C 0.52368 0.0921 0.99441 0.0
C201 C 0.53029 0.07221 0.00499 0.0
C202 C 0.57 0.11225 0.02784 0.0
C203 C 0.55298 0.08235 0.02219 0.0
C204 C 0.51405 0.04093 0.99794 0.0
C205 C 0.57278 0.09197 0.93806 0.0
C206 C 0.55661 0.09009 0.91768 0.0
C207 C 0.55818 0.07322 0.95665 0.0
C208 C 0.52702 0.0524 0.95536 0.0
C209 C 0.52541 0.06919 0.91641 0.0
C210 C 0.51082 0.05037 0.93503 0.0
C211 C 0.51163 0.03175 0.97468 0.0
H212 H 0.47109 0.88852 0.9907 0.0
H213 H 0.48948 0.93767 0.00628 0.0
H214 H 0.43133 0.90807 0.93215 0.0
H215 H 0.44783 0.95618 0.94865 0.0
H216 H 0.40353 0.91223 0.04754 0.0
H217 H 0.42786 0.9411 0.01269 0.0
H218 H 0.48432 0.96865 0.08765 0.0
H219 H 0.50924 0.99658 0.05286 0.0
H220 H 0.53509 0.13682 0.99156 0.0
H221 H 0.50573 0.08459 0.9815 0.0
H222 H 0.58829 0.11959 0.04042 0.0
H223 H 0.55828 0.06729 0.03065 0.0
H224 H 0.59679 0.10794 0.93964 0.0
H225 H 0.57137 0.07474 0.97191 0.0
H226 H 0.51242 0.06692 0.90083 0.0
H227 H 0.48685 0.03422 0.93356 0.0
N228 N 0.49615 0.00247 0.96995 0.0
N229 N 0.50084 0.02017 0.0146 0.0
C230 C 0.50592 0.62455 0.15551 0.0
C231 C 0.47917 0.61323 0.16828 0.0
C232 C 0.51822 0.60718 0.15066 0.0
C233 C 0.50393 0.57794 0.15825 0.0
C234 C 0.46524 0.58417 0.17645 0.0
C235 C 0.47763 0.56669 0.17155 0.0
C236 C 0.51759 0.55997 0.15316 0.0
C237 C 0.48146 0.56915 0.08497 0.0
C238 C 0.50386 0.58887 0.06977 0.0
C239 C 0.48947 0.55968 0.10493 0.0
C240 C 0.52001 0.56959 0.10995 0.0
C241 C 0.5344 0.59868 0.07475 0.0
C242 C 0.54238 0.58882 0.09454 0.0
C243 C 0.52839 0.55923 0.13095 0.0
C244 C 0.58628 0.48625 0.14123 0.0
C245 C 0.61448 0.50589 0.13129 0.0
C246 C 0.56603 0.49552 0.14655 0.0
C247 C 0.57378 0.52457 0.1421 0.0
C248 C 0.62193 0.53486 0.12676 0.0
C249 C 0.60174 0.54402 0.13201 0.0
C250 C 0.55268 0.53498 0.14658 0.0
C251 C 0.5749 0.51056 0.21604 0.0
C252 C 0.5491 0.4902 0.22841 0.0
C253 C 0.57213 0.52485 0.19661 0.0
C254 C 0.54346 0.51867 0.18891 0.0
C255 C 0.52056 0.48476 0.22099 0.0
C256 C 0.51781 0.49887 0.2015 0.0
C257 C 0.53965 0.53338 0.16843 0.0
H258 H 0.51773 0.64709 0.14956 0.0
H259 H 0.53922 0.6168 0.14119 0.0
H260 H 0.4446 0.57484 0.18636 0.0
H261 H 0.4665 0.54433 0.17787 0.0
H262 H 0.45778 0.56136 0.08157 0.0
H263 H 0.47178 0.54444 0.11637 0.0
H264 H 0.55205 0.61371 0.06318 0.0
H265 H 0.56603 0.59654 0.09802 0.0
H266 H 0.57993 0.4638 0.14494 0.0
H267 H 0.54429 0.47997 0.15391 0.0
H268 H 0.64318 0.55035 0.1187 0.0
H269 H 0.60801 0.56644 0.12817 0.0
H270 H 0.59723 0.51524 0.22121 0.0
H271 H 0.59242 0.54078 0.18769 0.0
H272 H 0.50027 0.46978 0.23037 0.0
H273 H 0.4955 0.49412 0.19615 0.0
N274 N 0.52292 0.54635 0.17093 0.0
N275 N 0.54616 0.54748 0.12862 0.0
C276 C 0.59779 0.33195 0.42441 0.0
O277 O 0.61525 0.34951 0.44115 0.0
O278 O 0.65596 0.39938 0.38731 0.0
Zn279 Zn 0.61535 0.38665 0.40093 0.0
O280 O 0.61889 0.40758 0.43102 0.0
C281 C 0.60444 0.42038 0.36776 0.0
O282 O 0.63151 0.4409 0.37499 0.0
O283 O 0.59416 0.34299 0.40598 0.0
C284 C 0.5946 0.40165 0.44113 0.0
O285 O 0.56848 0.38268 0.43139 0.0
C286 C 0.67989 0.40513 0.39834 0.0
O287 O 0.67961 0.40386 0.42109 0.0
O288 O 0.59209 0.3951 0.37701 0.0
C289 C 0.31379 0.68686 0.56609 0.0
O290 O 0.31926 0.66639 0.55951 0.0
O291 O 0.27947 0.61443 0.57726 0.0
Zn292 Zn 0.25644 0.63544 0.57263 0.0
O293 O 0.23562 0.62508 0.54108 0.0
C294 C 0.20872 0.59437 0.60012 0.0
O295 O 0.2107 0.57786 0.58413 0.0
O296 O 0.28738 0.67932 0.57302 0.0
C297 C 0.20802 0.61712 0.53748 0.0
O298 O 0.19104 0.61494 0.55508 0.0
C299 C 0.27465 0.59165 0.56626 0.0
O300 O 0.25277 0.57966 0.55064 0.0
O301 O 0.22615 0.62214 0.59887 0.0
C302 C 0.61111 0.30076 0.74647 0.0
O303 O 0.63993 0.31657 0.75222 0.0
O304 O 0.66605 0.28039 0.74582 0.0
Zn305 Zn 0.62115 0.2512 0.74587 0.0
O306 O 0.60746 0.22413 0.71801 0.0
C307 C 0.62831 0.21708 0.78009 0.0
O308 O 0.65129 0.22364 0.76658 0.0
O309 O 0.59871 0.27306 0.74411 0.0
C310 C 0.57883 0.20804 0.71586 0.0
O311 O 0.56179 0.20988 0.73175 0.0
C312 C 0.68021 0.29638 0.72861 0.0
O313 O 0.66544 0.29323 0.70907 0.0
O314 O 0.61096 0.22671 0.7749 0.0
C315 C 0.42494 0.70839 0.90332 0.0
O316 O 0.44331 0.7031 0.91547 0.0
O317 O 0.34631 0.62337 0.89793 0.0
Zn318 Zn 0.39179 0.64517 0.8946 0.0
O319 O 0.41305 0.64151 0.92299 0.0
C320 C 0.38397 0.60227 0.8612 0.0
O321 O 0.36186 0.58625 0.87548 0.0
O322 O 0.40334 0.68758 0.89178 0.0
C323 C 0.41421 0.6191 0.92909 0.0
O324 O 0.40011 0.59492 0.91656 0.0
C325 C 0.32955 0.60109 0.91031 0.0
O326 O 0.34186 0.59 0.92375 0.0
O327 O 0.40141 0.62955 0.86566 0.0
C328 C 0.72385 0.41328 0.07232 0.0
O329 O 0.70412 0.38671 0.06477 0.0
O330 O 0.73114 0.35356 0.05849 0.0
Zn331 Zn 0.76667 0.39369 0.06652 0.0
O332 O 0.79032 0.39388 0.09476 0.0
C333 C 0.79682 0.38611 0.02971 0.0
O334 O 0.78448 0.36067 0.04033 0.0
O335 O 0.75175 0.42136 0.07349 0.0
C336 C 0.79425 0.3734 0.10187 0.0
O337 O 0.78204 0.34851 0.09024 0.0
C338 C 0.71345 0.33175 0.07095 0.0
O339 O 0.71706 0.33338 0.0936 0.0
O340 O 0.79346 0.40632 0.03826 0.0
C341 C 0.40593 0.73686 0.23167 0.0
O342 O 0.39313 0.72713 0.25188 0.0
O343 O 0.34725 0.74926 0.24983 0.0
Zn344 Zn 0.38726 0.77992 0.2368 0.0
O345 O 0.38305 0.80311 0.21072 0.0
C346 C 0.3989 0.81186 0.2791 0.0
O347 O 0.3694 0.79985 0.27738 0.0
O348 O 0.40677 0.75921 0.22288 0.0
C349 C 0.38084 0.82569 0.21338 0.0
O350 O 0.37939 0.83426 0.23443 0.0
C351 C 0.32544 0.72842 0.23856 0.0
O352 O 0.32757 0.72654 0.21602 0.0
O353 O 0.41266 0.80684 0.26324 0.0
H354 H 0.15619 0.59356 0.25341 0.0
H355 H 0.17281 0.60265 0.32776 0.0
H356 H 0.22573 0.64205 0.32118 0.0
H357 H 0.23118 0.60795 0.23703 0.0
H358 H 0.23252 0.62811 0.21145 0.0
H359 H 0.19661 0.59916 0.222 0.0
H360 H 0.17741 0.63562 0.22389 0.0
H361 H 0.21329 0.66471 0.21352 0.0
H362 H 0.19866 0.66917 0.24046 0.0
H363 H 0.27523 0.68293 0.30677 0.0
H364 H 0.31938 0.72075 0.28543 0.0
H365 H 0.27094 0.68496 0.22025 0.0
C366 C 0.17106 0.60368 0.26829 0.0
C367 C 0.16044 0.59498 0.2911 0.0
C368 C 0.1806 0.60865 0.31013 0.0
C369 C 0.21062 0.63117 0.30657 0.0
C370 C 0.22017 0.63959 0.28388 0.0
C371 C 0.20112 0.6261 0.26504 0.0
C372 C 0.21684 0.63986 0.24247 0.0
C373 C 0.21944 0.61743 0.22735 0.0
C374 C 0.20058 0.65313 0.22932 0.0
C375 C 0.24754 0.66359 0.25159 0.0
C376 C 0.24894 0.66301 0.27553 0.0
C377 C 0.27453 0.68342 0.28801 0.0
C378 C 0.29944 0.70491 0.27572 0.0
C379 C 0.29866 0.70578 0.25115 0.0
C380 C 0.27232 0.68474 0.239 0.0
H381 H 0.55474 0.18061 0.48617 0.0
H382 H 0.51421 0.13717 0.42051 0.0
H383 H 0.52712 0.18477 0.40357 0.0
H384 H 0.53192 0.23404 0.48383 0.0
H385 H 0.56682 0.2633 0.49623 0.0
H386 H 0.55379 0.22565 0.50355 0.0
H387 H 0.60472 0.23225 0.49007 0.0
H388 H 0.61797 0.26995 0.48281 0.0
H389 H 0.61777 0.24534 0.46119 0.0
H390 H 0.54415 0.23678 0.39365 0.0
H391 H 0.5662 0.29037 0.3909 0.0
H392 H 0.59749 0.30056 0.46246 0.0
C393 C 0.54877 0.1811 0.46818 0.0
C394 C 0.53313 0.15499 0.45478 0.0
C395 C 0.52556 0.15668 0.43133 0.0
C396 C 0.53297 0.18367 0.42148 0.0
C397 C 0.54816 0.20887 0.43521 0.0
C398 C 0.55616 0.20791 0.45799 0.0
C399 C 0.57292 0.23837 0.46879 0.0
C400 C 0.5553 0.24045 0.48931 0.0
C401 C 0.60527 0.24698 0.47614 0.0
C402 C 0.5731 0.25657 0.44847 0.0
C403 C 0.55855 0.23907 0.42932 0.0
C404 C 0.55567 0.25076 0.4085 0.0
C405 C 0.56822 0.28123 0.40714 0.0
C406 C 0.58362 0.2997 0.42644 0.0
C407 C 0.58592 0.28707 0.44738 0.0
H408 H 0.41981 0.5898 0.61348 0.0
H409 H 0.37078 0.49612 0.59791 0.0
H410 H 0.32819 0.49959 0.5824 0.0
H411 H 0.35421 0.59078 0.63352 0.0
H412 H 0.36645 0.62668 0.62188 0.0
H413 H 0.39405 0.61732 0.6307 0.0
H414 H 0.41759 0.63059 0.58977 0.0
H415 H 0.38996 0.63986 0.5808 0.0
H416 H 0.39388 0.61298 0.56464 0.0
H417 H 0.29107 0.51304 0.56779 0.0
H418 H 0.2603 0.53517 0.55804 0.0
H419 H 0.33132 0.61888 0.58602 0.0
C420 C 0.4001 0.56992 0.60698 0.0
C421 C 0.39916 0.54281 0.60656 0.0
C422 C 0.37274 0.51743 0.59778 0.0
C423 C 0.34819 0.51905 0.58908 0.0
C424 C 0.35003 0.5461 0.58958 0.0
C425 C 0.37511 0.57102 0.59856 0.0
C426 C 0.37074 0.59712 0.59785 0.0
C427 C 0.37139 0.60864 0.62245 0.0
C428 C 0.39445 0.62158 0.58234 0.0
C429 C 0.33933 0.58293 0.58704 0.0
C430 C 0.32794 0.55356 0.58217 0.0
C431 C 0.29964 0.53598 0.57164 0.0
C432 C 0.28238 0.54874 0.5661 0.0
C433 C 0.29335 0.57862 0.57142 0.0
C434 C 0.32223 0.59587 0.58198 0.0
H435 H 0.83421 0.39743 0.79856 0.0
H436 H 0.87332 0.44407 0.73451 0.0
H437 H 0.8243 0.41281 0.7143 0.0
H438 H 0.79095 0.32631 0.77309 0.0
H439 H 0.75936 0.31423 0.79227 0.0
H440 H 0.79693 0.34151 0.80196 0.0
H441 H 0.77831 0.3772 0.81181 0.0
H442 H 0.74064 0.34995 0.80229 0.0
H443 H 0.75935 0.38616 0.78975 0.0
H444 H 0.77114 0.37489 0.70079 0.0
H445 H 0.71803 0.33439 0.69545 0.0
H446 H 0.715 0.312 0.76821 0.0
C447 C 0.83255 0.40111 0.78028 0.0
C448 C 0.85767 0.42327 0.76815 0.0
C449 C 0.85431 0.42756 0.74428 0.0
C450 C 0.82661 0.40976 0.7326 0.0
C451 C 0.8025 0.38778 0.74503 0.0
C452 C 0.8052 0.38351 0.76836 0.0
C453 C 0.77616 0.35802 0.77768 0.0
C454 C 0.78116 0.33358 0.78678 0.0
C455 C 0.76283 0.36847 0.79649 0.0
C456 C 0.75672 0.34842 0.7559 0.0
C457 C 0.77221 0.36588 0.73724 0.0
C458 C 0.75878 0.36111 0.7153 0.0
C459 C 0.72864 0.33802 0.71242 0.0
C460 C 0.71235 0.31995 0.73137 0.0
C461 C 0.72679 0.32529 0.75332 0.0
H462 H 0.48147 0.86528 0.96062 0.0
H463 H 0.39804 0.85745 0.9348 0.0
H464 H 0.38509 0.81137 0.91476 0.0
H465 H 0.49773 0.83547 0.91083 0.0
H466 H 0.51106 0.81559 0.92757 0.0
H467 H 0.51478 0.84888 0.93905 0.0
H468 H 0.48547 0.82106 0.97578 0.0
H469 H 0.48202 0.78781 0.96456 0.0
H470 H 0.4486 0.78831 0.97264 0.0
H471 H 0.38105 0.76615 0.89747 0.0
H472 H 0.38344 0.7222 0.88768 0.0
H473 H 0.46797 0.75794 0.92659 0.0
C474 C 0.46028 0.8538 0.951 0.0
C475 C 0.44098 0.86536 0.94916 0.0
C476 C 0.41363 0.84957 0.9361 0.0
C477 C 0.40598 0.82326 0.92469 0.0
C478 C 0.42572 0.8128 0.92664 0.0
C479 C 0.45209 0.82733 0.93972 0.0
C480 C 0.46865 0.81062 0.9399 0.0
C481 C 0.49991 0.82873 0.92866 0.0
C482 C 0.47133 0.8014 0.96469 0.0
C483 C 0.44731 0.78429 0.92501 0.0
C484 C 0.42292 0.7862 0.91727 0.0
C485 C 0.40003 0.76438 0.90344 0.0
C486 C 0.40168 0.73954 0.89789 0.0
C487 C 0.42588 0.73655 0.90638 0.0
C488 C 0.44922 0.75956 0.91977 0.0
H489 H 0.60152 0.45421 0.11019 0.0
H490 H 0.67597 0.53606 0.13799 0.0
H491 H 0.71218 0.5218 0.12517 0.0
H492 H 0.63248 0.4087 0.12631 0.0
H493 H 0.61849 0.38647 0.10037 0.0
H494 H 0.59852 0.40305 0.11211 0.0
H495 H 0.60247 0.42795 0.07257 0.0
H496 H 0.62272 0.4117 0.06078 0.0
H497 H 0.63918 0.45099 0.05991 0.0
H498 H 0.74036 0.49912 0.10865 0.0
H499 H 0.75836 0.46853 0.09114 0.0
H500 H 0.66543 0.40131 0.07445 0.0
C501 C 0.62539 0.46894 0.11389 0.0
C502 C 0.63593 0.4963 0.12503 0.0
C503 C 0.66742 0.51515 0.12922 0.0
C504 C 0.68815 0.50722 0.12208 0.0
C505 C 0.67705 0.48032 0.1108 0.0
C506 C 0.64641 0.46138 0.10686 0.0
C507 C 0.64043 0.43383 0.09426 0.0
C508 C 0.62136 0.40639 0.10916 0.0
C509 C 0.62531 0.43097 0.07047 0.0
C510 C 0.67249 0.44028 0.09172 0.0
C511 C 0.69328 0.46723 0.10133 0.0
C512 C 0.72429 0.47794 0.1011 0.0
C513 C 0.7343 0.46043 0.09106 0.0
C514 C 0.71333 0.43252 0.0814 0.0
C515 C 0.68206 0.42255 0.08162 0.0
H516 H 0.38426 0.85669 0.53724 0.0
H517 H 0.47199 0.86379 0.53562 0.0
H518 H 0.44849 0.81241 0.54874 0.0
H519 H 0.35554 0.80905 0.58812 0.0
H520 H 0.31753 0.78799 0.57649 0.0
H521 H 0.34153 0.82602 0.56861 0.0
H522 H 0.33341 0.81136 0.52511 0.0
H523 H 0.30935 0.77334 0.53284 0.0
H524 H 0.34185 0.78431 0.51488 0.0
H525 H 0.41525 0.75958 0.55883 0.0
H526 H 0.37437 0.7085 0.56572 0.0
H527 H 0.30793 0.73535 0.56144 0.0
C528 C 0.39854 0.84746 0.53972 0.0
C529 C 0.43 0.86429 0.53546 0.0
C530 C 0.44794 0.85147 0.53908 0.0
C531 C 0.43479 0.82228 0.54647 0.0
C532 C 0.40371 0.80627 0.55032 0.0
C533 C 0.3858 0.81839 0.54718 0.0
C534 C 0.35277 0.79601 0.55167 0.0
C535 C 0.34117 0.80533 0.57246 0.0
C536 C 0.3332 0.79096 0.52982 0.0
C537 C 0.35482 0.7692 0.55729 0.0
C538 C 0.38446 0.77571 0.55652 0.0
C539 C 0.392 0.75428 0.55977 0.0
C540 C 0.36861 0.72532 0.56361 0.0
C541 C 0.33803 0.71804 0.56426 0.0
C542 C 0.33114 0.74039 0.56144 0.0
H543 H 0.59109 0.43483 0.70929 0.0
H544 H 0.49777 0.36992 0.6915 0.0
H545 H 0.50558 0.3305 0.70568 0.0
H546 H 0.6225 0.39118 0.69166 0.0
H547 H 0.65021 0.40404 0.71487 0.0
H548 H 0.63701 0.42731 0.70396 0.0
H549 H 0.62142 0.43239 0.74548 0.0
H550 H 0.63435 0.40891 0.75648 0.0
H551 H 0.59598 0.39975 0.76145 0.0
H552 H 0.52342 0.29802 0.72101 0.0
H553 H 0.55091 0.27426 0.73514 0.0
H554 H 0.63289 0.35997 0.74273 0.0
C555 C 0.57237 0.41232 0.70827 0.0
C556 C 0.54373 0.40551 0.6995 0.0
C557 C 0.51974 0.37575 0.69857 0.0
C558 C 0.52397 0.35317 0.70649 0.0
C559 C 0.55233 0.36065 0.71527 0.0
C560 C 0.57618 0.38944 0.71612 0.0
C561 C 0.60454 0.39133 0.72594 0.0
C562 C 0.63007 0.40422 0.70804 0.0
C563 C 0.61466 0.40915 0.74869 0.0
C564 C 0.59291 0.35908 0.73026 0.0
C565 C 0.56269 0.3418 0.72409 0.0
C566 C 0.54707 0.3113 0.72598 0.0
C567 C 0.56289 0.29802 0.73406 0.0
C568 C 0.59403 0.31523 0.74012 0.0
C569 C 0.60904 0.3462 0.73844 0.0
H570 H 0.17536 0.58067 0.86006 0.0
H571 H 0.13724 0.48643 0.86671 0.0
H572 H 0.18426 0.4956 0.88569 0.0
H573 H 0.24945 0.59594 0.84438 0.0
H574 H 0.26887 0.63089 0.85929 0.0
H575 H 0.23122 0.61694 0.84783 0.0
H576 H 0.21345 0.62177 0.88859 0.0
H577 H 0.25099 0.63536 0.90024 0.0
H578 H 0.21901 0.60362 0.91291 0.0
H579 H 0.23526 0.51478 0.90443 0.0
H580 H 0.28918 0.5425 0.91649 0.0
H581 H 0.29563 0.62364 0.89429 0.0
C582 C 0.17683 0.56186 0.86524 0.0
C583 C 0.15205 0.5328 0.86222 0.0
C584 C 0.15529 0.50897 0.86947 0.0
C585 C 0.18205 0.5139 0.88018 0.0
C586 C 0.20571 0.54277 0.88321 0.0
C587 C 0.20361 0.56632 0.87555 0.0
C588 C 0.23311 0.59508 0.87952 0.0
C589 C 0.24645 0.61062 0.85638 0.0
C590 C 0.22887 0.61513 0.89632 0.0
C591 C 0.25212 0.58394 0.89049 0.0
C592 C 0.23571 0.55375 0.89286 0.0
C593 C 0.2484 0.53844 0.90261 0.0
C594 C 0.27895 0.55437 0.90954 0.0
C595 C 0.2965 0.58515 0.90628 0.0
C596 C 0.28271 0.60009 0.89695 0.0
H597 H 0.5891 0.16072 0.05833 0.0
H598 H 0.5852 0.17687 0.98486 0.0
H599 H 0.6201 0.22983 0.99157 0.0
H600 H 0.59492 0.22832 0.07976 0.0
H601 H 0.6213 0.23334 0.10266 0.0
H602 H 0.5939 0.19683 0.09257 0.0
H603 H 0.63712 0.18687 0.08423 0.0
H604 H 0.66463 0.22331 0.09427 0.0
H605 H 0.66767 0.21152 0.06565 0.0
H606 H 0.65768 0.28012 0.00538 0.0
H607 H 0.69588 0.32522 0.02553 0.0
H608 H 0.67673 0.27703 0.09017 0.0
C609 C 0.59548 0.17539 0.04366 0.0
C610 C 0.58412 0.16457 0.02108 0.0
C611 C 0.59299 0.1846 0.00239 0.0
C612 C 0.61298 0.21474 0.00599 0.0
C613 C 0.62393 0.22457 0.02837 0.0
C614 C 0.61552 0.20558 0.04692 0.0
C615 C 0.63176 0.22181 0.06903 0.0
C616 C 0.60911 0.21996 0.08707 0.0
C617 C 0.65147 0.21018 0.07886 0.0
C618 C 0.65102 0.2528 0.05988 0.0
C619 C 0.64594 0.25383 0.0364 0.0
C620 C 0.66172 0.27967 0.02379 0.0
C621 C 0.68345 0.30517 0.03543 0.0
C622 C 0.6893 0.3047 0.05947 0.0
C623 C 0.67261 0.27816 0.07185 0.0
H624 H 0.45525 0.61873 0.20915 0.0
H625 H 0.47438 0.6506 0.13837 0.0
H626 H 0.45748 0.68532 0.147 0.0
H627 H 0.38701 0.62342 0.21506 0.0
H628 H 0.39511 0.6349 0.24501 0.0
H629 H 0.40767 0.6117 0.23302 0.0
H630 H 0.46273 0.64964 0.24584 0.0
H631 H 0.45041 0.67309 0.25765 0.0
H632 H 0.4799 0.68721 0.23634 0.0
H633 H 0.44153 0.71837 0.16362 0.0
H634 H 0.42411 0.74582 0.1866 0.0
H635 H 0.41347 0.69166 0.24643 0.0
C636 C 0.45536 0.63263 0.19536 0.0
C637 C 0.46637 0.63211 0.17313 0.0
C638 C 0.46652 0.65096 0.15564 0.0
C639 C 0.45683 0.67065 0.16033 0.0
C640 C 0.44678 0.67108 0.18254 0.0
C641 C 0.44562 0.65239 0.19972 0.0
C642 C 0.43421 0.65773 0.22222 0.0
C643 C 0.40421 0.63031 0.22923 0.0
C644 C 0.45825 0.6675 0.24165 0.0
C645 C 0.42952 0.68257 0.21502 0.0
C646 C 0.43698 0.68992 0.19207 0.0
C647 C 0.43537 0.71269 0.18157 0.0
C648 C 0.42557 0.72823 0.19482 0.0
C649 C 0.41736 0.72087 0.21832 0.0
C650 C 0.41944 0.69773 0.2285 0.0
H651 H 0.85328 0.45352 0.38038 0.0
H652 H 0.83318 0.44076 0.30649 0.0
H653 H 0.78014 0.42563 0.31411 0.0
H654 H 0.78144 0.39076 0.39886 0.0
H655 H 0.77926 0.40947 0.42417 0.0
H656 H 0.81564 0.41885 0.41298 0.0
H657 H 0.83045 0.47337 0.40993 0.0
H658 H 0.79405 0.46414 0.42096 0.0
H659 H 0.80653 0.48259 0.39352 0.0
H660 H 0.73008 0.41363 0.32932 0.0
H661 H 0.68507 0.40333 0.35139 0.0
H662 H 0.73678 0.42236 0.41571 0.0
C663 C 0.83763 0.44714 0.36583 0.0
C664 C 0.84746 0.44853 0.34281 0.0
C665 C 0.82631 0.44036 0.32424 0.0
C666 C 0.79609 0.43157 0.32838 0.0
C667 C 0.78728 0.43088 0.35121 0.0
C668 C 0.8073 0.43821 0.36966 0.0
C669 C 0.7919 0.43578 0.39251 0.0
C670 C 0.79207 0.41232 0.40804 0.0
C671 C 0.80661 0.46576 0.40495 0.0
C672 C 0.76018 0.42613 0.38396 0.0
C673 C 0.7581 0.4235 0.36008 0.0
C674 C 0.73134 0.41544 0.34805 0.0
C675 C 0.70591 0.40971 0.36077 0.0
C676 C 0.70733 0.41197 0.38531 0.0
C677 C 0.73492 0.42033 0.39699 0.0
H678 H 0.07742 0.55373 0.4402 0.0
H679 H 0.14818 0.58843 0.3887 0.0
H680 H 0.18703 0.60773 0.41998 0.0
H681 H 0.11621 0.61438 0.4808 0.0
H682 H 0.10234 0.59123 0.506 0.0
H683 H 0.08021 0.58035 0.47954 0.0
H684 H 0.07884 0.53086 0.47985 0.0
H685 H 0.10103 0.54162 0.50627 0.0
H686 H 0.11392 0.53107 0.48122 0.0
H687 H 0.21803 0.62133 0.45687 0.0
H688 H 0.23915 0.63107 0.49675 0.0
H689 H 0.14814 0.58888 0.5242 0.0
C690 C 0.1011 0.56538 0.43554 0.0
C691 C 0.10985 0.56961 0.41206 0.0
C692 C 0.14104 0.58522 0.4066 0.0
C693 C 0.16323 0.5961 0.42423 0.0
C694 C 0.15385 0.59141 0.44722 0.0
C695 C 0.12355 0.57665 0.45291 0.0
C696 C 0.11952 0.57486 0.47897 0.0
C697 C 0.10363 0.59119 0.48678 0.0
C698 C 0.10231 0.54269 0.48704 0.0
C699 C 0.15229 0.5907 0.48704 0.0
C700 C 0.17173 0.59992 0.46845 0.0
C701 C 0.20304 0.6144 0.47156 0.0
C702 C 0.21481 0.61975 0.49428 0.0
C703 C 0.19532 0.61087 0.51359 0.0
C704 C 0.16365 0.59616 0.50981 0.0
H705 H 0.57157 0.1268 0.59675 0.0
H706 H 0.47407 0.08836 0.59785 0.0
H707 H 0.47907 0.11466 0.63442 0.0
H708 H 0.58198 0.12315 0.65817 0.0
H709 H 0.61731 0.15781 0.65966 0.0
H710 H 0.60629 0.13634 0.6333 0.0
H711 H 0.61173 0.18076 0.61036 0.0
H712 H 0.62283 0.20239 0.63663 0.0
H713 H 0.59121 0.198 0.61957 0.0
H714 H 0.49416 0.1438 0.67109 0.0
H715 H 0.51859 0.17572 0.70514 0.0
H716 H 0.60664 0.19598 0.68054 0.0
C717 C 0.55129 0.1239 0.60473 0.0
C718 C 0.52242 0.10563 0.59439 0.0
C719 C 0.49644 0.10258 0.60526 0.0
C720 C 0.49903 0.11727 0.62611 0.0
C721 C 0.52775 0.13501 0.63586 0.0
C722 C 0.55347 0.13854 0.62553 0.0
C723 C 0.58163 0.15908 0.63966 0.0
C724 C 0.59775 0.14313 0.6482 0.0
C725 C 0.60311 0.18669 0.62572 0.0
C726 C 0.56766 0.1664 0.6596 0.0
C727 C 0.53655 0.15217 0.65704 0.0
C728 C 0.51852 0.15515 0.67327 0.0
C729 C 0.53265 0.17332 0.69259 0.0
C730 C 0.56455 0.18841 0.69553 0.0
C731 C 0.58223 0.1848 0.67877 0.0
H732 H 0.46434 0.5884 0.74784 0.0
H733 H 0.39139 0.49706 0.74379 0.0
H734 H 0.36724 0.50487 0.7774 0.0
H735 H 0.47008 0.59233 0.80947 0.0
H736 H 0.47794 0.62953 0.81141 0.0
H737 H 0.48864 0.61754 0.78596 0.0
H738 H 0.45798 0.63319 0.76009 0.0
H739 H 0.44724 0.6453 0.78546 0.0
H740 H 0.4185 0.61881 0.76597 0.0
H741 H 0.35232 0.52141 0.81236 0.0
H742 H 0.34673 0.5459 0.84645 0.0
H743 H 0.42969 0.62667 0.82881 0.0
C744 C 0.44325 0.57003 0.75398 0.0
C745 C 0.42968 0.54213 0.743 0.0
C746 C 0.40196 0.51878 0.75154 0.0
C747 C 0.38815 0.52293 0.77074 0.0
C748 C 0.4023 0.55056 0.78126 0.0
C749 C 0.42916 0.57377 0.77319 0.0
C750 C 0.44001 0.60099 0.78817 0.0
C751 C 0.471 0.61066 0.79942 0.0
C752 C 0.44098 0.62605 0.77408 0.0
C753 C 0.4152 0.5893 0.80609 0.0
C754 C 0.39368 0.56018 0.80166 0.0
C755 C 0.36892 0.54425 0.81596 0.0
C756 C 0.36602 0.55841 0.83534 0.0
C757 C 0.38776 0.58826 0.84034 0.0
C758 C 0.41263 0.6039 0.82541 0.0
H759 H 0.89915 0.47163 0.92014 0.0
H760 H 0.88873 0.38838 0.8991 0.0
H761 H 0.85539 0.36406 0.93235 0.0
H762 H 0.9028 0.46213 0.98048 0.0
H763 H 0.88148 0.47893 0.98865 0.0
H764 H 0.90285 0.48977 0.96227 0.0
H765 H 0.85447 0.47713 0.93871 0.0
H766 H 0.83298 0.46649 0.96507 0.0
H767 H 0.82119 0.441 0.94108 0.0
H768 H 0.82631 0.34935 0.96868 0.0
H769 H 0.80077 0.34419 0.00563 0.0
H770 H 0.8289 0.43668 0.00369 0.0
C771 C 0.88933 0.44818 0.92233 0.0
C772 C 0.89655 0.43186 0.90711 0.0
C773 C 0.88371 0.40131 0.9107 0.0
C774 C 0.86467 0.3873 0.92946 0.0
C775 C 0.85857 0.4041 0.94445 0.0
C776 C 0.87026 0.43379 0.94107 0.0
C777 C 0.86085 0.44678 0.96036 0.0
C778 C 0.88865 0.47082 0.97373 0.0
C779 C 0.8412 0.45854 0.95073 0.0
C780 C 0.84244 0.41979 0.97522 0.0
C781 C 0.84144 0.39546 0.96561 0.0
C782 C 0.82667 0.36816 0.97631 0.0
C783 C 0.81233 0.36551 0.99738 0.0
C784 C 0.81277 0.39002 0.00759 0.0
C785 C 0.82805 0.41752 0.99628 0.0
H786 H 0.42382 0.88215 0.08336 0.0
H787 H 0.42774 0.96193 0.10569 0.0
H788 H 0.40682 0.93939 0.14373 0.0
H789 H 0.35434 0.82925 0.11532 0.0
H790 H 0.36917 0.80601 0.12263 0.0
H791 H 0.38032 0.82681 0.09611 0.0
H792 H 0.43675 0.85053 0.10831 0.0
H793 H 0.42579 0.82991 0.13483 0.0
H794 H 0.44939 0.86942 0.13583 0.0
H795 H 0.38993 0.91009 0.18019 0.0
H796 H 0.38005 0.87688 0.21321 0.0
H797 H 0.3884 0.81634 0.1677 0.0
C798 C 0.41945 0.89443 0.09612 0.0
C799 C 0.42684 0.92351 0.09169 0.0
C800 C 0.42183 0.93948 0.10887 0.0
C801 C 0.40992 0.92684 0.13042 0.0
C802 C 0.40331 0.89826 0.13451 0.0
C803 C 0.4079 0.88222 0.11787 0.0
C804 C 0.40162 0.85304 0.12748 0.0
C805 C 0.37476 0.82725 0.11462 0.0
C806 C 0.43008 0.8506 0.12656 0.0
C807 C 0.39355 0.85552 0.15223 0.0
C808 C 0.39421 0.88157 0.15582 0.0
C809 C 0.38901 0.88947 0.17755 0.0
C810 C 0.38344 0.87045 0.19622 0.0
C811 C 0.38338 0.84396 0.19309 0.0
C812 C 0.38802 0.83629 0.17067 0.0
H813 H 0.59339 0.51235 0.26257 0.0
H814 H 0.51101 0.43265 0.24073 0.0
H815 H 0.5148 0.40693 0.27503 0.0
H816 H 0.63237 0.47647 0.28245 0.0
H817 H 0.65069 0.50137 0.30652 0.0
H818 H 0.64071 0.51384 0.28076 0.0
H819 H 0.61002 0.52989 0.30558 0.0
H820 H 0.61976 0.5173 0.33141 0.0
H821 H 0.58057 0.50346 0.32408 0.0
H822 H 0.52791 0.38956 0.3114 0.0
H823 H 0.55061 0.38128 0.34632 0.0
H824 H 0.62522 0.47184 0.34377 0.0
C825 C 0.57623 0.48943 0.26487 0.0
C826 C 0.55176 0.47464 0.24896 0.0
C827 C 0.52966 0.44469 0.25285 0.0
C828 C 0.53168 0.42981 0.27224 0.0
C829 C 0.556 0.44511 0.28758 0.0
C830 C 0.57797 0.4742 0.28407 0.0
C831 C 0.60223 0.48533 0.30285 0.0
C832 C 0.63333 0.4948 0.29252 0.0
C833 C 0.60319 0.51048 0.3168 0.0
C834 C 0.59058 0.45788 0.31738 0.0
C835 C 0.56378 0.43498 0.30837 0.0
C836 C 0.54888 0.40734 0.31864 0.0
C837 C 0.56194 0.40287 0.3385 0.0
C838 C 0.58971 0.42589 0.34781 0.0
C839 C 0.60396 0.4538 0.33715 0.0
H840 H 0.41622 0.90071 0.39525 0.0
H841 H 0.51139 0.92804 0.39708 0.0
H842 H 0.50403 0.89898 0.36148 0.0
H843 H 0.38804 0.82672 0.37466 0.0
H844 H 0.359 0.8262 0.35659 0.0
H845 H 0.37183 0.84852 0.38249 0.0
H846 H 0.38448 0.89453 0.35823 0.0
H847 H 0.37176 0.87236 0.33225 0.0
H848 H 0.40945 0.90423 0.33387 0.0
H849 H 0.48631 0.86815 0.32461 0.0
H850 H 0.45928 0.83677 0.2905 0.0
H851 H 0.37598 0.83002 0.31338 0.0
C852 C 0.43555 0.90065 0.38815 0.0
C853 C 0.46438 0.91666 0.39894 0.0
C854 C 0.48901 0.91567 0.38925 0.0
C855 C 0.48509 0.89938 0.36897 0.0
C856 C 0.45638 0.88408 0.35866 0.0
C857 C 0.43202 0.88447 0.36802 0.0
C858 C 0.40353 0.8663 0.35361 0.0
C859 C 0.37917 0.8404 0.36768 0.0
C860 C 0.39162 0.88551 0.34392 0.0
C861 C 0.41569 0.8558 0.33456 0.0
C862 C 0.44621 0.86626 0.33771 0.0
C863 C 0.46237 0.85973 0.32204 0.0
C864 C 0.44686 0.84195 0.3027 0.0
C865 C 0.41551 0.83088 0.29928 0.0
C866 C 0.3999 0.838 0.3155 0.0
H867 H 0.52499 0.43456 0.55184 0.0
H868 H 0.61685 0.4924 0.57707 0.0
H869 H 0.63657 0.48022 0.5426 0.0
H870 H 0.53641 0.3782 0.52746 0.0
H871 H 0.51187 0.37172 0.5028 0.0
H872 H 0.50523 0.38432 0.52984 0.0
H873 H 0.50771 0.42863 0.50875 0.0
H874 H 0.51453 0.41627 0.48168 0.0
H875 H 0.54072 0.45295 0.49212 0.0
H876 H 0.64611 0.46228 0.5049 0.0
H877 H 0.6448 0.43994 0.46697 0.0
H878 H 0.54654 0.39428 0.46649 0.0
C879 C 0.54923 0.4443 0.55028 0.0
C880 C 0.56943 0.46427 0.56716 0.0
C881 C 0.60103 0.47711 0.56426 0.0
C882 C 0.61241 0.47027 0.5448 0.0
C883 C 0.59187 0.45069 0.52836 0.0
C884 C 0.56095 0.4379 0.5309 0.0
C885 C 0.54373 0.41828 0.51042 0.0
C886 C 0.5231 0.38623 0.51809 0.0
C887 C 0.52561 0.42973 0.49748 0.0
C888 C 0.56977 0.42185 0.49601 0.0
C889 C 0.59736 0.44064 0.50662 0.0
C890 C 0.62463 0.44749 0.49645 0.0
C891 C 0.62365 0.43473 0.47489 0.0
C892 C 0.59558 0.41535 0.46374 0.0
C893 C 0.56838 0.40895 0.47454 0.0
H894 H 0.12747 0.58429 0.72067 0.0
H895 H 0.0829 0.48945 0.71355 0.0
H896 H 0.10843 0.49545 0.67632 0.0
H897 H 0.1238 0.59964 0.66001 0.0
H898 H 0.16063 0.63272 0.65998 0.0
H899 H 0.13883 0.62124 0.68617 0.0
H900 H 0.18339 0.62191 0.708 0.0
H901 H 0.20536 0.63348 0.6819 0.0
H902 H 0.19892 0.60086 0.6967 0.0
H903 H 0.13775 0.51116 0.64 0.0
H904 H 0.17139 0.5357 0.60714 0.0
H905 H 0.19818 0.62089 0.63727 0.0
C906 C 0.12306 0.56483 0.71121 0.0
C907 C 0.10332 0.53638 0.72008 0.0
C908 C 0.09828 0.51144 0.70729 0.0
C909 C 0.11249 0.51461 0.68604 0.0
C910 C 0.13177 0.54288 0.67779 0.0
C911 C 0.13727 0.5676 0.68996 0.0
C912 C 0.15952 0.59544 0.67725 0.0
C913 C 0.14481 0.61331 0.67045 0.0
C914 C 0.18852 0.61401 0.69183 0.0
C915 C 0.1656 0.58242 0.65605 0.0
C916 C 0.14916 0.55206 0.65674 0.0
C917 C 0.1508 0.53493 0.63925 0.0
C918 C 0.17 0.54915 0.62062 0.0
C919 C 0.18752 0.58027 0.61958 0.0
C920 C 0.18509 0.59709 0.63753 0.0
H921 H 0.5375 0.11938 0.88939 0.0
H922 H 0.61154 0.10381 0.90037 0.0
H923 H 0.63811 0.13526 0.8669 0.0
H924 H 0.5381 0.11802 0.82706 0.0
H925 H 0.52964 0.14681 0.8237 0.0
H926 H 0.5166 0.12349 0.84882 0.0
H927 H 0.54353 0.16939 0.8756 0.0
H928 H 0.55668 0.19285 0.85056 0.0
H929 H 0.58343 0.19528 0.87217 0.0
H930 H 0.65612 0.16726 0.83189 0.0
H931 H 0.66494 0.19852 0.79777 0.0
H932 H 0.57936 0.1937 0.8093 0.0
C933 C 0.55924 0.12249 0.88468 0.0
C934 C 0.5725 0.10922 0.89757 0.0
C935 C 0.60114 0.11408 0.89098 0.0
C936 C 0.61633 0.13178 0.87192 0.0
C937 C 0.60265 0.14453 0.85962 0.0
C938 C 0.5748 0.1402 0.86572 0.0
C939 C 0.56513 0.15646 0.84952 0.0
C940 C 0.53562 0.1349 0.8365 0.0
C941 C 0.56202 0.17989 0.86276 0.0
C942 C 0.59184 0.17045 0.83327 0.0
C943 C 0.61319 0.16324 0.83944 0.0
C944 C 0.63962 0.17314 0.82692 0.0
C945 C 0.64439 0.19087 0.80753 0.0
C946 C 0.62288 0.19862 0.80085 0.0
C947 C 0.5963 0.18829 0.814 0.0
H948 H 0.46058 0.55558 0.03708 0.0
H949 H 0.52777 0.6456 0.05551 0.0
H950 H 0.51234 0.66323 0.02131 0.0
H951 H 0.4707 0.56484 0.97498 0.0
H952 H 0.43109 0.54037 0.96834 0.0
H953 H 0.44746 0.53498 0.99424 0.0
H954 H 0.4072 0.53741 0.01906 0.0
H955 H 0.39073 0.54286 0.99325 0.0
H956 H 0.40297 0.56899 0.01682 0.0
H957 H 0.48784 0.671 0.98628 0.0
H958 H 0.45855 0.66838 0.95123 0.0
H959 H 0.40891 0.57306 0.9546 0.0
C960 C 0.47199 0.579 0.03388 0.0
C961 C 0.49529 0.5993 0.04889 0.0
C962 C 0.50999 0.62974 0.04408 0.0
C963 C 0.5013 0.63992 0.0248 0.0
C964 C 0.47811 0.61933 0.01039 0.0
C965 C 0.46387 0.58949 0.01456 0.0
C966 C 0.43995 0.57195 0.9962 0.0
C967 C 0.44778 0.55185 0.98264 0.0
C968 C 0.40834 0.55427 0.00698 0.0
C969 C 0.44275 0.5966 0.98116 0.0
C970 C 0.46474 0.62376 0.98975 0.0
C971 C 0.47075 0.64985 0.97927 0.0
C972 C 0.45393 0.64813 0.95942 0.0
C973 C 0.4316 0.62051 0.95012 0.0
C974 C 0.42607 0.59447 0.96116 0.0
H975 H 0.89936 0.46382 0.20988 0.0
H976 H 0.90229 0.38615 0.22868 0.0
H977 H 0.86905 0.35944 0.19512 0.0
H978 H 0.8216 0.4261 0.1908 0.0
H979 H 0.82847 0.45108 0.16726 0.0
H980 H 0.85219 0.46383 0.19289 0.0
H981 H 0.89977 0.48156 0.16763 0.0
H982 H 0.8762 0.46887 0.14192 0.0
H983 H 0.90168 0.45594 0.14825 0.0
H984 H 0.83609 0.34153 0.1589 0.0
H985 H 0.80545 0.33369 0.12336 0.0
H986 H 0.82458 0.42333 0.12854 0.0
C987 C 0.89319 0.44125 0.20687 0.0
C988 C 0.90343 0.42708 0.22191 0.0
C989 C 0.89444 0.39737 0.21754 0.0
C990 C 0.8757 0.38206 0.19846 0.0
C991 C 0.8661 0.39675 0.18395 0.0
C992 C 0.87449 0.42566 0.18797 0.0
C993 C 0.86111 0.43644 0.16981 0.0
C994 C 0.83956 0.44485 0.18086 0.0
C995 C 0.88618 0.46222 0.15609 0.0
C996 C 0.84397 0.40912 0.15486 0.0
C997 C 0.84711 0.38644 0.16326 0.0
C998 C 0.83344 0.35912 0.15219 0.0
C999 C 0.81609 0.35489 0.132 0.0
C1000 C 0.81256 0.37786 0.12314 0.0
C1001 C 0.82674 0.40527 0.13484 0.0
loop_
_geom_bond_atom_site_label_1
_geom_bond_atom_site_label_2
_geom_bond_distance
_geom_bond_site_symmetry_2
_ccdc_geom_bond_type
C0 C1 1.384 . S
C0 C2 1.384 . S
C0 H28 0.931 . S
C1 C0 1.384 . S
C1 C4 1.382 . S
C2 C0 1.384 . S
C2 C3 1.381 . S
C2 H29 0.930 . S
C3 C2 1.381 . S
C3 C5 1.381 . S
C3 C6 1.487 . S
C4 C1 1.382 . S
C4 C5 1.387 . S
C4 H30 0.930 . S
C5 C3 1.381 . S
C5 C4 1.387 . S
C5 H31 0.931 . S
C6 C3 1.487 . S
C6 C13 1.399 . S
C6 N44 1.343 . S
C7 C8 1.384 . S
C7 C9 1.384 . S
C7 H32 0.931 . S
C8 C7 1.384 . S
C8 C11 1.382 . S
C9 C7 1.384 . S
C9 C10 1.381 . S
C9 H33 0.930 . S
C10 C9 1.381 . S
C10 C12 1.381 . S
C10 C13 1.487 . S
C11 C8 1.382 . S
C11 C12 1.387 . S
C11 H34 0.930 . S
C12 C10 1.381 . S
C12 C11 1.387 . S
C12 H35 0.931 . S
C13 C6 1.399 . S
C13 C10 1.487 . S
C13 N45 1.343 1_655 S
C14 C15 1.384 . S
C14 C16 1.384 . S
C14 H36 0.931 . S
C15 C14 1.384 . S
C15 C18 1.382 . S
C16 C14 1.384 . S
C16 C17 1.381 . S
C16 H37 0.930 . S
C17 C16 1.381 . S
C17 C19 1.381 . S
C17 C20 1.487 . S
C18 C15 1.382 . S
C18 C19 1.387 . S
C18 H38 0.930 . S
C19 C17 1.381 . S
C19 C18 1.387 . S
C19 H39 0.931 . S
C20 C17 1.487 . S
C20 C27 1.399 . S
C20 N45 1.343 . S
C21 C22 1.384 . S
C21 C23 1.384 . S
C21 H40 0.931 . S
C22 C21 1.384 . S
C22 C25 1.382 . S
C23 C21 1.384 . S
C23 C24 1.381 . S
C23 H41 0.930 . S
C24 C23 1.381 . S
C24 C26 1.381 . S
C24 C27 1.487 . S
C25 C22 1.382 . S
C25 C26 1.387 . S
C25 H42 0.930 . S
C26 C24 1.381 . S
C26 C25 1.387 . S
C26 H43 0.931 . S
C27 C20 1.399 . S
C27 C24 1.487 . S
C27 N44 1.343 1_455 S
H28 C0 0.931 . S
H29 C2 0.930 . S
H30 C4 0.930 . S
H31 C5 0.931 . S
H32 C7 0.931 . S
H33 C9 0.930 . S
H34 C11 0.930 . S
H35 C12 0.931 . S
H36 C14 0.931 . S
H37 C16 0.930 . S
H38 C18 0.930 . S
H39 C19 0.931 . S
H40 C21 0.931 . S
H41 C23 0.930 . S
H42 C25 0.930 . S
H43 C26 0.931 . S
N44 C6 1.343 . S
N44 C27 1.343 1_655 S
N45 C13 1.343 1_455 S
N45 C20 1.343 . S
C46 C47 1.384 . S
C46 C48 1.384 . S
C46 H74 0.931 . S
C47 C46 1.384 . S
C47 C50 1.382 . S
C48 C46 1.384 . S
C48 C49 1.381 . S
C48 H75 0.930 . S
C49 C48 1.381 . S
C49 C51 1.381 . S
C49 C52 1.487 . S
C50 C47 1.382 . S
C50 C51 1.387 . S
C50 H76 0.930 . S
C51 C49 1.381 . S
C51 C50 1.387 . S
C51 H77 0.931 . S
C52 C49 1.487 . S
C52 C59 1.399 . S
C52 N90 1.343 1_565 S
C53 C54 1.384 . S
C53 C55 1.384 . S
C53 H78 0.931 . S
C54 C53 1.384 . S
C54 C57 1.382 . S
C55 C53 1.384 . S
C55 C56 1.381 . S
C55 H79 0.930 . S
C56 C55 1.381 . S
C56 C58 1.381 . S
C56 C59 1.487 . S
C57 C54 1.382 . S
C57 C58 1.387 . S
C57 H80 0.930 . S
C58 C56 1.381 . S
C58 C57 1.387 . S
C58 H81 0.931 . S
C59 C52 1.399 . S
C59 C56 1.487 . S
C59 N91 1.343 1_565 S
C60 C61 1.384 . S
C60 C62 1.384 . S
C60 H82 0.931 . S
C61 C60 1.384 . S
C61 C64 1.382 . S
C62 C60 1.384 . S
C62 C63 1.381 . S
C62 H83 0.930 . S
C63 C62 1.381 . S
C63 C65 1.381 . S
C63 C66 1.487 . S
C64 C61 1.382 . S
C64 C65 1.387 . S
C64 H84 0.930 . S
C65 C63 1.381 . S
C65 C64 1.387 . S
C65 H85 0.931 . S
C66 C63 1.487 . S
C66 C73 1.399 . S
C66 N91 1.343 . S
C67 C68 1.384 . S
C67 C69 1.384 . S
C67 H86 0.931 . S
C68 C67 1.384 . S
C68 C71 1.382 . S
C69 C67 1.384 . S
C69 C70 1.381 . S
C69 H87 0.930 . S
C70 C69 1.381 . S
C70 C72 1.381 . S
C70 C73 1.487 . S
C71 C68 1.382 . S
C71 C72 1.387 . S
C71 H88 0.930 . S
C72 C70 1.381 . S
C72 C71 1.387 . S
C72 H89 0.931 . S
C73 C66 1.399 . S
C73 C70 1.487 . S
C73 N90 1.343 . S
H74 C46 0.931 . S
H75 C48 0.930 . S
H76 C50 0.930 . S
H77 C51 0.931 . S
H78 C53 0.931 . S
H79 C55 0.930 . S
H80 C57 0.930 . S
H81 C58 0.931 . S
H82 C60 0.931 . S
H83 C62 0.930 . S
H84 C64 0.930 . S
H85 C65 0.931 . S
H86 C67 0.931 . S
H87 C69 0.930 . S
H88 C71 0.930 . S
H89 C72 0.931 . S
N90 C52 1.343 1_545 S
N90 C73 1.343 . S
N91 C59 1.343 1_545 S
N91 C66 1.343 . S
C92 C93 1.384 . S
C92 C94 1.384 . S
C92 H120 0.931 . S
C93 C92 1.384 . S
C93 C96 1.382 . S
C94 C92 1.384 . S
C94 C95 1.381 . S
C94 H121 0.930 . S
C95 C94 1.381 . S
C95 C97 1.381 . S
C95 C98 1.487 . S
C96 C93 1.382 . S
C96 C97 1.387 . S
C96 H122 0.930 . S
C97 C95 1.381 . S
C97 C96 1.387 . S
C97 H123 0.931 . S
C98 C95 1.487 . S
C98 C105 1.399 . S
C98 N136 1.343 . S
C99 C100 1.384 . S
C99 C101 1.384 . S
C99 H124 0.931 . S
C100 C99 1.384 . S
C100 C103 1.382 . S
C101 C99 1.384 . S
C101 C102 1.381 . S
C101 H125 0.930 . S
C102 C101 1.381 . S
C102 C104 1.381 . S
C102 C105 1.487 . S
C103 C100 1.382 . S
C103 C104 1.387 . S
C103 H126 0.930 . S
C104 C102 1.381 . S
C104 C103 1.387 . S
C104 H127 0.931 . S
C105 C98 1.399 . S
C105 C102 1.487 . S
C105 N137 1.343 . S
C106 C107 1.384 . S
C106 C108 1.384 . S
C106 H128 0.931 . S
C107 C106 1.384 . S
C107 C110 1.382 . S
C108 C106 1.384 . S
C108 C109 1.381 . S
C108 H129 0.930 . S
C109 C108 1.381 . S
C109 C111 1.381 . S
C109 C112 1.487 . S
C110 C107 1.382 . S
C110 C111 1.387 . S
C110 H130 0.930 . S
C111 C109 1.381 . S
C111 C110 1.387 . S
C111 H131 0.931 . S
C112 C109 1.487 . S
C112 C119 1.399 . S
C112 N137 1.343 . S
C113 C114 1.384 . S
C113 C115 1.384 . S
C113 H132 0.931 . S
C114 C113 1.384 . S
C114 C117 1.382 . S
C115 C113 1.384 . S
C115 C116 1.381 . S
C115 H133 0.930 . S
C116 C115 1.381 . S
C116 C118 1.381 . S
C116 C119 1.487 . S
C117 C114 1.382 . S
C117 C118 1.387 . S
C117 H134 0.930 . S
C118 C116 1.381 . S
C118 C117 1.387 . S
C118 H135 0.931 . S
C119 C112 1.399 . S
C119 C116 1.487 . S
C119 N136 1.343 . S
H120 C92 0.931 . S
H121 C94 0.930 . S
H122 C96 0.930 . S
H123 C97 0.931 . S
H124 C99 0.931 . S
H125 C101 0.930 . S
H126 C103 0.930 . S
H127 C104 0.931 . S
H128 C106 0.931 . S
H129 C108 0.930 . S
H130 C110 0.930 . S
H131 C111 0.931 . S
H132 C113 0.931 . S
H133 C115 0.930 . S
H134 C117 0.930 . S
H135 C118 0.931 . S
N136 C98 1.343 . S
N136 C119 1.343 . S
N137 C105 1.343 . S
N137 C112 1.343 . S
C138 C139 1.384 . S
C138 C140 1.384 . S
C138 H166 0.931 . S
C139 C138 1.384 . S
C139 C142 1.382 . S
C140 C138 1.384 . S
C140 C141 1.381 . S
C140 H167 0.930 . S
C141 C140 1.381 . S
C141 C143 1.381 . S
C141 C144 1.487 . S
C142 C139 1.382 . S
C142 C143 1.387 . S
C142 H168 0.930 . S
C143 C141 1.381 . S
C143 C142 1.387 . S
C143 H169 0.931 . S
C144 C141 1.487 . S
C144 C151 1.399 . S
C144 N182 1.343 . S
C145 C146 1.384 . S
C145 C147 1.384 . S
C145 H170 0.931 . S
C146 C145 1.384 . S
C146 C149 1.382 . S
C147 C145 1.384 . S
C147 C148 1.381 . S
C147 H171 0.930 . S
C148 C147 1.381 . S
C148 C150 1.381 . S
C148 C151 1.487 . S
C149 C146 1.382 . S
C149 C150 1.387 . S
C149 H172 0.930 . S
C150 C148 1.381 . S
C150 C149 1.387 . S
C150 H173 0.931 . S
C151 C144 1.399 . S
C151 C148 1.487 . S
C151 N183 1.343 1_655 S
C152 C153 1.384 . S
C152 C154 1.384 . S
C152 H174 0.931 . S
C153 C152 1.384 . S
C153 C156 1.382 . S
C154 C152 1.384 . S
C154 C155 1.381 . S
C154 H175 0.930 . S
C155 C154 1.381 . S
C155 C157 1.381 . S
C155 C158 1.487 . S
C156 C153 1.382 . S
C156 C157 1.387 . S
C156 H176 0.930 . S
C157 C155 1.381 . S
C157 C156 1.387 . S
C157 H177 0.931 . S
C158 C155 1.487 . S
C158 C165 1.399 . S
C158 N183 1.343 . S
C159 C160 1.384 . S
C159 C161 1.384 . S
C159 H178 0.931 . S
C160 C159 1.384 . S
C160 C163 1.382 . S
C161 C159 1.384 . S
C161 C162 1.381 . S
C161 H179 0.930 . S
C162 C161 1.381 . S
C162 C164 1.381 . S
C162 C165 1.487 . S
C163 C160 1.382 . S
C163 C164 1.387 . S
C163 H180 0.930 . S
C164 C162 1.381 . S
C164 C163 1.387 . S
C164 H181 0.931 . S
C165 C158 1.399 . S
C165 C162 1.487 . S
C165 N182 1.343 1_455 S
H166 C138 0.931 . S
H167 C140 0.930 . S
H168 C142 0.930 . S
H169 C143 0.931 . S
H170 C145 0.931 . S
H171 C147 0.930 . S
H172 C149 0.930 . S
H173 C150 0.931 . S
H174 C152 0.931 . S
H175 C154 0.930 . S
H176 C156 0.930 . S
H177 C157 0.931 . S
H178 C159 0.931 . S
H179 C161 0.930 . S
H180 C163 0.930 . S
H181 C164 0.931 . S
N182 C144 1.343 . S
N182 C165 1.343 1_655 S
N183 C151 1.343 1_455 S
N183 C158 1.343 . S
C184 C185 1.384 . S
C184 C186 1.384 . S
C184 H212 0.931 . S
C185 C184 1.384 . S
C185 C188 1.382 . S
C186 C184 1.384 . S
C186 C187 1.381 . S
C186 H213 0.941 . S
C187 C186 1.381 . S
C187 C189 1.381 . S
C187 C190 1.487 . S
C188 C185 1.382 . S
C188 C189 1.387 . S
C188 H214 0.930 . S
C189 C187 1.381 . S
C189 C188 1.387 . S
C189 H215 0.931 . S
C190 C187 1.487 . S
C190 C197 1.399 1_556 S
C190 N228 1.331 1_565 S
C191 C192 1.384 . S
C191 C193 1.384 . S
C191 H216 0.931 . S
C192 C191 1.384 . S
C192 C195 1.382 . S
C193 C191 1.384 . S
C193 C194 1.381 . S
C193 H217 0.930 . S
C194 C193 1.381 . S
C194 C196 1.381 . S
C194 C197 1.487 . S
C195 C192 1.382 . S
C195 C196 1.387 . S
C195 H218 0.930 . S
C196 C194 1.381 . S
C196 C195 1.387 . S
C196 H219 0.931 . S
C197 C190 1.399 1_554 S
C197 C194 1.487 . S
C197 N229 1.343 1_565 S
C198 C199 1.384 . S
C198 C200 1.384 1_554 S
C198 H220 0.931 1_554 S
C199 C198 1.384 . S
C199 C202 1.382 . S
C200 C198 1.384 1_556 S
C200 C201 1.381 1_556 S
C200 H221 0.930 . S
C201 C200 1.381 1_554 S
C201 C203 1.381 . S
C201 C204 1.487 1_554 S
C202 C199 1.382 . S
C202 C203 1.387 . S
C202 H222 0.930 . S
C203 C201 1.381 . S
C203 C202 1.387 . S
C203 H223 0.931 . S
C204 C201 1.487 1_556 S
C204 C211 1.399 . S
C204 N229 1.343 1_556 S
C205 C206 1.384 . S
C205 C207 1.384 . S
C205 H224 0.931 . S
C206 C205 1.384 . S
C206 C209 1.382 . S
C207 C205 1.384 . S
C207 C208 1.381 . S
C207 H225 0.930 . S
C208 C207 1.381 . S
C208 C210 1.381 . S
C208 C211 1.487 . S
C209 C206 1.382 . S
C209 C210 1.387 . S
C209 H226 0.930 . S
C210 C208 1.381 . S
C210 C209 1.387 . S
C210 H227 0.931 . S
C211 C204 1.399 . S
C211 C208 1.487 . S
C211 N228 1.359 . S
H212 C184 0.931 . S
H213 C186 0.941 . S
H214 C188 0.930 . S
H215 C189 0.931 . S
H216 C191 0.931 . S
H217 C193 0.930 . S
H218 C195 0.930 . S
H219 C196 0.931 . S
H220 C198 0.931 1_556 S
H221 C200 0.930 . S
H222 C202 0.930 . S
H223 C203 0.931 . S
H224 C205 0.931 . S
H225 C207 0.930 . S
H226 C209 0.930 . S
H227 C210 0.931 . S
N228 C190 1.331 1_545 S
N228 C211 1.359 . S
N229 C197 1.343 1_545 S
N229 C204 1.343 1_554 S
C230 C231 1.384 . S
C230 C232 1.384 . S
C230 H258 0.931 . S
C231 C230 1.384 . S
C231 C234 1.382 . S
C232 C230 1.384 . S
C232 C233 1.381 . S
C232 H259 0.930 . S
C233 C232 1.381 . S
C233 C235 1.381 . S
C233 C236 1.487 . S
C234 C231 1.382 . S
C234 C235 1.387 . S
C234 H260 0.930 . S
C235 C233 1.381 . S
C235 C234 1.387 . S
C235 H261 0.931 . S
C236 C233 1.487 . S
C236 C243 1.399 . S
C236 N274 1.343 . S
C237 C238 1.384 . S
C237 C239 1.384 . S
C237 H262 0.931 . S
C238 C237 1.384 . S
C238 C241 1.382 . S
C239 C237 1.384 . S
C239 C240 1.381 . S
C239 H263 0.930 . S
C240 C239 1.381 . S
C240 C242 1.381 . S
C240 C243 1.487 . S
C241 C238 1.382 . S
C241 C242 1.387 . S
C241 H264 0.930 . S
C242 C240 1.381 . S
C242 C241 1.387 . S
C242 H265 0.931 . S
C243 C236 1.399 . S
C243 C240 1.487 . S
C243 N275 1.343 . S
C244 C245 1.384 . S
C244 C246 1.384 . S
C244 H266 0.931 . S
C245 C244 1.384 . S
C245 C248 1.382 . S
C246 C244 1.384 . S
C246 C247 1.381 . S
C246 H267 0.930 . S
C247 C246 1.381 . S
C247 C249 1.381 . S
C247 C250 1.487 . S
C248 C245 1.382 . S
C248 C249 1.387 . S
C248 H268 0.930 . S
C249 C247 1.381 . S
C249 C248 1.387 . S
C249 H269 0.931 . S
C250 C247 1.487 . S
C250 C257 1.399 . S
C250 N275 1.343 . S
C251 C252 1.384 . S
C251 C253 1.384 . S
C251 H270 0.931 . S
C252 C251 1.384 . S
C252 C255 1.382 . S
C253 C251 1.384 . S
C253 C254 1.381 . S
C253 H271 0.930 . S
C254 C253 1.381 . S
C254 C256 1.381 . S
C254 C257 1.487 . S
C255 C252 1.382 . S
C255 C256 1.387 . S
C255 H272 0.930 . S
C256 C254 1.381 . S
C256 C255 1.387 . S
C256 H273 0.931 . S
C257 C250 1.399 . S
C257 C254 1.487 . S
C257 N274 1.343 . S
H258 C230 0.931 . S
H259 C232 0.930 . S
H260 C234 0.930 . S
H261 C235 0.931 . S
H262 C237 0.931 . S
H263 C239 0.930 . S
H264 C241 0.930 . S
H265 C242 0.931 . S
H266 C244 0.931 . S
H267 C246 0.930 . S
H268 C248 0.930 . S
H269 C249 0.931 . S
H270 C251 0.931 . S
H271 C253 0.930 . S
H272 C255 0.930 . S
H273 C256 0.931 . S
N274 C236 1.343 . S
N274 C257 1.343 . S
N275 C243 1.343 . S
N275 C250 1.343 . S
C276 O277 1.160 . S
C276 O283 1.185 . S
O277 C276 1.160 . S
O278 Zn279 1.899 . S
O278 C286 1.284 . S
Zn279 O278 1.899 . S
Zn279 O280 2.032 . S
Zn279 O283 2.086 . S
Zn279 O288 1.977 . S
O280 Zn279 2.032 . S
O280 C284 1.278 . S
C281 O282 1.203 . S
C281 O288 1.267 . S
O282 C281 1.203 . S
O283 C276 1.185 . S
O283 Zn279 2.086 . S
C284 O280 1.278 . S
C284 O285 1.211 . S
O285 C284 1.211 . S
C286 O278 1.284 . S
C286 O287 1.273 . S
O287 C286 1.273 . S
O288 Zn279 1.977 . S
O288 C281 1.267 . S
C289 O290 1.160 . S
C289 O296 1.185 . S
O290 C289 1.160 . S
O291 Zn292 1.899 . S
O291 C299 1.284 . S
Zn292 O291 1.899 . S
Zn292 O293 2.032 . S
Zn292 O296 2.086 . S
Zn292 O301 1.977 . S
O293 Zn292 2.032 . S
O293 C297 1.278 . S
C294 O295 1.203 . S
C294 O301 1.267 . S
O295 C294 1.203 . S
O296 C289 1.185 . S
O296 Zn292 2.086 . S
C297 O293 1.278 . S
C297 O298 1.211 . S
O298 C297 1.211 . S
C299 O291 1.284 . S
C299 O300 1.273 . S
O300 C299 1.273 . S
O301 Zn292 1.977 . S
O301 C294 1.267 . S
C302 O303 1.160 . S
C302 O309 1.185 . S
O303 C302 1.160 . S
O304 Zn305 1.899 . S
O304 C312 1.284 . S
Zn305 O304 1.899 . S
Zn305 O306 2.032 . S
Zn305 O309 2.086 . S
Zn305 O314 1.977 . S
O306 Zn305 2.032 . S
O306 C310 1.278 . S
C307 O308 1.203 . S
C307 O314 1.267 . S
O308 C307 1.203 . S
O309 C302 1.185 . S
O309 Zn305 2.086 . S
C310 O306 1.278 . S
C310 O311 1.211 . S
O311 C310 1.211 . S
C312 O304 1.284 . S
C312 O313 1.273 . S
O313 C312 1.273 . S
O314 Zn305 1.977 . S
O314 C307 1.267 . S
C315 O316 1.160 . S
C315 O322 1.185 . S
O316 C315 1.160 . S
O317 Zn318 1.899 . S
O317 C325 1.284 . S
Zn318 O317 1.899 . S
Zn318 O319 2.032 . S
Zn318 O322 2.086 . S
Zn318 O327 1.977 . S
O319 Zn318 2.032 . S
O319 C323 1.278 . S
C320 O321 1.203 . S
C320 O327 1.267 . S
O321 C320 1.203 . S
O322 C315 1.185 . S
O322 Zn318 2.086 . S
C323 O319 1.278 . S
C323 O324 1.211 . S
O324 C323 1.211 . S
C325 O317 1.284 . S
C325 O326 1.273 . S
O326 C325 1.273 . S
O327 Zn318 1.977 . S
O327 C320 1.267 . S
C328 O329 1.160 . S
C328 O335 1.185 . S
O329 C328 1.160 . S
O330 Zn331 1.899 . S
O330 C338 1.284 . S
Zn331 O330 1.899 . S
Zn331 O332 2.032 . S
Zn331 O335 2.086 . S
Zn331 O340 1.977 . S
O332 Zn331 2.032 . S
O332 C336 1.278 . S
C333 O334 1.203 . S
C333 O340 1.267 . S
O334 C333 1.203 . S
O335 C328 1.185 . S
O335 Zn331 2.086 . S
C336 O332 1.278 . S
C336 O337 1.211 . S
O337 C336 1.211 . S
C338 O330 1.284 . S
C338 O339 1.273 . S
O339 C338 1.273 . S
O340 Zn331 1.977 . S
O340 C333 1.267 . S
C341 O342 1.160 . S
C341 O348 1.185 . S
O342 C341 1.160 . S
O343 Zn344 1.899 . S
O343 C351 1.284 . S
Zn344 O343 1.899 . S
Zn344 O345 2.032 . S
Zn344 O348 2.086 . S
Zn344 O353 1.977 . S
O345 Zn344 2.032 . S
O345 C349 1.278 . S
C346 O347 1.203 . S
C346 O353 1.267 . S
O347 C346 1.203 . S
O348 C341 1.185 . S
O348 Zn344 2.086 . S
C349 O345 1.278 . S
C349 O350 1.211 . S
O350 C349 1.211 . S
C351 O343 1.284 . S
C351 O352 1.273 . S
O352 C351 1.273 . S
O353 Zn344 1.977 . S
O353 C346 1.267 . S
H354 C366 0.930 . S
H355 C368 0.930 . S
H356 C369 0.930 . S
H357 C373 0.959 . S
H358 C373 0.959 . S
H359 C373 0.961 . S
H360 C374 0.960 . S
H361 C374 0.961 . S
H362 C374 0.959 . S
H363 C377 0.929 . S
H364 C378 0.931 . S
H365 C380 0.930 . S
C366 H354 0.930 . S
C366 C367 1.399 . S
C366 C371 1.399 . S
C367 C366 1.399 . S
C367 C368 1.376 . S
C368 H355 0.930 . S
C368 C367 1.376 . S
C368 C369 1.388 . S
C369 H356 0.930 . S
C369 C368 1.388 . S
C369 C370 1.390 . S
C370 C369 1.390 . S
C370 C371 1.394 . S
C370 C376 1.465 . S
C371 C366 1.399 . S
C371 C370 1.394 . S
C371 C372 1.516 . S
C372 C371 1.516 . S
C372 C373 1.502 . S
C372 C374 1.561 . S
C372 C375 1.526 . S
C373 H357 0.959 . S
C373 H358 0.959 . S
C373 H359 0.961 . S
C373 C372 1.502 . S
C374 H360 0.960 . S
C374 H361 0.961 . S
C374 H362 0.959 . S
C374 C372 1.561 . S
C375 C372 1.526 . S
C375 C376 1.396 . S
C375 C380 1.390 . S
C376 C370 1.465 . S
C376 C375 1.396 . S
C376 C377 1.399 . S
C377 H363 0.929 . S
C377 C376 1.399 . S
C377 C378 1.385 . S
C378 H364 0.931 . S
C378 C377 1.385 . S
C378 C379 1.389 . S
C379 C378 1.389 . S
C379 C380 1.387 . S
C380 H365 0.930 . S
C380 C375 1.390 . S
C380 C379 1.387 . S
H381 C393 0.930 . S
H382 C395 0.930 . S
H383 C396 0.930 . S
H384 C400 0.959 . S
H385 C400 0.959 . S
H386 C400 0.961 . S
H387 C401 0.960 . S
H388 C401 0.961 . S
H389 C401 0.959 . S
H390 C404 0.929 . S
H391 C405 0.931 . S
H392 C407 0.930 . S
C393 H381 0.930 . S
C393 C394 1.399 . S
C393 C398 1.399 . S
C394 C393 1.399 . S
C394 C395 1.376 . S
C395 H382 0.930 . S
C395 C394 1.376 . S
C395 C396 1.388 . S
C396 H383 0.930 . S
C396 C395 1.388 . S
C396 C397 1.390 . S
C397 C396 1.390 . S
C397 C398 1.394 . S
C397 C403 1.465 . S
C398 C393 1.399 . S
C398 C397 1.394 . S
C398 C399 1.516 . S
C399 C398 1.516 . S
C399 C400 1.502 . S
C399 C401 1.561 . S
C399 C402 1.526 . S
C400 H384 0.959 . S
C400 H385 0.959 . S
C400 H386 0.961 . S
C400 C399 1.502 . S
C401 H387 0.960 . S
C401 H388 0.961 . S
C401 H389 0.959 . S
C401 C399 1.561 . S
C402 C399 1.526 . S
C402 C403 1.396 . S
C402 C407 1.390 . S
C403 C397 1.465 . S
C403 C402 1.396 . S
C403 C404 1.399 . S
C404 H390 0.929 . S
C404 C403 1.399 . S
C404 C405 1.385 . S
C405 H391 0.931 . S
C405 C404 1.385 . S
C405 C406 1.389 . S
C406 C405 1.389 . S
C406 C407 1.387 . S
C407 H392 0.930 . S
C407 C402 1.390 . S
C407 C406 1.387 . S
H408 C420 0.930 . S
H409 C422 0.930 . S
H410 C423 0.930 . S
H411 C427 0.959 . S
H412 C427 0.959 . S
H413 C427 0.961 . S
H414 C428 0.960 . S
H415 C428 0.961 . S
H416 C428 0.959 . S
H417 C431 0.929 . S
H418 C432 0.931 . S
H419 C434 0.930 . S
C420 H408 0.930 . S
C420 C421 1.399 . S
C420 C425 1.399 . S
C421 C420 1.399 . S
C421 C422 1.376 . S
C422 H409 0.930 . S
C422 C421 1.376 . S
C422 C423 1.388 . S
C423 H410 0.930 . S
C423 C422 1.388 . S
C423 C424 1.390 . S
C424 C423 1.390 . S
C424 C425 1.394 . S
C424 C430 1.465 . S
C425 C420 1.399 . S
C425 C424 1.394 . S
C425 C426 1.516 . S
C426 C425 1.516 . S
C426 C427 1.502 . S
C426 C428 1.561 . S
C426 C429 1.526 . S
C427 H411 0.959 . S
C427 H412 0.959 . S
C427 H413 0.961 . S
C427 C426 1.502 . S
C428 H414 0.960 . S
C428 H415 0.961 . S
C428 H416 0.959 . S
C428 C426 1.561 . S
C429 C426 1.526 . S
C429 C430 1.396 . S
C429 C434 1.390 . S
C430 C424 1.465 . S
C430 C429 1.396 . S
C430 C431 1.399 . S
C431 H417 0.929 . S
C431 C430 1.399 . S
C431 C432 1.385 . S
C432 H418 0.931 . S
C432 C431 1.385 . S
C432 C433 1.389 . S
C433 C432 1.389 . S
C433 C434 1.387 . S
C434 H419 0.930 . S
C434 C429 1.390 . S
C434 C433 1.387 . S
H435 C447 0.930 . S
H436 C449 0.930 . S
H437 C450 0.930 . S
H438 C454 0.959 . S
H439 C454 0.959 . S
H440 C454 0.961 . S
H441 C455 0.960 . S
H442 C455 0.961 . S
H443 C455 0.959 . S
H444 C458 0.929 . S
H445 C459 0.931 . S
H446 C461 0.930 . S
C447 H435 0.930 . S
C447 C448 1.399 . S
C447 C452 1.399 . S
C448 C447 1.399 . S
C448 C449 1.376 . S
C449 H436 0.930 . S
C449 C448 1.376 . S
C449 C450 1.388 . S
C450 H437 0.930 . S
C450 C449 1.388 . S
C450 C451 1.390 . S
C451 C450 1.390 . S
C451 C452 1.394 . S
C451 C457 1.465 . S
C452 C447 1.399 . S
C452 C451 1.394 . S
C452 C453 1.516 . S
C453 C452 1.516 . S
C453 C454 1.502 . S
C453 C455 1.561 . S
C453 C456 1.526 . S
C454 H438 0.959 . S
C454 H439 0.959 . S
C454 H440 0.961 . S
C454 C453 1.502 . S
C455 H441 0.960 . S
C455 H442 0.961 . S
C455 H443 0.959 . S
C455 C453 1.561 . S
C456 C453 1.526 . S
C456 C457 1.396 . S
C456 C461 1.390 . S
C457 C451 1.465 . S
C457 C456 1.396 . S
C457 C458 1.399 . S
C458 H444 0.929 . S
C458 C457 1.399 . S
C458 C459 1.385 . S
C459 H445 0.931 . S
C459 C458 1.385 . S
C459 C460 1.389 . S
C460 C459 1.389 . S
C460 C461 1.387 . S
C461 H446 0.930 . S
C461 C456 1.390 . S
C461 C460 1.387 . S
H462 C474 0.930 . S
H463 C476 0.930 . S
H464 C477 0.930 . S
H465 C481 0.959 . S
H466 C481 0.959 . S
H467 C481 0.961 . S
H468 C482 0.960 . S
H469 C482 0.961 . S
H470 C482 0.959 . S
H471 C485 0.929 . S
H472 C486 0.931 . S
H473 C488 0.930 . S
C474 H462 0.930 . S
C474 C475 1.399 . S
C474 C479 1.399 . S
C475 C474 1.399 . S
C475 C476 1.376 . S
C476 H463 0.930 . S
C476 C475 1.376 . S
C476 C477 1.388 . S
C477 H464 0.930 . S
C477 C476 1.388 . S
C477 C478 1.390 . S
C478 C477 1.390 . S
C478 C479 1.394 . S
C478 C484 1.465 . S
C479 C474 1.399 . S
C479 C478 1.394 . S
C479 C480 1.516 . S
C480 C479 1.516 . S
C480 C481 1.502 . S
C480 C482 1.561 . S
C480 C483 1.526 . S
C481 H465 0.959 . S
C481 H466 0.959 . S
C481 H467 0.961 . S
C481 C480 1.502 . S
C482 H468 0.960 . S
C482 H469 0.961 . S
C482 H470 0.959 . S
C482 C480 1.561 . S
C483 C480 1.526 . S
C483 C484 1.396 . S
C483 C488 1.390 . S
C484 C478 1.465 . S
C484 C483 1.396 . S
C484 C485 1.399 . S
C485 H471 0.929 . S
C485 C484 1.399 . S
C485 C486 1.385 . S
C486 H472 0.931 . S
C486 C485 1.385 . S
C486 C487 1.389 . S
C487 C486 1.389 . S
C487 C488 1.387 . S
C488 H473 0.930 . S
C488 C483 1.390 . S
C488 C487 1.387 . S
H489 C501 0.930 . S
H490 C503 0.930 . S
H491 C504 0.930 . S
H492 C508 0.959 . S
H493 C508 0.959 . S
H494 C508 0.961 . S
H495 C509 0.960 . S
H496 C509 0.961 . S
H497 C509 0.959 . S
H498 C512 0.929 . S
H499 C513 0.931 . S
H500 C515 0.930 . S
C501 H489 0.930 . S
C501 C502 1.399 . S
C501 C506 1.399 . S
C502 C501 1.399 . S
C502 C503 1.376 . S
C503 H490 0.930 . S
C503 C502 1.376 . S
C503 C504 1.388 . S
C504 H491 0.930 . S
C504 C503 1.388 . S
C504 C505 1.390 . S
C505 C504 1.390 . S
C505 C506 1.394 . S
C505 C511 1.465 . S
C506 C501 1.399 . S
C506 C505 1.394 . S
C506 C507 1.516 . S
C507 C506 1.516 . S
C507 C508 1.502 . S
C507 C509 1.561 . S
C507 C510 1.526 . S
C508 H492 0.959 . S
C508 H493 0.959 . S
C508 H494 0.961 . S
C508 C507 1.502 . S
C509 H495 0.960 . S
C509 H496 0.961 . S
C509 H497 0.959 . S
C509 C507 1.561 . S
C510 C507 1.526 . S
C510 C511 1.396 . S
C510 C515 1.390 . S
C511 C505 1.465 . S
C511 C510 1.396 . S
C511 C512 1.399 . S
C512 H498 0.929 . S
C512 C511 1.399 . S
C512 C513 1.385 . S
C513 H499 0.931 . S
C513 C512 1.385 . S
C513 C514 1.389 . S
C514 C513 1.389 . S
C514 C515 1.387 . S
C515 H500 0.930 . S
C515 C510 1.390 . S
C515 C514 1.387 . S
H516 C528 0.930 . S
H517 C530 0.930 . S
H518 C531 0.930 . S
H519 C535 0.959 . S
H520 C535 0.959 . S
H521 C535 0.961 . S
H522 C536 0.960 . S
H523 C536 0.961 . S
H524 C536 0.959 . S
H525 C539 0.929 . S
H526 C540 0.931 . S
H527 C542 0.930 . S
C528 H516 0.930 . S
C528 C529 1.399 . S
C528 C533 1.399 . S
C529 C528 1.399 . S
C529 C530 1.376 . S
C530 H517 0.930 . S
C530 C529 1.376 . S
C530 C531 1.388 . S
C531 H518 0.930 . S
C531 C530 1.388 . S
C531 C532 1.390 . S
C532 C531 1.390 . S
C532 C533 1.394 . S
C532 C538 1.465 . S
C533 C528 1.399 . S
C533 C532 1.394 . S
C533 C534 1.516 . S
C534 C533 1.516 . S
C534 C535 1.502 . S
C534 C536 1.561 . S
C534 C537 1.526 . S
C535 H519 0.959 . S
C535 H520 0.959 . S
C535 H521 0.961 . S
C535 C534 1.502 . S
C536 H522 0.960 . S
C536 H523 0.961 . S
C536 H524 0.959 . S
C536 C534 1.561 . S
C537 C534 1.526 . S
C537 C538 1.396 . S
C537 C542 1.390 . S
C538 C532 1.465 . S
C538 C537 1.396 . S
C538 C539 1.399 . S
C539 H525 0.929 . S
C539 C538 1.399 . S
C539 C540 1.385 . S
C540 H526 0.931 . S
C540 C539 1.385 . S
C540 C541 1.389 . S
C541 C540 1.389 . S
C541 C542 1.387 . S
C542 H527 0.930 . S
C542 C537 1.390 . S
C542 C541 1.387 . S
H543 C555 0.930 . S
H544 C557 0.930 . S
H545 C558 0.930 . S
H546 C562 0.959 . S
H547 C562 0.959 . S
H548 C562 0.961 . S
H549 C563 0.960 . S
H550 C563 0.961 . S
H551 C563 0.959 . S
H552 C566 0.929 . S
H553 C567 0.931 . S
H554 C569 0.930 . S
C555 H543 0.930 . S
C555 C556 1.399 . S
C555 C560 1.399 . S
C556 C555 1.399 . S
C556 C557 1.376 . S
C557 H544 0.930 . S
C557 C556 1.376 . S
C557 C558 1.388 . S
C558 H545 0.930 . S
C558 C557 1.388 . S
C558 C559 1.390 . S
C559 C558 1.390 . S
C559 C560 1.394 . S
C559 C565 1.465 . S
C560 C555 1.399 . S
C560 C559 1.394 . S
C560 C561 1.516 . S
C561 C560 1.516 . S
C561 C562 1.502 . S
C561 C563 1.561 . S
C561 C564 1.526 . S
C562 H546 0.959 . S
C562 H547 0.959 . S
C562 H548 0.961 . S
C562 C561 1.502 . S
C563 H549 0.960 . S
C563 H550 0.961 . S
C563 H551 0.959 . S
C563 C561 1.561 . S
C564 C561 1.526 . S
C564 C565 1.396 . S
C564 C569 1.390 . S
C565 C559 1.465 . S
C565 C564 1.396 . S
C565 C566 1.399 . S
C566 H552 0.929 . S
C566 C565 1.399 . S
C566 C567 1.385 . S
C567 H553 0.931 . S
C567 C566 1.385 . S
C567 C568 1.389 . S
C568 C567 1.389 . S
C568 C569 1.387 . S
C569 H554 0.930 . S
C569 C564 1.390 . S
C569 C568 1.387 . S
H570 C582 0.930 . S
H571 C584 0.930 . S
H572 C585 0.930 . S
H573 C589 0.959 . S
H574 C589 0.959 . S
H575 C589 0.961 . S
H576 C590 0.960 . S
H577 C590 0.961 . S
H578 C590 0.959 . S
H579 C593 0.929 . S
H580 C594 0.931 . S
H581 C596 0.930 . S
C582 H570 0.930 . S
C582 C583 1.399 . S
C582 C587 1.399 . S
C583 C582 1.399 . S
C583 C584 1.376 . S
C584 H571 0.930 . S
C584 C583 1.376 . S
C584 C585 1.388 . S
C585 H572 0.930 . S
C585 C584 1.388 . S
C585 C586 1.390 . S
C586 C585 1.390 . S
C586 C587 1.394 . S
C586 C592 1.465 . S
C587 C582 1.399 . S
C587 C586 1.394 . S
C587 C588 1.516 . S
C588 C587 1.516 . S
C588 C589 1.502 . S
C588 C590 1.561 . S
C588 C591 1.526 . S
C589 H573 0.959 . S
C589 H574 0.959 . S
C589 H575 0.961 . S
C589 C588 1.502 . S
C590 H576 0.960 . S
C590 H577 0.961 . S
C590 H578 0.959 . S
C590 C588 1.561 . S
C591 C588 1.526 . S
C591 C592 1.396 . S
C591 C596 1.390 . S
C592 C586 1.465 . S
C592 C591 1.396 . S
C592 C593 1.399 . S
C593 H579 0.929 . S
C593 C592 1.399 . S
C593 C594 1.385 . S
C594 H580 0.931 . S
C594 C593 1.385 . S
C594 C595 1.389 . S
C595 C594 1.389 . S
C595 C596 1.387 . S
C596 H581 0.930 . S
C596 C591 1.390 . S
C596 C595 1.387 . S
H597 C609 0.930 . S
H598 C611 0.930 1_556 S
H599 C612 0.930 1_556 S
H600 C616 0.959 . S
H601 C616 0.959 . S
H602 C616 0.961 . S
H603 C617 0.960 . S
H604 C617 0.961 . S
H605 C617 0.959 . S
H606 C620 0.929 . S
H607 C621 0.931 . S
H608 C623 0.930 . S
C609 H597 0.930 . S
C609 C610 1.399 . S
C609 C614 1.399 . S
C610 C609 1.399 . S
C610 C611 1.376 . S
C611 H598 0.930 1_554 S
C611 C610 1.376 . S
C611 C612 1.388 . S
C612 H599 0.930 1_554 S
C612 C611 1.388 . S
C612 C613 1.390 . S
C613 C612 1.390 . S
C613 C614 1.394 . S
C613 C619 1.465 . S
C614 C609 1.399 . S
C614 C613 1.394 . S
C614 C615 1.516 . S
C615 C614 1.516 . S
C615 C616 1.502 . S
C615 C617 1.561 . S
C615 C618 1.526 . S
C616 H600 0.959 . S
C616 H601 0.959 . S
C616 H602 0.961 . S
C616 C615 1.502 . S
C617 H603 0.960 . S
C617 H604 0.961 . S
C617 H605 0.959 . S
C617 C615 1.561 . S
C618 C615 1.526 . S
C618 C619 1.396 . S
C618 C623 1.390 . S
C619 C613 1.465 . S
C619 C618 1.396 . S
C619 C620 1.399 . S
C620 H606 0.929 . S
C620 C619 1.399 . S
C620 C621 1.385 . S
C621 H607 0.931 . S
C621 C620 1.385 . S
C621 C622 1.389 . S
C622 C621 1.389 . S
C622 C623 1.387 . S
C623 H608 0.930 . S
C623 C618 1.390 . S
C623 C622 1.387 . S
H624 C636 0.930 . S
H625 C638 0.930 . S
H626 C639 0.930 . S
H627 C643 0.959 . S
H628 C643 0.959 . S
H629 C643 0.961 . S
H630 C644 0.960 . S
H631 C644 0.961 . S
H632 C644 0.959 . S
H633 C647 0.929 . S
H634 C648 0.931 . S
H635 C650 0.930 . S
C636 H624 0.930 . S
C636 C637 1.399 . S
C636 C641 1.399 . S
C637 C636 1.399 . S
C637 C638 1.376 . S
C638 H625 0.930 . S
C638 C637 1.376 . S
C638 C639 1.388 . S
C639 H626 0.930 . S
C639 C638 1.388 . S
C639 C640 1.390 . S
C640 C639 1.390 . S
C640 C641 1.394 . S
C640 C646 1.465 . S
C641 C636 1.399 . S
C641 C640 1.394 . S
C641 C642 1.516 . S
C642 C641 1.516 . S
C642 C643 1.502 . S
C642 C644 1.561 . S
C642 C645 1.526 . S
C643 H627 0.959 . S
C643 H628 0.959 . S
C643 H629 0.961 . S
C643 C642 1.502 . S
C644 H630 0.960 . S
C644 H631 0.961 . S
C644 H632 0.959 . S
C644 C642 1.561 . S
C645 C642 1.526 . S
C645 C646 1.396 . S
C645 C650 1.390 . S
C646 C640 1.465 . S
C646 C645 1.396 . S
C646 C647 1.399 . S
C647 H633 0.929 . S
C647 C646 1.399 . S
C647 C648 1.385 . S
C648 H634 0.931 . S
C648 C647 1.385 . S
C648 C649 1.389 . S
C649 C648 1.389 . S
C649 C650 1.387 . S
C650 H635 0.930 . S
C650 C645 1.390 . S
C650 C649 1.387 . S
H651 C663 0.930 . S
H652 C665 0.930 . S
H653 C666 0.930 . S
H654 C670 0.959 . S
H655 C670 0.959 . S
H656 C670 0.961 . S
H657 C671 0.960 . S
H658 C671 0.961 . S
H659 C671 0.959 . S
H660 C674 0.929 . S
H661 C675 0.931 . S
H662 C677 0.930 . S
C663 H651 0.930 . S
C663 C664 1.399 . S
C663 C668 1.399 . S
C664 C663 1.399 . S
C664 C665 1.376 . S
C665 H652 0.930 . S
C665 C664 1.376 . S
C665 C666 1.388 . S
C666 H653 0.930 . S
C666 C665 1.388 . S
C666 C667 1.390 . S
C667 C666 1.390 . S
C667 C668 1.394 . S
C667 C673 1.465 . S
C668 C663 1.399 . S
C668 C667 1.394 . S
C668 C669 1.516 . S
C669 C668 1.516 . S
C669 C670 1.502 . S
C669 C671 1.561 . S
C669 C672 1.526 . S
C670 H654 0.959 . S
C670 H655 0.959 . S
C670 H656 0.961 . S
C670 C669 1.502 . S
C671 H657 0.960 . S
C671 H658 0.961 . S
C671 H659 0.959 . S
C671 C669 1.561 . S
C672 C669 1.526 . S
C672 C673 1.396 . S
C672 C677 1.390 . S
C673 C667 1.465 . S
C673 C672 1.396 . S
C673 C674 1.399 . S
C674 H660 0.929 . S
C674 C673 1.399 . S
C674 C675 1.385 . S
C675 H661 0.931 . S
C675 C674 1.385 . S
C675 C676 1.389 . S
C676 C675 1.389 . S
C676 C677 1.387 . S
C677 H662 0.930 . S
C677 C672 1.390 . S
C677 C676 1.387 . S
H678 C690 0.930 . S
H679 C692 0.930 . S
H680 C693 0.930 . S
H681 C697 0.959 . S
H682 C697 0.959 . S
H683 C697 0.961 . S
H684 C698 0.960 . S
H685 C698 0.961 . S
H686 C698 0.959 . S
H687 C701 0.929 . S
H688 C702 0.931 . S
H689 C704 0.930 . S
C690 H678 0.930 . S
C690 C691 1.399 . S
C690 C695 1.399 . S
C691 C690 1.399 . S
C691 C692 1.376 . S
C692 H679 0.930 . S
C692 C691 1.376 . S
C692 C693 1.388 . S
C693 H680 0.930 . S
C693 C692 1.388 . S
C693 C694 1.390 . S
C694 C693 1.390 . S
C694 C695 1.394 . S
C694 C700 1.465 . S
C695 C690 1.399 . S
C695 C694 1.394 . S
C695 C696 1.516 . S
C696 C695 1.516 . S
C696 C697 1.502 . S
C696 C698 1.561 . S
C696 C699 1.526 . S
C697 H681 0.959 . S
C697 H682 0.959 . S
C697 H683 0.961 . S
C697 C696 1.502 . S
C698 H684 0.960 . S
C698 H685 0.961 . S
C698 H686 0.959 . S
C698 C696 1.561 . S
C699 C696 1.526 . S
C699 C700 1.396 . S
C699 C704 1.390 . S
C700 C694 1.465 . S
C700 C699 1.396 . S
C700 C701 1.399 . S
C701 H687 0.929 . S
C701 C700 1.399 . S
C701 C702 1.385 . S
C702 H688 0.931 . S
C702 C701 1.385 . S
C702 C703 1.389 . S
C703 C702 1.389 . S
C703 C704 1.387 . S
C704 H689 0.930 . S
C704 C699 1.390 . S
C704 C703 1.387 . S
H705 C717 0.930 . S
H706 C719 0.930 . S
H707 C720 0.930 . S
H708 C724 0.959 . S
H709 C724 0.959 . S
H710 C724 0.961 . S
H711 C725 0.960 . S
H712 C725 0.961 . S
H713 C725 0.959 . S
H714 C728 0.929 . S
H715 C729 0.931 . S
H716 C731 0.930 . S
C717 H705 0.930 . S
C717 C718 1.399 . S
C717 C722 1.399 . S
C718 C717 1.399 . S
C718 C719 1.376 . S
C719 H706 0.930 . S
C719 C718 1.376 . S
C719 C720 1.388 . S
C720 H707 0.930 . S
C720 C719 1.388 . S
C720 C721 1.390 . S
C721 C720 1.390 . S
C721 C722 1.394 . S
C721 C727 1.465 . S
C722 C717 1.399 . S
C722 C721 1.394 . S
C722 C723 1.516 . S
C723 C722 1.516 . S
C723 C724 1.502 . S
C723 C725 1.561 . S
C723 C726 1.526 . S
C724 H708 0.959 . S
C724 H709 0.959 . S
C724 H710 0.961 . S
C724 C723 1.502 . S
C725 H711 0.960 . S
C725 H712 0.961 . S
C725 H713 0.959 . S
C725 C723 1.561 . S
C726 C723 1.526 . S
C726 C727 1.396 . S
C726 C731 1.390 . S
C727 C721 1.465 . S
C727 C726 1.396 . S
C727 C728 1.399 . S
C728 H714 0.929 . S
C728 C727 1.399 . S
C728 C729 1.385 . S
C729 H715 0.931 . S
C729 C728 1.385 . S
C729 C730 1.389 . S
C730 C729 1.389 . S
C730 C731 1.387 . S
C731 H716 0.930 . S
C731 C726 1.390 . S
C731 C730 1.387 . S
H732 C744 0.930 . S
H733 C746 0.930 . S
H734 C747 0.930 . S
H735 C751 0.959 . S
H736 C751 0.959 . S
H737 C751 0.961 . S
H738 C752 0.960 . S
H739 C752 0.961 . S
H740 C752 0.959 . S
H741 C755 0.929 . S
H742 C756 0.931 . S
H743 C758 0.930 . S
C744 H732 0.930 . S
C744 C745 1.399 . S
C744 C749 1.399 . S
C745 C744 1.399 . S
C745 C746 1.376 . S
C746 H733 0.930 . S
C746 C745 1.376 . S
C746 C747 1.388 . S
C747 H734 0.930 . S
C747 C746 1.388 . S
C747 C748 1.390 . S
C748 C747 1.390 . S
C748 C749 1.394 . S
C748 C754 1.465 . S
C749 C744 1.399 . S
C749 C748 1.394 . S
C749 C750 1.516 . S
C750 C749 1.516 . S
C750 C751 1.502 . S
C750 C752 1.561 . S
C750 C753 1.526 . S
C751 H735 0.959 . S
C751 H736 0.959 . S
C751 H737 0.961 . S
C751 C750 1.502 . S
C752 H738 0.960 . S
C752 H739 0.961 . S
C752 H740 0.959 . S
C752 C750 1.561 . S
C753 C750 1.526 . S
C753 C754 1.396 . S
C753 C758 1.390 . S
C754 C748 1.465 . S
C754 C753 1.396 . S
C754 C755 1.399 . S
C755 H741 0.929 . S
C755 C754 1.399 . S
C755 C756 1.385 . S
C756 H742 0.931 . S
C756 C755 1.385 . S
C756 C757 1.389 . S
C757 C756 1.389 . S
C757 C758 1.387 . S
C758 H743 0.930 . S
C758 C753 1.390 . S
C758 C757 1.387 . S
H759 C771 0.930 . S
H760 C773 0.930 . S
H761 C774 0.930 . S
H762 C778 0.959 . S
H763 C778 0.959 1_554 S
H764 C778 0.961 . S
H765 C779 0.960 . S
H766 C779 0.961 . S
H767 C779 0.959 . S
H768 C782 0.929 . S
H769 C783 0.931 . S
H770 C785 0.930 . S
C771 H759 0.930 . S
C771 C772 1.399 . S
C771 C776 1.399 . S
C772 C771 1.399 . S
C772 C773 1.376 . S
C773 H760 0.930 . S
C773 C772 1.376 . S
C773 C774 1.388 . S
C774 H761 0.930 . S
C774 C773 1.388 . S
C774 C775 1.390 . S
C775 C774 1.390 . S
C775 C776 1.394 . S
C775 C781 1.465 . S
C776 C771 1.399 . S
C776 C775 1.394 . S
C776 C777 1.516 . S
C777 C776 1.516 . S
C777 C778 1.502 . S
C777 C779 1.561 . S
C777 C780 1.526 . S
C778 H762 0.959 . S
C778 H763 0.959 1_556 S
C778 H764 0.961 . S
C778 C777 1.502 . S
C779 H765 0.960 . S
C779 H766 0.961 . S
C779 H767 0.959 . S
C779 C777 1.561 . S
C780 C777 1.526 . S
C780 C781 1.396 . S
C780 C785 1.390 1_556 S
C781 C775 1.465 . S
C781 C780 1.396 . S
C781 C782 1.399 . S
C782 H768 0.929 . S
C782 C781 1.399 . S
C782 C783 1.385 . S
C783 H769 0.931 . S
C783 C782 1.385 . S
C783 C784 1.389 1_556 S
C784 C783 1.389 1_554 S
C784 C785 1.387 . S
C785 H770 0.930 . S
C785 C780 1.390 1_554 S
C785 C784 1.387 . S
H786 C798 0.930 . S
H787 C800 0.930 . S
H788 C801 0.930 . S
H789 C805 0.959 . S
H790 C805 0.959 . S
H791 C805 0.961 . S
H792 C806 0.960 . S
H793 C806 0.961 . S
H794 C806 0.959 . S
H795 C809 0.929 . S
H796 C810 0.931 . S
H797 C812 0.930 . S
C798 H786 0.930 . S
C798 C799 1.399 . S
C798 C803 1.399 . S
C799 C798 1.399 . S
C799 C800 1.376 . S
C800 H787 0.930 . S
C800 C799 1.376 . S
C800 C801 1.388 . S
C801 H788 0.930 . S
C801 C800 1.388 . S
C801 C802 1.390 . S
C802 C801 1.390 . S
C802 C803 1.394 . S
C802 C808 1.465 . S
C803 C798 1.399 . S
C803 C802 1.394 . S
C803 C804 1.516 . S
C804 C803 1.516 . S
C804 C805 1.502 . S
C804 C806 1.561 . S
C804 C807 1.526 . S
C805 H789 0.959 . S
C805 H790 0.959 . S
C805 H791 0.961 . S
C805 C804 1.502 . S
C806 H792 0.960 . S
C806 H793 0.961 . S
C806 H794 0.959 . S
C806 C804 1.561 . S
C807 C804 1.526 . S
C807 C808 1.396 . S
C807 C812 1.390 . S
C808 C802 1.465 . S
C808 C807 1.396 . S
C808 C809 1.399 . S
C809 H795 0.929 . S
C809 C808 1.399 . S
C809 C810 1.385 . S
C810 H796 0.931 . S
C810 C809 1.385 . S
C810 C811 1.389 . S
C811 C810 1.389 . S
C811 C812 1.387 . S
C812 H797 0.930 . S
C812 C807 1.390 . S
C812 C811 1.387 . S
H813 C825 0.930 . S
H814 C827 0.930 . S
H815 C828 0.930 . S
H816 C832 0.959 . S
H817 C832 0.959 . S
H818 C832 0.961 . S
H819 C833 0.960 . S
H820 C833 0.961 . S
H821 C833 0.959 . S
H822 C836 0.929 . S
H823 C837 0.931 . S
H824 C839 0.930 . S
C825 H813 0.930 . S
C825 C826 1.399 . S
C825 C830 1.399 . S
C826 C825 1.399 . S
C826 C827 1.376 . S
C827 H814 0.930 . S
C827 C826 1.376 . S
C827 C828 1.388 . S
C828 H815 0.930 . S
C828 C827 1.388 . S
C828 C829 1.390 . S
C829 C828 1.390 . S
C829 C830 1.394 . S
C829 C835 1.465 . S
C830 C825 1.399 . S
C830 C829 1.394 . S
C830 C831 1.516 . S
C831 C830 1.516 . S
C831 C832 1.502 . S
C831 C833 1.561 . S
C831 C834 1.526 . S
C832 H816 0.959 . S
C832 H817 0.959 . S
C832 H818 0.961 . S
C832 C831 1.502 . S
C833 H819 0.960 . S
C833 H820 0.961 . S
C833 H821 0.959 . S
C833 C831 1.561 . S
C834 C831 1.526 . S
C834 C835 1.396 . S
C834 C839 1.390 . S
C835 C829 1.465 . S
C835 C834 1.396 . S
C835 C836 1.399 . S
C836 H822 0.929 . S
C836 C835 1.399 . S
C836 C837 1.385 . S
C837 H823 0.931 . S
C837 C836 1.385 . S
C837 C838 1.389 . S
C838 C837 1.389 . S
C838 C839 1.387 . S
C839 H824 0.930 . S
C839 C834 1.390 . S
C839 C838 1.387 . S
H840 C852 0.930 . S
H841 C854 0.930 . S
H842 C855 0.930 . S
H843 C859 0.959 . S
H844 C859 0.959 . S
H845 C859 0.961 . S
H846 C860 0.960 . S
H847 C860 0.961 . S
H848 C860 0.959 . S
H849 C863 0.929 . S
H850 C864 0.931 . S
H851 C866 0.930 . S
C852 H840 0.930 . S
C852 C853 1.399 . S
C852 C857 1.399 . S
C853 C852 1.399 . S
C853 C854 1.376 . S
C854 H841 0.930 . S
C854 C853 1.376 . S
C854 C855 1.388 . S
C855 H842 0.930 . S
C855 C854 1.388 . S
C855 C856 1.390 . S
C856 C855 1.390 . S
C856 C857 1.394 . S
C856 C862 1.465 . S
C857 C852 1.399 . S
C857 C856 1.394 . S
C857 C858 1.516 . S
C858 C857 1.516 . S
C858 C859 1.502 . S
C858 C860 1.561 . S
C858 C861 1.526 . S
C859 H843 0.959 . S
C859 H844 0.959 . S
C859 H845 0.961 . S
C859 C858 1.502 . S
C860 H846 0.960 . S
C860 H847 0.961 . S
C860 H848 0.959 . S
C860 C858 1.561 . S
C861 C858 1.526 . S
C861 C862 1.396 . S
C861 C866 1.390 . S
C862 C856 1.465 . S
C862 C861 1.396 . S
C862 C863 1.399 . S
C863 H849 0.929 . S
C863 C862 1.399 . S
C863 C864 1.385 . S
C864 H850 0.931 . S
C864 C863 1.385 . S
C864 C865 1.389 . S
C865 C864 1.389 . S
C865 C866 1.387 . S
C866 H851 0.930 . S
C866 C861 1.390 . S
C866 C865 1.387 . S
H867 C879 0.930 . S
H868 C881 0.930 . S
H869 C882 0.930 . S
H870 C886 0.959 . S
H871 C886 0.959 . S
H872 C886 0.961 . S
H873 C887 0.960 . S
H874 C887 0.961 . S
H875 C887 0.959 . S
H876 C890 0.929 . S
H877 C891 0.931 . S
H878 C893 0.930 . S
C879 H867 0.930 . S
C879 C880 1.399 . S
C879 C884 1.399 . S
C880 C879 1.399 . S
C880 C881 1.376 . S
C881 H868 0.930 . S
C881 C880 1.376 . S
C881 C882 1.388 . S
C882 H869 0.930 . S
C882 C881 1.388 . S
C882 C883 1.390 . S
C883 C882 1.390 . S
C883 C884 1.394 . S
C883 C889 1.465 . S
C884 C879 1.399 . S
C884 C883 1.394 . S
C884 C885 1.516 . S
C885 C884 1.516 . S
C885 C886 1.502 . S
C885 C887 1.561 . S
C885 C888 1.526 . S
C886 H870 0.959 . S
C886 H871 0.959 . S
C886 H872 0.961 . S
C886 C885 1.502 . S
C887 H873 0.960 . S
C887 H874 0.961 . S
C887 H875 0.959 . S
C887 C885 1.561 . S
C888 C885 1.526 . S
C888 C889 1.396 . S
C888 C893 1.390 . S
C889 C883 1.465 . S
C889 C888 1.396 . S
C889 C890 1.399 . S
C890 H876 0.929 . S
C890 C889 1.399 . S
C890 C891 1.385 . S
C891 H877 0.931 . S
C891 C890 1.385 . S
C891 C892 1.389 . S
C892 C891 1.389 . S
C892 C893 1.387 . S
C893 H878 0.930 . S
C893 C888 1.390 . S
C893 C892 1.387 . S
H894 C906 0.930 . S
H895 C908 0.930 . S
H896 C909 0.930 . S
H897 C913 0.959 . S
H898 C913 0.959 . S
H899 C913 0.961 . S
H900 C914 0.960 . S
H901 C914 0.961 . S
H902 C914 0.959 . S
H903 C917 0.929 . S
H904 C918 0.931 . S
H905 C920 0.930 . S
C906 H894 0.930 . S
C906 C907 1.399 . S
C906 C911 1.399 . S
C907 C906 1.399 . S
C907 C908 1.376 . S
C908 H895 0.930 . S
C908 C907 1.376 . S
C908 C909 1.388 . S
C909 H896 0.930 . S
C909 C908 1.388 . S
C909 C910 1.390 . S
C910 C909 1.390 . S
C910 C911 1.394 . S
C910 C916 1.465 . S
C911 C906 1.399 . S
C911 C910 1.394 . S
C911 C912 1.516 . S
C912 C911 1.516 . S
C912 C913 1.502 . S
C912 C914 1.561 . S
C912 C915 1.526 . S
C913 H897 0.959 . S
C913 H898 0.959 . S
C913 H899 0.961 . S
C913 C912 1.502 . S
C914 H900 0.960 . S
C914 H901 0.961 . S
C914 H902 0.959 . S
C914 C912 1.561 . S
C915 C912 1.526 . S
C915 C916 1.396 . S
C915 C920 1.390 . S
C916 C910 1.465 . S
C916 C915 1.396 . S
C916 C917 1.399 . S
C917 H903 0.929 . S
C917 C916 1.399 . S
C917 C918 1.385 . S
C918 H904 0.931 . S
C918 C917 1.385 . S
C918 C919 1.389 . S
C919 C918 1.389 . S
C919 C920 1.387 . S
C920 H905 0.930 . S
C920 C915 1.390 . S
C920 C919 1.387 . S
H921 C933 0.930 . S
H922 C935 0.930 . S
H923 C936 0.930 . S
H924 C940 0.959 . S
H925 C940 0.959 . S
H926 C940 0.961 . S
H927 C941 0.960 . S
H928 C941 0.961 . S
H929 C941 0.959 . S
H930 C944 0.929 . S
H931 C945 0.931 . S
H932 C947 0.930 . S
C933 H921 0.930 . S
C933 C934 1.399 . S
C933 C938 1.399 . S
C934 C933 1.399 . S
C934 C935 1.376 . S
C935 H922 0.930 . S
C935 C934 1.376 . S
C935 C936 1.388 . S
C936 H923 0.930 . S
C936 C935 1.388 . S
C936 C937 1.390 . S
C937 C936 1.390 . S
C937 C938 1.394 . S
C937 C943 1.465 . S
C938 C933 1.399 . S
C938 C937 1.394 . S
C938 C939 1.516 . S
C939 C938 1.516 . S
C939 C940 1.502 . S
C939 C941 1.561 . S
C939 C942 1.526 . S
C940 H924 0.959 . S
C940 H925 0.959 . S
C940 H926 0.961 . S
C940 C939 1.502 . S
C941 H927 0.960 . S
C941 H928 0.961 . S
C941 H929 0.959 . S
C941 C939 1.561 . S
C942 C939 1.526 . S
C942 C943 1.396 . S
C942 C947 1.390 . S
C943 C937 1.465 . S
C943 C942 1.396 . S
C943 C944 1.399 . S
C944 H930 0.929 . S
C944 C943 1.399 . S
C944 C945 1.385 . S
C945 H931 0.931 . S
C945 C944 1.385 . S
C945 C946 1.389 . S
C946 C945 1.389 . S
C946 C947 1.387 . S
C947 H932 0.930 . S
C947 C942 1.390 . S
C947 C946 1.387 . S
H948 C960 0.930 . S
H949 C962 0.930 . S
H950 C963 0.930 . S
H951 C967 0.959 . S
H952 C967 0.959 . S
H953 C967 0.961 . S
H954 C968 0.960 1_554 S
H955 C968 0.961 . S
H956 C968 0.959 1_554 S
H957 C971 0.929 1_554 S
H958 C972 0.931 . S
H959 C974 0.930 . S
C960 H948 0.930 . S
C960 C961 1.399 . S
C960 C965 1.399 . S
C961 C960 1.399 . S
C961 C962 1.376 . S
C962 H949 0.930 . S
C962 C961 1.376 . S
C962 C963 1.388 . S
C963 H950 0.930 . S
C963 C962 1.388 . S
C963 C964 1.390 . S
C964 C963 1.390 . S
C964 C965 1.394 . S
C964 C970 1.465 1_554 S
C965 C960 1.399 . S
C965 C964 1.394 . S
C965 C966 1.516 1_554 S
C966 C965 1.516 1_556 S
C966 C967 1.502 . S
C966 C968 1.561 . S
C966 C969 1.526 . S
C967 H951 0.959 . S
C967 H952 0.959 . S
C967 H953 0.961 . S
C967 C966 1.502 . S
C968 H954 0.960 1_556 S
C968 H955 0.961 . S
C968 H956 0.959 1_556 S
C968 C966 1.561 . S
C969 C966 1.526 . S
C969 C970 1.396 . S
C969 C974 1.390 . S
C970 C964 1.465 1_556 S
C970 C969 1.396 . S
C970 C971 1.399 . S
C971 H957 0.929 1_556 S
C971 C970 1.399 . S
C971 C972 1.385 . S
C972 H958 0.931 . S
C972 C971 1.385 . S
C972 C973 1.389 . S
C973 C972 1.389 . S
C973 C974 1.387 . S
C974 H959 0.930 . S
C974 C969 1.390 . S
C974 C973 1.387 . S
H975 C987 0.930 . S
H976 C989 0.930 . S
H977 C990 0.930 . S
H978 C994 0.959 . S
H979 C994 0.959 . S
H980 C994 0.961 . S
H981 C995 0.960 . S
H982 C995 0.961 . S
H983 C995 0.959 . S
H984 C998 0.929 . S
H985 C999 0.931 . S
H986 C1001 0.930 . S
C987 H975 0.930 . S
C987 C988 1.399 . S
C987 C992 1.399 . S
C988 C987 1.399 . S
C988 C989 1.376 . S
C989 H976 0.930 . S
C989 C988 1.376 . S
C989 C990 1.388 . S
C990 H977 0.930 . S
C990 C989 1.388 . S
C990 C991 1.390 . S
C991 C990 1.390 . S
C991 C992 1.394 . S
C991 C997 1.465 . S
C992 C987 1.399 . S
C992 C991 1.394 . S
C992 C993 1.516 . S
C993 C992 1.516 . S
C993 C994 1.502 . S
C993 C995 1.561 . S
C993 C996 1.526 . S
C994 H978 0.959 . S
C994 H979 0.959 . S
C994 H980 0.961 . S
C994 C993 1.502 . S
C995 H981 0.960 . S
C995 H982 0.961 . S
C995 H983 0.959 . S
C995 C993 1.561 . S
C996 C993 1.526 . S
C996 C997 1.396 . S
C996 C1001 1.390 . S
C997 C991 1.465 . S
C997 C996 1.396 . S
C997 C998 1.399 . S
C998 H984 0.929 . S
C998 C997 1.399 . S
C998 C999 1.385 . S
C999 H985 0.931 . S
C999 C998 1.385 . S
C999 C1000 1.389 . S
C1000 C999 1.389 . S
C1000 C1001 1.387 . S
C1001 H986 0.930 . S
C1001 C996 1.390 . S
C1001 C1000 1.387 . S
C379 C351 1.605 . S
C367 C15 1.539 . S
C394 C61 1.550 . S
C406 C276 1.483 . S
C421 C114 1.566 . S
C433 C299 1.626 . S
C448 C139 1.455 . S
C460 C312 1.436 . S
C487 C315 1.494 . S
C475 C185 1.618 . S
C502 C245 1.434 . S
C514 C328 1.459 . S
C529 C47 1.456 . S
C541 C289 1.443 . S
C556 C100 1.570 . S
C568 C302 1.562 . S
C583 C153 1.416 . S
C595 C325 1.446 . S
C622 C338 1.631 . S
C610 C199 1.554 . S
C649 C341 1.508 . S
C637 C231 1.528 . S
C676 C286 1.598 . S
C664 C1 1.572 . S
C691 C22 1.440 . S
C703 C297 1.455 . S
C718 C68 1.444 . S
C730 C310 1.382 . S
C757 C320 1.396 . S
C745 C107 1.474 . S
C772 C146 1.439 . S
C784 C333 1.385 . S
C811 C349 1.416 . S
C799 C192 1.491 . S
C838 C281 1.426 . S
C826 C252 1.425 . S
C865 C346 1.430 . S
C853 C54 1.441 . S
C880 C93 1.472 . S
C892 C284 1.470 . S
C919 C294 1.370 . S
C907 C160 1.442 . S
C934 C206 1.483 . S
C946 C307 1.408 . S
C961 C238 1.428 . S
C973 C323 1.429 . S
C988 C8 1.455 . S
C1000 C336 1.433 . S
