# Generated by pormake.
# Topology pyr, (3,6)-cn, num edge types: 1
# Building blocks:
#     Node 0, Type 0, BuildingBlock: KAKCAD_clean_linker_0, # of connection points: 3
#     Node 1, Type 0, BuildingBlock: KAKCAD_clean_linker_0, # of connection points: 3
#     Node 2, Type 0, BuildingBlock: KAKCAD_clean_linker_0, # of connection points: 3
#     Node 3, Type 0, BuildingBlock: KAKCAD_clean_linker_0, # of connection points: 3
#     Node 4, Type 0, BuildingBlock: KAKCAD_clean_linker_0, # of connection points: 3
#     Node 5, Type 0, BuildingBlock: KAKCAD_clean_linker_0, # of connection points: 3
#     Node 6, Type 0, BuildingBlock: KAKCAD_clean_linker_0, # of connection points: 3
#     Node 7, Type 0, BuildingBlock: KAKCAD_clean_linker_0, # of connection points: 3
#     Node 8, Type 1, BuildingBlock: GEDQOX_clean_sbu_0, # of connection points: 6
#     Node 9, Type 1, BuildingBlock: GEDQOX_clean_sbu_0, # of connection points: 6
#     Node 10, Type 1, BuildingBlock: GEDQOX_clean_sbu_0, # of connection points: 6
#     Node 11, Type 1, BuildingBlock: GEDQOX_clean_sbu_0, # of connection points: 6
#     Edge 12, Type (0, 1), None
#     Edge 13, Type (0, 1), None
#     Edge 14, Type (0, 1), None
#     Edge 15, Type (0, 1), None
#     Edge 16, Type (0, 1), None
#     Edge 17, Type (0, 1), None
#     Edge 18, Type (0, 1), None
#     Edge 19, Type (0, 1), None
#     Edge 20, Type (0, 1), None
#     Edge 21, Type (0, 1), None
#     Edge 22, Type (0, 1), None
#     Edge 23, Type (0, 1), None
#     Edge 24, Type (0, 1), None
#     Edge 25, Type (0, 1), None
#     Edge 26, Type (0, 1), None
#     Edge 27, Type (0, 1), None
#     Edge 28, Type (0, 1), None
#     Edge 29, Type (0, 1), None
#     Edge 30, Type (0, 1), None
#     Edge 31, Type (0, 1), None
#     Edge 32, Type (0, 1), None
#     Edge 33, Type (0, 1), None
#     Edge 34, Type (0, 1), None
#     Edge 35, Type (0, 1), None
# Relax obj value: 0.214
# Max RMSD: 0.185
# Mean RMSD: 0.080
data_MOF--net-pyr--node1-GEDQOX_clean_sbu_0--node2-KAKCAD_clean_linker_0--edge1-none
_symmetry_space_group_name_H-M    P1
_symmetry_Int_Tables_number       1
_symmetry_cell_setting            triclinic
loop_
_symmetry_equiv_pos_as_xyz
'x, y, z'
_cell_length_a     27.089343
_cell_length_b     27.16878
_cell_length_c     22.984363
_cell_angle_alpha  87.527056
_cell_angle_beta   89.32922
_cell_angle_gamma 81.310865
loop_
_atom_site_label
_atom_site_type_symbol
_atom_site_fract_x
_atom_site_fract_y
_atom_site_fract_z
_atom_type_partial_charge
C0 C 0.11881 0.16162 0.39567 0.0
C1 C 0.11795 0.10997 0.40252 0.0
C2 C 0.14364 0.18179 0.34838 0.0
C3 C 0.1688 0.15123 0.30587 0.0
C4 C 0.16841 0.09941 0.31288 0.0
C5 C 0.1432 0.07914 0.36028 0.0
C6 C 0.19422 0.17413 0.25454 0.0
C7 C 0.17153 0.21963 0.22809 0.0
C8 C 0.19507 0.24503 0.18321 0.0
C9 C 0.24221 0.22158 0.16234 0.0
C10 C 0.26583 0.17505 0.18671 0.0
C11 C 0.24121 0.15211 0.23303 0.0
C12 C 0.31742 0.15139 0.16667 0.0
C13 C 0.33059 0.1468 0.10712 0.0
C14 C 0.35427 0.13238 0.20786 0.0
C15 C 0.40218 0.10997 0.19063 0.0
C16 C 0.41538 0.10459 0.13139 0.0
C17 C 0.17017 0.29625 0.16011 0.0
C18 C 0.13702 0.32775 0.1955 0.0
C19 C 0.17844 0.3145 0.10286 0.0
C20 C 0.15463 0.36182 0.08221 0.0
C21 C 0.12087 0.39235 0.1175 0.0
C22 C 0.11236 0.37435 0.17436 0.0
C23 C 0.37864 0.12324 0.08975 0.0
H24 H 0.10029 0.18682 0.42709 0.0
H25 H 0.14353 0.2217 0.3456 0.0
H26 H 0.18693 0.07449 0.28119 0.0
H27 H 0.14376 1.03919 0.36395 0.0
H28 H 0.13449 0.235 0.24256 0.0
H29 H 0.25907 0.11719 0.25297 0.0
H30 H 0.26168 0.24024 0.12869 0.0
H31 H 0.30342 0.16074 0.07389 0.0
H32 H 0.34631 0.13543 0.25396 0.0
H33 H 0.42904 0.09642 0.22434 0.0
H34 H 0.13036 0.31713 0.24046 0.0
H35 H 0.2029 0.29213 0.07339 0.0
H36 H 0.38719 0.12019 1.04378 0.0
H37 H 0.08757 0.39697 0.20335 0.0
H38 H 0.16226 0.3743 1.0381 0.0
C39 C 0.49831 0.88501 0.97873 0.0
C40 C 0.48588 0.93526 0.95959 0.0
C41 C 0.48485 0.84676 0.94634 0.0
C42 C 0.4584 0.85766 0.89404 0.0
C43 C 0.44561 0.90796 0.87503 0.0
C44 C 0.4592 0.94633 0.90744 0.0
C45 C 0.44335 0.81662 0.86041 0.0
C46 C 0.39578 0.82234 0.83455 0.0
C47 C 0.38115 0.78394 0.80274 0.0
C48 C 0.41297 0.73849 0.80101 0.0
C49 C 0.46204 0.73359 0.82096 0.0
C50 C 0.47714 0.77256 0.85142 0.0
C51 C 0.49796 0.69365 0.79539 0.0
C52 C 0.4866 0.64475 0.7962 0.0
C53 C 0.53232 0.70755 0.75398 0.0
C54 C 0.54971 0.67564 0.70964 0.0
C55 C 0.53326 0.62913 0.70619 0.0
C56 C 0.33742 0.79322 0.76307 0.0
C57 C 0.29399 0.82583 0.77721 0.0
C58 C 0.34101 0.77237 0.70763 0.0
C59 C 0.30295 0.78461 0.66714 0.0
C60 C 0.26116 0.81894 0.68046 0.0
C61 C 0.25635 0.83902 0.73587 0.0
C62 C 0.50399 0.61279 0.75184 0.0
H63 H 0.51883 0.87499 1.01874 0.0
H64 H 0.49472 0.80856 0.96264 0.0
H65 H 0.42579 0.91774 0.83454 0.0
H66 H 0.4494 0.98453 0.89119 0.0
H67 H 0.37099 0.85735 0.83743 0.0
H68 H 0.51544 0.76933 0.86598 0.0
H69 H 0.40144 0.70839 0.77758 0.0
H70 H 0.45995 0.63325 0.82753 0.0
H71 H 0.54131 0.74512 0.75188 0.0
H72 H 0.57323 0.68895 0.67586 0.0
H73 H 0.28968 0.84222 0.81941 0.0
H74 H 0.37439 0.74856 0.69384 0.0
H75 H 0.49151 0.57678 0.75115 0.0
H76 H 0.22422 0.86611 0.74639 0.0
H77 H 0.30765 0.76972 0.62409 0.0
C78 C 0.91663 0.52822 0.94596 0.0
C79 C 0.95739 0.49102 0.95931 0.0
C80 C 0.87607 0.51721 0.91418 0.0
C81 C 0.87492 0.46855 0.8965 0.0
C82 C 0.91505 0.4311 0.91113 0.0
C83 C 0.95618 0.44237 0.94156 0.0
C84 C 0.8317 0.45659 0.86355 0.0
C85 C 0.81835 0.48094 0.80915 0.0
C86 C 0.77812 0.46831 0.77785 0.0
C87 C 0.75018 0.43323 0.80211 0.0
C88 C 0.76192 0.4097 0.85657 0.0
C89 C 0.8036 0.42053 0.88664 0.0
C90 C 0.72969 0.37403 0.88041 0.0
C91 C 0.6775 0.38736 0.87897 0.0
C92 C 0.74997 0.32514 0.89809 0.0
C93 C 0.71852 0.28953 0.9108 0.0
C94 C 0.66626 0.30234 0.90643 0.0
C95 C 0.76277 0.49062 0.71979 0.0
C96 C 0.73021 0.53598 0.71584 0.0
C97 C 0.76726 0.45962 0.67206 0.0
C98 C 0.73544 0.47076 0.62427 0.0
C99 C 0.69841 0.51299 0.62359 0.0
C100 C 0.69842 0.54729 0.66784 0.0
C101 C 0.64618 0.352 0.89179 0.0
H102 H 0.91665 0.56613 0.95878 0.0
H103 H 0.84539 0.54662 0.90378 0.0
H104 H 0.91496 0.39328 0.89804 0.0
H105 H 0.98711 0.41302 0.95118 0.0
H106 H 0.83978 0.50851 0.7908 0.0
H107 H 0.81324 0.40213 0.92865 0.0
H108 H 0.71883 0.42403 0.77797 0.0
H109 H 0.66088 0.42494 0.8658 0.0
H110 H 0.79006 0.31387 0.89933 0.0
H111 H 0.73514 0.25174 0.92289 0.0
H112 H 0.72553 0.56004 0.75252 0.0
H113 H 0.79167 0.42411 0.67453 0.0
H114 H 0.60624 0.36318 0.88763 0.0
H115 H 0.67044 0.58028 0.66854 0.0
H116 H 0.73662 0.4438 0.5907 0.0
C117 C 0.81839 0.77708 0.21752 0.0
C118 C 0.85967 0.74642 0.24285 0.0
C119 C 0.80574 0.82645 0.2337 0.0
C120 C 0.83419 0.84602 0.27539 0.0
C121 C 0.87721 0.81616 0.2978 0.0
C122 C 0.88981 0.767 0.28165 0.0
C123 C 0.81464 0.89312 0.30374 0.0
C124 C 0.76518 0.89992 0.32367 0.0
C125 C 0.74928 0.93388 0.36676 0.0
C126 C 0.78239 0.96436 0.38686 0.0
C127 C 0.83143 0.95994 0.36468 0.0
C128 C 0.84715 0.92454 0.32294 0.0
C129 C 0.86901 0.98483 0.39299 0.0
C130 C 0.86388 1.03697 0.39413 0.0
C131 C 0.90991 0.95565 0.42074 0.0
C132 C 0.94453 0.97807 0.45046 0.0
C133 C 0.9394 1.03012 0.45209 0.0
C134 C 0.7046 0.92484 0.40051 0.0
C135 C 0.65956 0.92463 0.37103 0.0
C136 C 0.71238 0.89825 0.45416 0.0
C137 C 0.68035 0.86478 0.47237 0.0
C138 C 0.63968 0.85819 0.43752 0.0
C139 C 0.62701 0.89183 0.38976 0.0
C140 C 0.89931 0.05955 0.42292 0.0
H141 H 0.79472 0.76237 0.18707 0.0
H142 H 0.77244 0.84866 0.21559 0.0
H143 H 0.89961 0.82968 0.33059 0.0
H144 H 0.9227 0.74472 0.30061 0.0
H145 H 0.74083 0.87372 0.31191 0.0
H146 H 0.8858 0.91904 0.3086 0.0
H147 H 0.77141 0.9883 0.42278 0.0
H148 H 0.83254 0.06005 0.37296 0.0
H149 H 0.91434 0.91533 0.4207 0.0
H150 H 0.97511 0.95467 0.47273 0.0
H151 H 0.65276 0.94492 0.32956 0.0
H152 H 0.74701 0.89762 0.47753 0.0
H153 H 0.89447 0.09982 0.42398 0.0
H154 H 0.5949 0.88904 0.36313 0.0
H155 H 0.69121 0.83998 0.50967 0.0
C156 C 0.97665 0.93143 0.71664 0.0
C157 C 0.97664 0.98329 0.7107 0.0
C158 C 0.95396 0.91 0.76478 0.0
C159 C 0.92995 0.93954 0.8088 0.0
C160 C 0.92946 0.99155 0.80272 0.0
C161 C 0.95272 1.01304 0.75464 0.0
C162 C 0.90593 0.91567 0.86041 0.0
C163 C 0.92974 0.87047 0.88667 0.0
C164 C 0.90728 0.84485 0.93242 0.0
C165 C 0.85988 0.86749 0.95353 0.0
C166 C 0.83517 0.91339 0.92884 0.0
C167 C 0.85887 0.93675 0.88227 0.0
C168 C 0.78333 0.93607 0.94857 0.0
C169 C 0.77059 0.94287 1.00787 0.0
C170 C 0.74599 0.95255 0.90707 0.0
C171 C 0.69802 0.975 0.92377 0.0
C172 C 0.6853 0.9829 0.98269 0.0
C173 C 0.93336 0.7943 0.95637 0.0
C174 C 0.96737 0.763 0.92169 0.0
C175 C 0.92514 0.7764 1.01381 0.0
C176 C 0.94956 0.72956 1.03521 0.0
C177 C 0.98395 0.69913 1.00056 0.0
C178 C 0.9926 0.71686 0.94359 0.0
C179 C 0.72243 0.96646 1.02467 0.0
H180 H 0.99444 0.90703 0.68399 0.0
H181 H 0.95471 0.86999 0.76705 0.0
H182 H 0.91171 1.01568 0.83564 0.0
H183 H 0.95168 0.05307 0.75179 0.0
H184 H 0.96671 0.8557 0.87145 0.0
H185 H 0.84011 0.97129 0.86229 0.0
H186 H 0.84101 0.84866 0.98758 0.0
H187 H 0.79822 0.93087 1.04124 0.0
H188 H 0.75377 0.94772 0.86116 0.0
H189 H 0.6708 0.98674 0.88988 0.0
H190 H 0.97418 0.77335 0.87669 0.0
H191 H 0.90018 0.79865 1.04289 0.0
H192 H 0.7142 0.97152 0.07043 0.0
H193 H 1.01794 0.69432 0.91507 0.0
H194 H 0.94182 0.71735 0.0794 0.0
C195 C 0.65745 0.13748 0.19454 0.0
C196 C 0.62454 0.15024 0.14769 0.0
C197 C 0.67686 0.17458 0.22349 0.0
C198 C 0.66367 0.22523 0.20627 0.0
C199 C 0.63097 0.23787 0.15926 0.0
C200 C 0.61178 0.20085 0.1302 0.0
C201 C 0.68377 0.26475 0.23739 0.0
C202 C 0.73418 0.25768 0.25441 0.0
C203 C 0.75283 0.2932 0.28706 0.0
C204 C 0.72131 0.33688 0.30061 0.0
C205 C 0.67074 0.34422 0.28566 0.0
C206 C 0.65204 0.30816 0.25367 0.0
C207 C 0.63758 0.38463 0.31428 0.0
C208 C 0.59972 0.37248 0.35201 0.0
C209 C 0.65136 0.43246 0.31548 0.0
C210 C 0.63128 0.46563 0.35745 0.0
C211 C 0.59707 0.45152 0.39898 0.0
C212 C 0.80074 0.28102 0.31852 0.0
C213 C 0.80989 0.23627 0.35219 0.0
C214 C 0.83137 0.31785 0.32578 0.0
C215 C 0.86743 0.31182 0.3696 0.0
C216 C 0.87292 0.26903 0.4065 0.0
C217 C 0.84555 0.23047 0.39603 0.0
C218 C 0.57967 0.40562 0.39406 0.0
H219 H 0.66788 0.09892 0.2092 0.0
H220 H 0.70151 0.16364 0.26007 0.0
H221 H 0.62052 0.27643 0.14458 0.0
H222 H 0.58664 0.2121 0.09411 0.0
H223 H 0.7586 0.22376 0.24403 0.0
H224 H 0.61253 0.31286 0.24382 0.0
H225 H 0.73486 0.36286 0.32883 0.0
H226 H 0.58877 0.33573 0.35249 0.0
H227 H 0.68053 0.44268 0.2868 0.0
H228 H 0.6449 0.501 0.3595 0.0
H229 H 0.78663 0.20749 0.34815 0.0
H230 H 0.82507 0.35263 0.30018 0.0
H231 H 0.55274 0.39392 0.42486 0.0
H232 H 0.85 0.19686 0.42384 0.0
H233 H 0.88879 0.34161 0.37687 0.0
C234 C 0.14715 0.64838 0.18343 0.0
C235 C 0.14764 0.60054 0.16245 0.0
C236 C 0.18749 0.6596 0.21518 0.0
C237 C 0.22893 0.62298 0.22773 0.0
C238 C 0.22945 0.57497 0.20701 0.0
C239 C 0.18941 0.56399 0.17409 0.0
C240 C 0.27172 0.63594 0.26095 0.0
C241 C 0.29009 0.60788 0.31161 0.0
C242 C 0.32793 0.62356 0.34466 0.0
C243 C 0.34798 0.66612 0.32601 0.0
C244 C 0.33155 0.69313 0.27507 0.0
C245 C 0.29339 0.67809 0.24261 0.0
C246 C 0.35688 0.73554 0.25575 0.0
C247 C 0.36065 0.7737 0.29404 0.0
C248 C 0.38381 0.73411 0.20319 0.0
C249 C 0.4162 0.76874 0.19065 0.0
C250 C 0.42158 0.80568 0.23015 0.0
C251 C 0.34968 0.59654 0.39799 0.0
C252 C 0.34741 0.62224 0.44997 0.0
C253 C 0.38512 0.55352 0.39295 0.0
C254 C 0.42141 0.54 0.4362 0.0
C255 C 0.42294 0.56974 0.48467 0.0
C256 C 0.38374 0.60901 0.49288 0.0
C257 C 0.39243 0.80869 0.28116 0.0
H258 H 0.11543 0.67721 0.17537 0.0
H259 H 0.18602 0.69689 0.2307 0.0
H260 H 0.26107 0.54618 0.21566 0.0
H261 H 0.19067 0.52665 0.15882 0.0
H262 H 0.27418 0.57514 0.32603 0.0
H263 H 0.28048 0.69928 0.2032 0.0
H264 H 0.37804 0.67747 0.3506 0.0
H265 H 0.34043 0.77522 0.33504 0.0
H266 H 0.38188 0.70463 0.1734 0.0
H267 H 0.43784 0.76602 0.15068 0.0
H268 H 0.32077 0.65588 0.45458 0.0
H269 H 0.38815 0.53359 0.35293 0.0
H270 H 0.39594 0.83667 0.31241 0.0
H271 H 0.38373 0.6324 0.52989 0.0
H272 H 0.45109 0.50944 0.42863 0.0
C273 C 0.19933 1.03574 0.68858 0.0
C274 C 0.15897 0.06538 0.66009 0.0
C275 C 0.23538 0.05808 0.71654 0.0
C276 C 0.23066 0.11019 0.71751 0.0
C277 C 0.18971 0.1396 0.69015 0.0
C278 C 0.15445 0.1174 0.66124 0.0
C279 C 0.26857 0.13482 0.74549 0.0
C280 C 0.31746 0.13024 0.7229 0.0
C281 C 0.35083 0.16072 0.74247 0.0
C282 C 0.33527 0.1946 0.7858 0.0
C283 C 0.28611 0.20113 0.80667 0.0
C284 C 0.2533 0.17001 0.78758 0.0
C285 C 0.26713 0.24765 0.83638 0.0
C286 C 0.2962 0.26611 0.87832 0.0
C287 C 0.22407 0.27816 0.81511 0.0
C288 C 0.21206 0.327 0.83256 0.0
C289 C 0.24285 0.34654 0.87155 0.0
C290 C 0.39597 0.16879 0.70871 0.0
C291 C 0.43937 0.17493 0.73867 0.0
C292 C 0.39001 0.18718 0.65077 0.0
C293 C 0.42228 0.21835 0.62694 0.0
C294 C 0.46084 0.23147 0.66079 0.0
C295 C 0.47145 0.20629 0.71505 0.0
C296 C 0.28413 0.31515 0.89581 0.0
H297 H 0.20378 0.99547 0.68784 0.0
H298 H 0.2668 1.03484 0.73737 0.0
H299 H 0.18563 0.17991 0.69002 0.0
H300 H 0.12382 0.14097 0.63941 0.0
H301 H 0.32814 0.10606 0.68711 0.0
H302 H 0.21479 0.17548 0.80244 0.0
H303 H 0.35961 0.22083 0.79746 0.0
H304 H 0.32954 0.24333 0.89555 0.0
H305 H 0.20121 0.26543 0.78221 0.0
H306 H 0.17915 0.34988 0.81443 0.0
H307 H 0.44483 0.16092 0.78336 0.0
H308 H 0.35692 0.18294 0.62657 0.0
H309 H 0.30828 0.32907 0.92638 0.0
H310 H 0.50095 0.2151 0.74237 0.0
H311 H 0.41407 0.23595 0.58425 0.0
Nd312 Nd 0.07257 0.99731 0.5455 0.0
Nd313 Nd 1.0228 0.09783 0.57039 0.0
C314 C 0.11695 0.90949 0.51543 0.0
C315 C 0.16005 0.88234 0.5471 0.0
C316 C 0.16092 0.83227 0.56549 0.0
C317 C 0.19475 0.81069 0.6083 0.0
C318 C 0.22689 0.83952 0.63371 0.0
C319 C 0.22753 0.88866 0.61346 0.0
C320 C 0.1947 0.9098 0.57024 0.0
C321 C 0.12316 1.04279 0.62623 0.0
C322 C 1.00102 1.00543 0.65858 0.0
C323 C 0.98363 0.18804 0.59843 0.0
C324 C 0.96042 0.22685 0.55642 0.0
C325 C 0.98414 0.23395 0.50241 0.0
C326 C 0.95606 0.25289 0.45373 0.0
C327 C 0.90419 0.26487 0.45869 0.0
C328 C 0.88138 0.26359 0.51377 0.0
C329 C 0.90946 0.24503 0.56255 0.0
C330 C 0.974 0.05276 0.48769 0.0
C331 C 0.09218 0.08904 0.45443 0.0
O332 O 0.07567 0.91519 0.54586 0.0
O333 O 0.1245 0.95065 0.48748 0.0
O334 O 0.11996 0.99587 0.62856 0.0
O335 O 0.10271 0.06335 0.58095 0.0
O336 O 1.01627 0.97693 0.61483 0.0
O337 O 1.00734 0.05291 0.65596 0.0
O338 O 1.03188 0.17453 0.59347 0.0
O339 O 0.95954 0.14991 0.60491 0.0
O340 O 0.97798 0.09966 0.48527 0.0
O341 O 0.99303 1.03196 0.53368 0.0
O342 O 0.07455 0.11889 0.49612 0.0
O343 O 0.08796 1.04109 0.45918 0.0
H344 H 0.1339 0.81082 0.54897 0.0
H345 H 0.1945 0.77235 0.62321 0.0
H346 H 0.25283 0.91102 0.63199 0.0
H347 H 0.19455 0.94869 0.55754 0.0
H348 H 1.0234 0.22017 0.49617 0.0
H349 H 0.97413 0.25362 0.41145 0.0
H350 H 0.84122 0.27292 0.51812 0.0
H351 H 0.89035 0.23966 0.6035 0.0
Nd352 Nd 0.55699 1.01454 0.1046 0.0
Nd353 Nd 0.54446 0.07423 1.00874 0.0
C354 C 0.56596 0.93812 0.18098 0.0
C355 C 0.53024 0.90427 0.19896 0.0
C356 C 0.54349 0.85275 0.19325 0.0
C357 C 0.50814 0.82074 0.20322 0.0
C358 C 0.45899 0.83967 0.21958 0.0
C359 C 0.44608 0.8911 0.22668 0.0
C360 C 0.48123 0.92316 0.21606 0.0
C361 C 0.46775 0.08061 0.11567 0.0
C362 C 0.50335 0.97504 0.99274 0.0
C363 C 0.5353 0.15256 0.93503 0.0
C364 C 0.56763 0.19158 0.92466 0.0
C365 C 0.55428 0.23879 0.9479 0.0
C366 C 0.58648 0.27444 0.94275 0.0
C367 C 0.63273 0.26384 0.91392 0.0
C368 C 0.64577 0.21685 0.88998 0.0
C369 C 0.61363 0.18117 0.89523 0.0
C370 C 0.63319 1.00764 0.99784 0.0
C371 C 0.60229 0.11175 0.11764 0.0
O372 O 0.582 0.93446 0.12741 0.0
O373 O 0.55529 0.98435 0.1958 0.0
O374 O 0.50213 0.07048 0.15465 0.0
O375 O 0.48144 0.05743 0.06979 0.0
O376 O 0.53287 0.96236 1.03751 0.0
O377 O 0.49318 1.0222 0.97585 0.0
O378 O 0.5124 0.15261 0.98529 0.0
O379 O 0.55319 0.10758 0.91998 0.0
O380 O 0.59896 1.01801 0.95862 0.0
O381 O 0.61973 1.03115 1.04353 0.0
O382 O 0.57045 0.12551 0.0754 0.0
O383 O 0.61221 0.06435 0.13334 0.0
H384 H 0.58091 0.8374 0.17972 0.0
H385 H 0.51926 0.78113 0.19828 0.0
H386 H 0.40842 0.90667 0.23905 0.0
H387 H 0.4696 0.96282 0.21994 0.0
H388 H 0.51922 0.24789 0.97101 0.0
H389 H 0.57538 0.31013 0.96201 0.0
H390 H 0.68062 0.20781 0.86647 0.0
H391 H 0.6252 0.14524 0.8767 0.0
Nd392 Nd 0.55635 0.49669 0.58189 0.0
Nd393 Nd 0.56723 0.58536 0.51966 0.0
C394 C 0.53332 0.41992 0.64594 0.0
C395 C 0.51677 0.37092 0.64071 0.0
C396 C 0.54889 0.32743 0.65837 0.0
C397 C 0.5321 0.28119 0.66071 0.0
C398 C 0.48263 0.27756 0.64591 0.0
C399 C 0.45139 0.32085 0.6252 0.0
C400 C 0.46826 0.36701 0.6226 0.0
C401 C 0.65411 0.51493 0.58571 0.0
C402 C 0.5435 0.59996 0.65323 0.0
C403 C 0.58811 0.66023 0.45046 0.0
C404 C 0.59694 0.71217 0.44942 0.0
C405 C 0.60284 0.73694 0.50061 0.0
C406 C 0.61363 0.78588 0.49735 0.0
C407 C 0.61865 0.81056 0.44285 0.0
C408 C 0.61054 0.78579 0.39201 0.0
C409 C 0.59974 0.73722 0.39537 0.0
C410 C 0.46952 0.56718 0.51875 0.0
C411 C 0.58287 0.48222 0.44992 0.0
O412 O 0.57853 0.42363 0.62809 0.0
O413 O 0.50142 0.46017 0.63379 0.0
O414 O 0.64087 0.47365 0.56998 0.0
O415 O 0.61571 0.54675 0.59239 0.0
O416 O 0.52879 0.55596 0.64978 0.0
O417 O 0.56677 0.61856 0.60891 0.0
O418 O 0.54288 0.65239 0.46301 0.0
O419 O 0.62231 0.62633 0.47389 0.0
O420 O 0.48318 0.60804 0.53532 0.0
O421 O 0.50765 0.53553 0.5096 0.0
O422 O 0.5994 0.52501 0.45534 0.0
O423 O 0.55573 0.46545 0.49177 0.0
H424 H 0.58653 0.32943 0.6725 0.0
H425 H 0.55725 0.24862 0.67638 0.0
H426 H 0.41276 0.31982 0.61442 0.0
H427 H 0.44258 0.39981 0.60871 0.0
H428 H 0.60013 0.71814 0.54281 0.0
H429 H 0.61933 0.80385 0.53735 0.0
H430 H 0.61516 0.80275 0.34918 0.0
H431 H 0.59495 0.71866 0.35546 0.0
Nd432 Nd 1.01816 0.54921 0.10794 0.0
Nd433 Nd 0.08735 0.54281 1.01163 0.0
C434 C 0.94578 0.55055 0.18515 0.0
C435 C 0.91098 0.595 0.20115 0.0
C436 C 0.8904 0.62981 0.15754 0.0
C437 C 0.87094 0.67844 0.17147 0.0
C438 C 0.87189 0.69312 0.22917 0.0
C439 C 0.8883 0.65705 0.27334 0.0
C440 C 0.90775 0.60839 0.25941 0.0
C441 C 0.10329 0.58839 0.13199 0.0
C442 C 1.00833 0.64825 1.02258 0.0
C443 C 0.15937 0.54175 0.934 0.0
C444 C 0.19364 0.49735 0.91688 0.0
C445 C 0.21406 0.46165 0.95966 0.0
C446 C 0.23283 0.41317 0.94456 0.0
C447 C 0.23135 0.39955 0.88649 0.0
C448 C 0.21515 0.43646 0.84316 0.0
C449 C 0.19639 0.48497 0.85827 0.0
C450 C 1.0022 0.50342 0.98844 0.0
C451 C 0.0969 0.44355 0.09622 0.0
O452 O 0.94178 0.5352 0.13243 0.0
O453 O 0.99209 0.5516 0.1996 0.0
O454 O 0.05846 0.61046 0.14267 0.0
O455 O 0.10209 0.54796 0.10737 0.0
O456 O 0.98562 0.62436 0.06337 0.0
O457 O 1.05088 0.62657 0.99961 0.0
O458 O 0.16389 0.55618 0.98705 0.0
O459 O 0.11289 0.54135 0.91979 0.0
O460 O 1.04693 0.48129 0.97738 0.0
O461 O 1.0036 0.54408 1.01243 0.0
O462 O 0.11963 0.4674 0.05545 0.0
O463 O 0.05457 0.46538 0.1196 0.0
H464 H 0.89256 0.6207 0.11208 0.0
H465 H 0.8584 0.70529 0.13654 0.0
H466 H 0.88824 0.66704 0.31846 0.0
H467 H 0.92359 0.5823 0.29366 0.0
H468 H 0.21225 0.46998 1.00536 0.0
H469 H 0.24524 0.38563 0.97884 0.0
H470 H 0.21482 0.42726 0.79779 0.0
H471 H 0.18065 0.51177 0.82465 0.0
loop_
_geom_bond_atom_site_label_1
_geom_bond_atom_site_label_2
_geom_bond_distance
_geom_bond_site_symmetry_2
_ccdc_geom_bond_type
C0 C1 1.386 . S
C0 C2 1.397 . S
C0 H24 0.931 . S
C1 C0 1.386 . S
C1 C5 1.397 . S
C2 C0 1.397 . S
C2 C3 1.384 . S
C2 H25 0.930 . S
C3 C2 1.384 . S
C3 C4 1.377 . S
C3 C6 1.481 . S
C4 C3 1.377 . S
C4 C5 1.389 . S
C4 H26 0.929 . S
C5 C1 1.397 . S
C5 C4 1.389 . S
C5 H27 0.931 . S
C6 C3 1.481 . S
C6 C7 1.387 . S
C6 C11 1.390 . S
C7 C6 1.387 . S
C7 C8 1.401 . S
C7 H28 0.930 . S
C8 C7 1.401 . S
C8 C9 1.376 . S
C8 C17 1.511 . S
C9 C8 1.376 . S
C9 C10 1.392 . S
C9 H30 0.931 . S
C10 C9 1.392 . S
C10 C11 1.361 . S
C10 C12 1.500 . S
C11 C6 1.390 . S
C11 C10 1.361 . S
C11 H29 0.931 . S
C12 C10 1.500 . S
C12 C13 1.371 . S
C12 C14 1.365 . S
C13 C12 1.371 . S
C13 C23 1.386 . S
C13 H31 0.931 . S
C14 C12 1.365 . S
C14 C15 1.409 . S
C14 H32 0.929 . S
C15 C14 1.409 . S
C15 C16 1.380 . S
C15 H33 0.930 . S
C16 C15 1.380 . S
C16 C23 1.357 . S
C17 C8 1.511 . S
C17 C18 1.341 . S
C17 C19 1.371 . S
C18 C17 1.341 . S
C18 C22 1.394 . S
C18 H34 0.930 . S
C19 C17 1.371 . S
C19 C20 1.392 . S
C19 H35 0.931 . S
C20 C19 1.392 . S
C20 C21 1.331 . S
C20 H38 0.932 . S
C21 C20 1.331 . S
C21 C22 1.336 . S
C22 C18 1.394 . S
C22 C21 1.336 . S
C22 H37 0.929 . S
C23 C13 1.386 . S
C23 C16 1.357 . S
C23 H36 0.928 1_554 S
H24 C0 0.931 . S
H25 C2 0.930 . S
H26 C4 0.929 . S
H27 C5 0.931 . S
H28 C7 0.930 . S
H29 C11 0.931 . S
H30 C9 0.931 . S
H31 C13 0.931 . S
H32 C14 0.929 . S
H33 C15 0.930 . S
H34 C18 0.930 . S
H35 C19 0.931 . S
H36 C23 0.928 1_556 S
H37 C22 0.929 . S
H38 C20 0.932 . S
C39 C40 1.386 . S
C39 C41 1.397 . S
C39 H63 0.931 . S
C40 C39 1.386 . S
C40 C44 1.397 . S
C41 C39 1.397 . S
C41 C42 1.384 . S
C41 H64 0.930 . S
C42 C41 1.384 . S
C42 C43 1.377 . S
C42 C45 1.481 . S
C43 C42 1.377 . S
C43 C44 1.389 . S
C43 H65 0.929 . S
C44 C40 1.397 . S
C44 C43 1.389 . S
C44 H66 0.931 . S
C45 C42 1.481 . S
C45 C46 1.387 . S
C45 C50 1.390 . S
C46 C45 1.387 . S
C46 C47 1.401 . S
C46 H67 0.930 . S
C47 C46 1.401 . S
C47 C48 1.376 . S
C47 C56 1.511 . S
C48 C47 1.376 . S
C48 C49 1.392 . S
C48 H69 0.931 . S
C49 C48 1.392 . S
C49 C50 1.361 . S
C49 C51 1.500 . S
C50 C45 1.390 . S
C50 C49 1.361 . S
C50 H68 0.931 . S
C51 C49 1.500 . S
C51 C52 1.371 . S
C51 C53 1.365 . S
C52 C51 1.371 . S
C52 C62 1.386 . S
C52 H70 0.931 . S
C53 C51 1.365 . S
C53 C54 1.409 . S
C53 H71 0.929 . S
C54 C53 1.409 . S
C54 C55 1.380 . S
C54 H72 0.930 . S
C55 C54 1.380 . S
C55 C62 1.357 . S
C56 C47 1.511 . S
C56 C57 1.341 . S
C56 C58 1.371 . S
C57 C56 1.341 . S
C57 C61 1.394 . S
C57 H73 0.930 . S
C58 C56 1.371 . S
C58 C59 1.392 . S
C58 H74 0.931 . S
C59 C58 1.392 . S
C59 C60 1.331 . S
C59 H77 0.932 . S
C60 C59 1.331 . S
C60 C61 1.336 . S
C61 C57 1.394 . S
C61 C60 1.336 . S
C61 H76 0.929 . S
C62 C52 1.386 . S
C62 C55 1.357 . S
C62 H75 0.928 . S
H63 C39 0.931 . S
H64 C41 0.930 . S
H65 C43 0.929 . S
H66 C44 0.931 . S
H67 C46 0.930 . S
H68 C50 0.931 . S
H69 C48 0.931 . S
H70 C52 0.931 . S
H71 C53 0.929 . S
H72 C54 0.930 . S
H73 C57 0.930 . S
H74 C58 0.931 . S
H75 C62 0.928 . S
H76 C61 0.929 . S
H77 C59 0.932 . S
C78 C79 1.386 . S
C78 C80 1.397 . S
C78 H102 0.931 . S
C79 C78 1.386 . S
C79 C83 1.397 . S
C80 C78 1.397 . S
C80 C81 1.384 . S
C80 H103 0.930 . S
C81 C80 1.384 . S
C81 C82 1.377 . S
C81 C84 1.481 . S
C82 C81 1.377 . S
C82 C83 1.389 . S
C82 H104 0.929 . S
C83 C79 1.397 . S
C83 C82 1.389 . S
C83 H105 0.931 . S
C84 C81 1.481 . S
C84 C85 1.387 . S
C84 C89 1.390 . S
C85 C84 1.387 . S
C85 C86 1.401 . S
C85 H106 0.930 . S
C86 C85 1.401 . S
C86 C87 1.376 . S
C86 C95 1.511 . S
C87 C86 1.376 . S
C87 C88 1.392 . S
C87 H108 0.931 . S
C88 C87 1.392 . S
C88 C89 1.361 . S
C88 C90 1.500 . S
C89 C84 1.390 . S
C89 C88 1.361 . S
C89 H107 0.931 . S
C90 C88 1.500 . S
C90 C91 1.371 . S
C90 C92 1.365 . S
C91 C90 1.371 . S
C91 C101 1.386 . S
C91 H109 0.931 . S
C92 C90 1.365 . S
C92 C93 1.409 . S
C92 H110 0.929 . S
C93 C92 1.409 . S
C93 C94 1.380 . S
C93 H111 0.930 . S
C94 C93 1.380 . S
C94 C101 1.357 . S
C95 C86 1.511 . S
C95 C96 1.341 . S
C95 C97 1.371 . S
C96 C95 1.341 . S
C96 C100 1.394 . S
C96 H112 0.930 . S
C97 C95 1.371 . S
C97 C98 1.392 . S
C97 H113 0.931 . S
C98 C97 1.392 . S
C98 C99 1.331 . S
C98 H116 0.932 . S
C99 C98 1.331 . S
C99 C100 1.336 . S
C100 C96 1.394 . S
C100 C99 1.336 . S
C100 H115 0.929 . S
C101 C91 1.386 . S
C101 C94 1.357 . S
C101 H114 0.928 . S
H102 C78 0.931 . S
H103 C80 0.930 . S
H104 C82 0.929 . S
H105 C83 0.931 . S
H106 C85 0.930 . S
H107 C89 0.931 . S
H108 C87 0.931 . S
H109 C91 0.931 . S
H110 C92 0.929 . S
H111 C93 0.930 . S
H112 C96 0.930 . S
H113 C97 0.931 . S
H114 C101 0.928 . S
H115 C100 0.929 . S
H116 C98 0.932 . S
C117 C118 1.386 . S
C117 C119 1.397 . S
C117 H141 0.931 . S
C118 C117 1.386 . S
C118 C122 1.397 . S
C119 C117 1.397 . S
C119 C120 1.384 . S
C119 H142 0.930 . S
C120 C119 1.384 . S
C120 C121 1.377 . S
C120 C123 1.481 . S
C121 C120 1.377 . S
C121 C122 1.389 . S
C121 H143 0.929 . S
C122 C118 1.397 . S
C122 C121 1.389 . S
C122 H144 0.931 . S
C123 C120 1.481 . S
C123 C124 1.387 . S
C123 C128 1.390 . S
C124 C123 1.387 . S
C124 C125 1.401 . S
C124 H145 0.930 . S
C125 C124 1.401 . S
C125 C126 1.376 . S
C125 C134 1.511 . S
C126 C125 1.376 . S
C126 C127 1.392 . S
C126 H147 0.931 . S
C127 C126 1.392 . S
C127 C128 1.361 . S
C127 C129 1.500 . S
C128 C123 1.390 . S
C128 C127 1.361 . S
C128 H146 0.931 . S
C129 C127 1.500 . S
C129 C130 1.371 . S
C129 C131 1.365 . S
C130 C129 1.371 . S
C130 C140 1.386 . S
C130 H148 0.931 . S
C131 C129 1.365 . S
C131 C132 1.409 . S
C131 H149 0.929 . S
C132 C131 1.409 . S
C132 C133 1.380 . S
C132 H150 0.930 . S
C133 C132 1.380 . S
C133 C140 1.357 . S
C134 C125 1.511 . S
C134 C135 1.341 . S
C134 C136 1.371 . S
C135 C134 1.341 . S
C135 C139 1.394 . S
C135 H151 0.930 . S
C136 C134 1.371 . S
C136 C137 1.392 . S
C136 H152 0.931 . S
C137 C136 1.392 . S
C137 C138 1.331 . S
C137 H155 0.932 . S
C138 C137 1.331 . S
C138 C139 1.336 . S
C139 C135 1.394 . S
C139 C138 1.336 . S
C139 H154 0.929 . S
C140 C130 1.386 . S
C140 C133 1.357 . S
C140 H153 0.928 . S
H141 C117 0.931 . S
H142 C119 0.930 . S
H143 C121 0.929 . S
H144 C122 0.931 . S
H145 C124 0.930 . S
H146 C128 0.931 . S
H147 C126 0.931 . S
H148 C130 0.931 . S
H149 C131 0.929 . S
H150 C132 0.930 . S
H151 C135 0.930 . S
H152 C136 0.931 . S
H153 C140 0.928 . S
H154 C139 0.929 . S
H155 C137 0.932 . S
C156 C157 1.386 . S
C156 C158 1.397 . S
C156 H180 0.931 . S
C157 C156 1.386 . S
C157 C161 1.397 . S
C158 C156 1.397 . S
C158 C159 1.384 . S
C158 H181 0.930 . S
C159 C158 1.384 . S
C159 C160 1.377 . S
C159 C162 1.481 . S
C160 C159 1.377 . S
C160 C161 1.389 . S
C160 H182 0.929 . S
C161 C157 1.397 . S
C161 C160 1.389 . S
C161 H183 0.931 . S
C162 C159 1.481 . S
C162 C163 1.387 . S
C162 C167 1.390 . S
C163 C162 1.387 . S
C163 C164 1.401 . S
C163 H184 0.930 . S
C164 C163 1.401 . S
C164 C165 1.376 . S
C164 C173 1.511 . S
C165 C164 1.376 . S
C165 C166 1.392 . S
C165 H186 0.931 . S
C166 C165 1.392 . S
C166 C167 1.361 . S
C166 C168 1.500 . S
C167 C162 1.390 . S
C167 C166 1.361 . S
C167 H185 0.931 . S
C168 C166 1.500 . S
C168 C169 1.371 . S
C168 C170 1.365 . S
C169 C168 1.371 . S
C169 C179 1.386 . S
C169 H187 0.931 . S
C170 C168 1.365 . S
C170 C171 1.409 . S
C170 H188 0.929 . S
C171 C170 1.409 . S
C171 C172 1.380 . S
C171 H189 0.930 . S
C172 C171 1.380 . S
C172 C179 1.357 . S
C173 C164 1.511 . S
C173 C174 1.341 . S
C173 C175 1.371 . S
C174 C173 1.341 . S
C174 C178 1.394 . S
C174 H190 0.930 . S
C175 C173 1.371 . S
C175 C176 1.392 . S
C175 H191 0.931 . S
C176 C175 1.392 . S
C176 C177 1.331 . S
C176 H194 0.932 1_556 S
C177 C176 1.331 . S
C177 C178 1.336 . S
C178 C174 1.394 . S
C178 C177 1.336 . S
C178 H193 0.929 . S
C179 C169 1.386 . S
C179 C172 1.357 . S
C179 H192 0.928 . S
H180 C156 0.931 . S
H181 C158 0.930 . S
H182 C160 0.929 . S
H183 C161 0.931 . S
H184 C163 0.930 . S
H185 C167 0.931 . S
H186 C165 0.931 . S
H187 C169 0.931 . S
H188 C170 0.929 . S
H189 C171 0.930 . S
H190 C174 0.930 . S
H191 C175 0.931 . S
H192 C179 0.928 . S
H193 C178 0.929 . S
H194 C176 0.932 1_554 S
C195 C196 1.386 . S
C195 C197 1.397 . S
C195 H219 0.931 . S
C196 C195 1.386 . S
C196 C200 1.397 . S
C197 C195 1.397 . S
C197 C198 1.384 . S
C197 H220 0.930 . S
C198 C197 1.384 . S
C198 C199 1.377 . S
C198 C201 1.481 . S
C199 C198 1.377 . S
C199 C200 1.389 . S
C199 H221 0.929 . S
C200 C196 1.397 . S
C200 C199 1.389 . S
C200 H222 0.931 . S
C201 C198 1.481 . S
C201 C202 1.387 . S
C201 C206 1.390 . S
C202 C201 1.387 . S
C202 C203 1.401 . S
C202 H223 0.930 . S
C203 C202 1.401 . S
C203 C204 1.376 . S
C203 C212 1.511 . S
C204 C203 1.376 . S
C204 C205 1.392 . S
C204 H225 0.931 . S
C205 C204 1.392 . S
C205 C206 1.361 . S
C205 C207 1.500 . S
C206 C201 1.390 . S
C206 C205 1.361 . S
C206 H224 0.931 . S
C207 C205 1.500 . S
C207 C208 1.371 . S
C207 C209 1.365 . S
C208 C207 1.371 . S
C208 C218 1.386 . S
C208 H226 0.931 . S
C209 C207 1.365 . S
C209 C210 1.409 . S
C209 H227 0.929 . S
C210 C209 1.409 . S
C210 C211 1.380 . S
C210 H228 0.930 . S
C211 C210 1.380 . S
C211 C218 1.357 . S
C212 C203 1.511 . S
C212 C213 1.341 . S
C212 C214 1.371 . S
C213 C212 1.341 . S
C213 C217 1.394 . S
C213 H229 0.930 . S
C214 C212 1.371 . S
C214 C215 1.392 . S
C214 H230 0.931 . S
C215 C214 1.392 . S
C215 C216 1.331 . S
C215 H233 0.932 . S
C216 C215 1.331 . S
C216 C217 1.336 . S
C217 C213 1.394 . S
C217 C216 1.336 . S
C217 H232 0.929 . S
C218 C208 1.386 . S
C218 C211 1.357 . S
C218 H231 0.928 . S
H219 C195 0.931 . S
H220 C197 0.930 . S
H221 C199 0.929 . S
H222 C200 0.931 . S
H223 C202 0.930 . S
H224 C206 0.931 . S
H225 C204 0.931 . S
H226 C208 0.931 . S
H227 C209 0.929 . S
H228 C210 0.930 . S
H229 C213 0.930 . S
H230 C214 0.931 . S
H231 C218 0.928 . S
H232 C217 0.929 . S
H233 C215 0.932 . S
C234 C235 1.386 . S
C234 C236 1.397 . S
C234 H258 0.931 . S
C235 C234 1.386 . S
C235 C239 1.397 . S
C236 C234 1.397 . S
C236 C237 1.384 . S
C236 H259 0.930 . S
C237 C236 1.384 . S
C237 C238 1.377 . S
C237 C240 1.481 . S
C238 C237 1.377 . S
C238 C239 1.389 . S
C238 H260 0.929 . S
C239 C235 1.397 . S
C239 C238 1.389 . S
C239 H261 0.931 . S
C240 C237 1.481 . S
C240 C241 1.387 . S
C240 C245 1.390 . S
C241 C240 1.387 . S
C241 C242 1.401 . S
C241 H262 0.930 . S
C242 C241 1.401 . S
C242 C243 1.376 . S
C242 C251 1.511 . S
C243 C242 1.376 . S
C243 C244 1.392 . S
C243 H264 0.931 . S
C244 C243 1.392 . S
C244 C245 1.361 . S
C244 C246 1.500 . S
C245 C240 1.390 . S
C245 C244 1.361 . S
C245 H263 0.931 . S
C246 C244 1.500 . S
C246 C247 1.371 . S
C246 C248 1.365 . S
C247 C246 1.371 . S
C247 C257 1.386 . S
C247 H265 0.931 . S
C248 C246 1.365 . S
C248 C249 1.409 . S
C248 H266 0.929 . S
C249 C248 1.409 . S
C249 C250 1.380 . S
C249 H267 0.930 . S
C250 C249 1.380 . S
C250 C257 1.357 . S
C251 C242 1.511 . S
C251 C252 1.341 . S
C251 C253 1.371 . S
C252 C251 1.341 . S
C252 C256 1.394 . S
C252 H268 0.930 . S
C253 C251 1.371 . S
C253 C254 1.392 . S
C253 H269 0.931 . S
C254 C253 1.392 . S
C254 C255 1.331 . S
C254 H272 0.932 . S
C255 C254 1.331 . S
C255 C256 1.336 . S
C256 C252 1.394 . S
C256 C255 1.336 . S
C256 H271 0.929 . S
C257 C247 1.386 . S
C257 C250 1.357 . S
C257 H270 0.928 . S
H258 C234 0.931 . S
H259 C236 0.930 . S
H260 C238 0.929 . S
H261 C239 0.931 . S
H262 C241 0.930 . S
H263 C245 0.931 . S
H264 C243 0.931 . S
H265 C247 0.931 . S
H266 C248 0.929 . S
H267 C249 0.930 . S
H268 C252 0.930 . S
H269 C253 0.931 . S
H270 C257 0.928 . S
H271 C256 0.929 . S
H272 C254 0.932 . S
C273 C274 1.386 . S
C273 C275 1.397 . S
C273 H297 0.931 . S
C274 C273 1.386 . S
C274 C278 1.397 . S
C275 C273 1.397 . S
C275 C276 1.384 . S
C275 H298 0.930 . S
C276 C275 1.384 . S
C276 C277 1.377 . S
C276 C279 1.481 . S
C277 C276 1.377 . S
C277 C278 1.389 . S
C277 H299 0.929 . S
C278 C274 1.397 . S
C278 C277 1.389 . S
C278 H300 0.931 . S
C279 C276 1.481 . S
C279 C280 1.387 . S
C279 C284 1.390 . S
C280 C279 1.387 . S
C280 C281 1.401 . S
C280 H301 0.930 . S
C281 C280 1.401 . S
C281 C282 1.376 . S
C281 C290 1.511 . S
C282 C281 1.376 . S
C282 C283 1.392 . S
C282 H303 0.931 . S
C283 C282 1.392 . S
C283 C284 1.361 . S
C283 C285 1.500 . S
C284 C279 1.390 . S
C284 C283 1.361 . S
C284 H302 0.931 . S
C285 C283 1.500 . S
C285 C286 1.371 . S
C285 C287 1.365 . S
C286 C285 1.371 . S
C286 C296 1.386 . S
C286 H304 0.931 . S
C287 C285 1.365 . S
C287 C288 1.409 . S
C287 H305 0.929 . S
C288 C287 1.409 . S
C288 C289 1.380 . S
C288 H306 0.930 . S
C289 C288 1.380 . S
C289 C296 1.357 . S
C290 C281 1.511 . S
C290 C291 1.341 . S
C290 C292 1.371 . S
C291 C290 1.341 . S
C291 C295 1.394 . S
C291 H307 0.930 . S
C292 C290 1.371 . S
C292 C293 1.392 . S
C292 H308 0.931 . S
C293 C292 1.392 . S
C293 C294 1.331 . S
C293 H311 0.932 . S
C294 C293 1.331 . S
C294 C295 1.336 . S
C295 C291 1.394 . S
C295 C294 1.336 . S
C295 H310 0.929 . S
C296 C286 1.386 . S
C296 C289 1.357 . S
C296 H309 0.928 . S
H297 C273 0.931 . S
H298 C275 0.930 . S
H299 C277 0.929 . S
H300 C278 0.931 . S
H301 C280 0.930 . S
H302 C284 0.931 . S
H303 C282 0.931 . S
H304 C286 0.931 . S
H305 C287 0.929 . S
H306 C288 0.930 . S
H307 C291 0.930 . S
H308 C292 0.931 . S
H309 C296 0.928 . S
H310 C295 0.929 . S
H311 C293 0.932 . S
Nd312 C314 2.836 . S
Nd312 O332 2.500 . S
Nd312 O333 2.492 . S
Nd312 O334 2.487 1_565 S
Nd312 O335 2.682 1_565 S
Nd312 O336 2.410 . S
Nd312 O341 2.414 1_455 S
Nd312 O343 2.424 1_565 S
Nd313 C323 2.836 . S
Nd313 O335 2.414 1_655 S
Nd313 O337 2.424 1_545 S
Nd313 O338 2.500 . S
Nd313 O339 2.492 . S
Nd313 O340 2.487 1_545 S
Nd313 O341 2.682 1_545 S
Nd313 O342 2.410 . S
C314 Nd312 2.836 . S
C314 C315 1.498 . S
C314 O332 1.258 . S
C314 O333 1.239 . S
C315 C314 1.498 . S
C315 C316 1.366 . S
C315 C320 1.407 . S
C316 C315 1.366 . S
C316 C317 1.392 . S
C316 H344 0.930 . S
C317 C316 1.392 . S
C317 C318 1.398 . S
C317 H345 0.929 . S
C318 C317 1.398 . S
C318 C319 1.352 . S
C319 C318 1.352 . S
C319 C320 1.384 . S
C319 H346 0.930 . S
C320 C315 1.407 . S
C320 C319 1.384 . S
C320 H347 0.929 . S
C321 O334 1.241 . S
C321 O335 1.273 . S
C322 O336 1.251 1_655 S
C322 O337 1.268 . S
C323 Nd313 2.836 . S
C323 C324 1.498 . S
C323 O338 1.258 . S
C323 O339 1.239 . S
C324 C323 1.498 . S
C324 C325 1.366 . S
C324 C329 1.407 . S
C325 C324 1.366 . S
C325 C326 1.392 . S
C325 H348 0.930 . S
C326 C325 1.392 . S
C326 C327 1.398 . S
C326 H349 0.929 . S
C327 C326 1.398 . S
C327 C328 1.352 . S
C328 C327 1.352 . S
C328 C329 1.384 . S
C328 H350 0.930 . S
C329 C324 1.407 . S
C329 C328 1.384 . S
C329 H351 0.929 . S
C330 O340 1.241 . S
C330 O341 1.273 . S
C331 O342 1.251 1_455 S
C331 O343 1.268 . S
O332 Nd312 2.500 . S
O332 C314 1.258 . S
O333 Nd312 2.492 . S
O333 C314 1.239 . S
O334 Nd312 2.487 1_545 S
O334 C321 1.241 . S
O335 Nd312 2.682 1_545 S
O335 Nd313 2.414 1_455 S
O335 C321 1.273 . S
O336 Nd312 2.410 . S
O336 C322 1.251 1_455 S
O337 Nd313 2.424 1_565 S
O337 C322 1.268 . S
O338 Nd313 2.500 . S
O338 C323 1.258 . S
O339 Nd313 2.492 . S
O339 C323 1.239 . S
O340 Nd313 2.487 1_565 S
O340 C330 1.241 . S
O341 Nd312 2.414 1_655 S
O341 Nd313 2.682 1_565 S
O341 C330 1.273 . S
O342 Nd313 2.410 . S
O342 C331 1.251 1_655 S
O343 Nd312 2.424 1_545 S
O343 C331 1.268 . S
H344 C316 0.930 . S
H345 C317 0.929 . S
H346 C319 0.930 . S
H347 C320 0.929 . S
H348 C325 0.930 . S
H349 C326 0.929 . S
H350 C328 0.930 . S
H351 C329 0.929 . S
Nd352 C354 2.836 . S
Nd352 O372 2.500 . S
Nd352 O373 2.492 . S
Nd352 O374 2.487 1_565 S
Nd352 O375 2.682 1_565 S
Nd352 O376 2.410 1_554 S
Nd352 O381 2.414 1_554 S
Nd352 O383 2.424 1_565 S
Nd353 C363 2.836 . S
Nd353 O375 2.414 1_556 S
Nd353 O377 2.424 1_545 S
Nd353 O378 2.500 . S
Nd353 O379 2.492 . S
Nd353 O380 2.487 1_545 S
Nd353 O381 2.682 1_545 S
Nd353 O382 2.410 1_556 S
C354 Nd352 2.836 . S
C354 C355 1.498 . S
C354 O372 1.258 . S
C354 O373 1.239 . S
C355 C354 1.498 . S
C355 C356 1.366 . S
C355 C360 1.407 . S
C356 C355 1.366 . S
C356 C357 1.392 . S
C356 H384 0.930 . S
C357 C356 1.392 . S
C357 C358 1.398 . S
C357 H385 0.929 . S
C358 C357 1.398 . S
C358 C359 1.352 . S
C359 C358 1.352 . S
C359 C360 1.384 . S
C359 H386 0.930 . S
C360 C355 1.407 . S
C360 C359 1.384 . S
C360 H387 0.929 . S
C361 O374 1.241 . S
C361 O375 1.273 . S
C362 O376 1.251 . S
C362 O377 1.268 . S
C363 Nd353 2.836 . S
C363 C364 1.498 . S
C363 O378 1.258 . S
C363 O379 1.239 . S
C364 C363 1.498 . S
C364 C365 1.366 . S
C364 C369 1.407 . S
C365 C364 1.366 . S
C365 C366 1.392 . S
C365 H388 0.930 . S
C366 C365 1.392 . S
C366 C367 1.398 . S
C366 H389 0.929 . S
C367 C366 1.398 . S
C367 C368 1.352 . S
C368 C367 1.352 . S
C368 C369 1.384 . S
C368 H390 0.930 . S
C369 C364 1.407 . S
C369 C368 1.384 . S
C369 H391 0.929 . S
C370 O380 1.241 . S
C370 O381 1.273 . S
C371 O382 1.251 . S
C371 O383 1.268 . S
O372 Nd352 2.500 . S
O372 C354 1.258 . S
O373 Nd352 2.492 . S
O373 C354 1.239 . S
O374 Nd352 2.487 1_545 S
O374 C361 1.241 . S
O375 Nd352 2.682 1_545 S
O375 Nd353 2.414 1_554 S
O375 C361 1.273 . S
O376 Nd352 2.410 1_556 S
O376 C362 1.251 . S
O377 Nd353 2.424 1_565 S
O377 C362 1.268 . S
O378 Nd353 2.500 . S
O378 C363 1.258 . S
O379 Nd353 2.492 . S
O379 C363 1.239 . S
O380 Nd353 2.487 1_565 S
O380 C370 1.241 . S
O381 Nd352 2.414 1_556 S
O381 Nd353 2.682 1_565 S
O381 C370 1.273 . S
O382 Nd353 2.410 1_554 S
O382 C371 1.251 . S
O383 Nd352 2.424 1_545 S
O383 C371 1.268 . S
H384 C356 0.930 . S
H385 C357 0.929 . S
H386 C359 0.930 . S
H387 C360 0.929 . S
H388 C365 0.930 . S
H389 C366 0.929 . S
H390 C368 0.930 . S
H391 C369 0.929 . S
Nd392 C394 2.836 . S
Nd392 O412 2.500 . S
Nd392 O413 2.492 . S
Nd392 O414 2.487 . S
Nd392 O415 2.682 . S
Nd392 O416 2.410 . S
Nd392 O421 2.414 . S
Nd392 O423 2.424 . S
Nd393 C403 2.836 . S
Nd393 O415 2.414 . S
Nd393 O417 2.424 . S
Nd393 O418 2.500 . S
Nd393 O419 2.492 . S
Nd393 O420 2.487 . S
Nd393 O421 2.682 . S
Nd393 O422 2.410 . S
C394 Nd392 2.836 . S
C394 C395 1.498 . S
C394 O412 1.258 . S
C394 O413 1.239 . S
C395 C394 1.498 . S
C395 C396 1.366 . S
C395 C400 1.407 . S
C396 C395 1.366 . S
C396 C397 1.392 . S
C396 H424 0.930 . S
C397 C396 1.392 . S
C397 C398 1.398 . S
C397 H425 0.929 . S
C398 C397 1.398 . S
C398 C399 1.352 . S
C399 C398 1.352 . S
C399 C400 1.384 . S
C399 H426 0.930 . S
C400 C395 1.407 . S
C400 C399 1.384 . S
C400 H427 0.929 . S
C401 O414 1.241 . S
C401 O415 1.273 . S
C402 O416 1.251 . S
C402 O417 1.268 . S
C403 Nd393 2.836 . S
C403 C404 1.498 . S
C403 O418 1.258 . S
C403 O419 1.239 . S
C404 C403 1.498 . S
C404 C405 1.366 . S
C404 C409 1.407 . S
C405 C404 1.366 . S
C405 C406 1.392 . S
C405 H428 0.930 . S
C406 C405 1.392 . S
C406 C407 1.398 . S
C406 H429 0.929 . S
C407 C406 1.398 . S
C407 C408 1.352 . S
C408 C407 1.352 . S
C408 C409 1.384 . S
C408 H430 0.930 . S
C409 C404 1.407 . S
C409 C408 1.384 . S
C409 H431 0.929 . S
C410 O420 1.241 . S
C410 O421 1.273 . S
C411 O422 1.251 . S
C411 O423 1.268 . S
O412 Nd392 2.500 . S
O412 C394 1.258 . S
O413 Nd392 2.492 . S
O413 C394 1.239 . S
O414 Nd392 2.487 . S
O414 C401 1.241 . S
O415 Nd392 2.682 . S
O415 Nd393 2.414 . S
O415 C401 1.273 . S
O416 Nd392 2.410 . S
O416 C402 1.251 . S
O417 Nd393 2.424 . S
O417 C402 1.268 . S
O418 Nd393 2.500 . S
O418 C403 1.258 . S
O419 Nd393 2.492 . S
O419 C403 1.239 . S
O420 Nd393 2.487 . S
O420 C410 1.241 . S
O421 Nd392 2.414 . S
O421 Nd393 2.682 . S
O421 C410 1.273 . S
O422 Nd393 2.410 . S
O422 C411 1.251 . S
O423 Nd392 2.424 . S
O423 C411 1.268 . S
H424 C396 0.930 . S
H425 C397 0.929 . S
H426 C399 0.930 . S
H427 C400 0.929 . S
H428 C405 0.930 . S
H429 C406 0.929 . S
H430 C408 0.930 . S
H431 C409 0.929 . S
Nd432 C434 2.836 . S
Nd432 O452 2.500 . S
Nd432 O453 2.492 . S
Nd432 O454 2.487 1_655 S
Nd432 O455 2.682 1_655 S
Nd432 O456 2.410 . S
Nd432 O461 2.414 1_554 S
Nd432 O463 2.424 1_655 S
Nd433 C443 2.836 . S
Nd433 O455 2.414 1_556 S
Nd433 O457 2.424 1_455 S
Nd433 O458 2.500 . S
Nd433 O459 2.492 . S
Nd433 O460 2.487 1_455 S
Nd433 O461 2.682 1_455 S
Nd433 O462 2.410 . S
C434 Nd432 2.836 . S
C434 C435 1.498 . S
C434 O452 1.258 . S
C434 O453 1.239 . S
C435 C434 1.498 . S
C435 C436 1.366 . S
C435 C440 1.407 . S
C436 C435 1.366 . S
C436 C437 1.392 . S
C436 H464 0.930 . S
C437 C436 1.392 . S
C437 C438 1.398 . S
C437 H465 0.929 . S
C438 C437 1.398 . S
C438 C439 1.352 . S
C439 C438 1.352 . S
C439 C440 1.384 . S
C439 H466 0.930 . S
C440 C435 1.407 . S
C440 C439 1.384 . S
C440 H467 0.929 . S
C441 O454 1.241 . S
C441 O455 1.273 . S
C442 O456 1.251 1_556 S
C442 O457 1.268 . S
C443 Nd433 2.836 . S
C443 C444 1.498 . S
C443 O458 1.258 . S
C443 O459 1.239 . S
C444 C443 1.498 . S
C444 C445 1.366 . S
C444 C449 1.407 . S
C445 C444 1.366 . S
C445 C446 1.392 . S
C445 H468 0.930 . S
C446 C445 1.392 . S
C446 C447 1.398 . S
C446 H469 0.929 . S
C447 C446 1.398 . S
C447 C448 1.352 . S
C448 C447 1.352 . S
C448 C449 1.384 . S
C448 H470 0.930 . S
C449 C444 1.407 . S
C449 C448 1.384 . S
C449 H471 0.929 . S
C450 O460 1.241 . S
C450 O461 1.273 . S
C451 O462 1.251 1_554 S
C451 O463 1.268 . S
O452 Nd432 2.500 . S
O452 C434 1.258 . S
O453 Nd432 2.492 . S
O453 C434 1.239 . S
O454 Nd432 2.487 1_455 S
O454 C441 1.241 . S
O455 Nd432 2.682 1_455 S
O455 Nd433 2.414 1_554 S
O455 C441 1.273 . S
O456 Nd432 2.410 . S
O456 C442 1.251 1_554 S
O457 Nd433 2.424 1_655 S
O457 C442 1.268 . S
O458 Nd433 2.500 . S
O458 C443 1.258 . S
O459 Nd433 2.492 . S
O459 C443 1.239 . S
O460 Nd433 2.487 1_655 S
O460 C450 1.241 . S
O461 Nd432 2.414 1_556 S
O461 Nd433 2.682 1_655 S
O461 C450 1.273 . S
O462 Nd433 2.410 . S
O462 C451 1.251 1_556 S
O463 Nd432 2.424 1_455 S
O463 C451 1.268 . S
H464 C436 0.930 . S
H465 C437 0.929 . S
H466 C439 0.930 . S
H467 C440 0.929 . S
H468 C445 0.930 . S
H469 C446 0.929 . S
H470 C448 0.930 . S
H471 C449 0.929 . S
C1 C331 4.207 . S
C40 C362 4.468 . S
C401 C99 2.330 . S
C118 C438 1.502 . S
C361 C16 4.085 . S
C318 C60 1.285 . S
C450 C79 2.271 . S
C407 C138 2.981 . S
C21 C451 3.204 . S
C367 C94 1.595 . S
C133 C330 1.465 . S
C55 C402 3.882 . S
C322 C157 4.214 . S
C196 C371 4.440 . S
C255 C410 2.290 . S
C289 C447 1.511 . S
C172 C370 4.086 . S
C327 C216 1.249 . S
C441 C235 2.255 . S
C398 C294 2.950 . S
C177 C442 3.199 . S
C358 C250 1.600 . S
C321 C274 1.483 . S
C211 C411 3.890 . S
