# Generated by pormake.
# Topology ptr, (4,4)-cn, num edge types: 1
# Building blocks:
#     Node 0, Type 0, BuildingBlock: CEKHIL_clean_sbu_0, # of connection points: 4
#     Node 1, Type 0, BuildingBlock: CEKHIL_clean_sbu_0, # of connection points: 4
#     Node 2, Type 0, BuildingBlock: CEKHIL_clean_sbu_0, # of connection points: 4
#     Node 3, Type 0, BuildingBlock: CEKHIL_clean_sbu_0, # of connection points: 4
#     Node 4, Type 0, BuildingBlock: CEKHIL_clean_sbu_0, # of connection points: 4
#     Node 5, Type 0, BuildingBlock: CEKHIL_clean_sbu_0, # of connection points: 4
#     Node 6, Type 0, BuildingBlock: CEKHIL_clean_sbu_0, # of connection points: 4
#     Node 7, Type 0, BuildingBlock: CEKHIL_clean_sbu_0, # of connection points: 4
#     Node 8, Type 0, BuildingBlock: CEKHIL_clean_sbu_0, # of connection points: 4
#     Node 9, Type 0, BuildingBlock: CEKHIL_clean_sbu_0, # of connection points: 4
#     Node 10, Type 0, BuildingBlock: CEKHIL_clean_sbu_0, # of connection points: 4
#     Node 11, Type 0, BuildingBlock: CEKHIL_clean_sbu_0, # of connection points: 4
#     Node 12, Type 0, BuildingBlock: CEKHIL_clean_sbu_0, # of connection points: 4
#     Node 13, Type 0, BuildingBlock: CEKHIL_clean_sbu_0, # of connection points: 4
#     Node 14, Type 0, BuildingBlock: CEKHIL_clean_sbu_0, # of connection points: 4
#     Node 15, Type 0, BuildingBlock: CEKHIL_clean_sbu_0, # of connection points: 4
#     Node 16, Type 0, BuildingBlock: CEKHIL_clean_sbu_0, # of connection points: 4
#     Node 17, Type 0, BuildingBlock: CEKHIL_clean_sbu_0, # of connection points: 4
#     Node 18, Type 1, BuildingBlock: KUFVIS_clean_linker_0, # of connection points: 4
#     Node 19, Type 1, BuildingBlock: KUFVIS_clean_linker_0, # of connection points: 4
#     Node 20, Type 1, BuildingBlock: KUFVIS_clean_linker_0, # of connection points: 4
#     Node 21, Type 1, BuildingBlock: KUFVIS_clean_linker_0, # of connection points: 4
#     Node 22, Type 1, BuildingBlock: KUFVIS_clean_linker_0, # of connection points: 4
#     Node 23, Type 1, BuildingBlock: KUFVIS_clean_linker_0, # of connection points: 4
#     Node 24, Type 1, BuildingBlock: KUFVIS_clean_linker_0, # of connection points: 4
#     Node 25, Type 1, BuildingBlock: KUFVIS_clean_linker_0, # of connection points: 4
#     Node 26, Type 1, BuildingBlock: KUFVIS_clean_linker_0, # of connection points: 4
#     Node 27, Type 1, BuildingBlock: KUFVIS_clean_linker_0, # of connection points: 4
#     Node 28, Type 1, BuildingBlock: KUFVIS_clean_linker_0, # of connection points: 4
#     Node 29, Type 1, BuildingBlock: KUFVIS_clean_linker_0, # of connection points: 4
#     Node 30, Type 1, BuildingBlock: KUFVIS_clean_linker_0, # of connection points: 4
#     Node 31, Type 1, BuildingBlock: KUFVIS_clean_linker_0, # of connection points: 4
#     Node 32, Type 1, BuildingBlock: KUFVIS_clean_linker_0, # of connection points: 4
#     Node 33, Type 1, BuildingBlock: KUFVIS_clean_linker_0, # of connection points: 4
#     Node 34, Type 1, BuildingBlock: KUFVIS_clean_linker_0, # of connection points: 4
#     Node 35, Type 1, BuildingBlock: KUFVIS_clean_linker_0, # of connection points: 4
#     Edge 36, Type (0, 1), BuildingBlock: MIFKUJ_clean_linker_0, # of connection points: 2
#     Edge 37, Type (0, 1), BuildingBlock: MIFKUJ_clean_linker_0, # of connection points: 2
#     Edge 38, Type (0, 1), BuildingBlock: MIFKUJ_clean_linker_0, # of connection points: 2
#     Edge 39, Type (0, 1), BuildingBlock: MIFKUJ_clean_linker_0, # of connection points: 2
#     Edge 40, Type (0, 1), BuildingBlock: MIFKUJ_clean_linker_0, # of connection points: 2
#     Edge 41, Type (0, 1), BuildingBlock: MIFKUJ_clean_linker_0, # of connection points: 2
#     Edge 42, Type (0, 1), BuildingBlock: MIFKUJ_clean_linker_0, # of connection points: 2
#     Edge 43, Type (0, 1), BuildingBlock: MIFKUJ_clean_linker_0, # of connection points: 2
#     Edge 44, Type (0, 1), BuildingBlock: MIFKUJ_clean_linker_0, # of connection points: 2
#     Edge 45, Type (0, 1), BuildingBlock: MIFKUJ_clean_linker_0, # of connection points: 2
#     Edge 46, Type (0, 1), BuildingBlock: MIFKUJ_clean_linker_0, # of connection points: 2
#     Edge 47, Type (0, 1), BuildingBlock: MIFKUJ_clean_linker_0, # of connection points: 2
#     Edge 48, Type (0, 1), BuildingBlock: MIFKUJ_clean_linker_0, # of connection points: 2
#     Edge 49, Type (0, 1), BuildingBlock: MIFKUJ_clean_linker_0, # of connection points: 2
#     Edge 50, Type (0, 1), BuildingBlock: MIFKUJ_clean_linker_0, # of connection points: 2
#     Edge 51, Type (0, 1), BuildingBlock: MIFKUJ_clean_linker_0, # of connection points: 2
#     Edge 52, Type (0, 1), BuildingBlock: MIFKUJ_clean_linker_0, # of connection points: 2
#     Edge 53, Type (0, 1), BuildingBlock: MIFKUJ_clean_linker_0, # of connection points: 2
#     Edge 54, Type (0, 1), BuildingBlock: MIFKUJ_clean_linker_0, # of connection points: 2
#     Edge 55, Type (0, 1), BuildingBlock: MIFKUJ_clean_linker_0, # of connection points: 2
#     Edge 56, Type (0, 1), BuildingBlock: MIFKUJ_clean_linker_0, # of connection points: 2
#     Edge 57, Type (0, 1), BuildingBlock: MIFKUJ_clean_linker_0, # of connection points: 2
#     Edge 58, Type (0, 1), BuildingBlock: MIFKUJ_clean_linker_0, # of connection points: 2
#     Edge 59, Type (0, 1), BuildingBlock: MIFKUJ_clean_linker_0, # of connection points: 2
#     Edge 60, Type (0, 1), BuildingBlock: MIFKUJ_clean_linker_0, # of connection points: 2
#     Edge 61, Type (0, 1), BuildingBlock: MIFKUJ_clean_linker_0, # of connection points: 2
#     Edge 62, Type (0, 1), BuildingBlock: MIFKUJ_clean_linker_0, # of connection points: 2
#     Edge 63, Type (0, 1), BuildingBlock: MIFKUJ_clean_linker_0, # of connection points: 2
#     Edge 64, Type (0, 1), BuildingBlock: MIFKUJ_clean_linker_0, # of connection points: 2
#     Edge 65, Type (0, 1), BuildingBlock: MIFKUJ_clean_linker_0, # of connection points: 2
#     Edge 66, Type (0, 1), BuildingBlock: MIFKUJ_clean_linker_0, # of connection points: 2
#     Edge 67, Type (0, 1), BuildingBlock: MIFKUJ_clean_linker_0, # of connection points: 2
#     Edge 68, Type (0, 1), BuildingBlock: MIFKUJ_clean_linker_0, # of connection points: 2
#     Edge 69, Type (0, 1), BuildingBlock: MIFKUJ_clean_linker_0, # of connection points: 2
#     Edge 70, Type (0, 1), BuildingBlock: MIFKUJ_clean_linker_0, # of connection points: 2
#     Edge 71, Type (0, 1), BuildingBlock: MIFKUJ_clean_linker_0, # of connection points: 2
#     Edge 72, Type (0, 1), BuildingBlock: MIFKUJ_clean_linker_0, # of connection points: 2
#     Edge 73, Type (0, 1), BuildingBlock: MIFKUJ_clean_linker_0, # of connection points: 2
#     Edge 74, Type (0, 1), BuildingBlock: MIFKUJ_clean_linker_0, # of connection points: 2
#     Edge 75, Type (0, 1), BuildingBlock: MIFKUJ_clean_linker_0, # of connection points: 2
#     Edge 76, Type (0, 1), BuildingBlock: MIFKUJ_clean_linker_0, # of connection points: 2
#     Edge 77, Type (0, 1), BuildingBlock: MIFKUJ_clean_linker_0, # of connection points: 2
#     Edge 78, Type (0, 1), BuildingBlock: MIFKUJ_clean_linker_0, # of connection points: 2
#     Edge 79, Type (0, 1), BuildingBlock: MIFKUJ_clean_linker_0, # of connection points: 2
#     Edge 80, Type (0, 1), BuildingBlock: MIFKUJ_clean_linker_0, # of connection points: 2
#     Edge 81, Type (0, 1), BuildingBlock: MIFKUJ_clean_linker_0, # of connection points: 2
#     Edge 82, Type (0, 1), BuildingBlock: MIFKUJ_clean_linker_0, # of connection points: 2
#     Edge 83, Type (0, 1), BuildingBlock: MIFKUJ_clean_linker_0, # of connection points: 2
#     Edge 84, Type (0, 1), BuildingBlock: MIFKUJ_clean_linker_0, # of connection points: 2
#     Edge 85, Type (0, 1), BuildingBlock: MIFKUJ_clean_linker_0, # of connection points: 2
#     Edge 86, Type (0, 1), BuildingBlock: MIFKUJ_clean_linker_0, # of connection points: 2
#     Edge 87, Type (0, 1), BuildingBlock: MIFKUJ_clean_linker_0, # of connection points: 2
#     Edge 88, Type (0, 1), BuildingBlock: MIFKUJ_clean_linker_0, # of connection points: 2
#     Edge 89, Type (0, 1), BuildingBlock: MIFKUJ_clean_linker_0, # of connection points: 2
#     Edge 90, Type (0, 1), BuildingBlock: MIFKUJ_clean_linker_0, # of connection points: 2
#     Edge 91, Type (0, 1), BuildingBlock: MIFKUJ_clean_linker_0, # of connection points: 2
#     Edge 92, Type (0, 1), BuildingBlock: MIFKUJ_clean_linker_0, # of connection points: 2
#     Edge 93, Type (0, 1), BuildingBlock: MIFKUJ_clean_linker_0, # of connection points: 2
#     Edge 94, Type (0, 1), BuildingBlock: MIFKUJ_clean_linker_0, # of connection points: 2
#     Edge 95, Type (0, 1), BuildingBlock: MIFKUJ_clean_linker_0, # of connection points: 2
#     Edge 96, Type (0, 1), BuildingBlock: MIFKUJ_clean_linker_0, # of connection points: 2
#     Edge 97, Type (0, 1), BuildingBlock: MIFKUJ_clean_linker_0, # of connection points: 2
#     Edge 98, Type (0, 1), BuildingBlock: MIFKUJ_clean_linker_0, # of connection points: 2
#     Edge 99, Type (0, 1), BuildingBlock: MIFKUJ_clean_linker_0, # of connection points: 2
#     Edge 100, Type (0, 1), BuildingBlock: MIFKUJ_clean_linker_0, # of connection points: 2
#     Edge 101, Type (0, 1), BuildingBlock: MIFKUJ_clean_linker_0, # of connection points: 2
#     Edge 102, Type (0, 1), BuildingBlock: MIFKUJ_clean_linker_0, # of connection points: 2
#     Edge 103, Type (0, 1), BuildingBlock: MIFKUJ_clean_linker_0, # of connection points: 2
#     Edge 104, Type (0, 1), BuildingBlock: MIFKUJ_clean_linker_0, # of connection points: 2
#     Edge 105, Type (0, 1), BuildingBlock: MIFKUJ_clean_linker_0, # of connection points: 2
#     Edge 106, Type (0, 1), BuildingBlock: MIFKUJ_clean_linker_0, # of connection points: 2
#     Edge 107, Type (0, 1), BuildingBlock: MIFKUJ_clean_linker_0, # of connection points: 2
# Relax obj value: 0.047
# Max RMSD: 0.104
# Mean RMSD: 0.081
data_MOF--net-ptr--node1-CEKHIL_clean_sbu_0--node2-KUFVIS_clean_linker_0--edge1-MIFKUJ_clean_linker_0
_symmetry_space_group_name_H-M    P1
_symmetry_Int_Tables_number       1
_symmetry_cell_setting            triclinic
loop_
_symmetry_equiv_pos_as_xyz
'x, y, z'
_cell_length_a     102.08041
_cell_length_b     101.10746
_cell_length_c     63.729271
_cell_angle_alpha  90.759999
_cell_angle_beta   89.670628
_cell_angle_gamma 120.85323
loop_
_atom_site_label
_atom_site_type_symbol
_atom_site_fract_x
_atom_site_fract_y
_atom_site_fract_z
_atom_type_partial_charge
Co0 Co 0.0087 0.35208 0.0117 0.0
O1 O 0.01664 0.34324 0.03083 0.0
O2 O 0.03091 0.3629 0.01026 0.0
C3 C 0.98993 0.32928 0.99823 0.0
O4 O 1.00453 0.364 0.9895 0.0
Co5 Co 0.97518 0.34486 0.0164 0.0
O6 O 0.97951 0.35613 0.98964 0.0
C7 C 0.99907 0.36706 0.04535 0.0
C8 C 0.03017 0.35325 0.02421 0.0
C9 C 0.99291 0.36426 0.98209 0.0
O10 O 0.00956 0.36682 0.03426 0.0
O11 O 0.98478 0.35801 0.04202 0.0
O12 O 1.00381 0.3354 0.99127 0.0
O13 O 0.98821 0.33634 0.014 0.0
Co14 Co 0.65876 0.6558 0.01266 0.0
O15 O 0.67517 0.66425 0.9924 0.0
O16 O 0.67109 0.64636 0.01538 0.0
C17 C 0.66192 0.67882 0.0233 0.0
O18 O 0.64369 0.64447 0.0364 0.0
Co19 Co 0.63066 0.65985 0.0096 0.0
O20 O 0.62534 0.65044 0.03773 0.0
C21 C 0.63146 0.63528 0.9846 0.0
C22 C 0.6794 0.65521 0.00021 0.0
C23 C 0.63179 0.64352 0.045 0.0
O24 O 0.64467 0.63911 0.99208 0.0
O25 O 0.62448 0.64246 0.98902 0.0
O26 O 0.67037 0.67389 0.03105 0.0
O27 O 0.65267 0.67033 0.00859 0.0
Co28 Co 0.35609 0.00662 0.01153 0.0
O29 O 0.34678 0.01455 0.99311 0.0
O30 O 0.36694 0.02905 0.01299 0.0
C31 C 0.33383 0.98765 0.02557 0.0
O32 O 0.36859 1.00275 0.03306 0.0
Co33 Co 0.34907 0.97285 0.00635 0.0
O34 O 0.36191 0.97779 0.03181 0.0
C35 C 0.37036 0.99672 0.97712 0.0
C36 C 0.357 0.02825 0.99955 0.0
C37 C 0.36976 0.99135 0.03956 0.0
O38 O 0.37016 0.00734 0.98832 0.0
O39 O 0.36156 0.98231 0.98053 0.0
O40 O 0.34006 1.00174 0.0326 0.0
O41 O 0.34045 0.98584 0.00946 0.0
Co42 Co 1.00317 0.65707 0.01179 0.0
O43 O 0.99544 0.66627 0.99293 0.0
O44 O 0.98093 0.64596 0.01234 0.0
C45 C 0.02135 0.6797 0.02644 0.0
O46 O 0.00704 0.64455 0.03344 0.0
Co47 Co 0.0369 0.66487 0.00877 0.0
O48 O 0.03231 0.65384 0.03577 0.0
C49 C 0.01397 0.64324 0.97808 0.0
C50 C 0.98182 0.65594 0.99884 0.0
C51 C 0.01866 0.64488 0.04196 0.0
O52 O 1.00311 0.64324 0.9885 0.0
O53 O 0.02812 0.65205 0.98264 0.0
O54 O 0.00734 0.67305 0.03303 0.0
O55 O 0.0236 0.67312 0.01052 0.0
Co56 Co 0.35422 0.35409 0.00958 0.0
O57 O 0.33812 0.34623 0.03034 0.0
O58 O 0.34269 0.36439 0.00753 0.0
C59 C 0.34982 0.33074 0.99816 0.0
O60 O 0.36926 0.36518 0.98569 0.0
Co61 Co 0.38135 0.34836 0.01165 0.0
O62 O 0.38739 0.35887 0.9843 0.0
C63 C 0.3818 0.37306 0.03793 0.0
C64 C 0.33439 0.35574 0.02284 0.0
C65 C 0.38123 0.36614 0.97726 0.0
O66 O 0.36897 0.37027 0.03018 0.0
O67 O 0.388 0.36514 0.03334 0.0
O68 O 0.3417 0.33629 0.99116 0.0
O69 O 0.35943 0.33882 0.01276 0.0
Co70 Co 0.65778 0.00418 0.01147 0.0
O71 O 0.66654 0.99657 0.03135 0.0
O72 O 0.64695 0.98173 0.0108 0.0
C73 C 0.68057 0.02258 0.998 0.0
O74 O 0.6459 0.00774 0.9885 0.0
Co75 Co 0.66505 0.03804 0.01318 0.0
O76 O 0.65561 0.03321 0.98492 0.0
C77 C 0.64124 0.01472 0.04122 0.0
C78 C 0.65659 0.98277 0.02494 0.0
C79 C 0.64671 0.01932 0.97893 0.0
O80 O 0.6432 0.00401 0.03342 0.0
O81 O 0.64933 0.02889 0.03597 0.0
O82 O 0.67415 0.00837 0.99145 0.0
O83 O 0.67365 0.02495 0.01327 0.0
Co84 Co 0.67808 0.68814 0.34212 0.0
O85 O 0.68531 0.67876 0.36157 0.0
O86 O 0.70026 0.69888 0.34203 0.0
C87 C 0.65954 0.6656 0.32756 0.0
O88 O 0.67507 0.70078 0.31976 0.0
Co89 Co 0.64475 0.68159 0.34361 0.0
O90 O 0.65016 0.69284 0.31677 0.0
C91 C 0.6678 0.70403 0.37361 0.0
C92 C 0.69905 0.68893 0.3558 0.0
C93 C 0.66397 0.70122 0.31086 0.0
O94 O 0.6784 0.70255 0.36481 0.0
O95 O 0.65372 0.69593 0.36833 0.0
O96 O 0.67362 0.67177 0.32136 0.0
O97 O 0.65739 0.67254 0.34311 0.0
Co98 Co 0.32586 0.98792 0.34861 0.0
O99 O 0.34269 0.9963 0.329 0.0
O100 O 0.33643 0.97657 0.34972 0.0
C101 C 0.33065 0.0108 0.36231 0.0
O102 O 0.30966 0.97612 0.371 0.0
Co103 Co 0.29992 0.99556 0.34526 0.0
O104 O 0.29187 0.98295 0.37088 0.0
C105 C 0.30131 0.97396 0.31504 0.0
C106 C 0.34549 0.98584 0.33539 0.0
C107 C 0.29735 0.97511 0.3782 0.0
O108 O 0.31156 0.97348 0.32616 0.0
O109 O 0.29661 0.98331 0.31879 0.0
O110 O 0.33824 0.00455 0.36892 0.0
O111 O 0.32162 0.00384 0.34674 0.0
Co112 Co 0.02444 0.34239 0.34599 0.0
O113 O 0.01585 0.35087 0.32721 0.0
O114 O 0.03515 0.36475 0.34869 0.0
C115 C 1.00174 0.32305 0.35857 0.0
O116 O 0.0363 0.33788 0.36784 0.0
Co117 Co 0.01752 0.3088 0.33927 0.0
O118 O 0.02991 0.31305 0.36504 0.0
C119 C 0.0397 0.33355 0.31178 0.0
C120 C 0.02588 0.3644 0.33446 0.0
C121 C 0.03748 0.32635 0.37367 0.0
O122 O 0.03921 0.34381 0.32344 0.0
O123 O 0.03079 0.31904 0.31429 0.0
O124 O 0.00781 0.33695 0.36623 0.0
O125 O 0.00879 0.32167 0.34263 0.0
Co126 Co 0.66859 0.989 0.34778 0.0
O127 O 0.66029 0.99759 0.32877 0.0
O128 O 0.6465 0.97835 0.35031 0.0
C129 C 0.68771 0.01199 0.36048 0.0
O130 O 0.6729 0.97708 0.36974 0.0
Co131 Co 0.70176 0.99569 0.34257 0.0
O132 O 0.69771 0.98425 0.36915 0.0
C133 C 0.67746 0.97361 0.31384 0.0
C134 C 0.64693 0.98763 0.33601 0.0
C135 C 0.68434 0.97637 0.37685 0.0
O136 O 0.66719 0.97407 0.32515 0.0
O137 O 0.6918 0.98243 0.31709 0.0
O138 O 0.67399 0.00585 0.36809 0.0
O139 O 0.68911 0.00472 0.34467 0.0
Co140 Co 0.02069 0.68753 0.34503 0.0
O141 O 1.00263 0.67802 0.36227 0.0
O142 O 0.0091 0.69776 0.34151 0.0
C143 C 0.01796 0.66522 0.3321 0.0
O144 O 0.03812 0.70005 0.32447 0.0
Co145 Co 0.04726 0.68165 0.35401 0.0
O146 O 0.05679 0.69468 0.32909 0.0
C147 C 0.04331 0.70325 0.38103 0.0
C148 C 0.99937 0.68785 0.35476 0.0
C149 C 0.05123 0.7018 0.31978 0.0
O150 O 0.03297 0.70234 0.36858 0.0
O151 O 0.0492 0.69476 0.37905 0.0
O152 O 0.01043 0.67105 0.3239 0.0
O153 O 0.02567 0.67221 0.34874 0.0
Co154 Co 0.325 0.33538 0.34071 0.0
O155 O 0.33465 0.32817 0.35966 0.0
O156 O 0.31464 0.31298 0.33994 0.0
C157 C 0.34713 0.35426 0.32627 0.0
O158 O 0.31213 0.33847 0.3189 0.0
Co159 Co 0.33134 0.36887 0.34444 0.0
O160 O 0.3181 0.36321 0.31929 0.0
C161 C 0.3103 0.34537 0.37431 0.0
C162 C 0.32469 0.31428 0.35358 0.0
C163 C 0.31047 0.34948 0.31203 0.0
O164 O 0.31089 0.33472 0.36375 0.0
O165 O 0.31872 0.35973 0.3703 0.0
O166 O 0.34091 0.34009 0.31965 0.0
O167 O 0.34048 0.3563 0.3422 0.0
Co168 Co 0.34309 0.02067 0.67556 0.0
O169 O 0.35142 0.01237 0.69507 0.0
O170 O 0.36523 0.03187 0.67399 0.0
C171 C 0.3245 0.99759 0.66242 0.0
O172 O 0.33886 0.03235 0.6531 0.0
Co173 Co 0.30952 0.01323 0.67947 0.0
O174 O 0.31404 0.02519 0.65331 0.0
C175 C 0.33309 0.03568 0.70866 0.0
C176 C 0.36485 0.02265 0.68835 0.0
C177 C 0.32748 0.0331 0.64584 0.0
O178 O 0.3437 0.03543 0.69789 0.0
O179 O 0.31885 0.0266 0.70498 0.0
O180 O 0.3384 0.00383 0.65547 0.0
O181 O 0.32263 0.00474 0.67795 0.0
Co182 Co 0.99533 0.32461 0.67832 0.0
O183 O 0.01219 0.33367 0.65883 0.0
O184 O 1.00634 0.31365 0.67876 0.0
C185 C 0.99987 0.34733 0.6925 0.0
O186 O 0.97941 0.31236 0.70078 0.0
Co187 Co 0.96891 0.33152 0.67664 0.0
O188 O 0.96242 0.32017 0.70346 0.0
C189 C 0.96999 0.30998 0.64577 0.0
C190 C 0.01542 0.32347 0.66493 0.0
C191 C 0.96781 0.31195 0.7096 0.0
O192 O 0.98102 0.31018 0.65582 0.0
O193 O 0.96477 0.31878 0.65041 0.0
O194 O 0.00751 0.34107 0.69888 0.0
O195 O 0.99073 0.34034 0.67703 0.0
Co196 Co 0.68841 0.67215 0.67666 0.0
O197 O 0.6791 0.68016 0.65846 0.0
O198 O 0.69946 0.69459 0.67802 0.0
C199 C 0.6661 0.65357 0.69104 0.0
O200 O 0.70096 0.66814 0.69788 0.0
Co201 Co 0.68079 0.63829 0.67164 0.0
O202 O 0.6941 0.64314 0.69657 0.0
C203 C 0.70219 0.66184 0.64211 0.0
C204 C 0.68945 0.69384 0.66475 0.0
C205 C 0.70212 0.65672 0.70423 0.0
O206 O 0.7021 0.67259 0.65315 0.0
O207 O 0.69334 0.64748 0.64577 0.0
O208 O 0.67281 0.66765 0.69816 0.0
O209 O 0.67239 0.65149 0.67473 0.0
Co210 Co 0.3394 0.32358 0.67728 0.0
O211 O 0.33101 0.33174 0.65764 0.0
O212 O 0.31732 0.31328 0.68019 0.0
C213 C 0.3588 0.34686 0.68864 0.0
O214 O 0.34386 0.31231 0.7002 0.0
Co215 Co 0.37249 0.32986 0.67228 0.0
O216 O 0.3688 0.31995 0.70001 0.0
C217 C 0.34769 0.30652 0.64509 0.0
C218 C 0.31769 0.32222 0.66542 0.0
C219 C 0.35547 0.31217 0.70787 0.0
O220 O 0.33758 0.30785 0.65564 0.0
O221 O 0.36206 0.31515 0.64828 0.0
O222 O 0.34519 0.34115 0.69644 0.0
O223 O 0.35993 0.33899 0.67341 0.0
Co224 Co 0.68656 0.02087 0.67505 0.0
O225 O 0.66878 0.0117 0.69289 0.0
O226 O 0.67562 0.03188 0.67284 0.0
C227 C 0.68254 0.99824 0.66156 0.0
O228 O 0.70369 0.03324 0.65401 0.0
Co229 Co 0.71255 0.01376 0.68031 0.0
O230 O 0.71982 0.02431 0.65302 0.0
C231 C 0.71088 0.03615 0.70908 0.0
C232 C 0.66592 0.02201 0.68614 0.0
C233 C 0.71522 0.033 0.64607 0.0
O234 O 0.69961 0.0351 0.6986 0.0
O235 O 0.71672 0.0278 0.70511 0.0
O236 O 0.67556 0.00475 0.65365 0.0
O237 O 0.6908 0.00498 0.67789 0.0
Co238 Co 0.99035 0.66822 0.68049 0.0
O239 O 0.99869 0.6596 0.69945 0.0
O240 O 0.97936 0.64584 0.67792 0.0
C241 C 0.0132 0.68711 0.66772 0.0
O242 O 0.97869 0.67288 0.65847 0.0
Co243 Co 0.99784 0.70199 0.68644 0.0
O244 O 0.9858 0.69793 0.66037 0.0
C245 C 0.97505 0.67766 0.71401 0.0
C246 C 0.98858 0.64612 0.69218 0.0
C247 C 0.97793 0.68455 0.65211 0.0
O248 O 0.97577 0.66723 0.70304 0.0
O249 O 0.98388 0.69211 0.71096 0.0
O250 O 1.00677 0.67315 0.66021 0.0
O251 O 1.00634 0.68886 0.68364 0.0
H252 H 0.22364 0.34566 0.14548 0.0
H253 H 0.19359 0.35622 0.11296 0.0
H254 H 0.18268 0.33728 0.17579 0.0
H255 H 0.1697 0.34906 0.17788 0.0
H256 H 0.13225 0.34565 0.14354 0.0
H257 H 0.16842 0.34539 0.10976 0.0
C258 C 0.21312 0.3459 0.14512 0.0
C259 C 0.20362 0.34111 0.16263 0.0
C260 C 0.20952 0.35126 0.12728 0.0
C261 C 0.19596 0.35169 0.12678 0.0
C262 C 0.18591 0.34678 0.14427 0.0
C263 C 0.19004 0.34148 0.16221 0.0
C264 C 0.17124 0.34711 0.14388 0.0
C265 C 0.1643 0.34791 0.16288 0.0
C266 C 0.15006 0.34693 0.16277 0.0
C267 C 0.14309 0.34608 0.14365 0.0
C268 C 0.14979 0.34588 0.12463 0.0
C269 C 0.16376 0.34622 0.12466 0.0
H270 H 0.66777 0.88204 0.14423 0.0
H271 H 0.66878 0.84598 0.1097 0.0
H272 H 0.66448 0.84431 0.17777 0.0
H273 H 0.67446 0.8303 0.17726 0.0
H274 H 0.66674 0.78909 0.1472 0.0
H275 H 0.66134 0.82152 0.11136 0.0
C276 C 0.66762 0.87121 0.14406 0.0
C277 C 0.66671 0.86405 0.16297 0.0
C278 C 0.66792 0.86455 0.12492 0.0
C279 C 0.66792 0.85057 0.1247 0.0
C280 C 0.66714 0.84299 0.1438 0.0
C281 C 0.66593 0.8498 0.16283 0.0
C282 C 0.66761 0.82819 0.14424 0.0
C283 C 0.67119 0.82332 0.16314 0.0
C284 C 0.67047 0.80911 0.16423 0.0
C285 C 0.66706 0.79997 0.14627 0.0
C286 C 0.6641 0.80455 0.12718 0.0
C287 C 0.66426 0.81856 0.12613 0.0
H288 H 0.21948 0.88459 0.14185 0.0
H289 H 0.18426 0.846 0.10797 0.0
H290 H 0.1812 0.85021 0.17561 0.0
H291 H 0.1664 0.82561 0.17525 0.0
H292 H 0.12414 0.79437 0.14545 0.0
H293 H 0.15933 0.83085 0.10936 0.0
C294 C 0.20861 0.87382 0.14187 0.0
C295 C 0.20112 0.8679 0.16079 0.0
C296 C 0.20246 0.86615 0.12291 0.0
C297 C 0.18857 0.85192 0.12283 0.0
C298 C 0.18048 0.84562 0.14188 0.0
C299 C 0.18705 0.85401 0.16077 0.0
C300 C 0.16512 0.83079 0.14233 0.0
C301 C 0.15946 0.82238 0.16125 0.0
C302 C 0.14459 0.80962 0.16243 0.0
C303 C 0.13549 0.80452 0.14455 0.0
C304 C 0.14094 0.81188 0.12538 0.0
C305 C 0.15564 0.82507 0.12424 0.0
H306 H 0.3515 0.13202 0.87826 0.0
H307 H 0.35228 0.16911 0.91261 0.0
H308 H 0.34466 0.16423 0.84508 0.0
H309 H 0.35199 0.18807 0.84487 0.0
H310 H 0.33998 0.21792 0.8758 0.0
H311 H 0.34249 0.18387 0.91191 0.0
C312 C 0.35079 0.14238 0.87845 0.0
C313 C 0.34855 0.14784 0.85972 0.0
C314 C 0.35191 0.14986 0.89748 0.0
C315 C 0.35105 0.16338 0.8977 0.0
C316 C 0.34866 0.16923 0.87875 0.0
C317 C 0.34725 0.16097 0.85985 0.0
C318 C 0.34707 0.1834 0.8784 0.0
C319 C 0.34854 0.19119 0.85925 0.0
C320 C 0.34547 0.20321 0.8583 0.0
C321 C 0.34185 0.20829 0.87658 0.0
C322 C 0.34118 0.20163 0.89592 0.0
C323 C 0.34363 0.18913 0.89685 0.0
H324 H 0.78813 0.13054 0.87229 0.0
H325 H 0.82906 0.15867 0.90757 0.0
H326 H 0.82456 0.17037 0.84363 0.0
H327 H 0.84892 0.18173 0.84238 0.0
H328 H 0.88644 0.21689 0.87713 0.0
H329 H 0.84688 0.18349 0.91053 0.0
C330 C 0.79947 0.1407 0.87342 0.0
C331 C 0.80569 0.15011 0.85604 0.0
C332 C 0.80776 0.1438 0.89199 0.0
C333 C 0.82266 0.15676 0.89326 0.0
C334 C 0.82929 0.16668 0.87578 0.0
C335 C 0.82037 0.16313 0.85727 0.0
C336 C 0.8454 0.18044 0.87643 0.0
C337 C 0.85363 0.18682 0.85753 0.0
C338 C 0.86818 0.20011 0.85786 0.0
C339 C 0.87514 0.20663 0.87698 0.0
C340 C 0.86766 0.20045 0.89589 0.0
C341 C 0.85269 0.18762 0.8957 0.0
H342 H 0.79268 0.67049 0.87821 0.0
H343 H 0.82252 0.65953 0.91047 0.0
H344 H 0.82839 0.67001 0.8439 0.0
H345 H 0.8396 0.65708 0.84263 0.0
H346 H 0.87747 0.65848 0.87257 0.0
H347 H 0.84703 0.66654 0.90969 0.0
C348 C 0.80256 0.66914 0.87795 0.0
C349 C 0.80989 0.67029 0.85895 0.0
C350 C 0.80723 0.66558 0.89653 0.0
C351 C 0.81947 0.66284 0.89608 0.0
C352 C 0.82756 0.6644 0.87713 0.0
C353 C 0.82251 0.66826 0.85867 0.0
C354 C 0.84113 0.66208 0.87636 0.0
C355 C 0.8459 0.65881 0.85697 0.0
C356 C 0.85904 0.65776 0.85569 0.0
C357 C 0.86728 0.65928 0.87378 0.0
C358 C 0.86292 0.66225 0.89325 0.0
C359 C 0.84987 0.66367 0.89461 0.0
H360 H 0.88819 0.67326 0.47754 0.0
H361 H 0.85471 0.67788 0.44406 0.0
H362 H 0.85528 0.6782 0.51246 0.0
H363 H 0.83278 0.67334 0.51219 0.0
H364 H 0.7989 0.67779 0.48002 0.0
H365 H 0.83728 0.68343 0.44531 0.0
C366 C 0.87819 0.67441 0.47775 0.0
C367 C 0.8719 0.67499 0.49695 0.0
C368 C 0.87221 0.6758 0.45884 0.0
C369 C 0.85929 0.6774 0.45906 0.0
C370 C 0.85234 0.67788 0.4783 0.0
C371 C 0.85938 0.67722 0.49724 0.0
C372 C 0.83768 0.6785 0.47871 0.0
C373 C 0.82922 0.67584 0.49763 0.0
C374 C 0.81542 0.67573 0.49807 0.0
C375 C 0.80965 0.67801 0.47964 0.0
C376 C 0.81743 0.68059 0.46071 0.0
C377 C 0.83151 0.68112 0.46022 0.0
H378 H 0.32743 0.21006 0.47763 0.0
H379 H 0.33957 0.18109 0.44383 0.0
H380 H 0.32878 0.17422 0.51038 0.0
H381 H 0.34182 0.16305 0.51086 0.0
H382 H 0.3452 0.12815 0.4772 0.0
H383 H 0.33343 0.15684 0.44358 0.0
C384 C 0.32915 0.20031 0.47742 0.0
C385 C 0.32791 0.19265 0.49603 0.0
C386 C 0.33318 0.19607 0.45867 0.0
C387 C 0.33593 0.18376 0.45842 0.0
C388 C 0.33445 0.17546 0.47705 0.0
C389 C 0.33033 0.18017 0.4958 0.0
C390 C 0.33746 0.16223 0.47711 0.0
C391 C 0.34095 0.15733 0.49605 0.0
C392 C 0.34362 0.14499 0.49615 0.0
C393 C 0.34338 0.13781 0.47722 0.0
C394 C 0.33994 0.14222 0.45838 0.0
C395 C 0.33669 0.15415 0.45829 0.0
H396 H 0.88573 0.22063 0.47505 0.0
H397 H 0.85364 0.18053 0.44049 0.0
H398 H 0.84939 0.18364 0.50818 0.0
H399 H 0.83513 0.15958 0.50823 0.0
H400 H 0.79861 0.12207 0.47525 0.0
H401 H 0.83 0.16198 0.44078 0.0
C402 C 0.87547 0.20931 0.47484 0.0
C403 C 0.86827 0.20264 0.49367 0.0
C404 C 0.87005 0.20153 0.45573 0.0
C405 C 0.85718 0.18649 0.45544 0.0
C406 C 0.84918 0.17944 0.47432 0.0
C407 C 0.85503 0.18798 0.49336 0.0
C408 C 0.83497 0.16341 0.47441 0.0
C409 C 0.82936 0.15507 0.49344 0.0
C410 C 0.81619 0.14035 0.49374 0.0
C411 C 0.80877 0.13347 0.475 0.0
C412 C 0.81388 0.14113 0.45599 0.0
C413 C 0.8267 0.15617 0.45566 0.0
H414 H 0.01594 0.46443 0.21202 0.0
H415 H 0.02334 0.50514 0.24423 0.0
H416 H 0.01 0.49726 0.17849 0.0
H417 H 0.02107 0.52212 0.1768 0.0
H418 H 0.01578 0.55665 0.2082 0.0
H419 H 0.01281 0.51972 0.24406 0.0
C420 C 0.016 0.4752 0.21187 0.0
C421 C 0.01293 0.48016 0.19321 0.0
C422 C 0.01955 0.48402 0.23024 0.0
C423 C 0.02011 0.49826 0.22997 0.0
C424 C 0.01674 0.50353 0.21126 0.0
C425 C 0.01309 0.49412 0.19298 0.0
C426 C 0.01687 0.51859 0.21057 0.0
C427 C 0.01883 0.52633 0.19125 0.0
C428 C 0.01834 0.53996 0.19039 0.0
C429 C 0.01615 0.54612 0.20884 0.0
C430 C 0.01435 0.53898 0.2281 0.0
C431 C 0.01468 0.52526 0.22904 0.0
H432 H 0.45696 0.46429 0.21152 0.0
H433 H 0.49936 0.49195 0.24379 0.0
H434 H 0.4938 0.50206 0.17957 0.0
H435 H 0.51795 0.5098 0.17706 0.0
H436 H 0.5582 0.54464 0.20775 0.0
H437 H 0.51782 0.51758 0.24427 0.0
C438 C 0.46846 0.47422 0.21166 0.0
C439 C 0.47449 0.48274 0.19342 0.0
C440 C 0.47725 0.47763 0.22981 0.0
C441 C 0.49252 0.4899 0.22987 0.0
C442 C 0.49895 0.49897 0.21168 0.0
C443 C 0.48955 0.4953 0.19365 0.0
C444 C 0.51551 0.51167 0.2109 0.0
C445 C 0.52345 0.51578 0.19149 0.0
C446 C 0.53876 0.52766 0.19038 0.0
C447 C 0.54647 0.53518 0.20873 0.0
C448 C 0.5391 0.53151 0.22815 0.0
C449 C 0.52354 0.51994 0.22925 0.0
H450 H 0.45737 0.99906 0.21072 0.0
H451 H 0.48514 0.98519 0.24232 0.0
H452 H 0.49575 1.00232 0.17855 0.0
H453 H 0.5069 0.98913 0.17612 0.0
H454 H 0.54115 0.98528 0.20894 0.0
H455 H 0.50961 0.99255 0.24421 0.0
C456 C 0.46736 0.99788 0.21073 0.0
C457 C 0.47612 1.00107 0.19256 0.0
C458 C 0.47072 0.99239 0.22864 0.0
C459 C 0.48318 0.99004 0.22852 0.0
C460 C 0.49268 0.99363 0.21054 0.0
C461 C 0.48887 0.99922 0.1926 0.0
C462 C 0.5062 0.99124 0.21022 0.0
C463 C 0.51212 0.98933 0.1909 0.0
C464 C 0.52476 0.9873 0.19034 0.0
C465 C 0.53123 0.98658 0.20921 0.0
C466 C 0.52559 0.98806 0.22855 0.0
C467 C 0.51337 0.9908 0.22909 0.0
H468 H 0.5592 0.01749 0.80863 0.0
H469 H 0.52128 0.01443 0.77598 0.0
H470 H 0.5247 0.01979 0.84393 0.0
H471 H 0.50021 0.00941 0.84332 0.0
H472 H 0.46661 0.01547 0.81264 0.0
H473 H 0.50613 0.02377 0.77818 0.0
C474 C 0.54852 0.0174 0.80909 0.0
C475 C 0.54256 0.01846 0.82837 0.0
C476 C 0.54099 0.01618 0.79035 0.0
C477 C 0.52704 0.01584 0.79074 0.0
C478 C 0.52059 0.01697 0.81004 0.0
C479 C 0.52872 0.01836 0.82884 0.0
C480 C 0.50553 0.01661 0.81063 0.0
C481 C 0.49668 0.01264 0.82931 0.0
C482 C 0.48277 0.01234 0.83004 0.0
C483 C 0.47735 0.01567 0.81205 0.0
C484 C 0.48562 0.01957 0.7934 0.0
C485 C 0.49974 0.02022 0.79266 0.0
H486 H 0.99461 0.54348 0.81516 0.0
H487 H 0.99399 0.50674 0.77982 0.0
H488 H 1.00635 0.5139 0.84596 0.0
H489 H 0.99775 0.48946 0.84652 0.0
H490 H 0.01055 0.46049 0.81464 0.0
H491 H 1.00621 0.4938 0.77927 0.0
C492 C 0.99602 0.53354 0.81441 0.0
C493 C 1.00016 0.52903 0.83249 0.0
C494 C 0.99401 0.52575 0.79535 0.0
C495 C 0.99596 0.51287 0.79457 0.0
C496 C 1.00005 0.5079 0.81296 0.0
C497 C 1.00244 0.51653 0.83176 0.0
C498 C 1.00213 0.49408 0.81294 0.0
C499 C 1.00117 0.48643 0.83201 0.0
C500 C 1.00476 0.47478 0.83269 0.0
C501 C 0.00833 0.4699 0.81415 0.0
C502 C 0.00843 0.47639 0.7949 0.0
C503 C 1.00549 0.48857 0.79424 0.0
H504 H 0.55701 0.54703 0.81418 0.0
H505 H 0.51531 0.51991 0.78008 0.0
H506 H 0.52089 0.50637 0.84223 0.0
H507 H 0.4964 0.49848 0.84485 0.0
H508 H 0.45723 0.46391 0.81187 0.0
H509 H 0.4978 0.49389 0.77717 0.0
C510 C 0.54567 0.53689 0.81321 0.0
C511 C 0.53988 0.52702 0.8303 0.0
C512 C 0.53701 0.53438 0.79511 0.0
C513 C 0.52208 0.52149 0.79393 0.0
C514 C 0.51578 0.51125 0.81109 0.0
C515 C 0.52506 0.51412 0.82906 0.0
C516 C 0.49943 0.49808 0.81095 0.0
C517 C 0.49122 0.49292 0.83007 0.0
C518 C 0.47606 0.48065 0.83036 0.0
C519 C 0.46882 0.47368 0.81149 0.0
C520 C 0.47643 0.4785 0.79226 0.0
C521 C 0.49184 0.49054 0.79202 0.0
H522 H 0.69052 0.80115 0.54617 0.0
H523 H 0.67995 0.83187 0.57839 0.0
H524 H 0.68795 0.83532 0.51101 0.0
H525 H 0.67601 0.84747 0.51011 0.0
H526 H 0.67639 0.88535 0.54089 0.0
H527 H 0.68619 0.85604 0.57686 0.0
C528 C 0.68887 0.81093 0.54576 0.0
C529 C 0.6892 0.81754 0.52658 0.0
C530 C 0.68576 0.8162 0.56435 0.0
C531 C 0.68292 0.82844 0.56384 0.0
C532 C 0.6837 0.83585 0.54461 0.0
C533 C 0.68692 0.8301 0.52606 0.0
C534 C 0.68122 0.84941 0.54375 0.0
C535 C 0.67764 0.85389 0.5245 0.0
C536 C 0.67615 0.86693 0.5235 0.0
C537 C 0.67749 0.87524 0.54173 0.0
C538 C 0.68085 0.87115 0.56089 0.0
C539 C 0.68292 0.85845 0.56194 0.0
H540 H 0.1218 0.79534 0.5476 0.0
H541 H 0.16401 0.82284 0.58046 0.0
H542 H 0.15829 0.83424 0.51696 0.0
H543 H 0.18291 0.84393 0.51484 0.0
H544 H 0.22196 0.87833 0.54838 0.0
H545 H 0.1814 0.84835 0.5826 0.0
C546 C 0.13331 0.80529 0.54805 0.0
C547 C 0.13919 0.81444 0.53032 0.0
C548 C 0.14214 0.80829 0.56607 0.0
C549 C 0.1572 0.82096 0.56656 0.0
C550 C 0.16351 0.83064 0.54883 0.0
C551 C 0.15416 0.82714 0.53077 0.0
C552 C 0.17982 0.84398 0.5488 0.0
C553 C 0.18804 0.84938 0.52968 0.0
C554 C 0.20319 0.86182 0.52946 0.0
C555 C 0.21038 0.86858 0.54844 0.0
C556 C 0.20268 0.86369 0.56751 0.0
C557 C 0.18735 0.85159 0.56774 0.0
H558 H 0.12866 0.33727 0.54638 0.0
H559 H 0.15981 0.32821 0.57791 0.0
H560 H 0.16384 0.33705 0.51067 0.0
H561 H 0.18199 0.33336 0.50928 0.0
H562 H 0.21597 0.32895 0.54106 0.0
H563 H 0.1808 0.32897 0.57744 0.0
C564 C 0.13868 0.33619 0.54573 0.0
C565 C 0.14578 0.33744 0.52654 0.0
C566 C 0.14378 0.33291 0.56404 0.0
C567 C 0.15649 0.33098 0.56337 0.0
C568 C 0.16452 0.33267 0.54425 0.0
C569 C 0.15864 0.33573 0.52582 0.0
C570 C 0.17882 0.33134 0.54351 0.0
C571 C 0.18621 0.3321 0.52411 0.0
C572 C 0.19968 0.33159 0.52339 0.0
C573 C 0.20564 0.32952 0.5418 0.0
C574 C 0.19867 0.32827 0.56111 0.0
C575 C 0.18554 0.32954 0.56209 0.0
H576 H 0.02365 0.39653 0.04537 0.0
H577 H 0.02738 0.41797 0.06806 0.0
H578 H 0.98764 0.38663 0.10396 0.0
H579 H 0.98363 0.36539 0.081 0.0
H580 H 0.9855 0.41013 0.09301 0.0
H581 H 0.02541 0.40396 0.1231 0.0
H582 H 0.04887 0.40262 0.12237 0.0
H583 H 0.07405 0.44852 0.09815 0.0
H584 H 0.05069 0.45006 0.09849 0.0
H585 H 0.99166 0.4499 0.18757 0.0
H586 H 0.99033 0.43297 0.15886 0.0
H587 H 0.02716 0.4719 0.1273 0.0
H588 H 0.0285 0.48893 0.15619 0.0
H589 H 0.03229 0.44772 0.13164 0.0
H590 H 0.99252 0.45464 0.10587 0.0
H591 H 0.96899 0.45578 0.10762 0.0
H592 H 0.94333 0.40809 0.12457 0.0
H593 H 0.96675 0.4067 0.12323 0.0
C594 C 0.01596 0.39419 0.05844 0.0
C595 C 1.00333 0.3793 0.0614 0.0
C596 C 0.01807 0.40645 0.07137 0.0
C597 C 0.00774 0.40395 0.0877 0.0
C598 C 0.99566 0.38891 0.09135 0.0
C599 C 0.99343 0.37674 0.07829 0.0
C600 C 0.00876 0.41697 0.10023 0.0
C601 C 0.9957 0.41825 0.10162 0.0
C602 C 0.02224 0.42798 0.11079 0.0
C603 C 0.03627 0.42706 0.11059 0.0
C604 C 0.03593 0.41372 0.11745 0.0
C605 C 0.04921 0.41293 0.11715 0.0
C606 C 0.06293 0.42546 0.11016 0.0
C607 C 0.06341 0.43882 0.10352 0.0
C608 C 0.05015 0.43966 0.10378 0.0
C609 C 0.99921 0.45488 0.17424 0.0
C610 C 0.01014 0.47069 0.17399 0.0
C611 C 0.99845 0.44522 0.15785 0.0
C612 C 0.00863 0.45118 0.14092 0.0
C613 C 0.01919 0.46709 0.14021 0.0
C614 C 0.01985 0.47681 0.15658 0.0
C615 C 0.00887 0.44048 0.12494 0.0
C616 C 0.02216 0.43969 0.12283 0.0
C617 C 0.99557 0.42984 0.1138 0.0
C618 C 0.98143 0.4306 0.11457 0.0
C619 C 0.98189 0.44442 0.11013 0.0
C620 C 0.96856 0.44511 0.11102 0.0
C621 C 0.95468 0.43202 0.11624 0.0
C622 C 0.95409 0.41821 0.12054 0.0
C623 C 0.96739 0.41747 0.11968 0.0
H624 H 0.94437 0.43258 0.11691 0.0
H625 H 0.0732 0.42483 0.10993 0.0
H626 H 0.64114 0.62582 0.06509 0.0
H627 H 0.62643 0.60499 0.08979 0.0
H628 H 0.59003 0.61483 0.08814 0.0
H629 H 0.60476 0.63589 0.06408 0.0
H630 H 0.59331 0.60753 0.12668 0.0
H631 H 0.59012 0.58579 0.05668 0.0
H632 H 0.60215 0.58252 0.02488 0.0
H633 H 0.62315 0.56319 0.06182 0.0
H634 H 0.61138 0.56649 0.09386 0.0
H635 H 0.52996 0.53961 0.15944 0.0
H636 H 0.54665 0.55763 0.13265 0.0
H637 H 0.5823 0.54889 0.1498 0.0
H638 H 0.56569 0.53102 0.17685 0.0
H639 H 0.58086 0.55505 0.10452 0.0
H640 H 0.58456 0.57595 0.1737 0.0
H641 H 0.57397 0.57968 0.20661 0.0
H642 H 0.55365 0.60104 0.17256 0.0
H643 H 0.56387 0.59713 0.13936 0.0
C644 C 0.63012 0.62374 0.07025 0.0
C645 C 0.6241 0.63248 0.06237 0.0
C646 C 0.62166 0.61173 0.08427 0.0
C647 C 0.60694 0.60808 0.09043 0.0
C648 C 0.6013 0.61734 0.08352 0.0
C649 C 0.60978 0.62941 0.0697 0.0
C650 C 0.59702 0.59424 0.10323 0.0
C651 C 0.59051 0.59607 0.12169 0.0
C652 C 0.59362 0.57926 0.09708 0.0
C653 C 0.6 0.57652 0.07767 0.0
C654 C 0.59731 0.58085 0.058 0.0
C655 C 0.6041 0.57902 0.03995 0.0
C656 C 0.61349 0.57276 0.04138 0.0
C657 C 0.61592 0.56809 0.06078 0.0
C658 C 0.60918 0.56992 0.07887 0.0
C659 C 0.5411 0.541 0.15683 0.0
C660 C 0.54657 0.53396 0.17015 0.0
C661 C 0.55066 0.55137 0.14165 0.0
C662 C 0.56576 0.55471 0.13946 0.0
C663 C 0.57069 0.54645 0.15123 0.0
C664 C 0.5612 0.53624 0.16662 0.0
C665 C 0.57694 0.56841 0.12753 0.0
C666 C 0.5837 0.56654 0.1094 0.0
C667 C 0.58072 0.58339 0.13405 0.0
C668 C 0.57483 0.58609 0.15402 0.0
C669 C 0.57773 0.58132 0.17321 0.0
C670 C 0.57181 0.58348 0.19191 0.0
C671 C 0.56311 0.59056 0.19167 0.0
C672 C 0.56037 0.59554 0.17272 0.0
C673 C 0.56622 0.59335 0.15395 0.0
H674 H 0.55854 0.59222 0.20616 0.0
H675 H 0.61889 0.5715 0.02745 0.0
H676 H 0.38558 0.01628 0.06649 0.0
H677 H 0.40553 0.02058 0.09169 0.0
H678 H 0.40104 0.97728 0.07287 0.0
H679 H 0.38085 0.97265 0.0486 0.0
H680 H 0.4035 0.9793 0.11235 0.0
H681 H 0.4315 0.01477 0.05666 0.0
H682 H 0.43803 0.03632 0.03283 0.0
H683 H 0.44837 0.06688 0.08571 0.0
H684 H 0.44172 0.04546 0.10986 0.0
H685 H 0.46981 0.98636 0.15457 0.0
H686 H 0.45418 0.98773 0.12656 0.0
H687 H 0.4536 0.02496 0.15946 0.0
H688 H 0.46918 0.02359 0.18752 0.0
H689 H 0.4542 0.02739 0.11409 0.0
H690 H 0.42622 0.99149 0.16934 0.0
H691 H 0.42059 0.96997 0.19272 0.0
H692 H 0.41065 0.93996 0.13926 0.0
H693 H 0.41651 0.96142 0.11555 0.0
C694 C 0.3888 0.00766 0.06785 0.0
C695 C 0.38152 0.99409 0.05554 0.0
C696 C 0.40032 0.01018 0.08215 0.0
C697 C 0.40502 0.99936 0.08406 0.0
C698 C 0.39766 0.98582 0.07184 0.0
C699 C 0.38605 0.98318 0.0579 0.0
C700 C 0.4174 1.0018 0.09888 0.0
C701 C 0.41462 0.98977 0.11244 0.0
C702 C 0.43189 0.01559 0.09956 0.0
C703 C 0.43597 0.02848 0.08506 0.0
C704 C 0.43507 0.02606 0.0632 0.0
C705 C 0.43881 0.03826 0.04964 0.0
C706 C 0.44357 0.05295 0.05776 0.0
C707 C 0.44466 0.05549 0.07945 0.0
C708 C 0.44092 0.04333 0.09308 0.0
C709 C 0.46684 0.99522 0.15541 0.0
C710 C 0.47065 0.00483 0.17324 0.0
C711 C 0.45783 0.99593 0.13949 0.0
C712 C 0.45255 0.00631 0.14108 0.0
C713 C 0.45753 0.01687 0.15791 0.0
C714 C 0.46641 0.01606 0.17393 0.0
C715 C 0.44029 0.00474 0.1269 0.0
C716 C 0.44306 0.01694 0.11376 0.0
C717 C 0.4258 0.99108 0.12643 0.0
C718 C 0.42194 0.97809 0.14067 0.0
C719 C 0.42293 0.98033 0.16257 0.0
C720 C 0.4197 0.96814 0.17588 0.0
C721 C 0.4153 0.95361 0.16748 0.0
C722 C 0.41408 0.95123 0.14575 0.0
C723 C 0.41735 0.9634 0.13237 0.0
H724 H 0.4128 0.94419 0.1778 0.0
H725 H 0.44645 0.06238 0.04723 0.0
H726 H 0.39914 0.02227 0.97613 0.0
H727 H 0.4203 0.02613 0.95349 0.0
H728 H 0.38977 0.9844 0.91925 0.0
H729 H 0.36881 0.98028 0.94213 0.0
H730 H 0.41389 0.98372 0.93026 0.0
H731 H 0.40529 0.02164 0.89832 0.0
H732 H 0.40271 0.04459 0.89785 0.0
H733 H 0.44837 0.07248 0.9215 0.0
H734 H 0.45115 0.04964 0.92237 0.0
H735 H 0.45358 0.98935 0.83641 0.0
H736 H 0.43663 0.9876 0.86488 0.0
H737 H 0.4742 0.02709 0.89544 0.0
H738 H 0.49125 0.02882 0.86676 0.0
H739 H 0.44935 0.03044 0.89029 0.0
H740 H 0.45855 0.99242 0.91819 0.0
H741 H 0.46082 0.96929 0.91764 0.0
H742 H 0.41356 0.94128 0.90061 0.0
H743 H 0.41105 0.96428 0.90075 0.0
C744 C 0.39688 0.01414 0.96343 0.0
C745 C 0.38231 1.00095 0.96095 0.0
C746 C 0.409 0.01633 0.95052 0.0
C747 C 0.40668 0.00551 0.93467 0.0
C748 C 0.39192 0.99282 0.93149 0.0
C749 C 0.37991 0.99053 0.9445 0.0
C750 C 0.41963 0.00672 0.92218 0.0
C751 C 0.42154 0.9939 0.92136 0.0
C752 C 0.43002 0.02018 0.91117 0.0
C753 C 0.42836 0.03391 0.91064 0.0
C754 C 0.41473 0.03265 0.90359 0.0
C755 C 0.41324 0.04564 0.90321 0.0
C756 C 0.42535 0.05998 0.9097 0.0
C757 C 0.43899 0.06136 0.91652 0.0
C758 C 0.44053 0.0484 0.91694 0.0
C759 C 0.4583 0.99734 0.84955 0.0
C760 C 0.47372 0.00912 0.84955 0.0
C761 C 0.44862 0.99637 0.86579 0.0
C762 C 0.45414 0.00721 0.88233 0.0
C763 C 0.46971 0.0186 0.88285 0.0
C764 C 0.47947 0.01948 0.86663 0.0
C765 C 0.44328 0.00728 0.89793 0.0
C766 C 0.4418 0.02034 0.89939 0.0
C767 C 0.4332 0.994 0.90943 0.0
C768 C 0.43465 0.98011 0.90935 0.0
C769 C 0.44867 0.98135 0.91417 0.0
C770 C 0.44999 0.96826 0.91396 0.0
C771 C 0.43735 0.95383 0.90906 0.0
C772 C 0.42335 0.95247 0.90439 0.0
C773 C 0.42196 0.96553 0.90457 0.0
H774 H 0.4384 0.94371 0.90891 0.0
H775 H 0.42417 0.07002 0.9094 0.0
H776 H 0.01975 0.38639 0.96364 0.0
H777 H 0.02301 0.40621 0.93885 0.0
H778 H 0.97436 0.3875 0.93861 0.0
H779 H 0.97096 0.36755 0.96267 0.0
H780 H 0.98469 0.39524 0.90059 0.0
H781 H 1.00007 0.42011 0.96882 0.0
H782 H 0.01539 0.42821 0.00132 0.0
H783 H 0.05642 0.45355 0.96522 0.0
H784 H 0.04135 0.44542 0.93247 0.0
H785 H 0.98057 0.45696 0.85828 0.0
H786 H 0.97957 0.43938 0.88541 0.0
H787 H 0.02774 0.45712 0.8775 0.0
H788 H 0.02873 0.4746 0.85044 0.0
H789 H 0.01881 0.45045 0.91917 0.0
H790 H 1.00391 0.42593 0.85139 0.0
H791 H 0.98905 0.41798 0.81851 0.0
H792 H 0.94758 0.392 0.85354 0.0
H793 H 0.9622 0.39999 0.88667 0.0
C794 C 0.00973 0.38637 0.95809 0.0
C795 C 0.9951 0.37537 0.96534 0.0
C796 C 0.01162 0.39781 0.94404 0.0
C797 C 0.99895 0.39857 0.93712 0.0
C798 C 0.98434 0.38725 0.94372 0.0
C799 C 0.98243 0.37581 0.95759 0.0
C800 C 1.00072 0.41122 0.92336 0.0
C801 C 0.99203 0.40729 0.90484 0.0
C802 C 0.01055 0.42701 0.92852 0.0
C803 C 0.0196 0.43203 0.9482 0.0
C804 C 0.01237 0.42733 0.96781 0.0
C805 C 0.021 0.43194 0.98627 0.0
C806 C 0.03687 0.44136 0.98533 0.0
C807 C 0.04413 0.44624 0.96592 0.0
C808 C 0.03555 0.44164 0.94741 0.0
C809 C 0.99101 0.45743 0.86288 0.0
C810 C 1.00473 0.46713 0.85239 0.0
C811 C 0.99042 0.44731 0.87821 0.0
C812 C 1.00355 0.44679 0.88327 0.0
C813 C 0.01748 0.45731 0.87387 0.0
C814 C 0.01804 0.4673 0.85846 0.0
C815 C 1.00255 0.43439 0.89676 0.0
C816 C 0.01144 0.43837 0.91506 0.0
C817 C 0.99294 0.41863 0.89141 0.0
C818 C 0.98413 0.41369 0.87152 0.0
C819 C 0.99161 0.41862 0.85209 0.0
C820 C 0.98323 0.41409 0.83341 0.0
C821 C 0.96737 0.40452 0.83394 0.0
C822 C 0.95986 0.39943 0.85316 0.0
C823 C 0.96819 0.40395 0.87189 0.0
H824 H 0.9609 0.40103 0.81946 0.0
H825 H 0.04354 0.44491 0.99964 0.0
H826 H 0.60125 0.61428 0.9852 0.0
H827 H 0.58685 0.59209 0.96178 0.0
H828 H 0.6284 0.6028 0.92973 0.0
H829 H 0.64307 0.62491 0.95375 0.0
H830 H 0.60102 0.59984 0.90486 0.0
H831 H 0.61553 0.57313 0.95348 0.0
H832 H 0.61788 0.56399 0.98814 0.0
H833 H 0.56936 0.54132 0.99656 0.0
H834 H 0.56672 0.55043 0.962 0.0
H835 H 0.57044 0.53793 0.83423 0.0
H836 H 0.58661 0.55323 0.86359 0.0
H837 H 0.54666 0.54157 0.90045 0.0
H838 H 0.53032 0.5269 0.87066 0.0
H839 H 0.57362 0.54447 0.92346 0.0
H840 H 0.55769 0.56977 0.87746 0.0
H841 H 0.55302 0.57843 0.84394 0.0
H842 H 0.60124 0.60613 0.83334 0.0
H843 H 0.60622 0.5966 0.866 0.0
C844 C 0.60736 0.61183 0.97329 0.0
C845 C 0.62325 0.62137 0.97113 0.0
C846 C 0.59912 0.59911 0.96003 0.0
C847 C 0.60657 0.59582 0.94411 0.0
C848 C 0.62249 0.60515 0.94205 0.0
C849 C 0.63083 0.61773 0.95572 0.0
C850 C 0.59742 0.58343 0.92865 0.0
C851 C 0.59532 0.5877 0.90869 0.0
C852 C 0.58934 0.5677 0.93421 0.0
C853 C 0.59095 0.56257 0.95522 0.0
C854 C 0.60538 0.56635 0.96283 0.0
C855 C 0.60676 0.56112 0.98242 0.0
C856 C 0.59377 0.55208 0.99454 0.0
C857 C 0.5794 0.54831 0.98714 0.0
C858 C 0.57796 0.55348 0.96753 0.0
C859 C 0.56506 0.53835 0.84873 0.0
C860 C 0.5491 0.53155 0.84992 0.0
C861 C 0.57433 0.54705 0.8655 0.0
C862 C 0.56781 0.54876 0.88396 0.0
C863 C 0.55188 0.54042 0.88623 0.0
C864 C 0.54255 0.53196 0.86923 0.0
C865 C 0.57757 0.56086 0.89944 0.0
C866 C 0.57956 0.55658 0.91945 0.0
C867 C 0.58525 0.57667 0.89412 0.0
C868 C 0.58232 0.58206 0.874 0.0
C869 C 0.56731 0.57727 0.86768 0.0
C870 C 0.56461 0.58234 0.8488 0.0
C871 C 0.57683 0.59263 0.83635 0.0
C872 C 0.59178 0.59792 0.84283 0.0
C873 C 0.59455 0.59256 0.86143 0.0
H874 H 0.57473 0.59664 0.8218 0.0
H875 H 0.59483 0.54795 0.00964 0.0
H876 H 0.98681 0.61628 0.9709 0.0
H877 H 0.98229 0.59549 0.9463 0.0
H878 H 0.0282 0.62307 0.92283 0.0
H879 H 0.03276 0.64384 0.94707 0.0
H880 H 0.00795 0.60724 0.89134 0.0
H881 H 0.0201 0.59686 0.9605 0.0
H882 H 0.016 0.59263 0.9986 0.0
H883 H 0.97113 0.55378 0.98725 0.0
H884 H 0.97489 0.55792 0.94907 0.0
H885 H 0.02521 0.55562 0.84494 0.0
H886 H 0.02603 0.57379 0.87152 0.0
H887 H 0.97956 0.54101 0.88887 0.0
H888 H 0.97886 0.52275 0.86243 0.0
H889 H 0.99711 0.55806 0.92315 0.0
H890 H 0.98556 0.56682 0.85404 0.0
H891 H 0.98955 0.57061 0.81588 0.0
H892 H 0.03247 0.61225 0.82672 0.0
H893 H 0.02889 0.60852 0.86497 0.0
C894 C 0.99582 0.61803 0.96019 0.0
C895 C 0.0102 0.63166 0.96111 0.0
C896 C 0.99326 0.60611 0.94625 0.0
C897 C 1.005 0.60765 0.93298 0.0
C898 C 0.019 0.6216 0.93298 0.0
C899 C 0.0216 0.63345 0.94693 0.0
C900 C 1.00323 0.59454 0.92001 0.0
C901 C 1.00565 0.59652 0.8983 0.0
C902 C 0.99989 0.58041 0.92905 0.0
C903 C 0.99771 0.5778 0.95196 0.0
C904 C 0.00932 0.58748 0.96615 0.0
C905 C 0.00706 0.58509 0.98775 0.0
C906 C 0.9933 0.57297 0.99535 0.0
C907 C 0.98178 0.56318 0.98135 0.0
C908 C 0.98397 0.56554 0.95973 0.0
C909 C 0.01542 0.55212 0.85503 0.0
C910 C 1.00204 0.53783 0.85196 0.0
C911 C 0.01582 0.56251 0.87003 0.0
C912 C 1.00275 0.55883 0.88187 0.0
C913 C 0.98974 0.54407 0.87989 0.0
C914 C 0.98937 0.53364 0.8649 0.0
C915 C 1.00218 0.57092 0.89458 0.0
C916 C 0.99927 0.56872 0.91617 0.0
C917 C 1.00498 0.58483 0.88541 0.0
C918 C 0.00701 0.58732 0.8624 0.0
C919 C 0.99589 0.57673 0.8483 0.0
C920 C 0.99808 0.57887 0.82665 0.0
C921 C 0.01126 0.59166 0.81888 0.0
C922 C 0.02227 0.60235 0.83276 0.0
C923 C 0.02017 0.60023 0.85444 0.0
H924 H 0.01294 0.59329 0.80212 0.0
H925 H 0.99157 0.57115 0.01208 0.0
H926 H 0.40958 0.37557 0.96138 0.0
H927 H 0.42473 0.39712 0.93816 0.0
H928 H 0.3871 0.40475 0.93202 0.0
H929 H 0.37176 0.38322 0.95567 0.0
H930 H 0.40359 0.4065 0.89308 0.0
H931 H 0.41256 0.42727 0.96307 0.0
H932 H 0.41866 0.42819 0.00063 0.0
H933 H 0.46253 0.43475 0.98483 0.0
H934 H 0.45658 0.43358 0.94714 0.0
H935 H 0.44846 0.47637 0.84198 0.0
H936 H 0.43178 0.45941 0.86961 0.0
H937 H 0.4676 0.4518 0.88999 0.0
H938 H 0.48445 0.46912 0.86264 0.0
H939 H 0.45054 0.45114 0.92301 0.0
H940 H 0.44141 0.42813 0.85433 0.0
H941 H 0.43606 0.42653 0.81652 0.0
H942 H 0.39301 0.42291 0.82933 0.0
H943 H 0.3983 0.4249 0.86737 0.0
C944 C 0.40435 0.38163 0.95492 0.0
C945 C 0.38941 0.37765 0.96054 0.0
C946 C 0.4131 0.39402 0.94171 0.0
C947 C 0.40711 0.40265 0.93364 0.0
C948 C 0.39195 0.39827 0.93821 0.0
C949 C 0.3832 0.38594 0.95171 0.0
C950 C 0.41698 0.41653 0.92102 0.0
C951 C 0.41368 0.41641 0.89969 0.0
C952 C 0.43034 0.42926 0.9296 0.0
C953 C 0.43406 0.4302 0.95226 0.0
C954 C 0.42346 0.42878 0.96759 0.0
C955 C 0.42689 0.42937 0.98891 0.0
C956 C 0.44096 0.43149 0.99511 0.0
C957 C 0.45164 0.43308 0.98 0.0
C958 C 0.44824 0.43247 0.95865 0.0
C959 C 0.45291 0.47147 0.85283 0.0
C960 C 0.4677 0.47397 0.85017 0.0
C961 C 0.44336 0.4617 0.86851 0.0
C962 C 0.4483 0.45401 0.88154 0.0
C963 C 0.46351 0.45754 0.88006 0.0
C964 C 0.47315 0.46748 0.8645 0.0
C965 C 0.43721 0.44112 0.89497 0.0
C966 C 0.44032 0.44136 0.91644 0.0
C967 C 0.42373 0.4284 0.88648 0.0
C968 C 0.42033 0.42685 0.86368 0.0
C969 C 0.43085 0.42709 0.84909 0.0
C970 C 0.42782 0.42612 0.82761 0.0
C971 C 0.41421 0.42463 0.82047 0.0
C972 C 0.40357 0.42409 0.83487 0.0
C973 C 0.40658 0.42516 0.8564 0.0
H974 H 0.41191 0.42388 0.8038 0.0
H975 H 0.4436 0.43193 0.01162 0.0
H976 H 0.61765 0.99472 0.97329 0.0
H977 H 0.59813 0.99318 0.94947 0.0
H978 H 0.63137 0.03669 0.92259 0.0
H979 H 0.65067 0.03851 0.94678 0.0
H980 H 0.60729 0.03764 0.93166 0.0
H981 H 0.61574 1.00016 0.89615 0.0
H982 H 0.61723 0.97662 0.89326 0.0
H983 H 0.57026 0.94918 0.91165 0.0
H984 H 0.56854 0.9726 0.9149 0.0
H985 H 0.57221 0.03932 0.83732 0.0
H986 H 0.58787 0.03812 0.86521 0.0
H987 H 0.54829 0.99806 0.89034 0.0
H988 H 0.53251 0.99923 0.86216 0.0
H989 H 0.57278 0.99373 0.88528 0.0
H990 H 0.564 0.03134 0.9175 0.0
H991 H 0.56267 0.05499 0.91948 0.0
H992 H 0.61064 0.08235 0.90652 0.0
H993 H 0.61223 0.05884 0.90417 0.0
C994 C 0.62086 0.00377 0.96195 0.0
C995 C 0.63572 0.01674 0.96194 0.0
C996 C 0.60967 1.0029 0.94833 0.0
C997 C 0.6132 0.01484 0.93414 0.0
C998 C 0.62826 0.02739 0.93346 0.0
C999 C 0.63934 0.02837 0.94723 0.0
C1000 C 0.60118 0.01488 0.92087 0.0
C1001 C 0.59989 0.02808 0.92135 0.0
C1002 C 0.59104 1.00222 0.90797 0.0
C1003 C 0.59206 0.98815 0.906 0.0
C1004 C 0.60576 0.98912 0.89974 0.0
C1005 C 0.60664 0.9758 0.898 0.0
C1006 C 0.59386 0.96142 0.90233 0.0
C1007 C 0.58016 0.96033 0.90834 0.0
C1008 C 0.57922 0.97362 0.91012 0.0
C1009 C 0.56678 0.03048 0.84909 0.0
C1010 C 0.55112 0.01943 0.84769 0.0
C1011 C 0.57574 0.02978 0.86502 0.0
C1012 C 0.56928 0.01801 0.87995 0.0
C1013 C 0.55352 0.00724 0.87901 0.0
C1014 C 0.54449 0.00801 0.86309 0.0
C1015 C 0.57927 0.01665 0.89568 0.0
C1016 C 0.58013 1.00322 0.89573 0.0
C1017 C 0.58909 0.02912 0.90901 0.0
C1018 C 0.58821 0.0433 0.91052 0.0
C1019 C 0.57425 0.04239 0.91492 0.0
C1020 C 0.57345 0.05577 0.91614 0.0
C1021 C 0.58655 0.07016 0.9131 0.0
C1022 C 0.6005 0.07119 0.90887 0.0
C1023 C 0.60135 0.05784 0.90762 0.0
H1024 H 0.58591 0.08051 0.91404 0.0
H1025 H 0.59457 0.95112 0.90097 0.0
H1026 H 0.62589 0.98918 0.06642 0.0
H1027 H 0.60433 0.98285 0.08986 0.0
H1028 H 0.60531 0.02422 0.07106 0.0
H1029 H 0.6271 0.0309 0.04868 0.0
H1030 H 0.60133 0.02208 0.1099 0.0
H1031 H 0.57762 0.98575 0.05306 0.0
H1032 H 0.57388 0.96493 0.0287 0.0
H1033 H 0.56486 0.93484 0.08067 0.0
H1034 H 0.56873 0.95555 0.10537 0.0
H1035 H 0.53219 0.00625 0.15638 0.0
H1036 H 0.54944 0.009 0.1276 0.0
H1037 H 0.55202 0.9706 0.15118 0.0
H1038 H 0.53433 0.9674 0.17929 0.0
H1039 H 0.55367 0.97096 0.10949 0.0
H1040 H 0.57723 0.00887 0.16598 0.0
H1041 H 0.58003 0.03023 0.18848 0.0
H1042 H 0.58895 0.05837 0.13434 0.0
H1043 H 0.5857 0.03705 0.11139 0.0
C1044 C 0.62152 0.99692 0.06741 0.0
C1045 C 0.62832 0.0106 0.05579 0.0
C1046 C 0.6091 0.99325 0.08068 0.0
C1047 C 0.60298 1.00295 0.08211 0.0
C1048 C 0.60979 0.01655 0.07042 0.0
C1049 C 0.62232 0.02036 0.05758 0.0
C1050 C 0.58972 0.99932 0.09599 0.0
C1051 C 0.59084 0.01095 0.10952 0.0
C1052 C 0.57605 0.98474 0.09588 0.0
C1053 C 0.57361 0.97224 0.08107 0.0
C1054 C 0.57493 0.97472 0.0593 0.0
C1055 C 0.57277 0.96294 0.04543 0.0
C1056 C 0.56917 0.94858 0.05314 0.0
C1057 C 0.56767 0.94597 0.07473 0.0
C1058 C 0.56983 0.95772 0.08867 0.0
C1059 C 0.53603 0.99808 0.15499 0.0
C1060 C 0.53211 0.98678 0.17032 0.0
C1061 C 0.54603 0.99976 0.13868 0.0
C1062 C 0.55241 0.9903 0.13758 0.0
C1063 C 0.54742 0.97817 0.15179 0.0
C1064 C 0.53735 0.9764 0.16794 0.0
C1065 C 0.56527 0.9938 0.12308 0.0
C1066 C 0.56413 0.98212 0.10964 0.0
C1067 C 0.57887 0.00843 0.12299 0.0
C1068 C 0.58107 0.0213 0.13694 0.0
C1069 C 0.57969 0.01957 0.15885 0.0
C1070 C 0.58136 0.03167 0.17169 0.0
C1071 C 0.5847 0.04563 0.16287 0.0
C1072 C 0.58636 0.04754 0.14116 0.0
C1073 C 0.58456 0.03544 0.12822 0.0
H1074 H 0.58601 0.05498 0.17286 0.0
H1075 H 0.56751 0.93948 0.04237 0.0
H1076 H 0.99452 0.6153 0.04616 0.0
H1077 H 0.99327 0.59521 0.06868 0.0
H1078 H 0.03648 0.62845 0.09653 0.0
H1079 H 0.03801 0.6483 0.07355 0.0
H1080 H 0.03744 0.60431 0.08658 0.0
H1081 H 1.00011 0.61226 0.12256 0.0
H1082 H 0.97666 0.61351 0.12543 0.0
H1083 H 0.94984 0.56628 0.10512 0.0
H1084 H 0.97317 0.56481 0.1019 0.0
H1085 H 0.03963 0.56937 0.18067 0.0
H1086 H 0.03858 0.58478 0.15223 0.0
H1087 H 0.99836 0.54468 0.12751 0.0
H1088 H 0.9994 0.52918 0.15623 0.0
H1089 H 0.99417 0.56913 0.13207 0.0
H1090 H 0.03163 0.56067 0.10013 0.0
H1091 H 0.05519 0.55959 0.09824 0.0
H1092 H 0.08198 0.60812 0.11167 0.0
H1093 H 0.05856 0.60946 0.11394 0.0
C1094 C 1.00357 0.61837 0.05743 0.0
C1095 C 0.01635 0.63341 0.0581 0.0
C1096 C 1.00287 0.60686 0.0703 0.0
C1097 C 0.01478 0.61023 0.08443 0.0
C1098 C 0.0272 0.62544 0.0857 0.0
C1099 C 0.02802 0.63684 0.07263 0.0
C1100 C 0.01489 0.59797 0.09718 0.0
C1101 C 0.02801 0.59675 0.09668 0.0
C1102 C 1.0024 0.5876 0.1098 0.0
C1103 C 0.98839 0.58848 0.11177 0.0
C1104 C 0.98922 0.60218 0.11856 0.0
C1105 C 0.97595 0.60292 0.12027 0.0
C1106 C 0.96177 0.59 0.1154 0.0
C1107 C 0.96083 0.57629 0.10886 0.0
C1108 C 0.97407 0.57549 0.1071 0.0
C1109 C 0.03085 0.56375 0.16878 0.0
C1110 C 0.0197 0.54806 0.17048 0.0
C1111 C 0.03022 0.57257 0.15255 0.0
C1112 C 0.01841 0.56591 0.13762 0.0
C1113 C 0.00759 0.55007 0.1388 0.0
C1114 C 0.00829 0.54118 0.15503 0.0
C1115 C 0.0169 0.57587 0.12191 0.0
C1116 C 1.00352 0.57661 0.1218 0.0
C1117 C 0.02918 0.58588 0.1088 0.0
C1118 C 0.04332 0.58514 0.10733 0.0
C1119 C 0.04254 0.5711 0.10282 0.0
C1120 C 0.05587 0.57044 0.10166 0.0
C1121 C 0.07007 0.58377 0.10487 0.0
C1122 C 0.07097 0.5978 0.1092 0.0
C1123 C 0.05767 0.59852 0.11039 0.0
H1124 H 0.08038 0.58324 0.10396 0.0
H1125 H 0.95152 0.5906 0.11674 0.0
H1126 H 0.41248 0.39121 0.04043 0.0
H1127 H 0.42744 0.41264 0.06447 0.0
H1128 H 0.38605 0.40692 0.09163 0.0
H1129 H 0.37087 0.38566 0.06669 0.0
H1130 H 0.40741 0.43692 0.08968 0.0
H1131 H 0.4059 0.39206 0.1157 0.0
H1132 H 0.40828 0.369 0.11398 0.0
H1133 H 0.45582 0.39719 0.09883 0.0
H1134 H 0.45368 0.42041 0.10019 0.0
H1135 H 0.4444 0.47342 0.18753 0.0
H1136 H 0.42814 0.45762 0.15844 0.0
H1137 H 0.46769 0.46292 0.12589 0.0
H1138 H 0.48394 0.47836 0.15522 0.0
H1139 H 0.44616 0.43305 0.13142 0.0
H1140 H 0.44712 0.47836 0.10677 0.0
H1141 H 0.44396 0.5009 0.10998 0.0
H1142 H 0.39658 0.47128 0.12492 0.0
H1143 H 0.39949 0.44857 0.12208 0.0
C1144 C 0.40652 0.39451 0.05148 0.0
C1145 C 0.3905 0.38656 0.05199 0.0
C1146 C 0.4151 0.40677 0.06524 0.0
C1147 C 0.40789 0.41113 0.08029 0.0
C1148 C 0.39186 0.40367 0.08027 0.0
C1149 C 0.38321 0.39151 0.06611 0.0
C1150 C 0.41723 0.423 0.09645 0.0
C1151 C 0.41575 0.436 0.099 0.0
C1152 C 0.42823 0.42189 0.10852 0.0
C1153 C 0.4296 0.40796 0.10789 0.0
C1154 C 0.41684 0.39333 0.11188 0.0
C1155 C 0.41815 0.38023 0.11098 0.0
C1156 C 0.43218 0.38162 0.10625 0.0
C1157 C 0.44495 0.39613 0.10247 0.0
C1158 C 0.4437 0.40926 0.10333 0.0
C1159 C 0.44966 0.47153 0.17392 0.0
C1160 C 0.46543 0.47701 0.17373 0.0
C1161 C 0.44036 0.46256 0.15725 0.0
C1162 C 0.44669 0.45904 0.13999 0.0
C1163 C 0.46257 0.46548 0.13908 0.0
C1164 C 0.47188 0.47443 0.15576 0.0
C1165 C 0.43665 0.44719 0.12429 0.0
C1166 C 0.43789 0.43406 0.12201 0.0
C1167 C 0.42534 0.44813 0.11278 0.0
C1168 C 0.42356 0.46177 0.11439 0.0
C1169 C 0.43605 0.47666 0.11091 0.0
C1170 C 0.4343 0.48947 0.11263 0.0
C1171 C 0.42009 0.48753 0.1177 0.0
C1172 C 0.40759 0.47277 0.12101 0.0
C1173 C 0.40928 0.45992 0.11932 0.0
H1174 H 0.41876 0.49746 0.11903 0.0
H1175 H 0.43317 0.37147 0.10555 0.0
H1176 H 0.69511 0.72157 0.39465 0.0
H1177 H 0.70184 0.74304 0.41931 0.0
H1178 H 0.65678 0.73622 0.41256 0.0
H1179 H 0.6499 0.71486 0.38836 0.0
H1180 H 0.68045 0.76715 0.40812 0.0
H1181 H 0.66421 0.72412 0.45485 0.0
H1182 H 0.66508 0.70223 0.46984 0.0
H1183 H 0.71176 0.7325 0.48813 0.0
H1184 H 0.71122 0.75455 0.47296 0.0
H1185 H 0.66971 0.8063 0.49341 0.0
H1186 H 0.66918 0.78924 0.46545 0.0
H1187 H 0.71147 0.79487 0.48847 0.0
H1188 H 0.71164 0.81146 0.51694 0.0
H1189 H 0.69245 0.76611 0.48315 0.0
H1190 H 0.70811 0.80988 0.43973 0.0
H1191 H 0.70721 0.83181 0.42491 0.0
H1192 H 0.66252 0.80088 0.39999 0.0
H1193 H 0.66305 0.77877 0.41491 0.0
C1194 C 0.68662 0.72459 0.39854 0.0
C1195 C 0.67195 0.71642 0.38954 0.0
C1196 C 0.69048 0.73685 0.4126 0.0
C1197 C 0.67981 0.74123 0.41765 0.0
C1198 C 0.6652 0.73307 0.40878 0.0
C1199 C 0.66127 0.72076 0.39503 0.0
C1200 C 0.68367 0.75432 0.43215 0.0
C1201 C 0.68305 0.76696 0.42456 0.0
C1202 C 0.68741 0.75419 0.45342 0.0
C1203 C 0.68774 0.74094 0.46251 0.0
C1204 C 0.67471 0.72608 0.46187 0.0
C1205 C 0.67513 0.71365 0.47044 0.0
C1206 C 0.68849 0.71596 0.47986 0.0
C1207 C 0.70143 0.73072 0.48078 0.0
C1208 C 0.70108 0.74319 0.4722 0.0
C1209 C 0.67911 0.80425 0.49207 0.0
C1210 C 0.69077 0.81026 0.50718 0.0
C1211 C 0.67882 0.79448 0.4761 0.0
C1212 C 0.69036 0.79082 0.47468 0.0
C1213 C 0.70242 0.79747 0.48921 0.0
C1214 C 0.70259 0.80704 0.50536 0.0
C1215 C 0.68917 0.77906 0.45923 0.0
C1216 C 0.69019 0.76658 0.46665 0.0
C1217 C 0.68589 0.77941 0.43774 0.0
C1218 C 0.68558 0.79267 0.42857 0.0
C1219 C 0.69805 0.80776 0.4312 0.0
C1220 C 0.69761 0.82022 0.42277 0.0
C1221 C 0.6848 0.81774 0.41155 0.0
C1222 C 0.67243 0.80278 0.40869 0.0
C1223 C 0.6728 0.79028 0.4171 0.0
H1224 H 0.68448 0.82741 0.40505 0.0
H1225 H 0.68879 0.70632 0.48649 0.0
H1226 H 0.30535 0.95731 0.40099 0.0
H1227 H 0.28926 0.93658 0.42522 0.0
H1228 H 0.25241 0.945 0.41504 0.0
H1229 H 0.26848 0.96596 0.39161 0.0
H1230 H 0.25304 0.94002 0.45388 0.0
H1231 H 0.25439 0.91403 0.39119 0.0
H1232 H 0.26639 0.90762 0.36222 0.0
H1233 H 0.28706 0.89214 0.4065 0.0
H1234 H 0.27535 0.89866 0.43577 0.0
H1235 H 0.19325 0.87151 0.4967 0.0
H1236 H 0.20897 0.88902 0.46875 0.0
H1237 H 0.24774 0.88683 0.49042 0.0
H1238 H 0.23208 0.86932 0.51831 0.0
H1239 H 0.24589 0.88785 0.44544 0.0
H1240 H 0.24687 0.91721 0.50729 0.0
H1241 H 0.23424 0.92296 0.53624 0.0
H1242 H 0.20821 0.93149 0.49145 0.0
H1243 H 0.22056 0.92553 0.46238 0.0
C1244 C 0.29387 0.95484 0.40407 0.0
C1245 C 0.28826 0.96335 0.39428 0.0
C1246 C 0.28461 0.94287 0.4178 0.0
C1247 C 0.26946 0.93897 0.4217 0.0
C1248 C 0.26401 0.94771 0.41232 0.0
C1249 C 0.27328 0.95975 0.39887 0.0
C1250 C 0.25922 0.92591 0.43563 0.0
C1251 C 0.25136 0.92859 0.45172 0.0
C1252 C 0.25711 0.91096 0.43323 0.0
C1253 C 0.26412 0.90698 0.41568 0.0
C1254 C 0.26159 0.90936 0.39476 0.0
C1255 C 0.26832 0.9057 0.37829 0.0
C1256 C 0.27751 0.89952 0.38252 0.0
C1257 C 0.27996 0.89695 0.40325 0.0
C1258 C 0.27327 0.90062 0.41978 0.0
C1259 C 0.20497 0.87434 0.49503 0.0
C1260 C 0.21143 0.86905 0.50968 0.0
C1261 C 0.21398 0.88446 0.4792 0.0
C1262 C 0.22957 0.88938 0.47767 0.0
C1263 C 0.23575 0.8832 0.49129 0.0
C1264 C 0.22679 0.87318 0.50721 0.0
C1265 C 0.23973 0.90204 0.46331 0.0
C1266 C 0.24758 0.8993 0.44731 0.0
C1267 C 0.24173 0.9169 0.46554 0.0
C1268 C 0.23445 0.92072 0.48282 0.0
C1269 C 0.23832 0.92014 0.50374 0.0
C1270 C 0.23126 0.92347 0.52012 0.0
C1271 C 0.22038 0.92752 0.51568 0.0
C1272 C 0.21661 0.92831 0.49486 0.0
C1273 C 0.22365 0.92497 0.47845 0.0
H1274 H 0.21491 0.93009 0.52837 0.0
H1275 H 0.28271 0.89669 0.36975 0.0
H1276 H 0.05342 0.35084 0.40128 0.0
H1277 H 0.0733 0.3546 0.42624 0.0
H1278 H 0.06824 0.31128 0.40621 0.0
H1279 H 0.04812 0.30717 0.38219 0.0
H1280 H 0.0709 0.31279 0.44555 0.0
H1281 H 0.09903 0.34864 0.39069 0.0
H1282 H 0.10581 0.37038 0.36712 0.0
H1283 H 0.11649 0.40074 0.42032 0.0
H1284 H 0.10958 0.37912 0.44423 0.0
H1285 H 0.13745 0.32041 0.49009 0.0
H1286 H 0.12095 0.32052 0.46231 0.0
H1287 H 0.12118 0.35902 0.4926 0.0
H1288 H 0.13771 0.35901 0.52027 0.0
H1289 H 0.12158 0.36085 0.44849 0.0
H1290 H 0.09144 0.32434 0.50247 0.0
H1291 H 0.0852 0.30268 0.5261 0.0
H1292 H 0.07884 0.27353 0.47279 0.0
H1293 H 0.08526 0.29511 0.44898 0.0
C1294 C 0.05648 0.34208 0.40234 0.0
C1295 C 0.04906 0.32867 0.38974 0.0
C1296 C 0.06797 0.3443 0.41649 0.0
C1297 C 0.07253 0.33334 0.41798 0.0
C1298 C 0.065 0.31993 0.40552 0.0
C1299 C 0.05341 0.31759 0.39171 0.0
C1300 C 0.08489 0.33548 0.43263 0.0
C1301 C 0.08203 0.32325 0.44585 0.0
C1302 C 0.09941 0.34921 0.43358 0.0
C1303 C 0.10363 0.36223 0.41925 0.0
C1304 C 0.10272 0.35993 0.39736 0.0
C1305 C 0.1066 0.37224 0.38394 0.0
C1306 C 0.11154 0.38693 0.39222 0.0
C1307 C 0.11264 0.38935 0.41393 0.0
C1308 C 0.10876 0.37708 0.42743 0.0
C1309 C 0.13438 0.32919 0.49045 0.0
C1310 C 0.13884 0.33966 0.50739 0.0
C1311 C 0.12483 0.32917 0.47468 0.0
C1312 C 0.11963 0.33965 0.47553 0.0
C1313 C 0.12499 0.35082 0.49161 0.0
C1314 C 0.13444 0.35078 0.50742 0.0
C1315 C 0.10756 0.33807 0.46088 0.0
C1316 C 0.11045 0.3504 0.4479 0.0
C1317 C 0.0931 0.3244 0.45991 0.0
C1318 C 0.08901 0.31135 0.47406 0.0
C1319 C 0.08884 0.31333 0.49589 0.0
C1320 C 0.08525 0.30109 0.50928 0.0
C1321 C 0.08169 0.28676 0.50095 0.0
C1322 C 0.08164 0.28464 0.47922 0.0
C1323 C 0.08524 0.29687 0.46578 0.0
H1324 H 0.07892 0.27729 0.51133 0.0
H1325 H 0.11454 0.39643 0.3818 0.0
H1326 H 0.0394 0.31776 0.27671 0.0
H1327 H 0.06098 0.32294 0.25447 0.0
H1328 H 0.08981 0.36488 0.28932 0.0
H1329 H 0.06802 0.35991 0.31152 0.0
H1330 H 0.0971 0.36828 0.24759 0.0
H1331 H 0.0906 0.33298 0.30093 0.0
H1332 H 0.07641 0.31008 0.32309 0.0
H1333 H 0.06465 0.28068 0.26863 0.0
H1334 H 0.07857 0.30342 0.24609 0.0
H1335 H 0.15985 0.3674 0.19609 0.0
H1336 H 0.1441 0.36784 0.22526 0.0
H1337 H 0.10561 0.32562 0.20161 0.0
H1338 H 0.12124 0.32509 0.17293 0.0
H1339 H 0.1072 0.32524 0.24364 0.0
H1340 H 0.11024 0.36138 0.19055 0.0
H1341 H 0.12413 0.38459 0.1687 0.0
H1342 H 0.14323 0.41261 0.22408 0.0
H1343 H 0.12949 0.38957 0.24621 0.0
C1344 C 0.05025 0.32824 0.27946 0.0
C1345 C 0.05203 0.33834 0.29604 0.0
C1346 C 0.06262 0.33114 0.26679 0.0
C1347 C 0.07712 0.34406 0.27062 0.0
C1348 C 0.07875 0.35476 0.28622 0.0
C1349 C 0.06627 0.35193 0.29883 0.0
C1350 C 0.09056 0.34575 0.25896 0.0
C1351 C 0.09951 0.359 0.24704 0.0
C1352 C 0.09377 0.33368 0.25827 0.0
C1353 C 0.08557 0.31993 0.2718 0.0
C1354 C 0.08492 0.32164 0.29366 0.0
C1355 C 0.07693 0.30868 0.30629 0.0
C1356 C 0.06962 0.29393 0.29727 0.0
C1357 C 0.07032 0.29211 0.2756 0.0
C1358 C 0.07828 0.30503 0.26289 0.0
C1359 C 0.14813 0.35807 0.1975 0.0
C1360 C 0.14174 0.34622 0.18231 0.0
C1361 C 0.1391 0.3584 0.21399 0.0
C1362 C 0.1236 0.34685 0.21548 0.0
C1363 C 0.11751 0.33466 0.20084 0.0
C1364 C 0.12645 0.33436 0.18444 0.0
C1365 C 0.11332 0.34747 0.2316 0.0
C1366 C 0.10499 0.33464 0.24448 0.0
C1367 C 0.11078 0.35997 0.23326 0.0
C1368 C 0.11901 0.37376 0.21997 0.0
C1369 C 0.1175 0.37249 0.19801 0.0
C1370 C 0.12531 0.3856 0.1856 0.0
C1371 C 0.13461 0.40004 0.19499 0.0
C1372 C 0.13606 0.40141 0.21682 0.0
C1373 C 0.12824 0.38834 0.2293 0.0
H1374 H 0.14066 0.41017 0.18535 0.0
H1375 H 0.06343 0.28392 0.30708 0.0
H1376 H 0.64348 0.70351 0.28612 0.0
H1377 H 0.64807 0.7247 0.26357 0.0
H1378 H 0.6963 0.7473 0.27643 0.0
H1379 H 0.69181 0.72598 0.29922 0.0
H1380 H 0.65974 0.75454 0.27611 0.0
H1381 H 0.71492 0.77045 0.23229 0.0
H1382 H 0.72952 0.7585 0.2201 0.0
H1383 H 0.68807 0.71457 0.21494 0.0
H1384 H 0.67322 0.7263 0.22685 0.0
H1385 H 0.6968 0.81605 0.18468 0.0
H1386 H 0.69926 0.80113 0.21305 0.0
H1387 H 0.65023 0.77188 0.21497 0.0
H1388 H 0.64786 0.78689 0.18716 0.0
H1389 H 0.69163 0.77192 0.21192 0.0
H1390 H 0.6373 0.75636 0.26124 0.0
H1391 H 0.62333 0.76888 0.27371 0.0
H1392 H 0.6641 0.81329 0.26877 0.0
H1393 H 0.67838 0.80104 0.25656 0.0
C1394 C 0.65513 0.71285 0.28403 0.0
C1395 C 0.66726 0.71302 0.29466 0.0
C1396 C 0.65771 0.72503 0.27115 0.0
C1397 C 0.6725 0.73767 0.2684 0.0
C1398 C 0.68479 0.73764 0.27824 0.0
C1399 C 0.6822 0.72541 0.29123 0.0
C1400 C 0.67471 0.75103 0.25594 0.0
C1401 C 0.66665 0.75829 0.26199 0.0
C1402 C 0.68426 0.75641 0.23807 0.0
C1403 C 0.69301 0.74922 0.23073 0.0
C1404 C 0.70893 0.75825 0.22852 0.0
C1405 C 0.71725 0.75152 0.22166 0.0
C1406 C 0.70974 0.73578 0.21683 0.0
C1407 C 0.69389 0.72675 0.21878 0.0
C1408 C 0.68552 0.73342 0.22562 0.0
C1409 C 0.6866 0.80678 0.1918 0.0
C1410 C 0.67213 0.80278 0.18417 0.0
C1411 C 0.68799 0.79815 0.2078 0.0
C1412 C 0.67493 0.78543 0.21637 0.0
C1413 C 0.66048 0.78181 0.20907 0.0
C1414 C 0.65911 0.79041 0.1932 0.0
C1415 C 0.67619 0.77507 0.23165 0.0
C1416 C 0.68493 0.76839 0.22622 0.0
C1417 C 0.66736 0.7703 0.25025 0.0
C1418 C 0.65889 0.77777 0.25785 0.0
C1419 C 0.64331 0.76879 0.26293 0.0
C1420 C 0.63533 0.77585 0.26993 0.0
C1421 C 0.64281 0.79187 0.27199 0.0
C1422 C 0.65831 0.80088 0.26711 0.0
C1423 C 0.66635 0.79388 0.26012 0.0
H1424 H 0.63661 0.79731 0.27739 0.0
H1425 H 0.71619 0.73059 0.21153 0.0
H1426 H 0.29567 0.9444 0.31278 0.0
H1427 H 0.27802 0.92396 0.28862 0.0
H1428 H 0.27119 0.95694 0.25555 0.0
H1429 H 0.2884 0.97718 0.27988 0.0
H1430 H 0.24481 0.93301 0.26569 0.0
H1431 H 0.29138 0.94069 0.2345 0.0
H1432 H 0.31628 0.94224 0.23476 0.0
H1433 H 0.29465 0.89521 0.25459 0.0
H1434 H 0.26962 0.89345 0.25474 0.0
H1435 H 0.21146 0.89806 0.16917 0.0
H1436 H 0.2275 0.91353 0.19852 0.0
H1437 H 0.224 0.87294 0.22555 0.0
H1438 H 0.20786 0.85733 0.19593 0.0
H1439 H 0.25394 0.89729 0.22265 0.0
H1440 H 0.20668 0.88933 0.24961 0.0
H1441 H 0.18211 0.88846 0.24841 0.0
H1442 H 0.20552 0.93687 0.23543 0.0
H1443 H 0.23022 0.93799 0.23626 0.0
C1444 C 0.29067 0.94732 0.30004 0.0
C1445 C 0.29332 0.96235 0.29826 0.0
C1446 C 0.28056 0.93563 0.28627 0.0
C1447 C 0.27319 0.9389 0.27034 0.0
C1448 C 0.27659 0.9541 0.26786 0.0
C1449 C 0.28649 0.96569 0.28171 0.0
C1450 C 0.26118 0.92647 0.25703 0.0
C1451 C 0.24686 0.92529 0.25616 0.0
C1452 C 0.26365 0.91601 0.24519 0.0
C1453 C 0.27866 0.917 0.24487 0.0
C1454 C 0.29195 0.93071 0.23907 0.0
C1455 C 0.30609 0.93162 0.23912 0.0
C1456 C 0.30706 0.91885 0.24475 0.0
C1457 C 0.29388 0.90511 0.25027 0.0
C1458 C 0.27972 0.90415 0.25028 0.0
C1459 C 0.21385 0.89239 0.1816 0.0
C1460 C 0.20841 0.87652 0.18038 0.0
C1461 C 0.22301 0.90122 0.19834 0.0
C1462 C 0.22692 0.89438 0.21423 0.0
C1463 C 0.2211 0.87842 0.21344 0.0
C1464 C 0.21178 0.86951 0.19669 0.0
C1465 C 0.23779 0.90422 0.23085 0.0
C1466 C 0.25184 0.90488 0.23242 0.0
C1467 C 0.23515 0.91432 0.24324 0.0
C1468 C 0.22031 0.91372 0.24289 0.0
C1469 C 0.20659 0.89977 0.24637 0.0
C1470 C 0.19263 0.89924 0.24578 0.0
C1471 C 0.19225 0.9126 0.24182 0.0
C1472 C 0.20583 0.92653 0.2385 0.0
C1473 C 0.21981 0.92712 0.23906 0.0
H1474 H 0.18144 0.91216 0.24137 0.0
H1475 H 0.31802 0.91958 0.24479 0.0
H1476 H 0.65069 0.9457 0.3106 0.0
H1477 H 0.64501 0.92462 0.28578 0.0
H1478 H 0.68817 0.95335 0.25508 0.0
H1479 H 0.6939 0.97432 0.27967 0.0
H1480 H 0.66502 0.93635 0.22687 0.0
H1481 H 0.68512 0.92856 0.29138 0.0
H1482 H 0.68509 0.92481 0.32955 0.0
H1483 H 0.64077 0.88393 0.32495 0.0
H1484 H 0.64045 0.88758 0.28676 0.0
H1485 H 0.68902 0.89206 0.17632 0.0
H1486 H 0.68728 0.9081 0.20389 0.0
H1487 H 0.64267 0.87065 0.22084 0.0
H1488 H 0.64448 0.85441 0.19312 0.0
H1489 H 0.66126 0.88921 0.256 0.0
H1490 H 0.64314 0.89525 0.19001 0.0
H1491 H 0.64429 0.89893 0.15173 0.0
H1492 H 0.68513 0.94315 0.1589 0.0
H1493 H 0.68442 0.93961 0.19721 0.0
C1494 C 0.65881 0.9476 0.2983 0.0
C1495 C 0.67279 0.96164 0.29718 0.0
C1496 C 0.6556 0.93552 0.28423 0.0
C1497 C 0.66625 0.93737 0.26873 0.0
C1498 C 0.6798 0.95166 0.26692 0.0
C1499 C 0.68308 0.96362 0.28105 0.0
C1500 C 0.6639 0.92432 0.25507 0.0
C1501 C 0.66417 0.92604 0.23324 0.0
C1502 C 0.66245 0.9107 0.26338 0.0
C1503 C 0.66267 0.90845 0.28629 0.0
C1504 C 0.67531 0.91885 0.29854 0.0
C1505 C 0.67537 0.91673 0.32017 0.0
C1506 C 0.66291 0.90417 0.32968 0.0
C1507 C 0.65039 0.89368 0.31757 0.0
C1508 C 0.65027 0.89576 0.29594 0.0
C1509 C 0.67903 0.88712 0.18632 0.0
C1510 C 0.66686 0.87207 0.18263 0.0
C1511 C 0.67801 0.8963 0.20197 0.0
C1512 C 0.66472 0.89065 0.2141 0.0
C1513 C 0.65299 0.87521 0.21156 0.0
C1514 C 0.65404 0.86595 0.19584 0.0
C1515 C 0.66277 0.90146 0.22787 0.0
C1516 C 0.66172 0.89934 0.24964 0.0
C1517 C 0.6635 0.91474 0.21952 0.0
C1518 C 0.66377 0.91712 0.19651 0.0
C1519 C 0.65242 0.90573 0.18342 0.0
C1520 C 0.65299 0.90778 0.16171 0.0
C1521 C 0.66478 0.92126 0.15288 0.0
C1522 C 0.676 0.93272 0.16577 0.0
C1523 C 0.67551 0.9307 0.18749 0.0
H1524 H 0.66521 0.92282 0.13607 0.0
H1525 H 0.66297 0.90255 0.34643 0.0
H1526 H 0.04247 0.71093 0.28469 0.0
H1527 H 0.05929 0.73022 0.25887 0.0
H1528 H 0.0987 0.73854 0.29434 0.0
H1529 H 0.08214 0.71909 0.31964 0.0
H1530 H 0.09727 0.76623 0.28069 0.0
H1531 H 0.09389 0.71888 0.25656 0.0
H1532 H 0.07973 0.69155 0.24556 0.0
H1533 H 0.05932 0.7023 0.1949 0.0
H1534 H 0.07315 0.72968 0.20588 0.0
H1535 H 0.14984 0.78866 0.18099 0.0
H1536 H 0.13498 0.77116 0.2096 0.0
H1537 H 0.10874 0.79354 0.21542 0.0
H1538 H 0.12357 0.81095 0.18691 0.0
H1539 H 0.10412 0.75048 0.20931 0.0
H1540 H 0.09706 0.79101 0.26673 0.0
H1541 H 0.11118 0.81821 0.27839 0.0
H1542 H 0.15362 0.82115 0.26316 0.0
H1543 H 0.13978 0.79392 0.25169 0.0
C1544 C 0.05472 0.71688 0.2869 0.0
C1545 C 0.06099 0.7134 0.30405 0.0
C1546 C 0.06429 0.72786 0.27221 0.0
C1547 C 0.08022 0.73578 0.27478 0.0
C1548 C 0.08644 0.73257 0.29212 0.0
C1549 C 0.07695 0.72137 0.30646 0.0
C1550 C 0.09053 0.7472 0.25922 0.0
C1551 C 0.09873 0.76284 0.26503 0.0
C1552 C 0.09257 0.74269 0.23896 0.0
C1553 C 0.0844 0.72628 0.2322 0.0
C1554 C 0.08626 0.71539 0.24321 0.0
C1555 C 0.07832 0.6999 0.23696 0.0
C1556 C 0.06859 0.69518 0.21958 0.0
C1557 C 0.06683 0.70597 0.20839 0.0
C1558 C 0.07472 0.72147 0.21462 0.0
C1559 C 0.1412 0.79008 0.18888 0.0
C1560 C 0.13801 0.80129 0.18218 0.0
C1561 C 0.13261 0.78 0.205 0.0
C1562 C 0.12078 0.78107 0.21472 0.0
C1563 C 0.11792 0.79262 0.20838 0.0
C1564 C 0.12643 0.8026 0.1922 0.0
C1565 C 0.11086 0.76964 0.23066 0.0
C1566 C 0.10267 0.75395 0.22492 0.0
C1567 C 0.10887 0.77413 0.25102 0.0
C1568 C 0.11736 0.79046 0.25816 0.0
C1569 C 0.10941 0.79744 0.26595 0.0
C1570 C 0.11736 0.81287 0.27252 0.0
C1571 C 0.13328 0.82142 0.27146 0.0
C1572 C 0.14129 0.81454 0.2639 0.0
C1573 C 0.13339 0.79911 0.25734 0.0
H1574 H 0.13942 0.83336 0.27653 0.0
H1575 H 0.06245 0.68318 0.21477 0.0
H1576 H 0.29851 0.36735 0.30235 0.0
H1577 H 0.27743 0.36133 0.27881 0.0
H1578 H 0.27339 0.31788 0.26256 0.0
H1579 H 0.29452 0.32369 0.28661 0.0
H1580 H 0.27318 0.33617 0.22741 0.0
H1581 H 0.24768 0.31565 0.29239 0.0
H1582 H 0.24326 0.31599 0.3304 0.0
H1583 H 0.23557 0.3536 0.32266 0.0
H1584 H 0.24021 0.35366 0.28462 0.0
H1585 H 0.20886 0.31742 0.16611 0.0
H1586 H 0.22384 0.3143 0.19338 0.0
H1587 H 0.22681 0.35283 0.22774 0.0
H1588 H 0.21128 0.35551 0.20081 0.0
H1589 H 0.22605 0.33314 0.25453 0.0
H1590 H 0.25444 0.35609 0.19129 0.0
H1591 H 0.26109 0.3579 0.15373 0.0
H1592 H 0.26495 0.31771 0.15839 0.0
H1593 H 0.25803 0.31548 0.19588 0.0
C1594 C 0.29327 0.35652 0.29373 0.0
C1595 C 0.29829 0.34601 0.2964 0.0
C1596 C 0.28111 0.35307 0.28035 0.0
C1597 C 0.27373 0.3391 0.26911 0.0
C1598 C 0.2789 0.3287 0.27121 0.0
C1599 C 0.29097 0.33204 0.28493 0.0
C1600 C 0.26077 0.33568 0.25502 0.0
C1601 C 0.2627 0.33513 0.23331 0.0
C1602 C 0.24731 0.33477 0.26277 0.0
C1603 C 0.24442 0.33473 0.28564 0.0
C1604 C 0.24518 0.32408 0.2988 0.0
C1605 C 0.24261 0.32419 0.32036 0.0
C1606 C 0.23917 0.33483 0.32895 0.0
C1607 C 0.23825 0.34537 0.31598 0.0
C1608 C 0.24084 0.34533 0.29442 0.0
C1609 C 0.21226 0.32484 0.17989 0.0
C1610 C 0.20887 0.33665 0.18146 0.0
C1611 C 0.22099 0.32319 0.19534 0.0
C1612 C 0.22687 0.33361 0.21238 0.0
C1613 C 0.22251 0.34469 0.21473 0.0
C1614 C 0.21355 0.34617 0.19941 0.0
C1615 C 0.2385 0.33382 0.22674 0.0
C1616 C 0.23637 0.33387 0.24855 0.0
C1617 C 0.2519 0.33446 0.21906 0.0
C1618 C 0.25558 0.33553 0.19635 0.0
C1619 C 0.25654 0.34754 0.18425 0.0
C1620 C 0.26039 0.34866 0.16299 0.0
C1621 C 0.26349 0.33796 0.15373 0.0
C1622 C 0.26257 0.32601 0.16562 0.0
C1623 C 0.25867 0.32479 0.18686 0.0
H1624 H 0.26669 0.33896 0.13736 0.0
H1625 H 0.23717 0.33489 0.34564 0.0
H1626 H 0.31109 0.36269 0.40789 0.0
H1627 H 0.29032 0.35749 0.43186 0.0
H1628 H 0.26157 0.31354 0.40138 0.0
H1629 H 0.28248 0.31864 0.37725 0.0
H1630 H 0.2476 0.33141 0.40623 0.0
H1631 H 0.27319 0.31321 0.44871 0.0
H1632 H 0.2951 0.31397 0.46602 0.0
H1633 H 0.3039 0.35424 0.50118 0.0
H1634 H 0.28217 0.35387 0.48384 0.0
H1635 H 0.19115 0.31205 0.48936 0.0
H1636 H 0.20819 0.31238 0.46159 0.0
H1637 H 0.24481 0.35541 0.48647 0.0
H1638 H 0.22791 0.35498 0.51412 0.0
H1639 H 0.25284 0.33394 0.48371 0.0
H1640 H 0.2287 0.35343 0.4393 0.0
H1641 H 0.20724 0.35326 0.42149 0.0
H1642 H 0.19589 0.31095 0.3898 0.0
H1643 H 0.21716 0.31074 0.40769 0.0
C1644 C 0.30044 0.35179 0.40647 0.0
C1645 C 0.29845 0.34106 0.39069 0.0
C1646 C 0.28857 0.34884 0.4202 0.0
C1647 C 0.27439 0.33513 0.41842 0.0
C1648 C 0.27242 0.32419 0.40301 0.0
C1649 C 0.28442 0.32706 0.38938 0.0
C1650 C 0.2616 0.33271 0.43226 0.0
C1651 C 0.24856 0.33163 0.42319 0.0
C1652 C 0.26301 0.3333 0.45435 0.0
C1653 C 0.2761 0.33357 0.46485 0.0
C1654 C 0.27987 0.32231 0.46 0.0
C1655 C 0.29225 0.32265 0.46985 0.0
C1656 C 0.3009 0.33416 0.48466 0.0
C1657 C 0.29718 0.34533 0.48969 0.0
C1658 C 0.28483 0.34505 0.47988 0.0
C1659 C 0.20269 0.3218 0.48836 0.0
C1660 C 0.20825 0.33353 0.50372 0.0
C1661 C 0.21244 0.32196 0.4726 0.0
C1662 C 0.22783 0.33387 0.47205 0.0
C1663 C 0.23303 0.34605 0.48666 0.0
C1664 C 0.22336 0.34588 0.50233 0.0
C1665 C 0.23899 0.33309 0.45774 0.0
C1666 C 0.25173 0.33353 0.46676 0.0
C1667 C 0.23728 0.33193 0.43565 0.0
C1668 C 0.22439 0.33195 0.42507 0.0
C1669 C 0.22152 0.34399 0.42873 0.0
C1670 C 0.20941 0.34398 0.41857 0.0
C1671 C 0.20017 0.33207 0.40458 0.0
C1672 C 0.20303 0.32015 0.40068 0.0
C1673 C 0.21511 0.32009 0.41083 0.0
H1674 H 0.19082 0.33209 0.39671 0.0
H1675 H 0.31048 0.3344 0.49227 0.0
H1676 H 0.65703 0.95262 0.39172 0.0
H1677 H 0.65323 0.93172 0.41475 0.0
H1678 H 0.70196 0.95282 0.42143 0.0
H1679 H 0.70587 0.97359 0.39841 0.0
H1680 H 0.68892 0.92273 0.41163 0.0
H1681 H 0.6792 0.95349 0.46133 0.0
H1682 H 0.66592 0.9666 0.47433 0.0
H1683 H 0.62322 0.92366 0.47298 0.0
H1684 H 0.63623 0.91032 0.45972 0.0
H1685 H 0.69914 0.88627 0.49826 0.0
H1686 H 0.69816 0.90254 0.4711 0.0
H1687 H 0.64914 0.87908 0.47732 0.0
H1688 H 0.65034 0.86331 0.5054 0.0
H1689 H 0.65927 0.90781 0.47783 0.0
H1690 H 0.66862 0.87633 0.43129 0.0
H1691 H 0.6813 0.86269 0.41801 0.0
H1692 H 0.72347 0.90576 0.4121 0.0
H1693 H 0.71111 0.91965 0.42561 0.0
C1694 C 0.66694 0.95297 0.39837 0.0
C1695 C 0.68177 0.96482 0.39311 0.0
C1696 C 0.66474 0.94097 0.41153 0.0
C1697 C 0.67732 0.94064 0.41981 0.0
C1698 C 0.69208 0.95273 0.41512 0.0
C1699 C 0.69429 0.96467 0.402 0.0
C1700 C 0.67529 0.92753 0.43274 0.0
C1701 C 0.68253 0.91954 0.42621 0.0
C1702 C 0.66646 0.92292 0.45131 0.0
C1703 C 0.65866 0.93095 0.4593 0.0
C1704 C 0.66696 0.94687 0.46364 0.0
C1705 C 0.65949 0.95434 0.47109 0.0
C1706 C 0.64373 0.94598 0.47441 0.0
C1707 C 0.63542 0.93012 0.47036 0.0
C1708 C 0.64284 0.92261 0.46289 0.0
C1709 C 0.68813 0.88423 0.49322 0.0
C1710 C 0.67478 0.8733 0.50344 0.0
C1711 C 0.68754 0.89355 0.4777 0.0
C1712 C 0.67353 0.89196 0.47178 0.0
C1713 C 0.66008 0.88053 0.48146 0.0
C1714 C 0.66072 0.87137 0.49728 0.0
C1715 C 0.67319 0.90314 0.45699 0.0
C1716 C 0.66549 0.9108 0.46313 0.0
C1717 C 0.68148 0.90733 0.43791 0.0
C1718 C 0.68894 0.89902 0.42959 0.0
C1719 C 0.68062 0.88289 0.42727 0.0
C1720 C 0.68775 0.87511 0.41969 0.0
C1721 C 0.70319 0.88335 0.41425 0.0
C1722 C 0.71151 0.89939 0.41633 0.0
C1723 C 0.70444 0.90722 0.42391 0.0
H1724 H 0.70869 0.87731 0.4084 0.0
H1725 H 0.63796 0.95178 0.48018 0.0
H1726 H 0.04381 0.73067 0.38182 0.0
H1727 H 0.05843 0.75257 0.40589 0.0
H1728 H 0.07275 0.72577 0.4405 0.0
H1729 H 0.05828 0.70397 0.41666 0.0
H1730 H 0.06548 0.74252 0.46641 0.0
H1731 H 0.09561 0.74999 0.40448 0.0
H1732 H 0.10077 0.75279 0.36645 0.0
H1733 H 0.09642 0.79284 0.36623 0.0
H1734 H 0.09098 0.79012 0.40423 0.0
H1735 H 0.14629 0.8068 0.49266 0.0
H1736 H 0.12811 0.79088 0.46518 0.0
H1737 H 0.09251 0.7941 0.49733 0.0
H1738 H 0.11058 0.80961 0.52511 0.0
H1739 H 0.1088 0.79039 0.43724 0.0
H1740 H 0.05967 0.75814 0.49658 0.0
H1741 H 0.05517 0.75179 0.53417 0.0
H1742 H 0.10003 0.75835 0.53991 0.0
H1743 H 0.10468 0.76444 0.50225 0.0
C1744 C 0.04983 0.72935 0.39482 0.0
C1745 C 0.04995 0.7156 0.39728 0.0
C1746 C 0.05826 0.74191 0.40845 0.0
C1747 C 0.06682 0.74085 0.42483 0.0
C1748 C 0.06626 0.72686 0.42795 0.0
C1749 C 0.058 0.71441 0.41427 0.0
C1750 C 0.07697 0.75438 0.43827 0.0
C1751 C 0.07482 0.75309 0.46004 0.0
C1752 C 0.08933 0.76803 0.42993 0.0
C1753 C 0.09269 0.76974 0.40713 0.0
C1754 C 0.09561 0.75932 0.39628 0.0
C1755 C 0.09861 0.7609 0.37474 0.0
C1756 C 0.09887 0.77295 0.36391 0.0
C1757 C 0.09618 0.78348 0.37463 0.0
C1758 C 0.09314 0.78193 0.39617 0.0
C1759 C 0.13472 0.80458 0.49341 0.0
C1760 C 0.12979 0.80935 0.51099 0.0
C1761 C 0.12431 0.79542 0.47776 0.0
C1762 C 0.10884 0.79096 0.47944 0.0
C1763 C 0.1043 0.7971 0.49591 0.0
C1764 C 0.11464 0.80608 0.51167 0.0
C1765 C 0.0973 0.77856 0.46551 0.0
C1766 C 0.09923 0.78002 0.44364 0.0
C1767 C 0.0849 0.76485 0.47378 0.0
C1768 C 0.08257 0.7619 0.49664 0.0
C1769 C 0.06859 0.75826 0.50588 0.0
C1770 C 0.06599 0.75466 0.52717 0.0
C1771 C 0.07728 0.7546 0.53937 0.0
C1772 C 0.09128 0.75837 0.5304 0.0
C1773 C 0.09391 0.76191 0.50908 0.0
H1774 H 0.0751 0.7515 0.55573 0.0
H1775 H 0.1012 0.77416 0.34724 0.0
H1776 H 0.36035 0.06297 0.7141 0.0
H1777 H 0.36528 0.08441 0.7377 0.0
H1778 H 0.31999 0.05724 0.76339 0.0
H1779 H 0.31494 0.03597 0.7399 0.0
H1780 H 0.32541 0.08488 0.75168 0.0
H1781 H 0.35196 0.06504 0.79095 0.0
H1782 H 0.3711 0.05741 0.79615 0.0
H1783 H 0.40706 0.1034 0.78235 0.0
H1784 H 0.3881 0.11125 0.77675 0.0
H1785 H 0.32491 0.12002 0.8478 0.0
H1786 H 0.32444 0.10357 0.81888 0.0
H1787 H 0.36933 0.13938 0.7998 0.0
H1788 H 0.36971 0.15593 0.82878 0.0
H1789 H 0.36697 0.11085 0.8042 0.0
H1790 H 0.34043 0.13127 0.76881 0.0
H1791 H 0.32123 0.13887 0.76408 0.0
H1792 H 0.28524 0.09177 0.77063 0.0
H1793 H 0.30422 0.08391 0.77572 0.0
C1794 C 0.35156 0.06147 0.72506 0.0
C1795 C 0.33721 0.04779 0.72498 0.0
C1796 C 0.35438 0.07375 0.73851 0.0
C1797 C 0.34295 0.07247 0.75221 0.0
C1798 C 0.32891 0.05856 0.7528 0.0
C1799 C 0.32607 0.04638 0.73938 0.0
C1800 C 0.3451 0.08571 0.7653 0.0
C1801 C 0.33444 0.09048 0.76327 0.0
C1802 C 0.35722 0.09342 0.77986 0.0
C1803 C 0.3686 0.08869 0.78318 0.0
C1804 C 0.36394 0.07349 0.78882 0.0
C1805 C 0.37475 0.06913 0.79188 0.0
C1806 C 0.39028 0.07991 0.78953 0.0
C1807 C 0.39502 0.09507 0.78413 0.0
C1808 C 0.38425 0.09948 0.78102 0.0
C1809 C 0.33447 0.12449 0.83704 0.0
C1810 C 0.34724 0.13925 0.84018 0.0
C1811 C 0.33424 0.11511 0.8206 0.0
C1812 C 0.34683 0.12028 0.80714 0.0
C1813 C 0.35949 0.1352 0.80998 0.0
C1814 C 0.35965 0.14467 0.82634 0.0
C1815 C 0.34698 0.10963 0.791 0.0
C1816 C 0.35808 0.10539 0.7924 0.0
C1817 C 0.33525 0.10236 0.77586 0.0
C1818 C 0.32377 0.10702 0.7728 0.0
C1819 C 0.32842 0.12255 0.76942 0.0
C1820 C 0.31758 0.1269 0.76664 0.0
C1821 C 0.30203 0.11581 0.76709 0.0
C1822 C 0.29729 0.10035 0.77029 0.0
C1823 C 0.30809 0.09594 0.7731 0.0
H1824 H 0.29365 0.11921 0.76492 0.0
H1825 H 0.39865 0.07654 0.79197 0.0
H1826 H 0.94654 0.31103 0.73677 0.0
H1827 H 0.93073 0.29081 0.76153 0.0
H1828 H 0.95385 0.26648 0.74494 0.0
H1829 H 0.96978 0.28673 0.71996 0.0
H1830 H 0.92267 0.24736 0.74481 0.0
H1831 H 0.9604 0.28356 0.79173 0.0
H1832 H 0.9773 0.30888 0.80838 0.0
H1833 H 0.9383 0.3107 0.82984 0.0
H1834 H 0.92115 0.28547 0.81305 0.0
H1835 H 0.8869 0.19517 0.83232 0.0
H1836 H 0.90446 0.21294 0.80568 0.0
H1837 H 0.88554 0.24218 0.81505 0.0
H1838 H 0.86808 0.22446 0.84151 0.0
H1839 H 0.91662 0.25787 0.81938 0.0
H1840 H 0.87905 0.22205 0.77015 0.0
H1841 H 0.86252 0.19655 0.75369 0.0
H1842 H 0.9019 0.1938 0.73718 0.0
H1843 H 0.91867 0.2192 0.75382 0.0
C1844 C 0.94842 0.30149 0.73851 0.0
C1845 C 0.95946 0.30054 0.72634 0.0
C1846 C 0.93937 0.28993 0.75274 0.0
C1847 C 0.94112 0.27714 0.75515 0.0
C1848 C 0.9523 0.27625 0.74332 0.0
C1849 C 0.96147 0.2879 0.72916 0.0
C1850 C 0.93084 0.26452 0.76952 0.0
C1851 C 0.92154 0.24959 0.76122 0.0
C1852 C 0.92921 0.26746 0.79085 0.0
C1853 C 0.93948 0.28267 0.80095 0.0
C1854 C 0.95542 0.28941 0.79984 0.0
C1855 C 0.96505 0.30374 0.80933 0.0
C1856 C 0.95888 0.31141 0.82012 0.0
C1857 C 0.94307 0.30475 0.82146 0.0
C1858 C 0.93338 0.29042 0.81197 0.0
C1859 C 0.8862 0.20512 0.82807 0.0
C1860 C 0.87603 0.20838 0.83857 0.0
C1861 C 0.89626 0.21531 0.813 0.0
C1862 C 0.89634 0.22892 0.80842 0.0
C1863 C 0.88571 0.23178 0.81835 0.0
C1864 C 0.87564 0.2216 0.83327 0.0
C1865 C 0.90818 0.24081 0.79456 0.0
C1866 C 0.91783 0.25562 0.80301 0.0
C1867 C 0.91017 0.23771 0.77344 0.0
C1868 C 0.9001 0.22244 0.76346 0.0
C1869 C 0.88418 0.21594 0.76319 0.0
C1870 C 0.87477 0.20152 0.75379 0.0
C1871 C 0.88115 0.19354 0.74446 0.0
C1872 C 0.89697 0.19998 0.74446 0.0
C1873 C 0.90643 0.21439 0.75386 0.0
H1874 H 0.87385 0.18238 0.73717 0.0
H1875 H 0.96636 0.3225 0.82747 0.0
H1876 H 0.71427 0.6387 0.71147 0.0
H1877 H 0.7343 0.64315 0.73597 0.0
H1878 H 0.73711 0.68517 0.75751 0.0
H1879 H 0.71731 0.68108 0.73212 0.0
H1880 H 0.76466 0.68977 0.75483 0.0
H1881 H 0.7189 0.65079 0.78675 0.0
H1882 H 0.69426 0.62636 0.78897 0.0
H1883 H 0.71661 0.60096 0.7758 0.0
H1884 H 0.74136 0.62526 0.77322 0.0
H1885 H 0.80198 0.69188 0.85157 0.0
H1886 H 0.78584 0.69166 0.82316 0.0
H1887 H 0.78604 0.65294 0.79429 0.0
H1888 H 0.80213 0.65307 0.82283 0.0
H1889 H 0.75715 0.64744 0.80125 0.0
H1890 H 0.80357 0.68786 0.77078 0.0
H1891 H 0.82773 0.71287 0.77056 0.0
H1892 H 0.80342 0.73628 0.78399 0.0
H1893 H 0.77912 0.71139 0.78459 0.0
C1894 C 0.71901 0.64886 0.7215 0.0
C1895 C 0.71398 0.65943 0.71999 0.0
C1896 C 0.7305 0.65138 0.7356 0.0
C1897 C 0.73705 0.66432 0.74903 0.0
C1898 C 0.7322 0.67504 0.74743 0.0
C1899 C 0.72083 0.67265 0.73298 0.0
C1900 C 0.74893 0.66653 0.76458 0.0
C1901 C 0.76292 0.68058 0.76519 0.0
C1902 C 0.74683 0.65451 0.77799 0.0
C1903 C 0.73197 0.63986 0.77961 0.0
C1904 C 0.71854 0.64 0.78418 0.0
C1905 C 0.70456 0.62618 0.78553 0.0
C1906 C 0.70386 0.61212 0.78248 0.0
C1907 C 0.71716 0.61186 0.77814 0.0
C1908 C 0.73118 0.62565 0.77675 0.0
C1909 C 0.7989 0.68357 0.83887 0.0
C1910 C 0.80329 0.67246 0.83944 0.0
C1911 C 0.78969 0.68348 0.82261 0.0
C1912 C 0.78468 0.67227 0.80658 0.0
C1913 C 0.78976 0.6617 0.80649 0.0
C1914 C 0.79907 0.66186 0.82269 0.0
C1915 C 0.77293 0.67056 0.79125 0.0
C1916 C 0.7589 0.65661 0.79082 0.0
C1917 C 0.77493 0.68276 0.77835 0.0
C1918 C 0.78953 0.69774 0.77792 0.0
C1919 C 0.80338 0.69833 0.77386 0.0
C1920 C 0.8171 0.71249 0.77363 0.0
C1921 C 0.81711 0.72615 0.77731 0.0
C1922 C 0.8034 0.72568 0.78117 0.0
C1923 C 0.78965 0.71156 0.78143 0.0
H1924 H 0.82775 0.73709 0.77712 0.0
H1925 H 0.69303 0.60143 0.78353 0.0
H1926 H 0.70119 0.64445 0.60848 0.0
H1927 H 0.72242 0.64849 0.58625 0.0
H1928 H 0.75178 0.69202 0.61739 0.0
H1929 H 0.73038 0.68818 0.63955 0.0
H1930 H 0.75836 0.69331 0.57557 0.0
H1931 H 0.75213 0.66038 0.63257 0.0
H1932 H 0.73789 0.63832 0.65613 0.0
H1933 H 0.72641 0.60699 0.60392 0.0
H1934 H 0.74039 0.62888 0.57998 0.0
H1935 H 0.82346 0.69442 0.5327 0.0
H1936 H 0.80621 0.69335 0.56065 0.0
H1937 H 0.76988 0.65079 0.53424 0.0
H1938 H 0.78704 0.65191 0.50641 0.0
H1939 H 0.76942 0.65089 0.57765 0.0
H1940 H 0.77328 0.68393 0.52056 0.0
H1941 H 0.78737 0.70591 0.49682 0.0
H1942 H 0.80352 0.73707 0.54967 0.0
H1943 H 0.7897 0.71522 0.57376 0.0
C1944 C 0.71208 0.65504 0.61036 0.0
C1945 C 0.71413 0.66592 0.62595 0.0
C1946 C 0.72424 0.65729 0.59771 0.0
C1947 C 0.73881 0.67034 0.60057 0.0
C1948 C 0.74068 0.68179 0.61506 0.0
C1949 C 0.72842 0.67961 0.62765 0.0
C1950 C 0.75212 0.67147 0.58922 0.0
C1951 C 0.76096 0.68418 0.57634 0.0
C1952 C 0.75547 0.6595 0.59007 0.0
C1953 C 0.74724 0.64628 0.60446 0.0
C1954 C 0.7465 0.64879 0.62609 0.0
C1955 C 0.73848 0.63632 0.63951 0.0
C1956 C 0.73123 0.62126 0.63152 0.0
C1957 C 0.73202 0.61866 0.61009 0.0
C1958 C 0.74002 0.63109 0.59659 0.0
C1959 C 0.81194 0.68461 0.53336 0.0
C1960 C 0.80654 0.6732 0.51757 0.0
C1961 C 0.80207 0.68407 0.54916 0.0
C1962 C 0.7867 0.67209 0.54934 0.0
C1963 C 0.78167 0.66013 0.53441 0.0
C1964 C 0.79147 0.66074 0.51857 0.0
C1965 C 0.77545 0.67257 0.56373 0.0
C1966 C 0.76697 0.66014 0.57717 0.0
C1967 C 0.77247 0.6848 0.56343 0.0
C1968 C 0.78061 0.69794 0.54896 0.0
C1969 C 0.77992 0.69546 0.52712 0.0
C1970 C 0.78785 0.70789 0.5136 0.0
C1971 C 0.79637 0.72287 0.52174 0.0
C1972 C 0.79694 0.72546 0.5434 0.0
C1973 C 0.78906 0.71305 0.55699 0.0
H1974 H 0.80249 0.73248 0.51125 0.0
H1975 H 0.72501 0.61162 0.64193 0.0
H1976 H 0.3539 0.05202 0.62385 0.0
H1977 H 0.35842 0.0725 0.59948 0.0
H1978 H 0.31189 0.06142 0.6076 0.0
H1979 H 0.30715 0.04073 0.63111 0.0
H1980 H 0.31851 0.06704 0.56907 0.0
H1981 H 0.34388 0.09319 0.63286 0.0
H1982 H 0.36185 0.1002 0.6624 0.0
H1983 H 0.39945 0.118 0.61931 0.0
H1984 H 0.38167 0.11089 0.58948 0.0
H1985 H 0.32423 0.13448 0.52954 0.0
H1986 H 0.32334 0.1172 0.55695 0.0
H1987 H 0.36534 0.12211 0.53373 0.0
H1988 H 0.36622 0.13928 0.50626 0.0
H1989 H 0.36202 0.12037 0.57962 0.0
H1990 H 0.33565 0.09238 0.51632 0.0
H1991 H 0.31742 0.08625 0.48724 0.0
H1992 H 0.28098 0.07242 0.53163 0.0
H1993 H 0.29911 0.07879 0.5609 0.0
C1994 C 0.34459 0.05384 0.62026 0.0
C1995 C 0.33016 0.04468 0.62954 0.0
C1996 C 0.34723 0.06567 0.60645 0.0
C1997 C 0.33558 0.06877 0.60194 0.0
C1998 C 0.3211 0.05935 0.61077 0.0
C1999 C 0.31841 0.04746 0.6243 0.0
C2000 C 0.33828 0.08175 0.58808 0.0
C2001 C 0.32794 0.0787 0.57166 0.0
C2002 C 0.35071 0.09702 0.59104 0.0
C2003 C 0.36143 0.10136 0.60893 0.0
C2004 C 0.35597 0.09849 0.62968 0.0
C2005 C 0.36612 0.1025 0.64647 0.0
C2006 C 0.38178 0.1095 0.64273 0.0
C2007 C 0.38732 0.11255 0.62218 0.0
C2008 C 0.37721 0.10854 0.60533 0.0
C2009 C 0.33356 0.13233 0.5308 0.0
C2010 C 0.34531 0.13826 0.51583 0.0
C2011 C 0.33297 0.12235 0.54633 0.0
C2012 C 0.3442 0.11826 0.54725 0.0
C2013 C 0.35659 0.12514 0.53336 0.0
C2014 C 0.35709 0.13497 0.5177 0.0
C2015 C 0.34214 0.10557 0.56105 0.0
C2016 C 0.35261 0.10867 0.57727 0.0
C2017 C 0.32973 0.09036 0.55816 0.0
C2018 C 0.31875 0.08626 0.5407 0.0
C2019 C 0.32378 0.08819 0.51979 0.0
C2020 C 0.31347 0.08465 0.50332 0.0
C2021 C 0.29806 0.079 0.50759 0.0
C2022 C 0.29293 0.07683 0.52835 0.0
C2023 C 0.30322 0.08041 0.54488 0.0
H2024 H 0.29009 0.07626 0.49482 0.0
H2025 H 0.38962 0.11259 0.65575 0.0
H2026 H 0.95595 0.31246 0.61128 0.0
H2027 H 0.93806 0.29169 0.58808 0.0
H2028 H 0.94638 0.25958 0.62072 0.0
H2029 H 0.96481 0.28058 0.64365 0.0
H2030 H 0.94208 0.2524 0.58001 0.0
H2031 H 0.91507 0.26237 0.63264 0.0
H2032 H 0.90826 0.2781 0.65487 0.0
H2033 H 0.89445 0.29236 0.60029 0.0
H2034 H 0.90139 0.2769 0.57769 0.0
H2035 H 0.8757 0.19212 0.52829 0.0
H2036 H 0.89191 0.20768 0.55782 0.0
H2037 H 0.89364 0.24792 0.53252 0.0
H2038 H 0.87737 0.23244 0.50333 0.0
H2039 H 0.89122 0.24738 0.57475 0.0
H2040 H 0.9226 0.24004 0.52266 0.0
H2041 H 0.9296 0.224 0.50128 0.0
H2042 H 0.93422 0.20352 0.5572 0.0
H2043 H 0.92717 0.21936 0.57882 0.0
C2044 C 0.9542 0.30104 0.61326 0.0
C2045 C 0.96167 0.2981 0.62938 0.0
C2046 C 0.94387 0.28914 0.6001 0.0
C2047 C 0.94048 0.27397 0.60311 0.0
C2048 C 0.94869 0.27117 0.61827 0.0
C2049 C 0.95927 0.28318 0.63128 0.0
C2050 C 0.92789 0.26111 0.59097 0.0
C2051 C 0.93087 0.25113 0.57918 0.0
C2052 C 0.9132 0.25935 0.58991 0.0
C2053 C 0.90884 0.26854 0.60345 0.0
C2054 C 0.91066 0.26893 0.62536 0.0
C2055 C 0.90677 0.27779 0.63803 0.0
C2056 C 0.90095 0.28624 0.62899 0.0
C2057 C 0.89897 0.28581 0.60727 0.0
C2058 C 0.90286 0.27698 0.59452 0.0
C2059 C 0.87922 0.20419 0.52941 0.0
C2060 C 0.87534 0.2111 0.51353 0.0
C2061 C 0.88861 0.21311 0.54611 0.0
C2062 C 0.89422 0.22903 0.54716 0.0
C2063 C 0.88952 0.23569 0.53201 0.0
C2064 C 0.88023 0.22684 0.51533 0.0
C2065 C 0.9056 0.2391 0.56322 0.0
C2066 C 0.90235 0.24852 0.57586 0.0
C2067 C 0.91994 0.24019 0.56526 0.0
C2068 C 0.92418 0.23072 0.55227 0.0
C2069 C 0.92499 0.23202 0.53032 0.0
C2070 C 0.92899 0.22299 0.51819 0.0
C2071 C 0.93227 0.2127 0.52787 0.0
C2072 C 0.93163 0.21146 0.54971 0.0
C2073 C 0.92766 0.22047 0.56191 0.0
H2074 H 0.93536 0.20573 0.51845 0.0
H2075 H 0.89795 0.2931 0.63883 0.0
H2076 H 0.36575 0.30189 0.61796 0.0
H2077 H 0.35848 0.28031 0.59415 0.0
H2078 H 0.31133 0.26071 0.612 0.0
H2079 H 0.31859 0.28235 0.63651 0.0
H2080 H 0.31934 0.23892 0.61104 0.0
H2081 H 0.32325 0.27694 0.56414 0.0
H2082 H 0.33474 0.30251 0.54789 0.0
H2083 H 0.37307 0.29907 0.52759 0.0
H2084 H 0.36192 0.27356 0.54397 0.0
H2085 H 0.30435 0.19705 0.50558 0.0
H2086 H 0.30389 0.2136 0.53374 0.0
H2087 H 0.34641 0.22057 0.55766 0.0
H2088 H 0.3467 0.20368 0.5299 0.0
H2089 H 0.33685 0.24725 0.53701 0.0
H2090 H 0.33376 0.21096 0.59215 0.0
H2091 H 0.32079 0.18501 0.60749 0.0
H2092 H 0.27876 0.18504 0.61019 0.0
H2093 H 0.29148 0.21093 0.59451 0.0
C2094 C 0.35379 0.29311 0.61682 0.0
C2095 C 0.34275 0.29393 0.62922 0.0
C2096 C 0.34964 0.28075 0.60307 0.0
C2097 C 0.33434 0.26895 0.60109 0.0
C2098 C 0.32321 0.26972 0.61325 0.0
C2099 C 0.32737 0.28214 0.62714 0.0
C2100 C 0.3303 0.25573 0.58665 0.0
C2101 C 0.323 0.24075 0.59479 0.0
C2102 C 0.33504 0.25804 0.5654 0.0
C2103 C 0.34178 0.27337 0.55542 0.0
C2104 C 0.33418 0.28168 0.55634 0.0
C2105 C 0.34063 0.29616 0.54708 0.0
C2106 C 0.35464 0.30242 0.53675 0.0
C2107 C 0.36222 0.2942 0.53561 0.0
C2108 C 0.35583 0.27972 0.54485 0.0
C2109 C 0.31324 0.2016 0.51741 0.0
C2110 C 0.32548 0.19899 0.51577 0.0
C2111 C 0.31299 0.21107 0.53341 0.0
C2112 C 0.32501 0.21813 0.54789 0.0
C2113 C 0.33685 0.21492 0.54691 0.0
C2114 C 0.33699 0.20526 0.53111 0.0
C2115 C 0.32647 0.2307 0.56167 0.0
C2116 C 0.33316 0.2455 0.55326 0.0
C2117 C 0.32109 0.22822 0.58253 0.0
C2118 C 0.31348 0.21272 0.59185 0.0
C2119 C 0.32171 0.20533 0.59573 0.0
C2120 C 0.31442 0.19067 0.60457 0.0
C2121 C 0.29894 0.18335 0.60972 0.0
C2122 C 0.29074 0.1907 0.60612 0.0
C2123 C 0.29797 0.20536 0.59726 0.0
H2124 H 0.29333 0.172 0.61658 0.0
H2125 H 0.35961 0.31363 0.52959 0.0
H2126 H 0.71668 0.06009 0.6362 0.0
H2127 H 0.73443 0.07986 0.612 0.0
H2128 H 0.75241 0.05091 0.59419 0.0
H2129 H 0.73508 0.03138 0.61877 0.0
H2130 H 0.77494 0.07837 0.6015 0.0
H2131 H 0.72861 0.05785 0.56135 0.0
H2132 H 0.70186 0.05024 0.55467 0.0
H2133 H 0.71294 0.09687 0.56556 0.0
H2134 H 0.73974 0.10472 0.57257 0.0
H2135 H 0.8117 0.11251 0.50499 0.0
H2136 H 0.79543 0.0961 0.53337 0.0
H2137 H 0.78756 0.13224 0.55405 0.0
H2138 H 0.8041 0.1488 0.52573 0.0
H2139 H 0.76054 0.10336 0.54724 0.0
H2140 H 0.80767 0.12384 0.58462 0.0
H2141 H 0.83442 0.13092 0.58978 0.0
H2142 H 0.82161 0.08349 0.58252 0.0
H2143 H 0.7948 0.07615 0.57701 0.0
C2144 C 0.72425 0.05784 0.62688 0.0
C2145 C 0.72446 0.04414 0.62947 0.0
C2146 C 0.73441 0.06917 0.61302 0.0
C2147 C 0.74479 0.06691 0.60114 0.0
C2148 C 0.74463 0.05302 0.60324 0.0
C2149 C 0.73465 0.04181 0.61726 0.0
C2150 C 0.75628 0.07919 0.58719 0.0
C2151 C 0.77172 0.08369 0.5895 0.0
C2152 C 0.75224 0.08653 0.57189 0.0
C2153 C 0.73614 0.08183 0.56772 0.0
C2154 C 0.72532 0.06645 0.56249 0.0
C2155 C 0.71015 0.0621 0.55861 0.0
C2156 C 0.70569 0.07305 0.55976 0.0
C2157 C 0.71641 0.08839 0.56472 0.0
C2158 C 0.73159 0.0928 0.56863 0.0
C2159 C 0.80689 0.1171 0.51604 0.0
C2160 C 0.80932 0.13198 0.51345 0.0
C2161 C 0.79754 0.10772 0.53216 0.0
C2162 C 0.79028 0.11295 0.54584 0.0
C2163 C 0.79307 0.12799 0.54369 0.0
C2164 C 0.80264 0.13749 0.52771 0.0
C2165 C 0.77905 0.10227 0.56142 0.0
C2166 C 0.76371 0.0981 0.5594 0.0
C2167 C 0.78313 0.0951 0.57685 0.0
C2168 C 0.79923 0.09946 0.58023 0.0
C2169 C 0.81057 0.11493 0.58395 0.0
C2170 C 0.82574 0.11899 0.58697 0.0
C2171 C 0.82972 0.10767 0.58643 0.0
C2172 C 0.81851 0.09225 0.58292 0.0
C2173 C 0.80332 0.08813 0.57987 0.0
H2174 H 0.84147 0.11083 0.58878 0.0
H2175 H 0.69395 0.06966 0.55674 0.0
H2176 H 0.96075 0.65927 0.62626 0.0
H2177 H 0.9409 0.65556 0.60119 0.0
H2178 H 0.94905 0.7008 0.61667 0.0
H2179 H 0.96886 0.7047 0.64135 0.0
H2180 H 0.91796 0.6781 0.61654 0.0
H2181 H 0.96243 0.69595 0.57242 0.0
H2182 H 0.98426 0.69514 0.55712 0.0
H2183 H 0.95384 0.64995 0.53178 0.0
H2184 H 0.93183 0.6504 0.54719 0.0
H2185 H 0.88298 0.69441 0.53126 0.0
H2186 H 0.89889 0.69377 0.55956 0.0
H2187 H 0.89275 0.65115 0.53426 0.0
H2188 H 0.8771 0.6519 0.50597 0.0
H2189 H 0.92176 0.67054 0.5402 0.0
H2190 H 0.87708 0.6528 0.58177 0.0
H2191 H 0.85488 0.65279 0.59721 0.0
H2192 H 0.88466 0.6962 0.62771 0.0
H2193 H 0.90705 0.69658 0.61219 0.0
C2194 C 0.9584 0.66847 0.6242 0.0
C2195 C 0.96652 0.68231 0.63581 0.0
C2196 C 0.94703 0.66632 0.6099 0.0
C2197 C 0.94345 0.6779 0.60711 0.0
C2198 C 0.95154 0.69168 0.61863 0.0
C2199 C 0.96299 0.69392 0.63265 0.0
C2200 C 0.93138 0.67585 0.59213 0.0
C2201 C 0.91882 0.67656 0.59981 0.0
C2202 C 0.9323 0.67343 0.5704 0.0
C2203 C 0.94551 0.67313 0.56118 0.0
C2204 C 0.96041 0.68578 0.56376 0.0
C2205 C 0.97281 0.6854 0.55503 0.0
C2206 C 0.97044 0.67248 0.54355 0.0
C2207 C 0.95566 0.65993 0.54072 0.0
C2208 C 0.94322 0.66025 0.54944 0.0
C2209 C 0.88472 0.68472 0.53213 0.0
C2210 C 0.87886 0.67324 0.5164 0.0
C2211 C 0.89384 0.68436 0.54826 0.0
C2212 C 0.89711 0.67242 0.54906 0.0
C2213 C 0.89054 0.66055 0.53395 0.0
C2214 C 0.88153 0.66095 0.51784 0.0
C2215 C 0.90828 0.67287 0.56452 0.0
C2216 C 0.92074 0.67191 0.55694 0.0
C2217 C 0.90717 0.67492 0.58635 0.0
C2218 C 0.89374 0.6748 0.59563 0.0
C2219 C 0.8789 0.66242 0.5916 0.0
C2220 C 0.86628 0.66233 0.60041 0.0
C2221 C 0.86835 0.67451 0.61338 0.0
C2222 C 0.88306 0.68678 0.61762 0.0
C2223 C 0.89573 0.68694 0.60884 0.0
H2224 H 0.85857 0.67441 0.6202 0.0
H2225 H 0.98006 0.67221 0.53679 0.0
H2226 H 0.95 0.6488 0.72079 0.0
H2227 H 0.92821 0.64226 0.74378 0.0
H2228 H 0.95006 0.68952 0.76524 0.0
H2229 H 0.97186 0.69606 0.74282 0.0
H2230 H 0.93669 0.67128 0.797 0.0
H2231 H 0.9225 0.67525 0.72669 0.0
H2232 H 0.91828 0.66908 0.68886 0.0
H2233 H 0.88512 0.62203 0.7028 0.0
H2234 H 0.88932 0.62788 0.74074 0.0
H2235 H 0.87702 0.68128 0.83022 0.0
H2236 H 0.89449 0.68139 0.80358 0.0
H2237 H 0.87426 0.63233 0.81011 0.0
H2238 H 0.857 0.63229 0.83726 0.0
H2239 H 0.88531 0.6485 0.76468 0.0
H2240 H 0.90017 0.6465 0.83687 0.0
H2241 H 0.9038 0.65527 0.87382 0.0
H2242 H 0.93596 0.70148 0.85488 0.0
H2243 H 0.93224 0.69303 0.81776 0.0
C2244 C 0.95027 0.65775 0.73066 0.0
C2245 C 0.96267 0.673 0.72978 0.0
C2246 C 0.93774 0.65401 0.74368 0.0
C2247 C 0.93736 0.66545 0.75601 0.0
C2248 C 0.95003 0.68048 0.75587 0.0
C2249 C 0.96251 0.68422 0.74293 0.0
C2250 C 0.92363 0.66209 0.7685 0.0
C2251 C 0.92549 0.66628 0.78986 0.0
C2252 C 0.90892 0.65551 0.75932 0.0
C2253 C 0.90637 0.65196 0.73654 0.0
C2254 C 0.91441 0.66356 0.72168 0.0
C2255 C 0.912 0.66013 0.70023 0.0
C2256 C 0.90148 0.64516 0.69343 0.0
C2257 C 0.8933 0.63361 0.70809 0.0
C2258 C 0.89569 0.63698 0.72957 0.0
C2259 C 0.87587 0.67044 0.82526 0.0
C2260 C 0.86557 0.65674 0.83545 0.0
C2261 C 0.88589 0.67052 0.81017 0.0
C2262 C 0.88566 0.65687 0.80496 0.0
C2263 C 0.8745 0.64293 0.81382 0.0
C2264 C 0.86462 0.6429 0.82921 0.0
C2265 C 0.89852 0.65771 0.79294 0.0
C2266 C 0.89649 0.65317 0.77177 0.0
C2267 C 0.91314 0.66417 0.80217 0.0
C2268 C 0.91581 0.66916 0.82453 0.0
C2269 C 0.90792 0.65855 0.84057 0.0
C2270 C 0.91 0.66346 0.86155 0.0
C2271 C 0.92007 0.67893 0.86669 0.0
C2272 C 0.92814 0.6895 0.85087 0.0
C2273 C 0.92605 0.68466 0.82986 0.0
H2274 H 0.92166 0.68271 0.88293 0.0
H2275 H 0.89962 0.64252 0.67682 0.0
H2276 H 0.37753 0.31078 0.73019 0.0
H2277 H 0.37433 0.2909 0.75434 0.0
H2278 H 0.32546 0.26875 0.74869 0.0
H2279 H 0.32852 0.28876 0.72432 0.0
H2280 H 0.33474 0.26858 0.78959 0.0
H2281 H 0.34334 0.25466 0.72122 0.0
H2282 H 0.35655 0.25876 0.68731 0.0
H2283 H 0.39718 0.26739 0.71922 0.0
H2284 H 0.38428 0.26357 0.75337 0.0
H2285 H 0.32131 0.20019 0.83676 0.0
H2286 H 0.32174 0.21711 0.80924 0.0
H2287 H 0.37096 0.24147 0.80915 0.0
H2288 H 0.37046 0.22424 0.83643 0.0
H2289 H 0.35988 0.23924 0.76975 0.0
H2290 H 0.35146 0.25429 0.83822 0.0
H2291 H 0.33808 0.24993 0.872 0.0
H2292 H 0.29687 0.23903 0.83975 0.0
H2293 H 0.30994 0.24306 0.80568 0.0
C2294 C 0.36605 0.30181 0.73418 0.0
C2295 C 0.35327 0.30135 0.72505 0.0
C2296 C 0.36426 0.29038 0.74798 0.0
C2297 C 0.34967 0.27813 0.753 0.0
C2298 C 0.33684 0.27804 0.74492 0.0
C2299 C 0.33861 0.28952 0.73102 0.0
C2300 C 0.348 0.26523 0.76606 0.0
C2301 C 0.34002 0.26199 0.78509 0.0
C2302 C 0.3551 0.25677 0.76038 0.0
C2303 C 0.36287 0.25896 0.73987 0.0
C2304 C 0.35512 0.25754 0.72102 0.0
C2305 C 0.36255 0.2598 0.70176 0.0
C2306 C 0.37771 0.26336 0.70111 0.0
C2307 C 0.38545 0.26464 0.71974 0.0
C2308 C 0.37808 0.26242 0.73906 0.0
C2309 C 0.33218 0.20884 0.83032 0.0
C2310 C 0.34585 0.21084 0.83845 0.0
C2311 C 0.33244 0.21861 0.81478 0.0
C2312 C 0.34639 0.23079 0.8074 0.0
C2313 C 0.36006 0.23219 0.81462 0.0
C2314 C 0.35979 0.22231 0.83008 0.0
C2315 C 0.34675 0.24268 0.7934 0.0
C2316 C 0.35451 0.24575 0.7742 0.0
C2317 C 0.33943 0.25097 0.79892 0.0
C2318 C 0.33164 0.24883 0.81939 0.0
C2319 C 0.33952 0.25087 0.83832 0.0
C2320 C 0.33199 0.24846 0.85752 0.0
C2321 C 0.31663 0.24417 0.85804 0.0
C2322 C 0.30877 0.24233 0.83933 0.0
C2323 C 0.31623 0.24468 0.82006 0.0
H2324 H 0.31083 0.2423 0.87294 0.0
H2325 H 0.38344 0.26511 0.68618 0.0
H2326 H 0.70385 0.058 0.72172 0.0
H2327 H 0.71835 0.07965 0.7461 0.0
H2328 H 0.74982 0.06395 0.75702 0.0
H2329 H 0.7353 0.04222 0.73344 0.0
H2330 H 0.74482 0.0734 0.79213 0.0
H2331 H 0.7574 0.09349 0.72216 0.0
H2332 H 0.75204 0.09881 0.68657 0.0
H2333 H 0.73308 0.12474 0.71267 0.0
H2334 H 0.73814 0.11938 0.74845 0.0
H2335 H 0.81316 0.13976 0.82138 0.0
H2336 H 0.79536 0.12308 0.79398 0.0
H2337 H 0.76075 0.13114 0.81916 0.0
H2338 H 0.77841 0.14747 0.84701 0.0
H2339 H 0.76558 0.1268 0.76698 0.0
H2340 H 0.75315 0.10443 0.83853 0.0
H2341 H 0.76188 0.10018 0.87247 0.0
H2342 H 0.78378 0.07905 0.84055 0.0
H2343 H 0.77544 0.08347 0.8064 0.0
C2344 C 0.71374 0.05905 0.72955 0.0
C2345 C 0.71843 0.04838 0.72546 0.0
C2346 C 0.72208 0.0715 0.74336 0.0
C2347 C 0.73534 0.0736 0.75315 0.0
C2348 C 0.73966 0.06263 0.74968 0.0
C2349 C 0.73132 0.05018 0.73608 0.0
C2350 C 0.7451 0.08734 0.76657 0.0
C2351 C 0.74926 0.08503 0.78656 0.0
C2352 C 0.75098 0.10261 0.75945 0.0
C2353 C 0.74797 0.10588 0.73797 0.0
C2354 C 0.75198 0.10022 0.72031 0.0
C2355 C 0.74901 0.10326 0.7001 0.0
C2356 C 0.74218 0.11207 0.69736 0.0
C2357 C 0.73834 0.11789 0.71482 0.0
C2358 C 0.74126 0.11486 0.73507 0.0
C2359 C 0.80199 0.13853 0.82044 0.0
C2360 C 0.79712 0.14491 0.83612 0.0
C2361 C 0.79183 0.12898 0.80487 0.0
C2362 C 0.77678 0.1259 0.80466 0.0
C2363 C 0.77237 0.13351 0.81903 0.0
C2364 C 0.78244 0.14283 0.83485 0.0
C2365 C 0.76512 0.11268 0.79224 0.0
C2366 C 0.76076 0.11511 0.77255 0.0
C2367 C 0.75921 0.0975 0.79941 0.0
C2368 C 0.7638 0.09441 0.81995 0.0
C2369 C 0.75993 0.09898 0.83876 0.0
C2370 C 0.76479 0.09653 0.85803 0.0
C2371 C 0.7734 0.08938 0.85866 0.0
C2372 C 0.77713 0.08461 0.84003 0.0
C2373 C 0.77234 0.08708 0.82073 0.0
H2374 H 0.77715 0.08748 0.87358 0.0
H2375 H 0.7399 0.11441 0.6817 0.0
H2376 H 0.06056 0.37457 0.01742 0.0
H2377 H 0.08281 0.37394 0.03046 0.0
H2378 H 0.05286 0.33071 0.06073 0.0
H2379 H 0.03078 0.33158 0.04842 0.0
H2380 H 0.07436 0.34745 0.08624 0.0
H2381 H 0.07328 0.33437 0.01325 0.0
H2382 H 0.07324 0.33797 0.97505 0.0
H2383 H 0.11672 0.37989 0.97971 0.0
H2384 H 0.11693 0.37664 0.01799 0.0
H2385 H 0.12347 0.32166 0.10992 0.0
H2386 H 0.10494 0.32332 0.08763 0.0
H2387 H 0.13794 0.37093 0.07525 0.0
H2388 H 0.15655 0.36925 0.09767 0.0
H2389 H 0.11649 0.35367 0.04019 0.0
H2390 H 0.1171 0.36529 0.11414 0.0
H2391 H 0.11708 0.35955 0.1516 0.0
H2392 H 0.07338 0.31824 0.14434 0.0
H2393 H 0.07333 0.32349 0.10664 0.0
C2394 C 0.05875 0.36495 0.02687 0.0
C2395 C 0.04387 0.35315 0.03189 0.0
C2396 C 0.0715 0.36454 0.03422 0.0
C2397 C 0.06962 0.35217 0.04645 0.0
C2398 C 0.05473 0.34041 0.05141 0.0
C2399 C 0.04205 0.34091 0.0443 0.0
C2400 C 0.083 0.35147 0.05456 0.0
C2401 C 0.08344 0.34866 0.07602 0.0
C2402 C 0.09515 0.35336 0.0415 0.0
C2403 C 0.09503 0.35535 0.01851 0.0
C2404 C 0.08277 0.34442 0.00615 0.0
C2405 C 0.08273 0.34639 0.98448 0.0
C2406 C 0.09495 0.35917 0.97497 0.0
C2407 C 0.10725 0.37 0.9871 0.0
C2408 C 0.10734 0.3681 0.00878 0.0
C2409 C 0.12702 0.33223 0.10156 0.0
C2410 C 0.14149 0.34527 0.10529 0.0
C2411 C 0.11638 0.33323 0.08899 0.0
C2412 C 0.11997 0.34732 0.08002 0.0
C2413 C 0.13493 0.35994 0.08198 0.0
C2414 C 0.14561 0.35895 0.09464 0.0
C2415 C 0.10754 0.34937 0.07159 0.0
C2416 C 0.10736 0.35251 0.05025 0.0
C2417 C 0.0955 0.34762 0.08468 0.0
C2418 C 0.09527 0.34472 0.10751 0.0
C2419 C 0.10752 0.35494 0.12049 0.0
C2420 C 0.10751 0.35179 0.14178 0.0
C2421 C 0.09523 0.33856 0.15037 0.0
C2422 C 0.0829 0.32848 0.13767 0.0
C2423 C 0.08288 0.33153 0.11633 0.0
H2424 H 0.09527 0.33612 0.16684 0.0
H2425 H 0.0949 0.36067 0.95819 0.0
H2426 H 0.65074 0.69475 0.00373 0.0
H2427 H 0.65147 0.71813 0.01576 0.0
H2428 H 0.67412 0.7179 0.07265 0.0
H2429 H 0.67409 0.69489 0.06006 0.0
H2430 H 0.63915 0.72431 0.04508 0.0
H2431 H 0.6954 0.7531 0.09377 0.0
H2432 H 0.72062 0.75534 0.09292 0.0
H2433 H 0.71636 0.74679 0.02641 0.0
H2434 H 0.69121 0.74471 0.02681 0.0
H2435 H 0.64116 0.77491 0.12317 0.0
H2436 H 0.64055 0.75545 0.0996 0.0
H2437 H 0.67987 0.79078 0.06681 0.0
H2438 H 0.68076 0.81031 0.09113 0.0
H2439 H 0.68502 0.76926 0.07631 0.0
H2440 H 0.64357 0.76857 0.04268 0.0
H2441 H 0.61921 0.76796 0.03945 0.0
H2442 H 0.59554 0.7234 0.06793 0.0
H2443 H 0.61979 0.72382 0.07161 0.0
C2444 C 0.65598 0.69974 0.01875 0.0
C2445 C 0.66242 0.69301 0.03091 0.0
C2446 C 0.65635 0.71312 0.02566 0.0
C2447 C 0.66301 0.72002 0.04505 0.0
C2448 C 0.66927 0.71313 0.05738 0.0
C2449 C 0.66916 0.69989 0.05026 0.0
C2450 C 0.66296 0.73408 0.05255 0.0
C2451 C 0.64923 0.73415 0.0518 0.0
C2452 C 0.67616 0.74722 0.0608 0.0
C2453 C 0.69136 0.74862 0.06037 0.0
C2454 C 0.69987 0.75177 0.07895 0.0
C2455 C 0.71415 0.75299 0.07855 0.0
C2456 C 0.72007 0.75116 0.05963 0.0
C2457 C 0.71174 0.74815 0.04106 0.0
C2458 C 0.69747 0.74693 0.04137 0.0
C2459 C 0.64932 0.77859 0.11042 0.0
C2460 C 0.66093 0.79412 0.10885 0.0
C2461 C 0.64899 0.76744 0.09692 0.0
C2462 C 0.66014 0.77156 0.08127 0.0
C2463 C 0.67115 0.78727 0.07875 0.0
C2464 C 0.67153 0.79847 0.09242 0.0
C2465 C 0.66113 0.75929 0.06929 0.0
C2466 C 0.67501 0.75951 0.0693 0.0
C2467 C 0.64819 0.74664 0.05974 0.0
C2468 C 0.63354 0.74628 0.05752 0.0
C2469 C 0.63319 0.75868 0.04838 0.0
C2470 C 0.6194 0.75836 0.04645 0.0
C2471 C 0.60584 0.74566 0.05351 0.0
C2472 C 0.60605 0.73323 0.06247 0.0
C2473 C 0.61982 0.73349 0.06445 0.0
H2474 H 0.59517 0.74544 0.05201 0.0
H2475 H 0.73112 0.7521 0.05936 0.0
H2476 H 0.32486 0.95722 0.02369 0.0
H2477 H 0.30145 0.93538 0.03728 0.0
H2478 H 0.28737 0.96643 0.06075 0.0
H2479 H 0.31135 0.98842 0.04826 0.0
H2480 H 0.27935 0.94571 0.0875 0.0
H2481 H 0.27269 0.94278 0.01301 0.0
H2482 H 0.27924 0.94174 0.97595 0.0
H2483 H 0.27874 0.8997 0.98714 0.0
H2484 H 0.27237 0.90059 0.02434 0.0
H2485 H 0.20277 0.88983 0.10348 0.0
H2486 H 0.22401 0.9094 0.08277 0.0
H2487 H 0.24418 0.88097 0.08054 0.0
H2488 H 0.22295 0.86141 0.10157 0.0
H2489 H 0.2482 0.89977 0.04216 0.0
H2490 H 0.25539 0.9043 0.11797 0.0
H2491 H 0.24757 0.9058 0.15422 0.0
H2492 H 0.24531 0.94576 0.13861 0.0
H2493 H 0.25298 0.94441 0.10221 0.0
C2494 C 0.31681 0.9594 0.03185 0.0
C2495 C 0.31992 0.97454 0.03482 0.0
C2496 C 0.30331 0.94685 0.03946 0.0
C2497 C 0.29228 0.94908 0.04957 0.0
C2498 C 0.29556 0.96428 0.05294 0.0
C2499 C 0.30929 0.97688 0.04579 0.0
C2500 C 0.27748 0.93562 0.05682 0.0
C2501 C 0.2725 0.93582 0.07737 0.0
C2502 C 0.26845 0.92245 0.04388 0.0
C2503 C 0.27219 0.92183 0.0215 0.0
C2504 C 0.27407 0.93336 0.00759 0.0
C2505 C 0.27773 0.93279 0.98656 0.0
C2506 C 0.27944 0.92068 0.97921 0.0
C2507 C 0.27743 0.90908 0.99286 0.0
C2508 C 0.27377 0.9096 0.01391 0.0
C2509 C 0.21131 0.8874 0.09759 0.0
C2510 C 0.21109 0.87399 0.10376 0.0
C2511 C 0.22355 0.89868 0.08601 0.0
C2512 C 0.23577 0.89673 0.08035 0.0
C2513 C 0.23484 0.88268 0.0847 0.0
C2514 C 0.22263 0.87143 0.09649 0.0
C2515 C 0.25026 0.91006 0.07259 0.0
C2516 C 0.25513 0.90977 0.05207 0.0
C2517 C 0.25907 0.92327 0.08538 0.0
C2518 C 0.25463 0.92417 0.10733 0.0
C2519 C 0.25313 0.91334 0.12223 0.0
C2520 C 0.24876 0.91418 0.14281 0.0
C2521 C 0.24591 0.92584 0.14869 0.0
C2522 C 0.24749 0.93672 0.13403 0.0
C2523 C 0.25188 0.93594 0.11344 0.0
H2524 H 0.24252 0.92647 0.16461 0.0
H2525 H 0.28228 0.92026 0.96292 0.0
H2526 H 0.33262 0.02987 0.9862 0.0
H2527 H 0.33211 0.0523 0.97373 0.0
H2528 H 0.38085 0.08038 0.98265 0.0
H2529 H 0.38114 0.05801 0.99659 0.0
H2530 H 0.36995 0.09717 0.99215 0.0
H2531 H 0.3621 0.06523 0.93203 0.0
H2532 H 0.35018 0.04141 0.91054 0.0
H2533 H 0.30725 0.03961 0.91312 0.0
H2534 H 0.31887 0.06332 0.93485 0.0
H2535 H 0.37774 0.15332 0.91514 0.0
H2536 H 0.37905 0.13446 0.93757 0.0
H2537 H 0.33001 0.1092 0.9429 0.0
H2538 H 0.32876 0.12813 0.92066 0.0
H2539 H 0.34162 0.09176 0.92657 0.0
H2540 H 0.35164 0.12582 0.98575 0.0
H2541 H 0.36543 0.1506 0.00498 0.0
H2542 H 0.40691 0.14958 0.00084 0.0
H2543 H 0.3934 0.1249 0.98132 0.0
C2544 C 0.34323 0.04083 0.98553 0.0
C2545 C 0.35695 0.04212 0.99218 0.0
C2546 C 0.34296 0.05369 0.97824 0.0
C2547 C 0.35651 0.0681 0.97654 0.0
C2548 C 0.37021 0.06946 0.98361 0.0
C2549 C 0.3704 0.05664 0.99152 0.0
C2550 C 0.35632 0.08158 0.96723 0.0
C2551 C 0.3639 0.09598 0.97766 0.0
C2552 C 0.34834 0.08021 0.94837 0.0
C2553 C 0.34133 0.06597 0.93523 0.0
C2554 C 0.3501 0.0597 0.92812 0.0
C2555 C 0.34339 0.04622 0.91589 0.0
C2556 C 0.32796 0.03898 0.91051 0.0
C2557 C 0.3192 0.04522 0.91732 0.0
C2558 C 0.32584 0.05869 0.92958 0.0
C2559 C 0.36733 0.14419 0.92205 0.0
C2560 C 0.35317 0.1424 0.91663 0.0
C2561 C 0.36806 0.13331 0.93469 0.0
C2562 C 0.35462 0.12034 0.94192 0.0
C2563 C 0.34054 0.1191 0.93758 0.0
C2564 C 0.33983 0.13004 0.92512 0.0
C2565 C 0.35505 0.10719 0.95162 0.0
C2566 C 0.34759 0.09288 0.94112 0.0
C2567 C 0.36343 0.10878 0.97006 0.0
C2568 C 0.37153 0.12357 0.98191 0.0
C2569 C 0.36372 0.13094 0.98879 0.0
C2570 C 0.37149 0.14496 0.99977 0.0
C2571 C 0.38704 0.15168 0.00409 0.0
C2572 C 0.39486 0.14437 0.99747 0.0
C2573 C 0.38715 0.13036 0.98647 0.0
H2574 H 0.39303 0.16253 0.01259 0.0
H2575 H 0.32279 0.02855 0.90104 0.0
H2576 H 0.99045 0.30607 0.9765 0.0
H2577 H 0.9686 0.28209 0.96323 0.0
H2578 H 0.93818 0.29716 0.98503 0.0
H2579 H 0.9599 0.3206 0.99946 0.0
H2580 H 0.9254 0.26912 0.99301 0.0
H2581 H 0.94905 0.2972 0.93052 0.0
H2582 H 0.96973 0.31164 0.90505 0.0
H2583 H 0.97521 0.27254 0.89658 0.0
H2584 H 0.95467 0.25792 0.92219 0.0
H2585 H 0.86394 0.22038 0.92075 0.0
H2586 H 0.88379 0.24043 0.94336 0.0
H2587 H 0.91118 0.21949 0.93514 0.0
H2588 H 0.89136 0.1995 0.91268 0.0
H2589 H 0.92515 0.24961 0.92117 0.0
H2590 H 0.89868 0.22126 0.98295 0.0
H2591 H 0.87648 0.20774 0.00641 0.0
H2592 H 0.87453 0.24898 0.01359 0.0
H2593 H 0.8966 0.2627 0.98993 0.0
C2594 C 0.97909 0.30427 0.97833 0.0
C2595 C 0.97689 0.31523 0.98892 0.0
C2596 C 0.96658 0.29057 0.97065 0.0
C2597 C 0.95163 0.28781 0.97275 0.0
C2598 C 0.94951 0.29889 0.98321 0.0
C2599 C 0.96196 0.31237 0.99137 0.0
C2600 C 0.9382 0.27337 0.9643 0.0
C2601 C 0.92533 0.265 0.97719 0.0
C2602 C 0.93802 0.26773 0.94375 0.0
C2603 C 0.95044 0.27653 0.92844 0.0
C2604 C 0.95475 0.29172 0.92335 0.0
C2605 C 0.96643 0.29993 0.90886 0.0
C2606 C 0.97381 0.29303 0.89925 0.0
C2607 C 0.9695 0.27789 0.90407 0.0
C2608 C 0.95783 0.26963 0.91855 0.0
C2609 C 0.87383 0.21963 0.92475 0.0
C2610 C 0.87606 0.20831 0.9153 0.0
C2611 C 0.88524 0.23115 0.93749 0.0
C2612 C 0.89903 0.23151 0.94081 0.0
C2613 C 0.90066 0.21944 0.93278 0.0
C2614 C 0.88926 0.20793 0.92017 0.0
C2615 C 0.91249 0.24546 0.94989 0.0
C2616 C 0.92533 0.25375 0.93703 0.0
C2617 C 0.91245 0.2512 0.97021 0.0
C2618 C 0.89922 0.24297 0.98451 0.0
C2619 C 0.89344 0.22741 0.98938 0.0
C2620 C 0.8809 0.21972 0.00276 0.0
C2621 C 0.87408 0.22748 0.01145 0.0
C2622 C 0.87981 0.24297 0.00683 0.0
C2623 C 0.89235 0.25072 0.99346 0.0
H2624 H 0.86436 0.2215 0.02179 0.0
H2625 H 0.98284 0.2994 0.88804 0.0
H2626 H 0.70082 0.67538 0.97293 0.0
H2627 H 0.72345 0.67567 0.9598 0.0
H2628 H 0.71178 0.63534 0.99604 0.0
H2629 H 0.68925 0.6353 0.00981 0.0
H2630 H 0.74154 0.6544 0.99789 0.0
H2631 H 0.70551 0.63307 0.94227 0.0
H2632 H 0.68645 0.63109 0.91686 0.0
H2633 H 0.72017 0.67348 0.8887 0.0
H2634 H 0.73939 0.67583 0.91414 0.0
H2635 H 0.78907 0.64003 0.92007 0.0
H2636 H 0.76832 0.6368 0.94343 0.0
H2637 H 0.78381 0.68505 0.93763 0.0
H2638 H 0.80459 0.68835 0.91479 0.0
H2639 H 0.75121 0.65861 0.92121 0.0
H2640 H 0.78666 0.67973 0.98025 0.0
H2641 H 0.80505 0.67972 0.00515 0.0
H2642 H 0.77114 0.63454 0.02563 0.0
H2643 H 0.75261 0.6342 0.00059 0.0
C2644 C 0.70303 0.66654 0.97812 0.0
C2645 C 0.69314 0.65524 0.99229 0.0
C2646 C 0.71598 0.66668 0.97052 0.0
C2647 C 0.71924 0.65535 0.97658 0.0
C2648 C 0.70952 0.64419 0.99105 0.0
C2649 C 0.69661 0.64413 0.99884 0.0
C2650 C 0.73271 0.6552 0.96755 0.0
C2651 C 0.74351 0.65509 0.9811 0.0
C2652 C 0.73538 0.65605 0.94562 0.0
C2653 C 0.72387 0.65468 0.93024 0.0
C2654 C 0.70884 0.64203 0.93076 0.0
C2655 C 0.69801 0.64083 0.91633 0.0
C2656 C 0.70209 0.65217 0.9012 0.0
C2657 C 0.71702 0.66471 0.90044 0.0
C2658 C 0.72789 0.66597 0.91485 0.0
C2659 C 0.78847 0.65006 0.92469 0.0
C2660 C 0.79848 0.66446 0.91578 0.0
C2661 C 0.77655 0.64818 0.93786 0.0
C2662 C 0.77452 0.66069 0.94216 0.0
C2663 C 0.78522 0.67528 0.93458 0.0
C2664 C 0.79715 0.67718 0.92166 0.0
C2665 C 0.76012 0.65829 0.95156 0.0
C2666 C 0.74912 0.6578 0.93799 0.0
C2667 C 0.75719 0.65665 0.97335 0.0
C2668 C 0.76833 0.65685 0.98833 0.0
C2669 C 0.78318 0.66972 0.98986 0.0
C2670 C 0.79362 0.6698 0.00406 0.0
C2671 C 0.78929 0.65711 0.01691 0.0
C2672 C 0.77449 0.64434 0.01563 0.0
C2673 C 0.76402 0.64421 0.00145 0.0
H2674 H 0.79738 0.6572 0.02789 0.0
H2675 H 0.69368 0.65122 0.89004 0.0
H2676 H 0.95152 0.63631 0.00856 0.0
H2677 H 0.92941 0.6374 0.9959 0.0
H2678 H 0.95925 0.67695 0.95858 0.0
H2679 H 0.98126 0.67603 0.97126 0.0
H2680 H 0.93889 0.68158 0.97839 0.0
H2681 H 0.93732 0.64052 0.93678 0.0
H2682 H 0.93612 0.61574 0.93107 0.0
H2683 H 0.89349 0.59221 0.96412 0.0
H2684 H 0.89455 0.6169 0.97027 0.0
H2685 H 0.89276 0.68388 0.89822 0.0
H2686 H 0.91092 0.6829 0.92187 0.0
H2687 H 0.874 0.6433 0.95221 0.0
H2688 H 0.85573 0.64414 0.92802 0.0
H2689 H 0.89566 0.63757 0.94122 0.0
H2690 H 0.89583 0.67879 0.97853 0.0
H2691 H 0.8972 0.70372 0.98313 0.0
H2692 H 0.94252 0.72721 0.95761 0.0
H2693 H 0.94135 0.70241 0.95257 0.0
C2694 C 0.95334 0.6452 0.9976 0.0
C2695 C 0.96818 0.65605 0.9909 0.0
C2696 C 0.94069 0.6458 0.99034 0.0
C2697 C 0.9426 0.65723 0.97617 0.0
C2698 C 0.95742 0.66806 0.96955 0.0
C2699 C 0.97003 0.66746 0.97676 0.0
C2700 C 0.92931 0.65804 0.96807 0.0
C2701 C 0.92947 0.67198 0.97016 0.0
C2702 C 0.91675 0.64539 0.95788 0.0
C2703 C 0.91611 0.63057 0.95421 0.0
C2704 C 0.92776 0.63008 0.94299 0.0
C2705 C 0.92709 0.61605 0.93964 0.0
C2706 C 0.91476 0.60242 0.94729 0.0
C2707 C 0.90305 0.60278 0.95825 0.0
C2708 C 0.90368 0.61679 0.96166 0.0
C2709 C 0.88846 0.67532 0.91047 0.0
C2710 C 0.87281 0.66422 0.91149 0.0
C2711 C 0.89887 0.67473 0.92399 0.0
C2712 C 0.8939 0.66308 0.93902 0.0
C2713 C 0.87814 0.65244 0.94082 0.0
C2714 C 0.86767 0.65303 0.9272 0.0
C2715 C 0.90535 0.66123 0.95118 0.0
C2716 C 0.90489 0.6471 0.94979 0.0
C2717 C 0.91767 0.67373 0.96197 0.0
C2718 C 0.91846 0.6887 0.96507 0.0
C2719 C 0.90605 0.68926 0.97377 0.0
C2720 C 0.9068 0.70337 0.97648 0.0
C2721 C 0.91993 0.71704 0.97064 0.0
C2722 C 0.93235 0.71662 0.96212 0.0
C2723 C 0.93166 0.70253 0.95937 0.0
H2724 H 0.92048 0.72795 0.97275 0.0
H2725 H 0.91426 0.59157 0.94468 0.0
H2726 H 0.32757 0.30894 0.97243 0.0
H2727 H 0.32501 0.28469 0.9598 0.0
H2728 H 0.36628 0.2956 0.99253 0.0
H2729 H 0.36882 0.31973 0.00537 0.0
H2730 H 0.36516 0.28542 0.95094 0.0
H2731 H 0.33337 0.26962 0.01265 0.0
H2732 H 0.31264 0.26734 0.03524 0.0
H2733 H 0.28006 0.24254 0.98629 0.0
H2734 H 0.30064 0.24486 0.96328 0.0
H2735 H 0.36048 0.21542 0.92903 0.0
H2736 H 0.36077 0.23506 0.9524 0.0
H2737 H 0.31748 0.22506 0.92708 0.0
H2738 H 0.31708 0.20532 0.90409 0.0
H2739 H 0.31997 0.23444 0.96734 0.0
H2740 H 0.34972 0.2513 0.905 0.0
H2741 H 0.36911 0.25382 0.87951 0.0
H2742 H 0.40414 0.2772 0.92609 0.0
H2743 H 0.38486 0.27459 0.95193 0.0
C2744 C 0.3361 0.30618 0.97691 0.0
C2745 C 0.34839 0.31626 0.98992 0.0
C2746 C 0.33459 0.29228 0.96977 0.0
C2747 C 0.34539 0.28827 0.97537 0.0
C2748 C 0.35779 0.29844 0.98806 0.0
C2749 C 0.35921 0.31222 0.9954 0.0
C2750 C 0.34391 0.27357 0.96776 0.0
C2751 C 0.35543 0.27426 0.95487 0.0
C2752 C 0.33097 0.25902 0.97232 0.0
C2753 C 0.31857 0.25753 0.98618 0.0
C2754 C 0.3218 0.26379 0.00664 0.0
C2755 C 0.31007 0.26247 0.01954 0.0
C2756 C 0.29505 0.25483 0.01219 0.0
C2757 C 0.29171 0.24846 0.99195 0.0
C2758 C 0.3034 0.24976 0.97899 0.0
C2759 C 0.3507 0.21691 0.92924 0.0
C2760 C 0.33877 0.20889 0.91477 0.0
C2761 C 0.35094 0.22826 0.9424 0.0
C2762 C 0.33931 0.23181 0.94114 0.0
C2763 C 0.32661 0.22261 0.92832 0.0
C2764 C 0.32636 0.21128 0.91522 0.0
C2765 C 0.34131 0.24628 0.95067 0.0
C2766 C 0.32984 0.24558 0.96373 0.0
C2767 C 0.35415 0.26087 0.94591 0.0
C2768 C 0.36583 0.2626 0.93043 0.0
C2769 C 0.36155 0.2569 0.90981 0.0
C2770 C 0.37252 0.25834 0.89531 0.0
C2771 C 0.38786 0.26564 0.9012 0.0
C2772 C 0.39225 0.27153 0.92157 0.0
C2773 C 0.3813 0.27007 0.93615 0.0
H2774 H 0.39635 0.26675 0.88996 0.0
H2775 H 0.28598 0.25382 0.0222 0.0
H2776 H 0.69485 0.05325 0.00773 0.0
H2777 H 0.71845 0.07422 0.99298 0.0
H2778 H 0.72223 0.0418 0.95255 0.0
H2779 H 0.69858 0.02067 0.96739 0.0
H2780 H 0.74975 0.06257 0.9704 0.0
H2781 H 0.71009 0.06435 0.93315 0.0
H2782 H 0.68661 0.0654 0.92948 0.0
H2783 H 0.70779 0.10885 0.96239 0.0
H2784 H 0.73133 0.10793 0.96658 0.0
H2785 H 0.80002 0.1139 0.89278 0.0
H2786 H 0.78058 0.09385 0.91497 0.0
H2787 H 0.77773 0.12852 0.95151 0.0
H2788 H 0.79713 0.14864 0.92893 0.0
H2789 H 0.75034 0.10711 0.93767 0.0
H2790 H 0.79085 0.10583 0.97297 0.0
H2791 H 0.81418 0.10443 0.97598 0.0
H2792 H 0.79149 0.05993 0.94583 0.0
H2793 H 0.76808 0.06114 0.94238 0.0
C2794 C 0.70066 0.05056 0.99566 0.0
C2795 C 0.69478 0.03528 0.98866 0.0
C2796 C 0.71417 0.06259 0.98722 0.0
C2797 C 0.7221 0.05964 0.97153 0.0
C2798 C 0.71634 0.04437 0.96465 0.0
C2799 C 0.70277 0.03231 0.97306 0.0
C2800 C 0.73627 0.07255 0.96216 0.0
C2801 C 0.74986 0.07224 0.96305 0.0
C2802 C 0.73652 0.08536 0.95299 0.0
C2803 C 0.72242 0.08599 0.95038 0.0
C2804 C 0.7097 0.07407 0.93976 0.0
C2805 C 0.69639 0.07465 0.93757 0.0
C2806 C 0.69569 0.08716 0.94575 0.0
C2807 C 0.70833 0.09915 0.9561 0.0
C2808 C 0.72167 0.09861 0.95838 0.0
C2809 C 0.79572 0.11727 0.90613 0.0
C2810 C 0.80024 0.13282 0.90939 0.0
C2811 C 0.78453 0.10579 0.91877 0.0
C2812 C 0.77764 0.10961 0.93501 0.0
C2813 C 0.78287 0.12526 0.93911 0.0
C2814 C 0.79411 0.13678 0.92642 0.0
C2815 C 0.76392 0.09722 0.94596 0.0
C2816 C 0.75033 0.09756 0.94524 0.0
C2817 C 0.76368 0.08442 0.95518 0.0
C2818 C 0.77774 0.08363 0.95727 0.0
C2819 C 0.79087 0.09579 0.96684 0.0
C2820 C 0.8041 0.09502 0.96865 0.0
C2821 C 0.80433 0.08211 0.96107 0.0
C2822 C 0.79131 0.06992 0.95169 0.0
C2823 C 0.77804 0.07064 0.94983 0.0
H2824 H 0.81459 0.08154 0.96249 0.0
H2825 H 0.68538 0.08759 0.94403 0.0
H2826 H 0.6344 0.95207 0.02142 0.0
H2827 H 0.63559 0.9298 0.03402 0.0
H2828 H 0.68091 0.96038 0.05796 0.0
H2829 H 0.6797 0.98258 0.04588 0.0
H2830 H 0.67811 0.93485 0.03458 0.0
H2831 H 0.65366 0.94566 0.09154 0.0
H2832 H 0.63409 0.94986 0.10781 0.0
H2833 H 0.59907 0.90448 0.08837 0.0
H2834 H 0.61844 0.90011 0.07172 0.0
H2835 H 0.69101 0.89151 0.11001 0.0
H2836 H 0.68828 0.90937 0.08757 0.0
H2837 H 0.64121 0.8747 0.07609 0.0
H2838 H 0.64397 0.85686 0.09886 0.0
H2839 H 0.64322 0.9005 0.08973 0.0
H2840 H 0.66822 0.88857 0.03595 0.0
H2841 H 0.68799 0.88451 0.02014 0.0
H2842 H 0.722 0.93166 0.03327 0.0
H2843 H 0.70246 0.93597 0.04944 0.0
C2844 C 0.64459 0.95403 0.02943 0.0
C2845 C 0.65692 0.96911 0.03271 0.0
C2846 C 0.64526 0.9413 0.03662 0.0
C2847 C 0.65836 0.9434 0.04692 0.0
C2848 C 0.67071 0.95844 0.05 0.0
C2849 C 0.66995 0.97114 0.04318 0.0
C2850 C 0.65923 0.93002 0.05475 0.0
C2851 C 0.67054 0.92737 0.04671 0.0
C2852 C 0.64913 0.92002 0.07021 0.0
C2853 C 0.63747 0.92264 0.08013 0.0
C2854 C 0.64177 0.93664 0.09054 0.0
C2855 C 0.63072 0.93904 0.09988 0.0
C2856 C 0.61534 0.92746 0.09905 0.0
C2857 C 0.61098 0.91345 0.08895 0.0
C2858 C 0.62199 0.91101 0.07956 0.0
C2859 C 0.68031 0.88746 0.10184 0.0
C2860 C 0.66781 0.87268 0.10576 0.0
C2861 C 0.6787 0.89773 0.08912 0.0
C2862 C 0.66452 0.89345 0.08002 0.0
C2863 C 0.65227 0.87831 0.08287 0.0
C2864 C 0.6539 0.86801 0.0956 0.0
C2865 C 0.66217 0.90526 0.06962 0.0
C2866 C 0.65064 0.90774 0.07729 0.0
C2867 C 0.67207 0.91508 0.05379 0.0
C2868 C 0.68387 0.91256 0.04406 0.0
C2869 C 0.67993 0.89805 0.03562 0.0
C2870 C 0.6911 0.89571 0.02656 0.0
C2871 C 0.70625 0.90781 0.02574 0.0
C2872 C 0.71026 0.9223 0.03393 0.0
C2873 C 0.69914 0.9247 0.04302 0.0
H2874 H 0.71488 0.90597 0.01872 0.0
H2875 H 0.6068 0.92934 0.1063 0.0
H2876 H 0.01929 0.70053 0.0521 0.0
H2877 H 0.04036 0.72527 0.06534 0.0
H2878 H 0.0728 0.71599 0.03525 0.0
H2879 H 0.05188 0.69149 0.02169 0.0
H2880 H 0.08013 0.72697 0.0778 0.0
H2881 H 0.06566 0.73966 0.01238 0.0
H2882 H 0.04753 0.74034 0.98766 0.0
H2883 H 0.03762 0.76597 0.03271 0.0
H2884 H 0.05553 0.76524 0.05783 0.0
H2885 H 0.14606 0.79774 0.0926 0.0
H2886 H 0.12611 0.77728 0.0707 0.0
H2887 H 0.0932 0.78785 0.096 0.0
H2888 H 0.11314 0.8083 0.11781 0.0
H2889 H 0.08607 0.77653 0.055 0.0
H2890 H 0.09828 0.76329 0.12078 0.0
H2891 H 0.11546 0.76286 0.14744 0.0
H2892 H 0.12792 0.73795 0.10471 0.0
H2893 H 0.11104 0.73852 0.07761 0.0
C2894 C 0.03092 0.70373 0.04844 0.0
C2895 C 0.03393 0.69408 0.03584 0.0
C2896 C 0.04292 0.71788 0.05592 0.0
C2897 C 0.05813 0.7225 0.05113 0.0
C2898 C 0.06115 0.71266 0.03907 0.0
C2899 C 0.04918 0.69867 0.03133 0.0
C2900 C 0.07093 0.73761 0.05853 0.0
C2901 C 0.08156 0.7378 0.07257 0.0
C2902 C 0.07253 0.75174 0.05218 0.0
C2903 C 0.06181 0.75225 0.03706 0.0
C2904 C 0.05951 0.74532 0.01708 0.0
C2905 C 0.04929 0.74574 0.00299 0.0
C2906 C 0.04139 0.75316 0.00863 0.0
C2907 C 0.04373 0.76021 0.02837 0.0
C2908 C 0.05392 0.7598 0.04254 0.0
C2909 C 0.13476 0.79622 0.09261 0.0
C2910 C 0.13111 0.80458 0.1068 0.0
C2911 C 0.12332 0.78443 0.08029 0.0
C2912 C 0.1081 0.78083 0.08208 0.0
C2913 C 0.10483 0.79038 0.09441 0.0
C2914 C 0.11625 0.80212 0.10677 0.0
C2915 C 0.0954 0.76587 0.07399 0.0
C2916 C 0.08473 0.7657 0.06003 0.0
C2917 C 0.09356 0.75171 0.08072 0.0
C2918 C 0.10353 0.7511 0.09708 0.0
C2919 C 0.10477 0.75782 0.11701 0.0
C2920 C 0.11445 0.75755 0.1322 0.0
C2921 C 0.1228 0.75041 0.12775 0.0
C2922 C 0.12146 0.7435 0.10812 0.0
C2923 C 0.11185 0.7438 0.09283 0.0
H2924 H 0.13029 0.75021 0.13954 0.0
H2925 H 0.03349 0.75347 0.99769 0.0
H2926 H 0.31883 0.36776 0.00397 0.0
H2927 H 0.29656 0.36824 0.01731 0.0
H2928 H 0.29818 0.3464 0.07419 0.0
H2929 H 0.31992 0.34517 0.06038 0.0
H2930 H 0.2706 0.33433 0.06454 0.0
H2931 H 0.31115 0.38681 0.06999 0.0
H2932 H 0.33265 0.41155 0.05776 0.0
H2933 H 0.3031 0.41553 0.01392 0.0
H2934 H 0.28145 0.3907 0.02571 0.0
H2935 H 0.23851 0.37543 0.12676 0.0
H2936 H 0.25893 0.37814 0.1037 0.0
H2937 H 0.22585 0.34012 0.06558 0.0
H2938 H 0.20537 0.33728 0.08899 0.0
H2939 H 0.26844 0.38224 0.06412 0.0
H2940 H 0.24057 0.31563 0.05734 0.0
H2941 H 0.22135 0.29236 0.07587 0.0
H2942 H 0.22932 0.31897 0.13248 0.0
H2943 H 0.24869 0.34229 0.11438 0.0
C2944 C 0.31444 0.36308 0.01934 0.0
C2945 C 0.32117 0.35648 0.03116 0.0
C2946 C 0.30172 0.36343 0.02702 0.0
C2947 C 0.29571 0.35757 0.04696 0.0
C2948 C 0.30248 0.35096 0.05875 0.0
C2949 C 0.31498 0.35033 0.05088 0.0
C2950 C 0.28238 0.3582 0.05558 0.0
C2951 C 0.27014 0.34481 0.06427 0.0
C2952 C 0.28174 0.3719 0.0557 0.0
C2953 C 0.29473 0.38682 0.04856 0.0
C2954 C 0.30926 0.3929 0.05763 0.0
C2955 C 0.32147 0.40695 0.0508 0.0
C2956 C 0.31925 0.41508 0.03503 0.0
C2957 C 0.30481 0.4092 0.0261 0.0
C2958 C 0.29256 0.39515 0.03286 0.0
C2959 C 0.23555 0.36811 0.11291 0.0
C2960 C 0.2204 0.35619 0.10956 0.0
C2961 C 0.24723 0.36962 0.09977 0.0
C2962 C 0.24399 0.35916 0.08311 0.0
C2963 C 0.22865 0.34822 0.07848 0.0
C2964 C 0.21693 0.3467 0.09169 0.0
C2965 C 0.25672 0.35837 0.07282 0.0
C2966 C 0.26883 0.37171 0.06394 0.0
C2967 C 0.25755 0.3448 0.07333 0.0
C2968 C 0.24597 0.33075 0.08441 0.0
C2969 C 0.23825 0.3165 0.07375 0.0
C2970 C 0.22732 0.30329 0.08418 0.0
C2971 C 0.22408 0.30419 0.10532 0.0
C2972 C 0.23179 0.31828 0.11609 0.0
C2973 C 0.24274 0.3315 0.10574 0.0
H2974 H 0.21561 0.29396 0.11335 0.0
H2975 H 0.32871 0.42596 0.02977 0.0
H2976 H 0.69968 0.66477 0.373 0.0
H2977 H 0.72158 0.66414 0.38677 0.0
H2978 H 0.75083 0.71226 0.37228 0.0
H2979 H 0.72893 0.71265 0.35726 0.0
H2980 H 0.76598 0.69909 0.36454 0.0
H2981 H 0.73726 0.69805 0.42436 0.0
H2982 H 0.71459 0.68917 0.44685 0.0
H2983 H 0.70987 0.64458 0.4511 0.0
H2984 H 0.73241 0.65312 0.42841 0.0
H2985 H 0.82264 0.70689 0.44158 0.0
H2986 H 0.80433 0.70919 0.41926 0.0
H2987 H 0.77554 0.65971 0.41743 0.0
H2988 H 0.79385 0.65745 0.43947 0.0
H2989 H 0.76128 0.6751 0.43366 0.0
H2990 H 0.7916 0.67799 0.3735 0.0
H2991 H 0.81533 0.68881 0.35285 0.0
H2992 H 0.81839 0.73277 0.35214 0.0
H2993 H 0.79478 0.72226 0.37305 0.0
C2994 C 0.71077 0.67524 0.37275 0.0
C2995 C 0.71254 0.6888 0.36422 0.0
C2996 C 0.72333 0.6749 0.38077 0.0
C2997 C 0.73792 0.68826 0.38117 0.0
C2998 C 0.73975 0.70179 0.37231 0.0
C2999 C 0.7272 0.70203 0.36379 0.0
C3000 C 0.75115 0.68803 0.39092 0.0
C3001 C 0.76497 0.69403 0.3798 0.0
C3002 C 0.74999 0.68137 0.41082 0.0
C3003 C 0.73645 0.67619 0.42453 0.0
C3004 C 0.73133 0.68632 0.42998 0.0
C3005 C 0.71851 0.68135 0.44278 0.0
C3006 C 0.71077 0.66631 0.45036 0.0
C3007 C 0.71587 0.65622 0.4452 0.0
C3008 C 0.72867 0.66112 0.43239 0.0
C3009 C 0.81278 0.69653 0.43549 0.0
C3010 C 0.8098 0.68198 0.44184 0.0
C3011 C 0.80224 0.69783 0.42293 0.0
C3012 C 0.7885 0.68461 0.41674 0.0
C3013 C 0.78604 0.67006 0.42198 0.0
C3014 C 0.7966 0.66876 0.43434 0.0
C3015 C 0.77589 0.68587 0.40712 0.0
C3016 C 0.76222 0.68014 0.4184 0.0
C3017 C 0.77735 0.69308 0.38767 0.0
C3018 C 0.7915 0.69938 0.37503 0.0
C3019 C 0.7974 0.69 0.36911 0.0
C3020 C 0.81082 0.69607 0.35731 0.0
C3021 C 0.81838 0.71147 0.35123 0.0
C3022 C 0.81252 0.72084 0.35688 0.0
C3023 C 0.79912 0.71483 0.36868 0.0
H3024 H 0.82876 0.71615 0.3421 0.0
H3025 H 0.70085 0.66249 0.46026 0.0
H3026 H 0.30812 0.01729 0.36756 0.0
H3027 H 0.31038 0.04113 0.3807 0.0
H3028 H 0.35876 0.0605 0.38987 0.0
H3029 H 0.35621 0.03607 0.37811 0.0
H3030 H 0.34966 0.07002 0.41957 0.0
H3031 H 0.34156 0.0692 0.34574 0.0
H3032 H 0.32871 0.05851 0.3118 0.0
H3033 H 0.28809 0.05622 0.33524 0.0
H3034 H 0.30063 0.06672 0.36942 0.0
H3035 H 0.36362 0.14455 0.43602 0.0
H3036 H 0.36294 0.12397 0.41442 0.0
H3037 H 0.31384 0.09799 0.41876 0.0
H3038 H 0.31455 0.11871 0.44015 0.0
H3039 H 0.32491 0.0934 0.38015 0.0
H3040 H 0.33471 0.09439 0.45491 0.0
H3041 H 0.3494 0.10696 0.48707 0.0
H3042 H 0.38945 0.11052 0.45928 0.0
H3043 H 0.37513 0.09841 0.42666 0.0
C3044 C 0.31921 0.0266 0.37254 0.0
C3045 C 0.33201 0.02489 0.37173 0.0
C3046 C 0.32054 0.04033 0.37984 0.0
C3047 C 0.33484 0.05294 0.38564 0.0
C3048 C 0.3476 0.05106 0.38536 0.0
C3049 C 0.34616 0.0371 0.37867 0.0
C3050 C 0.33641 0.06795 0.39217 0.0
C3051 C 0.34447 0.07522 0.41066 0.0
C3052 C 0.32953 0.07482 0.38079 0.0
C3053 C 0.322 0.06864 0.36019 0.0
C3054 C 0.32986 0.06634 0.34369 0.0
C3055 C 0.32263 0.06032 0.32441 0.0
C3056 C 0.30758 0.05666 0.32138 0.0
C3057 C 0.29974 0.05905 0.33761 0.0
C3058 C 0.30691 0.06506 0.35693 0.0
C3059 C 0.35267 0.1348 0.4314 0.0
C3060 C 0.33912 0.13325 0.43944 0.0
C3061 C 0.35229 0.12297 0.4193 0.0
C3062 C 0.33836 0.10931 0.41535 0.0
C3063 C 0.32471 0.10842 0.42163 0.0
C3064 C 0.32509 0.1203 0.43369 0.0
C3065 C 0.33811 0.09529 0.4074 0.0
C3066 C 0.33024 0.08821 0.38878 0.0
C3067 C 0.34542 0.08876 0.4184 0.0
C3068 C 0.35388 0.09562 0.43827 0.0
C3069 C 0.34666 0.09792 0.45562 0.0
C3070 C 0.35492 0.10495 0.47394 0.0
C3071 C 0.37032 0.1095 0.47526 0.0
C3072 C 0.37751 0.107 0.45824 0.0
C3073 C 0.36934 0.10008 0.43981 0.0
H3074 H 0.37668 0.11496 0.48947 0.0
H3075 H 0.30201 0.05199 0.30645 0.0
H3076 H 0.99104 0.29243 0.35188 0.0
H3077 H 0.96752 0.27044 0.36503 0.0
H3078 H 0.9565 0.30144 0.39688 0.0
H3079 H 0.98048 0.32347 0.38458 0.0
H3080 H 0.94896 0.27911 0.42098 0.0
H3081 H 0.93899 0.28103 0.34836 0.0
H3082 H 0.9434 0.28189 0.31019 0.0
H3083 H 0.94064 0.2381 0.31231 0.0
H3084 H 0.9364 0.23707 0.35057 0.0
H3085 H 0.87198 0.22694 0.43928 0.0
H3086 H 0.89311 0.24617 0.41812 0.0
H3087 H 0.90987 0.21506 0.4097 0.0
H3088 H 0.88875 0.1958 0.43125 0.0
H3089 H 0.91388 0.23656 0.37304 0.0
H3090 H 0.92301 0.23578 0.44761 0.0
H3091 H 0.91577 0.23528 0.48462 0.0
H3092 H 0.91841 0.27874 0.47761 0.0
H3093 H 0.92504 0.27919 0.44022 0.0
C3094 C 0.98363 0.29457 0.36175 0.0
C3095 C 0.98762 0.30972 0.36713 0.0
C3096 C 0.97007 0.28195 0.36914 0.0
C3097 C 0.95991 0.28415 0.38161 0.0
C3098 C 0.96403 0.29932 0.38725 0.0
C3099 C 0.97776 0.31195 0.38019 0.0
C3100 C 0.94514 0.27069 0.38901 0.0
C3101 C 0.94128 0.26996 0.41035 0.0
C3102 C 0.93501 0.25849 0.37536 0.0
C3103 C 0.93754 0.25905 0.35236 0.0
C3104 C 0.93943 0.27164 0.34071 0.0
C3105 C 0.94189 0.27215 0.31906 0.0
C3106 C 0.94234 0.26008 0.30884 0.0
C3107 C 0.9403 0.24745 0.32025 0.0
C3108 C 0.93787 0.24689 0.34192 0.0
C3109 C 0.87974 0.22392 0.43204 0.0
C3110 C 0.87866 0.20983 0.43672 0.0
C3111 C 0.89189 0.23496 0.42011 0.0
C3112 C 0.90317 0.23213 0.41256 0.0
C3113 C 0.90126 0.21746 0.41534 0.0
C3114 C 0.88912 0.20641 0.42749 0.0
C3115 C 0.91789 0.24516 0.40479 0.0
C3116 C 0.92169 0.24578 0.38351 0.0
C3117 C 0.92783 0.25743 0.41837 0.0
C3118 C 0.92437 0.25743 0.44104 0.0
C3119 C 0.92193 0.24517 0.45389 0.0
C3120 C 0.91797 0.24492 0.47497 0.0
C3121 C 0.9167 0.257 0.48351 0.0
C3122 C 0.91939 0.26938 0.47097 0.0
C3123 C 0.92321 0.26962 0.44981 0.0
H3124 H 0.91364 0.25678 0.49985 0.0
H3125 H 0.94424 0.26049 0.29208 0.0
H3126 H 0.01084 0.36696 0.3009 0.0
H3127 H 0.01201 0.39012 0.28766 0.0
H3128 H 0.04345 0.4172 0.33705 0.0
H3129 H 0.04245 0.39398 0.35036 0.0
H3130 H 0.02014 0.42429 0.33069 0.0
H3131 H 0.05744 0.41964 0.29039 0.0
H3132 H 0.06689 0.40617 0.26811 0.0
H3133 H 0.03386 0.39851 0.22079 0.0
H3134 H 0.02406 0.41173 0.24294 0.0
H3135 H 0.0467 0.48755 0.24187 0.0
H3136 H 0.05025 0.47032 0.26478 0.0
H3137 H 1.00265 0.44734 0.28172 0.0
H3138 H 0.99921 0.4647 0.25898 0.0
H3139 H 0.03722 0.44048 0.25758 0.0
H3140 H 0.99677 0.42847 0.32822 0.0
H3141 H 0.98802 0.4424 0.35084 0.0
H3142 H 0.02937 0.48507 0.33835 0.0
H3143 H 0.03847 0.47137 0.3159 0.0
C3144 C 0.01801 0.37782 0.30901 0.0
C3145 C 0.02661 0.3786 0.32667 0.0
C3146 C 0.01867 0.39108 0.30138 0.0
C3147 C 0.02787 0.40545 0.31128 0.0
C3148 C 0.03626 0.40625 0.32915 0.0
C3149 C 0.03574 0.39298 0.33668 0.0
C3150 C 0.02889 0.41959 0.30255 0.0
C3151 C 0.02392 0.42788 0.31473 0.0
C3152 C 0.03401 0.42444 0.28182 0.0
C3153 C 0.03994 0.41657 0.2684 0.0
C3154 C 0.05212 0.41498 0.2753 0.0
C3155 C 0.05755 0.4074 0.26269 0.0
C3156 C 0.05096 0.40146 0.24307 0.0
C3157 C 0.03895 0.40311 0.236 0.0
C3158 C 0.03346 0.41066 0.24857 0.0
C3159 C 0.03721 0.47932 0.25132 0.0
C3160 C 0.02278 0.47772 0.24911 0.0
C3161 C 0.03917 0.46931 0.26417 0.0
C3162 C 0.02673 0.45746 0.27505 0.0
C3163 C 0.01251 0.45649 0.27383 0.0
C3164 C 0.01055 0.46651 0.26096 0.0
C3165 C 0.0282 0.44512 0.28555 0.0
C3166 C 0.03356 0.43706 0.27362 0.0
C3167 C 0.02351 0.44056 0.30653 0.0
C3168 C 0.01824 0.44889 0.32024 0.0
C3169 C 1.00403 0.44081 0.33038 0.0
C3170 C 0.999 0.44867 0.34316 0.0
C3171 C 0.00811 0.46461 0.34598 0.0
C3172 C 0.0223 0.47273 0.33609 0.0
C3173 C 0.02739 0.46492 0.32331 0.0
H3174 H 1.00419 0.47068 0.35587 0.0
H3175 H 0.05518 0.3956 0.23332 0.0
H3176 H 0.66081 0.64366 0.30341 0.0
H3177 H 0.63935 0.61958 0.2896 0.0
H3178 H 0.60784 0.63198 0.3154 0.0
H3179 H 0.6292 0.65557 0.33013 0.0
H3180 H 0.59668 0.60374 0.32231 0.0
H3181 H 0.61724 0.63373 0.26045 0.0
H3182 H 0.6368 0.64964 0.23433 0.0
H3183 H 0.64451 0.61243 0.221 0.0
H3184 H 0.62513 0.59637 0.24725 0.0
H3185 H 0.53432 0.55126 0.2522 0.0
H3186 H 0.5539 0.57298 0.27318 0.0
H3187 H 0.58451 0.55587 0.26413 0.0
H3188 H 0.56498 0.53416 0.24355 0.0
H3189 H 0.59539 0.5862 0.24894 0.0
H3190 H 0.57314 0.55618 0.31128 0.0
H3191 H 0.55216 0.54086 0.33595 0.0
H3192 H 0.54594 0.57934 0.34627 0.0
H3193 H 0.56675 0.59483 0.32142 0.0
C3194 C 0.6493 0.64127 0.30599 0.0
C3195 C 0.64671 0.65154 0.31779 0.0
C3196 C 0.637 0.62751 0.29801 0.0
C3197 C 0.62186 0.62394 0.30114 0.0
C3198 C 0.61934 0.63434 0.31276 0.0
C3199 C 0.63159 0.6479 0.3211 0.0
C3200 C 0.60864 0.6093 0.29272 0.0
C3201 C 0.59637 0.60006 0.30617 0.0
C3202 C 0.60813 0.60425 0.27171 0.0
C3203 C 0.61985 0.61391 0.25599 0.0
C3204 C 0.62319 0.62899 0.25208 0.0
C3205 C 0.63423 0.63802 0.23722 0.0
C3206 C 0.64192 0.63206 0.22606 0.0
C3207 C 0.63856 0.61704 0.22969 0.0
C3208 C 0.62755 0.60796 0.24454 0.0
C3209 C 0.54495 0.55176 0.25561 0.0
C3210 C 0.54812 0.54099 0.24642 0.0
C3211 C 0.55619 0.56424 0.26738 0.0
C3212 C 0.57072 0.56611 0.27001 0.0
C3213 C 0.57342 0.55469 0.26222 0.0
C3214 C 0.5622 0.5422 0.25067 0.0
C3215 C 0.58365 0.58073 0.27857 0.0
C3216 C 0.5958 0.58996 0.26508 0.0
C3217 C 0.58388 0.5859 0.29934 0.0
C3218 C 0.5714 0.57661 0.31432 0.0
C3219 C 0.56721 0.56133 0.31866 0.0
C3220 C 0.55537 0.55263 0.33271 0.0
C3221 C 0.54769 0.55911 0.34262 0.0
C3222 C 0.55188 0.57433 0.33855 0.0
C3223 C 0.56371 0.58308 0.3245 0.0
H3224 H 0.53853 0.55235 0.3535 0.0
H3225 H 0.65045 0.63907 0.21456 0.0
H3226 H 0.36322 1.00068 0.30146 0.0
H3227 H 0.38443 0.99874 0.287 0.0
H3228 H 0.37835 0.96652 0.33516 0.0
H3229 H 0.35697 0.96831 0.34967 0.0
H3230 H 0.409 0.98921 0.32923 0.0
H3231 H 0.36635 0.95295 0.28791 0.0
H3232 H 0.34358 0.94387 0.26559 0.0
H3233 H 0.3707 0.97729 0.2191 0.0
H3234 H 0.39359 0.98675 0.2413 0.0
H3235 H 0.44592 0.96465 0.23791 0.0
H3236 H 0.42458 0.96026 0.26063 0.0
H3237 H 0.44988 0.00788 0.28074 0.0
H3238 H 0.47118 0.01215 0.25817 0.0
H3239 H 0.40822 0.97341 0.255 0.0
H3240 H 0.43717 0.01236 0.32818 0.0
H3241 H 0.45954 0.02023 0.35088 0.0
H3242 H 0.45898 0.97859 0.33464 0.0
H3243 H 0.43648 0.97037 0.31208 0.0
C3244 C 0.36637 0.99316 0.30899 0.0
C3245 C 0.35837 0.98461 0.32669 0.0
C3246 C 0.37849 0.99204 0.30067 0.0
C3247 C 0.38295 0.98242 0.30991 0.0
C3248 C 0.37512 0.97401 0.32776 0.0
C3249 C 0.36286 0.975 0.33598 0.0
C3250 C 0.39575 0.98116 0.3008 0.0
C3251 C 0.40883 0.98571 0.31302 0.0
C3252 C 0.39543 0.97631 0.27977 0.0
C3253 C 0.38167 0.97064 0.26636 0.0
C3254 C 0.36744 0.95845 0.27301 0.0
C3255 C 0.35451 0.95322 0.26037 0.0
C3256 C 0.35569 0.96001 0.24096 0.0
C3257 C 0.3698 0.97204 0.23415 0.0
C3258 C 0.38276 0.97734 0.24675 0.0
C3259 C 0.44714 0.97395 0.24795 0.0
C3260 C 0.46031 0.98863 0.24676 0.0
C3261 C 0.43488 0.97151 0.2607 0.0
C3262 C 0.43558 0.98372 0.27249 0.0
C3263 C 0.44911 0.99819 0.27213 0.0
C3264 C 0.46133 1.00063 0.25934 0.0
C3265 C 0.4217 0.98183 0.28324 0.0
C3266 C 0.40839 0.97677 0.27128 0.0
C3267 C 0.42179 0.98607 0.30455 0.0
C3268 C 0.4352 0.99081 0.31831 0.0
C3269 C 0.44177 0.00485 0.32954 0.0
C3270 C 0.45448 0.00937 0.34236 0.0
C3271 C 0.4607 0.99993 0.34416 0.0
C3272 C 0.45419 0.98592 0.33318 0.0
C3273 C 0.44147 0.98133 0.32034 0.0
H3274 H 0.47055 1.00346 0.35408 0.0
H3275 H 0.34568 0.95593 0.23117 0.0
H3276 H 0.62107 0.9808 0.3579 0.0
H3277 H 0.59882 0.98147 0.34511 0.0
H3278 H 0.61884 0.99279 0.28323 0.0
H3279 H 0.64151 0.99339 0.29651 0.0
H3280 H 0.60713 0.00827 0.28798 0.0
H3281 H 0.58708 0.95454 0.30055 0.0
H3282 H 0.58112 0.93159 0.32108 0.0
H3283 H 0.55459 0.94142 0.3641 0.0
H3284 H 0.56054 0.96452 0.34394 0.0
H3285 H 0.52705 0.96334 0.24067 0.0
H3286 H 0.54566 0.96337 0.26456 0.0
H3287 H 0.56063 0.01029 0.28279 0.0
H3288 H 0.54216 0.01034 0.25823 0.0
H3289 H 0.55411 0.96673 0.30304 0.0
H3290 H 0.59887 0.03063 0.28641 0.0
H3291 H 0.60507 0.04989 0.2588 0.0
H3292 H 0.58259 0.0136 0.21286 0.0
H3293 H 0.57634 0.99423 0.24011 0.0
C3294 C 0.62064 0.98339 0.34156 0.0
C3295 C 0.63299 0.98701 0.32817 0.0
C3296 C 0.60786 0.98368 0.33418 0.0
C3297 C 0.60686 0.98695 0.31301 0.0
C3298 C 0.61921 0.99035 0.29965 0.0
C3299 C 0.63217 0.99059 0.3072 0.0
C3300 C 0.5932 0.98708 0.30464 0.0
C3301 C 0.59557 0.99917 0.29146 0.0
C3302 C 0.57797 0.9752 0.30874 0.0
C3303 C 0.5744 0.96134 0.32089 0.0
C3304 C 0.58006 0.95185 0.31447 0.0
C3305 C 0.57668 0.93882 0.32602 0.0
C3306 C 0.56753 0.93508 0.34392 0.0
C3307 C 0.56171 0.94435 0.35026 0.0
C3308 C 0.56507 0.95741 0.33878 0.0
C3309 C 0.53396 0.97348 0.25033 0.0
C3310 C 0.53316 0.98683 0.24765 0.0
C3311 C 0.54465 0.97352 0.26398 0.0
C3312 C 0.55483 0.98693 0.27524 0.0
C3313 C 0.5531 0.99987 0.27401 0.0
C3314 C 0.54241 0.99985 0.26021 0.0
C3315 C 0.56815 0.98773 0.28622 0.0
C3316 C 0.56571 0.9759 0.29992 0.0
C3317 C 0.58336 0.99937 0.28172 0.0
C3318 C 0.58697 0.01101 0.26534 0.0
C3319 C 0.59524 0.0268 0.27041 0.0
C3320 C 0.59876 0.03774 0.25482 0.0
C3321 C 0.59416 0.033 0.23409 0.0
C3322 C 0.58606 0.01731 0.22891 0.0
C3323 C 0.5825 0.00634 0.24443 0.0
H3324 H 0.59692 0.04148 0.22205 0.0
H3325 H 0.56492 0.92498 0.35284 0.0
H3326 H 0.03717 0.65472 0.34089 0.0
H3327 H 0.03609 0.63144 0.32714 0.0
H3328 H 0.99646 0.62081 0.2904 0.0
H3329 H 0.99764 0.64428 0.30379 0.0
H3330 H 0.99397 0.59525 0.31398 0.0
H3331 H 0.02747 0.63428 0.26551 0.0
H3332 H 0.04971 0.65925 0.25549 0.0
H3333 H 0.07978 0.64659 0.28368 0.0
H3334 H 0.05768 0.62163 0.29415 0.0
H3335 H 0.99033 0.54252 0.23658 0.0
H3336 H 0.99051 0.56202 0.25975 0.0
H3337 H 0.03456 0.5733 0.28371 0.0
H3338 H 0.03444 0.55383 0.26007 0.0
H3339 H 0.03562 0.59825 0.26996 0.0
H3340 H 1.00218 0.55804 0.31566 0.0
H3341 H 0.97991 0.53313 0.32577 0.0
H3342 H 0.94975 0.5477 0.30342 0.0
H3343 H 0.97183 0.57262 0.2929 0.0
C3344 C 0.02826 0.64747 0.32982 0.0
C3345 C 0.01751 0.65135 0.32336 0.0
C3346 C 0.02765 0.63417 0.322 0.0
C3347 C 0.01618 0.6244 0.30779 0.0
C3348 C 1.00537 0.62818 0.30142 0.0
C3349 C 1.00612 0.64163 0.30897 0.0
C3350 C 0.0156 0.61034 0.29938 0.0
C3351 C 1.00298 0.59586 0.3042 0.0
C3352 C 0.0276 0.61117 0.28717 0.0
C3353 C 0.04091 0.62616 0.28085 0.0
C3354 C 0.03881 0.63688 0.26976 0.0
C3355 C 0.0514 0.65102 0.26396 0.0
C3356 C 0.06615 0.65452 0.26901 0.0
C3357 C 0.06834 0.64387 0.27982 0.0
C3358 C 0.0558 0.62973 0.28568 0.0
C3359 C 0.99973 0.5487 0.24748 0.0
C3360 C 0.01228 0.54656 0.24679 0.0
C3361 C 0.99986 0.5599 0.26069 0.0
C3362 C 0.01254 0.56918 0.27356 0.0
C3363 C 0.02464 0.56629 0.27395 0.0
C3364 C 0.0245 0.55504 0.26068 0.0
C3365 C 0.01389 0.58298 0.28442 0.0
C3366 C 0.02665 0.59751 0.27999 0.0
C3367 C 1.00202 0.58216 0.29703 0.0
C3368 C 0.98868 0.56718 0.30335 0.0
C3369 C 0.9908 0.55589 0.31275 0.0
C3370 C 0.97821 0.54178 0.31858 0.0
C3371 C 0.96343 0.53883 0.3152 0.0
C3372 C 0.96121 0.55 0.30602 0.0
C3373 C 0.97376 0.56414 0.30015 0.0
H3374 H 0.9537 0.52789 0.31973 0.0
H3375 H 0.07587 0.66547 0.2645 0.0
H3376 H 0.36609 0.35261 0.29706 0.0
H3377 H 0.39041 0.37376 0.284 0.0
H3378 H 0.38444 0.40611 0.32152 0.0
H3379 H 0.36042 0.38501 0.33504 0.0
H3380 H 0.39831 0.39832 0.26193 0.0
H3381 H 0.41819 0.43608 0.33766 0.0
H3382 H 0.41557 0.43287 0.37605 0.0
H3383 H 0.40781 0.38707 0.36943 0.0
H3384 H 0.41059 0.39008 0.33105 0.0
H3385 H 0.46238 0.48132 0.2628 0.0
H3386 H 0.44214 0.46021 0.2832 0.0
H3387 H 0.45391 0.4286 0.25529 0.0
H3388 H 0.47415 0.44969 0.23505 0.0
H3389 H 0.43819 0.43579 0.31085 0.0
H3390 H 0.42075 0.39879 0.23573 0.0
H3391 H 0.42387 0.40214 0.19735 0.0
H3392 H 0.42687 0.44597 0.2032 0.0
H3393 H 0.42376 0.44287 0.24154 0.0
C3394 C 0.36996 0.36424 0.30248 0.0
C3395 C 0.36135 0.36711 0.31719 0.0
C3396 C 0.38388 0.37634 0.29501 0.0
C3397 C 0.38949 0.39157 0.30204 0.0
C3398 C 0.38063 0.39447 0.31623 0.0
C3399 C 0.3668 0.38238 0.32384 0.0
C3400 C 0.40449 0.40441 0.29443 0.0
C3401 C 0.40709 0.40632 0.27271 0.0
C3402 C 0.41595 0.41513 0.30836 0.0
C3403 C 0.41445 0.41327 0.33146 0.0
C3404 C 0.41599 0.42535 0.34441 0.0
C3405 C 0.41447 0.42356 0.36617 0.0
C3406 C 0.41148 0.40976 0.37517 0.0
C3407 C 0.41007 0.39774 0.36244 0.0
C3408 C 0.41159 0.39947 0.34068 0.0
C3409 C 0.46117 0.47004 0.26195 0.0
C3410 C 0.46998 0.46716 0.24769 0.0
C3411 C 0.44951 0.45795 0.27343 0.0
C3412 C 0.44637 0.44279 0.27051 0.0
C3413 C 0.45607 0.44018 0.25769 0.0
C3414 C 0.46777 0.45226 0.24635 0.0
C3415 C 0.43189 0.42956 0.27851 0.0
C3416 C 0.4294 0.42765 0.30021 0.0
C3417 C 0.42054 0.41879 0.2646 0.0
C3418 C 0.42217 0.42065 0.24151 0.0
C3419 C 0.42205 0.40912 0.2288 0.0
C3420 C 0.42385 0.411 0.20706 0.0
C3421 C 0.42566 0.42431 0.19784 0.0
C3422 C 0.42559 0.43573 0.21035 0.0
C3423 C 0.42385 0.43393 0.23209 0.0
H3424 H 0.42707 0.42576 0.18102 0.0
H3425 H 0.41029 0.40839 0.39201 0.0
H3426 H 0.34664 0.31455 0.37812 0.0
H3427 H 0.34804 0.29263 0.39078 0.0
H3428 H 0.30547 0.2614 0.3599 0.0
H3429 H 0.304 0.28342 0.34703 0.0
H3430 H 0.30693 0.25271 0.40095 0.0
H3431 H 0.33789 0.26701 0.33888 0.0
H3432 H 0.35834 0.28493 0.31518 0.0
H3433 H 0.39169 0.29546 0.36329 0.0
H3434 H 0.37141 0.27775 0.38739 0.0
H3435 H 0.31281 0.18857 0.42679 0.0
H3436 H 0.31152 0.20685 0.40311 0.0
H3437 H 0.35496 0.24316 0.42656 0.0
H3438 H 0.35628 0.22486 0.44996 0.0
H3439 H 0.3519 0.24763 0.38565 0.0
H3440 H 0.3223 0.23675 0.44858 0.0
H3441 H 0.30288 0.21992 0.47425 0.0
H3442 H 0.26807 0.20455 0.427 0.0
H3443 H 0.28737 0.22109 0.40092 0.0
C3444 C 0.33754 0.30304 0.37398 0.0
C3445 C 0.32521 0.30076 0.3615 0.0
C3446 C 0.33841 0.29049 0.38117 0.0
C3447 C 0.32696 0.27534 0.37611 0.0
C3448 C 0.31448 0.27299 0.36394 0.0
C3449 C 0.31366 0.28558 0.35657 0.0
C3450 C 0.32803 0.26205 0.38384 0.0
C3451 C 0.3166 0.25141 0.39722 0.0
C3452 C 0.34086 0.26056 0.37951 0.0
C3453 C 0.3531 0.27113 0.36499 0.0
C3454 C 0.34957 0.27323 0.34446 0.0
C3455 C 0.36114 0.28333 0.33094 0.0
C3456 C 0.3763 0.29135 0.33774 0.0
C3457 C 0.37994 0.28924 0.35805 0.0
C3458 C 0.36841 0.27916 0.37163 0.0
C3459 C 0.32238 0.20029 0.42612 0.0
C3460 C 0.33475 0.20528 0.43992 0.0
C3461 C 0.32156 0.21079 0.41281 0.0
C3462 C 0.33302 0.22648 0.41331 0.0
C3463 C 0.34598 0.23116 0.42585 0.0
C3464 C 0.34679 0.22068 0.43913 0.0
C3465 C 0.33081 0.23831 0.40276 0.0
C3466 C 0.34208 0.24875 0.38903 0.0
C3467 C 0.31796 0.23978 0.40703 0.0
C3468 C 0.3063 0.23002 0.42274 0.0
C3469 C 0.31052 0.2297 0.44363 0.0
C3470 C 0.29954 0.22022 0.45825 0.0
C3471 C 0.28426 0.21115 0.45225 0.0
C3472 C 0.27992 0.21157 0.43161 0.0
C3473 C 0.29088 0.22099 0.4169 0.0
H3474 H 0.27576 0.20381 0.46359 0.0
H3475 H 0.38524 0.29917 0.32725 0.0
H3476 H 0.68816 0.02988 0.39358 0.0
H3477 H 0.7099 0.05424 0.40644 0.0
H3478 H 0.7387 0.05106 0.35933 0.0
H3479 H 0.71708 0.02689 0.34633 0.0
H3480 H 0.73678 0.06126 0.42301 0.0
H3481 H 0.76516 0.08687 0.34279 0.0
H3482 H 0.75756 0.08631 0.30596 0.0
H3483 H 0.71316 0.07618 0.32605 0.0
H3484 H 0.72056 0.07689 0.363 0.0
H3485 H 0.81288 0.11652 0.43747 0.0
H3486 H 0.79147 0.09665 0.41696 0.0
H3487 H 0.77234 0.12591 0.4131 0.0
H3488 H 0.79375 0.14581 0.43402 0.0
H3489 H 0.76792 0.10479 0.37514 0.0
H3490 H 0.75931 0.10531 0.44957 0.0
H3491 H 0.76659 0.10696 0.48678 0.0
H3492 H 0.76947 0.06628 0.47912 0.0
H3493 H 0.76244 0.06453 0.44175 0.0
C3494 C 0.69913 0.03438 0.38599 0.0
C3495 C 0.70087 0.02647 0.3689 0.0
C3496 C 0.71156 0.0483 0.39335 0.0
C3497 C 0.72592 0.05463 0.38368 0.0
C3498 C 0.7277 0.0466 0.36682 0.0
C3499 C 0.71532 0.03271 0.35948 0.0
C3500 C 0.73915 0.06948 0.39137 0.0
C3501 C 0.7435 0.07076 0.41251 0.0
C3502 C 0.74789 0.08205 0.37782 0.0
C3503 C 0.74339 0.0818 0.35566 0.0
C3504 C 0.7538 0.08459 0.33935 0.0
C3505 C 0.74952 0.08424 0.31845 0.0
C3506 C 0.73487 0.08117 0.31367 0.0
C3507 C 0.72448 0.0785 0.32978 0.0
C3508 C 0.72871 0.07885 0.3507 0.0
C3509 C 0.80452 0.11902 0.43131 0.0
C3510 C 0.80503 0.13274 0.43708 0.0
C3511 C 0.79222 0.10761 0.41978 0.0
C3512 C 0.78025 0.10975 0.41374 0.0
C3513 C 0.7815 0.12408 0.41757 0.0
C3514 C 0.7938 0.13549 0.42933 0.0
C3515 C 0.76562 0.09628 0.40649 0.0
C3516 C 0.76108 0.09526 0.38554 0.0
C3517 C 0.75653 0.08403 0.42026 0.0
C3518 C 0.76048 0.08486 0.44282 0.0
C3519 C 0.7616 0.09678 0.45578 0.0
C3520 C 0.76565 0.09771 0.47691 0.0
C3521 C 0.76851 0.08674 0.4853 0.0
C3522 C 0.76727 0.07478 0.47259 0.0
C3523 C 0.76323 0.07379 0.45144 0.0
H3524 H 0.77164 0.08749 0.50166 0.0
H3525 H 0.73158 0.08088 0.29748 0.0
H3526 H 0.99084 0.70907 0.34657 0.0
H3527 H 0.96719 0.70805 0.35745 0.0
H3528 H 0.95202 0.66454 0.38741 0.0
H3529 H 0.97549 0.66552 0.37678 0.0
H3530 H 0.92907 0.6644 0.36421 0.0
H3531 H 0.96708 0.69688 0.4161 0.0
H3532 H 0.99143 0.71938 0.42775 0.0
H3533 H 0.97829 0.74978 0.40148 0.0
H3534 H 0.95393 0.72742 0.38942 0.0
H3535 H 0.87757 0.65357 0.44486 0.0
H3536 H 0.89695 0.65665 0.41967 0.0
H3537 H 0.90526 0.70173 0.40408 0.0
H3538 H 0.88598 0.69875 0.42994 0.0
H3539 H 0.93101 0.70371 0.41357 0.0
H3540 H 0.89091 0.67113 0.36709 0.0
H3541 H 0.86645 0.64863 0.35582 0.0
H3542 H 0.88302 0.61854 0.37108 0.0
H3543 H 0.9075 0.64083 0.38274 0.0
C3544 C 0.98244 0.69929 0.35544 0.0
C3545 C 0.9851 0.68742 0.36089 0.0
C3546 C 0.96894 0.69872 0.36166 0.0
C3547 C 0.95782 0.68622 0.37329 0.0
C3548 C 0.96037 0.67427 0.37839 0.0
C3549 C 0.97387 0.6749 0.37239 0.0
C3550 C 0.94369 0.68563 0.38082 0.0
C3551 C 0.92945 0.67296 0.37504 0.0
C3552 C 0.94416 0.69707 0.39437 0.0
C3553 C 0.95879 0.71049 0.40162 0.0
C3554 C 0.96945 0.70836 0.41264 0.0
C3555 C 0.98324 0.72108 0.41935 0.0
C3556 C 0.98643 0.736 0.41529 0.0
C3557 C 0.97582 0.73822 0.40456 0.0
C3558 C 0.96202 0.72553 0.39779 0.0
C3559 C 0.88314 0.66391 0.43549 0.0
C3560 C 0.88022 0.67589 0.43926 0.0
C3561 C 0.89424 0.66567 0.42104 0.0
C3562 C 0.90261 0.67942 0.4098 0.0
C3563 C 0.89898 0.69101 0.41251 0.0
C3564 C 0.88783 0.68924 0.42708 0.0
C3565 C 0.91626 0.68222 0.3974 0.0
C3566 C 0.93047 0.69529 0.40233 0.0
C3567 C 0.91574 0.67116 0.38298 0.0
C3568 C 0.90104 0.65768 0.37589 0.0
C3569 C 0.88931 0.65971 0.36818 0.0
C3570 C 0.87544 0.64699 0.36169 0.0
C3571 C 0.87318 0.63216 0.36275 0.0
C3572 C 0.88479 0.63003 0.37026 0.0
C3573 C 0.89868 0.64271 0.37677 0.0
H3574 H 0.86243 0.62233 0.35773 0.0
H3575 H 0.99711 0.74584 0.4205 0.0
H3576 H 0.36726 0.00679 0.72102 0.0
H3577 H 0.39033 0.00849 0.73502 0.0
H3578 H 0.41746 0.0424 0.68867 0.0
H3579 H 0.39435 0.04078 0.67454 0.0
H3580 H 0.42595 0.02039 0.69326 0.0
H3581 H 0.41739 0.05405 0.73726 0.0
H3582 H 0.40221 0.06103 0.76007 0.0
H3583 H 0.39563 0.02616 0.80375 0.0
H3584 H 0.41054 0.01878 0.781 0.0
H3585 H 0.48671 0.04638 0.78535 0.0
H3586 H 0.46903 0.04947 0.76297 0.0
H3587 H 0.44994 1.00274 0.74033 0.0
H3588 H 0.46782 0.99979 0.76252 0.0
H3589 H 0.43936 0.03419 0.76826 0.0
H3590 H 0.43203 0.99798 0.69325 0.0
H3591 H 0.44763 0.99187 0.66993 0.0
H3592 H 0.48781 0.03447 0.68751 0.0
H3593 H 0.47243 0.04094 0.71071 0.0
C3594 C 0.37812 0.01462 0.71376 0.0
C3595 C 0.37895 0.02371 0.6967 0.0
C3596 C 0.39132 0.01559 0.72182 0.0
C3597 C 0.40568 0.02565 0.71301 0.0
C3598 C 0.40653 0.03455 0.69574 0.0
C3599 C 0.39331 0.03367 0.68774 0.0
C3600 C 0.41976 0.02703 0.72217 0.0
C3601 C 0.42892 0.02345 0.70964 0.0
C3602 C 0.4238 0.03124 0.74347 0.0
C3603 C 0.41498 0.03578 0.75732 0.0
C3604 C 0.41261 0.0478 0.75165 0.0
C3605 C 0.40407 0.05184 0.76459 0.0
C3606 C 0.39794 0.04403 0.78333 0.0
C3607 C 0.40038 0.03219 0.78921 0.0
C3608 C 0.40888 0.02808 0.77631 0.0
C3609 C 0.47923 0.03705 0.77482 0.0
C3610 C 0.47888 0.02299 0.77522 0.0
C3611 C 0.46896 0.03873 0.76226 0.0
C3612 C 0.45808 0.02635 0.74991 0.0
C3613 C 0.45834 0.01256 0.74941 0.0
C3614 C 0.46864 0.0109 0.76196 0.0
C3615 C 0.44551 0.0273 0.73947 0.0
C3616 C 0.43653 0.03125 0.75182 0.0
C3617 C 0.44174 0.02355 0.71798 0.0
C3618 C 0.45108 0.01988 0.70385 0.0
C3619 C 0.44418 0.00608 0.69206 0.0
C3620 C 0.45299 1.00254 0.67888 0.0
C3621 C 0.46871 0.01275 0.67729 0.0
C3622 C 0.47565 0.02655 0.68882 0.0
C3623 C 0.46689 0.03014 0.70201 0.0
H3624 H 0.47551 0.00999 0.66709 0.0
H3625 H 0.39132 0.04715 0.79332 0.0
H3626 H 0.02185 0.36777 0.7198 0.0
H3627 H 0.02493 0.39193 0.73369 0.0
H3628 H 0.98428 0.38291 0.70075 0.0
H3629 H 0.98152 0.35916 0.68626 0.0
H3630 H 1.00426 0.41149 0.69647 0.0
H3631 H 0.98536 0.37807 0.75533 0.0
H3632 H 0.9843 0.36 0.78183 0.0
H3633 H 0.02851 0.39437 0.80479 0.0
H3634 H 0.02992 0.4126 0.77823 0.0
H3635 H 0.9882 0.46042 0.76349 0.0
H3636 H 0.98862 0.44062 0.74124 0.0
H3637 H 0.03399 0.45527 0.76325 0.0
H3638 H 0.03362 0.47508 0.78526 0.0
H3639 H 0.01215 0.42454 0.77238 0.0
H3640 H 0.02908 0.45849 0.71312 0.0
H3641 H 0.02768 0.47585 0.68762 0.0
H3642 H 0.98384 0.43927 0.66678 0.0
H3643 H 0.98488 0.42173 0.69237 0.0
C3644 C 0.01354 0.37092 0.71563 0.0
C3645 C 1.00142 0.36153 0.70199 0.0
C3646 C 0.01528 0.38472 0.72362 0.0
C3647 C 1.00475 0.38924 0.71848 0.0
C3648 C 0.9926 0.37977 0.70493 0.0
C3649 C 0.99099 0.36612 0.69674 0.0
C3650 C 1.00638 0.40383 0.72703 0.0
C3651 C 1.00583 0.41424 0.71311 0.0
C3652 C 0.00858 0.4076 0.74872 0.0
C3653 C 0.00782 0.39664 0.76462 0.0
C3654 C 0.99492 0.38173 0.7659 0.0
C3655 C 0.99424 0.37147 0.78096 0.0
C3656 C 1.00635 0.37602 0.79494 0.0
C3657 C 0.01915 0.39086 0.79392 0.0
C3658 C 0.01989 0.40116 0.77887 0.0
C3659 C 0.99854 0.45993 0.76267 0.0
C3660 C 0.01091 0.4693 0.77597 0.0
C3661 C 0.99873 0.44852 0.75013 0.0
C3662 C 0.01128 0.44636 0.7508 0.0
C3663 C 0.02417 0.45669 0.76257 0.0
C3664 C 0.02403 0.46811 0.77495 0.0
C3665 C 0.01017 0.43217 0.74181 0.0
C3666 C 0.01071 0.4218 0.75571 0.0
C3667 C 0.00762 0.42831 0.72023 0.0
C3668 C 0.007 0.43884 0.7048 0.0
C3669 C 0.01908 0.45418 0.70323 0.0
C3670 C 0.01837 0.46405 0.68873 0.0
C3671 C 1.00566 0.45868 0.67562 0.0
C3672 C 0.99367 0.44342 0.67695 0.0
C3673 C 0.99432 0.4335 0.69144 0.0
H3674 H 1.00513 0.46634 0.66441 0.0
H3675 H 1.0058 0.36806 0.8066 0.0
H3676 H 0.64787 0.62457 0.67501 0.0
H3677 H 0.62395 0.60374 0.68942 0.0
H3678 H 0.6282 0.63272 0.74231 0.0
H3679 H 0.65212 0.65372 0.72785 0.0
H3680 H 0.62051 0.60261 0.75334 0.0
H3681 H 0.60382 0.62725 0.70461 0.0
H3682 H 0.60247 0.63707 0.66996 0.0
H3683 H 0.58355 0.59168 0.64318 0.0
H3684 H 0.58498 0.58163 0.67763 0.0
H3685 H 0.54842 0.56512 0.79816 0.0
H3686 H 0.56872 0.58468 0.77644 0.0
H3687 H 0.56323 0.5495 0.73232 0.0
H3688 H 0.54318 0.52966 0.75465 0.0
H3689 H 0.5714 0.58112 0.71498 0.0
H3690 H 0.58582 0.55566 0.76332 0.0
H3691 H 0.58755 0.54514 0.79706 0.0
H3692 H 0.61315 0.59081 0.82314 0.0
H3693 H 0.61034 0.6016 0.79014 0.0
C3694 C 0.64374 0.62652 0.68974 0.0
C3695 C 0.65189 0.64082 0.70028 0.0
C3696 C 0.63003 0.61461 0.6979 0.0
C3697 C 0.6242 0.6167 0.71685 0.0
C3698 C 0.63246 0.63087 0.72763 0.0
C3699 C 0.64611 0.64286 0.71935 0.0
C3700 C 0.60956 0.60409 0.7255 0.0
C3701 C 0.60973 0.59805 0.74512 0.0
C3702 C 0.59561 0.59771 0.71432 0.0
C3703 C 0.59465 0.60372 0.69365 0.0
C3704 C 0.59949 0.61939 0.6913 0.0
C3705 C 0.59868 0.62499 0.6717 0.0
C3706 C 0.59297 0.61501 0.65437 0.0
C3707 C 0.58799 0.5994 0.65661 0.0
C3708 C 0.58879 0.59375 0.67617 0.0
C3709 C 0.55111 0.5616 0.7834 0.0
C3710 C 0.54431 0.54585 0.77814 0.0
C3711 C 0.56278 0.57279 0.77108 0.0
C3712 C 0.56766 0.56851 0.75301 0.0
C3713 C 0.55964 0.55301 0.74629 0.0
C3714 C 0.5481 0.5417 0.75892 0.0
C3715 C 0.58232 0.57991 0.74306 0.0
C3716 C 0.58217 0.58567 0.72323 0.0
C3717 C 0.59636 0.5859 0.75395 0.0
C3718 C 0.5975 0.57943 0.77427 0.0
C3719 C 0.59133 0.56347 0.77643 0.0
C3720 C 0.59248 0.55744 0.79548 0.0
C3721 C 0.60023 0.5673 0.81236 0.0
C3722 C 0.60683 0.58319 0.8102 0.0
C3723 C 0.60534 0.58925 0.79137 0.0
H3724 H 0.60127 0.56264 0.82703 0.0
H3725 H 0.59236 0.61937 0.63921 0.0
H3726 H 0.7124 0.72429 0.66753 0.0
H3727 H 0.71204 0.74681 0.65444 0.0
H3728 H 0.66571 0.7172 0.63307 0.0
H3729 H 0.6663 0.69476 0.64523 0.0
H3730 H 0.68015 0.73653 0.6044 0.0
H3731 H 0.67684 0.74202 0.67938 0.0
H3732 H 0.68527 0.74448 0.71617 0.0
H3733 H 0.7275 0.78558 0.70121 0.0
H3734 H 0.71938 0.78325 0.66429 0.0
H3735 H 0.66092 0.79137 0.58079 0.0
H3736 H 0.66145 0.77204 0.60302 0.0
H3737 H 0.70996 0.80195 0.61153 0.0
H3738 H 0.70939 0.82128 0.5893 0.0
H3739 H 0.69526 0.78353 0.64729 0.0
H3740 H 0.69897 0.77781 0.57273 0.0
H3741 H 0.6908 0.77579 0.53588 0.0
H3742 H 0.64795 0.73525 0.55028 0.0
H3743 H 0.65581 0.73713 0.58728 0.0
C3744 C 0.70215 0.72262 0.66006 0.0
C3745 C 0.6894 0.70772 0.65739 0.0
C3746 C 0.7019 0.73553 0.6527 0.0
C3747 C 0.68876 0.73384 0.64295 0.0
C3748 C 0.67602 0.71892 0.64044 0.0
C3749 C 0.67636 0.70605 0.64746 0.0
C3750 C 0.68826 0.74739 0.63471 0.0
C3751 C 0.68324 0.74667 0.61399 0.0
C3752 C 0.69271 0.76094 0.64683 0.0
C3753 C 0.69756 0.76237 0.66904 0.0
C3754 C 0.68796 0.75152 0.68392 0.0
C3755 C 0.69268 0.7529 0.70479 0.0
C3756 C 0.70693 0.76516 0.71101 0.0
C3757 C 0.71647 0.77608 0.69637 0.0
C3758 C 0.71181 0.77475 0.67548 0.0
C3759 C 0.67152 0.79412 0.58834 0.0
C3760 C 0.68506 0.80791 0.58369 0.0
C3761 C 0.67188 0.78301 0.6008 0.0
C3762 C 0.6858 0.78544 0.60868 0.0
C3763 C 0.6991 0.79982 0.60568 0.0
C3764 C 0.69875 0.81092 0.59313 0.0
C3765 C 0.68681 0.77237 0.61734 0.0
C3766 C 0.69206 0.77328 0.63792 0.0
C3767 C 0.68259 0.75897 0.60513 0.0
C3768 C 0.67792 0.75769 0.58282 0.0
C3769 C 0.68776 0.76852 0.56807 0.0
C3770 C 0.6832 0.76739 0.54715 0.0
C3771 C 0.66885 0.75543 0.54076 0.0
C3772 C 0.65906 0.74453 0.55526 0.0
C3773 C 0.66357 0.7456 0.5762 0.0
H3774 H 0.66533 0.75458 0.52456 0.0
H3775 H 0.71056 0.7662 0.72718 0.0
H3776 H 0.29443 0.98874 0.66229 0.0
H3777 H 0.27288 0.96451 0.64948 0.0
H3778 H 0.30369 0.94904 0.6312 0.0
H3779 H 0.3254 0.97383 0.64278 0.0
H3780 H 0.2836 0.93964 0.60352 0.0
H3781 H 0.2796 0.93653 0.67813 0.0
H3782 H 0.27824 0.94488 0.7142 0.0
H3783 H 0.23707 0.94434 0.69881 0.0
H3784 H 0.23828 0.93618 0.66256 0.0
H3785 H 0.22616 0.86332 0.5864 0.0
H3786 H 0.24603 0.88434 0.60764 0.0
H3787 H 0.21915 0.90612 0.61052 0.0
H3788 H 0.19917 0.88496 0.58937 0.0
H3789 H 0.2372 0.91106 0.64742 0.0
H3790 H 0.24258 0.91358 0.57153 0.0
H3791 H 0.24404 0.90284 0.5373 0.0
H3792 H 0.28412 0.90287 0.55727 0.0
H3793 H 0.28256 0.91304 0.59201 0.0
C3794 C 0.29661 0.98021 0.65542 0.0
C3795 C 0.3116 0.98315 0.65361 0.0
C3796 C 0.28424 0.96624 0.64829 0.0
C3797 C 0.28648 0.95461 0.6399 0.0
C3798 C 0.30154 0.95771 0.6377 0.0
C3799 C 0.31398 0.97189 0.64431 0.0
C3800 C 0.27318 0.93938 0.63317 0.0
C3801 C 0.27361 0.93333 0.61336 0.0
C3802 C 0.25993 0.93104 0.64576 0.0
C3803 C 0.25911 0.93587 0.66757 0.0
C3804 C 0.27031 0.93829 0.6824 0.0
C3805 C 0.26955 0.94297 0.70288 0.0
C3806 C 0.25759 0.94517 0.70878 0.0
C3807 C 0.24633 0.94265 0.69422 0.0
C3808 C 0.24704 0.93797 0.6737 0.0
C3809 C 0.22416 0.87219 0.59252 0.0
C3810 C 0.21108 0.87247 0.58649 0.0
C3811 C 0.23559 0.88429 0.60443 0.0
C3812 C 0.23421 0.89696 0.6103 0.0
C3813 C 0.22046 0.89647 0.60613 0.0
C3814 C 0.20899 0.88432 0.59422 0.0
C3815 C 0.24777 0.91149 0.61797 0.0
C3816 C 0.24732 0.9174 0.63781 0.0
C3817 C 0.26114 0.91954 0.60563 0.0
C3818 C 0.26236 0.91394 0.58447 0.0
C3819 C 0.25166 0.91123 0.56869 0.0
C3820 C 0.25252 0.90526 0.54917 0.0
C3821 C 0.26419 0.90224 0.54504 0.0
C3822 C 0.27507 0.9052 0.56047 0.0
C3823 C 0.27418 0.91103 0.58011 0.0
H3824 H 0.2648 0.8976 0.52991 0.0
H3825 H 0.25703 0.94881 0.72464 0.0
H3826 H 0.02132 0.29985 0.66486 0.0
H3827 H 0.0441 0.30029 0.65147 0.0
H3828 H 0.0637 0.3481 0.63512 0.0
H3829 H 0.04066 0.34737 0.6473 0.0
H3830 H 0.0693 0.33552 0.60551 0.0
H3831 H 0.07491 0.33384 0.68008 0.0
H3832 H 0.06732 0.32352 0.71579 0.0
H3833 H 0.06395 0.28116 0.69574 0.0
H3834 H 0.07134 0.29117 0.65983 0.0
H3835 H 0.14417 0.35579 0.58697 0.0
H3836 H 0.12343 0.35315 0.60941 0.0
H3837 H 0.10167 0.30369 0.60525 0.0
H3838 H 0.12252 0.30637 0.58275 0.0
H3839 H 0.09722 0.31583 0.6455 0.0
H3840 H 0.09283 0.31941 0.57038 0.0
H3841 H 0.10263 0.3318 0.53626 0.0
H3842 H 0.10504 0.37305 0.55932 0.0
H3843 H 0.09576 0.36111 0.59392 0.0
C3844 C 0.03051 0.31043 0.65837 0.0
C3845 C 0.02918 0.32356 0.65708 0.0
C3846 C 0.04362 0.31073 0.65087 0.0
C3847 C 0.05587 0.32432 0.64252 0.0
C3848 C 0.05449 0.33744 0.64137 0.0
C3849 C 0.04128 0.33702 0.64839 0.0
C3850 C 0.06994 0.32491 0.63432 0.0
C3851 C 0.07545 0.33138 0.6145 0.0
C3852 C 0.07796 0.31923 0.64566 0.0
C3853 C 0.07352 0.3132 0.66722 0.0
C3854 C 0.07245 0.32229 0.68325 0.0
C3855 C 0.0682 0.3165 0.70354 0.0
C3856 C 0.06511 0.30168 0.70802 0.0
C3857 C 0.06632 0.29263 0.69224 0.0
C3858 C 0.07055 0.29836 0.67192 0.0
C3859 C 0.13537 0.34438 0.59176 0.0
C3860 C 0.13501 0.33128 0.5834 0.0
C3861 C 0.12345 0.34287 0.6044 0.0
C3862 C 0.11089 0.32822 0.60875 0.0
C3863 C 0.11126 0.3151 0.60214 0.0
C3864 C 0.12322 0.31662 0.58943 0.0
C3865 C 0.09655 0.32672 0.61712 0.0
C3866 C 0.09099 0.31998 0.63674 0.0
C3867 C 0.08859 0.33239 0.60581 0.0
C3868 C 0.09372 0.33941 0.58481 0.0
C3869 C 0.09553 0.33116 0.56823 0.0
C3870 C 0.10096 0.33809 0.54878 0.0
C3871 C 0.1044 0.35317 0.54556 0.0
C3872 C 0.10238 0.36137 0.56182 0.0
C3873 C 0.09706 0.35453 0.58138 0.0
H3874 H 0.10862 0.35851 0.53048 0.0
H3875 H 0.06183 0.29722 0.72373 0.0
H3876 H 0.31348 0.33234 0.62807 0.0
H3877 H 0.29114 0.33296 0.61614 0.0
H3878 H 0.26838 0.31319 0.67465 0.0
H3879 H 0.2905 0.31172 0.6861 0.0
H3880 H 0.24838 0.3014 0.64678 0.0
H3881 H 0.28514 0.35354 0.66174 0.0
H3882 H 0.31009 0.37772 0.6609 0.0
H3883 H 0.30603 0.38022 0.59424 0.0
H3884 H 0.28115 0.35594 0.59464 0.0
H3885 H 0.21203 0.34726 0.59536 0.0
H3886 H 0.22968 0.34598 0.62028 0.0
H3887 H 0.22032 0.30303 0.59174 0.0
H3888 H 0.20249 0.3041 0.56761 0.0
H3889 H 0.25516 0.34813 0.6121 0.0
H3890 H 0.22771 0.28155 0.62209 0.0
H3891 H 0.20214 0.25877 0.62754 0.0
H3892 H 0.18633 0.28767 0.65288 0.0
H3893 H 0.21184 0.31059 0.64787 0.0
C3894 C 0.30369 0.32807 0.63837 0.0
C3895 C 0.30379 0.32204 0.65807 0.0
C3896 C 0.29092 0.32857 0.63162 0.0
C3897 C 0.27809 0.32353 0.64466 0.0
C3898 C 0.27809 0.31724 0.66424 0.0
C3899 C 0.29076 0.3164 0.67082 0.0
C3900 C 0.26467 0.32464 0.63763 0.0
C3901 C 0.2499 0.31166 0.6393 0.0
C3902 C 0.26639 0.33819 0.62854 0.0
C3903 C 0.28131 0.35286 0.62821 0.0
C3904 C 0.28961 0.3592 0.64689 0.0
C3905 C 0.30373 0.37293 0.64649 0.0
C3906 C 0.30965 0.38049 0.62752 0.0
C3907 C 0.30143 0.37435 0.60892 0.0
C3908 C 0.2873 0.36061 0.60923 0.0
C3909 C 0.21328 0.33725 0.59512 0.0
C3910 C 0.20575 0.32568 0.57975 0.0
C3911 C 0.22352 0.3366 0.60914 0.0
C3912 C 0.22639 0.32437 0.60807 0.0
C3913 C 0.21818 0.31244 0.59338 0.0
C3914 C 0.20795 0.31304 0.57953 0.0
C3915 C 0.23898 0.3247 0.62051 0.0
C3916 C 0.25361 0.33794 0.61984 0.0
C3917 C 0.23704 0.3116 0.6312 0.0
C3918 C 0.22169 0.29781 0.63446 0.0
C3919 C 0.21881 0.28304 0.62894 0.0
C3920 C 0.20431 0.2701 0.63192 0.0
C3921 C 0.19261 0.27178 0.6405 0.0
C3922 C 0.19539 0.28639 0.64617 0.0
C3923 C 0.20986 0.29936 0.64323 0.0
H3924 H 0.1814 0.26175 0.64279 0.0
H3925 H 0.32059 0.39111 0.62725 0.0
H3926 H 0.68382 0.97591 0.6827 0.0
H3927 H 0.68312 0.95305 0.66845 0.0
H3928 H 0.67934 0.96652 0.60579 0.0
H3929 H 0.67892 0.98891 0.62034 0.0
H3930 H 0.6633 0.9378 0.60657 0.0
H3931 H 0.71441 0.97235 0.62864 0.0
H3932 H 0.7351 0.9897 0.65284 0.0
H3933 H 0.72285 0.95204 0.69446 0.0
H3934 H 0.70194 0.9345 0.67064 0.0
H3935 H 0.70633 0.89777 0.57205 0.0
H3936 H 0.70696 0.91865 0.59278 0.0
H3937 H 0.6598 0.8885 0.60983 0.0
H3938 H 0.65916 0.8677 0.58871 0.0
H3939 H 0.70223 0.92596 0.63097 0.0
H3940 H 0.64096 0.908 0.60345 0.0
H3941 H 0.6234 0.8933 0.57435 0.0
H3942 H 0.66148 0.90257 0.53514 0.0
H3943 H 0.67925 0.91755 0.56386 0.0
C3944 C 0.68274 0.97392 0.66589 0.0
C3945 C 0.68153 0.9842 0.65258 0.0
C3946 C 0.68247 0.9609 0.65771 0.0
C3947 C 0.68163 0.95819 0.63593 0.0
C3948 C 0.68006 0.96832 0.62263 0.0
C3949 C 0.67986 0.98113 0.63092 0.0
C3950 C 0.68255 0.94491 0.62713 0.0
C3951 C 0.67181 0.93525 0.612 0.0
C3952 C 0.69388 0.94166 0.63366 0.0
C3953 C 0.70653 0.95214 0.64794 0.0
C3954 C 0.71608 0.96779 0.64301 0.0
C3955 C 0.72784 0.97765 0.65665 0.0
C3956 C 0.73027 0.97198 0.6752 0.0
C3957 C 0.72095 0.95642 0.6801 0.0
C3958 C 0.70914 0.94651 0.66653 0.0
C3959 C 0.69635 0.89544 0.58106 0.0
C3960 C 0.68277 0.88113 0.57912 0.0
C3961 C 0.69666 0.90739 0.59276 0.0
C3962 C 0.68334 0.90524 0.60252 0.0
C3963 C 0.67016 0.89049 0.60218 0.0
C3964 C 0.66984 0.87854 0.5904 0.0
C3965 C 0.6828 0.91877 0.61088 0.0
C3966 C 0.69365 0.9285 0.62578 0.0
C3967 C 0.67203 0.92248 0.60342 0.0
C3968 C 0.66141 0.91373 0.58592 0.0
C3969 C 0.64558 0.90695 0.5886 0.0
C3970 C 0.63559 0.89858 0.57216 0.0
C3971 C 0.64132 0.89696 0.55294 0.0
C3972 C 0.65705 0.90379 0.55006 0.0
C3973 C 0.66708 0.91222 0.56642 0.0
H3974 H 0.63357 0.89044 0.54026 0.0
H3975 H 0.73938 0.97964 0.68574 0.0
H3976 H 0.03142 0.68605 0.63677 0.0
H3977 H 0.05551 0.70739 0.62344 0.0
H3978 H 0.05157 0.73884 0.66568 0.0
H3979 H 0.02747 0.71758 0.67903 0.0
H3980 H 0.06018 0.75074 0.62627 0.0
H3981 H 0.07597 0.72646 0.67655 0.0
H3982 H 0.07655 0.70458 0.69216 0.0
H3983 H 0.09409 0.69727 0.63456 0.0
H3984 H 0.09342 0.71898 0.6185 0.0
H3985 H 0.13276 0.81348 0.60389 0.0
H3986 H 0.11327 0.79351 0.62652 0.0
H3987 H 0.11458 0.75842 0.58888 0.0
H3988 H 0.13417 0.77833 0.56666 0.0
H3989 H 0.10789 0.74906 0.62856 0.0
H3990 H 0.09227 0.77233 0.57782 0.0
H3991 H 0.0907 0.7929 0.56 0.0
H3992 H 0.07213 0.80129 0.61579 0.0
H3993 H 0.0737 0.78077 0.63403 0.0
C3994 C 0.03566 0.69751 0.64319 0.0
C3995 C 0.02753 0.70009 0.65902 0.0
C3996 C 0.04948 0.7097 0.63562 0.0
C3997 C 0.05549 0.72473 0.64372 0.0
C3998 C 0.04722 0.72737 0.65922 0.0
C3999 C 0.03345 0.71518 0.66686 0.0
C4000 C 0.07034 0.7377 0.63601 0.0
C4001 C 0.07068 0.75052 0.62714 0.0
C4002 C 0.08398 0.73724 0.63659 0.0
C4003 C 0.08452 0.72427 0.64628 0.0
C4004 C 0.07985 0.72012 0.66717 0.0
C4005 C 0.08021 0.70776 0.6761 0.0
C4006 C 0.08532 0.69952 0.66434 0.0
C4007 C 0.09013 0.70365 0.64364 0.0
C4008 C 0.08977 0.716 0.63463 0.0
C4009 C 0.12941 0.80155 0.60116 0.0
C4010 C 0.13502 0.79742 0.58367 0.0
C4011 C 0.11814 0.79012 0.61391 0.0
C4012 C 0.11219 0.77441 0.60914 0.0
C4013 C 0.11892 0.77041 0.5929 0.0
C4014 C 0.13018 0.78181 0.58025 0.0
C4015 C 0.09777 0.76218 0.61894 0.0
C4016 C 0.09746 0.74944 0.62802 0.0
C4017 C 0.08409 0.76261 0.61828 0.0
C4018 C 0.08318 0.77502 0.60735 0.0
C4019 C 0.08786 0.77854 0.58632 0.0
C4020 C 0.08699 0.79022 0.57614 0.0
C4021 C 0.08134 0.79842 0.58677 0.0
C4022 C 0.07652 0.79493 0.60759 0.0
C4023 C 0.0774 0.78326 0.61785 0.0
H4024 H 0.08067 0.80747 0.57887 0.0
H4025 H 0.08559 0.68995 0.67129 0.0
H4026 H 0.99893 0.64204 0.72943 0.0
H4027 H 0.99867 0.61916 0.7417 0.0
H4028 H 0.97734 0.59541 0.68377 0.0
H4029 H 0.97674 0.6181 0.67201 0.0
H4030 H 0.96565 0.57583 0.71218 0.0
H4031 H 0.01765 0.61165 0.69616 0.0
H4032 H 0.04205 0.63644 0.697 0.0
H4033 H 0.04512 0.63267 0.7636 0.0
H4034 H 0.02064 0.60795 0.76321 0.0
H4035 H 0.01094 0.53776 0.7597 0.0
H4036 H 0.00898 0.55533 0.73537 0.0
H4037 H 0.96795 0.54716 0.76676 0.0
H4038 H 0.96966 0.52935 0.79037 0.0
H4039 H 0.01214 0.58142 0.74516 0.0
H4040 H 0.94638 0.55575 0.73798 0.0
H4041 H 0.92305 0.53031 0.73333 0.0
H4042 H 0.94938 0.51242 0.70577 0.0
H4043 H 0.97285 0.5378 0.70997 0.0
C4044 C 0.99413 0.63192 0.71932 0.0
C4045 C 0.98793 0.63193 0.69969 0.0
C4046 C 0.99412 0.61884 0.72628 0.0
C4047 C 0.9884 0.60555 0.71348 0.0
C4048 C 0.98192 0.60546 0.69398 0.0
C4049 C 0.98159 0.61846 0.68723 0.0
C4050 C 0.98906 0.59181 0.72061 0.0
C4051 C 0.97586 0.57708 0.71929 0.0
C4052 C 1.00247 0.59317 0.72936 0.0
C4053 C 0.01725 0.608 0.72966 0.0
C4054 C 0.02349 0.61615 0.711 0.0
C4055 C 0.03734 0.63018 0.71139 0.0
C4056 C 0.04512 0.63614 0.73034 0.0
C4057 C 0.03908 0.62805 0.74893 0.0
C4058 C 0.02523 0.61401 0.74863 0.0
C4059 C 1.00112 0.53916 0.76066 0.0
C4060 C 0.99035 0.53204 0.77675 0.0
C4061 C 1.00012 0.5494 0.74698 0.0
C4062 C 0.9883 0.55267 0.74911 0.0
C4063 C 0.97702 0.54472 0.76436 0.0
C4064 C 0.97798 0.53447 0.77788 0.0
C4065 C 0.98861 0.56554 0.73726 0.0
C4066 C 1.00199 0.58012 0.73778 0.0
C4067 C 0.9755 0.56395 0.72721 0.0
C4068 C 0.9614 0.54867 0.72444 0.0
C4069 C 0.94719 0.54642 0.73082 0.0
C4070 C 0.93394 0.532 0.72829 0.0
C4071 C 0.93474 0.51975 0.71931 0.0
C4072 C 0.94879 0.5219 0.71279 0.0
C4073 C 0.96207 0.5363 0.71527 0.0
H4074 H 0.92447 0.5086 0.71737 0.0
H4075 H 0.05583 0.647 0.73062 0.0
H4076 H 0.35912 0.36851 0.71529 0.0
H4077 H 0.38136 0.39291 0.727 0.0
H4078 H 0.41097 0.3823 0.6915 0.0
H4079 H 0.38883 0.35803 0.67957 0.0
H4080 H 0.42143 0.3929 0.73231 0.0
H4081 H 0.40407 0.40804 0.67268 0.0
H4082 H 0.38512 0.40979 0.65094 0.0
H4083 H 0.37749 0.43407 0.70075 0.0
H4084 H 0.39624 0.43227 0.72292 0.0
H4085 H 0.48467 0.46465 0.76171 0.0
H4086 H 0.46728 0.4446 0.73679 0.0
H4087 H 0.43095 0.45196 0.75649 0.0
H4088 H 0.44843 0.47244 0.78019 0.0
H4089 H 0.4259 0.44322 0.71848 0.0
H4090 H 0.43953 0.42503 0.77962 0.0
H4091 H 0.45722 0.42257 0.80335 0.0
H4092 H 0.47036 0.40323 0.75291 0.0
H4093 H 0.45293 0.4058 0.72888 0.0
C4094 C 0.37037 0.37137 0.71003 0.0
C4095 C 0.3722 0.36135 0.69649 0.0
C4096 C 0.38306 0.38534 0.71663 0.0
C4097 C 0.39782 0.3895 0.70996 0.0
C4098 C 0.39969 0.37936 0.69678 0.0
C4099 C 0.38701 0.3655 0.68997 0.0
C4100 C 0.41132 0.40433 0.71695 0.0
C4101 C 0.42257 0.40394 0.72898 0.0
C4102 C 0.41268 0.41871 0.71287 0.0
C4103 C 0.40148 0.41991 0.69952 0.0
C4104 C 0.39827 0.41365 0.67906 0.0
C4105 C 0.38758 0.41467 0.66665 0.0
C4106 C 0.38008 0.422 0.67447 0.0
C4107 C 0.3833 0.42838 0.69471 0.0
C4108 C 0.39397 0.42738 0.7072 0.0
C4109 C 0.47315 0.4624 0.76001 0.0
C4110 C 0.46784 0.46995 0.7731 0.0
C4111 C 0.46313 0.45077 0.74601 0.0
C4112 C 0.44759 0.44632 0.74525 0.0
C4113 C 0.44277 0.45497 0.75682 0.0
C4114 C 0.4528 0.4667 0.77045 0.0
C4115 C 0.43591 0.43183 0.73439 0.0
C4116 C 0.42494 0.43224 0.72158 0.0
C4117 C 0.43467 0.41741 0.73804 0.0
C4118 C 0.44508 0.41578 0.75246 0.0
C4119 C 0.44626 0.42032 0.77363 0.0
C4120 C 0.45623 0.41892 0.78711 0.0
C4121 C 0.46493 0.41278 0.77962 0.0
C4122 C 0.46365 0.40802 0.75867 0.0
C4123 C 0.45374 0.40946 0.74512 0.0
H4124 H 0.47263 0.4117 0.79007 0.0
H4125 H 0.37181 0.42278 0.66484 0.0
H4126 H 0.64066 0.99875 0.70474 0.0
H4127 H 0.61779 0.99864 0.71662 0.0
H4128 H 0.63695 0.0454 0.69585 0.0
H4129 H 0.65987 0.0455 0.68345 0.0
H4130 H 0.6243 0.03888 0.73867 0.0
H4131 H 0.61018 0.02009 0.6678 0.0
H4132 H 0.60682 1.00324 0.63747 0.0
H4133 H 0.57571 0.96348 0.673 0.0
H4134 H 0.57905 0.98008 0.70367 0.0
H4135 H 0.55813 0.0399 0.76422 0.0
H4136 H 0.57777 0.04157 0.74016 0.0
H4137 H 0.5618 0.99353 0.75009 0.0
H4138 H 0.5422 0.9919 0.77413 0.0
H4139 H 0.57287 1.00239 0.70968 0.0
H4140 H 0.5885 0.01873 0.78055 0.0
H4141 H 0.59146 0.03365 0.8129 0.0
H4142 H 0.6197 0.07582 0.78001 0.0
H4143 H 0.61667 0.06112 0.74733 0.0
C4144 C 0.64002 0.00902 0.70263 0.0
C4145 C 0.65209 0.02214 0.69314 0.0
C4146 C 0.62691 0.00891 0.70937 0.0
C4147 C 0.62562 0.02198 0.70703 0.0
C4148 C 0.6377 0.03518 0.69775 0.0
C4149 C 0.65076 0.0352 0.69064 0.0
C4150 C 0.61174 0.0218 0.71474 0.0
C4151 C 0.6131 0.03118 0.73201 0.0
C4152 C 0.59706 0.01134 0.70654 0.0
C4153 C 0.59497 1.00133 0.6881 0.0
C4154 C 0.60272 0.00774 0.66921 0.0
C4155 C 0.6008 0.99824 0.65194 0.0
C4156 C 0.59109 0.9823 0.65332 0.0
C4157 C 0.58324 0.97583 0.67196 0.0
C4158 C 0.58513 0.98528 0.68928 0.0
C4159 C 0.55836 0.02955 0.76042 0.0
C4160 C 0.54855 0.01572 0.77072 0.0
C4161 C 0.56969 0.03054 0.74688 0.0
C4162 C 0.57141 0.01773 0.74357 0.0
C4163 C 0.56068 1.00355 0.75236 0.0
C4164 C 0.54942 1.00258 0.76597 0.0
C4165 C 0.58544 0.01956 0.7335 0.0
C4166 C 0.58411 0.01036 0.71601 0.0
C4167 C 0.60014 0.02996 0.74176 0.0
C4168 C 0.60221 0.03884 0.76143 0.0
C4169 C 0.59525 0.03119 0.78017 0.0
C4170 C 0.59694 0.0396 0.79858 0.0
C4171 C 0.60572 0.05568 0.7985 0.0
C4172 C 0.61287 0.06337 0.78003 0.0
C4173 C 0.61117 0.055 0.76156 0.0
H4174 H 0.60701 0.06218 0.81276 0.0
H4175 H 0.58961 0.97496 0.63993 0.0
loop_
_geom_bond_atom_site_label_1
_geom_bond_atom_site_label_2
_geom_bond_distance
_geom_bond_site_symmetry_2
_ccdc_geom_bond_type
Co0 O1 2.216 . S
Co0 O2 2.091 . S
Co0 O4 2.004 1_554 S
Co0 O10 2.021 . S
Co0 O12 2.137 1_454 S
Co0 O13 2.244 1_455 S
O1 Co0 2.216 . S
O1 C8 1.247 . S
O2 Co0 2.091 . S
O2 C8 1.261 . S
C3 O12 1.247 . S
C3 O13 1.272 1_556 S
O4 Co0 2.004 1_556 S
O4 C9 1.242 1_455 S
Co5 O6 2.061 1_554 S
Co5 O11 2.052 . S
Co5 O13 2.135 . S
O6 Co5 2.061 1_556 S
O6 C9 1.252 . S
C7 O10 1.238 1_655 S
C7 O11 1.241 . S
C8 O1 1.247 . S
C8 O2 1.261 . S
C9 O4 1.242 1_655 S
C9 O6 1.252 . S
O10 Co0 2.021 . S
O10 C7 1.238 1_455 S
O11 Co5 2.052 . S
O11 C7 1.241 . S
O12 Co0 2.137 1_656 S
O12 C3 1.247 . S
O13 Co0 2.244 1_655 S
O13 C3 1.272 1_554 S
O13 Co5 2.135 . S
Co14 O15 2.216 1_554 S
Co14 O16 2.091 . S
Co14 O18 2.004 . S
Co14 O24 2.021 1_554 S
Co14 O26 2.137 . S
Co14 O27 2.244 . S
O15 Co14 2.216 1_556 S
O15 C22 1.247 . S
O16 Co14 2.091 . S
O16 C22 1.261 1_554 S
C17 O26 1.247 . S
C17 O27 1.272 . S
O18 Co14 2.004 . S
O18 C23 1.259 . S
Co19 O20 2.061 . S
Co19 O25 2.052 1_554 S
Co19 O27 2.135 . S
O20 Co19 2.061 . S
O20 C23 1.235 . S
C21 O24 1.238 . S
C21 O25 1.241 . S
C22 O15 1.247 . S
C22 O16 1.261 1_556 S
C23 O18 1.259 . S
C23 O20 1.235 . S
O24 Co14 2.021 1_556 S
O24 C21 1.238 . S
O25 Co19 2.052 1_556 S
O25 C21 1.241 . S
O26 Co14 2.137 . S
O26 C17 1.247 . S
O27 Co14 2.244 . S
O27 C17 1.272 . S
O27 Co19 2.135 . S
Co28 O29 2.216 1_554 S
Co28 O30 2.091 . S
Co28 O32 2.004 . S
Co28 O38 2.021 1_554 S
Co28 O40 2.137 1_545 S
Co28 O41 2.244 1_545 S
O29 Co28 2.216 1_556 S
O29 C36 1.247 . S
O30 Co28 2.091 . S
O30 C36 1.261 1_554 S
C31 O40 1.247 . S
C31 O41 1.272 . S
O32 Co28 2.004 . S
O32 C37 1.259 . S
Co33 O34 2.061 . S
Co33 O39 2.052 1_554 S
Co33 O41 2.135 . S
O34 Co33 2.061 . S
O34 C37 1.235 1_565 S
C35 O38 1.190 1_565 S
C35 O39 1.288 . S
C36 O29 1.247 . S
C36 O30 1.261 1_556 S
C37 O32 1.259 . S
C37 O34 1.235 1_545 S
O38 Co28 2.021 1_556 S
O38 C35 1.190 1_545 S
O39 Co33 2.052 1_556 S
O39 C35 1.288 . S
O40 Co28 2.137 1_565 S
O40 C31 1.247 . S
O41 Co28 2.244 1_565 S
O41 C31 1.272 . S
O41 Co33 2.135 . S
Co42 O43 2.216 1_554 S
Co42 O44 2.091 . S
Co42 O46 2.004 . S
Co42 O52 2.021 1_554 S
Co42 O54 2.137 1_655 S
Co42 O55 2.244 1_655 S
O43 Co42 2.216 1_556 S
O43 C50 1.247 . S
O44 Co42 2.091 . S
O44 C50 1.261 1_554 S
C45 O54 1.247 . S
C45 O55 1.272 . S
O46 Co42 2.004 . S
O46 C51 1.259 1_655 S
Co47 O48 2.061 . S
Co47 O53 2.052 1_554 S
Co47 O55 2.135 . S
O48 Co47 2.061 . S
O48 C51 1.235 . S
C49 O52 1.238 1_455 S
C49 O53 1.241 . S
C50 O43 1.247 . S
C50 O44 1.261 1_556 S
C51 O46 1.259 1_455 S
C51 O48 1.235 . S
O52 Co42 2.021 1_556 S
O52 C49 1.238 1_655 S
O53 Co47 2.052 1_556 S
O53 C49 1.241 . S
O54 Co42 2.137 1_455 S
O54 C45 1.247 . S
O55 Co42 2.244 1_455 S
O55 C45 1.272 . S
O55 Co47 2.135 . S
Co56 O57 2.216 . S
Co56 O58 2.091 . S
Co56 O60 2.004 1_554 S
Co56 O66 2.021 . S
Co56 O68 2.137 1_554 S
Co56 O69 2.244 . S
O57 Co56 2.216 . S
O57 C64 1.247 . S
O58 Co56 2.091 . S
O58 C64 1.261 . S
C59 O68 1.247 . S
C59 O69 1.272 1_556 S
O60 Co56 2.004 1_556 S
O60 C65 1.259 . S
Co61 O62 2.061 1_554 S
Co61 O67 2.052 . S
Co61 O69 2.135 . S
O62 Co61 2.061 1_556 S
O62 C65 1.235 . S
C63 O66 1.238 . S
C63 O67 1.241 . S
C64 O57 1.247 . S
C64 O58 1.261 . S
C65 O60 1.259 . S
C65 O62 1.235 . S
O66 Co56 2.021 . S
O66 C63 1.238 . S
O67 Co61 2.052 . S
O67 C63 1.241 . S
O68 Co56 2.137 1_556 S
O68 C59 1.247 . S
O69 Co56 2.244 . S
O69 C59 1.272 1_554 S
O69 Co61 2.135 . S
Co70 O71 2.216 . S
Co70 O72 2.091 . S
Co70 O74 2.004 1_554 S
Co70 O80 2.021 . S
Co70 O82 2.137 1_564 S
Co70 O83 2.244 1_565 S
O71 Co70 2.216 . S
O71 C78 1.247 . S
O72 Co70 2.091 . S
O72 C78 1.261 . S
C73 O82 1.247 . S
C73 O83 1.272 1_556 S
O74 Co70 2.004 1_556 S
O74 C79 1.259 1_565 S
Co75 O76 2.061 1_554 S
Co75 O81 2.052 . S
Co75 O83 2.135 . S
O76 Co75 2.061 1_556 S
O76 C79 1.235 . S
C77 O80 1.238 1_545 S
C77 O81 1.241 . S
C78 O71 1.247 . S
C78 O72 1.261 . S
C79 O74 1.259 1_545 S
C79 O76 1.235 . S
O80 Co70 2.021 . S
O80 C77 1.238 1_565 S
O81 Co75 2.052 . S
O81 C77 1.241 . S
O82 Co70 2.137 1_546 S
O82 C73 1.247 . S
O83 Co70 2.244 1_545 S
O83 C73 1.272 1_554 S
O83 Co75 2.135 . S
Co84 O85 2.216 . S
Co84 O86 2.091 . S
Co84 O88 2.004 . S
Co84 O94 2.021 . S
Co84 O96 2.137 . S
Co84 O97 2.244 . S
O85 Co84 2.216 . S
O85 C92 1.247 . S
O86 Co84 2.091 . S
O86 C92 1.261 . S
C87 O96 1.247 . S
C87 O97 1.272 . S
O88 Co84 2.004 . S
O88 C93 1.259 . S
Co89 O90 2.061 . S
Co89 O95 2.052 . S
Co89 O97 2.135 . S
O90 Co89 2.061 . S
O90 C93 1.235 . S
C91 O94 1.238 . S
C91 O95 1.241 . S
C92 O85 1.247 . S
C92 O86 1.261 . S
C93 O88 1.259 . S
C93 O90 1.235 . S
O94 Co84 2.021 . S
O94 C91 1.238 . S
O95 Co89 2.052 . S
O95 C91 1.241 . S
O96 Co84 2.137 . S
O96 C87 1.247 . S
O97 Co84 2.244 . S
O97 C87 1.272 . S
O97 Co89 2.135 . S
Co98 O99 2.216 . S
Co98 O100 2.091 . S
Co98 O102 2.004 . S
Co98 O108 2.021 . S
Co98 O110 2.137 1_565 S
Co98 O111 2.284 . S
O99 Co98 2.216 . S
O99 C106 1.247 . S
O100 Co98 2.091 . S
O100 C106 1.261 . S
C101 O110 1.247 . S
C101 O111 1.263 1_545 S
O102 Co98 2.004 . S
O102 C107 1.259 . S
Co103 O104 2.061 . S
Co103 O109 2.052 . S
Co103 O111 2.140 . S
O104 Co103 2.061 . S
O104 C107 1.235 . S
C105 O108 1.238 . S
C105 O109 1.241 . S
C106 O99 1.247 . S
C106 O100 1.261 . S
C107 O102 1.259 . S
C107 O104 1.235 . S
O108 Co98 2.021 . S
O108 C105 1.238 . S
O109 Co103 2.052 . S
O109 C105 1.241 . S
O110 Co98 2.137 1_545 S
O110 C101 1.247 . S
O111 Co98 2.284 . S
O111 C101 1.263 1_565 S
O111 Co103 2.140 . S
Co112 O113 2.216 . S
Co112 O114 2.091 . S
Co112 O116 2.004 . S
Co112 O122 2.021 . S
Co112 O124 2.110 1_455 S
Co112 O125 2.244 . S
O113 Co112 2.216 . S
O113 C120 1.247 . S
O114 Co112 2.091 . S
O114 C120 1.261 . S
C115 O124 1.238 . S
C115 O125 1.272 1_655 S
O116 Co112 2.004 . S
O116 C121 1.259 . S
Co117 O118 2.061 . S
Co117 O123 2.052 . S
Co117 O125 2.135 . S
O118 Co117 2.061 . S
O118 C121 1.235 . S
C119 O122 1.238 . S
C119 O123 1.241 . S
C120 O113 1.247 . S
C120 O114 1.261 . S
C121 O116 1.259 . S
C121 O118 1.235 . S
O122 Co112 2.021 . S
O122 C119 1.238 . S
O123 Co117 2.052 . S
O123 C119 1.241 . S
O124 Co112 2.110 1_655 S
O124 C115 1.238 . S
O125 Co112 2.244 . S
O125 C115 1.272 1_455 S
O125 Co117 2.135 . S
Co126 O127 2.216 . S
Co126 O128 2.091 . S
Co126 O130 2.004 . S
Co126 O136 2.021 . S
Co126 O138 2.137 1_565 S
Co126 O139 2.246 . S
O127 Co126 2.216 . S
O127 C134 1.247 . S
O128 Co126 2.091 . S
O128 C134 1.261 . S
C129 O138 1.247 . S
C129 O139 1.256 1_545 S
O130 Co126 2.004 . S
O130 C135 1.259 . S
Co131 O132 2.061 . S
Co131 O137 2.052 . S
Co131 O139 2.152 . S
O132 Co131 2.061 . S
O132 C135 1.235 . S
C133 O136 1.238 . S
C133 O137 1.241 . S
C134 O127 1.247 . S
C134 O128 1.261 . S
C135 O130 1.259 . S
C135 O132 1.235 . S
O136 Co126 2.021 . S
O136 C133 1.238 . S
O137 Co131 2.052 . S
O137 C133 1.241 . S
O138 Co126 2.137 1_545 S
O138 C129 1.247 . S
O139 Co126 2.246 . S
O139 C129 1.256 1_565 S
O139 Co131 2.152 . S
Co140 O141 2.216 1_455 S
Co140 O142 2.091 1_455 S
Co140 O144 2.004 . S
Co140 O150 2.021 . S
Co140 O152 2.137 . S
Co140 O153 2.244 . S
O141 Co140 2.216 1_655 S
O141 C148 1.247 . S
O142 Co140 2.091 1_655 S
O142 C148 1.261 . S
C143 O152 1.252 . S
C143 O153 1.272 . S
O144 Co140 2.004 . S
O144 C149 1.259 . S
Co145 O146 2.061 . S
Co145 O151 2.052 . S
Co145 O153 2.135 . S
O146 Co145 2.061 . S
O146 C149 1.235 . S
C147 O150 1.238 . S
C147 O151 1.241 . S
C148 O141 1.247 . S
C148 O142 1.261 . S
C149 O144 1.259 . S
C149 O146 1.235 . S
O150 Co140 2.021 . S
O150 C147 1.238 . S
O151 Co145 2.052 . S
O151 C147 1.241 . S
O152 Co140 2.137 . S
O152 C143 1.252 . S
O153 Co140 2.244 . S
O153 C143 1.272 . S
O153 Co145 2.135 . S
Co154 O155 2.216 . S
Co154 O156 2.091 . S
Co154 O158 2.004 . S
Co154 O164 2.021 . S
Co154 O166 2.137 . S
Co154 O167 2.244 . S
O155 Co154 2.216 . S
O155 C162 1.247 . S
O156 Co154 2.091 . S
O156 C162 1.261 . S
C157 O166 1.247 . S
C157 O167 1.272 . S
O158 Co154 2.004 . S
O158 C163 1.259 . S
Co159 O160 2.061 . S
Co159 O165 2.052 . S
Co159 O167 2.135 . S
O160 Co159 2.061 . S
O160 C163 1.235 . S
C161 O164 1.238 . S
C161 O165 1.241 . S
C162 O155 1.247 . S
C162 O156 1.261 . S
C163 O158 1.259 . S
C163 O160 1.235 . S
O164 Co154 2.021 . S
O164 C161 1.238 . S
O165 Co159 2.052 . S
O165 C161 1.241 . S
O166 Co154 2.137 . S
O166 C157 1.247 . S
O167 Co154 2.244 . S
O167 C157 1.272 . S
O167 Co159 2.135 . S
Co168 O169 2.216 . S
Co168 O170 2.091 . S
Co168 O172 2.004 . S
Co168 O178 2.021 . S
Co168 O180 2.137 1_545 S
Co168 O181 2.244 . S
O169 Co168 2.216 . S
O169 C176 1.247 . S
O170 Co168 2.091 . S
O170 C176 1.261 . S
C171 O180 1.247 . S
C171 O181 1.272 1_565 S
O172 Co168 2.004 . S
O172 C177 1.259 . S
Co173 O174 2.061 . S
Co173 O179 2.052 . S
Co173 O181 2.135 . S
O174 Co173 2.061 . S
O174 C177 1.235 . S
C175 O178 1.238 . S
C175 O179 1.241 . S
C176 O169 1.247 . S
C176 O170 1.261 . S
C177 O172 1.259 . S
C177 O174 1.235 . S
O178 Co168 2.021 . S
O178 C175 1.238 . S
O179 Co173 2.052 . S
O179 C175 1.241 . S
O180 Co168 2.137 1_565 S
O180 C171 1.247 . S
O181 Co168 2.244 . S
O181 C171 1.272 1_545 S
O181 Co173 2.135 . S
Co182 O183 2.216 1_655 S
Co182 O184 2.091 1_655 S
Co182 O186 2.004 . S
Co182 O192 2.021 . S
Co182 O194 2.137 1_655 S
Co182 O195 2.244 . S
O183 Co182 2.216 1_455 S
O183 C190 1.247 . S
O184 Co182 2.091 1_455 S
O184 C190 1.261 . S
C185 O194 1.243 1_655 S
C185 O195 1.272 . S
O186 Co182 2.004 . S
O186 C191 1.259 . S
Co187 O188 2.061 . S
Co187 O193 2.052 . S
Co187 O195 2.135 . S
O188 Co187 2.061 . S
O188 C191 1.235 . S
C189 O192 1.238 . S
C189 O193 1.241 . S
C190 O183 1.247 . S
C190 O184 1.261 . S
C191 O186 1.259 . S
C191 O188 1.235 . S
O192 Co182 2.021 . S
O192 C189 1.238 . S
O193 Co187 2.052 . S
O193 C189 1.241 . S
O194 Co182 2.137 1_455 S
O194 C185 1.243 1_455 S
O195 Co182 2.244 . S
O195 C185 1.272 . S
O195 Co187 2.135 . S
Co196 O197 2.216 . S
Co196 O198 2.091 . S
Co196 O200 2.004 . S
Co196 O206 2.021 . S
Co196 O208 2.137 . S
Co196 O209 2.244 . S
O197 Co196 2.216 . S
O197 C204 1.247 . S
O198 Co196 2.091 . S
O198 C204 1.261 . S
C199 O208 1.247 . S
C199 O209 1.272 . S
O200 Co196 2.004 . S
O200 C205 1.259 . S
Co201 O202 2.061 . S
Co201 O207 2.052 . S
Co201 O209 2.135 . S
O202 Co201 2.061 . S
O202 C205 1.235 . S
C203 O206 1.238 . S
C203 O207 1.241 . S
C204 O197 1.247 . S
C204 O198 1.261 . S
C205 O200 1.259 . S
C205 O202 1.235 . S
O206 Co196 2.021 . S
O206 C203 1.238 . S
O207 Co201 2.052 . S
O207 C203 1.241 . S
O208 Co196 2.137 . S
O208 C199 1.247 . S
O209 Co196 2.244 . S
O209 C199 1.272 . S
O209 Co201 2.135 . S
Co210 O211 2.216 . S
Co210 O212 2.091 . S
Co210 O214 2.004 . S
Co210 O220 2.021 . S
Co210 O222 2.137 . S
Co210 O223 2.244 . S
O211 Co210 2.216 . S
O211 C218 1.247 . S
O212 Co210 2.091 . S
O212 C218 1.261 . S
C213 O222 1.247 . S
C213 O223 1.272 . S
O214 Co210 2.004 . S
O214 C219 1.259 . S
Co215 O216 2.061 . S
Co215 O221 2.052 . S
Co215 O223 2.135 . S
O216 Co215 2.061 . S
O216 C219 1.235 . S
C217 O220 1.238 . S
C217 O221 1.241 . S
C218 O211 1.247 . S
C218 O212 1.261 . S
C219 O214 1.259 . S
C219 O216 1.235 . S
O220 Co210 2.021 . S
O220 C217 1.238 . S
O221 Co215 2.052 . S
O221 C217 1.241 . S
O222 Co210 2.137 . S
O222 C213 1.247 . S
O223 Co210 2.244 . S
O223 C213 1.272 . S
O223 Co215 2.135 . S
Co224 O225 2.216 . S
Co224 O226 2.091 . S
Co224 O228 2.004 . S
Co224 O234 2.021 . S
Co224 O236 2.137 1_545 S
Co224 O237 2.244 . S
O225 Co224 2.216 . S
O225 C232 1.247 . S
O226 Co224 2.091 . S
O226 C232 1.261 . S
C227 O236 1.247 . S
C227 O237 1.272 1_565 S
O228 Co224 2.004 . S
O228 C233 1.259 . S
Co229 O230 2.061 . S
Co229 O235 2.052 . S
Co229 O237 2.135 . S
O230 Co229 2.061 . S
O230 C233 1.235 . S
C231 O234 1.238 . S
C231 O235 1.241 . S
C232 O225 1.247 . S
C232 O226 1.261 . S
C233 O228 1.259 . S
C233 O230 1.235 . S
O234 Co224 2.021 . S
O234 C231 1.238 . S
O235 Co229 2.052 . S
O235 C231 1.241 . S
O236 Co224 2.137 1_565 S
O236 C227 1.247 . S
O237 Co224 2.244 . S
O237 C227 1.272 1_545 S
O237 Co229 2.135 . S
Co238 O239 2.216 . S
Co238 O240 2.091 . S
Co238 O242 2.004 . S
Co238 O248 2.021 . S
Co238 O250 2.088 1_655 S
Co238 O251 2.244 . S
O239 Co238 2.216 . S
O239 C246 1.247 . S
O240 Co238 2.091 . S
O240 C246 1.261 . S
C241 O250 1.232 . S
C241 O251 1.272 1_455 S
O242 Co238 2.004 . S
O242 C247 1.259 . S
Co243 O244 2.061 . S
Co243 O249 2.052 . S
Co243 O251 2.135 . S
O244 Co243 2.061 . S
O244 C247 1.235 . S
C245 O248 1.238 . S
C245 O249 1.241 . S
C246 O239 1.247 . S
C246 O240 1.261 . S
C247 O242 1.259 . S
C247 O244 1.235 . S
O248 Co238 2.021 . S
O248 C245 1.238 . S
O249 Co243 2.052 . S
O249 C245 1.241 . S
O250 Co238 2.088 1_455 S
O250 C241 1.232 . S
O251 Co238 2.244 . S
O251 C241 1.272 1_655 S
O251 Co243 2.135 . S
H252 C258 0.930 . S
H253 C261 0.931 . S
H254 C263 0.931 . S
H255 C265 0.930 . S
H256 C267 0.930 . S
H257 C269 0.931 . S
C258 H252 0.930 . S
C258 C259 1.380 . S
C258 C260 1.394 . S
C259 C258 1.380 . S
C259 C263 1.382 . S
C260 C258 1.394 . S
C260 C261 1.400 . S
C261 H253 0.931 . S
C261 C260 1.400 . S
C261 C262 1.375 . S
C262 C261 1.375 . S
C262 C263 1.415 . S
C262 C264 1.501 . S
C263 H254 0.931 . S
C263 C259 1.382 . S
C263 C262 1.415 . S
C264 C262 1.501 . S
C264 C265 1.384 . S
C264 C269 1.408 . S
C265 H255 0.930 . S
C265 C264 1.384 . S
C265 C266 1.389 . S
C266 C265 1.389 . S
C266 C267 1.405 . S
C267 H256 0.930 . S
C267 C266 1.405 . S
C267 C268 1.364 . S
C268 C267 1.364 . S
C268 C269 1.400 . S
C269 H257 0.931 . S
C269 C264 1.408 . S
C269 C268 1.400 . S
H270 C276 0.930 . S
H271 C279 0.931 . S
H272 C281 0.931 . S
H273 C283 0.930 . S
H274 C285 0.930 . S
H275 C287 0.931 . S
C276 H270 0.930 . S
C276 C277 1.380 . S
C276 C278 1.394 . S
C277 C276 1.380 . S
C277 C281 1.382 . S
C278 C276 1.394 . S
C278 C279 1.400 . S
C279 H271 0.931 . S
C279 C278 1.400 . S
C279 C280 1.375 . S
C280 C279 1.375 . S
C280 C281 1.415 . S
C280 C282 1.501 . S
C281 H272 0.931 . S
C281 C277 1.382 . S
C281 C280 1.415 . S
C282 C280 1.501 . S
C282 C283 1.384 . S
C282 C287 1.408 . S
C283 H273 0.930 . S
C283 C282 1.384 . S
C283 C284 1.389 . S
C284 C283 1.389 . S
C284 C285 1.405 . S
C285 H274 0.930 . S
C285 C284 1.405 . S
C285 C286 1.364 . S
C286 C285 1.364 . S
C286 C287 1.400 . S
C287 H275 0.931 . S
C287 C282 1.408 . S
C287 C286 1.400 . S
H288 C294 0.930 . S
H289 C297 0.931 . S
H290 C299 0.931 . S
H291 C301 0.930 . S
H292 C303 0.930 . S
H293 C305 0.931 . S
C294 H288 0.930 . S
C294 C295 1.380 . S
C294 C296 1.394 . S
C295 C294 1.380 . S
C295 C299 1.382 . S
C296 C294 1.394 . S
C296 C297 1.400 . S
C297 H289 0.931 . S
C297 C296 1.400 . S
C297 C298 1.375 . S
C298 C297 1.375 . S
C298 C299 1.415 . S
C298 C300 1.501 . S
C299 H290 0.931 . S
C299 C295 1.382 . S
C299 C298 1.415 . S
C300 C298 1.501 . S
C300 C301 1.384 . S
C300 C305 1.408 . S
C301 H291 0.930 . S
C301 C300 1.384 . S
C301 C302 1.389 . S
C302 C301 1.389 . S
C302 C303 1.405 . S
C303 H292 0.930 . S
C303 C302 1.405 . S
C303 C304 1.364 . S
C304 C303 1.364 . S
C304 C305 1.400 . S
C305 H293 0.931 . S
C305 C300 1.408 . S
C305 C304 1.400 . S
H306 C312 0.930 . S
H307 C315 0.931 . S
H308 C317 0.931 . S
H309 C319 0.930 . S
H310 C321 0.930 . S
H311 C323 0.931 . S
C312 H306 0.930 . S
C312 C313 1.380 . S
C312 C314 1.394 . S
C313 C312 1.380 . S
C313 C317 1.382 . S
C314 C312 1.394 . S
C314 C315 1.400 . S
C315 H307 0.931 . S
C315 C314 1.400 . S
C315 C316 1.375 . S
C316 C315 1.375 . S
C316 C317 1.415 . S
C316 C318 1.501 . S
C317 H308 0.931 . S
C317 C313 1.382 . S
C317 C316 1.415 . S
C318 C316 1.501 . S
C318 C319 1.384 . S
C318 C323 1.408 . S
C319 H309 0.930 . S
C319 C318 1.384 . S
C319 C320 1.389 . S
C320 C319 1.389 . S
C320 C321 1.405 . S
C321 H310 0.930 . S
C321 C320 1.405 . S
C321 C322 1.364 . S
C322 C321 1.364 . S
C322 C323 1.400 . S
C323 H311 0.931 . S
C323 C318 1.408 . S
C323 C322 1.400 . S
H324 C330 0.930 . S
H325 C333 0.931 . S
H326 C335 0.931 . S
H327 C337 0.930 . S
H328 C339 0.930 . S
H329 C341 0.931 . S
C330 H324 0.930 . S
C330 C331 1.380 . S
C330 C332 1.394 . S
C331 C330 1.380 . S
C331 C335 1.382 . S
C332 C330 1.394 . S
C332 C333 1.400 . S
C333 H325 0.931 . S
C333 C332 1.400 . S
C333 C334 1.375 . S
C334 C333 1.375 . S
C334 C335 1.415 . S
C334 C336 1.501 . S
C335 H326 0.931 . S
C335 C331 1.382 . S
C335 C334 1.415 . S
C336 C334 1.501 . S
C336 C337 1.384 . S
C336 C341 1.408 . S
C337 H327 0.930 . S
C337 C336 1.384 . S
C337 C338 1.389 . S
C338 C337 1.389 . S
C338 C339 1.405 . S
C339 H328 0.930 . S
C339 C338 1.405 . S
C339 C340 1.364 . S
C340 C339 1.364 . S
C340 C341 1.400 . S
C341 H329 0.931 . S
C341 C336 1.408 . S
C341 C340 1.400 . S
H342 C348 0.930 . S
H343 C351 0.931 . S
H344 C353 0.931 . S
H345 C355 0.930 . S
H346 C357 0.930 . S
H347 C359 0.931 . S
C348 H342 0.930 . S
C348 C349 1.380 . S
C348 C350 1.394 . S
C349 C348 1.380 . S
C349 C353 1.382 . S
C350 C348 1.394 . S
C350 C351 1.400 . S
C351 H343 0.931 . S
C351 C350 1.400 . S
C351 C352 1.375 . S
C352 C351 1.375 . S
C352 C353 1.415 . S
C352 C354 1.501 . S
C353 H344 0.931 . S
C353 C349 1.382 . S
C353 C352 1.415 . S
C354 C352 1.501 . S
C354 C355 1.384 . S
C354 C359 1.408 . S
C355 H345 0.930 . S
C355 C354 1.384 . S
C355 C356 1.389 . S
C356 C355 1.389 . S
C356 C357 1.405 . S
C357 H346 0.930 . S
C357 C356 1.405 . S
C357 C358 1.364 . S
C358 C357 1.364 . S
C358 C359 1.400 . S
C359 H347 0.931 . S
C359 C354 1.408 . S
C359 C358 1.400 . S
H360 C366 0.930 . S
H361 C369 0.931 . S
H362 C371 0.931 . S
H363 C373 0.930 . S
H364 C375 0.930 . S
H365 C377 0.931 . S
C366 H360 0.930 . S
C366 C367 1.380 . S
C366 C368 1.394 . S
C367 C366 1.380 . S
C367 C371 1.382 . S
C368 C366 1.394 . S
C368 C369 1.400 . S
C369 H361 0.931 . S
C369 C368 1.400 . S
C369 C370 1.375 . S
C370 C369 1.375 . S
C370 C371 1.415 . S
C370 C372 1.501 . S
C371 H362 0.931 . S
C371 C367 1.382 . S
C371 C370 1.415 . S
C372 C370 1.501 . S
C372 C373 1.384 . S
C372 C377 1.408 . S
C373 H363 0.930 . S
C373 C372 1.384 . S
C373 C374 1.389 . S
C374 C373 1.389 . S
C374 C375 1.405 . S
C375 H364 0.930 . S
C375 C374 1.405 . S
C375 C376 1.364 . S
C376 C375 1.364 . S
C376 C377 1.400 . S
C377 H365 0.931 . S
C377 C372 1.408 . S
C377 C376 1.400 . S
H378 C384 0.930 . S
H379 C387 0.931 . S
H380 C389 0.931 . S
H381 C391 0.930 . S
H382 C393 0.930 . S
H383 C395 0.931 . S
C384 H378 0.930 . S
C384 C385 1.380 . S
C384 C386 1.394 . S
C385 C384 1.380 . S
C385 C389 1.382 . S
C386 C384 1.394 . S
C386 C387 1.400 . S
C387 H379 0.931 . S
C387 C386 1.400 . S
C387 C388 1.375 . S
C388 C387 1.375 . S
C388 C389 1.415 . S
C388 C390 1.501 . S
C389 H380 0.931 . S
C389 C385 1.382 . S
C389 C388 1.415 . S
C390 C388 1.501 . S
C390 C391 1.384 . S
C390 C395 1.408 . S
C391 H381 0.930 . S
C391 C390 1.384 . S
C391 C392 1.389 . S
C392 C391 1.389 . S
C392 C393 1.405 . S
C393 H382 0.930 . S
C393 C392 1.405 . S
C393 C394 1.364 . S
C394 C393 1.364 . S
C394 C395 1.400 . S
C395 H383 0.931 . S
C395 C390 1.408 . S
C395 C394 1.400 . S
H396 C402 0.930 . S
H397 C405 0.931 . S
H398 C407 0.931 . S
H399 C409 0.930 . S
H400 C411 0.930 . S
H401 C413 0.931 . S
C402 H396 0.930 . S
C402 C403 1.380 . S
C402 C404 1.394 . S
C403 C402 1.380 . S
C403 C407 1.382 . S
C404 C402 1.394 . S
C404 C405 1.400 . S
C405 H397 0.931 . S
C405 C404 1.400 . S
C405 C406 1.375 . S
C406 C405 1.375 . S
C406 C407 1.415 . S
C406 C408 1.501 . S
C407 H398 0.931 . S
C407 C403 1.382 . S
C407 C406 1.415 . S
C408 C406 1.501 . S
C408 C409 1.384 . S
C408 C413 1.408 . S
C409 H399 0.930 . S
C409 C408 1.384 . S
C409 C410 1.389 . S
C410 C409 1.389 . S
C410 C411 1.405 . S
C411 H400 0.930 . S
C411 C410 1.405 . S
C411 C412 1.364 . S
C412 C411 1.364 . S
C412 C413 1.400 . S
C413 H401 0.931 . S
C413 C408 1.408 . S
C413 C412 1.400 . S
H414 C420 0.966 . S
H415 C423 0.931 . S
H416 C425 0.931 . S
H417 C427 0.930 . S
H418 C429 0.898 . S
H419 C431 0.938 1_655 S
C420 H414 0.966 . S
C420 C421 1.377 . S
C420 C422 1.393 1_655 S
C421 C420 1.377 . S
C421 C425 1.382 . S
C422 C420 1.393 1_455 S
C422 C423 1.400 . S
C423 H415 0.931 . S
C423 C422 1.400 . S
C423 C424 1.375 . S
C424 C423 1.375 . S
C424 C425 1.415 1_455 S
C424 C426 1.501 . S
C425 H416 0.931 . S
C425 C421 1.382 . S
C425 C424 1.415 1_655 S
C426 C424 1.501 . S
C426 C427 1.384 . S
C426 C431 1.415 . S
C427 H417 0.930 . S
C427 C426 1.384 . S
C427 C428 1.440 . S
C428 C427 1.440 . S
C428 C429 1.400 . S
C429 H418 0.898 . S
C429 C428 1.400 . S
C429 C430 1.382 . S
C430 C429 1.382 . S
C430 C431 1.388 . S
C431 H419 0.938 1_455 S
C431 C426 1.415 . S
C431 C430 1.388 . S
H432 C438 0.930 . S
H433 C441 0.931 . S
H434 C443 0.931 . S
H435 C445 0.930 . S
H436 C447 0.930 . S
H437 C449 0.931 . S
C438 H432 0.930 . S
C438 C439 1.380 . S
C438 C440 1.394 . S
C439 C438 1.380 . S
C439 C443 1.382 . S
C440 C438 1.394 . S
C440 C441 1.400 . S
C441 H433 0.931 . S
C441 C440 1.400 . S
C441 C442 1.375 . S
C442 C441 1.375 . S
C442 C443 1.415 . S
C442 C444 1.501 . S
C443 H434 0.931 . S
C443 C439 1.382 . S
C443 C442 1.415 . S
C444 C442 1.501 . S
C444 C445 1.384 . S
C444 C449 1.408 . S
C445 H435 0.930 . S
C445 C444 1.384 . S
C445 C446 1.389 . S
C446 C445 1.389 . S
C446 C447 1.405 . S
C447 H436 0.930 . S
C447 C446 1.405 . S
C447 C448 1.364 . S
C448 C447 1.364 . S
C448 C449 1.400 . S
C449 H437 0.931 . S
C449 C444 1.408 . S
C449 C448 1.400 . S
H450 C456 0.954 . S
H451 C459 0.931 . S
H452 C461 0.931 . S
H453 C463 0.930 . S
H454 C465 0.930 . S
H455 C467 0.916 . S
C456 H450 0.954 . S
C456 C457 1.375 . S
C456 C458 1.376 1_545 S
C457 C456 1.375 . S
C457 C461 1.382 . S
C458 C456 1.376 1_565 S
C458 C459 1.400 . S
C459 H451 0.931 . S
C459 C458 1.400 . S
C459 C460 1.375 . S
C460 C459 1.375 . S
C460 C461 1.415 1_565 S
C460 C462 1.501 . S
C461 H452 0.931 . S
C461 C457 1.382 . S
C461 C460 1.415 1_545 S
C462 C460 1.501 . S
C462 C463 1.384 . S
C462 C467 1.397 . S
C463 H453 0.930 . S
C463 C462 1.384 . S
C463 C464 1.389 . S
C464 C463 1.389 . S
C464 C465 1.405 . S
C465 H454 0.930 . S
C465 C464 1.405 . S
C465 C466 1.378 . S
C466 C465 1.378 . S
C466 C467 1.403 . S
C467 H455 0.916 . S
C467 C462 1.397 . S
C467 C466 1.403 . S
H468 C474 0.921 . S
H469 C477 0.931 . S
H470 C479 0.927 1_545 S
H471 C481 0.930 . S
H472 C483 0.948 . S
H473 C485 0.931 . S
C474 H468 0.921 . S
C474 C475 1.381 . S
C474 C476 1.417 1_545 S
C475 C474 1.381 . S
C475 C479 1.396 1_545 S
C476 C474 1.417 1_565 S
C476 C477 1.368 . S
C477 H469 0.931 . S
C477 C476 1.368 . S
C477 C478 1.375 . S
C478 C477 1.375 . S
C478 C479 1.413 . S
C478 C480 1.501 . S
C479 H470 0.927 1_565 S
C479 C475 1.396 1_565 S
C479 C478 1.413 . S
C480 C478 1.501 . S
C480 C481 1.384 . S
C480 C485 1.408 1_565 S
C481 H471 0.930 . S
C481 C480 1.384 . S
C481 C482 1.389 . S
C482 C481 1.389 . S
C482 C483 1.427 . S
C483 H472 0.948 . S
C483 C482 1.427 . S
C483 C484 1.371 1_565 S
C484 C483 1.371 1_545 S
C484 C485 1.400 . S
C485 H473 0.931 . S
C485 C480 1.408 1_545 S
C485 C484 1.400 . S
H486 C492 0.972 . S
H487 C495 0.931 . S
H488 C497 0.932 1_655 S
H489 C499 0.930 . S
H490 C501 0.930 . S
H491 C503 0.931 . S
C492 H486 0.972 . S
C492 C493 1.376 . S
C492 C494 1.367 1_655 S
C493 C492 1.376 . S
C493 C497 1.357 1_655 S
C494 C492 1.367 1_455 S
C494 C495 1.416 . S
C495 H487 0.931 . S
C495 C494 1.416 . S
C495 C496 1.375 . S
C496 C495 1.375 . S
C496 C497 1.413 . S
C496 C498 1.501 . S
C497 H488 0.932 1_455 S
C497 C493 1.357 1_455 S
C497 C496 1.413 . S
C498 C496 1.501 . S
C498 C499 1.384 . S
C498 C503 1.408 1_455 S
C499 H489 0.930 . S
C499 C498 1.384 . S
C499 C500 1.389 . S
C500 C499 1.389 . S
C500 C501 1.405 . S
C501 H490 0.930 . S
C501 C500 1.405 . S
C501 C502 1.364 1_455 S
C502 C501 1.364 1_655 S
C502 C503 1.400 . S
C503 H491 0.931 . S
C503 C498 1.408 1_655 S
C503 C502 1.400 . S
H504 C510 0.930 . S
H505 C513 0.931 . S
H506 C515 0.931 . S
H507 C517 0.930 . S
H508 C519 0.930 . S
H509 C521 0.931 . S
C510 H504 0.930 . S
C510 C511 1.380 . S
C510 C512 1.394 . S
C511 C510 1.380 . S
C511 C515 1.382 . S
C512 C510 1.394 . S
C512 C513 1.400 . S
C513 H505 0.931 . S
C513 C512 1.400 . S
C513 C514 1.375 . S
C514 C513 1.375 . S
C514 C515 1.415 . S
C514 C516 1.501 . S
C515 H506 0.931 . S
C515 C511 1.382 . S
C515 C514 1.415 . S
C516 C514 1.501 . S
C516 C517 1.384 . S
C516 C521 1.408 . S
C517 H507 0.930 . S
C517 C516 1.384 . S
C517 C518 1.389 . S
C518 C517 1.389 . S
C518 C519 1.405 . S
C519 H508 0.930 . S
C519 C518 1.405 . S
C519 C520 1.364 . S
C520 C519 1.364 . S
C520 C521 1.400 . S
C521 H509 0.931 . S
C521 C516 1.408 . S
C521 C520 1.400 . S
H522 C528 0.930 . S
H523 C531 0.931 . S
H524 C533 0.931 . S
H525 C535 0.930 . S
H526 C537 0.930 . S
H527 C539 0.931 . S
C528 H522 0.930 . S
C528 C529 1.380 . S
C528 C530 1.394 . S
C529 C528 1.380 . S
C529 C533 1.382 . S
C530 C528 1.394 . S
C530 C531 1.400 . S
C531 H523 0.931 . S
C531 C530 1.400 . S
C531 C532 1.375 . S
C532 C531 1.375 . S
C532 C533 1.415 . S
C532 C534 1.501 . S
C533 H524 0.931 . S
C533 C529 1.382 . S
C533 C532 1.415 . S
C534 C532 1.501 . S
C534 C535 1.384 . S
C534 C539 1.408 . S
C535 H525 0.930 . S
C535 C534 1.384 . S
C535 C536 1.389 . S
C536 C535 1.389 . S
C536 C537 1.405 . S
C537 H526 0.930 . S
C537 C536 1.405 . S
C537 C538 1.364 . S
C538 C537 1.364 . S
C538 C539 1.400 . S
C539 H527 0.931 . S
C539 C534 1.408 . S
C539 C538 1.400 . S
H540 C546 0.930 . S
H541 C549 0.931 . S
H542 C551 0.931 . S
H543 C553 0.930 . S
H544 C555 0.930 . S
H545 C557 0.931 . S
C546 H540 0.930 . S
C546 C547 1.380 . S
C546 C548 1.394 . S
C547 C546 1.380 . S
C547 C551 1.382 . S
C548 C546 1.394 . S
C548 C549 1.400 . S
C549 H541 0.931 . S
C549 C548 1.400 . S
C549 C550 1.375 . S
C550 C549 1.375 . S
C550 C551 1.415 . S
C550 C552 1.501 . S
C551 H542 0.931 . S
C551 C547 1.382 . S
C551 C550 1.415 . S
C552 C550 1.501 . S
C552 C553 1.384 . S
C552 C557 1.408 . S
C553 H543 0.930 . S
C553 C552 1.384 . S
C553 C554 1.389 . S
C554 C553 1.389 . S
C554 C555 1.405 . S
C555 H544 0.930 . S
C555 C554 1.405 . S
C555 C556 1.364 . S
C556 C555 1.364 . S
C556 C557 1.400 . S
C557 H545 0.931 . S
C557 C552 1.408 . S
C557 C556 1.400 . S
H558 C564 0.930 . S
H559 C567 0.931 . S
H560 C569 0.931 . S
H561 C571 0.930 . S
H562 C573 0.930 . S
H563 C575 0.931 . S
C564 H558 0.930 . S
C564 C565 1.380 . S
C564 C566 1.394 . S
C565 C564 1.380 . S
C565 C569 1.382 . S
C566 C564 1.394 . S
C566 C567 1.400 . S
C567 H559 0.931 . S
C567 C566 1.400 . S
C567 C568 1.375 . S
C568 C567 1.375 . S
C568 C569 1.415 . S
C568 C570 1.501 . S
C569 H560 0.931 . S
C569 C565 1.382 . S
C569 C568 1.415 . S
C570 C568 1.501 . S
C570 C571 1.384 . S
C570 C575 1.408 . S
C571 H561 0.930 . S
C571 C570 1.384 . S
C571 C572 1.389 . S
C572 C571 1.389 . S
C572 C573 1.405 . S
C573 H562 0.930 . S
C573 C572 1.405 . S
C573 C574 1.364 . S
C574 C573 1.364 . S
C574 C575 1.400 . S
C575 H563 0.931 . S
C575 C570 1.408 . S
C575 C574 1.400 . S
H576 C594 0.951 . S
H577 C596 0.951 . S
H578 C598 0.950 . S
H579 C599 0.950 . S
H580 C601 0.950 . S
H581 C604 0.950 . S
H582 C605 0.950 . S
H583 C607 0.950 . S
H584 C608 0.950 . S
H585 C609 0.951 . S
H586 C611 0.951 . S
H587 C613 0.950 . S
H588 C614 0.949 1_455 S
H589 C616 0.950 . S
H590 C619 0.950 . S
H591 C620 0.950 . S
H592 C622 0.950 . S
H593 C623 0.950 . S
C594 H576 0.951 . S
C594 C595 1.366 1_455 S
C594 C596 1.388 . S
C595 C594 1.366 1_655 S
C595 C599 1.385 . S
C596 H577 0.951 . S
C596 C594 1.388 . S
C596 C597 1.361 1_455 S
C597 C596 1.361 1_655 S
C597 C598 1.395 . S
C597 C600 1.528 . S
C598 H578 0.950 . S
C598 C597 1.395 . S
C598 C599 1.374 . S
C599 H579 0.950 . S
C599 C595 1.385 . S
C599 C598 1.374 . S
C600 C597 1.528 . S
C600 C601 1.373 . S
C600 C602 1.389 1_655 S
C601 H580 0.950 . S
C601 C600 1.373 . S
C601 C617 1.377 . S
C602 C600 1.389 1_455 S
C602 C603 1.524 . S
C602 C616 1.377 . S
C603 C602 1.524 . S
C603 C604 1.397 . S
C603 C608 1.363 . S
C604 H581 0.950 . S
C604 C603 1.397 . S
C604 C605 1.334 . S
C605 H582 0.950 . S
C605 C604 1.334 . S
C605 C606 1.287 . S
C606 C605 1.287 . S
C606 C607 1.524 . S
C606 H625 0.913 . S
C607 H583 0.950 . S
C607 C606 1.524 . S
C607 C608 1.415 . S
C608 H584 0.950 . S
C608 C603 1.363 . S
C608 C607 1.415 . S
C609 H585 0.951 . S
C609 C610 1.366 . S
C609 C611 1.388 . S
C610 C609 1.366 . S
C610 C614 1.384 . S
C611 H586 0.951 . S
C611 C609 1.388 . S
C611 C612 1.366 . S
C612 C611 1.366 . S
C612 C613 1.412 1_655 S
C612 C615 1.499 . S
C613 H587 0.950 . S
C613 C612 1.412 1_455 S
C613 C614 1.378 1_455 S
C614 H588 0.949 1_655 S
C614 C610 1.384 . S
C614 C613 1.378 1_655 S
C615 C612 1.499 . S
C615 C616 1.373 1_655 S
C615 C617 1.389 . S
C616 H589 0.950 . S
C616 C602 1.377 . S
C616 C615 1.373 1_455 S
C617 C601 1.377 . S
C617 C615 1.389 . S
C617 C618 1.524 . S
C618 C617 1.524 . S
C618 C619 1.397 . S
C618 C623 1.363 . S
C619 H590 0.950 . S
C619 C618 1.397 . S
C619 C620 1.334 . S
C620 H591 0.950 . S
C620 C619 1.334 . S
C620 C621 1.287 . S
C621 C620 1.287 . S
C621 C622 1.524 . S
C621 H624 0.999 . S
C622 H592 0.950 . S
C622 C621 1.524 . S
C622 C623 1.415 . S
C623 H593 0.950 . S
C623 C618 1.363 . S
C623 C622 1.415 . S
H624 C621 0.999 . S
H625 C606 0.913 . S
H626 C644 0.951 . S
H627 C646 0.951 . S
H628 C648 0.950 . S
H629 C649 0.950 . S
H630 C651 0.950 . S
H631 C654 0.950 . S
H632 C655 0.950 . S
H633 C657 0.950 . S
H634 C658 0.950 . S
H635 C659 0.951 . S
H636 C661 0.951 . S
H637 C663 0.950 . S
H638 C664 0.950 . S
H639 C666 0.950 . S
H640 C669 0.950 . S
H641 C670 0.950 . S
H642 C672 0.950 . S
H643 C673 0.950 . S
C644 H626 0.951 . S
C644 C645 1.366 . S
C644 C646 1.388 . S
C645 C644 1.366 . S
C645 C649 1.385 . S
C646 H627 0.951 . S
C646 C644 1.388 . S
C646 C647 1.366 . S
C647 C646 1.366 . S
C647 C648 1.414 . S
C647 C650 1.499 . S
C648 H628 0.950 . S
C648 C647 1.414 . S
C648 C649 1.374 . S
C649 H629 0.950 . S
C649 C645 1.385 . S
C649 C648 1.374 . S
C650 C647 1.499 . S
C650 C651 1.373 . S
C650 C652 1.389 . S
C651 H630 0.950 . S
C651 C650 1.373 . S
C651 C667 1.377 . S
C652 C650 1.389 . S
C652 C653 1.524 . S
C652 C666 1.377 . S
C653 C652 1.524 . S
C653 C654 1.397 . S
C653 C658 1.363 . S
C654 H631 0.950 . S
C654 C653 1.397 . S
C654 C655 1.334 . S
C655 H632 0.950 . S
C655 C654 1.334 . S
C655 C656 1.287 . S
C656 C655 1.287 . S
C656 C657 1.524 . S
C656 H675 0.913 . S
C657 H633 0.950 . S
C657 C656 1.524 . S
C657 C658 1.415 . S
C658 H634 0.950 . S
C658 C653 1.363 . S
C658 C657 1.415 . S
C659 H635 0.951 . S
C659 C660 1.366 . S
C659 C661 1.388 . S
C660 C659 1.366 . S
C660 C664 1.385 . S
C661 H636 0.951 . S
C661 C659 1.388 . S
C661 C662 1.366 . S
C662 C661 1.366 . S
C662 C663 1.414 . S
C662 C665 1.499 . S
C663 H637 0.950 . S
C663 C662 1.414 . S
C663 C664 1.374 . S
C664 H638 0.950 . S
C664 C660 1.385 . S
C664 C663 1.374 . S
C665 C662 1.499 . S
C665 C666 1.373 . S
C665 C667 1.389 . S
C666 H639 0.950 . S
C666 C652 1.377 . S
C666 C665 1.373 . S
C667 C651 1.377 . S
C667 C665 1.389 . S
C667 C668 1.524 . S
C668 C667 1.524 . S
C668 C669 1.397 . S
C668 C673 1.363 . S
C669 H640 0.950 . S
C669 C668 1.397 . S
C669 C670 1.334 . S
C670 H641 0.950 . S
C670 C669 1.334 . S
C670 C671 1.287 . S
C671 C670 1.287 . S
C671 C672 1.524 . S
C671 H674 0.999 . S
C672 H642 0.950 . S
C672 C671 1.524 . S
C672 C673 1.415 . S
C673 H643 0.950 . S
C673 C668 1.363 . S
C673 C672 1.415 . S
H674 C671 0.999 . S
H675 C656 0.913 . S
H676 C694 0.951 . S
H677 C696 0.951 . S
H678 C698 0.950 . S
H679 C699 0.950 . S
H680 C701 0.950 . S
H681 C704 0.950 . S
H682 C705 0.950 . S
H683 C707 0.950 . S
H684 C708 0.950 . S
H685 C709 0.951 . S
H686 C711 0.951 . S
H687 C713 0.950 . S
H688 C714 0.950 . S
H689 C716 0.950 . S
H690 C719 0.950 . S
H691 C720 0.950 . S
H692 C722 0.950 . S
H693 C723 0.950 . S
C694 H676 0.951 . S
C694 C695 1.366 . S
C694 C696 1.388 . S
C695 C694 1.366 . S
C695 C699 1.385 . S
C696 H677 0.951 . S
C696 C694 1.388 . S
C696 C697 1.366 . S
C697 C696 1.366 . S
C697 C698 1.414 . S
C697 C700 1.499 . S
C698 H678 0.950 . S
C698 C697 1.414 . S
C698 C699 1.374 . S
C699 H679 0.950 . S
C699 C695 1.385 . S
C699 C698 1.374 . S
C700 C697 1.499 . S
C700 C701 1.373 1_545 S
C700 C702 1.389 . S
C701 H680 0.950 . S
C701 C700 1.373 1_565 S
C701 C717 1.377 . S
C702 C700 1.389 . S
C702 C703 1.524 . S
C702 C716 1.377 . S
C703 C702 1.524 . S
C703 C704 1.397 . S
C703 C708 1.363 . S
C704 H681 0.950 . S
C704 C703 1.397 . S
C704 C705 1.334 . S
C705 H682 0.950 . S
C705 C704 1.334 . S
C705 C706 1.287 . S
C706 C705 1.287 . S
C706 C707 1.524 . S
C706 H725 0.913 . S
C707 H683 0.950 . S
C707 C706 1.524 . S
C707 C708 1.415 . S
C708 H684 0.950 . S
C708 C703 1.363 . S
C708 C707 1.415 . S
C709 H685 0.951 . S
C709 C710 1.366 . S
C709 C711 1.388 . S
C710 C709 1.366 . S
C710 C714 1.385 . S
C711 H686 0.951 . S
C711 C709 1.388 . S
C711 C712 1.366 . S
C712 C711 1.366 . S
C712 C713 1.414 . S
C712 C715 1.499 . S
C713 H687 0.950 . S
C713 C712 1.414 . S
C713 C714 1.374 . S
C714 H688 0.950 . S
C714 C710 1.385 . S
C714 C713 1.374 . S
C715 C712 1.499 . S
C715 C716 1.373 . S
C715 C717 1.389 1_545 S
C716 H689 0.950 . S
C716 C702 1.377 . S
C716 C715 1.373 . S
C717 C701 1.377 . S
C717 C715 1.389 1_565 S
C717 C718 1.524 . S
C718 C717 1.524 . S
C718 C719 1.397 . S
C718 C723 1.363 . S
C719 H690 0.950 . S
C719 C718 1.397 . S
C719 C720 1.334 . S
C720 H691 0.950 . S
C720 C719 1.334 . S
C720 C721 1.287 . S
C721 C720 1.287 . S
C721 C722 1.524 . S
C721 H724 0.999 . S
C722 H692 0.950 . S
C722 C721 1.524 . S
C722 C723 1.415 . S
C723 H693 0.950 . S
C723 C718 1.363 . S
C723 C722 1.415 . S
H724 C721 0.999 . S
H725 C706 0.913 . S
H726 C744 0.951 . S
H727 C746 0.951 . S
H728 C748 0.950 . S
H729 C749 0.950 . S
H730 C751 0.950 . S
H731 C754 0.950 . S
H732 C755 0.950 . S
H733 C757 0.950 . S
H734 C758 0.950 . S
H735 C759 0.951 . S
H736 C761 0.951 . S
H737 C763 0.950 . S
H738 C764 0.950 . S
H739 C766 0.950 . S
H740 C769 0.950 . S
H741 C770 0.950 . S
H742 C772 0.950 . S
H743 C773 0.950 . S
C744 H726 0.951 . S
C744 C745 1.366 . S
C744 C746 1.388 . S
C745 C744 1.366 . S
C745 C749 1.385 1_545 S
C746 H727 0.951 . S
C746 C744 1.388 . S
C746 C747 1.381 . S
C747 C746 1.381 . S
C747 C748 1.431 1_545 S
C747 C750 1.472 . S
C748 H728 0.950 . S
C748 C747 1.431 1_565 S
C748 C749 1.374 . S
C749 H729 0.950 . S
C749 C745 1.385 1_565 S
C749 C748 1.374 . S
C750 C747 1.472 . S
C750 C751 1.368 1_545 S
C750 C752 1.391 . S
C751 H730 0.950 . S
C751 C750 1.368 1_565 S
C751 C767 1.377 . S
C752 C750 1.391 . S
C752 C753 1.524 . S
C752 C766 1.377 . S
C753 C752 1.524 . S
C753 C754 1.397 . S
C753 C758 1.363 . S
C754 H731 0.950 . S
C754 C753 1.397 . S
C754 C755 1.334 . S
C755 H732 0.950 . S
C755 C754 1.334 . S
C755 C756 1.287 . S
C756 C755 1.287 . S
C756 C757 1.524 . S
C756 H775 0.913 . S
C757 H733 0.950 . S
C757 C756 1.524 . S
C757 C758 1.415 . S
C758 H734 0.950 . S
C758 C753 1.363 . S
C758 C757 1.415 . S
C759 H735 0.951 . S
C759 C760 1.366 . S
C759 C761 1.388 . S
C760 C759 1.366 . S
C760 C764 1.385 1_565 S
C761 H736 0.951 . S
C761 C759 1.388 . S
C761 C762 1.366 . S
C762 C761 1.366 . S
C762 C763 1.414 1_565 S
C762 C765 1.499 . S
C763 H737 0.950 . S
C763 C762 1.414 1_545 S
C763 C764 1.374 . S
C764 H738 0.950 . S
C764 C760 1.385 1_545 S
C764 C763 1.374 . S
C765 C762 1.499 . S
C765 C766 1.373 1_565 S
C765 C767 1.389 . S
C766 H739 0.950 . S
C766 C752 1.377 . S
C766 C765 1.373 1_545 S
C767 C751 1.377 . S
C767 C765 1.389 . S
C767 C768 1.524 . S
C768 C767 1.524 . S
C768 C769 1.397 . S
C768 C773 1.363 . S
C769 H740 0.950 . S
C769 C768 1.397 . S
C769 C770 1.334 . S
C770 H741 0.950 . S
C770 C769 1.334 . S
C770 C771 1.287 . S
C771 C770 1.287 . S
C771 C772 1.524 . S
C771 H774 0.999 . S
C772 H742 0.950 . S
C772 C771 1.524 . S
C772 C773 1.415 . S
C773 H743 0.950 . S
C773 C768 1.363 . S
C773 C772 1.415 . S
H774 C771 0.999 . S
H775 C756 0.913 . S
H776 C794 0.951 . S
H777 C796 0.951 . S
H778 C798 0.950 . S
H779 C799 0.950 . S
H780 C801 0.950 . S
H781 C804 0.950 . S
H782 C805 0.950 . S
H783 C807 0.950 . S
H784 C808 0.950 . S
H785 C809 0.951 . S
H786 C811 0.951 . S
H787 C813 0.950 . S
H788 C814 0.950 . S
H789 C816 0.950 . S
H790 C819 0.950 . S
H791 C820 0.950 . S
H792 C822 0.950 . S
H793 C823 0.950 . S
C794 H776 0.951 . S
C794 C795 1.366 . S
C794 C796 1.388 . S
C795 C794 1.366 . S
C795 C799 1.385 1_455 S
C796 H777 0.951 . S
C796 C794 1.388 . S
C796 C797 1.366 . S
C797 C796 1.366 . S
C797 C798 1.414 1_455 S
C797 C800 1.499 . S
C798 H778 0.950 . S
C798 C797 1.414 1_655 S
C798 C799 1.374 . S
C799 H779 0.950 . S
C799 C795 1.385 1_655 S
C799 C798 1.374 . S
C800 C797 1.499 . S
C800 C801 1.373 1_455 S
C800 C802 1.389 . S
C801 H780 0.950 . S
C801 C800 1.373 1_655 S
C801 C817 1.377 . S
C802 C800 1.389 . S
C802 C803 1.524 . S
C802 C816 1.377 . S
C803 C802 1.524 . S
C803 C804 1.397 . S
C803 C808 1.363 . S
C804 H781 0.950 . S
C804 C803 1.397 . S
C804 C805 1.334 . S
C805 H782 0.950 . S
C805 C804 1.334 . S
C805 C806 1.287 . S
C806 C805 1.287 . S
C806 C807 1.524 . S
C806 H825 0.913 . S
C807 H783 0.950 . S
C807 C806 1.524 . S
C807 C808 1.415 . S
C808 H784 0.950 . S
C808 C803 1.363 . S
C808 C807 1.415 . S
C809 H785 0.951 . S
C809 C810 1.366 1_655 S
C809 C811 1.388 . S
C810 C809 1.366 1_455 S
C810 C814 1.385 . S
C811 H786 0.951 . S
C811 C809 1.388 . S
C811 C812 1.366 1_655 S
C812 C811 1.366 1_455 S
C812 C813 1.414 . S
C812 C815 1.499 . S
C813 H787 0.950 . S
C813 C812 1.414 . S
C813 C814 1.374 . S
C814 H788 0.950 . S
C814 C810 1.385 . S
C814 C813 1.374 . S
C815 C812 1.499 . S
C815 C816 1.373 . S
C815 C817 1.389 1_455 S
C816 H789 0.950 . S
C816 C802 1.377 . S
C816 C815 1.373 . S
C817 C801 1.377 . S
C817 C815 1.389 1_655 S
C817 C818 1.524 . S
C818 C817 1.524 . S
C818 C819 1.397 . S
C818 C823 1.363 . S
C819 H790 0.950 . S
C819 C818 1.397 . S
C819 C820 1.334 . S
C820 H791 0.950 . S
C820 C819 1.334 . S
C820 C821 1.287 . S
C821 C820 1.287 . S
C821 C822 1.524 . S
C821 H824 0.999 . S
C822 H792 0.950 . S
C822 C821 1.524 . S
C822 C823 1.415 . S
C823 H793 0.950 . S
C823 C818 1.363 . S
C823 C822 1.415 . S
H824 C821 0.999 . S
H825 C806 0.913 . S
H826 C844 0.951 . S
H827 C846 0.951 . S
H828 C848 0.950 . S
H829 C849 0.950 . S
H830 C851 0.950 . S
H831 C854 0.950 . S
H832 C855 0.950 . S
H833 C857 0.950 . S
H834 C858 0.950 . S
H835 C859 0.951 . S
H836 C861 0.951 . S
H837 C863 0.950 . S
H838 C864 0.950 . S
H839 C866 0.950 . S
H840 C869 0.950 . S
H841 C870 0.950 . S
H842 C872 0.950 . S
H843 C873 0.950 . S
C844 H826 0.951 . S
C844 C845 1.366 . S
C844 C846 1.388 . S
C845 C844 1.366 . S
C845 C849 1.385 . S
C846 H827 0.951 . S
C846 C844 1.388 . S
C846 C847 1.366 . S
C847 C846 1.366 . S
C847 C848 1.414 . S
C847 C850 1.499 . S
C848 H828 0.950 . S
C848 C847 1.414 . S
C848 C849 1.374 . S
C849 H829 0.950 . S
C849 C845 1.385 . S
C849 C848 1.374 . S
C850 C847 1.499 . S
C850 C851 1.373 . S
C850 C852 1.389 . S
C851 H830 0.950 . S
C851 C850 1.373 . S
C851 C867 1.377 . S
C852 C850 1.389 . S
C852 C853 1.524 . S
C852 C866 1.377 . S
C853 C852 1.524 . S
C853 C854 1.397 . S
C853 C858 1.363 . S
C854 H831 0.950 . S
C854 C853 1.397 . S
C854 C855 1.334 . S
C855 H832 0.950 . S
C855 C854 1.334 . S
C855 C856 1.287 . S
C856 C855 1.287 . S
C856 C857 1.524 . S
C856 H875 0.913 . S
C857 H833 0.950 . S
C857 C856 1.524 . S
C857 C858 1.415 . S
C858 H834 0.950 . S
C858 C853 1.363 . S
C858 C857 1.415 . S
C859 H835 0.951 . S
C859 C860 1.366 . S
C859 C861 1.388 . S
C860 C859 1.366 . S
C860 C864 1.385 . S
C861 H836 0.951 . S
C861 C859 1.388 . S
C861 C862 1.366 . S
C862 C861 1.366 . S
C862 C863 1.414 . S
C862 C865 1.499 . S
C863 H837 0.950 . S
C863 C862 1.414 . S
C863 C864 1.374 . S
C864 H838 0.950 . S
C864 C860 1.385 . S
C864 C863 1.374 . S
C865 C862 1.499 . S
C865 C866 1.373 . S
C865 C867 1.389 . S
C866 H839 0.950 . S
C866 C852 1.377 . S
C866 C865 1.373 . S
C867 C851 1.377 . S
C867 C865 1.389 . S
C867 C868 1.524 . S
C868 C867 1.524 . S
C868 C869 1.397 . S
C868 C873 1.363 . S
C869 H840 0.950 . S
C869 C868 1.397 . S
C869 C870 1.334 . S
C870 H841 0.950 . S
C870 C869 1.334 . S
C870 C871 1.287 . S
C871 C870 1.287 . S
C871 C872 1.524 . S
C871 H874 0.999 . S
C872 H842 0.950 . S
C872 C871 1.524 . S
C872 C873 1.415 . S
C873 H843 0.950 . S
C873 C868 1.363 . S
C873 C872 1.415 . S
H874 C871 0.999 . S
H875 C856 0.913 . S
H876 C894 0.951 . S
H877 C896 0.951 . S
H878 C898 0.950 . S
H879 C899 0.950 . S
H880 C901 0.950 . S
H881 C904 0.950 1_455 S
H882 C905 0.950 . S
H883 C907 0.950 . S
H884 C908 0.950 . S
H885 C909 0.951 . S
H886 C911 0.951 . S
H887 C913 0.950 . S
H888 C914 0.950 . S
H889 C916 0.950 . S
H890 C919 0.950 1_655 S
H891 C920 0.950 . S
H892 C922 0.950 . S
H893 C923 0.950 . S
C894 H876 0.951 . S
C894 C895 1.366 1_655 S
C894 C896 1.388 . S
C895 C894 1.366 1_455 S
C895 C899 1.385 . S
C896 H877 0.951 . S
C896 C894 1.388 . S
C896 C897 1.366 1_655 S
C897 C896 1.366 1_455 S
C897 C898 1.414 . S
C897 C900 1.499 . S
C898 H878 0.950 . S
C898 C897 1.414 . S
C898 C899 1.374 . S
C899 H879 0.950 . S
C899 C895 1.385 . S
C899 C898 1.374 . S
C900 C897 1.499 . S
C900 C901 1.373 . S
C900 C902 1.389 1_455 S
C901 H880 0.950 . S
C901 C900 1.373 . S
C901 C917 1.377 . S
C902 C900 1.389 1_655 S
C902 C903 1.524 . S
C902 C916 1.377 . S
C903 C902 1.524 . S
C903 C904 1.397 . S
C903 C908 1.363 . S
C904 H881 0.950 1_655 S
C904 C903 1.397 . S
C904 C905 1.334 . S
C905 H882 0.950 . S
C905 C904 1.334 . S
C905 C906 1.287 . S
C906 C905 1.287 . S
C906 C907 1.524 . S
C906 H925 0.913 . S
C907 H883 0.950 . S
C907 C906 1.524 . S
C907 C908 1.415 . S
C908 H884 0.950 . S
C908 C903 1.363 . S
C908 C907 1.415 . S
C909 H885 0.951 . S
C909 C910 1.343 1_455 S
C909 C911 1.388 . S
C910 C909 1.343 1_655 S
C910 C914 1.425 . S
C911 H886 0.951 . S
C911 C909 1.388 . S
C911 C912 1.358 . S
C912 C911 1.358 . S
C912 C913 1.418 1_455 S
C912 C915 1.501 1_455 S
C913 H887 0.950 . S
C913 C912 1.418 1_655 S
C913 C914 1.374 . S
C914 H888 0.950 . S
C914 C910 1.425 . S
C914 C913 1.374 . S
C915 C912 1.501 1_655 S
C915 C916 1.375 . S
C915 C917 1.389 1_655 S
C916 H889 0.950 . S
C916 C902 1.377 . S
C916 C915 1.375 . S
C917 C901 1.377 . S
C917 C915 1.389 1_455 S
C917 C918 1.524 . S
C918 C917 1.524 . S
C918 C919 1.397 . S
C918 C923 1.363 . S
C919 H890 0.950 1_455 S
C919 C918 1.397 . S
C919 C920 1.334 . S
C920 H891 0.950 . S
C920 C919 1.334 . S
C920 C921 1.287 . S
C921 C920 1.287 . S
C921 C922 1.524 . S
C921 H924 0.999 . S
C922 H892 0.950 . S
C922 C921 1.524 . S
C922 C923 1.415 . S
C923 H893 0.950 . S
C923 C918 1.363 . S
C923 C922 1.415 . S
H924 C921 0.999 . S
H925 C906 0.913 . S
H926 C944 0.951 . S
H927 C946 0.951 . S
H928 C948 0.950 . S
H929 C949 0.950 . S
H930 C951 0.950 . S
H931 C954 0.950 . S
H932 C955 0.950 . S
H933 C957 0.950 . S
H934 C958 0.950 . S
H935 C959 0.951 . S
H936 C961 0.951 . S
H937 C963 0.950 . S
H938 C964 0.950 . S
H939 C966 0.950 . S
H940 C969 0.950 . S
H941 C970 0.950 . S
H942 C972 0.950 . S
H943 C973 0.950 . S
C944 H926 0.951 . S
C944 C945 1.366 . S
C944 C946 1.388 . S
C945 C944 1.366 . S
C945 C949 1.385 . S
C946 H927 0.951 . S
C946 C944 1.388 . S
C946 C947 1.366 . S
C947 C946 1.366 . S
C947 C948 1.414 . S
C947 C950 1.499 . S
C948 H928 0.950 . S
C948 C947 1.414 . S
C948 C949 1.374 . S
C949 H929 0.950 . S
C949 C945 1.385 . S
C949 C948 1.374 . S
C950 C947 1.499 . S
C950 C951 1.373 . S
C950 C952 1.389 . S
C951 H930 0.950 . S
C951 C950 1.373 . S
C951 C967 1.377 . S
C952 C950 1.389 . S
C952 C953 1.524 . S
C952 C966 1.377 . S
C953 C952 1.524 . S
C953 C954 1.397 . S
C953 C958 1.363 . S
C954 H931 0.950 . S
C954 C953 1.397 . S
C954 C955 1.334 . S
C955 H932 0.950 . S
C955 C954 1.334 . S
C955 C956 1.287 . S
C956 C955 1.287 . S
C956 C957 1.524 . S
C956 H975 0.913 . S
C957 H933 0.950 . S
C957 C956 1.524 . S
C957 C958 1.415 . S
C958 H934 0.950 . S
C958 C953 1.363 . S
C958 C957 1.415 . S
C959 H935 0.951 . S
C959 C960 1.366 . S
C959 C961 1.388 . S
C960 C959 1.366 . S
C960 C964 1.385 . S
C961 H936 0.951 . S
C961 C959 1.388 . S
C961 C962 1.366 . S
C962 C961 1.366 . S
C962 C963 1.414 . S
C962 C965 1.499 . S
C963 H937 0.950 . S
C963 C962 1.414 . S
C963 C964 1.374 . S
C964 H938 0.950 . S
C964 C960 1.385 . S
C964 C963 1.374 . S
C965 C962 1.499 . S
C965 C966 1.373 . S
C965 C967 1.389 . S
C966 H939 0.950 . S
C966 C952 1.377 . S
C966 C965 1.373 . S
C967 C951 1.377 . S
C967 C965 1.389 . S
C967 C968 1.524 . S
C968 C967 1.524 . S
C968 C969 1.397 . S
C968 C973 1.363 . S
C969 H940 0.950 . S
C969 C968 1.397 . S
C969 C970 1.334 . S
C970 H941 0.950 . S
C970 C969 1.334 . S
C970 C971 1.287 . S
C971 C970 1.287 . S
C971 C972 1.524 . S
C971 H974 0.999 . S
C972 H942 0.950 . S
C972 C971 1.524 . S
C972 C973 1.415 . S
C973 H943 0.950 . S
C973 C968 1.363 . S
C973 C972 1.415 . S
H974 C971 0.999 . S
H975 C956 0.913 . S
H976 C994 0.951 . S
H977 C996 0.951 . S
H978 C998 0.950 . S
H979 C999 0.950 . S
H980 C1001 0.950 . S
H981 C1004 0.950 . S
H982 C1005 0.950 . S
H983 C1007 0.950 . S
H984 C1008 0.950 . S
H985 C1009 0.951 . S
H986 C1011 0.951 . S
H987 C1013 0.950 . S
H988 C1014 0.950 . S
H989 C1016 0.950 . S
H990 C1019 0.950 . S
H991 C1020 0.950 . S
H992 C1022 0.950 . S
H993 C1023 0.950 . S
C994 H976 0.951 . S
C994 C995 1.366 . S
C994 C996 1.388 . S
C995 C994 1.366 . S
C995 C999 1.385 1_565 S
C996 H977 0.951 . S
C996 C994 1.388 . S
C996 C997 1.366 . S
C997 C996 1.366 . S
C997 C998 1.414 1_565 S
C997 C1000 1.499 . S
C998 H978 0.950 . S
C998 C997 1.414 1_545 S
C998 C999 1.374 . S
C999 H979 0.950 . S
C999 C995 1.385 1_545 S
C999 C998 1.374 . S
C1000 C997 1.499 . S
C1000 C1001 1.373 1_565 S
C1000 C1002 1.389 . S
C1001 H980 0.950 . S
C1001 C1000 1.373 1_545 S
C1001 C1017 1.377 . S
C1002 C1000 1.389 . S
C1002 C1003 1.524 . S
C1002 C1016 1.377 . S
C1003 C1002 1.524 . S
C1003 C1004 1.397 . S
C1003 C1008 1.363 . S
C1004 H981 0.950 . S
C1004 C1003 1.397 . S
C1004 C1005 1.334 . S
C1005 H982 0.950 . S
C1005 C1004 1.334 . S
C1005 C1006 1.287 . S
C1006 C1005 1.287 . S
C1006 C1007 1.524 . S
C1006 H1025 0.913 . S
C1007 H983 0.950 . S
C1007 C1006 1.524 . S
C1007 C1008 1.415 . S
C1008 H984 0.950 . S
C1008 C1003 1.363 . S
C1008 C1007 1.415 . S
C1009 H985 0.951 . S
C1009 C1010 1.361 . S
C1009 C1011 1.388 . S
C1010 C1009 1.361 . S
C1010 C1014 1.378 1_545 S
C1011 H986 0.951 . S
C1011 C1009 1.388 . S
C1011 C1012 1.383 . S
C1012 C1011 1.383 . S
C1012 C1013 1.426 1_545 S
C1012 C1015 1.485 . S
C1013 H987 0.950 . S
C1013 C1012 1.426 1_565 S
C1013 C1014 1.374 . S
C1014 H988 0.950 . S
C1014 C1010 1.378 1_565 S
C1014 C1013 1.374 . S
C1015 C1012 1.485 . S
C1015 C1016 1.343 1_545 S
C1015 C1017 1.402 . S
C1016 H989 0.950 . S
C1016 C1002 1.377 . S
C1016 C1015 1.343 1_565 S
C1017 C1001 1.377 . S
C1017 C1015 1.402 . S
C1017 C1018 1.524 . S
C1018 C1017 1.524 . S
C1018 C1019 1.397 . S
C1018 C1023 1.363 . S
C1019 H990 0.950 . S
C1019 C1018 1.397 . S
C1019 C1020 1.334 . S
C1020 H991 0.950 . S
C1020 C1019 1.334 . S
C1020 C1021 1.287 . S
C1021 C1020 1.287 . S
C1021 C1022 1.524 . S
C1021 H1024 0.999 . S
C1022 H992 0.950 . S
C1022 C1021 1.524 . S
C1022 C1023 1.415 . S
C1023 H993 0.950 . S
C1023 C1018 1.363 . S
C1023 C1022 1.415 . S
H1024 C1021 0.999 . S
H1025 C1006 0.913 . S
H1026 C1044 0.951 . S
H1027 C1046 0.951 . S
H1028 C1048 0.968 . S
H1029 C1049 0.950 . S
H1030 C1051 0.950 . S
H1031 C1054 0.950 . S
H1032 C1055 0.950 . S
H1033 C1057 0.950 . S
H1034 C1058 0.950 . S
H1035 C1059 0.926 . S
H1036 C1061 0.951 1_565 S
H1037 C1063 0.950 . S
H1038 C1064 0.952 . S
H1039 C1066 0.950 . S
H1040 C1069 0.950 . S
H1041 C1070 0.950 . S
H1042 C1072 0.950 . S
H1043 C1073 0.950 . S
C1044 H1026 0.951 . S
C1044 C1045 1.366 . S
C1044 C1046 1.388 . S
C1045 C1044 1.366 . S
C1045 C1049 1.385 . S
C1046 H1027 0.951 . S
C1046 C1044 1.388 . S
C1046 C1047 1.336 . S
C1047 C1046 1.336 . S
C1047 C1048 1.414 . S
C1047 C1050 1.516 . S
C1048 H1028 0.968 . S
C1048 C1047 1.414 . S
C1048 C1049 1.349 . S
C1049 H1029 0.950 . S
C1049 C1045 1.385 . S
C1049 C1048 1.349 . S
C1050 C1047 1.516 . S
C1050 C1051 1.399 . S
C1050 C1052 1.375 1_545 S
C1051 H1030 0.950 . S
C1051 C1050 1.399 . S
C1051 C1067 1.377 . S
C1052 C1050 1.375 1_565 S
C1052 C1053 1.524 . S
C1052 C1066 1.377 . S
C1053 C1052 1.524 . S
C1053 C1054 1.397 . S
C1053 C1058 1.363 . S
C1054 H1031 0.950 . S
C1054 C1053 1.397 . S
C1054 C1055 1.334 . S
C1055 H1032 0.950 . S
C1055 C1054 1.334 . S
C1055 C1056 1.287 . S
C1056 C1055 1.287 . S
C1056 C1057 1.524 . S
C1056 H1075 0.913 . S
C1057 H1033 0.950 . S
C1057 C1056 1.524 . S
C1057 C1058 1.415 . S
C1058 H1034 0.950 . S
C1058 C1053 1.363 . S
C1058 C1057 1.415 . S
C1059 H1035 0.926 . S
C1059 C1060 1.368 . S
C1059 C1061 1.406 1_565 S
C1060 C1059 1.368 . S
C1060 C1064 1.419 1_565 S
C1061 H1036 0.951 1_545 S
C1061 C1059 1.406 1_545 S
C1061 C1062 1.370 . S
C1062 C1061 1.370 . S
C1062 C1063 1.414 . S
C1062 C1065 1.499 . S
C1063 H1037 0.950 . S
C1063 C1062 1.414 . S
C1063 C1064 1.359 . S
C1064 H1038 0.952 . S
C1064 C1060 1.419 1_545 S
C1064 C1063 1.359 . S
C1065 C1062 1.499 . S
C1065 C1066 1.373 1_545 S
C1065 C1067 1.389 . S
C1066 H1039 0.950 . S
C1066 C1052 1.377 . S
C1066 C1065 1.373 1_565 S
C1067 C1051 1.377 . S
C1067 C1065 1.389 . S
C1067 C1068 1.524 . S
C1068 C1067 1.524 . S
C1068 C1069 1.397 . S
C1068 C1073 1.363 . S
C1069 H1040 0.950 . S
C1069 C1068 1.397 . S
C1069 C1070 1.334 . S
C1070 H1041 0.950 . S
C1070 C1069 1.334 . S
C1070 C1071 1.287 . S
C1071 C1070 1.287 . S
C1071 C1072 1.524 . S
C1071 H1074 0.999 . S
C1072 H1042 0.950 . S
C1072 C1071 1.524 . S
C1072 C1073 1.415 . S
C1073 H1043 0.950 . S
C1073 C1068 1.363 . S
C1073 C1072 1.415 . S
H1074 C1071 0.999 . S
H1075 C1056 0.913 . S
H1076 C1094 0.951 . S
H1077 C1096 0.951 . S
H1078 C1098 0.950 . S
H1079 C1099 0.950 . S
H1080 C1101 0.950 . S
H1081 C1104 0.950 . S
H1082 C1105 0.950 . S
H1083 C1107 0.950 . S
H1084 C1108 0.950 . S
H1085 C1109 0.951 . S
H1086 C1111 0.951 . S
H1087 C1113 0.950 . S
H1088 C1114 0.950 . S
H1089 C1116 0.950 . S
H1090 C1119 0.950 . S
H1091 C1120 0.950 . S
H1092 C1122 0.950 . S
H1093 C1123 0.950 . S
C1094 H1076 0.951 . S
C1094 C1095 1.366 . S
C1094 C1096 1.388 . S
C1095 C1094 1.366 . S
C1095 C1099 1.385 1_655 S
C1096 H1077 0.951 . S
C1096 C1094 1.388 . S
C1096 C1097 1.366 . S
C1097 C1096 1.366 . S
C1097 C1098 1.414 1_655 S
C1097 C1100 1.499 . S
C1098 H1078 0.950 . S
C1098 C1097 1.414 1_455 S
C1098 C1099 1.374 . S
C1099 H1079 0.950 . S
C1099 C1095 1.385 1_455 S
C1099 C1098 1.374 . S
C1100 C1097 1.499 . S
C1100 C1101 1.373 1_655 S
C1100 C1102 1.389 . S
C1101 H1080 0.950 . S
C1101 C1100 1.373 1_455 S
C1101 C1117 1.377 . S
C1102 C1100 1.389 . S
C1102 C1103 1.524 . S
C1102 C1116 1.377 . S
C1103 C1102 1.524 . S
C1103 C1104 1.397 . S
C1103 C1108 1.363 . S
C1104 H1081 0.950 . S
C1104 C1103 1.397 . S
C1104 C1105 1.334 . S
C1105 H1082 0.950 . S
C1105 C1104 1.334 . S
C1105 C1106 1.287 . S
C1106 C1105 1.287 . S
C1106 C1107 1.524 . S
C1106 H1125 0.913 . S
C1107 H1083 0.950 . S
C1107 C1106 1.524 . S
C1107 C1108 1.415 . S
C1108 H1084 0.950 . S
C1108 C1103 1.363 . S
C1108 C1107 1.415 . S
C1109 H1085 0.951 . S
C1109 C1110 1.359 . S
C1109 C1111 1.388 . S
C1110 C1109 1.359 . S
C1110 C1114 1.383 1_455 S
C1111 H1086 0.951 . S
C1111 C1109 1.388 . S
C1111 C1112 1.372 . S
C1112 C1111 1.372 . S
C1112 C1113 1.436 1_455 S
C1112 C1115 1.490 . S
C1113 H1087 0.950 . S
C1113 C1112 1.436 1_655 S
C1113 C1114 1.374 . S
C1114 H1088 0.950 . S
C1114 C1110 1.383 1_655 S
C1114 C1113 1.374 . S
C1115 C1112 1.490 . S
C1115 C1116 1.340 1_455 S
C1115 C1117 1.402 . S
C1116 H1089 0.950 . S
C1116 C1102 1.377 . S
C1116 C1115 1.340 1_655 S
C1117 C1101 1.377 . S
C1117 C1115 1.402 . S
C1117 C1118 1.524 . S
C1118 C1117 1.524 . S
C1118 C1119 1.397 . S
C1118 C1123 1.363 . S
C1119 H1090 0.950 . S
C1119 C1118 1.397 . S
C1119 C1120 1.334 . S
C1120 H1091 0.950 . S
C1120 C1119 1.334 . S
C1120 C1121 1.287 . S
C1121 C1120 1.287 . S
C1121 C1122 1.524 . S
C1121 H1124 0.999 . S
C1122 H1092 0.950 . S
C1122 C1121 1.524 . S
C1122 C1123 1.415 . S
C1123 H1093 0.950 . S
C1123 C1118 1.363 . S
C1123 C1122 1.415 . S
H1124 C1121 0.999 . S
H1125 C1106 0.913 . S
H1126 C1144 0.951 . S
H1127 C1146 0.951 . S
H1128 C1148 0.950 . S
H1129 C1149 0.950 . S
H1130 C1151 0.950 . S
H1131 C1154 0.950 . S
H1132 C1155 0.950 . S
H1133 C1157 0.950 . S
H1134 C1158 0.950 . S
H1135 C1159 0.951 . S
H1136 C1161 0.951 . S
H1137 C1163 0.950 . S
H1138 C1164 0.950 . S
H1139 C1166 0.950 . S
H1140 C1169 0.950 . S
H1141 C1170 0.950 . S
H1142 C1172 0.950 . S
H1143 C1173 0.950 . S
C1144 H1126 0.951 . S
C1144 C1145 1.366 . S
C1144 C1146 1.388 . S
C1145 C1144 1.366 . S
C1145 C1149 1.385 . S
C1146 H1127 0.951 . S
C1146 C1144 1.388 . S
C1146 C1147 1.366 . S
C1147 C1146 1.366 . S
C1147 C1148 1.414 . S
C1147 C1150 1.499 . S
C1148 H1128 0.950 . S
C1148 C1147 1.414 . S
C1148 C1149 1.374 . S
C1149 H1129 0.950 . S
C1149 C1145 1.385 . S
C1149 C1148 1.374 . S
C1150 C1147 1.499 . S
C1150 C1151 1.373 . S
C1150 C1152 1.389 . S
C1151 H1130 0.950 . S
C1151 C1150 1.373 . S
C1151 C1167 1.377 . S
C1152 C1150 1.389 . S
C1152 C1153 1.524 . S
C1152 C1166 1.377 . S
C1153 C1152 1.524 . S
C1153 C1154 1.397 . S
C1153 C1158 1.363 . S
C1154 H1131 0.950 . S
C1154 C1153 1.397 . S
C1154 C1155 1.334 . S
C1155 H1132 0.950 . S
C1155 C1154 1.334 . S
C1155 C1156 1.287 . S
C1156 C1155 1.287 . S
C1156 C1157 1.524 . S
C1156 H1175 0.913 . S
C1157 H1133 0.950 . S
C1157 C1156 1.524 . S
C1157 C1158 1.415 . S
C1158 H1134 0.950 . S
C1158 C1153 1.363 . S
C1158 C1157 1.415 . S
C1159 H1135 0.951 . S
C1159 C1160 1.366 . S
C1159 C1161 1.388 . S
C1160 C1159 1.366 . S
C1160 C1164 1.385 . S
C1161 H1136 0.951 . S
C1161 C1159 1.388 . S
C1161 C1162 1.366 . S
C1162 C1161 1.366 . S
C1162 C1163 1.414 . S
C1162 C1165 1.499 . S
C1163 H1137 0.950 . S
C1163 C1162 1.414 . S
C1163 C1164 1.374 . S
C1164 H1138 0.950 . S
C1164 C1160 1.385 . S
C1164 C1163 1.374 . S
C1165 C1162 1.499 . S
C1165 C1166 1.373 . S
C1165 C1167 1.389 . S
C1166 H1139 0.950 . S
C1166 C1152 1.377 . S
C1166 C1165 1.373 . S
C1167 C1151 1.377 . S
C1167 C1165 1.389 . S
C1167 C1168 1.524 . S
C1168 C1167 1.524 . S
C1168 C1169 1.397 . S
C1168 C1173 1.363 . S
C1169 H1140 0.950 . S
C1169 C1168 1.397 . S
C1169 C1170 1.334 . S
C1170 H1141 0.950 . S
C1170 C1169 1.334 . S
C1170 C1171 1.287 . S
C1171 C1170 1.287 . S
C1171 C1172 1.524 . S
C1171 H1174 0.999 . S
C1172 H1142 0.950 . S
C1172 C1171 1.524 . S
C1172 C1173 1.415 . S
C1173 H1143 0.950 . S
C1173 C1168 1.363 . S
C1173 C1172 1.415 . S
H1174 C1171 0.999 . S
H1175 C1156 0.913 . S
H1176 C1194 0.951 . S
H1177 C1196 0.951 . S
H1178 C1198 0.950 . S
H1179 C1199 0.950 . S
H1180 C1201 0.950 . S
H1181 C1204 0.950 . S
H1182 C1205 0.950 . S
H1183 C1207 0.950 . S
H1184 C1208 0.950 . S
H1185 C1209 0.951 . S
H1186 C1211 0.951 . S
H1187 C1213 0.950 . S
H1188 C1214 0.950 . S
H1189 C1216 0.950 . S
H1190 C1219 0.950 . S
H1191 C1220 0.950 . S
H1192 C1222 0.950 . S
H1193 C1223 0.950 . S
C1194 H1176 0.951 . S
C1194 C1195 1.366 . S
C1194 C1196 1.388 . S
C1195 C1194 1.366 . S
C1195 C1199 1.385 . S
C1196 H1177 0.951 . S
C1196 C1194 1.388 . S
C1196 C1197 1.366 . S
C1197 C1196 1.366 . S
C1197 C1198 1.414 . S
C1197 C1200 1.499 . S
C1198 H1178 0.950 . S
C1198 C1197 1.414 . S
C1198 C1199 1.374 . S
C1199 H1179 0.950 . S
C1199 C1195 1.385 . S
C1199 C1198 1.374 . S
C1200 C1197 1.499 . S
C1200 C1201 1.373 . S
C1200 C1202 1.389 . S
C1201 H1180 0.950 . S
C1201 C1200 1.373 . S
C1201 C1217 1.377 . S
C1202 C1200 1.389 . S
C1202 C1203 1.524 . S
C1202 C1216 1.377 . S
C1203 C1202 1.524 . S
C1203 C1204 1.397 . S
C1203 C1208 1.363 . S
C1204 H1181 0.950 . S
C1204 C1203 1.397 . S
C1204 C1205 1.334 . S
C1205 H1182 0.950 . S
C1205 C1204 1.334 . S
C1205 C1206 1.287 . S
C1206 C1205 1.287 . S
C1206 C1207 1.524 . S
C1206 H1225 0.913 . S
C1207 H1183 0.950 . S
C1207 C1206 1.524 . S
C1207 C1208 1.415 . S
C1208 H1184 0.950 . S
C1208 C1203 1.363 . S
C1208 C1207 1.415 . S
C1209 H1185 0.951 . S
C1209 C1210 1.366 . S
C1209 C1211 1.388 . S
C1210 C1209 1.366 . S
C1210 C1214 1.385 . S
C1211 H1186 0.951 . S
C1211 C1209 1.388 . S
C1211 C1212 1.366 . S
C1212 C1211 1.366 . S
C1212 C1213 1.414 . S
C1212 C1215 1.499 . S
C1213 H1187 0.950 . S
C1213 C1212 1.414 . S
C1213 C1214 1.374 . S
C1214 H1188 0.950 . S
C1214 C1210 1.385 . S
C1214 C1213 1.374 . S
C1215 C1212 1.499 . S
C1215 C1216 1.373 . S
C1215 C1217 1.389 . S
C1216 H1189 0.950 . S
C1216 C1202 1.377 . S
C1216 C1215 1.373 . S
C1217 C1201 1.377 . S
C1217 C1215 1.389 . S
C1217 C1218 1.524 . S
C1218 C1217 1.524 . S
C1218 C1219 1.397 . S
C1218 C1223 1.363 . S
C1219 H1190 0.950 . S
C1219 C1218 1.397 . S
C1219 C1220 1.334 . S
C1220 H1191 0.950 . S
C1220 C1219 1.334 . S
C1220 C1221 1.287 . S
C1221 C1220 1.287 . S
C1221 C1222 1.524 . S
C1221 H1224 0.999 . S
C1222 H1192 0.950 . S
C1222 C1221 1.524 . S
C1222 C1223 1.415 . S
C1223 H1193 0.950 . S
C1223 C1218 1.363 . S
C1223 C1222 1.415 . S
H1224 C1221 0.999 . S
H1225 C1206 0.913 . S
H1226 C1244 0.951 . S
H1227 C1246 0.951 . S
H1228 C1248 0.950 . S
H1229 C1249 0.950 . S
H1230 C1251 0.950 . S
H1231 C1254 0.950 . S
H1232 C1255 0.950 . S
H1233 C1257 0.950 . S
H1234 C1258 0.950 . S
H1235 C1259 0.951 . S
H1236 C1261 0.951 . S
H1237 C1263 0.950 . S
H1238 C1264 0.950 . S
H1239 C1266 0.950 . S
H1240 C1269 0.950 . S
H1241 C1270 0.950 . S
H1242 C1272 0.950 . S
H1243 C1273 0.950 . S
C1244 H1226 0.951 . S
C1244 C1245 1.366 . S
C1244 C1246 1.388 . S
C1245 C1244 1.366 . S
C1245 C1249 1.385 . S
C1246 H1227 0.951 . S
C1246 C1244 1.388 . S
C1246 C1247 1.366 . S
C1247 C1246 1.366 . S
C1247 C1248 1.414 . S
C1247 C1250 1.499 . S
C1248 H1228 0.950 . S
C1248 C1247 1.414 . S
C1248 C1249 1.374 . S
C1249 H1229 0.950 . S
C1249 C1245 1.385 . S
C1249 C1248 1.374 . S
C1250 C1247 1.499 . S
C1250 C1251 1.373 . S
C1250 C1252 1.389 . S
C1251 H1230 0.950 . S
C1251 C1250 1.373 . S
C1251 C1267 1.377 . S
C1252 C1250 1.389 . S
C1252 C1253 1.524 . S
C1252 C1266 1.377 . S
C1253 C1252 1.524 . S
C1253 C1254 1.397 . S
C1253 C1258 1.363 . S
C1254 H1231 0.950 . S
C1254 C1253 1.397 . S
C1254 C1255 1.334 . S
C1255 H1232 0.950 . S
C1255 C1254 1.334 . S
C1255 C1256 1.287 . S
C1256 C1255 1.287 . S
C1256 C1257 1.524 . S
C1256 H1275 0.913 . S
C1257 H1233 0.950 . S
C1257 C1256 1.524 . S
C1257 C1258 1.415 . S
C1258 H1234 0.950 . S
C1258 C1253 1.363 . S
C1258 C1257 1.415 . S
C1259 H1235 0.951 . S
C1259 C1260 1.366 . S
C1259 C1261 1.388 . S
C1260 C1259 1.366 . S
C1260 C1264 1.385 . S
C1261 H1236 0.951 . S
C1261 C1259 1.388 . S
C1261 C1262 1.366 . S
C1262 C1261 1.366 . S
C1262 C1263 1.414 . S
C1262 C1265 1.499 . S
C1263 H1237 0.950 . S
C1263 C1262 1.414 . S
C1263 C1264 1.374 . S
C1264 H1238 0.950 . S
C1264 C1260 1.385 . S
C1264 C1263 1.374 . S
C1265 C1262 1.499 . S
C1265 C1266 1.373 . S
C1265 C1267 1.389 . S
C1266 H1239 0.950 . S
C1266 C1252 1.377 . S
C1266 C1265 1.373 . S
C1267 C1251 1.377 . S
C1267 C1265 1.389 . S
C1267 C1268 1.524 . S
C1268 C1267 1.524 . S
C1268 C1269 1.397 . S
C1268 C1273 1.363 . S
C1269 H1240 0.950 . S
C1269 C1268 1.397 . S
C1269 C1270 1.334 . S
C1270 H1241 0.950 . S
C1270 C1269 1.334 . S
C1270 C1271 1.287 . S
C1271 C1270 1.287 . S
C1271 C1272 1.524 . S
C1271 H1274 0.999 . S
C1272 H1242 0.950 . S
C1272 C1271 1.524 . S
C1272 C1273 1.415 . S
C1273 H1243 0.950 . S
C1273 C1268 1.363 . S
C1273 C1272 1.415 . S
H1274 C1271 0.999 . S
H1275 C1256 0.913 . S
H1276 C1294 0.951 . S
H1277 C1296 0.951 . S
H1278 C1298 0.950 . S
H1279 C1299 0.950 . S
H1280 C1301 0.950 . S
H1281 C1304 0.950 . S
H1282 C1305 0.950 . S
H1283 C1307 0.950 . S
H1284 C1308 0.950 . S
H1285 C1309 0.951 . S
H1286 C1311 0.951 . S
H1287 C1313 0.950 . S
H1288 C1314 0.950 . S
H1289 C1316 0.950 . S
H1290 C1319 0.950 . S
H1291 C1320 0.950 . S
H1292 C1322 0.950 . S
H1293 C1323 0.950 . S
C1294 H1276 0.951 . S
C1294 C1295 1.366 . S
C1294 C1296 1.388 . S
C1295 C1294 1.366 . S
C1295 C1299 1.385 . S
C1296 H1277 0.951 . S
C1296 C1294 1.388 . S
C1296 C1297 1.366 . S
C1297 C1296 1.366 . S
C1297 C1298 1.414 . S
C1297 C1300 1.499 . S
C1298 H1278 0.950 . S
C1298 C1297 1.414 . S
C1298 C1299 1.374 . S
C1299 H1279 0.950 . S
C1299 C1295 1.385 . S
C1299 C1298 1.374 . S
C1300 C1297 1.499 . S
C1300 C1301 1.373 . S
C1300 C1302 1.389 . S
C1301 H1280 0.950 . S
C1301 C1300 1.373 . S
C1301 C1317 1.377 . S
C1302 C1300 1.389 . S
C1302 C1303 1.524 . S
C1302 C1316 1.377 . S
C1303 C1302 1.524 . S
C1303 C1304 1.397 . S
C1303 C1308 1.363 . S
C1304 H1281 0.950 . S
C1304 C1303 1.397 . S
C1304 C1305 1.334 . S
C1305 H1282 0.950 . S
C1305 C1304 1.334 . S
C1305 C1306 1.287 . S
C1306 C1305 1.287 . S
C1306 C1307 1.524 . S
C1306 H1325 0.913 . S
C1307 H1283 0.950 . S
C1307 C1306 1.524 . S
C1307 C1308 1.415 . S
C1308 H1284 0.950 . S
C1308 C1303 1.363 . S
C1308 C1307 1.415 . S
C1309 H1285 0.951 . S
C1309 C1310 1.366 . S
C1309 C1311 1.388 . S
C1310 C1309 1.366 . S
C1310 C1314 1.385 . S
C1311 H1286 0.951 . S
C1311 C1309 1.388 . S
C1311 C1312 1.366 . S
C1312 C1311 1.366 . S
C1312 C1313 1.414 . S
C1312 C1315 1.499 . S
C1313 H1287 0.950 . S
C1313 C1312 1.414 . S
C1313 C1314 1.374 . S
C1314 H1288 0.950 . S
C1314 C1310 1.385 . S
C1314 C1313 1.374 . S
C1315 C1312 1.499 . S
C1315 C1316 1.373 . S
C1315 C1317 1.389 . S
C1316 H1289 0.950 . S
C1316 C1302 1.377 . S
C1316 C1315 1.373 . S
C1317 C1301 1.377 . S
C1317 C1315 1.389 . S
C1317 C1318 1.524 . S
C1318 C1317 1.524 . S
C1318 C1319 1.397 . S
C1318 C1323 1.363 . S
C1319 H1290 0.950 . S
C1319 C1318 1.397 . S
C1319 C1320 1.334 . S
C1320 H1291 0.950 . S
C1320 C1319 1.334 . S
C1320 C1321 1.287 . S
C1321 C1320 1.287 . S
C1321 C1322 1.524 . S
C1321 H1324 0.999 . S
C1322 H1292 0.950 . S
C1322 C1321 1.524 . S
C1322 C1323 1.415 . S
C1323 H1293 0.950 . S
C1323 C1318 1.363 . S
C1323 C1322 1.415 . S
H1324 C1321 0.999 . S
H1325 C1306 0.913 . S
H1326 C1344 0.951 . S
H1327 C1346 0.951 . S
H1328 C1348 0.950 . S
H1329 C1349 0.950 . S
H1330 C1351 0.950 . S
H1331 C1354 0.950 . S
H1332 C1355 0.950 . S
H1333 C1357 0.950 . S
H1334 C1358 0.950 . S
H1335 C1359 0.951 . S
H1336 C1361 0.951 . S
H1337 C1363 0.950 . S
H1338 C1364 0.950 . S
H1339 C1366 0.950 . S
H1340 C1369 0.950 . S
H1341 C1370 0.950 . S
H1342 C1372 0.950 . S
H1343 C1373 0.950 . S
C1344 H1326 0.951 . S
C1344 C1345 1.366 . S
C1344 C1346 1.388 . S
C1345 C1344 1.366 . S
C1345 C1349 1.385 . S
C1346 H1327 0.951 . S
C1346 C1344 1.388 . S
C1346 C1347 1.366 . S
C1347 C1346 1.366 . S
C1347 C1348 1.414 . S
C1347 C1350 1.499 . S
C1348 H1328 0.950 . S
C1348 C1347 1.414 . S
C1348 C1349 1.374 . S
C1349 H1329 0.950 . S
C1349 C1345 1.385 . S
C1349 C1348 1.374 . S
C1350 C1347 1.499 . S
C1350 C1351 1.373 . S
C1350 C1352 1.389 . S
C1351 H1330 0.950 . S
C1351 C1350 1.373 . S
C1351 C1367 1.377 . S
C1352 C1350 1.389 . S
C1352 C1353 1.524 . S
C1352 C1366 1.377 . S
C1353 C1352 1.524 . S
C1353 C1354 1.397 . S
C1353 C1358 1.363 . S
C1354 H1331 0.950 . S
C1354 C1353 1.397 . S
C1354 C1355 1.334 . S
C1355 H1332 0.950 . S
C1355 C1354 1.334 . S
C1355 C1356 1.287 . S
C1356 C1355 1.287 . S
C1356 C1357 1.524 . S
C1356 H1375 0.913 . S
C1357 H1333 0.950 . S
C1357 C1356 1.524 . S
C1357 C1358 1.415 . S
C1358 H1334 0.950 . S
C1358 C1353 1.363 . S
C1358 C1357 1.415 . S
C1359 H1335 0.951 . S
C1359 C1360 1.366 . S
C1359 C1361 1.388 . S
C1360 C1359 1.366 . S
C1360 C1364 1.385 . S
C1361 H1336 0.951 . S
C1361 C1359 1.388 . S
C1361 C1362 1.366 . S
C1362 C1361 1.366 . S
C1362 C1363 1.414 . S
C1362 C1365 1.499 . S
C1363 H1337 0.950 . S
C1363 C1362 1.414 . S
C1363 C1364 1.374 . S
C1364 H1338 0.950 . S
C1364 C1360 1.385 . S
C1364 C1363 1.374 . S
C1365 C1362 1.499 . S
C1365 C1366 1.373 . S
C1365 C1367 1.389 . S
C1366 H1339 0.950 . S
C1366 C1352 1.377 . S
C1366 C1365 1.373 . S
C1367 C1351 1.377 . S
C1367 C1365 1.389 . S
C1367 C1368 1.524 . S
C1368 C1367 1.524 . S
C1368 C1369 1.397 . S
C1368 C1373 1.363 . S
C1369 H1340 0.950 . S
C1369 C1368 1.397 . S
C1369 C1370 1.334 . S
C1370 H1341 0.950 . S
C1370 C1369 1.334 . S
C1370 C1371 1.287 . S
C1371 C1370 1.287 . S
C1371 C1372 1.524 . S
C1371 H1374 0.999 . S
C1372 H1342 0.950 . S
C1372 C1371 1.524 . S
C1372 C1373 1.415 . S
C1373 H1343 0.950 . S
C1373 C1368 1.363 . S
C1373 C1372 1.415 . S
H1374 C1371 0.999 . S
H1375 C1356 0.913 . S
H1376 C1394 0.951 . S
H1377 C1396 0.951 . S
H1378 C1398 0.950 . S
H1379 C1399 0.950 . S
H1380 C1401 0.950 . S
H1381 C1404 0.950 . S
H1382 C1405 0.950 . S
H1383 C1407 0.950 . S
H1384 C1408 0.950 . S
H1385 C1409 0.951 . S
H1386 C1411 0.951 . S
H1387 C1413 0.950 . S
H1388 C1414 0.950 . S
H1389 C1416 0.950 . S
H1390 C1419 0.950 . S
H1391 C1420 0.950 . S
H1392 C1422 0.950 . S
H1393 C1423 0.950 . S
C1394 H1376 0.951 . S
C1394 C1395 1.366 . S
C1394 C1396 1.388 . S
C1395 C1394 1.366 . S
C1395 C1399 1.385 . S
C1396 H1377 0.951 . S
C1396 C1394 1.388 . S
C1396 C1397 1.366 . S
C1397 C1396 1.366 . S
C1397 C1398 1.414 . S
C1397 C1400 1.499 . S
C1398 H1378 0.950 . S
C1398 C1397 1.414 . S
C1398 C1399 1.374 . S
C1399 H1379 0.950 . S
C1399 C1395 1.385 . S
C1399 C1398 1.374 . S
C1400 C1397 1.499 . S
C1400 C1401 1.373 . S
C1400 C1402 1.389 . S
C1401 H1380 0.950 . S
C1401 C1400 1.373 . S
C1401 C1417 1.377 . S
C1402 C1400 1.389 . S
C1402 C1403 1.524 . S
C1402 C1416 1.377 . S
C1403 C1402 1.524 . S
C1403 C1404 1.397 . S
C1403 C1408 1.363 . S
C1404 H1381 0.950 . S
C1404 C1403 1.397 . S
C1404 C1405 1.334 . S
C1405 H1382 0.950 . S
C1405 C1404 1.334 . S
C1405 C1406 1.287 . S
C1406 C1405 1.287 . S
C1406 C1407 1.524 . S
C1406 H1425 0.913 . S
C1407 H1383 0.950 . S
C1407 C1406 1.524 . S
C1407 C1408 1.415 . S
C1408 H1384 0.950 . S
C1408 C1403 1.363 . S
C1408 C1407 1.415 . S
C1409 H1385 0.951 . S
C1409 C1410 1.366 . S
C1409 C1411 1.388 . S
C1410 C1409 1.366 . S
C1410 C1414 1.385 . S
C1411 H1386 0.951 . S
C1411 C1409 1.388 . S
C1411 C1412 1.366 . S
C1412 C1411 1.366 . S
C1412 C1413 1.414 . S
C1412 C1415 1.499 . S
C1413 H1387 0.950 . S
C1413 C1412 1.414 . S
C1413 C1414 1.374 . S
C1414 H1388 0.950 . S
C1414 C1410 1.385 . S
C1414 C1413 1.374 . S
C1415 C1412 1.499 . S
C1415 C1416 1.373 . S
C1415 C1417 1.389 . S
C1416 H1389 0.950 . S
C1416 C1402 1.377 . S
C1416 C1415 1.373 . S
C1417 C1401 1.377 . S
C1417 C1415 1.389 . S
C1417 C1418 1.524 . S
C1418 C1417 1.524 . S
C1418 C1419 1.397 . S
C1418 C1423 1.363 . S
C1419 H1390 0.950 . S
C1419 C1418 1.397 . S
C1419 C1420 1.334 . S
C1420 H1391 0.950 . S
C1420 C1419 1.334 . S
C1420 C1421 1.287 . S
C1421 C1420 1.287 . S
C1421 C1422 1.524 . S
C1421 H1424 0.999 . S
C1422 H1392 0.950 . S
C1422 C1421 1.524 . S
C1422 C1423 1.415 . S
C1423 H1393 0.950 . S
C1423 C1418 1.363 . S
C1423 C1422 1.415 . S
H1424 C1421 0.999 . S
H1425 C1406 0.913 . S
H1426 C1444 0.951 . S
H1427 C1446 0.951 . S
H1428 C1448 0.950 . S
H1429 C1449 0.950 . S
H1430 C1451 0.950 . S
H1431 C1454 0.950 . S
H1432 C1455 0.950 . S
H1433 C1457 0.950 . S
H1434 C1458 0.950 . S
H1435 C1459 0.951 . S
H1436 C1461 0.951 . S
H1437 C1463 0.950 . S
H1438 C1464 0.950 . S
H1439 C1466 0.950 . S
H1440 C1469 0.950 . S
H1441 C1470 0.950 . S
H1442 C1472 0.950 . S
H1443 C1473 0.950 . S
C1444 H1426 0.951 . S
C1444 C1445 1.366 . S
C1444 C1446 1.388 . S
C1445 C1444 1.366 . S
C1445 C1449 1.385 . S
C1446 H1427 0.951 . S
C1446 C1444 1.388 . S
C1446 C1447 1.366 . S
C1447 C1446 1.366 . S
C1447 C1448 1.414 . S
C1447 C1450 1.499 . S
C1448 H1428 0.950 . S
C1448 C1447 1.414 . S
C1448 C1449 1.374 . S
C1449 H1429 0.950 . S
C1449 C1445 1.385 . S
C1449 C1448 1.374 . S
C1450 C1447 1.499 . S
C1450 C1451 1.373 . S
C1450 C1452 1.389 . S
C1451 H1430 0.950 . S
C1451 C1450 1.373 . S
C1451 C1467 1.377 . S
C1452 C1450 1.389 . S
C1452 C1453 1.524 . S
C1452 C1466 1.377 . S
C1453 C1452 1.524 . S
C1453 C1454 1.397 . S
C1453 C1458 1.363 . S
C1454 H1431 0.950 . S
C1454 C1453 1.397 . S
C1454 C1455 1.334 . S
C1455 H1432 0.950 . S
C1455 C1454 1.334 . S
C1455 C1456 1.287 . S
C1456 C1455 1.287 . S
C1456 C1457 1.524 . S
C1456 H1475 0.913 . S
C1457 H1433 0.950 . S
C1457 C1456 1.524 . S
C1457 C1458 1.415 . S
C1458 H1434 0.950 . S
C1458 C1453 1.363 . S
C1458 C1457 1.415 . S
C1459 H1435 0.951 . S
C1459 C1460 1.366 . S
C1459 C1461 1.388 . S
C1460 C1459 1.366 . S
C1460 C1464 1.385 . S
C1461 H1436 0.951 . S
C1461 C1459 1.388 . S
C1461 C1462 1.366 . S
C1462 C1461 1.366 . S
C1462 C1463 1.414 . S
C1462 C1465 1.499 . S
C1463 H1437 0.950 . S
C1463 C1462 1.414 . S
C1463 C1464 1.374 . S
C1464 H1438 0.950 . S
C1464 C1460 1.385 . S
C1464 C1463 1.374 . S
C1465 C1462 1.499 . S
C1465 C1466 1.373 . S
C1465 C1467 1.389 . S
C1466 H1439 0.950 . S
C1466 C1452 1.377 . S
C1466 C1465 1.373 . S
C1467 C1451 1.377 . S
C1467 C1465 1.389 . S
C1467 C1468 1.524 . S
C1468 C1467 1.524 . S
C1468 C1469 1.397 . S
C1468 C1473 1.363 . S
C1469 H1440 0.950 . S
C1469 C1468 1.397 . S
C1469 C1470 1.334 . S
C1470 H1441 0.950 . S
C1470 C1469 1.334 . S
C1470 C1471 1.287 . S
C1471 C1470 1.287 . S
C1471 C1472 1.524 . S
C1471 H1474 0.999 . S
C1472 H1442 0.950 . S
C1472 C1471 1.524 . S
C1472 C1473 1.415 . S
C1473 H1443 0.950 . S
C1473 C1468 1.363 . S
C1473 C1472 1.415 . S
H1474 C1471 0.999 . S
H1475 C1456 0.913 . S
H1476 C1494 0.951 . S
H1477 C1496 0.951 . S
H1478 C1498 0.950 . S
H1479 C1499 0.950 . S
H1480 C1501 0.950 . S
H1481 C1504 0.950 . S
H1482 C1505 0.950 . S
H1483 C1507 0.950 . S
H1484 C1508 0.950 . S
H1485 C1509 0.951 . S
H1486 C1511 0.951 . S
H1487 C1513 0.950 . S
H1488 C1514 0.950 . S
H1489 C1516 0.950 . S
H1490 C1519 0.950 . S
H1491 C1520 0.950 . S
H1492 C1522 0.950 . S
H1493 C1523 0.950 . S
C1494 H1476 0.951 . S
C1494 C1495 1.366 . S
C1494 C1496 1.388 . S
C1495 C1494 1.366 . S
C1495 C1499 1.385 . S
C1496 H1477 0.951 . S
C1496 C1494 1.388 . S
C1496 C1497 1.366 . S
C1497 C1496 1.366 . S
C1497 C1498 1.414 . S
C1497 C1500 1.499 . S
C1498 H1478 0.950 . S
C1498 C1497 1.414 . S
C1498 C1499 1.374 . S
C1499 H1479 0.950 . S
C1499 C1495 1.385 . S
C1499 C1498 1.374 . S
C1500 C1497 1.499 . S
C1500 C1501 1.373 . S
C1500 C1502 1.389 . S
C1501 H1480 0.950 . S
C1501 C1500 1.373 . S
C1501 C1517 1.377 . S
C1502 C1500 1.389 . S
C1502 C1503 1.524 . S
C1502 C1516 1.377 . S
C1503 C1502 1.524 . S
C1503 C1504 1.397 . S
C1503 C1508 1.363 . S
C1504 H1481 0.950 . S
C1504 C1503 1.397 . S
C1504 C1505 1.334 . S
C1505 H1482 0.950 . S
C1505 C1504 1.334 . S
C1505 C1506 1.287 . S
C1506 C1505 1.287 . S
C1506 C1507 1.524 . S
C1506 H1525 0.913 . S
C1507 H1483 0.950 . S
C1507 C1506 1.524 . S
C1507 C1508 1.415 . S
C1508 H1484 0.950 . S
C1508 C1503 1.363 . S
C1508 C1507 1.415 . S
C1509 H1485 0.951 . S
C1509 C1510 1.366 . S
C1509 C1511 1.388 . S
C1510 C1509 1.366 . S
C1510 C1514 1.385 . S
C1511 H1486 0.951 . S
C1511 C1509 1.388 . S
C1511 C1512 1.366 . S
C1512 C1511 1.366 . S
C1512 C1513 1.414 . S
C1512 C1515 1.499 . S
C1513 H1487 0.950 . S
C1513 C1512 1.414 . S
C1513 C1514 1.374 . S
C1514 H1488 0.950 . S
C1514 C1510 1.385 . S
C1514 C1513 1.374 . S
C1515 C1512 1.499 . S
C1515 C1516 1.373 . S
C1515 C1517 1.389 . S
C1516 H1489 0.950 . S
C1516 C1502 1.377 . S
C1516 C1515 1.373 . S
C1517 C1501 1.377 . S
C1517 C1515 1.389 . S
C1517 C1518 1.524 . S
C1518 C1517 1.524 . S
C1518 C1519 1.397 . S
C1518 C1523 1.363 . S
C1519 H1490 0.950 . S
C1519 C1518 1.397 . S
C1519 C1520 1.334 . S
C1520 H1491 0.950 . S
C1520 C1519 1.334 . S
C1520 C1521 1.287 . S
C1521 C1520 1.287 . S
C1521 C1522 1.524 . S
C1521 H1524 0.999 . S
C1522 H1492 0.950 . S
C1522 C1521 1.524 . S
C1522 C1523 1.415 . S
C1523 H1493 0.950 . S
C1523 C1518 1.363 . S
C1523 C1522 1.415 . S
H1524 C1521 0.999 . S
H1525 C1506 0.913 . S
H1526 C1544 0.951 . S
H1527 C1546 0.951 . S
H1528 C1548 0.950 . S
H1529 C1549 0.950 . S
H1530 C1551 0.950 . S
H1531 C1554 0.950 . S
H1532 C1555 0.950 . S
H1533 C1557 0.950 . S
H1534 C1558 0.950 . S
H1535 C1559 0.951 . S
H1536 C1561 0.951 . S
H1537 C1563 0.950 . S
H1538 C1564 0.950 . S
H1539 C1566 0.950 . S
H1540 C1569 0.950 . S
H1541 C1570 0.950 . S
H1542 C1572 0.950 . S
H1543 C1573 0.950 . S
C1544 H1526 0.951 . S
C1544 C1545 1.366 . S
C1544 C1546 1.388 . S
C1545 C1544 1.366 . S
C1545 C1549 1.385 . S
C1546 H1527 0.951 . S
C1546 C1544 1.388 . S
C1546 C1547 1.366 . S
C1547 C1546 1.366 . S
C1547 C1548 1.414 . S
C1547 C1550 1.499 . S
C1548 H1528 0.950 . S
C1548 C1547 1.414 . S
C1548 C1549 1.374 . S
C1549 H1529 0.950 . S
C1549 C1545 1.385 . S
C1549 C1548 1.374 . S
C1550 C1547 1.499 . S
C1550 C1551 1.373 . S
C1550 C1552 1.389 . S
C1551 H1530 0.950 . S
C1551 C1550 1.373 . S
C1551 C1567 1.377 . S
C1552 C1550 1.389 . S
C1552 C1553 1.524 . S
C1552 C1566 1.377 . S
C1553 C1552 1.524 . S
C1553 C1554 1.397 . S
C1553 C1558 1.363 . S
C1554 H1531 0.950 . S
C1554 C1553 1.397 . S
C1554 C1555 1.334 . S
C1555 H1532 0.950 . S
C1555 C1554 1.334 . S
C1555 C1556 1.287 . S
C1556 C1555 1.287 . S
C1556 C1557 1.524 . S
C1556 H1575 0.913 . S
C1557 H1533 0.950 . S
C1557 C1556 1.524 . S
C1557 C1558 1.415 . S
C1558 H1534 0.950 . S
C1558 C1553 1.363 . S
C1558 C1557 1.415 . S
C1559 H1535 0.951 . S
C1559 C1560 1.366 . S
C1559 C1561 1.388 . S
C1560 C1559 1.366 . S
C1560 C1564 1.385 . S
C1561 H1536 0.951 . S
C1561 C1559 1.388 . S
C1561 C1562 1.366 . S
C1562 C1561 1.366 . S
C1562 C1563 1.414 . S
C1562 C1565 1.499 . S
C1563 H1537 0.950 . S
C1563 C1562 1.414 . S
C1563 C1564 1.374 . S
C1564 H1538 0.950 . S
C1564 C1560 1.385 . S
C1564 C1563 1.374 . S
C1565 C1562 1.499 . S
C1565 C1566 1.373 . S
C1565 C1567 1.389 . S
C1566 H1539 0.950 . S
C1566 C1552 1.377 . S
C1566 C1565 1.373 . S
C1567 C1551 1.377 . S
C1567 C1565 1.389 . S
C1567 C1568 1.524 . S
C1568 C1567 1.524 . S
C1568 C1569 1.397 . S
C1568 C1573 1.363 . S
C1569 H1540 0.950 . S
C1569 C1568 1.397 . S
C1569 C1570 1.334 . S
C1570 H1541 0.950 . S
C1570 C1569 1.334 . S
C1570 C1571 1.287 . S
C1571 C1570 1.287 . S
C1571 C1572 1.524 . S
C1571 H1574 0.999 . S
C1572 H1542 0.950 . S
C1572 C1571 1.524 . S
C1572 C1573 1.415 . S
C1573 H1543 0.950 . S
C1573 C1568 1.363 . S
C1573 C1572 1.415 . S
H1574 C1571 0.999 . S
H1575 C1556 0.913 . S
H1576 C1594 0.951 . S
H1577 C1596 0.951 . S
H1578 C1598 0.950 . S
H1579 C1599 0.950 . S
H1580 C1601 0.950 . S
H1581 C1604 0.950 . S
H1582 C1605 0.950 . S
H1583 C1607 0.950 . S
H1584 C1608 0.950 . S
H1585 C1609 0.951 . S
H1586 C1611 0.951 . S
H1587 C1613 0.950 . S
H1588 C1614 0.950 . S
H1589 C1616 0.950 . S
H1590 C1619 0.950 . S
H1591 C1620 0.950 . S
H1592 C1622 0.950 . S
H1593 C1623 0.950 . S
C1594 H1576 0.951 . S
C1594 C1595 1.366 . S
C1594 C1596 1.388 . S
C1595 C1594 1.366 . S
C1595 C1599 1.385 . S
C1596 H1577 0.951 . S
C1596 C1594 1.388 . S
C1596 C1597 1.366 . S
C1597 C1596 1.366 . S
C1597 C1598 1.414 . S
C1597 C1600 1.499 . S
C1598 H1578 0.950 . S
C1598 C1597 1.414 . S
C1598 C1599 1.374 . S
C1599 H1579 0.950 . S
C1599 C1595 1.385 . S
C1599 C1598 1.374 . S
C1600 C1597 1.499 . S
C1600 C1601 1.373 . S
C1600 C1602 1.389 . S
C1601 H1580 0.950 . S
C1601 C1600 1.373 . S
C1601 C1617 1.377 . S
C1602 C1600 1.389 . S
C1602 C1603 1.524 . S
C1602 C1616 1.377 . S
C1603 C1602 1.524 . S
C1603 C1604 1.397 . S
C1603 C1608 1.363 . S
C1604 H1581 0.950 . S
C1604 C1603 1.397 . S
C1604 C1605 1.334 . S
C1605 H1582 0.950 . S
C1605 C1604 1.334 . S
C1605 C1606 1.287 . S
C1606 C1605 1.287 . S
C1606 C1607 1.524 . S
C1606 H1625 0.913 . S
C1607 H1583 0.950 . S
C1607 C1606 1.524 . S
C1607 C1608 1.415 . S
C1608 H1584 0.950 . S
C1608 C1603 1.363 . S
C1608 C1607 1.415 . S
C1609 H1585 0.951 . S
C1609 C1610 1.366 . S
C1609 C1611 1.388 . S
C1610 C1609 1.366 . S
C1610 C1614 1.385 . S
C1611 H1586 0.951 . S
C1611 C1609 1.388 . S
C1611 C1612 1.366 . S
C1612 C1611 1.366 . S
C1612 C1613 1.414 . S
C1612 C1615 1.499 . S
C1613 H1587 0.950 . S
C1613 C1612 1.414 . S
C1613 C1614 1.374 . S
C1614 H1588 0.950 . S
C1614 C1610 1.385 . S
C1614 C1613 1.374 . S
C1615 C1612 1.499 . S
C1615 C1616 1.373 . S
C1615 C1617 1.389 . S
C1616 H1589 0.950 . S
C1616 C1602 1.377 . S
C1616 C1615 1.373 . S
C1617 C1601 1.377 . S
C1617 C1615 1.389 . S
C1617 C1618 1.524 . S
C1618 C1617 1.524 . S
C1618 C1619 1.397 . S
C1618 C1623 1.363 . S
C1619 H1590 0.950 . S
C1619 C1618 1.397 . S
C1619 C1620 1.334 . S
C1620 H1591 0.950 . S
C1620 C1619 1.334 . S
C1620 C1621 1.287 . S
C1621 C1620 1.287 . S
C1621 C1622 1.524 . S
C1621 H1624 0.999 . S
C1622 H1592 0.950 . S
C1622 C1621 1.524 . S
C1622 C1623 1.415 . S
C1623 H1593 0.950 . S
C1623 C1618 1.363 . S
C1623 C1622 1.415 . S
H1624 C1621 0.999 . S
H1625 C1606 0.913 . S
H1626 C1644 0.951 . S
H1627 C1646 0.951 . S
H1628 C1648 0.950 . S
H1629 C1649 0.950 . S
H1630 C1651 0.950 . S
H1631 C1654 0.950 . S
H1632 C1655 0.950 . S
H1633 C1657 0.950 . S
H1634 C1658 0.950 . S
H1635 C1659 0.951 . S
H1636 C1661 0.951 . S
H1637 C1663 0.950 . S
H1638 C1664 0.950 . S
H1639 C1666 0.950 . S
H1640 C1669 0.950 . S
H1641 C1670 0.950 . S
H1642 C1672 0.950 . S
H1643 C1673 0.950 . S
C1644 H1626 0.951 . S
C1644 C1645 1.366 . S
C1644 C1646 1.388 . S
C1645 C1644 1.366 . S
C1645 C1649 1.385 . S
C1646 H1627 0.951 . S
C1646 C1644 1.388 . S
C1646 C1647 1.366 . S
C1647 C1646 1.366 . S
C1647 C1648 1.414 . S
C1647 C1650 1.499 . S
C1648 H1628 0.950 . S
C1648 C1647 1.414 . S
C1648 C1649 1.374 . S
C1649 H1629 0.950 . S
C1649 C1645 1.385 . S
C1649 C1648 1.374 . S
C1650 C1647 1.499 . S
C1650 C1651 1.373 . S
C1650 C1652 1.389 . S
C1651 H1630 0.950 . S
C1651 C1650 1.373 . S
C1651 C1667 1.377 . S
C1652 C1650 1.389 . S
C1652 C1653 1.524 . S
C1652 C1666 1.377 . S
C1653 C1652 1.524 . S
C1653 C1654 1.397 . S
C1653 C1658 1.363 . S
C1654 H1631 0.950 . S
C1654 C1653 1.397 . S
C1654 C1655 1.334 . S
C1655 H1632 0.950 . S
C1655 C1654 1.334 . S
C1655 C1656 1.287 . S
C1656 C1655 1.287 . S
C1656 C1657 1.524 . S
C1656 H1675 0.913 . S
C1657 H1633 0.950 . S
C1657 C1656 1.524 . S
C1657 C1658 1.415 . S
C1658 H1634 0.950 . S
C1658 C1653 1.363 . S
C1658 C1657 1.415 . S
C1659 H1635 0.951 . S
C1659 C1660 1.366 . S
C1659 C1661 1.388 . S
C1660 C1659 1.366 . S
C1660 C1664 1.385 . S
C1661 H1636 0.951 . S
C1661 C1659 1.388 . S
C1661 C1662 1.366 . S
C1662 C1661 1.366 . S
C1662 C1663 1.414 . S
C1662 C1665 1.499 . S
C1663 H1637 0.950 . S
C1663 C1662 1.414 . S
C1663 C1664 1.374 . S
C1664 H1638 0.950 . S
C1664 C1660 1.385 . S
C1664 C1663 1.374 . S
C1665 C1662 1.499 . S
C1665 C1666 1.373 . S
C1665 C1667 1.389 . S
C1666 H1639 0.950 . S
C1666 C1652 1.377 . S
C1666 C1665 1.373 . S
C1667 C1651 1.377 . S
C1667 C1665 1.389 . S
C1667 C1668 1.524 . S
C1668 C1667 1.524 . S
C1668 C1669 1.397 . S
C1668 C1673 1.363 . S
C1669 H1640 0.950 . S
C1669 C1668 1.397 . S
C1669 C1670 1.334 . S
C1670 H1641 0.950 . S
C1670 C1669 1.334 . S
C1670 C1671 1.287 . S
C1671 C1670 1.287 . S
C1671 C1672 1.524 . S
C1671 H1674 0.999 . S
C1672 H1642 0.950 . S
C1672 C1671 1.524 . S
C1672 C1673 1.415 . S
C1673 H1643 0.950 . S
C1673 C1668 1.363 . S
C1673 C1672 1.415 . S
H1674 C1671 0.999 . S
H1675 C1656 0.913 . S
H1676 C1694 0.951 . S
H1677 C1696 0.951 . S
H1678 C1698 0.950 . S
H1679 C1699 0.950 . S
H1680 C1701 0.950 . S
H1681 C1704 0.950 . S
H1682 C1705 0.950 . S
H1683 C1707 0.950 . S
H1684 C1708 0.950 . S
H1685 C1709 0.951 . S
H1686 C1711 0.951 . S
H1687 C1713 0.950 . S
H1688 C1714 0.950 . S
H1689 C1716 0.950 . S
H1690 C1719 0.950 . S
H1691 C1720 0.950 . S
H1692 C1722 0.950 . S
H1693 C1723 0.950 . S
C1694 H1676 0.951 . S
C1694 C1695 1.366 . S
C1694 C1696 1.388 . S
C1695 C1694 1.366 . S
C1695 C1699 1.385 . S
C1696 H1677 0.951 . S
C1696 C1694 1.388 . S
C1696 C1697 1.366 . S
C1697 C1696 1.366 . S
C1697 C1698 1.414 . S
C1697 C1700 1.499 . S
C1698 H1678 0.950 . S
C1698 C1697 1.414 . S
C1698 C1699 1.374 . S
C1699 H1679 0.950 . S
C1699 C1695 1.385 . S
C1699 C1698 1.374 . S
C1700 C1697 1.499 . S
C1700 C1701 1.373 . S
C1700 C1702 1.389 . S
C1701 H1680 0.950 . S
C1701 C1700 1.373 . S
C1701 C1717 1.377 . S
C1702 C1700 1.389 . S
C1702 C1703 1.524 . S
C1702 C1716 1.377 . S
C1703 C1702 1.524 . S
C1703 C1704 1.397 . S
C1703 C1708 1.363 . S
C1704 H1681 0.950 . S
C1704 C1703 1.397 . S
C1704 C1705 1.334 . S
C1705 H1682 0.950 . S
C1705 C1704 1.334 . S
C1705 C1706 1.287 . S
C1706 C1705 1.287 . S
C1706 C1707 1.524 . S
C1706 H1725 0.913 . S
C1707 H1683 0.950 . S
C1707 C1706 1.524 . S
C1707 C1708 1.415 . S
C1708 H1684 0.950 . S
C1708 C1703 1.363 . S
C1708 C1707 1.415 . S
C1709 H1685 0.951 . S
C1709 C1710 1.366 . S
C1709 C1711 1.388 . S
C1710 C1709 1.366 . S
C1710 C1714 1.385 . S
C1711 H1686 0.951 . S
C1711 C1709 1.388 . S
C1711 C1712 1.366 . S
C1712 C1711 1.366 . S
C1712 C1713 1.414 . S
C1712 C1715 1.499 . S
C1713 H1687 0.950 . S
C1713 C1712 1.414 . S
C1713 C1714 1.374 . S
C1714 H1688 0.950 . S
C1714 C1710 1.385 . S
C1714 C1713 1.374 . S
C1715 C1712 1.499 . S
C1715 C1716 1.373 . S
C1715 C1717 1.389 . S
C1716 H1689 0.950 . S
C1716 C1702 1.377 . S
C1716 C1715 1.373 . S
C1717 C1701 1.377 . S
C1717 C1715 1.389 . S
C1717 C1718 1.524 . S
C1718 C1717 1.524 . S
C1718 C1719 1.397 . S
C1718 C1723 1.363 . S
C1719 H1690 0.950 . S
C1719 C1718 1.397 . S
C1719 C1720 1.334 . S
C1720 H1691 0.950 . S
C1720 C1719 1.334 . S
C1720 C1721 1.287 . S
C1721 C1720 1.287 . S
C1721 C1722 1.524 . S
C1721 H1724 0.999 . S
C1722 H1692 0.950 . S
C1722 C1721 1.524 . S
C1722 C1723 1.415 . S
C1723 H1693 0.950 . S
C1723 C1718 1.363 . S
C1723 C1722 1.415 . S
H1724 C1721 0.999 . S
H1725 C1706 0.913 . S
H1726 C1744 0.951 . S
H1727 C1746 0.951 . S
H1728 C1748 0.950 . S
H1729 C1749 0.950 . S
H1730 C1751 0.950 . S
H1731 C1754 0.950 . S
H1732 C1755 0.950 . S
H1733 C1757 0.950 . S
H1734 C1758 0.950 . S
H1735 C1759 0.951 . S
H1736 C1761 0.951 . S
H1737 C1763 0.950 . S
H1738 C1764 0.950 . S
H1739 C1766 0.950 . S
H1740 C1769 0.950 . S
H1741 C1770 0.950 . S
H1742 C1772 0.950 . S
H1743 C1773 0.950 . S
C1744 H1726 0.951 . S
C1744 C1745 1.366 . S
C1744 C1746 1.388 . S
C1745 C1744 1.366 . S
C1745 C1749 1.385 . S
C1746 H1727 0.951 . S
C1746 C1744 1.388 . S
C1746 C1747 1.366 . S
C1747 C1746 1.366 . S
C1747 C1748 1.414 . S
C1747 C1750 1.499 . S
C1748 H1728 0.950 . S
C1748 C1747 1.414 . S
C1748 C1749 1.374 . S
C1749 H1729 0.950 . S
C1749 C1745 1.385 . S
C1749 C1748 1.374 . S
C1750 C1747 1.499 . S
C1750 C1751 1.373 . S
C1750 C1752 1.389 . S
C1751 H1730 0.950 . S
C1751 C1750 1.373 . S
C1751 C1767 1.377 . S
C1752 C1750 1.389 . S
C1752 C1753 1.524 . S
C1752 C1766 1.377 . S
C1753 C1752 1.524 . S
C1753 C1754 1.397 . S
C1753 C1758 1.363 . S
C1754 H1731 0.950 . S
C1754 C1753 1.397 . S
C1754 C1755 1.334 . S
C1755 H1732 0.950 . S
C1755 C1754 1.334 . S
C1755 C1756 1.287 . S
C1756 C1755 1.287 . S
C1756 C1757 1.524 . S
C1756 H1775 0.913 . S
C1757 H1733 0.950 . S
C1757 C1756 1.524 . S
C1757 C1758 1.415 . S
C1758 H1734 0.950 . S
C1758 C1753 1.363 . S
C1758 C1757 1.415 . S
C1759 H1735 0.951 . S
C1759 C1760 1.366 . S
C1759 C1761 1.388 . S
C1760 C1759 1.366 . S
C1760 C1764 1.385 . S
C1761 H1736 0.951 . S
C1761 C1759 1.388 . S
C1761 C1762 1.366 . S
C1762 C1761 1.366 . S
C1762 C1763 1.414 . S
C1762 C1765 1.499 . S
C1763 H1737 0.950 . S
C1763 C1762 1.414 . S
C1763 C1764 1.374 . S
C1764 H1738 0.950 . S
C1764 C1760 1.385 . S
C1764 C1763 1.374 . S
C1765 C1762 1.499 . S
C1765 C1766 1.373 . S
C1765 C1767 1.389 . S
C1766 H1739 0.950 . S
C1766 C1752 1.377 . S
C1766 C1765 1.373 . S
C1767 C1751 1.377 . S
C1767 C1765 1.389 . S
C1767 C1768 1.524 . S
C1768 C1767 1.524 . S
C1768 C1769 1.397 . S
C1768 C1773 1.363 . S
C1769 H1740 0.950 . S
C1769 C1768 1.397 . S
C1769 C1770 1.334 . S
C1770 H1741 0.950 . S
C1770 C1769 1.334 . S
C1770 C1771 1.287 . S
C1771 C1770 1.287 . S
C1771 C1772 1.524 . S
C1771 H1774 0.999 . S
C1772 H1742 0.950 . S
C1772 C1771 1.524 . S
C1772 C1773 1.415 . S
C1773 H1743 0.950 . S
C1773 C1768 1.363 . S
C1773 C1772 1.415 . S
H1774 C1771 0.999 . S
H1775 C1756 0.913 . S
H1776 C1794 0.951 . S
H1777 C1796 0.951 . S
H1778 C1798 0.950 . S
H1779 C1799 0.950 . S
H1780 C1801 0.950 . S
H1781 C1804 0.950 . S
H1782 C1805 0.950 . S
H1783 C1807 0.950 . S
H1784 C1808 0.950 . S
H1785 C1809 0.951 . S
H1786 C1811 0.951 . S
H1787 C1813 0.950 . S
H1788 C1814 0.950 . S
H1789 C1816 0.950 . S
H1790 C1819 0.950 . S
H1791 C1820 0.950 . S
H1792 C1822 0.950 . S
H1793 C1823 0.950 . S
C1794 H1776 0.951 . S
C1794 C1795 1.366 . S
C1794 C1796 1.388 . S
C1795 C1794 1.366 . S
C1795 C1799 1.385 . S
C1796 H1777 0.951 . S
C1796 C1794 1.388 . S
C1796 C1797 1.366 . S
C1797 C1796 1.366 . S
C1797 C1798 1.414 . S
C1797 C1800 1.499 . S
C1798 H1778 0.950 . S
C1798 C1797 1.414 . S
C1798 C1799 1.374 . S
C1799 H1779 0.950 . S
C1799 C1795 1.385 . S
C1799 C1798 1.374 . S
C1800 C1797 1.499 . S
C1800 C1801 1.373 . S
C1800 C1802 1.389 . S
C1801 H1780 0.950 . S
C1801 C1800 1.373 . S
C1801 C1817 1.377 . S
C1802 C1800 1.389 . S
C1802 C1803 1.524 . S
C1802 C1816 1.377 . S
C1803 C1802 1.524 . S
C1803 C1804 1.397 . S
C1803 C1808 1.363 . S
C1804 H1781 0.950 . S
C1804 C1803 1.397 . S
C1804 C1805 1.334 . S
C1805 H1782 0.950 . S
C1805 C1804 1.334 . S
C1805 C1806 1.287 . S
C1806 C1805 1.287 . S
C1806 C1807 1.524 . S
C1806 H1825 0.913 . S
C1807 H1783 0.950 . S
C1807 C1806 1.524 . S
C1807 C1808 1.415 . S
C1808 H1784 0.950 . S
C1808 C1803 1.363 . S
C1808 C1807 1.415 . S
C1809 H1785 0.951 . S
C1809 C1810 1.366 . S
C1809 C1811 1.388 . S
C1810 C1809 1.366 . S
C1810 C1814 1.385 . S
C1811 H1786 0.951 . S
C1811 C1809 1.388 . S
C1811 C1812 1.366 . S
C1812 C1811 1.366 . S
C1812 C1813 1.414 . S
C1812 C1815 1.499 . S
C1813 H1787 0.950 . S
C1813 C1812 1.414 . S
C1813 C1814 1.374 . S
C1814 H1788 0.950 . S
C1814 C1810 1.385 . S
C1814 C1813 1.374 . S
C1815 C1812 1.499 . S
C1815 C1816 1.373 . S
C1815 C1817 1.389 . S
C1816 H1789 0.950 . S
C1816 C1802 1.377 . S
C1816 C1815 1.373 . S
C1817 C1801 1.377 . S
C1817 C1815 1.389 . S
C1817 C1818 1.524 . S
C1818 C1817 1.524 . S
C1818 C1819 1.397 . S
C1818 C1823 1.363 . S
C1819 H1790 0.950 . S
C1819 C1818 1.397 . S
C1819 C1820 1.334 . S
C1820 H1791 0.950 . S
C1820 C1819 1.334 . S
C1820 C1821 1.287 . S
C1821 C1820 1.287 . S
C1821 C1822 1.524 . S
C1821 H1824 0.999 . S
C1822 H1792 0.950 . S
C1822 C1821 1.524 . S
C1822 C1823 1.415 . S
C1823 H1793 0.950 . S
C1823 C1818 1.363 . S
C1823 C1822 1.415 . S
H1824 C1821 0.999 . S
H1825 C1806 0.913 . S
H1826 C1844 0.951 . S
H1827 C1846 0.951 . S
H1828 C1848 0.950 . S
H1829 C1849 0.950 . S
H1830 C1851 0.950 . S
H1831 C1854 0.950 . S
H1832 C1855 0.950 . S
H1833 C1857 0.950 . S
H1834 C1858 0.950 . S
H1835 C1859 0.951 . S
H1836 C1861 0.951 . S
H1837 C1863 0.950 . S
H1838 C1864 0.950 . S
H1839 C1866 0.950 . S
H1840 C1869 0.950 . S
H1841 C1870 0.950 . S
H1842 C1872 0.950 . S
H1843 C1873 0.950 . S
C1844 H1826 0.951 . S
C1844 C1845 1.366 . S
C1844 C1846 1.388 . S
C1845 C1844 1.366 . S
C1845 C1849 1.385 . S
C1846 H1827 0.951 . S
C1846 C1844 1.388 . S
C1846 C1847 1.366 . S
C1847 C1846 1.366 . S
C1847 C1848 1.414 . S
C1847 C1850 1.499 . S
C1848 H1828 0.950 . S
C1848 C1847 1.414 . S
C1848 C1849 1.374 . S
C1849 H1829 0.950 . S
C1849 C1845 1.385 . S
C1849 C1848 1.374 . S
C1850 C1847 1.499 . S
C1850 C1851 1.373 . S
C1850 C1852 1.389 . S
C1851 H1830 0.950 . S
C1851 C1850 1.373 . S
C1851 C1867 1.377 . S
C1852 C1850 1.389 . S
C1852 C1853 1.524 . S
C1852 C1866 1.377 . S
C1853 C1852 1.524 . S
C1853 C1854 1.397 . S
C1853 C1858 1.363 . S
C1854 H1831 0.950 . S
C1854 C1853 1.397 . S
C1854 C1855 1.334 . S
C1855 H1832 0.950 . S
C1855 C1854 1.334 . S
C1855 C1856 1.287 . S
C1856 C1855 1.287 . S
C1856 C1857 1.524 . S
C1856 H1875 0.913 . S
C1857 H1833 0.950 . S
C1857 C1856 1.524 . S
C1857 C1858 1.415 . S
C1858 H1834 0.950 . S
C1858 C1853 1.363 . S
C1858 C1857 1.415 . S
C1859 H1835 0.951 . S
C1859 C1860 1.366 . S
C1859 C1861 1.388 . S
C1860 C1859 1.366 . S
C1860 C1864 1.385 . S
C1861 H1836 0.951 . S
C1861 C1859 1.388 . S
C1861 C1862 1.366 . S
C1862 C1861 1.366 . S
C1862 C1863 1.414 . S
C1862 C1865 1.499 . S
C1863 H1837 0.950 . S
C1863 C1862 1.414 . S
C1863 C1864 1.374 . S
C1864 H1838 0.950 . S
C1864 C1860 1.385 . S
C1864 C1863 1.374 . S
C1865 C1862 1.499 . S
C1865 C1866 1.373 . S
C1865 C1867 1.389 . S
C1866 H1839 0.950 . S
C1866 C1852 1.377 . S
C1866 C1865 1.373 . S
C1867 C1851 1.377 . S
C1867 C1865 1.389 . S
C1867 C1868 1.524 . S
C1868 C1867 1.524 . S
C1868 C1869 1.397 . S
C1868 C1873 1.363 . S
C1869 H1840 0.950 . S
C1869 C1868 1.397 . S
C1869 C1870 1.334 . S
C1870 H1841 0.950 . S
C1870 C1869 1.334 . S
C1870 C1871 1.287 . S
C1871 C1870 1.287 . S
C1871 C1872 1.524 . S
C1871 H1874 0.999 . S
C1872 H1842 0.950 . S
C1872 C1871 1.524 . S
C1872 C1873 1.415 . S
C1873 H1843 0.950 . S
C1873 C1868 1.363 . S
C1873 C1872 1.415 . S
H1874 C1871 0.999 . S
H1875 C1856 0.913 . S
H1876 C1894 0.951 . S
H1877 C1896 0.951 . S
H1878 C1898 0.950 . S
H1879 C1899 0.950 . S
H1880 C1901 0.950 . S
H1881 C1904 0.950 . S
H1882 C1905 0.950 . S
H1883 C1907 0.950 . S
H1884 C1908 0.950 . S
H1885 C1909 0.951 . S
H1886 C1911 0.951 . S
H1887 C1913 0.950 . S
H1888 C1914 0.950 . S
H1889 C1916 0.950 . S
H1890 C1919 0.950 . S
H1891 C1920 0.950 . S
H1892 C1922 0.950 . S
H1893 C1923 0.950 . S
C1894 H1876 0.951 . S
C1894 C1895 1.366 . S
C1894 C1896 1.388 . S
C1895 C1894 1.366 . S
C1895 C1899 1.385 . S
C1896 H1877 0.951 . S
C1896 C1894 1.388 . S
C1896 C1897 1.366 . S
C1897 C1896 1.366 . S
C1897 C1898 1.414 . S
C1897 C1900 1.499 . S
C1898 H1878 0.950 . S
C1898 C1897 1.414 . S
C1898 C1899 1.374 . S
C1899 H1879 0.950 . S
C1899 C1895 1.385 . S
C1899 C1898 1.374 . S
C1900 C1897 1.499 . S
C1900 C1901 1.373 . S
C1900 C1902 1.389 . S
C1901 H1880 0.950 . S
C1901 C1900 1.373 . S
C1901 C1917 1.377 . S
C1902 C1900 1.389 . S
C1902 C1903 1.524 . S
C1902 C1916 1.377 . S
C1903 C1902 1.524 . S
C1903 C1904 1.397 . S
C1903 C1908 1.363 . S
C1904 H1881 0.950 . S
C1904 C1903 1.397 . S
C1904 C1905 1.334 . S
C1905 H1882 0.950 . S
C1905 C1904 1.334 . S
C1905 C1906 1.287 . S
C1906 C1905 1.287 . S
C1906 C1907 1.524 . S
C1906 H1925 0.913 . S
C1907 H1883 0.950 . S
C1907 C1906 1.524 . S
C1907 C1908 1.415 . S
C1908 H1884 0.950 . S
C1908 C1903 1.363 . S
C1908 C1907 1.415 . S
C1909 H1885 0.951 . S
C1909 C1910 1.366 . S
C1909 C1911 1.388 . S
C1910 C1909 1.366 . S
C1910 C1914 1.385 . S
C1911 H1886 0.951 . S
C1911 C1909 1.388 . S
C1911 C1912 1.366 . S
C1912 C1911 1.366 . S
C1912 C1913 1.414 . S
C1912 C1915 1.499 . S
C1913 H1887 0.950 . S
C1913 C1912 1.414 . S
C1913 C1914 1.374 . S
C1914 H1888 0.950 . S
C1914 C1910 1.385 . S
C1914 C1913 1.374 . S
C1915 C1912 1.499 . S
C1915 C1916 1.373 . S
C1915 C1917 1.389 . S
C1916 H1889 0.950 . S
C1916 C1902 1.377 . S
C1916 C1915 1.373 . S
C1917 C1901 1.377 . S
C1917 C1915 1.389 . S
C1917 C1918 1.524 . S
C1918 C1917 1.524 . S
C1918 C1919 1.397 . S
C1918 C1923 1.363 . S
C1919 H1890 0.950 . S
C1919 C1918 1.397 . S
C1919 C1920 1.334 . S
C1920 H1891 0.950 . S
C1920 C1919 1.334 . S
C1920 C1921 1.287 . S
C1921 C1920 1.287 . S
C1921 C1922 1.524 . S
C1921 H1924 0.999 . S
C1922 H1892 0.950 . S
C1922 C1921 1.524 . S
C1922 C1923 1.415 . S
C1923 H1893 0.950 . S
C1923 C1918 1.363 . S
C1923 C1922 1.415 . S
H1924 C1921 0.999 . S
H1925 C1906 0.913 . S
H1926 C1944 0.951 . S
H1927 C1946 0.951 . S
H1928 C1948 0.950 . S
H1929 C1949 0.950 . S
H1930 C1951 0.950 . S
H1931 C1954 0.950 . S
H1932 C1955 0.950 . S
H1933 C1957 0.950 . S
H1934 C1958 0.950 . S
H1935 C1959 0.951 . S
H1936 C1961 0.951 . S
H1937 C1963 0.950 . S
H1938 C1964 0.950 . S
H1939 C1966 0.950 . S
H1940 C1969 0.950 . S
H1941 C1970 0.950 . S
H1942 C1972 0.950 . S
H1943 C1973 0.950 . S
C1944 H1926 0.951 . S
C1944 C1945 1.366 . S
C1944 C1946 1.388 . S
C1945 C1944 1.366 . S
C1945 C1949 1.385 . S
C1946 H1927 0.951 . S
C1946 C1944 1.388 . S
C1946 C1947 1.366 . S
C1947 C1946 1.366 . S
C1947 C1948 1.414 . S
C1947 C1950 1.499 . S
C1948 H1928 0.950 . S
C1948 C1947 1.414 . S
C1948 C1949 1.374 . S
C1949 H1929 0.950 . S
C1949 C1945 1.385 . S
C1949 C1948 1.374 . S
C1950 C1947 1.499 . S
C1950 C1951 1.373 . S
C1950 C1952 1.389 . S
C1951 H1930 0.950 . S
C1951 C1950 1.373 . S
C1951 C1967 1.377 . S
C1952 C1950 1.389 . S
C1952 C1953 1.524 . S
C1952 C1966 1.377 . S
C1953 C1952 1.524 . S
C1953 C1954 1.397 . S
C1953 C1958 1.363 . S
C1954 H1931 0.950 . S
C1954 C1953 1.397 . S
C1954 C1955 1.334 . S
C1955 H1932 0.950 . S
C1955 C1954 1.334 . S
C1955 C1956 1.287 . S
C1956 C1955 1.287 . S
C1956 C1957 1.524 . S
C1956 H1975 0.913 . S
C1957 H1933 0.950 . S
C1957 C1956 1.524 . S
C1957 C1958 1.415 . S
C1958 H1934 0.950 . S
C1958 C1953 1.363 . S
C1958 C1957 1.415 . S
C1959 H1935 0.951 . S
C1959 C1960 1.366 . S
C1959 C1961 1.388 . S
C1960 C1959 1.366 . S
C1960 C1964 1.385 . S
C1961 H1936 0.951 . S
C1961 C1959 1.388 . S
C1961 C1962 1.366 . S
C1962 C1961 1.366 . S
C1962 C1963 1.414 . S
C1962 C1965 1.499 . S
C1963 H1937 0.950 . S
C1963 C1962 1.414 . S
C1963 C1964 1.374 . S
C1964 H1938 0.950 . S
C1964 C1960 1.385 . S
C1964 C1963 1.374 . S
C1965 C1962 1.499 . S
C1965 C1966 1.373 . S
C1965 C1967 1.389 . S
C1966 H1939 0.950 . S
C1966 C1952 1.377 . S
C1966 C1965 1.373 . S
C1967 C1951 1.377 . S
C1967 C1965 1.389 . S
C1967 C1968 1.524 . S
C1968 C1967 1.524 . S
C1968 C1969 1.397 . S
C1968 C1973 1.363 . S
C1969 H1940 0.950 . S
C1969 C1968 1.397 . S
C1969 C1970 1.334 . S
C1970 H1941 0.950 . S
C1970 C1969 1.334 . S
C1970 C1971 1.287 . S
C1971 C1970 1.287 . S
C1971 C1972 1.524 . S
C1971 H1974 0.999 . S
C1972 H1942 0.950 . S
C1972 C1971 1.524 . S
C1972 C1973 1.415 . S
C1973 H1943 0.950 . S
C1973 C1968 1.363 . S
C1973 C1972 1.415 . S
H1974 C1971 0.999 . S
H1975 C1956 0.913 . S
H1976 C1994 0.951 . S
H1977 C1996 0.951 . S
H1978 C1998 0.950 . S
H1979 C1999 0.950 . S
H1980 C2001 0.950 . S
H1981 C2004 0.950 . S
H1982 C2005 0.950 . S
H1983 C2007 0.950 . S
H1984 C2008 0.950 . S
H1985 C2009 0.951 . S
H1986 C2011 0.951 . S
H1987 C2013 0.950 . S
H1988 C2014 0.950 . S
H1989 C2016 0.950 . S
H1990 C2019 0.950 . S
H1991 C2020 0.950 . S
H1992 C2022 0.950 . S
H1993 C2023 0.950 . S
C1994 H1976 0.951 . S
C1994 C1995 1.366 . S
C1994 C1996 1.388 . S
C1995 C1994 1.366 . S
C1995 C1999 1.385 . S
C1996 H1977 0.951 . S
C1996 C1994 1.388 . S
C1996 C1997 1.366 . S
C1997 C1996 1.366 . S
C1997 C1998 1.414 . S
C1997 C2000 1.499 . S
C1998 H1978 0.950 . S
C1998 C1997 1.414 . S
C1998 C1999 1.374 . S
C1999 H1979 0.950 . S
C1999 C1995 1.385 . S
C1999 C1998 1.374 . S
C2000 C1997 1.499 . S
C2000 C2001 1.373 . S
C2000 C2002 1.389 . S
C2001 H1980 0.950 . S
C2001 C2000 1.373 . S
C2001 C2017 1.377 . S
C2002 C2000 1.389 . S
C2002 C2003 1.524 . S
C2002 C2016 1.377 . S
C2003 C2002 1.524 . S
C2003 C2004 1.397 . S
C2003 C2008 1.363 . S
C2004 H1981 0.950 . S
C2004 C2003 1.397 . S
C2004 C2005 1.334 . S
C2005 H1982 0.950 . S
C2005 C2004 1.334 . S
C2005 C2006 1.287 . S
C2006 C2005 1.287 . S
C2006 C2007 1.524 . S
C2006 H2025 0.913 . S
C2007 H1983 0.950 . S
C2007 C2006 1.524 . S
C2007 C2008 1.415 . S
C2008 H1984 0.950 . S
C2008 C2003 1.363 . S
C2008 C2007 1.415 . S
C2009 H1985 0.951 . S
C2009 C2010 1.366 . S
C2009 C2011 1.388 . S
C2010 C2009 1.366 . S
C2010 C2014 1.385 . S
C2011 H1986 0.951 . S
C2011 C2009 1.388 . S
C2011 C2012 1.366 . S
C2012 C2011 1.366 . S
C2012 C2013 1.414 . S
C2012 C2015 1.499 . S
C2013 H1987 0.950 . S
C2013 C2012 1.414 . S
C2013 C2014 1.374 . S
C2014 H1988 0.950 . S
C2014 C2010 1.385 . S
C2014 C2013 1.374 . S
C2015 C2012 1.499 . S
C2015 C2016 1.373 . S
C2015 C2017 1.389 . S
C2016 H1989 0.950 . S
C2016 C2002 1.377 . S
C2016 C2015 1.373 . S
C2017 C2001 1.377 . S
C2017 C2015 1.389 . S
C2017 C2018 1.524 . S
C2018 C2017 1.524 . S
C2018 C2019 1.397 . S
C2018 C2023 1.363 . S
C2019 H1990 0.950 . S
C2019 C2018 1.397 . S
C2019 C2020 1.334 . S
C2020 H1991 0.950 . S
C2020 C2019 1.334 . S
C2020 C2021 1.287 . S
C2021 C2020 1.287 . S
C2021 C2022 1.524 . S
C2021 H2024 0.999 . S
C2022 H1992 0.950 . S
C2022 C2021 1.524 . S
C2022 C2023 1.415 . S
C2023 H1993 0.950 . S
C2023 C2018 1.363 . S
C2023 C2022 1.415 . S
H2024 C2021 0.999 . S
H2025 C2006 0.913 . S
H2026 C2044 0.951 . S
H2027 C2046 0.951 . S
H2028 C2048 0.950 . S
H2029 C2049 0.950 . S
H2030 C2051 0.950 . S
H2031 C2054 0.950 . S
H2032 C2055 0.950 . S
H2033 C2057 0.950 . S
H2034 C2058 0.950 . S
H2035 C2059 0.951 . S
H2036 C2061 0.951 . S
H2037 C2063 0.950 . S
H2038 C2064 0.950 . S
H2039 C2066 0.950 . S
H2040 C2069 0.950 . S
H2041 C2070 0.950 . S
H2042 C2072 0.950 . S
H2043 C2073 0.950 . S
C2044 H2026 0.951 . S
C2044 C2045 1.366 . S
C2044 C2046 1.388 . S
C2045 C2044 1.366 . S
C2045 C2049 1.385 . S
C2046 H2027 0.951 . S
C2046 C2044 1.388 . S
C2046 C2047 1.366 . S
C2047 C2046 1.366 . S
C2047 C2048 1.414 . S
C2047 C2050 1.499 . S
C2048 H2028 0.950 . S
C2048 C2047 1.414 . S
C2048 C2049 1.374 . S
C2049 H2029 0.950 . S
C2049 C2045 1.385 . S
C2049 C2048 1.374 . S
C2050 C2047 1.499 . S
C2050 C2051 1.373 . S
C2050 C2052 1.389 . S
C2051 H2030 0.950 . S
C2051 C2050 1.373 . S
C2051 C2067 1.377 . S
C2052 C2050 1.389 . S
C2052 C2053 1.524 . S
C2052 C2066 1.377 . S
C2053 C2052 1.524 . S
C2053 C2054 1.397 . S
C2053 C2058 1.363 . S
C2054 H2031 0.950 . S
C2054 C2053 1.397 . S
C2054 C2055 1.334 . S
C2055 H2032 0.950 . S
C2055 C2054 1.334 . S
C2055 C2056 1.287 . S
C2056 C2055 1.287 . S
C2056 C2057 1.524 . S
C2056 H2075 0.913 . S
C2057 H2033 0.950 . S
C2057 C2056 1.524 . S
C2057 C2058 1.415 . S
C2058 H2034 0.950 . S
C2058 C2053 1.363 . S
C2058 C2057 1.415 . S
C2059 H2035 0.951 . S
C2059 C2060 1.366 . S
C2059 C2061 1.388 . S
C2060 C2059 1.366 . S
C2060 C2064 1.385 . S
C2061 H2036 0.951 . S
C2061 C2059 1.388 . S
C2061 C2062 1.366 . S
C2062 C2061 1.366 . S
C2062 C2063 1.414 . S
C2062 C2065 1.499 . S
C2063 H2037 0.950 . S
C2063 C2062 1.414 . S
C2063 C2064 1.374 . S
C2064 H2038 0.950 . S
C2064 C2060 1.385 . S
C2064 C2063 1.374 . S
C2065 C2062 1.499 . S
C2065 C2066 1.373 . S
C2065 C2067 1.389 . S
C2066 H2039 0.950 . S
C2066 C2052 1.377 . S
C2066 C2065 1.373 . S
C2067 C2051 1.377 . S
C2067 C2065 1.389 . S
C2067 C2068 1.524 . S
C2068 C2067 1.524 . S
C2068 C2069 1.397 . S
C2068 C2073 1.363 . S
C2069 H2040 0.950 . S
C2069 C2068 1.397 . S
C2069 C2070 1.334 . S
C2070 H2041 0.950 . S
C2070 C2069 1.334 . S
C2070 C2071 1.287 . S
C2071 C2070 1.287 . S
C2071 C2072 1.524 . S
C2071 H2074 0.999 . S
C2072 H2042 0.950 . S
C2072 C2071 1.524 . S
C2072 C2073 1.415 . S
C2073 H2043 0.950 . S
C2073 C2068 1.363 . S
C2073 C2072 1.415 . S
H2074 C2071 0.999 . S
H2075 C2056 0.913 . S
H2076 C2094 0.951 . S
H2077 C2096 0.951 . S
H2078 C2098 0.950 . S
H2079 C2099 0.950 . S
H2080 C2101 0.950 . S
H2081 C2104 0.950 . S
H2082 C2105 0.950 . S
H2083 C2107 0.950 . S
H2084 C2108 0.950 . S
H2085 C2109 0.951 . S
H2086 C2111 0.951 . S
H2087 C2113 0.950 . S
H2088 C2114 0.950 . S
H2089 C2116 0.950 . S
H2090 C2119 0.950 . S
H2091 C2120 0.950 . S
H2092 C2122 0.950 . S
H2093 C2123 0.950 . S
C2094 H2076 0.951 . S
C2094 C2095 1.366 . S
C2094 C2096 1.388 . S
C2095 C2094 1.366 . S
C2095 C2099 1.385 . S
C2096 H2077 0.951 . S
C2096 C2094 1.388 . S
C2096 C2097 1.366 . S
C2097 C2096 1.366 . S
C2097 C2098 1.414 . S
C2097 C2100 1.499 . S
C2098 H2078 0.950 . S
C2098 C2097 1.414 . S
C2098 C2099 1.374 . S
C2099 H2079 0.950 . S
C2099 C2095 1.385 . S
C2099 C2098 1.374 . S
C2100 C2097 1.499 . S
C2100 C2101 1.373 . S
C2100 C2102 1.389 . S
C2101 H2080 0.950 . S
C2101 C2100 1.373 . S
C2101 C2117 1.377 . S
C2102 C2100 1.389 . S
C2102 C2103 1.524 . S
C2102 C2116 1.377 . S
C2103 C2102 1.524 . S
C2103 C2104 1.397 . S
C2103 C2108 1.363 . S
C2104 H2081 0.950 . S
C2104 C2103 1.397 . S
C2104 C2105 1.334 . S
C2105 H2082 0.950 . S
C2105 C2104 1.334 . S
C2105 C2106 1.287 . S
C2106 C2105 1.287 . S
C2106 C2107 1.524 . S
C2106 H2125 0.913 . S
C2107 H2083 0.950 . S
C2107 C2106 1.524 . S
C2107 C2108 1.415 . S
C2108 H2084 0.950 . S
C2108 C2103 1.363 . S
C2108 C2107 1.415 . S
C2109 H2085 0.951 . S
C2109 C2110 1.366 . S
C2109 C2111 1.388 . S
C2110 C2109 1.366 . S
C2110 C2114 1.385 . S
C2111 H2086 0.951 . S
C2111 C2109 1.388 . S
C2111 C2112 1.366 . S
C2112 C2111 1.366 . S
C2112 C2113 1.414 . S
C2112 C2115 1.499 . S
C2113 H2087 0.950 . S
C2113 C2112 1.414 . S
C2113 C2114 1.374 . S
C2114 H2088 0.950 . S
C2114 C2110 1.385 . S
C2114 C2113 1.374 . S
C2115 C2112 1.499 . S
C2115 C2116 1.373 . S
C2115 C2117 1.389 . S
C2116 H2089 0.950 . S
C2116 C2102 1.377 . S
C2116 C2115 1.373 . S
C2117 C2101 1.377 . S
C2117 C2115 1.389 . S
C2117 C2118 1.524 . S
C2118 C2117 1.524 . S
C2118 C2119 1.397 . S
C2118 C2123 1.363 . S
C2119 H2090 0.950 . S
C2119 C2118 1.397 . S
C2119 C2120 1.334 . S
C2120 H2091 0.950 . S
C2120 C2119 1.334 . S
C2120 C2121 1.287 . S
C2121 C2120 1.287 . S
C2121 C2122 1.524 . S
C2121 H2124 0.999 . S
C2122 H2092 0.950 . S
C2122 C2121 1.524 . S
C2122 C2123 1.415 . S
C2123 H2093 0.950 . S
C2123 C2118 1.363 . S
C2123 C2122 1.415 . S
H2124 C2121 0.999 . S
H2125 C2106 0.913 . S
H2126 C2144 0.951 . S
H2127 C2146 0.951 . S
H2128 C2148 0.950 . S
H2129 C2149 0.950 . S
H2130 C2151 0.950 . S
H2131 C2154 0.950 . S
H2132 C2155 0.950 . S
H2133 C2157 0.950 . S
H2134 C2158 0.950 . S
H2135 C2159 0.951 . S
H2136 C2161 0.951 . S
H2137 C2163 0.950 . S
H2138 C2164 0.950 . S
H2139 C2166 0.950 . S
H2140 C2169 0.950 . S
H2141 C2170 0.950 . S
H2142 C2172 0.950 . S
H2143 C2173 0.950 . S
C2144 H2126 0.951 . S
C2144 C2145 1.366 . S
C2144 C2146 1.388 . S
C2145 C2144 1.366 . S
C2145 C2149 1.385 . S
C2146 H2127 0.951 . S
C2146 C2144 1.388 . S
C2146 C2147 1.366 . S
C2147 C2146 1.366 . S
C2147 C2148 1.414 . S
C2147 C2150 1.499 . S
C2148 H2128 0.950 . S
C2148 C2147 1.414 . S
C2148 C2149 1.374 . S
C2149 H2129 0.950 . S
C2149 C2145 1.385 . S
C2149 C2148 1.374 . S
C2150 C2147 1.499 . S
C2150 C2151 1.373 . S
C2150 C2152 1.389 . S
C2151 H2130 0.950 . S
C2151 C2150 1.373 . S
C2151 C2167 1.377 . S
C2152 C2150 1.389 . S
C2152 C2153 1.524 . S
C2152 C2166 1.377 . S
C2153 C2152 1.524 . S
C2153 C2154 1.397 . S
C2153 C2158 1.363 . S
C2154 H2131 0.950 . S
C2154 C2153 1.397 . S
C2154 C2155 1.334 . S
C2155 H2132 0.950 . S
C2155 C2154 1.334 . S
C2155 C2156 1.287 . S
C2156 C2155 1.287 . S
C2156 C2157 1.524 . S
C2156 H2175 0.913 . S
C2157 H2133 0.950 . S
C2157 C2156 1.524 . S
C2157 C2158 1.415 . S
C2158 H2134 0.950 . S
C2158 C2153 1.363 . S
C2158 C2157 1.415 . S
C2159 H2135 0.951 . S
C2159 C2160 1.366 . S
C2159 C2161 1.388 . S
C2160 C2159 1.366 . S
C2160 C2164 1.385 . S
C2161 H2136 0.951 . S
C2161 C2159 1.388 . S
C2161 C2162 1.366 . S
C2162 C2161 1.366 . S
C2162 C2163 1.414 . S
C2162 C2165 1.499 . S
C2163 H2137 0.950 . S
C2163 C2162 1.414 . S
C2163 C2164 1.374 . S
C2164 H2138 0.950 . S
C2164 C2160 1.385 . S
C2164 C2163 1.374 . S
C2165 C2162 1.499 . S
C2165 C2166 1.373 . S
C2165 C2167 1.389 . S
C2166 H2139 0.950 . S
C2166 C2152 1.377 . S
C2166 C2165 1.373 . S
C2167 C2151 1.377 . S
C2167 C2165 1.389 . S
C2167 C2168 1.524 . S
C2168 C2167 1.524 . S
C2168 C2169 1.397 . S
C2168 C2173 1.363 . S
C2169 H2140 0.950 . S
C2169 C2168 1.397 . S
C2169 C2170 1.334 . S
C2170 H2141 0.950 . S
C2170 C2169 1.334 . S
C2170 C2171 1.287 . S
C2171 C2170 1.287 . S
C2171 C2172 1.524 . S
C2171 H2174 0.999 . S
C2172 H2142 0.950 . S
C2172 C2171 1.524 . S
C2172 C2173 1.415 . S
C2173 H2143 0.950 . S
C2173 C2168 1.363 . S
C2173 C2172 1.415 . S
H2174 C2171 0.999 . S
H2175 C2156 0.913 . S
H2176 C2194 0.951 . S
H2177 C2196 0.951 . S
H2178 C2198 0.950 . S
H2179 C2199 0.950 . S
H2180 C2201 0.950 . S
H2181 C2204 0.950 . S
H2182 C2205 0.950 . S
H2183 C2207 0.950 . S
H2184 C2208 0.950 . S
H2185 C2209 0.951 . S
H2186 C2211 0.951 . S
H2187 C2213 0.950 . S
H2188 C2214 0.950 . S
H2189 C2216 0.950 . S
H2190 C2219 0.950 . S
H2191 C2220 0.950 . S
H2192 C2222 0.950 . S
H2193 C2223 0.950 . S
C2194 H2176 0.951 . S
C2194 C2195 1.366 . S
C2194 C2196 1.388 . S
C2195 C2194 1.366 . S
C2195 C2199 1.385 . S
C2196 H2177 0.951 . S
C2196 C2194 1.388 . S
C2196 C2197 1.366 . S
C2197 C2196 1.366 . S
C2197 C2198 1.414 . S
C2197 C2200 1.499 . S
C2198 H2178 0.950 . S
C2198 C2197 1.414 . S
C2198 C2199 1.374 . S
C2199 H2179 0.950 . S
C2199 C2195 1.385 . S
C2199 C2198 1.374 . S
C2200 C2197 1.499 . S
C2200 C2201 1.373 . S
C2200 C2202 1.389 . S
C2201 H2180 0.950 . S
C2201 C2200 1.373 . S
C2201 C2217 1.377 . S
C2202 C2200 1.389 . S
C2202 C2203 1.524 . S
C2202 C2216 1.377 . S
C2203 C2202 1.524 . S
C2203 C2204 1.397 . S
C2203 C2208 1.363 . S
C2204 H2181 0.950 . S
C2204 C2203 1.397 . S
C2204 C2205 1.334 . S
C2205 H2182 0.950 . S
C2205 C2204 1.334 . S
C2205 C2206 1.287 . S
C2206 C2205 1.287 . S
C2206 C2207 1.524 . S
C2206 H2225 0.913 . S
C2207 H2183 0.950 . S
C2207 C2206 1.524 . S
C2207 C2208 1.415 . S
C2208 H2184 0.950 . S
C2208 C2203 1.363 . S
C2208 C2207 1.415 . S
C2209 H2185 0.951 . S
C2209 C2210 1.366 . S
C2209 C2211 1.388 . S
C2210 C2209 1.366 . S
C2210 C2214 1.385 . S
C2211 H2186 0.951 . S
C2211 C2209 1.388 . S
C2211 C2212 1.366 . S
C2212 C2211 1.366 . S
C2212 C2213 1.414 . S
C2212 C2215 1.499 . S
C2213 H2187 0.950 . S
C2213 C2212 1.414 . S
C2213 C2214 1.374 . S
C2214 H2188 0.950 . S
C2214 C2210 1.385 . S
C2214 C2213 1.374 . S
C2215 C2212 1.499 . S
C2215 C2216 1.373 . S
C2215 C2217 1.389 . S
C2216 H2189 0.950 . S
C2216 C2202 1.377 . S
C2216 C2215 1.373 . S
C2217 C2201 1.377 . S
C2217 C2215 1.389 . S
C2217 C2218 1.524 . S
C2218 C2217 1.524 . S
C2218 C2219 1.397 . S
C2218 C2223 1.363 . S
C2219 H2190 0.950 . S
C2219 C2218 1.397 . S
C2219 C2220 1.334 . S
C2220 H2191 0.950 . S
C2220 C2219 1.334 . S
C2220 C2221 1.287 . S
C2221 C2220 1.287 . S
C2221 C2222 1.524 . S
C2221 H2224 0.999 . S
C2222 H2192 0.950 . S
C2222 C2221 1.524 . S
C2222 C2223 1.415 . S
C2223 H2193 0.950 . S
C2223 C2218 1.363 . S
C2223 C2222 1.415 . S
H2224 C2221 0.999 . S
H2225 C2206 0.913 . S
H2226 C2244 0.951 . S
H2227 C2246 0.951 . S
H2228 C2248 0.950 . S
H2229 C2249 0.950 . S
H2230 C2251 0.950 . S
H2231 C2254 0.950 . S
H2232 C2255 0.950 . S
H2233 C2257 0.950 . S
H2234 C2258 0.950 . S
H2235 C2259 0.951 . S
H2236 C2261 0.951 . S
H2237 C2263 0.950 . S
H2238 C2264 0.950 . S
H2239 C2266 0.950 . S
H2240 C2269 0.950 . S
H2241 C2270 0.950 . S
H2242 C2272 0.950 . S
H2243 C2273 0.950 . S
C2244 H2226 0.951 . S
C2244 C2245 1.366 . S
C2244 C2246 1.388 . S
C2245 C2244 1.366 . S
C2245 C2249 1.385 . S
C2246 H2227 0.951 . S
C2246 C2244 1.388 . S
C2246 C2247 1.366 . S
C2247 C2246 1.366 . S
C2247 C2248 1.414 . S
C2247 C2250 1.499 . S
C2248 H2228 0.950 . S
C2248 C2247 1.414 . S
C2248 C2249 1.374 . S
C2249 H2229 0.950 . S
C2249 C2245 1.385 . S
C2249 C2248 1.374 . S
C2250 C2247 1.499 . S
C2250 C2251 1.373 . S
C2250 C2252 1.389 . S
C2251 H2230 0.950 . S
C2251 C2250 1.373 . S
C2251 C2267 1.377 . S
C2252 C2250 1.389 . S
C2252 C2253 1.524 . S
C2252 C2266 1.377 . S
C2253 C2252 1.524 . S
C2253 C2254 1.397 . S
C2253 C2258 1.363 . S
C2254 H2231 0.950 . S
C2254 C2253 1.397 . S
C2254 C2255 1.334 . S
C2255 H2232 0.950 . S
C2255 C2254 1.334 . S
C2255 C2256 1.287 . S
C2256 C2255 1.287 . S
C2256 C2257 1.524 . S
C2256 H2275 0.913 . S
C2257 H2233 0.950 . S
C2257 C2256 1.524 . S
C2257 C2258 1.415 . S
C2258 H2234 0.950 . S
C2258 C2253 1.363 . S
C2258 C2257 1.415 . S
C2259 H2235 0.951 . S
C2259 C2260 1.366 . S
C2259 C2261 1.388 . S
C2260 C2259 1.366 . S
C2260 C2264 1.385 . S
C2261 H2236 0.951 . S
C2261 C2259 1.388 . S
C2261 C2262 1.366 . S
C2262 C2261 1.366 . S
C2262 C2263 1.414 . S
C2262 C2265 1.499 . S
C2263 H2237 0.950 . S
C2263 C2262 1.414 . S
C2263 C2264 1.374 . S
C2264 H2238 0.950 . S
C2264 C2260 1.385 . S
C2264 C2263 1.374 . S
C2265 C2262 1.499 . S
C2265 C2266 1.373 . S
C2265 C2267 1.389 . S
C2266 H2239 0.950 . S
C2266 C2252 1.377 . S
C2266 C2265 1.373 . S
C2267 C2251 1.377 . S
C2267 C2265 1.389 . S
C2267 C2268 1.524 . S
C2268 C2267 1.524 . S
C2268 C2269 1.397 . S
C2268 C2273 1.363 . S
C2269 H2240 0.950 . S
C2269 C2268 1.397 . S
C2269 C2270 1.334 . S
C2270 H2241 0.950 . S
C2270 C2269 1.334 . S
C2270 C2271 1.287 . S
C2271 C2270 1.287 . S
C2271 C2272 1.524 . S
C2271 H2274 0.999 . S
C2272 H2242 0.950 . S
C2272 C2271 1.524 . S
C2272 C2273 1.415 . S
C2273 H2243 0.950 . S
C2273 C2268 1.363 . S
C2273 C2272 1.415 . S
H2274 C2271 0.999 . S
H2275 C2256 0.913 . S
H2276 C2294 0.951 . S
H2277 C2296 0.951 . S
H2278 C2298 0.950 . S
H2279 C2299 0.950 . S
H2280 C2301 0.950 . S
H2281 C2304 0.950 . S
H2282 C2305 0.950 . S
H2283 C2307 0.950 . S
H2284 C2308 0.950 . S
H2285 C2309 0.951 . S
H2286 C2311 0.951 . S
H2287 C2313 0.950 . S
H2288 C2314 0.950 . S
H2289 C2316 0.950 . S
H2290 C2319 0.950 . S
H2291 C2320 0.950 . S
H2292 C2322 0.950 . S
H2293 C2323 0.950 . S
C2294 H2276 0.951 . S
C2294 C2295 1.366 . S
C2294 C2296 1.388 . S
C2295 C2294 1.366 . S
C2295 C2299 1.385 . S
C2296 H2277 0.951 . S
C2296 C2294 1.388 . S
C2296 C2297 1.366 . S
C2297 C2296 1.366 . S
C2297 C2298 1.414 . S
C2297 C2300 1.499 . S
C2298 H2278 0.950 . S
C2298 C2297 1.414 . S
C2298 C2299 1.374 . S
C2299 H2279 0.950 . S
C2299 C2295 1.385 . S
C2299 C2298 1.374 . S
C2300 C2297 1.499 . S
C2300 C2301 1.373 . S
C2300 C2302 1.389 . S
C2301 H2280 0.950 . S
C2301 C2300 1.373 . S
C2301 C2317 1.377 . S
C2302 C2300 1.389 . S
C2302 C2303 1.524 . S
C2302 C2316 1.377 . S
C2303 C2302 1.524 . S
C2303 C2304 1.397 . S
C2303 C2308 1.363 . S
C2304 H2281 0.950 . S
C2304 C2303 1.397 . S
C2304 C2305 1.334 . S
C2305 H2282 0.950 . S
C2305 C2304 1.334 . S
C2305 C2306 1.287 . S
C2306 C2305 1.287 . S
C2306 C2307 1.524 . S
C2306 H2325 0.913 . S
C2307 H2283 0.950 . S
C2307 C2306 1.524 . S
C2307 C2308 1.415 . S
C2308 H2284 0.950 . S
C2308 C2303 1.363 . S
C2308 C2307 1.415 . S
C2309 H2285 0.951 . S
C2309 C2310 1.366 . S
C2309 C2311 1.388 . S
C2310 C2309 1.366 . S
C2310 C2314 1.385 . S
C2311 H2286 0.951 . S
C2311 C2309 1.388 . S
C2311 C2312 1.366 . S
C2312 C2311 1.366 . S
C2312 C2313 1.414 . S
C2312 C2315 1.499 . S
C2313 H2287 0.950 . S
C2313 C2312 1.414 . S
C2313 C2314 1.374 . S
C2314 H2288 0.950 . S
C2314 C2310 1.385 . S
C2314 C2313 1.374 . S
C2315 C2312 1.499 . S
C2315 C2316 1.373 . S
C2315 C2317 1.389 . S
C2316 H2289 0.950 . S
C2316 C2302 1.377 . S
C2316 C2315 1.373 . S
C2317 C2301 1.377 . S
C2317 C2315 1.389 . S
C2317 C2318 1.524 . S
C2318 C2317 1.524 . S
C2318 C2319 1.397 . S
C2318 C2323 1.363 . S
C2319 H2290 0.950 . S
C2319 C2318 1.397 . S
C2319 C2320 1.334 . S
C2320 H2291 0.950 . S
C2320 C2319 1.334 . S
C2320 C2321 1.287 . S
C2321 C2320 1.287 . S
C2321 C2322 1.524 . S
C2321 H2324 0.999 . S
C2322 H2292 0.950 . S
C2322 C2321 1.524 . S
C2322 C2323 1.415 . S
C2323 H2293 0.950 . S
C2323 C2318 1.363 . S
C2323 C2322 1.415 . S
H2324 C2321 0.999 . S
H2325 C2306 0.913 . S
H2326 C2344 0.951 . S
H2327 C2346 0.951 . S
H2328 C2348 0.950 . S
H2329 C2349 0.950 . S
H2330 C2351 0.950 . S
H2331 C2354 0.950 . S
H2332 C2355 0.950 . S
H2333 C2357 0.950 . S
H2334 C2358 0.950 . S
H2335 C2359 0.951 . S
H2336 C2361 0.951 . S
H2337 C2363 0.950 . S
H2338 C2364 0.950 . S
H2339 C2366 0.950 . S
H2340 C2369 0.950 . S
H2341 C2370 0.950 . S
H2342 C2372 0.950 . S
H2343 C2373 0.950 . S
C2344 H2326 0.951 . S
C2344 C2345 1.366 . S
C2344 C2346 1.388 . S
C2345 C2344 1.366 . S
C2345 C2349 1.385 . S
C2346 H2327 0.951 . S
C2346 C2344 1.388 . S
C2346 C2347 1.366 . S
C2347 C2346 1.366 . S
C2347 C2348 1.414 . S
C2347 C2350 1.499 . S
C2348 H2328 0.950 . S
C2348 C2347 1.414 . S
C2348 C2349 1.374 . S
C2349 H2329 0.950 . S
C2349 C2345 1.385 . S
C2349 C2348 1.374 . S
C2350 C2347 1.499 . S
C2350 C2351 1.373 . S
C2350 C2352 1.389 . S
C2351 H2330 0.950 . S
C2351 C2350 1.373 . S
C2351 C2367 1.377 . S
C2352 C2350 1.389 . S
C2352 C2353 1.524 . S
C2352 C2366 1.377 . S
C2353 C2352 1.524 . S
C2353 C2354 1.397 . S
C2353 C2358 1.363 . S
C2354 H2331 0.950 . S
C2354 C2353 1.397 . S
C2354 C2355 1.334 . S
C2355 H2332 0.950 . S
C2355 C2354 1.334 . S
C2355 C2356 1.287 . S
C2356 C2355 1.287 . S
C2356 C2357 1.524 . S
C2356 H2375 0.913 . S
C2357 H2333 0.950 . S
C2357 C2356 1.524 . S
C2357 C2358 1.415 . S
C2358 H2334 0.950 . S
C2358 C2353 1.363 . S
C2358 C2357 1.415 . S
C2359 H2335 0.951 . S
C2359 C2360 1.366 . S
C2359 C2361 1.388 . S
C2360 C2359 1.366 . S
C2360 C2364 1.385 . S
C2361 H2336 0.951 . S
C2361 C2359 1.388 . S
C2361 C2362 1.366 . S
C2362 C2361 1.366 . S
C2362 C2363 1.414 . S
C2362 C2365 1.499 . S
C2363 H2337 0.950 . S
C2363 C2362 1.414 . S
C2363 C2364 1.374 . S
C2364 H2338 0.950 . S
C2364 C2360 1.385 . S
C2364 C2363 1.374 . S
C2365 C2362 1.499 . S
C2365 C2366 1.373 . S
C2365 C2367 1.389 . S
C2366 H2339 0.950 . S
C2366 C2352 1.377 . S
C2366 C2365 1.373 . S
C2367 C2351 1.377 . S
C2367 C2365 1.389 . S
C2367 C2368 1.524 . S
C2368 C2367 1.524 . S
C2368 C2369 1.397 . S
C2368 C2373 1.363 . S
C2369 H2340 0.950 . S
C2369 C2368 1.397 . S
C2369 C2370 1.334 . S
C2370 H2341 0.950 . S
C2370 C2369 1.334 . S
C2370 C2371 1.287 . S
C2371 C2370 1.287 . S
C2371 C2372 1.524 . S
C2371 H2374 0.999 . S
C2372 H2342 0.950 . S
C2372 C2371 1.524 . S
C2372 C2373 1.415 . S
C2373 H2343 0.950 . S
C2373 C2368 1.363 . S
C2373 C2372 1.415 . S
H2374 C2371 0.999 . S
H2375 C2356 0.913 . S
H2376 C2394 0.951 . S
H2377 C2396 0.951 . S
H2378 C2398 0.950 . S
H2379 C2399 0.950 . S
H2380 C2401 0.950 . S
H2381 C2404 0.950 . S
H2382 C2405 0.950 . S
H2383 C2407 0.950 1_556 S
H2384 C2408 0.950 . S
H2385 C2409 0.951 . S
H2386 C2411 0.951 . S
H2387 C2413 0.950 . S
H2388 C2414 0.950 . S
H2389 C2416 0.950 . S
H2390 C2419 0.950 . S
H2391 C2420 0.950 . S
H2392 C2422 0.950 . S
H2393 C2423 0.950 . S
C2394 H2376 0.951 . S
C2394 C2395 1.366 . S
C2394 C2396 1.388 . S
C2395 C2394 1.366 . S
C2395 C2399 1.385 . S
C2396 H2377 0.951 . S
C2396 C2394 1.388 . S
C2396 C2397 1.366 . S
C2397 C2396 1.366 . S
C2397 C2398 1.414 . S
C2397 C2400 1.499 . S
C2398 H2378 0.950 . S
C2398 C2397 1.414 . S
C2398 C2399 1.374 . S
C2399 H2379 0.950 . S
C2399 C2395 1.385 . S
C2399 C2398 1.374 . S
C2400 C2397 1.499 . S
C2400 C2401 1.373 . S
C2400 C2402 1.389 . S
C2401 H2380 0.950 . S
C2401 C2400 1.373 . S
C2401 C2417 1.377 . S
C2402 C2400 1.389 . S
C2402 C2403 1.524 . S
C2402 C2416 1.377 . S
C2403 C2402 1.524 . S
C2403 C2404 1.397 . S
C2403 C2408 1.363 . S
C2404 H2381 0.950 . S
C2404 C2403 1.397 . S
C2404 C2405 1.334 1_554 S
C2405 H2382 0.950 . S
C2405 C2404 1.334 1_556 S
C2405 C2406 1.287 . S
C2406 C2405 1.287 . S
C2406 C2407 1.524 1_556 S
C2406 H2425 0.913 . S
C2407 H2383 0.950 1_554 S
C2407 C2406 1.524 1_554 S
C2407 C2408 1.415 . S
C2408 H2384 0.950 . S
C2408 C2403 1.363 . S
C2408 C2407 1.415 . S
C2409 H2385 0.951 . S
C2409 C2410 1.366 . S
C2409 C2411 1.388 . S
C2410 C2409 1.366 . S
C2410 C2414 1.385 . S
C2411 H2386 0.951 . S
C2411 C2409 1.388 . S
C2411 C2412 1.366 . S
C2412 C2411 1.366 . S
C2412 C2413 1.414 . S
C2412 C2415 1.499 . S
C2413 H2387 0.950 . S
C2413 C2412 1.414 . S
C2413 C2414 1.374 . S
C2414 H2388 0.950 . S
C2414 C2410 1.385 . S
C2414 C2413 1.374 . S
C2415 C2412 1.499 . S
C2415 C2416 1.373 . S
C2415 C2417 1.389 . S
C2416 H2389 0.950 . S
C2416 C2402 1.377 . S
C2416 C2415 1.373 . S
C2417 C2401 1.377 . S
C2417 C2415 1.389 . S
C2417 C2418 1.524 . S
C2418 C2417 1.524 . S
C2418 C2419 1.397 . S
C2418 C2423 1.363 . S
C2419 H2390 0.950 . S
C2419 C2418 1.397 . S
C2419 C2420 1.334 . S
C2420 H2391 0.950 . S
C2420 C2419 1.334 . S
C2420 C2421 1.287 . S
C2421 C2420 1.287 . S
C2421 C2422 1.524 . S
C2421 H2424 0.999 . S
C2422 H2392 0.950 . S
C2422 C2421 1.524 . S
C2422 C2423 1.415 . S
C2423 H2393 0.950 . S
C2423 C2418 1.363 . S
C2423 C2422 1.415 . S
H2424 C2421 0.999 . S
H2425 C2406 0.913 . S
H2426 C2444 0.951 . S
H2427 C2446 0.951 . S
H2428 C2448 0.950 . S
H2429 C2449 0.950 . S
H2430 C2451 0.950 . S
H2431 C2454 0.950 . S
H2432 C2455 0.950 . S
H2433 C2457 0.950 . S
H2434 C2458 0.950 . S
H2435 C2459 0.951 . S
H2436 C2461 0.951 . S
H2437 C2463 0.950 . S
H2438 C2464 0.950 . S
H2439 C2466 0.950 . S
H2440 C2469 0.950 . S
H2441 C2470 0.950 . S
H2442 C2472 0.950 . S
H2443 C2473 0.950 . S
C2444 H2426 0.951 . S
C2444 C2445 1.366 . S
C2444 C2446 1.388 . S
C2445 C2444 1.366 . S
C2445 C2449 1.385 . S
C2446 H2427 0.951 . S
C2446 C2444 1.388 . S
C2446 C2447 1.366 . S
C2447 C2446 1.366 . S
C2447 C2448 1.414 . S
C2447 C2450 1.499 . S
C2448 H2428 0.950 . S
C2448 C2447 1.414 . S
C2448 C2449 1.374 . S
C2449 H2429 0.950 . S
C2449 C2445 1.385 . S
C2449 C2448 1.374 . S
C2450 C2447 1.499 . S
C2450 C2451 1.373 . S
C2450 C2452 1.389 . S
C2451 H2430 0.950 . S
C2451 C2450 1.373 . S
C2451 C2467 1.377 . S
C2452 C2450 1.389 . S
C2452 C2453 1.524 . S
C2452 C2466 1.377 . S
C2453 C2452 1.524 . S
C2453 C2454 1.397 . S
C2453 C2458 1.363 . S
C2454 H2431 0.950 . S
C2454 C2453 1.397 . S
C2454 C2455 1.334 . S
C2455 H2432 0.950 . S
C2455 C2454 1.334 . S
C2455 C2456 1.287 . S
C2456 C2455 1.287 . S
C2456 C2457 1.524 . S
C2456 H2475 0.913 . S
C2457 H2433 0.950 . S
C2457 C2456 1.524 . S
C2457 C2458 1.415 . S
C2458 H2434 0.950 . S
C2458 C2453 1.363 . S
C2458 C2457 1.415 . S
C2459 H2435 0.951 . S
C2459 C2460 1.366 . S
C2459 C2461 1.388 . S
C2460 C2459 1.366 . S
C2460 C2464 1.385 . S
C2461 H2436 0.951 . S
C2461 C2459 1.388 . S
C2461 C2462 1.366 . S
C2462 C2461 1.366 . S
C2462 C2463 1.414 . S
C2462 C2465 1.499 . S
C2463 H2437 0.950 . S
C2463 C2462 1.414 . S
C2463 C2464 1.374 . S
C2464 H2438 0.950 . S
C2464 C2460 1.385 . S
C2464 C2463 1.374 . S
C2465 C2462 1.499 . S
C2465 C2466 1.373 . S
C2465 C2467 1.389 . S
C2466 H2439 0.950 . S
C2466 C2452 1.377 . S
C2466 C2465 1.373 . S
C2467 C2451 1.377 . S
C2467 C2465 1.389 . S
C2467 C2468 1.524 . S
C2468 C2467 1.524 . S
C2468 C2469 1.397 . S
C2468 C2473 1.363 . S
C2469 H2440 0.950 . S
C2469 C2468 1.397 . S
C2469 C2470 1.334 . S
C2470 H2441 0.950 . S
C2470 C2469 1.334 . S
C2470 C2471 1.287 . S
C2471 C2470 1.287 . S
C2471 C2472 1.524 . S
C2471 H2474 0.999 . S
C2472 H2442 0.950 . S
C2472 C2471 1.524 . S
C2472 C2473 1.415 . S
C2473 H2443 0.950 . S
C2473 C2468 1.363 . S
C2473 C2472 1.415 . S
H2474 C2471 0.999 . S
H2475 C2456 0.913 . S
H2476 C2494 0.951 . S
H2477 C2496 0.951 . S
H2478 C2498 0.950 . S
H2479 C2499 0.950 . S
H2480 C2501 0.950 . S
H2481 C2504 0.950 . S
H2482 C2505 0.950 . S
H2483 C2507 0.950 . S
H2484 C2508 0.950 . S
H2485 C2509 0.951 . S
H2486 C2511 0.951 . S
H2487 C2513 0.950 . S
H2488 C2514 0.950 . S
H2489 C2516 0.950 . S
H2490 C2519 0.950 . S
H2491 C2520 0.950 . S
H2492 C2522 0.950 . S
H2493 C2523 0.950 . S
C2494 H2476 0.951 . S
C2494 C2495 1.366 . S
C2494 C2496 1.388 . S
C2495 C2494 1.366 . S
C2495 C2499 1.385 . S
C2496 H2477 0.951 . S
C2496 C2494 1.388 . S
C2496 C2497 1.366 . S
C2497 C2496 1.366 . S
C2497 C2498 1.414 . S
C2497 C2500 1.499 . S
C2498 H2478 0.950 . S
C2498 C2497 1.414 . S
C2498 C2499 1.374 . S
C2499 H2479 0.950 . S
C2499 C2495 1.385 . S
C2499 C2498 1.374 . S
C2500 C2497 1.499 . S
C2500 C2501 1.373 . S
C2500 C2502 1.389 . S
C2501 H2480 0.950 . S
C2501 C2500 1.373 . S
C2501 C2517 1.377 . S
C2502 C2500 1.389 . S
C2502 C2503 1.524 . S
C2502 C2516 1.377 . S
C2503 C2502 1.524 . S
C2503 C2504 1.397 . S
C2503 C2508 1.363 . S
C2504 H2481 0.950 . S
C2504 C2503 1.397 . S
C2504 C2505 1.334 . S
C2505 H2482 0.950 . S
C2505 C2504 1.334 . S
C2505 C2506 1.287 . S
C2506 C2505 1.287 . S
C2506 C2507 1.524 . S
C2506 H2525 0.913 . S
C2507 H2483 0.950 . S
C2507 C2506 1.524 . S
C2507 C2508 1.415 . S
C2508 H2484 0.950 . S
C2508 C2503 1.363 . S
C2508 C2507 1.415 . S
C2509 H2485 0.951 . S
C2509 C2510 1.366 . S
C2509 C2511 1.388 . S
C2510 C2509 1.366 . S
C2510 C2514 1.385 . S
C2511 H2486 0.951 . S
C2511 C2509 1.388 . S
C2511 C2512 1.366 . S
C2512 C2511 1.366 . S
C2512 C2513 1.414 . S
C2512 C2515 1.499 . S
C2513 H2487 0.950 . S
C2513 C2512 1.414 . S
C2513 C2514 1.374 . S
C2514 H2488 0.950 . S
C2514 C2510 1.385 . S
C2514 C2513 1.374 . S
C2515 C2512 1.499 . S
C2515 C2516 1.373 . S
C2515 C2517 1.389 . S
C2516 H2489 0.950 . S
C2516 C2502 1.377 . S
C2516 C2515 1.373 . S
C2517 C2501 1.377 . S
C2517 C2515 1.389 . S
C2517 C2518 1.524 . S
C2518 C2517 1.524 . S
C2518 C2519 1.397 . S
C2518 C2523 1.363 . S
C2519 H2490 0.950 . S
C2519 C2518 1.397 . S
C2519 C2520 1.334 . S
C2520 H2491 0.950 . S
C2520 C2519 1.334 . S
C2520 C2521 1.287 . S
C2521 C2520 1.287 . S
C2521 C2522 1.524 . S
C2521 H2524 0.999 . S
C2522 H2492 0.950 . S
C2522 C2521 1.524 . S
C2522 C2523 1.415 . S
C2523 H2493 0.950 . S
C2523 C2518 1.363 . S
C2523 C2522 1.415 . S
H2524 C2521 0.999 . S
H2525 C2506 0.913 . S
H2526 C2544 0.951 1_554 S
H2527 C2546 0.951 . S
H2528 C2548 0.950 . S
H2529 C2549 0.950 . S
H2530 C2551 0.950 . S
H2531 C2554 0.950 . S
H2532 C2555 0.950 . S
H2533 C2557 0.950 . S
H2534 C2558 0.950 . S
H2535 C2559 0.951 . S
H2536 C2561 0.951 . S
H2537 C2563 0.950 . S
H2538 C2564 0.950 . S
H2539 C2566 0.950 . S
H2540 C2569 0.950 . S
H2541 C2570 0.950 . S
H2542 C2572 0.950 . S
H2543 C2573 0.950 . S
C2544 H2526 0.951 1_556 S
C2544 C2545 1.366 . S
C2544 C2546 1.388 . S
C2545 C2544 1.366 . S
C2545 C2549 1.385 . S
C2546 H2527 0.951 . S
C2546 C2544 1.388 . S
C2546 C2547 1.366 . S
C2547 C2546 1.366 . S
C2547 C2548 1.414 . S
C2547 C2550 1.499 . S
C2548 H2528 0.950 . S
C2548 C2547 1.414 . S
C2548 C2549 1.374 . S
C2549 H2529 0.950 . S
C2549 C2545 1.385 . S
C2549 C2548 1.374 . S
C2550 C2547 1.499 . S
C2550 C2551 1.373 . S
C2550 C2552 1.389 . S
C2551 H2530 0.950 . S
C2551 C2550 1.373 . S
C2551 C2567 1.377 . S
C2552 C2550 1.389 . S
C2552 C2553 1.524 . S
C2552 C2566 1.377 . S
C2553 C2552 1.524 . S
C2553 C2554 1.397 . S
C2553 C2558 1.363 . S
C2554 H2531 0.950 . S
C2554 C2553 1.397 . S
C2554 C2555 1.334 . S
C2555 H2532 0.950 . S
C2555 C2554 1.334 . S
C2555 C2556 1.287 . S
C2556 C2555 1.287 . S
C2556 C2557 1.524 . S
C2556 H2575 0.913 . S
C2557 H2533 0.950 . S
C2557 C2556 1.524 . S
C2557 C2558 1.415 . S
C2558 H2534 0.950 . S
C2558 C2553 1.363 . S
C2558 C2557 1.415 . S
C2559 H2535 0.951 . S
C2559 C2560 1.366 . S
C2559 C2561 1.388 . S
C2560 C2559 1.366 . S
C2560 C2564 1.385 . S
C2561 H2536 0.951 . S
C2561 C2559 1.388 . S
C2561 C2562 1.366 . S
C2562 C2561 1.366 . S
C2562 C2563 1.414 . S
C2562 C2565 1.499 . S
C2563 H2537 0.950 . S
C2563 C2562 1.414 . S
C2563 C2564 1.374 . S
C2564 H2538 0.950 . S
C2564 C2560 1.385 . S
C2564 C2563 1.374 . S
C2565 C2562 1.499 . S
C2565 C2566 1.373 . S
C2565 C2567 1.389 . S
C2566 H2539 0.950 . S
C2566 C2552 1.377 . S
C2566 C2565 1.373 . S
C2567 C2551 1.377 . S
C2567 C2565 1.389 . S
C2567 C2568 1.524 . S
C2568 C2567 1.524 . S
C2568 C2569 1.397 . S
C2568 C2573 1.363 . S
C2569 H2540 0.950 . S
C2569 C2568 1.397 . S
C2569 C2570 1.334 . S
C2570 H2541 0.950 . S
C2570 C2569 1.334 . S
C2570 C2571 1.287 . S
C2571 C2570 1.287 . S
C2571 C2572 1.524 . S
C2571 H2574 0.999 . S
C2572 H2542 0.950 . S
C2572 C2571 1.524 . S
C2572 C2573 1.415 . S
C2573 H2543 0.950 . S
C2573 C2568 1.363 . S
C2573 C2572 1.415 . S
H2574 C2571 0.999 . S
H2575 C2556 0.913 . S
H2576 C2594 0.951 1_554 S
H2577 C2596 0.951 . S
H2578 C2598 0.950 . S
H2579 C2599 0.950 . S
H2580 C2601 0.950 . S
H2581 C2604 0.950 . S
H2582 C2605 0.950 . S
H2583 C2607 0.950 . S
H2584 C2608 0.950 . S
H2585 C2609 0.951 . S
H2586 C2611 0.951 . S
H2587 C2613 0.950 . S
H2588 C2614 0.950 . S
H2589 C2616 0.950 . S
H2590 C2619 0.950 . S
H2591 C2620 0.950 . S
H2592 C2622 0.950 . S
H2593 C2623 0.950 . S
C2594 H2576 0.951 1_556 S
C2594 C2595 1.366 . S
C2594 C2596 1.388 . S
C2595 C2594 1.366 . S
C2595 C2599 1.385 . S
C2596 H2577 0.951 . S
C2596 C2594 1.388 . S
C2596 C2597 1.366 . S
C2597 C2596 1.366 . S
C2597 C2598 1.414 . S
C2597 C2600 1.499 . S
C2598 H2578 0.950 . S
C2598 C2597 1.414 . S
C2598 C2599 1.374 . S
C2599 H2579 0.950 . S
C2599 C2595 1.385 . S
C2599 C2598 1.374 . S
C2600 C2597 1.499 . S
C2600 C2601 1.373 . S
C2600 C2602 1.389 . S
C2601 H2580 0.950 . S
C2601 C2600 1.373 . S
C2601 C2617 1.377 . S
C2602 C2600 1.389 . S
C2602 C2603 1.524 . S
C2602 C2616 1.377 . S
C2603 C2602 1.524 . S
C2603 C2604 1.397 . S
C2603 C2608 1.363 . S
C2604 H2581 0.950 . S
C2604 C2603 1.397 . S
C2604 C2605 1.334 . S
C2605 H2582 0.950 . S
C2605 C2604 1.334 . S
C2605 C2606 1.287 . S
C2606 C2605 1.287 . S
C2606 C2607 1.524 . S
C2606 H2625 0.913 . S
C2607 H2583 0.950 . S
C2607 C2606 1.524 . S
C2607 C2608 1.415 . S
C2608 H2584 0.950 . S
C2608 C2603 1.363 . S
C2608 C2607 1.415 . S
C2609 H2585 0.951 . S
C2609 C2610 1.366 . S
C2609 C2611 1.388 . S
C2610 C2609 1.366 . S
C2610 C2614 1.385 . S
C2611 H2586 0.951 . S
C2611 C2609 1.388 . S
C2611 C2612 1.366 . S
C2612 C2611 1.366 . S
C2612 C2613 1.414 . S
C2612 C2615 1.499 . S
C2613 H2587 0.950 . S
C2613 C2612 1.414 . S
C2613 C2614 1.374 . S
C2614 H2588 0.950 . S
C2614 C2610 1.385 . S
C2614 C2613 1.374 . S
C2615 C2612 1.499 . S
C2615 C2616 1.373 . S
C2615 C2617 1.389 . S
C2616 H2589 0.950 . S
C2616 C2602 1.377 . S
C2616 C2615 1.373 . S
C2617 C2601 1.377 . S
C2617 C2615 1.389 . S
C2617 C2618 1.524 . S
C2618 C2617 1.524 . S
C2618 C2619 1.397 . S
C2618 C2623 1.363 . S
C2619 H2590 0.950 . S
C2619 C2618 1.397 . S
C2619 C2620 1.334 . S
C2620 H2591 0.950 . S
C2620 C2619 1.334 . S
C2620 C2621 1.287 . S
C2621 C2620 1.287 . S
C2621 C2622 1.524 . S
C2621 H2624 0.999 . S
C2622 H2592 0.950 . S
C2622 C2621 1.524 . S
C2622 C2623 1.415 . S
C2623 H2593 0.950 . S
C2623 C2618 1.363 . S
C2623 C2622 1.415 . S
H2624 C2621 0.999 . S
H2625 C2606 0.913 . S
H2626 C2644 0.951 . S
H2627 C2646 0.951 . S
H2628 C2648 0.950 . S
H2629 C2649 0.950 1_554 S
H2630 C2651 0.950 . S
H2631 C2654 0.950 . S
H2632 C2655 0.950 . S
H2633 C2657 0.950 . S
H2634 C2658 0.950 . S
H2635 C2659 0.951 . S
H2636 C2661 0.951 . S
H2637 C2663 0.950 . S
H2638 C2664 0.950 . S
H2639 C2666 0.950 . S
H2640 C2669 0.950 . S
H2641 C2670 0.950 . S
H2642 C2672 0.950 . S
H2643 C2673 0.950 . S
C2644 H2626 0.951 . S
C2644 C2645 1.366 . S
C2644 C2646 1.388 . S
C2645 C2644 1.366 . S
C2645 C2649 1.385 . S
C2646 H2627 0.951 . S
C2646 C2644 1.388 . S
C2646 C2647 1.366 . S
C2647 C2646 1.366 . S
C2647 C2648 1.414 . S
C2647 C2650 1.499 . S
C2648 H2628 0.950 . S
C2648 C2647 1.414 . S
C2648 C2649 1.374 . S
C2649 H2629 0.950 1_556 S
C2649 C2645 1.385 . S
C2649 C2648 1.374 . S
C2650 C2647 1.499 . S
C2650 C2651 1.373 . S
C2650 C2652 1.389 . S
C2651 H2630 0.950 . S
C2651 C2650 1.373 . S
C2651 C2667 1.377 . S
C2652 C2650 1.389 . S
C2652 C2653 1.524 . S
C2652 C2666 1.377 . S
C2653 C2652 1.524 . S
C2653 C2654 1.397 . S
C2653 C2658 1.363 . S
C2654 H2631 0.950 . S
C2654 C2653 1.397 . S
C2654 C2655 1.334 . S
C2655 H2632 0.950 . S
C2655 C2654 1.334 . S
C2655 C2656 1.287 . S
C2656 C2655 1.287 . S
C2656 C2657 1.524 . S
C2656 H2675 0.913 . S
C2657 H2633 0.950 . S
C2657 C2656 1.524 . S
C2657 C2658 1.415 . S
C2658 H2634 0.950 . S
C2658 C2653 1.363 . S
C2658 C2657 1.415 . S
C2659 H2635 0.951 . S
C2659 C2660 1.366 . S
C2659 C2661 1.388 . S
C2660 C2659 1.366 . S
C2660 C2664 1.385 . S
C2661 H2636 0.951 . S
C2661 C2659 1.388 . S
C2661 C2662 1.366 . S
C2662 C2661 1.366 . S
C2662 C2663 1.414 . S
C2662 C2665 1.499 . S
C2663 H2637 0.950 . S
C2663 C2662 1.414 . S
C2663 C2664 1.374 . S
C2664 H2638 0.950 . S
C2664 C2660 1.385 . S
C2664 C2663 1.374 . S
C2665 C2662 1.499 . S
C2665 C2666 1.373 . S
C2665 C2667 1.389 . S
C2666 H2639 0.950 . S
C2666 C2652 1.377 . S
C2666 C2665 1.373 . S
C2667 C2651 1.377 . S
C2667 C2665 1.389 . S
C2667 C2668 1.524 . S
C2668 C2667 1.524 . S
C2668 C2669 1.397 . S
C2668 C2673 1.363 . S
C2669 H2640 0.950 . S
C2669 C2668 1.397 . S
C2669 C2670 1.334 . S
C2670 H2641 0.950 . S
C2670 C2669 1.334 . S
C2670 C2671 1.287 1_556 S
C2671 C2670 1.287 1_554 S
C2671 C2672 1.524 . S
C2671 H2674 0.999 . S
C2672 H2642 0.950 . S
C2672 C2671 1.524 . S
C2672 C2673 1.415 1_554 S
C2673 H2643 0.950 . S
C2673 C2668 1.363 . S
C2673 C2672 1.415 1_556 S
H2674 C2671 0.999 . S
H2675 C2656 0.913 . S
H2676 C2694 0.951 1_554 S
H2677 C2696 0.951 . S
H2678 C2698 0.950 . S
H2679 C2699 0.950 . S
H2680 C2701 0.950 . S
H2681 C2704 0.950 . S
H2682 C2705 0.950 . S
H2683 C2707 0.950 . S
H2684 C2708 0.950 . S
H2685 C2709 0.951 . S
H2686 C2711 0.951 . S
H2687 C2713 0.950 . S
H2688 C2714 0.950 . S
H2689 C2716 0.950 . S
H2690 C2719 0.950 . S
H2691 C2720 0.950 . S
H2692 C2722 0.950 . S
H2693 C2723 0.950 . S
C2694 H2676 0.951 1_556 S
C2694 C2695 1.366 . S
C2694 C2696 1.388 . S
C2695 C2694 1.366 . S
C2695 C2699 1.385 . S
C2696 H2677 0.951 . S
C2696 C2694 1.388 . S
C2696 C2697 1.366 . S
C2697 C2696 1.366 . S
C2697 C2698 1.414 . S
C2697 C2700 1.499 . S
C2698 H2678 0.950 . S
C2698 C2697 1.414 . S
C2698 C2699 1.374 . S
C2699 H2679 0.950 . S
C2699 C2695 1.385 . S
C2699 C2698 1.374 . S
C2700 C2697 1.499 . S
C2700 C2701 1.373 . S
C2700 C2702 1.389 . S
C2701 H2680 0.950 . S
C2701 C2700 1.373 . S
C2701 C2717 1.377 . S
C2702 C2700 1.389 . S
C2702 C2703 1.524 . S
C2702 C2716 1.377 . S
C2703 C2702 1.524 . S
C2703 C2704 1.397 . S
C2703 C2708 1.363 . S
C2704 H2681 0.950 . S
C2704 C2703 1.397 . S
C2704 C2705 1.334 . S
C2705 H2682 0.950 . S
C2705 C2704 1.334 . S
C2705 C2706 1.287 . S
C2706 C2705 1.287 . S
C2706 C2707 1.524 . S
C2706 H2725 0.913 . S
C2707 H2683 0.950 . S
C2707 C2706 1.524 . S
C2707 C2708 1.415 . S
C2708 H2684 0.950 . S
C2708 C2703 1.363 . S
C2708 C2707 1.415 . S
C2709 H2685 0.951 . S
C2709 C2710 1.366 . S
C2709 C2711 1.388 . S
C2710 C2709 1.366 . S
C2710 C2714 1.385 . S
C2711 H2686 0.951 . S
C2711 C2709 1.388 . S
C2711 C2712 1.366 . S
C2712 C2711 1.366 . S
C2712 C2713 1.414 . S
C2712 C2715 1.499 . S
C2713 H2687 0.950 . S
C2713 C2712 1.414 . S
C2713 C2714 1.374 . S
C2714 H2688 0.950 . S
C2714 C2710 1.385 . S
C2714 C2713 1.374 . S
C2715 C2712 1.499 . S
C2715 C2716 1.373 . S
C2715 C2717 1.389 . S
C2716 H2689 0.950 . S
C2716 C2702 1.377 . S
C2716 C2715 1.373 . S
C2717 C2701 1.377 . S
C2717 C2715 1.389 . S
C2717 C2718 1.524 . S
C2718 C2717 1.524 . S
C2718 C2719 1.397 . S
C2718 C2723 1.363 . S
C2719 H2690 0.950 . S
C2719 C2718 1.397 . S
C2719 C2720 1.334 . S
C2720 H2691 0.950 . S
C2720 C2719 1.334 . S
C2720 C2721 1.287 . S
C2721 C2720 1.287 . S
C2721 C2722 1.524 . S
C2721 H2724 0.999 . S
C2722 H2692 0.950 . S
C2722 C2721 1.524 . S
C2722 C2723 1.415 . S
C2723 H2693 0.950 . S
C2723 C2718 1.363 . S
C2723 C2722 1.415 . S
H2724 C2721 0.999 . S
H2725 C2706 0.913 . S
H2726 C2744 0.951 . S
H2727 C2746 0.951 . S
H2728 C2748 0.950 . S
H2729 C2749 0.950 1_554 S
H2730 C2751 0.950 . S
H2731 C2754 0.950 . S
H2732 C2755 0.950 1_554 S
H2733 C2757 0.950 . S
H2734 C2758 0.950 . S
H2735 C2759 0.951 . S
H2736 C2761 0.951 . S
H2737 C2763 0.950 . S
H2738 C2764 0.950 . S
H2739 C2766 0.950 . S
H2740 C2769 0.950 . S
H2741 C2770 0.950 . S
H2742 C2772 0.950 . S
H2743 C2773 0.950 . S
C2744 H2726 0.951 . S
C2744 C2745 1.366 . S
C2744 C2746 1.388 . S
C2745 C2744 1.366 . S
C2745 C2749 1.385 . S
C2746 H2727 0.951 . S
C2746 C2744 1.388 . S
C2746 C2747 1.366 . S
C2747 C2746 1.366 . S
C2747 C2748 1.414 . S
C2747 C2750 1.499 . S
C2748 H2728 0.950 . S
C2748 C2747 1.414 . S
C2748 C2749 1.374 . S
C2749 H2729 0.950 1_556 S
C2749 C2745 1.385 . S
C2749 C2748 1.374 . S
C2750 C2747 1.499 . S
C2750 C2751 1.373 . S
C2750 C2752 1.389 . S
C2751 H2730 0.950 . S
C2751 C2750 1.373 . S
C2751 C2767 1.377 . S
C2752 C2750 1.389 . S
C2752 C2753 1.524 . S
C2752 C2766 1.377 . S
C2753 C2752 1.524 . S
C2753 C2754 1.397 . S
C2753 C2758 1.363 . S
C2754 H2731 0.950 . S
C2754 C2753 1.397 . S
C2754 C2755 1.334 . S
C2755 H2732 0.950 1_556 S
C2755 C2754 1.334 . S
C2755 C2756 1.287 . S
C2756 C2755 1.287 . S
C2756 C2757 1.524 . S
C2756 H2775 0.913 . S
C2757 H2733 0.950 . S
C2757 C2756 1.524 . S
C2757 C2758 1.415 . S
C2758 H2734 0.950 . S
C2758 C2753 1.363 . S
C2758 C2757 1.415 . S
C2759 H2735 0.951 . S
C2759 C2760 1.366 . S
C2759 C2761 1.388 . S
C2760 C2759 1.366 . S
C2760 C2764 1.385 . S
C2761 H2736 0.951 . S
C2761 C2759 1.388 . S
C2761 C2762 1.366 . S
C2762 C2761 1.366 . S
C2762 C2763 1.414 . S
C2762 C2765 1.499 . S
C2763 H2737 0.950 . S
C2763 C2762 1.414 . S
C2763 C2764 1.374 . S
C2764 H2738 0.950 . S
C2764 C2760 1.385 . S
C2764 C2763 1.374 . S
C2765 C2762 1.499 . S
C2765 C2766 1.373 . S
C2765 C2767 1.389 . S
C2766 H2739 0.950 . S
C2766 C2752 1.377 . S
C2766 C2765 1.373 . S
C2767 C2751 1.377 . S
C2767 C2765 1.389 . S
C2767 C2768 1.524 . S
C2768 C2767 1.524 . S
C2768 C2769 1.397 . S
C2768 C2773 1.363 . S
C2769 H2740 0.950 . S
C2769 C2768 1.397 . S
C2769 C2770 1.334 . S
C2770 H2741 0.950 . S
C2770 C2769 1.334 . S
C2770 C2771 1.287 . S
C2771 C2770 1.287 . S
C2771 C2772 1.524 . S
C2771 H2774 0.999 . S
C2772 H2742 0.950 . S
C2772 C2771 1.524 . S
C2772 C2773 1.415 . S
C2773 H2743 0.950 . S
C2773 C2768 1.363 . S
C2773 C2772 1.415 . S
H2774 C2771 0.999 . S
H2775 C2756 0.913 . S
H2776 C2794 0.958 . S
H2777 C2796 0.951 . S
H2778 C2798 0.950 . S
H2779 C2799 0.950 . S
H2780 C2801 0.950 . S
H2781 C2804 0.950 . S
H2782 C2805 0.950 . S
H2783 C2807 0.950 . S
H2784 C2808 0.950 . S
H2785 C2809 0.951 . S
H2786 C2811 0.951 . S
H2787 C2813 0.950 . S
H2788 C2814 0.950 . S
H2789 C2816 0.950 . S
H2790 C2819 0.950 . S
H2791 C2820 0.950 . S
H2792 C2822 0.950 . S
H2793 C2823 0.950 . S
C2794 H2776 0.958 . S
C2794 C2795 1.366 . S
C2794 C2796 1.388 . S
C2795 C2794 1.366 . S
C2795 C2799 1.385 . S
C2796 H2777 0.951 . S
C2796 C2794 1.388 . S
C2796 C2797 1.366 . S
C2797 C2796 1.366 . S
C2797 C2798 1.414 . S
C2797 C2800 1.499 . S
C2798 H2778 0.950 . S
C2798 C2797 1.414 . S
C2798 C2799 1.374 . S
C2799 H2779 0.950 . S
C2799 C2795 1.385 . S
C2799 C2798 1.374 . S
C2800 C2797 1.499 . S
C2800 C2801 1.373 . S
C2800 C2802 1.389 . S
C2801 H2780 0.950 . S
C2801 C2800 1.373 . S
C2801 C2817 1.377 . S
C2802 C2800 1.389 . S
C2802 C2803 1.524 . S
C2802 C2816 1.377 . S
C2803 C2802 1.524 . S
C2803 C2804 1.397 . S
C2803 C2808 1.363 . S
C2804 H2781 0.950 . S
C2804 C2803 1.397 . S
C2804 C2805 1.334 . S
C2805 H2782 0.950 . S
C2805 C2804 1.334 . S
C2805 C2806 1.287 . S
C2806 C2805 1.287 . S
C2806 C2807 1.524 . S
C2806 H2825 0.913 . S
C2807 H2783 0.950 . S
C2807 C2806 1.524 . S
C2807 C2808 1.415 . S
C2808 H2784 0.950 . S
C2808 C2803 1.363 . S
C2808 C2807 1.415 . S
C2809 H2785 0.951 . S
C2809 C2810 1.366 . S
C2809 C2811 1.388 . S
C2810 C2809 1.366 . S
C2810 C2814 1.385 . S
C2811 H2786 0.951 . S
C2811 C2809 1.388 . S
C2811 C2812 1.366 . S
C2812 C2811 1.366 . S
C2812 C2813 1.414 . S
C2812 C2815 1.499 . S
C2813 H2787 0.950 . S
C2813 C2812 1.414 . S
C2813 C2814 1.374 . S
C2814 H2788 0.950 . S
C2814 C2810 1.385 . S
C2814 C2813 1.374 . S
C2815 C2812 1.499 . S
C2815 C2816 1.373 . S
C2815 C2817 1.389 . S
C2816 H2789 0.950 . S
C2816 C2802 1.377 . S
C2816 C2815 1.373 . S
C2817 C2801 1.377 . S
C2817 C2815 1.389 . S
C2817 C2818 1.524 . S
C2818 C2817 1.524 . S
C2818 C2819 1.397 . S
C2818 C2823 1.363 . S
C2819 H2790 0.950 . S
C2819 C2818 1.397 . S
C2819 C2820 1.334 . S
C2820 H2791 0.950 . S
C2820 C2819 1.334 . S
C2820 C2821 1.287 . S
C2821 C2820 1.287 . S
C2821 C2822 1.524 . S
C2821 H2824 0.999 . S
C2822 H2792 0.950 . S
C2822 C2821 1.524 . S
C2822 C2823 1.415 . S
C2823 H2793 0.950 . S
C2823 C2818 1.363 . S
C2823 C2822 1.415 . S
H2824 C2821 0.999 . S
H2825 C2806 0.913 . S
H2826 C2844 0.951 . S
H2827 C2846 0.951 . S
H2828 C2848 0.950 . S
H2829 C2849 0.950 . S
H2830 C2851 0.950 . S
H2831 C2854 0.950 . S
H2832 C2855 0.950 . S
H2833 C2857 0.950 . S
H2834 C2858 0.950 . S
H2835 C2859 0.951 . S
H2836 C2861 0.951 . S
H2837 C2863 0.950 . S
H2838 C2864 0.950 . S
H2839 C2866 0.950 . S
H2840 C2869 0.950 . S
H2841 C2870 0.950 . S
H2842 C2872 0.950 . S
H2843 C2873 0.950 . S
C2844 H2826 0.951 . S
C2844 C2845 1.366 . S
C2844 C2846 1.388 . S
C2845 C2844 1.366 . S
C2845 C2849 1.385 . S
C2846 H2827 0.951 . S
C2846 C2844 1.388 . S
C2846 C2847 1.366 . S
C2847 C2846 1.366 . S
C2847 C2848 1.414 . S
C2847 C2850 1.499 . S
C2848 H2828 0.950 . S
C2848 C2847 1.414 . S
C2848 C2849 1.374 . S
C2849 H2829 0.950 . S
C2849 C2845 1.385 . S
C2849 C2848 1.374 . S
C2850 C2847 1.499 . S
C2850 C2851 1.373 . S
C2850 C2852 1.389 . S
C2851 H2830 0.950 . S
C2851 C2850 1.373 . S
C2851 C2867 1.377 . S
C2852 C2850 1.389 . S
C2852 C2853 1.524 . S
C2852 C2866 1.377 . S
C2853 C2852 1.524 . S
C2853 C2854 1.397 . S
C2853 C2858 1.363 . S
C2854 H2831 0.950 . S
C2854 C2853 1.397 . S
C2854 C2855 1.334 . S
C2855 H2832 0.950 . S
C2855 C2854 1.334 . S
C2855 C2856 1.287 . S
C2856 C2855 1.287 . S
C2856 C2857 1.524 . S
C2856 H2875 0.913 . S
C2857 H2833 0.950 . S
C2857 C2856 1.524 . S
C2857 C2858 1.415 . S
C2858 H2834 0.950 . S
C2858 C2853 1.363 . S
C2858 C2857 1.415 . S
C2859 H2835 0.951 . S
C2859 C2860 1.366 . S
C2859 C2861 1.388 . S
C2860 C2859 1.366 . S
C2860 C2864 1.385 . S
C2861 H2836 0.951 . S
C2861 C2859 1.388 . S
C2861 C2862 1.366 . S
C2862 C2861 1.366 . S
C2862 C2863 1.414 . S
C2862 C2865 1.499 . S
C2863 H2837 0.950 . S
C2863 C2862 1.414 . S
C2863 C2864 1.374 . S
C2864 H2838 0.950 . S
C2864 C2860 1.385 . S
C2864 C2863 1.374 . S
C2865 C2862 1.499 . S
C2865 C2866 1.373 . S
C2865 C2867 1.389 . S
C2866 H2839 0.950 . S
C2866 C2852 1.377 . S
C2866 C2865 1.373 . S
C2867 C2851 1.377 . S
C2867 C2865 1.389 . S
C2867 C2868 1.524 . S
C2868 C2867 1.524 . S
C2868 C2869 1.397 . S
C2868 C2873 1.363 . S
C2869 H2840 0.950 . S
C2869 C2868 1.397 . S
C2869 C2870 1.334 . S
C2870 H2841 0.950 . S
C2870 C2869 1.334 . S
C2870 C2871 1.287 . S
C2871 C2870 1.287 . S
C2871 C2872 1.524 . S
C2871 H2874 0.999 . S
C2872 H2842 0.950 . S
C2872 C2871 1.524 . S
C2872 C2873 1.415 . S
C2873 H2843 0.950 . S
C2873 C2868 1.363 . S
C2873 C2872 1.415 . S
H2874 C2871 0.999 . S
H2875 C2856 0.913 . S
H2876 C2894 0.951 . S
H2877 C2896 0.951 . S
H2878 C2898 0.950 . S
H2879 C2899 0.950 . S
H2880 C2901 0.950 . S
H2881 C2904 0.950 . S
H2882 C2905 0.950 1_556 S
H2883 C2907 0.950 . S
H2884 C2908 0.950 . S
H2885 C2909 0.951 . S
H2886 C2911 0.951 . S
H2887 C2913 0.950 . S
H2888 C2914 0.950 . S
H2889 C2916 0.950 . S
H2890 C2919 0.950 . S
H2891 C2920 0.950 . S
H2892 C2922 0.950 . S
H2893 C2923 0.950 . S
C2894 H2876 0.951 . S
C2894 C2895 1.366 . S
C2894 C2896 1.388 . S
C2895 C2894 1.366 . S
C2895 C2899 1.385 . S
C2896 H2877 0.951 . S
C2896 C2894 1.388 . S
C2896 C2897 1.366 . S
C2897 C2896 1.366 . S
C2897 C2898 1.414 . S
C2897 C2900 1.499 . S
C2898 H2878 0.950 . S
C2898 C2897 1.414 . S
C2898 C2899 1.374 . S
C2899 H2879 0.950 . S
C2899 C2895 1.385 . S
C2899 C2898 1.374 . S
C2900 C2897 1.499 . S
C2900 C2901 1.373 . S
C2900 C2902 1.389 . S
C2901 H2880 0.950 . S
C2901 C2900 1.373 . S
C2901 C2917 1.377 . S
C2902 C2900 1.389 . S
C2902 C2903 1.524 . S
C2902 C2916 1.377 . S
C2903 C2902 1.524 . S
C2903 C2904 1.397 . S
C2903 C2908 1.363 . S
C2904 H2881 0.950 . S
C2904 C2903 1.397 . S
C2904 C2905 1.334 . S
C2905 H2882 0.950 1_554 S
C2905 C2904 1.334 . S
C2905 C2906 1.287 . S
C2906 C2905 1.287 . S
C2906 C2907 1.524 . S
C2906 H2925 0.913 . S
C2907 H2883 0.950 . S
C2907 C2906 1.524 . S
C2907 C2908 1.415 . S
C2908 H2884 0.950 . S
C2908 C2903 1.363 . S
C2908 C2907 1.415 . S
C2909 H2885 0.951 . S
C2909 C2910 1.366 . S
C2909 C2911 1.388 . S
C2910 C2909 1.366 . S
C2910 C2914 1.385 . S
C2911 H2886 0.951 . S
C2911 C2909 1.388 . S
C2911 C2912 1.366 . S
C2912 C2911 1.366 . S
C2912 C2913 1.414 . S
C2912 C2915 1.499 . S
C2913 H2887 0.950 . S
C2913 C2912 1.414 . S
C2913 C2914 1.374 . S
C2914 H2888 0.950 . S
C2914 C2910 1.385 . S
C2914 C2913 1.374 . S
C2915 C2912 1.499 . S
C2915 C2916 1.373 . S
C2915 C2917 1.389 . S
C2916 H2889 0.950 . S
C2916 C2902 1.377 . S
C2916 C2915 1.373 . S
C2917 C2901 1.377 . S
C2917 C2915 1.389 . S
C2917 C2918 1.524 . S
C2918 C2917 1.524 . S
C2918 C2919 1.397 . S
C2918 C2923 1.363 . S
C2919 H2890 0.950 . S
C2919 C2918 1.397 . S
C2919 C2920 1.334 . S
C2920 H2891 0.950 . S
C2920 C2919 1.334 . S
C2920 C2921 1.287 . S
C2921 C2920 1.287 . S
C2921 C2922 1.524 . S
C2921 H2924 0.999 . S
C2922 H2892 0.950 . S
C2922 C2921 1.524 . S
C2922 C2923 1.415 . S
C2923 H2893 0.950 . S
C2923 C2918 1.363 . S
C2923 C2922 1.415 . S
H2924 C2921 0.999 . S
H2925 C2906 0.913 . S
H2926 C2944 0.951 . S
H2927 C2946 0.951 . S
H2928 C2948 0.950 . S
H2929 C2949 0.950 . S
H2930 C2951 0.950 . S
H2931 C2954 0.950 . S
H2932 C2955 0.950 . S
H2933 C2957 0.950 . S
H2934 C2958 0.950 . S
H2935 C2959 0.951 . S
H2936 C2961 0.951 . S
H2937 C2963 0.950 . S
H2938 C2964 0.950 . S
H2939 C2966 0.950 . S
H2940 C2969 0.950 . S
H2941 C2970 0.950 . S
H2942 C2972 0.950 . S
H2943 C2973 0.950 . S
C2944 H2926 0.951 . S
C2944 C2945 1.366 . S
C2944 C2946 1.388 . S
C2945 C2944 1.366 . S
C2945 C2949 1.385 . S
C2946 H2927 0.951 . S
C2946 C2944 1.388 . S
C2946 C2947 1.366 . S
C2947 C2946 1.366 . S
C2947 C2948 1.414 . S
C2947 C2950 1.499 . S
C2948 H2928 0.950 . S
C2948 C2947 1.414 . S
C2948 C2949 1.374 . S
C2949 H2929 0.950 . S
C2949 C2945 1.385 . S
C2949 C2948 1.374 . S
C2950 C2947 1.499 . S
C2950 C2951 1.373 . S
C2950 C2952 1.389 . S
C2951 H2930 0.950 . S
C2951 C2950 1.373 . S
C2951 C2967 1.377 . S
C2952 C2950 1.389 . S
C2952 C2953 1.524 . S
C2952 C2966 1.377 . S
C2953 C2952 1.524 . S
C2953 C2954 1.397 . S
C2953 C2958 1.363 . S
C2954 H2931 0.950 . S
C2954 C2953 1.397 . S
C2954 C2955 1.334 . S
C2955 H2932 0.950 . S
C2955 C2954 1.334 . S
C2955 C2956 1.287 . S
C2956 C2955 1.287 . S
C2956 C2957 1.524 . S
C2956 H2975 0.913 . S
C2957 H2933 0.950 . S
C2957 C2956 1.524 . S
C2957 C2958 1.415 . S
C2958 H2934 0.950 . S
C2958 C2953 1.363 . S
C2958 C2957 1.415 . S
C2959 H2935 0.951 . S
C2959 C2960 1.366 . S
C2959 C2961 1.388 . S
C2960 C2959 1.366 . S
C2960 C2964 1.385 . S
C2961 H2936 0.951 . S
C2961 C2959 1.388 . S
C2961 C2962 1.366 . S
C2962 C2961 1.366 . S
C2962 C2963 1.414 . S
C2962 C2965 1.499 . S
C2963 H2937 0.950 . S
C2963 C2962 1.414 . S
C2963 C2964 1.374 . S
C2964 H2938 0.950 . S
C2964 C2960 1.385 . S
C2964 C2963 1.374 . S
C2965 C2962 1.499 . S
C2965 C2966 1.373 . S
C2965 C2967 1.389 . S
C2966 H2939 0.950 . S
C2966 C2952 1.377 . S
C2966 C2965 1.373 . S
C2967 C2951 1.377 . S
C2967 C2965 1.389 . S
C2967 C2968 1.524 . S
C2968 C2967 1.524 . S
C2968 C2969 1.397 . S
C2968 C2973 1.363 . S
C2969 H2940 0.950 . S
C2969 C2968 1.397 . S
C2969 C2970 1.334 . S
C2970 H2941 0.950 . S
C2970 C2969 1.334 . S
C2970 C2971 1.287 . S
C2971 C2970 1.287 . S
C2971 C2972 1.524 . S
C2971 H2974 0.999 . S
C2972 H2942 0.950 . S
C2972 C2971 1.524 . S
C2972 C2973 1.415 . S
C2973 H2943 0.950 . S
C2973 C2968 1.363 . S
C2973 C2972 1.415 . S
H2974 C2971 0.999 . S
H2975 C2956 0.913 . S
H2976 C2994 0.951 . S
H2977 C2996 0.951 . S
H2978 C2998 0.950 . S
H2979 C2999 0.950 . S
H2980 C3001 0.950 . S
H2981 C3004 0.950 . S
H2982 C3005 0.950 . S
H2983 C3007 0.950 . S
H2984 C3008 0.950 . S
H2985 C3009 0.951 . S
H2986 C3011 0.951 . S
H2987 C3013 0.950 . S
H2988 C3014 0.950 . S
H2989 C3016 0.950 . S
H2990 C3019 0.950 . S
H2991 C3020 0.950 . S
H2992 C3022 0.950 . S
H2993 C3023 0.950 . S
C2994 H2976 0.951 . S
C2994 C2995 1.366 . S
C2994 C2996 1.388 . S
C2995 C2994 1.366 . S
C2995 C2999 1.385 . S
C2996 H2977 0.951 . S
C2996 C2994 1.388 . S
C2996 C2997 1.366 . S
C2997 C2996 1.366 . S
C2997 C2998 1.414 . S
C2997 C3000 1.499 . S
C2998 H2978 0.950 . S
C2998 C2997 1.414 . S
C2998 C2999 1.374 . S
C2999 H2979 0.950 . S
C2999 C2995 1.385 . S
C2999 C2998 1.374 . S
C3000 C2997 1.499 . S
C3000 C3001 1.373 . S
C3000 C3002 1.389 . S
C3001 H2980 0.950 . S
C3001 C3000 1.373 . S
C3001 C3017 1.377 . S
C3002 C3000 1.389 . S
C3002 C3003 1.524 . S
C3002 C3016 1.377 . S
C3003 C3002 1.524 . S
C3003 C3004 1.397 . S
C3003 C3008 1.363 . S
C3004 H2981 0.950 . S
C3004 C3003 1.397 . S
C3004 C3005 1.334 . S
C3005 H2982 0.950 . S
C3005 C3004 1.334 . S
C3005 C3006 1.287 . S
C3006 C3005 1.287 . S
C3006 C3007 1.524 . S
C3006 H3025 0.913 . S
C3007 H2983 0.950 . S
C3007 C3006 1.524 . S
C3007 C3008 1.415 . S
C3008 H2984 0.950 . S
C3008 C3003 1.363 . S
C3008 C3007 1.415 . S
C3009 H2985 0.951 . S
C3009 C3010 1.366 . S
C3009 C3011 1.388 . S
C3010 C3009 1.366 . S
C3010 C3014 1.385 . S
C3011 H2986 0.951 . S
C3011 C3009 1.388 . S
C3011 C3012 1.366 . S
C3012 C3011 1.366 . S
C3012 C3013 1.414 . S
C3012 C3015 1.499 . S
C3013 H2987 0.950 . S
C3013 C3012 1.414 . S
C3013 C3014 1.374 . S
C3014 H2988 0.950 . S
C3014 C3010 1.385 . S
C3014 C3013 1.374 . S
C3015 C3012 1.499 . S
C3015 C3016 1.373 . S
C3015 C3017 1.389 . S
C3016 H2989 0.950 . S
C3016 C3002 1.377 . S
C3016 C3015 1.373 . S
C3017 C3001 1.377 . S
C3017 C3015 1.389 . S
C3017 C3018 1.524 . S
C3018 C3017 1.524 . S
C3018 C3019 1.397 . S
C3018 C3023 1.363 . S
C3019 H2990 0.950 . S
C3019 C3018 1.397 . S
C3019 C3020 1.334 . S
C3020 H2991 0.950 . S
C3020 C3019 1.334 . S
C3020 C3021 1.287 . S
C3021 C3020 1.287 . S
C3021 C3022 1.524 . S
C3021 H3024 0.999 . S
C3022 H2992 0.950 . S
C3022 C3021 1.524 . S
C3022 C3023 1.415 . S
C3023 H2993 0.950 . S
C3023 C3018 1.363 . S
C3023 C3022 1.415 . S
H3024 C3021 0.999 . S
H3025 C3006 0.913 . S
H3026 C3044 0.951 . S
H3027 C3046 0.951 . S
H3028 C3048 0.950 . S
H3029 C3049 0.950 . S
H3030 C3051 0.950 . S
H3031 C3054 0.950 . S
H3032 C3055 0.950 . S
H3033 C3057 0.950 . S
H3034 C3058 0.950 . S
H3035 C3059 0.951 . S
H3036 C3061 0.951 . S
H3037 C3063 0.950 . S
H3038 C3064 0.950 . S
H3039 C3066 0.950 . S
H3040 C3069 0.950 . S
H3041 C3070 0.950 . S
H3042 C3072 0.950 . S
H3043 C3073 0.950 . S
C3044 H3026 0.951 . S
C3044 C3045 1.366 . S
C3044 C3046 1.388 . S
C3045 C3044 1.366 . S
C3045 C3049 1.385 . S
C3046 H3027 0.951 . S
C3046 C3044 1.388 . S
C3046 C3047 1.366 . S
C3047 C3046 1.366 . S
C3047 C3048 1.414 . S
C3047 C3050 1.499 . S
C3048 H3028 0.950 . S
C3048 C3047 1.414 . S
C3048 C3049 1.374 . S
C3049 H3029 0.950 . S
C3049 C3045 1.385 . S
C3049 C3048 1.374 . S
C3050 C3047 1.499 . S
C3050 C3051 1.373 . S
C3050 C3052 1.389 . S
C3051 H3030 0.950 . S
C3051 C3050 1.373 . S
C3051 C3067 1.377 . S
C3052 C3050 1.389 . S
C3052 C3053 1.524 . S
C3052 C3066 1.377 . S
C3053 C3052 1.524 . S
C3053 C3054 1.397 . S
C3053 C3058 1.363 . S
C3054 H3031 0.950 . S
C3054 C3053 1.397 . S
C3054 C3055 1.334 . S
C3055 H3032 0.950 . S
C3055 C3054 1.334 . S
C3055 C3056 1.287 . S
C3056 C3055 1.287 . S
C3056 C3057 1.524 . S
C3056 H3075 0.913 . S
C3057 H3033 0.950 . S
C3057 C3056 1.524 . S
C3057 C3058 1.415 . S
C3058 H3034 0.950 . S
C3058 C3053 1.363 . S
C3058 C3057 1.415 . S
C3059 H3035 0.951 . S
C3059 C3060 1.366 . S
C3059 C3061 1.388 . S
C3060 C3059 1.366 . S
C3060 C3064 1.385 . S
C3061 H3036 0.951 . S
C3061 C3059 1.388 . S
C3061 C3062 1.366 . S
C3062 C3061 1.366 . S
C3062 C3063 1.414 . S
C3062 C3065 1.499 . S
C3063 H3037 0.950 . S
C3063 C3062 1.414 . S
C3063 C3064 1.374 . S
C3064 H3038 0.950 . S
C3064 C3060 1.385 . S
C3064 C3063 1.374 . S
C3065 C3062 1.499 . S
C3065 C3066 1.373 . S
C3065 C3067 1.389 . S
C3066 H3039 0.950 . S
C3066 C3052 1.377 . S
C3066 C3065 1.373 . S
C3067 C3051 1.377 . S
C3067 C3065 1.389 . S
C3067 C3068 1.524 . S
C3068 C3067 1.524 . S
C3068 C3069 1.397 . S
C3068 C3073 1.363 . S
C3069 H3040 0.950 . S
C3069 C3068 1.397 . S
C3069 C3070 1.334 . S
C3070 H3041 0.950 . S
C3070 C3069 1.334 . S
C3070 C3071 1.287 . S
C3071 C3070 1.287 . S
C3071 C3072 1.524 . S
C3071 H3074 0.999 . S
C3072 H3042 0.950 . S
C3072 C3071 1.524 . S
C3072 C3073 1.415 . S
C3073 H3043 0.950 . S
C3073 C3068 1.363 . S
C3073 C3072 1.415 . S
H3074 C3071 0.999 . S
H3075 C3056 0.913 . S
H3076 C3094 0.951 . S
H3077 C3096 0.951 . S
H3078 C3098 0.950 . S
H3079 C3099 0.950 . S
H3080 C3101 0.950 . S
H3081 C3104 0.950 . S
H3082 C3105 0.950 . S
H3083 C3107 0.950 . S
H3084 C3108 0.950 . S
H3085 C3109 0.951 . S
H3086 C3111 0.951 . S
H3087 C3113 0.950 . S
H3088 C3114 0.950 . S
H3089 C3116 0.950 . S
H3090 C3119 0.950 . S
H3091 C3120 0.950 . S
H3092 C3122 0.950 . S
H3093 C3123 0.950 . S
C3094 H3076 0.951 . S
C3094 C3095 1.366 . S
C3094 C3096 1.388 . S
C3095 C3094 1.366 . S
C3095 C3099 1.385 . S
C3096 H3077 0.951 . S
C3096 C3094 1.388 . S
C3096 C3097 1.366 . S
C3097 C3096 1.366 . S
C3097 C3098 1.414 . S
C3097 C3100 1.499 . S
C3098 H3078 0.950 . S
C3098 C3097 1.414 . S
C3098 C3099 1.374 . S
C3099 H3079 0.950 . S
C3099 C3095 1.385 . S
C3099 C3098 1.374 . S
C3100 C3097 1.499 . S
C3100 C3101 1.373 . S
C3100 C3102 1.389 . S
C3101 H3080 0.950 . S
C3101 C3100 1.373 . S
C3101 C3117 1.377 . S
C3102 C3100 1.389 . S
C3102 C3103 1.524 . S
C3102 C3116 1.377 . S
C3103 C3102 1.524 . S
C3103 C3104 1.397 . S
C3103 C3108 1.363 . S
C3104 H3081 0.950 . S
C3104 C3103 1.397 . S
C3104 C3105 1.334 . S
C3105 H3082 0.950 . S
C3105 C3104 1.334 . S
C3105 C3106 1.287 . S
C3106 C3105 1.287 . S
C3106 C3107 1.524 . S
C3106 H3125 0.913 . S
C3107 H3083 0.950 . S
C3107 C3106 1.524 . S
C3107 C3108 1.415 . S
C3108 H3084 0.950 . S
C3108 C3103 1.363 . S
C3108 C3107 1.415 . S
C3109 H3085 0.951 . S
C3109 C3110 1.366 . S
C3109 C3111 1.388 . S
C3110 C3109 1.366 . S
C3110 C3114 1.385 . S
C3111 H3086 0.951 . S
C3111 C3109 1.388 . S
C3111 C3112 1.366 . S
C3112 C3111 1.366 . S
C3112 C3113 1.414 . S
C3112 C3115 1.499 . S
C3113 H3087 0.950 . S
C3113 C3112 1.414 . S
C3113 C3114 1.374 . S
C3114 H3088 0.950 . S
C3114 C3110 1.385 . S
C3114 C3113 1.374 . S
C3115 C3112 1.499 . S
C3115 C3116 1.373 . S
C3115 C3117 1.389 . S
C3116 H3089 0.950 . S
C3116 C3102 1.377 . S
C3116 C3115 1.373 . S
C3117 C3101 1.377 . S
C3117 C3115 1.389 . S
C3117 C3118 1.524 . S
C3118 C3117 1.524 . S
C3118 C3119 1.397 . S
C3118 C3123 1.363 . S
C3119 H3090 0.950 . S
C3119 C3118 1.397 . S
C3119 C3120 1.334 . S
C3120 H3091 0.950 . S
C3120 C3119 1.334 . S
C3120 C3121 1.287 . S
C3121 C3120 1.287 . S
C3121 C3122 1.524 . S
C3121 H3124 0.999 . S
C3122 H3092 0.950 . S
C3122 C3121 1.524 . S
C3122 C3123 1.415 . S
C3123 H3093 0.950 . S
C3123 C3118 1.363 . S
C3123 C3122 1.415 . S
H3124 C3121 0.999 . S
H3125 C3106 0.913 . S
H3126 C3144 0.951 . S
H3127 C3146 0.951 . S
H3128 C3148 0.950 . S
H3129 C3149 0.950 . S
H3130 C3151 0.950 1_655 S
H3131 C3154 0.950 . S
H3132 C3155 0.950 . S
H3133 C3157 0.950 . S
H3134 C3158 0.950 . S
H3135 C3159 0.951 . S
H3136 C3161 0.951 . S
H3137 C3163 0.965 1_655 S
H3138 C3164 0.930 1_655 S
H3139 C3166 0.950 . S
H3140 C3169 0.950 . S
H3141 C3170 0.950 . S
H3142 C3172 0.950 . S
H3143 C3173 0.902 1_455 S
C3144 H3126 0.951 . S
C3144 C3145 1.366 . S
C3144 C3146 1.388 . S
C3145 C3144 1.366 . S
C3145 C3149 1.385 . S
C3146 H3127 0.951 . S
C3146 C3144 1.388 . S
C3146 C3147 1.366 . S
C3147 C3146 1.366 . S
C3147 C3148 1.414 . S
C3147 C3150 1.499 . S
C3148 H3128 0.950 . S
C3148 C3147 1.414 . S
C3148 C3149 1.374 . S
C3149 H3129 0.950 . S
C3149 C3145 1.385 . S
C3149 C3148 1.374 . S
C3150 C3147 1.499 . S
C3150 C3151 1.373 . S
C3150 C3152 1.389 . S
C3151 H3130 0.950 1_455 S
C3151 C3150 1.373 . S
C3151 C3167 1.390 . S
C3152 C3150 1.389 . S
C3152 C3153 1.524 . S
C3152 C3166 1.377 . S
C3153 C3152 1.524 . S
C3153 C3154 1.397 . S
C3153 C3158 1.363 . S
C3154 H3131 0.950 . S
C3154 C3153 1.397 . S
C3154 C3155 1.334 . S
C3155 H3132 0.950 . S
C3155 C3154 1.334 . S
C3155 C3156 1.287 . S
C3156 C3155 1.287 . S
C3156 C3157 1.524 . S
C3156 H3175 0.913 . S
C3157 H3133 0.950 . S
C3157 C3156 1.524 . S
C3157 C3158 1.415 . S
C3158 H3134 0.950 . S
C3158 C3153 1.363 . S
C3158 C3157 1.415 . S
C3159 H3135 0.951 . S
C3159 C3160 1.366 . S
C3159 C3161 1.388 . S
C3160 C3159 1.366 . S
C3160 C3164 1.369 . S
C3161 H3136 0.951 . S
C3161 C3159 1.388 . S
C3161 C3162 1.366 . S
C3162 C3161 1.366 . S
C3162 C3163 1.414 . S
C3162 C3165 1.499 . S
C3163 H3137 0.965 1_455 S
C3163 C3162 1.414 . S
C3163 C3164 1.416 . S
C3164 H3138 0.930 1_455 S
C3164 C3160 1.369 . S
C3164 C3163 1.416 . S
C3165 C3162 1.499 . S
C3165 C3166 1.373 . S
C3165 C3167 1.395 . S
C3166 H3139 0.950 . S
C3166 C3152 1.377 . S
C3166 C3165 1.373 . S
C3167 C3151 1.390 . S
C3167 C3165 1.395 . S
C3167 C3168 1.504 1_455 S
C3168 C3167 1.504 1_655 S
C3168 C3169 1.397 . S
C3168 C3173 1.363 . S
C3169 H3140 0.950 . S
C3169 C3168 1.397 . S
C3169 C3170 1.334 . S
C3170 H3141 0.950 . S
C3170 C3169 1.334 . S
C3170 C3171 1.287 . S
C3171 C3170 1.287 . S
C3171 C3172 1.524 . S
C3171 H3174 0.999 . S
C3172 H3142 0.950 . S
C3172 C3171 1.524 . S
C3172 C3173 1.415 . S
C3173 H3143 0.902 1_655 S
C3173 C3168 1.363 . S
C3173 C3172 1.415 . S
H3174 C3171 0.999 . S
H3175 C3156 0.913 . S
H3176 C3194 0.951 . S
H3177 C3196 0.951 . S
H3178 C3198 0.950 . S
H3179 C3199 0.950 . S
H3180 C3201 0.950 . S
H3181 C3204 0.950 . S
H3182 C3205 0.950 . S
H3183 C3207 0.950 . S
H3184 C3208 0.950 . S
H3185 C3209 0.951 . S
H3186 C3211 0.951 . S
H3187 C3213 0.950 . S
H3188 C3214 0.950 . S
H3189 C3216 0.950 . S
H3190 C3219 0.950 . S
H3191 C3220 0.950 . S
H3192 C3222 0.950 . S
H3193 C3223 0.950 . S
C3194 H3176 0.951 . S
C3194 C3195 1.366 . S
C3194 C3196 1.388 . S
C3195 C3194 1.366 . S
C3195 C3199 1.385 . S
C3196 H3177 0.951 . S
C3196 C3194 1.388 . S
C3196 C3197 1.366 . S
C3197 C3196 1.366 . S
C3197 C3198 1.414 . S
C3197 C3200 1.499 . S
C3198 H3178 0.950 . S
C3198 C3197 1.414 . S
C3198 C3199 1.374 . S
C3199 H3179 0.950 . S
C3199 C3195 1.385 . S
C3199 C3198 1.374 . S
C3200 C3197 1.499 . S
C3200 C3201 1.373 . S
C3200 C3202 1.389 . S
C3201 H3180 0.950 . S
C3201 C3200 1.373 . S
C3201 C3217 1.377 . S
C3202 C3200 1.389 . S
C3202 C3203 1.524 . S
C3202 C3216 1.377 . S
C3203 C3202 1.524 . S
C3203 C3204 1.397 . S
C3203 C3208 1.363 . S
C3204 H3181 0.950 . S
C3204 C3203 1.397 . S
C3204 C3205 1.334 . S
C3205 H3182 0.950 . S
C3205 C3204 1.334 . S
C3205 C3206 1.287 . S
C3206 C3205 1.287 . S
C3206 C3207 1.524 . S
C3206 H3225 0.913 . S
C3207 H3183 0.950 . S
C3207 C3206 1.524 . S
C3207 C3208 1.415 . S
C3208 H3184 0.950 . S
C3208 C3203 1.363 . S
C3208 C3207 1.415 . S
C3209 H3185 0.951 . S
C3209 C3210 1.366 . S
C3209 C3211 1.388 . S
C3210 C3209 1.366 . S
C3210 C3214 1.385 . S
C3211 H3186 0.951 . S
C3211 C3209 1.388 . S
C3211 C3212 1.366 . S
C3212 C3211 1.366 . S
C3212 C3213 1.414 . S
C3212 C3215 1.499 . S
C3213 H3187 0.950 . S
C3213 C3212 1.414 . S
C3213 C3214 1.374 . S
C3214 H3188 0.950 . S
C3214 C3210 1.385 . S
C3214 C3213 1.374 . S
C3215 C3212 1.499 . S
C3215 C3216 1.373 . S
C3215 C3217 1.389 . S
C3216 H3189 0.950 . S
C3216 C3202 1.377 . S
C3216 C3215 1.373 . S
C3217 C3201 1.377 . S
C3217 C3215 1.389 . S
C3217 C3218 1.524 . S
C3218 C3217 1.524 . S
C3218 C3219 1.397 . S
C3218 C3223 1.363 . S
C3219 H3190 0.950 . S
C3219 C3218 1.397 . S
C3219 C3220 1.334 . S
C3220 H3191 0.950 . S
C3220 C3219 1.334 . S
C3220 C3221 1.287 . S
C3221 C3220 1.287 . S
C3221 C3222 1.524 . S
C3221 H3224 0.999 . S
C3222 H3192 0.950 . S
C3222 C3221 1.524 . S
C3222 C3223 1.415 . S
C3223 H3193 0.950 . S
C3223 C3218 1.363 . S
C3223 C3222 1.415 . S
H3224 C3221 0.999 . S
H3225 C3206 0.913 . S
H3226 C3244 0.951 1_545 S
H3227 C3246 0.951 1_545 S
H3228 C3248 0.950 . S
H3229 C3249 0.950 . S
H3230 C3251 0.955 . S
H3231 C3254 0.950 . S
H3232 C3255 0.950 . S
H3233 C3257 0.950 . S
H3234 C3258 0.950 . S
H3235 C3259 0.951 . S
H3236 C3261 0.951 . S
H3237 C3263 0.950 . S
H3238 C3264 0.950 . S
H3239 C3266 0.950 . S
H3240 C3269 0.950 . S
H3241 C3270 0.950 . S
H3242 C3272 0.950 . S
H3243 C3273 0.927 1_565 S
C3244 H3226 0.951 1_565 S
C3244 C3245 1.366 . S
C3244 C3246 1.388 . S
C3245 C3244 1.366 . S
C3245 C3249 1.385 . S
C3246 H3227 0.951 1_565 S
C3246 C3244 1.388 . S
C3246 C3247 1.366 . S
C3247 C3246 1.366 . S
C3247 C3248 1.414 . S
C3247 C3250 1.499 . S
C3248 H3228 0.950 . S
C3248 C3247 1.414 . S
C3248 C3249 1.374 . S
C3249 H3229 0.950 . S
C3249 C3245 1.385 . S
C3249 C3248 1.374 . S
C3250 C3247 1.499 . S
C3250 C3251 1.373 . S
C3250 C3252 1.389 . S
C3251 H3230 0.955 . S
C3251 C3250 1.373 . S
C3251 C3267 1.377 . S
C3252 C3250 1.389 . S
C3252 C3253 1.524 . S
C3252 C3266 1.377 . S
C3253 C3252 1.524 . S
C3253 C3254 1.397 . S
C3253 C3258 1.363 . S
C3254 H3231 0.950 . S
C3254 C3253 1.397 . S
C3254 C3255 1.334 . S
C3255 H3232 0.950 . S
C3255 C3254 1.334 . S
C3255 C3256 1.287 . S
C3256 C3255 1.287 . S
C3256 C3257 1.524 . S
C3256 H3275 0.913 . S
C3257 H3233 0.950 . S
C3257 C3256 1.524 . S
C3257 C3258 1.415 . S
C3258 H3234 0.950 . S
C3258 C3253 1.363 . S
C3258 C3257 1.415 . S
C3259 H3235 0.951 . S
C3259 C3260 1.366 . S
C3259 C3261 1.388 . S
C3260 C3259 1.366 . S
C3260 C3264 1.385 1_565 S
C3261 H3236 0.951 . S
C3261 C3259 1.388 . S
C3261 C3262 1.366 . S
C3262 C3261 1.366 . S
C3262 C3263 1.414 1_565 S
C3262 C3265 1.499 . S
C3263 H3237 0.950 . S
C3263 C3262 1.414 1_545 S
C3263 C3264 1.374 . S
C3264 H3238 0.950 . S
C3264 C3260 1.385 1_545 S
C3264 C3263 1.374 . S
C3265 C3262 1.499 . S
C3265 C3266 1.373 . S
C3265 C3267 1.389 . S
C3266 H3239 0.950 . S
C3266 C3252 1.377 . S
C3266 C3265 1.373 . S
C3267 C3251 1.377 . S
C3267 C3265 1.389 . S
C3267 C3268 1.524 1_565 S
C3268 C3267 1.524 1_545 S
C3268 C3269 1.397 . S
C3268 C3273 1.388 . S
C3269 H3240 0.950 . S
C3269 C3268 1.397 . S
C3269 C3270 1.334 . S
C3270 H3241 0.950 . S
C3270 C3269 1.334 . S
C3270 C3271 1.287 . S
C3271 C3270 1.287 . S
C3271 C3272 1.524 . S
C3271 H3274 0.999 . S
C3272 H3242 0.950 . S
C3272 C3271 1.524 . S
C3272 C3273 1.417 . S
C3273 H3243 0.927 1_545 S
C3273 C3268 1.388 . S
C3273 C3272 1.417 . S
H3274 C3271 0.999 . S
H3275 C3256 0.913 . S
H3276 C3294 0.951 . S
H3277 C3296 0.951 . S
H3278 C3298 0.950 . S
H3279 C3299 0.950 . S
H3280 C3301 0.950 . S
H3281 C3304 0.950 . S
H3282 C3305 0.950 . S
H3283 C3307 0.950 . S
H3284 C3308 0.950 . S
H3285 C3309 0.951 . S
H3286 C3311 0.951 . S
H3287 C3313 0.950 . S
H3288 C3314 0.950 . S
H3289 C3316 0.950 . S
H3290 C3319 0.950 . S
H3291 C3320 0.950 . S
H3292 C3322 0.950 . S
H3293 C3323 0.950 . S
C3294 H3276 0.951 . S
C3294 C3295 1.366 . S
C3294 C3296 1.388 . S
C3295 C3294 1.366 . S
C3295 C3299 1.385 . S
C3296 H3277 0.951 . S
C3296 C3294 1.388 . S
C3296 C3297 1.366 . S
C3297 C3296 1.366 . S
C3297 C3298 1.414 . S
C3297 C3300 1.499 . S
C3298 H3278 0.950 . S
C3298 C3297 1.414 . S
C3298 C3299 1.374 . S
C3299 H3279 0.950 . S
C3299 C3295 1.385 . S
C3299 C3298 1.374 . S
C3300 C3297 1.499 . S
C3300 C3301 1.373 1_565 S
C3300 C3302 1.389 . S
C3301 H3280 0.950 . S
C3301 C3300 1.373 1_545 S
C3301 C3317 1.377 . S
C3302 C3300 1.389 . S
C3302 C3303 1.524 . S
C3302 C3316 1.377 . S
C3303 C3302 1.524 . S
C3303 C3304 1.397 . S
C3303 C3308 1.363 . S
C3304 H3281 0.950 . S
C3304 C3303 1.397 . S
C3304 C3305 1.334 . S
C3305 H3282 0.950 . S
C3305 C3304 1.334 . S
C3305 C3306 1.287 . S
C3306 C3305 1.287 . S
C3306 C3307 1.524 . S
C3306 H3325 0.913 . S
C3307 H3283 0.950 . S
C3307 C3306 1.524 . S
C3307 C3308 1.415 . S
C3308 H3284 0.950 . S
C3308 C3303 1.363 . S
C3308 C3307 1.415 . S
C3309 H3285 0.951 . S
C3309 C3310 1.379 . S
C3309 C3311 1.388 . S
C3310 C3309 1.379 . S
C3310 C3314 1.383 1_565 S
C3311 H3286 0.951 . S
C3311 C3309 1.388 . S
C3311 C3312 1.366 . S
C3312 C3311 1.366 . S
C3312 C3313 1.414 1_565 S
C3312 C3315 1.499 . S
C3313 H3287 0.950 . S
C3313 C3312 1.414 1_545 S
C3313 C3314 1.374 . S
C3314 H3288 0.950 . S
C3314 C3310 1.383 1_545 S
C3314 C3313 1.374 . S
C3315 C3312 1.499 . S
C3315 C3316 1.373 . S
C3315 C3317 1.389 1_565 S
C3316 H3289 0.950 . S
C3316 C3302 1.377 . S
C3316 C3315 1.373 . S
C3317 C3301 1.377 . S
C3317 C3315 1.389 1_545 S
C3317 C3318 1.524 . S
C3318 C3317 1.524 . S
C3318 C3319 1.397 . S
C3318 C3323 1.363 . S
C3319 H3290 0.950 . S
C3319 C3318 1.397 . S
C3319 C3320 1.334 . S
C3320 H3291 0.950 . S
C3320 C3319 1.334 . S
C3320 C3321 1.287 . S
C3321 C3320 1.287 . S
C3321 C3322 1.524 . S
C3321 H3324 0.999 . S
C3322 H3292 0.950 . S
C3322 C3321 1.524 . S
C3322 C3323 1.415 . S
C3323 H3293 0.950 . S
C3323 C3318 1.363 . S
C3323 C3322 1.415 . S
H3324 C3321 0.999 . S
H3325 C3306 0.913 . S
H3326 C3344 0.951 . S
H3327 C3346 0.951 . S
H3328 C3348 0.950 . S
H3329 C3349 0.950 . S
H3330 C3351 0.950 . S
H3331 C3354 0.950 . S
H3332 C3355 0.950 . S
H3333 C3357 0.950 . S
H3334 C3358 0.950 . S
H3335 C3359 0.951 . S
H3336 C3361 0.951 . S
H3337 C3363 0.950 . S
H3338 C3364 0.950 . S
H3339 C3366 0.950 . S
H3340 C3369 0.950 1_455 S
H3341 C3370 0.950 . S
H3342 C3372 0.950 . S
H3343 C3373 0.950 . S
C3344 H3326 0.951 . S
C3344 C3345 1.366 . S
C3344 C3346 1.388 . S
C3345 C3344 1.366 . S
C3345 C3349 1.385 1_455 S
C3346 H3327 0.951 . S
C3346 C3344 1.388 . S
C3346 C3347 1.366 . S
C3347 C3346 1.366 . S
C3347 C3348 1.414 1_455 S
C3347 C3350 1.499 . S
C3348 H3328 0.950 . S
C3348 C3347 1.414 1_655 S
C3348 C3349 1.374 . S
C3349 H3329 0.950 . S
C3349 C3345 1.385 1_655 S
C3349 C3348 1.374 . S
C3350 C3347 1.499 . S
C3350 C3351 1.373 1_455 S
C3350 C3352 1.389 . S
C3351 H3330 0.950 . S
C3351 C3350 1.373 1_655 S
C3351 C3367 1.377 . S
C3352 C3350 1.389 . S
C3352 C3353 1.524 . S
C3352 C3366 1.377 . S
C3353 C3352 1.524 . S
C3353 C3354 1.397 . S
C3353 C3358 1.363 . S
C3354 H3331 0.950 . S
C3354 C3353 1.397 . S
C3354 C3355 1.334 . S
C3355 H3332 0.950 . S
C3355 C3354 1.334 . S
C3355 C3356 1.287 . S
C3356 C3355 1.287 . S
C3356 C3357 1.524 . S
C3356 H3375 0.913 . S
C3357 H3333 0.950 . S
C3357 C3356 1.524 . S
C3357 C3358 1.415 . S
C3358 H3334 0.950 . S
C3358 C3353 1.363 . S
C3358 C3357 1.415 . S
C3359 H3335 0.951 . S
C3359 C3360 1.374 . S
C3359 C3361 1.388 . S
C3360 C3359 1.374 . S
C3360 C3364 1.379 1_655 S
C3361 H3336 0.951 . S
C3361 C3359 1.388 . S
C3361 C3362 1.366 1_655 S
C3362 C3361 1.366 1_455 S
C3362 C3363 1.414 . S
C3362 C3365 1.499 . S
C3363 H3337 0.950 . S
C3363 C3362 1.414 . S
C3363 C3364 1.374 . S
C3364 H3338 0.950 . S
C3364 C3360 1.379 1_455 S
C3364 C3363 1.374 . S
C3365 C3362 1.499 . S
C3365 C3366 1.373 . S
C3365 C3367 1.389 1_455 S
C3366 H3339 0.950 . S
C3366 C3352 1.377 . S
C3366 C3365 1.373 . S
C3367 C3351 1.377 . S
C3367 C3365 1.389 1_655 S
C3367 C3368 1.524 . S
C3368 C3367 1.524 . S
C3368 C3369 1.397 . S
C3368 C3373 1.363 . S
C3369 H3340 0.950 1_655 S
C3369 C3368 1.397 . S
C3369 C3370 1.334 . S
C3370 H3341 0.950 . S
C3370 C3369 1.334 . S
C3370 C3371 1.287 . S
C3371 C3370 1.287 . S
C3371 C3372 1.524 . S
C3371 H3374 0.999 . S
C3372 H3342 0.950 . S
C3372 C3371 1.524 . S
C3372 C3373 1.415 . S
C3373 H3343 0.950 . S
C3373 C3368 1.363 . S
C3373 C3372 1.415 . S
H3374 C3371 0.999 . S
H3375 C3356 0.913 . S
H3376 C3394 0.951 . S
H3377 C3396 0.951 . S
H3378 C3398 0.950 . S
H3379 C3399 0.950 . S
H3380 C3401 0.950 . S
H3381 C3404 0.950 . S
H3382 C3405 0.950 . S
H3383 C3407 0.950 . S
H3384 C3408 0.950 . S
H3385 C3409 0.951 . S
H3386 C3411 0.951 . S
H3387 C3413 0.950 . S
H3388 C3414 0.950 . S
H3389 C3416 0.950 . S
H3390 C3419 0.950 . S
H3391 C3420 0.950 . S
H3392 C3422 0.950 . S
H3393 C3423 0.950 . S
C3394 H3376 0.951 . S
C3394 C3395 1.366 . S
C3394 C3396 1.388 . S
C3395 C3394 1.366 . S
C3395 C3399 1.385 . S
C3396 H3377 0.951 . S
C3396 C3394 1.388 . S
C3396 C3397 1.366 . S
C3397 C3396 1.366 . S
C3397 C3398 1.414 . S
C3397 C3400 1.499 . S
C3398 H3378 0.950 . S
C3398 C3397 1.414 . S
C3398 C3399 1.374 . S
C3399 H3379 0.950 . S
C3399 C3395 1.385 . S
C3399 C3398 1.374 . S
C3400 C3397 1.499 . S
C3400 C3401 1.373 . S
C3400 C3402 1.389 . S
C3401 H3380 0.950 . S
C3401 C3400 1.373 . S
C3401 C3417 1.377 . S
C3402 C3400 1.389 . S
C3402 C3403 1.524 . S
C3402 C3416 1.377 . S
C3403 C3402 1.524 . S
C3403 C3404 1.397 . S
C3403 C3408 1.363 . S
C3404 H3381 0.950 . S
C3404 C3403 1.397 . S
C3404 C3405 1.334 . S
C3405 H3382 0.950 . S
C3405 C3404 1.334 . S
C3405 C3406 1.287 . S
C3406 C3405 1.287 . S
C3406 C3407 1.524 . S
C3406 H3425 0.913 . S
C3407 H3383 0.950 . S
C3407 C3406 1.524 . S
C3407 C3408 1.415 . S
C3408 H3384 0.950 . S
C3408 C3403 1.363 . S
C3408 C3407 1.415 . S
C3409 H3385 0.951 . S
C3409 C3410 1.366 . S
C3409 C3411 1.388 . S
C3410 C3409 1.366 . S
C3410 C3414 1.385 . S
C3411 H3386 0.951 . S
C3411 C3409 1.388 . S
C3411 C3412 1.366 . S
C3412 C3411 1.366 . S
C3412 C3413 1.414 . S
C3412 C3415 1.499 . S
C3413 H3387 0.950 . S
C3413 C3412 1.414 . S
C3413 C3414 1.374 . S
C3414 H3388 0.950 . S
C3414 C3410 1.385 . S
C3414 C3413 1.374 . S
C3415 C3412 1.499 . S
C3415 C3416 1.373 . S
C3415 C3417 1.389 . S
C3416 H3389 0.950 . S
C3416 C3402 1.377 . S
C3416 C3415 1.373 . S
C3417 C3401 1.377 . S
C3417 C3415 1.389 . S
C3417 C3418 1.524 . S
C3418 C3417 1.524 . S
C3418 C3419 1.397 . S
C3418 C3423 1.363 . S
C3419 H3390 0.950 . S
C3419 C3418 1.397 . S
C3419 C3420 1.334 . S
C3420 H3391 0.950 . S
C3420 C3419 1.334 . S
C3420 C3421 1.287 . S
C3421 C3420 1.287 . S
C3421 C3422 1.524 . S
C3421 H3424 0.999 . S
C3422 H3392 0.950 . S
C3422 C3421 1.524 . S
C3422 C3423 1.415 . S
C3423 H3393 0.950 . S
C3423 C3418 1.363 . S
C3423 C3422 1.415 . S
H3424 C3421 0.999 . S
H3425 C3406 0.913 . S
H3426 C3444 0.951 . S
H3427 C3446 0.951 . S
H3428 C3448 0.950 . S
H3429 C3449 0.950 . S
H3430 C3451 0.950 . S
H3431 C3454 0.950 . S
H3432 C3455 0.950 . S
H3433 C3457 0.950 . S
H3434 C3458 0.950 . S
H3435 C3459 0.951 . S
H3436 C3461 0.951 . S
H3437 C3463 0.950 . S
H3438 C3464 0.950 . S
H3439 C3466 0.950 . S
H3440 C3469 0.950 . S
H3441 C3470 0.950 . S
H3442 C3472 0.950 . S
H3443 C3473 0.950 . S
C3444 H3426 0.951 . S
C3444 C3445 1.366 . S
C3444 C3446 1.388 . S
C3445 C3444 1.366 . S
C3445 C3449 1.385 . S
C3446 H3427 0.951 . S
C3446 C3444 1.388 . S
C3446 C3447 1.366 . S
C3447 C3446 1.366 . S
C3447 C3448 1.414 . S
C3447 C3450 1.499 . S
C3448 H3428 0.950 . S
C3448 C3447 1.414 . S
C3448 C3449 1.374 . S
C3449 H3429 0.950 . S
C3449 C3445 1.385 . S
C3449 C3448 1.374 . S
C3450 C3447 1.499 . S
C3450 C3451 1.373 . S
C3450 C3452 1.389 . S
C3451 H3430 0.950 . S
C3451 C3450 1.373 . S
C3451 C3467 1.377 . S
C3452 C3450 1.389 . S
C3452 C3453 1.524 . S
C3452 C3466 1.377 . S
C3453 C3452 1.524 . S
C3453 C3454 1.397 . S
C3453 C3458 1.363 . S
C3454 H3431 0.950 . S
C3454 C3453 1.397 . S
C3454 C3455 1.334 . S
C3455 H3432 0.950 . S
C3455 C3454 1.334 . S
C3455 C3456 1.287 . S
C3456 C3455 1.287 . S
C3456 C3457 1.524 . S
C3456 H3475 0.913 . S
C3457 H3433 0.950 . S
C3457 C3456 1.524 . S
C3457 C3458 1.415 . S
C3458 H3434 0.950 . S
C3458 C3453 1.363 . S
C3458 C3457 1.415 . S
C3459 H3435 0.951 . S
C3459 C3460 1.366 . S
C3459 C3461 1.388 . S
C3460 C3459 1.366 . S
C3460 C3464 1.385 . S
C3461 H3436 0.951 . S
C3461 C3459 1.388 . S
C3461 C3462 1.366 . S
C3462 C3461 1.366 . S
C3462 C3463 1.414 . S
C3462 C3465 1.499 . S
C3463 H3437 0.950 . S
C3463 C3462 1.414 . S
C3463 C3464 1.374 . S
C3464 H3438 0.950 . S
C3464 C3460 1.385 . S
C3464 C3463 1.374 . S
C3465 C3462 1.499 . S
C3465 C3466 1.373 . S
C3465 C3467 1.389 . S
C3466 H3439 0.950 . S
C3466 C3452 1.377 . S
C3466 C3465 1.373 . S
C3467 C3451 1.377 . S
C3467 C3465 1.389 . S
C3467 C3468 1.524 . S
C3468 C3467 1.524 . S
C3468 C3469 1.397 . S
C3468 C3473 1.363 . S
C3469 H3440 0.950 . S
C3469 C3468 1.397 . S
C3469 C3470 1.334 . S
C3470 H3441 0.950 . S
C3470 C3469 1.334 . S
C3470 C3471 1.287 . S
C3471 C3470 1.287 . S
C3471 C3472 1.524 . S
C3471 H3474 0.999 . S
C3472 H3442 0.950 . S
C3472 C3471 1.524 . S
C3472 C3473 1.415 . S
C3473 H3443 0.950 . S
C3473 C3468 1.363 . S
C3473 C3472 1.415 . S
H3474 C3471 0.999 . S
H3475 C3456 0.913 . S
H3476 C3494 0.951 . S
H3477 C3496 0.951 . S
H3478 C3498 0.950 . S
H3479 C3499 0.950 . S
H3480 C3501 0.950 . S
H3481 C3504 0.950 . S
H3482 C3505 0.950 . S
H3483 C3507 0.950 . S
H3484 C3508 0.950 . S
H3485 C3509 0.951 . S
H3486 C3511 0.951 . S
H3487 C3513 0.950 . S
H3488 C3514 0.950 . S
H3489 C3516 0.950 . S
H3490 C3519 0.950 . S
H3491 C3520 0.950 . S
H3492 C3522 0.950 . S
H3493 C3523 0.950 . S
C3494 H3476 0.951 . S
C3494 C3495 1.366 . S
C3494 C3496 1.388 . S
C3495 C3494 1.366 . S
C3495 C3499 1.385 . S
C3496 H3477 0.951 . S
C3496 C3494 1.388 . S
C3496 C3497 1.366 . S
C3497 C3496 1.366 . S
C3497 C3498 1.414 . S
C3497 C3500 1.499 . S
C3498 H3478 0.950 . S
C3498 C3497 1.414 . S
C3498 C3499 1.374 . S
C3499 H3479 0.950 . S
C3499 C3495 1.385 . S
C3499 C3498 1.374 . S
C3500 C3497 1.499 . S
C3500 C3501 1.373 . S
C3500 C3502 1.389 . S
C3501 H3480 0.950 . S
C3501 C3500 1.373 . S
C3501 C3517 1.377 . S
C3502 C3500 1.389 . S
C3502 C3503 1.524 . S
C3502 C3516 1.377 . S
C3503 C3502 1.524 . S
C3503 C3504 1.397 . S
C3503 C3508 1.363 . S
C3504 H3481 0.950 . S
C3504 C3503 1.397 . S
C3504 C3505 1.334 . S
C3505 H3482 0.950 . S
C3505 C3504 1.334 . S
C3505 C3506 1.287 . S
C3506 C3505 1.287 . S
C3506 C3507 1.524 . S
C3506 H3525 0.913 . S
C3507 H3483 0.950 . S
C3507 C3506 1.524 . S
C3507 C3508 1.415 . S
C3508 H3484 0.950 . S
C3508 C3503 1.363 . S
C3508 C3507 1.415 . S
C3509 H3485 0.951 . S
C3509 C3510 1.366 . S
C3509 C3511 1.388 . S
C3510 C3509 1.366 . S
C3510 C3514 1.385 . S
C3511 H3486 0.951 . S
C3511 C3509 1.388 . S
C3511 C3512 1.366 . S
C3512 C3511 1.366 . S
C3512 C3513 1.414 . S
C3512 C3515 1.499 . S
C3513 H3487 0.950 . S
C3513 C3512 1.414 . S
C3513 C3514 1.374 . S
C3514 H3488 0.950 . S
C3514 C3510 1.385 . S
C3514 C3513 1.374 . S
C3515 C3512 1.499 . S
C3515 C3516 1.373 . S
C3515 C3517 1.389 . S
C3516 H3489 0.950 . S
C3516 C3502 1.377 . S
C3516 C3515 1.373 . S
C3517 C3501 1.377 . S
C3517 C3515 1.389 . S
C3517 C3518 1.524 . S
C3518 C3517 1.524 . S
C3518 C3519 1.397 . S
C3518 C3523 1.363 . S
C3519 H3490 0.950 . S
C3519 C3518 1.397 . S
C3519 C3520 1.334 . S
C3520 H3491 0.950 . S
C3520 C3519 1.334 . S
C3520 C3521 1.287 . S
C3521 C3520 1.287 . S
C3521 C3522 1.524 . S
C3521 H3524 0.999 . S
C3522 H3492 0.950 . S
C3522 C3521 1.524 . S
C3522 C3523 1.415 . S
C3523 H3493 0.950 . S
C3523 C3518 1.363 . S
C3523 C3522 1.415 . S
H3524 C3521 0.999 . S
H3525 C3506 0.913 . S
H3526 C3544 0.951 . S
H3527 C3546 0.951 . S
H3528 C3548 0.950 . S
H3529 C3549 0.950 . S
H3530 C3551 0.950 . S
H3531 C3554 0.950 . S
H3532 C3555 0.950 . S
H3533 C3557 0.950 . S
H3534 C3558 0.950 . S
H3535 C3559 0.951 . S
H3536 C3561 0.951 . S
H3537 C3563 0.950 . S
H3538 C3564 0.950 . S
H3539 C3566 0.950 . S
H3540 C3569 0.950 . S
H3541 C3570 0.950 . S
H3542 C3572 0.950 . S
H3543 C3573 0.950 . S
C3544 H3526 0.951 . S
C3544 C3545 1.366 . S
C3544 C3546 1.388 . S
C3545 C3544 1.366 . S
C3545 C3549 1.385 . S
C3546 H3527 0.951 . S
C3546 C3544 1.388 . S
C3546 C3547 1.366 . S
C3547 C3546 1.366 . S
C3547 C3548 1.414 . S
C3547 C3550 1.499 . S
C3548 H3528 0.950 . S
C3548 C3547 1.414 . S
C3548 C3549 1.374 . S
C3549 H3529 0.950 . S
C3549 C3545 1.385 . S
C3549 C3548 1.374 . S
C3550 C3547 1.499 . S
C3550 C3551 1.373 . S
C3550 C3552 1.389 . S
C3551 H3530 0.950 . S
C3551 C3550 1.373 . S
C3551 C3567 1.377 . S
C3552 C3550 1.389 . S
C3552 C3553 1.524 . S
C3552 C3566 1.377 . S
C3553 C3552 1.524 . S
C3553 C3554 1.397 . S
C3553 C3558 1.363 . S
C3554 H3531 0.950 . S
C3554 C3553 1.397 . S
C3554 C3555 1.334 . S
C3555 H3532 0.950 . S
C3555 C3554 1.334 . S
C3555 C3556 1.287 . S
C3556 C3555 1.287 . S
C3556 C3557 1.524 . S
C3556 H3575 0.913 . S
C3557 H3533 0.950 . S
C3557 C3556 1.524 . S
C3557 C3558 1.415 . S
C3558 H3534 0.950 . S
C3558 C3553 1.363 . S
C3558 C3557 1.415 . S
C3559 H3535 0.951 . S
C3559 C3560 1.366 . S
C3559 C3561 1.388 . S
C3560 C3559 1.366 . S
C3560 C3564 1.385 . S
C3561 H3536 0.951 . S
C3561 C3559 1.388 . S
C3561 C3562 1.366 . S
C3562 C3561 1.366 . S
C3562 C3563 1.414 . S
C3562 C3565 1.499 . S
C3563 H3537 0.950 . S
C3563 C3562 1.414 . S
C3563 C3564 1.374 . S
C3564 H3538 0.950 . S
C3564 C3560 1.385 . S
C3564 C3563 1.374 . S
C3565 C3562 1.499 . S
C3565 C3566 1.373 . S
C3565 C3567 1.389 . S
C3566 H3539 0.950 . S
C3566 C3552 1.377 . S
C3566 C3565 1.373 . S
C3567 C3551 1.377 . S
C3567 C3565 1.389 . S
C3567 C3568 1.524 . S
C3568 C3567 1.524 . S
C3568 C3569 1.397 . S
C3568 C3573 1.363 . S
C3569 H3540 0.950 . S
C3569 C3568 1.397 . S
C3569 C3570 1.334 . S
C3570 H3541 0.950 . S
C3570 C3569 1.334 . S
C3570 C3571 1.287 . S
C3571 C3570 1.287 . S
C3571 C3572 1.524 . S
C3571 H3574 0.999 . S
C3572 H3542 0.950 . S
C3572 C3571 1.524 . S
C3572 C3573 1.415 . S
C3573 H3543 0.950 . S
C3573 C3568 1.363 . S
C3573 C3572 1.415 . S
H3574 C3571 0.999 . S
H3575 C3556 0.913 . S
H3576 C3594 0.951 . S
H3577 C3596 0.957 . S
H3578 C3598 0.950 . S
H3579 C3599 0.950 . S
H3580 C3601 0.960 . S
H3581 C3604 0.950 . S
H3582 C3605 0.950 . S
H3583 C3607 0.950 . S
H3584 C3608 0.950 . S
H3585 C3609 0.951 . S
H3586 C3611 0.951 . S
H3587 C3613 0.946 . S
H3588 C3614 0.950 . S
H3589 C3616 0.950 . S
H3590 C3619 0.950 . S
H3591 C3620 0.950 . S
H3592 C3622 0.950 . S
H3593 C3623 0.950 1_545 S
C3594 H3576 0.951 . S
C3594 C3595 1.366 . S
C3594 C3596 1.388 . S
C3595 C3594 1.366 . S
C3595 C3599 1.385 . S
C3596 H3577 0.957 . S
C3596 C3594 1.388 . S
C3596 C3597 1.366 . S
C3597 C3596 1.366 . S
C3597 C3598 1.414 . S
C3597 C3600 1.499 . S
C3598 H3578 0.950 . S
C3598 C3597 1.414 . S
C3598 C3599 1.374 . S
C3599 H3579 0.950 . S
C3599 C3595 1.385 . S
C3599 C3598 1.374 . S
C3600 C3597 1.499 . S
C3600 C3601 1.373 . S
C3600 C3602 1.389 . S
C3601 H3580 0.960 . S
C3601 C3600 1.373 . S
C3601 C3617 1.377 . S
C3602 C3600 1.389 . S
C3602 C3603 1.524 . S
C3602 C3616 1.377 . S
C3603 C3602 1.524 . S
C3603 C3604 1.397 . S
C3603 C3608 1.363 . S
C3604 H3581 0.950 . S
C3604 C3603 1.397 . S
C3604 C3605 1.334 . S
C3605 H3582 0.950 . S
C3605 C3604 1.334 . S
C3605 C3606 1.287 . S
C3606 C3605 1.287 . S
C3606 C3607 1.524 . S
C3606 H3625 0.913 . S
C3607 H3583 0.950 . S
C3607 C3606 1.524 . S
C3607 C3608 1.415 . S
C3608 H3584 0.950 . S
C3608 C3603 1.363 . S
C3608 C3607 1.415 . S
C3609 H3585 0.951 . S
C3609 C3610 1.366 . S
C3609 C3611 1.388 . S
C3610 C3609 1.366 . S
C3610 C3614 1.385 1_545 S
C3611 H3586 0.951 . S
C3611 C3609 1.388 . S
C3611 C3612 1.366 . S
C3612 C3611 1.366 . S
C3612 C3613 1.385 1_545 S
C3612 C3615 1.499 . S
C3613 H3587 0.946 . S
C3613 C3612 1.385 1_565 S
C3613 C3614 1.413 . S
C3614 H3588 0.950 . S
C3614 C3610 1.385 1_565 S
C3614 C3613 1.413 . S
C3615 C3612 1.499 . S
C3615 C3616 1.373 . S
C3615 C3617 1.389 . S
C3616 H3589 0.950 . S
C3616 C3602 1.377 . S
C3616 C3615 1.373 . S
C3617 C3601 1.377 . S
C3617 C3615 1.389 . S
C3617 C3618 1.524 1_545 S
C3618 C3617 1.524 1_565 S
C3618 C3619 1.397 . S
C3618 C3623 1.363 . S
C3619 H3590 0.950 . S
C3619 C3618 1.397 . S
C3619 C3620 1.334 . S
C3620 H3591 0.950 . S
C3620 C3619 1.334 . S
C3620 C3621 1.287 . S
C3621 C3620 1.287 . S
C3621 C3622 1.524 . S
C3621 H3624 0.999 . S
C3622 H3592 0.950 . S
C3622 C3621 1.524 . S
C3622 C3623 1.415 . S
C3623 H3593 0.950 1_565 S
C3623 C3618 1.363 . S
C3623 C3622 1.415 . S
H3624 C3621 0.999 . S
H3625 C3606 0.913 . S
H3626 C3644 0.951 . S
H3627 C3646 0.951 . S
H3628 C3648 0.950 . S
H3629 C3649 0.950 . S
H3630 C3651 0.950 . S
H3631 C3654 0.950 . S
H3632 C3655 0.950 . S
H3633 C3657 0.917 1_455 S
H3634 C3658 0.950 . S
H3635 C3659 0.951 . S
H3636 C3661 0.951 . S
H3637 C3663 0.950 . S
H3638 C3664 0.950 . S
H3639 C3666 0.950 . S
H3640 C3669 0.950 . S
H3641 C3670 0.950 . S
H3642 C3672 0.950 . S
H3643 C3673 0.950 . S
C3644 H3626 0.951 . S
C3644 C3645 1.366 1_455 S
C3644 C3646 1.388 . S
C3645 C3644 1.366 1_655 S
C3645 C3649 1.385 . S
C3646 H3627 0.951 . S
C3646 C3644 1.388 . S
C3646 C3647 1.366 1_455 S
C3647 C3646 1.366 1_655 S
C3647 C3648 1.414 . S
C3647 C3650 1.499 . S
C3648 H3628 0.950 . S
C3648 C3647 1.414 . S
C3648 C3649 1.374 . S
C3649 H3629 0.950 . S
C3649 C3645 1.385 . S
C3649 C3648 1.374 . S
C3650 C3647 1.499 . S
C3650 C3651 1.373 . S
C3650 C3652 1.389 . S
C3651 H3630 0.950 . S
C3651 C3650 1.373 . S
C3651 C3667 1.377 . S
C3652 C3650 1.389 . S
C3652 C3653 1.524 . S
C3652 C3666 1.377 . S
C3653 C3652 1.524 . S
C3653 C3654 1.397 . S
C3653 C3658 1.363 1_655 S
C3654 H3631 0.950 . S
C3654 C3653 1.397 . S
C3654 C3655 1.334 . S
C3655 H3632 0.950 . S
C3655 C3654 1.334 . S
C3655 C3656 1.287 . S
C3656 C3655 1.287 . S
C3656 C3657 1.549 . S
C3656 H3675 0.913 . S
C3657 H3633 0.917 1_655 S
C3657 C3656 1.549 . S
C3657 C3658 1.430 1_655 S
C3658 H3634 0.950 . S
C3658 C3653 1.363 1_455 S
C3658 C3657 1.430 1_455 S
C3659 H3635 0.951 . S
C3659 C3660 1.366 . S
C3659 C3661 1.388 . S
C3660 C3659 1.366 . S
C3660 C3664 1.385 1_655 S
C3661 H3636 0.951 . S
C3661 C3659 1.388 . S
C3661 C3662 1.366 . S
C3662 C3661 1.366 . S
C3662 C3663 1.414 1_655 S
C3662 C3665 1.499 . S
C3663 H3637 0.950 . S
C3663 C3662 1.414 1_455 S
C3663 C3664 1.374 . S
C3664 H3638 0.950 . S
C3664 C3660 1.385 1_455 S
C3664 C3663 1.374 . S
C3665 C3662 1.499 . S
C3665 C3666 1.373 . S
C3665 C3667 1.389 . S
C3666 H3639 0.950 . S
C3666 C3652 1.377 . S
C3666 C3665 1.373 . S
C3667 C3651 1.377 . S
C3667 C3665 1.389 . S
C3667 C3668 1.524 . S
C3668 C3667 1.524 . S
C3668 C3669 1.397 1_655 S
C3668 C3673 1.363 . S
C3669 H3640 0.950 . S
C3669 C3668 1.397 1_455 S
C3669 C3670 1.334 . S
C3670 H3641 0.950 . S
C3670 C3669 1.334 . S
C3670 C3671 1.287 . S
C3671 C3670 1.287 . S
C3671 C3672 1.524 1_455 S
C3671 H3674 0.999 . S
C3672 H3642 0.950 . S
C3672 C3671 1.524 1_655 S
C3672 C3673 1.415 . S
C3673 H3643 0.950 . S
C3673 C3668 1.363 . S
C3673 C3672 1.415 . S
H3674 C3671 0.999 . S
H3675 C3656 0.913 . S
H3676 C3694 0.951 . S
H3677 C3696 0.951 . S
H3678 C3698 0.950 . S
H3679 C3699 0.950 . S
H3680 C3701 0.950 . S
H3681 C3704 0.950 . S
H3682 C3705 0.950 . S
H3683 C3707 0.950 . S
H3684 C3708 0.950 . S
H3685 C3709 0.951 . S
H3686 C3711 0.951 . S
H3687 C3713 0.950 . S
H3688 C3714 0.950 . S
H3689 C3716 0.950 . S
H3690 C3719 0.950 . S
H3691 C3720 0.950 . S
H3692 C3722 0.950 . S
H3693 C3723 0.950 . S
C3694 H3676 0.951 . S
C3694 C3695 1.366 . S
C3694 C3696 1.388 . S
C3695 C3694 1.366 . S
C3695 C3699 1.385 . S
C3696 H3677 0.951 . S
C3696 C3694 1.388 . S
C3696 C3697 1.366 . S
C3697 C3696 1.366 . S
C3697 C3698 1.414 . S
C3697 C3700 1.499 . S
C3698 H3678 0.950 . S
C3698 C3697 1.414 . S
C3698 C3699 1.374 . S
C3699 H3679 0.950 . S
C3699 C3695 1.385 . S
C3699 C3698 1.374 . S
C3700 C3697 1.499 . S
C3700 C3701 1.373 . S
C3700 C3702 1.389 . S
C3701 H3680 0.950 . S
C3701 C3700 1.373 . S
C3701 C3717 1.377 . S
C3702 C3700 1.389 . S
C3702 C3703 1.524 . S
C3702 C3716 1.377 . S
C3703 C3702 1.524 . S
C3703 C3704 1.397 . S
C3703 C3708 1.363 . S
C3704 H3681 0.950 . S
C3704 C3703 1.397 . S
C3704 C3705 1.334 . S
C3705 H3682 0.950 . S
C3705 C3704 1.334 . S
C3705 C3706 1.287 . S
C3706 C3705 1.287 . S
C3706 C3707 1.524 . S
C3706 H3725 0.913 . S
C3707 H3683 0.950 . S
C3707 C3706 1.524 . S
C3707 C3708 1.415 . S
C3708 H3684 0.950 . S
C3708 C3703 1.363 . S
C3708 C3707 1.415 . S
C3709 H3685 0.951 . S
C3709 C3710 1.366 . S
C3709 C3711 1.388 . S
C3710 C3709 1.366 . S
C3710 C3714 1.385 . S
C3711 H3686 0.951 . S
C3711 C3709 1.388 . S
C3711 C3712 1.366 . S
C3712 C3711 1.366 . S
C3712 C3713 1.414 . S
C3712 C3715 1.499 . S
C3713 H3687 0.950 . S
C3713 C3712 1.414 . S
C3713 C3714 1.374 . S
C3714 H3688 0.950 . S
C3714 C3710 1.385 . S
C3714 C3713 1.374 . S
C3715 C3712 1.499 . S
C3715 C3716 1.373 . S
C3715 C3717 1.389 . S
C3716 H3689 0.950 . S
C3716 C3702 1.377 . S
C3716 C3715 1.373 . S
C3717 C3701 1.377 . S
C3717 C3715 1.389 . S
C3717 C3718 1.524 . S
C3718 C3717 1.524 . S
C3718 C3719 1.397 . S
C3718 C3723 1.363 . S
C3719 H3690 0.950 . S
C3719 C3718 1.397 . S
C3719 C3720 1.334 . S
C3720 H3691 0.950 . S
C3720 C3719 1.334 . S
C3720 C3721 1.287 . S
C3721 C3720 1.287 . S
C3721 C3722 1.524 . S
C3721 H3724 0.999 . S
C3722 H3692 0.950 . S
C3722 C3721 1.524 . S
C3722 C3723 1.415 . S
C3723 H3693 0.950 . S
C3723 C3718 1.363 . S
C3723 C3722 1.415 . S
H3724 C3721 0.999 . S
H3725 C3706 0.913 . S
H3726 C3744 0.951 . S
H3727 C3746 0.951 . S
H3728 C3748 0.950 . S
H3729 C3749 0.950 . S
H3730 C3751 0.950 . S
H3731 C3754 0.950 . S
H3732 C3755 0.950 . S
H3733 C3757 0.950 . S
H3734 C3758 0.950 . S
H3735 C3759 0.951 . S
H3736 C3761 0.951 . S
H3737 C3763 0.950 . S
H3738 C3764 0.950 . S
H3739 C3766 0.950 . S
H3740 C3769 0.950 . S
H3741 C3770 0.950 . S
H3742 C3772 0.950 . S
H3743 C3773 0.950 . S
C3744 H3726 0.951 . S
C3744 C3745 1.366 . S
C3744 C3746 1.388 . S
C3745 C3744 1.366 . S
C3745 C3749 1.385 . S
C3746 H3727 0.951 . S
C3746 C3744 1.388 . S
C3746 C3747 1.366 . S
C3747 C3746 1.366 . S
C3747 C3748 1.414 . S
C3747 C3750 1.499 . S
C3748 H3728 0.950 . S
C3748 C3747 1.414 . S
C3748 C3749 1.374 . S
C3749 H3729 0.950 . S
C3749 C3745 1.385 . S
C3749 C3748 1.374 . S
C3750 C3747 1.499 . S
C3750 C3751 1.373 . S
C3750 C3752 1.389 . S
C3751 H3730 0.950 . S
C3751 C3750 1.373 . S
C3751 C3767 1.377 . S
C3752 C3750 1.389 . S
C3752 C3753 1.524 . S
C3752 C3766 1.377 . S
C3753 C3752 1.524 . S
C3753 C3754 1.397 . S
C3753 C3758 1.363 . S
C3754 H3731 0.950 . S
C3754 C3753 1.397 . S
C3754 C3755 1.334 . S
C3755 H3732 0.950 . S
C3755 C3754 1.334 . S
C3755 C3756 1.287 . S
C3756 C3755 1.287 . S
C3756 C3757 1.524 . S
C3756 H3775 0.913 . S
C3757 H3733 0.950 . S
C3757 C3756 1.524 . S
C3757 C3758 1.415 . S
C3758 H3734 0.950 . S
C3758 C3753 1.363 . S
C3758 C3757 1.415 . S
C3759 H3735 0.951 . S
C3759 C3760 1.366 . S
C3759 C3761 1.388 . S
C3760 C3759 1.366 . S
C3760 C3764 1.385 . S
C3761 H3736 0.951 . S
C3761 C3759 1.388 . S
C3761 C3762 1.366 . S
C3762 C3761 1.366 . S
C3762 C3763 1.414 . S
C3762 C3765 1.499 . S
C3763 H3737 0.950 . S
C3763 C3762 1.414 . S
C3763 C3764 1.374 . S
C3764 H3738 0.950 . S
C3764 C3760 1.385 . S
C3764 C3763 1.374 . S
C3765 C3762 1.499 . S
C3765 C3766 1.373 . S
C3765 C3767 1.389 . S
C3766 H3739 0.950 . S
C3766 C3752 1.377 . S
C3766 C3765 1.373 . S
C3767 C3751 1.377 . S
C3767 C3765 1.389 . S
C3767 C3768 1.524 . S
C3768 C3767 1.524 . S
C3768 C3769 1.397 . S
C3768 C3773 1.363 . S
C3769 H3740 0.950 . S
C3769 C3768 1.397 . S
C3769 C3770 1.334 . S
C3770 H3741 0.950 . S
C3770 C3769 1.334 . S
C3770 C3771 1.287 . S
C3771 C3770 1.287 . S
C3771 C3772 1.524 . S
C3771 H3774 0.999 . S
C3772 H3742 0.950 . S
C3772 C3771 1.524 . S
C3772 C3773 1.415 . S
C3773 H3743 0.950 . S
C3773 C3768 1.363 . S
C3773 C3772 1.415 . S
H3774 C3771 0.999 . S
H3775 C3756 0.913 . S
H3776 C3794 0.951 . S
H3777 C3796 0.951 . S
H3778 C3798 0.950 . S
H3779 C3799 0.950 . S
H3780 C3801 0.950 . S
H3781 C3804 0.950 . S
H3782 C3805 0.950 . S
H3783 C3807 0.950 . S
H3784 C3808 0.950 . S
H3785 C3809 0.951 . S
H3786 C3811 0.951 . S
H3787 C3813 0.950 . S
H3788 C3814 0.950 . S
H3789 C3816 0.950 . S
H3790 C3819 0.950 . S
H3791 C3820 0.950 . S
H3792 C3822 0.950 . S
H3793 C3823 0.950 . S
C3794 H3776 0.951 . S
C3794 C3795 1.366 . S
C3794 C3796 1.388 . S
C3795 C3794 1.366 . S
C3795 C3799 1.385 . S
C3796 H3777 0.951 . S
C3796 C3794 1.388 . S
C3796 C3797 1.366 . S
C3797 C3796 1.366 . S
C3797 C3798 1.414 . S
C3797 C3800 1.499 . S
C3798 H3778 0.950 . S
C3798 C3797 1.414 . S
C3798 C3799 1.374 . S
C3799 H3779 0.950 . S
C3799 C3795 1.385 . S
C3799 C3798 1.374 . S
C3800 C3797 1.499 . S
C3800 C3801 1.373 . S
C3800 C3802 1.389 . S
C3801 H3780 0.950 . S
C3801 C3800 1.373 . S
C3801 C3817 1.377 . S
C3802 C3800 1.389 . S
C3802 C3803 1.524 . S
C3802 C3816 1.377 . S
C3803 C3802 1.524 . S
C3803 C3804 1.397 . S
C3803 C3808 1.363 . S
C3804 H3781 0.950 . S
C3804 C3803 1.397 . S
C3804 C3805 1.334 . S
C3805 H3782 0.950 . S
C3805 C3804 1.334 . S
C3805 C3806 1.287 . S
C3806 C3805 1.287 . S
C3806 C3807 1.524 . S
C3806 H3825 0.913 . S
C3807 H3783 0.950 . S
C3807 C3806 1.524 . S
C3807 C3808 1.415 . S
C3808 H3784 0.950 . S
C3808 C3803 1.363 . S
C3808 C3807 1.415 . S
C3809 H3785 0.951 . S
C3809 C3810 1.366 . S
C3809 C3811 1.388 . S
C3810 C3809 1.366 . S
C3810 C3814 1.385 . S
C3811 H3786 0.951 . S
C3811 C3809 1.388 . S
C3811 C3812 1.366 . S
C3812 C3811 1.366 . S
C3812 C3813 1.414 . S
C3812 C3815 1.499 . S
C3813 H3787 0.950 . S
C3813 C3812 1.414 . S
C3813 C3814 1.374 . S
C3814 H3788 0.950 . S
C3814 C3810 1.385 . S
C3814 C3813 1.374 . S
C3815 C3812 1.499 . S
C3815 C3816 1.373 . S
C3815 C3817 1.389 . S
C3816 H3789 0.950 . S
C3816 C3802 1.377 . S
C3816 C3815 1.373 . S
C3817 C3801 1.377 . S
C3817 C3815 1.389 . S
C3817 C3818 1.524 . S
C3818 C3817 1.524 . S
C3818 C3819 1.397 . S
C3818 C3823 1.363 . S
C3819 H3790 0.950 . S
C3819 C3818 1.397 . S
C3819 C3820 1.334 . S
C3820 H3791 0.950 . S
C3820 C3819 1.334 . S
C3820 C3821 1.287 . S
C3821 C3820 1.287 . S
C3821 C3822 1.524 . S
C3821 H3824 0.999 . S
C3822 H3792 0.950 . S
C3822 C3821 1.524 . S
C3822 C3823 1.415 . S
C3823 H3793 0.950 . S
C3823 C3818 1.363 . S
C3823 C3822 1.415 . S
H3824 C3821 0.999 . S
H3825 C3806 0.913 . S
H3826 C3844 0.951 . S
H3827 C3846 0.951 . S
H3828 C3848 0.950 . S
H3829 C3849 0.950 . S
H3830 C3851 0.950 . S
H3831 C3854 0.950 . S
H3832 C3855 0.950 . S
H3833 C3857 0.950 . S
H3834 C3858 0.950 . S
H3835 C3859 0.951 . S
H3836 C3861 0.951 . S
H3837 C3863 0.950 . S
H3838 C3864 0.950 . S
H3839 C3866 0.950 . S
H3840 C3869 0.950 . S
H3841 C3870 0.950 . S
H3842 C3872 0.950 . S
H3843 C3873 0.950 . S
C3844 H3826 0.951 . S
C3844 C3845 1.366 . S
C3844 C3846 1.388 . S
C3845 C3844 1.366 . S
C3845 C3849 1.385 . S
C3846 H3827 0.951 . S
C3846 C3844 1.388 . S
C3846 C3847 1.366 . S
C3847 C3846 1.366 . S
C3847 C3848 1.414 . S
C3847 C3850 1.499 . S
C3848 H3828 0.950 . S
C3848 C3847 1.414 . S
C3848 C3849 1.374 . S
C3849 H3829 0.950 . S
C3849 C3845 1.385 . S
C3849 C3848 1.374 . S
C3850 C3847 1.499 . S
C3850 C3851 1.373 . S
C3850 C3852 1.389 . S
C3851 H3830 0.950 . S
C3851 C3850 1.373 . S
C3851 C3867 1.377 . S
C3852 C3850 1.389 . S
C3852 C3853 1.524 . S
C3852 C3866 1.377 . S
C3853 C3852 1.524 . S
C3853 C3854 1.397 . S
C3853 C3858 1.363 . S
C3854 H3831 0.950 . S
C3854 C3853 1.397 . S
C3854 C3855 1.334 . S
C3855 H3832 0.950 . S
C3855 C3854 1.334 . S
C3855 C3856 1.287 . S
C3856 C3855 1.287 . S
C3856 C3857 1.524 . S
C3856 H3875 0.913 . S
C3857 H3833 0.950 . S
C3857 C3856 1.524 . S
C3857 C3858 1.415 . S
C3858 H3834 0.950 . S
C3858 C3853 1.363 . S
C3858 C3857 1.415 . S
C3859 H3835 0.951 . S
C3859 C3860 1.366 . S
C3859 C3861 1.388 . S
C3860 C3859 1.366 . S
C3860 C3864 1.385 . S
C3861 H3836 0.951 . S
C3861 C3859 1.388 . S
C3861 C3862 1.366 . S
C3862 C3861 1.366 . S
C3862 C3863 1.414 . S
C3862 C3865 1.499 . S
C3863 H3837 0.950 . S
C3863 C3862 1.414 . S
C3863 C3864 1.374 . S
C3864 H3838 0.950 . S
C3864 C3860 1.385 . S
C3864 C3863 1.374 . S
C3865 C3862 1.499 . S
C3865 C3866 1.373 . S
C3865 C3867 1.389 . S
C3866 H3839 0.950 . S
C3866 C3852 1.377 . S
C3866 C3865 1.373 . S
C3867 C3851 1.377 . S
C3867 C3865 1.389 . S
C3867 C3868 1.524 . S
C3868 C3867 1.524 . S
C3868 C3869 1.397 . S
C3868 C3873 1.363 . S
C3869 H3840 0.950 . S
C3869 C3868 1.397 . S
C3869 C3870 1.334 . S
C3870 H3841 0.950 . S
C3870 C3869 1.334 . S
C3870 C3871 1.287 . S
C3871 C3870 1.287 . S
C3871 C3872 1.524 . S
C3871 H3874 0.999 . S
C3872 H3842 0.950 . S
C3872 C3871 1.524 . S
C3872 C3873 1.415 . S
C3873 H3843 0.950 . S
C3873 C3868 1.363 . S
C3873 C3872 1.415 . S
H3874 C3871 0.999 . S
H3875 C3856 0.913 . S
H3876 C3894 0.951 . S
H3877 C3896 0.951 . S
H3878 C3898 0.950 . S
H3879 C3899 0.950 . S
H3880 C3901 0.950 . S
H3881 C3904 0.950 . S
H3882 C3905 0.950 . S
H3883 C3907 0.950 . S
H3884 C3908 0.950 . S
H3885 C3909 0.951 . S
H3886 C3911 0.951 . S
H3887 C3913 0.950 . S
H3888 C3914 0.950 . S
H3889 C3916 0.950 . S
H3890 C3919 0.950 . S
H3891 C3920 0.950 . S
H3892 C3922 0.950 . S
H3893 C3923 0.950 . S
C3894 H3876 0.951 . S
C3894 C3895 1.366 . S
C3894 C3896 1.388 . S
C3895 C3894 1.366 . S
C3895 C3899 1.385 . S
C3896 H3877 0.951 . S
C3896 C3894 1.388 . S
C3896 C3897 1.366 . S
C3897 C3896 1.366 . S
C3897 C3898 1.414 . S
C3897 C3900 1.499 . S
C3898 H3878 0.950 . S
C3898 C3897 1.414 . S
C3898 C3899 1.374 . S
C3899 H3879 0.950 . S
C3899 C3895 1.385 . S
C3899 C3898 1.374 . S
C3900 C3897 1.499 . S
C3900 C3901 1.373 . S
C3900 C3902 1.389 . S
C3901 H3880 0.950 . S
C3901 C3900 1.373 . S
C3901 C3917 1.377 . S
C3902 C3900 1.389 . S
C3902 C3903 1.524 . S
C3902 C3916 1.377 . S
C3903 C3902 1.524 . S
C3903 C3904 1.397 . S
C3903 C3908 1.363 . S
C3904 H3881 0.950 . S
C3904 C3903 1.397 . S
C3904 C3905 1.334 . S
C3905 H3882 0.950 . S
C3905 C3904 1.334 . S
C3905 C3906 1.287 . S
C3906 C3905 1.287 . S
C3906 C3907 1.524 . S
C3906 H3925 0.913 . S
C3907 H3883 0.950 . S
C3907 C3906 1.524 . S
C3907 C3908 1.415 . S
C3908 H3884 0.950 . S
C3908 C3903 1.363 . S
C3908 C3907 1.415 . S
C3909 H3885 0.951 . S
C3909 C3910 1.366 . S
C3909 C3911 1.388 . S
C3910 C3909 1.366 . S
C3910 C3914 1.385 . S
C3911 H3886 0.951 . S
C3911 C3909 1.388 . S
C3911 C3912 1.366 . S
C3912 C3911 1.366 . S
C3912 C3913 1.414 . S
C3912 C3915 1.499 . S
C3913 H3887 0.950 . S
C3913 C3912 1.414 . S
C3913 C3914 1.374 . S
C3914 H3888 0.950 . S
C3914 C3910 1.385 . S
C3914 C3913 1.374 . S
C3915 C3912 1.499 . S
C3915 C3916 1.373 . S
C3915 C3917 1.389 . S
C3916 H3889 0.950 . S
C3916 C3902 1.377 . S
C3916 C3915 1.373 . S
C3917 C3901 1.377 . S
C3917 C3915 1.389 . S
C3917 C3918 1.524 . S
C3918 C3917 1.524 . S
C3918 C3919 1.397 . S
C3918 C3923 1.363 . S
C3919 H3890 0.950 . S
C3919 C3918 1.397 . S
C3919 C3920 1.334 . S
C3920 H3891 0.950 . S
C3920 C3919 1.334 . S
C3920 C3921 1.287 . S
C3921 C3920 1.287 . S
C3921 C3922 1.524 . S
C3921 H3924 0.999 . S
C3922 H3892 0.950 . S
C3922 C3921 1.524 . S
C3922 C3923 1.415 . S
C3923 H3893 0.950 . S
C3923 C3918 1.363 . S
C3923 C3922 1.415 . S
H3924 C3921 0.999 . S
H3925 C3906 0.913 . S
H3926 C3944 0.951 . S
H3927 C3946 0.951 . S
H3928 C3948 0.950 . S
H3929 C3949 0.950 . S
H3930 C3951 0.950 . S
H3931 C3954 0.950 . S
H3932 C3955 0.950 . S
H3933 C3957 0.950 . S
H3934 C3958 0.950 . S
H3935 C3959 0.951 . S
H3936 C3961 0.951 . S
H3937 C3963 0.950 . S
H3938 C3964 0.950 . S
H3939 C3966 0.950 . S
H3940 C3969 0.950 . S
H3941 C3970 0.950 . S
H3942 C3972 0.950 . S
H3943 C3973 0.950 . S
C3944 H3926 0.951 . S
C3944 C3945 1.366 . S
C3944 C3946 1.388 . S
C3945 C3944 1.366 . S
C3945 C3949 1.385 . S
C3946 H3927 0.951 . S
C3946 C3944 1.388 . S
C3946 C3947 1.366 . S
C3947 C3946 1.366 . S
C3947 C3948 1.414 . S
C3947 C3950 1.499 . S
C3948 H3928 0.950 . S
C3948 C3947 1.414 . S
C3948 C3949 1.374 . S
C3949 H3929 0.950 . S
C3949 C3945 1.385 . S
C3949 C3948 1.374 . S
C3950 C3947 1.499 . S
C3950 C3951 1.373 . S
C3950 C3952 1.389 . S
C3951 H3930 0.950 . S
C3951 C3950 1.373 . S
C3951 C3967 1.377 . S
C3952 C3950 1.389 . S
C3952 C3953 1.524 . S
C3952 C3966 1.377 . S
C3953 C3952 1.524 . S
C3953 C3954 1.397 . S
C3953 C3958 1.363 . S
C3954 H3931 0.950 . S
C3954 C3953 1.397 . S
C3954 C3955 1.334 . S
C3955 H3932 0.950 . S
C3955 C3954 1.334 . S
C3955 C3956 1.287 . S
C3956 C3955 1.287 . S
C3956 C3957 1.524 . S
C3956 H3975 0.913 . S
C3957 H3933 0.950 . S
C3957 C3956 1.524 . S
C3957 C3958 1.415 . S
C3958 H3934 0.950 . S
C3958 C3953 1.363 . S
C3958 C3957 1.415 . S
C3959 H3935 0.951 . S
C3959 C3960 1.366 . S
C3959 C3961 1.388 . S
C3960 C3959 1.366 . S
C3960 C3964 1.385 . S
C3961 H3936 0.951 . S
C3961 C3959 1.388 . S
C3961 C3962 1.366 . S
C3962 C3961 1.366 . S
C3962 C3963 1.414 . S
C3962 C3965 1.499 . S
C3963 H3937 0.950 . S
C3963 C3962 1.414 . S
C3963 C3964 1.374 . S
C3964 H3938 0.950 . S
C3964 C3960 1.385 . S
C3964 C3963 1.374 . S
C3965 C3962 1.499 . S
C3965 C3966 1.373 . S
C3965 C3967 1.389 . S
C3966 H3939 0.950 . S
C3966 C3952 1.377 . S
C3966 C3965 1.373 . S
C3967 C3951 1.377 . S
C3967 C3965 1.389 . S
C3967 C3968 1.524 . S
C3968 C3967 1.524 . S
C3968 C3969 1.397 . S
C3968 C3973 1.363 . S
C3969 H3940 0.950 . S
C3969 C3968 1.397 . S
C3969 C3970 1.334 . S
C3970 H3941 0.950 . S
C3970 C3969 1.334 . S
C3970 C3971 1.287 . S
C3971 C3970 1.287 . S
C3971 C3972 1.524 . S
C3971 H3974 0.999 . S
C3972 H3942 0.950 . S
C3972 C3971 1.524 . S
C3972 C3973 1.415 . S
C3973 H3943 0.950 . S
C3973 C3968 1.363 . S
C3973 C3972 1.415 . S
H3974 C3971 0.999 . S
H3975 C3956 0.913 . S
H3976 C3994 0.951 . S
H3977 C3996 0.951 . S
H3978 C3998 0.950 . S
H3979 C3999 0.950 . S
H3980 C4001 0.950 . S
H3981 C4004 0.950 . S
H3982 C4005 0.950 . S
H3983 C4007 0.950 . S
H3984 C4008 0.950 . S
H3985 C4009 0.951 . S
H3986 C4011 0.951 . S
H3987 C4013 0.950 . S
H3988 C4014 0.950 . S
H3989 C4016 0.950 . S
H3990 C4019 0.950 . S
H3991 C4020 0.950 . S
H3992 C4022 0.950 . S
H3993 C4023 0.950 . S
C3994 H3976 0.951 . S
C3994 C3995 1.366 . S
C3994 C3996 1.388 . S
C3995 C3994 1.366 . S
C3995 C3999 1.385 . S
C3996 H3977 0.951 . S
C3996 C3994 1.388 . S
C3996 C3997 1.366 . S
C3997 C3996 1.366 . S
C3997 C3998 1.414 . S
C3997 C4000 1.499 . S
C3998 H3978 0.950 . S
C3998 C3997 1.414 . S
C3998 C3999 1.374 . S
C3999 H3979 0.950 . S
C3999 C3995 1.385 . S
C3999 C3998 1.374 . S
C4000 C3997 1.499 . S
C4000 C4001 1.373 . S
C4000 C4002 1.389 . S
C4001 H3980 0.950 . S
C4001 C4000 1.373 . S
C4001 C4017 1.377 . S
C4002 C4000 1.389 . S
C4002 C4003 1.524 . S
C4002 C4016 1.377 . S
C4003 C4002 1.524 . S
C4003 C4004 1.397 . S
C4003 C4008 1.363 . S
C4004 H3981 0.950 . S
C4004 C4003 1.397 . S
C4004 C4005 1.334 . S
C4005 H3982 0.950 . S
C4005 C4004 1.334 . S
C4005 C4006 1.287 . S
C4006 C4005 1.287 . S
C4006 C4007 1.524 . S
C4006 H4025 0.913 . S
C4007 H3983 0.950 . S
C4007 C4006 1.524 . S
C4007 C4008 1.415 . S
C4008 H3984 0.950 . S
C4008 C4003 1.363 . S
C4008 C4007 1.415 . S
C4009 H3985 0.951 . S
C4009 C4010 1.366 . S
C4009 C4011 1.388 . S
C4010 C4009 1.366 . S
C4010 C4014 1.385 . S
C4011 H3986 0.951 . S
C4011 C4009 1.388 . S
C4011 C4012 1.366 . S
C4012 C4011 1.366 . S
C4012 C4013 1.414 . S
C4012 C4015 1.499 . S
C4013 H3987 0.950 . S
C4013 C4012 1.414 . S
C4013 C4014 1.374 . S
C4014 H3988 0.950 . S
C4014 C4010 1.385 . S
C4014 C4013 1.374 . S
C4015 C4012 1.499 . S
C4015 C4016 1.373 . S
C4015 C4017 1.389 . S
C4016 H3989 0.950 . S
C4016 C4002 1.377 . S
C4016 C4015 1.373 . S
C4017 C4001 1.377 . S
C4017 C4015 1.389 . S
C4017 C4018 1.524 . S
C4018 C4017 1.524 . S
C4018 C4019 1.397 . S
C4018 C4023 1.363 . S
C4019 H3990 0.950 . S
C4019 C4018 1.397 . S
C4019 C4020 1.334 . S
C4020 H3991 0.950 . S
C4020 C4019 1.334 . S
C4020 C4021 1.287 . S
C4021 C4020 1.287 . S
C4021 C4022 1.524 . S
C4021 H4024 0.999 . S
C4022 H3992 0.950 . S
C4022 C4021 1.524 . S
C4022 C4023 1.415 . S
C4023 H3993 0.950 . S
C4023 C4018 1.363 . S
C4023 C4022 1.415 . S
H4024 C4021 0.999 . S
H4025 C4006 0.913 . S
H4026 C4044 0.951 . S
H4027 C4046 0.951 . S
H4028 C4048 0.950 . S
H4029 C4049 0.950 . S
H4030 C4051 0.950 . S
H4031 C4054 0.950 . S
H4032 C4055 0.950 . S
H4033 C4057 0.950 . S
H4034 C4058 0.950 . S
H4035 C4059 0.949 1_455 S
H4036 C4061 0.951 . S
H4037 C4063 0.950 . S
H4038 C4064 0.950 . S
H4039 C4066 0.950 . S
H4040 C4069 0.950 . S
H4041 C4070 0.950 . S
H4042 C4072 0.950 . S
H4043 C4073 0.950 . S
C4044 H4026 0.951 . S
C4044 C4045 1.366 . S
C4044 C4046 1.388 . S
C4045 C4044 1.366 . S
C4045 C4049 1.385 . S
C4046 H4027 0.951 . S
C4046 C4044 1.388 . S
C4046 C4047 1.366 . S
C4047 C4046 1.366 . S
C4047 C4048 1.414 . S
C4047 C4050 1.499 . S
C4048 H4028 0.950 . S
C4048 C4047 1.414 . S
C4048 C4049 1.374 . S
C4049 H4029 0.950 . S
C4049 C4045 1.385 . S
C4049 C4048 1.374 . S
C4050 C4047 1.499 . S
C4050 C4051 1.373 . S
C4050 C4052 1.389 1_655 S
C4051 H4030 0.950 . S
C4051 C4050 1.373 . S
C4051 C4067 1.377 . S
C4052 C4050 1.389 1_455 S
C4052 C4053 1.524 . S
C4052 C4066 1.377 . S
C4053 C4052 1.524 . S
C4053 C4054 1.397 . S
C4053 C4058 1.363 . S
C4054 H4031 0.950 . S
C4054 C4053 1.397 . S
C4054 C4055 1.334 . S
C4055 H4032 0.950 . S
C4055 C4054 1.334 . S
C4055 C4056 1.287 . S
C4056 C4055 1.287 . S
C4056 C4057 1.524 . S
C4056 H4075 0.913 . S
C4057 H4033 0.950 . S
C4057 C4056 1.524 . S
C4057 C4058 1.415 . S
C4058 H4034 0.950 . S
C4058 C4053 1.363 . S
C4058 C4057 1.415 . S
C4059 H4035 0.949 1_655 S
C4059 C4060 1.368 . S
C4059 C4061 1.390 . S
C4060 C4059 1.368 . S
C4060 C4064 1.415 . S
C4061 H4036 0.951 . S
C4061 C4059 1.390 . S
C4061 C4062 1.366 . S
C4062 C4061 1.366 . S
C4062 C4063 1.414 . S
C4062 C4065 1.499 . S
C4063 H4037 0.950 . S
C4063 C4062 1.414 . S
C4063 C4064 1.374 . S
C4064 H4038 0.950 . S
C4064 C4060 1.415 . S
C4064 C4063 1.374 . S
C4065 C4062 1.499 . S
C4065 C4066 1.373 1_655 S
C4065 C4067 1.389 . S
C4066 H4039 0.950 . S
C4066 C4052 1.377 . S
C4066 C4065 1.373 1_455 S
C4067 C4051 1.377 . S
C4067 C4065 1.389 . S
C4067 C4068 1.524 . S
C4068 C4067 1.524 . S
C4068 C4069 1.397 . S
C4068 C4073 1.363 . S
C4069 H4040 0.950 . S
C4069 C4068 1.397 . S
C4069 C4070 1.334 . S
C4070 H4041 0.950 . S
C4070 C4069 1.334 . S
C4070 C4071 1.287 . S
C4071 C4070 1.287 . S
C4071 C4072 1.524 . S
C4071 H4074 0.999 . S
C4072 H4042 0.950 . S
C4072 C4071 1.524 . S
C4072 C4073 1.415 . S
C4073 H4043 0.950 . S
C4073 C4068 1.363 . S
C4073 C4072 1.415 . S
H4074 C4071 0.999 . S
H4075 C4056 0.913 . S
H4076 C4094 0.951 . S
H4077 C4096 0.951 . S
H4078 C4098 0.950 . S
H4079 C4099 0.950 . S
H4080 C4101 0.950 . S
H4081 C4104 0.950 . S
H4082 C4105 0.950 . S
H4083 C4107 0.950 . S
H4084 C4108 0.950 . S
H4085 C4109 0.951 . S
H4086 C4111 0.951 . S
H4087 C4113 0.950 . S
H4088 C4114 0.950 . S
H4089 C4116 0.950 . S
H4090 C4119 0.950 . S
H4091 C4120 0.950 . S
H4092 C4122 0.950 . S
H4093 C4123 0.950 . S
C4094 H4076 0.951 . S
C4094 C4095 1.366 . S
C4094 C4096 1.388 . S
C4095 C4094 1.366 . S
C4095 C4099 1.385 . S
C4096 H4077 0.951 . S
C4096 C4094 1.388 . S
C4096 C4097 1.366 . S
C4097 C4096 1.366 . S
C4097 C4098 1.414 . S
C4097 C4100 1.499 . S
C4098 H4078 0.950 . S
C4098 C4097 1.414 . S
C4098 C4099 1.374 . S
C4099 H4079 0.950 . S
C4099 C4095 1.385 . S
C4099 C4098 1.374 . S
C4100 C4097 1.499 . S
C4100 C4101 1.373 . S
C4100 C4102 1.389 . S
C4101 H4080 0.950 . S
C4101 C4100 1.373 . S
C4101 C4117 1.377 . S
C4102 C4100 1.389 . S
C4102 C4103 1.524 . S
C4102 C4116 1.377 . S
C4103 C4102 1.524 . S
C4103 C4104 1.397 . S
C4103 C4108 1.363 . S
C4104 H4081 0.950 . S
C4104 C4103 1.397 . S
C4104 C4105 1.334 . S
C4105 H4082 0.950 . S
C4105 C4104 1.334 . S
C4105 C4106 1.287 . S
C4106 C4105 1.287 . S
C4106 C4107 1.524 . S
C4106 H4125 0.913 . S
C4107 H4083 0.950 . S
C4107 C4106 1.524 . S
C4107 C4108 1.415 . S
C4108 H4084 0.950 . S
C4108 C4103 1.363 . S
C4108 C4107 1.415 . S
C4109 H4085 0.951 . S
C4109 C4110 1.366 . S
C4109 C4111 1.388 . S
C4110 C4109 1.366 . S
C4110 C4114 1.385 . S
C4111 H4086 0.951 . S
C4111 C4109 1.388 . S
C4111 C4112 1.366 . S
C4112 C4111 1.366 . S
C4112 C4113 1.414 . S
C4112 C4115 1.499 . S
C4113 H4087 0.950 . S
C4113 C4112 1.414 . S
C4113 C4114 1.374 . S
C4114 H4088 0.950 . S
C4114 C4110 1.385 . S
C4114 C4113 1.374 . S
C4115 C4112 1.499 . S
C4115 C4116 1.373 . S
C4115 C4117 1.389 . S
C4116 H4089 0.950 . S
C4116 C4102 1.377 . S
C4116 C4115 1.373 . S
C4117 C4101 1.377 . S
C4117 C4115 1.389 . S
C4117 C4118 1.524 . S
C4118 C4117 1.524 . S
C4118 C4119 1.397 . S
C4118 C4123 1.363 . S
C4119 H4090 0.950 . S
C4119 C4118 1.397 . S
C4119 C4120 1.334 . S
C4120 H4091 0.950 . S
C4120 C4119 1.334 . S
C4120 C4121 1.287 . S
C4121 C4120 1.287 . S
C4121 C4122 1.524 . S
C4121 H4124 0.999 . S
C4122 H4092 0.950 . S
C4122 C4121 1.524 . S
C4122 C4123 1.415 . S
C4123 H4093 0.950 . S
C4123 C4118 1.363 . S
C4123 C4122 1.415 . S
H4124 C4121 0.999 . S
H4125 C4106 0.913 . S
H4126 C4144 0.951 . S
H4127 C4146 0.951 . S
H4128 C4148 0.950 . S
H4129 C4149 0.950 . S
H4130 C4151 0.950 . S
H4131 C4154 0.950 . S
H4132 C4155 0.950 . S
H4133 C4157 0.950 . S
H4134 C4158 0.950 . S
H4135 C4159 0.951 . S
H4136 C4161 0.951 . S
H4137 C4163 0.950 . S
H4138 C4164 0.950 . S
H4139 C4166 0.950 . S
H4140 C4169 0.950 1_565 S
H4141 C4170 0.950 1_565 S
H4142 C4172 0.950 . S
H4143 C4173 0.950 . S
C4144 H4126 0.951 . S
C4144 C4145 1.366 1_565 S
C4144 C4146 1.388 . S
C4145 C4144 1.366 1_545 S
C4145 C4149 1.385 . S
C4146 H4127 0.951 . S
C4146 C4144 1.388 . S
C4146 C4147 1.366 1_565 S
C4147 C4146 1.366 1_545 S
C4147 C4148 1.414 . S
C4147 C4150 1.499 . S
C4148 H4128 0.950 . S
C4148 C4147 1.414 . S
C4148 C4149 1.374 . S
C4149 H4129 0.950 . S
C4149 C4145 1.385 . S
C4149 C4148 1.374 . S
C4150 C4147 1.499 . S
C4150 C4151 1.373 . S
C4150 C4152 1.389 . S
C4151 H4130 0.950 . S
C4151 C4150 1.373 . S
C4151 C4167 1.377 . S
C4152 C4150 1.389 . S
C4152 C4153 1.524 1_545 S
C4152 C4166 1.405 1_545 S
C4153 C4152 1.524 1_565 S
C4153 C4154 1.397 1_565 S
C4153 C4158 1.363 . S
C4154 H4131 0.950 . S
C4154 C4153 1.397 1_545 S
C4154 C4155 1.334 . S
C4155 H4132 0.950 . S
C4155 C4154 1.334 . S
C4155 C4156 1.287 1_545 S
C4156 C4155 1.287 1_565 S
C4156 C4157 1.524 . S
C4156 H4175 0.913 . S
C4157 H4133 0.950 . S
C4157 C4156 1.524 . S
C4157 C4158 1.415 . S
C4158 H4134 0.950 . S
C4158 C4153 1.363 . S
C4158 C4157 1.415 . S
C4159 H4135 0.951 . S
C4159 C4160 1.370 1_545 S
C4159 C4161 1.388 . S
C4160 C4159 1.370 1_565 S
C4160 C4164 1.377 . S
C4161 H4136 0.951 . S
C4161 C4159 1.388 . S
C4161 C4162 1.366 . S
C4162 C4161 1.366 . S
C4162 C4163 1.414 1_545 S
C4162 C4165 1.499 . S
C4163 H4137 0.950 . S
C4163 C4162 1.414 1_565 S
C4163 C4164 1.374 . S
C4164 H4138 0.950 . S
C4164 C4160 1.377 . S
C4164 C4163 1.374 . S
C4165 C4162 1.499 . S
C4165 C4166 1.353 1_545 S
C4165 C4167 1.389 . S
C4166 H4139 0.950 . S
C4166 C4152 1.405 1_565 S
C4166 C4165 1.353 1_565 S
C4167 C4151 1.377 . S
C4167 C4165 1.389 . S
C4167 C4168 1.524 . S
C4168 C4167 1.524 . S
C4168 C4169 1.397 . S
C4168 C4173 1.363 . S
C4169 H4140 0.950 1_545 S
C4169 C4168 1.397 . S
C4169 C4170 1.334 . S
C4170 H4141 0.950 1_545 S
C4170 C4169 1.334 . S
C4170 C4171 1.287 . S
C4171 C4170 1.287 . S
C4171 C4172 1.524 . S
C4171 H4174 0.999 . S
C4172 H4142 0.950 . S
C4172 C4171 1.524 . S
C4172 C4173 1.415 . S
C4173 H4143 0.950 . S
C4173 C4168 1.363 . S
C4173 C4172 1.415 . S
H4174 C4171 0.999 . S
H4175 C4156 0.913 . S
C595 C7 1.499 . S
C610 C421 1.510 . S
C645 C23 1.578 . S
C660 C446 1.569 . S
C710 C457 1.527 . S
C695 C37 1.532 . S
C745 C35 1.523 1_545 S
C760 C482 1.524 . S
C795 C9 1.538 1_455 S
C810 C500 1.538 . S
C845 C21 1.547 . S
C860 C511 1.560 . S
C895 C49 1.491 . S
C910 C493 1.501 . S
C960 C518 1.544 . S
C945 C65 1.549 . S
C1010 C475 1.540 . S
C995 C79 1.534 1_565 S
C1045 C77 1.491 . S
C1060 C464 1.491 . S
C1110 C428 1.507 . S
C1095 C51 1.527 1_655 S
C1145 C63 1.523 . S
C1160 C439 1.544 . S
C1195 C91 1.597 . S
C1210 C529 1.610 . S
C1245 C107 1.622 . S
C1260 C554 1.609 . S
C1310 C565 1.604 . S
C1295 C121 1.632 . S
C1345 C119 1.583 . S
C1360 C266 1.600 . S
C1395 C93 1.630 . S
C1410 C284 1.616 . S
C1445 C105 1.576 . S
C1460 C295 1.584 . S
C1495 C133 1.520 . S
C1510 C277 1.539 . S
C1545 C149 1.574 . S
C1560 C302 1.568 . S
C1610 C259 1.589 . S
C1595 C163 1.596 . S
C1660 C572 1.618 . S
C1645 C161 1.598 . S
C1710 C536 1.574 . S
C1695 C135 1.586 . S
C1760 C547 1.596 . S
C1745 C147 1.570 . S
C1795 C175 1.549 . S
C1810 C313 1.558 . S
C1845 C191 1.600 . S
C1860 C338 1.590 . S
C1895 C205 1.628 . S
C1910 C349 1.602 . S
C1945 C203 1.627 . S
C1960 C374 1.648 . S
C2010 C392 1.612 . S
C1995 C177 1.628 . S
C2060 C403 1.614 . S
C2045 C189 1.598 . S
C2110 C385 1.600 . S
C2095 C217 1.576 . S
C2160 C410 1.587 . S
C2145 C233 1.595 . S
C2195 C247 1.593 . S
C2210 C367 1.583 . S
C2260 C356 1.563 . S
C2245 C245 1.547 . S
C2295 C219 1.594 . S
C2310 C320 1.585 . S
C2360 C331 1.574 . S
C2345 C231 1.554 . S
C2410 C268 1.458 . S
C2395 C8 1.524 . S
C2445 C17 1.461 . S
C2460 C286 1.392 . S
C2510 C296 1.455 . S
C2495 C31 1.522 . S
C2560 C314 1.464 . S
C2545 C36 1.535 . S
C2610 C340 1.431 . S
C2595 C3 1.499 . S
C2660 C350 1.392 . S
C2645 C22 1.461 . S
C2695 C50 1.558 . S
C2710 C358 1.475 . S
C2745 C59 1.486 . S
C2760 C322 1.398 . S
C2795 C73 1.527 . S
C2810 C332 1.453 . S
C2845 C78 1.582 . S
C2860 C278 1.510 . S
C2910 C304 1.435 . S
C2895 C45 1.519 . S
C2945 C64 1.495 . S
C2960 C260 1.419 . S
C3010 C376 1.447 . S
C2995 C92 1.515 . S
C3045 C101 1.561 . S
C3060 C394 1.488 . S
C3095 C115 1.581 . S
C3110 C404 1.505 . S
C3160 C422 1.402 . S
C3145 C120 1.460 . S
C3195 C87 1.511 . S
C3210 C448 1.439 . S
C3245 C106 1.429 . S
C3260 C458 1.371 . S
C3295 C134 1.456 . S
C3310 C466 1.392 . S
C3345 C143 1.456 . S
C3360 C430 1.381 1_655 S
C3410 C440 1.476 . S
C3395 C157 1.551 . S
C3445 C162 1.552 . S
C3460 C386 1.474 . S
C3495 C129 1.597 . S
C3510 C412 1.500 . S
C3560 C368 1.501 . S
C3545 C148 1.581 . S
C3610 C484 1.392 . S
C3595 C176 1.452 . S
C3645 C185 1.448 . S
C3660 C502 1.379 . S
C3695 C199 1.525 . S
C3710 C512 1.455 . S
C3760 C530 1.443 . S
C3745 C204 1.513 . S
C3810 C556 1.496 . S
C3795 C171 1.573 . S
C3845 C190 1.553 . S
C3860 C566 1.482 . S
C3895 C218 1.549 . S
C3910 C574 1.459 . S
C3945 C227 1.584 . S
C3960 C538 1.491 . S
C4010 C548 1.513 . S
C3995 C241 1.595 . S
C4060 C494 1.366 1_655 S
C4045 C246 1.460 . S
C4110 C520 1.449 . S
C4095 C213 1.539 . S
C4145 C232 1.443 . S
C4160 C476 1.411 . S
