# Generated by pormake.
# Topology zzz, (3,6)-cn, num edge types: 1
# Building blocks:
#     Node 0, Type 0, BuildingBlock: BETDAH_clean_linker_0, # of connection points: 3
#     Node 1, Type 0, BuildingBlock: BETDAH_clean_linker_0, # of connection points: 3
#     Node 2, Type 0, BuildingBlock: BETDAH_clean_linker_0, # of connection points: 3
#     Node 3, Type 0, BuildingBlock: BETDAH_clean_linker_0, # of connection points: 3
#     Node 4, Type 0, BuildingBlock: BETDAH_clean_linker_0, # of connection points: 3
#     Node 5, Type 0, BuildingBlock: BETDAH_clean_linker_0, # of connection points: 3
#     Node 6, Type 0, BuildingBlock: BETDAH_clean_linker_0, # of connection points: 3
#     Node 7, Type 0, BuildingBlock: BETDAH_clean_linker_0, # of connection points: 3
#     Node 8, Type 1, BuildingBlock: JUFBIX_clean_sbu_0, # of connection points: 6
#     Node 9, Type 1, BuildingBlock: JUFBIX_clean_sbu_0, # of connection points: 6
#     Node 10, Type 1, BuildingBlock: JUFBIX_clean_sbu_0, # of connection points: 6
#     Node 11, Type 1, BuildingBlock: JUFBIX_clean_sbu_0, # of connection points: 6
#     Edge 12, Type (0, 1), BuildingBlock: AJUNOK_clean_linker_0, # of connection points: 2
#     Edge 13, Type (0, 1), BuildingBlock: AJUNOK_clean_linker_0, # of connection points: 2
#     Edge 14, Type (0, 1), BuildingBlock: AJUNOK_clean_linker_0, # of connection points: 2
#     Edge 15, Type (0, 1), BuildingBlock: AJUNOK_clean_linker_0, # of connection points: 2
#     Edge 16, Type (0, 1), BuildingBlock: AJUNOK_clean_linker_0, # of connection points: 2
#     Edge 17, Type (0, 1), BuildingBlock: AJUNOK_clean_linker_0, # of connection points: 2
#     Edge 18, Type (0, 1), BuildingBlock: AJUNOK_clean_linker_0, # of connection points: 2
#     Edge 19, Type (0, 1), BuildingBlock: AJUNOK_clean_linker_0, # of connection points: 2
#     Edge 20, Type (0, 1), BuildingBlock: AJUNOK_clean_linker_0, # of connection points: 2
#     Edge 21, Type (0, 1), BuildingBlock: AJUNOK_clean_linker_0, # of connection points: 2
#     Edge 22, Type (0, 1), BuildingBlock: AJUNOK_clean_linker_0, # of connection points: 2
#     Edge 23, Type (0, 1), BuildingBlock: AJUNOK_clean_linker_0, # of connection points: 2
#     Edge 24, Type (0, 1), BuildingBlock: AJUNOK_clean_linker_0, # of connection points: 2
#     Edge 25, Type (0, 1), BuildingBlock: AJUNOK_clean_linker_0, # of connection points: 2
#     Edge 26, Type (0, 1), BuildingBlock: AJUNOK_clean_linker_0, # of connection points: 2
#     Edge 27, Type (0, 1), BuildingBlock: AJUNOK_clean_linker_0, # of connection points: 2
#     Edge 28, Type (0, 1), BuildingBlock: AJUNOK_clean_linker_0, # of connection points: 2
#     Edge 29, Type (0, 1), BuildingBlock: AJUNOK_clean_linker_0, # of connection points: 2
#     Edge 30, Type (0, 1), BuildingBlock: AJUNOK_clean_linker_0, # of connection points: 2
#     Edge 31, Type (0, 1), BuildingBlock: AJUNOK_clean_linker_0, # of connection points: 2
#     Edge 32, Type (0, 1), BuildingBlock: AJUNOK_clean_linker_0, # of connection points: 2
#     Edge 33, Type (0, 1), BuildingBlock: AJUNOK_clean_linker_0, # of connection points: 2
#     Edge 34, Type (0, 1), BuildingBlock: AJUNOK_clean_linker_0, # of connection points: 2
#     Edge 35, Type (0, 1), BuildingBlock: AJUNOK_clean_linker_0, # of connection points: 2
# Relax obj value: 0.113
# Max RMSD: 0.173
# Mean RMSD: 0.084
data_MOF--net-zzz--node1-JUFBIX_clean_sbu_0--node2-BETDAH_clean_linker_0--edge1-AJUNOK_clean_linker_0
_symmetry_space_group_name_H-M    P1
_symmetry_Int_Tables_number       1
_symmetry_cell_setting            triclinic
loop_
_symmetry_equiv_pos_as_xyz
'x, y, z'
_cell_length_a     38.389951
_cell_length_b     38.203498
_cell_length_c     13.478391
_cell_angle_alpha  78.723408
_cell_angle_beta   90.099796
_cell_angle_gamma 90.909672
loop_
_atom_site_label
_atom_site_type_symbol
_atom_site_fract_x
_atom_site_fract_y
_atom_site_fract_z
_atom_type_partial_charge
H0 H 0.92798 0.51264 0.35101 0.0
H1 H 0.8395 0.51855 0.15325 0.0
H2 H 0.8272 0.53223 0.4624 0.0
C3 C 0.90015 0.51592 0.33846 0.0
C4 C 0.87945 0.52321 0.41607 0.0
C5 C 0.88639 0.51561 0.24283 0.0
C6 C 0.85024 0.51883 0.22746 0.0
C7 C 0.8285 0.52408 0.30789 0.0
C8 C 0.84347 0.52689 0.40161 0.0
N9 N 0.79186 0.52807 0.2969 0.0
C10 C 0.77265 0.52389 0.21219 0.0
H11 H 0.04658 0.86624 0.30608 0.0
H12 H 0.04141 0.78343 0.13294 0.0
H13 H 1.00016 0.76519 0.43725 0.0
C14 C 0.04112 0.83861 0.30175 0.0
C15 C 0.02438 0.81674 0.38316 0.0
C16 C 0.04735 0.82702 0.21154 0.0
C17 C 0.03736 0.79213 0.20378 0.0
C18 C 0.02071 0.76934 0.28586 0.0
C19 C 1.01397 0.78202 0.37523 0.0
N20 N 1.00907 0.73433 0.27913 0.0
C21 C 1.01447 0.71897 0.19495 0.0
H22 H 0.68194 0.02291 0.18016 0.0
H23 H 0.77391 1.01655 0.00235 0.0
H24 H 0.77712 0.98816 0.32924 0.0
C25 C 0.7097 0.01831 0.17537 0.0
C26 C 0.72781 1.00637 0.26438 0.0
C27 C 0.72561 0.02214 0.08076 0.0
C28 C 0.76142 1.01443 0.07529 0.0
C29 C 0.78041 1.00273 0.16588 0.0
C30 C 0.76307 0.99811 0.25989 0.0
N31 N 0.81617 0.9932 0.16727 0.0
C32 C 0.84096 1.00335 0.09101 0.0
H33 H 0.54614 0.63283 0.21031 0.0
H34 H 0.53359 0.73852 0.03168 0.0
H35 H 0.54093 0.72223 0.35762 0.0
C36 C 0.54409 0.66144 0.20557 0.0
C37 C 0.54455 0.67493 0.29408 0.0
C38 C 0.53967 0.68381 0.11131 0.0
C39 C 0.53682 0.72109 0.10466 0.0
C40 C 0.53768 0.73518 0.19448 0.0
C41 C 0.54102 0.71171 0.28852 0.0
N42 N 0.53444 0.77219 0.19644 0.0
C43 C 0.5337 0.80132 0.11571 0.0
H44 H 0.15267 0.51356 0.30415 0.0
H45 H 0.24639 0.51475 0.47749 0.0
H46 H 0.2507 0.49489 0.17263 0.0
C47 C 0.1808 0.51121 0.30994 0.0
C48 C 0.19962 0.50338 0.22908 0.0
C49 C 0.19748 0.51565 0.39857 0.0
C50 C 0.23374 0.51196 0.40751 0.0
C51 C 0.25327 0.50464 0.32533 0.0
C52 C 0.23595 0.50052 0.23602 0.0
N53 N 0.29006 0.50098 0.32965 0.0
C54 C 0.3108 0.50524 0.41144 0.0
H55 H 0.02417 0.16445 0.31433 0.0
H56 H 0.02567 0.24876 0.48249 0.0
H57 H 0.06295 0.26791 0.17356 0.0
C58 C 0.0283 0.19244 0.31708 0.0
C59 C 0.04285 0.21492 0.23314 0.0
C60 C 0.0217 0.20431 0.40655 0.0
C61 C 0.02989 0.23983 0.41211 0.0
C62 C 0.0444 0.26321 0.32743 0.0
C63 C 0.05107 0.25044 0.23806 0.0
N64 N 0.0535 0.29921 0.33052 0.0
C65 C 0.05041 0.31447 0.41583 0.0
H66 H 0.39052 1.00614 0.4386 0.0
H67 H 0.29853 1.01271 0.61607 0.0
H68 H 0.29624 0.04436 0.28987 0.0
C69 C 0.36282 1.0111 0.44307 0.0
C70 C 0.34512 0.02452 0.3543 0.0
C71 C 0.34671 1.00677 0.53757 0.0
C72 C 0.31108 1.01513 0.5431 0.0
C73 C 0.29237 0.02788 0.45266 0.0
C74 C 0.30996 0.03326 0.35893 0.0
N75 N 0.25674 0.03791 0.45137 0.0
C76 C 0.23165 0.02744 0.52666 0.0
H77 H 0.55257 0.39687 0.41222 0.0
H78 H 0.53613 0.29228 0.59601 0.0
H79 H 0.52706 0.30873 0.27069 0.0
C80 C 0.54768 0.36844 0.4182 0.0
C81 C 0.54074 0.35539 0.33073 0.0
C82 C 0.54578 0.34629 0.51374 0.0
C83 C 0.53832 0.30945 0.52211 0.0
C84 C 0.5323 0.29557 0.43338 0.0
C85 C 0.53277 0.31899 0.33853 0.0
N86 N 0.52323 0.25913 0.43491 0.0
C87 C 0.53055 0.22935 0.50978 0.0
Co88 Co 0.04764 0.02893 0.86527 0.0
C89 C 0.97552 1.01511 0.88939 0.0
Co90 Co 0.02439 1.00212 0.74962 0.0
C91 C 0.05261 0.08824 0.96359 0.0
C92 C 0.09222 0.05073 0.01876 0.0
N93 N 0.06492 0.05607 0.95498 0.0
N94 N 0.07087 0.10343 0.02995 0.0
C95 C 0.09592 0.07979 0.06508 0.0
H96 H 0.03113 0.10071 0.91914 0.0
H97 H 0.10857 0.02748 0.02998 0.0
C98 C 0.09655 1.01593 0.72568 0.0
N99 N 1.0064 0.9753 0.66009 0.0
C100 C 1.01651 0.9423 0.65192 0.0
C101 C 0.97894 0.98215 0.5973 0.0
N102 N 0.99627 0.92787 0.58801 0.0
C103 C 0.97285 0.95321 0.55215 0.0
C104 C 0.02151 0.07387 0.69158 0.0
O105 O 0.09256 0.02935 0.80417 0.0
O106 O 0.06994 1.00276 0.68847 0.0
O107 O 1.0133 0.04551 0.66061 0.0
O108 O 0.03699 0.07153 0.77538 0.0
O109 O 0.97949 1.00161 0.81114 0.0
H110 H 0.96406 1.00642 0.58586 0.0
H111 H 0.0381 0.92876 0.69369 0.0
O112 O 1.00213 0.02835 0.92611 0.0
O113 O 0.05858 0.98558 0.9546 0.0
O114 O 0.03522 0.95946 0.83922 0.0
C115 C 0.05044 0.95718 0.92354 0.0
H116 H 0.11534 0.08303 0.12104 0.0
H117 H 0.95321 0.95156 0.49557 0.0
Co118 Co 0.52574 0.02335 0.87677 0.0
C119 C 0.53505 0.94917 0.89952 0.0
Co120 Co 0.54621 1.00677 0.7406 0.0
C121 C 0.47303 0.0259 0.02491 0.0
C122 C 0.51439 0.06318 0.03531 0.0
N123 N 0.50491 0.03663 0.9876 0.0
N124 N 0.46167 0.04531 0.09144 0.0
C125 C 0.48793 0.06845 0.09968 0.0
H126 H 0.45755 1.00536 -0.00016 0.0
H127 H 0.53828 0.07874 0.02091 0.0
C128 C 0.53705 0.08093 0.71761 0.0
N129 N 0.56722 0.99383 0.62984 0.0
C130 C 0.59833 1.00657 0.59104 0.0
C131 C 0.55958 0.96626 0.5842 0.0
N132 N 0.61089 0.98784 0.52442 0.0
C133 C 0.58644 0.96249 0.51936 0.0
C134 C 0.47485 1.00649 0.74219 0.0
O135 O 0.52644 0.07216 0.80851 0.0
O136 O 0.54679 0.05633 0.67252 0.0
O137 O 0.50055 1.00019 0.68905 0.0
O138 O 0.48056 0.01742 0.82359 0.0
O139 O 0.54559 0.9581 0.80863 0.0
H140 H 0.53696 0.94887 0.60111 0.0
H141 H 0.61262 0.02773 0.61673 0.0
O142 O 0.52509 0.97366 0.94491 0.0
O143 O 0.57164 0.02976 0.92844 0.0
O144 O 0.5912 1.01265 0.79347 0.0
C145 C 0.59719 0.02319 0.87517 0.0
H146 H 0.48804 0.08797 0.14803 0.0
H147 H 0.58821 0.94213 0.47398 0.0
Co148 Co 0.57034 0.5158 0.81492 0.0
C149 C 0.53754 0.47076 0.97912 0.0
Co150 Co 0.51282 0.51458 0.80931 0.0
C151 C 0.63588 0.51737 0.91656 0.0
C152 C 0.6435 0.51588 0.76028 0.0
N153 N 0.61846 0.51659 0.82988 0.0
N154 N 0.67076 0.51675 0.9045 0.0
C155 C 0.67572 0.51618 0.80588 0.0
H156 H 0.62311 0.5188 0.98714 0.0
H157 H 0.63864 0.51494 0.68176 0.0
C158 C 0.54532 0.55975 0.64543 0.0
N159 N 0.46474 0.51382 0.7941 0.0
C160 C 0.44749 0.51282 0.70729 0.0
C161 C 0.43958 0.51473 0.86319 0.0
N162 N 0.4126 0.5135 0.71874 0.0
C163 C 0.40745 0.51433 0.81713 0.0
C164 C 0.53847 0.56985 0.89446 0.0
O165 O 0.57364 0.54819 0.68791 0.0
O166 O 0.51659 0.54703 0.68413 0.0
O167 O 0.51019 0.55478 0.87442 0.0
O168 O 0.56724 0.55588 0.87852 0.0
O169 O 0.50945 0.48206 0.935 0.0
H170 H 0.4443 0.51582 0.94168 0.0
H171 H 0.4604 0.51116 0.6371 0.0
O172 O 0.56646 0.4835 0.94142 0.0
O173 O 0.57302 0.47557 0.7509 0.0
O174 O 0.51599 0.47455 0.74476 0.0
C175 C 0.54487 0.46055 0.72989 0.0
H176 H 0.70079 0.51541 0.76983 0.0
H177 H 0.38231 0.51517 0.85274 0.0
Co178 Co 0.04276 0.54565 0.8059 0.0
C179 C 0.09242 0.50601 0.93389 0.0
Co180 Co 0.03902 0.48679 0.82318 0.0
C181 C 0.02782 0.61293 0.8668 0.0
C182 C 0.07431 0.61608 0.77861 0.0
N183 N 0.04679 0.59439 0.81068 0.0
N184 N 0.04291 0.64453 0.87401 0.0
C185 C 0.07203 0.64671 0.81738 0.0
H186 H 1.00487 0.60226 0.90866 0.0
H187 H 0.0963 0.609 0.73698 0.0
C188 C 0.98884 0.52603 0.69734 0.0
N189 N 0.03663 0.43879 0.81521 0.0
C190 C 0.03714 0.42733 0.72666 0.0
C191 C 0.03749 0.40875 0.88691 0.0
N192 N 0.03923 0.39159 0.73933 0.0
C193 C 0.03891 0.37956 0.84024 0.0
C194 C 0.9975 0.50892 0.95836 0.0
O195 O 1.00361 0.55384 0.71787 0.0
O196 O 1.002 0.49567 0.7299 0.0
O197 O 1.00551 0.4804 0.92904 0.0
O198 O 1.01198 0.53827 0.91708 0.0
O199 O 0.07601 0.47848 0.91775 0.0
H200 H 0.03829 0.40817 0.96744 0.0
H201 H 0.03668 0.44512 0.65356 0.0
O202 O 0.08155 0.53684 0.8941 0.0
O203 O 0.07374 0.55185 0.69481 0.0
O204 O 0.07279 0.4936 0.71839 0.0
C205 C 0.08537 0.52335 0.67347 0.0
H206 H 0.09156 0.6678 0.8102 0.0
H207 H 0.04104 0.35187 0.87741 0.0
C208 C 0.19301 0.03719 0.66621 0.0
C209 C 0.19933 0.02056 0.58405 0.0
C210 C 0.15997 0.0349 0.7127 0.0
C211 C 0.13183 1.01623 0.678 0.0
H212 H 0.21344 0.05288 0.69307 0.0
H213 H 0.15632 0.04866 0.77487 0.0
S214 S 0.13589 0.96708 0.46601 0.0
N215 N 0.17552 0.98412 0.47104 0.0
N216 N 0.1136 0.97968 0.55736 0.0
C217 C 0.13832 0.99883 0.59684 0.0
C218 C 0.172 1.00108 0.55012 0.0
C219 C 0.51993 0.18146 0.66141 0.0
C220 C 0.53556 0.19317 0.56641 0.0
C221 C 0.52111 0.14531 0.71034 0.0
C222 C 0.53758 0.11939 0.66551 0.0
H223 H 0.50604 0.20014 0.69718 0.0
H224 H 0.50828 0.13755 0.783 0.0
S225 S 0.58336 0.13738 0.41761 0.0
N226 N 0.56871 0.17673 0.43003 0.0
N227 N 0.57094 0.10907 0.52075 0.0
C228 C 0.55384 0.13122 0.57092 0.0
C229 C 0.55279 0.16801 0.52173 0.0
C230 C 0.33025 0.4911 0.58983 0.0
C231 C 0.33549 0.50925 0.4898 0.0
C232 C 0.35527 0.49313 0.66495 0.0
C233 C 0.38641 0.5131 0.64195 0.0
H234 H 0.30698 0.47484 0.6098 0.0
H235 H 0.35068 0.47826 0.74091 0.0
S236 S 0.41076 0.56748 0.39166 0.0
N237 N 0.37282 0.54901 0.37194 0.0
N238 N 0.4197 0.55315 0.51257 0.0
C239 C 0.39133 0.53201 0.54222 0.0
C240 C 0.36586 0.53 0.46622 0.0
C241 C 0.02751 0.32023 0.58387 0.0
C242 C 0.04876 0.3331 0.4994 0.0
C243 C 0.0251 0.339 0.66364 0.0
C244 C 0.04358 0.37132 0.66053 0.0
H245 H 1.01241 0.29581 0.58788 0.0
H246 H 1.00803 0.32872 0.72683 0.0
S247 S 0.10485 0.41441 0.45859 0.0
N248 N 0.08986 0.37873 0.41911 0.0
N249 N 0.08566 0.41387 0.56848 0.0
C250 C 0.06557 0.38381 0.57713 0.0
C251 C 0.06806 0.36469 0.49659 0.0
C252 C 0.87916 0.99388 0.95015 0.0
C253 C 0.87312 1.01027 0.03294 0.0
C254 C 0.91207 0.99626 0.90295 0.0
C255 C 0.94034 1.01478 0.93755 0.0
H256 H 0.85862 0.97831 0.92337 0.0
H257 H 0.91555 0.98268 0.84033 0.0
S258 S 0.93699 0.06318 0.15127 0.0
N259 N 0.8973 0.04628 0.14654 0.0
N260 N 0.95899 0.05088 0.05894 0.0
C261 C 0.93411 0.03194 0.01935 0.0
C262 C 0.90057 0.02961 0.06678 0.0
C263 C 0.51824 0.86461 0.09905 0.0
C264 C 0.5326 0.83744 0.05583 0.0
C265 C 0.51902 0.90046 0.04804 0.0
C266 C 0.53423 0.91068 0.9514 0.0
H267 H 0.50671 0.85819 0.17388 0.0
H268 H 0.50771 0.92031 0.08516 0.0
S269 S 0.5755 0.84899 0.80564 0.0
N270 N 0.56245 0.82266 0.91169 0.0
N271 N 0.56394 0.88974 0.81457 0.0
C272 C 0.54844 0.88339 0.90705 0.0
C273 C 0.54766 0.84687 0.95955 0.0
C274 C 0.75329 0.5386 0.03358 0.0
C275 C 0.74824 0.5199 0.13314 0.0
C276 C 0.72817 0.5369 0.95845 0.0
C277 C 0.6971 0.51676 0.98105 0.0
H278 H 0.77644 0.55509 0.01409 0.0
H279 H 0.73259 0.5522 0.8829 0.0
S280 S 0.67321 0.46105 0.22987 0.0
N281 N 0.71114 0.47948 0.24999 0.0
N282 N 0.66411 0.47596 0.10934 0.0
C283 C 0.69239 0.49729 0.08021 0.0
C284 C 0.71796 0.49894 0.15618 0.0
C285 C 0.05516 0.69748 0.08005 0.0
C286 C 0.02084 0.70221 0.10951 0.0
C287 C 0.06213 0.67968 0.00072 0.0
C288 C 0.03496 0.66594 0.94817 0.0
H289 H 0.0768 0.707 0.11981 0.0
H290 H 0.08905 0.67557 0.98295 0.0
S291 S 0.94036 0.6738 -0.00639 0.0
N292 N 0.95935 0.69339 0.07895 0.0
N293 N 0.97225 0.66029 0.92868 0.0
C294 C 1.00043 0.67148 0.97572 0.0
C295 C 0.99341 0.68957 0.0567 0.0
C296 C 0.03535 0.17157 0.57904 0.0
C297 C 1.01249 0.17683 0.49634 0.0
C298 C 0.03662 0.13853 0.64532 0.0
C299 C 1.01539 0.1096 0.6302 0.0
H300 H 0.05464 0.19184 0.58715 0.0
H301 H 0.05616 0.13501 0.70442 0.0
S302 S 0.94539 0.11266 0.43934 0.0
N303 N 0.96344 0.15296 0.41467 0.0
N304 N 0.9667 0.09027 0.53755 0.0
C305 C 0.9899 0.11569 0.55446 0.0
C306 C 0.98807 0.1496 0.48839 0.0
C307 C 0.38032 0.02669 0.67421 0.0
C308 C 0.37062 0.99868 0.6254 0.0
C309 C 0.41364 0.02804 0.71706 0.0
C310 C 0.43849 1.00186 0.71024 0.0
H311 H 0.36356 0.04949 0.66994 0.0
H312 H 0.42087 0.0511 0.74871 0.0
S313 S 0.42332 0.91936 0.61008 0.0
N314 N 0.38626 0.94099 0.58988 0.0
N315 N 0.44925 0.94437 0.66634 0.0
C316 C 0.42789 0.972 0.67125 0.0
C317 C 0.3937 0.97003 0.6309 0.0
C318 C 0.578 0.38384 0.61493 0.0
C319 C 0.54727 0.36491 0.60021 0.0
C320 C 0.57722 0.41391 0.66039 0.0
C321 C 0.54559 0.42646 0.69186 0.0
H322 H 0.60235 0.37721 0.58304 0.0
H323 H 0.60135 0.42853 0.66561 0.0
S324 S 0.45856 0.38312 0.68268 0.0
N325 N 0.48507 0.35845 0.62983 0.0
N326 N 0.48328 0.41461 0.71617 0.0
C327 C 0.51509 0.40594 0.68495 0.0
C328 C 0.51605 0.37519 0.6393 0.0
C329 C 0.16538 0.49161 0.55585 0.0
C330 C 0.17514 0.5213 0.48216 0.0
C331 C 0.13634 0.49279 0.61743 0.0
C332 C 0.11613 0.52379 0.60767 0.0
H333 H 0.17895 0.46663 0.56157 0.0
H334 H 0.12936 0.46891 0.67187 0.0
S335 S 0.13248 0.60928 0.4286 0.0
N336 N 0.16362 0.58281 0.40412 0.0
N337 N 0.1093 0.58552 0.52194 0.0
C338 C 0.12673 0.55425 0.53733 0.0
C339 C 0.15617 0.55286 0.47396 0.0
C340 C 0.03484 0.85995 0.03819 0.0
C341 C 0.05717 0.85456 0.1222 0.0
C342 C 0.03439 0.89279 0.97088 0.0
C343 C 0.05594 0.92149 0.98603 0.0
H344 H 1.01533 0.83997 0.02948 0.0
H345 H 1.01521 0.89641 0.91079 0.0
S346 S 0.12495 0.91795 0.18 0.0
N347 N 0.10618 0.87798 0.20519 0.0
N348 N 0.10439 0.94038 0.08033 0.0
C349 C 0.0809 0.91525 0.06328 0.0
C350 C 0.08189 0.8815 0.13054 0.0
C351 C 0.67779 0.05781 0.98981 0.0
C352 C 0.7015 0.02968 -0.00686 0.0
C353 C 0.64418 0.05593 0.94999 0.0
C354 C 0.63371 0.02679 0.90738 0.0
H355 H 0.68379 0.07926 0.02943 0.0
H356 H 0.62588 0.07673 0.956 0.0
S357 S 0.68832 0.95039 0.87646 0.0
N358 N 0.71362 0.9744 0.93769 0.0
N359 N 0.65138 0.9722 0.85556 0.0
C360 C 0.65861 1.00094 0.89807 0.0
C361 C 0.69246 1.00226 0.94175 0.0
C362 C 0.50666 0.64707 0.01007 0.0
C363 C 0.53771 0.66555 0.02435 0.0
C364 C 0.50685 0.61698 0.96444 0.0
C365 C 0.5382 0.60396 0.93257 0.0
H366 H 0.48252 0.65404 0.04242 0.0
H367 H 0.4825 0.60272 0.95941 0.0
S368 S 0.62594 0.64592 0.94172 0.0
N369 N 0.5999 0.67097 -0.00525 0.0
N370 N 0.60067 0.61486 0.90814 0.0
C371 C 0.56904 0.62401 0.93947 0.0
C372 C 0.56866 0.65471 0.9853 0.0
C373 C 0.91308 0.4878 0.10724 0.0
C374 C 0.91169 0.51601 0.16013 0.0
C375 C 0.94153 0.4848 0.04378 0.0
C376 C 0.96945 0.50968 0.03274 0.0
H377 H 0.8927 0.46747 0.11737 0.0
H378 H 0.94154 0.46308 0.00275 0.0
S379 S 0.97817 0.5877 0.15827 0.0
N380 N 0.93989 0.56968 0.19531 0.0
N381 N 0.99431 0.56238 0.08409 0.0
C382 C 0.96819 0.53778 0.08609 0.0
C383 C 0.93899 0.54146 0.1473 0.0
C384 C 0.08548 0.1861 0.13877 0.0
C385 C 0.0514 0.1981 0.14673 0.0
C386 C 0.09191 0.15629 0.09521 0.0
C387 C 0.06444 0.13727 0.05912 0.0
H388 H 0.1068 0.19759 0.17511 0.0
H389 H 0.11836 0.14697 0.09476 0.0
S390 S 0.97072 0.16101 0.05445 0.0
N391 N 0.99052 0.19173 0.10572 0.0
N392 N 1.00186 0.13497 0.02817 0.0
C393 C 0.03054 0.15104 0.05946 0.0
C394 C 0.02428 0.18179 0.10169 0.0
C395 C 0.38202 1.00292 0.22923 0.0
C396 C 0.36619 0.03184 0.26079 0.0
C397 C 0.41237 1.0078 0.17027 0.0
C398 C 0.42818 0.04175 0.14134 0.0
H399 H 0.37253 0.97595 0.25756 0.0
H400 H 0.42476 0.98445 0.15295 0.0
S401 S 0.39368 0.1268 0.19174 0.0
N402 N 0.3662 0.09591 0.25039 0.0
N403 N 0.42283 0.10543 0.13708 0.0
C404 C 0.41095 0.07127 0.16548 0.0
C405 C 0.37996 0.06623 0.22548 0.0
C406 C 0.56959 0.40339 0.20458 0.0
C407 C 0.54019 0.38136 0.23349 0.0
C408 C 0.56827 0.43234 0.12305 0.0
C409 C 0.53735 0.44075 0.06773 0.0
H410 H 0.59363 0.39865 0.24701 0.0
H411 H 0.59164 0.4485 0.10418 0.0
S412 S 0.45321 0.39075 0.11266 0.0
N413 N 0.47945 0.36937 0.20051 0.0
N414 N 0.47673 0.42378 0.04657 0.0
C415 C 0.50782 0.41854 0.09511 0.0
C416 C 0.50934 0.38881 0.17792 0.0
C417 C 0.1562 0.47095 0.14311 0.0
C418 C 0.17984 0.49976 0.13794 0.0
C419 C 0.12892 0.47224 0.07326 0.0
C420 C 0.12404 0.50275 -0.00246 0.0
H421 H 0.15746 0.44833 0.2056 0.0
H422 H 0.11036 0.45017 0.0826 0.0
S423 S 0.18142 0.58349 0.94607 0.0
N424 N 0.19866 0.55803 0.0468 0.0
N425 N 0.14746 0.56082 0.91512 0.0
C426 C 0.14897 0.53071 0.98783 0.0
C427 C 0.1769 0.52911 0.05821 0.0
C428 C 0.0414 0.8501 0.51553 0.0
C429 C 1.0147 0.83389 0.46813 0.0
C430 C 0.03482 0.87961 0.55947 0.0
C431 C 1.00116 0.89384 0.55865 0.0
H432 H 0.0682 0.84232 0.50896 0.0
H433 H 0.05686 0.89292 0.58691 0.0
S434 S 0.92098 0.85542 0.465 0.0
N435 N 0.95268 0.8304 0.43629 0.0
N436 N 0.93973 0.88486 0.52367 0.0
C437 C 0.97356 0.87514 0.52208 0.0
C438 C 0.98045 0.84523 0.47629 0.0
C439 C 0.6929 0.96678 0.39616 0.0
C440 C 0.70716 1.00087 0.35859 0.0
C441 C 0.66215 0.96256 0.45384 0.0
C442 C 0.64454 0.99231 0.47534 0.0
H443 H 0.70386 0.94357 0.37354 0.0
H444 H 0.65133 0.93593 0.4782 0.0
S445 S 0.67315 0.08709 0.39939 0.0
N446 N 0.70326 0.06447 0.35277 0.0
N447 N 0.64518 0.05693 0.45882 0.0
C448 C 0.66 0.02633 0.44375 0.0
C449 C 0.69144 0.03048 0.38621 0.0
C450 C 0.57547 0.62755 0.41481 0.0
C451 C 0.54613 0.64922 0.39134 0.0
C452 C 0.57524 0.5988 0.49762 0.0
C453 C 0.54531 0.59018 0.55811 0.0
H454 H 0.59846 0.63241 0.36728 0.0
H455 H 0.59836 0.58273 0.51279 0.0
S456 S 0.46193 0.63944 0.52802 0.0
N457 N 0.48683 0.66085 0.43527 0.0
N458 N 0.48584 0.60676 0.59003 0.0
C459 C 0.51595 0.61213 0.5358 0.0
C460 C 0.5165 0.64167 0.45266 0.0
C461 C 0.91885 0.55881 0.50417 0.0
C462 C 0.89765 0.52811 0.50864 0.0
C463 C 0.94736 0.55886 0.56945 0.0
C464 C 0.95581 0.52796 0.63991 0.0
H465 H 0.91515 0.58183 0.44409 0.0
H466 H 0.96419 0.58232 0.55982 0.0
S467 S 0.90492 0.44273 0.69135 0.0
N468 N 0.88442 0.46778 0.59599 0.0
N469 N 0.93763 0.46757 0.7198 0.0
C470 C 0.9329 0.49819 0.65071 0.0
C471 C 0.90384 0.49836 0.5848 0.0
loop_
_geom_bond_atom_site_label_1
_geom_bond_atom_site_label_2
_geom_bond_distance
_geom_bond_site_symmetry_2
_ccdc_geom_bond_type
H0 C3 0.929 . S
H1 C6 0.929 . S
H2 C8 0.930 . S
C3 H0 0.929 . S
C3 C4 1.398 . S
C3 C5 1.396 . S
C4 C3 1.398 . S
C4 C8 1.407 . S
C5 C3 1.396 . S
C5 C6 1.394 . S
C6 H1 0.929 . S
C6 C5 1.394 . S
C6 C7 1.382 . S
C7 C6 1.382 . S
C7 C8 1.392 . S
C7 N9 1.420 . S
C8 H2 0.930 . S
C8 C4 1.407 . S
C8 C7 1.392 . S
N9 C7 1.420 . S
N9 C10 1.244 . S
C10 N9 1.244 . S
H11 C14 0.929 . S
H12 C17 0.929 1_556 S
H13 C19 0.930 . S
C14 H11 0.929 . S
C14 C15 1.398 . S
C14 C16 1.396 . S
C15 C14 1.398 . S
C15 C19 1.407 . S
C16 C14 1.396 . S
C16 C17 1.394 . S
C17 H12 0.929 1_554 S
C17 C16 1.394 . S
C17 C18 1.382 . S
C18 C17 1.382 . S
C18 C19 1.392 . S
C18 N20 1.420 . S
C19 H13 0.930 . S
C19 C15 1.407 . S
C19 C18 1.392 . S
N20 C18 1.420 . S
N20 C21 1.244 . S
C21 N20 1.244 . S
H22 C25 0.929 . S
H23 C28 0.929 . S
H24 C30 0.930 . S
C25 H22 0.929 . S
C25 C26 1.398 1_565 S
C25 C27 1.399 1_565 S
C26 C25 1.398 1_545 S
C26 C30 1.407 . S
C27 C25 1.399 1_545 S
C27 C28 1.396 1_554 S
C28 H23 0.929 . S
C28 C27 1.396 1_556 S
C28 C29 1.382 1_556 S
C29 C28 1.382 1_554 S
C29 C30 1.392 . S
C29 N31 1.420 . S
C30 H24 0.930 . S
C30 C26 1.407 . S
C30 C29 1.392 . S
N31 C29 1.420 . S
N31 C32 1.227 1_544 S
C32 N31 1.227 1_566 S
H33 C36 0.929 . S
H34 C39 0.929 . S
H35 C41 0.930 . S
C36 H33 0.929 . S
C36 C37 1.398 . S
C36 C38 1.396 . S
C37 C36 1.398 . S
C37 C41 1.407 . S
C38 C36 1.396 . S
C38 C39 1.394 . S
C39 H34 0.929 . S
C39 C38 1.394 . S
C39 C40 1.382 . S
C40 C39 1.382 . S
C40 C41 1.392 . S
C40 N42 1.420 . S
C41 H35 0.930 . S
C41 C37 1.407 . S
C41 C40 1.392 . S
N42 C40 1.420 . S
N42 C43 1.244 . S
C43 N42 1.244 . S
H44 C47 0.929 . S
H45 C50 0.929 . S
H46 C52 0.930 . S
C47 H44 0.929 . S
C47 C48 1.398 . S
C47 C49 1.396 . S
C48 C47 1.398 . S
C48 C52 1.407 . S
C49 C47 1.396 . S
C49 C50 1.394 . S
C50 H45 0.929 . S
C50 C49 1.394 . S
C50 C51 1.382 . S
C51 C50 1.382 . S
C51 C52 1.392 . S
C51 N53 1.420 . S
C52 H46 0.930 . S
C52 C48 1.407 . S
C52 C51 1.392 . S
N53 C51 1.420 . S
N53 C54 1.244 . S
C54 N53 1.244 . S
H55 C58 0.929 . S
H56 C61 0.929 . S
H57 C63 0.930 . S
C58 H55 0.929 . S
C58 C59 1.398 . S
C58 C60 1.396 . S
C59 C58 1.398 . S
C59 C63 1.407 . S
C60 C58 1.396 . S
C60 C61 1.394 . S
C61 H56 0.929 . S
C61 C60 1.394 . S
C61 C62 1.382 . S
C62 C61 1.382 . S
C62 C63 1.392 . S
C62 N64 1.420 . S
C63 H57 0.930 . S
C63 C59 1.407 . S
C63 C62 1.392 . S
N64 C62 1.420 . S
N64 C65 1.244 . S
C65 N64 1.244 . S
H66 C69 0.929 . S
H67 C72 0.929 . S
H68 C74 0.930 . S
C69 H66 0.929 . S
C69 C70 1.398 1_565 S
C69 C71 1.389 1_565 S
C70 C69 1.398 1_545 S
C70 C74 1.407 . S
C71 C69 1.389 1_545 S
C71 C72 1.400 . S
C72 H67 0.929 . S
C72 C71 1.400 . S
C72 C73 1.382 . S
C73 C72 1.382 . S
C73 C74 1.392 . S
C73 N75 1.420 . S
C74 H68 0.930 . S
C74 C70 1.407 . S
C74 C73 1.392 . S
N75 C73 1.420 . S
N75 C76 1.238 1_545 S
C76 N75 1.238 1_565 S
H77 C80 0.929 . S
H78 C83 0.929 . S
H79 C85 0.930 . S
C80 H77 0.929 . S
C80 C81 1.398 . S
C80 C82 1.396 . S
C81 C80 1.398 . S
C81 C85 1.407 . S
C82 C80 1.396 . S
C82 C83 1.394 . S
C83 H78 0.929 . S
C83 C82 1.394 . S
C83 C84 1.382 . S
C84 C83 1.382 . S
C84 C85 1.392 . S
C84 N86 1.420 . S
C85 H79 0.930 . S
C85 C81 1.407 . S
C85 C84 1.392 . S
N86 C84 1.420 . S
N86 C87 1.244 . S
C87 N86 1.244 . S
Co88 N93 2.057 1_556 S
Co88 O105 2.021 . S
Co88 O108 2.062 . S
Co88 O112 2.117 1_455 S
Co88 O113 2.020 1_545 S
C89 O109 1.259 1_545 S
C89 O112 1.258 . S
Co90 N99 2.057 . S
Co90 O106 2.117 . S
Co90 O107 2.020 1_565 S
Co90 O109 2.021 1_455 S
Co90 O114 2.062 . S
C91 N93 1.316 . S
C91 N94 1.347 . S
C91 H96 0.931 . S
C92 N93 1.375 . S
C92 C95 1.350 . S
C92 H97 0.930 1_455 S
N93 Co88 2.057 1_554 S
N93 C91 1.316 . S
N93 C92 1.375 . S
N94 C91 1.347 . S
N94 C95 1.373 . S
C95 C92 1.350 . S
C95 N94 1.373 . S
C95 H116 0.931 . S
H96 C91 0.931 . S
H97 C92 0.930 1_655 S
C98 O105 1.259 1_565 S
C98 O106 1.258 . S
N99 Co90 2.057 . S
N99 C100 1.316 1_455 S
N99 C101 1.375 . S
C100 N99 1.316 1_655 S
C100 N102 1.347 . S
C100 H111 0.931 . S
C101 N99 1.375 . S
C101 C103 1.350 . S
C101 H110 0.930 . S
N102 C100 1.347 . S
N102 C103 1.373 1_655 S
C103 C101 1.350 . S
C103 N102 1.373 1_455 S
C103 H117 0.931 . S
C104 O107 1.256 . S
C104 O108 1.255 . S
O105 Co88 2.021 . S
O105 C98 1.259 1_545 S
O106 Co90 2.117 . S
O106 C98 1.258 . S
O107 Co90 2.020 1_545 S
O107 C104 1.256 . S
O108 Co88 2.062 . S
O108 C104 1.255 . S
O109 C89 1.259 1_565 S
O109 Co90 2.021 1_655 S
H110 C101 0.930 . S
H111 C100 0.931 . S
O112 Co88 2.117 1_655 S
O112 C89 1.258 . S
O113 Co88 2.020 1_565 S
O113 C115 1.256 . S
O114 Co90 2.062 . S
O114 C115 1.255 . S
C115 O113 1.256 . S
C115 O114 1.255 . S
H116 C95 0.931 . S
H117 C103 0.931 . S
Co118 N123 2.057 1_546 S
Co118 O135 2.021 . S
Co118 O138 2.062 . S
Co118 O142 2.117 1_545 S
Co118 O143 2.020 . S
C119 O139 1.259 . S
C119 O142 1.258 . S
Co120 N129 2.057 1_565 S
Co120 O136 2.117 1_565 S
Co120 O137 2.020 . S
Co120 O139 2.021 . S
Co120 O144 2.062 . S
C121 N123 1.316 1_545 S
C121 N124 1.347 . S
C121 H126 0.931 . S
C122 N123 1.375 . S
C122 C125 1.350 . S
C122 H127 0.930 . S
N123 Co118 2.057 1_564 S
N123 C121 1.316 1_565 S
N123 C122 1.375 . S
N124 C121 1.347 . S
N124 C125 1.373 1_545 S
C125 C122 1.350 . S
C125 N124 1.373 1_565 S
C125 H146 0.931 . S
H126 C121 0.931 . S
H127 C122 0.930 . S
C128 O135 1.259 . S
C128 O136 1.258 . S
N129 Co120 2.057 1_545 S
N129 C130 1.316 1_545 S
N129 C131 1.375 . S
C130 N129 1.316 1_565 S
C130 N132 1.347 . S
C130 H141 0.931 . S
C131 N129 1.375 . S
C131 C133 1.350 . S
C131 H140 0.930 . S
N132 C130 1.347 . S
N132 C133 1.373 1_565 S
C133 C131 1.350 . S
C133 N132 1.373 1_545 S
C133 H147 0.931 . S
C134 O137 1.256 . S
C134 O138 1.255 1_565 S
O135 Co118 2.021 . S
O135 C128 1.259 . S
O136 Co120 2.117 1_545 S
O136 C128 1.258 . S
O137 Co120 2.020 . S
O137 C134 1.256 . S
O138 Co118 2.062 . S
O138 C134 1.255 1_545 S
O139 C119 1.259 . S
O139 Co120 2.021 . S
H140 C131 0.930 . S
H141 C130 0.931 . S
O142 Co118 2.117 1_565 S
O142 C119 1.258 . S
O143 Co118 2.020 . S
O143 C145 1.256 . S
O144 Co120 2.062 . S
O144 C145 1.255 1_565 S
C145 O143 1.256 . S
C145 O144 1.255 1_545 S
H146 C125 0.931 . S
H147 C133 0.931 . S
Co148 N153 2.057 . S
Co148 O165 2.021 . S
Co148 O168 2.062 . S
Co148 O172 2.117 . S
Co148 O173 2.020 . S
C149 O169 1.259 . S
C149 O172 1.258 . S
Co150 N159 2.057 . S
Co150 O166 2.117 . S
Co150 O167 2.020 . S
Co150 O169 2.021 . S
Co150 O174 2.062 . S
C151 N153 1.316 . S
C151 N154 1.347 . S
C151 H156 0.931 . S
C152 N153 1.375 . S
C152 C155 1.350 1_556 S
C152 H157 0.930 1_556 S
N153 Co148 2.057 . S
N153 C151 1.316 . S
N153 C152 1.375 . S
N154 C151 1.347 . S
N154 C155 1.373 1_556 S
C155 C152 1.350 1_554 S
C155 N154 1.373 1_554 S
C155 H176 0.931 . S
H156 C151 0.931 . S
H157 C152 0.930 1_554 S
C158 O165 1.259 . S
C158 O166 1.258 . S
N159 Co150 2.057 . S
N159 C160 1.316 . S
N159 C161 1.375 . S
C160 N159 1.316 . S
C160 N162 1.347 . S
C160 H171 0.931 . S
C161 N159 1.375 . S
C161 C163 1.350 . S
C161 H170 0.930 . S
N162 C160 1.347 . S
N162 C163 1.373 . S
C163 C161 1.350 . S
C163 N162 1.373 . S
C163 H177 0.931 . S
C164 O167 1.256 . S
C164 O168 1.255 . S
O165 Co148 2.021 . S
O165 C158 1.259 . S
O166 Co150 2.117 . S
O166 C158 1.258 . S
O167 Co150 2.020 . S
O167 C164 1.256 . S
O168 Co148 2.062 . S
O168 C164 1.255 . S
O169 C149 1.259 . S
O169 Co150 2.021 . S
H170 C161 0.930 . S
H171 C160 0.931 . S
O172 Co148 2.117 . S
O172 C149 1.258 . S
O173 Co148 2.020 . S
O173 C175 1.256 . S
O174 Co150 2.062 . S
O174 C175 1.255 . S
C175 O173 1.256 . S
C175 O174 1.255 . S
H176 C155 0.931 . S
H177 C163 0.931 . S
Co178 N183 2.057 . S
Co178 O195 2.021 1_455 S
Co178 O198 2.062 1_455 S
Co178 O202 2.117 . S
Co178 O203 2.020 . S
C179 O199 1.259 . S
C179 O202 1.258 . S
Co180 N189 2.057 . S
Co180 O196 2.117 1_455 S
Co180 O197 2.020 1_455 S
Co180 O199 2.021 . S
Co180 O204 2.062 . S
C181 N183 1.316 . S
C181 N184 1.347 . S
C181 H186 0.931 1_455 S
C182 N183 1.375 . S
C182 C185 1.350 . S
C182 H187 0.930 . S
N183 Co178 2.057 . S
N183 C181 1.316 . S
N183 C182 1.375 . S
N184 C181 1.347 . S
N184 C185 1.373 . S
C185 C182 1.350 . S
C185 N184 1.373 . S
C185 H206 0.931 . S
H186 C181 0.931 1_655 S
H187 C182 0.930 . S
C188 O195 1.259 . S
C188 O196 1.258 . S
N189 Co180 2.057 . S
N189 C190 1.316 . S
N189 C191 1.375 1_455 S
C190 N189 1.316 . S
C190 N192 1.347 . S
C190 H201 0.931 . S
C191 N189 1.375 1_655 S
C191 C193 1.350 1_655 S
C191 H200 0.930 . S
N192 C190 1.347 . S
N192 C193 1.373 . S
C193 C191 1.350 1_455 S
C193 N192 1.373 . S
C193 H207 0.931 1_455 S
C194 O197 1.256 . S
C194 O198 1.255 . S
O195 Co178 2.021 1_655 S
O195 C188 1.259 . S
O196 Co180 2.117 1_655 S
O196 C188 1.258 . S
O197 Co180 2.020 1_655 S
O197 C194 1.256 . S
O198 Co178 2.062 1_655 S
O198 C194 1.255 . S
O199 C179 1.259 . S
O199 Co180 2.021 . S
H200 C191 0.930 . S
H201 C190 0.931 . S
O202 Co178 2.117 . S
O202 C179 1.258 . S
O203 Co178 2.020 . S
O203 C205 1.256 . S
O204 Co180 2.062 . S
O204 C205 1.255 . S
C205 O203 1.256 . S
C205 O204 1.255 . S
H206 C185 0.931 . S
H207 C193 0.931 1_655 S
C208 C209 1.369 1_545 S
C208 C210 1.419 . S
C208 H212 0.930 . S
C209 C208 1.369 1_565 S
C209 C218 1.429 . S
C210 C208 1.419 . S
C210 C211 1.363 1_545 S
C210 H213 0.929 . S
C211 C210 1.363 1_565 S
C211 C217 1.428 . S
H212 C208 0.930 . S
H213 C210 0.929 . S
S214 N215 1.613 . S
S214 N216 1.610 . S
N215 S214 1.613 . S
N215 C218 1.350 . S
N216 S214 1.610 . S
N216 C217 1.351 . S
C217 C211 1.428 . S
C217 N216 1.351 . S
C217 C218 1.434 . S
C218 C209 1.429 . S
C218 N215 1.350 . S
C218 C217 1.434 . S
C219 C220 1.369 . S
C219 C221 1.419 . S
C219 H223 0.930 . S
C220 C219 1.369 . S
C220 C229 1.429 . S
C221 C219 1.419 . S
C221 C222 1.363 . S
C221 H224 0.929 . S
C222 C221 1.363 . S
C222 C228 1.428 . S
H223 C219 0.930 . S
H224 C221 0.929 . S
S225 N226 1.613 . S
S225 N227 1.610 . S
N226 S225 1.613 . S
N226 C229 1.350 . S
N227 S225 1.610 . S
N227 C228 1.351 . S
C228 C222 1.428 . S
C228 N227 1.351 . S
C228 C229 1.434 . S
C229 C220 1.429 . S
C229 N226 1.350 . S
C229 C228 1.434 . S
C230 C231 1.369 . S
C230 C232 1.419 . S
C230 H234 0.930 . S
C231 C230 1.369 . S
C231 C240 1.429 . S
C232 C230 1.419 . S
C232 C233 1.363 . S
C232 H235 0.929 . S
C233 C232 1.363 . S
C233 C239 1.428 . S
H234 C230 0.930 . S
H235 C232 0.929 . S
S236 N237 1.613 . S
S236 N238 1.610 . S
N237 S236 1.613 . S
N237 C240 1.350 . S
N238 S236 1.610 . S
N238 C239 1.351 . S
C239 C233 1.428 . S
C239 N238 1.351 . S
C239 C240 1.434 . S
C240 C231 1.429 . S
C240 N237 1.350 . S
C240 C239 1.434 . S
C241 C242 1.369 . S
C241 C243 1.419 . S
C241 H245 0.930 . S
C242 C241 1.369 . S
C242 C251 1.429 . S
C243 C241 1.419 . S
C243 C244 1.363 . S
C243 H246 0.929 . S
C244 C243 1.363 . S
C244 C250 1.428 . S
H245 C241 0.930 . S
H246 C243 0.929 . S
S247 N248 1.613 . S
S247 N249 1.610 . S
N248 S247 1.613 . S
N248 C251 1.350 . S
N249 S247 1.610 . S
N249 C250 1.351 . S
C250 C244 1.428 . S
C250 N249 1.351 . S
C250 C251 1.434 . S
C251 C242 1.429 . S
C251 N248 1.350 . S
C251 C250 1.434 . S
C252 C253 1.369 . S
C252 C254 1.419 . S
C252 H256 0.930 . S
C253 C252 1.369 . S
C253 C262 1.429 1_546 S
C254 C252 1.419 . S
C254 C255 1.363 . S
C254 H257 0.929 . S
C255 C254 1.363 . S
C255 C261 1.428 1_545 S
H256 C252 0.930 . S
H257 C254 0.929 . S
S258 N259 1.613 . S
S258 N260 1.610 . S
N259 S258 1.613 . S
N259 C262 1.350 . S
N260 S258 1.610 . S
N260 C261 1.351 1_554 S
C261 C255 1.428 1_565 S
C261 N260 1.351 1_556 S
C261 C262 1.434 1_556 S
C262 C253 1.429 1_564 S
C262 N259 1.350 . S
C262 C261 1.434 1_554 S
C263 C264 1.369 . S
C263 C265 1.419 . S
C263 H267 0.930 . S
C264 C263 1.369 . S
C264 C273 1.429 1_554 S
C265 C263 1.419 . S
C265 C266 1.363 1_554 S
C265 H268 0.929 . S
C266 C265 1.363 1_556 S
C266 C272 1.428 . S
H267 C263 0.930 . S
H268 C265 0.929 . S
S269 N270 1.613 . S
S269 N271 1.610 . S
N270 S269 1.613 . S
N270 C273 1.350 . S
N271 S269 1.610 . S
N271 C272 1.351 . S
C272 C266 1.428 . S
C272 N271 1.351 . S
C272 C273 1.434 . S
C273 C264 1.429 1_556 S
C273 N270 1.350 . S
C273 C272 1.434 . S
C274 C275 1.369 1_556 S
C274 C276 1.419 . S
C274 H278 0.930 . S
C275 C274 1.369 1_554 S
C275 C284 1.429 . S
C276 C274 1.419 . S
C276 C277 1.363 . S
C276 H279 0.929 . S
C277 C276 1.363 . S
C277 C283 1.428 1_556 S
H278 C274 0.930 . S
H279 C276 0.929 . S
S280 N281 1.613 . S
S280 N282 1.610 . S
N281 S280 1.613 . S
N281 C284 1.350 . S
N282 S280 1.610 . S
N282 C283 1.351 . S
C283 C277 1.428 1_554 S
C283 N282 1.351 . S
C283 C284 1.434 . S
C284 C275 1.429 . S
C284 N281 1.350 . S
C284 C283 1.434 . S
C285 C286 1.369 1_556 S
C285 C287 1.419 1_655 S
C285 H289 0.930 1_655 S
C286 C285 1.369 1_554 S
C286 C295 1.429 . S
C287 C285 1.419 1_455 S
C287 C288 1.363 1_455 S
C287 H290 0.929 . S
C288 C287 1.363 1_655 S
C288 C294 1.428 . S
H289 C285 0.930 1_455 S
H290 C287 0.929 . S
S291 N292 1.613 . S
S291 N293 1.610 1_554 S
N292 S291 1.613 . S
N292 C295 1.350 . S
N293 S291 1.610 1_556 S
N293 C294 1.351 . S
C294 C288 1.428 . S
C294 N293 1.351 . S
C294 C295 1.434 1_556 S
C295 C286 1.429 . S
C295 N292 1.350 . S
C295 C294 1.434 1_554 S
C296 C297 1.369 . S
C296 C298 1.419 . S
C296 H300 0.930 . S
C297 C296 1.369 . S
C297 C306 1.429 . S
C298 C296 1.419 . S
C298 C299 1.363 . S
C298 H301 0.929 . S
C299 C298 1.363 . S
C299 C305 1.428 . S
H300 C296 0.930 . S
H301 C298 0.929 . S
S302 N303 1.613 . S
S302 N304 1.610 1_455 S
N303 S302 1.613 . S
N303 C306 1.350 . S
N304 S302 1.610 1_655 S
N304 C305 1.351 1_655 S
C305 C299 1.428 . S
C305 N304 1.351 1_455 S
C305 C306 1.434 . S
C306 C297 1.429 . S
C306 N303 1.350 . S
C306 C305 1.434 . S
C307 C308 1.344 1_545 S
C307 C309 1.419 . S
C307 H311 0.930 . S
C308 C307 1.344 1_565 S
C308 C317 1.457 . S
C309 C307 1.419 . S
C309 C310 1.363 1_545 S
C309 H312 0.929 . S
C310 C309 1.363 1_565 S
C310 C316 1.428 . S
H311 C307 0.930 . S
H312 C309 0.929 . S
S313 N314 1.613 . S
S313 N315 1.610 . S
N314 S313 1.613 . S
N314 C317 1.350 . S
N315 S313 1.610 . S
N315 C316 1.351 . S
C316 C310 1.428 . S
C316 N315 1.351 . S
C316 C317 1.434 . S
C317 C308 1.457 . S
C317 N314 1.350 . S
C317 C316 1.434 . S
C318 C319 1.369 . S
C318 C320 1.419 . S
C318 H322 0.930 . S
C319 C318 1.369 . S
C319 C328 1.429 . S
C320 C318 1.419 . S
C320 C321 1.363 . S
C320 H323 0.929 . S
C321 C320 1.363 . S
C321 C327 1.428 . S
H322 C318 0.930 . S
H323 C320 0.929 . S
S324 N325 1.613 . S
S324 N326 1.610 . S
N325 S324 1.613 . S
N325 C328 1.350 . S
N326 S324 1.610 . S
N326 C327 1.351 . S
C327 C321 1.428 . S
C327 N326 1.351 . S
C327 C328 1.434 . S
C328 C319 1.429 . S
C328 N325 1.350 . S
C328 C327 1.434 . S
C329 C330 1.369 . S
C329 C331 1.419 . S
C329 H333 0.930 . S
C330 C329 1.369 . S
C330 C339 1.429 . S
C331 C329 1.419 . S
C331 C332 1.363 . S
C331 H334 0.929 . S
C332 C331 1.363 . S
C332 C338 1.428 . S
H333 C329 0.930 . S
H334 C331 0.929 . S
S335 N336 1.613 . S
S335 N337 1.610 . S
N336 S335 1.613 . S
N336 C339 1.350 . S
N337 S335 1.610 . S
N337 C338 1.351 . S
C338 C332 1.428 . S
C338 N337 1.351 . S
C338 C339 1.434 . S
C339 C330 1.429 . S
C339 N336 1.350 . S
C339 C338 1.434 . S
C340 C341 1.369 1_554 S
C340 C342 1.419 . S
C340 H344 0.930 . S
C341 C340 1.369 1_556 S
C341 C350 1.429 . S
C342 C340 1.419 . S
C342 C343 1.363 1_654 S
C342 H345 0.929 . S
C343 C342 1.363 1_456 S
C343 C349 1.428 . S
H344 C340 0.930 . S
H345 C342 0.929 . S
S346 N347 1.613 . S
S346 N348 1.610 . S
N347 S346 1.613 . S
N347 C350 1.350 1_455 S
N348 S346 1.610 . S
N348 C349 1.351 . S
C349 C343 1.428 . S
C349 N348 1.351 . S
C349 C350 1.434 1_455 S
C350 C341 1.429 . S
C350 N347 1.350 1_655 S
C350 C349 1.434 1_655 S
C351 C352 1.383 . S
C351 C353 1.419 . S
C351 H355 0.930 1_556 S
C352 C351 1.383 . S
C352 C361 1.416 1_545 S
C353 C351 1.419 . S
C353 C354 1.363 . S
C353 H356 0.929 . S
C354 C353 1.363 . S
C354 C360 1.428 1_545 S
H355 C351 0.930 1_554 S
H356 C353 0.929 . S
S357 N358 1.613 . S
S357 N359 1.610 . S
N358 S357 1.613 . S
N358 C361 1.350 . S
N359 S357 1.610 . S
N359 C360 1.351 . S
C360 C354 1.428 1_565 S
C360 N359 1.351 . S
C360 C361 1.434 . S
C361 C352 1.416 1_565 S
C361 N358 1.350 . S
C361 C360 1.434 . S
C362 C363 1.369 . S
C362 C364 1.419 1_554 S
C362 H366 0.930 . S
C363 C362 1.369 . S
C363 C372 1.429 . S
C364 C362 1.419 1_556 S
C364 C365 1.363 . S
C364 H367 0.929 . S
C365 C364 1.363 . S
C365 C371 1.428 . S
H366 C362 0.930 . S
H367 C364 0.929 . S
S368 N369 1.613 1_556 S
S368 N370 1.610 . S
N369 S368 1.613 1_554 S
N369 C372 1.350 . S
N370 S368 1.610 . S
N370 C371 1.351 . S
C371 C365 1.428 . S
C371 N370 1.351 . S
C371 C372 1.434 1_556 S
C372 C363 1.429 . S
C372 N369 1.350 . S
C372 C371 1.434 1_554 S
C373 C374 1.369 . S
C373 C375 1.419 1_554 S
C373 H377 0.930 . S
C374 C373 1.369 . S
C374 C383 1.429 . S
C375 C373 1.419 1_556 S
C375 C376 1.363 . S
C375 H378 0.929 . S
C376 C375 1.363 . S
C376 C382 1.428 1_556 S
H377 C373 0.930 . S
H378 C375 0.929 . S
S379 N380 1.613 . S
S379 N381 1.610 . S
N380 S379 1.613 . S
N380 C383 1.350 . S
N381 S379 1.610 . S
N381 C382 1.351 . S
C382 C376 1.428 1_554 S
C382 N381 1.351 . S
C382 C383 1.434 . S
C383 C374 1.429 . S
C383 N380 1.350 . S
C383 C382 1.434 . S
C384 C385 1.369 . S
C384 C386 1.419 . S
C384 H388 0.930 . S
C385 C384 1.369 . S
C385 C394 1.429 . S
C386 C384 1.419 . S
C386 C387 1.363 . S
C386 H389 0.929 . S
C387 C386 1.363 . S
C387 C393 1.428 . S
H388 C384 0.930 . S
H389 C386 0.929 . S
S390 N391 1.613 1_655 S
S390 N392 1.610 1_655 S
N391 S390 1.613 1_455 S
N391 C394 1.350 . S
N392 S390 1.610 1_455 S
N392 C393 1.351 . S
C393 C387 1.428 . S
C393 N392 1.351 . S
C393 C394 1.434 . S
C394 C385 1.429 . S
C394 N391 1.350 . S
C394 C393 1.434 . S
C395 C396 1.369 1_565 S
C395 C397 1.419 . S
C395 H399 0.930 . S
C396 C395 1.369 1_545 S
C396 C405 1.429 . S
C397 C395 1.419 . S
C397 C398 1.363 1_565 S
C397 H400 0.929 . S
C398 C397 1.363 1_545 S
C398 C404 1.428 . S
H399 C395 0.930 . S
H400 C397 0.929 . S
S401 N402 1.613 . S
S401 N403 1.610 . S
N402 S401 1.613 . S
N402 C405 1.350 . S
N403 S401 1.610 . S
N403 C404 1.351 . S
C404 C398 1.428 . S
C404 N403 1.351 . S
C404 C405 1.434 . S
C405 C396 1.429 . S
C405 N402 1.350 . S
C405 C404 1.434 . S
C406 C407 1.369 . S
C406 C408 1.419 . S
C406 H410 0.930 . S
C407 C406 1.369 . S
C407 C416 1.429 . S
C408 C406 1.419 . S
C408 C409 1.363 . S
C408 H411 0.929 . S
C409 C408 1.363 . S
C409 C415 1.428 . S
H410 C406 0.930 . S
H411 C408 0.929 . S
S412 N413 1.613 . S
S412 N414 1.610 1_554 S
N413 S412 1.613 . S
N413 C416 1.350 . S
N414 S412 1.610 1_556 S
N414 C415 1.351 1_556 S
C415 C409 1.428 . S
C415 N414 1.351 1_554 S
C415 C416 1.434 . S
C416 C407 1.429 . S
C416 N413 1.350 . S
C416 C415 1.434 . S
C417 C418 1.369 . S
C417 C419 1.419 . S
C417 H421 0.930 . S
C418 C417 1.369 . S
C418 C427 1.429 . S
C419 C417 1.419 . S
C419 C420 1.363 . S
C419 H422 0.929 . S
C420 C419 1.363 . S
C420 C426 1.428 . S
H421 C417 0.930 . S
H422 C419 0.929 . S
S423 N424 1.613 1_556 S
S423 N425 1.610 . S
N424 S423 1.613 1_554 S
N424 C427 1.350 . S
N425 S423 1.610 . S
N425 C426 1.351 1_556 S
C426 C420 1.428 . S
C426 N425 1.351 1_554 S
C426 C427 1.434 . S
C427 C418 1.429 . S
C427 N424 1.350 . S
C427 C426 1.434 . S
C428 C429 1.369 . S
C428 C430 1.419 . S
C428 H432 0.930 . S
C429 C428 1.369 . S
C429 C438 1.429 . S
C430 C428 1.419 . S
C430 C431 1.363 . S
C430 H433 0.929 . S
C431 C430 1.363 . S
C431 C437 1.428 . S
H432 C428 0.930 . S
H433 C430 0.929 . S
S434 N435 1.613 . S
S434 N436 1.610 . S
N435 S434 1.613 . S
N435 C438 1.350 . S
N436 S434 1.610 . S
N436 C437 1.351 . S
C437 C431 1.428 . S
C437 N436 1.351 . S
C437 C438 1.434 . S
C438 C429 1.429 . S
C438 N435 1.350 . S
C438 C437 1.434 . S
C439 C440 1.369 . S
C439 C441 1.419 . S
C439 H443 0.928 1_565 S
C440 C439 1.369 . S
C440 C449 1.429 . S
C441 C439 1.419 . S
C441 C442 1.363 . S
C441 H444 0.929 . S
C442 C441 1.363 . S
C442 C448 1.428 . S
H443 C439 0.928 1_545 S
H444 C441 0.929 . S
S445 N446 1.613 . S
S445 N447 1.610 . S
N446 S445 1.613 . S
N446 C449 1.350 . S
N447 S445 1.610 . S
N447 C448 1.351 . S
C448 C442 1.428 . S
C448 N447 1.351 . S
C448 C449 1.434 . S
C449 C440 1.429 . S
C449 N446 1.350 . S
C449 C448 1.434 . S
C450 C451 1.369 . S
C450 C452 1.419 . S
C450 H454 0.930 . S
C451 C450 1.369 . S
C451 C460 1.429 . S
C452 C450 1.419 . S
C452 C453 1.363 . S
C452 H455 0.929 . S
C453 C452 1.363 . S
C453 C459 1.428 . S
H454 C450 0.930 . S
H455 C452 0.929 . S
S456 N457 1.613 . S
S456 N458 1.610 . S
N457 S456 1.613 . S
N457 C460 1.350 . S
N458 S456 1.610 . S
N458 C459 1.351 . S
C459 C453 1.428 . S
C459 N458 1.351 . S
C459 C460 1.434 . S
C460 C451 1.429 . S
C460 N457 1.350 . S
C460 C459 1.434 . S
C461 C462 1.369 . S
C461 C463 1.419 . S
C461 H465 0.930 . S
C462 C461 1.369 . S
C462 C471 1.429 . S
C463 C461 1.419 . S
C463 C464 1.363 . S
C463 H466 0.929 . S
C464 C463 1.363 . S
C464 C470 1.428 . S
H465 C461 0.930 . S
H466 C463 0.929 . S
S467 N468 1.613 . S
S467 N469 1.610 . S
N468 S467 1.613 . S
N468 C471 1.350 . S
N469 S467 1.610 . S
N469 C470 1.351 . S
C470 C464 1.428 . S
C470 N469 1.351 . S
C470 C471 1.434 . S
C471 C462 1.429 . S
C471 N468 1.350 . S
C471 C470 1.434 . S
C209 C76 1.710 . S
C211 C98 1.716 . S
C222 C128 1.800 . S
C220 C87 1.774 . S
C233 N162 1.378 . S
C231 C54 1.398 . S
C244 N192 1.482 . S
C242 C65 1.461 . S
C255 C89 1.715 . S
C253 C32 1.714 1_545 S
C264 C43 1.783 . S
C266 C119 1.803 . S
C275 C10 1.400 . S
C277 N154 1.372 . S
C286 C21 1.480 . S
C288 N184 1.475 1_655 S
C299 C104 0.731 . S
C297 C60 0.719 . S
C310 C134 1.094 . S
C308 C71 1.035 1_565 S
C321 C175 1.350 . S
C319 C82 1.321 . S
C330 C49 0.835 . S
C332 C205 0.844 . S
C341 C16 0.726 1_556 S
C343 C115 0.732 . S
C354 C145 1.091 . S
C352 C27 1.032 1_556 S
C365 C164 1.350 . S
C363 C38 1.314 . S
C374 C5 0.843 . S
C376 C194 0.835 . S
C385 C59 1.462 . S
C387 N94 1.484 . S
C396 C70 1.431 . S
C398 N124 1.441 . S
C409 C149 1.666 1_554 S
C407 C81 1.638 . S
C420 C179 1.595 1_554 S
C418 C48 1.563 . S
C429 C15 1.462 . S
C431 N102 1.493 . S
C442 N132 1.439 . S
C440 C26 1.428 1_565 S
C453 C158 1.668 . S
C451 C37 1.628 . S
C462 C4 1.558 . S
C464 C188 1.595 . S
