# Generated by pormake.
# Topology apo, (3,6)-cn, num edge types: 1
# Building blocks:
#     Node 0, Type 0, BuildingBlock: ESEHIV_clean_linker_0, # of connection points: 3
#     Node 1, Type 0, BuildingBlock: ESEHIV_clean_linker_0, # of connection points: 3
#     Node 2, Type 0, BuildingBlock: ESEHIV_clean_linker_0, # of connection points: 3
#     Node 3, Type 0, BuildingBlock: ESEHIV_clean_linker_0, # of connection points: 3
#     Node 4, Type 0, BuildingBlock: ESEHIV_clean_linker_0, # of connection points: 3
#     Node 5, Type 0, BuildingBlock: ESEHIV_clean_linker_0, # of connection points: 3
#     Node 6, Type 0, BuildingBlock: ESEHIV_clean_linker_0, # of connection points: 3
#     Node 7, Type 0, BuildingBlock: ESEHIV_clean_linker_0, # of connection points: 3
#     Node 8, Type 1, BuildingBlock: KUMBOL_clean_sbu_1, # of connection points: 6
#     Node 9, Type 1, BuildingBlock: KUMBOL_clean_sbu_1, # of connection points: 6
#     Node 10, Type 1, BuildingBlock: KUMBOL_clean_sbu_1, # of connection points: 6
#     Node 11, Type 1, BuildingBlock: KUMBOL_clean_sbu_1, # of connection points: 6
#     Edge 12, Type (0, 1), BuildingBlock: CIFDUS_clean_linker_0, # of connection points: 2
#     Edge 13, Type (0, 1), BuildingBlock: CIFDUS_clean_linker_0, # of connection points: 2
#     Edge 14, Type (0, 1), BuildingBlock: CIFDUS_clean_linker_0, # of connection points: 2
#     Edge 15, Type (0, 1), BuildingBlock: CIFDUS_clean_linker_0, # of connection points: 2
#     Edge 16, Type (0, 1), BuildingBlock: CIFDUS_clean_linker_0, # of connection points: 2
#     Edge 17, Type (0, 1), BuildingBlock: CIFDUS_clean_linker_0, # of connection points: 2
#     Edge 18, Type (0, 1), BuildingBlock: CIFDUS_clean_linker_0, # of connection points: 2
#     Edge 19, Type (0, 1), BuildingBlock: CIFDUS_clean_linker_0, # of connection points: 2
#     Edge 20, Type (0, 1), BuildingBlock: CIFDUS_clean_linker_0, # of connection points: 2
#     Edge 21, Type (0, 1), BuildingBlock: CIFDUS_clean_linker_0, # of connection points: 2
#     Edge 22, Type (0, 1), BuildingBlock: CIFDUS_clean_linker_0, # of connection points: 2
#     Edge 23, Type (0, 1), BuildingBlock: CIFDUS_clean_linker_0, # of connection points: 2
#     Edge 24, Type (0, 1), BuildingBlock: CIFDUS_clean_linker_0, # of connection points: 2
#     Edge 25, Type (0, 1), BuildingBlock: CIFDUS_clean_linker_0, # of connection points: 2
#     Edge 26, Type (0, 1), BuildingBlock: CIFDUS_clean_linker_0, # of connection points: 2
#     Edge 27, Type (0, 1), BuildingBlock: CIFDUS_clean_linker_0, # of connection points: 2
#     Edge 28, Type (0, 1), BuildingBlock: CIFDUS_clean_linker_0, # of connection points: 2
#     Edge 29, Type (0, 1), BuildingBlock: CIFDUS_clean_linker_0, # of connection points: 2
#     Edge 30, Type (0, 1), BuildingBlock: CIFDUS_clean_linker_0, # of connection points: 2
#     Edge 31, Type (0, 1), BuildingBlock: CIFDUS_clean_linker_0, # of connection points: 2
#     Edge 32, Type (0, 1), BuildingBlock: CIFDUS_clean_linker_0, # of connection points: 2
#     Edge 33, Type (0, 1), BuildingBlock: CIFDUS_clean_linker_0, # of connection points: 2
#     Edge 34, Type (0, 1), BuildingBlock: CIFDUS_clean_linker_0, # of connection points: 2
#     Edge 35, Type (0, 1), BuildingBlock: CIFDUS_clean_linker_0, # of connection points: 2
# Relax obj value: 0.008
# Max RMSD: 0.125
# Mean RMSD: 0.094
data_MOF--net-apo--node1-KUMBOL_clean_sbu_1--node2-ESEHIV_clean_linker_0--edge1-CIFDUS_clean_linker_0
_symmetry_space_group_name_H-M    P1
_symmetry_Int_Tables_number       1
_symmetry_cell_setting            triclinic
loop_
_symmetry_equiv_pos_as_xyz
'x, y, z'
_cell_length_a     19.931372
_cell_length_b     34.508044
_cell_length_c     45.00121
_cell_angle_alpha  89.877897
_cell_angle_beta   90.060377
_cell_angle_gamma 90.40038
loop_
_atom_site_label
_atom_site_type_symbol
_atom_site_fract_x
_atom_site_fract_y
_atom_site_fract_z
_atom_type_partial_charge
H0 H 0.26304 0.43975 0.43723 0.0
H1 H 0.23038 0.38132 0.35417 0.0
H2 H 0.1971 0.32032 0.43626 0.0
C3 C 0.24873 0.41379 0.42521 0.0
C4 C 0.22996 0.37999 0.44089 0.0
C5 C 0.24958 0.41425 0.39397 0.0
C6 C 0.23004 0.38096 0.37827 0.0
C7 C 0.21054 0.34715 0.39339 0.0
C8 C 0.21133 0.34666 0.42464 0.0
H9 H 0.17664 0.06433 0.9339 0.0
H10 H 0.24454 0.1258 0.85639 0.0
H11 H 0.30266 0.16578 0.94322 0.0
C12 C 0.20471 0.08818 0.92415 0.0
C13 C 0.23802 0.11504 0.94261 0.0
C14 C 0.20668 0.09196 0.89312 0.0
C15 C 0.2426 0.12283 0.88038 0.0
C16 C 0.27826 0.14901 0.89834 0.0
C17 C 0.27617 0.14499 0.92942 0.0
H18 H 0.8335 0.07065 0.58656 0.0
H19 H 0.77136 0.11531 0.67154 0.0
H20 H 0.73461 0.18059 0.5922 0.0
C21 C 0.80996 0.09289 0.5998 0.0
C22 C 0.78354 0.12586 0.58558 0.0
C23 C 0.8059 0.08862 0.63097 0.0
C24 C 0.77542 0.1182 0.64767 0.0
C25 C 0.7505 0.15174 0.63401 0.0
C26 C 0.75432 0.155 0.60297 0.0
H27 H 0.70401 0.44214 0.10482 0.0
H28 H 0.73659 0.37722 0.18508 0.0
H29 H 0.80295 0.33191 0.10155 0.0
C30 C 0.72227 0.4167 0.11625 0.0
C31 C 0.74964 0.38623 0.09941 0.0
C32 C 0.71895 0.41452 0.14744 0.0
C33 C 0.74282 0.3809 0.16136 0.0
C34 C 0.77665 0.35207 0.1455 0.0
C35 C 0.77783 0.35415 0.11424 0.0
H36 H 0.67204 0.56715 0.60449 0.0
H37 H 0.74822 0.68393 0.59892 0.0
H38 H 0.706 0.63483 0.68406 0.0
C39 C 0.68617 0.59387 0.61548 0.0
C40 C 0.6872 0.5961 0.64691 0.0
C41 C 0.70722 0.62572 0.59802 0.0
C42 C 0.7299 0.6597 0.61207 0.0
C43 C 0.72978 0.66254 0.64301 0.0
C44 C 0.7068 0.63141 0.66015 0.0
H45 H 0.85201 0.91663 0.10274 0.0
H46 H 0.76947 0.86155 0.18041 0.0
H47 H 0.73139 0.81313 0.09406 0.0
C48 C 0.82204 0.89377 0.11273 0.0
C49 C 0.79253 0.86532 0.09444 0.0
C50 C 0.81436 0.89279 0.14374 0.0
C51 C 0.77595 0.86285 0.15651 0.0
C52 C 0.74568 0.83434 0.13872 0.0
C53 C 0.75357 0.83571 0.10768 0.0
H54 H 0.21958 0.94784 0.44565 0.0
H55 H 0.3102 0.83535 0.44811 0.0
H56 H 0.26386 0.88944 0.36413 0.0
C57 C 0.23924 0.92287 0.43407 0.0
C58 C 0.23712 0.92183 0.4029 0.0
C59 C 0.2663 0.89205 0.45054 0.0
C60 C 0.29063 0.85938 0.43536 0.0
C61 C 0.29044 0.85795 0.40399 0.0
C62 C 0.26404 0.88968 0.38815 0.0
H63 H 0.34355 0.57429 0.93774 0.0
H64 H 0.29007 0.61355 0.8499 0.0
H65 H 0.23991 0.68227 0.92556 0.0
C66 C 0.32073 0.59548 0.92321 0.0
C67 C 0.29352 0.62951 0.93556 0.0
C68 C 0.31915 0.58898 0.89219 0.0
C69 C 0.29018 0.61735 0.87376 0.0
C70 C 0.26099 0.65076 0.88558 0.0
C71 C 0.26251 0.65644 0.91644 0.0
C72 C 0.8125 0.08328 0.24995 0.0
C73 C 0.81231 0.01356 0.25696 0.0
C74 C 0.84112 0.05038 0.26198 0.0
C75 C 0.75664 0.0101 0.23798 0.0
C76 C 0.7542 0.08018 0.2323 0.0
C77 C 0.72773 0.04336 0.22559 0.0
N78 N 0.83869 0.1184 0.25737 0.0
C79 C 0.80439 0.15148 0.25073 0.0
C80 C 0.72269 0.11422 0.22297 0.0
C81 C 0.74711 0.15 0.23277 0.0
Gd82 Gd 0.10061 0.13742 0.23081 0.0
Gd83 Gd 0.93993 0.1174 0.2847 0.0
N84 N 0.89581 0.05461 0.27964 0.0
C85 C 0.83965 0.98149 0.27165 0.0
C86 C 0.92047 0.02393 0.29534 0.0
C87 C 0.89334 0.9868 0.29128 0.0
H88 H 0.96224 0.02815 0.31035 0.0
H89 H 0.91402 0.96233 0.30315 0.0
H90 H 0.04079 0.19938 0.17887 0.0
H91 H 0.82096 0.17922 0.25919 0.0
H92 H 0.04122 0.26978 0.16942 0.0
H93 H 0.81896 0.95269 0.26839 0.0
H94 H 0.73455 0.98197 0.23335 0.0
H95 H 0.23136 0.11972 0.27457 0.0
H96 H 0.67787 0.11312 0.20934 0.0
H97 H 0.7214 0.17642 0.22681 0.0
H98 H 0.19947 0.32038 0.24023 0.0
H99 H 0.68355 0.04038 0.21172 0.0
H100 H 0.32201 0.22831 0.29876 0.0
H101 H 0.31785 0.15671 0.30253 0.0
N102 N 0.18781 0.17 0.25561 0.0
C103 C 0.19151 0.20897 0.25199 0.0
C104 C 0.23378 0.15092 0.27261 0.0
C105 C 0.28461 0.2122 0.2863 0.0
C106 C 0.28243 0.17177 0.28848 0.0
C107 C 0.23928 0.23129 0.2676 0.0
H108 H 0.27628 0.28949 0.27591 0.0
N109 N 0.10484 0.20328 0.21666 0.0
C110 C 0.14788 0.22624 0.23218 0.0
C111 C 0.11068 0.28245 0.20487 0.0
C112 C 0.15134 0.26653 0.22707 0.0
C113 C 0.06976 0.21815 0.19323 0.0
C114 C 0.07081 0.25801 0.18744 0.0
O115 O 0.98014 0.07078 0.25414 0.0
O116 O 0.01088 0.10497 0.21297 0.0
O117 O 0.15211 0.14247 0.18818 0.0
O118 O 0.17026 0.09327 0.21652 0.0
O119 O 0.03997 0.09621 0.30175 0.0
O120 O 0.11089 0.08547 0.26142 0.0
O121 O 0.09711 0.1586 0.27866 0.0
O122 O 0.98822 0.17669 0.28551 0.0
O123 O 0.95379 0.11307 0.33249 0.0
O124 O 0.85628 0.12673 0.31468 0.0
O125 O 0.99638 0.1515 0.21366 0.0
O126 O 0.94036 0.17139 0.25561 0.0
C127 C 0.98436 0.07404 0.22521 0.0
C128 C 0.09174 0.07913 0.28915 0.0
C129 C 0.15776 0.08111 0.16506 0.0
C130 C 0.1444 0.06896 0.11179 0.0
C131 C 0.10269 0.0221 0.14786 0.0
C132 C 0.125 0.04562 0.17101 0.0
C133 C 0.11207 0.03366 0.11847 0.0
C134 C 0.16801 0.09244 0.13525 0.0
C135 C 0.17579 0.10751 0.18981 0.0
C136 C 0.19671 0.2893 0.24355 0.0
C137 C 0.24062 0.27171 0.26379 0.0
H138 H 0.1117 0.31328 0.20025 0.0
C139 C 0.05272 0.18279 0.28928 0.0
C140 C 0.95056 0.1727 0.22672 0.0
C141 C 0.88372 0.15148 0.36211 0.0
C142 C 0.86812 0.16587 0.41466 0.0
C143 C 0.86905 0.21794 0.37816 0.0
C144 C 0.87954 0.19113 0.35543 0.0
C145 C 0.86273 0.20541 0.4076 0.0
C146 C 0.87903 0.13903 0.39178 0.0
C147 C 0.8924 0.12259 0.33854 0.0
H148 H 0.0772 0.99502 0.15273 0.0
H149 H 0.1154 0.03618 0.19359 0.0
H150 H 0.0939 0.01493 0.10088 0.0
H151 H 0.19193 0.12003 0.13038 0.0
H152 H 0.8655 0.24849 0.37293 0.0
H153 H 0.88394 0.20126 0.3327 0.0
H154 H 0.85432 0.22658 0.42492 0.0
H155 H 0.88253 0.10841 0.397 0.0
C156 C 0.73013 0.37277 0.76733 0.0
C157 C 0.75978 0.43998 0.77654 0.0
C158 C 0.7143 0.40865 0.77887 0.0
C159 C 0.81956 0.43534 0.7605 0.0
C160 C 0.79204 0.36735 0.75278 0.0
C161 C 0.83553 0.3991 0.74852 0.0
N162 N 0.68809 0.34244 0.77292 0.0
C163 C 0.70925 0.30544 0.76786 0.0
C164 C 0.81002 0.32982 0.74441 0.0
C165 C 0.76911 0.29862 0.75261 0.0
Gd166 Gd 0.43619 0.35578 0.73157 0.0
Gd167 Gd 0.58594 0.35744 0.7969 0.0
N168 N 0.65606 0.41221 0.79417 0.0
C169 C 0.7447 0.47461 0.79122 0.0
C170 C 0.64253 0.44517 0.80975 0.0
C171 C 0.68622 0.47702 0.80823 0.0
H172 H 0.59738 0.44687 0.82292 0.0
H173 H 0.67477 0.50337 0.82014 0.0
H174 H 0.49188 0.28461 0.6867 0.0
H175 H 0.68058 0.28089 0.7758 0.0
H176 H 0.46603 0.216 0.67636 0.0
H177 H 0.77847 0.49931 0.79007 0.0
H178 H 0.85471 0.45922 0.75805 0.0
H179 H 0.29874 0.39367 0.76026 0.0
H180 H 0.85701 0.32442 0.73311 0.0
H181 H 0.7843 0.26925 0.74777 0.0
H182 H 0.25769 0.19332 0.72708 0.0
H183 H 0.88292 0.39556 0.7371 0.0
H184 H 0.15093 0.30375 0.77052 0.0
H185 H 0.18489 0.37258 0.77586 0.0
N186 N 0.32806 0.33751 0.74671 0.0
C187 C 0.30942 0.30012 0.74233 0.0
C188 C 0.28386 0.36372 0.75789 0.0
C189 C 0.20062 0.31295 0.76362 0.0
C190 C 0.21958 0.35184 0.76665 0.0
C191 C 0.24554 0.28658 0.75107 0.0
H192 H 0.17957 0.23645 0.75319 0.0
N193 N 0.41198 0.29129 0.71755 0.0
C194 C 0.35338 0.27601 0.72771 0.0
C195 C 0.37728 0.21515 0.70365 0.0
C196 C 0.33463 0.23743 0.72131 0.0
C197 C 0.4499 0.27097 0.69779 0.0
C198 C 0.43446 0.2323 0.69129 0.0
O199 O 0.57789 0.40805 0.76436 0.0
O200 O 0.54312 0.37349 0.72472 0.0
O201 O 0.41121 0.35477 0.68464 0.0
O202 O 0.39597 0.40717 0.70967 0.0
O203 O 0.49309 0.39246 0.80701 0.0
O204 O 0.43476 0.40763 0.76292 0.0
O205 O 0.40846 0.33763 0.77864 0.0
O206 O 0.50624 0.31045 0.7958 0.0
O207 O 0.57546 0.36893 0.84451 0.0
O208 O 0.64854 0.3282 0.82925 0.0
O209 O 0.53767 0.32776 0.72515 0.0
O210 O 0.5669 0.30229 0.77042 0.0
C211 C 0.56603 0.40583 0.73573 0.0
C212 C 0.45048 0.41358 0.7913 0.0
C213 C 0.32706 0.39625 0.66678 0.0
C214 C 0.27169 0.39949 0.61809 0.0
C215 C 0.20748 0.40811 0.66364 0.0
C216 C 0.26542 0.40318 0.68069 0.0
C217 C 0.21041 0.40627 0.63263 0.0
C218 C 0.32991 0.3945 0.63552 0.0
C219 C 0.38906 0.39 0.68406 0.0
C220 C 0.27265 0.22301 0.73149 0.0
C221 C 0.22807 0.24759 0.74629 0.0
H222 H 0.36482 0.18537 0.69824 0.0
C223 C 0.4409 0.31499 0.79731 0.0
C224 C 0.5626 0.29956 0.74133 0.0
C225 C 0.67738 0.36437 0.87169 0.0
C226 C 0.72283 0.37614 0.9216 0.0
C227 C 0.78437 0.39753 0.87773 0.0
C228 C 0.7343 0.38244 0.85944 0.0
C229 C 0.77895 0.39435 0.90851 0.0
C230 C 0.67183 0.36118 0.90285 0.0
C231 C 0.62584 0.34721 0.85192 0.0
H232 H 0.16006 0.41353 0.67452 0.0
H233 H 0.26196 0.40481 0.70463 0.0
H234 H 0.16481 0.4108 0.62003 0.0
H235 H 0.37751 0.38871 0.62483 0.0
H236 H 0.82817 0.41122 0.86798 0.0
H237 H 0.74088 0.38423 0.83568 0.0
H238 H 0.81972 0.40543 0.92204 0.0
H239 H 0.62812 0.34707 0.91239 0.0
C240 C 0.76286 0.85803 0.77113 0.0
C241 C 0.73908 0.78891 0.77019 0.0
C242 C 0.78302 0.82012 0.7762 0.0
C243 C 0.67463 0.79636 0.759 0.0
C244 C 0.69813 0.86563 0.75999 0.0
C245 C 0.65422 0.8346 0.75391 0.0
N246 N 0.80664 0.88744 0.77692 0.0
C247 C 0.78851 0.92513 0.77282 0.0
C248 C 0.67953 0.90421 0.75522 0.0
C249 C 0.72486 0.93407 0.76177 0.0
Gd250 Gd 0.07861 0.86999 0.74206 0.0
Gd251 Gd 0.91254 0.86921 0.79438 0.0
N252 N 0.84656 0.81374 0.78602 0.0
C253 C 0.76156 0.75113 0.77531 0.0
C254 C 0.86811 0.77708 0.79195 0.0
C255 C 0.8262 0.74523 0.78641 0.0
H256 H 0.91782 0.77224 0.80056 0.0
H257 H 0.8438 0.71614 0.79065 0.0
H258 H 0.04209 0.94409 0.69539 0.0
H259 H 0.82283 0.94837 0.77841 0.0
H260 H 0.0646 0.01424 0.69177 0.0
H261 H 0.72941 0.72636 0.77086 0.0
H262 H 0.64028 0.77275 0.7541 0.0
H263 H 0.20301 0.83246 0.78241 0.0
H264 H 0.63026 0.91125 0.74666 0.0
H265 H 0.7107 0.96399 0.75842 0.0
H266 H 0.23456 0.03707 0.76535 0.0
H267 H 0.60435 0.83987 0.74524 0.0
H268 H 0.32789 0.92557 0.81341 0.0
H269 H 0.30073 0.8555 0.81163 0.0
N270 N 0.17581 0.8888 0.76801 0.0
C271 C 0.19142 0.92718 0.76772 0.0
C272 C 0.21518 0.86296 0.78288 0.0
C273 C 0.28543 0.91556 0.8004 0.0
C274 C 0.27027 0.87597 0.79945 0.0
C275 C 0.24619 0.9417 0.78422 0.0
H276 H 0.3014 0.99346 0.7968 0.0
N277 N 0.1016 0.93645 0.73424 0.0
C278 C 0.15253 0.9518 0.75064 0.0
C279 C 0.13468 0.01457 0.72826 0.0
C280 C 0.16923 0.99152 0.74871 0.0
C281 C 0.07447 0.95764 0.71162 0.0
C282 C 0.08855 0.99726 0.70897 0.0
O283 O 0.90385 0.83969 0.74951 0.0
O284 O 0.01007 0.81828 0.73752 0.0
O285 O 0.092 0.86842 0.69408 0.0
O286 O 0.16358 0.8402 0.72253 0.0
O287 O 0.99593 0.82831 0.80773 0.0
O288 O 0.07375 0.81571 0.7701 0.0
O289 O 0.08337 0.88661 0.79089 0.0
O290 O 0.98551 0.91909 0.79724 0.0
O291 O 0.92296 0.85328 0.84086 0.0
O292 O 0.84515 0.89303 0.82747 0.0
O293 O 0.98073 0.89702 0.72585 0.0
O294 O 0.93782 0.923 0.76857 0.0
C295 C 0.94453 0.81679 0.73481 0.0
C296 C 0.04651 0.80868 0.79639 0.0
C297 C 0.20403 0.86755 0.67754 0.0
C298 C 0.25442 0.87907 0.62864 0.0
C299 C 0.30753 0.90456 0.67339 0.0
C300 C 0.25641 0.88868 0.69083 0.0
C301 C 0.30678 0.89977 0.64258 0.0
C302 C 0.20318 0.8629 0.64648 0.0
C303 C 0.14925 0.85078 0.69555 0.0
C304 C 0.22182 0.00651 0.76615 0.0
C305 C 0.26015 0.98164 0.78392 0.0
H306 H 0.14599 0.0452 0.72603 0.0
C307 C 0.0491 0.91443 0.80331 0.0
C308 C 0.94437 0.92323 0.73957 0.0
C309 C 0.89486 0.90243 0.87457 0.0
C310 C 0.90525 0.91359 0.928 0.0
C311 C 0.94731 0.96149 0.89268 0.0
C312 C 0.92633 0.93824 0.86909 0.0
C313 C 0.93706 0.94929 0.92193 0.0
C314 C 0.88389 0.8903 0.90406 0.0
C315 C 0.87631 0.87689 0.84969 0.0
H316 H 0.348 0.92062 0.68381 0.0
H317 H 0.25794 0.89289 0.71465 0.0
H318 H 0.34762 0.91203 0.6297 0.0
H319 H 0.1619 0.84725 0.63623 0.0
H320 H 0.97183 0.989 0.88828 0.0
H321 H 0.93492 0.94817 0.84658 0.0
H322 H 0.95359 0.96795 0.93987 0.0
H323 H 0.86031 0.86243 0.90833 0.0
C324 C 0.69914 0.65848 0.27564 0.0
C325 C 0.70715 0.72865 0.27485 0.0
C326 C 0.6696 0.69438 0.27943 0.0
C327 C 0.77445 0.72623 0.26586 0.0
C328 C 0.767 0.65588 0.2671 0.0
C329 C 0.80429 0.68994 0.26197 0.0
N330 N 0.66178 0.6261 0.28069 0.0
C331 C 0.68967 0.59024 0.27875 0.0
C332 C 0.79543 0.61909 0.26415 0.0
C333 C 0.75669 0.58612 0.27024 0.0
Gd334 Gd 0.38364 0.62996 0.23936 0.0
Gd335 Gd 0.54861 0.63545 0.29255 0.0
N336 N 0.60378 0.69572 0.28735 0.0
C337 C 0.67593 0.76431 0.27949 0.0
C338 C 0.57404 0.73039 0.29317 0.0
C339 C 0.60931 0.76515 0.28901 0.0
H340 H 0.52313 0.73149 0.30081 0.0
H341 H 0.58507 0.79257 0.29318 0.0
H342 H 0.43003 0.5446 0.20845 0.0
H343 H 0.66037 0.56493 0.28458 0.0
H344 H 0.39911 0.47579 0.21192 0.0
H345 H 0.70301 0.79131 0.27617 0.0
H346 H 0.80394 0.75225 0.262 0.0
H347 H 0.26637 0.67811 0.27687 0.0
H348 H 0.8474 0.61585 0.25762 0.0
H349 H 0.77853 0.55758 0.26859 0.0
H350 H 0.20368 0.47468 0.27391 0.0
H351 H 0.85638 0.68853 0.25523 0.0
H352 H 0.12284 0.59615 0.31016 0.0
H353 H 0.16336 0.66382 0.30544 0.0
N354 N 0.28452 0.61936 0.26618 0.0
C355 C 0.26205 0.5821 0.26765 0.0
C356 C 0.24949 0.64858 0.27912 0.0
C357 C 0.16802 0.60232 0.29759 0.0
C358 C 0.19088 0.64054 0.29509 0.0
C359 C 0.2036 0.57252 0.28379 0.0
H360 H 0.13855 0.52569 0.29845 0.0
N361 N 0.35633 0.56335 0.23902 0.0
C362 C 0.29926 0.55328 0.25391 0.0
C363 C 0.31569 0.48601 0.24116 0.0
C364 C 0.27815 0.51422 0.2558 0.0
C365 C 0.39008 0.53626 0.22301 0.0
C366 C 0.37128 0.49719 0.22431 0.0
O367 O 0.55654 0.66895 0.24955 0.0
O368 O 0.45034 0.68219 0.23059 0.0
O369 O 0.36284 0.61891 0.19225 0.0
O370 O 0.30162 0.65972 0.21743 0.0
O371 O 0.45531 0.6687 0.30591 0.0
O372 O 0.39197 0.6859 0.26461 0.0
O373 O 0.38593 0.60667 0.28688 0.0
O374 O 0.48967 0.58029 0.28933 0.0
O375 O 0.52313 0.64419 0.33907 0.0
O376 O 0.61163 0.61187 0.32755 0.0
O377 O 0.48185 0.60832 0.22052 0.0
O378 O 0.54242 0.58484 0.26057 0.0
C379 C 0.51595 0.6874 0.23138 0.0
C380 C 0.41175 0.69123 0.29225 0.0
C381 C 0.27176 0.65122 0.16528 0.0
C382 C 0.25333 0.64906 0.11144 0.0
C383 C 0.17647 0.68425 0.14321 0.0
C384 C 0.21398 0.67403 0.16815 0.0
C385 C 0.19621 0.67216 0.11504 0.0
C386 C 0.2908 0.6382 0.13673 0.0
C387 C 0.31309 0.64319 0.19199 0.0
C388 C 0.22026 0.50456 0.27206 0.0
C389 C 0.18306 0.53362 0.28598 0.0
H390 H 0.3012 0.45571 0.24209 0.0
C391 C 0.42598 0.57906 0.29597 0.0
C392 C 0.5299 0.58669 0.23173 0.0
C393 C 0.61526 0.64749 0.37213 0.0
C394 C 0.65268 0.65317 0.42385 0.0
C395 C 0.69124 0.69937 0.38645 0.0
C396 C 0.65385 0.68021 0.36474 0.0
C397 C 0.69074 0.68606 0.41575 0.0
C398 C 0.61449 0.63408 0.40175 0.0
C399 C 0.57675 0.62693 0.34896 0.0
H400 H 0.13223 0.70196 0.14571 0.0
H401 H 0.19798 0.68436 0.18971 0.0
H402 H 0.1666 0.68073 0.09595 0.0
H403 H 0.33544 0.62081 0.13404 0.0
H404 H 0.72069 0.72471 0.38056 0.0
H405 H 0.65527 0.69091 0.34219 0.0
H406 H 0.71956 0.70193 0.43218 0.0
H407 H 0.58511 0.60858 0.40742 0.0
H408 H 0.27779 0.95423 0.35015 0.0
H409 H 0.12263 0.96094 0.41687 0.0
H410 H 0.06662 0.01132 0.38838 0.0
H411 H 0.0589 0.05155 0.34392 0.0
H412 H 0.20943 0.04242 0.27535 0.0
H413 H 0.2693 0.9944 0.30506 0.0
C414 C 0.23143 0.96643 0.35839 0.0
C415 C 0.20475 0.95368 0.38575 0.0
C416 C 0.19834 0.99482 0.3415 0.0
C417 C 0.14519 0.97052 0.39622 0.0
C418 C 0.11267 0.99915 0.37979 0.0
C419 C 0.10487 0.03923 0.33536 0.0
C420 C 0.12939 0.05066 0.30732 0.0
C421 C 0.13851 0.01128 0.35233 0.0
C422 C 0.18913 0.03417 0.29678 0.0
C423 C 0.22347 0.00669 0.31378 0.0
H424 H 0.27603 0.54992 0.84261 0.0
H425 H 0.42934 0.54706 0.9106 0.0
H426 H 0.48027 0.49135 0.88646 0.0
H427 H 0.48478 0.4455 0.84479 0.0
H428 H 0.34098 0.45523 0.7733 0.0
H429 H 0.28437 0.50709 0.79973 0.0
C430 C 0.32136 0.53786 0.85204 0.0
C431 C 0.34866 0.55337 0.87849 0.0
C432 C 0.35259 0.50709 0.83724 0.0
C433 C 0.40609 0.53578 0.89064 0.0
C434 C 0.43591 0.50407 0.87662 0.0
C435 C 0.44114 0.45892 0.83486 0.0
C436 C 0.41693 0.44591 0.80711 0.0
C437 C 0.41005 0.4898 0.84972 0.0
C438 C 0.36051 0.46408 0.79469 0.0
C439 C 0.32806 0.4939 0.8098 0.0
H440 H 0.60099 0.53435 0.63615 0.0
H441 H 0.74097 0.57851 0.70163 0.0
H442 H 0.71048 0.52675 0.73531 0.0
H443 H 0.64427 0.4689 0.74679 0.0
H444 H 0.52186 0.41675 0.67876 0.0
H445 H 0.54519 0.47138 0.64563 0.0
C446 C 0.6257 0.53258 0.65755 0.0
C447 C 0.6715 0.56177 0.66635 0.0
C448 C 0.6108 0.50117 0.6766 0.0
C449 C 0.70285 0.55815 0.69439 0.0
C450 C 0.68622 0.52804 0.71375 0.0
C451 C 0.62323 0.46921 0.72472 0.0
C452 C 0.5808 0.43892 0.71559 0.0
C453 C 0.63993 0.49957 0.70521 0.0
C454 C 0.55388 0.43996 0.68667 0.0
C455 C 0.56758 0.47113 0.66759 0.0
H456 H 0.82721 0.97036 0.13319 0.0
H457 H 0.87834 0.88168 0.19698 0.0
H458 H 0.93607 0.92979 0.22757 0.0
H459 H 0.97396 0.99696 0.23581 0.0
H460 H 0.92467 0.08515 0.17162 0.0
H461 H 0.86667 0.03705 0.14096 0.0
C462 C 0.85155 0.9614 0.15362 0.0
C463 C 0.84826 0.92237 0.1627 0.0
C464 C 0.88571 0.98907 0.17087 0.0
C465 C 0.87908 0.91156 0.18959 0.0
C466 C 0.91274 0.93899 0.20699 0.0
C467 C 0.95011 0.00555 0.21519 0.0
C468 C 0.95267 0.04447 0.20613 0.0
C469 C 0.9165 0.97779 0.19781 0.0
C470 C 0.92319 0.05527 0.17903 0.0
C471 C 0.88973 0.02785 0.1616 0.0
H472 H 0.86473 0.08465 0.68584 0.0
H473 H 0.80853 0.01294 0.61111 0.0
H474 H 0.84868 0.95572 0.63748 0.0
H475 H 0.89613 0.92545 0.68284 0.0
H476 H 0.93866 0.9972 0.75903 0.0
H477 H 0.90468 0.0547 0.73143 0.0
C478 C 0.85966 0.05655 0.67534 0.0
C479 C 0.83285 0.05352 0.64642 0.0
C480 C 0.87972 0.02351 0.69112 0.0
C481 C 0.82966 0.01663 0.6331 0.0
C482 C 0.85195 0.98368 0.64832 0.0
C483 C 0.89751 0.95372 0.69332 0.0
C484 C 0.91973 0.95716 0.72288 0.0
C485 C 0.8765 0.98671 0.67747 0.0
C486 C 0.92106 0.99381 0.73639 0.0
C487 C 0.90213 0.02673 0.72056 0.0
H488 H 0.62592 0.47066 0.13255 0.0
H489 H 0.7564 0.43467 0.20436 0.0
H490 H 0.7074 0.48263 0.23657 0.0
H491 H 0.62378 0.53236 0.24539 0.0
H492 H 0.51188 0.57883 0.17154 0.0
H493 H 0.55819 0.5293 0.13907 0.0
C494 C 0.64507 0.47352 0.15496 0.0
C495 C 0.69311 0.44727 0.16598 0.0
C496 C 0.61989 0.50314 0.17318 0.0
C497 C 0.7167 0.45238 0.19533 0.0
C498 C 0.6895 0.48043 0.21387 0.0
C499 C 0.61109 0.53281 0.22209 0.0
C500 C 0.56414 0.55945 0.21125 0.0
C501 C 0.64038 0.50555 0.20316 0.0
C502 C 0.54749 0.55854 0.1808 0.0
C503 C 0.57392 0.53015 0.16212 0.0
H504 H 0.35317 0.41862 0.35564 0.0
H505 H 0.19794 0.48735 0.39547 0.0
H506 H 0.23643 0.54449 0.36746 0.0
H507 H 0.31684 0.5751 0.33249 0.0
H508 H 0.4752 0.50614 0.29498 0.0
H509 H 0.43341 0.44901 0.32129 0.0
C510 C 0.32787 0.44617 0.3581 0.0
C511 C 0.27299 0.44899 0.37749 0.0
C512 C 0.35112 0.47884 0.34247 0.0
C513 C 0.24067 0.48475 0.38077 0.0
C514 C 0.26257 0.5173 0.36474 0.0
C515 C 0.34186 0.54749 0.33005 0.0
C516 C 0.39901 0.54481 0.31187 0.0
C517 C 0.31809 0.51475 0.34565 0.0
C518 C 0.43142 0.50899 0.30904 0.0
C519 C 0.40743 0.47626 0.32398 0.0
H520 H 0.22278 0.01411 0.89248 0.0
H521 H 0.11228 0.10645 0.85091 0.0
H522 H 0.05193 0.05939 0.81992 0.0
H523 H 0.03045 0.99184 0.8049 0.0
H524 H 0.14644 0.89994 0.84397 0.0
H525 H 0.20502 0.94679 0.87576 0.0
C526 C 0.1853 0.02376 0.87666 0.0
C527 C 0.17135 0.06348 0.87405 0.0
C528 C 0.15189 0.99665 0.8586 0.0
C529 C 0.12362 0.07593 0.85321 0.0
C530 C 0.0891 0.04908 0.8356 0.0
C531 C 0.06824 0.98219 0.82057 0.0
C532 C 0.08382 0.94265 0.8225 0.0
C533 C 0.10266 0.00937 0.83818 0.0
C534 C 0.13369 0.93034 0.84233 0.0
C535 C 0.16707 0.95706 0.86045 0.0
H536 H 0.12483 0.0999 0.97404 0.0
H537 H 0.33619 0.12327 0.98516 0.0
H538 H 0.32526 0.11415 0.03895 0.0
H539 H 0.25634 0.09518 0.08261 0.0
H540 H 0.04587 0.07008 0.07021 0.0
H541 H 0.05583 0.0839 0.01722 0.0
C542 C 0.16867 0.10281 0.98819 0.0
C543 C 0.23138 0.11179 0.97551 0.0
C544 C 0.16216 0.09705 0.01893 0.0
C545 C 0.28726 0.11647 0.99431 0.0
C546 C 0.28109 0.11106 0.02507 0.0
C547 C 0.21264 0.09327 0.0683 0.0
C548 C 0.15059 0.08129 0.08025 0.0
C549 C 0.21891 0.10082 0.03761 0.0
C550 C 0.09435 0.07873 0.06146 0.0
C551 C 0.09996 0.08668 0.03117 0.0
H552 H 0.32243 0.41133 0.47913 0.0
H553 H 0.13526 0.34774 0.47754 0.0
H554 H 0.13255 0.34727 0.53177 0.0
H555 H 0.18235 0.36555 0.5798 0.0
H556 H 0.36816 0.43046 0.58152 0.0
H557 H 0.37236 0.4296 0.52728 0.0
C558 C 0.28076 0.39761 0.49063 0.0
C559 C 0.22911 0.37961 0.47411 0.0
C560 C 0.27931 0.39758 0.52194 0.0
C561 C 0.17614 0.36142 0.48953 0.0
C562 C 0.17432 0.36133 0.52061 0.0
C563 C 0.22357 0.37978 0.56835 0.0
C564 C 0.27479 0.3981 0.5849 0.0
C565 C 0.22549 0.37942 0.53706 0.0
C566 C 0.3284 0.41573 0.56952 0.0
C567 C 0.33063 0.41549 0.53843 0.0
H568 H 0.71019 0.3319 0.05868 0.0
H569 H 0.791 0.44777 0.06606 0.0
H570 H 0.78645 0.4554 1.01219 0.0
H571 H 0.7587 0.42976 0.96309 0.0
H572 H 0.68011 0.3135 0.95464 0.0
H573 H 0.68293 0.3058 1.00872 0.0
C574 C 0.72737 0.35863 0.0484 0.0
C575 C 0.7508 0.38926 0.06639 0.0
C576 C 0.72413 0.36297 0.01725 0.0
C577 C 0.77221 0.4239 0.05278 0.0
C578 C 0.76964 0.42829 0.02196 0.0
C579 C 0.7426 0.40257 0.97298 0.0
C580 C 0.71956 0.37221 0.95465 0.0
C581 C 0.74542 0.39813 1.004 0.0
C582 C 0.69742 0.33755 0.96809 0.0
C583 C 0.69966 0.33298 0.99905 0.0
H584 H 0.8877 0.10907 0.54797 0.0
H585 H 0.68603 0.15397 0.54891 0.0
H586 H 0.69471 0.17045 0.49644 0.0
H587 H 0.76121 0.1752 0.45064 0.0
H588 H 0.95967 0.12683 0.44809 0.0
H589 H 0.95048 0.10815 0.50061 0.0
C590 C 0.84521 0.12179 0.53659 0.0
C591 C 0.7868 0.13094 0.55267 0.0
C592 C 0.85012 0.13081 0.50611 0.0
C593 C 0.73233 0.14754 0.53741 0.0
C594 C 0.73705 0.15685 0.50731 0.0
C595 C 0.80223 0.16045 0.46167 0.0
C596 C 0.86124 0.15272 0.44584 0.0
C597 C 0.79608 0.14931 0.49158 0.0
C598 C 0.91384 0.1331 0.46003 0.0
C599 C 0.90859 0.1225 0.49 0.0
H600 H 0.90968 0.88065 0.06581 0.0
H601 H 0.70143 0.85341 0.04938 0.0
H602 H 0.71889 0.86288 0.99594 0.0
H603 H 0.79175 0.8844 0.95428 0.0
H604 H 0.99844 0.91426 0.97208 0.0
H605 H 0.9829 0.89892 0.02458 0.0
C606 C 0.86792 0.87688 0.05059 0.0
C607 C 0.80407 0.86688 0.0617 0.0
C608 C 0.87797 0.88325 0.0201 0.0
C609 C 0.75112 0.86103 0.04149 0.0
C610 C 0.76099 0.86673 1.01093 0.0
C611 C 0.83349 0.88703 0.96964 0.0
C612 C 0.89602 0.90082 0.95934 0.0
C613 C 0.82394 0.8786 1.00003 0.0
C614 C 0.9496 0.90428 0.97952 0.0
C615 C 0.94081 0.8954 1.00952 0.0
H616 H 0.6032 0.6126 0.55965 0.0
H617 H 0.81583 0.6358 0.56274 0.0
H618 H 0.81871 0.64275 0.50871 0.0
H619 H 0.75956 0.64788 0.46124 0.0
H620 H 0.54577 0.62836 0.45761 0.0
H621 H 0.54462 0.61354 0.51086 0.0
C622 C 0.6502 0.61842 0.54832 0.0
C623 C 0.70924 0.62377 0.56507 0.0
C624 C 0.65116 0.62333 0.51717 0.0
C625 C 0.76981 0.6317 0.55025 0.0
C626 C 0.77142 0.63578 0.5194 0.0
C627 C 0.71263 0.64035 0.47205 0.0
C628 C 0.65272 0.63975 0.45543 0.0
C629 C 0.71217 0.63268 0.50273 0.0
C630 C 0.5927 0.62896 0.46976 0.0
C631 C 0.59194 0.62073 0.50029 0.0
H632 H 0.28095 0.57863 0.98277 0.0
H633 H 0.31733 0.69933 0.96226 0.0
H634 H 0.31228 0.71539 1.01476 0.0
H635 H 0.2893 0.69636 0.06635 0.0
H636 H 0.25868 0.57603 0.08815 0.0
H637 H 0.27161 0.55848 0.03557 0.0
C638 C 0.28897 0.60834 0.98975 0.0
C639 C 0.29766 0.6378 0.96821 0.0
C640 C 0.2872 0.61749 0.02033 0.0
C641 C 0.30808 0.67613 0.97801 0.0
C642 C 0.30584 0.6854 1.00815 0.0
C643 C 0.28669 0.66623 0.05957 0.0
C644 C 0.27296 0.6375 0.08093 0.0
C645 C 0.29401 0.65651 0.02944 0.0
C646 C 0.26969 0.59856 0.07204 0.0
C647 C 0.27655 0.58862 0.04197 0.0
H648 H 0.23435 0.83627 0.49173 0.0
H649 H 0.30614 0.95409 0.48363 0.0
H650 H 0.30775 0.96054 0.53756 0.0
H651 H 0.28722 0.93342 0.587 0.0
H652 H 0.21859 0.81508 0.59586 0.0
H653 H 0.21673 0.80833 0.54179 0.0
C654 C 0.251 0.8632 0.5018 0.0
C655 C 0.26971 0.89471 0.48358 0.0
C656 C 0.25192 0.86676 0.53299 0.0
C657 C 0.29048 0.92955 0.49705 0.0
C658 C 0.2917 0.93324 0.52792 0.0
C659 C 0.27262 0.90595 0.57719 0.0
C660 C 0.25318 0.87482 0.59563 0.0
C661 C 0.27225 0.90213 0.54611 0.0
C662 C 0.23303 0.83973 0.58232 0.0
C663 C 0.23239 0.83574 0.55135 0.0
H664 H 0.11089 0.34261 0.3526 0.0
H665 H 0.26258 0.27432 0.39588 0.0
H666 H 0.22926 0.21753 0.36649 0.0
H667 H 0.1556 0.18721 0.32878 0.0
H668 H 0.99913 0.25471 0.28813 0.0
H669 H 0.03533 0.31191 0.31609 0.0
C670 C 0.1365 0.31523 0.35554 0.0
C671 C 0.18907 0.3125 0.37627 0.0
C672 C 0.11609 0.28264 0.33906 0.0
C673 C 0.22167 0.2769 0.38015 0.0
C674 C 0.20277 0.24454 0.36331 0.0
C675 C 0.12973 0.21454 0.32606 0.0
C676 C 0.07506 0.21696 0.3064 0.0
C677 C 0.14991 0.24704 0.34275 0.0
C678 C 0.04121 0.25225 0.30326 0.0
C679 C 0.06199 0.28493 0.31917 0.0
H680 H 0.23242 0.21122 0.86811 0.0
H681 H 0.41396 0.15518 0.89646 0.0
H682 H 0.48129 0.20224 0.86818 0.0
H683 H 0.48753 0.25704 0.83315 0.0
H684 H 0.30612 0.31641 0.80852 0.0
H685 H 0.23956 0.27034 0.83725 0.0
C686 C 0.28678 0.20976 0.86829 0.0
C687 C 0.31855 0.18 0.88416 0.0
C688 C 0.32492 0.23712 0.8523 0.0
C689 C 0.38883 0.17814 0.88445 0.0
C690 C 0.42714 0.20487 0.86819 0.0
C691 C 0.43347 0.2601 0.83416 0.0
C692 C 0.40162 0.28934 0.8175 0.0
C693 C 0.39565 0.23417 0.85168 0.0
C694 C 0.3317 0.29324 0.81983 0.0
C695 C 0.29359 0.26711 0.83663 0.0
H696 H 0.67365 0.14626 0.68455 0.0
H697 H 0.76305 0.22988 0.62457 0.0
H698 H 0.71213 0.28243 0.65225 0.0
H699 H 0.6411 0.30497 0.69296 0.0
H700 H 0.56018 0.22288 0.75587 0.0
H701 H 0.61063 0.16933 0.72804 0.0
C702 C 0.68306 0.17593 0.67772 0.0
C703 C 0.72144 0.18377 0.65205 0.0
C704 C 0.65537 0.20633 0.69435 0.0
C705 C 0.73215 0.22264 0.64359 0.0
C706 C 0.70361 0.25287 0.6596 0.0
C707 C 0.63476 0.2753 0.70055 0.0
C708 C 0.59668 0.26755 0.7261 0.0
C709 C 0.66475 0.24504 0.68482 0.0
C710 C 0.58955 0.22927 0.73619 0.0
C711 C 0.61807 0.19878 0.72023 0.0
H712 H 0.79105 0.27403 0.13359 0.0
H713 H 0.84964 0.36324 0.19584 0.0
H714 H 0.90296 0.31542 0.22736 0.0
H715 H 0.93274 0.24826 0.23804 0.0
H716 H 0.88733 0.1593 0.17411 0.0
H717 H 0.82915 0.20663 0.14261 0.0
C718 C 0.81598 0.283 0.15389 0.0
C719 C 0.81426 0.32214 0.16264 0.0
C720 C 0.8485 0.25529 0.17184 0.0
C721 C 0.84774 0.33319 0.18896 0.0
C722 C 0.87877 0.30589 0.20703 0.0
C723 C 0.9094 0.23932 0.21734 0.0
C724 C 0.91306 0.20057 0.20848 0.0
C725 C 0.87872 0.26685 0.19894 0.0
C726 C 0.88451 0.18919 0.1813 0.0
C727 C 0.85152 0.21621 0.16331 0.0
H728 H 0.85882 0.67118 0.65846 0.0
H729 H 0.66761 0.7282 0.66165 0.0
H730 H 0.71775 0.78204 0.68988 0.0
H731 H 0.81599 0.81187 0.71416 0.0
H732 H 0.0064 0.75294 0.71233 0.0
H733 H 0.95704 0.70118 0.68252 0.0
C734 C 0.82861 0.69571 0.66513 0.0
C735 C 0.76018 0.69633 0.65793 0.0
C736 C 0.85761 0.72605 0.68151 0.0
C737 C 0.72068 0.72767 0.66684 0.0
C738 C 0.74928 0.75823 0.683 0.0
C739 C 0.84659 0.78756 0.70749 0.0
C740 C 0.91467 0.78616 0.71582 0.0
C741 C 0.81765 0.75757 0.69062 0.0
C742 C 0.9539 0.75485 0.7063 0.0
C743 C 0.92569 0.72512 0.6893 0.0
H744 H 0.61136 0.8252 0.14745 0.0
H745 H 0.80253 0.77187 0.16405 0.0
H746 H 0.74796 0.721 0.19357 0.0
H747 H 0.64699 0.69305 0.2157 0.0
H748 H 0.45493 0.74687 0.20111 0.0
H749 H 0.50833 0.79582 0.1693 0.0
C750 C 0.64053 0.80198 0.15719 0.0
C751 C 0.71053 0.8017 0.15339 0.0
C752 C 0.60878 0.77317 0.17453 0.0
C753 C 0.74845 0.77213 0.16648 0.0
C754 C 0.71734 0.74326 0.18343 0.0
C755 C 0.61665 0.71564 0.20584 0.0
C756 C 0.54708 0.71654 0.21121 0.0
C757 C 0.64769 0.74375 0.18787 0.0
C758 C 0.50857 0.74549 0.19747 0.0
C759 C 0.53912 0.77356 0.17931 0.0
H760 H 0.25018 0.8284 0.35007 0.0
H761 H 0.39471 0.81003 0.42038 0.0
H762 H 0.44159 0.75589 0.39297 0.0
H763 H 0.44482 0.71526 0.34825 0.0
H764 H 0.31223 0.74103 0.2749 0.0
H765 H 0.25939 0.79172 0.30403 0.0
C766 C 0.29289 0.81339 0.35937 0.0
C767 C 0.31844 0.82391 0.38753 0.0
C768 C 0.32225 0.78354 0.3428 0.0
C769 C 0.37247 0.80255 0.3992 0.0
C770 C 0.40011 0.77172 0.38332 0.0
C771 C 0.40429 0.73185 0.33855 0.0
C772 C 0.38155 0.72339 0.30957 0.0
C773 C 0.37572 0.76215 0.355 0.0
C774 C 0.3299 0.74599 0.29734 0.0
C775 C 0.29973 0.77522 0.31396 0.0
H776 H 0.14252 0.68846 0.89356 0.0
H777 H 0.30761 0.678 0.83218 0.0
H778 H 0.25388 0.72363 0.79835 0.0
H779 H 0.16086 0.7672 0.78641 0.0
H780 H 0.99867 0.78023 0.84915 0.0
H781 H 0.05031 0.73285 0.88195 0.0
C782 C 0.16713 0.69647 0.87293 0.0
C783 C 0.22898 0.67965 0.86547 0.0
C784 C 0.13632 0.7231 0.85367 0.0
C785 C 0.25955 0.68999 0.83837 0.0
C786 C 0.22899 0.71625 0.81903 0.0
C787 C 0.1367 0.75981 0.80724 0.0
C788 C 0.07608 0.77772 0.81523 0.0
C789 C 0.16735 0.73299 0.82643 0.0
C790 C 0.04547 0.76724 0.84231 0.0
C791 C 0.07504 0.74012 0.86121 0.0
loop_
_geom_bond_atom_site_label_1
_geom_bond_atom_site_label_2
_geom_bond_distance
_geom_bond_site_symmetry_2
_ccdc_geom_bond_type
H0 C3 0.931 . S
H1 C6 0.928 . S
H2 C8 0.930 . S
C3 H0 0.931 . S
C3 C4 1.413 . S
C3 C5 1.360 . S
C4 C3 1.413 . S
C4 C8 1.429 . S
C5 C3 1.360 . S
C5 C6 1.372 . S
C6 H1 0.928 . S
C6 C5 1.372 . S
C6 C7 1.404 . S
C7 C6 1.404 . S
C7 C8 1.391 . S
C8 H2 0.930 . S
C8 C4 1.429 . S
C8 C7 1.391 . S
H9 C12 0.931 . S
H10 C15 0.928 . S
H11 C17 0.930 . S
C12 H9 0.931 . S
C12 C13 1.413 . S
C12 C14 1.360 . S
C13 C12 1.413 . S
C13 C17 1.429 . S
C14 C12 1.360 . S
C14 C15 1.372 . S
C15 H10 0.928 . S
C15 C14 1.372 . S
C15 C16 1.404 . S
C16 C15 1.404 . S
C16 C17 1.391 . S
C17 H11 0.930 . S
C17 C13 1.429 . S
C17 C16 1.391 . S
H18 C21 0.931 . S
H19 C24 0.928 . S
H20 C26 0.930 . S
C21 H18 0.931 . S
C21 C22 1.413 . S
C21 C23 1.360 . S
C22 C21 1.413 . S
C22 C26 1.429 . S
C23 C21 1.360 . S
C23 C24 1.372 . S
C24 H19 0.928 . S
C24 C23 1.372 . S
C24 C25 1.404 . S
C25 C24 1.404 . S
C25 C26 1.391 . S
C26 H20 0.930 . S
C26 C22 1.429 . S
C26 C25 1.391 . S
H27 C30 0.931 . S
H28 C33 0.928 . S
H29 C35 0.930 . S
C30 H27 0.931 . S
C30 C31 1.413 . S
C30 C32 1.360 . S
C31 C30 1.413 . S
C31 C35 1.429 . S
C32 C30 1.360 . S
C32 C33 1.372 . S
C33 H28 0.928 . S
C33 C32 1.372 . S
C33 C34 1.404 . S
C34 C33 1.404 . S
C34 C35 1.391 . S
C35 H29 0.930 . S
C35 C31 1.429 . S
C35 C34 1.391 . S
H36 C39 0.931 . S
H37 C42 0.928 . S
H38 C44 0.930 . S
C39 H36 0.931 . S
C39 C40 1.413 . S
C39 C41 1.360 . S
C40 C39 1.413 . S
C40 C44 1.429 . S
C41 C39 1.360 . S
C41 C42 1.372 . S
C42 H37 0.928 . S
C42 C41 1.372 . S
C42 C43 1.404 . S
C43 C42 1.404 . S
C43 C44 1.391 . S
C44 H38 0.930 . S
C44 C40 1.429 . S
C44 C43 1.391 . S
H45 C48 0.931 . S
H46 C51 0.928 . S
H47 C53 0.930 . S
C48 H45 0.931 . S
C48 C49 1.413 . S
C48 C50 1.360 . S
C49 C48 1.413 . S
C49 C53 1.429 . S
C50 C48 1.360 . S
C50 C51 1.372 . S
C51 H46 0.928 . S
C51 C50 1.372 . S
C51 C52 1.404 . S
C52 C51 1.404 . S
C52 C53 1.391 . S
C53 H47 0.930 . S
C53 C49 1.429 . S
C53 C52 1.391 . S
H54 C57 0.931 . S
H55 C60 0.928 . S
H56 C62 0.930 . S
C57 H54 0.931 . S
C57 C58 1.413 . S
C57 C59 1.360 . S
C58 C57 1.413 . S
C58 C62 1.429 . S
C59 C57 1.360 . S
C59 C60 1.372 . S
C60 H55 0.928 . S
C60 C59 1.372 . S
C60 C61 1.404 . S
C61 C60 1.404 . S
C61 C62 1.391 . S
C62 H56 0.930 . S
C62 C58 1.429 . S
C62 C61 1.391 . S
H63 C66 0.931 . S
H64 C69 0.928 . S
H65 C71 0.930 . S
C66 H63 0.931 . S
C66 C67 1.413 . S
C66 C68 1.360 . S
C67 C66 1.413 . S
C67 C71 1.429 . S
C68 C66 1.360 . S
C68 C69 1.372 . S
C69 H64 0.928 . S
C69 C68 1.372 . S
C69 C70 1.404 . S
C70 C69 1.404 . S
C70 C71 1.391 . S
C71 H65 0.930 . S
C71 C67 1.429 . S
C71 C70 1.391 . S
C72 C74 1.422 . S
C72 C76 1.415 . S
C72 N78 1.369 . S
C73 C74 1.421 . S
C73 C75 1.417 . S
C73 C85 1.422 . S
C74 C72 1.422 . S
C74 C73 1.421 . S
C74 N84 1.359 . S
C75 C73 1.417 . S
C75 C77 1.329 . S
C75 H94 0.930 . S
C76 C72 1.415 . S
C76 C77 1.437 . S
C76 C80 1.413 . S
C77 C75 1.329 . S
C77 C76 1.437 . S
C77 H99 0.929 . S
N78 C72 1.369 . S
N78 C79 1.338 . S
N78 Gd83 2.622 . S
C79 N78 1.338 . S
C79 C81 1.378 . S
C79 H91 0.929 . S
C80 C76 1.413 . S
C80 C81 1.348 . S
C80 H96 0.931 . S
C81 C79 1.378 . S
C81 C80 1.348 . S
C81 H97 0.930 . S
Gd82 N102 2.622 . S
Gd82 N109 2.570 . S
Gd82 O116 2.353 1_455 S
Gd82 O117 2.468 . S
Gd82 O118 2.427 . S
Gd82 O120 2.388 . S
Gd82 O121 2.386 . S
Gd82 O125 2.307 1_455 S
Gd82 C135 2.805 . S
Gd83 N78 2.622 . S
Gd83 N84 2.570 . S
Gd83 O115 2.386 . S
Gd83 O119 2.307 1_655 S
Gd83 O122 2.353 1_655 S
Gd83 O123 2.468 . S
Gd83 O124 2.427 . S
Gd83 O126 2.388 . S
Gd83 C147 2.805 . S
N84 C74 1.359 . S
N84 Gd83 2.570 . S
N84 C86 1.343 . S
C85 C73 1.422 . S
C85 C87 1.321 . S
C85 H93 0.931 1_545 S
C86 N84 1.343 . S
C86 C87 1.390 . S
C86 H88 0.931 . S
C87 C85 1.321 . S
C87 C86 1.390 . S
C87 H89 0.930 1_545 S
H88 C86 0.931 . S
H89 C87 0.930 1_565 S
H90 C113 0.931 . S
H91 C79 0.929 . S
H92 C114 0.930 . S
H93 C85 0.931 1_565 S
H94 C75 0.930 . S
H95 C104 0.929 . S
H96 C80 0.931 . S
H97 C81 0.930 . S
H98 C136 0.930 . S
H99 C77 0.929 . S
H100 C105 0.931 . S
H101 C106 0.930 . S
N102 Gd82 2.622 . S
N102 C103 1.369 . S
N102 C104 1.338 . S
C103 N102 1.369 . S
C103 C107 1.415 . S
C103 C110 1.422 . S
C104 H95 0.929 . S
C104 N102 1.338 . S
C104 C106 1.378 . S
C105 H100 0.931 . S
C105 C106 1.348 . S
C105 C107 1.413 . S
C106 H101 0.930 . S
C106 C104 1.378 . S
C106 C105 1.348 . S
C107 C103 1.415 . S
C107 C105 1.413 . S
C107 C137 1.437 . S
H108 C137 0.929 . S
N109 Gd82 2.570 . S
N109 C110 1.359 . S
N109 C113 1.343 . S
C110 C103 1.422 . S
C110 N109 1.359 . S
C110 C112 1.421 . S
C111 C112 1.422 . S
C111 C114 1.321 . S
C111 H138 0.931 . S
C112 C110 1.421 . S
C112 C111 1.422 . S
C112 C136 1.417 . S
C113 H90 0.931 . S
C113 N109 1.343 . S
C113 C114 1.390 . S
C114 H92 0.930 . S
C114 C111 1.321 . S
C114 C113 1.390 . S
O115 Gd83 2.386 . S
O115 C127 1.265 . S
O116 Gd82 2.353 1_655 S
O116 C127 1.241 . S
O117 Gd82 2.468 . S
O117 C135 1.263 . S
O118 Gd82 2.427 . S
O118 C135 1.252 . S
O119 Gd83 2.307 1_455 S
O119 C128 1.261 . S
O120 Gd82 2.388 . S
O120 C128 1.252 . S
O121 Gd82 2.386 . S
O121 C139 1.265 . S
O122 Gd83 2.353 1_455 S
O122 C139 1.242 . S
O123 Gd83 2.468 . S
O123 C147 1.263 . S
O124 Gd83 2.427 . S
O124 C147 1.252 . S
O125 Gd82 2.307 1_655 S
O125 C140 1.261 . S
O126 Gd83 2.388 . S
O126 C140 1.252 . S
C127 O115 1.265 . S
C127 O116 1.241 . S
C128 O119 1.261 . S
C128 O120 1.252 . S
C129 C132 1.394 . S
C129 C134 1.370 . S
C129 C135 1.500 . S
C130 C133 1.383 . S
C130 C134 1.395 . S
C131 C132 1.396 . S
C131 C133 1.365 . S
C131 H148 0.929 . S
C132 C129 1.394 . S
C132 C131 1.396 . S
C132 H149 0.930 . S
C133 C130 1.383 . S
C133 C131 1.365 . S
C133 H150 0.931 . S
C134 C129 1.370 . S
C134 C130 1.395 . S
C134 H151 0.930 . S
C135 Gd82 2.805 . S
C135 O117 1.263 . S
C135 O118 1.252 . S
C135 C129 1.500 . S
C136 H98 0.930 . S
C136 C112 1.417 . S
C136 C137 1.329 . S
C137 C107 1.437 . S
C137 H108 0.929 . S
C137 C136 1.329 . S
H138 C111 0.931 . S
C139 O121 1.265 . S
C139 O122 1.242 . S
C140 O125 1.261 . S
C140 O126 1.252 . S
C141 C144 1.394 . S
C141 C146 1.370 . S
C141 C147 1.500 . S
C142 C145 1.383 . S
C142 C146 1.395 . S
C143 C144 1.396 . S
C143 C145 1.365 . S
C143 H152 0.929 . S
C144 C141 1.394 . S
C144 C143 1.396 . S
C144 H153 0.930 . S
C145 C142 1.383 . S
C145 C143 1.365 . S
C145 H154 0.931 . S
C146 C141 1.370 . S
C146 C142 1.395 . S
C146 H155 0.930 . S
C147 Gd83 2.805 . S
C147 O123 1.263 . S
C147 O124 1.252 . S
C147 C141 1.500 . S
H148 C131 0.929 . S
H149 C132 0.930 . S
H150 C133 0.931 . S
H151 C134 0.930 . S
H152 C143 0.929 . S
H153 C144 0.930 . S
H154 C145 0.931 . S
H155 C146 0.930 . S
C156 C158 1.422 . S
C156 C160 1.415 . S
C156 N162 1.369 . S
C157 C158 1.421 . S
C157 C159 1.417 . S
C157 C169 1.422 . S
C158 C156 1.422 . S
C158 C157 1.421 . S
C158 N168 1.359 . S
C159 C157 1.417 . S
C159 C161 1.329 . S
C159 H178 0.930 . S
C160 C156 1.415 . S
C160 C161 1.437 . S
C160 C164 1.413 . S
C161 C159 1.329 . S
C161 C160 1.437 . S
C161 H183 0.929 . S
N162 C156 1.369 . S
N162 C163 1.338 . S
N162 Gd167 2.622 . S
C163 N162 1.338 . S
C163 C165 1.378 . S
C163 H175 0.929 . S
C164 C160 1.413 . S
C164 C165 1.348 . S
C164 H180 0.931 . S
C165 C163 1.378 . S
C165 C164 1.348 . S
C165 H181 0.930 . S
Gd166 N186 2.622 . S
Gd166 N193 2.570 . S
Gd166 O200 2.353 . S
Gd166 O201 2.468 . S
Gd166 O202 2.427 . S
Gd166 O204 2.388 . S
Gd166 O205 2.386 . S
Gd166 O209 2.307 . S
Gd166 C219 2.805 . S
Gd167 N162 2.622 . S
Gd167 N168 2.570 . S
Gd167 O199 2.386 . S
Gd167 O203 2.307 . S
Gd167 O206 2.353 . S
Gd167 O207 2.468 . S
Gd167 O208 2.427 . S
Gd167 O210 2.388 . S
Gd167 C231 2.805 . S
N168 C158 1.359 . S
N168 Gd167 2.570 . S
N168 C170 1.343 . S
C169 C157 1.422 . S
C169 C171 1.321 . S
C169 H177 0.931 . S
C170 N168 1.343 . S
C170 C171 1.390 . S
C170 H172 0.931 . S
C171 C169 1.321 . S
C171 C170 1.390 . S
C171 H173 0.930 . S
H172 C170 0.931 . S
H173 C171 0.930 . S
H174 C197 0.931 . S
H175 C163 0.929 . S
H176 C198 0.930 . S
H177 C169 0.931 . S
H178 C159 0.930 . S
H179 C188 0.929 . S
H180 C164 0.931 . S
H181 C165 0.930 . S
H182 C220 0.930 . S
H183 C161 0.929 . S
H184 C189 0.931 . S
H185 C190 0.930 . S
N186 Gd166 2.622 . S
N186 C187 1.369 . S
N186 C188 1.338 . S
C187 N186 1.369 . S
C187 C191 1.415 . S
C187 C194 1.422 . S
C188 H179 0.929 . S
C188 N186 1.338 . S
C188 C190 1.378 . S
C189 H184 0.931 . S
C189 C190 1.348 . S
C189 C191 1.413 . S
C190 H185 0.930 . S
C190 C188 1.378 . S
C190 C189 1.348 . S
C191 C187 1.415 . S
C191 C189 1.413 . S
C191 C221 1.437 . S
H192 C221 0.929 . S
N193 Gd166 2.570 . S
N193 C194 1.359 . S
N193 C197 1.343 . S
C194 C187 1.422 . S
C194 N193 1.359 . S
C194 C196 1.421 . S
C195 C196 1.422 . S
C195 C198 1.321 . S
C195 H222 0.931 . S
C196 C194 1.421 . S
C196 C195 1.422 . S
C196 C220 1.417 . S
C197 H174 0.931 . S
C197 N193 1.343 . S
C197 C198 1.390 . S
C198 H176 0.930 . S
C198 C195 1.321 . S
C198 C197 1.390 . S
O199 Gd167 2.386 . S
O199 C211 1.265 . S
O200 Gd166 2.353 . S
O200 C211 1.242 . S
O201 Gd166 2.468 . S
O201 C219 1.263 . S
O202 Gd166 2.427 . S
O202 C219 1.252 . S
O203 Gd167 2.307 . S
O203 C212 1.261 . S
O204 Gd166 2.388 . S
O204 C212 1.252 . S
O205 Gd166 2.386 . S
O205 C223 1.265 . S
O206 Gd167 2.353 . S
O206 C223 1.242 . S
O207 Gd167 2.468 . S
O207 C231 1.263 . S
O208 Gd167 2.427 . S
O208 C231 1.252 . S
O209 Gd166 2.307 . S
O209 C224 1.261 . S
O210 Gd167 2.388 . S
O210 C224 1.252 . S
C211 O199 1.265 . S
C211 O200 1.242 . S
C212 O203 1.261 . S
C212 O204 1.252 . S
C213 C216 1.394 . S
C213 C218 1.370 . S
C213 C219 1.500 . S
C214 C217 1.383 . S
C214 C218 1.395 . S
C215 C216 1.396 . S
C215 C217 1.365 . S
C215 H232 0.929 . S
C216 C213 1.394 . S
C216 C215 1.396 . S
C216 H233 0.930 . S
C217 C214 1.383 . S
C217 C215 1.365 . S
C217 H234 0.931 . S
C218 C213 1.370 . S
C218 C214 1.395 . S
C218 H235 0.930 . S
C219 Gd166 2.805 . S
C219 O201 1.263 . S
C219 O202 1.252 . S
C219 C213 1.500 . S
C220 H182 0.930 . S
C220 C196 1.417 . S
C220 C221 1.329 . S
C221 C191 1.437 . S
C221 H192 0.929 . S
C221 C220 1.329 . S
H222 C195 0.931 . S
C223 O205 1.265 . S
C223 O206 1.242 . S
C224 O209 1.261 . S
C224 O210 1.252 . S
C225 C228 1.394 . S
C225 C230 1.370 . S
C225 C231 1.500 . S
C226 C229 1.383 . S
C226 C230 1.395 . S
C227 C228 1.396 . S
C227 C229 1.365 . S
C227 H236 0.929 . S
C228 C225 1.394 . S
C228 C227 1.396 . S
C228 H237 0.930 . S
C229 C226 1.383 . S
C229 C227 1.365 . S
C229 H238 0.931 . S
C230 C225 1.370 . S
C230 C226 1.395 . S
C230 H239 0.930 . S
C231 Gd167 2.805 . S
C231 O207 1.263 . S
C231 O208 1.252 . S
C231 C225 1.500 . S
H232 C215 0.929 . S
H233 C216 0.930 . S
H234 C217 0.931 . S
H235 C218 0.930 . S
H236 C227 0.929 . S
H237 C228 0.930 . S
H238 C229 0.931 . S
H239 C230 0.930 . S
C240 C242 1.422 . S
C240 C244 1.415 . S
C240 N246 1.369 . S
C241 C242 1.421 . S
C241 C243 1.417 . S
C241 C253 1.422 . S
C242 C240 1.422 . S
C242 C241 1.421 . S
C242 N252 1.359 . S
C243 C241 1.417 . S
C243 C245 1.329 . S
C243 H262 0.930 . S
C244 C240 1.415 . S
C244 C245 1.437 . S
C244 C248 1.413 . S
C245 C243 1.329 . S
C245 C244 1.437 . S
C245 H267 0.929 . S
N246 C240 1.369 . S
N246 C247 1.338 . S
N246 Gd251 2.622 . S
C247 N246 1.338 . S
C247 C249 1.378 . S
C247 H259 0.929 . S
C248 C244 1.413 . S
C248 C249 1.348 . S
C248 H264 0.931 . S
C249 C247 1.378 . S
C249 C248 1.348 . S
C249 H265 0.930 . S
Gd250 N270 2.622 . S
Gd250 N277 2.570 . S
Gd250 O284 2.353 . S
Gd250 O285 2.468 . S
Gd250 O286 2.427 . S
Gd250 O288 2.388 . S
Gd250 O289 2.386 . S
Gd250 O293 2.307 . S
Gd250 C303 2.805 . S
Gd251 N246 2.622 . S
Gd251 N252 2.570 . S
Gd251 O283 2.386 . S
Gd251 O287 2.307 1_655 S
Gd251 O290 2.353 1_655 S
Gd251 O291 2.468 . S
Gd251 O292 2.427 . S
Gd251 O294 2.388 . S
Gd251 C315 2.805 . S
N252 C242 1.359 . S
N252 Gd251 2.570 . S
N252 C254 1.343 . S
C253 C241 1.422 . S
C253 C255 1.321 . S
C253 H261 0.931 . S
C254 N252 1.343 . S
C254 C255 1.390 . S
C254 H256 0.931 . S
C255 C253 1.321 . S
C255 C254 1.390 . S
C255 H257 0.930 . S
H256 C254 0.931 . S
H257 C255 0.930 . S
H258 C281 0.931 . S
H259 C247 0.929 . S
H260 C282 0.930 1_545 S
H261 C253 0.931 . S
H262 C243 0.930 . S
H263 C272 0.929 . S
H264 C248 0.931 . S
H265 C249 0.930 . S
H266 C304 0.930 . S
H267 C245 0.929 . S
H268 C273 0.931 . S
H269 C274 0.930 . S
N270 Gd250 2.622 . S
N270 C271 1.369 . S
N270 C272 1.338 . S
C271 N270 1.369 . S
C271 C275 1.415 . S
C271 C278 1.422 . S
C272 H263 0.929 . S
C272 N270 1.338 . S
C272 C274 1.378 . S
C273 H268 0.931 . S
C273 C274 1.348 . S
C273 C275 1.413 . S
C274 H269 0.930 . S
C274 C272 1.378 . S
C274 C273 1.348 . S
C275 C271 1.415 . S
C275 C273 1.413 . S
C275 C305 1.437 . S
H276 C305 0.929 . S
N277 Gd250 2.570 . S
N277 C278 1.359 . S
N277 C281 1.343 . S
C278 C271 1.422 . S
C278 N277 1.359 . S
C278 C280 1.421 . S
C279 C280 1.422 . S
C279 C282 1.321 . S
C279 H306 0.931 1_565 S
C280 C278 1.421 . S
C280 C279 1.422 . S
C280 C304 1.417 . S
C281 H258 0.931 . S
C281 N277 1.343 . S
C281 C282 1.390 . S
C282 H260 0.930 1_565 S
C282 C279 1.321 . S
C282 C281 1.390 . S
O283 Gd251 2.386 . S
O283 C295 1.265 . S
O284 Gd250 2.353 . S
O284 C295 1.242 1_455 S
O285 Gd250 2.468 . S
O285 C303 1.263 . S
O286 Gd250 2.427 . S
O286 C303 1.252 . S
O287 Gd251 2.307 1_455 S
O287 C296 1.261 . S
O288 Gd250 2.388 . S
O288 C296 1.252 . S
O289 Gd250 2.386 . S
O289 C307 1.265 . S
O290 Gd251 2.353 1_455 S
O290 C307 1.242 . S
O291 Gd251 2.468 . S
O291 C315 1.263 . S
O292 Gd251 2.427 . S
O292 C315 1.252 . S
O293 Gd250 2.307 . S
O293 C308 1.261 1_455 S
O294 Gd251 2.388 . S
O294 C308 1.252 . S
C295 O283 1.265 . S
C295 O284 1.242 1_655 S
C296 O287 1.261 . S
C296 O288 1.252 . S
C297 C300 1.394 . S
C297 C302 1.370 . S
C297 C303 1.500 . S
C298 C301 1.383 . S
C298 C302 1.395 . S
C299 C300 1.396 . S
C299 C301 1.365 . S
C299 H316 0.929 . S
C300 C297 1.394 . S
C300 C299 1.396 . S
C300 H317 0.930 . S
C301 C298 1.383 . S
C301 C299 1.365 . S
C301 H318 0.931 . S
C302 C297 1.370 . S
C302 C298 1.395 . S
C302 H319 0.930 . S
C303 Gd250 2.805 . S
C303 O285 1.263 . S
C303 O286 1.252 . S
C303 C297 1.500 . S
C304 H266 0.930 . S
C304 C280 1.417 . S
C304 C305 1.329 . S
C305 C275 1.437 . S
C305 H276 0.929 . S
C305 C304 1.329 . S
H306 C279 0.931 1_545 S
C307 O289 1.265 . S
C307 O290 1.242 . S
C308 O293 1.261 1_655 S
C308 O294 1.252 . S
C309 C312 1.394 . S
C309 C314 1.370 . S
C309 C315 1.500 . S
C310 C313 1.383 . S
C310 C314 1.395 . S
C311 C312 1.396 . S
C311 C313 1.365 . S
C311 H320 0.929 . S
C312 C309 1.394 . S
C312 C311 1.396 . S
C312 H321 0.930 . S
C313 C310 1.383 . S
C313 C311 1.365 . S
C313 H322 0.931 . S
C314 C309 1.370 . S
C314 C310 1.395 . S
C314 H323 0.930 . S
C315 Gd251 2.805 . S
C315 O291 1.263 . S
C315 O292 1.252 . S
C315 C309 1.500 . S
H316 C299 0.929 . S
H317 C300 0.930 . S
H318 C301 0.931 . S
H319 C302 0.930 . S
H320 C311 0.929 . S
H321 C312 0.930 . S
H322 C313 0.931 . S
H323 C314 0.930 . S
C324 C326 1.422 . S
C324 C328 1.415 . S
C324 N330 1.369 . S
C325 C326 1.421 . S
C325 C327 1.417 . S
C325 C337 1.422 . S
C326 C324 1.422 . S
C326 C325 1.421 . S
C326 N336 1.359 . S
C327 C325 1.417 . S
C327 C329 1.329 . S
C327 H346 0.930 . S
C328 C324 1.415 . S
C328 C329 1.437 . S
C328 C332 1.413 . S
C329 C327 1.329 . S
C329 C328 1.437 . S
C329 H351 0.929 . S
N330 C324 1.369 . S
N330 C331 1.338 . S
N330 Gd335 2.622 . S
C331 N330 1.338 . S
C331 C333 1.378 . S
C331 H343 0.929 . S
C332 C328 1.413 . S
C332 C333 1.348 . S
C332 H348 0.931 . S
C333 C331 1.378 . S
C333 C332 1.348 . S
C333 H349 0.930 . S
Gd334 N354 2.622 . S
Gd334 N361 2.570 . S
Gd334 O368 2.353 . S
Gd334 O369 2.468 . S
Gd334 O370 2.427 . S
Gd334 O372 2.388 . S
Gd334 O373 2.386 . S
Gd334 O377 2.307 . S
Gd334 C387 2.805 . S
Gd335 N330 2.622 . S
Gd335 N336 2.570 . S
Gd335 O367 2.386 . S
Gd335 O371 2.307 . S
Gd335 O374 2.353 . S
Gd335 O375 2.468 . S
Gd335 O376 2.427 . S
Gd335 O378 2.388 . S
Gd335 C399 2.805 . S
N336 C326 1.359 . S
N336 Gd335 2.570 . S
N336 C338 1.343 . S
C337 C325 1.422 . S
C337 C339 1.321 . S
C337 H345 0.931 . S
C338 N336 1.343 . S
C338 C339 1.390 . S
C338 H340 0.931 . S
C339 C337 1.321 . S
C339 C338 1.390 . S
C339 H341 0.930 . S
H340 C338 0.931 . S
H341 C339 0.930 . S
H342 C365 0.931 . S
H343 C331 0.929 . S
H344 C366 0.930 . S
H345 C337 0.931 . S
H346 C327 0.930 . S
H347 C356 0.929 . S
H348 C332 0.931 . S
H349 C333 0.930 . S
H350 C388 0.930 . S
H351 C329 0.929 . S
H352 C357 0.931 . S
H353 C358 0.930 . S
N354 Gd334 2.622 . S
N354 C355 1.369 . S
N354 C356 1.338 . S
C355 N354 1.369 . S
C355 C359 1.415 . S
C355 C362 1.422 . S
C356 H347 0.929 . S
C356 N354 1.338 . S
C356 C358 1.378 . S
C357 H352 0.931 . S
C357 C358 1.348 . S
C357 C359 1.413 . S
C358 H353 0.930 . S
C358 C356 1.378 . S
C358 C357 1.348 . S
C359 C355 1.415 . S
C359 C357 1.413 . S
C359 C389 1.437 . S
H360 C389 0.929 . S
N361 Gd334 2.570 . S
N361 C362 1.359 . S
N361 C365 1.343 . S
C362 C355 1.422 . S
C362 N361 1.359 . S
C362 C364 1.421 . S
C363 C364 1.422 . S
C363 C366 1.321 . S
C363 H390 0.931 . S
C364 C362 1.421 . S
C364 C363 1.422 . S
C364 C388 1.417 . S
C365 H342 0.931 . S
C365 N361 1.343 . S
C365 C366 1.390 . S
C366 H344 0.930 . S
C366 C363 1.321 . S
C366 C365 1.390 . S
O367 Gd335 2.386 . S
O367 C379 1.265 . S
O368 Gd334 2.353 . S
O368 C379 1.242 . S
O369 Gd334 2.468 . S
O369 C387 1.263 . S
O370 Gd334 2.427 . S
O370 C387 1.252 . S
O371 Gd335 2.307 . S
O371 C380 1.261 . S
O372 Gd334 2.388 . S
O372 C380 1.252 . S
O373 Gd334 2.386 . S
O373 C391 1.265 . S
O374 Gd335 2.353 . S
O374 C391 1.242 . S
O375 Gd335 2.468 . S
O375 C399 1.263 . S
O376 Gd335 2.427 . S
O376 C399 1.252 . S
O377 Gd334 2.307 . S
O377 C392 1.261 . S
O378 Gd335 2.388 . S
O378 C392 1.252 . S
C379 O367 1.265 . S
C379 O368 1.242 . S
C380 O371 1.261 . S
C380 O372 1.252 . S
C381 C384 1.394 . S
C381 C386 1.370 . S
C381 C387 1.500 . S
C382 C385 1.383 . S
C382 C386 1.395 . S
C383 C384 1.396 . S
C383 C385 1.365 . S
C383 H400 0.929 . S
C384 C381 1.394 . S
C384 C383 1.396 . S
C384 H401 0.930 . S
C385 C382 1.383 . S
C385 C383 1.365 . S
C385 H402 0.931 . S
C386 C381 1.370 . S
C386 C382 1.395 . S
C386 H403 0.930 . S
C387 Gd334 2.805 . S
C387 O369 1.263 . S
C387 O370 1.252 . S
C387 C381 1.500 . S
C388 H350 0.930 . S
C388 C364 1.417 . S
C388 C389 1.329 . S
C389 C359 1.437 . S
C389 H360 0.929 . S
C389 C388 1.329 . S
H390 C363 0.931 . S
C391 O373 1.265 . S
C391 O374 1.242 . S
C392 O377 1.261 . S
C392 O378 1.252 . S
C393 C396 1.394 . S
C393 C398 1.370 . S
C393 C399 1.500 . S
C394 C397 1.383 . S
C394 C398 1.395 . S
C395 C396 1.396 . S
C395 C397 1.365 . S
C395 H404 0.929 . S
C396 C393 1.394 . S
C396 C395 1.396 . S
C396 H405 0.930 . S
C397 C394 1.383 . S
C397 C395 1.365 . S
C397 H406 0.931 . S
C398 C393 1.370 . S
C398 C394 1.395 . S
C398 H407 0.930 . S
C399 Gd335 2.805 . S
C399 O375 1.263 . S
C399 O376 1.252 . S
C399 C393 1.500 . S
H400 C383 0.929 . S
H401 C384 0.930 . S
H402 C385 0.931 . S
H403 C386 0.930 . S
H404 C395 0.929 . S
H405 C396 0.930 . S
H406 C397 0.931 . S
H407 C398 0.930 . S
H408 C414 0.930 . S
H409 C417 0.930 . S
H410 C418 0.930 . S
H411 C419 0.930 . S
H412 C422 0.930 . S
H413 C423 0.930 . S
C414 H408 0.930 . S
C414 C415 1.355 . S
C414 C416 1.415 . S
C415 C414 1.355 . S
C415 C417 1.419 . S
C416 C414 1.415 . S
C416 C421 1.425 1_565 S
C416 C423 1.409 1_565 S
C417 H409 0.930 . S
C417 C415 1.419 . S
C417 C418 1.362 . S
C418 H410 0.930 . S
C418 C417 1.362 . S
C418 C421 1.409 1_565 S
C419 H411 0.930 . S
C419 C420 1.355 . S
C419 C421 1.415 . S
C420 C419 1.355 . S
C420 C422 1.419 . S
C421 C416 1.425 1_545 S
C421 C418 1.409 1_545 S
C421 C419 1.415 . S
C422 H412 0.930 . S
C422 C420 1.419 . S
C422 C423 1.362 . S
C423 H413 0.930 . S
C423 C416 1.409 1_545 S
C423 C422 1.362 . S
H424 C430 0.930 . S
H425 C433 0.930 . S
H426 C434 0.930 . S
H427 C435 0.930 . S
H428 C438 0.930 . S
H429 C439 0.930 . S
C430 H424 0.930 . S
C430 C431 1.355 . S
C430 C432 1.415 . S
C431 C430 1.355 . S
C431 C433 1.419 . S
C432 C430 1.415 . S
C432 C437 1.425 . S
C432 C439 1.409 . S
C433 H425 0.930 . S
C433 C431 1.419 . S
C433 C434 1.362 . S
C434 H426 0.930 . S
C434 C433 1.362 . S
C434 C437 1.409 . S
C435 H427 0.930 . S
C435 C436 1.355 . S
C435 C437 1.415 . S
C436 C435 1.355 . S
C436 C438 1.419 . S
C437 C432 1.425 . S
C437 C434 1.409 . S
C437 C435 1.415 . S
C438 H428 0.930 . S
C438 C436 1.419 . S
C438 C439 1.362 . S
C439 H429 0.930 . S
C439 C432 1.409 . S
C439 C438 1.362 . S
H440 C446 0.930 . S
H441 C449 0.930 . S
H442 C450 0.930 . S
H443 C451 0.930 . S
H444 C454 0.930 . S
H445 C455 0.930 . S
C446 H440 0.930 . S
C446 C447 1.355 . S
C446 C448 1.415 . S
C447 C446 1.355 . S
C447 C449 1.419 . S
C448 C446 1.415 . S
C448 C453 1.425 . S
C448 C455 1.409 . S
C449 H441 0.930 . S
C449 C447 1.419 . S
C449 C450 1.362 . S
C450 H442 0.930 . S
C450 C449 1.362 . S
C450 C453 1.409 . S
C451 H443 0.930 . S
C451 C452 1.355 . S
C451 C453 1.415 . S
C452 C451 1.355 . S
C452 C454 1.419 . S
C453 C448 1.425 . S
C453 C450 1.409 . S
C453 C451 1.415 . S
C454 H444 0.930 . S
C454 C452 1.419 . S
C454 C455 1.362 . S
C455 H445 0.930 . S
C455 C448 1.409 . S
C455 C454 1.362 . S
H456 C462 0.930 . S
H457 C465 0.930 . S
H458 C466 0.930 . S
H459 C467 0.930 . S
H460 C470 0.930 . S
H461 C471 0.930 . S
C462 H456 0.930 . S
C462 C463 1.355 . S
C462 C464 1.415 1_565 S
C463 C462 1.355 . S
C463 C465 1.419 . S
C464 C462 1.415 1_545 S
C464 C469 1.425 1_545 S
C464 C471 1.409 . S
C465 H457 0.930 . S
C465 C463 1.419 . S
C465 C466 1.362 . S
C466 H458 0.930 . S
C466 C465 1.362 . S
C466 C469 1.409 . S
C467 H459 0.930 . S
C467 C468 1.355 . S
C467 C469 1.415 1_545 S
C468 C467 1.355 . S
C468 C470 1.419 . S
C469 C464 1.425 1_565 S
C469 C466 1.409 . S
C469 C467 1.415 1_565 S
C470 H460 0.930 . S
C470 C468 1.419 . S
C470 C471 1.362 . S
C471 H461 0.930 . S
C471 C464 1.409 . S
C471 C470 1.362 . S
H472 C478 0.930 . S
H473 C481 0.930 . S
H474 C482 0.930 . S
H475 C483 0.930 . S
H476 C486 0.928 1_455 S
H477 C487 0.930 . S
C478 H472 0.930 . S
C478 C479 1.355 . S
C478 C480 1.415 . S
C479 C478 1.355 . S
C479 C481 1.419 . S
C480 C478 1.415 . S
C480 C485 1.425 1_545 S
C480 C487 1.409 . S
C481 H473 0.930 . S
C481 C479 1.419 . S
C481 C482 1.362 1_545 S
C482 H474 0.930 . S
C482 C481 1.362 1_565 S
C482 C485 1.409 . S
C483 H475 0.930 . S
C483 C484 1.355 . S
C483 C485 1.415 . S
C484 C483 1.355 . S
C484 C486 1.419 . S
C485 C480 1.425 1_565 S
C485 C482 1.409 . S
C485 C483 1.415 . S
C486 H476 0.928 1_655 S
C486 C484 1.419 . S
C486 C487 1.362 1_565 S
C487 H477 0.930 . S
C487 C480 1.409 . S
C487 C486 1.362 1_545 S
H488 C494 0.930 . S
H489 C497 0.930 . S
H490 C498 0.930 . S
H491 C499 0.930 . S
H492 C502 0.930 . S
H493 C503 0.930 . S
C494 H488 0.930 . S
C494 C495 1.355 . S
C494 C496 1.415 . S
C495 C494 1.355 . S
C495 C497 1.419 . S
C496 C494 1.415 . S
C496 C501 1.425 . S
C496 C503 1.409 . S
C497 H489 0.930 . S
C497 C495 1.419 . S
C497 C498 1.362 . S
C498 H490 0.930 . S
C498 C497 1.362 . S
C498 C501 1.409 . S
C499 H491 0.930 . S
C499 C500 1.355 . S
C499 C501 1.415 . S
C500 C499 1.355 . S
C500 C502 1.419 . S
C501 C496 1.425 . S
C501 C498 1.409 . S
C501 C499 1.415 . S
C502 H492 0.930 . S
C502 C500 1.419 . S
C502 C503 1.362 . S
C503 H493 0.930 . S
C503 C496 1.409 . S
C503 C502 1.362 . S
H504 C510 0.930 . S
H505 C513 0.930 . S
H506 C514 0.930 . S
H507 C515 0.930 . S
H508 C518 0.930 . S
H509 C519 0.930 . S
C510 H504 0.930 . S
C510 C511 1.355 . S
C510 C512 1.415 . S
C511 C510 1.355 . S
C511 C513 1.419 . S
C512 C510 1.415 . S
C512 C517 1.425 . S
C512 C519 1.409 . S
C513 H505 0.930 . S
C513 C511 1.419 . S
C513 C514 1.362 . S
C514 H506 0.930 . S
C514 C513 1.362 . S
C514 C517 1.409 . S
C515 H507 0.930 . S
C515 C516 1.355 . S
C515 C517 1.415 . S
C516 C515 1.355 . S
C516 C518 1.419 . S
C517 C512 1.425 . S
C517 C514 1.409 . S
C517 C515 1.415 . S
C518 H508 0.930 . S
C518 C516 1.419 . S
C518 C519 1.362 . S
C519 H509 0.930 . S
C519 C512 1.409 . S
C519 C518 1.362 . S
H520 C526 0.930 . S
H521 C529 0.930 . S
H522 C530 0.930 . S
H523 C531 0.930 . S
H524 C534 0.930 . S
H525 C535 0.930 . S
C526 H520 0.930 . S
C526 C527 1.355 . S
C526 C528 1.415 1_545 S
C527 C526 1.355 . S
C527 C529 1.419 . S
C528 C526 1.415 1_565 S
C528 C533 1.425 1_565 S
C528 C535 1.409 . S
C529 H521 0.930 . S
C529 C527 1.419 . S
C529 C530 1.362 . S
C530 H522 0.930 . S
C530 C529 1.362 . S
C530 C533 1.409 . S
C531 H523 0.930 . S
C531 C532 1.355 . S
C531 C533 1.415 1_565 S
C532 C531 1.355 . S
C532 C534 1.419 . S
C533 C528 1.425 1_545 S
C533 C530 1.409 . S
C533 C531 1.415 1_545 S
C534 H524 0.930 . S
C534 C532 1.419 . S
C534 C535 1.362 . S
C535 H525 0.930 . S
C535 C528 1.409 . S
C535 C534 1.362 . S
H536 C542 0.930 . S
H537 C545 0.930 . S
H538 C546 0.930 . S
H539 C547 0.930 . S
H540 C550 0.930 . S
H541 C551 0.930 1_556 S
C542 H536 0.930 . S
C542 C543 1.355 . S
C542 C544 1.415 . S
C543 C542 1.355 . S
C543 C545 1.419 . S
C544 C542 1.415 . S
C544 C549 1.425 1_556 S
C544 C551 1.409 1_556 S
C545 H537 0.930 . S
C545 C543 1.419 . S
C545 C546 1.362 1_556 S
C546 H538 0.930 . S
C546 C545 1.362 1_554 S
C546 C549 1.409 . S
C547 H539 0.930 . S
C547 C548 1.355 . S
C547 C549 1.415 . S
C548 C547 1.355 . S
C548 C550 1.419 . S
C549 C544 1.425 1_554 S
C549 C546 1.409 . S
C549 C547 1.415 . S
C550 H540 0.930 . S
C550 C548 1.419 . S
C550 C551 1.362 . S
C551 H541 0.930 1_554 S
C551 C544 1.409 1_554 S
C551 C550 1.362 . S
H552 C558 0.930 . S
H553 C561 0.930 . S
H554 C562 0.930 . S
H555 C563 0.930 . S
H556 C566 0.930 . S
H557 C567 0.930 . S
C558 H552 0.930 . S
C558 C559 1.355 . S
C558 C560 1.415 . S
C559 C558 1.355 . S
C559 C561 1.419 . S
C560 C558 1.415 . S
C560 C565 1.425 . S
C560 C567 1.409 . S
C561 H553 0.930 . S
C561 C559 1.419 . S
C561 C562 1.362 . S
C562 H554 0.930 . S
C562 C561 1.362 . S
C562 C565 1.409 . S
C563 H555 0.930 . S
C563 C564 1.355 . S
C563 C565 1.415 . S
C564 C563 1.355 . S
C564 C566 1.419 . S
C565 C560 1.425 . S
C565 C562 1.409 . S
C565 C563 1.415 . S
C566 H556 0.930 . S
C566 C564 1.419 . S
C566 C567 1.362 . S
C567 H557 0.930 . S
C567 C560 1.409 . S
C567 C566 1.362 . S
H568 C574 0.930 . S
H569 C577 0.930 . S
H570 C578 0.930 . S
H571 C579 0.930 . S
H572 C582 0.930 . S
H573 C583 0.930 . S
C574 H568 0.930 . S
C574 C575 1.355 . S
C574 C576 1.415 . S
C575 C574 1.355 . S
C575 C577 1.419 . S
C576 C574 1.415 . S
C576 C581 1.425 1_554 S
C576 C583 1.409 1_554 S
C577 H569 0.930 . S
C577 C575 1.419 . S
C577 C578 1.362 . S
C578 H570 0.930 . S
C578 C577 1.362 . S
C578 C581 1.409 1_554 S
C579 H571 0.930 . S
C579 C580 1.355 . S
C579 C581 1.415 . S
C580 C579 1.355 . S
C580 C582 1.419 . S
C581 C576 1.425 1_556 S
C581 C578 1.409 1_556 S
C581 C579 1.415 . S
C582 H572 0.930 . S
C582 C580 1.419 . S
C582 C583 1.362 . S
C583 H573 0.930 . S
C583 C576 1.409 1_556 S
C583 C582 1.362 . S
H584 C590 0.930 . S
H585 C593 0.930 . S
H586 C594 0.930 . S
H587 C595 0.930 . S
H588 C598 0.930 . S
H589 C599 0.930 . S
C590 H584 0.930 . S
C590 C591 1.355 . S
C590 C592 1.415 . S
C591 C590 1.355 . S
C591 C593 1.419 . S
C592 C590 1.415 . S
C592 C597 1.425 . S
C592 C599 1.409 . S
C593 H585 0.930 . S
C593 C591 1.419 . S
C593 C594 1.362 . S
C594 H586 0.930 . S
C594 C593 1.362 . S
C594 C597 1.409 . S
C595 H587 0.930 . S
C595 C596 1.355 . S
C595 C597 1.415 . S
C596 C595 1.355 . S
C596 C598 1.419 . S
C597 C592 1.425 . S
C597 C594 1.409 . S
C597 C595 1.415 . S
C598 H588 0.930 . S
C598 C596 1.419 . S
C598 C599 1.362 . S
C599 H589 0.930 . S
C599 C592 1.409 . S
C599 C598 1.362 . S
H600 C606 0.930 . S
H601 C609 0.930 . S
H602 C610 0.930 . S
H603 C611 0.930 . S
H604 C614 0.930 . S
H605 C615 0.930 1_554 S
C606 H600 0.930 . S
C606 C607 1.355 . S
C606 C608 1.415 . S
C607 C606 1.355 . S
C607 C609 1.419 . S
C608 C606 1.415 . S
C608 C613 1.425 1_554 S
C608 C615 1.409 1_554 S
C609 H601 0.930 . S
C609 C607 1.419 . S
C609 C610 1.362 1_554 S
C610 H602 0.930 . S
C610 C609 1.362 1_556 S
C610 C613 1.409 . S
C611 H603 0.930 . S
C611 C612 1.355 . S
C611 C613 1.415 . S
C612 C611 1.355 . S
C612 C614 1.419 . S
C613 C608 1.425 1_556 S
C613 C610 1.409 . S
C613 C611 1.415 . S
C614 H604 0.930 . S
C614 C612 1.419 . S
C614 C615 1.362 . S
C615 H605 0.930 1_556 S
C615 C608 1.409 1_556 S
C615 C614 1.362 . S
H616 C622 0.930 . S
H617 C625 0.930 . S
H618 C626 0.930 . S
H619 C627 0.930 . S
H620 C630 0.930 . S
H621 C631 0.930 . S
C622 H616 0.930 . S
C622 C623 1.355 . S
C622 C624 1.415 . S
C623 C622 1.355 . S
C623 C625 1.419 . S
C624 C622 1.415 . S
C624 C629 1.425 . S
C624 C631 1.409 . S
C625 H617 0.930 . S
C625 C623 1.419 . S
C625 C626 1.362 . S
C626 H618 0.930 . S
C626 C625 1.362 . S
C626 C629 1.409 . S
C627 H619 0.930 . S
C627 C628 1.355 . S
C627 C629 1.415 . S
C628 C627 1.355 . S
C628 C630 1.419 . S
C629 C624 1.425 . S
C629 C626 1.409 . S
C629 C627 1.415 . S
C630 H620 0.930 . S
C630 C628 1.419 . S
C630 C631 1.362 . S
C631 H621 0.930 . S
C631 C624 1.409 . S
C631 C630 1.362 . S
H632 C638 0.930 . S
H633 C641 0.930 . S
H634 C642 0.930 . S
H635 C643 0.930 . S
H636 C646 0.930 . S
H637 C647 0.930 . S
C638 H632 0.930 . S
C638 C639 1.355 . S
C638 C640 1.415 1_556 S
C639 C638 1.355 . S
C639 C641 1.419 . S
C640 C638 1.415 1_554 S
C640 C645 1.425 . S
C640 C647 1.409 . S
C641 H633 0.930 . S
C641 C639 1.419 . S
C641 C642 1.362 . S
C642 H634 0.930 . S
C642 C641 1.362 . S
C642 C645 1.409 1_556 S
C643 H635 0.930 . S
C643 C644 1.355 . S
C643 C645 1.415 . S
C644 C643 1.355 . S
C644 C646 1.419 . S
C645 C640 1.425 . S
C645 C642 1.409 1_554 S
C645 C643 1.415 . S
C646 H636 0.930 . S
C646 C644 1.419 . S
C646 C647 1.362 . S
C647 H637 0.930 . S
C647 C640 1.409 . S
C647 C646 1.362 . S
H648 C654 0.930 . S
H649 C657 0.930 . S
H650 C658 0.930 . S
H651 C659 0.930 . S
H652 C662 0.930 . S
H653 C663 0.930 . S
C654 H648 0.930 . S
C654 C655 1.355 . S
C654 C656 1.415 . S
C655 C654 1.355 . S
C655 C657 1.419 . S
C656 C654 1.415 . S
C656 C661 1.425 . S
C656 C663 1.409 . S
C657 H649 0.930 . S
C657 C655 1.419 . S
C657 C658 1.362 . S
C658 H650 0.930 . S
C658 C657 1.362 . S
C658 C661 1.409 . S
C659 H651 0.930 . S
C659 C660 1.355 . S
C659 C661 1.415 . S
C660 C659 1.355 . S
C660 C662 1.419 . S
C661 C656 1.425 . S
C661 C658 1.409 . S
C661 C659 1.415 . S
C662 H652 0.930 . S
C662 C660 1.419 . S
C662 C663 1.362 . S
C663 H653 0.930 . S
C663 C656 1.409 . S
C663 C662 1.362 . S
H664 C670 0.930 . S
H665 C673 0.930 . S
H666 C674 0.930 . S
H667 C675 0.930 . S
H668 C678 0.930 . S
H669 C679 0.930 . S
C670 H664 0.930 . S
C670 C671 1.355 . S
C670 C672 1.415 . S
C671 C670 1.355 . S
C671 C673 1.419 . S
C672 C670 1.415 . S
C672 C677 1.425 . S
C672 C679 1.409 . S
C673 H665 0.930 . S
C673 C671 1.419 . S
C673 C674 1.362 . S
C674 H666 0.930 . S
C674 C673 1.362 . S
C674 C677 1.409 . S
C675 H667 0.930 . S
C675 C676 1.355 . S
C675 C677 1.415 . S
C676 C675 1.355 . S
C676 C678 1.419 . S
C677 C672 1.425 . S
C677 C674 1.409 . S
C677 C675 1.415 . S
C678 H668 0.930 . S
C678 C676 1.419 . S
C678 C679 1.362 . S
C679 H669 0.930 . S
C679 C672 1.409 . S
C679 C678 1.362 . S
H680 C686 0.930 . S
H681 C689 0.930 . S
H682 C690 0.930 . S
H683 C691 0.930 . S
H684 C694 0.930 . S
H685 C695 0.930 . S
C686 H680 0.930 . S
C686 C687 1.355 . S
C686 C688 1.415 . S
C687 C686 1.355 . S
C687 C689 1.419 . S
C688 C686 1.415 . S
C688 C693 1.425 . S
C688 C695 1.409 . S
C689 H681 0.930 . S
C689 C687 1.419 . S
C689 C690 1.362 . S
C690 H682 0.930 . S
C690 C689 1.362 . S
C690 C693 1.409 . S
C691 H683 0.930 . S
C691 C692 1.355 . S
C691 C693 1.415 . S
C692 C691 1.355 . S
C692 C694 1.419 . S
C693 C688 1.425 . S
C693 C690 1.409 . S
C693 C691 1.415 . S
C694 H684 0.930 . S
C694 C692 1.419 . S
C694 C695 1.362 . S
C695 H685 0.930 . S
C695 C688 1.409 . S
C695 C694 1.362 . S
H696 C702 0.930 . S
H697 C705 0.930 . S
H698 C706 0.930 . S
H699 C707 0.930 . S
H700 C710 0.930 . S
H701 C711 0.930 . S
C702 H696 0.930 . S
C702 C703 1.355 . S
C702 C704 1.415 . S
C703 C702 1.355 . S
C703 C705 1.419 . S
C704 C702 1.415 . S
C704 C709 1.425 . S
C704 C711 1.409 . S
C705 H697 0.930 . S
C705 C703 1.419 . S
C705 C706 1.362 . S
C706 H698 0.930 . S
C706 C705 1.362 . S
C706 C709 1.409 . S
C707 H699 0.930 . S
C707 C708 1.355 . S
C707 C709 1.415 . S
C708 C707 1.355 . S
C708 C710 1.419 . S
C709 C704 1.425 . S
C709 C706 1.409 . S
C709 C707 1.415 . S
C710 H700 0.930 . S
C710 C708 1.419 . S
C710 C711 1.362 . S
C711 H701 0.930 . S
C711 C704 1.409 . S
C711 C710 1.362 . S
H712 C718 0.930 . S
H713 C721 0.930 . S
H714 C722 0.930 . S
H715 C723 0.930 . S
H716 C726 0.930 . S
H717 C727 0.930 . S
C718 H712 0.930 . S
C718 C719 1.355 . S
C718 C720 1.415 . S
C719 C718 1.355 . S
C719 C721 1.419 . S
C720 C718 1.415 . S
C720 C725 1.425 . S
C720 C727 1.409 . S
C721 H713 0.930 . S
C721 C719 1.419 . S
C721 C722 1.362 . S
C722 H714 0.930 . S
C722 C721 1.362 . S
C722 C725 1.409 . S
C723 H715 0.930 . S
C723 C724 1.355 . S
C723 C725 1.415 . S
C724 C723 1.355 . S
C724 C726 1.419 . S
C725 C720 1.425 . S
C725 C722 1.409 . S
C725 C723 1.415 . S
C726 H716 0.930 . S
C726 C724 1.419 . S
C726 C727 1.362 . S
C727 H717 0.930 . S
C727 C720 1.409 . S
C727 C726 1.362 . S
H728 C734 0.930 . S
H729 C737 0.930 . S
H730 C738 0.930 . S
H731 C739 0.930 . S
H732 C742 0.930 . S
H733 C743 0.930 . S
C734 H728 0.930 . S
C734 C735 1.355 . S
C734 C736 1.415 . S
C735 C734 1.355 . S
C735 C737 1.419 . S
C736 C734 1.415 . S
C736 C741 1.425 . S
C736 C743 1.409 . S
C737 H729 0.930 . S
C737 C735 1.419 . S
C737 C738 1.362 . S
C738 H730 0.930 . S
C738 C737 1.362 . S
C738 C741 1.409 . S
C739 H731 0.930 . S
C739 C740 1.355 . S
C739 C741 1.415 . S
C740 C739 1.355 . S
C740 C742 1.419 . S
C741 C736 1.425 . S
C741 C738 1.409 . S
C741 C739 1.415 . S
C742 H732 0.930 . S
C742 C740 1.419 . S
C742 C743 1.362 . S
C743 H733 0.930 . S
C743 C736 1.409 . S
C743 C742 1.362 . S
H744 C750 0.930 . S
H745 C753 0.930 . S
H746 C754 0.930 . S
H747 C755 0.930 . S
H748 C758 0.930 . S
H749 C759 0.930 . S
C750 H744 0.930 . S
C750 C751 1.355 . S
C750 C752 1.415 . S
C751 C750 1.355 . S
C751 C753 1.419 . S
C752 C750 1.415 . S
C752 C757 1.425 . S
C752 C759 1.409 . S
C753 H745 0.930 . S
C753 C751 1.419 . S
C753 C754 1.362 . S
C754 H746 0.930 . S
C754 C753 1.362 . S
C754 C757 1.409 . S
C755 H747 0.930 . S
C755 C756 1.355 . S
C755 C757 1.415 . S
C756 C755 1.355 . S
C756 C758 1.419 . S
C757 C752 1.425 . S
C757 C754 1.409 . S
C757 C755 1.415 . S
C758 H748 0.930 . S
C758 C756 1.419 . S
C758 C759 1.362 . S
C759 H749 0.930 . S
C759 C752 1.409 . S
C759 C758 1.362 . S
H760 C766 0.930 . S
H761 C769 0.930 . S
H762 C770 0.930 . S
H763 C771 0.930 . S
H764 C774 0.930 . S
H765 C775 0.930 . S
C766 H760 0.930 . S
C766 C767 1.355 . S
C766 C768 1.415 . S
C767 C766 1.355 . S
C767 C769 1.419 . S
C768 C766 1.415 . S
C768 C773 1.425 . S
C768 C775 1.409 . S
C769 H761 0.930 . S
C769 C767 1.419 . S
C769 C770 1.362 . S
C770 H762 0.930 . S
C770 C769 1.362 . S
C770 C773 1.409 . S
C771 H763 0.930 . S
C771 C772 1.355 . S
C771 C773 1.415 . S
C772 C771 1.355 . S
C772 C774 1.419 . S
C773 C768 1.425 . S
C773 C770 1.409 . S
C773 C771 1.415 . S
C774 H764 0.930 . S
C774 C772 1.419 . S
C774 C775 1.362 . S
C775 H765 0.930 . S
C775 C768 1.409 . S
C775 C774 1.362 . S
H776 C782 0.930 . S
H777 C785 0.930 . S
H778 C786 0.930 . S
H779 C787 0.930 . S
H780 C790 0.930 1_655 S
H781 C791 0.930 . S
C782 H776 0.930 . S
C782 C783 1.355 . S
C782 C784 1.415 . S
C783 C782 1.355 . S
C783 C785 1.419 . S
C784 C782 1.415 . S
C784 C789 1.425 . S
C784 C791 1.409 . S
C785 H777 0.930 . S
C785 C783 1.419 . S
C785 C786 1.362 . S
C786 H778 0.930 . S
C786 C785 1.362 . S
C786 C789 1.409 . S
C787 H779 0.930 . S
C787 C788 1.355 . S
C787 C789 1.415 . S
C788 C787 1.355 . S
C788 C790 1.419 . S
C789 C784 1.425 . S
C789 C786 1.409 . S
C789 C787 1.415 . S
C790 H780 0.930 1_455 S
C790 C788 1.419 . S
C790 C791 1.362 . S
C791 H781 0.930 . S
C791 C784 1.409 . S
C791 C790 1.362 . S
C415 C58 1.471 . S
C420 C128 1.427 . S
C436 C212 1.440 . S
C431 C68 1.465 . S
C452 C211 1.451 . S
C447 C40 1.454 . S
C463 C50 1.448 . S
C468 C127 1.450 . S
C484 C308 1.431 . S
C479 C23 1.476 . S
C500 C392 1.458 . S
C495 C32 1.472 . S
C511 C5 1.465 . S
C516 C391 1.463 . S
C527 C14 1.453 . S
C532 C307 1.450 . S
C548 C130 1.364 . S
C543 C13 1.500 . S
C564 C214 1.298 . S
C559 C4 1.493 . S
C580 C226 1.364 . S
C575 C31 1.520 . S
C596 C142 1.430 . S
C591 C22 1.521 . S
C612 C310 1.385 . S
C607 C49 1.503 . S
C623 C41 1.495 . S
C628 C394 1.330 . S
C644 C382 1.430 . S
C639 C67 1.512 . S
C655 C59 1.517 . S
C660 C298 1.342 . S
C676 C139 1.520 . S
C671 C7 1.507 . S
C692 C223 1.519 . S
C687 C16 1.526 . S
C703 C25 1.511 . S
C708 C224 1.493 . S
C724 C140 1.518 . S
C719 C34 1.502 . S
C740 C295 1.528 . S
C735 C43 1.520 . S
C751 C52 1.509 . S
C756 C379 1.526 . S
C767 C61 1.522 . S
C772 C380 1.477 . S
C783 C70 1.501 . S
C788 C296 1.514 . S
