# Generated by pormake.
# Topology zzz, (3,6)-cn, num edge types: 1
# Building blocks:
#     Node 0, Type 0, BuildingBlock: VETTIZ_charged_linker_0, # of connection points: 3
#     Node 1, Type 0, BuildingBlock: VETTIZ_charged_linker_0, # of connection points: 3
#     Node 2, Type 0, BuildingBlock: VETTIZ_charged_linker_0, # of connection points: 3
#     Node 3, Type 0, BuildingBlock: VETTIZ_charged_linker_0, # of connection points: 3
#     Node 4, Type 0, BuildingBlock: VETTIZ_charged_linker_0, # of connection points: 3
#     Node 5, Type 0, BuildingBlock: VETTIZ_charged_linker_0, # of connection points: 3
#     Node 6, Type 0, BuildingBlock: VETTIZ_charged_linker_0, # of connection points: 3
#     Node 7, Type 0, BuildingBlock: VETTIZ_charged_linker_0, # of connection points: 3
#     Node 8, Type 1, BuildingBlock: FUNLAD_clean_sbu_0, # of connection points: 6
#     Node 9, Type 1, BuildingBlock: FUNLAD_clean_sbu_0, # of connection points: 6
#     Node 10, Type 1, BuildingBlock: FUNLAD_clean_sbu_0, # of connection points: 6
#     Node 11, Type 1, BuildingBlock: FUNLAD_clean_sbu_0, # of connection points: 6
#     Edge 12, Type (0, 1), BuildingBlock: TEMPAE_clean_linker_10, # of connection points: 2
#     Edge 13, Type (0, 1), BuildingBlock: TEMPAE_clean_linker_10, # of connection points: 2
#     Edge 14, Type (0, 1), BuildingBlock: TEMPAE_clean_linker_10, # of connection points: 2
#     Edge 15, Type (0, 1), BuildingBlock: TEMPAE_clean_linker_10, # of connection points: 2
#     Edge 16, Type (0, 1), BuildingBlock: TEMPAE_clean_linker_10, # of connection points: 2
#     Edge 17, Type (0, 1), BuildingBlock: TEMPAE_clean_linker_10, # of connection points: 2
#     Edge 18, Type (0, 1), BuildingBlock: TEMPAE_clean_linker_10, # of connection points: 2
#     Edge 19, Type (0, 1), BuildingBlock: TEMPAE_clean_linker_10, # of connection points: 2
#     Edge 20, Type (0, 1), BuildingBlock: TEMPAE_clean_linker_10, # of connection points: 2
#     Edge 21, Type (0, 1), BuildingBlock: TEMPAE_clean_linker_10, # of connection points: 2
#     Edge 22, Type (0, 1), BuildingBlock: TEMPAE_clean_linker_10, # of connection points: 2
#     Edge 23, Type (0, 1), BuildingBlock: TEMPAE_clean_linker_10, # of connection points: 2
#     Edge 24, Type (0, 1), BuildingBlock: TEMPAE_clean_linker_10, # of connection points: 2
#     Edge 25, Type (0, 1), BuildingBlock: TEMPAE_clean_linker_10, # of connection points: 2
#     Edge 26, Type (0, 1), BuildingBlock: TEMPAE_clean_linker_10, # of connection points: 2
#     Edge 27, Type (0, 1), BuildingBlock: TEMPAE_clean_linker_10, # of connection points: 2
#     Edge 28, Type (0, 1), BuildingBlock: TEMPAE_clean_linker_10, # of connection points: 2
#     Edge 29, Type (0, 1), BuildingBlock: TEMPAE_clean_linker_10, # of connection points: 2
#     Edge 30, Type (0, 1), BuildingBlock: TEMPAE_clean_linker_10, # of connection points: 2
#     Edge 31, Type (0, 1), BuildingBlock: TEMPAE_clean_linker_10, # of connection points: 2
#     Edge 32, Type (0, 1), BuildingBlock: TEMPAE_clean_linker_10, # of connection points: 2
#     Edge 33, Type (0, 1), BuildingBlock: TEMPAE_clean_linker_10, # of connection points: 2
#     Edge 34, Type (0, 1), BuildingBlock: TEMPAE_clean_linker_10, # of connection points: 2
#     Edge 35, Type (0, 1), BuildingBlock: TEMPAE_clean_linker_10, # of connection points: 2
# Relax obj value: 0.286
# Max RMSD: 0.230
# Mean RMSD: 0.195
data_MOF--net-zzz--node1-FUNLAD_clean_sbu_0--node2-VETTIZ_charged_linker_0--edge1-TEMPAE_clean_linker_10
_symmetry_space_group_name_H-M    P1
_symmetry_Int_Tables_number       1
_symmetry_cell_setting            triclinic
loop_
_symmetry_equiv_pos_as_xyz
'x, y, z'
_cell_length_a     57.538155
_cell_length_b     62.678673
_cell_length_c     22.683867
_cell_angle_alpha  86.923207
_cell_angle_beta   86.543709
_cell_angle_gamma 92.304672
loop_
_atom_site_label
_atom_site_type_symbol
_atom_site_fract_x
_atom_site_fract_y
_atom_site_fract_z
_atom_type_partial_charge
C0 C 0.82492 0.46834 0.36498 0.0
C1 C 0.84572 0.46138 0.38802 0.0
C2 C 0.8577 0.44506 0.36064 0.0
C3 C 0.82992 0.44429 0.28506 0.0
C4 C 0.81708 0.45919 0.31394 0.0
C5 C 0.79489 0.46357 0.2838 0.0
H6 H 0.73288 0.45368 0.03996 0.0
C7 C 0.81843 0.43906 0.23111 0.0
C8 C 0.79747 0.44979 0.23052 0.0
H9 H 0.7126 0.48582 0.1972 0.0
H10 H 0.74767 0.47451 0.24298 0.0
H11 H 0.78827 0.46791 0.03686 0.0
H12 H 0.74732 0.41192 0.10363 0.0
H13 H 0.77442 0.40275 0.07871 0.0
H14 H 0.7564 0.41599 0.02668 0.0
H15 H 0.77378 0.44988 0.99071 0.0
H16 H 0.80258 0.44533 0.01348 0.0
C17 C 0.79508 0.48766 0.26517 0.0
C18 C 0.77392 0.45573 0.32649 0.0
C19 C 0.86545 0.40518 0.06777 0.0
C20 C 0.86097 0.40155 0.00873 0.0
C21 C 0.83781 0.40226 0.99177 0.0
C22 C 0.82006 0.40889 0.03077 0.0
C23 C 0.82551 0.41497 0.08723 0.0
C24 C 0.84754 0.41188 0.10608 0.0
C25 C 0.85 0.41859 0.16816 0.0
C26 C 0.82625 0.42769 0.18171 0.0
C27 C 0.81219 0.42585 0.13374 0.0
C28 C 0.87001 0.43599 0.16664 0.0
C29 C 0.85393 0.39836 0.20827 0.0
C30 C 0.73608 0.45829 0.08422 0.0
C31 C 0.72036 0.47081 0.11495 0.0
C32 C 0.72471 0.47625 0.17284 0.0
C33 C 0.74499 0.46967 0.19915 0.0
C34 C 0.76084 0.45737 0.1673 0.0
C35 C 0.75594 0.45161 0.11121 0.0
C36 C 0.77415 0.43807 0.08405 0.0
C37 C 0.79077 0.43631 0.13326 0.0
C38 C 0.78324 0.44802 0.1816 0.0
C39 C 0.78532 0.45074 0.02813 0.0
C40 C 0.7626 0.41606 0.0721 0.0
H41 H 0.86007 0.42445 0.29015 0.0
H42 H 0.81515 0.48055 0.38605 0.0
H43 H 0.77838 0.44175 0.35533 0.0
H44 H 0.75884 0.44996 0.3029 0.0
H45 H 0.7684 0.46851 0.35572 0.0
H46 H 0.81211 0.49296 0.24208 0.0
H47 H 0.79241 0.49735 0.30443 0.0
H48 H 0.78165 0.49161 0.23419 0.0
H49 H 0.88295 0.40465 0.08261 0.0
H50 H 0.83369 0.3989 0.94715 0.0
H51 H 0.80304 0.41009 0.01433 0.0
H52 H 0.86811 0.44826 0.13014 0.0
H53 H 0.88725 0.42888 0.1593 0.0
H54 H 0.87042 0.44474 0.20736 0.0
H55 H 0.84915 0.38334 0.18701 0.0
H56 H 0.84281 0.39776 0.25008 0.0
H57 H 0.87247 0.39747 0.21895 0.0
H58 H 0.87371 0.43947 0.37769 0.0
C59 C 0.84988 0.43646 0.30958 0.0
C60 C 0.95643 0.81668 0.98004 0.0
C61 C 0.95511 0.83893 0.98372 0.0
C62 C 0.93892 0.84701 0.02504 0.0
C63 C 0.92922 0.81122 0.06553 0.0
C64 C 0.94283 0.80308 0.02073 0.0
C65 C 0.94094 0.77901 0.02306 0.0
H66 H 0.93436 0.68794 0.18316 0.0
C67 C 0.92103 0.79356 0.10756 0.0
C68 C 0.92624 0.77448 0.08146 0.0
H69 H 0.92182 0.6965 0.99714 0.0
H70 H 0.91534 0.73406 0.01002 0.0
H71 H 0.96447 0.73534 0.20309 0.0
H72 H 0.8899 0.72048 0.21601 0.0
H73 H 0.89912 0.73385 0.27785 0.0
H74 H 0.90901 0.70754 0.26521 0.0
H75 H 0.95138 0.71583 0.25744 0.0
H76 H 0.95081 0.74396 0.26912 0.0
C77 C 0.96539 0.76988 0.02604 0.0
C78 C 0.92881 0.77206 0.96768 0.0
C79 C 0.91058 0.8135 0.31944 0.0
C80 C 0.91396 0.8029 0.37395 0.0
C81 C 0.9181 0.78082 0.37543 0.0
C82 C 0.9189 0.76966 0.32288 0.0
C83 C 0.91619 0.78086 0.26832 0.0
C84 C 0.91243 0.80252 0.2677 0.0
C85 C 0.91277 0.81288 0.20663 0.0
C86 C 0.91674 0.79372 0.16982 0.0
C87 C 0.91829 0.77482 0.20581 0.0
C88 C 0.9332 0.83016 0.19885 0.0
C89 C 0.88853 0.82191 0.19762 0.0
C90 C 0.93147 0.69812 0.14444 0.0
C91 C 0.92977 0.68945 0.08845 0.0
C92 C 0.92424 0.70289 0.0399 0.0
C93 C 0.92182 0.7247 0.04581 0.0
C94 C 0.92612 0.73335 0.09955 0.0
C95 C 0.92877 0.72025 0.14919 0.0
C96 C 0.92628 0.73269 0.2047 0.0
C97 C 0.92209 0.75515 0.17857 0.0
C98 C 0.92386 0.75517 0.1167 0.0
C99 C 0.94939 0.73191 0.23573 0.0
C100 C 0.90502 0.72316 0.24347 0.0
H101 H 0.91351 0.83995 0.09591 0.0
H102 H 0.96791 0.81014 0.94666 0.0
H103 H 0.93249 0.78374 0.92929 0.0
H104 H 0.90958 0.77057 0.97633 0.0
H105 H 0.93541 0.75683 0.95213 0.0
H106 H 0.97422 0.77571 0.06476 0.0
H107 H 0.97645 0.77469 0.9853 0.0
H108 H 0.96423 0.75215 0.03014 0.0
H109 H 0.90826 0.83059 0.31629 0.0
H110 H 0.92106 0.77233 0.41697 0.0
H111 H 0.92227 0.75295 0.32638 0.0
H112 H 0.94169 0.83297 0.24064 0.0
H113 H 0.92718 0.84599 0.18354 0.0
H114 H 0.94747 0.82543 0.16776 0.0
H115 H 0.8744 0.81038 0.21621 0.0
H116 H 0.88529 0.82472 0.15035 0.0
H117 H 0.88658 0.83712 0.22008 0.0
H118 H 0.93715 0.86409 0.02759 0.0
C119 C 0.92572 0.83318 0.06551 0.0
C120 C 0.80806 0.00537 0.08629 0.0
C121 C 0.8191 0.01253 0.03061 0.0
C122 C 0.80617 0.0243 0.99047 0.0
C123 C 0.77276 0.02303 0.06072 0.0
C124 C 0.78477 0.01097 0.10058 0.0
C125 C 0.76969 0.00552 0.15742 0.0
H126 H 0.66393 0.01839 0.30978 0.0
C127 C 0.74955 0.02714 0.08797 0.0
C128 C 0.74736 0.01718 0.14539 0.0
H129 H 0.71855 0.97931 0.37038 0.0
H130 H 0.74298 0.99013 0.28036 0.0
H131 H 0.69659 0.05839 0.25945 0.0
H132 H 0.6653 0.0034 0.18673 0.0
H133 H 0.66442 0.0236 0.13087 0.0
H134 H 0.6493 0.02666 0.20168 0.0
H135 H 0.66627 0.05614 0.24545 0.0
H136 H 0.68781 0.06755 0.19015 0.0
C137 C 0.78199 0.01451 0.20985 0.0
C138 C 0.76519 0.98107 0.16372 0.0
C139 C 0.69197 0.06628 0.96434 0.0
C140 C 0.66866 0.07149 0.9767 0.0
C141 C 0.65946 0.06971 0.0359 0.0
C142 C 0.67245 0.06121 0.08093 0.0
C143 C 0.69486 0.05413 0.06691 0.0
C144 C 0.70466 0.05756 0.01003 0.0
C145 C 0.72879 0.04922 0.00386 0.0
C146 C 0.7312 0.03909 0.06569 0.0
C147 C 0.71117 0.04183 0.10185 0.0
C148 C 0.7462 0.06865 0.9893 0.0
C149 C 0.72889 0.03223 0.95653 0.0
C150 C 0.68122 0.01225 0.30398 0.0
C151 C 0.68933 0.99807 0.34679 0.0
C152 C 0.71193 0.9903 0.33762 0.0
C153 C 0.72598 0.99651 0.28538 0.0
C154 C 0.71723 0.01051 0.24198 0.0
C155 C 0.69514 0.01809 0.25264 0.0
C156 C 0.68758 0.03202 0.20264 0.0
C157 C 0.70853 0.03172 0.15931 0.0
C158 C 0.72627 0.01926 0.18169 0.0
C159 C 0.68416 0.0547 0.22524 0.0
C160 C 0.66545 0.0211 0.17918 0.0
H161 H 0.77488 0.03866 0.97208 0.0
H162 H 0.81742 0.99611 0.11802 0.0
H163 H 0.75962 0.97494 0.12142 0.0
H164 H 0.75116 0.97619 0.19756 0.0
H165 H 0.78127 0.97297 0.17526 0.0
H166 H 0.78746 0.03161 0.19994 0.0
H167 H 0.79778 0.00553 0.21879 0.0
H168 H 0.77051 0.01379 0.25071 0.0
H169 H 0.69973 0.0678 0.91954 0.0
H170 H 0.64155 0.07336 0.0471 0.0
H171 H 0.66395 0.05943 0.12436 0.0
H172 H 0.73889 0.08382 0.00379 0.0
H173 H 0.75076 0.07085 0.94102 0.0
H174 H 0.7624 0.06723 0.01297 0.0
H175 H 0.7123 0.02236 0.96041 0.0
H176 H 0.74267 0.02062 0.96137 0.0
H177 H 0.73077 0.03992 0.91113 0.0
H178 H 0.81378 0.02951 0.94694 0.0
C179 C 0.78337 0.02961 0.00514 0.0
C180 C 0.55806 0.67448 0.33368 0.0
C181 C 0.56422 0.65273 0.33389 0.0
C182 C 0.57252 0.64464 0.27989 0.0
C183 C 0.55949 0.67555 0.22704 0.0
C184 C 0.55664 0.68591 0.27865 0.0
C185 C 0.553 0.70952 0.26479 0.0
H186 H 0.52348 0.78351 0.05084 0.0
C187 C 0.55236 0.68919 0.17827 0.0
C188 C 0.54975 0.70982 0.19808 0.0
H189 H 0.54688 0.79763 0.22247 0.0
H190 H 0.5504 0.75939 0.24625 0.0
H191 H 0.55979 0.74871 0.01812 0.0
H192 H 0.48996 0.74736 0.09374 0.0
H193 H 0.49191 0.72219 0.06408 0.0
H194 H 0.49573 0.74605 0.01573 0.0
H195 H 0.5346 0.75589 0.97963 0.0
H196 H 0.54366 0.72871 0.98428 0.0
C197 C 0.57545 0.72213 0.2786 0.0
C198 C 0.53111 0.7164 0.30007 0.0
C199 C 0.50949 0.65147 0.02305 0.0
C200 C 0.49754 0.65895 0.97456 0.0
C201 C 0.49848 0.68091 0.95816 0.0
C202 C 0.51039 0.69543 0.99181 0.0
C203 C 0.52156 0.68777 0.0418 0.0
C204 C 0.52161 0.66606 0.05558 0.0
C205 C 0.53557 0.66066 0.10788 0.0
C206 C 0.54258 0.68308 0.12563 0.0
C207 C 0.53375 0.69869 0.08782 0.0
C208 C 0.55666 0.64764 0.08718 0.0
C209 C 0.51945 0.64825 0.15616 0.0
C210 C 0.52928 0.77854 0.09382 0.0
C211 C 0.53476 0.7936 0.13485 0.0
C212 C 0.54267 0.7863 0.18989 0.0
C213 C 0.54494 0.76422 0.20335 0.0
C214 C 0.53969 0.74946 0.16087 0.0
C215 C 0.53182 0.75689 0.10744 0.0
C216 C 0.52641 0.73942 0.06737 0.0
C217 C 0.53402 0.72027 0.10331 0.0
C218 C 0.54164 0.72596 0.15851 0.0
C219 C 0.54176 0.74334 0.00895 0.0
C220 C 0.49973 0.73866 0.05936 0.0
H221 H 0.57671 0.64963 0.18612 0.0
H222 H 0.55352 0.68198 0.37441 0.0
H223 H 0.51582 0.70576 0.29209 0.0
H224 H 0.52674 0.73294 0.2872 0.0
H225 H 0.53367 0.7155 0.34828 0.0
H226 H 0.5912 0.71349 0.2646 0.0
H227 H 0.5759 0.72432 0.32682 0.0
H228 H 0.57748 0.73789 0.2545 0.0
H229 H 0.50969 0.63448 0.03468 0.0
H230 H 0.48981 0.6868 0.91982 0.0
H231 H 0.51037 0.71205 0.97784 0.0
H232 H 0.55479 0.64131 0.04277 0.0
H233 H 0.55863 0.63336 0.11727 0.0
H234 H 0.57315 0.65761 0.08408 0.0
H235 H 0.50446 0.65794 0.16963 0.0
H236 H 0.5287 0.64397 0.1961 0.0
H237 H 0.51252 0.63301 0.1398 0.0
H238 H 0.57984 0.62901 0.27874 0.0
C239 C 0.57018 0.65605 0.22639 0.0
C240 C 0.27883 0.5415 0.27663 0.0
C241 C 0.2853 0.54657 0.33354 0.0
C242 C 0.2701 0.55853 0.36859 0.0
C243 C 0.24352 0.56116 0.29027 0.0
C244 C 0.25784 0.54892 0.25602 0.0
C245 C 0.24759 0.54458 0.19778 0.0
H246 H 0.15967 0.56066 0.01487 0.0
C247 C 0.22351 0.56701 0.25616 0.0
C248 C 0.2258 0.55761 0.20145 0.0
H249 H 0.21414 0.51571 0.99687 0.0
H250 H 0.23162 0.52895 0.08385 0.0
H251 H 0.14963 0.54839 0.14873 0.0
H252 H 0.18982 0.60114 0.05896 0.0
H253 H 0.17585 0.61121 0.12201 0.0
H254 H 0.15857 0.60052 0.06557 0.0
H255 H 0.1368 0.56962 0.10741 0.0
H256 H 0.14225 0.5716 0.18393 0.0
C257 C 0.24157 0.52026 0.1971 0.0
C258 C 0.26498 0.55323 0.14673 0.0
C259 C 0.15706 0.60548 0.35339 0.0
C260 C 0.13571 0.61221 0.33304 0.0
C261 C 0.13324 0.61395 0.27143 0.0
C262 C 0.15029 0.60643 0.23188 0.0
C263 C 0.16999 0.59707 0.25412 0.0
C264 C 0.1739 0.59811 0.3133 0.0
C265 C 0.19646 0.58849 0.32851 0.0
C266 C 0.20437 0.57986 0.26967 0.0
C267 C 0.18853 0.5845 0.2267 0.0
C268 C 0.19106 0.57025 0.37699 0.0
C269 C 0.21318 0.60675 0.34652 0.0
C270 C 0.17573 0.55408 0.02878 0.0
C271 C 0.18583 0.53745 0.99881 0.0
C272 C 0.20621 0.52866 0.01932 0.0
C273 C 0.21615 0.53623 0.06991 0.0
C274 C 0.20511 0.55224 0.10113 0.0
C275 C 0.18526 0.56088 0.08011 0.0
C276 C 0.17406 0.57573 0.12194 0.0
C277 C 0.19049 0.57478 0.17165 0.0
C278 C 0.20885 0.56119 0.15918 0.0
C279 C 0.14935 0.56608 0.14159 0.0
C280 C 0.17436 0.59835 0.09073 0.0
H281 H 0.23888 0.57498 0.37627 0.0
H282 H 0.28988 0.5322 0.24853 0.0
H283 H 0.27119 0.56984 0.15434 0.0
H284 H 0.25712 0.55392 0.10351 0.0
H285 H 0.28043 0.54318 0.14343 0.0
H286 H 0.23821 0.51287 0.24269 0.0
H287 H 0.25605 0.51175 0.17543 0.0
H288 H 0.22535 0.51677 0.17498 0.0
H289 H 0.1599 0.60405 0.40012 0.0
H290 H 0.11747 0.61987 0.254 0.0
H291 H 0.14684 0.60703 0.18587 0.0
H292 H 0.17494 0.56087 0.36809 0.0
H293 H 0.18836 0.57674 0.42138 0.0
H294 H 0.20478 0.55848 0.37888 0.0
H295 H 0.21271 0.60772 0.39532 0.0
H296 H 0.2085 0.62262 0.3275 0.0
H297 H 0.2314 0.60497 0.32944 0.0
H298 H 0.27393 0.56203 0.4133 0.0
C299 C 0.24952 0.56599 0.34715 0.0
C300 C 0.06258 0.17633 0.43864 0.0
C301 C 0.06314 0.15421 0.43202 0.0
C302 C 0.07687 0.14652 0.38497 0.0
C303 C 0.08532 0.18276 0.3456 0.0
C304 C 0.07402 0.19033 0.39509 0.0
C305 C 0.0748 0.21437 0.39339 0.0
H306 H 0.07866 0.30735 0.23044 0.0
C307 C 0.09103 0.20104 0.30299 0.0
C308 C 0.08525 0.21968 0.33057 0.0
H309 H 0.07398 0.29644 0.42095 0.0
H310 H 0.08085 0.25939 0.41112 0.0
H311 H 0.12452 0.2737 0.20762 0.0
H312 H 0.04979 0.26253 0.20157 0.0
H313 H 0.0649 0.25185 0.14079 0.0
H314 H 0.06601 0.28035 0.14796 0.0
H315 H 0.10775 0.28862 0.15658 0.0
H316 H 0.11682 0.26228 0.14121 0.0
C317 C 0.09117 0.22172 0.4412 0.0
C318 C 0.04958 0.2219 0.40223 0.0
C319 C 0.10689 0.18368 0.09102 0.0
C320 C 0.10421 0.19465 0.03668 0.0
C321 C 0.09992 0.21669 0.03596 0.0
C322 C 0.09808 0.22741 0.08926 0.0
C323 C 0.09971 0.21575 0.14368 0.0
C324 C 0.10395 0.19419 0.14328 0.0
C325 C 0.10182 0.18314 0.2035 0.0
C326 C 0.09629 0.20168 0.24113 0.0
C327 C 0.09546 0.22098 0.20658 0.0
C328 C 0.1258 0.17423 0.2167 0.0
C329 C 0.08146 0.16584 0.20543 0.0
C330 C 0.07914 0.29685 0.2698 0.0
C331 C 0.07494 0.30467 0.32662 0.0
C332 C 0.07629 0.29069 0.37684 0.0
C333 C 0.08031 0.26916 0.37127 0.0
C334 C 0.08278 0.26121 0.31498 0.0
C335 C 0.0832 0.2749 0.2651 0.0
C336 C 0.08771 0.26297 0.20941 0.0
C337 C 0.09046 0.24021 0.23505 0.0
C338 C 0.0865 0.23945 0.29692 0.0
C339 C 0.11037 0.27237 0.17651 0.0
C340 C 0.06609 0.26453 0.17247 0.0
H341 H 0.09782 0.15399 0.3062 0.0
H342 H 0.05281 0.18248 0.47587 0.0
H343 H 0.03812 0.21419 0.37101 0.0
H344 H 0.04833 0.23931 0.39447 0.0
H345 H 0.04227 0.21767 0.448 0.0
H346 H 0.10045 0.20828 0.46181 0.0
H347 H 0.08131 0.22917 0.47778 0.0
H348 H 0.10515 0.23325 0.42214 0.0
H349 H 0.10919 0.16657 0.09351 0.0
H350 H 0.09752 0.22546 0.99447 0.0
H351 H 0.09468 0.24414 0.08634 0.0
H352 H 0.14019 0.18592 0.20088 0.0
H353 H 0.12864 0.15917 0.19412 0.0
H354 H 0.12784 0.1713 0.26458 0.0
H355 H 0.06845 0.16748 0.24273 0.0
H356 H 0.088 0.1494 0.20799 0.0
H357 H 0.07106 0.16702 0.16568 0.0
H358 H 0.07784 0.12949 0.3797 0.0
C359 C 0.08814 0.16073 0.34191 0.0
C360 C 0.31362 0.99821 0.10346 0.0
C361 C 0.33628 0.9928 0.0828 0.0
C362 C 0.34862 0.9785 0.1174 0.0
C363 C 0.31717 0.97594 0.19352 0.0
C364 C 0.30428 0.98936 0.15932 0.0
C365 C 0.2805 0.99254 0.1903 0.0
H366 H 0.20915 0.97196 0.44426 0.0
C367 C 0.30379 0.97012 0.24999 0.0
C368 C 0.28197 0.97951 0.24913 0.0
H369 H 0.19085 0.00729 0.2863 0.0
H370 H 0.22948 0.00197 0.23988 0.0
H371 H 0.23301 0.9342 0.37962 0.0
H372 H 0.25865 0.99263 0.44785 0.0
H373 H 0.27975 0.97396 0.46199 0.0
H374 H 0.25054 0.96935 0.49512 0.0
H375 H 0.23371 0.93823 0.45724 0.0
H376 H 0.25824 0.92809 0.4159 0.0
C377 C 0.26158 0.9831 0.1527 0.0
C378 C 0.27805 0.01654 0.19957 0.0
C379 C 0.34551 0.93138 0.41139 0.0
C380 C 0.33971 0.92647 0.47177 0.0
C381 C 0.31658 0.92883 0.49392 0.0
C382 C 0.29998 0.93724 0.45727 0.0
C383 C 0.30661 0.94356 0.39791 0.0
C384 C 0.32888 0.94002 0.37572 0.0
C385 C 0.33335 0.94848 0.31277 0.0
C386 C 0.31026 0.95833 0.30112 0.0
C387 C 0.2947 0.95539 0.35088 0.0
C388 C 0.33785 0.92912 0.27424 0.0
C389 C 0.35375 0.9656 0.31079 0.0
C390 C 0.21308 0.97832 0.39925 0.0
C391 C 0.19655 0.9897 0.36889 0.0
C392 C 0.20313 0.99836 0.31099 0.0
C393 C 0.22551 0.99513 0.2839 0.0
C394 C 0.24158 0.98318 0.31497 0.0
C395 C 0.23499 0.97515 0.37187 0.0
C396 C 0.25367 0.96304 0.39995 0.0
C397 C 0.27252 0.9644 0.35046 0.0
C398 C 0.26583 0.97639 0.30015 0.0
C399 C 0.24429 0.93968 0.4145 0.0
C400 C 0.26105 0.97514 0.45431 0.0
H401 H 0.34995 0.95952 0.19595 0.0
H402 H 0.30365 0.00901 0.07721 0.0
H403 H 0.29367 0.0232 0.22001 0.0
H404 H 0.26285 0.01958 0.22942 0.0
H405 H 0.27636 0.02559 0.15668 0.0
H406 H 0.26613 0.96689 0.13935 0.0
H407 H 0.2599 0.99337 0.11184 0.0
H408 H 0.2444 0.98118 0.17706 0.0
H409 H 0.36321 0.93018 0.39305 0.0
H410 H 0.31161 0.92502 0.54021 0.0
H411 H 0.28288 0.93923 0.47725 0.0
H412 H 0.32926 0.91409 0.2949 0.0
H413 H 0.35676 0.92639 0.26788 0.0
H414 H 0.33037 0.93097 0.23048 0.0
H415 H 0.35332 0.97451 0.35196 0.0
H416 H 0.35297 0.97814 0.27503 0.0
H417 H 0.3709 0.95812 0.30642 0.0
H418 H 0.3659 0.97405 0.10222 0.0
C419 C 0.33925 0.97005 0.17205 0.0
C420 C 0.46647 0.31632 0.05622 0.0
C421 C 0.46741 0.33861 0.04289 0.0
C422 C 0.47707 0.35237 0.08264 0.0
C423 C 0.48502 0.32225 0.14784 0.0
C424 C 0.47515 0.30848 0.1098 0.0
C425 C 0.47523 0.28546 0.13402 0.0
H426 H 0.50193 0.21686 0.36222 0.0
C427 C 0.49285 0.30962 0.19882 0.0
C428 C 0.48701 0.28796 0.19205 0.0
H429 H 0.4704 0.1997 0.20217 0.0
H430 H 0.47198 0.23718 0.16735 0.0
H431 H 0.54079 0.24803 0.29751 0.0
H432 H 0.47399 0.25817 0.38466 0.0
H433 H 0.49331 0.27843 0.40543 0.0
H434 H 0.49881 0.25085 0.42428 0.0
H435 H 0.53599 0.24618 0.37654 0.0
H436 H 0.54424 0.27126 0.33647 0.0
C437 C 0.48995 0.27269 0.09021 0.0
C438 C 0.4497 0.27687 0.14457 0.0
C439 C 0.53384 0.34865 0.35527 0.0
C440 C 0.5419 0.34214 0.41025 0.0
C441 C 0.54033 0.32027 0.4286 0.0
C442 C 0.53061 0.30515 0.39264 0.0
C443 C 0.52211 0.31205 0.33818 0.0
C444 C 0.52391 0.33348 0.3205 0.0
C445 C 0.51289 0.33827 0.26334 0.0
C446 C 0.50458 0.31604 0.24855 0.0
C447 C 0.50997 0.3008 0.29233 0.0
C448 C 0.53225 0.34792 0.21794 0.0
C449 C 0.49225 0.35301 0.27586 0.0
C450 C 0.49561 0.22094 0.31921 0.0
C451 C 0.48632 0.20514 0.28472 0.0
C452 C 0.47762 0.21152 0.22983 0.0
C453 C 0.47863 0.23327 0.20961 0.0
C454 C 0.48838 0.24877 0.2447 0.0
C455 C 0.49673 0.24229 0.29839 0.0
C456 C 0.50716 0.26036 0.32992 0.0
C457 C 0.50363 0.27897 0.28689 0.0
C458 C 0.49241 0.27237 0.2369 0.0
C459 C 0.53337 0.25634 0.33603 0.0
C460 C 0.4928 0.26209 0.38944 0.0
H461 H 0.49323 0.35587 0.16215 0.0
H462 H 0.45914 0.30543 0.02608 0.0
H463 H 0.43887 0.28888 0.16626 0.0
H464 H 0.44783 0.26232 0.17425 0.0
H465 H 0.4421 0.2734 0.10205 0.0
H466 H 0.50625 0.28198 0.07456 0.0
H467 H 0.48014 0.2692 0.05087 0.0
H468 H 0.49557 0.25751 0.11042 0.0
H469 H 0.5341 0.36543 0.34083 0.0
H470 H 0.54626 0.31497 0.47116 0.0
H471 H 0.52966 0.28876 0.40922 0.0
H472 H 0.54898 0.33996 0.22376 0.0
H473 H 0.53545 0.36526 0.22355 0.0
H474 H 0.52843 0.34557 0.17156 0.0
H475 H 0.48552 0.35133 0.32299 0.0
H476 H 0.4769 0.34889 0.25083 0.0
H477 H 0.49755 0.37011 0.26585 0.0
H478 H 0.47822 0.36952 0.07271 0.0
C479 C 0.48589 0.34437 0.13462 0.0
C480 C 0.02743 0.96283 0.77193 0.0
N481 N 0.98352 0.96512 0.63303 0.0
C482 C 0.99743 0.9507 0.60725 0.0
C483 C 0.98776 0.93283 0.58214 0.0
C484 C 0.96352 0.92936 0.58482 0.0
C485 C 0.94943 0.94452 0.61072 0.0
C486 C 0.95986 0.96253 0.63418 0.0
Zn487 Zn 0.99965 0.98782 0.68141 0.0
C488 C 0.97073 0.99465 0.795 0.0
N489 N 0.03564 0.02928 0.79321 0.0
C490 C 0.05929 0.03228 0.79044 0.0
C491 C 0.02171 0.04363 0.81925 0.0
C492 C 0.03133 0.0619 0.84258 0.0
C493 C 0.05552 0.06584 0.83781 0.0
C494 C 0.06964 0.05068 0.81203 0.0
Zn495 Zn 0.0195 0.00641 0.7452 0.0
O496 O 0.01428 0.96254 0.72892 0.0
C497 C 0.04828 0.99966 0.63117 0.0
O498 O 0.03361 0.98059 0.79212 0.0
H499 H 1.00298 0.04158 0.81939 0.0
H500 H 0.01615 0.95245 0.60835 0.0
H501 H 0.07017 0.02089 0.76925 0.0
O502 O 0.02939 0.99009 0.61909 0.0
O503 O 0.04919 0.00798 0.68105 0.0
H504 H 0.94901 0.97398 0.65521 0.0
O505 O 1.00484 0.03162 0.69789 0.0
O506 O 0.98566 0.01365 0.63433 0.0
O507 O 0.98966 0.00404 0.80772 0.0
O508 O 0.96992 0.9864 0.745 0.0
C509 C 0.99182 0.03139 0.65463 0.0
H510 H 0.99915 0.92134 0.56301 0.0
H511 H 0.93062 0.94234 0.61331 0.0
H512 H 0.0199 0.07336 0.86168 0.0
H513 H 0.08841 0.0532 0.80789 0.0
C514 C 0.48127 0.96964 0.65188 0.0
N515 N 0.49541 0.03567 0.61752 0.0
C516 C 0.49288 0.03102 0.56025 0.0
C517 C 0.48796 0.04703 0.51808 0.0
C518 C 0.48621 0.0683 0.53427 0.0
C519 C 0.48881 0.07254 0.59397 0.0
C520 C 0.49312 0.05594 0.63498 0.0
Zn521 Zn 0.50416 0.01186 0.67743 0.0
C522 C 0.47009 0.00551 0.78285 0.0
N523 N 0.52237 0.96084 0.79805 0.0
C524 C 0.52457 0.94039 0.78198 0.0
C525 C 0.52442 0.96589 0.8552 0.0
C526 C 0.52876 0.95016 0.89865 0.0
C527 C 0.5304 0.92873 0.88394 0.0
C528 C 0.52836 0.92404 0.82433 0.0
Zn529 Zn 0.51387 0.98452 0.73735 0.0
O530 O 0.48341 0.98941 0.63597 0.0
C531 C 0.54803 0.99085 0.63218 0.0
O532 O 0.49261 0.96243 0.69443 0.0
H533 H 0.52232 0.98214 0.86761 0.0
H534 H 0.49495 0.01488 0.54683 0.0
H535 H 0.52284 0.93661 0.73645 0.0
O536 O 0.53398 0.0055 0.62054 0.0
O537 O 0.54383 0.97874 0.67897 0.0
H538 H 0.49511 0.05939 0.68064 0.0
O539 O 0.53452 0.00703 0.77901 0.0
O540 O 0.52542 0.03393 0.72014 0.0
O541 O 0.48415 0.99085 0.79403 0.0
O542 O 0.47418 0.01766 0.73613 0.0
C543 C 0.53661 0.02678 0.76299 0.0
H544 H 0.48568 0.04269 0.4732 0.0
H545 H 0.48817 0.08861 0.60898 0.0
H546 H 0.53064 0.95483 0.94342 0.0
H547 H 0.52899 0.90781 0.81046 0.0
C548 C 0.52662 0.47095 0.6329 0.0
N549 N 0.46145 0.49953 0.62938 0.0
C550 C 0.46547 0.49915 0.5697 0.0
C551 C 0.44714 0.50087 0.53227 0.0
C552 C 0.42437 0.50365 0.55601 0.0
C553 C 0.42076 0.50379 0.61798 0.0
C554 C 0.43952 0.50145 0.65388 0.0
Zn555 Zn 0.48934 0.49875 0.68223 0.0
C556 C 0.48608 0.46323 0.77291 0.0
N557 N 0.54948 0.49799 0.78518 0.0
C558 C 0.57173 0.4975 0.76129 0.0
C559 C 0.54494 0.49746 0.84489 0.0
C560 C 0.56308 0.49643 0.88302 0.0
C561 C 0.58612 0.49554 0.85964 0.0
C562 C 0.59038 0.49609 0.79794 0.0
Zn563 Zn 0.52177 0.49858 0.73198 0.0
O564 O 0.50652 0.47793 0.62504 0.0
C565 C 0.5247 0.53432 0.64166 0.0
O566 O 0.53782 0.4773 0.67566 0.0
H567 H 0.52716 0.49755 0.86319 0.0
H568 H 0.48301 0.49784 0.55074 0.0
H569 H 0.575 0.49799 0.71378 0.0
O570 O 0.50463 0.5261 0.63375 0.0
O571 O 0.5372 0.5255 0.67966 0.0
H572 H 0.43658 0.50168 0.70136 0.0
O573 O 0.50528 0.51976 0.7874 0.0
O574 O 0.47302 0.51967 0.74067 0.0
O575 O 0.50576 0.4719 0.78277 0.0
O576 O 0.47439 0.47135 0.73212 0.0
C577 C 0.48493 0.52639 0.78178 0.0
H578 H 0.45093 0.50017 0.48512 0.0
H579 H 0.40376 0.50628 0.63886 0.0
H580 H 0.55908 0.49579 0.93038 0.0
H581 H 0.60796 0.49554 0.77829 0.0
C582 C 0.03348 0.5346 0.62749 0.0
N583 N 0.0332 0.46811 0.61123 0.0
C584 C 0.03331 0.47337 0.55218 0.0
C585 C 0.04049 0.45885 0.51082 0.0
C586 C 0.04731 0.43848 0.53012 0.0
C587 C 0.04724 0.43362 0.5915 0.0
C588 C 0.04027 0.44875 0.63131 0.0
Zn589 Zn 0.0205 0.48932 0.67018 0.0
C590 C 0.0529 0.50018 0.7603 0.0
N591 N 0.99237 0.53482 0.78652 0.0
C592 C 0.98141 0.55236 0.7665 0.0
C593 C 0.99578 0.53135 0.84509 0.0
C594 C 0.98846 0.54601 0.88589 0.0
C595 C 0.97743 0.56446 0.86643 0.0
C596 C 0.97371 0.56739 0.80582 0.0
Zn597 Zn 1.00506 0.51357 0.7279 0.0
O598 O 0.03671 0.51512 0.61782 0.0
C599 C 0.97281 0.50263 0.63708 0.0
O600 O 0.02004 0.53916 0.67112 0.0
H601 H 1.00454 0.51731 0.8602 0.0
H602 H 0.02747 0.48877 0.53692 0.0
H603 H 0.97882 0.55482 0.71984 0.0
O604 O 0.99004 0.49151 0.62259 0.0
O605 O 0.97381 0.51401 0.68175 0.0
H606 H 0.04004 0.44482 0.67836 0.0
O607 O 0.99034 0.4879 0.78316 0.0
O608 O 1.00372 0.46385 0.72455 0.0
O609 O 0.03643 0.51246 0.77271 0.0
O610 O 0.05098 0.48764 0.71842 0.0
C611 C 0.99192 0.46844 0.77101 0.0
H612 H 0.04055 0.46356 0.4642 0.0
H613 H 0.05187 0.41805 0.60892 0.0
H614 H 0.99195 0.54315 0.93196 0.0
H615 H 0.96493 0.58117 0.78883 0.0
C616 C 0.16161 0.01159 0.39615 0.0
C617 C 0.17284 0.99209 0.39891 0.0
C618 C 0.14057 0.01428 0.43006 0.0
C619 C 0.13054 0.99716 0.46801 0.0
C620 C 0.1414 0.97727 0.46928 0.0
C621 C 0.16212 0.97495 0.43452 0.0
C622 C 0.1294 0.03564 0.42646 0.0
C623 C 0.13149 0.95851 0.50879 0.0
C624 C 0.09124 0.00702 0.60526 0.0
C625 C 0.0691 0.00057 0.5881 0.0
C626 C 0.11121 0.00664 0.56612 0.0
C627 C 0.10911 0.99992 0.50785 0.0
C628 C 0.08668 0.99417 0.48959 0.0
C629 C 0.06705 0.9944 0.5299 0.0
C630 C 0.13472 0.01269 0.58793 0.0
C631 C 0.08346 0.98722 0.42781 0.0
H632 H 0.16965 0.02497 0.36909 0.0
H633 H 0.17022 0.95963 0.43606 0.0
H634 H 0.11075 0.03348 0.41731 0.0
H635 H 0.1301 0.04313 0.46957 0.0
H636 H 0.13819 0.04678 0.39155 0.0
H637 H 0.14185 0.94404 0.50421 0.0
H638 H 0.13102 0.96279 0.55569 0.0
H639 H 0.11331 0.95451 0.49827 0.0
H640 H 0.09309 0.01184 0.64998 0.0
H641 H 0.05006 0.98955 0.51582 0.0
H642 H 0.1438 0.02521 0.55752 0.0
H643 H 0.14573 0.99855 0.58842 0.0
H644 H 0.13335 0.01868 0.63317 0.0
H645 H 0.0921 0.99909 0.39467 0.0
H646 H 0.06478 0.98523 0.4186 0.0
H647 H 0.0918 0.97177 0.42175 0.0
C648 C 0.46637 0.16852 0.30303 0.0
C649 C 0.48591 0.18235 0.30757 0.0
C650 C 0.46479 0.14808 0.33249 0.0
C651 C 0.48289 0.1416 0.36831 0.0
C652 C 0.50312 0.15506 0.37041 0.0
C653 C 0.50455 0.17499 0.33915 0.0
C654 C 0.44334 0.13382 0.3272 0.0
C655 C 0.52279 0.14897 0.40835 0.0
C656 C 0.47103 0.10435 0.50519 0.0
C657 C 0.48273 0.08606 0.48915 0.0
C658 C 0.47007 0.1222 0.46543 0.0
C659 C 0.48031 0.1216 0.40723 0.0
C660 C 0.49057 0.10268 0.38919 0.0
C661 C 0.49204 0.08533 0.43051 0.0
C662 C 0.45925 0.14217 0.48686 0.0
C663 C 0.50099 0.10109 0.32696 0.0
H664 H 0.45191 0.17397 0.27862 0.0
H665 H 0.52008 0.18523 0.34128 0.0
H666 H 0.44822 0.11714 0.32033 0.0
H667 H 0.43216 0.13358 0.36881 0.0
H668 H 0.43294 0.13945 0.29016 0.0
H669 H 0.53746 0.16114 0.40445 0.0
H670 H 0.51623 0.147 0.45544 0.0
H671 H 0.52959 0.13343 0.39578 0.0
H672 H 0.46301 0.10499 0.54946 0.0
H673 H 0.50133 0.07153 0.41708 0.0
H674 H 0.44586 0.14752 0.45686 0.0
H675 H 0.47284 0.15526 0.4864 0.0
H676 H 0.45103 0.13973 0.53244 0.0
H677 H 0.4893 0.10787 0.29426 0.0
H678 H 0.50426 0.08429 0.31681 0.0
H679 H 0.5178 0.11047 0.32132 0.0
C680 C 0.31958 0.55267 0.39489 0.0
C681 C 0.30753 0.5395 0.35763 0.0
C682 C 0.33899 0.54561 0.42355 0.0
C683 C 0.3473 0.52514 0.4131 0.0
C684 C 0.33615 0.51219 0.37297 0.0
C685 C 0.31621 0.5194 0.34626 0.0
C686 C 0.35016 0.55988 0.46649 0.0
C687 C 0.34497 0.49054 0.35922 0.0
C688 C 0.40881 0.51822 0.46087 0.0
C689 C 0.40476 0.50728 0.51659 0.0
C690 C 0.3904 0.52291 0.42502 0.0
C691 C 0.36721 0.51724 0.44601 0.0
C692 C 0.36296 0.50577 0.50134 0.0
C693 C 0.38176 0.50063 0.5354 0.0
C694 C 0.39574 0.53467 0.36559 0.0
C695 C 0.33844 0.49976 0.52589 0.0
H696 H 0.31361 0.56852 0.40256 0.0
H697 H 0.3071 0.50902 0.3178 0.0
H698 H 0.3496 0.55154 0.51101 0.0
H699 H 0.36876 0.56345 0.45234 0.0
H700 H 0.34137 0.57525 0.47026 0.0
H701 H 0.3359 0.48342 0.32262 0.0
H702 H 0.36396 0.49184 0.34694 0.0
H703 H 0.34235 0.47947 0.39908 0.0
H704 H 0.42632 0.5238 0.4457 0.0
H705 H 0.3783 0.49165 0.57735 0.0
H706 H 0.39017 0.55137 0.36753 0.0
H707 H 0.38594 0.52704 0.33109 0.0
H708 H 0.41463 0.5351 0.35194 0.0
H709 H 0.32883 0.51449 0.53321 0.0
H710 H 0.3381 0.49008 0.56844 0.0
H711 H 0.32895 0.49057 0.49377 0.0
C712 C 0.08313 0.34447 0.31388 0.0
C713 C 0.0687 0.32702 0.33639 0.0
C714 C 0.08006 0.36501 0.3349 0.0
C715 C 0.06242 0.36789 0.37988 0.0
C716 C 0.04677 0.35058 0.39918 0.0
C717 C 0.04995 0.33049 0.37666 0.0
C718 C 0.09658 0.38324 0.31171 0.0
C719 C 0.02776 0.35279 0.44714 0.0
C720 C 0.07026 0.40708 0.49949 0.0
C721 C 0.05348 0.42205 0.48696 0.0
C722 C 0.07425 0.39001 0.4631 0.0
C723 C 0.06158 0.38805 0.41188 0.0
C724 C 0.04588 0.40393 0.3965 0.0
C725 C 0.04178 0.42056 0.43453 0.0
C726 C 0.09106 0.37336 0.4815 0.0
C727 C 0.03245 0.40276 0.34153 0.0
H728 H 0.09763 0.34185 0.28269 0.0
H729 H 0.03854 0.31704 0.39342 0.0
H730 H 0.08707 0.39811 0.30444 0.0
H731 H 0.10957 0.38634 0.34476 0.0
H732 H 0.10609 0.37959 0.26959 0.0
H733 H 0.01622 0.33813 0.45456 0.0
H734 H 0.03571 0.35609 0.48928 0.0
H735 H 0.0169 0.36645 0.43575 0.0
H736 H 0.07996 0.40836 0.53872 0.0
H737 H 0.02865 0.43185 0.42419 0.0
H738 H 0.1039 0.37077 0.4444 0.0
H739 H 0.08135 0.35788 0.49297 0.0
H740 H 0.10065 0.37791 0.52031 0.0
H741 H 0.04397 0.3984 0.30343 0.0
H742 H 0.02447 0.41815 0.3299 0.0
H743 H 0.01832 0.39017 0.34881 0.0
C744 C 0.85256 0.98786 0.01407 0.0
C745 C 0.84392 0.0085 0.01183 0.0
C746 C 0.87429 0.98373 0.98511 0.0
C747 C 0.88754 0.00055 0.95261 0.0
C748 C 0.87942 0.02157 0.95327 0.0
C749 C 0.85801 0.02528 0.98327 0.0
C750 C 0.88253 0.96118 0.98703 0.0
C751 C 0.89269 0.04008 0.91933 0.0
C752 C 0.95148 0.99839 0.8967 0.0
C753 C 0.9496 0.99414 0.83692 0.0
C754 C 0.93153 0.99923 0.93577 0.0
C755 C 0.90901 0.99631 0.91448 0.0
C756 C 0.90706 0.99147 0.85452 0.0
C757 C 0.92731 0.99021 0.81681 0.0
C758 C 0.93456 0.00389 0.99949 0.0
C759 C 0.88352 0.98858 0.82934 0.0
H760 H 0.84185 0.97478 0.0358 0.0
H761 H 0.85169 0.04135 0.98206 0.0
H762 H 0.88095 0.95445 0.94314 0.0
H763 H 0.90118 0.96103 0.99689 0.0
H764 H 0.8722 0.95062 0.0207 0.0
H765 H 0.88451 0.05558 0.92615 0.0
H766 H 0.91087 0.04131 0.93286 0.0
H767 H 0.8935 0.03731 0.87134 0.0
H768 H 0.9686 0.00123 0.91297 0.0
H769 H 0.92559 0.98694 0.77079 0.0
H770 H 0.92365 0.99242 0.02943 0.0
H771 H 0.92869 0.02015 0.00782 0.0
H772 H 0.95301 0.003 0.01105 0.0
H773 H 0.87263 0.97627 0.85644 0.0
H774 H 0.88489 0.98379 0.78286 0.0
H775 H 0.87431 0.00379 0.83077 0.0
C776 C 0.55132 0.83148 0.12276 0.0
C777 C 0.53278 0.81665 0.11728 0.0
C778 C 0.55174 0.8519 0.09339 0.0
C779 C 0.53342 0.85733 0.05699 0.0
C780 C 0.51388 0.84298 0.05516 0.0
C781 C 0.51365 0.82302 0.08609 0.0
C782 C 0.57243 0.8671 0.0984 0.0
C783 C 0.49401 0.84795 0.01674 0.0
C784 C 0.52337 0.91261 0.98843 0.0
C785 C 0.53331 0.91133 0.93054 0.0
C786 C 0.52469 0.89576 0.03143 0.0
C787 C 0.53549 0.87681 0.01589 0.0
C788 C 0.54618 0.87561 0.95832 0.0
C789 C 0.54529 0.89296 0.91681 0.0
C790 C 0.51369 0.89795 0.0928 0.0
C791 C 0.55765 0.85558 0.93957 0.0
H792 H 0.56614 0.8267 0.14688 0.0
H793 H 0.49902 0.81178 0.08283 0.0
H794 H 0.58397 0.86724 0.05739 0.0
H795 H 0.56674 0.88364 0.10344 0.0
H796 H 0.58275 0.86235 0.13645 0.0
H797 H 0.47953 0.83561 0.02289 0.0
H798 H 0.48701 0.86368 0.02656 0.0
H799 H 0.50047 0.84891 0.96951 0.0
H800 H 0.51381 0.92647 0.99998 0.0
H801 H 0.5537 0.89191 0.87311 0.0
H802 H 0.5253 0.89199 0.12679 0.0
H803 H 0.49715 0.88815 0.09861 0.0
H804 H 0.50978 0.9148 0.10093 0.0
H805 H 0.5712 0.85117 0.97021 0.0
H806 H 0.56585 0.85746 0.89388 0.0
H807 H 0.54447 0.84209 0.94169 0.0
C808 C 0.67746 0.46906 0.10368 0.0
C809 C 0.6996 0.47793 0.08546 0.0
C810 C 0.65823 0.47296 0.06982 0.0
C811 C 0.66127 0.4863 0.01718 0.0
C812 C 0.68344 0.49616 1.00051 0.0
C813 C 0.70241 0.49164 0.03451 0.0
C814 C 0.63497 0.46189 0.08865 0.0
C815 C 0.68736 0.5108 0.94543 0.0
C816 C 0.62145 0.47735 0.89218 0.0
C817 C 0.60548 0.49343 0.89964 0.0
C818 C 0.63944 0.47468 0.93072 0.0
C819 C 0.64179 0.48869 0.9772 0.0
C820 C 0.62583 0.5051 0.98458 0.0
C821 C 0.60771 0.50714 0.94604 0.0
C822 C 0.65586 0.45676 0.92188 0.0
C823 C 0.62804 0.52063 0.03277 0.0
H824 H 0.67546 0.45823 0.14274 0.0
H825 H 0.71964 0.49838 0.02049 0.0
H826 H 0.62108 0.47364 0.0902 0.0
H827 H 0.63039 0.45022 0.05567 0.0
H828 H 0.63509 0.45326 0.1327 0.0
H829 H 0.70497 0.51887 0.94199 0.0
H830 H 0.68542 0.50144 0.90573 0.0
H831 H 0.67411 0.52317 0.94484 0.0
H832 H 0.61957 0.46658 0.85677 0.0
H833 H 0.59544 0.51967 0.95162 0.0
H834 H 0.65572 0.44628 0.96293 0.0
H835 H 0.67394 0.46343 0.91251 0.0
H836 H 0.65119 0.44683 0.88488 0.0
H837 H 0.62703 0.51184 0.07667 0.0
H838 H 0.61425 0.53253 0.0325 0.0
H839 H 0.64531 0.52928 0.02732 0.0
C840 C 0.95584 0.65852 0.0884 0.0
C841 C 0.9341 0.66676 0.07804 0.0
C842 C 0.96274 0.63958 0.06302 0.0
C843 C 0.9475 0.62879 0.02655 0.0
C844 C 0.9247 0.63601 0.02085 0.0
C845 C 0.91828 0.65489 0.04673 0.0
C846 C 0.98706 0.63224 0.07101 0.0
C847 C 0.90779 0.62497 0.98282 0.0
C848 C 0.97331 0.60266 0.8918 0.0
C849 C 0.97033 0.58081 0.90868 0.0
C850 C 0.96637 0.61833 0.93027 0.0
C851 C 0.95632 0.6121 0.98749 0.0
C852 C 0.95373 0.59012 0.00547 0.0
C853 C 0.96068 0.57473 0.96581 0.0
C854 C 0.96946 0.64161 0.90921 0.0
C855 C 0.9432 0.58285 0.06613 0.0
H856 H 0.96813 0.66773 0.11235 0.0
H857 H 0.90138 0.6612 0.03908 0.0
H858 H 0.98693 0.61462 0.07905 0.0
H859 H 0.99814 0.63642 0.02996 0.0
H860 H 0.99513 0.63989 0.10829 0.0
H861 H 0.88987 0.63074 0.98947 0.0
H862 H 0.9137 0.62804 0.93553 0.0
H863 H 0.90723 0.60741 0.99243 0.0
H864 H 0.98121 0.60757 0.84837 0.0
H865 H 0.95813 0.5579 0.97919 0.0
H866 H 0.98009 0.65045 0.93988 0.0
H867 H 0.95223 0.64895 0.90907 0.0
H868 H 0.97805 0.64381 0.86397 0.0
H869 H 0.95226 0.5912 0.10066 0.0
H870 H 0.94414 0.56532 0.07513 0.0
H871 H 0.92465 0.58706 0.07013 0.0
C872 C 0.0238 0.14214 0.47581 0.0
C873 C 0.04784 0.13916 0.47023 0.0
C874 C 0.00854 0.12659 0.50558 0.0
C875 C 0.01769 0.10781 0.53055 0.0
C876 C 0.04209 0.10513 0.52676 0.0
C877 C 0.05686 0.1208 0.4962 0.0
C878 C 0.98266 0.12987 0.5082 0.0
C879 C 0.05261 0.08548 0.55395 0.0
C880 C 0.9911 0.07074 0.6531 0.0
C881 C 0.98841 0.05196 0.62278 0.0
C882 C 0.99811 0.09012 0.6226 0.0
C883 C 1.00216 0.0906 0.56047 0.0
C884 C 0.99582 0.0725 0.52918 0.0
C885 C 0.98897 0.05322 0.56094 0.0
C886 C 1.00434 0.10911 0.65768 0.0
C887 C 0.99922 0.07266 0.4627 0.0
H888 H 0.01685 0.15626 0.45477 0.0
H889 H 0.07547 0.11861 0.49183 0.0
H890 H 0.97418 0.11872 0.47887 0.0
H891 H 0.97479 0.12623 0.55366 0.0
H892 H 0.97866 0.14647 0.49379 0.0
H893 H 0.07195 0.08628 0.54874 0.0
H894 H 0.04728 0.08351 0.60184 0.0
H895 H 0.0461 0.07101 0.53293 0.0
H896 H 0.99021 0.06982 0.70109 0.0
H897 H 0.9867 0.03876 0.53738 0.0
H898 H 0.99949 0.12427 0.63508 0.0
H899 H 0.02348 0.11004 0.66186 0.0
H900 H 0.99566 0.10772 0.70291 0.0
H901 H 0.994 0.08801 0.44191 0.0
H902 H 0.98908 0.05931 0.44465 0.0
H903 H 0.01795 0.07089 0.45003 0.0
C904 C 0.35994 0.9348 0.56233 0.0
C905 C 0.35872 0.92282 0.51209 0.0
C906 C 0.38076 0.93696 0.59087 0.0
C907 C 0.40078 0.92689 0.56852 0.0
C908 C 0.39882 0.91262 0.52265 0.0
C909 C 0.37776 0.91077 0.4948 0.0
C910 C 0.38198 0.95207 0.64037 0.0
C911 C 0.41957 0.90107 0.4988 0.0
C912 C 0.4542 0.9635 0.5727 0.0
C913 C 0.46372 0.95604 0.62492 0.0
C914 C 0.43454 0.95322 0.55194 0.0
C915 C 0.42411 0.93497 0.58419 0.0
C916 C 0.43469 0.92634 0.63439 0.0
C917 C 0.45445 0.93703 0.65431 0.0
C918 C 0.42402 0.96284 0.49764 0.0
C919 C 0.42434 0.90673 0.6694 0.0
H920 H 0.34535 0.94419 0.57605 0.0
H921 H 0.37673 0.90109 0.45677 0.0
H922 H 0.39177 0.94512 0.67685 0.0
H923 H 0.39138 0.96719 0.62346 0.0
H924 H 0.36438 0.95596 0.65849 0.0
H925 H 0.41414 0.88716 0.4737 0.0
H926 H 0.4307 0.91222 0.46848 0.0
H927 H 0.43031 0.89544 0.53507 0.0
H928 H 0.4615 0.97802 0.54932 0.0
H929 H 0.46179 0.93114 0.69466 0.0
H930 H 0.40679 0.96916 0.51036 0.0
H931 H 0.42116 0.95045 0.4654 0.0
H932 H 0.43521 0.97611 0.47535 0.0
H933 H 0.40957 0.91136 0.69904 0.0
H934 H 0.43733 0.89915 0.6972 0.0
H935 H 0.41749 0.89475 0.63983 0.0
C936 C 0.5634 0.37628 0.42843 0.0
C937 C 0.549 0.3587 0.45037 0.0
C938 C 0.56509 0.39482 0.46004 0.0
C939 C 0.55193 0.39572 0.51447 0.0
C940 C 0.53933 0.37722 0.53959 0.0
C941 C 0.53805 0.35885 0.50715 0.0
C942 C 0.57912 0.41406 0.43242 0.0
C943 C 0.5252 0.3775 0.59783 0.0
C944 C 0.55524 0.4428 0.61249 0.0
C945 C 0.53551 0.45377 0.5968 0.0
C946 C 0.56157 0.42431 0.58426 0.0
C947 C 0.54779 0.41669 0.53963 0.0
C948 C 0.52868 0.4284 0.52138 0.0
C949 C 0.52282 0.44682 0.55011 0.0
C950 C 0.58222 0.41238 0.60433 0.0
C951 C 0.51365 0.42089 0.4735 0.0
H952 H 0.57214 0.37602 0.38477 0.0
H953 H 0.52685 0.3453 0.52411 0.0
H954 H 0.56716 0.42557 0.41293 0.0
H955 H 0.58868 0.42237 0.46616 0.0
H956 H 0.5918 0.40959 0.39679 0.0
H957 H 0.51925 0.36115 0.6152 0.0
H958 H 0.53548 0.38515 0.63137 0.0
H959 H 0.50961 0.38707 0.59172 0.0
H960 H 0.56518 0.44812 0.64848 0.0
H961 H 0.50768 0.4553 0.5374 0.0
H962 H 0.59308 0.4074 0.56581 0.0
H963 H 0.57595 0.39765 0.63081 0.0
H964 H 0.59329 0.42216 0.632 0.0
H965 H 0.52458 0.41839 0.4327 0.0
H966 H 0.50021 0.43244 0.46244 0.0
H967 H 0.50472 0.40532 0.48814 0.0
C968 C 0.11781 0.61787 0.43466 0.0
C969 C 0.11505 0.61275 0.37586 0.0
C970 C 0.10131 0.61052 0.48005 0.0
C971 C 0.08141 0.59832 0.46581 0.0
C972 C 0.07658 0.59655 0.40587 0.0
C973 C 0.09357 0.60358 0.36152 0.0
C974 C 0.10679 0.61333 0.54343 0.0
C975 C 0.055 0.58449 0.38872 0.0
C976 C 0.06618 0.5467 0.55582 0.0
C977 C 0.04593 0.55157 0.58882 0.0
C978 C 0.07821 0.56211 0.51748 0.0
C979 C 0.06957 0.58291 0.51104 0.0
C980 C 0.04936 0.58812 0.54509 0.0
C981 C 0.0378 0.57236 0.58402 0.0
C982 C 0.09997 0.55589 0.48288 0.0
C983 C 0.03936 0.60996 0.53888 0.0
H984 H 0.13386 0.62586 0.44604 0.0
H985 H 0.09085 0.59969 0.31643 0.0
H986 H 0.09078 0.61599 0.57129 0.0
H987 H 0.11445 0.59854 0.56135 0.0
H988 H 0.11953 0.62691 0.54711 0.0
H989 H 0.05125 0.5885 0.34203 0.0
H990 H 0.0576 0.56705 0.39372 0.0
H991 H 0.03962 0.58803 0.41788 0.0
H992 H 0.07271 0.53073 0.56 0.0
H993 H 0.02209 0.57615 0.60945 0.0
H994 H 0.11473 0.56725 0.48965 0.0
H995 H 0.09706 0.55661 0.43492 0.0
H996 H 0.1051 0.53948 0.4959 0.0
H997 H 0.05331 0.62277 0.53308 0.0
H998 H 0.02761 0.61314 0.57781 0.0
H999 H 0.02909 0.61085 0.49904 0.0
C1000 C 0.99529 0.85126 0.94566 0.0
C1001 C 0.97117 0.85388 0.94704 0.0
C1002 C 0.01093 0.86689 0.91746 0.0
C1003 C 1.0021 0.88543 0.89013 0.0
C1004 C 0.97768 0.88765 0.88939 0.0
C1005 C 0.96254 0.87185 0.91801 0.0
C1006 C 0.03679 0.86397 0.91914 0.0
C1007 C 0.96749 0.90701 0.8597 0.0
C1008 C 0.02945 0.94069 0.8653 0.0
C1009 C 0.03117 0.94227 0.80343 0.0
C1010 C 0.02277 0.92111 0.89567 0.0
C1011 C 0.01791 0.90299 0.86296 0.0
C1012 C 0.0233 0.90388 0.80124 0.0
C1013 C 0.02992 0.92362 0.77209 0.0
C1014 C 0.0178 0.9206 0.9618 0.0
C1015 C 0.01888 0.88484 0.76483 0.0
H1016 H 1.00196 0.83743 0.96877 0.0
H1017 H 0.94387 0.87372 0.91868 0.0
H1018 H 0.04587 0.86835 0.87537 0.0
H1019 H 0.04409 0.87471 0.95138 0.0
H1020 H 0.0407 0.84726 0.93263 0.0
H1021 H 0.94814 0.90595 0.8619 0.0
H1022 H 0.97316 0.92168 0.88117 0.0
H1023 H 0.97392 0.90884 0.81251 0.0
H1024 H 0.03057 0.95509 0.88962 0.0
H1025 H 0.03167 0.92482 0.72412 0.0
H1026 H 0.0232 0.9054 0.98309 0.0
H1027 H 0.99877 0.92166 0.97173 0.0
H1028 H 0.02685 0.93419 0.98168 0.0
H1029 H 0.02371 0.86982 0.78819 0.0
H1030 H 0.02872 0.88664 0.72105 0.0
H1031 H 1.00002 0.88334 0.75723 0.0
C1032 C 0.65342 0.06132 0.88101 0.0
C1033 C 0.65256 0.07479 0.92847 0.0
C1034 C 0.63444 0.05901 0.84567 0.0
C1035 C 0.61409 0.07029 0.85855 0.0
C1036 C 0.61433 0.08599 0.90103 0.0
C1037 C 0.63367 0.08814 0.93545 0.0
C1038 C 0.63515 0.04251 0.79956 0.0
C1039 C 0.59323 0.09878 0.91487 0.0
C1040 C 0.56445 0.05862 0.76032 0.0
C1041 C 0.55355 0.04058 0.7912 0.0
C1042 C 0.58352 0.06946 0.78305 0.0
C1043 C 0.59161 0.06206 0.83789 0.0
C1044 C 0.57948 0.04483 0.87105 0.0
C1045 C 0.56069 0.03426 0.84714 0.0
C1046 C 0.59585 0.08781 0.74649 0.0
C1047 C 0.58723 0.03662 0.93029 0.0
H1048 H 0.6679 0.05096 0.87489 0.0
H1049 H 0.63319 0.09908 0.97088 0.0
H1050 H 0.62485 0.02792 0.81696 0.0
H1051 H 0.62728 0.04854 0.75881 0.0
H1052 H 0.65323 0.03794 0.78782 0.0
H1053 H 0.59785 0.11337 0.93814 0.0
H1054 H 0.58465 0.10354 0.87397 0.0
H1055 H 0.5804 0.08879 0.94393 0.0
H1056 H 0.55896 0.06355 0.71694 0.0
H1057 H 0.55208 0.02048 0.87145 0.0
H1058 H 0.61125 0.08185 0.72168 0.0
H1059 H 0.60215 0.10044 0.77481 0.0
H1060 H 0.58434 0.09502 0.71396 0.0
H1061 H 0.60451 0.0295 0.92418 0.0
H1062 H 0.57478 0.02427 0.9524 0.0
H1063 H 0.58915 0.04996 0.96009 0.0
C1064 C 0.46787 0.62954 0.96707 0.0
C1065 C 0.48557 0.64328 0.93969 0.0
C1066 C 0.46056 0.61102 0.94022 0.0
C1067 C 0.47185 0.60597 0.88595 0.0
C1068 C 0.48806 0.62096 0.85554 0.0
C1069 C 0.49464 0.63961 0.88281 0.0
C1070 C 0.44253 0.59588 0.97278 0.0
C1071 C 0.5005 0.61619 0.79751 0.0
C1072 C 0.49006 0.54979 0.86498 0.0
C1073 C 0.47717 0.54409 0.81734 0.0
C1074 C 0.48735 0.56944 0.8902 0.0
C1075 C 0.471 0.5836 0.86787 0.0
C1076 C 0.45622 0.57703 0.82397 0.0
C1077 C 0.45958 0.5573 0.7988 0.0
C1078 C 0.5034 0.57571 0.93737 0.0
C1079 C 0.43806 0.59138 0.80051 0.0
H1080 H 0.4608 0.63261 0.01107 0.0
H1081 H 0.50837 0.65033 0.862 0.0
H1082 H 0.43108 0.58828 0.94152 0.0
H1083 H 0.45139 0.58297 0.9968 0.0
H1084 H 0.43159 0.6042 0.00561 0.0
H1085 H 0.51023 0.63051 0.77614 0.0
H1086 H 0.51307 0.60352 0.80541 0.0
H1087 H 0.48795 0.61014 0.76647 0.0
H1088 H 0.50341 0.53945 0.88018 0.0
H1089 H 0.44943 0.5529 0.76221 0.0
H1090 H 0.49319 0.58091 0.97664 0.0
H1091 H 0.51516 0.5894 0.92013 0.0
H1092 H 0.51429 0.56239 0.95181 0.0
H1093 H 0.42982 0.6005 0.83619 0.0
H1094 H 0.42427 0.58209 0.7795 0.0
H1095 H 0.44646 0.60308 0.76657 0.0
C1096 C 0.88007 0.41412 0.91076 0.0
C1097 C 0.88081 0.40146 0.9635 0.0
C1098 C 0.90039 0.41967 0.87533 0.0
C1099 C 0.92202 0.41246 0.89317 0.0
C1100 C 0.92252 0.3976 0.94223 0.0
C1101 C 0.90185 0.39226 0.97696 0.0
C1102 C 0.89899 0.43529 0.8227 0.0
C1103 C 0.94513 0.389 0.96153 0.0
C1104 C 0.97234 0.43189 0.78544 0.0
C1105 C 0.97796 0.45179 0.80767 0.0
C1106 C 0.95533 0.41785 0.81528 0.0
C1107 C 0.94378 0.42398 0.86819 0.0
C1108 C 0.95092 0.44321 0.89324 0.0
C1109 C 0.96792 0.45685 0.86268 0.0
C1110 C 0.94858 0.39729 0.78778 0.0
C1111 C 0.93929 0.45029 0.95004 0.0
H1112 H 0.86402 0.42142 0.89976 0.0
H1113 H 0.90248 0.38199 0.01679 0.0
H1114 H 0.90597 0.45127 0.83372 0.0
H1115 H 0.9097 0.43021 0.78409 0.0
H1116 H 0.88079 0.43693 0.80981 0.0
H1117 H 0.94213 0.37408 0.99018 0.0
H1118 H 0.95691 0.38575 0.92279 0.0
H1119 H 0.95414 0.40108 0.98711 0.0
H1120 H 0.98017 0.42781 0.74308 0.0
H1121 H 0.9725 0.47205 0.8806 0.0
H1122 H 0.93291 0.39971 0.76243 0.0
H1123 H 0.94421 0.38422 0.82208 0.0
H1124 H 0.96275 0.39221 0.75684 0.0
H1125 H 0.92098 0.45413 0.94275 0.0
H1126 H 0.9483 0.46466 0.9662 0.0
H1127 H 0.93889 0.43725 0.98516 0.0
C1128 C 0.0822 0.18158 0.95301 0.0
C1129 C 0.10254 0.18165 0.98402 0.0
C1130 C 0.07638 0.16438 0.91846 0.0
C1131 C 0.09114 0.14683 0.91561 0.0
C1132 C 0.1129 0.14804 0.94149 0.0
C1133 C 0.11844 0.16556 0.97481 0.0
C1134 C 0.05335 0.16405 0.89 0.0
C1135 C 0.1292 0.12977 0.93987 0.0
C1136 C 0.06085 0.09179 0.91605 0.0
C1137 C 0.06563 0.08614 0.85787 0.0
C1138 C 0.06924 0.11141 0.93524 0.0
C1139 C 0.08228 0.126 0.89479 0.0
C1140 C 0.08703 0.1204 0.83572 0.0
C1141 C 0.07886 0.10039 0.81811 0.0
C1142 C 0.06415 0.1165 0.99896 0.0
C1143 C 0.10037 0.13568 0.791 0.0
H1144 H 0.06981 0.19392 0.96003 0.0
H1145 H 0.13429 0.16567 0.99835 0.0
H1146 H 0.05516 0.15766 0.84536 0.0
H1147 H 0.04057 0.1534 0.91728 0.0
H1148 H 0.04623 0.18025 0.8861 0.0
H1149 H 0.14677 0.13451 0.95377 0.0
H1150 H 0.12186 0.11639 0.97032 0.0
H1151 H 0.13104 0.12367 0.89492 0.0
H1152 H 0.05059 0.08075 0.94668 0.0
H1153 H 0.08224 0.09611 0.77281 0.0
H1154 H 0.05378 0.13101 1.00106 0.0
H1155 H 0.08069 0.11996 0.02009 0.0
H1156 H 0.05436 0.10318 0.02509 0.0
H1157 H 0.09099 0.15073 0.7861 0.0
H1158 H 0.10272 0.12887 0.74692 0.0
H1159 H 0.11777 0.13993 0.80657 0.0
C1160 C 0.34914 0.98928 0.97695 0.0
C1161 C 0.34854 0.00167 0.02665 0.0
C1162 C 0.36703 0.99257 0.93168 0.0
C1163 C 0.38501 0.00845 0.93654 0.0
C1164 C 0.38336 0.02211 0.98436 0.0
C1165 C 0.36521 0.01851 0.02883 0.0
C1166 C 0.36783 0.97772 0.88147 0.0
C1167 C 0.40196 0.03925 0.99169 0.0
C1168 C 0.44584 0.99505 0.87656 0.0
C1169 C 0.44871 0.00743 0.82292 0.0
C1170 C 0.42541 0.99549 0.91376 0.0
C1171 C 0.40706 0.00857 0.89726 0.0
C1172 C 0.4099 0.02134 0.84353 0.0
C1173 C 0.43067 0.02066 0.80713 0.0
C1174 C 0.42338 0.98168 0.97067 0.0
C1175 C 0.39083 0.03545 0.82406 0.0
H1176 H 0.33668 0.97588 0.97584 0.0
H1177 H 0.3652 0.02774 0.06793 0.0
H1178 H 0.37227 0.98678 0.83865 0.0
H1179 H 0.38162 0.96611 0.88817 0.0
H1180 H 0.35098 0.96865 0.8787 0.0
H1181 H 0.39638 0.0506 0.02523 0.0
H1182 H 0.41794 0.03167 0.00605 0.0
H1183 H 0.40661 0.04838 0.94907 0.0
H1184 H 0.45959 0.98478 0.88952 0.0
H1185 H 0.43257 0.03023 0.76575 0.0
H1186 H 0.40839 0.97001 0.97021 0.0
H1187 H 0.42004 0.99173 0.00883 0.0
H1188 H 0.43935 0.97273 0.97779 0.0
H1189 H 0.37492 0.02548 0.81749 0.0
H1190 H 0.39595 0.04496 0.78222 0.0
H1191 H 0.3862 0.04656 0.85893 0.0
C1192 C 0.4429 0.3639 0.9902 0.0
C1193 C 0.46001 0.34863 0.98704 0.0
C1194 C 0.44263 0.38072 0.94692 0.0
C1195 C 0.45986 0.38218 0.89944 0.0
C1196 C 0.47497 0.36508 0.89179 0.0
C1197 C 0.47493 0.34847 0.93603 0.0
C1198 C 0.42599 0.39839 0.95666 0.0
C1199 C 0.49321 0.36569 0.84103 0.0
C1200 C 0.46129 0.42911 0.78446 0.0
C1201 C 0.47785 0.44315 0.80661 0.0
C1202 C 0.45509 0.40915 0.81397 0.0
C1203 C 0.46554 0.40326 0.86706 0.0
C1204 C 0.48181 0.41767 0.89025 0.0
C1205 C 0.48784 0.43731 0.85961 0.0
C1206 C 0.43792 0.39417 0.78749 0.0
C1207 C 0.49313 0.41226 0.9473 0.0
H1208 H 0.43146 0.36406 0.02995 0.0
H1209 H 0.4883 0.33677 0.93382 0.0
H1210 H 0.43531 0.41191 0.97611 0.0
H1211 H 0.41941 0.40449 0.91429 0.0
H1212 H 0.41091 0.39295 0.98744 0.0
H1213 H 0.50003 0.34961 0.83425 0.0
H1214 H 0.48607 0.37187 0.79942 0.0
H1215 H 0.508 0.37662 0.85059 0.0
H1216 H 0.45367 0.43344 0.74316 0.0
H1217 H 0.50058 0.4481 0.87712 0.0
H1218 H 0.42416 0.38813 0.82131 0.0
H1219 H 0.44707 0.3801 0.77176 0.0
H1220 H 0.42953 0.40196 0.7496 0.0
H1221 H 0.47958 0.40868 0.98379 0.0
H1222 H 0.50494 0.42546 0.96006 0.0
H1223 H 0.50337 0.39775 0.94274 0.0
C1224 C 0.16385 0.50693 0.95886 0.0
C1225 C 0.173 0.52801 0.95118 0.0
C1226 C 0.14638 0.49952 0.9233 0.0
C1227 C 0.13815 0.51352 0.87881 0.0
C1228 C 0.14895 0.53417 0.86751 0.0
C1229 C 0.1661 0.54124 0.90423 0.0
C1230 C 0.13531 0.47744 0.93702 0.0
C1231 C 0.14103 0.54948 0.81987 0.0
C1232 C 0.09557 0.49442 0.76835 0.0
C1233 C 0.07444 0.50149 0.7928 0.0
C1234 C 0.11648 0.49769 0.79644 0.0
C1235 C 0.11614 0.50801 0.8505 0.0
C1236 C 0.09467 0.51434 0.87649 0.0
C1237 C 0.07416 0.51114 0.84715 0.0
C1238 C 0.13903 0.4909 0.76711 0.0
C1239 C 0.09342 0.5251 0.93456 0.0
H1240 H 0.16899 0.49679 0.99566 0.0
H1241 H 0.17319 0.55756 0.89844 0.0
H1242 H 0.11796 0.4788 0.96033 0.0
H1243 H 0.13257 0.4692 0.89577 0.0
H1244 H 0.14604 0.4674 0.96564 0.0
H1245 H 0.15338 0.56352 0.81087 0.0
H1246 H 0.13909 0.54129 0.77817 0.0
H1247 H 0.12372 0.55533 0.83395 0.0
H1248 H 0.09592 0.48703 0.7262 0.0
H1249 H 0.05787 0.51649 0.86655 0.0
H1250 H 0.14886 0.48138 0.79903 0.0
H1251 H 0.15014 0.50529 0.7522 0.0
H1252 H 0.13611 0.48131 0.72823 0.0
H1253 H 0.10174 0.51527 0.96884 0.0
H1254 H 0.0752 0.52775 0.95068 0.0
H1255 H 0.10313 0.54081 0.92933 0.0
C1256 C 0.90048 0.8325 0.43513 0.0
C1257 C 0.91603 0.81612 0.42606 0.0
C1258 C 0.90609 0.84965 0.46967 0.0
C1259 C 0.92756 0.8502 0.49698 0.0
C1260 C 0.942 0.83243 0.4938 0.0
C1261 C 0.93613 0.81561 0.458 0.0
C1262 C 0.89016 0.86821 0.47156 0.0
C1263 C 0.96472 0.83208 0.52369 0.0
C1264 C 0.95861 0.9046 0.50361 0.0
C1265 C 0.95329 0.90957 0.56216 0.0
C1266 C 0.95015 0.88542 0.48199 0.0
C1267 C 0.93648 0.87057 0.52032 0.0
C1268 C 0.93116 0.87549 0.57972 0.0
C1269 C 0.93943 0.89509 0.5998 0.0
C1270 C 0.95585 0.88106 0.41798 0.0
C1271 C 0.91712 0.85991 0.62223 0.0
H1272 H 0.88475 0.8328 0.41109 0.0
H1273 H 0.94825 0.80305 0.45117 0.0
H1274 H 0.88784 0.87376 0.51703 0.0
H1275 H 0.89813 0.8818 0.44286 0.0
H1276 H 0.87275 0.86401 0.45575 0.0
H1277 H 0.9716 0.81577 0.52651 0.0
H1278 H 0.97785 0.8429 0.4981 0.0
H1279 H 0.96255 0.83792 0.56893 0.0
H1280 H 0.96935 0.91583 0.47464 0.0
H1281 H 0.93563 0.89885 0.64538 0.0
H1282 H 0.93953 0.87816 0.39536 0.0
H1283 H 0.96598 0.86642 0.41525 0.0
H1284 H 0.9661 0.89451 0.39368 0.0
H1285 H 0.89988 0.85616 0.605 0.0
H1286 H 0.91437 0.86619 0.66687 0.0
H1287 H 0.92619 0.84466 0.62645 0.0
C1288 C 0.67215 0.00386 0.44843 0.0
C1289 C 0.67313 0.99146 0.39882 0.0
C1290 C 0.65297 0.00178 0.49048 0.0
C1291 C 0.63413 0.9871 0.48243 0.0
C1292 C 0.63574 0.97372 0.43398 0.0
C1293 C 0.65512 0.97614 0.39271 0.0
C1294 C 0.65216 0.01635 0.54132 0.0
C1295 C 0.61622 0.95785 0.42331 0.0
C1296 C 0.58705 0.9749 0.60843 0.0
C1297 C 0.56965 0.9889 0.59289 0.0
C1298 C 0.60804 0.97402 0.57305 0.0
C1299 C 0.61182 0.9874 0.5206 0.0
C1300 C 0.59416 0.00132 0.50435 0.0
C1301 C 0.57344 0.00192 0.54051 0.0
C1302 C 0.62631 0.95895 0.59217 0.0
C1303 C 0.59723 0.01582 0.44881 0.0
H1304 H 0.68573 0.0161 0.45246 0.0
H1305 H 0.65555 0.96691 0.35359 0.0
H1306 H 0.63877 0.02835 0.53443 0.0
H1307 H 0.64709 0.00711 0.58353 0.0
H1308 H 0.66918 0.02497 0.54558 0.0
H1309 H 0.62128 0.9469 0.38826 0.0
H1310 H 0.61079 0.94817 0.46456 0.0
H1311 H 0.60086 0.96658 0.40957 0.0
H1312 H 0.58445 0.96482 0.64881 0.0
H1313 H 0.56023 0.01281 0.52779 0.0
H1314 H 0.64261 0.96818 0.59976 0.0
H1315 H 0.63051 0.94797 0.55664 0.0
H1316 H 0.62061 0.94926 0.63333 0.0
H1317 H 0.6127 0.02683 0.45115 0.0
H1318 H 0.58179 0.02551 0.44184 0.0
H1319 H 0.60041 0.00619 0.40972 0.0
C1320 C 0.55283 0.61628 0.3789 0.0
C1321 C 0.56028 0.63752 0.38703 0.0
C1322 C 0.54912 0.60113 0.42635 0.0
C1323 C 0.552 0.60733 0.48452 0.0
C1324 C 0.55904 0.62879 0.49382 0.0
C1325 C 0.56323 0.64365 0.44486 0.0
C1326 C 0.54164 0.57847 0.41398 0.0
C1327 C 0.56178 0.63607 0.55541 0.0
C1328 C 0.51604 0.56906 0.59122 0.0
C1329 C 0.53259 0.5545 0.60825 0.0
C1330 C 0.52255 0.58754 0.55549 0.0
C1331 C 0.54614 0.59129 0.53477 0.0
C1332 C 0.56315 0.57723 0.55446 0.0
C1333 C 0.55619 0.55909 0.59166 0.0
C1334 C 0.50387 0.60227 0.53677 0.0
C1335 C 0.58841 0.58044 0.53273 0.0
H1336 H 0.54948 0.61139 0.33501 0.0
H1337 H 0.56887 0.65996 0.45191 0.0
H1338 H 0.55325 0.56696 0.43487 0.0
H1339 H 0.52369 0.57471 0.43338 0.0
H1340 H 0.54193 0.57588 0.36588 0.0
H1341 H 0.56803 0.65307 0.55523 0.0
H1342 H 0.54482 0.63409 0.58151 0.0
H1343 H 0.57424 0.626 0.57839 0.0
H1344 H 0.49781 0.56581 0.60507 0.0
H1345 H 0.56904 0.54792 0.60511 0.0
H1346 H 0.50026 0.59983 0.49006 0.0
H1347 H 0.50975 0.61924 0.5395 0.0
H1348 H 0.48734 0.59926 0.56441 0.0
H1349 H 0.59037 0.57641 0.48568 0.0
H1350 H 0.59988 0.57017 0.55862 0.0
H1351 H 0.59441 0.59739 0.535 0.0
C1352 C 0.86445 0.49311 0.43073 0.0
C1353 C 0.85647 0.47166 0.43757 0.0
C1354 C 0.88069 0.50139 0.46846 0.0
C1355 C 0.88892 0.48786 0.51405 0.0
C1356 C 0.879 0.46685 0.52466 0.0
C1357 C 0.86301 0.45896 0.48599 0.0
C1358 C 0.89068 0.5239 0.4558 0.0
C1359 C 0.88695 0.45197 0.57327 0.0
C1360 C 0.95253 0.49204 0.5484 0.0
C1361 C 0.95153 0.50121 0.60347 0.0
C1362 C 0.93237 0.48848 0.518 0.0
C1363 C 0.9105 0.49407 0.54337 0.0
C1364 C 0.90942 0.50408 0.59795 0.0
C1365 C 0.92999 0.50761 0.62734 0.0
C1366 C 0.93442 0.47797 0.45959 0.0
C1367 C 0.88646 0.51021 0.62648 0.0
H1368 H 0.85953 0.50288 0.39297 0.0
H1369 H 0.85679 0.44236 0.49125 0.0
H1370 H 0.89266 0.53211 0.49743 0.0
H1371 H 0.90825 0.52337 0.43307 0.0
H1372 H 0.87961 0.53349 0.42694 0.0
H1373 H 0.8751 0.43754 0.58157 0.0
H1374 H 0.90465 0.4467 0.56059 0.0
H1375 H 0.888 0.46028 0.61504 0.0
H1376 H 0.96911 0.48723 0.52935 0.0
H1377 H 0.92907 0.51467 0.66996 0.0
H1378 H 0.92607 0.48769 0.42512 0.0
H1379 H 0.92517 0.46203 0.46395 0.0
H1380 H 0.95284 0.47583 0.44422 0.0
H1381 H 0.87622 0.51897 0.59388 0.0
H1382 H 0.88885 0.5203 0.66464 0.0
H1383 H 0.87603 0.49553 0.64241 0.0
loop_
_geom_bond_atom_site_label_1
_geom_bond_atom_site_label_2
_geom_bond_distance
_geom_bond_site_symmetry_2
_ccdc_geom_bond_type
C0 C1 1.391 . S
C0 C4 1.391 . S
C0 H42 0.948 . S
C1 C0 1.391 . S
C1 C2 1.391 . S
C2 C1 1.391 . S
C2 H58 0.947 . S
C2 C59 1.392 . S
C3 C4 1.391 . S
C3 C7 1.397 . S
C3 C59 1.419 . S
C4 C0 1.391 . S
C4 C3 1.391 . S
C4 C5 1.399 . S
C5 C4 1.399 . S
C5 C8 1.396 . S
C5 C17 1.453 . S
C5 C18 1.684 . S
H6 C30 0.948 . S
C7 C3 1.397 . S
C7 C8 1.394 . S
C7 C26 1.723 . S
C8 C5 1.396 . S
C8 C7 1.394 . S
C8 C38 1.723 . S
H9 C32 0.947 . S
H10 C33 0.948 . S
H11 C39 0.982 1_554 S
H12 C40 0.977 1_554 S
H13 C40 0.980 . S
H14 C40 0.983 . S
H15 C39 0.979 . S
H16 C39 0.977 . S
C17 C5 1.453 . S
C17 H46 0.982 . S
C17 H47 0.979 . S
C17 H48 0.977 . S
C18 C5 1.684 . S
C18 H43 0.979 . S
C18 H44 0.980 . S
C18 H45 0.983 . S
C19 C20 1.391 1_554 S
C19 C24 1.391 . S
C19 H49 0.948 . S
C20 C19 1.391 1_556 S
C20 C21 1.391 . S
C21 C20 1.391 . S
C21 C22 1.392 . S
C21 H50 0.947 . S
C22 C21 1.392 . S
C22 C23 1.419 1_556 S
C22 H51 0.948 . S
C23 C22 1.419 1_554 S
C23 C24 1.391 . S
C23 C27 1.397 . S
C24 C19 1.391 . S
C24 C23 1.391 . S
C24 C25 1.399 . S
C25 C24 1.399 . S
C25 C26 1.396 . S
C25 C28 1.453 . S
C25 C29 1.684 . S
C26 C7 1.723 . S
C26 C25 1.396 . S
C26 C27 1.394 . S
C27 C23 1.397 . S
C27 C26 1.394 . S
C27 C37 1.723 . S
C28 C25 1.453 . S
C28 H52 0.982 . S
C28 H53 0.979 . S
C28 H54 0.977 . S
C29 C25 1.684 . S
C29 H55 0.979 . S
C29 H56 0.980 . S
C29 H57 0.983 . S
C30 H6 0.948 . S
C30 C31 1.391 . S
C30 C35 1.391 . S
C31 C30 1.391 . S
C31 C32 1.391 . S
C32 H9 0.947 . S
C32 C31 1.391 . S
C32 C33 1.392 . S
C33 H10 0.948 . S
C33 C32 1.392 . S
C33 C34 1.419 . S
C34 C33 1.419 . S
C34 C35 1.391 . S
C34 C38 1.397 . S
C35 C30 1.391 . S
C35 C34 1.391 . S
C35 C36 1.399 . S
C36 C35 1.399 . S
C36 C37 1.396 . S
C36 C39 1.453 1_554 S
C36 C40 1.684 1_554 S
C37 C27 1.723 . S
C37 C36 1.396 . S
C37 C38 1.394 . S
C38 C8 1.723 . S
C38 C34 1.397 . S
C38 C37 1.394 . S
C39 H11 0.982 1_556 S
C39 H15 0.979 . S
C39 H16 0.977 . S
C39 C36 1.453 1_556 S
C40 H12 0.977 1_556 S
C40 H13 0.980 . S
C40 H14 0.983 . S
C40 C36 1.684 1_556 S
H41 C59 0.948 . S
H42 C0 0.948 . S
H43 C18 0.979 . S
H44 C18 0.980 . S
H45 C18 0.983 . S
H46 C17 0.982 . S
H47 C17 0.979 . S
H48 C17 0.977 . S
H49 C19 0.948 . S
H50 C21 0.947 . S
H51 C22 0.948 . S
H52 C28 0.982 . S
H53 C28 0.979 . S
H54 C28 0.977 . S
H55 C29 0.979 . S
H56 C29 0.980 . S
H57 C29 0.983 . S
H58 C2 0.947 . S
C59 C2 1.392 . S
C59 C3 1.419 . S
C59 H41 0.948 . S
C60 C61 1.391 . S
C60 C64 1.391 . S
C60 H102 0.948 . S
C61 C60 1.391 . S
C61 C62 1.391 . S
C62 C61 1.391 . S
C62 H118 0.947 . S
C62 C119 1.392 . S
C63 C64 1.391 . S
C63 C67 1.397 . S
C63 C119 1.419 . S
C64 C60 1.391 . S
C64 C63 1.391 . S
C64 C65 1.399 . S
C65 C64 1.399 . S
C65 C68 1.396 . S
C65 C77 1.453 . S
C65 C78 1.684 . S
H66 C90 0.948 1_554 S
C67 C63 1.397 . S
C67 C68 1.394 . S
C67 C86 1.723 1_556 S
C68 C65 1.396 . S
C68 C67 1.394 . S
C68 C98 1.723 . S
H69 C92 0.947 . S
H70 C93 0.948 . S
H71 C99 0.982 . S
H72 C100 0.979 . S
H73 C100 0.980 . S
H74 C100 0.983 . S
H75 C99 0.979 . S
H76 C99 0.977 . S
C77 C65 1.453 . S
C77 H106 0.982 . S
C77 H107 0.979 . S
C77 H108 0.977 . S
C78 C65 1.684 . S
C78 H103 0.979 . S
C78 H104 0.980 . S
C78 H105 0.983 . S
C79 C80 1.391 . S
C79 C84 1.391 . S
C79 H109 0.948 . S
C80 C79 1.391 . S
C80 C81 1.391 . S
C81 C80 1.391 . S
C81 C82 1.392 . S
C81 H110 0.947 . S
C82 C81 1.392 . S
C82 C83 1.419 . S
C82 H111 0.948 . S
C83 C82 1.419 . S
C83 C84 1.391 . S
C83 C87 1.397 . S
C84 C79 1.391 . S
C84 C83 1.391 . S
C84 C85 1.399 . S
C85 C84 1.399 . S
C85 C86 1.396 . S
C85 C88 1.453 . S
C85 C89 1.684 . S
C86 C67 1.723 1_554 S
C86 C85 1.396 . S
C86 C87 1.394 . S
C87 C83 1.397 . S
C87 C86 1.394 . S
C87 C97 1.723 . S
C88 C85 1.453 . S
C88 H112 0.982 . S
C88 H113 0.979 . S
C88 H114 0.977 . S
C89 C85 1.684 . S
C89 H115 0.979 . S
C89 H116 0.980 . S
C89 H117 0.983 . S
C90 H66 0.948 1_556 S
C90 C91 1.391 . S
C90 C95 1.391 1_556 S
C91 C90 1.391 . S
C91 C92 1.391 . S
C92 H69 0.947 . S
C92 C91 1.391 . S
C92 C93 1.392 . S
C93 H70 0.948 . S
C93 C92 1.392 . S
C93 C94 1.419 . S
C94 C93 1.419 . S
C94 C95 1.391 1_556 S
C94 C98 1.397 . S
C95 C90 1.391 1_554 S
C95 C94 1.391 1_554 S
C95 C96 1.399 . S
C96 C95 1.399 . S
C96 C97 1.396 . S
C96 C99 1.453 . S
C96 C100 1.684 . S
C97 C87 1.723 . S
C97 C96 1.396 . S
C97 C98 1.394 1_554 S
C98 C68 1.723 . S
C98 C94 1.397 . S
C98 C97 1.394 1_556 S
C99 H71 0.982 . S
C99 H75 0.979 . S
C99 H76 0.977 . S
C99 C96 1.453 . S
C100 H72 0.979 . S
C100 H73 0.980 . S
C100 H74 0.983 . S
C100 C96 1.684 . S
H101 C119 0.948 . S
H102 C60 0.948 . S
H103 C78 0.979 . S
H104 C78 0.980 . S
H105 C78 0.983 . S
H106 C77 0.982 . S
H107 C77 0.979 . S
H108 C77 0.977 . S
H109 C79 0.948 . S
H110 C81 0.947 . S
H111 C82 0.948 . S
H112 C88 0.982 . S
H113 C88 0.979 . S
H114 C88 0.977 . S
H115 C89 0.979 . S
H116 C89 0.980 . S
H117 C89 0.983 . S
H118 C62 0.947 . S
C119 C62 1.392 . S
C119 C63 1.419 . S
C119 H101 0.948 . S
C120 C121 1.391 . S
C120 C124 1.391 . S
C120 H162 0.948 . S
C121 C120 1.391 . S
C121 C122 1.391 1_554 S
C122 C121 1.391 1_556 S
C122 H178 0.947 . S
C122 C179 1.392 . S
C123 C124 1.391 . S
C123 C127 1.397 1_565 S
C123 C179 1.419 1_554 S
C124 C120 1.391 . S
C124 C123 1.391 . S
C124 C125 1.399 . S
C125 C124 1.399 . S
C125 C128 1.396 1_565 S
C125 C137 1.453 1_565 S
C125 C138 1.684 . S
H126 C150 0.948 . S
C127 C123 1.397 1_545 S
C127 C128 1.394 . S
C127 C146 1.723 . S
C128 C125 1.396 1_545 S
C128 C127 1.394 . S
C128 C158 1.723 . S
H129 C152 0.947 . S
H130 C153 0.948 . S
H131 C159 0.982 . S
H132 C160 0.979 . S
H133 C160 0.980 . S
H134 C160 0.983 . S
H135 C159 0.979 . S
H136 C159 0.977 . S
C137 C125 1.453 1_545 S
C137 H166 0.982 . S
C137 H167 0.979 . S
C137 H168 0.977 . S
C138 C125 1.684 . S
C138 H163 0.979 . S
C138 H164 0.980 . S
C138 H165 0.983 . S
C139 C140 1.391 . S
C139 C144 1.391 . S
C139 H169 0.948 . S
C140 C139 1.391 . S
C140 C141 1.391 . S
C141 C140 1.391 . S
C141 C142 1.392 1_556 S
C141 H170 0.947 . S
C142 C141 1.392 1_554 S
C142 C143 1.419 . S
C142 H171 0.948 . S
C143 C142 1.419 . S
C143 C144 1.391 1_554 S
C143 C147 1.397 1_565 S
C144 C139 1.391 . S
C144 C143 1.391 1_556 S
C144 C145 1.399 . S
C145 C144 1.399 . S
C145 C146 1.396 1_566 S
C145 C148 1.453 1_565 S
C145 C149 1.684 . S
C146 C127 1.723 . S
C146 C145 1.396 1_544 S
C146 C147 1.394 . S
C147 C143 1.397 1_545 S
C147 C146 1.394 . S
C147 C157 1.722 . S
C148 C145 1.453 1_545 S
C148 H172 0.982 . S
C148 H173 0.979 . S
C148 H174 0.977 . S
C149 C145 1.684 . S
C149 H175 0.979 . S
C149 H176 0.980 . S
C149 H177 0.983 . S
C150 H126 0.948 . S
C150 C151 1.391 . S
C150 C155 1.391 . S
C151 C150 1.391 . S
C151 C152 1.391 . S
C152 H129 0.947 . S
C152 C151 1.391 . S
C152 C153 1.392 . S
C153 H130 0.948 . S
C153 C152 1.392 . S
C153 C154 1.419 . S
C154 C153 1.419 . S
C154 C155 1.391 . S
C154 C158 1.397 1_565 S
C155 C150 1.391 . S
C155 C154 1.391 . S
C155 C156 1.399 . S
C156 C155 1.399 . S
C156 C157 1.396 1_565 S
C156 C159 1.453 1_565 S
C156 C160 1.684 . S
C157 C147 1.722 . S
C157 C156 1.396 1_545 S
C157 C158 1.394 . S
C158 C128 1.723 . S
C158 C154 1.397 1_545 S
C158 C157 1.394 . S
C159 H131 0.982 . S
C159 H135 0.979 . S
C159 H136 0.977 . S
C159 C156 1.453 1_545 S
C160 H132 0.979 . S
C160 H133 0.980 . S
C160 H134 0.983 . S
C160 C156 1.684 . S
H161 C179 0.948 . S
H162 C120 0.948 . S
H163 C138 0.979 . S
H164 C138 0.980 . S
H165 C138 0.983 . S
H166 C137 0.982 . S
H167 C137 0.979 . S
H168 C137 0.977 . S
H169 C139 0.948 . S
H170 C141 0.947 . S
H171 C142 0.948 . S
H172 C148 0.982 . S
H173 C148 0.979 . S
H174 C148 0.977 . S
H175 C149 0.979 . S
H176 C149 0.980 . S
H177 C149 0.983 . S
H178 C122 0.947 . S
C179 C122 1.392 . S
C179 C123 1.419 1_556 S
C179 H161 0.948 . S
C180 C181 1.391 . S
C180 C184 1.391 . S
C180 H222 0.948 . S
C181 C180 1.391 . S
C181 C182 1.391 . S
C182 C181 1.391 . S
C182 H238 0.947 . S
C182 C239 1.392 . S
C183 C184 1.391 . S
C183 C187 1.397 . S
C183 C239 1.419 . S
C184 C180 1.391 . S
C184 C183 1.391 . S
C184 C185 1.399 . S
C185 C184 1.399 . S
C185 C188 1.396 . S
C185 C197 1.453 . S
C185 C198 1.684 . S
H186 C210 0.948 1_556 S
C187 C183 1.397 . S
C187 C188 1.394 . S
C187 C206 1.723 . S
C188 C185 1.396 . S
C188 C187 1.394 . S
C188 C218 1.723 . S
H189 C212 0.947 . S
H190 C213 0.948 . S
H191 C219 0.982 . S
H192 C220 0.979 . S
H193 C220 0.980 . S
H194 C220 0.983 . S
H195 C219 0.979 . S
H196 C219 0.977 . S
C197 C185 1.453 . S
C197 H226 0.982 . S
C197 H227 0.979 . S
C197 H228 0.977 . S
C198 C185 1.684 . S
C198 H223 0.979 . S
C198 H224 0.980 . S
C198 H225 0.983 . S
C199 C200 1.391 . S
C199 C204 1.391 1_556 S
C199 H229 0.948 . S
C200 C199 1.391 . S
C200 C201 1.391 . S
C201 C200 1.391 . S
C201 C202 1.392 . S
C201 H230 0.947 . S
C202 C201 1.392 . S
C202 C203 1.419 . S
C202 H231 0.948 . S
C203 C202 1.419 . S
C203 C204 1.391 1_556 S
C203 C207 1.397 1_556 S
C204 C199 1.391 1_554 S
C204 C203 1.391 1_554 S
C204 C205 1.399 . S
C205 C204 1.399 . S
C205 C206 1.396 . S
C205 C208 1.453 . S
C205 C209 1.684 . S
C206 C187 1.723 . S
C206 C205 1.396 . S
C206 C207 1.394 . S
C207 C203 1.397 1_554 S
C207 C206 1.394 . S
C207 C217 1.723 . S
C208 C205 1.453 . S
C208 H232 0.982 . S
C208 H233 0.979 . S
C208 H234 0.977 . S
C209 C205 1.684 . S
C209 H235 0.979 . S
C209 H236 0.980 . S
C209 H237 0.983 . S
C210 H186 0.948 1_554 S
C210 C211 1.391 . S
C210 C215 1.391 . S
C211 C210 1.391 . S
C211 C212 1.391 . S
C212 H189 0.947 . S
C212 C211 1.391 . S
C212 C213 1.392 . S
C213 H190 0.948 . S
C213 C212 1.392 . S
C213 C214 1.419 . S
C214 C213 1.419 . S
C214 C215 1.391 . S
C214 C218 1.397 . S
C215 C210 1.391 . S
C215 C214 1.391 . S
C215 C216 1.399 1_554 S
C216 C215 1.399 1_556 S
C216 C217 1.396 1_556 S
C216 C219 1.453 . S
C216 C220 1.684 . S
C217 C207 1.723 . S
C217 C216 1.396 1_554 S
C217 C218 1.394 . S
C218 C188 1.723 . S
C218 C214 1.397 . S
C218 C217 1.394 . S
C219 H191 0.982 . S
C219 H195 0.979 . S
C219 H196 0.977 . S
C219 C216 1.453 . S
C220 H192 0.979 . S
C220 H193 0.980 . S
C220 H194 0.983 . S
C220 C216 1.684 . S
H221 C239 0.948 . S
H222 C180 0.948 . S
H223 C198 0.979 . S
H224 C198 0.980 . S
H225 C198 0.983 . S
H226 C197 0.982 . S
H227 C197 0.979 . S
H228 C197 0.977 . S
H229 C199 0.948 . S
H230 C201 0.947 . S
H231 C202 0.948 . S
H232 C208 0.982 . S
H233 C208 0.979 . S
H234 C208 0.977 . S
H235 C209 0.979 . S
H236 C209 0.980 . S
H237 C209 0.983 . S
H238 C182 0.947 . S
C239 C182 1.392 . S
C239 C183 1.419 . S
C239 H221 0.948 . S
C240 C241 1.391 . S
C240 C244 1.391 . S
C240 H282 0.948 . S
C241 C240 1.391 . S
C241 C242 1.391 . S
C242 C241 1.391 . S
C242 H298 0.947 . S
C242 C299 1.392 . S
C243 C244 1.391 . S
C243 C247 1.397 . S
C243 C299 1.419 . S
C244 C240 1.391 . S
C244 C243 1.391 . S
C244 C245 1.399 . S
C245 C244 1.399 . S
C245 C248 1.396 . S
C245 C257 1.453 . S
C245 C258 1.684 . S
H246 C270 0.948 . S
C247 C243 1.397 . S
C247 C248 1.394 . S
C247 C266 1.723 . S
C248 C245 1.396 . S
C248 C247 1.394 . S
C248 C278 1.723 . S
H249 C272 0.957 . S
H250 C273 0.948 . S
H251 C279 0.982 . S
H252 C280 0.979 . S
H253 C280 0.980 . S
H254 C280 0.983 . S
H255 C279 0.979 . S
H256 C279 0.977 . S
C257 C245 1.453 . S
C257 H286 0.982 . S
C257 H287 0.979 . S
C257 H288 0.977 . S
C258 C245 1.684 . S
C258 H283 0.979 . S
C258 H284 0.980 . S
C258 H285 0.983 . S
C259 C260 1.391 . S
C259 C264 1.391 . S
C259 H289 0.948 . S
C260 C259 1.391 . S
C260 C261 1.391 . S
C261 C260 1.391 . S
C261 C262 1.392 . S
C261 H290 0.947 . S
C262 C261 1.392 . S
C262 C263 1.419 . S
C262 H291 0.948 . S
C263 C262 1.419 . S
C263 C264 1.391 . S
C263 C267 1.397 . S
C264 C259 1.391 . S
C264 C263 1.391 . S
C264 C265 1.399 . S
C265 C264 1.399 . S
C265 C266 1.396 . S
C265 C268 1.453 . S
C265 C269 1.684 . S
C266 C247 1.723 . S
C266 C265 1.396 . S
C266 C267 1.394 . S
C267 C263 1.397 . S
C267 C266 1.394 . S
C267 C277 1.723 . S
C268 C265 1.453 . S
C268 H292 0.982 . S
C268 H293 0.979 . S
C268 H294 0.977 . S
C269 C265 1.684 . S
C269 H295 0.979 . S
C269 H296 0.980 . S
C269 H297 0.983 . S
C270 H246 0.948 . S
C270 C271 1.391 . S
C270 C275 1.391 . S
C271 C270 1.391 . S
C271 C272 1.391 . S
C272 H249 0.957 . S
C272 C271 1.391 . S
C272 C273 1.392 . S
C273 H250 0.948 . S
C273 C272 1.392 . S
C273 C274 1.419 . S
C274 C273 1.419 . S
C274 C275 1.391 . S
C274 C278 1.397 . S
C275 C270 1.391 . S
C275 C274 1.391 . S
C275 C276 1.399 . S
C276 C275 1.399 . S
C276 C277 1.396 . S
C276 C279 1.453 . S
C276 C280 1.684 . S
C277 C267 1.723 . S
C277 C276 1.396 . S
C277 C278 1.394 . S
C278 C248 1.723 . S
C278 C274 1.397 . S
C278 C277 1.394 . S
C279 H251 0.982 . S
C279 H255 0.979 . S
C279 H256 0.977 . S
C279 C276 1.453 . S
C280 H252 0.979 . S
C280 H253 0.980 . S
C280 H254 0.983 . S
C280 C276 1.684 . S
H281 C299 0.948 . S
H282 C240 0.948 . S
H283 C258 0.979 . S
H284 C258 0.980 . S
H285 C258 0.983 . S
H286 C257 0.982 . S
H287 C257 0.979 . S
H288 C257 0.977 . S
H289 C259 0.948 . S
H290 C261 0.947 . S
H291 C262 0.948 . S
H292 C268 0.982 . S
H293 C268 0.979 . S
H294 C268 0.977 . S
H295 C269 0.979 . S
H296 C269 0.980 . S
H297 C269 0.983 . S
H298 C242 0.947 . S
C299 C242 1.392 . S
C299 C243 1.419 . S
C299 H281 0.948 . S
C300 C301 1.391 . S
C300 C304 1.391 . S
C300 H342 0.948 . S
C301 C300 1.391 . S
C301 C302 1.391 . S
C302 C301 1.391 . S
C302 H358 0.947 . S
C302 C359 1.392 . S
C303 C304 1.391 . S
C303 C307 1.397 . S
C303 C359 1.419 . S
C304 C300 1.391 . S
C304 C303 1.391 . S
C304 C305 1.399 . S
C305 C304 1.399 . S
C305 C308 1.396 . S
C305 C317 1.453 . S
C305 C318 1.684 . S
H306 C330 0.948 . S
C307 C303 1.397 . S
C307 C308 1.394 . S
C307 C326 1.723 . S
C308 C305 1.396 . S
C308 C307 1.394 . S
C308 C338 1.723 . S
H309 C332 0.947 . S
H310 C333 0.948 . S
H311 C339 0.982 . S
H312 C340 0.979 . S
H313 C340 0.980 . S
H314 C340 0.983 . S
H315 C339 0.979 . S
H316 C339 0.977 . S
C317 C305 1.453 . S
C317 H346 0.982 . S
C317 H347 0.979 . S
C317 H348 0.977 . S
C318 C305 1.684 . S
C318 H343 0.979 . S
C318 H344 0.980 . S
C318 H345 0.983 . S
C319 C320 1.391 . S
C319 C324 1.391 . S
C319 H349 0.948 . S
C320 C319 1.391 . S
C320 C321 1.391 . S
C321 C320 1.391 . S
C321 C322 1.392 . S
C321 H350 0.947 . S
C322 C321 1.392 . S
C322 C323 1.419 . S
C322 H351 0.948 . S
C323 C322 1.419 . S
C323 C324 1.391 . S
C323 C327 1.397 . S
C324 C319 1.391 . S
C324 C323 1.391 . S
C324 C325 1.399 . S
C325 C324 1.399 . S
C325 C326 1.396 . S
C325 C328 1.453 . S
C325 C329 1.684 . S
C326 C307 1.723 . S
C326 C325 1.396 . S
C326 C327 1.394 . S
C327 C323 1.397 . S
C327 C326 1.394 . S
C327 C337 1.723 . S
C328 C325 1.453 . S
C328 H352 0.982 . S
C328 H353 0.979 . S
C328 H354 0.977 . S
C329 C325 1.684 . S
C329 H355 0.979 . S
C329 H356 0.980 . S
C329 H357 0.983 . S
C330 H306 0.948 . S
C330 C331 1.391 . S
C330 C335 1.391 . S
C331 C330 1.391 . S
C331 C332 1.391 . S
C332 H309 0.947 . S
C332 C331 1.391 . S
C332 C333 1.392 . S
C333 H310 0.948 . S
C333 C332 1.392 . S
C333 C334 1.419 . S
C334 C333 1.419 . S
C334 C335 1.391 . S
C334 C338 1.397 . S
C335 C330 1.391 . S
C335 C334 1.391 . S
C335 C336 1.399 . S
C336 C335 1.399 . S
C336 C337 1.396 . S
C336 C339 1.453 . S
C336 C340 1.684 . S
C337 C327 1.723 . S
C337 C336 1.396 . S
C337 C338 1.394 . S
C338 C308 1.723 . S
C338 C334 1.397 . S
C338 C337 1.394 . S
C339 H311 0.982 . S
C339 H315 0.979 . S
C339 H316 0.977 . S
C339 C336 1.453 . S
C340 H312 0.979 . S
C340 H313 0.980 . S
C340 H314 0.983 . S
C340 C336 1.684 . S
H341 C359 0.948 . S
H342 C300 0.948 . S
H343 C318 0.979 . S
H344 C318 0.980 . S
H345 C318 0.983 . S
H346 C317 0.982 . S
H347 C317 0.979 . S
H348 C317 0.977 . S
H349 C319 0.948 . S
H350 C321 0.947 . S
H351 C322 0.948 . S
H352 C328 0.982 . S
H353 C328 0.979 . S
H354 C328 0.977 . S
H355 C329 0.979 . S
H356 C329 0.980 . S
H357 C329 0.983 . S
H358 C302 0.947 . S
C359 C302 1.392 . S
C359 C303 1.419 . S
C359 H341 0.948 . S
C360 C361 1.391 . S
C360 C364 1.391 . S
C360 H402 0.948 . S
C361 C360 1.391 . S
C361 C362 1.391 . S
C362 C361 1.391 . S
C362 H418 0.947 . S
C362 C419 1.392 . S
C363 C364 1.391 . S
C363 C367 1.397 1_545 S
C363 C419 1.419 . S
C364 C360 1.391 . S
C364 C363 1.391 . S
C364 C365 1.399 . S
C365 C364 1.399 . S
C365 C368 1.396 1_545 S
C365 C377 1.453 1_545 S
C365 C378 1.684 . S
H366 C390 0.948 . S
C367 C363 1.397 1_565 S
C367 C368 1.394 . S
C367 C386 1.723 . S
C368 C365 1.396 1_565 S
C368 C367 1.394 . S
C368 C398 1.722 . S
H369 C392 0.947 . S
H370 C393 0.948 . S
H371 C399 0.982 . S
H372 C400 0.979 . S
H373 C400 0.980 . S
H374 C400 0.983 . S
H375 C399 0.979 . S
H376 C399 0.977 . S
C377 C365 1.453 1_565 S
C377 H406 0.982 . S
C377 H407 0.979 . S
C377 H408 0.977 . S
C378 C365 1.684 . S
C378 H403 0.979 . S
C378 H404 0.980 . S
C378 H405 0.983 . S
C379 C380 1.391 . S
C379 C384 1.391 . S
C379 H409 0.948 . S
C380 C379 1.391 . S
C380 C381 1.391 . S
C381 C380 1.391 . S
C381 C382 1.392 . S
C381 H410 0.947 . S
C382 C381 1.392 . S
C382 C383 1.419 . S
C382 H411 0.948 . S
C383 C382 1.419 . S
C383 C384 1.391 . S
C383 C387 1.397 1_545 S
C384 C379 1.391 . S
C384 C383 1.391 . S
C384 C385 1.399 . S
C385 C384 1.399 . S
C385 C386 1.396 1_545 S
C385 C388 1.453 1_545 S
C385 C389 1.684 . S
C386 C367 1.723 . S
C386 C385 1.396 1_565 S
C386 C387 1.394 . S
C387 C383 1.397 1_565 S
C387 C386 1.394 . S
C387 C397 1.723 . S
C388 C385 1.453 1_565 S
C388 H412 0.982 . S
C388 H413 0.979 . S
C388 H414 0.977 . S
C389 C385 1.684 . S
C389 H415 0.979 . S
C389 H416 0.980 . S
C389 H417 0.983 . S
C390 H366 0.948 . S
C390 C391 1.391 . S
C390 C395 1.391 . S
C391 C390 1.391 . S
C391 C392 1.391 . S
C392 H369 0.947 . S
C392 C391 1.391 . S
C392 C393 1.392 . S
C393 H370 0.948 . S
C393 C392 1.392 . S
C393 C394 1.419 . S
C394 C393 1.419 . S
C394 C395 1.391 . S
C394 C398 1.397 1_545 S
C395 C390 1.391 . S
C395 C394 1.391 . S
C395 C396 1.399 . S
C396 C395 1.399 . S
C396 C397 1.396 1_545 S
C396 C399 1.453 1_545 S
C396 C400 1.684 . S
C397 C387 1.723 . S
C397 C396 1.396 1_565 S
C397 C398 1.394 . S
C398 C368 1.722 . S
C398 C394 1.397 1_565 S
C398 C397 1.394 . S
C399 H371 0.982 . S
C399 H375 0.979 . S
C399 H376 0.977 . S
C399 C396 1.453 1_565 S
C400 H372 0.979 . S
C400 H373 0.980 . S
C400 H374 0.983 . S
C400 C396 1.684 . S
H401 C419 0.948 . S
H402 C360 0.948 . S
H403 C378 0.979 . S
H404 C378 0.980 . S
H405 C378 0.983 . S
H406 C377 0.982 . S
H407 C377 0.979 . S
H408 C377 0.977 . S
H409 C379 0.948 . S
H410 C381 0.947 . S
H411 C382 0.948 . S
H412 C388 0.982 . S
H413 C388 0.979 . S
H414 C388 0.977 . S
H415 C389 0.979 . S
H416 C389 0.980 . S
H417 C389 0.983 . S
H418 C362 0.947 . S
C419 C362 1.392 . S
C419 C363 1.419 . S
C419 H401 0.948 . S
C420 C421 1.391 . S
C420 C424 1.391 . S
C420 H462 0.948 . S
C421 C420 1.391 . S
C421 C422 1.391 . S
C422 C421 1.391 . S
C422 H478 0.947 . S
C422 C479 1.392 . S
C423 C424 1.391 . S
C423 C427 1.397 . S
C423 C479 1.419 . S
C424 C420 1.391 . S
C424 C423 1.391 . S
C424 C425 1.399 . S
C425 C424 1.399 . S
C425 C428 1.396 . S
C425 C437 1.453 . S
C425 C438 1.684 . S
H426 C450 0.948 . S
C427 C423 1.397 . S
C427 C428 1.394 . S
C427 C446 1.723 . S
C428 C425 1.396 . S
C428 C427 1.394 . S
C428 C458 1.723 . S
H429 C452 0.947 . S
H430 C453 0.948 . S
H431 C459 0.982 . S
H432 C460 0.979 . S
H433 C460 0.980 . S
H434 C460 0.983 . S
H435 C459 0.979 . S
H436 C459 0.977 . S
C437 C425 1.453 . S
C437 H466 0.982 . S
C437 H467 0.979 . S
C437 H468 0.977 . S
C438 C425 1.684 . S
C438 H463 0.979 . S
C438 H464 0.980 . S
C438 H465 0.983 . S
C439 C440 1.391 . S
C439 C444 1.391 . S
C439 H469 0.948 . S
C440 C439 1.391 . S
C440 C441 1.391 . S
C441 C440 1.391 . S
C441 C442 1.392 . S
C441 H470 0.947 . S
C442 C441 1.392 . S
C442 C443 1.419 . S
C442 H471 0.948 . S
C443 C442 1.419 . S
C443 C444 1.391 . S
C443 C447 1.397 . S
C444 C439 1.391 . S
C444 C443 1.391 . S
C444 C445 1.399 . S
C445 C444 1.399 . S
C445 C446 1.396 . S
C445 C448 1.453 . S
C445 C449 1.684 . S
C446 C427 1.723 . S
C446 C445 1.396 . S
C446 C447 1.394 . S
C447 C443 1.397 . S
C447 C446 1.394 . S
C447 C457 1.723 . S
C448 C445 1.453 . S
C448 H472 0.982 . S
C448 H473 0.979 . S
C448 H474 0.977 . S
C449 C445 1.684 . S
C449 H475 0.979 . S
C449 H476 0.980 . S
C449 H477 0.983 . S
C450 H426 0.948 . S
C450 C451 1.391 . S
C450 C455 1.391 . S
C451 C450 1.391 . S
C451 C452 1.391 . S
C452 H429 0.947 . S
C452 C451 1.391 . S
C452 C453 1.392 . S
C453 H430 0.948 . S
C453 C452 1.392 . S
C453 C454 1.419 . S
C454 C453 1.419 . S
C454 C455 1.391 . S
C454 C458 1.397 . S
C455 C450 1.391 . S
C455 C454 1.391 . S
C455 C456 1.399 . S
C456 C455 1.399 . S
C456 C457 1.396 . S
C456 C459 1.453 . S
C456 C460 1.684 . S
C457 C447 1.723 . S
C457 C456 1.396 . S
C457 C458 1.394 . S
C458 C428 1.723 . S
C458 C454 1.397 . S
C458 C457 1.394 . S
C459 H431 0.982 . S
C459 H435 0.979 . S
C459 H436 0.977 . S
C459 C456 1.453 . S
C460 H432 0.979 . S
C460 H433 0.980 . S
C460 H434 0.983 . S
C460 C456 1.684 . S
H461 C479 0.948 . S
H462 C420 0.948 . S
H463 C438 0.979 . S
H464 C438 0.980 . S
H465 C438 0.983 . S
H466 C437 0.982 . S
H467 C437 0.979 . S
H468 C437 0.977 . S
H469 C439 0.948 . S
H470 C441 0.947 . S
H471 C442 0.948 . S
H472 C448 0.982 . S
H473 C448 0.979 . S
H474 C448 0.977 . S
H475 C449 0.979 . S
H476 C449 0.980 . S
H477 C449 0.983 . S
H478 C422 0.947 . S
C479 C422 1.392 . S
C479 C423 1.419 . S
C479 H461 0.948 . S
C480 O496 1.251 . S
C480 O498 1.254 1_655 S
N481 C482 1.333 . S
N481 C486 1.307 . S
N481 Zn487 2.020 . S
C482 N481 1.333 . S
C482 C483 1.379 . S
C482 H500 0.952 . S
C483 C482 1.379 . S
C483 C484 1.390 . S
C483 H510 0.949 . S
C484 C483 1.390 . S
C484 C485 1.357 . S
C485 C484 1.357 . S
C485 C486 1.370 . S
C485 H511 0.950 . S
C486 N481 1.307 . S
C486 C485 1.370 . S
C486 H504 0.946 . S
Zn487 N481 2.020 . S
Zn487 O496 2.039 . S
Zn487 O502 2.034 1_655 S
Zn487 O506 2.022 1_665 S
Zn487 O508 2.034 . S
C488 O507 1.246 . S
C488 O508 1.235 1_545 S
N489 C490 1.307 . S
N489 C491 1.333 . S
N489 Zn495 2.020 . S
C490 N489 1.307 . S
C490 C494 1.370 . S
C490 H501 0.958 . S
C491 N489 1.333 . S
C491 C492 1.379 . S
C491 H499 0.952 . S
C492 C491 1.379 . S
C492 C493 1.390 . S
C492 H512 0.949 . S
C493 C492 1.390 . S
C493 C494 1.357 . S
C494 C490 1.370 . S
C494 C493 1.357 . S
C494 H513 0.950 . S
Zn495 N489 2.020 . S
Zn495 O498 2.025 1_545 S
Zn495 O503 2.039 . S
Zn495 O505 2.039 . S
Zn495 O507 2.034 1_455 S
O496 C480 1.251 . S
O496 Zn487 2.039 . S
C497 O502 1.246 . S
C497 O503 1.230 1_565 S
O498 C480 1.254 1_455 S
O498 Zn495 2.025 1_565 S
H499 C491 0.952 . S
H500 C482 0.952 . S
H501 C490 0.958 . S
O502 Zn487 2.034 1_455 S
O502 C497 1.246 . S
O503 Zn495 2.039 . S
O503 C497 1.230 1_545 S
H504 C486 0.946 . S
O505 Zn495 2.039 . S
O505 C509 1.251 . S
O506 Zn487 2.022 1_445 S
O506 C509 1.264 . S
O507 C488 1.246 . S
O507 Zn495 2.034 1_655 S
O508 Zn487 2.034 . S
O508 C488 1.235 1_565 S
C509 O505 1.251 . S
C509 O506 1.264 . S
H510 C483 0.949 . S
H511 C485 0.950 . S
H512 C492 0.949 . S
H513 C494 0.950 . S
C514 O530 1.251 1_565 S
C514 O532 1.254 . S
N515 C516 1.333 . S
N515 C520 1.307 . S
N515 Zn521 2.020 . S
C516 N515 1.333 . S
C516 C517 1.379 . S
C516 H534 0.952 . S
C517 C516 1.379 . S
C517 C518 1.390 . S
C517 H544 0.949 . S
C518 C517 1.390 . S
C518 C519 1.357 . S
C519 C518 1.357 . S
C519 C520 1.370 . S
C519 H545 0.950 . S
C520 N515 1.307 . S
C520 C519 1.370 . S
C520 H538 0.948 . S
Zn521 N515 2.020 . S
Zn521 O530 2.039 . S
Zn521 O536 2.034 . S
Zn521 O540 2.025 . S
Zn521 O542 2.024 . S
C522 O541 1.246 1_545 S
C522 O542 1.249 . S
N523 C524 1.307 . S
N523 C525 1.333 . S
N523 Zn529 2.020 . S
C524 N523 1.307 . S
C524 C528 1.370 . S
C524 H535 0.948 . S
C525 N523 1.333 . S
C525 C526 1.379 . S
C525 H533 0.952 . S
C526 C525 1.379 . S
C526 C527 1.390 . S
C526 H546 0.949 . S
C527 C526 1.390 . S
C527 C528 1.357 . S
C528 C524 1.370 . S
C528 C527 1.357 . S
C528 H547 0.950 . S
Zn529 N523 2.020 . S
Zn529 O532 2.025 . S
Zn529 O537 2.024 . S
Zn529 O539 2.039 . S
Zn529 O541 2.034 . S
O530 C514 1.251 1_545 S
O530 Zn521 2.039 . S
C531 O536 1.246 1_565 S
C531 O537 1.249 . S
O532 C514 1.254 . S
O532 Zn529 2.025 . S
H533 C525 0.952 . S
H534 C516 0.952 . S
H535 C524 0.948 . S
O536 Zn521 2.034 . S
O536 C531 1.246 1_545 S
O537 Zn529 2.024 . S
O537 C531 1.249 . S
H538 C520 0.948 . S
O539 Zn529 2.039 . S
O539 C543 1.251 1_565 S
O540 Zn521 2.025 . S
O540 C543 1.254 . S
O541 C522 1.246 1_565 S
O541 Zn529 2.034 . S
O542 Zn521 2.024 . S
O542 C522 1.249 . S
C543 O539 1.251 1_545 S
C543 O540 1.254 . S
H544 C517 0.949 . S
H545 C519 0.950 . S
H546 C526 0.949 . S
H547 C528 0.950 . S
C548 O564 1.251 . S
C548 O566 1.254 . S
N549 C550 1.333 . S
N549 C554 1.307 . S
N549 Zn555 2.020 . S
C550 N549 1.333 . S
C550 C551 1.379 . S
C550 H568 0.952 . S
C551 C550 1.379 . S
C551 C552 1.390 . S
C551 H578 0.949 . S
C552 C551 1.390 . S
C552 C553 1.357 . S
C553 C552 1.357 . S
C553 C554 1.370 . S
C553 H579 0.950 . S
C554 N549 1.307 . S
C554 C553 1.370 . S
C554 H572 0.948 . S
Zn555 N549 2.020 . S
Zn555 O564 2.039 . S
Zn555 O570 2.034 . S
Zn555 O574 2.025 . S
Zn555 O576 2.024 . S
C556 O575 1.246 . S
C556 O576 1.249 . S
N557 C558 1.307 . S
N557 C559 1.333 . S
N557 Zn563 2.020 . S
C558 N557 1.307 . S
C558 C562 1.370 . S
C558 H569 0.948 . S
C559 N557 1.333 . S
C559 C560 1.379 . S
C559 H567 0.952 . S
C560 C559 1.379 . S
C560 C561 1.390 . S
C560 H580 0.949 . S
C561 C560 1.390 . S
C561 C562 1.357 . S
C562 C558 1.370 . S
C562 C561 1.357 . S
C562 H581 0.950 . S
Zn563 N557 2.020 . S
Zn563 O566 2.025 . S
Zn563 O571 2.024 . S
Zn563 O573 2.039 . S
Zn563 O575 2.034 . S
O564 C548 1.251 . S
O564 Zn555 2.039 . S
C565 O570 1.246 . S
C565 O571 1.249 . S
O566 C548 1.254 . S
O566 Zn563 2.025 . S
H567 C559 0.952 . S
H568 C550 0.952 . S
H569 C558 0.948 . S
O570 Zn555 2.034 . S
O570 C565 1.246 . S
O571 Zn563 2.024 . S
O571 C565 1.249 . S
H572 C554 0.948 . S
O573 Zn563 2.039 . S
O573 C577 1.251 . S
O574 Zn555 2.025 . S
O574 C577 1.254 . S
O575 C556 1.246 . S
O575 Zn563 2.034 . S
O576 Zn555 2.024 . S
O576 C556 1.249 . S
C577 O573 1.251 . S
C577 O574 1.254 . S
H578 C551 0.949 . S
H579 C553 0.950 . S
H580 C560 0.949 . S
H581 C562 0.950 . S
C582 O598 1.251 . S
C582 O600 1.254 . S
N583 C584 1.333 . S
N583 C588 1.307 . S
N583 Zn589 2.020 . S
C584 N583 1.333 . S
C584 C585 1.379 . S
C584 H602 0.952 . S
C585 C584 1.379 . S
C585 C586 1.390 . S
C585 H612 0.949 . S
C586 C585 1.390 . S
C586 C587 1.357 . S
C587 C586 1.357 . S
C587 C588 1.370 . S
C587 H613 0.950 . S
C588 N583 1.307 . S
C588 C587 1.370 . S
C588 H606 0.948 . S
Zn589 N583 2.020 . S
Zn589 O598 2.039 . S
Zn589 O604 2.034 1_455 S
Zn589 O608 2.025 1_455 S
Zn589 O610 2.024 . S
C590 O609 1.246 . S
C590 O610 1.249 . S
N591 C592 1.307 . S
N591 C593 1.333 . S
N591 Zn597 2.020 . S
C592 N591 1.307 . S
C592 C596 1.370 . S
C592 H603 0.948 . S
C593 N591 1.333 . S
C593 C594 1.379 . S
C593 H601 0.952 . S
C594 C593 1.379 . S
C594 C595 1.390 . S
C594 H614 0.949 . S
C595 C594 1.390 . S
C595 C596 1.357 . S
C596 C592 1.370 . S
C596 C595 1.357 . S
C596 H615 0.950 . S
Zn597 N591 2.020 . S
Zn597 O600 2.025 1_655 S
Zn597 O605 2.024 . S
Zn597 O607 2.039 . S
Zn597 O609 2.034 1_655 S
O598 C582 1.251 . S
O598 Zn589 2.039 . S
C599 O604 1.246 . S
C599 O605 1.249 . S
O600 C582 1.254 . S
O600 Zn597 2.025 1_455 S
H601 C593 0.952 . S
H602 C584 0.952 . S
H603 C592 0.948 . S
O604 Zn589 2.034 1_655 S
O604 C599 1.246 . S
O605 Zn597 2.024 . S
O605 C599 1.249 . S
H606 C588 0.948 . S
O607 Zn597 2.039 . S
O607 C611 1.251 . S
O608 Zn589 2.025 1_655 S
O608 C611 1.254 . S
O609 C590 1.246 . S
O609 Zn597 2.034 1_455 S
O610 Zn589 2.024 . S
O610 C590 1.249 . S
C611 O607 1.251 . S
C611 O608 1.254 . S
H612 C585 0.949 . S
H613 C587 0.950 . S
H614 C594 0.949 . S
H615 C596 0.950 . S
C616 C617 1.391 1_545 S
C616 C618 1.394 . S
C616 H632 0.931 . S
C617 C616 1.391 1_565 S
C617 C621 1.376 . S
C618 C616 1.394 . S
C618 C619 1.369 1_545 S
C618 C622 1.531 . S
C619 C618 1.369 1_565 S
C619 C620 1.410 . S
C619 C627 1.503 . S
C620 C619 1.410 . S
C620 C621 1.392 . S
C620 C623 1.511 . S
C621 C617 1.376 . S
C621 C620 1.392 . S
C621 H633 0.929 . S
C622 C618 1.531 . S
C622 H634 0.960 . S
C622 H635 0.962 . S
C622 H636 0.960 . S
C623 C620 1.511 . S
C623 H637 0.961 . S
C623 H638 0.961 . S
C623 H639 0.961 . S
C624 C625 1.370 1_545 S
C624 C626 1.363 . S
C624 H640 0.931 . S
C625 C624 1.370 1_565 S
C625 C629 1.408 . S
C626 C624 1.363 . S
C626 C627 1.370 1_545 S
C626 C630 1.524 . S
C627 C619 1.503 . S
C627 C626 1.370 1_565 S
C627 C628 1.403 . S
C628 C627 1.403 . S
C628 C629 1.404 . S
C628 C631 1.539 . S
C629 C625 1.408 . S
C629 C628 1.404 . S
C629 H641 0.930 . S
C630 C626 1.524 . S
C630 H642 0.956 . S
C630 H643 0.961 . S
C630 H644 0.961 . S
C631 C628 1.539 . S
C631 H645 0.958 . S
C631 H646 0.961 . S
C631 H647 0.960 . S
H632 C616 0.931 . S
H633 C621 0.929 . S
H634 C622 0.960 . S
H635 C622 0.962 . S
H636 C622 0.960 . S
H637 C623 0.961 . S
H638 C623 0.961 . S
H639 C623 0.961 . S
H640 C624 0.931 . S
H641 C629 0.930 . S
H642 C630 0.956 . S
H643 C630 0.961 . S
H644 C630 0.961 . S
H645 C631 0.958 . S
H646 C631 0.961 . S
H647 C631 0.960 . S
C648 C649 1.391 . S
C648 C650 1.394 . S
C648 H664 0.931 . S
C649 C648 1.391 . S
C649 C653 1.376 . S
C650 C648 1.394 . S
C650 C651 1.369 . S
C650 C654 1.531 . S
C651 C650 1.369 . S
C651 C652 1.410 . S
C651 C659 1.503 . S
C652 C651 1.410 . S
C652 C653 1.392 . S
C652 C655 1.511 . S
C653 C649 1.376 . S
C653 C652 1.392 . S
C653 H665 0.929 . S
C654 C650 1.531 . S
C654 H666 0.960 . S
C654 H667 0.962 . S
C654 H668 0.960 . S
C655 C652 1.511 . S
C655 H669 0.961 . S
C655 H670 0.961 . S
C655 H671 0.961 . S
C656 C657 1.370 . S
C656 C658 1.363 . S
C656 H672 0.931 . S
C657 C656 1.370 . S
C657 C661 1.408 . S
C658 C656 1.363 . S
C658 C659 1.370 . S
C658 C662 1.524 . S
C659 C651 1.503 . S
C659 C658 1.370 . S
C659 C660 1.403 . S
C660 C659 1.403 . S
C660 C661 1.404 . S
C660 C663 1.539 . S
C661 C657 1.408 . S
C661 C660 1.404 . S
C661 H673 0.930 . S
C662 C658 1.524 . S
C662 H674 0.956 . S
C662 H675 0.961 . S
C662 H676 0.961 . S
C663 C660 1.539 . S
C663 H677 0.958 . S
C663 H678 0.961 . S
C663 H679 0.960 . S
H664 C648 0.931 . S
H665 C653 0.929 . S
H666 C654 0.960 . S
H667 C654 0.962 . S
H668 C654 0.960 . S
H669 C655 0.961 . S
H670 C655 0.961 . S
H671 C655 0.961 . S
H672 C656 0.931 . S
H673 C661 0.930 . S
H674 C662 0.956 . S
H675 C662 0.961 . S
H676 C662 0.961 . S
H677 C663 0.958 . S
H678 C663 0.961 . S
H679 C663 0.960 . S
C680 C681 1.391 . S
C680 C682 1.394 . S
C680 H696 0.931 . S
C681 C680 1.391 . S
C681 C685 1.376 . S
C682 C680 1.394 . S
C682 C683 1.369 . S
C682 C686 1.531 . S
C683 C682 1.369 . S
C683 C684 1.410 . S
C683 C691 1.503 . S
C684 C683 1.410 . S
C684 C685 1.392 . S
C684 C687 1.511 . S
C685 C681 1.376 . S
C685 C684 1.392 . S
C685 H697 0.929 . S
C686 C682 1.531 . S
C686 H698 0.960 . S
C686 H699 0.962 . S
C686 H700 0.960 . S
C687 C684 1.511 . S
C687 H701 0.961 . S
C687 H702 0.961 . S
C687 H703 0.961 . S
C688 C689 1.370 . S
C688 C690 1.363 . S
C688 H704 0.931 . S
C689 C688 1.370 . S
C689 C693 1.408 . S
C690 C688 1.363 . S
C690 C691 1.370 . S
C690 C694 1.524 . S
C691 C683 1.503 . S
C691 C690 1.370 . S
C691 C692 1.403 . S
C692 C691 1.403 . S
C692 C693 1.404 . S
C692 C695 1.539 . S
C693 C689 1.408 . S
C693 C692 1.404 . S
C693 H705 0.930 . S
C694 C690 1.524 . S
C694 H706 0.956 . S
C694 H707 0.961 . S
C694 H708 0.961 . S
C695 C692 1.539 . S
C695 H709 0.958 . S
C695 H710 0.961 . S
C695 H711 0.960 . S
H696 C680 0.931 . S
H697 C685 0.929 . S
H698 C686 0.960 . S
H699 C686 0.962 . S
H700 C686 0.960 . S
H701 C687 0.961 . S
H702 C687 0.961 . S
H703 C687 0.961 . S
H704 C688 0.931 . S
H705 C693 0.930 . S
H706 C694 0.956 . S
H707 C694 0.961 . S
H708 C694 0.961 . S
H709 C695 0.958 . S
H710 C695 0.961 . S
H711 C695 0.960 . S
C712 C713 1.391 . S
C712 C714 1.394 . S
C712 H728 0.931 . S
C713 C712 1.391 . S
C713 C717 1.376 . S
C714 C712 1.394 . S
C714 C715 1.369 . S
C714 C718 1.531 . S
C715 C714 1.369 . S
C715 C716 1.410 . S
C715 C723 1.503 . S
C716 C715 1.410 . S
C716 C717 1.392 . S
C716 C719 1.511 . S
C717 C713 1.376 . S
C717 C716 1.392 . S
C717 H729 0.929 . S
C718 C714 1.531 . S
C718 H730 0.960 . S
C718 H731 0.962 . S
C718 H732 0.960 . S
C719 C716 1.511 . S
C719 H733 0.961 . S
C719 H734 0.961 . S
C719 H735 0.961 . S
C720 C721 1.370 . S
C720 C722 1.363 . S
C720 H736 0.931 . S
C721 C720 1.370 . S
C721 C725 1.408 . S
C722 C720 1.363 . S
C722 C723 1.370 . S
C722 C726 1.524 . S
C723 C715 1.503 . S
C723 C722 1.370 . S
C723 C724 1.403 . S
C724 C723 1.403 . S
C724 C725 1.404 . S
C724 C727 1.539 . S
C725 C721 1.408 . S
C725 C724 1.404 . S
C725 H737 0.930 . S
C726 C722 1.524 . S
C726 H738 0.956 . S
C726 H739 0.961 . S
C726 H740 0.961 . S
C727 C724 1.539 . S
C727 H741 0.958 . S
C727 H742 0.961 . S
C727 H743 0.960 . S
H728 C712 0.931 . S
H729 C717 0.929 . S
H730 C718 0.960 . S
H731 C718 0.962 . S
H732 C718 0.960 . S
H733 C719 0.961 . S
H734 C719 0.961 . S
H735 C719 0.961 . S
H736 C720 0.931 . S
H737 C725 0.930 . S
H738 C726 0.956 . S
H739 C726 0.961 . S
H740 C726 0.961 . S
H741 C727 0.958 . S
H742 C727 0.961 . S
H743 C727 0.960 . S
C744 C745 1.374 1_565 S
C744 C746 1.394 . S
C744 H760 0.938 . S
C745 C744 1.374 1_545 S
C745 C749 1.392 . S
C746 C744 1.394 . S
C746 C747 1.369 1_565 S
C746 C750 1.531 . S
C747 C746 1.369 1_545 S
C747 C748 1.410 . S
C747 C755 1.503 . S
C748 C747 1.410 . S
C748 C749 1.392 . S
C748 C751 1.511 . S
C749 C745 1.392 . S
C749 C748 1.392 . S
C749 H761 0.929 . S
C750 C746 1.531 . S
C750 H762 0.960 . S
C750 H763 0.962 . S
C750 H764 0.960 . S
C751 C748 1.511 . S
C751 H765 0.961 . S
C751 H766 0.961 . S
C751 H767 0.961 . S
C752 C753 1.370 . S
C752 C754 1.363 . S
C752 H768 0.931 . S
C753 C752 1.370 . S
C753 C757 1.408 1_545 S
C754 C752 1.363 . S
C754 C755 1.370 . S
C754 C758 1.524 . S
C755 C747 1.503 . S
C755 C754 1.370 . S
C755 C756 1.403 1_545 S
C756 C755 1.403 1_565 S
C756 C757 1.404 . S
C756 C759 1.539 . S
C757 C753 1.408 1_565 S
C757 C756 1.404 . S
C757 H769 0.930 . S
C758 C754 1.524 . S
C758 H770 0.956 . S
C758 H771 0.961 . S
C758 H772 0.961 . S
C759 C756 1.539 . S
C759 H773 0.958 . S
C759 H774 0.961 . S
C759 H775 0.960 . S
H760 C744 0.938 . S
H761 C749 0.929 . S
H762 C750 0.960 . S
H763 C750 0.962 . S
H764 C750 0.960 . S
H765 C751 0.961 . S
H766 C751 0.961 . S
H767 C751 0.961 . S
H768 C752 0.931 . S
H769 C757 0.930 . S
H770 C758 0.956 . S
H771 C758 0.961 . S
H772 C758 0.961 . S
H773 C759 0.958 . S
H774 C759 0.961 . S
H775 C759 0.960 . S
C776 C777 1.391 . S
C776 C778 1.394 . S
C776 H792 0.931 . S
C777 C776 1.391 . S
C777 C781 1.376 . S
C778 C776 1.394 . S
C778 C779 1.369 . S
C778 C782 1.531 . S
C779 C778 1.369 . S
C779 C780 1.410 . S
C779 C787 1.503 . S
C780 C779 1.410 . S
C780 C781 1.392 . S
C780 C783 1.511 . S
C781 C777 1.376 . S
C781 C780 1.392 . S
C781 H793 0.929 1_556 S
C782 C778 1.531 . S
C782 H794 0.960 . S
C782 H795 0.962 . S
C782 H796 0.960 . S
C783 C780 1.511 . S
C783 H797 0.961 . S
C783 H798 0.961 . S
C783 H799 0.961 . S
C784 C785 1.370 . S
C784 C786 1.363 . S
C784 H800 0.931 . S
C785 C784 1.370 . S
C785 C789 1.408 . S
C786 C784 1.363 . S
C786 C787 1.370 . S
C786 C790 1.524 . S
C787 C779 1.503 . S
C787 C786 1.370 . S
C787 C788 1.403 . S
C788 C787 1.403 . S
C788 C789 1.404 . S
C788 C791 1.539 . S
C789 C785 1.408 . S
C789 C788 1.404 . S
C789 H801 0.930 . S
C790 C786 1.524 . S
C790 H802 0.956 . S
C790 H803 0.961 . S
C790 H804 0.961 . S
C791 C788 1.539 . S
C791 H805 0.958 . S
C791 H806 0.961 . S
C791 H807 0.960 . S
H792 C776 0.931 . S
H793 C781 0.929 1_554 S
H794 C782 0.960 . S
H795 C782 0.962 . S
H796 C782 0.960 . S
H797 C783 0.961 . S
H798 C783 0.961 . S
H799 C783 0.961 . S
H800 C784 0.931 . S
H801 C789 0.930 . S
H802 C790 0.956 . S
H803 C790 0.961 . S
H804 C790 0.961 . S
H805 C791 0.958 . S
H806 C791 0.961 . S
H807 C791 0.960 . S
C808 C809 1.391 . S
C808 C810 1.394 . S
C808 H824 0.931 . S
C809 C808 1.391 . S
C809 C813 1.376 . S
C810 C808 1.394 . S
C810 C811 1.369 1_554 S
C810 C814 1.531 . S
C811 C810 1.369 1_556 S
C811 C812 1.410 . S
C811 C819 1.503 . S
C812 C811 1.410 . S
C812 C813 1.392 1_556 S
C812 C815 1.511 . S
C813 C809 1.376 . S
C813 C812 1.392 1_554 S
C813 H825 0.929 . S
C814 C810 1.531 . S
C814 H826 0.960 1_554 S
C814 H827 0.962 1_554 S
C814 H828 0.960 . S
C815 C812 1.511 . S
C815 H829 0.961 . S
C815 H830 0.961 . S
C815 H831 0.961 . S
C816 C817 1.370 . S
C816 C818 1.363 . S
C816 H832 0.931 . S
C817 C816 1.370 . S
C817 C821 1.408 . S
C818 C816 1.363 . S
C818 C819 1.370 . S
C818 C822 1.524 . S
C819 C811 1.503 . S
C819 C818 1.370 . S
C819 C820 1.403 . S
C820 C819 1.403 . S
C820 C821 1.404 . S
C820 C823 1.539 . S
C821 C817 1.408 . S
C821 C820 1.404 . S
C821 H833 0.930 . S
C822 C818 1.524 . S
C822 H834 0.956 . S
C822 H835 0.961 . S
C822 H836 0.961 . S
C823 C820 1.539 . S
C823 H837 0.958 . S
C823 H838 0.961 . S
C823 H839 0.960 . S
H824 C808 0.931 . S
H825 C813 0.929 . S
H826 C814 0.960 1_556 S
H827 C814 0.962 1_556 S
H828 C814 0.960 . S
H829 C815 0.961 . S
H830 C815 0.961 . S
H831 C815 0.961 . S
H832 C816 0.931 . S
H833 C821 0.930 . S
H834 C822 0.956 . S
H835 C822 0.961 . S
H836 C822 0.961 . S
H837 C823 0.958 . S
H838 C823 0.961 . S
H839 C823 0.960 . S
C840 C841 1.391 . S
C840 C842 1.394 . S
C840 H856 0.931 . S
C841 C840 1.391 . S
C841 C845 1.376 . S
C842 C840 1.394 . S
C842 C843 1.369 . S
C842 C846 1.531 . S
C843 C842 1.369 . S
C843 C844 1.410 . S
C843 C851 1.503 . S
C844 C843 1.410 . S
C844 C845 1.392 . S
C844 C847 1.511 . S
C845 C841 1.376 . S
C845 C844 1.392 . S
C845 H857 0.929 . S
C846 C842 1.531 . S
C846 H858 0.960 . S
C846 H859 0.962 . S
C846 H860 0.960 . S
C847 C844 1.511 . S
C847 H861 0.961 . S
C847 H862 0.961 . S
C847 H863 0.961 . S
C848 C849 1.370 . S
C848 C850 1.363 . S
C848 H864 0.931 . S
C849 C848 1.370 . S
C849 C853 1.408 . S
C850 C848 1.363 . S
C850 C851 1.370 . S
C850 C854 1.524 . S
C851 C843 1.503 . S
C851 C850 1.370 . S
C851 C852 1.403 . S
C852 C851 1.403 . S
C852 C853 1.404 . S
C852 C855 1.539 . S
C853 C849 1.408 . S
C853 C852 1.404 . S
C853 H865 0.930 . S
C854 C850 1.524 . S
C854 H866 0.956 . S
C854 H867 0.961 . S
C854 H868 0.961 . S
C855 C852 1.539 . S
C855 H869 0.958 . S
C855 H870 0.961 . S
C855 H871 0.960 . S
H856 C840 0.931 . S
H857 C845 0.929 . S
H858 C846 0.960 . S
H859 C846 0.962 . S
H860 C846 0.960 . S
H861 C847 0.961 . S
H862 C847 0.961 . S
H863 C847 0.961 . S
H864 C848 0.931 . S
H865 C853 0.930 . S
H866 C854 0.956 . S
H867 C854 0.961 . S
H868 C854 0.961 . S
H869 C855 0.958 . S
H870 C855 0.961 . S
H871 C855 0.960 . S
C872 C873 1.391 . S
C872 C874 1.394 . S
C872 H888 0.931 . S
C873 C872 1.391 . S
C873 C877 1.376 . S
C874 C872 1.394 . S
C874 C875 1.369 . S
C874 C878 1.531 . S
C875 C874 1.369 . S
C875 C876 1.410 . S
C875 C883 1.503 . S
C876 C875 1.410 . S
C876 C877 1.392 . S
C876 C879 1.511 . S
C877 C873 1.376 . S
C877 C876 1.392 . S
C877 H889 0.929 . S
C878 C874 1.531 . S
C878 H890 0.960 . S
C878 H891 0.962 . S
C878 H892 0.960 . S
C879 C876 1.511 . S
C879 H893 0.961 . S
C879 H894 0.961 . S
C879 H895 0.961 . S
C880 C881 1.370 . S
C880 C882 1.363 . S
C880 H896 0.931 1_455 S
C881 C880 1.370 . S
C881 C885 1.408 . S
C882 C880 1.363 . S
C882 C883 1.370 . S
C882 C886 1.524 . S
C883 C875 1.503 . S
C883 C882 1.370 . S
C883 C884 1.403 . S
C884 C883 1.403 . S
C884 C885 1.404 . S
C884 C887 1.539 . S
C885 C881 1.408 . S
C885 C884 1.404 . S
C885 H897 0.930 . S
C886 C882 1.524 . S
C886 H898 0.956 . S
C886 H899 0.961 . S
C886 H900 0.961 . S
C887 C884 1.539 . S
C887 H901 0.958 . S
C887 H902 0.961 . S
C887 H903 0.960 . S
H888 C872 0.931 . S
H889 C877 0.929 . S
H890 C878 0.960 . S
H891 C878 0.962 . S
H892 C878 0.960 . S
H893 C879 0.961 . S
H894 C879 0.961 . S
H895 C879 0.961 . S
H896 C880 0.931 1_655 S
H897 C885 0.930 . S
H898 C886 0.956 . S
H899 C886 0.961 . S
H900 C886 0.961 . S
H901 C887 0.958 . S
H902 C887 0.961 . S
H903 C887 0.960 . S
C904 C905 1.391 1_545 S
C904 C906 1.394 . S
C904 H920 0.931 . S
C905 C904 1.391 1_565 S
C905 C909 1.376 . S
C906 C904 1.394 . S
C906 C907 1.369 1_545 S
C906 C910 1.531 . S
C907 C906 1.369 1_565 S
C907 C908 1.410 . S
C907 C915 1.503 . S
C908 C907 1.410 . S
C908 C909 1.392 . S
C908 C911 1.511 . S
C909 C905 1.376 . S
C909 C908 1.392 . S
C909 H921 0.929 . S
C910 C906 1.531 . S
C910 H922 0.993 . S
C910 H923 0.962 . S
C910 H924 0.960 . S
C911 C908 1.511 . S
C911 H925 0.961 . S
C911 H926 0.961 . S
C911 H927 0.961 . S
C912 C913 1.370 1_545 S
C912 C914 1.363 . S
C912 H928 0.931 . S
C913 C912 1.370 1_565 S
C913 C917 1.408 . S
C914 C912 1.363 . S
C914 C915 1.370 1_545 S
C914 C918 1.524 . S
C915 C907 1.503 . S
C915 C914 1.370 1_565 S
C915 C916 1.403 . S
C916 C915 1.403 . S
C916 C917 1.404 . S
C916 C919 1.539 . S
C917 C913 1.408 . S
C917 C916 1.404 . S
C917 H929 0.930 . S
C918 C914 1.524 . S
C918 H930 0.956 . S
C918 H931 0.961 . S
C918 H932 0.961 . S
C919 C916 1.539 . S
C919 H933 0.958 . S
C919 H934 0.961 . S
C919 H935 0.960 . S
H920 C904 0.931 . S
H921 C909 0.929 . S
H922 C910 0.993 . S
H923 C910 0.962 . S
H924 C910 0.960 . S
H925 C911 0.961 . S
H926 C911 0.961 . S
H927 C911 0.961 . S
H928 C912 0.931 . S
H929 C917 0.930 . S
H930 C918 0.956 . S
H931 C918 0.961 . S
H932 C918 0.961 . S
H933 C919 0.958 . S
H934 C919 0.961 . S
H935 C919 0.960 . S
C936 C937 1.391 . S
C936 C938 1.394 . S
C936 H952 0.931 . S
C937 C936 1.391 . S
C937 C941 1.376 . S
C938 C936 1.394 . S
C938 C939 1.369 . S
C938 C942 1.531 . S
C939 C938 1.369 . S
C939 C940 1.410 . S
C939 C947 1.503 . S
C940 C939 1.410 . S
C940 C941 1.392 . S
C940 C943 1.511 . S
C941 C937 1.376 . S
C941 C940 1.392 . S
C941 H953 0.929 . S
C942 C938 1.531 . S
C942 H954 0.960 . S
C942 H955 0.962 . S
C942 H956 0.960 . S
C943 C940 1.511 . S
C943 H957 0.961 . S
C943 H958 0.961 . S
C943 H959 0.961 . S
C944 C945 1.370 . S
C944 C946 1.363 . S
C944 H960 0.931 . S
C945 C944 1.370 . S
C945 C949 1.408 . S
C946 C944 1.363 . S
C946 C947 1.370 . S
C946 C950 1.524 . S
C947 C939 1.503 . S
C947 C946 1.370 . S
C947 C948 1.403 . S
C948 C947 1.403 . S
C948 C949 1.404 . S
C948 C951 1.539 . S
C949 C945 1.408 . S
C949 C948 1.404 . S
C949 H961 0.930 . S
C950 C946 1.524 . S
C950 H962 0.956 . S
C950 H963 0.961 . S
C950 H964 0.961 . S
C951 C948 1.539 . S
C951 H965 0.958 . S
C951 H966 0.961 . S
C951 H967 0.960 . S
H952 C936 0.931 . S
H953 C941 0.929 . S
H954 C942 0.960 . S
H955 C942 0.962 . S
H956 C942 0.960 . S
H957 C943 0.961 . S
H958 C943 0.961 . S
H959 C943 0.961 . S
H960 C944 0.931 . S
H961 C949 0.930 . S
H962 C950 0.956 . S
H963 C950 0.961 . S
H964 C950 0.961 . S
H965 C951 0.958 . S
H966 C951 0.961 . S
H967 C951 0.960 . S
C968 C969 1.391 . S
C968 C970 1.394 . S
C968 H984 0.931 . S
C969 C968 1.391 . S
C969 C973 1.376 . S
C970 C968 1.394 . S
C970 C971 1.369 . S
C970 C974 1.531 . S
C971 C970 1.369 . S
C971 C972 1.410 . S
C971 C979 1.503 . S
C972 C971 1.410 . S
C972 C973 1.392 . S
C972 C975 1.511 . S
C973 C969 1.376 . S
C973 C972 1.392 . S
C973 H985 0.929 . S
C974 C970 1.531 . S
C974 H986 0.960 . S
C974 H987 0.962 . S
C974 H988 0.960 . S
C975 C972 1.511 . S
C975 H989 0.961 . S
C975 H990 0.961 . S
C975 H991 0.961 . S
C976 C977 1.370 . S
C976 C978 1.363 . S
C976 H992 0.931 . S
C977 C976 1.370 . S
C977 C981 1.408 . S
C978 C976 1.363 . S
C978 C979 1.370 . S
C978 C982 1.524 . S
C979 C971 1.503 . S
C979 C978 1.370 . S
C979 C980 1.403 . S
C980 C979 1.403 . S
C980 C981 1.404 . S
C980 C983 1.539 . S
C981 C977 1.408 . S
C981 C980 1.404 . S
C981 H993 0.930 . S
C982 C978 1.524 . S
C982 H994 0.956 . S
C982 H995 0.961 . S
C982 H996 0.961 . S
C983 C980 1.539 . S
C983 H997 0.958 . S
C983 H998 0.961 . S
C983 H999 0.960 . S
H984 C968 0.931 . S
H985 C973 0.929 . S
H986 C974 0.960 . S
H987 C974 0.962 . S
H988 C974 0.960 . S
H989 C975 0.961 . S
H990 C975 0.961 . S
H991 C975 0.961 . S
H992 C976 0.931 . S
H993 C981 0.930 . S
H994 C982 0.956 . S
H995 C982 0.961 . S
H996 C982 0.961 . S
H997 C983 0.958 . S
H998 C983 0.961 . S
H999 C983 0.960 . S
C1000 C1001 1.391 . S
C1000 C1002 1.394 . S
C1000 H1016 0.931 . S
C1001 C1000 1.391 . S
C1001 C1005 1.376 . S
C1002 C1000 1.394 . S
C1002 C1003 1.369 . S
C1002 C1006 1.531 . S
C1003 C1002 1.369 . S
C1003 C1004 1.410 . S
C1003 C1011 1.503 . S
C1004 C1003 1.410 . S
C1004 C1005 1.392 . S
C1004 C1007 1.511 . S
C1005 C1001 1.376 . S
C1005 C1004 1.392 . S
C1005 H1017 0.929 . S
C1006 C1002 1.531 . S
C1006 H1018 0.960 . S
C1006 H1019 0.962 . S
C1006 H1020 0.960 . S
C1007 C1004 1.511 . S
C1007 H1021 0.961 . S
C1007 H1022 0.961 . S
C1007 H1023 0.961 . S
C1008 C1009 1.370 . S
C1008 C1010 1.363 . S
C1008 H1024 0.931 . S
C1009 C1008 1.370 . S
C1009 C1013 1.408 . S
C1010 C1008 1.363 . S
C1010 C1011 1.370 . S
C1010 C1014 1.524 . S
C1011 C1003 1.503 . S
C1011 C1010 1.370 . S
C1011 C1012 1.403 . S
C1012 C1011 1.403 . S
C1012 C1013 1.404 . S
C1012 C1015 1.539 . S
C1013 C1009 1.408 . S
C1013 C1012 1.404 . S
C1013 H1025 0.930 1_655 S
C1014 C1010 1.524 . S
C1014 H1026 0.956 . S
C1014 H1027 0.961 . S
C1014 H1028 0.961 . S
C1015 C1012 1.539 . S
C1015 H1029 0.958 . S
C1015 H1030 0.961 . S
C1015 H1031 0.960 . S
H1016 C1000 0.931 . S
H1017 C1005 0.929 . S
H1018 C1006 0.960 . S
H1019 C1006 0.962 . S
H1020 C1006 0.960 . S
H1021 C1007 0.961 . S
H1022 C1007 0.961 . S
H1023 C1007 0.961 . S
H1024 C1008 0.931 . S
H1025 C1013 0.930 1_455 S
H1026 C1014 0.956 . S
H1027 C1014 0.961 . S
H1028 C1014 0.961 . S
H1029 C1015 0.958 . S
H1030 C1015 0.961 . S
H1031 C1015 0.960 . S
C1032 C1033 1.391 . S
C1032 C1034 1.394 . S
C1032 H1048 0.931 . S
C1033 C1032 1.391 . S
C1033 C1037 1.376 . S
C1034 C1032 1.394 . S
C1034 C1035 1.369 . S
C1034 C1038 1.531 . S
C1035 C1034 1.369 . S
C1035 C1036 1.410 . S
C1035 C1043 1.503 1_565 S
C1036 C1035 1.410 . S
C1036 C1037 1.392 . S
C1036 C1039 1.517 . S
C1037 C1033 1.376 . S
C1037 C1036 1.392 . S
C1037 H1049 0.929 . S
C1038 C1034 1.531 . S
C1038 H1050 0.960 . S
C1038 H1051 0.962 1_565 S
C1038 H1052 0.960 . S
C1039 C1036 1.517 . S
C1039 H1053 0.937 1_565 S
C1039 H1054 0.934 1_565 S
C1039 H1055 1.008 . S
C1040 C1041 1.370 . S
C1040 C1042 1.363 . S
C1040 H1056 0.931 . S
C1041 C1040 1.370 . S
C1041 C1045 1.408 1_545 S
C1042 C1040 1.363 . S
C1042 C1043 1.370 . S
C1042 C1046 1.524 . S
C1043 C1035 1.503 1_545 S
C1043 C1042 1.370 . S
C1043 C1044 1.403 1_545 S
C1044 C1043 1.403 1_565 S
C1044 C1045 1.404 . S
C1044 C1047 1.539 . S
C1045 C1041 1.408 1_565 S
C1045 C1044 1.404 . S
C1045 H1057 0.930 . S
C1046 C1042 1.524 . S
C1046 H1058 0.956 . S
C1046 H1059 0.961 . S
C1046 H1060 0.961 . S
C1047 C1044 1.539 . S
C1047 H1061 0.958 . S
C1047 H1062 0.961 . S
C1047 H1063 0.960 . S
H1048 C1032 0.931 . S
H1049 C1037 0.929 . S
H1050 C1038 0.960 . S
H1051 C1038 0.962 1_545 S
H1052 C1038 0.960 . S
H1053 C1039 0.937 1_545 S
H1054 C1039 0.934 1_545 S
H1055 C1039 1.008 . S
H1056 C1040 0.931 . S
H1057 C1045 0.930 . S
H1058 C1046 0.956 . S
H1059 C1046 0.961 . S
H1060 C1046 0.961 . S
H1061 C1047 0.958 . S
H1062 C1047 0.961 . S
H1063 C1047 0.960 . S
C1064 C1065 1.391 . S
C1064 C1066 1.394 . S
C1064 H1080 0.931 . S
C1065 C1064 1.391 . S
C1065 C1069 1.376 . S
C1066 C1064 1.394 . S
C1066 C1067 1.369 . S
C1066 C1070 1.531 . S
C1067 C1066 1.369 . S
C1067 C1068 1.410 . S
C1067 C1075 1.503 . S
C1068 C1067 1.410 . S
C1068 C1069 1.392 . S
C1068 C1071 1.511 . S
C1069 C1065 1.376 . S
C1069 C1068 1.392 . S
C1069 H1081 0.929 . S
C1070 C1066 1.531 . S
C1070 H1082 0.960 . S
C1070 H1083 0.962 . S
C1070 H1084 0.960 . S
C1071 C1068 1.511 . S
C1071 H1085 0.961 . S
C1071 H1086 0.961 . S
C1071 H1087 0.961 . S
C1072 C1073 1.370 . S
C1072 C1074 1.363 . S
C1072 H1088 0.931 . S
C1073 C1072 1.370 . S
C1073 C1077 1.408 . S
C1074 C1072 1.363 . S
C1074 C1075 1.370 . S
C1074 C1078 1.524 . S
C1075 C1067 1.503 . S
C1075 C1074 1.370 . S
C1075 C1076 1.403 . S
C1076 C1075 1.403 . S
C1076 C1077 1.404 . S
C1076 C1079 1.539 . S
C1077 C1073 1.408 . S
C1077 C1076 1.404 . S
C1077 H1089 0.930 . S
C1078 C1074 1.524 . S
C1078 H1090 0.956 . S
C1078 H1091 0.961 . S
C1078 H1092 0.961 . S
C1079 C1076 1.539 . S
C1079 H1093 0.958 . S
C1079 H1094 0.961 . S
C1079 H1095 0.960 . S
H1080 C1064 0.931 . S
H1081 C1069 0.929 . S
H1082 C1070 0.960 . S
H1083 C1070 0.962 . S
H1084 C1070 0.960 . S
H1085 C1071 0.961 . S
H1086 C1071 0.961 . S
H1087 C1071 0.961 . S
H1088 C1072 0.931 . S
H1089 C1077 0.930 . S
H1090 C1078 0.956 . S
H1091 C1078 0.961 . S
H1092 C1078 0.961 . S
H1093 C1079 0.958 . S
H1094 C1079 0.961 . S
H1095 C1079 0.960 . S
C1096 C1097 1.391 . S
C1096 C1098 1.394 . S
C1096 H1112 0.931 . S
C1097 C1096 1.391 . S
C1097 C1101 1.376 . S
C1098 C1096 1.394 . S
C1098 C1099 1.369 . S
C1098 C1102 1.531 . S
C1099 C1098 1.369 . S
C1099 C1100 1.410 . S
C1099 C1107 1.503 . S
C1100 C1099 1.410 . S
C1100 C1101 1.392 . S
C1100 C1103 1.511 . S
C1101 C1097 1.376 . S
C1101 C1100 1.392 . S
C1101 H1113 0.929 . S
C1102 C1098 1.531 . S
C1102 H1114 0.960 . S
C1102 H1115 0.962 . S
C1102 H1116 0.960 . S
C1103 C1100 1.511 . S
C1103 H1117 0.961 . S
C1103 H1118 0.961 . S
C1103 H1119 0.961 . S
C1104 C1105 1.370 . S
C1104 C1106 1.363 . S
C1104 H1120 0.931 . S
C1105 C1104 1.370 . S
C1105 C1109 1.408 . S
C1106 C1104 1.363 . S
C1106 C1107 1.370 . S
C1106 C1110 1.524 . S
C1107 C1099 1.503 . S
C1107 C1106 1.370 . S
C1107 C1108 1.403 . S
C1108 C1107 1.403 . S
C1108 C1109 1.404 . S
C1108 C1111 1.539 . S
C1109 C1105 1.408 . S
C1109 C1108 1.404 . S
C1109 H1121 0.930 . S
C1110 C1106 1.524 . S
C1110 H1122 0.956 . S
C1110 H1123 0.961 . S
C1110 H1124 0.961 . S
C1111 C1108 1.539 . S
C1111 H1125 0.958 . S
C1111 H1126 0.961 . S
C1111 H1127 0.960 . S
H1112 C1096 0.931 . S
H1113 C1101 0.929 . S
H1114 C1102 0.960 . S
H1115 C1102 0.962 . S
H1116 C1102 0.960 . S
H1117 C1103 0.961 . S
H1118 C1103 0.961 . S
H1119 C1103 0.961 . S
H1120 C1104 0.931 . S
H1121 C1109 0.930 . S
H1122 C1110 0.956 . S
H1123 C1110 0.961 . S
H1124 C1110 0.961 . S
H1125 C1111 0.958 . S
H1126 C1111 0.961 . S
H1127 C1111 0.960 . S
C1128 C1129 1.391 . S
C1128 C1130 1.394 . S
C1128 H1144 0.931 . S
C1129 C1128 1.391 . S
C1129 C1133 1.376 . S
C1130 C1128 1.394 . S
C1130 C1131 1.369 . S
C1130 C1134 1.531 1_554 S
C1131 C1130 1.369 . S
C1131 C1132 1.410 . S
C1131 C1139 1.503 . S
C1132 C1131 1.410 . S
C1132 C1133 1.392 . S
C1132 C1135 1.511 . S
C1133 C1129 1.376 . S
C1133 C1132 1.392 . S
C1133 H1145 0.929 . S
C1134 C1130 1.531 1_556 S
C1134 H1146 0.960 . S
C1134 H1147 0.962 . S
C1134 H1148 0.960 . S
C1135 C1132 1.511 . S
C1135 H1149 0.961 . S
C1135 H1150 0.961 . S
C1135 H1151 0.961 . S
C1136 C1137 1.370 1_554 S
C1136 C1138 1.363 . S
C1136 H1152 0.931 . S
C1137 C1136 1.370 1_556 S
C1137 C1141 1.408 . S
C1138 C1136 1.363 . S
C1138 C1139 1.370 . S
C1138 C1142 1.524 . S
C1139 C1131 1.503 . S
C1139 C1138 1.370 . S
C1139 C1140 1.403 1_554 S
C1140 C1139 1.403 1_556 S
C1140 C1141 1.404 . S
C1140 C1143 1.539 . S
C1141 C1137 1.408 . S
C1141 C1140 1.404 . S
C1141 H1153 0.930 . S
C1142 C1138 1.524 . S
C1142 H1154 0.956 . S
C1142 H1155 0.961 . S
C1142 H1156 0.961 . S
C1143 C1140 1.539 . S
C1143 H1157 0.958 . S
C1143 H1158 0.961 . S
C1143 H1159 0.960 . S
H1144 C1128 0.931 . S
H1145 C1133 0.929 . S
H1146 C1134 0.960 . S
H1147 C1134 0.962 . S
H1148 C1134 0.960 . S
H1149 C1135 0.961 . S
H1150 C1135 0.961 . S
H1151 C1135 0.961 . S
H1152 C1136 0.931 . S
H1153 C1141 0.930 . S
H1154 C1142 0.956 . S
H1155 C1142 0.961 . S
H1156 C1142 0.961 . S
H1157 C1143 0.958 . S
H1158 C1143 0.961 . S
H1159 C1143 0.960 . S
C1160 C1161 1.351 1_566 S
C1160 C1162 1.394 . S
C1160 H1176 0.932 . S
C1161 C1160 1.351 1_544 S
C1161 C1165 1.415 1_554 S
C1162 C1160 1.394 . S
C1162 C1163 1.369 1_565 S
C1162 C1166 1.531 . S
C1163 C1162 1.369 1_545 S
C1163 C1164 1.410 . S
C1163 C1171 1.503 . S
C1164 C1163 1.410 . S
C1164 C1165 1.392 . S
C1164 C1167 1.511 . S
C1165 C1161 1.415 1_556 S
C1165 C1164 1.392 . S
C1165 H1177 0.929 1_556 S
C1166 C1162 1.531 . S
C1166 H1178 0.960 . S
C1166 H1179 0.962 . S
C1166 H1180 0.960 . S
C1167 C1164 1.511 . S
C1167 H1181 0.961 . S
C1167 H1182 0.961 . S
C1167 H1183 0.961 . S
C1168 C1169 1.372 . S
C1168 C1170 1.363 . S
C1168 H1184 0.928 1_545 S
C1169 C1168 1.372 . S
C1169 C1173 1.408 . S
C1170 C1168 1.363 . S
C1170 C1171 1.372 . S
C1170 C1174 1.524 1_546 S
C1171 C1163 1.503 . S
C1171 C1170 1.372 . S
C1171 C1172 1.403 . S
C1172 C1171 1.403 . S
C1172 C1173 1.404 . S
C1172 C1175 1.539 . S
C1173 C1169 1.408 . S
C1173 C1172 1.404 . S
C1173 H1185 0.930 . S
C1174 C1170 1.524 1_564 S
C1174 H1186 0.956 . S
C1174 H1187 0.961 1_565 S
C1174 H1188 0.961 . S
C1175 C1172 1.539 . S
C1175 H1189 0.958 1_545 S
C1175 H1190 0.961 . S
C1175 H1191 0.960 . S
H1176 C1160 0.932 . S
H1177 C1165 0.929 1_554 S
H1178 C1166 0.960 . S
H1179 C1166 0.962 . S
H1180 C1166 0.960 . S
H1181 C1167 0.961 . S
H1182 C1167 0.961 . S
H1183 C1167 0.961 . S
H1184 C1168 0.928 1_565 S
H1185 C1173 0.930 . S
H1186 C1174 0.956 . S
H1187 C1174 0.961 1_545 S
H1188 C1174 0.961 . S
H1189 C1175 0.958 1_565 S
H1190 C1175 0.961 . S
H1191 C1175 0.960 . S
C1192 C1193 1.396 . S
C1192 C1194 1.386 1_554 S
C1192 H1208 0.934 . S
C1193 C1192 1.396 . S
C1193 C1197 1.376 . S
C1194 C1192 1.386 1_556 S
C1194 C1195 1.369 . S
C1194 C1198 1.531 . S
C1195 C1194 1.369 . S
C1195 C1196 1.410 . S
C1195 C1203 1.503 . S
C1196 C1195 1.410 . S
C1196 C1197 1.392 1_556 S
C1196 C1199 1.511 . S
C1197 C1193 1.376 . S
C1197 C1196 1.392 1_554 S
C1197 H1209 0.929 . S
C1198 C1194 1.531 . S
C1198 H1210 0.960 . S
C1198 H1211 0.962 . S
C1198 H1212 0.960 . S
C1199 C1196 1.511 . S
C1199 H1213 0.961 . S
C1199 H1214 0.961 . S
C1199 H1215 0.961 . S
C1200 C1201 1.370 . S
C1200 C1202 1.363 . S
C1200 H1216 0.931 . S
C1201 C1200 1.370 . S
C1201 C1205 1.408 . S
C1202 C1200 1.363 . S
C1202 C1203 1.370 . S
C1202 C1206 1.524 . S
C1203 C1195 1.503 . S
C1203 C1202 1.370 . S
C1203 C1204 1.403 . S
C1204 C1203 1.403 . S
C1204 C1205 1.404 . S
C1204 C1207 1.539 1_556 S
C1205 C1201 1.408 . S
C1205 C1204 1.404 . S
C1205 H1217 0.930 . S
C1206 C1202 1.524 . S
C1206 H1218 0.956 . S
C1206 H1219 0.961 . S
C1206 H1220 0.961 . S
C1207 C1204 1.539 1_554 S
C1207 H1221 0.958 . S
C1207 H1222 0.961 . S
C1207 H1223 0.960 . S
H1208 C1192 0.934 . S
H1209 C1197 0.929 . S
H1210 C1198 0.960 . S
H1211 C1198 0.962 . S
H1212 C1198 0.960 . S
H1213 C1199 0.961 . S
H1214 C1199 0.961 . S
H1215 C1199 0.961 . S
H1216 C1200 0.931 . S
H1217 C1205 0.930 . S
H1218 C1206 0.956 . S
H1219 C1206 0.961 . S
H1220 C1206 0.961 . S
H1221 C1207 0.958 . S
H1222 C1207 0.961 . S
H1223 C1207 0.960 . S
C1224 C1225 1.391 . S
C1224 C1226 1.394 . S
C1224 H1240 0.931 . S
C1225 C1224 1.391 . S
C1225 C1229 1.376 . S
C1226 C1224 1.394 . S
C1226 C1227 1.369 . S
C1226 C1230 1.531 . S
C1227 C1226 1.369 . S
C1227 C1228 1.410 . S
C1227 C1235 1.503 . S
C1228 C1227 1.410 . S
C1228 C1229 1.392 . S
C1228 C1231 1.511 . S
C1229 C1225 1.376 . S
C1229 C1228 1.392 . S
C1229 H1241 0.929 1_556 S
C1230 C1226 1.531 . S
C1230 H1242 0.960 . S
C1230 H1243 0.962 . S
C1230 H1244 0.960 . S
C1231 C1228 1.511 . S
C1231 H1245 0.961 . S
C1231 H1246 0.961 . S
C1231 H1247 0.961 1_556 S
C1232 C1233 1.370 . S
C1232 C1234 1.363 . S
C1232 H1248 0.931 . S
C1233 C1232 1.370 . S
C1233 C1237 1.408 . S
C1234 C1232 1.363 . S
C1234 C1235 1.370 . S
C1234 C1238 1.524 . S
C1235 C1227 1.503 . S
C1235 C1234 1.370 . S
C1235 C1236 1.403 . S
C1236 C1235 1.403 . S
C1236 C1237 1.404 . S
C1236 C1239 1.539 . S
C1237 C1233 1.408 . S
C1237 C1236 1.404 . S
C1237 H1249 0.930 . S
C1238 C1234 1.524 . S
C1238 H1250 0.956 . S
C1238 H1251 0.961 . S
C1238 H1252 0.961 . S
C1239 C1236 1.539 . S
C1239 H1253 0.958 . S
C1239 H1254 0.961 . S
C1239 H1255 0.960 1_556 S
H1240 C1224 0.931 . S
H1241 C1229 0.929 1_554 S
H1242 C1230 0.960 . S
H1243 C1230 0.962 . S
H1244 C1230 0.960 . S
H1245 C1231 0.961 . S
H1246 C1231 0.961 . S
H1247 C1231 0.961 1_554 S
H1248 C1232 0.931 . S
H1249 C1237 0.930 . S
H1250 C1238 0.956 . S
H1251 C1238 0.961 . S
H1252 C1238 0.961 . S
H1253 C1239 0.958 . S
H1254 C1239 0.961 . S
H1255 C1239 0.960 1_554 S
C1256 C1257 1.391 . S
C1256 C1258 1.394 . S
C1256 H1272 0.931 . S
C1257 C1256 1.391 . S
C1257 C1261 1.376 . S
C1258 C1256 1.394 . S
C1258 C1259 1.369 . S
C1258 C1262 1.531 . S
C1259 C1258 1.369 . S
C1259 C1260 1.410 . S
C1259 C1267 1.503 . S
C1260 C1259 1.410 . S
C1260 C1261 1.392 . S
C1260 C1263 1.511 . S
C1261 C1257 1.376 . S
C1261 C1260 1.392 . S
C1261 H1273 0.929 . S
C1262 C1258 1.531 . S
C1262 H1274 0.960 . S
C1262 H1275 0.962 . S
C1262 H1276 0.960 . S
C1263 C1260 1.511 . S
C1263 H1277 0.961 . S
C1263 H1278 0.961 . S
C1263 H1279 0.961 . S
C1264 C1265 1.370 . S
C1264 C1266 1.363 . S
C1264 H1280 0.931 . S
C1265 C1264 1.370 . S
C1265 C1269 1.408 . S
C1266 C1264 1.363 . S
C1266 C1267 1.370 . S
C1266 C1270 1.524 . S
C1267 C1259 1.503 . S
C1267 C1266 1.370 . S
C1267 C1268 1.403 . S
C1268 C1267 1.403 . S
C1268 C1269 1.404 . S
C1268 C1271 1.539 . S
C1269 C1265 1.408 . S
C1269 C1268 1.404 . S
C1269 H1281 0.930 . S
C1270 C1266 1.524 . S
C1270 H1282 0.956 . S
C1270 H1283 0.961 . S
C1270 H1284 0.961 . S
C1271 C1268 1.539 . S
C1271 H1285 0.958 . S
C1271 H1286 0.961 . S
C1271 H1287 0.960 . S
H1272 C1256 0.931 . S
H1273 C1261 0.929 . S
H1274 C1262 0.960 . S
H1275 C1262 0.962 . S
H1276 C1262 0.960 . S
H1277 C1263 0.961 . S
H1278 C1263 0.961 . S
H1279 C1263 0.961 . S
H1280 C1264 0.931 . S
H1281 C1269 0.930 . S
H1282 C1270 0.956 . S
H1283 C1270 0.961 . S
H1284 C1270 0.961 . S
H1285 C1271 0.958 . S
H1286 C1271 0.961 . S
H1287 C1271 0.960 . S
C1288 C1289 1.391 1_545 S
C1288 C1290 1.394 . S
C1288 H1304 0.931 . S
C1289 C1288 1.391 1_565 S
C1289 C1293 1.376 . S
C1290 C1288 1.394 . S
C1290 C1291 1.369 1_545 S
C1290 C1294 1.531 . S
C1291 C1290 1.369 1_565 S
C1291 C1292 1.410 . S
C1291 C1299 1.503 . S
C1292 C1291 1.410 . S
C1292 C1293 1.392 . S
C1292 C1295 1.511 . S
C1293 C1289 1.376 . S
C1293 C1292 1.392 . S
C1293 H1305 0.929 . S
C1294 C1290 1.531 . S
C1294 H1306 0.960 . S
C1294 H1307 0.962 . S
C1294 H1308 0.960 . S
C1295 C1292 1.511 . S
C1295 H1309 0.961 . S
C1295 H1310 0.961 . S
C1295 H1311 0.961 . S
C1296 C1297 1.370 1_545 S
C1296 C1298 1.363 . S
C1296 H1312 0.931 . S
C1297 C1296 1.370 1_565 S
C1297 C1301 1.408 . S
C1298 C1296 1.363 . S
C1298 C1299 1.370 1_545 S
C1298 C1302 1.524 . S
C1299 C1291 1.503 . S
C1299 C1298 1.370 1_565 S
C1299 C1300 1.403 . S
C1300 C1299 1.403 . S
C1300 C1301 1.404 . S
C1300 C1303 1.539 . S
C1301 C1297 1.408 . S
C1301 C1300 1.404 . S
C1301 H1313 0.930 . S
C1302 C1298 1.524 . S
C1302 H1314 0.956 . S
C1302 H1315 0.961 . S
C1302 H1316 0.961 . S
C1303 C1300 1.539 . S
C1303 H1317 0.958 . S
C1303 H1318 0.961 . S
C1303 H1319 0.960 . S
H1304 C1288 0.931 . S
H1305 C1293 0.929 . S
H1306 C1294 0.960 . S
H1307 C1294 0.962 . S
H1308 C1294 0.960 . S
H1309 C1295 0.961 . S
H1310 C1295 0.961 . S
H1311 C1295 0.961 . S
H1312 C1296 0.931 . S
H1313 C1301 0.930 . S
H1314 C1302 0.956 . S
H1315 C1302 0.961 . S
H1316 C1302 0.961 . S
H1317 C1303 0.958 . S
H1318 C1303 0.961 . S
H1319 C1303 0.960 . S
C1320 C1321 1.391 . S
C1320 C1322 1.394 . S
C1320 H1336 0.931 . S
C1321 C1320 1.391 . S
C1321 C1325 1.376 . S
C1322 C1320 1.394 . S
C1322 C1323 1.369 . S
C1322 C1326 1.531 . S
C1323 C1322 1.369 . S
C1323 C1324 1.410 . S
C1323 C1331 1.503 . S
C1324 C1323 1.410 . S
C1324 C1325 1.392 . S
C1324 C1327 1.511 . S
C1325 C1321 1.376 . S
C1325 C1324 1.392 . S
C1325 H1337 0.929 . S
C1326 C1322 1.531 . S
C1326 H1338 0.960 . S
C1326 H1339 0.962 . S
C1326 H1340 0.960 . S
C1327 C1324 1.511 . S
C1327 H1341 0.961 . S
C1327 H1342 0.961 . S
C1327 H1343 0.961 . S
C1328 C1329 1.370 . S
C1328 C1330 1.363 . S
C1328 H1344 0.931 . S
C1329 C1328 1.370 . S
C1329 C1333 1.408 . S
C1330 C1328 1.363 . S
C1330 C1331 1.370 . S
C1330 C1334 1.524 . S
C1331 C1323 1.503 . S
C1331 C1330 1.370 . S
C1331 C1332 1.403 . S
C1332 C1331 1.403 . S
C1332 C1333 1.404 . S
C1332 C1335 1.539 . S
C1333 C1329 1.408 . S
C1333 C1332 1.404 . S
C1333 H1345 0.930 . S
C1334 C1330 1.524 . S
C1334 H1346 0.956 . S
C1334 H1347 0.961 . S
C1334 H1348 0.961 . S
C1335 C1332 1.539 . S
C1335 H1349 0.958 . S
C1335 H1350 0.961 . S
C1335 H1351 0.960 . S
H1336 C1320 0.931 . S
H1337 C1325 0.929 . S
H1338 C1326 0.960 . S
H1339 C1326 0.962 . S
H1340 C1326 0.960 . S
H1341 C1327 0.961 . S
H1342 C1327 0.961 . S
H1343 C1327 0.961 . S
H1344 C1328 0.931 . S
H1345 C1333 0.930 . S
H1346 C1334 0.956 . S
H1347 C1334 0.961 . S
H1348 C1334 0.961 . S
H1349 C1335 0.958 . S
H1350 C1335 0.961 . S
H1351 C1335 0.960 . S
C1352 C1353 1.391 . S
C1352 C1354 1.394 . S
C1352 H1368 0.931 . S
C1353 C1352 1.391 . S
C1353 C1357 1.376 . S
C1354 C1352 1.394 . S
C1354 C1355 1.369 . S
C1354 C1358 1.531 . S
C1355 C1354 1.369 . S
C1355 C1356 1.410 . S
C1355 C1363 1.503 . S
C1356 C1355 1.410 . S
C1356 C1357 1.392 . S
C1356 C1359 1.511 . S
C1357 C1353 1.376 . S
C1357 C1356 1.392 . S
C1357 H1369 0.929 . S
C1358 C1354 1.531 . S
C1358 H1370 0.960 . S
C1358 H1371 0.962 . S
C1358 H1372 0.960 . S
C1359 C1356 1.511 . S
C1359 H1373 0.961 . S
C1359 H1374 0.961 . S
C1359 H1375 0.961 . S
C1360 C1361 1.370 . S
C1360 C1362 1.363 . S
C1360 H1376 0.931 . S
C1361 C1360 1.370 . S
C1361 C1365 1.408 . S
C1362 C1360 1.363 . S
C1362 C1363 1.370 . S
C1362 C1366 1.524 . S
C1363 C1355 1.503 . S
C1363 C1362 1.370 . S
C1363 C1364 1.403 . S
C1364 C1363 1.403 . S
C1364 C1365 1.404 . S
C1364 C1367 1.539 . S
C1365 C1361 1.408 . S
C1365 C1364 1.404 . S
C1365 H1377 0.930 . S
C1366 C1362 1.524 . S
C1366 H1378 0.956 . S
C1366 H1379 0.961 . S
C1366 H1380 0.961 . S
C1367 C1364 1.539 . S
C1367 H1381 0.958 . S
C1367 H1382 0.961 . S
C1367 H1383 0.960 . S
H1368 C1352 0.931 . S
H1369 C1357 0.929 . S
H1370 C1358 0.960 . S
H1371 C1358 0.962 . S
H1372 C1358 0.960 . S
H1373 C1359 0.961 . S
H1374 C1359 0.961 . S
H1375 C1359 0.961 . S
H1376 C1360 0.931 . S
H1377 C1365 0.930 . S
H1378 C1366 0.956 . S
H1379 C1366 0.961 . S
H1380 C1366 0.961 . S
H1381 C1367 0.958 . S
H1382 C1367 0.961 . S
H1383 C1367 0.960 . S
C617 C391 1.913 1_565 S
C625 C497 1.890 . S
C657 C518 1.742 . S
C649 C451 1.762 . S
C689 C552 1.575 . S
C681 C241 1.415 . S
C721 C586 1.716 . S
C713 C331 1.547 . S
C753 C488 1.898 . S
C745 C121 1.744 1_546 S
C777 C211 1.700 1_556 S
C785 C527 1.759 . S
C809 C31 1.612 . S
C817 C561 1.562 . S
C841 C91 1.670 . S
C849 C595 1.709 . S
C881 C509 0.603 . S
C873 C301 0.761 . S
C913 C514 0.438 . S
C905 C380 0.429 1_565 S
C945 C548 0.584 . S
C937 C440 0.635 . S
C969 C260 0.312 . S
C977 C582 0.166 . S
C1001 C61 0.764 . S
C1009 C480 0.623 . S
C1041 C543 0.404 . S
C1033 C140 0.515 . S
C1073 C577 0.626 . S
C1065 C200 0.539 . S
C1097 C20 0.233 . S
C1105 C611 0.179 . S
C1129 C320 1.722 . S
C1137 C493 1.760 . S
C1161 C361 1.940 . S
C1169 C522 2.147 . S
C1201 C556 1.896 . S
C1193 C421 1.644 . S
C1233 C590 1.948 . S
C1225 C271 1.892 1_556 S
C1257 C80 1.766 . S
C1265 C484 1.763 . S
C1297 C531 2.153 . S
C1289 C151 2.086 . S
C1329 C565 1.896 . S
C1321 C181 1.625 . S
C1353 C1 1.721 . S
C1361 C599 1.947 . S
