# Generated by pormake.
# Topology nom, (4,4)-cn, num edge types: 1
# Building blocks:
#     Node 0, Type 0, BuildingBlock: AZAVOO_clean_linker_0, # of connection points: 4
#     Node 1, Type 0, BuildingBlock: AZAVOO_clean_linker_0, # of connection points: 4
#     Node 2, Type 0, BuildingBlock: AZAVOO_clean_linker_0, # of connection points: 4
#     Node 3, Type 0, BuildingBlock: AZAVOO_clean_linker_0, # of connection points: 4
#     Node 4, Type 0, BuildingBlock: AZAVOO_clean_linker_0, # of connection points: 4
#     Node 5, Type 0, BuildingBlock: AZAVOO_clean_linker_0, # of connection points: 4
#     Node 6, Type 1, BuildingBlock: NAHDIM_clean_sbu_0, # of connection points: 4
#     Node 7, Type 1, BuildingBlock: NAHDIM_clean_sbu_0, # of connection points: 4
#     Node 8, Type 1, BuildingBlock: NAHDIM_clean_sbu_0, # of connection points: 4
#     Node 9, Type 1, BuildingBlock: NAHDIM_clean_sbu_0, # of connection points: 4
#     Node 10, Type 1, BuildingBlock: NAHDIM_clean_sbu_0, # of connection points: 4
#     Node 11, Type 1, BuildingBlock: NAHDIM_clean_sbu_0, # of connection points: 4
#     Edge 12, Type (0, 1), BuildingBlock: EZIPEK_clean_linker_0, # of connection points: 2
#     Edge 13, Type (0, 1), BuildingBlock: EZIPEK_clean_linker_0, # of connection points: 2
#     Edge 14, Type (0, 1), BuildingBlock: EZIPEK_clean_linker_0, # of connection points: 2
#     Edge 15, Type (0, 1), BuildingBlock: EZIPEK_clean_linker_0, # of connection points: 2
#     Edge 16, Type (0, 1), BuildingBlock: EZIPEK_clean_linker_0, # of connection points: 2
#     Edge 17, Type (0, 1), BuildingBlock: EZIPEK_clean_linker_0, # of connection points: 2
#     Edge 18, Type (0, 1), BuildingBlock: EZIPEK_clean_linker_0, # of connection points: 2
#     Edge 19, Type (0, 1), BuildingBlock: EZIPEK_clean_linker_0, # of connection points: 2
#     Edge 20, Type (0, 1), BuildingBlock: EZIPEK_clean_linker_0, # of connection points: 2
#     Edge 21, Type (0, 1), BuildingBlock: EZIPEK_clean_linker_0, # of connection points: 2
#     Edge 22, Type (0, 1), BuildingBlock: EZIPEK_clean_linker_0, # of connection points: 2
#     Edge 23, Type (0, 1), BuildingBlock: EZIPEK_clean_linker_0, # of connection points: 2
#     Edge 24, Type (0, 1), BuildingBlock: EZIPEK_clean_linker_0, # of connection points: 2
#     Edge 25, Type (0, 1), BuildingBlock: EZIPEK_clean_linker_0, # of connection points: 2
#     Edge 26, Type (0, 1), BuildingBlock: EZIPEK_clean_linker_0, # of connection points: 2
#     Edge 27, Type (0, 1), BuildingBlock: EZIPEK_clean_linker_0, # of connection points: 2
#     Edge 28, Type (0, 1), BuildingBlock: EZIPEK_clean_linker_0, # of connection points: 2
#     Edge 29, Type (0, 1), BuildingBlock: EZIPEK_clean_linker_0, # of connection points: 2
#     Edge 30, Type (0, 1), BuildingBlock: EZIPEK_clean_linker_0, # of connection points: 2
#     Edge 31, Type (0, 1), BuildingBlock: EZIPEK_clean_linker_0, # of connection points: 2
#     Edge 32, Type (0, 1), BuildingBlock: EZIPEK_clean_linker_0, # of connection points: 2
#     Edge 33, Type (0, 1), BuildingBlock: EZIPEK_clean_linker_0, # of connection points: 2
#     Edge 34, Type (0, 1), BuildingBlock: EZIPEK_clean_linker_0, # of connection points: 2
#     Edge 35, Type (0, 1), BuildingBlock: EZIPEK_clean_linker_0, # of connection points: 2
# Relax obj value: 0.170
# Max RMSD: 0.228
# Mean RMSD: 0.169
data_MOF--net-nom--node1-NAHDIM_clean_sbu_0--node2-AZAVOO_clean_linker_0--edge1-EZIPEK_clean_linker_0
_symmetry_space_group_name_H-M    P1
_symmetry_Int_Tables_number       1
_symmetry_cell_setting            triclinic
loop_
_symmetry_equiv_pos_as_xyz
'x, y, z'
_cell_length_a     36.536612
_cell_length_b     39.142823
_cell_length_c     45.904472
_cell_angle_alpha  90.069306
_cell_angle_beta   90.488251
_cell_angle_gamma 122.4376
loop_
_atom_site_label
_atom_site_type_symbol
_atom_site_fract_x
_atom_site_fract_y
_atom_site_fract_z
_atom_type_partial_charge
H0 H 0.09249 0.51737 0.09935 0.0
H1 H 0.30898 0.69514 0.3894 0.0
H2 H 0.00747 0.44324 0.24659 0.0
H3 H 0.95938 0.41089 0.20461 0.0
H4 H 0.90391 0.48288 0.21871 0.0
H5 H 0.95505 0.51793 0.25955 0.0
H6 H 0.09696 0.49921 0.2256 0.0
H7 H 0.10095 0.50037 0.17236 0.0
H8 H 0.0432 0.57209 0.16926 0.0
H9 H 0.03868 0.57004 0.22247 0.0
H10 H 0.17359 0.55012 0.26874 0.0
H11 H 0.24692 0.60566 0.25556 0.0
H12 H 0.19787 0.68238 0.23835 0.0
H13 H 0.12509 0.62749 0.25259 0.0
H14 H 0.1512 0.526 0.32479 0.0
H15 H 0.22118 0.56283 0.3505 0.0
H16 H 0.21341 0.66917 0.35392 0.0
H17 H 0.14502 0.63282 0.32641 0.0
H18 H 0.04528 0.47089 0.35573 0.0
H19 H 0.07118 0.47632 0.40619 0.0
H20 H 0.10827 0.60102 0.40936 0.0
H21 H 0.07968 0.59474 0.35981 0.0
H22 H 0.94526 0.4396 0.30992 0.0
H23 H 0.87624 0.42693 0.32932 0.0
H24 H 0.93828 0.55374 0.35034 0.0
H25 H 0.00639 0.56657 0.33047 0.0
O26 O 0.09095 0.51757 0.12038 0.0
O27 O 0.06037 0.55372 0.11999 0.0
O28 O 0.28382 0.62436 0.37688 0.0
O29 O 0.28173 0.68006 0.37881 0.0
C30 C 0.0241 0.51084 0.2742 0.0
C31 C 0.06468 0.5333 0.26009 0.0
C32 C 0.10304 0.55613 0.27655 0.0
C33 C 0.1016 0.55473 0.30717 0.0
C34 C 0.06122 0.534 0.3215 0.0
C35 C 0.02213 0.51399 0.30492 0.0
C36 C 0.98518 0.48328 0.25601 0.0
C37 C 0.9842 0.4514 0.24116 0.0
C38 C 0.95685 0.43302 0.21711 0.0
C39 C 0.92867 0.44505 0.20807 0.0
C40 C 0.92588 0.47357 0.22507 0.0
C41 C 0.95466 0.49324 0.24855 0.0
C42 C 0.06719 0.53423 0.22779 0.0
C43 C 0.0851 0.51505 0.21334 0.0
C44 C 0.08734 0.51579 0.18295 0.0
C45 C 0.07212 0.5361 0.16654 0.0
C46 C 0.05493 0.55593 0.18122 0.0
C47 C 0.05224 0.55477 0.21159 0.0
C48 C 0.14438 0.58516 0.26205 0.0
C49 C 0.17857 0.57864 0.26156 0.0
C50 C 0.22016 0.61011 0.25395 0.0
C51 C 0.22754 0.64798 0.24625 0.0
C52 C 0.19256 0.65327 0.24425 0.0
C53 C 0.15121 0.62206 0.25229 0.0
C54 C 0.14286 0.57661 0.32415 0.0
C55 C 0.16476 0.55727 0.33109 0.0
C56 C 0.20473 0.57841 0.34571 0.0
C57 C 0.22271 0.61886 0.35451 0.0
C58 C 0.20036 0.63797 0.34768 0.0
C59 C 0.16119 0.61725 0.33212 0.0
C60 C 0.06121 0.53262 0.35391 0.0
C61 C 0.05685 0.49871 0.36782 0.0
C62 C 0.07201 0.50193 0.39647 0.0
C63 C 0.09288 0.53945 0.41108 0.0
C64 C 0.09294 0.57201 0.39827 0.0
C65 C 0.07646 0.56837 0.37006 0.0
C66 C 0.98102 0.504 0.31888 0.0
C67 C 0.94401 0.46454 0.31891 0.0
C68 C 0.90479 0.45733 0.32998 0.0
C69 C 0.90236 0.48948 0.34125 0.0
C70 C 0.9396 0.52859 0.34184 0.0
C71 C 0.97846 0.5358 0.33066 0.0
C72 C 0.07408 0.53645 0.13425 0.0
C73 C 0.26458 0.64111 0.37072 0.0
H74 H 0.58736 0.09468 0.29945 0.0
H75 H 0.53453 0.26808 0.57393 0.0
H76 H 0.56769 0.0125 0.45301 0.0
H77 H 0.56674 0.96775 0.41511 0.0
H78 H 0.42805 0.90924 0.40642 0.0
H79 H 0.42907 0.95444 0.44431 0.0
H80 H 0.59137 0.08841 0.4267 0.0
H81 H 0.60285 0.09644 0.37404 0.0
H82 H 0.46525 0.04307 0.36037 0.0
H83 H 0.45431 0.03515 0.4131 0.0
H84 H 0.60391 0.15153 0.46065 0.0
H85 H 0.62707 0.21891 0.44167 0.0
H86 H 0.49333 0.18317 0.43378 0.0
H87 H 0.47016 0.11559 0.45252 0.0
H88 H 0.59395 0.14411 0.52538 0.0
H89 H 0.61283 0.20781 0.54895 0.0
H90 H 0.4796 0.17429 0.53979 0.0
H91 H 0.46124 0.11066 0.51633 0.0
H92 H 0.56743 0.06158 0.5509 0.0
H93 H 0.57867 0.08322 0.60204 0.0
H94 H 0.44864 0.05848 0.60485 0.0
H95 H 0.43813 0.03851 0.55318 0.0
H96 H 0.51846 0.96092 0.50501 0.0
H97 H 0.47238 0.88876 0.51732 0.0
H98 H 0.36652 0.90419 0.53563 0.0
H99 H 0.41166 0.97557 0.52196 0.0
O100 O 0.58214 0.09145 0.3202 0.0
O101 O 0.51121 0.06413 0.31436 0.0
O102 O 0.59645 0.25988 0.56741 0.0
O103 O 0.52795 0.24315 0.56465 0.0
C104 C 0.50124 0.01949 0.46914 0.0
C105 C 0.51526 0.05685 0.45549 0.0
C106 C 0.52171 0.0899 0.47201 0.0
C107 C 0.51602 0.08639 0.50237 0.0
C108 C 0.50156 0.049 0.51617 0.0
C109 C 0.49222 0.01481 0.49938 0.0
C110 C 0.49843 0.98656 0.45136 0.0
C111 C 0.53693 0.9892 0.44357 0.0
C112 C 0.53643 0.96381 0.42202 0.0
C113 C 0.49736 0.93536 0.40812 0.0
C114 C 0.4584 0.93092 0.41716 0.0
C115 C 0.45894 0.95652 0.4387 0.0
C116 C 0.52205 0.0612 0.42357 0.0
C117 C 0.56381 0.0785 0.41225 0.0
C118 C 0.57025 0.08306 0.38219 0.0
C119 C 0.53498 0.07049 0.36298 0.0
C120 C 0.49312 0.05317 0.37454 0.0
C121 C 0.48675 0.04852 0.4046 0.0
C122 C 0.53543 0.12884 0.45774 0.0
C123 C 0.57965 0.15804 0.45429 0.0
C124 C 0.59278 0.19629 0.44359 0.0
C125 C 0.5618 0.20569 0.43638 0.0
C126 C 0.51753 0.17618 0.43917 0.0
C127 C 0.50439 0.13784 0.44975 0.0
C128 C 0.52617 0.1227 0.51952 0.0
C129 C 0.56882 0.15039 0.52888 0.0
C130 C 0.57956 0.18686 0.5421 0.0
C131 C 0.54775 0.19625 0.54612 0.0
C132 C 0.50488 0.16807 0.53699 0.0
C133 C 0.49421 0.13158 0.5238 0.0
C134 C 0.50184 0.04812 0.54842 0.0
C135 C 0.54072 0.0592 0.56286 0.0
C136 C 0.54721 0.07174 0.59195 0.0
C137 C 0.51463 0.07279 0.60709 0.0
C138 C 0.47411 0.0578 0.5935 0.0
C139 C 0.46798 0.04611 0.56414 0.0
C140 C 0.46844 0.97364 0.51237 0.0
C141 C 0.48552 0.9489 0.51201 0.0
C142 C 0.45933 0.90782 0.5191 0.0
C143 C 0.41597 0.89113 0.52719 0.0
C144 C 0.39986 0.91649 0.52942 0.0
C145 C 0.42575 0.95728 0.52185 0.0
C146 C 0.54188 0.07513 0.33105 0.0
C147 C 0.55904 0.23506 0.55999 0.0
H148 H 0.609 0.54286 0.82373 0.0
H149 H 0.56863 0.33366 0.5415 0.0
H150 H 0.58485 0.619 0.66128 0.0
H151 H 0.58499 0.66079 0.70126 0.0
H152 H 0.45844 0.56248 0.72695 0.0
H153 H 0.45761 0.52121 0.6862 0.0
H154 H 0.61544 0.56116 0.69706 0.0
H155 H 0.62594 0.56133 0.74984 0.0
H156 H 0.48919 0.47151 0.75927 0.0
H157 H 0.47945 0.471 0.70638 0.0
H158 H 0.63073 0.50861 0.66169 0.0
H159 H 0.65095 0.46159 0.67962 0.0
H160 H 0.51565 0.36665 0.68434 0.0
H161 H 0.49549 0.41371 0.66647 0.0
H162 H 0.62668 0.51311 0.59859 0.0
H163 H 0.64636 0.46991 0.57368 0.0
H164 H 0.51237 0.37037 0.57586 0.0
H165 H 0.49315 0.41411 0.60048 0.0
H166 H 0.60675 0.56904 0.57637 0.0
H167 H 0.62338 0.56254 0.5259 0.0
H168 H 0.48971 0.46739 0.51111 0.0
H169 H 0.47367 0.47243 0.56229 0.0
H170 H 0.54849 0.61729 0.61134 0.0
H171 H 0.50327 0.64242 0.59356 0.0
H172 H 0.39411 0.51956 0.58467 0.0
H173 H 0.43889 0.49457 0.60276 0.0
O174 O 0.60425 0.5419 0.80289 0.0
O175 O 0.53383 0.49539 0.80653 0.0
O176 O 0.63039 0.40305 0.55186 0.0
O177 O 0.5617 0.35137 0.55132 0.0
C178 C 0.52685 0.53921 0.65254 0.0
C179 C 0.54079 0.51557 0.66603 0.0
C180 C 0.54961 0.49103 0.649 0.0
C181 C 0.54732 0.49187 0.61845 0.0
C182 C 0.5342 0.516 0.60482 0.0
C183 C 0.52156 0.53795 0.6219 0.0
C184 C 0.52117 0.56717 0.67085 0.0
C185 C 0.55632 0.60715 0.67469 0.0
C186 C 0.55653 0.63084 0.69754 0.0
C187 C 0.52197 0.61442 0.71714 0.0
C188 C 0.48538 0.57553 0.712 0.0
C189 C 0.48485 0.5521 0.68879 0.0
C190 C 0.54662 0.51648 0.69808 0.0
C191 C 0.58784 0.54163 0.71062 0.0
C192 C 0.59374 0.54154 0.74073 0.0
C193 C 0.55836 0.51657 0.7588 0.0
C194 C 0.51708 0.49125 0.74602 0.0
C195 C 0.51136 0.49102 0.71587 0.0
C196 C 0.56172 0.46441 0.66297 0.0
C197 C 0.60553 0.47786 0.66708 0.0
C198 C 0.61699 0.45117 0.67717 0.0
C199 C 0.58469 0.41086 0.68317 0.0
C200 C 0.54085 0.39774 0.67981 0.0
C201 C 0.52941 0.42445 0.66977 0.0
C202 C 0.55844 0.46682 0.60093 0.0
C203 C 0.60158 0.48213 0.59326 0.0
C204 C 0.61275 0.4573 0.57927 0.0
C205 C 0.58094 0.41661 0.57287 0.0
C206 C 0.53765 0.40151 0.58048 0.0
C207 C 0.52652 0.42647 0.59434 0.0
C208 C 0.539 0.5213 0.57291 0.0
C209 C 0.58064 0.54792 0.56193 0.0
C210 C 0.59018 0.54409 0.53322 0.0
C211 C 0.5579 0.51418 0.51493 0.0
C212 C 0.51503 0.49061 0.52497 0.0
C213 C 0.50577 0.49366 0.55403 0.0
C214 C 0.49692 0.55411 0.60838 0.0
C215 C 0.51495 0.59585 0.60536 0.0
C216 C 0.48927 0.61012 0.5952 0.0
C217 C 0.44542 0.58274 0.5879 0.0
C218 C 0.42788 0.54106 0.59015 0.0
C219 C 0.45342 0.52687 0.60036 0.0
C220 C 0.56456 0.51717 0.79084 0.0
C221 C 0.59268 0.39006 0.5581 0.0
H222 H 0.10544 0.40838 0.00739 0.0
H223 H 0.3128 0.50786 0.71511 0.0
H224 H 0.01202 0.45031 0.86174 0.0
H225 H 0.96422 0.4315 0.90391 0.0
H226 H 0.92902 0.30772 0.89503 0.0
H227 H 0.97647 0.32652 0.85242 0.0
H228 H 0.09752 0.46349 0.89048 0.0
H229 H 0.10557 0.45212 0.94194 0.0
H230 H 0.06577 0.32886 0.92148 0.0
H231 H 0.05859 0.34098 0.86999 0.0
H232 H 0.17127 0.49355 0.85598 0.0
H233 H 0.24457 0.5117 0.86971 0.0
H234 H 0.21529 0.39502 0.83969 0.0
H235 H 0.1416 0.37698 0.82558 0.0
H236 H 0.16895 0.51774 0.79741 0.0
H237 H 0.23959 0.55174 0.77358 0.0
H238 H 0.2094 0.43666 0.73861 0.0
H239 H 0.13912 0.40304 0.76295 0.0
H240 H 0.07668 0.50132 0.77513 0.0
H241 H 0.09973 0.53809 0.72884 0.0
H242 H 0.08923 0.43423 0.68743 0.0
H243 H 0.06662 0.39758 0.73389 0.0
H244 H 0.97923 0.44212 0.80896 0.0
H245 H 0.90356 0.40943 0.79159 0.0
H246 H 0.91203 0.31391 0.75211 0.0
H247 H 0.98727 0.34631 0.76953 0.0
O248 O 0.10263 0.41237 0.98688 0.0
O249 O 0.08278 0.3495 0.97518 0.0
O250 O 0.29845 0.55374 0.74254 0.0
O251 O 0.28487 0.49526 0.72445 0.0
C252 C 0.03413 0.40333 0.83387 0.0
C253 C 0.07354 0.41046 0.84549 0.0
C254 C 0.11008 0.42611 0.82767 0.0
C255 C 0.10841 0.43723 0.79877 0.0
C256 C 0.06914 0.43029 0.78698 0.0
C257 C 0.03145 0.41179 0.80423 0.0
C258 C 0.99719 0.38966 0.85383 0.0
C259 C 0.99264 0.41883 0.86813 0.0
C260 C 0.96575 0.40821 0.89227 0.0
C261 C 0.94337 0.36832 0.90255 0.0
C262 C 0.94595 0.3386 0.88727 0.0
C263 C 0.9727 0.34922 0.86295 0.0
C264 C 0.07728 0.40297 0.87669 0.0
C265 C 0.09059 0.43409 0.89722 0.0
C266 C 0.09527 0.42753 0.92655 0.0
C267 C 0.08625 0.38955 0.93584 0.0
C268 C 0.07291 0.35843 0.91507 0.0
C269 C 0.06866 0.36519 0.8857 0.0
C270 C 0.15151 0.4341 0.83982 0.0
C271 C 0.18037 0.47162 0.85293 0.0
C272 C 0.22197 0.48189 0.86067 0.0
C273 C 0.23508 0.45471 0.85546 0.0
C274 C 0.20547 0.41623 0.84377 0.0
C275 C 0.16375 0.40603 0.83581 0.0
C276 C 0.1489 0.45808 0.78159 0.0
C277 C 0.17752 0.50006 0.7843 0.0
C278 C 0.21793 0.51932 0.77085 0.0
C279 C 0.23019 0.49688 0.75423 0.0
C280 C 0.20099 0.45483 0.75122 0.0
C281 C 0.16072 0.43558 0.7649 0.0
C282 C 0.06967 0.44669 0.75778 0.0
C283 C 0.07757 0.48588 0.7558 0.0
C284 C 0.09091 0.5069 0.7295 0.0
C285 C 0.09616 0.48881 0.70483 0.0
C286 C 0.08497 0.44847 0.70622 0.0
C287 C 0.07193 0.42755 0.73261 0.0
C288 C 0.98852 0.3964 0.79058 0.0
C289 C 0.9649 0.41447 0.79623 0.0
C290 C 0.92198 0.39595 0.78633 0.0
C291 C 0.90249 0.3593 0.77071 0.0
C292 C 0.92671 0.3422 0.76411 0.0
C293 C 0.96949 0.36069 0.77394 0.0
C294 C 0.09044 0.38245 0.9671 0.0
C295 C 0.27323 0.51715 0.74009 0.0
H296 H 0.34121 0.91552 0.79493 0.0
H297 H 0.36248 0.72576 0.0768 0.0
H298 H 0.42733 0.02445 0.93317 0.0
H299 H 0.46088 0.07591 0.89476 0.0
H300 H 0.5787 0.07629 0.90352 0.0
H301 H 0.54514 0.02463 0.94145 0.0
H302 H 0.35582 0.92763 0.92209 0.0
H303 H 0.33727 0.91967 0.87009 0.0
H304 H 0.46564 0.94692 0.8499 0.0
H305 H 0.48384 0.95515 0.9019 0.0
H306 H 0.33057 0.84697 0.96545 0.0
H307 H 0.30434 0.77745 0.9484 0.0
H308 H 0.43216 0.81844 0.91651 0.0
H309 H 0.45797 0.88705 0.93314 0.0
H310 H 0.35808 0.88577 0.03197 0.0
H311 H 0.32825 0.82517 0.06222 0.0
H312 H 0.42367 0.8029 0.02817 0.0
H313 H 0.45304 0.86346 0.99806 0.0
H314 H 0.43038 0.97688 0.0549 0.0
H315 H 0.44554 0.96909 0.10607 0.0
H316 H 0.52758 0.92772 0.07746 0.0
H317 H 0.51261 0.9356 0.02656 0.0
H318 H 0.47413 0.05696 0.0013 0.0
H319 H 0.53682 0.12346 0.01649 0.0
H320 H 0.6178 0.07414 0.01704 0.0
H321 H 0.55555 0.0081 0.00174 0.0
O322 O 0.34912 0.91859 0.81538 0.0
O323 O 0.41578 0.93346 0.80618 0.0
O324 O 0.32556 0.76291 0.08223 0.0
O325 O 0.37343 0.7497 0.06496 0.0
C326 C 0.46181 0.98536 0.95951 0.0
C327 C 0.43212 0.94687 0.94725 0.0
C328 C 0.4152 0.91193 0.96455 0.0
C329 C 0.42541 0.91557 0.99453 0.0
C330 C 0.45533 0.95392 0.00674 0.0
C331 C 0.47419 0.98871 0.98914 0.0
C332 C 0.48393 0.02107 0.94018 0.0
C333 C 0.46072 0.0364 0.92728 0.0
C334 C 0.47975 0.06563 0.9055 0.0
C335 C 0.52213 0.07967 0.89649 0.0
C336 C 0.54606 0.06587 0.91042 0.0
C337 C 0.52703 0.03663 0.93208 0.0
C338 C 0.42128 0.94245 0.91567 0.0
C339 C 0.37989 0.93202 0.90636 0.0
C340 C 0.3694 0.92744 0.87667 0.0
C341 C 0.40005 0.93287 0.85582 0.0
C342 C 0.44133 0.9427 0.86536 0.0
C343 C 0.45189 0.94761 0.89502 0.0
C344 C 0.39604 0.87191 0.95028 0.0
C345 C 0.35242 0.84096 0.95408 0.0
C346 C 0.33758 0.80156 0.94449 0.0
C347 C 0.3666 0.79313 0.93153 0.0
C348 C 0.40947 0.82455 0.92654 0.0
C349 C 0.42407 0.86363 0.93583 0.0
C350 C 0.40748 0.87877 0.01277 0.0
C351 C 0.37236 0.86767 0.03107 0.0
C352 C 0.35541 0.83306 0.04827 0.0
C353 C 0.37355 0.80915 0.04757 0.0
C354 C 0.40891 0.82058 0.02923 0.0
C355 C 0.4257 0.85509 0.01197 0.0
C356 C 0.47022 0.95653 0.03721 0.0
C357 C 0.4526 0.9673 0.05976 0.0
C358 C 0.46134 0.96303 0.08879 0.0
C359 C 0.48776 0.948 0.0953 0.0
C360 C 0.50748 0.93971 0.07272 0.0
C361 C 0.4988 0.94401 0.04382 0.0
C362 C 0.51034 0.02777 0.00078 0.0
C363 C 0.50526 0.06046 0.00514 0.0
C364 C 0.5408 0.09814 0.01375 0.0
C365 C 0.5816 0.10332 0.0179 0.0
C366 C 0.5864 0.07042 0.0141 0.0
C367 C 0.55098 0.03287 0.00555 0.0
C368 C 0.38896 0.92834 0.82429 0.0
C369 C 0.35594 0.77257 0.06599 0.0
H370 H 0.57679 0.53902 0.91285 0.0
H371 H 0.71696 0.44813 0.20249 0.0
H372 H 0.52232 0.56626 0.05854 0.0
H373 H 0.50813 0.60158 0.02041 0.0
H374 H 0.62648 0.71335 0.04371 0.0
H375 H 0.64145 0.67755 0.08149 0.0
H376 H 0.55062 0.51209 0.03834 0.0
H377 H 0.55081 0.51188 0.985 0.0
H378 H 0.66944 0.63023 0.9862 0.0
H379 H 0.66847 0.63024 0.03954 0.0
H380 H 0.57602 0.46798 0.07755 0.0
H381 H 0.60801 0.42881 0.06393 0.0
H382 H 0.73338 0.53954 0.05663 0.0
H383 H 0.70156 0.57856 0.07111 0.0
H384 H 0.56758 0.4684 0.13432 0.0
H385 H 0.58796 0.4253 0.15875 0.0
H386 H 0.71847 0.52901 0.17077 0.0
H387 H 0.69826 0.57115 0.14473 0.0
H388 H 0.53789 0.52684 0.17051 0.0
H389 H 0.53961 0.509 0.22168 0.0
H390 H 0.67779 0.5949 0.22488 0.0
H391 H 0.67578 0.61373 0.17422 0.0
H392 H 0.51895 0.58957 0.12574 0.0
H393 H 0.50379 0.6363 0.15074 0.0
H394 H 0.63866 0.71216 0.17558 0.0
H395 H 0.65386 0.66554 0.15053 0.0
O396 O 0.57766 0.53946 0.93393 0.0
O397 O 0.63836 0.6005 0.93576 0.0
O398 O 0.64104 0.41171 0.18478 0.0
O399 O 0.70811 0.46438 0.19253 0.0
C400 C 0.59639 0.59577 0.08987 0.0
C401 C 0.60846 0.57165 0.07499 0.0
C402 C 0.62033 0.54832 0.09082 0.0
C403 C 0.61952 0.54829 0.1215 0.0
C404 C 0.6081 0.57274 0.13647 0.0
C405 C 0.59712 0.59701 0.12069 0.0
C406 C 0.58304 0.61931 0.07257 0.0
C407 C 0.54466 0.59856 0.05595 0.0
C408 C 0.53667 0.61861 0.0342 0.0
C409 C 0.56662 0.65979 0.0291 0.0
C410 C 0.60321 0.68147 0.04736 0.0
C411 C 0.61157 0.66118 0.06892 0.0
C412 C 0.60941 0.57125 0.04269 0.0
C413 C 0.57663 0.53788 0.02699 0.0
C414 C 0.57681 0.53788 0.99655 0.0
C415 C 0.61002 0.57116 0.98132 0.0
C416 C 0.64328 0.60421 0.99724 0.0
C417 C 0.64283 0.60432 0.02768 0.0
C418 C 0.63672 0.5259 0.07565 0.0
C419 C 0.61013 0.48378 0.07225 0.0
C420 C 0.62828 0.46156 0.06445 0.0
C421 C 0.67299 0.48144 0.05959 0.0
C422 C 0.69881 0.52388 0.06034 0.0
C423 C 0.68074 0.54602 0.06854 0.0
C424 C 0.63141 0.52285 0.13791 0.0
C425 C 0.60057 0.48166 0.14216 0.0
C426 C 0.61233 0.45713 0.15606 0.0
C427 C 0.65488 0.47373 0.16673 0.0
C428 C 0.68543 0.51528 0.16291 0.0
C429 C 0.67394 0.53947 0.14818 0.0
C430 C 0.60678 0.57137 0.16871 0.0
C431 C 0.56815 0.54313 0.18269 0.0
C432 C 0.56914 0.53287 0.21174 0.0
C433 C 0.60894 0.55028 0.22673 0.0
C434 C 0.64687 0.58113 0.21355 0.0
C435 C 0.64572 0.5919 0.18475 0.0
C436 C 0.58746 0.62425 0.13639 0.0
C437 C 0.54514 0.61618 0.13667 0.0
C438 C 0.53652 0.64264 0.15092 0.0
C439 C 0.57017 0.67743 0.16495 0.0
C440 C 0.6124 0.68532 0.16491 0.0
C441 C 0.62098 0.65883 0.1507 0.0
C442 C 0.60972 0.5714 0.94899 0.0
C443 C 0.66742 0.44794 0.18185 0.0
C444 C 0.62905 0.37156 0.40386 0.0
O445 O 0.66245 0.39938 0.41913 0.0
O446 O 0.71088 0.45673 0.36514 0.0
Zn447 Zn 0.64982 0.44196 0.37375 0.0
O448 O 0.64386 0.4703 0.40855 0.0
C449 C 0.64543 0.49253 0.3318 0.0
O450 O 0.67688 0.52005 0.34854 0.0
O451 O 0.61546 0.38219 0.38223 0.0
C452 C 0.61144 0.47422 0.40873 0.0
O453 O 0.58431 0.46092 0.38651 0.0
C454 C 0.74354 0.47227 0.38224 0.0
O455 O 0.74036 0.48271 0.40885 0.0
O456 O 0.62746 0.45529 0.33813 0.0
C457 C 0.30092 0.71688 0.53904 0.0
O458 O 0.29246 0.69526 0.51514 0.0
O459 O 0.29185 0.61796 0.56745 0.0
Zn460 Zn 0.25022 0.63728 0.56385 0.0
O461 O 0.21146 0.61552 0.52788 0.0
C462 C 0.18757 0.5778 0.60196 0.0
O463 O 0.18651 0.5543 0.58112 0.0
O464 O 0.28523 0.69887 0.56307 0.0
C465 C 0.20352 0.58436 0.51362 0.0
O466 O 0.22184 0.56467 0.52158 0.0
C467 C 0.32813 0.63335 0.55471 0.0
O468 O 0.34023 0.66273 0.53599 0.0
O469 O 0.21219 0.61605 0.59954 0.0
C470 C 0.63004 0.29588 0.71687 0.0
O471 O 0.65869 0.29261 0.70215 0.0
O472 O 0.69284 0.26418 0.75711 0.0
Zn473 Zn 0.6284 0.23376 0.74968 0.0
O474 O 0.60922 0.19322 0.71681 0.0
C475 C 0.60207 0.17585 0.79421 0.0
O476 O 0.62436 0.1656 0.77819 0.0
O477 O 0.61209 0.27353 0.73887 0.0
C478 C 0.56905 0.16641 0.71405 0.0
O479 O 0.54142 0.16543 0.73267 0.0
C480 C 0.7205 0.26768 0.73879 0.0
O481 O 0.70757 0.2503 0.71306 0.0
O482 O 0.59844 0.20499 0.78637 0.0
C483 C 0.38517 0.66567 0.89804 0.0
O484 O 0.36696 0.62763 0.90565 0.0
O485 O 0.40497 0.59556 0.86955 0.0
Zn486 Zn 0.45023 0.65393 0.87506 0.0
O487 O 0.48712 0.66013 0.90964 0.0
C488 C 0.50739 0.66047 0.83114 0.0
O489 O 0.50998 0.63628 0.84969 0.0
O490 O 0.4204 0.68314 0.88392 0.0
C491 C 0.51125 0.69378 0.92265 0.0
O492 O 0.51581 0.72694 0.91194 0.0
C493 C 0.40696 0.56571 0.87796 0.0
O494 O 0.44188 0.57145 0.89115 0.0
O495 O 0.48338 0.67349 0.8378 0.0
C496 C 0.74229 0.37967 0.0579 0.0
O497 O 0.72846 0.35238 0.07854 0.0
O498 O 0.73676 0.2898 0.04458 0.0
Zn499 Zn 0.79038 0.34545 0.04693 0.0
O500 O 0.81688 0.35777 0.08746 0.0
C501 C 0.85714 0.34221 0.01288 0.0
O502 O 0.86353 0.32589 0.03578 0.0
O503 O 0.77085 0.38349 0.04038 0.0
C504 C 0.85573 0.38657 0.09234 0.0
O505 O 0.88074 0.40641 0.07021 0.0
C506 C 0.73763 0.25798 0.04208 0.0
O507 O 0.77482 0.26032 0.04237 0.0
O508 O 0.8299 0.35286 0.01386 0.0
C509 C 0.5188 0.7812 0.21308 0.0
O510 O 0.49055 0.78276 0.19617 0.0
O511 O 0.43373 0.78242 0.24541 0.0
Zn512 Zn 0.4972 0.82744 0.2451 0.0
O513 O 0.5071 0.86309 0.21043 0.0
C514 C 0.48714 0.84896 0.30335 0.0
O515 O 0.44832 0.81634 0.29998 0.0
O516 O 0.52957 0.80001 0.23735 0.0
C517 C 0.49738 0.8897 0.20887 0.0
O518 O 0.4834 0.89881 0.23204 0.0
C519 C 0.40248 0.78703 0.23995 0.0
O520 O 0.41003 0.82307 0.23431 0.0
O521 O 0.51497 0.85904 0.28332 0.0
C522 C 0.2894 0.71233 0.26729 0.0
C523 C 0.27242 0.68356 0.24418 0.0
C524 C 0.34183 0.72156 0.21891 0.0
C525 C 0.35748 0.75189 0.24095 0.0
N526 N 0.34415 0.77986 0.28353 0.0
N527 N 0.27941 0.66282 0.19622 0.0
C528 C 0.3306 0.74847 0.2643 0.0
C529 C 0.29783 0.68864 0.21948 0.0
N530 N 0.26688 0.70429 0.29265 0.0
N531 N 0.36903 0.7242 0.19751 0.0
H532 H 0.24731 0.63832 0.19605 0.0
H533 H 0.29467 0.66726 0.17629 0.0
H534 H 0.40067 0.749 0.19537 0.0
H535 H 0.36122 0.70088 0.18285 0.0
H536 H 0.27984 0.72164 0.31154 0.0
H537 H 0.23648 0.67817 0.29572 0.0
H538 H 0.32389 0.78088 0.29885 0.0
H539 H 0.37461 0.80654 0.28278 0.0
C540 C 0.5871 0.25913 0.39812 0.0
C541 C 0.57609 0.24738 0.42752 0.0
C542 C 0.59356 0.31539 0.44023 0.0
C543 C 0.60885 0.32832 0.41148 0.0
N544 N 0.6273 0.3143 0.36441 0.0
N545 N 0.57316 0.2646 0.47755 0.0
C546 C 0.60723 0.30062 0.39065 0.0
C547 C 0.5804 0.27557 0.44887 0.0
N548 N 0.57798 0.23051 0.37731 0.0
N549 N 0.5904 0.34079 0.45904 0.0
H550 H 0.56238 0.2354 0.48466 0.0
H551 H 0.58076 0.28503 0.49458 0.0
H552 H 0.60004 0.37029 0.45368 0.0
H553 H 0.57497 0.3317 0.47907 0.0
H554 H 0.58083 0.23643 0.35506 0.0
H555 H 0.56408 0.19995 0.38214 0.0
H556 H 0.63137 0.29633 0.34972 0.0
H557 H 0.64359 0.34461 0.35829 0.0
C558 C 0.40033 0.61136 0.60077 0.0
C559 C 0.41691 0.59741 0.57914 0.0
C560 C 0.37262 0.60404 0.5418 0.0
C561 C 0.3586 0.62085 0.56305 0.0
N562 N 0.3659 0.64825 0.61144 0.0
N563 N 0.42465 0.58635 0.52853 0.0
C564 C 0.37428 0.62662 0.59221 0.0
C565 C 0.40476 0.59551 0.54945 0.0
N566 N 0.4084 0.60889 0.6296 0.0
N567 N 0.3539 0.59466 0.51466 0.0
H568 H 0.44808 0.57967 0.53342 0.0
H569 H 0.42066 0.58863 0.50629 0.0
H570 H 0.32998 0.60011 0.50836 0.0
H571 H 0.35928 0.5784 0.4992 0.0
H572 H 0.39305 0.61411 0.64646 0.0
H573 H 0.42783 0.59845 0.6368 0.0
H574 H 0.38035 0.6572 0.632 0.0
H575 H 0.34767 0.66067 0.60596 0.0
C576 C 0.82547 0.30535 0.78113 0.0
C577 C 0.85576 0.33706 0.76288 0.0
C578 C 0.79689 0.32556 0.73005 0.0
C579 C 0.7672 0.29126 0.74673 0.0
N580 N 0.75428 0.24416 0.78521 0.0
N581 N 0.87202 0.37446 0.71817 0.0
C582 C 0.78173 0.28003 0.77156 0.0
C583 C 0.84197 0.34635 0.73679 0.0
N584 N 0.83841 0.29988 0.80784 0.0
N585 N 0.78187 0.33941 0.70867 0.0
H586 H 0.90522 0.39108 0.7228 0.0
H587 H 0.86442 0.37923 0.69726 0.0
H588 H 0.74907 0.32547 0.70336 0.0
H589 H 0.80141 0.36671 0.69792 0.0
H590 H 0.81689 0.28029 0.82346 0.0
H591 H 0.87035 0.31745 0.81545 0.0
H592 H 0.76428 0.2323 0.80147 0.0
H593 H 0.72226 0.22419 0.77846 0.0
C594 C 0.36152 0.72982 0.94652 0.0
C595 C 0.35461 0.75141 0.92472 0.0
C596 C 0.35186 0.70562 0.88723 0.0
C597 C 0.36745 0.68967 0.90813 0.0
N598 N 0.38706 0.68556 0.9578 0.0
N599 N 0.33972 0.75915 0.87492 0.0
C600 C 0.37119 0.70066 0.938 0.0
C601 C 0.34782 0.7385 0.89526 0.0
N602 N 0.35999 0.73815 0.97525 0.0
N603 N 0.34105 0.68917 0.85984 0.0
H604 H 0.33446 0.782 0.88063 0.0
H605 H 0.33957 0.75472 0.85255 0.0
H606 H 0.34355 0.66483 0.85363 0.0
H607 H 0.32633 0.69716 0.84411 0.0
H608 H 0.36107 0.72125 0.99234 0.0
H609 H 0.35359 0.75985 0.98201 0.0
H610 H 0.39565 0.69616 0.97913 0.0
H611 H 0.39435 0.66398 0.95254 0.0
C612 C 0.71642 0.4563 0.08258 0.0
C613 C 0.69352 0.45763 0.0579 0.0
C614 C 0.70256 0.40745 0.0328 0.0
C615 C 0.72747 0.40797 0.05689 0.0
N616 N 0.76681 0.43944 0.10148 0.0
N617 N 0.67104 0.44045 0.00774 0.0
C618 C 0.73702 0.43438 0.08084 0.0
C619 C 0.68851 0.43501 0.0324 0.0
N620 N 0.71696 0.47455 0.10813 0.0
N621 N 0.69077 0.37949 0.011 0.0
H622 H 0.66028 0.46032 0.00687 0.0
H623 H 0.67048 0.42795 0.98758 0.0
H624 H 0.70057 0.3589 0.01051 0.0
H625 H 0.66869 0.37461 0.99451 0.0
H626 H 0.72877 0.47058 0.12772 0.0
H627 H 0.70229 0.491 0.11041 0.0
H628 H 0.77854 0.46154 0.11774 0.0
H629 H 0.78308 0.42423 0.10073 0.0
C630 C 0.39199 0.82668 0.55473 0.0
C631 C 0.38625 0.84658 0.53097 0.0
C632 C 0.32047 0.78271 0.51616 0.0
C633 C 0.32918 0.76182 0.53761 0.0
N634 N 0.37863 0.76336 0.57377 0.0
N635 N 0.35021 0.84165 0.48535 0.0
C636 C 0.36632 0.78363 0.55609 0.0
C637 C 0.35193 0.82406 0.51061 0.0
N638 N 0.42126 0.8489 0.57635 0.0
N639 N 0.28142 0.76354 0.50178 0.0
H640 H 0.37327 0.87157 0.47997 0.0
H641 H 0.32846 0.82539 0.46843 0.0
H642 H 0.2567 0.73375 0.50606 0.0
H643 H 0.27181 0.77853 0.48799 0.0
H644 H 0.42358 0.83625 0.59569 0.0
H645 H 0.4405 0.88045 0.57613 0.0
H646 H 0.4079 0.77767 0.5853 0.0
H647 H 0.36187 0.73189 0.57478 0.0
C648 C 0.59579 0.35487 0.67055 0.0
C649 C 0.59683 0.38178 0.69174 0.0
C650 C 0.6245 0.35557 0.72835 0.0
C651 C 0.61913 0.32576 0.70805 0.0
N652 N 0.59346 0.29288 0.66111 0.0
N653 N 0.60605 0.40445 0.74164 0.0
C654 C 0.60323 0.32433 0.67942 0.0
C655 C 0.60941 0.38118 0.72091 0.0
N656 N 0.58867 0.35911 0.64185 0.0
N657 N 0.64591 0.36074 0.75416 0.0
H658 H 0.59577 0.4241 0.7369 0.0
H659 H 0.61007 0.4019 0.76385 0.0
H660 H 0.65864 0.34341 0.7601 0.0
H661 H 0.65478 0.3847 0.76845 0.0
H662 H 0.59231 0.34339 0.62498 0.0
H663 H 0.58257 0.38085 0.63455 0.0
H664 H 0.57714 0.28773 0.64129 0.0
H665 H 0.59826 0.26977 0.6667 0.0
C666 C 0.29621 0.47355 0.8896 0.0
C667 C 0.2811 0.46894 0.86051 0.0
C668 C 0.35546 0.51275 0.84369 0.0
C669 C 0.36865 0.52484 0.87289 0.0
N670 N 0.35404 0.51502 0.92427 0.0
N671 N 0.29556 0.48111 0.80914 0.0
C672 C 0.34007 0.50383 0.89615 0.0
C673 C 0.31066 0.48668 0.83719 0.0
N674 N 0.26804 0.44971 0.9108 0.0
N675 N 0.38599 0.52733 0.82235 0.0
H676 H 0.26298 0.46144 0.80355 0.0
H677 H 0.31488 0.49715 0.7915 0.0
H678 H 0.41904 0.54658 0.82707 0.0
H679 H 0.37923 0.51762 0.80074 0.0
H680 H 0.27733 0.44938 0.93224 0.0
H681 H 0.23571 0.42753 0.90609 0.0
H682 H 0.3336 0.50438 0.94216 0.0
H683 H 0.38633 0.53629 0.92966 0.0
C684 C 0.63997 0.17248 0.00192 0.0
C685 C 0.62024 0.14375 0.02458 0.0
C686 C 0.67877 0.18917 0.05841 0.0
C687 C 0.69697 0.21887 0.03627 0.0
N688 N 0.69224 0.24181 0.98835 0.0
N689 N 0.61621 0.12611 0.07523 0.0
C690 C 0.67663 0.21149 0.00847 0.0
C691 C 0.63836 0.15247 0.05311 0.0
N692 N 0.62483 0.16183 0.97389 0.0
N693 N 0.70034 0.19596 0.08437 0.0
H694 H 0.58653 0.09892 0.07204 0.0
H695 H 0.62531 0.13242 0.09707 0.0
H696 H 0.72898 0.22326 0.08954 0.0
H697 H 0.69145 0.17384 0.10014 0.0
H698 H 0.64084 0.17968 0.9559 0.0
H699 H 0.5979 0.13358 0.96815 0.0
H700 H 0.67584 0.23976 0.96912 0.0
H701 H 0.72021 0.27031 0.99167 0.0
C702 C 0.56902 0.74081 0.1632 0.0
C703 C 0.56124 0.70636 0.17885 0.0
C704 C 0.52837 0.72253 0.21851 0.0
C705 C 0.53751 0.75778 0.20327 0.0
N706 N 0.57499 0.80554 0.16471 0.0
N707 N 0.54188 0.66848 0.22349 0.0
C708 C 0.56046 0.76846 0.17667 0.0
C709 C 0.54363 0.69857 0.20725 0.0
N710 N 0.5831 0.74632 0.13507 0.0
N711 N 0.50302 0.71064 0.24276 0.0
H712 H 0.55215 0.64995 0.21569 0.0
H713 H 0.53367 0.66403 0.24543 0.0
H714 H 0.49119 0.72729 0.25175 0.0
H715 H 0.49099 0.68279 0.25278 0.0
H716 H 0.58445 0.76815 0.12138 0.0
H717 H 0.59053 0.72715 0.12459 0.0
H718 H 0.59556 0.8168 0.1469 0.0
H719 H 0.56987 0.82679 0.17433 0.0
C720 C 0.83942 0.49782 0.33425 0.0
C721 C 0.86056 0.4831 0.35135 0.0
C722 C 0.80291 0.45806 0.3876 0.0
C723 C 0.78451 0.47688 0.37215 0.0
N724 N 0.78981 0.52094 0.33341 0.0
N725 N 0.86645 0.45473 0.39641 0.0
C726 C 0.80396 0.49842 0.34613 0.0
C727 C 0.84344 0.46475 0.37865 0.0
N728 N 0.8526 0.51036 0.30637 0.0
N729 N 0.78076 0.4322 0.40994 0.0
H730 H 0.89599 0.4587 0.39048 0.0
H731 H 0.85801 0.44555 0.41791 0.0
H732 H 0.75051 0.42556 0.41677 0.0
H733 H 0.7904 0.4143 0.41986 0.0
H734 H 0.83559 0.51737 0.2918 0.0
H735 H 0.87828 0.51011 0.29684 0.0
H736 H 0.80564 0.54058 0.31616 0.0
H737 H 0.76475 0.52316 0.34186 0.0
C738 C 0.1613 0.55334 0.43583 0.0
C739 C 0.11908 0.54652 0.4381 0.0
C740 C 0.1303 0.55921 0.49082 0.0
C741 C 0.17416 0.5707 0.48778 0.0
N742 N 0.23363 0.58538 0.45658 0.0
N743 N 0.06396 0.54552 0.46718 0.0
C744 C 0.19021 0.56931 0.4601 0.0
C745 C 0.10374 0.55022 0.46547 0.0
N746 N 0.17382 0.54427 0.41055 0.0
N747 N 0.11356 0.55531 0.51801 0.0
H748 H 0.04264 0.53654 0.44943 0.0
H749 H 0.05303 0.55265 0.48569 0.0
H750 H 0.13186 0.56104 0.53701 0.0
H751 H 0.08079 0.54309 0.52191 0.0
H752 H 0.20218 0.54419 0.40873 0.0
H753 H 0.15417 0.53323 0.39203 0.0
H754 H 0.248 0.58967 0.4363 0.0
H755 H 0.25616 0.59812 0.47364 0.0
C756 C 0.53525 0.07985 0.66033 0.0
C757 C 0.52538 0.09497 0.63539 0.0
C758 C 0.53801 0.1536 0.66373 0.0
C759 C 0.55276 0.14093 0.6875 0.0
N760 N 0.56964 0.09435 0.70814 0.0
N761 N 0.52526 0.15013 0.61183 0.0
C762 C 0.55259 0.10466 0.68574 0.0
C763 C 0.5286 0.1328 0.63671 0.0
N764 N 0.52692 0.04138 0.65992 0.0
N765 N 0.53281 0.18549 0.66696 0.0
H766 H 0.51959 0.13664 0.59135 0.0
H767 H 0.5322 0.17961 0.61103 0.0
H768 H 0.54062 0.20243 0.68615 0.0
H769 H 0.51743 0.19313 0.65146 0.0
H770 H 0.52942 0.02706 0.67823 0.0
H771 H 0.51381 0.02238 0.64173 0.0
H772 H 0.57474 0.07065 0.70696 0.0
H773 H 0.58153 0.11132 0.72732 0.0
C774 C 0.50397 0.65569 0.74901 0.0
C775 C 0.52638 0.63563 0.74502 0.0
C776 C 0.55302 0.65145 0.79545 0.0
C777 C 0.52402 0.66413 0.80083 0.0
N778 N 0.49226 0.69909 0.78008 0.0
N779 N 0.57257 0.61405 0.76425 0.0
C780 C 0.50539 0.67259 0.77682 0.0
C781 C 0.55182 0.63419 0.76802 0.0
N782 N 0.48031 0.65744 0.7265 0.0
N783 N 0.58303 0.65783 0.81628 0.0
H784 H 0.57284 0.60116 0.74447 0.0
H785 H 0.58701 0.60764 0.78123 0.0
H786 H 0.58645 0.67345 0.83559 0.0
H787 H 0.60766 0.65241 0.81302 0.0
H788 H 0.45886 0.66702 0.72891 0.0
H789 H 0.48039 0.64716 0.70553 0.0
H790 H 0.48073 0.7084 0.76303 0.0
H791 H 0.49904 0.71651 0.79889 0.0
C792 C 0.94607 0.3731 0.95708 0.0
C793 C 0.92096 0.35888 0.931 0.0
C794 C 0.85439 0.3271 0.95953 0.0
C795 C 0.87946 0.34613 0.98511 0.0
N796 N 0.94915 0.39175 0.00777 0.0
N797 N 0.85132 0.32611 0.90672 0.0
C798 C 0.92536 0.37015 0.98385 0.0
C799 C 0.87508 0.33678 0.93201 0.0
N800 N 0.98963 0.38861 0.95634 0.0
N801 N 0.81106 0.29858 0.96167 0.0
H802 H 0.86538 0.33231 0.88615 0.0
H803 H 0.81804 0.31396 0.90608 0.0
H804 H 0.79515 0.28962 0.98158 0.0
H805 H 0.79189 0.28087 0.94418 0.0
H806 H 0.00891 0.39556 0.97497 0.0
H807 H 0.00579 0.39096 0.93713 0.0
H808 H 0.98232 0.4133 0.00717 0.0
H809 H 0.93526 0.3908 0.02774 0.0
C810 C 0.45979 0.89311 0.13203 0.0
C811 C 0.48909 0.93437 0.12511 0.0
C812 C 0.52161 0.94732 0.17401 0.0
C813 C 0.49485 0.90526 0.18002 0.0
N814 N 0.44129 0.83707 0.16378 0.0
N815 N 0.55011 0.0005 0.13763 0.0
C816 C 0.46481 0.87784 0.15873 0.0
C817 C 0.52053 0.96153 0.14564 0.0
N818 N 0.42623 0.86873 0.11334 0.0
N819 N 0.54809 0.97357 0.19539 0.0
H820 H 0.54932 0.012 0.11729 0.0
H821 H 0.57691 0.02084 0.15028 0.0
H822 H 0.55184 0.96407 0.2158 0.0
H823 H 0.56471 0.00492 0.19359 0.0
H824 H 0.4006 0.83981 0.11858 0.0
H825 H 0.42178 0.87852 0.09328 0.0
H826 H 0.42376 0.81542 0.14766 0.0
H827 H 0.44114 0.82422 0.1836 0.0
C828 C 0.61837 0.49944 0.25276 0.0
C829 C 0.61251 0.53241 0.25426 0.0
C830 C 0.6201 0.53385 0.30737 0.0
C831 C 0.63224 0.50497 0.30528 0.0
N832 N 0.65056 0.4657 0.27508 0.0
N833 N 0.61064 0.58334 0.28245 0.0
C834 C 0.63306 0.48888 0.27777 0.0
C835 C 0.61415 0.55031 0.28145 0.0
N836 N 0.6097 0.47799 0.22743 0.0
N837 N 0.61256 0.54429 0.33404 0.0
H838 H 0.60426 0.59491 0.26398 0.0
H839 H 0.61662 0.60065 0.3012 0.0
H840 H 0.6151 0.53175 0.35337 0.0
H841 H 0.59973 0.56224 0.33685 0.0
H842 H 0.60828 0.45072 0.22617 0.0
H843 H 0.59972 0.48523 0.20839 0.0
H844 H 0.65637 0.45708 0.25502 0.0
H845 H 0.66347 0.45845 0.29259 0.0
C846 C 0.49403 0.87618 0.38379 0.0
C847 C 0.49824 0.91422 0.38155 0.0
C848 C 0.50645 0.91379 0.32857 0.0
C849 C 0.4971 0.87361 0.33032 0.0
N850 N 0.48315 0.81641 0.35914 0.0
N851 N 0.50552 0.96865 0.35237 0.0
C852 C 0.4914 0.85484 0.35788 0.0
C853 C 0.50402 0.93302 0.35411 0.0
N854 N 0.49328 0.86093 0.41073 0.0
N855 N 0.51774 0.93376 0.30257 0.0
H856 H 0.50543 0.98447 0.37062 0.0
H857 H 0.5038 0.98132 0.33289 0.0
H858 H 0.51854 0.9207 0.28308 0.0
H859 H 0.52992 0.96453 0.30055 0.0
H860 H 0.4946 0.83536 0.41423 0.0
H861 H 0.494 0.87539 0.43003 0.0
H862 H 0.47315 0.79877 0.37783 0.0
H863 H 0.48519 0.80143 0.34102 0.0
C864 C 0.58856 0.53247 0.46424 0.0
C865 C 0.57052 0.50382 0.48712 0.0
C866 C 0.57634 0.45501 0.45733 0.0
C867 C 0.59872 0.48509 0.43593 0.0
N868 N 0.63174 0.55413 0.42031 0.0
N869 N 0.55639 0.44107 0.50784 0.0
C870 C 0.60648 0.52439 0.43974 0.0
C871 C 0.56686 0.46593 0.48433 0.0
N872 N 0.58731 0.56671 0.46554 0.0
N873 N 0.56298 0.41568 0.45158 0.0
H874 H 0.55059 0.44832 0.5284 0.0
H875 H 0.55774 0.41516 0.50766 0.0
H876 H 0.56938 0.40636 0.43201 0.0
H877 H 0.54225 0.39177 0.46514 0.0
H878 H 0.59612 0.58684 0.44831 0.0
H879 H 0.57376 0.57316 0.48296 0.0
H880 H 0.64208 0.58439 0.42335 0.0
H881 H 0.64552 0.54908 0.40231 0.0
C882 C 0.09624 0.51847 0.65612 0.0
C883 C 0.1195 0.51394 0.67907 0.0
C884 C 0.18812 0.55781 0.65358 0.0
C885 C 0.16447 0.55921 0.62944 0.0
N886 N 0.09651 0.54016 0.60648 0.0
N887 N 0.18668 0.52617 0.69929 0.0
C888 C 0.11862 0.53943 0.63041 0.0
C889 C 0.16527 0.53301 0.67778 0.0
N890 N 0.05294 0.50319 0.65918 0.0
N891 N 0.23251 0.58025 0.65336 0.0
H892 H 0.17137 0.50935 0.71783 0.0
H893 H 0.21895 0.53478 0.69805 0.0
H894 H 0.2505 0.59732 0.63554 0.0
H895 H 0.25183 0.58439 0.67147 0.0
H896 H 0.0347 0.50877 0.64471 0.0
H897 H 0.03552 0.4868 0.67741 0.0
H898 H 0.06292 0.52262 0.60421 0.0
H899 H 0.1121 0.55732 0.58809 0.0
C900 C 0.52773 0.08687 0.84231 0.0
C901 C 0.54004 0.10531 0.87031 0.0
C902 C 0.59351 0.17029 0.84847 0.0
C903 C 0.57968 0.15224 0.82042 0.0
N904 N 0.5284 0.09598 0.79012 0.0
N905 N 0.57898 0.16515 0.90036 0.0
C906 C 0.54525 0.11126 0.81719 0.0
C907 C 0.57122 0.1473 0.87348 0.0
N908 N 0.5005 0.04578 0.83978 0.0
N909 N 0.62914 0.20874 0.85124 0.0
H910 H 0.56339 0.14895 0.91911 0.0
H911 H 0.59812 0.19629 0.90382 0.0
H912 H 0.64625 0.22653 0.83342 0.0
H913 H 0.64379 0.22203 0.87114 0.0
H914 H 0.49452 0.02997 0.82026 0.0
H915 H 0.48612 0.0269 0.85761 0.0
H916 H 0.5002 0.06776 0.78658 0.0
H917 H 0.54043 0.11292 0.77115 0.0
C918 C 0.57996 0.67771 0.97639 0.0
C919 C 0.56072 0.67853 0.00289 0.0
C920 C 0.51876 0.70143 0.97701 0.0
C921 C 0.5331 0.69468 0.95017 0.0
N922 N 0.57804 0.678 0.9235 0.0
N923 N 0.51344 0.69207 0.02954 0.0
C924 C 0.56434 0.68373 0.94966 0.0
C925 C 0.53109 0.69134 0.00356 0.0
N926 N 0.61315 0.67116 0.97691 0.0
N927 N 0.49281 0.71679 0.97703 0.0
H928 H 0.52358 0.68685 0.04944 0.0
H929 H 0.48777 0.69628 0.03152 0.0
H930 H 0.48161 0.72292 0.95805 0.0
H931 H 0.48446 0.72599 0.99573 0.0
H932 H 0.63124 0.67348 0.9588 0.0
H933 H 0.62512 0.66643 0.99613 0.0
H934 H 0.59627 0.66494 0.92123 0.0
H935 H 0.56973 0.68506 0.9036 0.0
C936 C 0.91432 0.45765 0.15635 0.0
C937 C 0.90547 0.4301 0.17941 0.0
C938 C 0.86514 0.37332 0.14505 0.0
C939 C 0.87107 0.4009 0.12271 0.0
N940 N 0.88904 0.46825 0.11056 0.0
N941 N 0.863 0.3616 0.19704 0.0
C942 C 0.89195 0.44276 0.12938 0.0
C943 C 0.87779 0.38784 0.17416 0.0
N944 N 0.94563 0.49779 0.15941 0.0
N945 N 0.84959 0.33375 0.1384 0.0
H946 H 0.87076 0.37136 0.21865 0.0
H947 H 0.83961 0.33084 0.19473 0.0
H948 H 0.84153 0.32213 0.11726 0.0
H949 H 0.8488 0.31345 0.15344 0.0
H950 H 0.95635 0.51794 0.14203 0.0
H951 H 0.96396 0.51029 0.17835 0.0
H952 H 0.90041 0.4983 0.11579 0.0
H953 H 0.87074 0.4583 0.09133 0.0
loop_
_geom_bond_atom_site_label_1
_geom_bond_atom_site_label_2
_geom_bond_distance
_geom_bond_site_symmetry_2
_ccdc_geom_bond_type
H0 O26 0.856 . S
H1 O29 0.854 . S
H2 C37 0.930 1_455 S
H3 C38 0.930 . S
H4 C40 0.930 . S
H5 C41 0.930 . S
H6 C43 0.931 . S
H7 C44 0.930 . S
H8 C46 0.930 . S
H9 C47 0.929 . S
H10 C49 0.930 . S
H11 C50 0.931 . S
H12 C52 0.930 . S
H13 C53 0.929 . S
H14 C55 0.931 . S
H15 C56 0.930 . S
H16 C58 0.930 . S
H17 C59 0.932 . S
H18 C61 0.930 . S
H19 C62 0.929 . S
H20 C64 0.931 . S
H21 C65 0.930 . S
H22 C67 0.929 . S
H23 C68 0.931 . S
H24 C70 0.930 . S
H25 C71 0.929 . S
O26 H0 0.856 . S
O26 C72 1.300 . S
O27 C72 1.209 . S
O28 C73 1.199 . S
O29 H1 0.854 . S
O29 C73 1.297 . S
C30 C31 1.404 . S
C30 C35 1.397 . S
C30 C36 1.492 . S
C31 C30 1.404 . S
C31 C32 1.396 . S
C31 C42 1.492 . S
C32 C31 1.396 . S
C32 C33 1.397 . S
C32 C48 1.509 . S
C33 C32 1.397 . S
C33 C34 1.412 . S
C33 C54 1.485 . S
C34 C33 1.412 . S
C34 C35 1.388 . S
C34 C60 1.490 . S
C35 C30 1.397 . S
C35 C34 1.388 . S
C35 C66 1.519 1_455 S
C36 C30 1.492 . S
C36 C37 1.363 1_455 S
C36 C41 1.390 1_455 S
C37 H2 0.930 1_655 S
C37 C36 1.363 1_655 S
C37 C38 1.372 . S
C38 H3 0.930 . S
C38 C37 1.372 . S
C38 C39 1.383 . S
C39 C38 1.383 . S
C39 C40 1.395 . S
C40 H4 0.930 . S
C40 C39 1.395 . S
C40 C41 1.362 . S
C41 H5 0.930 . S
C41 C36 1.390 1_655 S
C41 C40 1.362 . S
C42 C31 1.492 . S
C42 C43 1.377 . S
C42 C47 1.397 . S
C43 H6 0.931 . S
C43 C42 1.377 . S
C43 C44 1.376 . S
C44 H7 0.930 . S
C44 C43 1.376 . S
C44 C45 1.376 . S
C45 C44 1.376 . S
C45 C46 1.378 . S
C45 C72 1.486 . S
C46 H8 0.930 . S
C46 C45 1.378 . S
C46 C47 1.376 . S
C47 H9 0.929 . S
C47 C42 1.397 . S
C47 C46 1.376 . S
C48 C32 1.509 . S
C48 C49 1.391 . S
C48 C53 1.386 . S
C49 H10 0.930 . S
C49 C48 1.391 . S
C49 C50 1.375 . S
C50 H11 0.931 . S
C50 C49 1.375 . S
C50 C51 1.375 . S
C51 C50 1.375 . S
C51 C52 1.361 . S
C52 H12 0.930 . S
C52 C51 1.361 . S
C52 C53 1.399 . S
C53 H13 0.929 . S
C53 C48 1.386 . S
C53 C52 1.399 . S
C54 C33 1.485 . S
C54 C55 1.394 . S
C54 C59 1.360 . S
C55 H14 0.931 . S
C55 C54 1.394 . S
C55 C56 1.372 . S
C56 H15 0.930 . S
C56 C55 1.372 . S
C56 C57 1.397 . S
C57 C56 1.397 . S
C57 C58 1.390 . S
C57 C73 1.476 . S
C58 H16 0.930 . S
C58 C57 1.390 . S
C58 C59 1.366 . S
C59 H17 0.932 . S
C59 C54 1.360 . S
C59 C58 1.366 . S
C60 C34 1.490 . S
C60 C61 1.380 . S
C60 C65 1.386 . S
C61 H18 0.930 . S
C61 C60 1.380 . S
C61 C62 1.381 . S
C62 H19 0.929 . S
C62 C61 1.381 . S
C62 C63 1.371 . S
C63 C62 1.371 . S
C63 C64 1.380 . S
C64 H20 0.931 . S
C64 C63 1.380 . S
C64 C65 1.387 . S
C65 H21 0.930 . S
C65 C60 1.386 . S
C65 C64 1.387 . S
C66 C35 1.519 1_655 S
C66 C67 1.377 . S
C66 C71 1.361 . S
C67 H22 0.929 . S
C67 C66 1.377 . S
C67 C68 1.386 . S
C68 H23 0.931 . S
C68 C67 1.386 . S
C68 C69 1.363 . S
C69 C68 1.363 . S
C69 C70 1.385 . S
C70 H24 0.930 . S
C70 C69 1.385 . S
C70 C71 1.396 . S
C71 H25 0.929 . S
C71 C66 1.361 . S
C71 C70 1.396 . S
C72 O26 1.300 . S
C72 O27 1.209 . S
C72 C45 1.486 . S
C73 O28 1.199 . S
C73 O29 1.297 . S
C73 C57 1.476 . S
H74 O100 0.856 . S
H75 O103 0.854 . S
H76 C111 0.930 1_545 S
H77 C112 0.930 . S
H78 C114 0.930 . S
H79 C115 0.930 . S
H80 C117 0.931 . S
H81 C118 0.930 . S
H82 C120 0.930 . S
H83 C121 0.929 . S
H84 C123 0.930 . S
H85 C124 0.931 . S
H86 C126 0.930 . S
H87 C127 0.929 . S
H88 C129 0.931 . S
H89 C130 0.930 . S
H90 C132 0.930 . S
H91 C133 0.932 . S
H92 C135 0.930 . S
H93 C136 0.929 . S
H94 C138 0.931 . S
H95 C139 0.930 . S
H96 C141 0.929 . S
H97 C142 0.931 . S
H98 C144 0.930 . S
H99 C145 0.929 . S
O100 H74 0.856 . S
O100 C146 1.300 . S
O101 C146 1.209 . S
O102 C147 1.199 . S
O103 H75 0.854 . S
O103 C147 1.297 . S
C104 C105 1.404 . S
C104 C109 1.397 . S
C104 C110 1.492 1_545 S
C105 C104 1.404 . S
C105 C106 1.396 . S
C105 C116 1.492 . S
C106 C105 1.396 . S
C106 C107 1.397 . S
C106 C122 1.509 . S
C107 C106 1.397 . S
C107 C108 1.412 . S
C107 C128 1.485 . S
C108 C107 1.412 . S
C108 C109 1.388 . S
C108 C134 1.490 . S
C109 C104 1.397 . S
C109 C108 1.388 . S
C109 C140 1.519 1_545 S
C110 C104 1.492 1_565 S
C110 C111 1.363 . S
C110 C115 1.390 . S
C111 H76 0.930 1_565 S
C111 C110 1.363 . S
C111 C112 1.372 . S
C112 H77 0.930 . S
C112 C111 1.372 . S
C112 C113 1.383 . S
C113 C112 1.383 . S
C113 C114 1.395 . S
C114 H78 0.930 . S
C114 C113 1.395 . S
C114 C115 1.362 . S
C115 H79 0.930 . S
C115 C110 1.390 . S
C115 C114 1.362 . S
C116 C105 1.492 . S
C116 C117 1.377 . S
C116 C121 1.397 . S
C117 H80 0.931 . S
C117 C116 1.377 . S
C117 C118 1.376 . S
C118 H81 0.930 . S
C118 C117 1.376 . S
C118 C119 1.376 . S
C119 C118 1.376 . S
C119 C120 1.378 . S
C119 C146 1.486 . S
C120 H82 0.930 . S
C120 C119 1.378 . S
C120 C121 1.376 . S
C121 H83 0.929 . S
C121 C116 1.397 . S
C121 C120 1.376 . S
C122 C106 1.509 . S
C122 C123 1.391 . S
C122 C127 1.386 . S
C123 H84 0.930 . S
C123 C122 1.391 . S
C123 C124 1.375 . S
C124 H85 0.931 . S
C124 C123 1.375 . S
C124 C125 1.375 . S
C125 C124 1.375 . S
C125 C126 1.361 . S
C126 H86 0.930 . S
C126 C125 1.361 . S
C126 C127 1.399 . S
C127 H87 0.929 . S
C127 C122 1.386 . S
C127 C126 1.399 . S
C128 C107 1.485 . S
C128 C129 1.394 . S
C128 C133 1.360 . S
C129 H88 0.931 . S
C129 C128 1.394 . S
C129 C130 1.372 . S
C130 H89 0.930 . S
C130 C129 1.372 . S
C130 C131 1.397 . S
C131 C130 1.397 . S
C131 C132 1.390 . S
C131 C147 1.476 . S
C132 H90 0.930 . S
C132 C131 1.390 . S
C132 C133 1.366 . S
C133 H91 0.932 . S
C133 C128 1.360 . S
C133 C132 1.366 . S
C134 C108 1.490 . S
C134 C135 1.380 . S
C134 C139 1.386 . S
C135 H92 0.930 . S
C135 C134 1.380 . S
C135 C136 1.381 . S
C136 H93 0.929 . S
C136 C135 1.381 . S
C136 C137 1.371 . S
C137 C136 1.371 . S
C137 C138 1.380 . S
C138 H94 0.931 . S
C138 C137 1.380 . S
C138 C139 1.387 . S
C139 H95 0.930 . S
C139 C134 1.386 . S
C139 C138 1.387 . S
C140 C109 1.519 1_565 S
C140 C141 1.377 . S
C140 C145 1.361 . S
C141 H96 0.929 . S
C141 C140 1.377 . S
C141 C142 1.386 . S
C142 H97 0.931 . S
C142 C141 1.386 . S
C142 C143 1.363 . S
C143 C142 1.363 . S
C143 C144 1.385 . S
C144 H98 0.930 . S
C144 C143 1.385 . S
C144 C145 1.396 . S
C145 H99 0.929 . S
C145 C140 1.361 . S
C145 C144 1.396 . S
C146 O100 1.300 . S
C146 O101 1.209 . S
C146 C119 1.486 . S
C147 O102 1.199 . S
C147 O103 1.297 . S
C147 C131 1.476 . S
H148 O174 0.856 . S
H149 O177 0.854 . S
H150 C185 0.930 . S
H151 C186 0.930 . S
H152 C188 0.930 . S
H153 C189 0.930 . S
H154 C191 0.931 . S
H155 C192 0.930 . S
H156 C194 0.930 . S
H157 C195 0.929 . S
H158 C197 0.930 . S
H159 C198 0.931 . S
H160 C200 0.930 . S
H161 C201 0.929 . S
H162 C203 0.931 . S
H163 C204 0.930 . S
H164 C206 0.930 . S
H165 C207 0.932 . S
H166 C209 0.930 . S
H167 C210 0.929 . S
H168 C212 0.931 . S
H169 C213 0.930 . S
H170 C215 0.929 . S
H171 C216 0.931 . S
H172 C218 0.930 . S
H173 C219 0.929 . S
O174 H148 0.856 . S
O174 C220 1.300 . S
O175 C220 1.209 . S
O176 C221 1.199 . S
O177 H149 0.854 . S
O177 C221 1.297 . S
C178 C179 1.404 . S
C178 C183 1.397 . S
C178 C184 1.492 . S
C179 C178 1.404 . S
C179 C180 1.396 . S
C179 C190 1.492 . S
C180 C179 1.396 . S
C180 C181 1.397 . S
C180 C196 1.509 . S
C181 C180 1.397 . S
C181 C182 1.412 . S
C181 C202 1.485 . S
C182 C181 1.412 . S
C182 C183 1.388 . S
C182 C208 1.490 . S
C183 C178 1.397 . S
C183 C182 1.388 . S
C183 C214 1.519 . S
C184 C178 1.492 . S
C184 C185 1.363 . S
C184 C189 1.390 . S
C185 H150 0.930 . S
C185 C184 1.363 . S
C185 C186 1.372 . S
C186 H151 0.930 . S
C186 C185 1.372 . S
C186 C187 1.383 . S
C187 C186 1.383 . S
C187 C188 1.395 . S
C188 H152 0.930 . S
C188 C187 1.395 . S
C188 C189 1.362 . S
C189 H153 0.930 . S
C189 C184 1.390 . S
C189 C188 1.362 . S
C190 C179 1.492 . S
C190 C191 1.377 . S
C190 C195 1.397 . S
C191 H154 0.931 . S
C191 C190 1.377 . S
C191 C192 1.376 . S
C192 H155 0.930 . S
C192 C191 1.376 . S
C192 C193 1.376 . S
C193 C192 1.376 . S
C193 C194 1.378 . S
C193 C220 1.486 . S
C194 H156 0.930 . S
C194 C193 1.378 . S
C194 C195 1.376 . S
C195 H157 0.929 . S
C195 C190 1.397 . S
C195 C194 1.376 . S
C196 C180 1.509 . S
C196 C197 1.391 . S
C196 C201 1.386 . S
C197 H158 0.930 . S
C197 C196 1.391 . S
C197 C198 1.375 . S
C198 H159 0.931 . S
C198 C197 1.375 . S
C198 C199 1.375 . S
C199 C198 1.375 . S
C199 C200 1.361 . S
C200 H160 0.930 . S
C200 C199 1.361 . S
C200 C201 1.399 . S
C201 H161 0.929 . S
C201 C196 1.386 . S
C201 C200 1.399 . S
C202 C181 1.485 . S
C202 C203 1.394 . S
C202 C207 1.360 . S
C203 H162 0.931 . S
C203 C202 1.394 . S
C203 C204 1.372 . S
C204 H163 0.930 . S
C204 C203 1.372 . S
C204 C205 1.397 . S
C205 C204 1.397 . S
C205 C206 1.390 . S
C205 C221 1.476 . S
C206 H164 0.930 . S
C206 C205 1.390 . S
C206 C207 1.366 . S
C207 H165 0.932 . S
C207 C202 1.360 . S
C207 C206 1.366 . S
C208 C182 1.490 . S
C208 C209 1.380 . S
C208 C213 1.386 . S
C209 H166 0.930 . S
C209 C208 1.380 . S
C209 C210 1.381 . S
C210 H167 0.929 . S
C210 C209 1.381 . S
C210 C211 1.371 . S
C211 C210 1.371 . S
C211 C212 1.380 . S
C212 H168 0.931 . S
C212 C211 1.380 . S
C212 C213 1.387 . S
C213 H169 0.930 . S
C213 C208 1.386 . S
C213 C212 1.387 . S
C214 C183 1.519 . S
C214 C215 1.377 . S
C214 C219 1.361 . S
C215 H170 0.929 . S
C215 C214 1.377 . S
C215 C216 1.386 . S
C216 H171 0.931 . S
C216 C215 1.386 . S
C216 C217 1.363 . S
C217 C216 1.363 . S
C217 C218 1.385 . S
C218 H172 0.930 . S
C218 C217 1.385 . S
C218 C219 1.396 . S
C219 H173 0.929 . S
C219 C214 1.361 . S
C219 C218 1.396 . S
C220 O174 1.300 . S
C220 O175 1.209 . S
C220 C193 1.486 . S
C221 O176 1.199 . S
C221 O177 1.297 . S
C221 C205 1.476 . S
H222 O248 0.889 . S
H223 O251 0.854 . S
H224 C259 0.930 1_455 S
H225 C260 0.930 . S
H226 C262 0.930 . S
H227 C263 0.930 . S
H228 C265 0.931 . S
H229 C266 0.930 . S
H230 C268 0.930 . S
H231 C269 0.929 . S
H232 C271 0.930 . S
H233 C272 0.931 . S
H234 C274 0.930 . S
H235 C275 0.929 . S
H236 C277 0.931 . S
H237 C278 0.930 . S
H238 C280 0.930 . S
H239 C281 0.932 . S
H240 C283 0.930 . S
H241 C284 0.929 . S
H242 C286 0.931 . S
H243 C287 0.930 . S
H244 C289 0.929 . S
H245 C290 0.931 . S
H246 C292 0.930 . S
H247 C293 0.929 . S
O248 H222 0.889 . S
O248 C294 1.300 . S
O249 C294 1.209 . S
O250 C295 1.199 . S
O251 H223 0.854 . S
O251 C295 1.297 . S
C252 C253 1.404 . S
C252 C257 1.397 . S
C252 C258 1.492 1_455 S
C253 C252 1.404 . S
C253 C254 1.396 . S
C253 C264 1.492 . S
C254 C253 1.396 . S
C254 C255 1.397 . S
C254 C270 1.509 . S
C255 C254 1.397 . S
C255 C256 1.412 . S
C255 C276 1.485 . S
C256 C255 1.412 . S
C256 C257 1.388 . S
C256 C282 1.490 . S
C257 C252 1.397 . S
C257 C256 1.388 . S
C257 C288 1.519 1_455 S
C258 C252 1.492 1_655 S
C258 C259 1.363 . S
C258 C263 1.390 . S
C259 H224 0.930 1_655 S
C259 C258 1.363 . S
C259 C260 1.372 . S
C260 H225 0.930 . S
C260 C259 1.372 . S
C260 C261 1.383 . S
C261 C260 1.383 . S
C261 C262 1.395 . S
C262 H226 0.930 . S
C262 C261 1.395 . S
C262 C263 1.362 . S
C263 H227 0.930 . S
C263 C258 1.390 . S
C263 C262 1.362 . S
C264 C253 1.492 . S
C264 C265 1.377 . S
C264 C269 1.397 . S
C265 H228 0.931 . S
C265 C264 1.377 . S
C265 C266 1.376 . S
C266 H229 0.930 . S
C266 C265 1.376 . S
C266 C267 1.376 . S
C267 C266 1.376 . S
C267 C268 1.378 . S
C267 C294 1.486 . S
C268 H230 0.930 . S
C268 C267 1.378 . S
C268 C269 1.376 . S
C269 H231 0.929 . S
C269 C264 1.397 . S
C269 C268 1.376 . S
C270 C254 1.509 . S
C270 C271 1.391 . S
C270 C275 1.386 . S
C271 H232 0.930 . S
C271 C270 1.391 . S
C271 C272 1.375 . S
C272 H233 0.931 . S
C272 C271 1.375 . S
C272 C273 1.375 . S
C273 C272 1.375 . S
C273 C274 1.361 . S
C274 H234 0.930 . S
C274 C273 1.361 . S
C274 C275 1.399 . S
C275 H235 0.929 . S
C275 C270 1.386 . S
C275 C274 1.399 . S
C276 C255 1.485 . S
C276 C277 1.394 . S
C276 C281 1.360 . S
C277 H236 0.931 . S
C277 C276 1.394 . S
C277 C278 1.372 . S
C278 H237 0.930 . S
C278 C277 1.372 . S
C278 C279 1.397 . S
C279 C278 1.397 . S
C279 C280 1.390 . S
C279 C295 1.476 . S
C280 H238 0.930 . S
C280 C279 1.390 . S
C280 C281 1.366 . S
C281 H239 0.932 . S
C281 C276 1.360 . S
C281 C280 1.366 . S
C282 C256 1.490 . S
C282 C283 1.380 . S
C282 C287 1.386 . S
C283 H240 0.930 . S
C283 C282 1.380 . S
C283 C284 1.381 . S
C284 H241 0.929 . S
C284 C283 1.381 . S
C284 C285 1.371 . S
C285 C284 1.371 . S
C285 C286 1.380 . S
C286 H242 0.931 . S
C286 C285 1.380 . S
C286 C287 1.387 . S
C287 H243 0.930 . S
C287 C282 1.386 . S
C287 C286 1.387 . S
C288 C257 1.519 1_655 S
C288 C289 1.377 . S
C288 C293 1.361 . S
C289 H244 0.929 . S
C289 C288 1.377 . S
C289 C290 1.386 . S
C290 H245 0.931 . S
C290 C289 1.386 . S
C290 C291 1.363 . S
C291 C290 1.363 . S
C291 C292 1.385 . S
C292 H246 0.930 . S
C292 C291 1.385 . S
C292 C293 1.396 . S
C293 H247 0.929 . S
C293 C288 1.361 . S
C293 C292 1.396 . S
C294 O248 1.300 . S
C294 O249 1.209 . S
C294 C267 1.486 . S
C295 O250 1.199 . S
C295 O251 1.297 . S
C295 C279 1.476 . S
H296 O322 0.856 . S
H297 O325 0.854 . S
H298 C333 0.930 . S
H299 C334 0.930 . S
H300 C336 0.930 . S
H301 C337 0.930 . S
H302 C339 0.931 . S
H303 C340 0.930 . S
H304 C342 0.930 . S
H305 C343 0.929 . S
H306 C345 0.930 . S
H307 C346 0.931 . S
H308 C348 0.930 . S
H309 C349 0.929 . S
H310 C351 0.931 . S
H311 C352 0.930 . S
H312 C354 0.930 . S
H313 C355 0.941 . S
H314 C357 0.930 . S
H315 C358 0.918 1_545 S
H316 C360 0.931 . S
H317 C361 0.930 . S
H318 C363 0.929 . S
H319 C364 0.931 . S
H320 C366 0.930 . S
H321 C367 0.929 . S
O322 H296 0.856 . S
O322 C368 1.300 . S
O323 C368 1.209 . S
O324 C369 1.199 . S
O325 H297 0.854 . S
O325 C369 1.297 . S
C326 C327 1.404 1_545 S
C326 C331 1.397 . S
C326 C332 1.492 . S
C327 C326 1.404 1_565 S
C327 C328 1.396 . S
C327 C338 1.492 . S
C328 C327 1.396 . S
C328 C329 1.397 . S
C328 C344 1.509 . S
C329 C328 1.397 . S
C329 C330 1.412 1_556 S
C329 C350 1.485 1_556 S
C330 C329 1.412 1_554 S
C330 C331 1.388 1_564 S
C330 C356 1.490 . S
C331 C326 1.397 . S
C331 C330 1.388 1_546 S
C331 C362 1.519 . S
C332 C326 1.492 . S
C332 C333 1.363 . S
C332 C337 1.390 . S
C333 H298 0.930 . S
C333 C332 1.363 . S
C333 C334 1.372 . S
C334 H299 0.930 . S
C334 C333 1.372 . S
C334 C335 1.383 . S
C335 C334 1.383 . S
C335 C336 1.395 . S
C336 H300 0.930 . S
C336 C335 1.395 . S
C336 C337 1.362 . S
C337 H301 0.930 . S
C337 C332 1.390 . S
C337 C336 1.362 . S
C338 C327 1.492 . S
C338 C339 1.377 . S
C338 C343 1.397 . S
C339 H302 0.931 . S
C339 C338 1.377 . S
C339 C340 1.376 . S
C340 H303 0.930 . S
C340 C339 1.376 . S
C340 C341 1.376 . S
C341 C340 1.376 . S
C341 C342 1.378 . S
C341 C368 1.486 . S
C342 H304 0.930 . S
C342 C341 1.378 . S
C342 C343 1.376 . S
C343 H305 0.929 . S
C343 C338 1.397 . S
C343 C342 1.376 . S
C344 C328 1.509 . S
C344 C345 1.391 . S
C344 C349 1.386 . S
C345 H306 0.930 . S
C345 C344 1.391 . S
C345 C346 1.375 . S
C346 H307 0.931 . S
C346 C345 1.375 . S
C346 C347 1.375 . S
C347 C346 1.375 . S
C347 C348 1.361 . S
C348 H308 0.930 . S
C348 C347 1.361 . S
C348 C349 1.399 . S
C349 H309 0.929 . S
C349 C344 1.386 . S
C349 C348 1.399 . S
C350 C329 1.485 1_554 S
C350 C351 1.394 . S
C350 C355 1.360 . S
C351 H310 0.931 . S
C351 C350 1.394 . S
C351 C352 1.372 . S
C352 H311 0.930 . S
C352 C351 1.372 . S
C352 C353 1.397 . S
C353 C352 1.397 . S
C353 C354 1.390 . S
C353 C369 1.476 . S
C354 H312 0.930 . S
C354 C353 1.390 . S
C354 C355 1.366 . S
C355 H313 0.941 . S
C355 C350 1.360 . S
C355 C354 1.366 . S
C356 C330 1.490 . S
C356 C357 1.380 . S
C356 C361 1.386 . S
C357 H314 0.930 . S
C357 C356 1.380 . S
C357 C358 1.381 . S
C358 H315 0.918 1_565 S
C358 C357 1.381 . S
C358 C359 1.371 . S
C359 C358 1.371 . S
C359 C360 1.380 . S
C360 H316 0.931 . S
C360 C359 1.380 . S
C360 C361 1.387 . S
C361 H317 0.930 . S
C361 C356 1.386 . S
C361 C360 1.387 . S
C362 C331 1.519 . S
C362 C363 1.377 . S
C362 C367 1.361 1_556 S
C363 H318 0.929 . S
C363 C362 1.377 . S
C363 C364 1.386 1_556 S
C364 H319 0.931 . S
C364 C363 1.386 1_554 S
C364 C365 1.363 . S
C365 C364 1.363 . S
C365 C366 1.385 . S
C366 H320 0.930 . S
C366 C365 1.385 . S
C366 C367 1.396 . S
C367 H321 0.929 . S
C367 C362 1.361 1_554 S
C367 C366 1.396 . S
C368 O322 1.300 . S
C368 O323 1.209 . S
C368 C341 1.486 . S
C369 O324 1.199 . S
C369 O325 1.297 . S
C369 C353 1.476 . S
H370 O396 0.856 . S
H371 O399 0.854 . S
H372 C407 0.930 . S
H373 C408 0.930 . S
H374 C410 0.930 . S
H375 C411 0.930 . S
H376 C413 0.931 . S
H377 C414 0.930 . S
H378 C416 0.930 1_556 S
H379 C417 0.929 . S
H380 C419 0.930 . S
H381 C420 0.931 . S
H382 C422 0.930 . S
H383 C423 0.929 . S
H384 C425 0.931 . S
H385 C426 0.930 . S
H386 C428 0.930 . S
H387 C429 0.932 . S
H388 C431 0.930 . S
H389 C432 0.929 . S
H390 C434 0.931 . S
H391 C435 0.930 . S
H392 C437 0.929 . S
H393 C438 0.931 . S
H394 C440 0.930 . S
H395 C441 0.929 . S
O396 H370 0.856 . S
O396 C442 1.300 . S
O397 C442 1.209 . S
O398 C443 1.199 . S
O399 H371 0.854 . S
O399 C443 1.297 . S
C400 C401 1.404 . S
C400 C405 1.397 . S
C400 C406 1.492 . S
C401 C400 1.404 . S
C401 C402 1.396 . S
C401 C412 1.492 . S
C402 C401 1.396 . S
C402 C403 1.397 . S
C402 C418 1.509 . S
C403 C402 1.397 . S
C403 C404 1.412 . S
C403 C424 1.485 . S
C404 C403 1.412 . S
C404 C405 1.388 . S
C404 C430 1.490 . S
C405 C400 1.397 . S
C405 C404 1.388 . S
C405 C436 1.519 . S
C406 C400 1.492 . S
C406 C407 1.363 . S
C406 C411 1.390 . S
C407 H372 0.930 . S
C407 C406 1.363 . S
C407 C408 1.372 . S
C408 H373 0.930 . S
C408 C407 1.372 . S
C408 C409 1.383 . S
C409 C408 1.383 . S
C409 C410 1.395 . S
C410 H374 0.930 . S
C410 C409 1.395 . S
C410 C411 1.362 . S
C411 H375 0.930 . S
C411 C406 1.390 . S
C411 C410 1.362 . S
C412 C401 1.492 . S
C412 C413 1.377 . S
C412 C417 1.397 . S
C413 H376 0.931 . S
C413 C412 1.377 . S
C413 C414 1.376 . S
C414 H377 0.930 . S
C414 C413 1.376 . S
C414 C415 1.376 1_554 S
C415 C414 1.376 1_556 S
C415 C416 1.378 1_556 S
C415 C442 1.486 . S
C416 H378 0.930 1_554 S
C416 C415 1.378 1_554 S
C416 C417 1.376 . S
C417 H379 0.929 . S
C417 C412 1.397 . S
C417 C416 1.376 . S
C418 C402 1.509 . S
C418 C419 1.391 . S
C418 C423 1.386 . S
C419 H380 0.930 . S
C419 C418 1.391 . S
C419 C420 1.375 . S
C420 H381 0.931 . S
C420 C419 1.375 . S
C420 C421 1.375 . S
C421 C420 1.375 . S
C421 C422 1.361 . S
C422 H382 0.930 . S
C422 C421 1.361 . S
C422 C423 1.399 . S
C423 H383 0.929 . S
C423 C418 1.386 . S
C423 C422 1.399 . S
C424 C403 1.485 . S
C424 C425 1.394 . S
C424 C429 1.360 . S
C425 H384 0.931 . S
C425 C424 1.394 . S
C425 C426 1.372 . S
C426 H385 0.930 . S
C426 C425 1.372 . S
C426 C427 1.397 . S
C427 C426 1.397 . S
C427 C428 1.390 . S
C427 C443 1.476 . S
C428 H386 0.930 . S
C428 C427 1.390 . S
C428 C429 1.366 . S
C429 H387 0.932 . S
C429 C424 1.360 . S
C429 C428 1.366 . S
C430 C404 1.490 . S
C430 C431 1.380 . S
C430 C435 1.386 . S
C431 H388 0.930 . S
C431 C430 1.380 . S
C431 C432 1.381 . S
C432 H389 0.929 . S
C432 C431 1.381 . S
C432 C433 1.371 . S
C433 C432 1.371 . S
C433 C434 1.380 . S
C434 H390 0.931 . S
C434 C433 1.380 . S
C434 C435 1.387 . S
C435 H391 0.930 . S
C435 C430 1.386 . S
C435 C434 1.387 . S
C436 C405 1.519 . S
C436 C437 1.377 . S
C436 C441 1.361 . S
C437 H392 0.929 . S
C437 C436 1.377 . S
C437 C438 1.386 . S
C438 H393 0.931 . S
C438 C437 1.386 . S
C438 C439 1.363 . S
C439 C438 1.363 . S
C439 C440 1.385 . S
C440 H394 0.930 . S
C440 C439 1.385 . S
C440 C441 1.396 . S
C441 H395 0.929 . S
C441 C436 1.361 . S
C441 C440 1.396 . S
C442 O396 1.300 . S
C442 O397 1.209 . S
C442 C415 1.486 . S
C443 O398 1.199 . S
C443 O399 1.297 . S
C443 C427 1.476 . S
C444 O445 1.160 . S
C444 O451 1.185 . S
O445 C444 1.160 . S
O446 Zn447 1.899 . S
O446 C454 1.284 . S
Zn447 O446 1.899 . S
Zn447 O448 2.032 . S
Zn447 O451 2.086 . S
Zn447 O456 1.977 . S
O448 Zn447 2.032 . S
O448 C452 1.278 . S
C449 O450 1.203 . S
C449 O456 1.267 . S
O450 C449 1.203 . S
O451 C444 1.185 . S
O451 Zn447 2.086 . S
C452 O448 1.278 . S
C452 O453 1.211 . S
O453 C452 1.211 . S
C454 O446 1.284 . S
C454 O455 1.273 . S
O455 C454 1.273 . S
O456 Zn447 1.977 . S
O456 C449 1.267 . S
C457 O458 1.160 . S
C457 O464 1.185 . S
O458 C457 1.160 . S
O459 Zn460 1.899 . S
O459 C467 1.284 . S
Zn460 O459 1.899 . S
Zn460 O461 2.032 . S
Zn460 O464 2.086 . S
Zn460 O469 1.977 . S
O461 Zn460 2.032 . S
O461 C465 1.278 . S
C462 O463 1.203 . S
C462 O469 1.267 . S
O463 C462 1.203 . S
O464 C457 1.185 . S
O464 Zn460 2.086 . S
C465 O461 1.278 . S
C465 O466 1.211 . S
O466 C465 1.211 . S
C467 O459 1.284 . S
C467 O468 1.273 . S
O468 C467 1.273 . S
O469 Zn460 1.977 . S
O469 C462 1.267 . S
C470 O471 1.160 . S
C470 O477 1.185 . S
O471 C470 1.160 . S
O472 Zn473 1.899 . S
O472 C480 1.284 . S
Zn473 O472 1.899 . S
Zn473 O474 2.032 . S
Zn473 O477 2.086 . S
Zn473 O482 1.977 . S
O474 Zn473 2.032 . S
O474 C478 1.278 . S
C475 O476 1.203 . S
C475 O482 1.267 . S
O476 C475 1.203 . S
O477 C470 1.185 . S
O477 Zn473 2.086 . S
C478 O474 1.278 . S
C478 O479 1.211 . S
O479 C478 1.211 . S
C480 O472 1.284 . S
C480 O481 1.273 . S
O481 C480 1.273 . S
O482 Zn473 1.977 . S
O482 C475 1.267 . S
C483 O484 1.160 . S
C483 O490 1.185 . S
O484 C483 1.160 . S
O485 Zn486 1.899 . S
O485 C493 1.284 . S
Zn486 O485 1.899 . S
Zn486 O487 2.032 . S
Zn486 O490 2.086 . S
Zn486 O495 1.977 . S
O487 Zn486 2.032 . S
O487 C491 1.278 . S
C488 O489 1.203 . S
C488 O495 1.267 . S
O489 C488 1.203 . S
O490 C483 1.185 . S
O490 Zn486 2.086 . S
C491 O487 1.278 . S
C491 O492 1.211 . S
O492 C491 1.211 . S
C493 O485 1.284 . S
C493 O494 1.273 . S
O494 C493 1.273 . S
O495 Zn486 1.977 . S
O495 C488 1.267 . S
C496 O497 1.160 . S
C496 O503 1.185 . S
O497 C496 1.160 . S
O498 Zn499 1.899 . S
O498 C506 1.284 . S
Zn499 O498 1.899 . S
Zn499 O500 2.032 . S
Zn499 O503 2.086 . S
Zn499 O508 1.977 . S
O500 Zn499 2.032 . S
O500 C504 1.278 . S
C501 O502 1.203 . S
C501 O508 1.267 . S
O502 C501 1.203 . S
O503 C496 1.185 . S
O503 Zn499 2.086 . S
C504 O500 1.278 . S
C504 O505 1.211 . S
O505 C504 1.211 . S
C506 O498 1.284 . S
C506 O507 1.273 . S
O507 C506 1.273 . S
O508 Zn499 1.977 . S
O508 C501 1.267 . S
C509 O510 1.160 . S
C509 O516 1.185 . S
O510 C509 1.160 . S
O511 Zn512 1.899 . S
O511 C519 1.284 . S
Zn512 O511 1.899 . S
Zn512 O513 2.032 . S
Zn512 O516 2.086 . S
Zn512 O521 1.977 . S
O513 Zn512 2.032 . S
O513 C517 1.278 . S
C514 O515 1.203 . S
C514 O521 1.267 . S
O515 C514 1.203 . S
O516 C509 1.185 . S
O516 Zn512 2.086 . S
C517 O513 1.278 . S
C517 O518 1.211 . S
O518 C517 1.211 . S
C519 O511 1.284 . S
C519 O520 1.273 . S
O520 C519 1.273 . S
O521 Zn512 1.977 . S
O521 C514 1.267 . S
C522 C523 1.363 . S
C522 C528 1.379 . S
C522 N530 1.356 . S
C523 C522 1.363 . S
C523 C529 1.363 . S
C524 C525 1.363 . S
C524 C529 1.379 . S
C524 N531 1.356 . S
C525 C524 1.363 . S
C525 C528 1.363 . S
N526 C528 1.356 . S
N526 H538 0.984 . S
N526 H539 0.985 . S
N527 C529 1.356 . S
N527 H532 0.984 . S
N527 H533 0.985 . S
C528 C522 1.379 . S
C528 C525 1.363 . S
C528 N526 1.356 . S
C529 C523 1.363 . S
C529 C524 1.379 . S
C529 N527 1.356 . S
N530 C522 1.356 . S
N530 H536 0.984 . S
N530 H537 0.984 . S
N531 C524 1.356 . S
N531 H534 0.984 . S
N531 H535 0.985 . S
H532 N527 0.984 . S
H533 N527 0.985 . S
H534 N531 0.984 . S
H535 N531 0.985 . S
H536 N530 0.984 . S
H537 N530 0.984 . S
H538 N526 0.984 . S
H539 N526 0.985 . S
C540 C541 1.363 . S
C540 C546 1.379 . S
C540 N548 1.356 . S
C541 C540 1.363 . S
C541 C547 1.363 . S
C542 C543 1.363 . S
C542 C547 1.379 . S
C542 N549 1.356 . S
C543 C542 1.363 . S
C543 C546 1.363 . S
N544 C546 1.356 . S
N544 H556 0.984 . S
N544 H557 0.985 . S
N545 C547 1.356 . S
N545 H550 0.984 . S
N545 H551 0.985 . S
C546 C540 1.379 . S
C546 C543 1.363 . S
C546 N544 1.356 . S
C547 C541 1.363 . S
C547 C542 1.379 . S
C547 N545 1.356 . S
N548 C540 1.356 . S
N548 H554 0.984 . S
N548 H555 0.984 . S
N549 C542 1.356 . S
N549 H552 0.984 . S
N549 H553 0.985 . S
H550 N545 0.984 . S
H551 N545 0.985 . S
H552 N549 0.984 . S
H553 N549 0.985 . S
H554 N548 0.984 . S
H555 N548 0.984 . S
H556 N544 0.984 . S
H557 N544 0.985 . S
C558 C559 1.363 . S
C558 C564 1.379 . S
C558 N566 1.356 . S
C559 C558 1.363 . S
C559 C565 1.363 . S
C560 C561 1.363 . S
C560 C565 1.379 . S
C560 N567 1.356 . S
C561 C560 1.363 . S
C561 C564 1.363 . S
N562 C564 1.356 . S
N562 H574 0.984 . S
N562 H575 0.985 . S
N563 C565 1.356 . S
N563 H568 0.984 . S
N563 H569 0.985 . S
C564 C558 1.379 . S
C564 C561 1.363 . S
C564 N562 1.356 . S
C565 C559 1.363 . S
C565 C560 1.379 . S
C565 N563 1.356 . S
N566 C558 1.356 . S
N566 H572 0.984 . S
N566 H573 0.984 . S
N567 C560 1.356 . S
N567 H570 0.984 . S
N567 H571 0.985 . S
H568 N563 0.984 . S
H569 N563 0.985 . S
H570 N567 0.984 . S
H571 N567 0.985 . S
H572 N566 0.984 . S
H573 N566 0.984 . S
H574 N562 0.984 . S
H575 N562 0.985 . S
C576 C577 1.363 . S
C576 C582 1.379 . S
C576 N584 1.356 . S
C577 C576 1.363 . S
C577 C583 1.363 . S
C578 C579 1.363 . S
C578 C583 1.379 . S
C578 N585 1.356 . S
C579 C578 1.363 . S
C579 C582 1.363 . S
N580 C582 1.356 . S
N580 H592 0.984 . S
N580 H593 0.985 . S
N581 C583 1.356 . S
N581 H586 0.984 . S
N581 H587 0.985 . S
C582 C576 1.379 . S
C582 C579 1.363 . S
C582 N580 1.356 . S
C583 C577 1.363 . S
C583 C578 1.379 . S
C583 N581 1.356 . S
N584 C576 1.356 . S
N584 H590 0.984 . S
N584 H591 0.984 . S
N585 C578 1.356 . S
N585 H588 0.984 . S
N585 H589 0.985 . S
H586 N581 0.984 . S
H587 N581 0.985 . S
H588 N585 0.984 . S
H589 N585 0.985 . S
H590 N584 0.984 . S
H591 N584 0.984 . S
H592 N580 0.984 . S
H593 N580 0.985 . S
C594 C595 1.363 . S
C594 C600 1.379 . S
C594 N602 1.356 . S
C595 C594 1.363 . S
C595 C601 1.363 . S
C596 C597 1.363 . S
C596 C601 1.379 . S
C596 N603 1.356 . S
C597 C596 1.363 . S
C597 C600 1.363 . S
N598 C600 1.356 . S
N598 H610 0.984 . S
N598 H611 0.985 . S
N599 C601 1.356 . S
N599 H604 0.984 . S
N599 H605 0.985 . S
C600 C594 1.379 . S
C600 C597 1.363 . S
C600 N598 1.356 . S
C601 C595 1.363 . S
C601 C596 1.379 . S
C601 N599 1.356 . S
N602 C594 1.356 . S
N602 H608 0.984 . S
N602 H609 0.984 . S
N603 C596 1.356 . S
N603 H606 0.984 . S
N603 H607 0.985 . S
H604 N599 0.984 . S
H605 N599 0.985 . S
H606 N603 0.984 . S
H607 N603 0.985 . S
H608 N602 0.984 . S
H609 N602 0.984 . S
H610 N598 0.984 . S
H611 N598 0.985 . S
C612 C613 1.363 . S
C612 C618 1.379 . S
C612 N620 1.356 . S
C613 C612 1.363 . S
C613 C619 1.363 . S
C614 C615 1.363 . S
C614 C619 1.379 . S
C614 N621 1.356 . S
C615 C614 1.363 . S
C615 C618 1.363 . S
N616 C618 1.356 . S
N616 H628 0.984 . S
N616 H629 0.985 . S
N617 C619 1.356 . S
N617 H622 0.984 . S
N617 H623 0.985 . S
C618 C612 1.379 . S
C618 C615 1.363 . S
C618 N616 1.356 . S
C619 C613 1.363 . S
C619 C614 1.379 . S
C619 N617 1.356 . S
N620 C612 1.356 . S
N620 H626 0.984 . S
N620 H627 0.984 . S
N621 C614 1.356 . S
N621 H624 0.984 . S
N621 H625 0.985 . S
H622 N617 0.984 . S
H623 N617 0.985 . S
H624 N621 0.984 . S
H625 N621 0.985 . S
H626 N620 0.984 . S
H627 N620 0.984 . S
H628 N616 0.984 . S
H629 N616 0.985 . S
C630 C631 1.363 . S
C630 C636 1.379 . S
C630 N638 1.356 . S
C631 C630 1.363 . S
C631 C637 1.363 . S
C632 C633 1.363 . S
C632 C637 1.379 . S
C632 N639 1.356 . S
C633 C632 1.363 . S
C633 C636 1.363 . S
N634 C636 1.356 . S
N634 H646 0.984 . S
N634 H647 0.985 . S
N635 C637 1.356 . S
N635 H640 0.984 . S
N635 H641 0.985 . S
C636 C630 1.379 . S
C636 C633 1.363 . S
C636 N634 1.356 . S
C637 C631 1.363 . S
C637 C632 1.379 . S
C637 N635 1.356 . S
N638 C630 1.356 . S
N638 H644 0.984 . S
N638 H645 0.984 . S
N639 C632 1.356 . S
N639 H642 0.984 . S
N639 H643 0.985 . S
H640 N635 0.984 . S
H641 N635 0.985 . S
H642 N639 0.984 . S
H643 N639 0.985 . S
H644 N638 0.984 . S
H645 N638 0.984 . S
H646 N634 0.984 . S
H647 N634 0.985 . S
C648 C649 1.363 . S
C648 C654 1.379 . S
C648 N656 1.356 . S
C649 C648 1.363 . S
C649 C655 1.363 . S
C650 C651 1.363 . S
C650 C655 1.379 . S
C650 N657 1.356 . S
C651 C650 1.363 . S
C651 C654 1.363 . S
N652 C654 1.356 . S
N652 H664 0.984 . S
N652 H665 0.985 . S
N653 C655 1.356 . S
N653 H658 0.984 . S
N653 H659 0.985 . S
C654 C648 1.379 . S
C654 C651 1.363 . S
C654 N652 1.356 . S
C655 C649 1.363 . S
C655 C650 1.379 . S
C655 N653 1.356 . S
N656 C648 1.356 . S
N656 H662 0.984 . S
N656 H663 0.984 . S
N657 C650 1.356 . S
N657 H660 0.984 . S
N657 H661 0.985 . S
H658 N653 0.984 . S
H659 N653 0.985 . S
H660 N657 0.984 . S
H661 N657 0.985 . S
H662 N656 0.984 . S
H663 N656 0.984 . S
H664 N652 0.984 . S
H665 N652 0.985 . S
C666 C667 1.363 . S
C666 C672 1.379 . S
C666 N674 1.356 . S
C667 C666 1.363 . S
C667 C673 1.363 . S
C668 C669 1.363 . S
C668 C673 1.379 . S
C668 N675 1.356 . S
C669 C668 1.363 . S
C669 C672 1.363 . S
N670 C672 1.356 . S
N670 H682 0.984 . S
N670 H683 0.985 . S
N671 C673 1.356 . S
N671 H676 0.984 . S
N671 H677 0.985 . S
C672 C666 1.379 . S
C672 C669 1.363 . S
C672 N670 1.356 . S
C673 C667 1.363 . S
C673 C668 1.379 . S
C673 N671 1.356 . S
N674 C666 1.356 . S
N674 H680 0.984 . S
N674 H681 0.984 . S
N675 C668 1.356 . S
N675 H678 0.984 . S
N675 H679 0.985 . S
H676 N671 0.984 . S
H677 N671 0.985 . S
H678 N675 0.984 . S
H679 N675 0.985 . S
H680 N674 0.984 . S
H681 N674 0.984 . S
H682 N670 0.984 . S
H683 N670 0.985 . S
C684 C685 1.363 . S
C684 C690 1.379 . S
C684 N692 1.356 1_554 S
C685 C684 1.363 . S
C685 C691 1.363 . S
C686 C687 1.363 . S
C686 C691 1.379 . S
C686 N693 1.356 . S
C687 C686 1.363 . S
C687 C690 1.363 . S
N688 C690 1.356 . S
N688 H700 0.984 1_554 S
N688 H701 0.985 . S
N689 C691 1.356 . S
N689 H694 0.984 . S
N689 H695 0.985 . S
C690 C684 1.379 . S
C690 C687 1.363 . S
C690 N688 1.356 . S
C691 C685 1.363 . S
C691 C686 1.379 . S
C691 N689 1.356 . S
N692 C684 1.356 1_556 S
N692 H698 0.984 . S
N692 H699 0.984 . S
N693 C686 1.356 . S
N693 H696 0.984 . S
N693 H697 0.985 . S
H694 N689 0.984 . S
H695 N689 0.985 . S
H696 N693 0.984 . S
H697 N693 0.985 . S
H698 N692 0.984 . S
H699 N692 0.984 . S
H700 N688 0.984 1_556 S
H701 N688 0.985 . S
C702 C703 1.363 . S
C702 C708 1.379 . S
C702 N710 1.356 . S
C703 C702 1.363 . S
C703 C709 1.363 . S
C704 C705 1.363 . S
C704 C709 1.379 . S
C704 N711 1.356 . S
C705 C704 1.363 . S
C705 C708 1.363 . S
N706 C708 1.356 . S
N706 H718 0.984 . S
N706 H719 0.985 . S
N707 C709 1.356 . S
N707 H712 0.984 . S
N707 H713 0.985 . S
C708 C702 1.379 . S
C708 C705 1.363 . S
C708 N706 1.356 . S
C709 C703 1.363 . S
C709 C704 1.379 . S
C709 N707 1.356 . S
N710 C702 1.356 . S
N710 H716 0.984 . S
N710 H717 0.984 . S
N711 C704 1.356 . S
N711 H714 0.984 . S
N711 H715 0.985 . S
H712 N707 0.984 . S
H713 N707 0.985 . S
H714 N711 0.984 . S
H715 N711 0.985 . S
H716 N710 0.984 . S
H717 N710 0.984 . S
H718 N706 0.984 . S
H719 N706 0.985 . S
C720 C721 1.363 . S
C720 C726 1.379 . S
C720 N728 1.356 . S
C721 C720 1.363 . S
C721 C727 1.363 . S
C722 C723 1.363 . S
C722 C727 1.379 . S
C722 N729 1.356 . S
C723 C722 1.363 . S
C723 C726 1.363 . S
N724 C726 1.356 . S
N724 H736 0.984 . S
N724 H737 0.985 . S
N725 C727 1.356 . S
N725 H730 0.984 . S
N725 H731 0.985 . S
C726 C720 1.379 . S
C726 C723 1.363 . S
C726 N724 1.356 . S
C727 C721 1.363 . S
C727 C722 1.379 . S
C727 N725 1.356 . S
N728 C720 1.356 . S
N728 H734 0.984 . S
N728 H735 0.984 . S
N729 C722 1.356 . S
N729 H732 0.984 . S
N729 H733 0.985 . S
H730 N725 0.984 . S
H731 N725 0.985 . S
H732 N729 0.984 . S
H733 N729 0.985 . S
H734 N728 0.984 . S
H735 N728 0.984 . S
H736 N724 0.984 . S
H737 N724 0.985 . S
C738 C739 1.363 . S
C738 C744 1.379 . S
C738 N746 1.356 . S
C739 C738 1.363 . S
C739 C745 1.363 . S
C740 C741 1.363 . S
C740 C745 1.379 . S
C740 N747 1.356 . S
C741 C740 1.363 . S
C741 C744 1.363 . S
N742 C744 1.356 . S
N742 H754 0.984 . S
N742 H755 0.985 . S
N743 C745 1.356 . S
N743 H748 0.984 . S
N743 H749 0.985 . S
C744 C738 1.379 . S
C744 C741 1.363 . S
C744 N742 1.356 . S
C745 C739 1.363 . S
C745 C740 1.379 . S
C745 N743 1.356 . S
N746 C738 1.356 . S
N746 H752 0.984 . S
N746 H753 0.984 . S
N747 C740 1.356 . S
N747 H750 0.984 . S
N747 H751 0.985 . S
H748 N743 0.984 . S
H749 N743 0.985 . S
H750 N747 0.984 . S
H751 N747 0.985 . S
H752 N746 0.984 . S
H753 N746 0.984 . S
H754 N742 0.984 . S
H755 N742 0.985 . S
C756 C757 1.363 . S
C756 C762 1.379 . S
C756 N764 1.356 . S
C757 C756 1.363 . S
C757 C763 1.363 . S
C758 C759 1.363 . S
C758 C763 1.379 . S
C758 N765 1.356 . S
C759 C758 1.363 . S
C759 C762 1.363 . S
N760 C762 1.356 . S
N760 H772 0.984 . S
N760 H773 0.985 . S
N761 C763 1.356 . S
N761 H766 0.984 . S
N761 H767 0.985 . S
C762 C756 1.379 . S
C762 C759 1.363 . S
C762 N760 1.356 . S
C763 C757 1.363 . S
C763 C758 1.379 . S
C763 N761 1.356 . S
N764 C756 1.356 . S
N764 H770 0.984 . S
N764 H771 0.984 . S
N765 C758 1.356 . S
N765 H768 0.984 . S
N765 H769 0.985 . S
H766 N761 0.984 . S
H767 N761 0.985 . S
H768 N765 0.984 . S
H769 N765 0.985 . S
H770 N764 0.984 . S
H771 N764 0.984 . S
H772 N760 0.984 . S
H773 N760 0.985 . S
C774 C775 1.363 . S
C774 C780 1.379 . S
C774 N782 1.356 . S
C775 C774 1.363 . S
C775 C781 1.363 . S
C776 C777 1.363 . S
C776 C781 1.379 . S
C776 N783 1.356 . S
C777 C776 1.363 . S
C777 C780 1.363 . S
N778 C780 1.356 . S
N778 H790 0.984 . S
N778 H791 0.985 . S
N779 C781 1.356 . S
N779 H784 0.984 . S
N779 H785 0.985 . S
C780 C774 1.379 . S
C780 C777 1.363 . S
C780 N778 1.356 . S
C781 C775 1.363 . S
C781 C776 1.379 . S
C781 N779 1.356 . S
N782 C774 1.356 . S
N782 H788 0.984 . S
N782 H789 0.984 . S
N783 C776 1.356 . S
N783 H786 0.984 . S
N783 H787 0.985 . S
H784 N779 0.984 . S
H785 N779 0.985 . S
H786 N783 0.984 . S
H787 N783 0.985 . S
H788 N782 0.984 . S
H789 N782 0.984 . S
H790 N778 0.984 . S
H791 N778 0.985 . S
C792 C793 1.363 . S
C792 C798 1.379 . S
C792 N800 1.356 . S
C793 C792 1.363 . S
C793 C799 1.363 . S
C794 C795 1.363 . S
C794 C799 1.379 . S
C794 N801 1.356 . S
C795 C794 1.363 . S
C795 C798 1.363 . S
N796 C798 1.356 . S
N796 H808 0.984 . S
N796 H809 0.985 1_556 S
N797 C799 1.356 . S
N797 H802 0.984 . S
N797 H803 0.985 . S
C798 C792 1.379 . S
C798 C795 1.363 . S
C798 N796 1.356 . S
C799 C793 1.363 . S
C799 C794 1.379 . S
C799 N797 1.356 . S
N800 C792 1.356 . S
N800 H806 0.984 . S
N800 H807 0.984 . S
N801 C794 1.356 . S
N801 H804 0.984 . S
N801 H805 0.985 . S
H802 N797 0.984 . S
H803 N797 0.985 . S
H804 N801 0.984 . S
H805 N801 0.985 . S
H806 N800 0.984 . S
H807 N800 0.984 . S
H808 N796 0.984 . S
H809 N796 0.985 1_554 S
C810 C811 1.363 . S
C810 C816 1.379 . S
C810 N818 1.356 . S
C811 C810 1.363 . S
C811 C817 1.363 . S
C812 C813 1.363 . S
C812 C817 1.379 . S
C812 N819 1.356 . S
C813 C812 1.363 . S
C813 C816 1.363 . S
N814 C816 1.356 . S
N814 H826 0.984 . S
N814 H827 0.985 . S
N815 C817 1.356 1_545 S
N815 H820 0.984 . S
N815 H821 0.985 . S
C816 C810 1.379 . S
C816 C813 1.363 . S
C816 N814 1.356 . S
C817 C811 1.363 . S
C817 C812 1.379 . S
C817 N815 1.356 1_565 S
N818 C810 1.356 . S
N818 H824 0.984 . S
N818 H825 0.984 . S
N819 C812 1.356 . S
N819 H822 0.984 . S
N819 H823 0.985 . S
H820 N815 0.984 . S
H821 N815 0.985 . S
H822 N819 0.984 . S
H823 N819 0.985 . S
H824 N818 0.984 . S
H825 N818 0.984 . S
H826 N814 0.984 . S
H827 N814 0.985 . S
C828 C829 1.363 . S
C828 C834 1.379 . S
C828 N836 1.356 . S
C829 C828 1.363 . S
C829 C835 1.363 . S
C830 C831 1.363 . S
C830 C835 1.379 . S
C830 N837 1.356 . S
C831 C830 1.363 . S
C831 C834 1.363 . S
N832 C834 1.356 . S
N832 H844 0.984 . S
N832 H845 0.985 . S
N833 C835 1.356 . S
N833 H838 0.984 . S
N833 H839 0.985 . S
C834 C828 1.379 . S
C834 C831 1.363 . S
C834 N832 1.356 . S
C835 C829 1.363 . S
C835 C830 1.379 . S
C835 N833 1.356 . S
N836 C828 1.356 . S
N836 H842 0.984 . S
N836 H843 0.984 . S
N837 C830 1.356 . S
N837 H840 0.984 . S
N837 H841 0.985 . S
H838 N833 0.984 . S
H839 N833 0.985 . S
H840 N837 0.984 . S
H841 N837 0.985 . S
H842 N836 0.984 . S
H843 N836 0.984 . S
H844 N832 0.984 . S
H845 N832 0.985 . S
C846 C847 1.363 . S
C846 C852 1.379 . S
C846 N854 1.356 . S
C847 C846 1.363 . S
C847 C853 1.363 . S
C848 C849 1.363 . S
C848 C853 1.379 . S
C848 N855 1.356 . S
C849 C848 1.363 . S
C849 C852 1.363 . S
N850 C852 1.356 . S
N850 H862 0.984 . S
N850 H863 0.985 . S
N851 C853 1.356 . S
N851 H856 0.984 . S
N851 H857 0.985 . S
C852 C846 1.379 . S
C852 C849 1.363 . S
C852 N850 1.356 . S
C853 C847 1.363 . S
C853 C848 1.379 . S
C853 N851 1.356 . S
N854 C846 1.356 . S
N854 H860 0.984 . S
N854 H861 0.984 . S
N855 C848 1.356 . S
N855 H858 0.984 . S
N855 H859 0.985 . S
H856 N851 0.984 . S
H857 N851 0.985 . S
H858 N855 0.984 . S
H859 N855 0.985 . S
H860 N854 0.984 . S
H861 N854 0.984 . S
H862 N850 0.984 . S
H863 N850 0.985 . S
C864 C865 1.363 . S
C864 C870 1.379 . S
C864 N872 1.356 . S
C865 C864 1.363 . S
C865 C871 1.363 . S
C866 C867 1.363 . S
C866 C871 1.379 . S
C866 N873 1.356 . S
C867 C866 1.363 . S
C867 C870 1.363 . S
N868 C870 1.356 . S
N868 H880 0.984 . S
N868 H881 0.985 . S
N869 C871 1.356 . S
N869 H874 0.984 . S
N869 H875 0.985 . S
C870 C864 1.379 . S
C870 C867 1.363 . S
C870 N868 1.356 . S
C871 C865 1.363 . S
C871 C866 1.379 . S
C871 N869 1.356 . S
N872 C864 1.356 . S
N872 H878 0.984 . S
N872 H879 0.984 . S
N873 C866 1.356 . S
N873 H876 0.984 . S
N873 H877 0.985 . S
H874 N869 0.984 . S
H875 N869 0.985 . S
H876 N873 0.984 . S
H877 N873 0.985 . S
H878 N872 0.984 . S
H879 N872 0.984 . S
H880 N868 0.984 . S
H881 N868 0.985 . S
C882 C883 1.363 . S
C882 C888 1.379 . S
C882 N890 1.356 . S
C883 C882 1.363 . S
C883 C889 1.363 . S
C884 C885 1.363 . S
C884 C889 1.379 . S
C884 N891 1.356 . S
C885 C884 1.363 . S
C885 C888 1.363 . S
N886 C888 1.356 . S
N886 H898 0.984 . S
N886 H899 0.985 . S
N887 C889 1.356 . S
N887 H892 0.984 . S
N887 H893 0.985 . S
C888 C882 1.379 . S
C888 C885 1.363 . S
C888 N886 1.356 . S
C889 C883 1.363 . S
C889 C884 1.379 . S
C889 N887 1.356 . S
N890 C882 1.356 . S
N890 H896 0.984 1_455 S
N890 H897 0.984 1_455 S
N891 C884 1.356 . S
N891 H894 0.984 . S
N891 H895 0.985 . S
H892 N887 0.984 . S
H893 N887 0.985 . S
H894 N891 0.984 . S
H895 N891 0.985 . S
H896 N890 0.984 1_655 S
H897 N890 0.984 1_655 S
H898 N886 0.984 . S
H899 N886 0.985 . S
C900 C901 1.363 . S
C900 C906 1.379 . S
C900 N908 1.356 . S
C901 C900 1.363 . S
C901 C907 1.363 . S
C902 C903 1.363 . S
C902 C907 1.379 . S
C902 N909 1.356 . S
C903 C902 1.363 . S
C903 C906 1.363 . S
N904 C906 1.356 . S
N904 H916 0.984 . S
N904 H917 0.985 . S
N905 C907 1.356 . S
N905 H910 0.984 . S
N905 H911 0.985 . S
C906 C900 1.379 . S
C906 C903 1.363 . S
C906 N904 1.356 . S
C907 C901 1.363 . S
C907 C902 1.379 . S
C907 N905 1.356 . S
N908 C900 1.356 . S
N908 H914 0.984 . S
N908 H915 0.984 . S
N909 C902 1.356 . S
N909 H912 0.984 . S
N909 H913 0.985 . S
H910 N905 0.984 . S
H911 N905 0.985 . S
H912 N909 0.984 . S
H913 N909 0.985 . S
H914 N908 0.984 . S
H915 N908 0.984 . S
H916 N904 0.984 . S
H917 N904 0.985 . S
C918 C919 1.363 . S
C918 C924 1.379 1_554 S
C918 N926 1.356 . S
C919 C918 1.363 . S
C919 C925 1.363 . S
C920 C921 1.363 . S
C920 C925 1.379 1_556 S
C920 N927 1.356 . S
C921 C920 1.363 . S
C921 C924 1.363 . S
N922 C924 1.356 . S
N922 H934 0.984 . S
N922 H935 0.985 . S
N923 C925 1.356 . S
N923 H928 0.984 . S
N923 H929 0.985 . S
C924 C918 1.379 1_556 S
C924 C921 1.363 . S
C924 N922 1.356 . S
C925 C919 1.363 . S
C925 C920 1.379 1_554 S
C925 N923 1.356 . S
N926 C918 1.356 . S
N926 H932 0.984 . S
N926 H933 0.984 . S
N927 C920 1.356 . S
N927 H930 0.984 . S
N927 H931 0.985 . S
H928 N923 0.984 . S
H929 N923 0.985 . S
H930 N927 0.984 . S
H931 N927 0.985 . S
H932 N926 0.984 . S
H933 N926 0.984 . S
H934 N922 0.984 . S
H935 N922 0.985 . S
C936 C937 1.363 . S
C936 C942 1.379 . S
C936 N944 1.356 . S
C937 C936 1.363 . S
C937 C943 1.363 . S
C938 C939 1.363 . S
C938 C943 1.379 . S
C938 N945 1.356 . S
C939 C938 1.363 . S
C939 C942 1.363 . S
N940 C942 1.356 . S
N940 H952 0.984 . S
N940 H953 0.985 . S
N941 C943 1.356 . S
N941 H946 0.984 . S
N941 H947 0.985 . S
C942 C936 1.379 . S
C942 C939 1.363 . S
C942 N940 1.356 . S
C943 C937 1.363 . S
C943 C938 1.379 . S
C943 N941 1.356 . S
N944 C936 1.356 . S
N944 H950 0.984 . S
N944 H951 0.984 . S
N945 C938 1.356 . S
N945 H948 0.984 . S
N945 H949 0.985 . S
H946 N941 0.984 . S
H947 N941 0.985 . S
H948 N945 0.984 . S
H949 N945 0.985 . S
H950 N944 0.984 . S
H951 N944 0.984 . S
H952 N940 0.984 . S
H953 N940 0.985 . S
C525 C519 1.433 . S
C523 C51 1.389 . S
C541 C125 1.523 . S
C543 C444 1.418 . S
C559 C217 2.501 . S
C561 C467 2.557 . S
C577 C291 1.505 . S
C579 C480 1.503 . S
C597 C483 1.021 . S
C595 C347 1.089 . S
C613 C421 0.954 . S
C615 C496 0.945 . S
C631 C143 2.189 . S
C633 C457 2.065 . S
C649 C199 1.559 . S
C651 C470 1.473 . S
C667 C273 0.683 . S
C669 C493 0.682 . S
C687 C506 1.729 . S
C685 C365 1.671 . S
C705 C509 1.762 . S
C703 C439 1.932 . S
C723 C454 2.414 . S
C721 C69 2.376 . S
C739 C63 1.504 . S
C741 C465 1.601 . S
C757 C137 1.548 . S
C759 C478 1.629 . S
C777 C488 1.396 . S
C775 C187 1.357 . S
C793 C261 1.494 . S
C795 C501 1.488 1_556 S
C813 C517 1.667 . S
C811 C359 1.522 . S
C831 C449 1.299 . S
C829 C433 1.206 . S
C849 C514 1.560 . S
C847 C113 1.666 . S
C865 C211 1.431 . S
C867 C452 1.530 . S
C885 C462 1.692 . S
C883 C285 1.621 . S
C901 C335 1.416 . S
C903 C475 1.521 . S
C919 C409 1.319 . S
C921 C491 1.426 . S
C937 C39 1.645 . S
C939 C504 1.703 . S
