# Generated by pormake.
# Topology apo, (3,6)-cn, num edge types: 1
# Building blocks:
#     Node 0, Type 0, BuildingBlock: BELTOD_clean_linker_0, # of connection points: 3
#     Node 1, Type 0, BuildingBlock: BELTOD_clean_linker_0, # of connection points: 3
#     Node 2, Type 0, BuildingBlock: BELTOD_clean_linker_0, # of connection points: 3
#     Node 3, Type 0, BuildingBlock: BELTOD_clean_linker_0, # of connection points: 3
#     Node 4, Type 0, BuildingBlock: BELTOD_clean_linker_0, # of connection points: 3
#     Node 5, Type 0, BuildingBlock: BELTOD_clean_linker_0, # of connection points: 3
#     Node 6, Type 0, BuildingBlock: BELTOD_clean_linker_0, # of connection points: 3
#     Node 7, Type 0, BuildingBlock: BELTOD_clean_linker_0, # of connection points: 3
#     Node 8, Type 1, BuildingBlock: KUMBOL_clean_sbu_1, # of connection points: 6
#     Node 9, Type 1, BuildingBlock: KUMBOL_clean_sbu_1, # of connection points: 6
#     Node 10, Type 1, BuildingBlock: KUMBOL_clean_sbu_1, # of connection points: 6
#     Node 11, Type 1, BuildingBlock: KUMBOL_clean_sbu_1, # of connection points: 6
#     Edge 12, Type (0, 1), BuildingBlock: CIFDUS_clean_linker_0, # of connection points: 2
#     Edge 13, Type (0, 1), BuildingBlock: CIFDUS_clean_linker_0, # of connection points: 2
#     Edge 14, Type (0, 1), BuildingBlock: CIFDUS_clean_linker_0, # of connection points: 2
#     Edge 15, Type (0, 1), BuildingBlock: CIFDUS_clean_linker_0, # of connection points: 2
#     Edge 16, Type (0, 1), BuildingBlock: CIFDUS_clean_linker_0, # of connection points: 2
#     Edge 17, Type (0, 1), BuildingBlock: CIFDUS_clean_linker_0, # of connection points: 2
#     Edge 18, Type (0, 1), BuildingBlock: CIFDUS_clean_linker_0, # of connection points: 2
#     Edge 19, Type (0, 1), BuildingBlock: CIFDUS_clean_linker_0, # of connection points: 2
#     Edge 20, Type (0, 1), BuildingBlock: CIFDUS_clean_linker_0, # of connection points: 2
#     Edge 21, Type (0, 1), BuildingBlock: CIFDUS_clean_linker_0, # of connection points: 2
#     Edge 22, Type (0, 1), BuildingBlock: CIFDUS_clean_linker_0, # of connection points: 2
#     Edge 23, Type (0, 1), BuildingBlock: CIFDUS_clean_linker_0, # of connection points: 2
#     Edge 24, Type (0, 1), BuildingBlock: CIFDUS_clean_linker_0, # of connection points: 2
#     Edge 25, Type (0, 1), BuildingBlock: CIFDUS_clean_linker_0, # of connection points: 2
#     Edge 26, Type (0, 1), BuildingBlock: CIFDUS_clean_linker_0, # of connection points: 2
#     Edge 27, Type (0, 1), BuildingBlock: CIFDUS_clean_linker_0, # of connection points: 2
#     Edge 28, Type (0, 1), BuildingBlock: CIFDUS_clean_linker_0, # of connection points: 2
#     Edge 29, Type (0, 1), BuildingBlock: CIFDUS_clean_linker_0, # of connection points: 2
#     Edge 30, Type (0, 1), BuildingBlock: CIFDUS_clean_linker_0, # of connection points: 2
#     Edge 31, Type (0, 1), BuildingBlock: CIFDUS_clean_linker_0, # of connection points: 2
#     Edge 32, Type (0, 1), BuildingBlock: CIFDUS_clean_linker_0, # of connection points: 2
#     Edge 33, Type (0, 1), BuildingBlock: CIFDUS_clean_linker_0, # of connection points: 2
#     Edge 34, Type (0, 1), BuildingBlock: CIFDUS_clean_linker_0, # of connection points: 2
#     Edge 35, Type (0, 1), BuildingBlock: CIFDUS_clean_linker_0, # of connection points: 2
# Relax obj value: 0.008
# Max RMSD: 0.118
# Mean RMSD: 0.086
data_MOF--net-apo--node1-KUMBOL_clean_sbu_1--node2-BELTOD_clean_linker_0--edge1-CIFDUS_clean_linker_0
_symmetry_space_group_name_H-M    P1
_symmetry_Int_Tables_number       1
_symmetry_cell_setting            triclinic
loop_
_symmetry_equiv_pos_as_xyz
'x, y, z'
_cell_length_a     24.689033
_cell_length_b     42.922649
_cell_length_c     54.115772
_cell_angle_alpha  89.643509
_cell_angle_beta   90.102539
_cell_angle_gamma 90.206252
loop_
_atom_site_label
_atom_site_type_symbol
_atom_site_fract_x
_atom_site_fract_y
_atom_site_fract_z
_atom_type_partial_charge
P0 P 0.33518 0.36264 0.40769 0.0
H1 H 0.31282 0.32106 0.44918 0.0
H2 H 0.30549 0.3303 0.49369 0.0
H3 H 0.31347 0.42955 0.48018 0.0
H4 H 0.31974 0.42022 0.43605 0.0
H5 H 0.34982 0.32404 0.36479 0.0
H6 H 0.28886 0.29151 0.34058 0.0
H7 H 0.15675 0.31528 0.38917 0.0
H8 H 0.21847 0.34845 0.41324 0.0
H9 H 0.43076 0.39983 0.39615 0.0
H10 H 0.25872 0.40489 0.38286 0.0
O11 O 0.39467 0.34431 0.40859 0.0
H12 H 0.44413 0.44799 0.37282 0.0
H13 H 0.27195 0.45341 0.35919 0.0
C14 C 0.31655 0.36988 0.43927 0.0
C15 C 0.3115 0.3448 0.45582 0.0
C16 C 0.30787 0.35012 0.48125 0.0
C17 C 0.30937 0.38067 0.49053 0.0
C18 C 0.3116 0.40575 0.4737 0.0
C19 C 0.31533 0.4004 0.44834 0.0
C20 C 0.2889 0.33798 0.39111 0.0
C21 C 0.30786 0.322 0.37041 0.0
C22 C 0.27296 0.30334 0.35662 0.0
C23 C 0.21808 0.30042 0.36314 0.0
C24 C 0.19881 0.31704 0.38368 0.0
C25 C 0.23404 0.33578 0.39756 0.0
C26 C 0.34396 0.39842 0.39066 0.0
C27 C 0.39586 0.41119 0.38803 0.0
C28 C 0.40345 0.43872 0.37467 0.0
C29 C 0.35915 0.45418 0.36386 0.0
C30 C 0.30679 0.44192 0.36727 0.0
C31 C 0.29927 0.41416 0.3806 0.0
P32 P 0.302 0.09595 0.91212 0.0
H33 H 0.31908 0.07591 0.86179 0.0
H34 H 0.26787 0.04247 0.83373 0.0
H35 H 0.14671 0.02812 0.89021 0.0
H36 H 0.1983 0.06169 0.91826 0.0
H37 H 0.3795 0.14603 0.92105 0.0
H38 H 0.40351 0.19262 0.89696 0.0
H39 H 0.26725 0.17598 0.84866 0.0
H40 H 0.24278 0.12992 0.873 0.0
H41 H 0.32858 0.06106 0.95671 0.0
H42 H 0.21646 0.1333 0.93564 0.0
O43 O 0.3637 0.08027 0.91357 0.0
H44 H 0.29493 0.06247 0.99897 0.0
H45 H 0.18217 0.13485 0.97832 0.0
C46 C 0.26252 0.07132 0.89206 0.0
C47 C 0.28142 0.06561 0.86811 0.0
C48 C 0.25197 0.04665 0.85205 0.0
C49 C 0.20317 0.03272 0.85973 0.0
C50 C 0.18439 0.03836 0.88384 0.0
C51 C 0.21375 0.05763 0.89986 0.0
C52 C 0.31023 0.13409 0.89846 0.0
C53 C 0.354 0.15288 0.90566 0.0
C54 C 0.36763 0.1795 0.89192 0.0
C55 C 0.33776 0.18755 0.87071 0.0
C56 C 0.29147 0.16998 0.8647 0.0
C57 C 0.2775 0.14362 0.87862 0.0
C58 C 0.27579 0.09753 0.94317 0.0
C59 C 0.29696 0.07746 0.96123 0.0
C60 C 0.27777 0.07835 0.98546 0.0
C61 C 0.23643 0.09909 0.9921 0.0
C62 C 0.21416 0.11868 0.97377 0.0
C63 C 0.23381 0.11792 0.94945 0.0
P64 P 0.86868 0.15891 0.6142 0.0
H65 H 0.823 0.20372 0.57925 0.0
H66 H 0.81192 0.2034 0.53432 0.0
H67 H 0.87723 0.11027 0.53196 0.0
H68 H 0.88768 0.11054 0.57682 0.0
H69 H 0.87223 0.19913 0.65724 0.0
H70 H 0.80345 0.22907 0.67888 0.0
H71 H 0.68096 0.19334 0.62931 0.0
H72 H 0.75056 0.16363 0.60749 0.0
H73 H 0.96143 0.1175 0.61562 0.0
H74 H 0.79666 0.11624 0.64196 0.0
O75 O 0.92656 0.1787 0.61735 0.0
H76 H 0.9766 0.06621 0.63411 0.0
H77 H 0.81172 0.06483 0.66068 0.0
C78 C 0.85489 0.15689 0.58153 0.0
C79 C 0.83391 0.18299 0.56914 0.0
C80 C 0.82779 0.18283 0.54346 0.0
C81 C 0.84374 0.15681 0.52966 0.0
C82 C 0.86497 0.13074 0.54212 0.0
C83 C 0.87051 0.13079 0.56783 0.0
C84 C 0.81668 0.17983 0.6304 0.0
C85 C 0.83061 0.19779 0.65098 0.0
C86 C 0.7911 0.21469 0.66348 0.0
C87 C 0.73668 0.21372 0.65576 0.0
C88 C 0.72263 0.19497 0.63547 0.0
C89 C 0.7623 0.17797 0.62301 0.0
C90 C 0.87823 0.12085 0.6277 0.0
C91 C 0.92853 0.10618 0.62543 0.0
C92 C 0.93703 0.07678 0.63585 0.0
C93 C 0.89535 0.06153 0.64888 0.0
C94 C 0.84471 0.07618 0.65096 0.0
C95 C 0.83607 0.10553 0.64024 0.0
P96 P 0.79719 0.40953 0.1014 0.0
H97 H 0.81249 0.4751 0.11442 0.0
H98 H 0.76058 0.51033 0.14049 0.0
H99 H 0.6376 0.43946 0.14991 0.0
H100 H 0.68967 0.40426 0.12352 0.0
H101 H 0.84504 0.34862 0.09216 0.0
H102 H 0.87632 0.30701 0.11969 0.0
H103 H 0.81555 0.35792 0.18247 0.0
H104 H 0.78743 0.39986 0.15515 0.0
H105 H 0.8005 0.43445 0.05136 0.0
H106 H 0.7198 0.35939 0.0899 0.0
O107 O 0.85589 0.42659 0.09406 0.0
H108 H 0.7565 0.41908 0.01286 0.0
H109 H 0.67607 0.34345 0.05124 0.0
C110 C 0.75498 0.43704 0.11718 0.0
C111 C 0.77394 0.46728 0.12171 0.0
C112 C 0.7442 0.48744 0.13657 0.0
C113 C 0.69532 0.47752 0.14734 0.0
C114 C 0.67544 0.44756 0.14201 0.0
C115 C 0.70488 0.42756 0.12684 0.0
C116 C 0.81283 0.37708 0.12145 0.0
C117 C 0.83786 0.35056 0.11183 0.0
C118 C 0.85552 0.32672 0.12762 0.0
C119 C 0.84852 0.32905 0.15338 0.0
C120 C 0.82236 0.35547 0.16282 0.0
C121 C 0.80538 0.37939 0.14706 0.0
C122 C 0.76435 0.3976 0.0733 0.0
C123 C 0.77366 0.41444 0.05146 0.0
C124 C 0.74858 0.40557 0.02944 0.0
C125 C 0.71325 0.37982 0.0289 0.0
C126 C 0.70294 0.36345 0.05105 0.0
C127 C 0.72818 0.37236 0.0731 0.0
P128 P 0.80087 0.5962 0.60119 0.0
H129 H 0.82009 0.6434 0.56287 0.0
H130 H 0.78316 0.65095 0.52141 0.0
H131 H 0.67467 0.57307 0.53324 0.0
H132 H 0.71013 0.56651 0.57469 0.0
H133 H 0.85402 0.59762 0.64857 0.0
H134 H 0.88519 0.63916 0.67529 0.0
H135 H 0.81746 0.70728 0.62489 0.0
H136 H 0.78234 0.66515 0.59919 0.0
H137 H 0.83899 0.54021 0.62642 0.0
H138 H 0.68791 0.58907 0.61788 0.0
O139 O 0.86022 0.58138 0.59254 0.0
H140 H 0.79497 0.50142 0.65232 0.0
H141 H 0.64199 0.54885 0.6424 0.0
C142 C 0.76601 0.60552 0.57264 0.0
C143 C 0.7866 0.62888 0.55698 0.0
C144 C 0.76613 0.63277 0.53301 0.0
C145 C 0.72555 0.61275 0.52389 0.0
C146 C 0.70474 0.58953 0.53974 0.0
C147 C 0.72501 0.58582 0.56371 0.0
C148 C 0.81667 0.62812 0.62158 0.0
C149 C 0.845 0.62146 0.64341 0.0
C150 C 0.86352 0.64538 0.65857 0.0
C151 C 0.8553 0.67677 0.652 0.0
C152 C 0.82476 0.68343 0.63058 0.0
C153 C 0.80523 0.65927 0.61559 0.0
C154 C 0.76637 0.56697 0.6195 0.0
C155 C 0.7959 0.54222 0.62968 0.0
C156 C 0.77041 0.51983 0.64446 0.0
C157 C 0.71442 0.52138 0.64919 0.0
C158 C 0.68514 0.54678 0.63937 0.0
C159 C 0.71114 0.56963 0.62503 0.0
P160 P 0.84228 0.86369 0.1091 0.0
H161 H 0.90577 0.88212 0.15203 0.0
H162 H 0.91885 0.93174 0.17266 0.0
H163 H 0.79856 0.97379 0.12492 0.0
H164 H 0.7868 0.92378 0.1038 0.0
H165 H 0.81716 0.79863 0.10064 0.0
H166 H 0.7574 0.76202 0.12207 0.0
H167 H 0.6897 0.83779 0.16395 0.0
H168 H 0.74879 0.87448 0.14204 0.0
H169 H 0.9011 0.90981 0.08088 0.0
H170 H 0.78743 0.83579 0.06555 0.0
O171 O 0.89931 0.84404 0.11457 0.0
H172 H 0.91555 0.91757 0.03688 0.0
H173 H 0.80311 0.84295 0.02107 0.0
C174 C 0.84608 0.89949 0.12614 0.0
C175 C 0.88196 0.90193 0.14607 0.0
C176 C 0.88906 0.93034 0.15799 0.0
C177 C 0.85985 0.95683 0.1504 0.0
C178 C 0.82224 0.95396 0.13097 0.0
C179 C 0.81525 0.92541 0.119 0.0
C180 C 0.7877 0.83922 0.1198 0.0
C181 C 0.78827 0.80753 0.11386 0.0
C182 C 0.75444 0.78659 0.12629 0.0
C183 C 0.7196 0.79698 0.14501 0.0
C184 C 0.71606 0.82911 0.1496 0.0
C185 C 0.75002 0.85011 0.13709 0.0
C186 C 0.84269 0.87249 0.07655 0.0
C187 C 0.87832 0.89561 0.06802 0.0
C188 C 0.8871 0.89979 0.04283 0.0
C189 C 0.86112 0.88054 0.02555 0.0
C190 C 0.82359 0.85816 0.034 0.0
C191 C 0.81469 0.85402 0.05941 0.0
P192 P 0.27518 0.89862 0.41736 0.0
H193 H 0.31232 0.8624 0.45943 0.0
H194 H 0.27092 0.84883 0.49903 0.0
H195 H 0.12077 0.89072 0.47486 0.0
H196 H 0.16286 0.90466 0.43545 0.0
H197 H 0.37716 0.88342 0.39319 0.0
H198 H 0.40404 0.84161 0.36545 0.0
H199 H 0.24291 0.80259 0.36947 0.0
H200 H 0.21635 0.84426 0.39804 0.0
H201 H 0.25057 0.96345 0.42721 0.0
H202 H 0.21097 0.89605 0.37114 0.0
O203 O 0.33127 0.91677 0.42691 0.0
H204 H 0.20058 0.00332 0.40427 0.0
H205 H 0.16008 0.93546 0.34847 0.0
C206 C 0.24093 0.8848 0.44465 0.0
C207 C 0.27029 0.86832 0.46258 0.0
C208 C 0.24645 0.86047 0.48518 0.0
C209 C 0.19259 0.86891 0.49024 0.0
C210 C 0.16261 0.88437 0.47174 0.0
C211 C 0.18656 0.8922 0.44911 0.0
C212 C 0.29488 0.86677 0.39784 0.0
C213 C 0.34765 0.86574 0.3884 0.0
C214 C 0.363 0.84188 0.37251 0.0
C215 C 0.32551 0.81896 0.36536 0.0
C216 C 0.27243 0.82011 0.37465 0.0
C217 C 0.25739 0.84371 0.39102 0.0
C218 C 0.23538 0.92693 0.40072 0.0
C219 C 0.2309 0.95719 0.41003 0.0
C220 C 0.20194 0.97989 0.397 0.0
C221 C 0.17667 0.97262 0.37444 0.0
C222 C 0.17991 0.94195 0.36556 0.0
C223 C 0.20891 0.91929 0.37862 0.0
P224 P 0.3408 0.64774 0.90884 0.0
H225 H 0.41225 0.62921 0.86887 0.0
H226 H 0.42856 0.57954 0.84851 0.0
H227 H 0.31428 0.53468 0.89768 0.0
H228 H 0.29853 0.58465 0.91817 0.0
H229 H 0.28352 0.70646 0.91626 0.0
H230 H 0.21778 0.73514 0.89128 0.0
H231 H 0.21971 0.66128 0.83725 0.0
H232 H 0.28212 0.63214 0.86298 0.0
H233 H 0.4097 0.62769 0.94934 0.0
H234 H 0.24434 0.6576 0.94036 0.0
O235 O 0.39596 0.67001 0.90587 0.0
H236 H 0.39685 0.62423 0.99404 0.0
H237 H 0.23183 0.65585 0.98501 0.0
C238 C 0.35518 0.61042 0.89538 0.0
C239 C 0.39121 0.60862 0.87548 0.0
C240 C 0.39999 0.58027 0.86366 0.0
C241 C 0.37264 0.55316 0.87144 0.0
C242 C 0.33642 0.55507 0.89144 0.0
C243 C 0.32744 0.58357 0.90318 0.0
C244 C 0.28719 0.66688 0.89184 0.0
C245 C 0.26868 0.69616 0.89932 0.0
C246 C 0.23162 0.71276 0.88476 0.0
C247 C 0.21337 0.70076 0.86201 0.0
C248 C 0.23177 0.67118 0.85477 0.0
C249 C 0.26806 0.65443 0.86954 0.0
C250 C 0.32835 0.64343 0.94155 0.0
C251 C 0.37064 0.63366 0.95704 0.0
C252 C 0.36333 0.63193 0.98264 0.0
C253 C 0.31348 0.64011 0.99333 0.0
C254 C 0.27068 0.6491 0.97755 0.0
C255 C 0.27794 0.65049 0.95191 0.0
C256 C 0.83767 0.13033 0.25655 0.0
C257 C 0.81596 0.07751 0.26939 0.0
C258 C 0.85166 0.10317 0.26879 0.0
C259 C 0.76698 0.07902 0.2562 0.0
C260 C 0.7871 0.13265 0.24454 0.0
C261 C 0.7526 0.10654 0.24376 0.0
N262 N 0.8714 0.1553 0.25829 0.0
C263 C 0.85399 0.1841 0.25102 0.0
C264 C 0.77164 0.16153 0.23474 0.0
C265 C 0.80476 0.18752 0.23848 0.0
Gd266 Gd 0.07261 0.13607 0.22525 0.0
Gd267 Gd 0.95537 0.14659 0.27804 0.0
N268 N 0.89923 0.10254 0.28135 0.0
C269 C 0.82978 0.0516 0.28392 0.0
C270 C 0.91152 0.07822 0.29674 0.0
C271 C 0.87732 0.0522 0.29801 0.0
H272 H 0.94841 0.07874 0.30752 0.0
H273 H 0.88771 0.03262 0.30976 0.0
H274 H 0.03724 0.19423 0.18551 0.0
H275 H 0.87781 0.20459 0.25503 0.0
H276 H 0.065 0.24822 0.17655 0.0
H277 H 0.80336 0.03143 0.28493 0.0
H278 H 0.73921 0.05942 0.25616 0.0
H279 H 0.17658 0.10224 0.25327 0.0
H280 H 0.73314 0.16431 0.22536 0.0
H281 H 0.79202 0.21029 0.23208 0.0
H282 H 0.23065 0.26076 0.22193 0.0
H283 H 0.71385 0.10777 0.23438 0.0
H284 H 0.30197 0.17049 0.26317 0.0
H285 H 0.26801 0.11652 0.26864 0.0
N286 N 0.15961 0.1477 0.23976 0.0
C287 C 0.17849 0.17694 0.23537 0.0
C288 C 0.19151 0.12575 0.2508 0.0
C289 C 0.26212 0.16428 0.25634 0.0
C290 C 0.2431 0.13378 0.25946 0.0
C291 C 0.22994 0.18624 0.24395 0.0
H292 H 0.28705 0.22458 0.2462 0.0
N293 N 0.09843 0.18674 0.21265 0.0
C294 C 0.14643 0.19727 0.22182 0.0
C295 C 0.1345 0.24648 0.20063 0.0
C296 C 0.16547 0.22754 0.2163 0.0
C297 C 0.07118 0.20397 0.19539 0.0
C298 C 0.08774 0.23437 0.18971 0.0
O299 O 0.95988 0.10269 0.25534 0.0
O300 O 0.98687 0.12047 0.21747 0.0
O301 O 0.10732 0.13407 0.18834 0.0
O302 O 0.10239 0.09238 0.21068 0.0
O303 O 0.02806 0.11746 0.28956 0.0
O304 O 0.06769 0.09723 0.25374 0.0
O305 O 0.09368 0.15441 0.26331 0.0
O306 O 0.01921 0.18339 0.27209 0.0
O307 O 0.96768 0.1452 0.31802 0.0
O308 O 0.9056 0.17434 0.30229 0.0
O309 O 0.99366 0.15916 0.2146 0.0
O310 O 0.97041 0.18528 0.25003 0.0
C311 C 0.96097 0.10014 0.23125 0.0
C312 C 0.05806 0.09667 0.27782 0.0
C313 C 0.09139 0.08687 0.16725 0.0
C314 C 0.08826 0.07941 0.12243 0.0
C315 C 0.03362 0.04677 0.14963 0.0
C316 C 0.05377 0.06247 0.1702 0.0
C317 C 0.05034 0.05527 0.12591 0.0
C318 C 0.10884 0.09505 0.14329 0.0
C319 C 0.11267 0.10397 0.18888 0.0
C320 C 0.21566 0.23747 0.22577 0.0
C321 C 0.24787 0.21684 0.23953 0.0
H322 H 0.14764 0.26989 0.19595 0.0
C323 C 0.07081 0.17759 0.27497 0.0
C324 C 0.96909 0.18219 0.22586 0.0
C325 C 0.88567 0.14992 0.34021 0.0
C326 C 0.856 0.14127 0.38274 0.0
C327 C 0.79904 0.12494 0.34846 0.0
C328 C 0.83727 0.1363 0.33175 0.0
C329 C 0.80816 0.12745 0.37379 0.0
C330 C 0.89507 0.15218 0.36577 0.0
C331 C 0.92557 0.1624 0.32243 0.0
H332 H 0.00517 0.02778 0.15208 0.0
H333 H 0.03994 0.05541 0.18837 0.0
H334 H 0.03446 0.04247 0.11029 0.0
H335 H 0.13797 0.11379 0.14088 0.0
H336 H 0.762 0.11438 0.34175 0.0
H337 H 0.82859 0.13474 0.31223 0.0
H338 H 0.77785 0.11843 0.38642 0.0
H339 H 0.932 0.16305 0.37239 0.0
C340 C 0.65886 0.41966 0.76561 0.0
C341 C 0.63908 0.4712 0.78101 0.0
C342 C 0.62718 0.4391 0.77982 0.0
C343 C 0.68144 0.48359 0.76661 0.0
C344 C 0.70296 0.43164 0.75202 0.0
C345 C 0.71337 0.46383 0.75217 0.0
N346 N 0.64663 0.38882 0.76526 0.0
C347 C 0.6795 0.36817 0.75349 0.0
C348 C 0.73534 0.41082 0.73882 0.0
C349 C 0.72398 0.3789 0.73984 0.0
Gd350 Gd 0.44192 0.36078 0.74081 0.0
Gd351 Gd 0.56936 0.3729 0.78722 0.0
N352 N 0.58668 0.4263 0.79353 0.0
C353 C 0.60917 0.48967 0.79723 0.0
C354 C 0.5612 0.44361 0.81105 0.0
C355 C 0.57085 0.47566 0.81271 0.0
H356 H 0.53398 0.43266 0.82403 0.0
H357 H 0.54928 0.48943 0.82616 0.0
H358 H 0.45554 0.28793 0.72209 0.0
H359 H 0.67058 0.34354 0.75426 0.0
H360 H 0.4081 0.23721 0.72676 0.0
H361 H 0.61695 0.51445 0.79868 0.0
H362 H 0.69071 0.50827 0.76702 0.0
H363 H 0.35196 0.41533 0.76022 0.0
H364 H 0.76955 0.4191 0.72809 0.0
H365 H 0.7493 0.36258 0.73005 0.0
H366 H 0.25481 0.2607 0.77791 0.0
H367 H 0.74654 0.47359 0.74153 0.0
H368 H 0.22228 0.3679 0.79678 0.0
H369 H 0.26779 0.41693 0.7843 0.0
N370 N 0.35856 0.36582 0.76167 0.0
C371 C 0.33216 0.33868 0.76683 0.0
C372 C 0.33454 0.3937 0.7667 0.0
C373 C 0.26031 0.36702 0.78685 0.0
C374 C 0.28594 0.39474 0.77989 0.0
C375 C 0.28254 0.33852 0.77972 0.0
H376 H 0.21784 0.30955 0.79433 0.0
N377 N 0.40003 0.31213 0.74486 0.0
C378 C 0.35291 0.31109 0.7577 0.0
C379 C 0.34527 0.25587 0.74994 0.0
C380 C 0.32473 0.28276 0.76101 0.0
C381 C 0.4192 0.28637 0.73314 0.0
C382 C 0.39239 0.25776 0.7357 0.0
O383 O 0.57251 0.38539 0.74643 0.0
O384 O 0.48934 0.40558 0.73802 0.0
O385 O 0.45452 0.35499 0.70139 0.0
O386 O 0.37698 0.37052 0.71486 0.0
O387 O 0.48844 0.39315 0.79876 0.0
O388 O 0.44681 0.40635 0.76191 0.0
O389 O 0.46141 0.32476 0.77035 0.0
O390 O 0.49062 0.35447 0.80263 0.0
O391 O 0.61172 0.37962 0.82214 0.0
O392 O 0.61517 0.33519 0.80378 0.0
O393 O 0.52009 0.33679 0.72994 0.0
O394 O 0.56751 0.3274 0.76642 0.0
C395 C 0.54214 0.40672 0.73602 0.0
C396 C 0.45573 0.41096 0.78564 0.0
C397 C 0.40481 0.38896 0.67588 0.0
C398 C 0.38952 0.40225 0.63254 0.0
C399 C 0.4132 0.44261 0.66211 0.0
C400 C 0.41562 0.42037 0.68101 0.0
C401 C 0.40006 0.4337 0.63802 0.0
C402 C 0.39207 0.37997 0.65168 0.0
C403 C 0.40668 0.36528 0.69552 0.0
C404 C 0.27667 0.28232 0.77484 0.0
C405 C 0.2557 0.31013 0.78424 0.0
H406 H 0.3247 0.23366 0.75199 0.0
C407 C 0.46511 0.32988 0.79419 0.0
C408 C 0.5571 0.32166 0.74295 0.0
C409 C 0.6115 0.3347 0.8475 0.0
C410 C 0.62114 0.33089 0.89244 0.0
C411 C 0.56162 0.29518 0.87044 0.0
C412 C 0.57495 0.30952 0.84806 0.0
C413 C 0.58454 0.30567 0.89248 0.0
C414 C 0.63433 0.34531 0.86973 0.0
C415 C 0.62529 0.35046 0.82399 0.0
H416 H 0.42163 0.46682 0.66612 0.0
H417 H 0.42574 0.42765 0.69959 0.0
H418 H 0.39903 0.45132 0.62361 0.0
H419 H 0.38357 0.35568 0.64783 0.0
H420 H 0.53354 0.27575 0.8707 0.0
H421 H 0.55659 0.30091 0.83124 0.0
H422 H 0.57417 0.29369 0.9095 0.0
H423 H 0.6618 0.36506 0.8693 0.0
C424 C 0.83376 0.82098 0.75946 0.0
C425 C 0.84657 0.76855 0.77517 0.0
C426 C 0.86394 0.79981 0.77314 0.0
C427 C 0.79959 0.75883 0.76265 0.0
C428 C 0.78565 0.81162 0.74753 0.0
C429 C 0.7691 0.78034 0.74894 0.0
N430 N 0.85167 0.85083 0.75774 0.0
C431 C 0.82204 0.87304 0.74576 0.0
C432 C 0.75571 0.83404 0.73451 0.0
C433 C 0.77378 0.86495 0.7338 0.0
Gd434 Gd 0.06131 0.8662 0.73211 0.0
Gd435 Gd 0.93207 0.86283 0.77843 0.0
N436 N 0.90903 0.81003 0.78517 0.0
C437 C 0.87618 0.74816 0.79021 0.0
C438 C 0.93542 0.79077 0.80134 0.0
C439 C 0.92027 0.75946 0.80365 0.0
H440 H 0.96751 0.79936 0.813 0.0
H441 H 0.94213 0.74418 0.81611 0.0
H442 H 0.06047 0.9397 0.71235 0.0
H443 H 0.83609 0.89692 0.74526 0.0
H444 H 0.11641 0.98749 0.71661 0.0
H445 H 0.86424 0.72396 0.79222 0.0
H446 H 0.78591 0.73486 0.76386 0.0
H447 H 0.14359 0.80653 0.74803 0.0
H448 H 0.71849 0.82779 0.7251 0.0
H449 H 0.75063 0.8825 0.72402 0.0
H450 H 0.26815 0.95435 0.76583 0.0
H451 H 0.73255 0.7726 0.73968 0.0
H452 H 0.28529 0.84492 0.78201 0.0
H453 H 0.23072 0.79914 0.76959 0.0
N454 N 0.14611 0.85604 0.75039 0.0
C455 C 0.17722 0.88139 0.75547 0.0
C456 C 0.16605 0.82673 0.75413 0.0
C457 C 0.24649 0.84833 0.77302 0.0
C458 C 0.21584 0.82243 0.76602 0.0
C459 C 0.22805 0.87827 0.76713 0.0
H460 H 0.29867 0.90301 0.78073 0.0
N461 N 0.1122 0.91221 0.73494 0.0
C462 C 0.16015 0.91032 0.74713 0.0
C463 C 0.17666 0.96504 0.7394 0.0
C464 C 0.19327 0.93685 0.75013 0.0
C465 C 0.09733 0.93906 0.72311 0.0
C466 C 0.12893 0.96601 0.72546 0.0
O467 O 0.92663 0.84768 0.73841 0.0
O468 O 0.0077 0.8237 0.73329 0.0
O469 O 0.04441 0.87032 0.6928 0.0
O470 O 0.12124 0.85221 0.70504 0.0
O471 O 0.01064 0.84154 0.7921 0.0
O472 O 0.05179 0.82334 0.75673 0.0
O473 O 0.04963 0.90504 0.76009 0.0
O474 O 0.01171 0.88014 0.79347 0.0
O475 O 0.8921 0.8587 0.81415 0.0
O476 O 0.88725 0.90168 0.79333 0.0
O477 O 0.98645 0.89301 0.72061 0.0
O478 O 0.94104 0.90736 0.75632 0.0
C479 C 0.95549 0.82505 0.72911 0.0
C480 C 0.04553 0.82332 0.78088 0.0
C481 C 0.08594 0.83277 0.66781 0.0
C482 C 0.09998 0.81451 0.62566 0.0
C483 C 0.06161 0.77984 0.65688 0.0
C484 C 0.06561 0.80338 0.67445 0.0
C485 C 0.07869 0.78529 0.63263 0.0
C486 C 0.10302 0.8383 0.64344 0.0
C487 C 0.08989 0.85768 0.68621 0.0
C488 C 0.24246 0.93415 0.76301 0.0
C489 C 0.25979 0.90492 0.77153 0.0
H490 H 0.20101 0.98595 0.74125 0.0
C491 C 0.04278 0.90202 0.78405 0.0
C492 C 0.95478 0.912 0.73303 0.0
C493 C 0.89837 0.90548 0.83653 0.0
C494 C 0.90108 0.9117 0.88133 0.0
C495 C 0.95671 0.94479 0.8549 0.0
C496 C 0.93672 0.92963 0.83408 0.0
C497 C 0.93917 0.9359 0.87838 0.0
C498 C 0.88041 0.89674 0.86023 0.0
C499 C 0.87968 0.88812 0.81464 0.0
H500 H 0.04552 0.75725 0.66208 0.0
H501 H 0.05325 0.79868 0.69325 0.0
H502 H 0.07507 0.76666 0.61932 0.0
H503 H 0.11969 0.8609 0.63851 0.0
H504 H 0.98625 0.96332 0.85284 0.0
H505 H 0.9518 0.93665 0.81609 0.0
H506 H 0.95528 0.94808 0.89427 0.0
H507 H 0.85167 0.87774 0.86225 0.0
C508 C 0.69468 0.65732 0.26175 0.0
C509 C 0.70632 0.71333 0.26514 0.0
C510 C 0.67463 0.68625 0.26841 0.0
C511 C 0.7584 0.7109 0.25494 0.0
C512 C 0.74704 0.65475 0.25165 0.0
C513 C 0.7787 0.6817 0.2482 0.0
N514 N 0.66291 0.63173 0.26507 0.0
C515 C 0.68137 0.60275 0.25931 0.0
C516 C 0.76594 0.62515 0.24526 0.0
C517 C 0.73302 0.59903 0.2492 0.0
Gd518 Gd 0.43785 0.64043 0.23983 0.0
Gd519 Gd 0.57621 0.64059 0.28094 0.0
N520 N 0.62329 0.68797 0.27735 0.0
C521 C 0.68453 0.74204 0.27211 0.0
C522 C 0.60254 0.71568 0.28503 0.0
C523 C 0.63258 0.74316 0.28228 0.0
H524 H 0.56256 0.71664 0.29287 0.0
H525 H 0.61564 0.7652 0.28797 0.0
H526 H 0.47624 0.57896 0.20444 0.0
H527 H 0.65637 0.58246 0.2627 0.0
H528 H 0.45681 0.523 0.20177 0.0
H529 H 0.70756 0.7634 0.26986 0.0
H530 H 0.78328 0.73147 0.25216 0.0
H531 H 0.34581 0.66977 0.2781 0.0
H532 H 0.80593 0.62219 0.23743 0.0
H533 H 0.74745 0.57604 0.24452 0.0
H534 H 0.30786 0.50736 0.25718 0.0
H535 H 0.81895 0.6802 0.24037 0.0
H536 H 0.2384 0.59604 0.29994 0.0
H537 H 0.26633 0.6514 0.30195 0.0
N538 N 0.36241 0.6253 0.26307 0.0
C539 C 0.34695 0.59497 0.26109 0.0
C540 C 0.33383 0.64562 0.27721 0.0
C541 C 0.27303 0.60403 0.28935 0.0
C542 C 0.28879 0.63529 0.29062 0.0
C543 C 0.30218 0.58343 0.2745 0.0
H544 H 0.25456 0.54237 0.28336 0.0
N545 N 0.42112 0.58688 0.23392 0.0
C546 C 0.37762 0.57514 0.24644 0.0
C547 C 0.39349 0.52426 0.22904 0.0
C548 C 0.36332 0.54337 0.24466 0.0
C549 C 0.44727 0.56892 0.217 0.0
C550 C 0.43499 0.53724 0.21482 0.0
O551 O 0.57631 0.6721 0.24752 0.0
O552 O 0.48928 0.68335 0.23338 0.0
O553 O 0.41416 0.63695 0.20098 0.0
O554 O 0.36755 0.66585 0.22637 0.0
O555 O 0.50172 0.66478 0.29566 0.0
O556 O 0.44534 0.68263 0.26421 0.0
O557 O 0.44272 0.61814 0.27821 0.0
O558 O 0.527 0.59697 0.27818 0.0
O559 O 0.56826 0.64816 0.32036 0.0
O560 O 0.63289 0.61918 0.30668 0.0
O561 O 0.51674 0.62585 0.22169 0.0
O562 O 0.56207 0.60202 0.25374 0.0
C563 C 0.54204 0.68797 0.23377 0.0
C564 C 0.46625 0.68472 0.28659 0.0
C565 C 0.33551 0.66408 0.18376 0.0
C566 C 0.31058 0.66484 0.13989 0.0
C567 C 0.25087 0.68762 0.17055 0.0
C568 C 0.2871 0.6796 0.18931 0.0
C569 C 0.26238 0.68032 0.14605 0.0
C570 C 0.34721 0.65682 0.15893 0.0
C571 C 0.37298 0.65538 0.20401 0.0
C572 C 0.31908 0.53174 0.2582 0.0
C573 C 0.28856 0.55171 0.27303 0.0
H574 H 0.38385 0.49974 0.22719 0.0
C575 C 0.47575 0.59539 0.28408 0.0
C576 C 0.55498 0.6072 0.23002 0.0
C577 C 0.59592 0.60657 0.34573 0.0
C578 C 0.59547 0.59216 0.38948 0.0
C579 C 0.55471 0.55786 0.35892 0.0
C580 C 0.56893 0.57869 0.34012 0.0
C581 C 0.56767 0.56454 0.38346 0.0
C582 C 0.60954 0.61314 0.3704 0.0
C583 C 0.60786 0.62948 0.32613 0.0
H584 H 0.21372 0.69963 0.17502 0.0
H585 H 0.27703 0.68543 0.20819 0.0
H586 H 0.23385 0.68726 0.13184 0.0
H587 H 0.38439 0.64478 0.15445 0.0
H588 H 0.53362 0.53646 0.35446 0.0
H589 H 0.55881 0.5731 0.32124 0.0
H590 H 0.5567 0.54785 0.39771 0.0
H591 H 0.63016 0.63477 0.37476 0.0
H592 H 0.18127 0.98209 0.32482 0.0
H593 H 0.10972 0.0186 0.39127 0.0
H594 H 0.06677 0.0602 0.3673 0.0
H595 H 0.05037 0.08643 0.32756 0.0
H596 H 0.12131 0.0491 0.2611 0.0
H597 H 0.16301 0.00742 0.28504 0.0
C598 C 0.15567 0.99888 0.33403 0.0
C599 C 0.14873 0.99719 0.3598 0.0
C600 C 0.13104 0.02265 0.32016 0.0
C601 C 0.11624 0.01954 0.37149 0.0
C602 C 0.09148 0.04326 0.35779 0.0
C603 C 0.07486 0.06919 0.31825 0.0
C604 C 0.08273 0.07113 0.29252 0.0
C605 C 0.09883 0.04513 0.33212 0.0
C606 C 0.11458 0.04842 0.28087 0.0
C607 C 0.13851 0.02447 0.29454 0.0
H608 H 0.37975 0.54285 0.82198 0.0
H609 H 0.38762 0.49582 0.89258 0.0
H610 H 0.40946 0.44692 0.87202 0.0
H611 H 0.43193 0.41831 0.83419 0.0
H612 H 0.4269 0.46578 0.76374 0.0
H613 H 0.3979 0.51364 0.78398 0.0
C614 C 0.38635 0.52191 0.83287 0.0
C615 C 0.38247 0.52306 0.8588 0.0
C616 C 0.39937 0.49396 0.82094 0.0
C617 C 0.39002 0.49556 0.8726 0.0
C618 C 0.40279 0.46762 0.86087 0.0
C619 C 0.42409 0.43911 0.82328 0.0
C620 C 0.43211 0.43866 0.79757 0.0
C621 C 0.4083 0.46666 0.83509 0.0
C622 C 0.42109 0.46557 0.78358 0.0
C623 C 0.40484 0.49299 0.79516 0.0
H624 H 0.62851 0.52685 0.68114 0.0
H625 H 0.73821 0.45898 0.65057 0.0
H626 H 0.69629 0.41824 0.67541 0.0
H627 H 0.6273 0.40121 0.70519 0.0
H628 H 0.51286 0.46759 0.73335 0.0
H629 H 0.55664 0.50934 0.70948 0.0
C630 C 0.64287 0.50313 0.67953 0.0
C631 C 0.6871 0.49637 0.66402 0.0
C632 C 0.61735 0.47938 0.69331 0.0
C633 C 0.70532 0.46534 0.66271 0.0
C634 C 0.68096 0.4418 0.67674 0.0
C635 C 0.61209 0.42486 0.70604 0.0
C636 C 0.56731 0.43151 0.72099 0.0
C637 C 0.63695 0.44852 0.69205 0.0
C638 C 0.54728 0.46204 0.72181 0.0
C639 C 0.57243 0.48587 0.70828 0.0
H640 H 0.87626 0.96816 0.19912 0.0
H641 H 0.86818 0.01424 0.12812 0.0
H642 H 0.89543 0.0634 0.14712 0.0
H643 H 0.92868 0.09229 0.18349 0.0
H644 H 0.94257 0.04436 0.25353 0.0
H645 H 0.90649 0.99699 0.23531 0.0
C646 C 0.88058 0.98892 0.18775 0.0
C647 C 0.87068 0.9874 0.16221 0.0
C648 C 0.89771 0.0168 0.19862 0.0
C649 C 0.87509 0.01476 0.14788 0.0
C650 C 0.8911 0.04285 0.15869 0.0
C651 C 0.92355 0.07148 0.19472 0.0
C652 C 0.93782 0.07192 0.21988 0.0
C653 C 0.9037 0.04397 0.18396 0.0
C654 C 0.93091 0.04484 0.23425 0.0
C655 C 0.91068 0.01762 0.2238 0.0
H656 H 0.86871 0.04254 0.69542 0.0
H657 H 0.94514 0.01139 0.62838 0.0
H658 H 0.9681 0.9619 0.6482 0.0
H659 H 0.96989 0.9285 0.6849 0.0
H660 H 0.89509 0.9597 0.75243 0.0
H661 H 0.86745 0.00793 0.73195 0.0
C662 C 0.88972 0.02472 0.68508 0.0
C663 C 0.90544 0.03067 0.66051 0.0
C664 C 0.90325 0.99639 0.69667 0.0
C665 C 0.9332 0.00751 0.64741 0.0
C666 C 0.9462 0.97919 0.6587 0.0
C667 C 0.94733 0.94572 0.69519 0.0
C668 C 0.93497 0.94044 0.72025 0.0
C669 C 0.93207 0.97355 0.68341 0.0
C670 C 0.90538 0.96308 0.73314 0.0
C671 C 0.88959 0.99074 0.72146 0.0
H672 H 0.67009 0.53876 0.14189 0.0
H673 H 0.65782 0.46151 0.19294 0.0
H674 H 0.61538 0.49523 0.22352 0.0
H675 H 0.58224 0.54672 0.2358 0.0
H676 H 0.59002 0.62346 0.18416 0.0
H677 H 0.63447 0.59006 0.15378 0.0
C678 C 0.65811 0.5294 0.15973 0.0
C679 C 0.667 0.49776 0.16519 0.0
C680 C 0.63342 0.54886 0.17713 0.0
C681 C 0.65082 0.48574 0.18824 0.0
C682 C 0.62694 0.50503 0.20578 0.0
C683 C 0.59421 0.55613 0.21796 0.0
C684 C 0.58361 0.58746 0.21219 0.0
C685 C 0.61827 0.53663 0.20046 0.0
C686 C 0.59805 0.59935 0.1889 0.0
C687 C 0.62333 0.58029 0.17158 0.0
H688 H 0.43426 0.46197 0.3283 0.0
H689 H 0.3047 0.50984 0.36525 0.0
H690 H 0.32687 0.55789 0.34254 0.0
H691 H 0.38881 0.58722 0.31471 0.0
H692 H 0.51755 0.53794 0.2781 0.0
H693 H 0.49065 0.48967 0.29849 0.0
C694 C 0.4109 0.48294 0.33141 0.0
C695 C 0.36859 0.48257 0.34869 0.0
C696 C 0.42417 0.5103 0.31857 0.0
C697 C 0.33764 0.50963 0.35206 0.0
C698 C 0.35051 0.53711 0.33921 0.0
C699 C 0.41031 0.56577 0.31099 0.0
C700 C 0.45534 0.56616 0.29514 0.0
C701 C 0.39448 0.53788 0.32278 0.0
C702 C 0.48316 0.53831 0.2905 0.0
C703 C 0.46774 0.51066 0.30208 0.0
H704 H 0.15785 0.97622 0.86996 0.0
H705 H 0.18033 0.04302 0.81095 0.0
H706 H 0.13265 0.00863 0.78232 0.0
H707 H 0.08363 0.95976 0.77422 0.0
H708 H 0.06379 0.89233 0.83291 0.0
H709 H 0.10985 0.92709 0.86164 0.0
C710 C 0.15183 0.98337 0.85089 0.0
C711 C 0.17256 0.01215 0.84262 0.0
C712 C 0.12471 0.96339 0.83449 0.0
C713 C 0.16517 0.02086 0.81774 0.0
C714 C 0.13777 1.00126 0.80138 0.0
C715 C 0.09038 0.95244 0.79314 0.0
C716 C 0.07112 0.9233 0.80122 0.0
C717 C 0.11755 0.97242 0.80952 0.0
C718 C 0.0784 0.91461 0.82611 0.0
C719 C 0.10484 0.93445 0.84258 0.0
H720 H 0.13185 0.09994 0.00837 0.0
H721 H 0.29719 0.09931 0.03423 0.0
H722 H 0.26602 0.09532 0.07693 0.0
H723 H 0.19193 0.08844 0.10681 0.0
H724 H 0.02658 0.08795 0.08102 0.0
H725 H 0.05744 0.09621 0.03857 0.0
C726 C 0.16098 0.09943 0.02339 0.0
C727 C 0.21676 0.09969 0.01808 0.0
C728 C 0.14276 0.09674 0.04795 0.0
C729 C 0.25402 0.09869 0.03777 0.0
C730 C 0.23624 0.0965 0.06221 0.0
C731 C 0.16266 0.09065 0.09194 0.0
C732 C 0.10708 0.08741 0.09706 0.0
C733 C 0.18073 0.09496 0.06751 0.0
C734 C 0.06965 0.08997 0.07753 0.0
C735 C 0.08725 0.09476 0.05325 0.0
H736 H 0.36969 0.34897 0.5244 0.0
H737 H 0.25868 0.42596 0.51732 0.0
H738 H 0.27297 0.43909 0.56071 0.0
H739 H 0.31991 0.42999 0.60023 0.0
H740 H 0.43057 0.35288 0.60724 0.0
H741 H 0.41259 0.3381 0.56446 0.0
C742 C 0.34773 0.36824 0.53245 0.0
C743 C 0.31328 0.38651 0.51755 0.0
C744 C 0.35624 0.37571 0.55739 0.0
C745 C 0.28594 0.41174 0.52825 0.0
C746 C 0.294 0.41923 0.55309 0.0
C747 C 0.34014 0.41 0.59235 0.0
C748 C 0.37674 0.39267 0.60684 0.0
C749 C 0.32973 0.40168 0.56772 0.0
C750 C 0.40196 0.36649 0.59652 0.0
C751 C 0.39188 0.3581 0.57204 0.0
H752 H 0.76057 0.37623 0.98366 0.0
H753 H 0.60832 0.36149 0.02105 0.0
H754 H 0.56631 0.34556 0.98217 0.0
H755 H 0.57267 0.33625 0.93753 0.0
H756 H 0.72566 0.35 0.90041 0.0
H757 H 0.76694 0.36691 0.93907 0.0
C758 C 0.71805 0.36982 0.98327 0.0
C759 C 0.68766 0.37008 1.00526 0.0
C760 C 0.69414 0.36077 0.96086 0.0
C761 C 0.63283 0.36116 1.00448 0.0
C762 C 0.60869 0.35223 0.98222 0.0
C763 C 0.61519 0.34265 0.9379 0.0
C764 C 0.6459 0.3418 0.916 0.0
C765 C 0.63899 0.35189 0.96031 0.0
C766 C 0.70072 0.35081 0.91683 0.0
C767 C 0.72454 0.36026 0.939 0.0
H768 H 0.91935 0.1394 0.49598 0.0
H769 H 0.75669 0.17485 0.50214 0.0
H770 H 0.74709 0.17433 0.45719 0.0
H771 H 0.78391 0.16247 0.41628 0.0
H772 H 0.94654 0.1272 0.40974 0.0
H773 H 0.95749 0.12925 0.45471 0.0
C774 C 0.88176 0.14686 0.48744 0.0
C775 C 0.83864 0.15695 0.50234 0.0
C776 C 0.87662 0.14663 0.46157 0.0
C777 C 0.7905 0.16711 0.49105 0.0
C778 C 0.78493 0.16673 0.46538 0.0
C779 C 0.8217 0.15516 0.42473 0.0
C780 C 0.86419 0.14443 0.40978 0.0
C781 C 0.82757 0.15634 0.45049 0.0
C782 C 0.91334 0.13566 0.42088 0.0
C783 C 0.91947 0.13665 0.44657 0.0
H784 H 0.79442 0.88164 0.98505 0.0
H785 H 0.96265 0.88418 0.00678 0.0
H786 H 0.98971 0.89235 0.96399 0.0
H787 H 0.96587 0.90153 0.92082 0.0
H788 H 0.79837 0.89975 0.89822 0.0
H789 H 0.77076 0.88776 0.94074 0.0
C790 C 0.83695 0.88364 0.98031 0.0
C791 C 0.8764 0.88287 0.9991 0.0
C792 C 0.85238 0.88847 0.95554 0.0
C793 C 0.93143 0.88542 0.99272 0.0
C794 C 0.947 0.88994 0.96824 0.0
C795 C 0.92329 0.89858 0.92521 0.0
C796 C 0.88418 0.90195 0.90653 0.0
C797 C 0.90783 0.89209 0.9496 0.0
C798 C 0.82925 0.89727 0.91233 0.0
C799 C 0.81346 0.89059 0.93664 0.0
H800 H 0.62381 0.60382 0.50506 0.0
H801 H 0.78806 0.62464 0.48302 0.0
H802 H 0.76136 0.62277 0.43968 0.0
H803 H 0.69292 0.61115 0.40778 0.0
H804 H 0.53012 0.58747 0.42989 0.0
H805 H 0.55488 0.594 0.4733 0.0
C806 C 0.65388 0.60789 0.49081 0.0
C807 C 0.70796 0.61429 0.49748 0.0
C808 C 0.6386 0.60596 0.46582 0.0
C809 C 0.74598 0.6201 0.47862 0.0
C810 C 0.73087 0.61874 0.45373 0.0
C811 C 0.66275 0.60785 0.42211 0.0
C812 C 0.60985 0.59867 0.41564 0.0
C813 C 0.6775 0.61119 0.4471 0.0
C814 C 0.57128 0.59417 0.43442 0.0
C815 C 0.58538 0.59798 0.45924 0.0
H816 H 0.38733 0.65687 0.02878 0.0
H817 H 0.22356 0.62294 0.01988 0.0
H818 H 0.20936 0.62628 0.06433 0.0
H819 H 0.24189 0.64075 0.10559 0.0
H820 H 0.40582 0.67373 0.11488 0.0
H821 H 0.42209 0.66765 0.07056 0.0
C822 C 0.34878 0.64965 0.03653 0.0
C823 C 0.3064 0.64001 0.02076 0.0
C824 C 0.34096 0.6513 0.06225 0.0
C825 C 0.25658 0.63115 0.03134 0.0
C826 C 0.2485 0.63282 0.05684 0.0
C827 C 0.28124 0.64656 0.09791 0.0
C828 C 0.3224 0.65797 0.1135 0.0
C829 C 0.2901 0.64328 0.07242 0.0
C830 C 0.3735 0.66478 0.10334 0.0
C831 C 0.38268 0.66152 0.07796 0.0
H832 H 0.20327 0.81676 0.51885 0.0
H833 H 0.1288 0.90757 0.51762 0.0
H834 H 0.09293 0.89867 0.55909 0.0
H835 H 0.08423 0.8655 0.59616 0.0
H836 H 0.16109 0.77537 0.5977 0.0
H837 H 0.19468 0.78371 0.55578 0.0
C838 C 0.17943 0.83469 0.52769 0.0
C839 C 0.16879 0.86278 0.51507 0.0
C840 C 0.1594 0.82958 0.55166 0.0
C841 C 0.13703 0.88554 0.5267 0.0
C842 C 0.11683 0.88058 0.55053 0.0
C843 C 0.10862 0.84778 0.58737 0.0
C844 C 0.12002 0.81983 0.60007 0.0
C845 C 0.12803 0.85276 0.56325 0.0
C846 C 0.15108 0.79692 0.58825 0.0
C847 C 0.17056 0.80173 0.56432 0.0
H848 H 0.23971 0.24284 0.34537 0.0
H849 H 0.11451 0.31261 0.34751 0.0
H850 H 0.05709 0.28044 0.3209 0.0
H851 H 0.04424 0.23337 0.29555 0.0
H852 H 0.1699 0.1638 0.29414 0.0
H853 H 0.22591 0.1954 0.32134 0.0
C854 C 0.19996 0.25112 0.33992 0.0
C855 C 0.18163 0.2802 0.34827 0.0
C856 C 0.16752 0.2327 0.32447 0.0
C857 C 0.12949 0.29022 0.34148 0.0
C858 C 0.09679 0.27194 0.32613 0.0
C859 C 0.08379 0.22508 0.30129 0.0
C860 C 0.10332 0.19651 0.29236 0.0
C861 C 0.11561 0.24326 0.31731 0.0
C862 C 0.15448 0.18604 0.30013 0.0
C863 C 0.18639 0.20399 0.3159 0.0
H864 H 0.37048 0.24694 0.88133 0.0
H865 H 0.35216 0.18205 0.82132 0.0
H866 H 0.39148 0.21987 0.79265 0.0
H867 H 0.43373 0.27053 0.78488 0.0
H868 H 0.44658 0.33742 0.84368 0.0
H869 H 0.40847 0.29942 0.87277 0.0
C870 C 0.37485 0.24127 0.86194 0.0
C871 C 0.35821 0.21183 0.85342 0.0
C872 C 0.39694 0.26334 0.84542 0.0
C873 C 0.36394 0.20472 0.82825 0.0
C874 C 0.38672 0.22625 0.81186 0.0
C875 C 0.42687 0.27714 0.80387 0.0
C876 C 0.44198 0.30698 0.81189 0.0
C877 C 0.40348 0.25557 0.82025 0.0
C878 C 0.43499 0.31464 0.83691 0.0
C879 C 0.41303 0.29296 0.85356 0.0
H880 H 0.72516 0.22231 0.70524 0.0
H881 H 0.65536 0.24832 0.63498 0.0
H882 H 0.59142 0.28262 0.65582 0.0
H883 H 0.5589 0.3075 0.6938 0.0
H884 H 0.63083 0.28215 0.76391 0.0
H885 H 0.69054 0.24563 0.74325 0.0
C886 C 0.69606 0.23555 0.69447 0.0
C887 C 0.69533 0.23287 0.66857 0.0
C888 C 0.65993 0.25552 0.70653 0.0
C889 C 0.65656 0.24972 0.65495 0.0
C890 C 0.62021 0.26951 0.66684 0.0
C891 C 0.58731 0.29383 0.70462 0.0
C892 C 0.59044 0.29784 0.7304 0.0
C893 C 0.62198 0.2729 0.6926 0.0
C894 C 0.62756 0.2798 0.74405 0.0
C895 C 0.66186 0.25885 0.73225 0.0
H896 H 0.85022 0.26598 0.14685 0.0
H897 H 0.89732 0.3377 0.19832 0.0
H898 H 0.93539 0.2985 0.22597 0.0
H899 H 0.95915 0.24398 0.23486 0.0
H900 H 0.9172 0.17273 0.18233 0.0
H901 H 0.87413 0.2116 0.15564 0.0
C902 C 0.86915 0.27311 0.16401 0.0
C903 C 0.87058 0.30483 0.17043 0.0
C904 C 0.8922 0.25051 0.17964 0.0
C905 C 0.8946 0.31346 0.19301 0.0
C906 C 0.91688 0.29107 0.2088 0.0
C907 C 0.94012 0.23703 0.21766 0.0
C908 C 0.94117 0.20567 0.21051 0.0
C909 C 0.91624 0.25956 0.20224 0.0
C910 C 0.91702 0.19686 0.18809 0.0
C911 C 0.89236 0.21903 0.17287 0.0
H912 H 0.81481 0.7348 0.66272 0.0
H913 H 0.95435 0.67606 0.67468 0.0
H914 H 0.99581 0.71588 0.70025 0.0
H915 H 0.99302 0.76718 0.71951 0.0
H916 H 0.8592 0.8286 0.70422 0.0
H917 H 0.81486 0.78793 0.67994 0.0
C918 C 0.85451 0.73077 0.67068 0.0
C919 C 0.88071 0.70204 0.66699 0.0
C920 C 0.87912 0.75422 0.68497 0.0
C921 C 0.93217 0.69741 0.67769 0.0
C922 C 0.95632 0.72033 0.6922 0.0
C923 C 0.95444 0.77183 0.71062 0.0
C924 C 0.9292 0.80077 0.71387 0.0
C925 C 0.93016 0.74875 0.69602 0.0
C926 C 0.87899 0.80628 0.70242 0.0
C927 C 0.85383 0.78311 0.68835 0.0
H928 H 0.6146 0.79716 0.16159 0.0
H929 H 0.76434 0.74576 0.16605 0.0
H930 H 0.72249 0.70806 0.19389 0.0
H931 H 0.64406 0.6892 0.21636 0.0
H932 H 0.49315 0.73938 0.21293 0.0
H933 H 0.53459 0.77793 0.18502 0.0
C934 C 0.63789 0.77768 0.16869 0.0
C935 C 0.6923 0.77406 0.16148 0.0
C936 C 0.61345 0.7559 0.18478 0.0
C937 C 0.72209 0.74872 0.17084 0.0
C938 C 0.69834 0.72725 0.1869 0.0
C939 C 0.62025 0.7088 0.20987 0.0
C940 C 0.56582 0.71168 0.21701 0.0
C941 C 0.64415 0.73058 0.19392 0.0
C942 C 0.53521 0.7367 0.20774 0.0
C943 C 0.55893 0.75874 0.19183 0.0
H944 H 0.41092 0.78059 0.37083 0.0
H945 H 0.27808 0.80159 0.32187 0.0
H946 H 0.31037 0.76242 0.29254 0.0
H947 H 0.37826 0.72316 0.28053 0.0
H948 H 0.50766 0.70069 0.33145 0.0
H949 H 0.4753 0.73973 0.36002 0.0
C950 C 0.38907 0.77649 0.35374 0.0
C951 C 0.34252 0.79394 0.34837 0.0
C952 C 0.40748 0.75384 0.33723 0.0
C953 C 0.31398 0.78825 0.32636 0.0
C954 C 0.33259 0.76602 0.30958 0.0
C955 C 0.39923 0.72665 0.29792 0.0
C956 C 0.44545 0.70883 0.30368 0.0
C957 C 0.3796 0.7488 0.31474 0.0
C958 C 0.47199 0.71387 0.32637 0.0
C959 C 0.45353 0.73626 0.34283 0.0
H960 H 0.21225 0.76398 0.85512 0.0
H961 H 0.13234 0.67961 0.83128 0.0
H962 H 0.07655 0.7097 0.80269 0.0
H963 H 0.0491 0.76037 0.78466 0.0
H964 H 0.12169 0.84473 0.81212 0.0
H965 H 0.18133 0.81438 0.83923 0.0
C966 C 0.18206 0.75207 0.84407 0.0
C967 C 0.17711 0.71938 0.84543 0.0
C968 C 0.14884 0.7696 0.82816 0.0
C969 C 0.1382 0.70459 0.83039 0.0
C970 C 0.10587 0.72182 0.81409 0.0
C971 C 0.07824 0.77189 0.79657 0.0
C972 C 0.08179 0.8045 0.79641 0.0
C973 C 0.11091 0.75432 0.81275 0.0
C974 C 0.11867 0.81953 0.81209 0.0
C975 C 0.15265 0.80222 0.82754 0.0
loop_
_geom_bond_atom_site_label_1
_geom_bond_atom_site_label_2
_geom_bond_distance
_geom_bond_site_symmetry_2
_ccdc_geom_bond_type
P0 O11 1.490 . S
P0 C14 1.812 . S
P0 C20 1.803 . S
P0 C26 1.819 . S
H1 C15 0.941 . S
H2 C16 0.939 . S
H3 C18 0.940 . S
H4 C19 0.940 . S
H5 C21 0.939 . S
H6 C22 0.942 . S
H7 C24 0.940 . S
H8 C25 0.939 . S
H9 C27 0.941 . S
H10 C31 0.939 . S
O11 P0 1.490 . S
H12 C28 0.939 . S
H13 C30 0.940 . S
C14 P0 1.812 . S
C14 C15 1.389 . S
C14 C19 1.391 . S
C15 H1 0.941 . S
C15 C14 1.389 . S
C15 C16 1.397 . S
C16 H2 0.939 . S
C16 C15 1.397 . S
C16 C17 1.378 . S
C17 C16 1.378 . S
C17 C18 1.378 . S
C18 H3 0.940 . S
C18 C17 1.378 . S
C18 C19 1.396 . S
C19 H4 0.940 . S
C19 C14 1.391 . S
C19 C18 1.396 . S
C20 P0 1.803 . S
C20 C21 1.378 . S
C20 C25 1.400 . S
C21 H5 0.939 . S
C21 C20 1.378 . S
C21 C22 1.361 . S
C22 H6 0.942 . S
C22 C21 1.361 . S
C22 C23 1.369 . S
C23 C22 1.369 . S
C23 C24 1.404 . S
C24 H7 0.940 . S
C24 C23 1.404 . S
C24 C25 1.389 . S
C25 H8 0.939 . S
C25 C20 1.400 . S
C25 C24 1.389 . S
C26 P0 1.819 . S
C26 C27 1.391 . S
C26 C31 1.391 . S
C27 H9 0.941 . S
C27 C26 1.391 . S
C27 C28 1.396 . S
C28 H12 0.939 . S
C28 C27 1.396 . S
C28 C29 1.397 . S
C29 C28 1.397 . S
C29 C30 1.385 . S
C30 H13 0.940 . S
C30 C29 1.385 . S
C30 C31 1.388 . S
C31 H10 0.939 . S
C31 C26 1.391 . S
C31 C30 1.388 . S
P32 O43 1.490 . S
P32 C46 1.812 . S
P32 C52 1.803 . S
P32 C58 1.819 . S
H33 C47 0.941 . S
H34 C48 0.939 . S
H35 C50 0.940 . S
H36 C51 0.940 . S
H37 C53 0.939 . S
H38 C54 0.942 . S
H39 C56 0.940 . S
H40 C57 0.939 . S
H41 C59 0.941 . S
H42 C63 0.939 . S
O43 P32 1.490 . S
H44 C60 0.939 . S
H45 C62 0.940 . S
C46 P32 1.812 . S
C46 C47 1.389 . S
C46 C51 1.391 . S
C47 H33 0.941 . S
C47 C46 1.389 . S
C47 C48 1.397 . S
C48 H34 0.939 . S
C48 C47 1.397 . S
C48 C49 1.378 . S
C49 C48 1.378 . S
C49 C50 1.378 . S
C50 H35 0.940 . S
C50 C49 1.378 . S
C50 C51 1.396 . S
C51 H36 0.940 . S
C51 C46 1.391 . S
C51 C50 1.396 . S
C52 P32 1.803 . S
C52 C53 1.378 . S
C52 C57 1.400 . S
C53 H37 0.939 . S
C53 C52 1.378 . S
C53 C54 1.361 . S
C54 H38 0.942 . S
C54 C53 1.361 . S
C54 C55 1.369 . S
C55 C54 1.369 . S
C55 C56 1.404 . S
C56 H39 0.940 . S
C56 C55 1.404 . S
C56 C57 1.389 . S
C57 H40 0.939 . S
C57 C52 1.400 . S
C57 C56 1.389 . S
C58 P32 1.819 . S
C58 C59 1.391 . S
C58 C63 1.391 . S
C59 H41 0.941 . S
C59 C58 1.391 . S
C59 C60 1.396 . S
C60 H44 0.939 . S
C60 C59 1.396 . S
C60 C61 1.397 . S
C61 C60 1.397 . S
C61 C62 1.385 . S
C62 H45 0.940 . S
C62 C61 1.385 . S
C62 C63 1.388 . S
C63 H42 0.939 . S
C63 C58 1.391 . S
C63 C62 1.388 . S
P64 O75 1.490 . S
P64 C78 1.812 . S
P64 C84 1.803 . S
P64 C90 1.819 . S
H65 C79 0.941 . S
H66 C80 0.939 . S
H67 C82 0.940 . S
H68 C83 0.940 . S
H69 C85 0.939 . S
H70 C86 0.942 . S
H71 C88 0.940 . S
H72 C89 0.939 . S
H73 C91 0.941 . S
H74 C95 0.939 . S
O75 P64 1.490 . S
H76 C92 0.939 . S
H77 C94 0.940 . S
C78 P64 1.812 . S
C78 C79 1.389 . S
C78 C83 1.391 . S
C79 H65 0.941 . S
C79 C78 1.389 . S
C79 C80 1.397 . S
C80 H66 0.939 . S
C80 C79 1.397 . S
C80 C81 1.378 . S
C81 C80 1.378 . S
C81 C82 1.378 . S
C82 H67 0.940 . S
C82 C81 1.378 . S
C82 C83 1.396 . S
C83 H68 0.940 . S
C83 C78 1.391 . S
C83 C82 1.396 . S
C84 P64 1.803 . S
C84 C85 1.378 . S
C84 C89 1.400 . S
C85 H69 0.939 . S
C85 C84 1.378 . S
C85 C86 1.361 . S
C86 H70 0.942 . S
C86 C85 1.361 . S
C86 C87 1.369 . S
C87 C86 1.369 . S
C87 C88 1.404 . S
C88 H71 0.940 . S
C88 C87 1.404 . S
C88 C89 1.389 . S
C89 H72 0.939 . S
C89 C84 1.400 . S
C89 C88 1.389 . S
C90 P64 1.819 . S
C90 C91 1.391 . S
C90 C95 1.391 . S
C91 H73 0.941 . S
C91 C90 1.391 . S
C91 C92 1.396 . S
C92 H76 0.939 . S
C92 C91 1.396 . S
C92 C93 1.397 . S
C93 C92 1.397 . S
C93 C94 1.385 . S
C94 H77 0.940 . S
C94 C93 1.385 . S
C94 C95 1.388 . S
C95 H74 0.939 . S
C95 C90 1.391 . S
C95 C94 1.388 . S
P96 O107 1.490 . S
P96 C110 1.812 . S
P96 C116 1.803 . S
P96 C122 1.819 . S
H97 C111 0.941 . S
H98 C112 0.939 . S
H99 C114 0.940 . S
H100 C115 0.940 . S
H101 C117 0.939 . S
H102 C118 0.942 . S
H103 C120 0.940 . S
H104 C121 0.939 . S
H105 C123 0.941 . S
H106 C127 0.939 . S
O107 P96 1.490 . S
H108 C124 0.939 . S
H109 C126 0.940 . S
C110 P96 1.812 . S
C110 C111 1.389 . S
C110 C115 1.391 . S
C111 H97 0.941 . S
C111 C110 1.389 . S
C111 C112 1.397 . S
C112 H98 0.939 . S
C112 C111 1.397 . S
C112 C113 1.378 . S
C113 C112 1.378 . S
C113 C114 1.378 . S
C114 H99 0.940 . S
C114 C113 1.378 . S
C114 C115 1.396 . S
C115 H100 0.940 . S
C115 C110 1.391 . S
C115 C114 1.396 . S
C116 P96 1.803 . S
C116 C117 1.378 . S
C116 C121 1.400 . S
C117 H101 0.939 . S
C117 C116 1.378 . S
C117 C118 1.361 . S
C118 H102 0.942 . S
C118 C117 1.361 . S
C118 C119 1.369 . S
C119 C118 1.369 . S
C119 C120 1.404 . S
C120 H103 0.940 . S
C120 C119 1.404 . S
C120 C121 1.389 . S
C121 H104 0.939 . S
C121 C116 1.400 . S
C121 C120 1.389 . S
C122 P96 1.819 . S
C122 C123 1.391 . S
C122 C127 1.391 . S
C123 H105 0.941 . S
C123 C122 1.391 . S
C123 C124 1.396 . S
C124 H108 0.939 . S
C124 C123 1.396 . S
C124 C125 1.397 . S
C125 C124 1.397 . S
C125 C126 1.385 . S
C126 H109 0.940 . S
C126 C125 1.385 . S
C126 C127 1.388 . S
C127 H106 0.939 . S
C127 C122 1.391 . S
C127 C126 1.388 . S
P128 O139 1.490 . S
P128 C142 1.812 . S
P128 C148 1.803 . S
P128 C154 1.819 . S
H129 C143 0.941 . S
H130 C144 0.939 . S
H131 C146 0.940 . S
H132 C147 0.940 . S
H133 C149 0.939 . S
H134 C150 0.942 . S
H135 C152 0.940 . S
H136 C153 0.939 . S
H137 C155 0.941 . S
H138 C159 0.939 . S
O139 P128 1.490 . S
H140 C156 0.939 . S
H141 C158 0.940 . S
C142 P128 1.812 . S
C142 C143 1.389 . S
C142 C147 1.391 . S
C143 H129 0.941 . S
C143 C142 1.389 . S
C143 C144 1.397 . S
C144 H130 0.939 . S
C144 C143 1.397 . S
C144 C145 1.378 . S
C145 C144 1.378 . S
C145 C146 1.378 . S
C146 H131 0.940 . S
C146 C145 1.378 . S
C146 C147 1.396 . S
C147 H132 0.940 . S
C147 C142 1.391 . S
C147 C146 1.396 . S
C148 P128 1.803 . S
C148 C149 1.378 . S
C148 C153 1.400 . S
C149 H133 0.939 . S
C149 C148 1.378 . S
C149 C150 1.361 . S
C150 H134 0.942 . S
C150 C149 1.361 . S
C150 C151 1.369 . S
C151 C150 1.369 . S
C151 C152 1.404 . S
C152 H135 0.940 . S
C152 C151 1.404 . S
C152 C153 1.389 . S
C153 H136 0.939 . S
C153 C148 1.400 . S
C153 C152 1.389 . S
C154 P128 1.819 . S
C154 C155 1.391 . S
C154 C159 1.391 . S
C155 H137 0.941 . S
C155 C154 1.391 . S
C155 C156 1.396 . S
C156 H140 0.939 . S
C156 C155 1.396 . S
C156 C157 1.397 . S
C157 C156 1.397 . S
C157 C158 1.385 . S
C158 H141 0.940 . S
C158 C157 1.385 . S
C158 C159 1.388 . S
C159 H138 0.939 . S
C159 C154 1.391 . S
C159 C158 1.388 . S
P160 O171 1.490 . S
P160 C174 1.812 . S
P160 C180 1.803 . S
P160 C186 1.819 . S
H161 C175 0.941 . S
H162 C176 0.939 . S
H163 C178 0.940 . S
H164 C179 0.940 . S
H165 C181 0.939 . S
H166 C182 0.942 . S
H167 C184 0.940 . S
H168 C185 0.939 . S
H169 C187 0.941 . S
H170 C191 0.939 . S
O171 P160 1.490 . S
H172 C188 0.939 . S
H173 C190 0.940 . S
C174 P160 1.812 . S
C174 C175 1.389 . S
C174 C179 1.391 . S
C175 H161 0.941 . S
C175 C174 1.389 . S
C175 C176 1.397 . S
C176 H162 0.939 . S
C176 C175 1.397 . S
C176 C177 1.378 . S
C177 C176 1.378 . S
C177 C178 1.378 . S
C178 H163 0.940 . S
C178 C177 1.378 . S
C178 C179 1.396 . S
C179 H164 0.940 . S
C179 C174 1.391 . S
C179 C178 1.396 . S
C180 P160 1.803 . S
C180 C181 1.378 . S
C180 C185 1.400 . S
C181 H165 0.939 . S
C181 C180 1.378 . S
C181 C182 1.361 . S
C182 H166 0.942 . S
C182 C181 1.361 . S
C182 C183 1.369 . S
C183 C182 1.369 . S
C183 C184 1.404 . S
C184 H167 0.940 . S
C184 C183 1.404 . S
C184 C185 1.389 . S
C185 H168 0.939 . S
C185 C180 1.400 . S
C185 C184 1.389 . S
C186 P160 1.819 . S
C186 C187 1.391 . S
C186 C191 1.391 . S
C187 H169 0.941 . S
C187 C186 1.391 . S
C187 C188 1.396 . S
C188 H172 0.939 . S
C188 C187 1.396 . S
C188 C189 1.397 . S
C189 C188 1.397 . S
C189 C190 1.385 . S
C190 H173 0.940 . S
C190 C189 1.385 . S
C190 C191 1.388 . S
C191 H170 0.939 . S
C191 C186 1.391 . S
C191 C190 1.388 . S
P192 O203 1.490 . S
P192 C206 1.812 . S
P192 C212 1.803 . S
P192 C218 1.819 . S
H193 C207 0.941 . S
H194 C208 0.939 . S
H195 C210 0.940 . S
H196 C211 0.940 . S
H197 C213 0.939 . S
H198 C214 0.942 . S
H199 C216 0.940 . S
H200 C217 0.939 . S
H201 C219 0.941 . S
H202 C223 0.939 . S
O203 P192 1.490 . S
H204 C220 0.939 . S
H205 C222 0.940 . S
C206 P192 1.812 . S
C206 C207 1.389 . S
C206 C211 1.391 . S
C207 H193 0.941 . S
C207 C206 1.389 . S
C207 C208 1.397 . S
C208 H194 0.939 . S
C208 C207 1.397 . S
C208 C209 1.378 . S
C209 C208 1.378 . S
C209 C210 1.378 . S
C210 H195 0.940 . S
C210 C209 1.378 . S
C210 C211 1.396 . S
C211 H196 0.940 . S
C211 C206 1.391 . S
C211 C210 1.396 . S
C212 P192 1.803 . S
C212 C213 1.378 . S
C212 C217 1.400 . S
C213 H197 0.939 . S
C213 C212 1.378 . S
C213 C214 1.361 . S
C214 H198 0.942 . S
C214 C213 1.361 . S
C214 C215 1.369 . S
C215 C214 1.369 . S
C215 C216 1.404 . S
C216 H199 0.940 . S
C216 C215 1.404 . S
C216 C217 1.389 . S
C217 H200 0.939 . S
C217 C212 1.400 . S
C217 C216 1.389 . S
C218 P192 1.819 . S
C218 C219 1.391 . S
C218 C223 1.391 . S
C219 H201 0.941 . S
C219 C218 1.391 . S
C219 C220 1.396 . S
C220 H204 0.939 . S
C220 C219 1.396 . S
C220 C221 1.397 . S
C221 C220 1.397 . S
C221 C222 1.385 . S
C222 H205 0.940 . S
C222 C221 1.385 . S
C222 C223 1.388 . S
C223 H202 0.939 . S
C223 C218 1.391 . S
C223 C222 1.388 . S
P224 O235 1.490 . S
P224 C238 1.812 . S
P224 C244 1.803 . S
P224 C250 1.819 . S
H225 C239 0.941 . S
H226 C240 0.939 . S
H227 C242 0.940 . S
H228 C243 0.940 . S
H229 C245 0.939 . S
H230 C246 0.942 . S
H231 C248 0.940 . S
H232 C249 0.939 . S
H233 C251 0.941 . S
H234 C255 0.939 . S
O235 P224 1.490 . S
H236 C252 0.939 . S
H237 C254 0.940 . S
C238 P224 1.812 . S
C238 C239 1.389 . S
C238 C243 1.391 . S
C239 H225 0.941 . S
C239 C238 1.389 . S
C239 C240 1.397 . S
C240 H226 0.939 . S
C240 C239 1.397 . S
C240 C241 1.378 . S
C241 C240 1.378 . S
C241 C242 1.378 . S
C242 H227 0.940 . S
C242 C241 1.378 . S
C242 C243 1.396 . S
C243 H228 0.940 . S
C243 C238 1.391 . S
C243 C242 1.396 . S
C244 P224 1.803 . S
C244 C245 1.378 . S
C244 C249 1.400 . S
C245 H229 0.939 . S
C245 C244 1.378 . S
C245 C246 1.361 . S
C246 H230 0.942 . S
C246 C245 1.361 . S
C246 C247 1.369 . S
C247 C246 1.369 . S
C247 C248 1.404 . S
C248 H231 0.940 . S
C248 C247 1.404 . S
C248 C249 1.389 . S
C249 H232 0.939 . S
C249 C244 1.400 . S
C249 C248 1.389 . S
C250 P224 1.819 . S
C250 C251 1.391 . S
C250 C255 1.391 . S
C251 H233 0.941 . S
C251 C250 1.391 . S
C251 C252 1.396 . S
C252 H236 0.939 . S
C252 C251 1.396 . S
C252 C253 1.397 . S
C253 C252 1.397 . S
C253 C254 1.385 . S
C254 H237 0.940 . S
C254 C253 1.385 . S
C254 C255 1.388 . S
C255 H234 0.939 . S
C255 C250 1.391 . S
C255 C254 1.388 . S
C256 C258 1.422 . S
C256 C260 1.415 . S
C256 N262 1.369 . S
C257 C258 1.421 . S
C257 C259 1.417 . S
C257 C269 1.422 . S
C258 C256 1.422 . S
C258 C257 1.421 . S
C258 N268 1.359 . S
C259 C257 1.417 . S
C259 C261 1.329 . S
C259 H278 0.930 . S
C260 C256 1.415 . S
C260 C261 1.437 . S
C260 C264 1.413 . S
C261 C259 1.329 . S
C261 C260 1.437 . S
C261 H283 0.929 . S
N262 C256 1.369 . S
N262 C263 1.338 . S
N262 Gd267 2.622 . S
C263 N262 1.338 . S
C263 C265 1.378 . S
C263 H275 0.929 . S
C264 C260 1.413 . S
C264 C265 1.348 . S
C264 H280 0.931 . S
C265 C263 1.378 . S
C265 C264 1.348 . S
C265 H281 0.930 . S
Gd266 N286 2.622 . S
Gd266 N293 2.570 . S
Gd266 O300 2.353 . S
Gd266 O301 2.468 . S
Gd266 O302 2.427 . S
Gd266 O304 2.388 . S
Gd266 O305 2.386 . S
Gd266 O309 2.307 . S
Gd266 C319 2.805 . S
Gd267 N262 2.622 . S
Gd267 N268 2.570 . S
Gd267 O299 2.386 . S
Gd267 O303 2.307 1_655 S
Gd267 O306 2.353 1_655 S
Gd267 O307 2.468 . S
Gd267 O308 2.427 . S
Gd267 O310 2.388 . S
Gd267 C331 2.805 . S
N268 C258 1.359 . S
N268 Gd267 2.570 . S
N268 C270 1.343 . S
C269 C257 1.422 . S
C269 C271 1.321 . S
C269 H277 0.931 . S
C270 N268 1.343 . S
C270 C271 1.390 . S
C270 H272 0.931 . S
C271 C269 1.321 . S
C271 C270 1.390 . S
C271 H273 0.930 . S
H272 C270 0.931 . S
H273 C271 0.930 . S
H274 C297 0.931 . S
H275 C263 0.929 . S
H276 C298 0.930 . S
H277 C269 0.931 . S
H278 C259 0.930 . S
H279 C288 0.929 . S
H280 C264 0.931 . S
H281 C265 0.930 . S
H282 C320 0.930 . S
H283 C261 0.929 . S
H284 C289 0.931 . S
H285 C290 0.930 . S
N286 Gd266 2.622 . S
N286 C287 1.369 . S
N286 C288 1.338 . S
C287 N286 1.369 . S
C287 C291 1.415 . S
C287 C294 1.422 . S
C288 H279 0.929 . S
C288 N286 1.338 . S
C288 C290 1.378 . S
C289 H284 0.931 . S
C289 C290 1.348 . S
C289 C291 1.413 . S
C290 H285 0.930 . S
C290 C288 1.378 . S
C290 C289 1.348 . S
C291 C287 1.415 . S
C291 C289 1.413 . S
C291 C321 1.437 . S
H292 C321 0.929 . S
N293 Gd266 2.570 . S
N293 C294 1.359 . S
N293 C297 1.343 . S
C294 C287 1.422 . S
C294 N293 1.359 . S
C294 C296 1.421 . S
C295 C296 1.422 . S
C295 C298 1.321 . S
C295 H322 0.931 . S
C296 C294 1.421 . S
C296 C295 1.422 . S
C296 C320 1.417 . S
C297 H274 0.931 . S
C297 N293 1.343 . S
C297 C298 1.390 . S
C298 H276 0.930 . S
C298 C295 1.321 . S
C298 C297 1.390 . S
O299 Gd267 2.386 . S
O299 C311 1.265 . S
O300 Gd266 2.353 . S
O300 C311 1.242 1_455 S
O301 Gd266 2.468 . S
O301 C319 1.263 . S
O302 Gd266 2.427 . S
O302 C319 1.252 . S
O303 Gd267 2.307 1_455 S
O303 C312 1.261 . S
O304 Gd266 2.388 . S
O304 C312 1.252 . S
O305 Gd266 2.386 . S
O305 C323 1.265 . S
O306 Gd267 2.353 1_455 S
O306 C323 1.242 . S
O307 Gd267 2.468 . S
O307 C331 1.263 . S
O308 Gd267 2.427 . S
O308 C331 1.252 . S
O309 Gd266 2.307 . S
O309 C324 1.261 1_455 S
O310 Gd267 2.388 . S
O310 C324 1.252 . S
C311 O299 1.265 . S
C311 O300 1.242 1_655 S
C312 O303 1.261 . S
C312 O304 1.252 . S
C313 C316 1.394 . S
C313 C318 1.370 . S
C313 C319 1.500 . S
C314 C317 1.383 . S
C314 C318 1.395 . S
C315 C316 1.396 . S
C315 C317 1.365 . S
C315 H332 0.929 . S
C316 C313 1.394 . S
C316 C315 1.396 . S
C316 H333 0.930 . S
C317 C314 1.383 . S
C317 C315 1.365 . S
C317 H334 0.931 . S
C318 C313 1.370 . S
C318 C314 1.395 . S
C318 H335 0.930 . S
C319 Gd266 2.805 . S
C319 O301 1.263 . S
C319 O302 1.252 . S
C319 C313 1.500 . S
C320 H282 0.930 . S
C320 C296 1.417 . S
C320 C321 1.329 . S
C321 C291 1.437 . S
C321 H292 0.929 . S
C321 C320 1.329 . S
H322 C295 0.931 . S
C323 O305 1.265 . S
C323 O306 1.242 . S
C324 O309 1.261 1_655 S
C324 O310 1.252 . S
C325 C328 1.394 . S
C325 C330 1.370 . S
C325 C331 1.500 . S
C326 C329 1.383 . S
C326 C330 1.395 . S
C327 C328 1.396 . S
C327 C329 1.365 . S
C327 H336 0.929 . S
C328 C325 1.394 . S
C328 C327 1.396 . S
C328 H337 0.930 . S
C329 C326 1.383 . S
C329 C327 1.365 . S
C329 H338 0.931 . S
C330 C325 1.370 . S
C330 C326 1.395 . S
C330 H339 0.930 . S
C331 Gd267 2.805 . S
C331 O307 1.263 . S
C331 O308 1.252 . S
C331 C325 1.500 . S
H332 C315 0.929 . S
H333 C316 0.930 . S
H334 C317 0.931 . S
H335 C318 0.930 . S
H336 C327 0.929 . S
H337 C328 0.930 . S
H338 C329 0.931 . S
H339 C330 0.930 . S
C340 C342 1.422 . S
C340 C344 1.415 . S
C340 N346 1.369 . S
C341 C342 1.421 . S
C341 C343 1.417 . S
C341 C353 1.422 . S
C342 C340 1.422 . S
C342 C341 1.421 . S
C342 N352 1.359 . S
C343 C341 1.417 . S
C343 C345 1.329 . S
C343 H362 0.930 . S
C344 C340 1.415 . S
C344 C345 1.437 . S
C344 C348 1.413 . S
C345 C343 1.329 . S
C345 C344 1.437 . S
C345 H367 0.929 . S
N346 C340 1.369 . S
N346 C347 1.338 . S
N346 Gd351 2.622 . S
C347 N346 1.338 . S
C347 C349 1.378 . S
C347 H359 0.929 . S
C348 C344 1.413 . S
C348 C349 1.348 . S
C348 H364 0.931 . S
C349 C347 1.378 . S
C349 C348 1.348 . S
C349 H365 0.930 . S
Gd350 N370 2.622 . S
Gd350 N377 2.570 . S
Gd350 O384 2.353 . S
Gd350 O385 2.468 . S
Gd350 O386 2.427 . S
Gd350 O388 2.388 . S
Gd350 O389 2.386 . S
Gd350 O393 2.307 . S
Gd350 C403 2.805 . S
Gd351 N346 2.622 . S
Gd351 N352 2.570 . S
Gd351 O383 2.386 . S
Gd351 O387 2.307 . S
Gd351 O390 2.353 . S
Gd351 O391 2.468 . S
Gd351 O392 2.427 . S
Gd351 O394 2.388 . S
Gd351 C415 2.805 . S
N352 C342 1.359 . S
N352 Gd351 2.570 . S
N352 C354 1.343 . S
C353 C341 1.422 . S
C353 C355 1.321 . S
C353 H361 0.931 . S
C354 N352 1.343 . S
C354 C355 1.390 . S
C354 H356 0.931 . S
C355 C353 1.321 . S
C355 C354 1.390 . S
C355 H357 0.930 . S
H356 C354 0.931 . S
H357 C355 0.930 . S
H358 C381 0.931 . S
H359 C347 0.929 . S
H360 C382 0.930 . S
H361 C353 0.931 . S
H362 C343 0.930 . S
H363 C372 0.929 . S
H364 C348 0.931 . S
H365 C349 0.930 . S
H366 C404 0.930 . S
H367 C345 0.929 . S
H368 C373 0.931 . S
H369 C374 0.930 . S
N370 Gd350 2.622 . S
N370 C371 1.369 . S
N370 C372 1.338 . S
C371 N370 1.369 . S
C371 C375 1.415 . S
C371 C378 1.422 . S
C372 H363 0.929 . S
C372 N370 1.338 . S
C372 C374 1.378 . S
C373 H368 0.931 . S
C373 C374 1.348 . S
C373 C375 1.413 . S
C374 H369 0.930 . S
C374 C372 1.378 . S
C374 C373 1.348 . S
C375 C371 1.415 . S
C375 C373 1.413 . S
C375 C405 1.437 . S
H376 C405 0.929 . S
N377 Gd350 2.570 . S
N377 C378 1.359 . S
N377 C381 1.343 . S
C378 C371 1.422 . S
C378 N377 1.359 . S
C378 C380 1.421 . S
C379 C380 1.422 . S
C379 C382 1.321 . S
C379 H406 0.931 . S
C380 C378 1.421 . S
C380 C379 1.422 . S
C380 C404 1.417 . S
C381 H358 0.931 . S
C381 N377 1.343 . S
C381 C382 1.390 . S
C382 H360 0.930 . S
C382 C379 1.321 . S
C382 C381 1.390 . S
O383 Gd351 2.386 . S
O383 C395 1.265 . S
O384 Gd350 2.353 . S
O384 C395 1.242 . S
O385 Gd350 2.468 . S
O385 C403 1.263 . S
O386 Gd350 2.427 . S
O386 C403 1.252 . S
O387 Gd351 2.307 . S
O387 C396 1.261 . S
O388 Gd350 2.388 . S
O388 C396 1.252 . S
O389 Gd350 2.386 . S
O389 C407 1.265 . S
O390 Gd351 2.353 . S
O390 C407 1.242 . S
O391 Gd351 2.468 . S
O391 C415 1.263 . S
O392 Gd351 2.427 . S
O392 C415 1.252 . S
O393 Gd350 2.307 . S
O393 C408 1.261 . S
O394 Gd351 2.388 . S
O394 C408 1.252 . S
C395 O383 1.265 . S
C395 O384 1.242 . S
C396 O387 1.261 . S
C396 O388 1.252 . S
C397 C400 1.394 . S
C397 C402 1.370 . S
C397 C403 1.500 . S
C398 C401 1.383 . S
C398 C402 1.395 . S
C399 C400 1.396 . S
C399 C401 1.365 . S
C399 H416 0.929 . S
C400 C397 1.394 . S
C400 C399 1.396 . S
C400 H417 0.930 . S
C401 C398 1.383 . S
C401 C399 1.365 . S
C401 H418 0.931 . S
C402 C397 1.370 . S
C402 C398 1.395 . S
C402 H419 0.930 . S
C403 Gd350 2.805 . S
C403 O385 1.263 . S
C403 O386 1.252 . S
C403 C397 1.500 . S
C404 H366 0.930 . S
C404 C380 1.417 . S
C404 C405 1.329 . S
C405 C375 1.437 . S
C405 H376 0.929 . S
C405 C404 1.329 . S
H406 C379 0.931 . S
C407 O389 1.265 . S
C407 O390 1.242 . S
C408 O393 1.261 . S
C408 O394 1.252 . S
C409 C412 1.394 . S
C409 C414 1.370 . S
C409 C415 1.500 . S
C410 C413 1.383 . S
C410 C414 1.395 . S
C411 C412 1.396 . S
C411 C413 1.365 . S
C411 H420 0.929 . S
C412 C409 1.394 . S
C412 C411 1.396 . S
C412 H421 0.930 . S
C413 C410 1.383 . S
C413 C411 1.365 . S
C413 H422 0.931 . S
C414 C409 1.370 . S
C414 C410 1.395 . S
C414 H423 0.930 . S
C415 Gd351 2.805 . S
C415 O391 1.263 . S
C415 O392 1.252 . S
C415 C409 1.500 . S
H416 C399 0.929 . S
H417 C400 0.930 . S
H418 C401 0.931 . S
H419 C402 0.930 . S
H420 C411 0.929 . S
H421 C412 0.930 . S
H422 C413 0.931 . S
H423 C414 0.930 . S
C424 C426 1.422 . S
C424 C428 1.415 . S
C424 N430 1.369 . S
C425 C426 1.421 . S
C425 C427 1.417 . S
C425 C437 1.422 . S
C426 C424 1.422 . S
C426 C425 1.421 . S
C426 N436 1.359 . S
C427 C425 1.417 . S
C427 C429 1.329 . S
C427 H446 0.930 . S
C428 C424 1.415 . S
C428 C429 1.437 . S
C428 C432 1.413 . S
C429 C427 1.329 . S
C429 C428 1.437 . S
C429 H451 0.929 . S
N430 C424 1.369 . S
N430 C431 1.338 . S
N430 Gd435 2.622 . S
C431 N430 1.338 . S
C431 C433 1.378 . S
C431 H443 0.929 . S
C432 C428 1.413 . S
C432 C433 1.348 . S
C432 H448 0.931 . S
C433 C431 1.378 . S
C433 C432 1.348 . S
C433 H449 0.930 . S
Gd434 N454 2.622 . S
Gd434 N461 2.570 . S
Gd434 O468 2.353 . S
Gd434 O469 2.468 . S
Gd434 O470 2.427 . S
Gd434 O472 2.388 . S
Gd434 O473 2.386 . S
Gd434 O477 2.307 . S
Gd434 C487 2.805 . S
Gd435 N430 2.622 . S
Gd435 N436 2.570 . S
Gd435 O467 2.386 . S
Gd435 O471 2.307 1_655 S
Gd435 O474 2.353 1_655 S
Gd435 O475 2.468 . S
Gd435 O476 2.427 . S
Gd435 O478 2.388 . S
Gd435 C499 2.805 . S
N436 C426 1.359 . S
N436 Gd435 2.570 . S
N436 C438 1.343 . S
C437 C425 1.422 . S
C437 C439 1.321 . S
C437 H445 0.931 . S
C438 N436 1.343 . S
C438 C439 1.390 . S
C438 H440 0.931 . S
C439 C437 1.321 . S
C439 C438 1.390 . S
C439 H441 0.930 . S
H440 C438 0.931 . S
H441 C439 0.930 . S
H442 C465 0.931 . S
H443 C431 0.929 . S
H444 C466 0.930 . S
H445 C437 0.931 . S
H446 C427 0.930 . S
H447 C456 0.929 . S
H448 C432 0.931 . S
H449 C433 0.930 . S
H450 C488 0.930 . S
H451 C429 0.929 . S
H452 C457 0.931 . S
H453 C458 0.930 . S
N454 Gd434 2.622 . S
N454 C455 1.369 . S
N454 C456 1.338 . S
C455 N454 1.369 . S
C455 C459 1.415 . S
C455 C462 1.422 . S
C456 H447 0.929 . S
C456 N454 1.338 . S
C456 C458 1.378 . S
C457 H452 0.931 . S
C457 C458 1.348 . S
C457 C459 1.413 . S
C458 H453 0.930 . S
C458 C456 1.378 . S
C458 C457 1.348 . S
C459 C455 1.415 . S
C459 C457 1.413 . S
C459 C489 1.437 . S
H460 C489 0.929 . S
N461 Gd434 2.570 . S
N461 C462 1.359 . S
N461 C465 1.343 . S
C462 C455 1.422 . S
C462 N461 1.359 . S
C462 C464 1.421 . S
C463 C464 1.422 . S
C463 C466 1.321 . S
C463 H490 0.931 . S
C464 C462 1.421 . S
C464 C463 1.422 . S
C464 C488 1.417 . S
C465 H442 0.931 . S
C465 N461 1.343 . S
C465 C466 1.390 . S
C466 H444 0.930 . S
C466 C463 1.321 . S
C466 C465 1.390 . S
O467 Gd435 2.386 . S
O467 C479 1.265 . S
O468 Gd434 2.353 . S
O468 C479 1.242 1_455 S
O469 Gd434 2.468 . S
O469 C487 1.263 . S
O470 Gd434 2.427 . S
O470 C487 1.252 . S
O471 Gd435 2.307 1_455 S
O471 C480 1.261 . S
O472 Gd434 2.388 . S
O472 C480 1.252 . S
O473 Gd434 2.386 . S
O473 C491 1.265 . S
O474 Gd435 2.353 1_455 S
O474 C491 1.242 . S
O475 Gd435 2.468 . S
O475 C499 1.263 . S
O476 Gd435 2.427 . S
O476 C499 1.252 . S
O477 Gd434 2.307 . S
O477 C492 1.261 1_455 S
O478 Gd435 2.388 . S
O478 C492 1.252 . S
C479 O467 1.265 . S
C479 O468 1.242 1_655 S
C480 O471 1.261 . S
C480 O472 1.252 . S
C481 C484 1.394 . S
C481 C486 1.370 . S
C481 C487 1.500 . S
C482 C485 1.383 . S
C482 C486 1.395 . S
C483 C484 1.396 . S
C483 C485 1.365 . S
C483 H500 0.929 . S
C484 C481 1.394 . S
C484 C483 1.396 . S
C484 H501 0.930 . S
C485 C482 1.383 . S
C485 C483 1.365 . S
C485 H502 0.931 . S
C486 C481 1.370 . S
C486 C482 1.395 . S
C486 H503 0.930 . S
C487 Gd434 2.805 . S
C487 O469 1.263 . S
C487 O470 1.252 . S
C487 C481 1.500 . S
C488 H450 0.930 . S
C488 C464 1.417 . S
C488 C489 1.329 . S
C489 C459 1.437 . S
C489 H460 0.929 . S
C489 C488 1.329 . S
H490 C463 0.931 . S
C491 O473 1.265 . S
C491 O474 1.242 . S
C492 O477 1.261 1_655 S
C492 O478 1.252 . S
C493 C496 1.394 . S
C493 C498 1.370 . S
C493 C499 1.500 . S
C494 C497 1.383 . S
C494 C498 1.395 . S
C495 C496 1.396 . S
C495 C497 1.365 . S
C495 H504 0.929 . S
C496 C493 1.394 . S
C496 C495 1.396 . S
C496 H505 0.930 . S
C497 C494 1.383 . S
C497 C495 1.365 . S
C497 H506 0.931 . S
C498 C493 1.370 . S
C498 C494 1.395 . S
C498 H507 0.930 . S
C499 Gd435 2.805 . S
C499 O475 1.263 . S
C499 O476 1.252 . S
C499 C493 1.500 . S
H500 C483 0.929 . S
H501 C484 0.930 . S
H502 C485 0.931 . S
H503 C486 0.930 . S
H504 C495 0.929 . S
H505 C496 0.930 . S
H506 C497 0.931 . S
H507 C498 0.930 . S
C508 C510 1.422 . S
C508 C512 1.415 . S
C508 N514 1.369 . S
C509 C510 1.421 . S
C509 C511 1.417 . S
C509 C521 1.422 . S
C510 C508 1.422 . S
C510 C509 1.421 . S
C510 N520 1.359 . S
C511 C509 1.417 . S
C511 C513 1.329 . S
C511 H530 0.930 . S
C512 C508 1.415 . S
C512 C513 1.437 . S
C512 C516 1.413 . S
C513 C511 1.329 . S
C513 C512 1.437 . S
C513 H535 0.929 . S
N514 C508 1.369 . S
N514 C515 1.338 . S
N514 Gd519 2.622 . S
C515 N514 1.338 . S
C515 C517 1.378 . S
C515 H527 0.929 . S
C516 C512 1.413 . S
C516 C517 1.348 . S
C516 H532 0.931 . S
C517 C515 1.378 . S
C517 C516 1.348 . S
C517 H533 0.930 . S
Gd518 N538 2.622 . S
Gd518 N545 2.570 . S
Gd518 O552 2.353 . S
Gd518 O553 2.468 . S
Gd518 O554 2.427 . S
Gd518 O556 2.388 . S
Gd518 O557 2.386 . S
Gd518 O561 2.307 . S
Gd518 C571 2.805 . S
Gd519 N514 2.622 . S
Gd519 N520 2.570 . S
Gd519 O551 2.386 . S
Gd519 O555 2.307 . S
Gd519 O558 2.353 . S
Gd519 O559 2.468 . S
Gd519 O560 2.427 . S
Gd519 O562 2.388 . S
Gd519 C583 2.805 . S
N520 C510 1.359 . S
N520 Gd519 2.570 . S
N520 C522 1.343 . S
C521 C509 1.422 . S
C521 C523 1.321 . S
C521 H529 0.931 . S
C522 N520 1.343 . S
C522 C523 1.390 . S
C522 H524 0.931 . S
C523 C521 1.321 . S
C523 C522 1.390 . S
C523 H525 0.930 . S
H524 C522 0.931 . S
H525 C523 0.930 . S
H526 C549 0.931 . S
H527 C515 0.929 . S
H528 C550 0.930 . S
H529 C521 0.931 . S
H530 C511 0.930 . S
H531 C540 0.929 . S
H532 C516 0.931 . S
H533 C517 0.930 . S
H534 C572 0.930 . S
H535 C513 0.929 . S
H536 C541 0.931 . S
H537 C542 0.930 . S
N538 Gd518 2.622 . S
N538 C539 1.369 . S
N538 C540 1.338 . S
C539 N538 1.369 . S
C539 C543 1.415 . S
C539 C546 1.422 . S
C540 H531 0.929 . S
C540 N538 1.338 . S
C540 C542 1.378 . S
C541 H536 0.931 . S
C541 C542 1.348 . S
C541 C543 1.413 . S
C542 H537 0.930 . S
C542 C540 1.378 . S
C542 C541 1.348 . S
C543 C539 1.415 . S
C543 C541 1.413 . S
C543 C573 1.437 . S
H544 C573 0.929 . S
N545 Gd518 2.570 . S
N545 C546 1.359 . S
N545 C549 1.343 . S
C546 C539 1.422 . S
C546 N545 1.359 . S
C546 C548 1.421 . S
C547 C548 1.422 . S
C547 C550 1.321 . S
C547 H574 0.931 . S
C548 C546 1.421 . S
C548 C547 1.422 . S
C548 C572 1.417 . S
C549 H526 0.931 . S
C549 N545 1.343 . S
C549 C550 1.390 . S
C550 H528 0.930 . S
C550 C547 1.321 . S
C550 C549 1.390 . S
O551 Gd519 2.386 . S
O551 C563 1.265 . S
O552 Gd518 2.353 . S
O552 C563 1.242 . S
O553 Gd518 2.468 . S
O553 C571 1.263 . S
O554 Gd518 2.427 . S
O554 C571 1.252 . S
O555 Gd519 2.307 . S
O555 C564 1.261 . S
O556 Gd518 2.388 . S
O556 C564 1.252 . S
O557 Gd518 2.386 . S
O557 C575 1.265 . S
O558 Gd519 2.353 . S
O558 C575 1.242 . S
O559 Gd519 2.468 . S
O559 C583 1.263 . S
O560 Gd519 2.427 . S
O560 C583 1.252 . S
O561 Gd518 2.307 . S
O561 C576 1.261 . S
O562 Gd519 2.388 . S
O562 C576 1.252 . S
C563 O551 1.265 . S
C563 O552 1.242 . S
C564 O555 1.261 . S
C564 O556 1.252 . S
C565 C568 1.394 . S
C565 C570 1.370 . S
C565 C571 1.500 . S
C566 C569 1.383 . S
C566 C570 1.395 . S
C567 C568 1.396 . S
C567 C569 1.365 . S
C567 H584 0.929 . S
C568 C565 1.394 . S
C568 C567 1.396 . S
C568 H585 0.930 . S
C569 C566 1.383 . S
C569 C567 1.365 . S
C569 H586 0.931 . S
C570 C565 1.370 . S
C570 C566 1.395 . S
C570 H587 0.930 . S
C571 Gd518 2.805 . S
C571 O553 1.263 . S
C571 O554 1.252 . S
C571 C565 1.500 . S
C572 H534 0.930 . S
C572 C548 1.417 . S
C572 C573 1.329 . S
C573 C543 1.437 . S
C573 H544 0.929 . S
C573 C572 1.329 . S
H574 C547 0.931 . S
C575 O557 1.265 . S
C575 O558 1.242 . S
C576 O561 1.261 . S
C576 O562 1.252 . S
C577 C580 1.394 . S
C577 C582 1.370 . S
C577 C583 1.500 . S
C578 C581 1.383 . S
C578 C582 1.395 . S
C579 C580 1.396 . S
C579 C581 1.365 . S
C579 H588 0.929 . S
C580 C577 1.394 . S
C580 C579 1.396 . S
C580 H589 0.930 . S
C581 C578 1.383 . S
C581 C579 1.365 . S
C581 H590 0.931 . S
C582 C577 1.370 . S
C582 C578 1.395 . S
C582 H591 0.930 . S
C583 Gd519 2.805 . S
C583 O559 1.263 . S
C583 O560 1.252 . S
C583 C577 1.500 . S
H584 C567 0.929 . S
H585 C568 0.930 . S
H586 C569 0.931 . S
H587 C570 0.930 . S
H588 C579 0.929 . S
H589 C580 0.930 . S
H590 C581 0.931 . S
H591 C582 0.930 . S
H592 C598 0.930 . S
H593 C601 0.930 . S
H594 C602 0.930 . S
H595 C603 0.930 . S
H596 C606 0.930 . S
H597 C607 0.930 1_565 S
C598 H592 0.930 . S
C598 C599 1.355 . S
C598 C600 1.415 1_565 S
C599 C598 1.355 . S
C599 C601 1.419 1_565 S
C600 C598 1.415 1_545 S
C600 C605 1.425 . S
C600 C607 1.409 . S
C601 H593 0.930 . S
C601 C599 1.419 1_545 S
C601 C602 1.362 . S
C602 H594 0.930 . S
C602 C601 1.362 . S
C602 C605 1.409 . S
C603 H595 0.930 . S
C603 C604 1.355 . S
C603 C605 1.415 . S
C604 C603 1.355 . S
C604 C606 1.419 . S
C605 C600 1.425 . S
C605 C602 1.409 . S
C605 C603 1.415 . S
C606 H596 0.930 . S
C606 C604 1.419 . S
C606 C607 1.362 . S
C607 H597 0.930 1_545 S
C607 C600 1.409 . S
C607 C606 1.362 . S
H608 C614 0.930 . S
H609 C617 0.930 . S
H610 C618 0.930 . S
H611 C619 0.930 . S
H612 C622 0.930 . S
H613 C623 0.930 . S
C614 H608 0.930 . S
C614 C615 1.355 . S
C614 C616 1.415 . S
C615 C614 1.355 . S
C615 C617 1.419 . S
C616 C614 1.415 . S
C616 C621 1.425 . S
C616 C623 1.409 . S
C617 H609 0.930 . S
C617 C615 1.419 . S
C617 C618 1.362 . S
C618 H610 0.930 . S
C618 C617 1.362 . S
C618 C621 1.409 . S
C619 H611 0.930 . S
C619 C620 1.355 . S
C619 C621 1.415 . S
C620 C619 1.355 . S
C620 C622 1.419 . S
C621 C616 1.425 . S
C621 C618 1.409 . S
C621 C619 1.415 . S
C622 H612 0.930 . S
C622 C620 1.419 . S
C622 C623 1.362 . S
C623 H613 0.930 . S
C623 C616 1.409 . S
C623 C622 1.362 . S
H624 C630 0.930 . S
H625 C633 0.930 . S
H626 C634 0.930 . S
H627 C635 0.930 . S
H628 C638 0.930 . S
H629 C639 0.930 . S
C630 H624 0.930 . S
C630 C631 1.355 . S
C630 C632 1.415 . S
C631 C630 1.355 . S
C631 C633 1.419 . S
C632 C630 1.415 . S
C632 C637 1.425 . S
C632 C639 1.409 . S
C633 H625 0.930 . S
C633 C631 1.419 . S
C633 C634 1.362 . S
C634 H626 0.930 . S
C634 C633 1.362 . S
C634 C637 1.409 . S
C635 H627 0.930 . S
C635 C636 1.355 . S
C635 C637 1.415 . S
C636 C635 1.355 . S
C636 C638 1.419 . S
C637 C632 1.425 . S
C637 C634 1.409 . S
C637 C635 1.415 . S
C638 H628 0.930 . S
C638 C636 1.419 . S
C638 C639 1.362 . S
C639 H629 0.930 . S
C639 C632 1.409 . S
C639 C638 1.362 . S
H640 C646 0.930 . S
H641 C649 0.930 . S
H642 C650 0.930 . S
H643 C651 0.930 . S
H644 C654 0.930 . S
H645 C655 0.930 . S
C646 H640 0.930 . S
C646 C647 1.355 . S
C646 C648 1.415 1_565 S
C647 C646 1.355 . S
C647 C649 1.419 1_565 S
C648 C646 1.415 1_545 S
C648 C653 1.425 . S
C648 C655 1.409 . S
C649 H641 0.930 . S
C649 C647 1.419 1_545 S
C649 C650 1.362 . S
C650 H642 0.930 . S
C650 C649 1.362 . S
C650 C653 1.409 . S
C651 H643 0.930 . S
C651 C652 1.355 . S
C651 C653 1.415 . S
C652 C651 1.355 . S
C652 C654 1.419 . S
C653 C648 1.425 . S
C653 C650 1.409 . S
C653 C651 1.415 . S
C654 H644 0.930 . S
C654 C652 1.419 . S
C654 C655 1.362 . S
C655 H645 0.930 . S
C655 C648 1.409 . S
C655 C654 1.362 . S
H656 C662 0.930 . S
H657 C665 0.930 . S
H658 C666 0.930 . S
H659 C667 0.930 . S
H660 C670 0.930 . S
H661 C671 0.937 . S
C662 H656 0.930 . S
C662 C663 1.355 . S
C662 C664 1.415 1_545 S
C663 C662 1.355 . S
C663 C665 1.419 1_545 S
C664 C662 1.415 1_565 S
C664 C669 1.425 . S
C664 C671 1.409 . S
C665 H657 0.930 . S
C665 C663 1.419 1_565 S
C665 C666 1.362 . S
C666 H658 0.930 . S
C666 C665 1.362 . S
C666 C669 1.409 . S
C667 H659 0.930 . S
C667 C668 1.355 . S
C667 C669 1.415 . S
C668 C667 1.355 . S
C668 C670 1.419 . S
C669 C664 1.425 . S
C669 C666 1.409 . S
C669 C667 1.415 . S
C670 H660 0.930 . S
C670 C668 1.419 . S
C670 C671 1.362 . S
C671 H661 0.937 . S
C671 C664 1.409 . S
C671 C670 1.362 . S
H672 C678 0.930 . S
H673 C681 0.930 . S
H674 C682 0.930 . S
H675 C683 0.930 . S
H676 C686 0.930 . S
H677 C687 0.930 . S
C678 H672 0.930 . S
C678 C679 1.355 . S
C678 C680 1.415 . S
C679 C678 1.355 . S
C679 C681 1.419 . S
C680 C678 1.415 . S
C680 C685 1.425 . S
C680 C687 1.409 . S
C681 H673 0.930 . S
C681 C679 1.419 . S
C681 C682 1.362 . S
C682 H674 0.930 . S
C682 C681 1.362 . S
C682 C685 1.409 . S
C683 H675 0.930 . S
C683 C684 1.355 . S
C683 C685 1.415 . S
C684 C683 1.355 . S
C684 C686 1.419 . S
C685 C680 1.425 . S
C685 C682 1.409 . S
C685 C683 1.415 . S
C686 H676 0.930 . S
C686 C684 1.419 . S
C686 C687 1.362 . S
C687 H677 0.930 . S
C687 C680 1.409 . S
C687 C686 1.362 . S
H688 C694 0.930 . S
H689 C697 0.930 . S
H690 C698 0.930 . S
H691 C699 0.930 . S
H692 C702 0.930 . S
H693 C703 0.930 . S
C694 H688 0.930 . S
C694 C695 1.355 . S
C694 C696 1.415 . S
C695 C694 1.355 . S
C695 C697 1.419 . S
C696 C694 1.415 . S
C696 C701 1.425 . S
C696 C703 1.409 . S
C697 H689 0.930 . S
C697 C695 1.419 . S
C697 C698 1.362 . S
C698 H690 0.930 . S
C698 C697 1.362 . S
C698 C701 1.409 . S
C699 H691 0.930 . S
C699 C700 1.355 . S
C699 C701 1.415 . S
C700 C699 1.355 . S
C700 C702 1.419 . S
C701 C696 1.425 . S
C701 C698 1.409 . S
C701 C699 1.415 . S
C702 H692 0.930 . S
C702 C700 1.419 . S
C702 C703 1.362 . S
C703 H693 0.930 . S
C703 C696 1.409 . S
C703 C702 1.362 . S
H704 C710 0.930 . S
H705 C713 0.930 . S
H706 C714 0.930 1_545 S
H707 C715 0.930 . S
H708 C718 0.930 . S
H709 C719 0.930 . S
C710 H704 0.930 . S
C710 C711 1.355 1_565 S
C710 C712 1.415 . S
C711 C710 1.355 1_545 S
C711 C713 1.419 . S
C712 C710 1.415 . S
C712 C717 1.425 . S
C712 C719 1.409 . S
C713 H705 0.930 . S
C713 C711 1.419 . S
C713 C714 1.362 1_545 S
C714 H706 0.930 1_565 S
C714 C713 1.362 1_565 S
C714 C717 1.409 . S
C715 H707 0.930 . S
C715 C716 1.355 . S
C715 C717 1.415 . S
C716 C715 1.355 . S
C716 C718 1.419 . S
C717 C712 1.425 . S
C717 C714 1.409 . S
C717 C715 1.415 . S
C718 H708 0.930 . S
C718 C716 1.419 . S
C718 C719 1.362 . S
C719 H709 0.930 . S
C719 C712 1.409 . S
C719 C718 1.362 . S
H720 C726 0.930 . S
H721 C729 0.930 . S
H722 C730 0.930 . S
H723 C731 0.930 . S
H724 C734 0.930 . S
H725 C735 0.930 . S
C726 H720 0.930 . S
C726 C727 1.355 . S
C726 C728 1.415 . S
C727 C726 1.355 . S
C727 C729 1.419 . S
C728 C726 1.415 . S
C728 C733 1.425 . S
C728 C735 1.409 . S
C729 H721 0.930 . S
C729 C727 1.419 . S
C729 C730 1.362 . S
C730 H722 0.930 . S
C730 C729 1.362 . S
C730 C733 1.409 . S
C731 H723 0.930 . S
C731 C732 1.355 . S
C731 C733 1.415 . S
C732 C731 1.355 . S
C732 C734 1.419 . S
C733 C728 1.425 . S
C733 C730 1.409 . S
C733 C731 1.415 . S
C734 H724 0.930 . S
C734 C732 1.419 . S
C734 C735 1.362 . S
C735 H725 0.930 . S
C735 C728 1.409 . S
C735 C734 1.362 . S
H736 C742 0.930 . S
H737 C745 0.930 . S
H738 C746 0.930 . S
H739 C747 0.930 . S
H740 C750 0.930 . S
H741 C751 0.930 . S
C742 H736 0.930 . S
C742 C743 1.355 . S
C742 C744 1.415 . S
C743 C742 1.355 . S
C743 C745 1.419 . S
C744 C742 1.415 . S
C744 C749 1.425 . S
C744 C751 1.409 . S
C745 H737 0.930 . S
C745 C743 1.419 . S
C745 C746 1.362 . S
C746 H738 0.930 . S
C746 C745 1.362 . S
C746 C749 1.409 . S
C747 H739 0.930 . S
C747 C748 1.355 . S
C747 C749 1.415 . S
C748 C747 1.355 . S
C748 C750 1.419 . S
C749 C744 1.425 . S
C749 C746 1.409 . S
C749 C747 1.415 . S
C750 H740 0.930 . S
C750 C748 1.419 . S
C750 C751 1.362 . S
C751 H741 0.930 . S
C751 C744 1.409 . S
C751 C750 1.362 . S
H752 C758 0.930 . S
H753 C761 0.930 . S
H754 C762 0.930 . S
H755 C763 0.930 . S
H756 C766 0.930 . S
H757 C767 0.930 . S
C758 H752 0.930 . S
C758 C759 1.355 1_556 S
C758 C760 1.415 . S
C759 C758 1.355 1_554 S
C759 C761 1.419 . S
C760 C758 1.415 . S
C760 C765 1.425 . S
C760 C767 1.409 . S
C761 H753 0.930 . S
C761 C759 1.419 . S
C761 C762 1.362 1_554 S
C762 H754 0.930 . S
C762 C761 1.362 1_556 S
C762 C765 1.409 . S
C763 H755 0.930 . S
C763 C764 1.355 . S
C763 C765 1.415 . S
C764 C763 1.355 . S
C764 C766 1.419 . S
C765 C760 1.425 . S
C765 C762 1.409 . S
C765 C763 1.415 . S
C766 H756 0.930 . S
C766 C764 1.419 . S
C766 C767 1.362 . S
C767 H757 0.930 . S
C767 C760 1.409 . S
C767 C766 1.362 . S
H768 C774 0.930 . S
H769 C777 0.930 . S
H770 C778 0.930 . S
H771 C779 0.930 . S
H772 C782 0.930 . S
H773 C783 0.930 . S
C774 H768 0.930 . S
C774 C775 1.355 . S
C774 C776 1.415 . S
C775 C774 1.355 . S
C775 C777 1.419 . S
C776 C774 1.415 . S
C776 C781 1.425 . S
C776 C783 1.409 . S
C777 H769 0.930 . S
C777 C775 1.419 . S
C777 C778 1.362 . S
C778 H770 0.930 . S
C778 C777 1.362 . S
C778 C781 1.409 . S
C779 H771 0.930 . S
C779 C780 1.355 . S
C779 C781 1.415 . S
C780 C779 1.355 . S
C780 C782 1.419 . S
C781 C776 1.425 . S
C781 C778 1.409 . S
C781 C779 1.415 . S
C782 H772 0.930 . S
C782 C780 1.419 . S
C782 C783 1.362 . S
C783 H773 0.930 . S
C783 C776 1.409 . S
C783 C782 1.362 . S
H784 C790 0.930 . S
H785 C793 0.930 . S
H786 C794 0.930 . S
H787 C795 0.930 . S
H788 C798 0.930 . S
H789 C799 0.930 . S
C790 H784 0.930 . S
C790 C791 1.330 1_556 S
C790 C792 1.415 . S
C791 C790 1.330 1_554 S
C791 C793 1.421 . S
C792 C790 1.415 . S
C792 C797 1.425 . S
C792 C799 1.409 . S
C793 H785 0.930 . S
C793 C791 1.421 . S
C793 C794 1.362 1_554 S
C794 H786 0.930 . S
C794 C793 1.362 1_556 S
C794 C797 1.409 . S
C795 H787 0.930 . S
C795 C796 1.355 . S
C795 C797 1.415 . S
C796 C795 1.355 . S
C796 C798 1.419 . S
C797 C792 1.425 . S
C797 C794 1.409 . S
C797 C795 1.415 . S
C798 H788 0.930 . S
C798 C796 1.419 . S
C798 C799 1.362 . S
C799 H789 0.930 . S
C799 C792 1.409 . S
C799 C798 1.362 . S
H800 C806 0.930 . S
H801 C809 0.930 . S
H802 C810 0.930 . S
H803 C811 0.930 . S
H804 C814 0.930 . S
H805 C815 0.930 . S
C806 H800 0.930 . S
C806 C807 1.355 . S
C806 C808 1.415 . S
C807 C806 1.355 . S
C807 C809 1.419 . S
C808 C806 1.415 . S
C808 C813 1.425 . S
C808 C815 1.409 . S
C809 H801 0.930 . S
C809 C807 1.419 . S
C809 C810 1.362 . S
C810 H802 0.930 . S
C810 C809 1.362 . S
C810 C813 1.409 . S
C811 H803 0.930 . S
C811 C812 1.355 . S
C811 C813 1.415 . S
C812 C811 1.355 . S
C812 C814 1.419 . S
C813 C808 1.425 . S
C813 C810 1.409 . S
C813 C811 1.415 . S
C814 H804 0.930 . S
C814 C812 1.419 . S
C814 C815 1.362 . S
C815 H805 0.930 . S
C815 C808 1.409 . S
C815 C814 1.362 . S
H816 C822 0.924 1_556 S
H817 C825 0.930 . S
H818 C826 0.930 . S
H819 C827 0.930 . S
H820 C830 0.930 . S
H821 C831 0.930 . S
C822 H816 0.924 1_554 S
C822 C823 1.355 . S
C822 C824 1.415 . S
C823 C822 1.355 . S
C823 C825 1.419 . S
C824 C822 1.415 . S
C824 C829 1.425 . S
C824 C831 1.409 . S
C825 H817 0.930 . S
C825 C823 1.419 . S
C825 C826 1.362 . S
C826 H818 0.930 . S
C826 C825 1.362 . S
C826 C829 1.409 . S
C827 H819 0.930 . S
C827 C828 1.355 . S
C827 C829 1.415 . S
C828 C827 1.355 . S
C828 C830 1.419 . S
C829 C824 1.425 . S
C829 C826 1.409 . S
C829 C827 1.415 . S
C830 H820 0.930 . S
C830 C828 1.419 . S
C830 C831 1.362 . S
C831 H821 0.930 . S
C831 C824 1.409 . S
C831 C830 1.362 . S
H832 C838 0.930 . S
H833 C841 0.930 . S
H834 C842 0.930 . S
H835 C843 0.930 . S
H836 C846 0.930 . S
H837 C847 0.930 . S
C838 H832 0.930 . S
C838 C839 1.355 . S
C838 C840 1.415 . S
C839 C838 1.355 . S
C839 C841 1.419 . S
C840 C838 1.415 . S
C840 C845 1.425 . S
C840 C847 1.409 . S
C841 H833 0.930 . S
C841 C839 1.419 . S
C841 C842 1.362 . S
C842 H834 0.930 . S
C842 C841 1.362 . S
C842 C845 1.409 . S
C843 H835 0.930 . S
C843 C844 1.355 . S
C843 C845 1.415 . S
C844 C843 1.355 . S
C844 C846 1.419 . S
C845 C840 1.425 . S
C845 C842 1.409 . S
C845 C843 1.415 . S
C846 H836 0.930 . S
C846 C844 1.419 . S
C846 C847 1.362 . S
C847 H837 0.930 . S
C847 C840 1.409 . S
C847 C846 1.362 . S
H848 C854 0.930 . S
H849 C857 0.930 . S
H850 C858 0.930 . S
H851 C859 0.930 . S
H852 C862 0.930 . S
H853 C863 0.930 . S
C854 H848 0.930 . S
C854 C855 1.355 . S
C854 C856 1.415 . S
C855 C854 1.355 . S
C855 C857 1.419 . S
C856 C854 1.415 . S
C856 C861 1.425 . S
C856 C863 1.409 . S
C857 H849 0.930 . S
C857 C855 1.419 . S
C857 C858 1.362 . S
C858 H850 0.930 . S
C858 C857 1.362 . S
C858 C861 1.409 . S
C859 H851 0.930 . S
C859 C860 1.355 . S
C859 C861 1.415 . S
C860 C859 1.355 . S
C860 C862 1.419 . S
C861 C856 1.425 . S
C861 C858 1.409 . S
C861 C859 1.415 . S
C862 H852 0.930 . S
C862 C860 1.419 . S
C862 C863 1.362 . S
C863 H853 0.930 . S
C863 C856 1.409 . S
C863 C862 1.362 . S
H864 C870 0.930 . S
H865 C873 0.930 . S
H866 C874 0.930 . S
H867 C875 0.930 . S
H868 C878 0.930 . S
H869 C879 0.930 . S
C870 H864 0.930 . S
C870 C871 1.355 . S
C870 C872 1.415 . S
C871 C870 1.355 . S
C871 C873 1.419 . S
C872 C870 1.415 . S
C872 C877 1.425 . S
C872 C879 1.409 . S
C873 H865 0.930 . S
C873 C871 1.419 . S
C873 C874 1.362 . S
C874 H866 0.930 . S
C874 C873 1.362 . S
C874 C877 1.409 . S
C875 H867 0.930 . S
C875 C876 1.355 . S
C875 C877 1.415 . S
C876 C875 1.355 . S
C876 C878 1.419 . S
C877 C872 1.425 . S
C877 C874 1.409 . S
C877 C875 1.415 . S
C878 H868 0.930 . S
C878 C876 1.419 . S
C878 C879 1.362 . S
C879 H869 0.930 . S
C879 C872 1.409 . S
C879 C878 1.362 . S
H880 C886 0.930 . S
H881 C889 0.930 . S
H882 C890 0.930 . S
H883 C891 0.930 . S
H884 C894 0.930 . S
H885 C895 0.930 . S
C886 H880 0.930 . S
C886 C887 1.355 . S
C886 C888 1.415 . S
C887 C886 1.355 . S
C887 C889 1.419 . S
C888 C886 1.415 . S
C888 C893 1.425 . S
C888 C895 1.409 . S
C889 H881 0.930 . S
C889 C887 1.419 . S
C889 C890 1.362 . S
C890 H882 0.930 . S
C890 C889 1.362 . S
C890 C893 1.409 . S
C891 H883 0.930 . S
C891 C892 1.355 . S
C891 C893 1.415 . S
C892 C891 1.355 . S
C892 C894 1.419 . S
C893 C888 1.425 . S
C893 C890 1.409 . S
C893 C891 1.415 . S
C894 H884 0.930 . S
C894 C892 1.419 . S
C894 C895 1.362 . S
C895 H885 0.930 . S
C895 C888 1.409 . S
C895 C894 1.362 . S
H896 C902 0.930 . S
H897 C905 0.930 . S
H898 C906 0.930 . S
H899 C907 0.930 . S
H900 C910 0.930 . S
H901 C911 0.930 . S
C902 H896 0.930 . S
C902 C903 1.355 . S
C902 C904 1.415 . S
C903 C902 1.355 . S
C903 C905 1.419 . S
C904 C902 1.415 . S
C904 C909 1.425 . S
C904 C911 1.409 . S
C905 H897 0.930 . S
C905 C903 1.419 . S
C905 C906 1.362 . S
C906 H898 0.930 . S
C906 C905 1.362 . S
C906 C909 1.409 . S
C907 H899 0.930 . S
C907 C908 1.355 . S
C907 C909 1.415 . S
C908 C907 1.355 . S
C908 C910 1.419 . S
C909 C904 1.425 . S
C909 C906 1.409 . S
C909 C907 1.415 . S
C910 H900 0.930 . S
C910 C908 1.419 . S
C910 C911 1.362 . S
C911 H901 0.930 . S
C911 C904 1.409 . S
C911 C910 1.362 . S
H912 C918 0.930 . S
H913 C921 0.930 . S
H914 C922 0.930 . S
H915 C923 0.930 . S
H916 C926 0.930 . S
H917 C927 0.930 . S
C918 H912 0.930 . S
C918 C919 1.355 . S
C918 C920 1.415 . S
C919 C918 1.355 . S
C919 C921 1.419 . S
C920 C918 1.415 . S
C920 C925 1.425 . S
C920 C927 1.409 . S
C921 H913 0.930 . S
C921 C919 1.419 . S
C921 C922 1.362 . S
C922 H914 0.930 . S
C922 C921 1.362 . S
C922 C925 1.409 . S
C923 H915 0.930 . S
C923 C924 1.355 . S
C923 C925 1.415 . S
C924 C923 1.355 . S
C924 C926 1.419 . S
C925 C920 1.425 . S
C925 C922 1.409 . S
C925 C923 1.415 . S
C926 H916 0.930 . S
C926 C924 1.419 . S
C926 C927 1.362 . S
C927 H917 0.930 . S
C927 C920 1.409 . S
C927 C926 1.362 . S
H928 C934 0.930 . S
H929 C937 0.930 . S
H930 C938 0.930 . S
H931 C939 0.930 . S
H932 C942 0.930 . S
H933 C943 0.930 . S
C934 H928 0.930 . S
C934 C935 1.355 . S
C934 C936 1.415 . S
C935 C934 1.355 . S
C935 C937 1.419 . S
C936 C934 1.415 . S
C936 C941 1.425 . S
C936 C943 1.409 . S
C937 H929 0.930 . S
C937 C935 1.419 . S
C937 C938 1.362 . S
C938 H930 0.930 . S
C938 C937 1.362 . S
C938 C941 1.409 . S
C939 H931 0.930 . S
C939 C940 1.355 . S
C939 C941 1.415 . S
C940 C939 1.355 . S
C940 C942 1.419 . S
C941 C936 1.425 . S
C941 C938 1.409 . S
C941 C939 1.415 . S
C942 H932 0.930 . S
C942 C940 1.419 . S
C942 C943 1.362 . S
C943 H933 0.930 . S
C943 C936 1.409 . S
C943 C942 1.362 . S
H944 C950 0.930 . S
H945 C953 0.930 . S
H946 C954 0.930 . S
H947 C955 0.930 . S
H948 C958 0.930 . S
H949 C959 0.930 . S
C950 H944 0.930 . S
C950 C951 1.355 . S
C950 C952 1.415 . S
C951 C950 1.355 . S
C951 C953 1.419 . S
C952 C950 1.415 . S
C952 C957 1.425 . S
C952 C959 1.409 . S
C953 H945 0.930 . S
C953 C951 1.419 . S
C953 C954 1.362 . S
C954 H946 0.930 . S
C954 C953 1.362 . S
C954 C957 1.409 . S
C955 H947 0.930 . S
C955 C956 1.355 . S
C955 C957 1.415 . S
C956 C955 1.355 . S
C956 C958 1.419 . S
C957 C952 1.425 . S
C957 C954 1.409 . S
C957 C955 1.415 . S
C958 H948 0.930 . S
C958 C956 1.419 . S
C958 C959 1.362 . S
C959 H949 0.930 . S
C959 C952 1.409 . S
C959 C958 1.362 . S
H960 C966 0.930 . S
H961 C969 0.930 . S
H962 C970 0.930 . S
H963 C971 0.930 . S
H964 C974 0.930 . S
H965 C975 0.930 . S
C966 H960 0.930 . S
C966 C967 1.355 . S
C966 C968 1.415 . S
C967 C966 1.355 . S
C967 C969 1.419 . S
C968 C966 1.415 . S
C968 C973 1.425 . S
C968 C975 1.409 . S
C969 H961 0.930 . S
C969 C967 1.419 . S
C969 C970 1.362 . S
C970 H962 0.930 . S
C970 C969 1.362 . S
C970 C973 1.409 . S
C971 H963 0.930 . S
C971 C972 1.355 . S
C971 C973 1.415 . S
C972 C971 1.355 . S
C972 C974 1.419 . S
C973 C968 1.425 . S
C973 C970 1.409 . S
C973 C971 1.415 . S
C974 H964 0.930 . S
C974 C972 1.419 . S
C974 C975 1.362 . S
C975 H965 0.930 . S
C975 C968 1.409 . S
C975 C974 1.362 . S
C599 C221 1.458 . S
C604 C312 1.452 . S
C620 C396 1.452 . S
C615 C241 1.455 . S
C636 C395 1.488 . S
C631 C157 1.453 . S
C647 C177 1.455 . S
C652 C311 1.492 . S
C668 C492 1.450 . S
C663 C93 1.444 . S
C684 C576 1.476 . S
C679 C113 1.496 . S
C695 C29 1.454 . S
C700 C575 1.482 . S
C711 C49 1.462 . S
C716 C491 1.479 . S
C732 C314 1.380 . S
C727 C61 1.486 1_554 S
C748 C398 1.355 . S
C743 C17 1.479 . S
C764 C410 1.341 . S
C759 C125 1.533 . S
C780 C326 1.428 . S
C775 C81 1.468 . S
C796 C494 1.258 . S
C791 C189 1.436 . S
C807 C145 1.490 . S
C812 C578 1.387 . S
C828 C566 1.381 . S
C823 C253 1.503 1_554 S
C839 C209 1.530 . S
C844 C482 1.337 . S
C860 C323 1.549 . S
C855 C23 1.532 . S
C876 C407 1.558 . S
C871 C55 1.551 . S
C887 C87 1.526 . S
C892 C408 1.522 . S
C908 C324 1.552 . S
C903 C119 1.537 . S
C924 C479 1.554 . S
C919 C151 1.534 . S
C935 C183 1.465 . S
C940 C563 1.556 . S
C951 C215 1.538 . S
C956 C564 1.542 . S
C967 C247 1.528 . S
C972 C480 1.529 . S
