# Generated by pormake.
# Topology ftw, (4,12)-cn, num edge types: 1
# Building blocks:
#     Node 0, Type 0, BuildingBlock: KUFVIS_clean_linker_0, # of connection points: 4
#     Node 1, Type 0, BuildingBlock: KUFVIS_clean_linker_0, # of connection points: 4
#     Node 2, Type 0, BuildingBlock: KUFVIS_clean_linker_0, # of connection points: 4
#     Node 3, Type 1, BuildingBlock: EZIPEK_clean_sbu_0, # of connection points: 12
#     Edge 4, Type (0, 1), BuildingBlock: XIVTED_clean_linker_0, # of connection points: 2
#     Edge 5, Type (0, 1), BuildingBlock: XIVTED_clean_linker_0, # of connection points: 2
#     Edge 6, Type (0, 1), BuildingBlock: XIVTED_clean_linker_0, # of connection points: 2
#     Edge 7, Type (0, 1), BuildingBlock: XIVTED_clean_linker_0, # of connection points: 2
#     Edge 8, Type (0, 1), BuildingBlock: XIVTED_clean_linker_0, # of connection points: 2
#     Edge 9, Type (0, 1), BuildingBlock: XIVTED_clean_linker_0, # of connection points: 2
#     Edge 10, Type (0, 1), BuildingBlock: XIVTED_clean_linker_0, # of connection points: 2
#     Edge 11, Type (0, 1), BuildingBlock: XIVTED_clean_linker_0, # of connection points: 2
#     Edge 12, Type (0, 1), BuildingBlock: XIVTED_clean_linker_0, # of connection points: 2
#     Edge 13, Type (0, 1), BuildingBlock: XIVTED_clean_linker_0, # of connection points: 2
#     Edge 14, Type (0, 1), BuildingBlock: XIVTED_clean_linker_0, # of connection points: 2
#     Edge 15, Type (0, 1), BuildingBlock: XIVTED_clean_linker_0, # of connection points: 2
# Relax obj value: 0.081
# Max RMSD: 0.235
# Mean RMSD: 0.179
data_MOF--net-ftw--node1-EZIPEK_clean_sbu_0--node2-KUFVIS_clean_linker_0--edge1-XIVTED_clean_linker_0
_symmetry_space_group_name_H-M    P1
_symmetry_Int_Tables_number       1
_symmetry_cell_setting            triclinic
loop_
_symmetry_equiv_pos_as_xyz
'x, y, z'
_cell_length_a     24.04149
_cell_length_b     25.113247
_cell_length_c     24.274922
_cell_angle_alpha  89.838557
_cell_angle_beta   90.238217
_cell_angle_gamma 89.973922
loop_
_atom_site_label
_atom_site_type_symbol
_atom_site_fract_x
_atom_site_fract_y
_atom_site_fract_z
_atom_type_partial_charge
H0 H -0.01293 0.35366 0.52563 0.0
H1 H 0.0032 0.50078 0.61264 0.0
H2 H 0.96309 0.50013 0.43838 0.0
H3 H 0.00465 0.5779 0.43897 0.0
H4 H -0.01974 0.72474 0.52419 0.0
H5 H 0.95954 0.57793 0.61171 0.0
C6 C -0.0141 0.39679 0.52557 0.0
C7 C 0.97558 0.42389 0.47606 0.0
C8 C -0.00527 0.4242 0.57502 0.0
C9 C -0.00608 0.4802 0.57463 0.0
C10 C -0.01693 0.50909 0.5255 0.0
C11 C 0.97348 0.47988 0.47642 0.0
C12 C -0.0179 0.56924 0.52534 0.0
C13 C -0.0066 0.59826 0.47651 0.0
C14 C -0.00795 0.6542 0.47575 0.0
C15 C -0.01929 0.68158 0.52459 0.0
C16 C 0.96995 0.65443 0.57388 0.0
C17 C 0.9701 0.59835 0.5739 0.0
H18 H 0.46875 0.05571 0.7026 0.0
H19 H 0.56174 0.99231 0.56796 0.0
H20 H 0.38644 1.02544 0.54917 0.0
H21 H 0.39229 0.95702 0.49092 0.0
H22 H 0.47726 0.95886 0.33577 0.0
H23 H 0.5606 1.01523 0.47982 0.0
C24 C 0.47048 0.0433 0.65992 0.0
C25 C 0.42167 0.04181 0.62845 0.0
C26 C 0.5213 1.02714 0.63771 0.0
C27 C 0.52262 1.00646 0.58422 0.0
C28 C 0.47418 1.00518 0.55151 0.0
C29 C 0.42393 1.02389 0.57397 0.0
C30 C 0.47655 0.98717 0.49323 0.0
C31 C 0.42939 0.96535 0.4673 0.0
C32 C 0.42844 0.95688 0.41022 0.0
C33 C 0.47731 0.96487 0.37994 0.0
C34 C 0.52551 0.98412 0.40559 0.0
C35 C 0.52458 0.99607 0.46176 0.0
H36 H 0.46989 0.72383 0.99855 0.0
H37 H 0.56684 0.58235 0.01771 0.0
H38 H 0.39053 0.57298 0.98036 0.0
H39 H 0.39459 0.49542 0.01764 0.0
H40 H 0.491 0.35374 0.99945 0.0
H41 H 0.57095 0.50441 0.98155 0.0
C42 C 0.47273 0.68075 0.99779 0.0
C43 C 0.42451 0.65075 0.98959 0.0
C44 C 0.5244 0.65625 1.00569 0.0
C45 C 0.527 0.60045 1.00905 0.0
C46 C 0.47901 0.56876 1.00028 0.0
C47 C 0.42791 0.59505 0.98982 0.0
C48 C 0.48241 0.50885 1.00055 0.0
C49 C 0.43436 0.47726 1.00923 0.0
C50 C 0.43677 0.42147 1.0061 0.0
C51 C 0.48832 0.39684 0.99857 0.0
C52 C 0.53664 0.42671 0.99066 0.0
C53 C 0.53347 0.48244 0.99069 0.0
C54 C -0.01264 0.1693 0.89264 0.0
C55 C -0.01753 0.16639 0.16058 0.0
C56 C 0.97113 0.91032 0.89004 0.0
C57 C -0.01627 0.90787 0.15739 0.0
C58 C 0.11005 0.90584 1.01106 0.0
C59 C 0.12059 0.16272 0.02825 0.0
C60 C 0.84117 0.91474 0.0265 0.0
C61 C 0.85163 0.17266 0.01967 0.0
C62 C 0.84828 0.04295 0.15844 0.0
C63 C 0.11572 1.02008 0.15521 0.0
C64 C 0.84454 0.04375 0.89332 0.0
C65 C 0.11122 0.04275 0.88931 0.0
Eu66 Eu -0.01518 0.14019 0.02635 0.0
O67 O 0.03329 0.08442 0.07443 0.0
O68 O 0.9331 0.08873 0.97693 0.0
Eu69 Eu 0.08505 0.03524 0.02298 0.0
Eu70 Eu 0.87659 0.04263 0.02559 0.0
O71 O 0.02994 0.08477 0.97606 0.0
O72 O 0.93407 0.0876 0.07485 0.0
Eu73 Eu -0.0214 0.03954 0.92068 0.0
Eu74 Eu -0.01784 0.03751 0.12884 0.0
O75 O 0.02713 0.98971 0.97452 0.0
O76 O 0.02811 0.9895 0.07178 0.0
O77 O 0.93039 0.99208 0.07383 0.0
O78 O 0.92886 0.99298 0.97596 0.0
Eu79 Eu -0.02314 0.93708 0.02386 0.0
O80 O -0.01171 0.18538 0.9451 0.0
O81 O -0.01665 0.1838 0.10848 0.0
O82 O 0.97185 0.89335 0.94225 0.0
O83 O -0.01882 0.89169 0.10502 0.0
O84 O 0.12809 0.95611 1.01087 0.0
O85 O 0.13508 0.11139 0.02752 0.0
O86 O 0.82677 0.96612 0.02555 0.0
O87 O 0.83322 0.12251 0.02065 0.0
O88 O 0.90077 0.03744 0.17558 0.0
O89 O 0.06431 1.02909 0.17338 0.0
O90 O 0.89674 0.04212 0.87539 0.0
O91 O 0.05846 0.03843 0.87329 0.0
O92 O 0.8931 0.8959 0.02705 0.0
O93 O 0.05737 0.89035 0.01766 0.0
O94 O 0.90478 0.18768 0.0227 0.0
O95 O 0.06863 0.18146 0.02823 0.0
O96 O -0.01696 0.1153 0.17619 0.0
O97 O -0.01664 0.95849 0.17417 0.0
O98 O -0.01665 0.11881 0.87571 0.0
O99 O 0.97351 0.96125 0.87389 0.0
O100 O 0.1295 0.04359 0.9413 0.0
O101 O 0.13168 1.02072 0.10262 0.0
O102 O 0.8285 0.04442 0.94576 0.0
O103 O 0.83146 0.04672 0.10625 0.0
H104 H 0.02008 0.44324 0.37336 0.0
H105 H 0.94861 0.15128 0.26677 0.0
H106 H 0.91535 0.3325 0.46096 0.0
H107 H 0.00727 0.2737 0.15613 0.0
H108 H 0.94149 0.21725 0.33963 0.0
H109 H 0.01868 0.38324 0.29349 0.0
C110 C -0.00392 0.40682 0.37553 0.0
C111 C 0.96847 0.39258 0.42433 0.0
C112 C 0.95577 0.22987 0.29941 0.0
C113 C 0.96766 0.3234 0.33368 0.0
C114 C 0.96027 0.19203 0.25774 0.0
C115 C -0.02118 0.20676 0.2051 0.0
C116 C 0.97053 0.28304 0.28896 0.0
C117 C -0.00731 0.2605 0.19602 0.0
C118 C -0.00439 0.37245 0.33008 0.0
C119 C 0.93834 0.34464 0.4248 0.0
N120 N -0.01134 0.29665 0.23765 0.0
N121 N 0.93929 0.31166 0.38059 0.0
H122 H 0.63398 0.96089 0.43009 0.0
H123 H 0.74438 0.08428 0.14769 0.0
H124 H 0.53018 0.03692 0.30753 0.0
H125 H 0.85129 1.00225 0.26351 0.0
H126 H 0.66759 0.07532 0.21156 0.0
H127 H 0.716 0.98249 0.37472 0.0
C128 C 0.6286 0.98221 0.39157 0.0
C129 C 0.57537 0.99657 0.37284 0.0
C130 C 0.70784 0.05948 0.22331 0.0
C131 C 0.6684 1.02146 0.30979 0.0
C132 C 0.75177 0.06455 0.1868 0.0
C133 C 0.80404 0.04321 0.20003 0.0
C134 C 0.716 1.03249 0.27336 0.0
C135 C 0.8115 1.01903 0.25168 0.0
C136 C 0.67526 0.99448 0.36008 0.0
C137 C 0.5704 1.02411 0.32283 0.0
N138 N 0.76762 1.01374 0.28638 0.0
N139 N 0.61634 0.03553 0.29298 0.0
H140 H 0.05599 0.7432 0.46159 0.0
H141 H 0.95585 0.80152 0.15208 0.0
H142 H 0.94801 0.63627 0.37259 0.0
H143 H 0.02424 0.91983 0.26185 0.0
H144 H 0.96452 0.73493 0.22597 0.0
H145 H 0.0583 0.80189 0.38144 0.0
C146 C 0.03304 0.73187 0.42495 0.0
C147 C 0.001 0.68516 0.42415 0.0
C148 C -0.02233 0.77548 0.23366 0.0
C149 C 0.00354 0.75235 0.33188 0.0
C150 C 0.97282 0.81349 0.19155 0.0
C151 C -0.01116 0.86653 0.20089 0.0
C152 C -0.00053 0.7905 0.28511 0.0
C153 C 0.01059 0.87969 0.25286 0.0
C154 C 0.03435 0.76544 0.37919 0.0
C155 C 0.9732 0.67191 0.37502 0.0
N156 N 0.0153 0.84201 0.29283 0.0
N157 N 0.97465 0.70563 0.33095 0.0
H158 H 0.40669 0.89564 0.31858 0.0
H159 H 0.11066 1.0317 0.26731 0.0
H160 H 0.32812 1.00248 0.43384 0.0
H161 H 0.21565 0.97125 0.13759 0.0
H162 H 0.17993 1.00279 0.33502 0.0
H163 H 0.32485 0.90295 0.25883 0.0
C164 C 0.37196 0.91984 0.33182 0.0
C165 C 0.37486 0.94932 0.38081 0.0
C166 C 0.18757 0.9958 0.2917 0.0
C167 C 0.28137 0.95749 0.31301 0.0
C168 C 0.14825 1.01248 0.25302 0.0
C169 C 0.15782 1.00474 0.19662 0.0
C170 C 0.23644 0.97076 0.27385 0.0
C171 C 0.207 0.97904 0.18055 0.0
C172 C 0.32537 0.92399 0.29772 0.0
C173 C 0.32795 0.97891 0.39659 0.0
N174 N 0.24455 0.96305 0.21902 0.0
N175 N 0.28343 0.98281 0.3624 0.0
H176 H 0.90506 0.74328 0.58587 0.0
H177 H -0.00299 0.80377 0.89679 0.0
H178 H 0.01274 0.63806 0.67813 0.0
H179 H 0.93539 0.92297 0.78347 0.0
H180 H -0.00949 0.73721 0.82326 0.0
H181 H 0.90165 0.80312 0.66476 0.0
C182 C 0.92774 0.73254 0.62292 0.0
C183 C 0.96006 0.68593 0.62494 0.0
C184 C -0.02167 0.77792 0.81466 0.0
C185 C 0.95601 0.75447 0.7159 0.0
C186 C -0.01813 0.81596 0.85659 0.0
C187 C 0.96698 0.86924 0.84629 0.0
C188 C 0.95894 0.79304 0.76225 0.0
C189 C 0.94786 0.8826 0.7933 0.0
C190 C 0.92579 0.76681 0.66797 0.0
C191 C -0.01265 0.67353 0.67468 0.0
N192 N 0.94427 0.84481 0.75344 0.0
N193 N -0.0149 0.70783 0.71807 0.0
H194 H 0.39929 0.12401 0.69894 0.0
H195 H 0.10226 1.00992 0.78265 0.0
H196 H 0.32235 0.98988 0.61786 0.0
H197 H 0.21292 0.09058 0.89551 0.0
H198 H 0.17102 1.02117 0.70963 0.0
H199 H 0.31741 0.13232 0.75763 0.0
C200 C 0.36482 0.09683 0.69295 0.0
C201 C 0.36811 0.05529 0.65454 0.0
C202 C 0.17994 0.0366 0.75034 0.0
C203 C 0.27469 0.06502 0.72081 0.0
C204 C 0.14095 1.03014 0.792 0.0
C205 C 0.15244 0.0487 0.84531 0.0
C206 C 0.23023 0.06243 0.76203 0.0
C207 C 0.20297 0.07481 0.85519 0.0
C208 C 0.31827 0.10165 0.72636 0.0
C209 C 0.32166 1.02225 0.64719 0.0
N210 N 0.24016 0.08089 0.81382 0.0
N211 N 0.277 1.02736 0.68069 0.0
H212 H 0.06031 0.33622 0.59041 0.0
H213 H 0.96225 0.27613 0.89906 0.0
H214 H 0.94873 0.44075 0.67739 0.0
H215 H 0.02422 0.1569 0.78718 0.0
H216 H 0.97017 0.34295 0.82534 0.0
H217 H 0.06233 0.27705 0.67021 0.0
C218 C 0.03646 0.34694 0.62649 0.0
C219 C 0.00345 0.3931 0.62675 0.0
C220 C -0.0179 0.30215 0.81716 0.0
C221 C 0.00594 0.32541 0.71872 0.0
C222 C -0.02228 0.26403 0.85917 0.0
C223 C -0.00777 0.21069 0.84921 0.0
C224 C 0.00203 0.28698 0.76521 0.0
C225 C 0.01192 0.19732 0.79666 0.0
C226 C 0.03764 0.31308 0.67205 0.0
C227 C 0.97466 0.40558 0.67532 0.0
N228 N 0.01637 0.23515 0.75683 0.0
N229 N -0.02384 0.37166 0.71927 0.0
H230 H 0.55018 0.10989 0.70432 0.0
H231 H 0.84591 0.99722 0.79198 0.0
H232 H 0.60988 0.95802 0.6456 0.0
H233 H 0.74328 0.09108 0.90029 0.0
H234 H 0.76952 0.99559 0.7246 0.0
H235 H 0.63192 0.11665 0.76355 0.0
C236 C 0.58039 0.07788 0.70397 0.0
C237 C 0.57272 1.03283 0.67069 0.0
C238 C 0.7641 1.01665 0.76308 0.0
C239 C 0.66678 0.04124 0.73712 0.0
C240 C 0.8075 1.01786 0.80124 0.0
C241 C 0.80046 0.04421 0.85158 0.0
C242 C 0.71421 0.04293 0.77521 0.0
C243 C 0.75 0.07002 0.86205 0.0
C244 C 0.62706 0.08199 0.7375 0.0
C245 C 0.6142 0.99348 0.67049 0.0
N246 N 0.70871 0.06893 0.82397 0.0
N247 N 0.65961 0.99852 0.70347 0.0
H248 H 0.34514 0.43133 0.07413 0.0
H249 H 0.22606 0.14767 0.9909 0.0
H250 H 0.41212 0.33521 0.94288 0.0
H251 H 0.1191 0.26727 0.0618 0.0
H252 H 0.30042 0.21319 0.98521 0.0
H253 H 0.26554 0.37004 0.08001 0.0
C254 C 0.34297 0.39774 0.04634 0.0
C255 C 0.38592 0.3879 1.00861 0.0
C256 C 0.26068 0.22515 1.00201 0.0
C257 C 0.29603 0.31761 0.01589 0.0
C258 C 0.2183 0.18765 1.00567 0.0
C259 C 0.16626 0.20202 0.02685 0.0
C260 C 0.25142 0.27735 0.02032 0.0
C261 C 0.15856 0.25464 0.0449 0.0
C262 C 0.29775 0.36276 0.0499 0.0
C263 C 0.38094 0.34361 0.97372 0.0
N264 N 0.20087 0.2905 0.04151 0.0
N265 N 0.33727 0.30993 0.97862 0.0
H266 H 0.32462 0.63103 0.04009 0.0
H267 H 0.20976 0.91689 0.95966 0.0
H268 H 0.40285 0.73502 0.92183 0.0
H269 H 0.10623 0.79986 0.03996 0.0
H270 H 0.28041 0.8491 0.94558 0.0
H271 H 0.24229 0.68899 0.03888 0.0
C272 C 0.32394 0.6654 1.01304 0.0
C273 C 0.37085 0.67886 0.98173 0.0
C274 C 0.24215 0.83799 0.96599 0.0
C275 C 0.27779 0.74548 0.98086 0.0
C276 C 0.20191 0.87687 0.97448 0.0
C277 C 0.15224 0.86415 1.00156 0.0
C278 C 0.23324 0.78597 0.98538 0.0
C279 C 0.14405 0.81136 0.019 0.0
C280 C 0.27718 0.69858 1.01259 0.0
C281 C 0.368 0.72389 0.94752 0.0
N282 N 0.18449 0.77422 1.01117 0.0
N283 N 0.32265 0.75592 0.94858 0.0
H284 H 0.55784 0.34341 0.92235 0.0
H285 H 0.85968 0.27929 0.0445 0.0
H286 H 0.63639 0.4448 0.04285 0.0
H287 H 0.74767 0.16218 0.97618 0.0
H288 H 0.78822 0.34791 0.02941 0.0
H289 H 0.63925 0.28542 0.92417 0.0
C290 C 0.59267 0.35378 0.94868 0.0
C291 C 0.59008 0.39831 0.98329 0.0
C292 C 0.77963 0.30714 0.01769 0.0
C293 C 0.68321 0.33207 0.98576 0.0
C294 C 0.82023 0.26803 0.02626 0.0
C295 C 0.80941 0.21483 1.012 0.0
C296 C 0.72852 0.29295 0.99376 0.0
C297 C 0.75766 0.20247 0.98844 0.0
C298 C 0.63899 0.32063 0.94983 0.0
C299 C 0.63677 0.41065 0.01574 0.0
N300 N 0.71931 0.24122 0.97994 0.0
N301 N 0.68137 0.37721 0.01676 0.0
H302 H 0.61662 0.64634 0.07382 0.0
H303 H 0.73526 0.93012 0.98939 0.0
H304 H 0.54835 0.74291 0.94245 0.0
H305 H 0.84284 0.81002 0.06006 0.0
H306 H 0.66061 0.8648 0.98436 0.0
H307 H 0.69628 0.70762 0.07945 0.0
C308 C 0.61849 0.68004 0.04597 0.0
C309 C 0.57519 0.68997 1.00825 0.0
C310 C 0.70057 0.85269 1.00094 0.0
C311 C 0.66516 0.76025 0.01525 0.0
C312 C 0.74313 0.89006 1.00419 0.0
C313 C 0.79543 0.87549 0.02508 0.0
C314 C 0.70992 0.80041 0.01936 0.0
C315 C 0.80321 0.8228 0.04329 0.0
C316 C 0.66376 0.71501 0.04938 0.0
C317 C 0.5798 0.73442 0.97329 0.0
N318 N 0.76074 0.78707 0.04027 0.0
N319 N 0.62353 0.76808 0.97804 0.0
loop_
_geom_bond_atom_site_label_1
_geom_bond_atom_site_label_2
_geom_bond_distance
_geom_bond_site_symmetry_2
_ccdc_geom_bond_type
H0 C6 0.928 1_655 S
H1 C9 0.931 . S
H2 C11 0.930 1_655 S
H3 C13 0.930 . S
H4 C15 0.930 . S
H5 C17 0.929 1_655 S
C6 H0 0.928 1_455 S
C6 C7 1.380 1_455 S
C6 C8 1.394 . S
C7 C6 1.380 1_655 S
C7 C11 1.382 1_655 S
C8 C6 1.394 . S
C8 C9 1.400 . S
C9 H1 0.931 . S
C9 C8 1.400 . S
C9 C10 1.375 . S
C10 C9 1.375 . S
C10 C11 1.417 . S
C10 C12 1.501 . S
C11 H2 0.930 1_455 S
C11 C7 1.382 1_455 S
C11 C10 1.417 . S
C12 C10 1.501 . S
C12 C13 1.384 . S
C12 C17 1.410 . S
C13 H3 0.930 . S
C13 C12 1.384 . S
C13 C14 1.389 . S
C14 C13 1.389 . S
C14 C15 1.405 . S
C15 H4 0.930 . S
C15 C14 1.405 . S
C15 C16 1.365 . S
C16 C15 1.365 . S
C16 C17 1.400 . S
C17 H5 0.929 1_455 S
C17 C12 1.410 . S
C17 C16 1.400 . S
H18 C24 0.930 . S
H19 C27 0.931 . S
H20 C29 0.931 . S
H21 C31 0.930 . S
H22 C33 0.930 . S
H23 C35 0.931 . S
C24 H18 0.930 . S
C24 C25 1.380 . S
C24 C26 1.394 1_545 S
C25 C24 1.380 . S
C25 C29 1.382 . S
C26 C24 1.394 1_565 S
C26 C27 1.400 . S
C27 H19 0.931 . S
C27 C26 1.400 . S
C27 C28 1.375 . S
C28 C27 1.375 . S
C28 C29 1.415 1_565 S
C28 C30 1.501 . S
C29 H20 0.931 . S
C29 C25 1.382 . S
C29 C28 1.415 1_545 S
C30 C28 1.501 . S
C30 C31 1.384 . S
C30 C35 1.408 1_565 S
C31 H21 0.930 . S
C31 C30 1.384 . S
C31 C32 1.389 . S
C32 C31 1.389 . S
C32 C33 1.405 . S
C33 H22 0.930 . S
C33 C32 1.405 . S
C33 C34 1.364 1_565 S
C34 C33 1.364 1_545 S
C34 C35 1.400 . S
C35 H23 0.931 . S
C35 C30 1.408 1_545 S
C35 C34 1.400 . S
H36 C42 0.930 . S
H37 C45 0.931 . S
H38 C47 0.931 1_556 S
H39 C49 0.930 . S
H40 C51 0.930 . S
H41 C53 0.931 1_556 S
C42 H36 0.930 . S
C42 C43 1.380 1_554 S
C42 C44 1.394 . S
C43 C42 1.380 1_556 S
C43 C47 1.382 1_556 S
C44 C42 1.394 . S
C44 C45 1.400 . S
C45 H37 0.931 . S
C45 C44 1.400 . S
C45 C46 1.375 . S
C46 C45 1.375 . S
C46 C47 1.415 . S
C46 C48 1.501 . S
C47 H38 0.931 1_554 S
C47 C43 1.382 1_554 S
C47 C46 1.415 . S
C48 C46 1.501 . S
C48 C49 1.384 . S
C48 C53 1.408 . S
C49 H39 0.930 . S
C49 C48 1.384 . S
C49 C50 1.389 . S
C50 C49 1.389 . S
C50 C51 1.405 . S
C51 H40 0.930 . S
C51 C50 1.405 . S
C51 C52 1.364 . S
C52 C51 1.364 . S
C52 C53 1.400 . S
C53 H41 0.931 1_554 S
C53 C48 1.408 . S
C53 C52 1.400 . S
C54 O80 1.283 . S
C54 O98 1.283 . S
C55 O81 1.283 . S
C55 O96 1.283 . S
C56 O82 1.283 . S
C56 O99 1.283 . S
C57 O83 1.283 . S
C57 O97 1.283 . S
C58 O84 1.283 . S
C58 O93 1.283 . S
C59 O85 1.283 . S
C59 O95 1.283 . S
C60 O86 1.283 . S
C60 O92 1.283 . S
C61 O87 1.283 . S
C61 O94 1.283 . S
C62 O88 1.283 . S
C62 O103 1.283 . S
C63 O89 1.283 . S
C63 O101 1.283 . S
C64 O90 1.283 . S
C64 O102 1.283 . S
C65 O91 1.283 . S
C65 O100 1.283 . S
Eu66 O67 2.370 . S
Eu66 O68 2.370 1_454 S
Eu66 O71 2.370 1_554 S
Eu66 O72 2.370 1_455 S
Eu66 O80 2.363 1_554 S
Eu66 O81 2.363 . S
Eu66 O94 2.363 1_455 S
Eu66 O95 2.363 . S
O67 Eu66 2.370 . S
O67 Eu69 2.370 . S
O67 Eu74 2.371 . S
O68 Eu66 2.370 1_656 S
O68 Eu70 2.371 1_556 S
O68 Eu73 2.370 1_655 S
Eu69 O67 2.370 . S
Eu69 O71 2.370 1_554 S
Eu69 O75 2.371 1_544 S
Eu69 O76 2.371 1_545 S
Eu69 O84 2.364 1_545 S
Eu69 O85 2.362 . S
Eu69 O100 2.363 1_554 S
Eu69 O101 2.363 . S
Eu70 O68 2.371 1_554 S
Eu70 O72 2.371 . S
Eu70 O77 2.370 1_545 S
Eu70 O78 2.370 1_544 S
Eu70 O86 2.362 1_545 S
Eu70 O87 2.364 . S
Eu70 O102 2.363 1_554 S
Eu70 O103 2.363 . S
O71 Eu66 2.370 1_556 S
O71 Eu69 2.370 1_556 S
O71 Eu73 2.370 . S
O72 Eu66 2.370 1_655 S
O72 Eu70 2.371 . S
O72 Eu74 2.371 1_655 S
Eu73 O68 2.370 1_455 S
Eu73 O71 2.370 . S
Eu73 O75 2.371 1_545 S
Eu73 O78 2.371 1_445 S
Eu73 O90 2.363 1_455 S
Eu73 O91 2.363 . S
Eu73 O98 2.362 . S
Eu73 O99 2.364 1_545 S
Eu74 O67 2.371 . S
Eu74 O72 2.371 1_455 S
Eu74 O76 2.370 1_545 S
Eu74 O77 2.370 1_445 S
Eu74 O88 2.363 1_455 S
Eu74 O89 2.363 . S
Eu74 O96 2.364 . S
Eu74 O97 2.362 1_545 S
O75 Eu69 2.371 1_566 S
O75 Eu73 2.371 1_565 S
O75 Eu79 2.370 1_556 S
O76 Eu69 2.371 1_565 S
O76 Eu74 2.370 1_565 S
O76 Eu79 2.370 . S
O77 Eu70 2.370 1_565 S
O77 Eu74 2.370 1_665 S
O77 Eu79 2.370 1_655 S
O78 Eu70 2.370 1_566 S
O78 Eu73 2.371 1_665 S
O78 Eu79 2.370 1_656 S
Eu79 O75 2.370 1_554 S
Eu79 O76 2.370 . S
Eu79 O77 2.370 1_455 S
Eu79 O78 2.370 1_454 S
Eu79 O82 2.363 1_554 S
Eu79 O83 2.363 . S
Eu79 O92 2.363 1_455 S
Eu79 O93 2.363 . S
O80 C54 1.283 . S
O80 Eu66 2.363 1_556 S
O81 C55 1.283 . S
O81 Eu66 2.363 . S
O82 C56 1.283 . S
O82 Eu79 2.363 1_556 S
O83 C57 1.283 . S
O83 Eu79 2.363 . S
O84 C58 1.283 . S
O84 Eu69 2.364 1_565 S
O85 C59 1.283 . S
O85 Eu69 2.362 . S
O86 C60 1.283 . S
O86 Eu70 2.362 1_565 S
O87 C61 1.283 . S
O87 Eu70 2.364 . S
O88 C62 1.283 . S
O88 Eu74 2.363 1_655 S
O89 C63 1.283 . S
O89 Eu74 2.363 . S
O90 C64 1.283 . S
O90 Eu73 2.363 1_655 S
O91 C65 1.283 . S
O91 Eu73 2.363 . S
O92 C60 1.283 . S
O92 Eu79 2.363 1_655 S
O93 C58 1.283 . S
O93 Eu79 2.363 . S
O94 C61 1.283 . S
O94 Eu66 2.363 1_655 S
O95 C59 1.283 . S
O95 Eu66 2.363 . S
O96 C55 1.283 . S
O96 Eu74 2.364 . S
O97 C57 1.283 . S
O97 Eu74 2.362 1_565 S
O98 C54 1.283 . S
O98 Eu73 2.362 . S
O99 C56 1.283 . S
O99 Eu73 2.364 1_565 S
O100 C65 1.283 . S
O100 Eu69 2.363 1_556 S
O101 C63 1.283 . S
O101 Eu69 2.363 . S
O102 C64 1.283 . S
O102 Eu70 2.363 1_556 S
O103 C62 1.283 . S
O103 Eu70 2.363 . S
H104 C110 0.930 . S
H105 C114 0.930 . S
H106 C119 0.929 . S
H107 C117 0.929 . S
H108 C112 0.929 . S
H109 C118 0.929 . S
C110 H104 0.930 . S
C110 C111 1.367 1_455 S
C110 C118 1.378 . S
C111 C110 1.367 1_655 S
C111 C119 1.433 . S
C112 H108 0.929 . S
C112 C114 1.378 . S
C112 C116 1.351 . S
C113 C116 1.462 . S
C113 C118 1.347 1_655 S
C113 N121 1.430 . S
C114 H105 0.930 . S
C114 C112 1.378 . S
C114 C115 1.367 1_655 S
C115 C114 1.367 1_455 S
C115 C117 1.433 . S
C116 C112 1.351 . S
C116 C113 1.462 . S
C116 N120 1.426 1_655 S
C117 H107 0.929 . S
C117 C115 1.433 . S
C117 N120 1.384 . S
C118 H109 0.929 . S
C118 C110 1.378 . S
C118 C113 1.347 1_455 S
C119 H106 0.929 . S
C119 C111 1.433 . S
C119 N121 1.384 . S
N120 C116 1.426 1_455 S
N120 C117 1.384 . S
N121 C113 1.430 . S
N121 C119 1.384 . S
H122 C128 0.930 . S
H123 C132 0.930 . S
H124 C137 0.929 . S
H125 C135 0.929 . S
H126 C130 0.929 . S
H127 C136 0.929 . S
C128 H122 0.930 . S
C128 C129 1.367 1_565 S
C128 C136 1.378 . S
C129 C128 1.367 1_545 S
C129 C137 1.433 . S
C130 H126 0.929 . S
C130 C132 1.378 . S
C130 C134 1.350 . S
C131 C134 1.463 . S
C131 C136 1.350 1_545 S
C131 N139 1.427 . S
C132 H123 0.930 . S
C132 C130 1.378 . S
C132 C133 1.367 . S
C133 C132 1.367 . S
C133 C135 1.433 1_545 S
C134 C130 1.350 . S
C134 C131 1.463 . S
C134 N138 1.427 1_545 S
C135 H125 0.929 . S
C135 C133 1.433 1_565 S
C135 N138 1.384 . S
C136 H127 0.929 . S
C136 C128 1.378 . S
C136 C131 1.350 1_565 S
C137 H124 0.929 . S
C137 C129 1.433 . S
C137 N139 1.384 . S
N138 C134 1.427 1_565 S
N138 C135 1.384 . S
N139 C131 1.427 . S
N139 C137 1.384 . S
H140 C146 0.930 . S
H141 C150 0.930 . S
H142 C155 0.929 . S
H143 C153 0.929 . S
H144 C148 0.929 . S
H145 C154 0.929 . S
C146 H140 0.930 . S
C146 C147 1.367 . S
C146 C154 1.378 . S
C147 C146 1.367 . S
C147 C155 1.433 1_455 S
C148 H144 0.929 . S
C148 C150 1.378 . S
C148 C152 1.350 1_655 S
C149 C152 1.463 . S
C149 C154 1.350 . S
C149 N157 1.427 1_455 S
C150 H141 0.930 . S
C150 C148 1.378 . S
C150 C151 1.367 1_655 S
C151 C150 1.367 1_455 S
C151 C153 1.433 . S
C152 C148 1.350 1_455 S
C152 C149 1.463 . S
C152 N156 1.427 . S
C153 H143 0.929 . S
C153 C151 1.433 . S
C153 N156 1.384 . S
C154 H145 0.929 . S
C154 C146 1.378 . S
C154 C149 1.350 . S
C155 H142 0.929 . S
C155 C147 1.433 1_655 S
C155 N157 1.384 . S
N156 C152 1.427 . S
N156 C153 1.384 . S
N157 C149 1.427 1_655 S
N157 C155 1.384 . S
H158 C164 0.930 . S
H159 C168 0.930 . S
H160 C173 0.929 . S
H161 C171 0.929 . S
H162 C166 0.929 . S
H163 C172 0.929 . S
C164 H158 0.930 . S
C164 C165 1.367 . S
C164 C172 1.378 . S
C165 C164 1.367 . S
C165 C173 1.433 1_565 S
C166 H162 0.929 . S
C166 C168 1.378 . S
C166 C170 1.350 1_545 S
C167 C170 1.463 . S
C167 C172 1.350 . S
C167 N175 1.427 1_565 S
C168 H159 0.930 . S
C168 C166 1.378 . S
C168 C169 1.375 . S
C169 C168 1.375 . S
C169 C171 1.424 1_545 S
C170 C166 1.350 1_565 S
C170 C167 1.463 . S
C170 N174 1.427 . S
C171 H161 0.929 . S
C171 C169 1.424 1_565 S
C171 N174 1.384 . S
C172 H163 0.929 . S
C172 C164 1.378 . S
C172 C167 1.350 . S
C173 H160 0.929 . S
C173 C165 1.433 1_545 S
C173 N175 1.384 . S
N174 C170 1.427 . S
N174 C171 1.384 . S
N175 C167 1.427 1_545 S
N175 C173 1.384 . S
H176 C182 0.930 . S
H177 C186 0.930 . S
H178 C191 0.930 . S
H179 C189 0.929 . S
H180 C184 0.929 . S
H181 C190 0.929 . S
C182 H176 0.930 . S
C182 C183 1.367 . S
C182 C190 1.378 . S
C183 C182 1.367 . S
C183 C191 1.432 1_655 S
C184 H180 0.929 . S
C184 C186 1.378 . S
C184 C188 1.350 . S
C185 C188 1.462 1_655 S
C185 C190 1.350 . S
C185 N193 1.427 1_655 S
C186 H177 0.930 . S
C186 C184 1.378 . S
C186 C187 1.367 . S
C187 C186 1.367 . S
C187 C189 1.433 1_455 S
C188 C184 1.350 . S
C188 C185 1.462 1_455 S
C188 N192 1.427 1_455 S
C189 H179 0.929 . S
C189 C187 1.433 1_655 S
C189 N192 1.384 . S
C190 H181 0.929 . S
C190 C182 1.378 . S
C190 C185 1.350 . S
C191 H178 0.930 . S
C191 C183 1.432 1_455 S
C191 N193 1.384 . S
N192 C188 1.427 1_655 S
N192 C189 1.384 . S
N193 C185 1.427 1_455 S
N193 C191 1.384 . S
H194 C200 0.930 . S
H195 C204 0.930 . S
H196 C209 0.929 . S
H197 C207 0.929 . S
H198 C202 0.929 . S
H199 C208 0.929 . S
C200 H194 0.930 . S
C200 C201 1.367 . S
C200 C208 1.378 . S
C201 C200 1.367 . S
C201 C209 1.433 1_545 S
C202 H198 0.929 . S
C202 C204 1.378 . S
C202 C206 1.350 1_565 S
C203 C206 1.463 . S
C203 C208 1.350 . S
C203 N211 1.427 1_545 S
C204 H195 0.930 . S
C204 C202 1.378 . S
C204 C205 1.379 . S
C205 C204 1.379 . S
C205 C207 1.421 1_565 S
C206 C202 1.350 1_545 S
C206 C203 1.463 . S
C206 N210 1.427 . S
C207 H197 0.929 . S
C207 C205 1.421 1_545 S
C207 N210 1.384 . S
C208 H199 0.929 . S
C208 C200 1.378 . S
C208 C203 1.350 . S
C209 H196 0.929 . S
C209 C201 1.433 1_565 S
C209 N211 1.384 . S
N210 C206 1.427 . S
N210 C207 1.384 . S
N211 C203 1.427 1_565 S
N211 C209 1.384 . S
H212 C218 0.930 . S
H213 C222 0.930 . S
H214 C227 0.929 . S
H215 C225 0.929 . S
H216 C220 0.929 . S
H217 C226 0.929 . S
C218 H212 0.930 . S
C218 C219 1.367 . S
C218 C226 1.378 . S
C219 C218 1.367 . S
C219 C227 1.433 1_455 S
C220 H216 0.929 . S
C220 C222 1.378 . S
C220 C224 1.350 1_655 S
C221 C224 1.463 . S
C221 C226 1.350 . S
C221 N229 1.427 1_455 S
C222 H213 0.930 . S
C222 C220 1.378 . S
C222 C223 1.367 1_655 S
C223 C222 1.367 1_455 S
C223 C225 1.433 . S
C224 C220 1.350 1_455 S
C224 C221 1.463 . S
C224 N228 1.427 . S
C225 H215 0.929 . S
C225 C223 1.433 . S
C225 N228 1.384 . S
C226 H217 0.929 . S
C226 C218 1.378 . S
C226 C221 1.350 . S
C227 H214 0.929 . S
C227 C219 1.433 1_655 S
C227 N229 1.384 . S
N228 C224 1.427 . S
N228 C225 1.384 . S
N229 C221 1.427 1_655 S
N229 C227 1.384 . S
H230 C236 0.930 . S
H231 C240 0.930 . S
H232 C245 0.929 . S
H233 C243 0.929 . S
H234 C238 0.929 . S
H235 C244 0.929 . S
C236 H230 0.930 . S
C236 C237 1.367 1_545 S
C236 C244 1.378 . S
C237 C236 1.367 1_565 S
C237 C245 1.433 . S
C238 H234 0.929 . S
C238 C240 1.378 . S
C238 C242 1.350 . S
C239 C242 1.463 . S
C239 C244 1.350 1_565 S
C239 N247 1.427 . S
C240 H231 0.930 . S
C240 C238 1.378 . S
C240 C241 1.367 . S
C241 C240 1.367 . S
C241 C243 1.433 1_565 S
C242 C238 1.350 . S
C242 C239 1.463 . S
C242 N246 1.427 1_565 S
C243 H233 0.929 . S
C243 C241 1.433 1_545 S
C243 N246 1.384 . S
C244 H235 0.929 . S
C244 C236 1.378 . S
C244 C239 1.350 1_545 S
C245 H232 0.929 . S
C245 C237 1.433 . S
C245 N247 1.384 . S
N246 C242 1.427 1_545 S
N246 C243 1.384 . S
N247 C239 1.427 . S
N247 C245 1.384 . S
H248 C254 0.930 . S
H249 C258 0.930 . S
H250 C263 0.929 . S
H251 C261 0.929 . S
H252 C256 0.929 . S
H253 C262 0.929 . S
C254 H248 0.930 . S
C254 C255 1.367 . S
C254 C262 1.378 . S
C255 C254 1.367 . S
C255 C263 1.433 1_554 S
C256 H252 0.929 . S
C256 C258 1.378 . S
C256 C260 1.350 1_556 S
C257 C260 1.463 . S
C257 C262 1.350 . S
C257 N265 1.427 1_554 S
C258 H249 0.930 . S
C258 C256 1.378 . S
C258 C259 1.367 1_556 S
C259 C258 1.367 1_554 S
C259 C261 1.433 . S
C260 C256 1.350 1_554 S
C260 C257 1.463 . S
C260 N264 1.427 . S
C261 H251 0.929 . S
C261 C259 1.433 . S
C261 N264 1.384 . S
C262 H253 0.929 . S
C262 C254 1.378 . S
C262 C257 1.350 . S
C263 H250 0.929 . S
C263 C255 1.433 1_556 S
C263 N265 1.384 . S
N264 C260 1.427 . S
N264 C261 1.384 . S
N265 C257 1.427 1_556 S
N265 C263 1.384 . S
H266 C272 0.930 . S
H267 C276 0.930 . S
H268 C281 0.929 . S
H269 C279 0.929 . S
H270 C274 0.929 . S
H271 C280 0.929 . S
C272 H266 0.930 . S
C272 C273 1.367 1_554 S
C272 C280 1.378 . S
C273 C272 1.367 1_556 S
C273 C281 1.433 . S
C274 H270 0.929 . S
C274 C276 1.378 . S
C274 C278 1.350 1_556 S
C275 C278 1.463 . S
C275 C280 1.351 . S
C275 N283 1.427 1_554 S
C276 H267 0.930 . S
C276 C274 1.378 . S
C276 C277 1.367 1_556 S
C277 C276 1.367 1_554 S
C277 C279 1.433 . S
C278 C274 1.350 1_554 S
C278 C275 1.463 . S
C278 N282 1.427 . S
C279 H269 0.929 . S
C279 C277 1.433 . S
C279 N282 1.384 . S
C280 H271 0.929 . S
C280 C272 1.378 . S
C280 C275 1.351 . S
C281 H268 0.929 . S
C281 C273 1.433 . S
C281 N283 1.384 . S
N282 C278 1.427 . S
N282 C279 1.384 . S
N283 C275 1.427 1_556 S
N283 C281 1.384 . S
H284 C290 0.930 . S
H285 C294 0.930 . S
H286 C299 0.929 . S
H287 C297 0.929 . S
H288 C292 0.929 . S
H289 C298 0.929 . S
C290 H284 0.930 . S
C290 C291 1.367 . S
C290 C298 1.378 . S
C291 C290 1.367 . S
C291 C299 1.433 1_556 S
C292 H288 0.929 . S
C292 C294 1.378 . S
C292 C296 1.350 . S
C293 C296 1.461 1_556 S
C293 C298 1.361 . S
C293 N301 1.416 1_556 S
C294 H285 0.930 . S
C294 C292 1.378 . S
C294 C295 1.367 . S
C295 C294 1.367 . S
C295 C297 1.433 1_554 S
C296 C292 1.350 . S
C296 C293 1.461 1_554 S
C296 N300 1.427 1_554 S
C297 H287 0.929 . S
C297 C295 1.433 1_556 S
C297 N300 1.384 . S
C298 H289 0.929 . S
C298 C290 1.378 . S
C298 C293 1.361 . S
C299 H286 0.929 . S
C299 C291 1.433 1_554 S
C299 N301 1.384 . S
N300 C296 1.427 1_556 S
N300 C297 1.384 . S
N301 C293 1.416 1_554 S
N301 C299 1.384 . S
H302 C308 0.930 . S
H303 C312 0.930 . S
H304 C317 0.929 . S
H305 C315 0.929 . S
H306 C310 0.929 . S
H307 C316 0.929 . S
C308 H302 0.930 . S
C308 C309 1.367 . S
C308 C316 1.378 . S
C309 C308 1.367 . S
C309 C317 1.433 1_554 S
C310 H306 0.929 . S
C310 C312 1.378 . S
C310 C314 1.350 1_556 S
C311 C314 1.463 . S
C311 C316 1.350 . S
C311 N319 1.427 1_554 S
C312 H303 0.930 . S
C312 C310 1.378 . S
C312 C313 1.367 1_556 S
C313 C312 1.367 1_554 S
C313 C315 1.433 . S
C314 C310 1.350 1_554 S
C314 C311 1.463 . S
C314 N318 1.427 . S
C315 H305 0.929 . S
C315 C313 1.433 . S
C315 N318 1.384 . S
C316 H307 0.929 . S
C316 C308 1.378 . S
C316 C311 1.350 . S
C317 H304 0.929 . S
C317 C309 1.433 1_556 S
C317 N319 1.384 . S
N318 C314 1.427 . S
N318 C315 1.384 . S
N319 C311 1.427 1_556 S
N319 C317 1.384 . S
C115 C55 1.902 . S
C111 C7 1.887 . S
C133 C62 1.209 . S
C129 C34 1.197 . S
C151 C57 1.903 . S
C147 C14 1.889 . S
C169 C63 1.212 . S
C165 C32 1.202 . S
C183 C16 1.879 1_655 S
C187 C56 1.902 . S
C205 C65 1.212 1_565 S
C201 C25 1.203 . S
C219 C8 1.882 . S
C223 C54 1.895 . S
C237 C26 1.195 . S
C241 C64 1.205 1_565 S
C255 C50 1.531 . S
C259 C59 1.546 . S
C273 C43 1.527 . S
C277 C58 1.547 . S
C295 C61 1.543 . S
C291 C52 1.517 1_556 S
C313 C60 1.539 . S
C309 C44 1.522 . S
