# Generated by pormake.
# Topology bwt, (3,3)-cn, num edge types: 1
# Building blocks:
#     Node 0, Type 0, BuildingBlock: WUSLED_clean_sbu_0, # of connection points: 3
#     Node 1, Type 0, BuildingBlock: WUSLED_clean_sbu_0, # of connection points: 3
#     Node 2, Type 0, BuildingBlock: WUSLED_clean_sbu_0, # of connection points: 3
#     Node 3, Type 0, BuildingBlock: WUSLED_clean_sbu_0, # of connection points: 3
#     Node 4, Type 0, BuildingBlock: WUSLED_clean_sbu_0, # of connection points: 3
#     Node 5, Type 0, BuildingBlock: WUSLED_clean_sbu_0, # of connection points: 3
#     Node 6, Type 0, BuildingBlock: WUSLED_clean_sbu_0, # of connection points: 3
#     Node 7, Type 0, BuildingBlock: WUSLED_clean_sbu_0, # of connection points: 3
#     Node 8, Type 0, BuildingBlock: WUSLED_clean_sbu_0, # of connection points: 3
#     Node 9, Type 0, BuildingBlock: WUSLED_clean_sbu_0, # of connection points: 3
#     Node 10, Type 0, BuildingBlock: WUSLED_clean_sbu_0, # of connection points: 3
#     Node 11, Type 0, BuildingBlock: WUSLED_clean_sbu_0, # of connection points: 3
#     Node 12, Type 0, BuildingBlock: WUSLED_clean_sbu_0, # of connection points: 3
#     Node 13, Type 0, BuildingBlock: WUSLED_clean_sbu_0, # of connection points: 3
#     Node 14, Type 0, BuildingBlock: WUSLED_clean_sbu_0, # of connection points: 3
#     Node 15, Type 0, BuildingBlock: WUSLED_clean_sbu_0, # of connection points: 3
#     Node 16, Type 0, BuildingBlock: WUSLED_clean_sbu_0, # of connection points: 3
#     Node 17, Type 0, BuildingBlock: WUSLED_clean_sbu_0, # of connection points: 3
#     Node 18, Type 0, BuildingBlock: WUSLED_clean_sbu_0, # of connection points: 3
#     Node 19, Type 0, BuildingBlock: WUSLED_clean_sbu_0, # of connection points: 3
#     Node 20, Type 0, BuildingBlock: WUSLED_clean_sbu_0, # of connection points: 3
#     Node 21, Type 0, BuildingBlock: WUSLED_clean_sbu_0, # of connection points: 3
#     Node 22, Type 0, BuildingBlock: WUSLED_clean_sbu_0, # of connection points: 3
#     Node 23, Type 0, BuildingBlock: WUSLED_clean_sbu_0, # of connection points: 3
#     Node 24, Type 1, BuildingBlock: BETDAH_clean_linker_0, # of connection points: 3
#     Node 25, Type 1, BuildingBlock: BETDAH_clean_linker_0, # of connection points: 3
#     Node 26, Type 1, BuildingBlock: BETDAH_clean_linker_0, # of connection points: 3
#     Node 27, Type 1, BuildingBlock: BETDAH_clean_linker_0, # of connection points: 3
#     Node 28, Type 1, BuildingBlock: BETDAH_clean_linker_0, # of connection points: 3
#     Node 29, Type 1, BuildingBlock: BETDAH_clean_linker_0, # of connection points: 3
#     Node 30, Type 1, BuildingBlock: BETDAH_clean_linker_0, # of connection points: 3
#     Node 31, Type 1, BuildingBlock: BETDAH_clean_linker_0, # of connection points: 3
#     Node 32, Type 1, BuildingBlock: BETDAH_clean_linker_0, # of connection points: 3
#     Node 33, Type 1, BuildingBlock: BETDAH_clean_linker_0, # of connection points: 3
#     Node 34, Type 1, BuildingBlock: BETDAH_clean_linker_0, # of connection points: 3
#     Node 35, Type 1, BuildingBlock: BETDAH_clean_linker_0, # of connection points: 3
#     Node 36, Type 1, BuildingBlock: BETDAH_clean_linker_0, # of connection points: 3
#     Node 37, Type 1, BuildingBlock: BETDAH_clean_linker_0, # of connection points: 3
#     Node 38, Type 1, BuildingBlock: BETDAH_clean_linker_0, # of connection points: 3
#     Node 39, Type 1, BuildingBlock: BETDAH_clean_linker_0, # of connection points: 3
#     Node 40, Type 1, BuildingBlock: BETDAH_clean_linker_0, # of connection points: 3
#     Node 41, Type 1, BuildingBlock: BETDAH_clean_linker_0, # of connection points: 3
#     Node 42, Type 1, BuildingBlock: BETDAH_clean_linker_0, # of connection points: 3
#     Node 43, Type 1, BuildingBlock: BETDAH_clean_linker_0, # of connection points: 3
#     Node 44, Type 1, BuildingBlock: BETDAH_clean_linker_0, # of connection points: 3
#     Node 45, Type 1, BuildingBlock: BETDAH_clean_linker_0, # of connection points: 3
#     Node 46, Type 1, BuildingBlock: BETDAH_clean_linker_0, # of connection points: 3
#     Node 47, Type 1, BuildingBlock: BETDAH_clean_linker_0, # of connection points: 3
#     Edge 48, Type (0, 1), BuildingBlock: EZIPEK_clean_linker_0, # of connection points: 2
#     Edge 49, Type (0, 1), BuildingBlock: EZIPEK_clean_linker_0, # of connection points: 2
#     Edge 50, Type (0, 1), BuildingBlock: EZIPEK_clean_linker_0, # of connection points: 2
#     Edge 51, Type (0, 1), BuildingBlock: EZIPEK_clean_linker_0, # of connection points: 2
#     Edge 52, Type (0, 1), BuildingBlock: EZIPEK_clean_linker_0, # of connection points: 2
#     Edge 53, Type (0, 1), BuildingBlock: EZIPEK_clean_linker_0, # of connection points: 2
#     Edge 54, Type (0, 1), BuildingBlock: EZIPEK_clean_linker_0, # of connection points: 2
#     Edge 55, Type (0, 1), BuildingBlock: EZIPEK_clean_linker_0, # of connection points: 2
#     Edge 56, Type (0, 1), BuildingBlock: EZIPEK_clean_linker_0, # of connection points: 2
#     Edge 57, Type (0, 1), BuildingBlock: EZIPEK_clean_linker_0, # of connection points: 2
#     Edge 58, Type (0, 1), BuildingBlock: EZIPEK_clean_linker_0, # of connection points: 2
#     Edge 59, Type (0, 1), BuildingBlock: EZIPEK_clean_linker_0, # of connection points: 2
#     Edge 60, Type (0, 1), BuildingBlock: EZIPEK_clean_linker_0, # of connection points: 2
#     Edge 61, Type (0, 1), BuildingBlock: EZIPEK_clean_linker_0, # of connection points: 2
#     Edge 62, Type (0, 1), BuildingBlock: EZIPEK_clean_linker_0, # of connection points: 2
#     Edge 63, Type (0, 1), BuildingBlock: EZIPEK_clean_linker_0, # of connection points: 2
#     Edge 64, Type (0, 1), BuildingBlock: EZIPEK_clean_linker_0, # of connection points: 2
#     Edge 65, Type (0, 1), BuildingBlock: EZIPEK_clean_linker_0, # of connection points: 2
#     Edge 66, Type (0, 1), BuildingBlock: EZIPEK_clean_linker_0, # of connection points: 2
#     Edge 67, Type (0, 1), BuildingBlock: EZIPEK_clean_linker_0, # of connection points: 2
#     Edge 68, Type (0, 1), BuildingBlock: EZIPEK_clean_linker_0, # of connection points: 2
#     Edge 69, Type (0, 1), BuildingBlock: EZIPEK_clean_linker_0, # of connection points: 2
#     Edge 70, Type (0, 1), BuildingBlock: EZIPEK_clean_linker_0, # of connection points: 2
#     Edge 71, Type (0, 1), BuildingBlock: EZIPEK_clean_linker_0, # of connection points: 2
#     Edge 72, Type (0, 1), BuildingBlock: EZIPEK_clean_linker_0, # of connection points: 2
#     Edge 73, Type (0, 1), BuildingBlock: EZIPEK_clean_linker_0, # of connection points: 2
#     Edge 74, Type (0, 1), BuildingBlock: EZIPEK_clean_linker_0, # of connection points: 2
#     Edge 75, Type (0, 1), BuildingBlock: EZIPEK_clean_linker_0, # of connection points: 2
#     Edge 76, Type (0, 1), BuildingBlock: EZIPEK_clean_linker_0, # of connection points: 2
#     Edge 77, Type (0, 1), BuildingBlock: EZIPEK_clean_linker_0, # of connection points: 2
#     Edge 78, Type (0, 1), BuildingBlock: EZIPEK_clean_linker_0, # of connection points: 2
#     Edge 79, Type (0, 1), BuildingBlock: EZIPEK_clean_linker_0, # of connection points: 2
#     Edge 80, Type (0, 1), BuildingBlock: EZIPEK_clean_linker_0, # of connection points: 2
#     Edge 81, Type (0, 1), BuildingBlock: EZIPEK_clean_linker_0, # of connection points: 2
#     Edge 82, Type (0, 1), BuildingBlock: EZIPEK_clean_linker_0, # of connection points: 2
#     Edge 83, Type (0, 1), BuildingBlock: EZIPEK_clean_linker_0, # of connection points: 2
#     Edge 84, Type (0, 1), BuildingBlock: EZIPEK_clean_linker_0, # of connection points: 2
#     Edge 85, Type (0, 1), BuildingBlock: EZIPEK_clean_linker_0, # of connection points: 2
#     Edge 86, Type (0, 1), BuildingBlock: EZIPEK_clean_linker_0, # of connection points: 2
#     Edge 87, Type (0, 1), BuildingBlock: EZIPEK_clean_linker_0, # of connection points: 2
#     Edge 88, Type (0, 1), BuildingBlock: EZIPEK_clean_linker_0, # of connection points: 2
#     Edge 89, Type (0, 1), BuildingBlock: EZIPEK_clean_linker_0, # of connection points: 2
#     Edge 90, Type (0, 1), BuildingBlock: EZIPEK_clean_linker_0, # of connection points: 2
#     Edge 91, Type (0, 1), BuildingBlock: EZIPEK_clean_linker_0, # of connection points: 2
#     Edge 92, Type (0, 1), BuildingBlock: EZIPEK_clean_linker_0, # of connection points: 2
#     Edge 93, Type (0, 1), BuildingBlock: EZIPEK_clean_linker_0, # of connection points: 2
#     Edge 94, Type (0, 1), BuildingBlock: EZIPEK_clean_linker_0, # of connection points: 2
#     Edge 95, Type (0, 1), BuildingBlock: EZIPEK_clean_linker_0, # of connection points: 2
#     Edge 96, Type (0, 1), BuildingBlock: EZIPEK_clean_linker_0, # of connection points: 2
#     Edge 97, Type (0, 1), BuildingBlock: EZIPEK_clean_linker_0, # of connection points: 2
#     Edge 98, Type (0, 1), BuildingBlock: EZIPEK_clean_linker_0, # of connection points: 2
#     Edge 99, Type (0, 1), BuildingBlock: EZIPEK_clean_linker_0, # of connection points: 2
#     Edge 100, Type (0, 1), BuildingBlock: EZIPEK_clean_linker_0, # of connection points: 2
#     Edge 101, Type (0, 1), BuildingBlock: EZIPEK_clean_linker_0, # of connection points: 2
#     Edge 102, Type (0, 1), BuildingBlock: EZIPEK_clean_linker_0, # of connection points: 2
#     Edge 103, Type (0, 1), BuildingBlock: EZIPEK_clean_linker_0, # of connection points: 2
#     Edge 104, Type (0, 1), BuildingBlock: EZIPEK_clean_linker_0, # of connection points: 2
#     Edge 105, Type (0, 1), BuildingBlock: EZIPEK_clean_linker_0, # of connection points: 2
#     Edge 106, Type (0, 1), BuildingBlock: EZIPEK_clean_linker_0, # of connection points: 2
#     Edge 107, Type (0, 1), BuildingBlock: EZIPEK_clean_linker_0, # of connection points: 2
#     Edge 108, Type (0, 1), BuildingBlock: EZIPEK_clean_linker_0, # of connection points: 2
#     Edge 109, Type (0, 1), BuildingBlock: EZIPEK_clean_linker_0, # of connection points: 2
#     Edge 110, Type (0, 1), BuildingBlock: EZIPEK_clean_linker_0, # of connection points: 2
#     Edge 111, Type (0, 1), BuildingBlock: EZIPEK_clean_linker_0, # of connection points: 2
#     Edge 112, Type (0, 1), BuildingBlock: EZIPEK_clean_linker_0, # of connection points: 2
#     Edge 113, Type (0, 1), BuildingBlock: EZIPEK_clean_linker_0, # of connection points: 2
#     Edge 114, Type (0, 1), BuildingBlock: EZIPEK_clean_linker_0, # of connection points: 2
#     Edge 115, Type (0, 1), BuildingBlock: EZIPEK_clean_linker_0, # of connection points: 2
#     Edge 116, Type (0, 1), BuildingBlock: EZIPEK_clean_linker_0, # of connection points: 2
#     Edge 117, Type (0, 1), BuildingBlock: EZIPEK_clean_linker_0, # of connection points: 2
#     Edge 118, Type (0, 1), BuildingBlock: EZIPEK_clean_linker_0, # of connection points: 2
#     Edge 119, Type (0, 1), BuildingBlock: EZIPEK_clean_linker_0, # of connection points: 2
# Relax obj value: 0.116
# Max RMSD: 0.176
# Mean RMSD: 0.087
data_MOF--net-bwt--node1-WUSLED_clean_sbu_0--node2-BETDAH_clean_linker_0--edge1-EZIPEK_clean_linker_0
_symmetry_space_group_name_H-M    P1
_symmetry_Int_Tables_number       1
_symmetry_cell_setting            triclinic
loop_
_symmetry_equiv_pos_as_xyz
'x, y, z'
_cell_length_a     54.123777
_cell_length_b     54.24267
_cell_length_c     54.189425
_cell_angle_alpha  95.038266
_cell_angle_beta   95.038086
_cell_angle_gamma 95.046358
loop_
_atom_site_label
_atom_site_type_symbol
_atom_site_fract_x
_atom_site_fract_y
_atom_site_fract_z
_atom_type_partial_charge
C0 C 0.32753 0.64927 0.36065 0.0
C1 C 0.34747 0.64774 0.37886 0.0
C2 C 0.37717 0.64606 0.34694 0.0
C3 C 0.372 0.64621 0.37207 0.0
C4 C 0.35713 0.64765 0.32894 0.0
C5 C 0.33279 0.64925 0.3357 0.0
U6 U 0.2697 0.64204 0.40024 0.0
O7 O 0.23871 0.66614 0.40281 0.0
O8 O 0.23087 0.62727 0.38708 0.0
C9 C 0.2216 0.6483 0.39322 0.0
C10 C 0.30113 0.6511 0.36649 0.0
C11 C 0.1984 0.65436 0.37857 0.0
C12 C 0.17422 0.68023 0.35241 0.0
C13 C 0.19726 0.67481 0.36426 0.0
C14 C 0.1532 0.64521 0.36917 0.0
C15 C 0.1519 0.66542 0.35476 0.0
C16 C 0.17603 0.63977 0.3808 0.0
C17 C 0.28661 0.61307 0.46516 0.0
C18 C 0.26486 0.59761 0.49928 0.0
C19 C 0.30892 0.59359 0.49823 0.0
C20 C 0.30868 0.60531 0.47622 0.0
C21 C 0.28706 0.58939 0.50999 0.0
C22 C 0.26459 0.60927 0.47692 0.0
C23 C 0.28787 0.62376 0.44088 0.0
O24 O 0.2869 0.63014 0.36617 0.0
O25 O 0.29689 0.66771 0.38444 0.0
O26 O 0.28621 0.64766 0.43952 0.0
O27 O 0.27874 0.60991 0.42048 0.0
H28 H 0.3441 0.64773 0.39827 0.0
H29 H 0.38693 0.64498 0.3864 0.0
H30 H 0.36036 0.64774 0.3095 0.0
H31 H 0.31792 0.65053 0.32125 0.0
H32 H 0.17379 0.696 0.34148 0.0
H33 H 0.21403 0.68665 0.36235 0.0
H34 H 0.13641 0.63355 0.37147 0.0
H35 H 0.17613 0.62417 0.39198 0.0
H36 H 0.24775 0.59475 0.50806 0.0
H37 H 0.32626 0.58762 0.50606 0.0
H38 H 0.32588 0.60799 0.46754 0.0
H39 H 0.24728 0.61504 0.46878 0.0
C40 C 0.19918 0.29621 0.79324 0.0
C41 C 0.18193 0.29119 0.81064 0.0
C42 C 0.1472 0.29213 0.77876 0.0
C43 C 0.1561 0.28904 0.80339 0.0
C44 C 0.16449 0.297 0.76154 0.0
C45 C 0.19009 0.29893 0.76867 0.0
U46 U 0.26051 0.32321 0.83274 0.0
O47 O 0.2965 0.30701 0.8395 0.0
O48 O 0.29446 0.34072 0.81995 0.0
C49 C 0.3086 0.32415 0.82819 0.0
C50 C 0.22665 0.29869 0.79957 0.0
C51 C 0.32829 0.317 0.81247 0.0
C52 C 0.34524 0.31608 0.77222 0.0
C53 C 0.32465 0.31518 0.78632 0.0
C54 C 0.37303 0.3182 0.81004 0.0
C55 C 0.3696 0.31892 0.78415 0.0
C56 C 0.35255 0.31724 0.82406 0.0
C57 C 0.25557 0.3708 0.88942 0.0
C58 C 0.28979 0.39514 0.9153 0.0
C59 C 0.24806 0.40827 0.91439 0.0
C60 C 0.23924 0.38758 0.89791 0.0
C61 C 0.27341 0.41251 0.92281 0.0
C62 C 0.28093 0.37441 0.89846 0.0
C63 C 0.24563 0.35147 0.86938 0.0
O64 O 0.23817 0.3204 0.79654 0.0
O65 O 0.23563 0.28918 0.81965 0.0
O66 O 0.25098 0.32852 0.87157 0.0
O67 O 0.24694 0.35815 0.84681 0.0
H68 H 0.18834 0.28908 0.82977 0.0
H69 H 0.14309 0.28546 0.81704 0.0
H70 H 0.1581 0.29959 0.74251 0.0
H71 H 0.2029 0.30274 0.75489 0.0
H72 H 0.34221 0.31682 0.75228 0.0
H73 H 0.30611 0.31506 0.77696 0.0
H74 H 0.39165 0.32067 0.81962 0.0
H75 H 0.35583 0.3189 0.84418 0.0
H76 H 0.30943 0.39811 0.92179 0.0
H77 H 0.23518 0.42139 0.92007 0.0
H78 H 0.21967 0.38514 0.89106 0.0
H79 H 0.29387 0.36171 0.892 0.0
C80 C 0.73875 0.99695 0.63923 0.0
C81 C 0.75668 0.9928 0.62243 0.0
C82 C 0.78898 0.99468 0.65696 0.0
C83 C 0.78166 0.99166 0.63127 0.0
C84 C 0.77111 0.99916 0.67365 0.0
C85 C 0.74619 1.00032 0.66483 0.0
U86 U 0.68732 1.00049 0.58725 0.0
O87 O 0.65121 0.97868 0.57762 0.0
O88 O 0.65268 0.01914 0.58674 0.0
C89 C 0.63852 0.99804 0.58136 0.0
C90 C 0.71221 0.99725 0.63046 0.0
C91 C 0.6164 0.99448 0.59511 0.0
C92 C 0.58891 0.96853 0.6174 0.0
C93 C 0.61166 0.97312 0.60754 0.0
C94 C 0.57588 0.0072 0.60383 0.0
C95 C 0.57085 0.98549 0.61555 0.0
C96 C 0.5984 0.01154 0.5935 0.0
C97 C 0.7058 0.00598 0.52131 0.0
C98 C 0.68213 0.98969 0.48223 0.0
C99 C 0.72103 0.01565 0.48231 0.0
C100 C 0.7234 0.0184 0.5082 0.0
C101 C 0.70099 1.00045 0.46928 0.0
C102 C 0.68452 0.99245 0.50827 0.0
C103 C 0.71172 0.00507 0.54812 0.0
O104 O 0.70569 0.01841 0.62305 0.0
O105 O 0.70234 0.97776 0.61558 0.0
O106 O 0.70578 0.98357 0.55657 0.0
O107 O 0.7067 0.02432 0.56265 0.0
H108 H 0.75131 0.99019 0.60257 0.0
H109 H 0.79521 0.98811 0.61813 0.0
H110 H 0.77644 1.00151 0.69352 0.0
H111 H 0.73264 0.00357 0.67804 0.0
H112 H 0.58538 0.95176 0.62654 0.0
H113 H 0.6252 0.95965 0.60909 0.0
H114 H 0.5622 0.02056 0.60235 0.0
H115 H 0.60157 0.02798 0.58376 0.0
H116 H 0.66662 0.97781 0.4723 0.0
H117 H 0.7357 0.02398 0.47246 0.0
H118 H 0.73981 0.02899 0.518 0.0
H119 H 0.67061 0.98287 0.51815 0.0
C120 C 0.76565 0.02046 0.30164 0.0
C121 C 0.74108 0.01296 0.27318 0.0
C122 C 0.69567 0.02922 0.308 0.0
C123 C 0.70643 0.01742 0.27631 0.0
C124 C 0.72 0.03716 0.33695 0.0
C125 C 0.7555 0.03271 0.33376 0.0
U126 U 0.80887 0.00789 0.25388 0.0
O127 O 0.84395 0.02704 0.24497 0.0
O128 O 0.84235 0.98769 0.25251 0.0
C129 C 0.85608 0.00722 0.24681 0.0
C130 C 0.79174 0.01928 0.29689 0.0
C131 C 0.88191 0.0112 0.25805 0.0
C132 C 0.91439 0.03061 0.2893 0.0
C133 C 0.88906 0.0258 0.28069 0.0
C134 C 0.9252 0.00597 0.25294 0.0
C135 C 0.93253 0.02087 0.27525 0.0
C136 C 0.90009 1.00116 0.24444 0.0
C137 C 0.77423 0.98807 0.18856 0.0
C138 C 0.79251 0.97713 0.15008 0.0
C139 C 0.74761 0.97512 0.15057 0.0
C140 C 0.75045 0.98307 0.17585 0.0
C141 C 0.76851 0.97216 0.13744 0.0
C142 C 0.79537 0.98495 0.17567 0.0
C143 C 0.77588 0.99608 0.21527 0.0
O144 O 0.79743 0.99689 0.2897 0.0
O145 O 0.79981 0.03604 0.28263 0.0
O146 O 0.78532 0.01903 0.22231 0.0
O147 O 0.78339 0.97991 0.23025 0.0
H148 H 0.74677 0.00663 0.25529 0.0
H149 H 0.69288 0.01294 0.26029 0.0
H150 H 0.71396 0.04333 0.3548 0.0
H151 H 0.76927 0.03752 0.34954 0.0
H152 H 0.91988 0.04209 0.30663 0.0
H153 H 0.87519 0.03374 0.29138 0.0
H154 H 0.939 0.9983 0.24195 0.0
H155 H 0.89486 0.98997 0.22688 0.0
H156 H 0.80885 0.97534 0.1401 0.0
H157 H 0.72899 0.97177 0.14104 0.0
H158 H 0.73399 0.98544 0.1855 0.0
H159 H 0.8139 0.98875 0.1853 0.0
C160 C 0.36162 0.32613 0.64969 0.0
C161 C 0.37974 0.34667 0.65527 0.0
C162 C 0.3483 0.37573 0.64673 0.0
C163 C 0.37311 0.37122 0.65385 0.0
C164 C 0.33039 0.35514 0.6413 0.0
C165 C 0.33695 0.3308 0.64277 0.0
U166 U 0.40037 0.26781 0.64306 0.0
O167 O 0.40096 0.23603 0.66631 0.0
O168 O 0.38691 0.2296 0.62687 0.0
C169 C 0.39156 0.21959 0.6478 0.0
C170 C 0.367 0.29967 0.65157 0.0
C171 C 0.37503 0.19712 0.65266 0.0
C172 C 0.34465 0.17448 0.67572 0.0
C173 C 0.35856 0.19686 0.67146 0.0
C174 C 0.36348 0.15236 0.64275 0.0
C175 C 0.3469 0.1519 0.66131 0.0
C176 C 0.37722 0.17453 0.63851 0.0
C177 C 0.46667 0.28094 0.6166 0.0
C178 C 0.49069 0.26101 0.58565 0.0
C179 C 0.50867 0.29851 0.61055 0.0
C180 C 0.48698 0.29909 0.62295 0.0
C181 C 0.51058 0.2798 0.59133 0.0
C182 C 0.46897 0.26155 0.59814 0.0
C183 C 0.44241 0.28524 0.62655 0.0
O184 O 0.36694 0.28565 0.63053 0.0
O185 O 0.38434 0.29492 0.66861 0.0
O186 O 0.44 0.28351 0.65031 0.0
O187 O 0.42192 0.2775 0.61214 0.0
H188 H 0.39891 0.34381 0.66086 0.0
H189 H 0.38727 0.38669 0.65844 0.0
H190 H 0.31113 0.35793 0.63606 0.0
H191 H 0.32253 0.31546 0.63863 0.0
H192 H 0.33228 0.17472 0.69038 0.0
H193 H 0.3566 0.21381 0.68295 0.0
H194 H 0.36597 0.13536 0.63157 0.0
H195 H 0.38999 0.17393 0.6242 0.0
H196 H 0.49173 0.24623 0.57109 0.0
H197 H 0.52372 0.31313 0.61545 0.0
H198 H 0.48567 0.31442 0.63686 0.0
H199 H 0.45365 0.24734 0.59271 0.0
C200 C 0.29588 0.74969 0.99804 0.0
C201 C 0.27554 0.72013 0.98689 0.0
C202 C 0.31188 0.68719 0.02028 0.0
C203 C 0.28363 0.6891 0.99761 0.0
C204 C 0.33273 0.71696 0.03343 0.0
C205 C 0.32474 0.74914 0.02158 0.0
U206 U 0.26012 0.81243 0.99795 0.0
O207 O 0.27702 0.83879 0.02933 0.0
O208 O 0.28493 0.84476 0.9911 0.0
C209 C 0.28812 0.85337 0.01471 0.0
C210 C 0.2814 0.77121 0.99632 0.0
C211 C 0.2863 0.88002 0.01991 0.0
C212 C 0.30696 0.92035 0.03611 0.0
C213 C 0.30669 0.89456 0.0331 0.0
C214 C 0.26586 0.91731 0.01353 0.0
C215 C 0.28682 0.93187 0.02584 0.0
C216 C 0.26557 0.89139 0.01058 0.0
C217 C 0.18725 0.8002 0.97932 0.0
C218 C 0.14734 0.79848 0.95429 0.0
C219 C 0.15252 0.77069 0.98657 0.0
C220 C 0.17732 0.78091 0.99241 0.0
C221 C 0.13728 0.77956 0.96756 0.0
C222 C 0.17199 0.80874 0.96019 0.0
C223 C 0.21192 0.81419 0.98717 0.0
O224 O 0.28042 0.7845 0.97717 0.0
O225 O 0.26888 0.77867 0.01475 0.0
O226 O 0.22815 0.81611 0.97055 0.0
O227 O 0.22222 0.81192 0.00963 0.0
H228 H 0.2583 0.72097 0.9754 0.0
H229 H 0.27156 0.67241 0.99115 0.0
H230 H 0.3482 0.71621 0.04733 0.0
H231 H 0.33548 0.76622 0.02944 0.0
H232 H 0.32327 0.93141 0.04553 0.0
H233 H 0.3228 0.88598 0.04035 0.0
H234 H 0.25022 0.92604 0.00547 0.0
H235 H 0.24966 0.88034 1.00038 0.0
H236 H 0.1359 0.80564 0.93964 0.0
H237 H 0.14509 0.75611 0.99706 0.0
H238 H 0.18847 0.77414 0.0075 0.0
H239 H 0.17897 0.82393 0.9502 0.0
C240 C 0.79641 0.19754 0.29772 0.0
C241 C 0.81464 0.18056 0.29902 0.0
C242 C 0.78217 0.14557 0.29317 0.0
C243 C 0.80757 0.15472 0.29652 0.0
C244 C 0.76421 0.16263 0.29124 0.0
C245 C 0.77124 0.18823 0.2934 0.0
U246 U 0.83479 0.25812 0.32845 0.0
O247 O 0.84162 0.29499 0.31424 0.0
O248 O 0.82116 0.29108 0.34718 0.0
C249 C 0.83023 0.30622 0.33187 0.0
C250 C 0.80241 0.22496 0.30176 0.0
C251 C 0.8154 0.32691 0.32604 0.0
C252 C 0.77703 0.3433 0.31072 0.0
C253 C 0.79213 0.32348 0.31184 0.0
C254 C 0.80867 0.37003 0.33724 0.0
C255 C 0.78476 0.36642 0.32444 0.0
C256 C 0.82382 0.35053 0.33794 0.0
C257 C 0.89091 0.25338 0.37622 0.0
C258 C 0.90633 0.2848 0.4102 0.0
C259 C 0.92454 0.24554 0.40635 0.0
C260 C 0.90866 0.23801 0.38477 0.0
C261 C 0.92308 0.26872 0.41958 0.0
C262 C 0.89022 0.27713 0.38868 0.0
C263 C 0.87137 0.24287 0.35656 0.0
O264 O 0.79882 0.23518 0.32388 0.0
O265 O 0.82274 0.23471 0.29324 0.0
O266 O 0.87377 0.24886 0.33384 0.0
O267 O 0.84852 0.24327 0.36282 0.0
H268 H 0.83421 0.18723 0.30245 0.0
H269 H 0.82179 0.14195 0.29816 0.0
H270 H 0.74457 0.15612 0.28868 0.0
H271 H 0.75685 0.20088 0.29229 0.0
H272 H 0.75875 0.34019 0.30048 0.0
H273 H 0.78527 0.30537 0.30254 0.0
H274 H 0.81517 0.38767 0.34776 0.0
H275 H 0.84171 0.35358 0.34897 0.0
H276 H 0.90506 0.30282 0.42009 0.0
H277 H 0.93744 0.23296 0.4132 0.0
H278 H 0.90943 0.21965 0.37541 0.0
H279 H 0.87657 0.28924 0.3824 0.0
C280 C 0.63959 0.73616 0.99786 0.0
C281 C 0.6229 0.75315 0.99028 0.0
C282 C 0.65644 0.78682 0.99638 0.0
C283 C 0.63129 0.77828 0.98949 0.0
C284 C 0.67301 0.76987 0.00414 0.0
C285 C 0.66464 0.74477 0.00488 0.0
U286 U 0.58721 0.68506 0.99959 0.0
O287 O 0.57936 0.64741 0.98032 0.0
O288 O 0.58367 0.65256 0.02126 0.0
C289 C 0.57904 0.63679 1.0012 0.0
C290 C 0.63114 0.70956 0.99872 0.0
C291 C 0.58905 0.6125 1.00176 0.0
C292 C 0.62065 0.58433 0.99431 0.0
C293 C 0.61296 0.6084 0.99518 0.0
C294 C 0.58068 0.5685 0.00653 0.0
C295 C 0.60445 0.56423 0.99984 0.0
C296 C 0.57315 0.59248 0.00767 0.0
C297 C 0.52126 0.70656 0.99915 0.0
C298 C 0.48142 0.6825 0.98653 0.0
C299 C 0.48286 0.72442 0.00669 0.0
C300 C 0.50878 0.72624 0.00875 0.0
C301 C 0.46908 0.70285 0.99505 0.0
C302 C 0.50752 0.68435 0.98855 0.0
C303 C 0.54839 0.71068 0.999 0.0
O304 O 0.62202 0.70387 0.01942 0.0
O305 O 0.61787 0.69855 0.97863 0.0
O306 O 0.55764 0.70202 0.97871 0.0
O307 O 0.56166 0.70709 0.01962 0.0
H308 H 0.60344 0.74696 0.98492 0.0
H309 H 0.61822 0.79105 0.98342 0.0
H310 H 0.69246 0.77608 0.00951 0.0
H311 H 0.67777 0.73203 0.01088 0.0
H312 H 0.63906 0.58129 0.98898 0.0
H313 H 0.62541 0.62362 0.9904 0.0
H314 H 0.56792 0.55323 0.0107 0.0
H315 H 0.55459 0.59531 0.01267 0.0
H316 H 0.4709 0.66569 0.97755 0.0
H317 H 0.47351 0.74019 0.01342 0.0
H318 H 0.51911 0.74341 0.01708 0.0
H319 H 0.5169 0.66887 0.98119 0.0
C320 C 0.65427 0.36034 0.32788 0.0
C321 C 0.64446 0.37609 0.34588 0.0
C322 C 0.65077 0.34652 0.37722 0.0
C323 C 0.6428 0.36926 0.37033 0.0
C324 C 0.66119 0.33127 0.35936 0.0
C325 C 0.66295 0.33812 0.33511 0.0
U326 U 0.64447 0.39881 0.26975 0.0
O327 O 0.66728 0.40092 0.23772 0.0
O328 O 0.62843 0.38481 0.23158 0.0
C329 C 0.64898 0.39085 0.22136 0.0
C330 C 0.65474 0.36553 0.30124 0.0
C331 C 0.65469 0.37497 0.19888 0.0
C332 C 0.66899 0.33772 0.17769 0.0
C333 C 0.66499 0.35206 0.19987 0.0
C334 C 0.65281 0.36896 0.15332 0.0
C335 C 0.66266 0.3459 0.1541 0.0
C336 C 0.64895 0.38324 0.17533 0.0
C337 C 0.61778 0.46474 0.28467 0.0
C338 C 0.58959 0.49074 0.26357 0.0
C339 C 0.60996 0.50526 0.3044 0.0
C340 C 0.62201 0.48341 0.30469 0.0
C341 C 0.59324 0.50906 0.28406 0.0
C342 C 0.60172 0.46879 0.26386 0.0
C343 C 0.62772 0.44034 0.28797 0.0
O344 O 0.63311 0.36547 0.28816 0.0
O345 O 0.67128 0.38302 0.29589 0.0
O346 O 0.65149 0.43813 0.28601 0.0
O347 O 0.61331 0.41999 0.27976 0.0
H348 H 0.63771 0.39338 0.34094 0.0
H349 H 0.63472 0.3814 0.3837 0.0
H350 H 0.66748 0.3137 0.36405 0.0
H351 H 0.67065 0.32566 0.32171 0.0
H352 H 0.67668 0.32005 0.1789 0.0
H353 H 0.66968 0.34517 0.21767 0.0
H354 H 0.64783 0.37585 0.13556 0.0
H355 H 0.6411 0.40082 0.17391 0.0
H356 H 0.57695 0.49323 0.24754 0.0
H357 H 0.61321 0.519 0.32039 0.0
H358 H 0.63406 0.4807 0.32109 0.0
H359 H 0.59798 0.45472 0.24819 0.0
C360 C 0.0201 0.30119 0.76051 0.0
C361 C 0.01395 0.27427 0.73398 0.0
C362 C 0.03471 0.31261 0.6929 0.0
C363 C 0.02121 0.27996 0.70032 0.0
C364 C 0.04119 0.33969 0.7194 0.0
C365 C 0.03362 0.33403 0.75342 0.0
U366 U 0.01145 0.25243 0.80525 0.0
O367 O 0.03436 0.24527 0.83903 0.0
O368 O 0.99501 0.25218 0.84099 0.0
C369 C 0.0159 0.24725 0.85307 0.0
C370 C 0.01957 0.2951 0.78632 0.0
C371 C 0.0221 0.25809 0.87901 0.0
C372 C 0.01613 0.28731 0.91423 0.0
C373 C 0.01353 0.28044 0.88845 0.0
C374 C 0.03702 0.2504 0.92095 0.0
C375 C 0.02721 0.27186 0.93063 0.0
C376 C 0.03444 0.24358 0.8954 0.0
C377 C 0.99324 0.18516 0.77569 0.0
C378 C 0.9721 0.15033 0.79347 0.0
C379 C 0.98938 0.14381 0.75389 0.0
C380 C 0.99795 0.16895 0.75545 0.0
C381 C 0.97585 0.13441 0.77252 0.0
C382 C 0.98089 0.1756 0.79512 0.0
C383 C 0.99942 0.21204 0.77471 0.0
O384 O 0.99771 0.28679 0.79266 0.0
O385 O 0.03743 0.28171 0.79363 0.0
O386 O 0.02261 0.22082 0.78169 0.0
O387 O 0.98303 0.22661 0.78265 0.0
H388 H 0.00737 0.25582 0.73811 0.0
H389 H 0.01792 0.26482 0.68569 0.0
H390 H 0.04913 0.35782 0.71558 0.0
H391 H 0.03804 0.34877 0.76835 0.0
H392 H 0.00827 0.30385 0.92145 0.0
H393 H 1.00388 0.29189 0.87613 0.0
H394 H 0.04533 0.23811 0.93332 0.0
H395 H 0.04092 0.22615 0.88853 0.0
H396 H 0.96167 0.14339 0.808 0.0
H397 H 0.99242 0.13182 0.73758 0.0
H398 H 0.00744 0.17595 0.74032 0.0
H399 H 0.97721 0.18781 0.81102 0.0
C400 C 0.29773 0.79572 0.20274 0.0
C401 C 0.31541 0.80527 0.18763 0.0
C402 C 0.29546 0.77802 0.15182 0.0
C403 C 0.31427 0.79647 0.16234 0.0
C404 C 0.27726 0.76932 0.16672 0.0
C405 C 0.27841 0.77809 0.19194 0.0
U406 U 0.32654 0.8347 0.26303 0.0
O407 O 0.31099 0.84265 0.29914 0.0
O408 O 0.34401 0.82196 0.29697 0.0
C409 C 0.32771 0.83075 0.31115 0.0
C410 C 0.30047 0.80176 0.23008 0.0
C411 C 0.3198 0.81495 0.33045 0.0
C412 C 0.31786 0.77436 0.34659 0.0
C413 C 0.31728 0.78883 0.32633 0.0
C414 C 0.3207 0.81178 0.37497 0.0
C415 C 0.32102 0.78589 0.37107 0.0
C416 C 0.32011 0.82618 0.35481 0.0
C417 C 0.37637 0.8891 0.25655 0.0
C418 C 0.39769 0.92084 0.28764 0.0
C419 C 0.4177 0.9078 0.25101 0.0
C420 C 0.39682 0.89145 0.24247 0.0
C421 C 0.41848 0.92236 0.27375 0.0
C422 C 0.37675 0.90406 0.27919 0.0
C423 C 0.35592 0.86989 0.24721 0.0
O424 O 0.32223 0.79828 0.24127 0.0
O425 O 0.29177 0.82234 0.23886 0.0
O426 O 0.33323 0.8732 0.25295 0.0
O427 O 0.36156 0.84697 0.24844 0.0
H428 H 0.33053 0.81885 0.19557 0.0
H429 H 0.32849 0.80346 0.15116 0.0
H430 H 0.2626 0.75516 0.159 0.0
H431 H 0.26465 0.77042 0.20326 0.0
H432 H 0.31829 0.75443 0.3432 0.0
H433 H 0.31705 0.77975 0.30768 0.0
H434 H 0.32343 0.82103 0.3937 0.0
H435 H 0.32223 0.84626 0.35844 0.0
H436 H 0.39797 0.93213 0.30519 0.0
H437 H 0.43345 0.9089 0.23999 0.0
H438 H 0.39686 0.88014 0.22496 0.0
H439 H 0.36119 0.90252 0.29042 0.0
C440 C 0.99766 0.64238 0.73325 0.0
C441 C 1.00389 0.62679 0.7518 0.0
C442 C 0.99609 0.65868 0.78388 0.0
C443 C 1.00327 0.63496 0.77699 0.0
C444 C 0.98979 0.67413 0.76527 0.0
C445 C 0.9906 0.66604 0.74016 0.0
U446 U 0.99817 0.58952 0.68333 0.0
O447 O 0.97488 0.57921 0.64802 0.0
O448 O 0.01562 0.58576 0.64817 0.0
C449 C 0.99403 0.58046 0.63473 0.0
C450 C 0.9974 0.63378 0.70666 0.0
C451 C 0.99033 0.59199 0.61131 0.0
C452 C 0.9995 0.62431 0.58423 0.0
C453 C 1.00265 0.61506 0.60753 0.0
C454 C 0.97137 0.58787 0.56869 0.0
C455 C 0.98396 0.6106 0.56469 0.0
C456 C 0.97462 0.57861 0.59179 0.0
C457 C 0.99908 0.52483 0.7066 0.0
C458 C 0.00849 0.48608 0.685 0.0
C459 C 0.9848 0.48565 0.721 0.0
C460 C 0.98649 0.51143 0.72333 0.0
C461 C 0.99598 0.47279 0.70207 0.0
C462 C 0.0098 0.5121 0.68709 0.0
C463 C 1.00038 0.55198 0.7103 0.0
O464 O 0.01799 0.62511 0.69987 0.0
O465 O 0.97712 0.61988 0.69714 0.0
O466 O 0.97952 0.56142 0.70385 0.0
O467 O 0.02035 0.56454 0.70389 0.0
H468 H 0.00911 0.6083 0.74679 0.0
H469 H 0.00819 0.62279 0.79108 0.0
H470 H 0.98422 0.69247 0.77023 0.0
H471 H 0.98555 0.67821 0.72611 0.0
H472 H 0.00934 0.64194 0.58132 0.0
H473 H 0.01486 0.62569 0.62236 0.0
H474 H 0.95941 0.57711 0.55374 0.0
H475 H 0.96509 0.56072 0.59435 0.0
H476 H 0.01726 0.47636 0.67031 0.0
H477 H 0.9751 0.47567 0.73432 0.0
H478 H 0.97803 0.52097 0.73837 0.0
H479 H 0.01934 0.52222 0.67377 0.0
C480 C 0.67937 0.36158 0.64663 0.0
C481 C 0.66144 0.37246 0.6318 0.0
C482 C 0.63029 0.36424 0.66109 0.0
C483 C 0.63709 0.37377 0.63899 0.0
C484 C 0.64821 0.35319 0.67563 0.0
C485 C 0.67239 0.35188 0.66848 0.0
U486 U 0.7368 0.37138 0.60729 0.0
O487 O 0.77629 0.38088 0.6217 0.0
O488 O 0.76503 0.34517 0.59962 0.0
C489 C 0.78339 0.35975 0.61229 0.0
C490 C 0.70545 0.35984 0.64024 0.0
C491 C 0.80353 0.34808 0.62659 0.0
C492 C 0.83135 0.3452 0.66431 0.0
C493 C 0.80935 0.35292 0.65255 0.0
C494 C 0.8413 0.3265 0.62475 0.0
C495 C 0.84802 0.33255 0.65038 0.0
C496 C 0.81952 0.33426 0.61306 0.0
C497 C 0.72405 0.40646 0.54594 0.0
C498 C 0.74129 0.40895 0.5059 0.0
C499 C 0.7099 0.43581 0.51732 0.0
C500 C 0.70902 0.42534 0.53997 0.0
C501 C 0.72585 0.42763 0.49993 0.0
C502 C 0.74039 0.39839 0.52874 0.0
C503 C 0.72016 0.39464 0.56924 0.0
O504 O 0.70876 0.34497 0.62058 0.0
O505 O 0.72028 0.38059 0.64243 0.0
O506 O 0.73024 0.40629 0.59053 0.0
O507 O 0.71944 0.3703 0.56872 0.0
H508 H 0.66626 0.37997 0.61479 0.0
H509 H 0.62359 0.3823 0.6274 0.0
H510 H 0.64348 0.34564 0.69265 0.0
H511 H 0.68577 0.34327 0.68015 0.0
H512 H 0.83595 0.35015 0.68409 0.0
H513 H 0.7975 0.36355 0.66357 0.0
H514 H 0.85371 0.31692 0.61345 0.0
H515 H 0.81579 0.33045 0.59305 0.0
H516 H 0.75371 0.4023 0.49272 0.0
H517 H 0.69772 0.45001 0.51311 0.0
H518 H 0.69603 0.43166 0.55271 0.0
H519 H 0.75205 0.38373 0.53275 0.0
C520 C 0.81254 0.68246 0.21765 0.0
C521 C 0.82658 0.66881 0.20163 0.0
C522 C 0.86373 0.6782 0.23133 0.0
C523 C 0.85203 0.6668 0.20837 0.0
C524 C 0.84972 0.69235 0.24687 0.0
C525 C 0.82447 0.69448 0.24008 0.0
U526 U 0.74901 0.66408 0.17868 0.0
O527 O 0.71354 0.64951 0.19097 0.0
O528 O 0.71559 0.68494 0.17417 0.0
C529 C 0.70171 0.66851 0.18471 0.0
C530 C 0.78519 0.68294 0.21263 0.0
C531 C 0.68341 0.67729 0.20162 0.0
C532 C 0.66308 0.6732 0.23974 0.0
C533 C 0.68415 0.67152 0.22649 0.0
C534 C 0.64114 0.68895 0.20451 0.0
C535 C 0.64098 0.6807 0.22838 0.0
C536 C 0.66211 0.68712 0.19122 0.0
C537 C 0.75105 0.62058 0.11716 0.0
C538 C 0.7222 0.5861 0.09736 0.0
C539 C 0.76074 0.59698 0.07953 0.0
C540 C 0.76672 0.61661 0.09819 0.0
C541 C 0.73883 0.5811 0.0794 0.0
C542 C 0.7283 0.60568 0.11621 0.0
C543 C 0.76105 0.63723 0.13948 0.0
O544 O 0.77712 0.69497 0.19393 0.0
O545 O 0.77184 0.66174 0.21384 0.0
O546 O 0.75798 0.62854 0.16098 0.0
O547 O 0.75838 0.66111 0.13958 0.0
H548 H 0.81778 0.65931 0.18424 0.0
H549 H 0.86245 0.65594 0.19596 0.0
H550 H 0.85827 0.70145 0.26453 0.0
H551 H 0.81403 0.70506 0.25273 0.0
H552 H 0.66342 0.66679 0.25814 0.0
H553 H 0.70029 0.66396 0.23507 0.0
H554 H 0.6243 0.69472 0.19533 0.0
H555 H 0.66094 0.69155 0.17207 0.0
H556 H 0.70515 0.57408 0.09749 0.0
H557 H 0.77376 0.59347 0.06584 0.0
H558 H 0.78438 0.6278 0.09866 0.0
H559 H 0.71595 0.60834 0.1307 0.0
C560 C 0.27261 0.9954 0.35691 0.0
C561 C 0.25376 0.98254 0.36847 0.0
C562 C 0.22216 1.00136 0.34374 0.0
C563 C 0.22865 0.98531 0.36171 0.0
C564 C 0.24099 0.01406 0.3322 0.0
C565 C 0.26599 0.01103 0.33868 0.0
U566 U 0.32312 0.99275 0.40877 0.0
O567 O 0.35901 0.97633 0.41154 0.0
O568 O 0.35767 0.01669 0.41995 0.0
C569 C 0.37156 0.99805 0.41876 0.0
C570 C 0.29921 0.9946 0.36502 0.0
C571 C 0.39613 0.00347 0.41022 0.0
C572 C 0.42608 1.00158 0.37959 0.0
C573 C 0.40202 0.99558 0.38627 0.0
C574 C 0.43806 0.02336 0.42056 0.0
C575 C 0.44413 0.0155 0.3968 0.0
C576 C 0.41426 0.01725 0.42724 0.0
C577 C 0.30654 0.99226 0.47428 0.0
C578 C 0.33376 0.9821 0.50935 0.0
C579 C 0.30135 0.00953 0.51587 0.0
C580 C 0.29431 0.0074 0.49046 0.0
C581 C 0.32051 0.99629 0.5255 0.0
C582 C 0.32693 0.98027 0.48369 0.0
C583 C 0.29832 0.99036 0.44764 0.0
O584 O 0.30943 0.01452 0.37902 0.0
O585 O 0.30576 0.97367 0.37309 0.0
O586 O 0.30339 0.97036 0.43417 0.0
O587 O 0.30283 0.01105 0.43728 0.0
H588 H 0.25845 0.9707 0.38294 0.0
H589 H 0.21432 0.97535 0.37077 0.0
H590 H 0.2363 0.02649 0.31828 0.0
H591 H 0.28023 0.02133 0.32981 0.0
H592 H 0.43062 0.99554 0.36107 0.0
H593 H 0.38817 0.98497 0.37289 0.0
H594 H 0.4518 0.03416 0.43391 0.0
H595 H 0.40992 0.02341 0.44581 0.0
H596 H 0.34848 0.97167 0.51663 0.0
H597 H 0.29089 0.02044 0.52823 0.0
H598 H 0.27895 0.01719 0.48346 0.0
H599 H 0.33711 0.96904 0.47136 0.0
C600 C 0.2719 0.02226 0.75516 0.0
C601 C 0.29372 0.03503 0.76779 0.0
C602 C 0.31942 0.01241 0.74053 0.0
C603 C 0.31722 0.03059 0.7602 0.0
C604 C 0.29745 1.00045 0.72756 0.0
C605 C 0.27391 0.00607 0.73419 0.0
U606 U 0.1994 0.01526 0.76625 0.0
O607 O 0.1791 0.98579 0.73957 0.0
O608 O 0.17557 0.02491 0.73402 0.0
C609 C 0.16657 1.00166 0.72776 0.0
C610 C 0.24822 0.0227 0.76678 0.0
C611 C 0.13898 0.99706 0.72621 0.0
C612 C 0.09806 0.99883 0.70385 0.0
C613 C 0.1242 1.00111 0.70455 0.0
C614 C 0.10109 0.98738 0.74611 0.0
C615 C 0.08627 0.99219 0.72474 0.0
C616 C 0.12712 0.99003 0.74694 0.0
C617 C 0.19499 0.02893 0.83493 0.0
C618 C 0.19341 0.04637 0.87739 0.0
C619 C 0.23182 0.0318 0.86438 0.0
C620 C 0.2202 0.02531 0.84039 0.0
C621 C 0.21845 0.04233 0.88302 0.0
C622 C 0.1817 0.03955 0.85348 0.0
C623 C 0.18256 0.02205 0.80988 0.0
O624 O 0.23617 1.0011 0.76944 0.0
O625 O 0.23342 0.04007 0.76221 0.0
O626 O 0.18426 0.03957 0.79467 0.0
O627 O 0.18669 1.0001 0.79969 0.0
H628 H 0.29266 0.04768 0.7842 0.0
H629 H 0.33376 0.04037 0.77055 0.0
H630 H 0.29867 0.98593 0.71294 0.0
H631 H 0.25708 0.99679 0.72401 0.0
H632 H 0.08706 1.00281 0.68725 0.0
H633 H 0.1329 0.00666 0.68839 0.0
H634 H 0.09245 0.98246 0.76253 0.0
H635 H 0.13801 0.98711 0.764 0.0
H636 H 0.18287 0.05446 0.89161 0.0
H637 H 0.25116 0.02854 0.86847 0.0
H638 H 0.23081 0.01735 0.82615 0.0
H639 H 0.16229 0.04253 0.84948 0.0
C640 C 0.65015 0.67869 0.36089 0.0
C641 C 0.63556 0.66168 0.37311 0.0
C642 C 0.66301 0.62915 0.36367 0.0
C643 C 0.64198 0.63713 0.37451 0.0
C644 C 0.67733 0.64615 0.35131 0.0
C645 C 0.67098 0.67057 0.34997 0.0
U646 U 0.61026 0.73529 0.36938 0.0
O647 O 0.62313 0.77497 0.3796 0.0
O648 O 0.60241 0.76347 0.3432 0.0
C649 C 0.61401 0.78201 0.3583 0.0
C650 C 0.64445 0.7049 0.35905 0.0
C651 C 0.62806 0.80276 0.34732 0.0
C652 C 0.66549 0.8312 0.34524 0.0
C653 C 0.65392 0.80905 0.35272 0.0
C654 C 0.62591 0.84059 0.32593 0.0
C655 C 0.65148 0.84757 0.33229 0.0
C656 C 0.6144 0.81861 0.33344 0.0
C657 C 0.54776 0.71893 0.40176 0.0
C658 C 0.51247 0.74101 0.41348 0.0
C659 C 0.51452 0.69818 0.42219 0.0
C660 C 0.53707 0.69782 0.4115 0.0
C661 C 0.5019 0.71969 0.4233 0.0
C662 C 0.53533 0.74067 0.40282 0.0
C663 C 0.57179 0.71685 0.39091 0.0
O664 O 0.62559 0.70843 0.34325 0.0
O665 O 0.64551 0.71944 0.37992 0.0
O666 O 0.59223 0.728 0.4034 0.0
O667 O 0.57208 0.7164 0.36665 0.0
H668 H 0.61931 0.66737 0.38159 0.0
H669 H 0.63055 0.62435 0.38403 0.0
H670 H 0.69355 0.64051 0.34274 0.0
H671 H 0.68248 0.68323 0.34038 0.0
H672 H 0.68521 0.83607 0.35047 0.0
H673 H 0.66502 0.79737 0.36348 0.0
H674 H 0.61457 0.85282 0.31615 0.0
H675 H 0.59444 0.81452 0.32925 0.0
H676 H 0.50302 0.75781 0.41406 0.0
H677 H 0.50679 0.68154 0.42952 0.0
H678 H 0.54626 0.68084 0.41085 0.0
H679 H 0.54321 0.75721 0.39542 0.0
C680 C 0.74604 0.26812 0.00749 0.0
C681 C 0.75005 0.28544 0.02869 0.0
C682 C 0.73911 0.31879 0.0034 0.0
C683 C 0.74693 0.31068 0.02657 0.0
C684 C 0.73542 0.30143 0.98235 0.0
C685 C 0.73936 0.2766 0.9843 0.0
U686 U 0.75935 0.19692 0.01437 0.0
O687 O 0.73908 0.16928 0.98624 0.0
O688 O 0.73188 0.16819 0.02531 0.0
C689 C 0.72801 0.15693 1.0026 0.0
C690 C 0.74407 0.24088 0.0089 0.0
C691 C 0.72988 0.12988 0.99987 0.0
C692 C 0.71072 0.08754 0.99996 0.0
C693 C 0.70947 0.1133 0.00375 0.0
C694 C 0.75248 0.09477 0.98755 0.0
C695 C 0.73224 0.07808 0.99173 0.0
C696 C 0.75147 0.12038 0.99193 0.0
C697 C 0.83052 0.20437 0.03424 0.0
C698 C 0.87424 0.2039 0.04802 0.0
C699 C 0.85867 0.24185 0.03634 0.0
C700 C 0.83459 0.22975 0.03173 0.0
C701 C 0.87959 0.22853 0.04185 0.0
C702 C 0.85024 0.19178 0.04343 0.0
C703 C 0.80606 0.1905 0.02747 0.0
O704 O 0.75239 0.22697 0.99096 0.0
O705 O 0.74497 0.23128 0.03044 0.0
O706 O 0.78942 0.19316 0.04354 0.0
O707 O 0.79684 0.1906 0.00422 0.0
H708 H 0.75494 0.27944 0.04687 0.0
H709 H 0.75011 0.32377 0.04306 0.0
H710 H 0.72902 0.30703 0.96436 0.0
H711 H 0.73567 0.26366 0.96772 0.0
H712 H 0.69497 0.07502 0.00345 0.0
H713 H 0.69258 0.1203 0.00968 0.0
H714 H 0.76933 0.08789 0.98138 0.0
H715 H 0.7675 0.13277 0.98886 0.0
H716 H 0.88827 0.1936 0.05658 0.0
H717 H 0.86031 0.26172 0.03571 0.0
H718 H 0.8192 0.24018 0.02616 0.0
H719 H 0.84711 0.17245 0.04698 0.0
C720 C 0.21788 0.81048 0.68686 0.0
C721 C 0.20265 0.82269 0.67042 0.0
C722 C 0.23033 0.86102 0.67982 0.0
C723 C 0.2088 0.84781 0.66698 0.0
C724 C 0.24515 0.84888 0.69663 0.0
C725 C 0.23899 0.82386 0.70007 0.0
U726 U 0.18006 0.74797 0.66762 0.0
O727 O 0.19232 0.71246 0.65362 0.0
O728 O 0.1725 0.71432 0.68738 0.0
C729 C 0.18377 0.70042 0.67159 0.0
C730 C 0.21332 0.78346 0.68886 0.0
C731 C 0.19902 0.68126 0.68096 0.0
C732 C 0.23744 0.66108 0.6801 0.0
C733 C 0.22489 0.68259 0.67927 0.0
C734 C 0.19911 0.63738 0.68721 0.0
C735 C 0.22428 0.63807 0.68261 0.0
C736 C 0.18658 0.65881 0.68631 0.0
C737 C 0.12478 0.75066 0.61729 0.0
C738 C 0.09082 0.72024 0.59918 0.0
C739 C 0.10692 0.75251 0.57496 0.0
C740 C 0.12368 0.76211 0.59509 0.0
C741 C 0.09061 0.7314 0.57665 0.0
C742 C 0.1081 0.72969 0.61942 0.0
C743 C 0.14439 0.76104 0.63689 0.0
O744 O 0.1933 0.77585 0.6993 0.0
O745 O 0.21657 0.76934 0.66869 0.0
O746 O 0.16714 0.75867 0.6311 0.0
O747 O 0.14138 0.75762 0.66024 0.0
H748 H 0.18629 0.81268 0.65995 0.0
H749 H 0.19692 0.85688 0.6542 0.0
H750 H 0.26165 0.85876 0.70695 0.0
H751 H 0.25103 0.81481 0.71274 0.0
H752 H 0.25686 0.66198 0.67649 0.0
H753 H 0.23493 0.69968 0.67518 0.0
H754 H 0.18861 0.61979 0.68903 0.0
H755 H 0.16663 0.65728 0.68752 0.0
H756 H 0.07814 0.70398 0.6008 0.0
H757 H 0.10682 0.76146 0.55785 0.0
H758 H 0.13627 0.77835 0.59314 0.0
H759 H 0.10865 0.72053 0.6364 0.0
C760 C 0.36067 0.27075 0.99536 0.0
C761 C 0.37568 0.25193 0.98828 0.0
C762 C 0.34573 0.22076 1.00136 0.0
C763 C 0.36812 0.22701 0.99107 0.0
C764 C 0.33067 0.23958 0.00804 0.0
C765 C 0.33808 0.26435 0.00502 0.0
U766 U 0.41278 0.32166 0.9931 0.0
O767 O 0.41478 0.3574 0.97649 0.0
O768 O 0.42308 0.35644 0.01694 0.0
C769 C 0.42155 0.37017 0.99819 0.0
C770 C 0.36911 0.29723 0.99475 0.0
C771 C 0.41224 0.39445 0.00329 0.0
C772 C 0.38089 0.42361 1.00016 0.0
C773 C 0.3882 0.39972 0.99479 0.0
C774 C 0.42141 0.43672 0.02253 0.0
C775 C 0.39758 0.44217 0.01403 0.0
C776 C 0.42871 0.41307 0.0171 0.0
C777 C 0.47891 0.30558 0.99216 0.0
C778 C 0.51387 0.33427 0.9842 0.0
C779 C 0.52085 0.29855 0.00699 0.0
C780 C 0.49538 0.29155 0.00485 0.0
C781 C 0.53031 0.3196 0.99627 0.0
C782 C 0.48815 0.32741 0.98237 0.0
C783 C 0.4522 0.29752 0.99049 0.0
O784 O 0.38318 0.30725 0.01471 0.0
O785 O 0.37736 0.3037 0.97387 0.0
O786 O 0.4386 0.30265 0.97058 0.0
O787 O 0.44196 0.30202 0.01128 0.0
H788 H 0.39336 0.25656 0.98104 0.0
H789 H 0.37993 0.21271 0.98577 0.0
H790 H 0.31332 0.23509 0.01594 0.0
H791 H 0.3264 0.27862 0.01076 0.0
H792 H 0.3623 0.42764 0.99364 0.0
H793 H 0.37524 0.38553 0.98415 0.0
H794 H 0.43436 0.45083 0.03333 0.0
H795 H 0.44734 0.40926 0.02371 0.0
H796 H 0.52094 0.35042 0.97563 0.0
H797 H 0.53336 0.28694 0.0162 0.0
H798 H 0.48855 0.27494 0.01285 0.0
H799 H 0.47558 0.33882 0.97298 0.0
C800 C 0.367 0.65029 0.68216 0.0
C801 C 0.38055 0.63804 0.66471 0.0
C802 C 0.36696 0.66482 0.63216 0.0
C803 C 0.38122 0.64573 0.64046 0.0
C804 C 0.35649 0.67882 0.65136 0.0
C805 C 0.35571 0.6712 0.67536 0.0
U806 U 0.37471 0.60812 0.73749 0.0
O807 O 0.38685 0.61994 0.77719 0.0
O808 O 0.34909 0.602 0.76649 0.0
C809 C 0.3654 0.61209 0.78481 0.0
C810 C 0.36545 0.6433 0.70806 0.0
C811 C 0.35621 0.62672 0.80625 0.0
C812 C 0.33222 0.65864 0.82473 0.0
C813 C 0.34089 0.64619 0.8036 0.0
C814 C 0.354 0.63243 0.85129 0.0
C815 C 0.3388 0.65195 0.84888 0.0
C816 C 0.36253 0.62003 0.83032 0.0
C817 C 0.40493 0.54467 0.72009 0.0
C818 C 0.4114 0.50649 0.73956 0.0
C819 C 0.42879 0.51338 0.70082 0.0
C820 C 0.41875 0.53626 0.70083 0.0
C821 C 0.42522 0.49816 0.72007 0.0
C822 C 0.40132 0.52964 0.7396 0.0
C823 C 0.39445 0.5689 0.71817 0.0
O824 O 0.34895 0.62488 0.71128 0.0
O825 O 0.38648 0.64321 0.72214 0.0
O826 O 0.40777 0.58912 0.72869 0.0
O827 O 0.37031 0.5699 0.7187 0.0
H828 H 0.391 0.62285 0.66992 0.0
H829 H 0.39379 0.63696 0.62889 0.0
H830 H 0.34916 0.69631 0.64857 0.0
H831 H 0.34653 0.68211 0.6889 0.0
H832 H 0.32052 0.67362 0.82227 0.0
H833 H 0.3356 0.65172 0.7853 0.0
H834 H 0.35939 0.6268 0.86953 0.0
H835 H 0.37411 0.60498 0.83294 0.0
H836 H 0.40837 0.49505 0.75463 0.0
H837 H 0.43927 0.50743 0.6856 0.0
H838 H 0.42169 0.54744 0.68553 0.0
H839 H 0.3907 0.53568 0.75466 0.0
C840 C 0.01354 0.75663 0.26679 0.0
C841 C 0.01344 0.77642 0.2854 0.0
C842 C 0.01203 0.74713 0.31691 0.0
C843 C 0.01283 0.7717 0.31048 0.0
C844 C 0.01183 0.7278 0.29817 0.0
C845 C 0.01312 0.73235 0.2734 0.0
U846 U 0.0113 0.76826 0.19346 0.0
O847 O 0.9831 0.74415 0.16845 0.0
O848 O 0.02268 0.73828 0.16817 0.0
C849 C 0.99992 0.73231 0.15746 0.0
C850 C 0.01273 0.76081 0.24036 0.0
C851 C 0.99714 0.73049 0.13006 0.0
C852 C 0.9798 0.70783 0.09078 0.0
C853 C 0.9827 0.71003 0.1168 0.0
C854 C 0.00578 0.74662 0.09091 0.0
C855 C 0.99151 0.72599 0.07767 0.0
C856 C 0.00853 0.74891 0.11697 0.0
C857 C 0.02773 0.83807 0.19732 0.0
C858 C 0.02749 0.88289 0.20072 0.0
C859 C 0.0483 0.86299 0.23402 0.0
C860 C 0.04122 0.83975 0.22088 0.0
C861 C 0.04155 0.88467 0.22394 0.0
C862 C 0.02072 0.85971 0.18745 0.0
C863 C 0.02097 0.81399 0.1827 0.0
O864 O 0.99223 0.76579 0.2277 0.0
O865 O 0.0323 0.75909 0.22776 0.0
O866 O 0.03787 0.79803 0.1839 0.0
O867 O 0.99825 0.80396 0.1843 0.0
H868 H 0.01371 0.79537 0.28052 0.0
H869 H 0.01272 0.78701 0.3247 0.0
H870 H 0.00973 0.70913 0.30312 0.0
H871 H 0.01276 0.71688 0.25926 0.0
H872 H 0.96873 0.69182 0.08083 0.0
H873 H 0.97372 0.69571 0.1266 0.0
H874 H 0.01492 0.76081 0.08106 0.0
H875 H 0.01961 0.76494 0.12687 0.0
H876 H 0.02205 0.89947 0.19278 0.0
H877 H 0.05904 0.8641 0.25199 0.0
H878 H 0.04649 0.82318 0.22896 0.0
H879 H 0.01015 0.85868 0.16939 0.0
C880 C 0.68481 0.21876 0.81166 0.0
C881 C 0.66699 0.20637 0.82485 0.0
C882 C 0.68317 0.23162 0.86351 0.0
C883 C 0.6662 0.21273 0.85053 0.0
C884 C 0.70142 0.24341 0.85044 0.0
C885 C 0.70223 0.23703 0.82483 0.0
U886 U 0.663 0.18098 0.74861 0.0
O887 O 0.64575 0.19331 0.714 0.0
O888 O 0.68071 0.17562 0.7135 0.0
C889 C 0.66312 0.18561 0.70055 0.0
C890 C 0.68423 0.21455 0.78406 0.0
C891 C 0.66999 0.20056 0.68012 0.0
C892 C 0.69631 0.2316 0.66187 0.0
C893 C 0.69056 0.21853 0.68234 0.0
C894 C 0.66036 0.20968 0.63735 0.0
C895 C 0.68055 0.22829 0.6393 0.0
C896 C 0.65547 0.19582 0.65722 0.0
C897 C 0.61873 0.1214 0.75137 0.0
C898 C 0.59351 0.09847 0.71593 0.0
C899 C 0.58279 0.09359 0.75786 0.0
C900 C 0.60344 0.10987 0.7674 0.0
C901 C 0.57719 0.08837 0.73209 0.0
C902 C 0.6141 0.11518 0.72554 0.0
C903 C 0.63662 0.14231 0.76219 0.0
O904 O 0.69567 0.19587 0.77487 0.0
O905 O 0.66259 0.21631 0.77167 0.0
O906 O 0.62841 0.16422 0.76079 0.0
O907 O 0.66005 0.14188 0.75759 0.0
H908 H 0.65329 0.19224 0.81516 0.0
H909 H 0.65198 0.20332 0.86015 0.0
H910 H 0.71475 0.25796 0.85998 0.0
H911 H 0.7161 0.24689 0.81514 0.0
H912 H 0.71362 0.24335 0.66377 0.0
H913 H 0.70248 0.22204 0.69965 0.0
H914 H 0.64809 0.20582 0.62028 0.0
H915 H 0.63994 0.18149 0.65475 0.0
H916 H 0.5896 0.09438 0.69597 0.0
H917 H 0.57058 0.08579 0.77059 0.0
H918 H 0.60669 0.11452 0.78735 0.0
H919 H 0.62567 0.12402 0.71287 0.0
C920 C 0.99673 0.36156 0.27001 0.0
C921 C 1.00401 0.37854 0.25319 0.0
C922 C 1.00245 0.34482 0.22035 0.0
C923 C 0.00703 0.37019 0.22858 0.0
C924 C 0.99361 0.32809 0.2367 0.0
C925 C 0.99088 0.33641 0.26142 0.0
U926 U 0.99158 0.41298 0.31996 0.0
O927 O 0.97695 0.41529 0.35673 0.0
O928 O 0.0163 0.4273 0.35329 0.0
C929 C 0.99871 0.42422 0.36831 0.0
C930 C 0.99696 0.36974 0.29673 0.0
C931 C 0.00585 0.41487 0.39229 0.0
C932 C 0.03368 0.3942 0.41934 0.0
C933 C 0.02694 0.40186 0.39597 0.0
C934 C 0.99819 0.41212 0.43551 0.0
C935 C 0.01876 0.39833 0.43903 0.0
C936 C 0.99201 0.4206 0.41239 0.0
C937 C 0.97938 0.47557 0.30318 0.0
C938 C 0.98924 0.50893 0.33641 0.0
C939 C 0.97787 0.51811 0.29406 0.0
C940 C 0.97464 0.49283 0.28615 0.0
C941 C 0.98605 0.52624 0.31899 0.0
C942 C 0.98581 0.4836 0.32851 0.0
C943 C 0.98072 0.44963 0.29429 0.0
O944 O 0.01584 0.38588 0.30572 0.0
O945 O 0.97555 0.37539 0.30438 0.0
O946 O 0.96352 0.43384 0.30135 0.0
O947 O 1.00331 0.44256 0.29725 0.0
H948 H 0.00833 0.39812 0.25935 0.0
H949 H 0.01384 0.38335 0.21623 0.0
H950 H 0.98996 0.30845 0.23062 0.0
H951 H 0.98507 0.32308 0.27403 0.0
H952 H 0.04973 0.38373 0.42169 0.0
H953 H 0.0381 0.39747 0.38082 0.0
H954 H 0.9865 0.4157 0.45041 0.0
H955 H 0.97609 0.43128 0.41005 0.0
H956 H 0.99598 0.51502 0.35559 0.0
H957 H 0.97572 0.53142 0.28041 0.0
H958 H 0.96983 0.48684 0.26658 0.0
H959 H 0.98965 0.47034 0.34184 0.0
H960 H 0.27156 0.57643 0.61153 0.0
H961 H 0.30634 0.50819 0.60083 0.0
H962 H 0.27401 0.52751 0.6693 0.0
C963 C 0.27708 0.55933 0.61843 0.0
C964 C 0.27163 0.55413 0.64223 0.0
C965 C 0.28876 0.5429 0.60297 0.0
C966 C 0.29659 0.52073 0.61226 0.0
C967 C 0.2916 0.51534 0.63668 0.0
C968 C 0.27856 0.53191 0.651 0.0
N969 N 0.29939 0.49437 0.64866 0.0
C970 C 0.31049 0.47313 0.64028 0.0
H971 H 0.34013 0.48438 0.98856 0.0
H972 H 0.27585 0.52522 0.98633 0.0
H973 H 0.34071 0.55144 0.03709 0.0
C974 C 0.33118 0.50071 0.99466 0.0
C975 C 0.34339 0.51798 0.01337 0.0
C976 C 0.30698 0.50301 0.98496 0.0
C977 C 0.29489 0.52352 0.99349 0.0
C978 C 0.30711 0.54133 0.01205 0.0
C979 C 0.33155 0.53855 0.02196 0.0
N980 N 0.29371 0.56064 0.02178 0.0
C981 C 0.30478 0.58429 0.03025 0.0
H982 H 0.6998 0.93771 0.36914 0.0
H983 H 0.73714 0.00728 0.36305 0.0
H984 H 0.70858 0.9597 0.29558 0.0
C985 C 0.70702 0.95083 0.35688 0.0
C986 C 0.70322 0.94525 0.33113 0.0
C987 C 0.71718 0.97399 0.36727 0.0
C988 C 0.72757 0.991 0.35249 0.0
C989 C 0.72342 0.9876 0.32598 0.0
C990 C 0.71196 0.96357 0.31558 0.0
N991 N 0.72799 0.0079 0.30934 0.0
C992 C 0.73425 0.04594 0.30032 0.0
H993 H 0.76 0.98512 0.02937 0.0
H994 H 0.71664 0.91605 0.03031 0.0
H995 H 0.70788 0.95605 0.96637 0.0
C996 C 0.74749 0.9706 0.01885 0.0
C997 C 0.73648 0.97395 0.99496 0.0
C998 C 0.73964 0.95082 0.03209 0.0
C999 C 0.72279 0.93142 0.02014 0.0
C1000 C 0.71267 0.93296 0.99558 0.0
C1001 C 0.71846 0.95467 0.98383 0.0
N1002 N 0.69515 0.91405 0.98262 0.0
C1003 C 0.69038 0.88993 0.98925 0.0
H1004 H 0.61708 0.27488 0.58044 0.0
H1005 H 0.59631 0.29183 0.50545 0.0
H1006 H 0.67193 0.27838 0.52827 0.0
C1007 C 0.62208 0.27861 0.56207 0.0
C1008 C 0.64639 0.27579 0.55642 0.0
C1009 C 0.60361 0.28408 0.54407 0.0
C1010 C 0.61047 0.2887 0.51993 0.0
C1011 C 0.63557 0.28755 0.51435 0.0
C1012 C 0.65314 0.28087 0.53279 0.0
N1013 N 0.64298 0.28741 0.48957 0.0
C1014 C 0.63903 0.30415 0.47156 0.0
H1015 H 0.03512 0.74413 0.98978 0.0
H1016 H 0.02771 0.73004 0.91015 0.0
H1017 H 0.96609 0.7095 0.952 0.0
C1018 C 0.02379 0.73747 0.97256 0.0
C1019 C 0.99952 0.72676 0.97345 0.0
C1020 C 0.03399 0.73884 0.94987 0.0
C1021 C 0.0196 0.72931 0.9276 0.0
C1022 C 0.99483 0.71892 0.92827 0.0
C1023 C 0.98489 0.71796 0.95129 0.0
N1024 N 0.97919 0.70943 0.90645 0.0
C1025 C 0.98716 0.70072 0.88383 0.0
H1026 H 0.98052 0.33711 0.49081 0.0
H1027 H 0.98907 0.27499 0.53322 0.0
H1028 H 0.04049 0.34059 0.5489 0.0
C1029 C 0.98921 0.32949 0.50693 0.0
C1030 C 0.01122 0.34192 0.5194 0.0
C1031 C 0.98206 0.3049 0.51073 0.0
C1032 C 0.99409 0.29429 0.53053 0.0
C1033 C 0.01401 0.30786 0.54561 0.0
C1034 C 0.02303 0.33161 0.53968 0.0
N1035 N 0.02749 0.29536 0.5634 0.0
C1036 C 0.03422 0.30526 0.58779 0.0
H1037 H 0.36591 0.68762 0.94239 0.0
H1038 H 0.35909 0.7338 0.005 0.0
H1039 H 0.29345 0.70033 0.95491 0.0
C1040 C 0.35352 0.69623 0.95455 0.0
C1041 C 0.32871 0.69631 0.94689 0.0
C1042 C 0.36298 0.70883 0.9767 0.0
C1043 C 0.34699 0.7215 0.99126 0.0
C1044 C 0.31862 0.71568 0.99154 0.0
C1045 C 0.31202 0.7046 0.96426 0.0
N1046 N 0.29389 0.72149 0.02403 0.0
C1047 C 0.29262 0.73262 0.04962 0.0
H1048 H 0.58292 0.61777 0.27992 0.0
H1049 H 0.50799 0.59367 0.29446 0.0
H1050 H 0.52602 0.66769 0.27455 0.0
C1051 C 0.56403 0.62188 0.28269 0.0
C1052 C 0.5567 0.64495 0.27689 0.0
C1053 C 0.54669 0.60273 0.28803 0.0
C1054 C 0.52192 0.60835 0.29128 0.0
C1055 C 0.51469 0.63252 0.28819 0.0
C1056 C 0.53211 0.65029 0.28002 0.0
N1057 N 0.489 0.63729 0.28611 0.0
C1058 C 0.4721 0.63718 0.30442 0.0
H1059 H 0.99193 0.03931 0.74074 0.0
H1060 H 0.91294 0.02305 0.7273 0.0
H1061 H 0.96083 0.96947 0.70213 0.0
C1062 C 0.97623 0.0258 0.73442 0.0
C1063 C 0.9802 1.00126 0.72591 0.0
C1064 C 0.95234 0.03354 0.73596 0.0
C1065 C 0.9315 0.01738 0.72592 0.0
C1066 C 0.93499 0.99443 0.7131 0.0
C1067 C 0.95918 0.98662 0.71308 0.0
N1068 N 0.91478 0.97847 0.70014 0.0
C1069 C 0.89067 0.98486 0.69431 0.0
H1070 H 0.48678 0.99211 0.3402 0.0
H1071 H 0.53205 0.98591 0.27932 0.0
H1072 H 0.55578 0.03845 0.34335 0.0
C1073 C 0.50385 0.99746 0.33204 0.0
C1074 C 0.52117 0.0159 0.34468 0.0
C1075 C 0.50749 0.98656 0.30864 0.0
C1076 C 0.52916 0.99403 0.29772 0.0
C1077 C 0.5466 0.01282 0.31012 0.0
C1078 C 0.54282 0.02349 0.33395 0.0
N1079 N 0.56637 0.02237 0.29724 0.0
C1080 C 0.59045 0.02852 0.30835 0.0
H1081 H 0.93829 0.36927 0.69605 0.0
H1082 H 0.00937 0.36401 0.73174 0.0
H1083 H 0.96401 0.29656 0.70054 0.0
C1084 C 0.95219 0.35743 0.70246 0.0
C1085 C 0.94749 0.33154 0.69789 0.0
C1086 C 0.97552 0.36852 0.71225 0.0
C1087 C 0.99305 0.35378 0.72204 0.0
C1088 C 0.99025 0.32746 0.71751 0.0
C1089 C 0.96684 0.3165 0.70514 0.0
N1090 N 0.01068 0.31151 0.7231 0.0
C1091 C 0.04808 0.30168 0.73134 0.0
H1092 H 0.74318 0.43196 0.39515 0.0
H1093 H 0.7073 0.49962 0.40412 0.0
H1094 H 0.72383 0.47035 0.33135 0.0
C1095 C 0.73563 0.4477 0.38718 0.0
C1096 C 0.73509 0.44916 0.36148 0.0
C1097 C 0.72516 0.46523 0.40258 0.0
C1098 C 0.71536 0.48595 0.39231 0.0
C1099 C 0.7155 0.4882 0.36645 0.0
C1100 C 0.72471 0.46929 0.35129 0.0
N1101 N 0.70608 0.50824 0.35418 0.0
C1102 C 0.697 0.53013 0.36383 0.0
H1103 H 0.67464 0.51833 0.02111 0.0
H1104 H 0.7287 0.46694 0.00621 0.0
H1105 H 0.652 0.44982 0.97584 0.0
C1106 C 0.67908 0.50051 0.01275 0.0
C1107 C 0.66049 0.48489 0.99825 0.0
C1108 C 0.70349 0.49432 0.01595 0.0
C1109 C 0.70959 0.47155 0.00458 0.0
C1110 C 0.69083 0.45541 0.99004 0.0
C1111 C 0.6663 0.46209 0.98719 0.0
N1112 N 0.69651 0.43396 0.97561 0.0
C1113 C 0.70957 0.4154 0.98505 0.0
H1114 H 0.31491 0.05345 0.62115 0.0
H1115 H 0.29045 0.97932 0.63607 0.0
H1116 H 0.2813 0.04128 0.68862 0.0
C1117 C 0.30619 0.04092 0.63309 0.0
C1118 C 0.30034 0.0505 0.65644 0.0
C1119 C 0.30264 0.0153 0.6256 0.0
C1120 C 0.29171 0.99907 0.64121 0.0
C1121 C 0.28183 0.00822 0.66278 0.0
C1122 C 0.28707 0.03412 0.67097 0.0
N1123 N 0.26708 0.99195 0.67657 0.0
C1124 C 0.26255 0.96567 0.67297 0.0
H1125 H 0.26798 0.01887 0.97956 0.0
H1126 H 0.27328 0.09846 0.98969 0.0
H1127 H 0.30345 0.05723 0.0479 0.0
C1128 C 0.27388 0.03617 0.99103 0.0
C1129 C 0.28575 0.03547 0.01482 0.0
C1130 C 0.26899 0.05875 0.98201 0.0
C1131 C 0.27707 0.08106 0.99676 0.0
C1132 C 0.28994 0.08064 0.02045 0.0
C1133 C 0.29379 0.05772 0.0296 0.0
N1134 N 0.29898 0.10281 0.03559 0.0
C1135 C 0.30661 0.125 0.02619 0.0
H1136 H 0.39494 0.72831 0.42672 0.0
H1137 H 0.40998 0.7078 0.50119 0.0
H1138 H 0.34226 0.74025 0.48015 0.0
C1139 C 0.38901 0.72626 0.44511 0.0
C1140 C 0.36647 0.735 0.45098 0.0
C1141 C 0.40545 0.71787 0.46324 0.0
C1142 C 0.39754 0.71454 0.48711 0.0
C1143 C 0.37408 0.72183 0.49297 0.0
C1144 C 0.3593 0.7329 0.47508 0.0
N1145 N 0.36535 0.721 0.51705 0.0
C1146 C 0.37243 0.70697 0.53655 0.0
H1147 H 0.97446 0.27543 0.0214 0.0
H1148 H 0.98795 0.28432 0.1008 0.0
H1149 H 0.04953 0.29179 0.05565 0.0
C1150 C 0.98751 0.27978 0.03793 0.0
C1151 C 0.01301 0.28381 0.03541 0.0
C1152 C 0.97873 0.27825 0.06123 0.0
C1153 C 0.99502 0.28491 0.08275 0.0
C1154 C 0.0206 0.29101 0.0807 0.0
C1155 C 0.02966 0.28898 0.05709 0.0
N1156 N 0.03764 0.29863 0.10201 0.0
C1157 C 0.03019 0.30707 0.12493 0.0
H1158 H 0.01359 0.67524 0.51797 0.0
H1159 H 0.0392 0.7098 0.45536 0.0
H1160 H 0.98086 0.64909 0.4444 0.0
C1161 C 0.01194 0.67702 0.49807 0.0
C1162 C 0.99516 0.66057 0.48242 0.0
C1163 C 0.02783 0.69458 0.48865 0.0
C1164 C 0.0263 0.69667 0.46282 0.0
C1165 C 0.00902 0.68026 0.44675 0.0
C1166 C 0.99358 0.6622 0.45671 0.0
N1167 N 0.0087 0.67913 0.42049 0.0
C1168 C 0.01075 0.69942 0.40656 0.0
H1169 H 0.62636 0.31826 0.05451 0.0
H1170 H 0.64352 0.29519 0.98077 0.0
H1171 H 0.69109 0.27932 0.04416 0.0
C1172 C 0.63875 0.30981 0.04231 0.0
C1173 C 0.66075 0.30138 0.05281 0.0
C1174 C 0.63231 0.30744 0.01644 0.0
C1175 C 0.64845 0.29673 1.00062 0.0
C1176 C 0.66913 0.28566 0.01033 0.0
C1177 C 0.67523 0.28802 0.03657 0.0
N1178 N 0.68361 0.27153 0.99442 0.0
C1179 C 0.67931 0.26597 0.96838 0.0
H1180 H 0.42696 0.39134 0.72679 0.0
H1181 H 0.50174 0.40527 0.70665 0.0
H1182 H 0.4793 0.3374 0.73798 0.0
C1183 C 0.4452 0.38501 0.72465 0.0
C1184 C 0.45066 0.36231 0.73323 0.0
C1185 C 0.4637 0.40122 0.71658 0.0
C1186 C 0.48739 0.39293 0.71314 0.0
C1187 C 0.49271 0.36915 0.71982 0.0
C1188 C 0.47458 0.35463 0.73089 0.0
N1189 N 0.51652 0.35988 0.7183 0.0
C1190 C 0.5352 0.36643 0.70307 0.0
H1191 H 0.02109 0.98403 0.26169 0.0
H1192 H 0.09996 0.99016 0.28152 0.0
H1193 H 0.05718 0.0508 0.30261 0.0
C1194 C 0.03804 0.99508 0.26975 0.0
C1195 C 0.03655 0.01854 0.28204 0.0
C1196 C 0.06079 0.98478 0.26967 0.0
C1197 C 0.08254 0.99857 0.28112 0.0
C1198 C 0.08142 0.02283 0.29244 0.0
C1199 C 0.05833 0.03267 0.29286 0.0
N1200 N 0.10286 0.03737 0.30449 0.0
C1201 C 0.12512 0.02767 0.3112 0.0
H1202 H 0.51031 0.02584 0.66349 0.0
H1203 H 0.46126 0.02499 0.72149 0.0
H1204 H 0.4578 0.96259 0.66623 0.0
C1205 C 0.49391 0.01752 0.67102 0.0
C1206 C 0.48437 0.99345 0.66184 0.0
C1207 C 0.48708 0.02814 0.69341 0.0
C1208 C 0.46633 0.01712 0.70378 0.0
C1209 C 0.45491 0.9937 0.69319 0.0
C1210 C 0.46446 0.98172 0.67255 0.0
N1211 N 0.43737 0.97973 0.70563 0.0
C1212 C 0.41714 0.98945 0.71561 0.0
H1213 H 0.05114 0.63119 0.33784 0.0
H1214 H 0.9813 0.63102 0.29373 0.0
H1215 H 0.04152 0.68682 0.28705 0.0
C1216 C 0.0393 0.64016 0.32484 0.0
C1217 C 0.04925 0.66085 0.31415 0.0
C1218 C 0.01544 0.62886 0.31659 0.0
C1219 C 0.99972 0.63999 0.29983 0.0
C1220 C 0.00869 0.66124 0.28927 0.0
C1221 C 0.03389 0.67114 0.29596 0.0
N1222 N 0.99357 0.67205 0.27084 0.0
C1223 C 0.96739 0.66916 0.26639 0.0
C1224 C 0.10903 0.68073 0.35695 0.0
C1225 C 0.12691 0.67046 0.34236 0.0
C1226 C 0.09495 0.66341 0.30622 0.0
C1227 C 0.07628 0.66976 0.32192 0.0
N1228 N 0.06543 0.6859 0.36188 0.0
N1229 N 0.13719 0.65224 0.3029 0.0
C1230 C 0.08344 0.67924 0.34711 0.0
C1231 C 0.12004 0.66238 0.31677 0.0
N1232 N 0.1167 0.69212 0.3802 0.0
N1233 N 0.08864 0.65792 0.28125 0.0
H1234 H 0.15574 0.6517 0.30971 0.0
H1235 H 0.13292 0.64312 0.28513 0.0
H1236 H 0.07046 0.65727 0.27301 0.0
H1237 H 0.10159 0.65594 0.26829 0.0
H1238 H 0.10535 0.70195 0.39119 0.0
H1239 H 0.13524 0.69349 0.38776 0.0
H1240 H 0.06839 0.68965 0.38112 0.0
H1241 H 0.047 0.68679 0.35478 0.0
C1242 C 0.40355 0.31303 0.75511 0.0
C1243 C 0.39087 0.32875 0.77097 0.0
C1244 C 0.4218 0.36334 0.76698 0.0
C1245 C 0.43199 0.34913 0.74774 0.0
N1246 N 0.43006 0.31054 0.72127 0.0
N1247 N 0.38475 0.37054 0.78703 0.0
C1248 C 0.42236 0.32384 0.74127 0.0
C1249 C 0.39903 0.35441 0.77539 0.0
N1250 N 0.39782 0.28789 0.75345 0.0
N1251 N 0.43429 0.38513 0.77786 0.0
H1252 H 0.36761 0.36497 0.79323 0.0
H1253 H 0.3888 0.38978 0.78817 0.0
H1254 H 0.452 0.39149 0.77354 0.0
H1255 H 0.42839 0.39518 0.79319 0.0
H1256 H 0.4082 0.27532 0.74426 0.0
H1257 H 0.38387 0.27963 0.76302 0.0
H1258 H 0.42201 0.29282 0.71447 0.0
H1259 H 0.44294 0.318 0.71009 0.0
C1260 C 0.5464 0.97889 0.65211 0.0
C1261 C 0.54675 0.98078 0.62619 0.0
C1262 C 0.50131 0.98089 0.62183 0.0
C1263 C 0.5014 0.97925 0.64767 0.0
N1264 N 0.52195 0.96671 0.68503 0.0
N1265 N 0.52402 0.97586 0.58535 0.0
C1266 C 0.52326 0.97408 0.66172 0.0
C1267 C 0.52395 0.97912 0.61062 0.0
N1268 N 0.56771 0.98401 0.66791 0.0
N1269 N 0.47993 0.98548 0.60845 0.0
H1270 H 0.54031 0.97393 0.5767 0.0
H1271 H 0.50779 0.97271 0.57323 0.0
H1272 H 0.46307 0.98583 0.61642 0.0
H1273 H 0.47923 0.98977 0.59005 0.0
H1274 H 0.56768 0.98556 0.68722 0.0
H1275 H 0.58501 0.98938 0.66198 0.0
H1276 H 0.53727 0.96141 0.69562 0.0
H1277 H 0.50498 0.96347 0.69252 0.0
C1278 C 0.97129 0.0108 0.29951 0.0
C1279 C 0.9595 0.02612 0.28316 0.0
C1280 C 0.99989 0.0421 0.27086 0.0
C1281 C 0.01149 0.0259 0.28634 0.0
N1282 N 0.00996 1.00094 0.32084 0.0
N1283 N 0.96223 0.06113 0.25883 0.0
C1284 C 0.99768 0.01244 0.30265 0.0
C1285 C 0.97379 0.04353 0.2708 0.0
N1286 N 0.9573 0.99366 0.31078 0.0
N1287 N 0.01355 0.05491 0.25526 0.0
H1288 H 0.94308 0.06242 0.25856 0.0
H1289 H 0.97175 0.07568 0.25119 0.0
H1290 H 0.03282 0.05472 0.25546 0.0
H1291 H 0.00572 0.06475 0.24139 0.0
H1292 H 0.96482 0.9798 0.32032 0.0
H1293 H 0.93788 0.99243 0.30942 0.0
H1294 H 1.00114 0.99238 0.3346 0.0
H1295 H 0.02938 1.00209 0.32357 0.0
C1296 C 0.34682 0.10851 0.67531 0.0
C1297 C 0.33311 0.12732 0.6658 0.0
C1298 C 0.29546 0.09699 0.65957 0.0
C1299 C 0.3102 0.07734 0.66489 0.0
N1300 N 0.35079 0.06459 0.67656 0.0
N1301 N 0.29408 0.13936 0.64822 0.0
C1302 C 0.33606 0.08329 0.67276 0.0
C1303 C 0.3072 0.12162 0.65816 0.0
N1304 N 0.3702 0.11486 0.68706 0.0
N1305 N 0.27019 0.09198 0.65561 0.0
H1306 H 0.30188 0.15745 0.64709 0.0
H1307 H 0.27597 0.13583 0.63968 0.0
H1308 H 0.26135 0.07419 0.65628 0.0
H1309 H 0.25795 0.10563 0.65393 0.0
H1310 H 0.3803 0.10261 0.69665 0.0
H1311 H 0.37851 0.13312 0.68935 0.0
H1312 H 0.37018 0.06707 0.679 0.0
H1313 H 0.3435 0.0462 0.67559 0.0
C1314 C 0.27534 0.97371 0.04202 0.0
C1315 C 0.28885 0.95924 0.02586 0.0
C1316 C 0.30685 0.99693 0.01005 0.0
C1317 C 0.29026 0.01082 0.02297 0.0
N1318 N 0.25754 0.01273 0.05036 0.0
N1319 N 0.31522 0.95649 0.99216 0.0
C1320 C 0.27439 0.9994 0.03904 0.0
C1321 C 0.30423 0.97069 0.00939 0.0
N1322 N 0.26365 0.96292 0.06028 0.0
N1323 N 0.32496 0.00897 0.99823 0.0
H1324 H 0.31356 0.9371 0.99077 0.0
H1325 H 0.32422 0.96382 0.97783 0.0
H1326 H 0.32732 0.02832 0.99859 0.0
H1327 H 0.33905 1.00008 0.9903 0.0
H1328 H 0.25558 0.97298 0.0742 0.0
H1329 H 0.26383 0.94407 0.06273 0.0
H1330 H 0.24346 0.00474 0.05987 0.0
H1331 H 0.25671 0.03171 0.04905 0.0
C1332 C 0.77471 0.41043 0.32044 0.0
C1333 C 0.76768 0.38649 0.32774 0.0
C1334 C 0.73317 0.4036 0.34778 0.0
C1335 C 0.74387 0.4281 0.34573 0.0
N1336 N 0.77616 0.45494 0.33067 0.0
N1337 N 0.741 0.3608 0.35086 0.0
C1338 C 0.76474 0.43163 0.33177 0.0
C1339 C 0.74682 0.38306 0.34172 0.0
N1340 N 0.79106 0.41282 0.3028 0.0
N1341 N 0.71001 0.40005 0.35581 0.0
H1342 H 0.75074 0.3453 0.34765 0.0
H1343 H 0.72781 0.35832 0.36354 0.0
H1344 H 0.69926 0.41473 0.35967 0.0
H1345 H 0.70056 0.38253 0.35612 0.0
H1346 H 0.79521 0.42941 0.29502 0.0
H1347 H 0.79841 0.39751 0.29415 0.0
H1348 H 0.79297 0.45824 0.32297 0.0
H1349 H 0.76998 0.47092 0.33918 0.0
C1350 C 0.61603 0.52563 0.01919 0.0
C1351 C 0.61206 0.53852 0.99768 0.0
C1352 C 0.6297 0.50591 0.97255 0.0
C1353 C 0.63578 0.49457 0.99457 0.0
N1354 N 0.62581 0.48693 0.03552 0.0
N1355 N 0.60667 0.53655 0.95289 0.0
C1356 C 0.6251 0.5019 0.01657 0.0
C1357 C 0.616 0.52709 0.97394 0.0
N1358 N 0.61324 0.5368 0.04225 0.0
N1359 N 0.63849 0.49754 0.9508 0.0
H1360 H 0.5964 0.55196 0.95346 0.0
H1361 H 0.60704 0.52782 0.93505 0.0
H1362 H 0.64733 0.4813 0.94889 0.0
H1363 H 0.63758 0.50699 0.93489 0.0
H1364 H 0.6185 0.52921 0.05869 0.0
H1365 H 0.60754 0.5546 0.04512 0.0
H1366 H 0.61709 0.49038 0.05169 0.0
H1367 H 0.63325 0.4698 0.03364 0.0
C1368 C 0.68525 0.33701 0.1154 0.0
C1369 C 0.66554 0.33038 0.13004 0.0
C1370 C 0.64836 0.29785 0.09648 0.0
C1371 C 0.66651 0.30633 0.08092 0.0
N1372 N 0.70779 0.32635 0.0798 0.0
N1373 N 0.62817 0.30432 0.13466 0.0
C1374 C 0.68664 0.32368 0.09162 0.0
C1375 C 0.64735 0.31035 0.12079 0.0
N1376 N 0.70227 0.35672 0.12388 0.0
N1377 N 0.63248 0.2773 0.08791 0.0
H1378 H 0.62695 0.31276 0.15249 0.0
H1379 H 0.61275 0.29189 0.12826 0.0
H1380 H 0.63355 0.26762 0.07057 0.0
H1381 H 0.61989 0.26847 0.09849 0.0
H1382 H 0.71489 0.36485 0.11284 0.0
H1383 H 0.70281 0.36596 0.14166 0.0
H1384 H 0.72399 0.33715 0.08733 0.0
H1385 H 0.71032 0.31515 0.06387 0.0
C1386 C 0.00886 0.25834 0.96841 0.0
C1387 C 0.02505 0.27548 0.95783 0.0
C1388 C 0.03572 0.2985 0.99901 0.0
C1389 C 0.02114 0.27984 0.00976 0.0
N1390 N 1.00186 0.23752 0.00498 0.0
N1391 N 0.05834 0.30862 0.96384 0.0
C1392 C 0.01042 0.25824 0.9945 0.0
C1393 C 0.04 0.29454 0.9734 0.0
N1394 N 0.99128 0.24271 0.95367 0.0
N1395 N 0.04424 0.3205 0.01253 0.0
H1396 H 0.06162 0.30635 0.94513 0.0
H1397 H 0.07151 0.32095 0.97491 0.0
H1398 H 0.0406 0.32477 0.03088 0.0
H1399 H 0.05304 0.33543 0.0048 0.0
H1400 H 0.97745 0.23168 0.96095 0.0
H1401 H 0.98887 0.24273 0.93436 0.0
H1402 H 0.99532 0.22082 0.99447 0.0
H1403 H 1.00399 0.23627 0.02415 0.0
C1404 C 0.3573 0.77645 0.39902 0.0
C1405 C 0.33139 0.7724 0.39181 0.0
C1406 C 0.32729 0.743 0.4236 0.0
C1407 C 0.35287 0.74932 0.43245 0.0
N1408 N 0.38906 0.77907 0.43335 0.0
N1409 N 0.29071 0.75537 0.40014 0.0
C1410 C 0.36687 0.76824 0.42162 0.0
C1411 C 0.31599 0.75681 0.40507 0.0
N1412 N 0.37303 0.78766 0.38405 0.0
N1413 N 0.31414 0.72316 0.43177 0.0
H1414 H 0.28209 0.76488 0.38637 0.0
H1415 H 0.27843 0.74638 0.41099 0.0
H1416 H 0.32195 0.71197 0.44442 0.0
H1417 H 0.29617 0.71647 0.42426 0.0
H1418 H 0.39237 0.78852 0.38744 0.0
H1419 H 0.36697 0.79375 0.36703 0.0
H1420 H 0.39898 0.7942 0.42695 0.0
H1421 H 0.39594 0.77497 0.45097 0.0
C1422 C 0.995 0.60926 0.52068 0.0
C1423 C 0.98132 0.61955 0.53965 0.0
C1424 C 0.96522 0.64873 0.51168 0.0
C1425 C 0.98161 0.64079 0.49441 0.0
N1426 N 1.00421 0.60835 0.47751 0.0
N1427 N 0.95199 0.64761 0.55333 0.0
C1428 C 0.99362 0.61904 0.49722 0.0
C1429 C 0.96552 0.63855 0.535 0.0
N1430 N 0.01072 0.59155 0.52573 0.0
N1431 N 0.95034 0.66683 0.50573 0.0
H1432 H 0.95147 0.64012 0.57039 0.0
H1433 H 0.94167 0.6628 0.55211 0.0
H1434 H 0.95037 0.67405 0.48847 0.0
H1435 H 0.93714 0.67352 0.51674 0.0
H1436 H 0.02329 0.58537 0.51366 0.0
H1437 H 0.01246 0.58405 0.54279 0.0
H1438 H 0.01171 0.59133 0.47744 0.0
H1439 H 1.00316 0.61549 0.46024 0.0
C1440 C 0.87763 0.31227 0.68072 0.0
C1441 C 0.8738 0.32836 0.66153 0.0
C1442 C 0.91899 0.33301 0.65944 0.0
C1443 C 0.92322 0.32255 0.68229 0.0
N1444 N 0.90592 0.30086 0.71454 0.0
N1445 N 0.89262 0.35856 0.63677 0.0
C1446 C 0.90231 0.31146 0.69278 0.0
C1447 C 0.895 0.33987 0.65189 0.0
N1448 N 0.85793 0.29747 0.68703 0.0
N1449 N 0.93822 0.33684 0.64519 0.0
H1450 H 0.87562 0.36545 0.63204 0.0
H1451 H 0.90799 0.369 0.63137 0.0
H1452 H 0.95553 0.33051 0.64991 0.0
H1453 H 0.93598 0.34345 0.6277 0.0
H1454 H 0.85989 0.28367 0.69908 0.0
H1455 H 0.83992 0.29757 0.67844 0.0
H1456 H 0.89139 0.29463 0.72451 0.0
H1457 H 0.92369 0.29923 0.72302 0.0
C1458 C 0.61068 0.68948 0.26083 0.0
C1459 C 0.61678 0.67522 0.23923 0.0
C1460 C 0.57698 0.64972 0.23791 0.0
C1461 C 0.57359 0.65999 0.26212 0.0
N1462 N 0.58468 0.69205 0.29556 0.0
N1463 N 0.60671 0.63926 0.20909 0.0
C1464 C 0.58962 0.68083 0.27323 0.0
C1465 C 0.60004 0.65485 0.22808 0.0
N1466 N 0.62506 0.71102 0.26933 0.0
N1467 N 0.5579 0.63513 0.22424 0.0
H1468 H 0.62378 0.64155 0.20164 0.0
H1469 H 0.59623 0.6226 0.20239 0.0
H1470 H 0.54045 0.63192 0.23081 0.0
H1471 H 0.55855 0.62869 0.20564 0.0
H1472 H 0.62116 0.72322 0.28407 0.0
H1473 H 0.64036 0.71752 0.26045 0.0
H1474 H 0.5955 0.70724 0.30512 0.0
H1475 H 0.56923 0.68608 0.30447 0.0
C1476 C 0.47297 0.0421 0.37433 0.0
C1477 C 0.46935 0.02251 0.38981 0.0
C1478 C 0.51252 0.01339 0.38753 0.0
C1479 C 0.51367 0.02833 0.36768 0.0
N1480 N 0.50115 0.06395 0.34896 0.0
N1481 N 0.48586 0.99063 0.41317 0.0
C1482 C 0.49605 0.04557 0.36392 0.0
C1483 C 0.48946 0.00896 0.39771 0.0
N1484 N 0.45392 0.05622 0.36863 0.0
N1485 N 0.53313 1.00218 0.39491 0.0
H1486 H 0.46905 0.98666 0.42071 0.0
H1487 H 0.4991 0.97855 0.4177 0.0
H1488 H 0.54963 0.00522 0.38648 0.0
H1489 H 0.53449 0.99185 0.41019 0.0
H1490 H 0.45449 0.06946 0.35588 0.0
H1491 H 0.43706 0.05445 0.37659 0.0
H1492 H 0.48964 0.07785 0.34541 0.0
H1493 H 0.5182 0.06595 0.34135 0.0
C1494 C 0.04981 0.00989 0.74287 0.0
C1495 C 0.05869 0.99248 0.72556 0.0
C1496 C 0.01556 0.97306 0.7154 0.0
C1497 C 0.00671 0.99325 0.72955 0.0
N1498 N 0.01739 0.01624 0.76969 0.0
N1499 N 0.04992 0.95648 0.69551 0.0
C1500 C 0.02444 0.0074 0.74729 0.0
C1501 C 0.04151 0.97381 0.71172 0.0
N1502 N 0.06528 0.02949 0.75456 0.0
N1503 N 1.00077 0.95123 0.71026 0.0
H1504 H 0.06881 0.95531 0.69365 0.0
H1505 H 0.03806 0.94429 0.6829 0.0
H1506 H 0.98524 0.94759 0.71995 0.0
H1507 H 0.00633 0.93532 0.70099 0.0
H1508 H 0.05876 0.04378 0.76564 0.0
H1509 H 0.0839 0.0328 0.75117 0.0
H1510 H 0.03 0.02504 0.7841 0.0
H1511 H 0.99948 0.01168 0.77467 0.0
C1512 C 0.68177 0.87625 0.31134 0.0
C1513 C 0.66277 0.87311 0.32774 0.0
C1514 C 0.6637 0.91858 0.33447 0.0
C1515 C 0.68627 0.92164 0.3229 0.0
N1516 N 0.71691 0.9027 0.29999 0.0
N1517 N 0.63888 0.89226 0.35849 0.0
C1518 C 0.69514 0.90029 0.31084 0.0
C1519 C 0.65434 0.89458 0.34001 0.0
N1520 N 0.6868 0.85636 0.29602 0.0
N1521 N 0.65209 0.93902 0.3416 0.0
H1522 H 0.63254 0.87518 0.36423 0.0
H1523 H 0.63452 0.9074 0.36996 0.0
H1524 H 0.65901 0.95694 0.3385 0.0
H1525 H 0.63466 0.93791 0.34844 0.0
H1526 H 0.69864 0.85786 0.28196 0.0
H1527 H 0.67732 0.83874 0.29592 0.0
H1528 H 0.72585 0.8876 0.29332 0.0
H1529 H 0.72667 0.91993 0.29879 0.0
C1530 C 0.75438 0.04164 0.0035 0.0
C1531 C 0.73478 0.05082 0.98902 0.0
C1532 C 0.72432 0.00871 0.96744 0.0
C1533 C 0.74109 0.99945 0.9852 0.0
N1534 N 0.78319 0.0103 0.0034 0.0
N1535 N 0.70241 0.04353 0.95478 0.0
C1536 C 0.75979 0.01698 0.99794 0.0
C1537 C 0.72006 0.03448 0.97017 0.0
N1538 N 0.76706 0.05583 0.02347 0.0
N1539 N 0.71651 0.99434 0.9458 0.0
H1540 H 0.70019 0.06244 0.95489 0.0
H1541 H 0.68928 0.03217 0.94268 0.0
H1542 H 0.72476 0.97811 0.94104 0.0
H1543 H 0.7055 1.00021 0.93114 0.0
H1544 H 0.78012 0.04869 0.03554 0.0
H1545 H 0.76265 0.07359 0.02944 0.0
H1546 H 0.798 0.02305 0.01112 0.0
H1547 H 0.78778 0.99246 0.99787 0.0
C1548 C 0.25368 0.6049 0.68986 0.0
C1549 C 0.2349 0.61455 0.67459 0.0
C1550 C 0.23494 0.57886 0.64378 0.0
C1551 C 0.25701 0.57194 0.65635 0.0
N1552 N 0.28887 0.58013 0.6911 0.0
N1553 N 0.21122 0.61298 0.63438 0.0
C1554 C 0.26667 0.58518 0.67958 0.0
C1555 C 0.22639 0.60208 0.65087 0.0
N1556 N 0.25903 0.61451 0.71407 0.0
N1557 N 0.22219 0.5632 0.62488 0.0
H1558 H 0.20498 0.63041 0.6383 0.0
H1559 H 0.20693 0.60576 0.61588 0.0
H1560 H 0.22753 0.54558 0.61976 0.0
H1561 H 0.20498 0.5666 0.61631 0.0
H1562 H 0.27073 0.60661 0.72683 0.0
H1563 H 0.24996 0.62908 0.72186 0.0
H1564 H 0.29787 0.59088 0.70673 0.0
H1565 H 0.29936 0.56646 0.68398 0.0
C1566 C 0.37435 0.47089 0.03996 0.0
C1567 C 0.3899 0.46723 0.02042 0.0
C1568 C 0.3865 0.50991 0.01028 0.0
C1569 C 0.36683 0.51104 0.02553 0.0
N1570 N 0.34947 0.49922 0.06217 0.0
N1571 N 0.41309 0.4836 0.98833 0.0
C1572 C 0.36376 0.49383 0.04326 0.0
C1573 C 0.39735 0.48715 0.00644 0.0
N1574 N 0.36866 0.45198 0.05422 0.0
N1575 N 0.3931 0.53023 0.99833 0.0
H1576 H 0.42111 0.467 0.98485 0.0
H1577 H 0.41752 0.49663 0.97604 0.0
H1578 H 0.38424 0.54649 1.00104 0.0
H1579 H 0.40809 0.53167 0.9876 0.0
H1580 H 0.35547 0.45247 0.06706 0.0
H1581 H 0.37678 0.43524 0.05272 0.0
H1582 H 0.34692 0.48816 0.07665 0.0
H1583 H 0.34175 0.51617 0.0642 0.0
C1584 C 0.33965 0.69047 0.87965 0.0
C1585 C 0.33047 0.66534 0.87194 0.0
C1586 C 0.31269 0.66257 0.91226 0.0
C1587 C 0.32187 0.68764 0.91977 0.0
N1588 N 0.33736 0.72733 0.90799 0.0
N1589 N 0.30245 0.6299 0.87829 0.0
C1590 C 0.33273 0.70222 0.90228 0.0
C1591 C 0.31502 0.65222 0.88742 0.0
N1592 N 0.35654 0.70259 0.86649 0.0
N1593 N 0.30306 0.64823 0.92926 0.0
H1594 H 0.30355 0.62205 0.86018 0.0
H1595 H 0.28921 0.62045 0.88774 0.0
H1596 H 0.30038 0.65547 0.94719 0.0
H1597 H 0.29892 0.62904 0.92598 0.0
H1598 H 0.36611 0.71979 0.87286 0.0
H1599 H 0.36272 0.69458 0.85025 0.0
H1600 H 0.34353 0.73942 0.89542 0.0
H1601 H 0.33257 0.73619 0.92455 0.0
C1602 C 0.97518 0.73926 0.03651 0.0
C1603 C 0.98942 0.7232 0.05 0.0
C1604 C 1.0013 0.7036 0.01092 0.0
C1605 C 0.99115 0.72263 0.99819 0.0
N1606 N 0.96796 0.75848 0.99799 0.0
N1607 N 0.01756 0.69099 0.05037 0.0
C1608 C 0.97759 0.74025 0.01065 0.0
C1609 C 1.00258 0.7053 0.03727 0.0
N1610 N 0.95923 0.75329 0.04842 0.0
N1611 N 0.00991 0.68405 0.99769 0.0
H1612 H 0.0193 0.69178 0.06974 0.0
H1613 H 0.02981 0.67975 0.04217 0.0
H1614 H 0.00919 0.68243 0.97829 0.0
H1615 H 0.01541 0.66836 0.00562 0.0
H1616 H 0.94666 0.76368 0.03926 0.0
H1617 H 0.95705 0.75284 0.06732 0.0
H1618 H 0.96037 0.77362 0.00653 0.0
H1619 H 0.96862 0.759 0.97885 0.0
C1620 C 0.68265 0.26932 0.61884 0.0
C1621 C 0.68381 0.24313 0.61709 0.0
C1622 C 0.66947 0.24073 0.57238 0.0
C1623 C 0.66378 0.26589 0.57544 0.0
N1624 N 0.66512 0.30435 0.60153 0.0
N1625 N 0.68966 0.20709 0.59019 0.0
C1626 C 0.6709 0.28033 0.59853 0.0
C1627 C 0.68104 0.22998 0.59302 0.0
N1628 N 0.69419 0.28408 0.63896 0.0
N1629 N 0.66172 0.22641 0.55058 0.0
H1630 H 0.69854 0.19938 0.60518 0.0
H1631 H 0.69039 0.19709 0.57301 0.0
H1632 H 0.65294 0.2333 0.53512 0.0
H1633 H 0.66249 0.20725 0.54824 0.0
H1634 H 0.69581 0.3034 0.64009 0.0
H1635 H 0.70515 0.27753 0.65308 0.0
H1636 H 0.66521 0.31418 0.61893 0.0
H1637 H 0.65864 0.31387 0.58671 0.0
C1638 C 0.02462 0.39881 0.48622 0.0
C1639 C 0.02282 0.38559 0.46207 0.0
C1640 C 0.03095 0.3482 0.48146 0.0
C1641 C 0.0251 0.35921 0.50453 0.0
N1642 N 0.01801 0.39597 0.52982 0.0
N1643 N 0.01844 0.34518 0.43796 0.0
C1644 C 0.0228 0.38502 0.50737 0.0
C1645 C 0.02462 0.35961 0.45996 0.0
N1646 N 0.0284 0.42414 0.48891 0.0
N1647 N 0.03942 0.32535 0.47932 0.0
H1648 H 0.01005 0.35182 0.42213 0.0
H1649 H 0.01926 0.32595 0.43656 0.0
H1650 H 0.0445 0.31598 0.49473 0.0
H1651 H 0.0445 0.31598 0.49473 0.0
H1652 H 0.03171 0.43446 0.50622 0.0
H1653 H 0.03067 0.43452 0.4738 0.0
H1654 H 0.01373 0.41432 0.53249 0.0
H1655 H 0.01756 0.38605 0.54548 0.0
C1656 C 0.30214 0.58812 0.55543 0.0
C1657 C 0.28802 0.57642 0.53351 0.0
C1658 C 0.27684 0.54009 0.55625 0.0
C1659 C 0.29249 0.55103 0.57754 0.0
N1660 N 0.3233 0.58347 0.596 0.0
N1661 N 0.26561 0.53928 0.51178 0.0
C1662 C 0.30637 0.57435 0.57644 0.0
C1663 C 0.27647 0.5518 0.53356 0.0
N1664 N 0.3106 0.61276 0.55652 0.0
N1665 N 0.26127 0.51923 0.55802 0.0
H1666 H 0.26484 0.54712 0.49487 0.0
H1667 H 0.25924 0.52047 0.51008 0.0
H1668 H 0.2614 0.50981 0.57398 0.0
H1669 H 0.24714 0.51222 0.54426 0.0
H1670 H 0.31879 0.62319 0.57267 0.0
H1671 H 0.30735 0.62353 0.54176 0.0
H1672 H 0.33454 0.6 0.59648 0.0
H1673 H 0.32739 0.5734 0.61116 0.0
C1674 C 0.2953 0.45583 0.9282 0.0
C1675 C 0.2824 0.43592 0.93866 0.0
C1676 C 0.27999 0.46287 0.97703 0.0
C1677 C 0.29463 0.48211 0.96741 0.0
N1678 N 0.31783 0.49699 0.93486 0.0
N1679 N 0.26596 0.41891 0.97411 0.0
C1680 C 0.30265 0.47862 0.94319 0.0
C1681 C 0.27557 0.43907 0.96335 0.0
N1682 N 0.29986 0.45319 0.90371 0.0
N1683 N 0.27046 0.4673 0.99937 0.0
H1684 H 0.26291 0.4011 0.96477 0.0
H1685 H 0.26309 0.41925 0.99287 0.0
H1686 H 0.27399 0.48416 0.01043 0.0
H1687 H 0.25738 0.45501 0.00611 0.0
H1688 H 0.30692 0.46769 0.89422 0.0
H1689 H 0.29506 0.43675 0.89218 0.0
H1690 H 0.32721 0.4946 0.91899 0.0
H1691 H 0.32196 0.51456 0.94457 0.0
C1692 C 0.69195 0.00583 0.42395 0.0
C1693 C 0.70263 0.99247 0.4428 0.0
C1694 C 0.72501 0.96941 0.4126 0.0
C1695 C 0.71322 0.98155 0.39342 0.0
N1696 N 0.681 0.00705 0.37982 0.0
N1697 N 0.72415 0.95748 0.45444 0.0
C1698 C 0.69542 0.99865 0.39875 0.0
C1699 C 0.71752 0.97294 0.4369 0.0
N1700 N 0.67879 0.02546 0.43017 0.0
N1701 N 0.74391 0.95512 0.40771 0.0
H1702 H 0.71916 0.95953 0.47261 0.0
H1703 H 0.73256 0.94126 0.45034 0.0
H1704 H 0.75019 0.95248 0.3901 0.0
H1705 H 0.75487 0.94782 0.42153 0.0
H1706 H 0.673 0.03771 0.41757 0.0
H1707 H 0.67498 0.0304 0.4484 0.0
H1708 H 0.66614 0.01758 0.38266 0.0
H1709 H 0.68232 1.00169 0.36107 0.0
C1710 C 0.75353 0.98431 0.0962 0.0
C1711 C 0.76443 0.9665 0.11001 0.0
C1712 C 0.76032 0.93732 0.0722 0.0
C1713 C 0.74606 0.95401 0.05962 0.0
N1714 N 0.72312 0.99037 0.06274 0.0
N1715 N 0.77571 0.92465 0.11217 0.0
C1716 C 0.74081 0.97658 0.07264 0.0
C1717 C 0.7672 0.94254 0.09831 0.0
N1718 N 0.75553 0.00871 0.10552 0.0
N1719 N 0.76797 0.91711 0.05923 0.0
H1720 H 0.78133 0.92804 0.13116 0.0
H1721 H 0.77558 0.90612 0.10515 0.0
H1722 H 0.76343 0.91288 0.04014 0.0
H1723 H 0.78039 0.90568 0.06705 0.0
H1724 H 0.74985 0.02277 0.09501 0.0
H1725 H 0.76533 0.01512 0.12267 0.0
H1726 H 0.71755 0.00608 0.07241 0.0
H1727 H 0.71206 0.98449 0.04616 0.0
C1728 C 0.53922 0.30036 0.56259 0.0
C1729 C 0.53316 0.28022 0.57688 0.0
C1730 C 0.56837 0.25989 0.56158 0.0
C1731 C 0.57716 0.2819 0.5512 0.0
N1732 N 0.57183 0.32468 0.54487 0.0
N1733 N 0.54561 0.24298 0.59372 0.0
C1734 C 0.56271 0.30255 0.55233 0.0
C1735 C 0.54868 0.2605 0.57733 0.0
N1736 N 0.5223 0.31711 0.55824 0.0
N1737 N 0.57886 0.23828 0.5563 0.0
H1738 H 0.53201 0.2432 0.60622 0.0
H1739 H 0.55819 0.2298 0.59664 0.0
H1740 H 0.59264 0.2369 0.54406 0.0
H1741 H 0.57198 0.22129 0.56186 0.0
H1742 H 0.5247 0.33068 0.54597 0.0
H1743 H 0.50477 0.31583 0.5649 0.0
H1744 H 0.56331 0.34104 0.54787 0.0
H1745 H 0.58892 0.32719 0.53752 0.0
C1746 C 0.09125 0.78453 0.96623 0.0
C1747 C 0.11069 0.76926 0.96157 0.0
C1748 C 0.07959 0.73392 0.94755 0.0
C1749 C 0.06028 0.7497 0.95046 0.0
N1750 N 0.04769 0.79103 0.95749 0.0
N1751 N 0.12335 0.73091 0.9429 0.0
C1752 C 0.06615 0.77538 0.95814 0.0
C1753 C 0.10485 0.74438 0.95075 0.0
N1754 N 0.0966 0.80728 0.97951 0.0
N1755 N 0.07392 0.70879 0.9429 0.0
H1756 H 0.14205 0.73795 0.94472 0.0
H1757 H 0.11992 0.71365 0.93255 0.0
H1758 H 0.0557 0.70035 0.94015 0.0
H1759 H 0.0873 0.69613 0.94363 0.0
H1760 H 0.08297 0.81805 0.98576 0.0
H1761 H 0.11467 0.81441 0.98634 0.0
H1762 H 0.0511 0.8103 0.96059 0.0
H1763 H 0.02915 0.78487 0.95146 0.0
C1764 C 0.96453 0.27828 0.44506 0.0
C1765 C 0.93815 0.27541 0.44397 0.0
C1766 C 0.94043 0.28727 0.489 0.0
C1767 C 0.96671 0.28948 0.48995 0.0
N1768 N 1.00327 0.27844 0.47096 0.0
N1769 N 0.90135 0.27029 0.46593 0.0
C1770 C 0.97858 0.28208 0.4686 0.0
C1771 C 0.92615 0.2778 0.46629 0.0
N1772 N 0.97618 0.27855 0.42369 0.0
N1773 N 0.92919 0.29473 0.50961 0.0
H1774 H 0.89043 0.26269 0.44979 0.0
H1775 H 0.89217 0.26941 0.48198 0.0
H1776 H 0.93929 0.30051 0.52675 0.0
H1777 H 0.91013 0.29627 0.50936 0.0
H1778 H 0.99529 0.28304 0.42361 0.0
H1779 H 0.96651 0.27662 0.40601 0.0
H1780 H 0.01256 0.2713 0.45629 0.0
H1781 H 0.01361 0.27977 0.48826 0.0
C1782 C 0.43202 0.71333 0.96888 0.0
C1783 C 0.44177 0.70286 0.99025 0.0
C1784 C 0.40006 0.69725 0.00421 0.0
C1785 C 0.39051 0.70957 0.98369 0.0
N1786 N 0.39878 0.73469 0.95027 0.0
N1787 N 0.43625 0.68739 0.02989 0.0
C1788 C 0.40697 0.71921 0.96716 0.0
C1789 C 0.42612 0.69557 0.00842 0.0
N1790 N 0.44658 0.71721 0.94995 0.0
N1791 N 0.38426 0.68627 0.01912 0.0
H1792 H 0.45507 0.68466 0.03297 0.0
H1793 H 0.42639 0.68474 0.04526 0.0
H1794 H 0.3654 0.68823 0.01769 0.0
H1795 H 0.38955 0.67408 0.03198 0.0
H1796 H 0.43961 0.72212 0.93272 0.0
H1797 H 0.46514 0.71328 0.95061 0.0
H1798 H 0.41049 0.74408 0.9392 0.0
H1799 H 0.38076 0.74021 0.94922 0.0
C1800 C 0.58216 0.54872 0.26598 0.0
C1801 C 0.57943 0.53205 0.28449 0.0
C1802 C 0.55376 0.56118 0.3059 0.0
C1803 C 0.55469 0.5766 0.28605 0.0
N1804 N 0.56228 0.57886 0.24302 0.0
N1805 N 0.55667 0.5196 0.31846 0.0
C1806 C 0.56656 0.56838 0.26477 0.0
C1807 C 0.56339 0.53741 0.30338 0.0
N1808 N 0.60029 0.54658 0.25012 0.0
N1809 N 0.5448 0.56946 0.32757 0.0
H1810 H 0.56261 0.50181 0.31667 0.0
H1811 H 0.54318 0.52168 0.33087 0.0
H1812 H 0.53816 0.58684 0.3304 0.0
H1813 H 0.54603 0.55993 0.34345 0.0
H1814 H 0.60444 0.55989 0.23795 0.0
H1815 H 0.61284 0.53308 0.251 0.0
H1816 H 0.56936 0.57261 0.22656 0.0
H1817 H 0.54892 0.5914 0.24085 0.0
C1818 C 0.97265 0.08923 0.78128 0.0
C1819 C 0.96364 0.10855 0.76813 0.0
C1820 C 0.94085 0.07806 0.73639 0.0
C1821 C 0.95047 0.05864 0.7491 0.0
N1822 N 0.96663 0.04567 0.78824 0.0
N1823 N 0.93174 0.12113 0.73943 0.0
C1824 C 0.96325 0.06429 0.77327 0.0
C1825 C 0.94501 0.1028 0.74789 0.0
N1826 N 0.99113 0.09443 0.80033 0.0
N1827 N 0.92965 0.07349 0.71266 0.0
H1828 H 0.93447 0.13941 0.74771 0.0
H1829 H 0.91642 0.11762 0.72614 0.0
H1830 H 0.9273 0.05595 0.70291 0.0
H1831 H 0.92463 0.08755 0.70185 0.0
H1832 H 1.0003 0.08068 0.80858 0.0
H1833 H 0.99842 0.11252 0.80674 0.0
H1834 H 0.97443 0.04886 0.80665 0.0
H1835 H 0.95915 0.02738 0.78288 0.0
C1836 C 0.44712 0.9607 0.27075 0.0
C1837 C 0.44155 0.93883 0.28261 0.0
C1838 C 0.48202 0.9458 0.30762 0.0
C1839 C 0.48731 0.96805 0.29626 0.0
N1840 N 0.47714 0.99502 0.26453 0.0
N1841 N 0.45198 0.91152 0.31394 0.0
C1842 C 0.47058 0.97493 0.27696 0.0
C1843 C 0.45857 0.93159 0.30148 0.0
N1844 N 0.42922 0.96869 0.25472 0.0
N1845 N 0.49998 0.93801 0.32373 0.0
H1846 H 0.43556 0.8999 0.30918 0.0
H1847 H 0.46195 0.907 0.32994 0.0
H1848 H 0.51758 0.94772 0.32793 0.0
H1849 H 0.49848 0.92108 0.33139 0.0
H1850 H 0.43076 0.98577 0.24736 0.0
H1851 H 0.41165 0.95903 0.25016 0.0
H1852 H 0.46742 0.99923 0.24826 0.0
H1853 H 0.49337 0.00684 0.2694 0.0
C1854 C 0.00531 0.4355 0.72324 0.0
C1855 C 0.99525 0.44545 0.70171 0.0
C1856 C 0.97883 0.40371 0.68467 0.0
C1857 C 0.98303 0.39509 0.70867 0.0
N1858 N 0.9971 0.40546 0.75236 0.0
N1859 N 0.96957 0.4389 0.66241 0.0
C1860 C 0.99568 0.41164 0.72843 0.0
C1861 C 0.98125 0.42956 0.68241 0.0
N1862 N 0.02378 0.44899 0.73882 0.0
N1863 N 0.97387 0.38736 0.66387 0.0
H1864 H 0.9707 0.45782 0.66006 0.0
H1865 H 0.95712 0.42791 0.64926 0.0
H1866 H 0.97508 0.36842 0.66449 0.0
H1867 H 0.97234 0.39292 0.64591 0.0
H1868 H 0.03309 0.44162 0.75373 0.0
H1869 H 0.03147 0.46645 0.73505 0.0
H1870 H 0.00476 0.41788 0.76742 0.0
H1871 H 0.98811 0.38913 0.75741 0.0
C1872 C 0.74382 0.45731 0.47098 0.0
C1873 C 0.72534 0.43818 0.47516 0.0
C1874 C 0.70387 0.44121 0.43355 0.0
C1875 C 0.72303 0.45944 0.42891 0.0
N1876 N 0.76139 0.48467 0.44219 0.0
N1877 N 0.68818 0.41121 0.46078 0.0
C1878 C 0.74295 0.46758 0.44748 0.0
C1879 C 0.70538 0.43003 0.45652 0.0
N1880 N 0.76196 0.46583 0.48972 0.0
N1881 N 0.68439 0.43452 0.41564 0.0
H1882 H 0.68887 0.40255 0.47722 0.0
H1883 H 0.67353 0.40335 0.44808 0.0
H1884 H 0.68263 0.44271 0.39894 0.0
H1885 H 0.6693 0.42177 0.41729 0.0
H1886 H 0.77514 0.48082 0.48899 0.0
H1887 H 0.76335 0.45845 0.50687 0.0
H1888 H 0.77777 0.49009 0.45359 0.0
H1889 H 0.76056 0.49327 0.42569 0.0
C1890 C 0.729 0.55919 0.03607 0.0
C1891 C 0.73454 0.55793 0.062 0.0
C1892 C 0.7277 0.51232 0.05595 0.0
C1893 C 0.7217 0.51369 0.03019 0.0
N1894 N 0.72373 0.53706 0.99469 0.0
N1895 N 0.74623 0.53338 0.09543 0.0
C1896 C 0.72517 0.53678 0.01995 0.0
C1897 C 0.73622 0.53447 0.07155 0.0
N1898 N 0.72581 0.58157 0.02707 0.0
N1899 N 0.72383 0.49009 0.06571 0.0
H1900 H 0.7529 0.5492 0.10731 0.0
H1901 H 0.75007 0.51684 0.1027 0.0
H1902 H 0.71868 0.47342 0.05462 0.0
H1903 H 0.72463 0.48835 0.08475 0.0
H1904 H 0.71905 0.58334 0.00878 0.0
H1905 H 0.728 0.59835 0.03837 0.0
H1906 H 0.7278 0.55302 0.98585 0.0
H1907 H 0.72075 0.52068 0.98272 0.0
C1908 C 0.33905 0.01096 0.56886 0.0
C1909 C 0.32265 0.99406 0.55246 0.0
C1910 C 0.29444 0.98875 0.58419 0.0
C1911 C 0.31065 0.00567 0.60124 0.0
N1912 N 0.35288 0.02484 0.61186 0.0
N1913 N 0.28965 0.96074 0.54691 0.0
C1914 C 0.33453 0.01418 0.59429 0.0
C1915 C 0.30267 0.98025 0.56145 0.0
N1916 N 0.35806 0.02471 0.55999 0.0
N1917 N 0.27021 0.98209 0.58758 0.0
H1918 H 0.29524 0.95408 0.52981 0.0
H1919 H 0.27442 0.95048 0.55287 0.0
H1920 H 0.26078 0.98961 0.60198 0.0
H1921 H 0.26078 0.98961 0.60198 0.0
H1922 H 0.36876 0.03945 0.57064 0.0
H1923 H 0.36216 0.02201 0.54153 0.0
H1924 H 0.37102 0.02984 0.60782 0.0
H1925 H 0.35065 0.02609 0.63082 0.0
C1926 C 0.25102 0.06683 0.91366 0.0
C1927 C 0.23047 0.04839 0.90871 0.0
C1928 C 0.23142 0.04321 0.95297 0.0
C1929 C 0.25457 0.05812 0.9573 0.0
N1930 N 0.28857 0.08105 0.94041 0.0
N1931 N 0.20449 0.01512 0.92319 0.0
C1932 C 0.26495 0.06933 0.93734 0.0
C1933 C 0.22151 0.0355 0.92824 0.0
N1934 N 0.25699 0.08217 0.89594 0.0
N1935 N 0.21879 0.03661 0.97251 0.0
H1936 H 0.19742 0.00816 0.90516 0.0
H1937 H 0.19942 0.00367 0.93675 0.0
H1938 H 0.22504 0.04282 0.99097 0.0
H1939 H 0.20091 0.02736 0.97019 0.0
H1940 H 0.27027 0.09748 0.8995 0.0
H1941 H 0.24695 0.08108 0.87848 0.0
H1942 H 0.29774 0.0873 0.92568 0.0
H1943 H 0.29996 0.08246 0.95708 0.0
C1944 C 0.4568 0.703 0.42288 0.0
C1945 C 0.47743 0.71918 0.43442 0.0
C1946 C 0.45135 0.73361 0.46678 0.0
C1947 C 0.43154 0.71557 0.45658 0.0
N1948 N 0.41761 0.67962 0.42787 0.0
N1949 N 0.49572 0.74626 0.4703 0.0
C1950 C 0.4351 0.6991 0.43562 0.0
C1951 C 0.47513 0.73339 0.45728 0.0
N1952 N 0.4574 0.69225 0.39918 0.0
N1953 N 0.44722 0.75192 0.48449 0.0
H1954 H 0.51342 0.74658 0.46406 0.0
H1955 H 0.49561 0.75474 0.4883 0.0
H1956 H 0.43022 0.75309 0.49193 0.0
H1957 H 0.46011 0.76718 0.49034 0.0
H1958 H 0.44191 0.68245 0.38884 0.0
H1959 H 0.47263 0.69526 0.38891 0.0
H1960 H 0.42041 0.66557 0.41432 0.0
H1961 H 0.40156 0.67618 0.43688 0.0
C1962 C 0.9116 0.26602 0.03941 0.0
C1963 C 0.90628 0.24072 0.04362 0.0
C1964 C 0.94944 0.24049 0.0616 0.0
C1965 C 0.95295 0.2667 0.06151 0.0
N1966 N 0.93627 0.30496 0.05269 0.0
N1967 N 0.9275 0.20353 0.03952 0.0
C1968 C 0.93344 0.27964 0.05156 0.0
C1969 C 0.92713 0.22742 0.04969 0.0
N1970 N 0.8991 0.27539 0.01993 0.0
N1971 N 0.96773 0.22787 0.07217 0.0
H1972 H 0.91356 0.19523 0.02606 0.0
H1973 H 0.94312 0.19364 0.04133 0.0
H1974 H 0.98464 0.23667 0.0806 0.0
H1975 H 0.96501 0.20898 0.07451 0.0
H1976 H 0.90382 0.29307 0.01459 0.0
H1977 H 0.88689 0.26396 0.00687 0.0
H1978 H 0.92179 0.31531 0.04704 0.0
H1979 H 0.95229 0.31541 0.06143 0.0
C1980 C 0.05379 0.73519 0.54627 0.0
C1981 C 0.0738 0.7215 0.55417 0.0
C1982 C 0.0678 0.69514 0.5146 0.0
C1983 C 0.04725 0.70812 0.50707 0.0
N1984 N 0.02127 0.74117 0.51379 0.0
N1985 N 0.09764 0.6863 0.54795 0.0
C1986 C 0.04059 0.72857 0.52233 0.0
C1987 C 0.08022 0.70087 0.5389 0.0
N1988 N 0.04712 0.75395 0.56216 0.0
N1989 N 0.0754 0.67738 0.49821 0.0
H1990 H 0.10773 0.69028 0.56534 0.0
H1991 H 0.10093 0.66925 0.53912 0.0
H1992 H 0.06665 0.67303 0.48023 0.0
H1993 H 0.0915 0.66851 0.50142 0.0
H1994 H 0.0329 0.76504 0.55807 0.0
H1995 H 0.05554 0.75812 0.5803 0.0
H1996 H 0.01466 0.75614 0.52359 0.0
H1997 H 0.01212 0.73697 0.49594 0.0
C1998 C 0.57304 0.34027 0.01177 0.0
C1999 C 0.5575 0.32312 0.99484 0.0
C2000 C 0.59139 0.29746 0.98923 0.0
C2001 C 0.60758 0.3145 0.00625 0.0
N2002 N 0.61437 0.35653 0.02735 0.0
N2003 N 0.55476 0.29258 0.95964 0.0
C2004 C 0.59878 0.33736 0.01524 0.0
C2005 C 0.56796 0.30452 0.98055 0.0
N2006 N 0.56341 0.35924 0.02478 0.0
N2007 N 0.59664 0.27354 0.98359 0.0
H2008 H 0.53726 0.2975 0.95322 0.0
H2009 H 0.56241 0.27998 0.94753 0.0
H2010 H 0.61149 0.26572 0.9924 0.0
H2011 H 0.58419 0.26037 0.97264 0.0
H2012 H 0.57442 0.37178 0.03788 0.0
H2013 H 0.54456 0.36209 0.02248 0.0
H2014 H 0.63374 0.35661 0.02946 0.0
H2015 H 0.63374 0.35661 0.02946 0.0
C2016 C 0.45629 0.46952 0.73628 0.0
C2017 C 0.4359 0.47348 0.71917 0.0
C2018 C 0.43941 0.4327 0.69656 0.0
C2019 C 0.45781 0.42757 0.71519 0.0
N2020 N 0.48084 0.43967 0.75529 0.0
N2021 N 0.40498 0.45668 0.68573 0.0
C2022 C 0.46557 0.44566 0.73569 0.0
C2023 C 0.42668 0.45448 0.69996 0.0
N2024 N 0.46727 0.48872 0.75273 0.0
N2025 N 0.43415 0.41664 0.67551 0.0
H2026 H 0.39476 0.472 0.68809 0.0
H2027 H 0.39587 0.44232 0.6733 0.0
H2028 H 0.44316 0.40054 0.67259 0.0
H2029 H 0.42278 0.4205 0.66008 0.0
H2030 H 0.48382 0.48772 0.7638 0.0
H2031 H 0.46105 0.5064 0.75382 0.0
H2032 H 0.48446 0.45082 0.77209 0.0
H2033 H 0.48852 0.42272 0.75549 0.0
C2034 C 0.06635 0.92629 0.2271 0.0
C2035 C 0.04943 0.90946 0.23743 0.0
C2036 C 0.04742 0.94022 0.27272 0.0
C2037 C 0.06053 0.95831 0.26016 0.0
N2038 N 0.08106 0.96937 0.22438 0.0
N2039 N 0.02108 0.90147 0.26852 0.0
C2040 C 0.06988 0.95156 0.23716 0.0
C2041 C 0.03936 0.91659 0.25998 0.0
N2042 N 0.07932 0.91799 0.20801 0.0
N2043 N 0.04278 0.9457 0.29688 0.0
H2044 H 0.01417 0.88418 0.25945 0.0
H2045 H 0.0112 0.90706 0.28335 0.0
H2046 H 0.04896 0.96278 0.30689 0.0
H2047 H 0.0352 0.93254 0.30768 0.0
H2048 H 0.0936 0.92886 0.20129 0.0
H2049 H 0.07747 0.89947 0.20047 0.0
H2050 H 0.0856 0.96592 0.20619 0.0
H2051 H 0.08428 0.98802 0.23134 0.0
C2052 C 0.54977 0.0482 0.72748 0.0
C2053 C 0.55337 0.0734 0.72251 0.0
C2054 C 0.51101 0.07022 0.70131 0.0
C2055 C 0.50677 0.04564 0.70807 0.0
N2056 N 0.52075 0.01259 0.7314 0.0
N2057 N 0.53609 0.10989 0.70844 0.0
C2058 C 0.52566 0.0352 0.72262 0.0
C2059 C 0.5336 0.08487 0.71048 0.0
N2060 N 0.56975 0.03625 0.73559 0.0
N2061 N 0.49377 0.0792 0.68537 0.0
H2062 H 0.55217 0.12139 0.71509 0.0
H2063 H 0.52148 0.11965 0.70203 0.0
H2064 H 0.47644 0.06948 0.67953 0.0
H2065 H 0.49716 0.09555 0.67697 0.0
H2066 H 0.5689 0.01714 0.73675 0.0
H2067 H 0.58784 0.04502 0.73877 0.0
H2068 H 0.53294 0.0053 0.74417 0.0
H2069 H 0.50363 1.00198 0.72783 0.0
C2070 C 0.98137 0.57021 0.33531 0.0
C2071 C 0.99609 0.55235 0.32501 0.0
C2072 C 0.02362 0.58449 0.31047 0.0
C2073 C 0.00933 0.60273 0.32105 0.0
N2074 N 0.97821 0.61381 0.34814 0.0
N2075 N 0.03562 0.54278 0.31132 0.0
C2076 C 0.98933 0.59588 0.33508 0.0
C2077 C 0.01886 0.55969 0.31569 0.0
N2078 N 0.95955 0.56258 0.34445 0.0
N2079 N 0.04037 0.59036 0.29388 0.0
H2080 H 0.03253 0.52424 0.31496 0.0
H2081 H 0.05355 0.54779 0.30668 0.0
H2082 H 0.04337 0.60798 0.28781 0.0
H2083 H 0.04932 0.57703 0.28395 0.0
H2084 H 0.94663 0.57463 0.34984 0.0
H2085 H 0.95392 0.54385 0.34562 0.0
H2086 H 0.96493 0.60993 0.36039 0.0
H2087 H 0.98379 0.63274 0.3482 0.0
C2088 C 0.41479 0.665 0.32769 0.0
C2089 C 0.40335 0.64482 0.33905 0.0
C2090 C 0.44052 0.62213 0.33279 0.0
C2091 C 0.45001 0.6407 0.3183 0.0
N2092 N 0.44496 0.67919 0.30013 0.0
N2093 N 0.40452 0.6028 0.35014 0.0
C2094 C 0.43684 0.66201 0.31537 0.0
C2095 C 0.41616 0.6231 0.34126 0.0
N2096 N 0.40501 0.68741 0.32938 0.0
N2097 N 0.45487 0.60358 0.33861 0.0
H2098 H 0.38672 0.60252 0.35609 0.0
H2099 H 0.41162 0.58555 0.34972 0.0
H2100 H 0.47249 0.60231 0.33243 0.0
H2101 H 0.45034 0.59091 0.35124 0.0
H2102 H 0.41377 0.70356 0.32377 0.0
H2103 H 0.38935 0.69048 0.33873 0.0
H2104 H 0.43451 0.69331 0.29457 0.0
H2105 H 0.4615 0.6784 0.29167 0.0
C2106 C 0.10908 0.31445 0.77282 0.0
C2107 C 0.12001 0.29186 0.77049 0.0
C2108 C 0.08313 0.2739 0.74239 0.0
C2109 C 0.07424 0.29793 0.74176 0.0
N2110 N 0.08987 0.34142 0.74657 0.0
N2111 N 0.11856 0.25014 0.75105 0.0
C2112 C 0.08974 0.31848 0.75479 0.0
C2113 C 0.10726 0.27152 0.75477 0.0
N2114 N 0.11854 0.333 0.79067 0.0
N2115 N 0.06909 0.25334 0.73091 0.0
H2116 H 0.13543 0.24741 0.76085 0.0
H2117 H 0.11192 0.23578 0.73742 0.0
H2118 H 0.05322 0.25426 0.71904 0.0
H2119 H 0.07303 0.23527 0.73366 0.0
H2120 H 0.10987 0.34929 0.79372 0.0
H2121 H 0.13336 0.33099 0.80377 0.0
H2122 H 0.10043 0.35706 0.75583 0.0
H2123 H 0.08592 0.34286 0.72767 0.0
C2124 C 0.82194 0.96922 0.67409 0.0
C2125 C 0.81524 0.99236 0.66659 0.0
C2126 C 0.85858 0.01052 0.67664 0.0
C2127 C 0.86484 0.98795 0.68584 0.0
N2128 N 0.85215 0.94685 0.6966 0.0
N2129 N 0.82596 0.03595 0.66348 0.0
C2130 C 0.84639 0.9676 0.68553 0.0
C2131 C 0.83323 0.0133 0.66867 0.0
N2132 N 0.8051 0.94863 0.66959 0.0
N2133 N 0.877 0.029 0.6748 0.0
H2134 H 0.80773 0.03851 0.65699 0.0
H2135 H 0.83747 0.05251 0.66722 0.0
H2136 H 0.89565 0.02753 0.68056 0.0
H2137 H 0.8742 0.04492 0.66591 0.0
H2138 H 0.80961 0.93066 0.67192 0.0
H2139 H 0.78692 0.94918 0.66165 0.0
H2140 H 0.83897 0.93246 0.69942 0.0
H2141 H 0.86994 0.94482 0.70479 0.0
C2142 C 0.65821 0.05288 0.31464 0.0
C2143 C 0.66852 0.02983 0.3103 0.0
C2144 C 0.62789 0.0074 0.31383 0.0
C2145 C 0.61708 0.03002 0.3148 0.0
N2146 N 0.62071 0.07456 0.31703 0.0
N2147 N 0.66092 0.98549 0.29878 0.0
C2148 C 0.63195 0.05295 0.31592 0.0
C2149 C 0.65284 0.00713 0.3082 0.0
N2150 N 0.67325 0.07459 0.31599 0.0
N2151 N 0.61395 0.98601 0.31753 0.0
H2152 H 0.64945 0.96893 0.29458 0.0
H2153 H 0.678 0.98479 0.29182 0.0
H2154 H 0.59559 0.98587 0.32208 0.0
H2155 H 0.62119 0.96894 0.31844 0.0
H2156 H 0.66788 0.09191 0.32196 0.0
H2157 H 0.69134 0.07517 0.31083 0.0
H2158 H 0.6298 0.092 0.31557 0.0
H2159 H 0.6017 0.07482 0.31896 0.0
C2160 C 0.3243 0.41079 0.66312 0.0
C2161 C 0.34038 0.40177 0.64576 0.0
C2162 C 0.33874 0.44106 0.6257 0.0
C2163 C 0.3204 0.44859 0.64122 0.0
N2164 N 0.29315 0.43876 0.67271 0.0
N2165 N 0.36089 0.40731 0.60865 0.0
C2166 C 0.31248 0.43289 0.65935 0.0
C2167 C 0.34719 0.41673 0.62661 0.0
N2168 N 0.32102 0.39866 0.68385 0.0
N2169 N 0.34838 0.4573 0.61035 0.0
H2170 H 0.36744 0.3898 0.6087 0.0
H2171 H 0.36424 0.41601 0.59273 0.0
H2172 H 0.34207 0.47479 0.6088 0.0
H2173 H 0.36372 0.45421 0.60058 0.0
H2174 H 0.31182 0.40571 0.69863 0.0
H2175 H 0.32967 0.38274 0.68749 0.0
H2176 H 0.28464 0.42671 0.68405 0.0
H2177 H 0.28406 0.45476 0.67085 0.0
C2178 C 0.32907 0.64553 0.01393 0.0
C2179 C 0.31499 0.66176 0.02795 0.0
C2180 C 0.29925 0.62613 0.0493 0.0
C2181 C 0.31294 0.61057 0.03468 0.0
N2182 N 0.34686 0.60621 0.00957 0.0
N2183 N 0.28099 0.66511 0.05389 0.0
C2184 C 0.33006 0.62066 0.01943 0.0
C2185 C 0.29888 0.65157 0.04476 0.0
N2186 N 0.33833 0.65253 0.99284 0.0
N2187 N 0.28652 0.6164 0.06744 0.0
H2188 H 0.27853 0.68306 0.04947 0.0
H2189 H 0.26703 0.6579 0.06401 0.0
H2190 H 0.28664 0.59774 0.0708 0.0
H2191 H 0.27813 0.62713 0.08061 0.0
H2192 H 0.34616 0.64068 0.98018 0.0
H2193 H 0.33518 0.66941 0.98654 0.0
H2194 H 0.3615 0.61331 1.00017 0.0
H2195 H 0.3477 0.58773 0.01322 0.0
C2196 C 0.76217 0.10415 0.27178 0.0
C2197 C 0.77347 0.11853 0.2937 0.0
C2198 C 0.75286 0.08923 0.31874 0.0
C2199 C 0.74385 0.07255 0.29728 0.0
N2200 N 0.7395 0.06575 0.25239 0.0
N2201 N 0.78475 0.12071 0.33788 0.0
C2202 C 0.74858 0.08043 0.27348 0.0
C2203 C 0.771 0.10934 0.31698 0.0
N2204 N 0.76396 0.11354 0.24934 0.0
N2205 N 0.74139 0.08879 0.34007 0.0
H2206 H 0.79751 0.13622 0.33771 0.0
H2207 H 0.78518 0.11307 0.35491 0.0
H2208 H 0.72298 0.08168 0.33965 0.0
H2209 H 0.7471 0.10073 0.35608 0.0
H2210 H 0.75393 0.10578 0.23281 0.0
H2211 H 0.77502 0.12991 0.24749 0.0
H2212 H 0.74541 0.06813 0.23491 0.0
H2213 H 0.72562 0.05131 0.25236 0.0
C2214 C 0.66106 0.83192 0.01391 0.0
C2215 C 0.66564 0.81344 0.99503 0.0
C2216 C 0.68977 0.84511 0.97476 0.0
C2217 C 0.68332 0.86383 0.99236 0.0
N2218 N 0.66109 0.87591 0.02735 0.0
N2219 N 0.68134 0.80267 0.95562 0.0
C2220 C 0.66851 0.85747 0.01162 0.0
C2221 C 0.67926 0.8201 0.97497 0.0
N2222 N 0.65019 0.82493 0.03438 0.0
N2223 N 0.70628 0.85121 0.95804 0.0
H2224 H 0.67399 0.78418 0.95514 0.0
H2225 H 0.68855 0.80685 0.93913 0.0
H2226 H 0.71408 0.86937 0.95716 0.0
H2227 H 0.71384 0.83814 0.94645 0.0
H2228 H 0.64866 0.83703 0.05005 0.0
H2229 H 0.64425 0.80648 0.03654 0.0
H2230 H 0.64794 0.87288 0.03993 0.0
H2231 H 0.66702 0.89467 0.02678 0.0
C2232 C 0.62541 0.32096 0.4049 0.0
C2233 C 0.64672 0.33757 0.40238 0.0
C2234 C 0.66066 0.33535 0.44688 0.0
C2235 C 0.64023 0.31739 0.44881 0.0
N2236 N 0.60496 0.29068 0.42889 0.0
N2237 N 0.68586 0.35905 0.42017 0.0
C2238 C 0.62304 0.30966 0.42762 0.0
C2239 C 0.66464 0.34444 0.42324 0.0
N2240 N 0.60711 0.31627 0.38556 0.0
N2241 N 0.67627 0.34364 0.46774 0.0
H2242 H 0.68894 0.36648 0.40346 0.0
H2243 H 0.70101 0.3629 0.43356 0.0
H2244 H 0.67383 0.33734 0.4851 0.0
H2245 H 0.69073 0.3577 0.46842 0.0
H2246 H 0.58988 0.3066 0.38689 0.0
H2247 H 0.60833 0.32372 0.36855 0.0
H2248 H 0.59391 0.28175 0.41344 0.0
H2249 H 0.60199 0.28269 0.44534 0.0
C2250 C 0.05356 0.29731 0.65477 0.0
C2251 C 0.04016 0.31547 0.66674 0.0
C2252 C 0.02953 0.33158 0.62649 0.0
C2253 C 0.03971 0.31118 0.61445 0.0
N2254 N 0.06193 0.27472 0.6162 0.0
N2255 N 0.02189 0.35445 0.66479 0.0
C2256 C 0.05228 0.29432 0.62835 0.0
C2257 C 0.03029 0.33412 0.65292 0.0
N2258 N 0.06852 0.28379 0.66884 0.0
N2259 N 0.01739 0.34745 0.61251 0.0
H2260 H 0.01892 0.35586 0.68337 0.0
H2261 H 0.01941 0.37073 0.65644 0.0
H2262 H 0.0175 0.34676 0.59322 0.0
H2263 H 0.00628 0.36053 0.61971 0.0
H2264 H 0.08053 0.27172 0.66153 0.0
H2265 H 0.07095 0.28667 0.68819 0.0
H2266 H 0.06827 0.25982 0.62494 0.0
H2267 H 0.06252 0.27273 0.59694 0.0
C2268 C 0.28875 0.78013 0.1054 0.0
C2269 C 0.29565 0.7666 0.12565 0.0
C2270 C 0.30268 0.73119 0.09608 0.0
C2271 C 0.29553 0.74476 0.07569 0.0
N2272 N 0.29443 0.78612 0.06286 0.0
N2273 N 0.31431 0.73138 0.14057 0.0
C2274 C 0.29193 0.77034 0.0808 0.0
C2275 C 0.30397 0.74263 0.12107 0.0
N2276 N 0.27915 0.80243 0.10954 0.0
N2277 N 0.30915 0.70761 0.09156 0.0
H2278 H 0.31576 0.73925 0.15897 0.0
H2279 H 0.32317 0.71516 0.13857 0.0
H2280 H 0.313 0.70057 0.07403 0.0
H2281 H 0.31075 0.69515 0.10503 0.0
H2282 H 0.27143 0.81181 0.0952 0.0
H2283 H 0.27693 0.81048 0.12732 0.0
H2284 H 0.294 0.8053 0.06597 0.0
H2285 H 0.30139 0.78053 0.04633 0.0
C2286 C 0.01238 0.68798 0.82139 0.0
C2287 C 0.99531 0.66777 0.81054 0.0
C2288 C 0.97597 0.66684 0.84982 0.0
C2289 C 0.99086 0.68908 0.85932 0.0
N2290 N 0.02028 0.72326 0.85257 0.0
N2291 N 0.95862 0.63979 0.81324 0.0
C2292 C 0.00832 0.70032 0.84472 0.0
C2293 C 0.97657 0.65753 0.82449 0.0
N2294 N 0.03281 0.69503 0.80962 0.0
N2295 N 0.96132 0.65453 0.86502 0.0
H2296 H 0.95828 0.63259 0.79472 0.0
H2297 H 0.9429 0.63364 0.82161 0.0
H2298 H 0.96001 0.66103 0.88351 0.0
H2299 H 0.95209 0.63691 0.85996 0.0
H2300 H 0.04721 0.70797 0.8178 0.0
H2301 H 0.03658 0.68614 0.79268 0.0
H2302 H 0.03135 0.73344 0.84153 0.0
H2303 H 0.01715 0.73317 0.86918 0.0
C2304 C 0.59892 0.38774 0.68346 0.0
C2305 C 0.60455 0.36585 0.66939 0.0
C2306 C 0.56295 0.34547 0.67499 0.0
C2307 C 0.55764 0.36724 0.68946 0.0
N2308 N 0.56828 0.41021 0.70428 0.0
N2309 N 0.59231 0.32406 0.65105 0.0
C2310 C 0.57498 0.38872 0.69269 0.0
C2311 C 0.58653 0.34479 0.66483 0.0
N2312 N 0.61699 0.40719 0.68896 0.0
N2313 N 0.54524 0.32552 0.67098 0.0
H2314 H 0.60905 0.32328 0.64297 0.0
H2315 H 0.58087 0.30752 0.6473 0.0
H2316 H 0.52772 0.32576 0.67759 0.0
H2317 H 0.54721 0.30883 0.66074 0.0
H2318 H 0.61546 0.42261 0.70136 0.0
H2319 H 0.63441 0.4074 0.68209 0.0
H2320 H 0.57879 0.42734 0.70535 0.0
H2321 H 0.55107 0.41133 0.71138 0.0
C2322 C 0.90841 0.69627 0.24256 0.0
C2323 C 0.89051 0.67522 0.23962 0.0
C2324 C 0.92345 0.64937 0.25366 0.0
C2325 C 0.94072 0.67092 0.25873 0.0
N2326 N 0.94755 0.71565 0.26348 0.0
N2327 N 0.88001 0.63243 0.24664 0.0
C2328 C 0.93254 0.69458 0.25478 0.0
C2329 C 0.89777 0.65191 0.24633 0.0
N2330 N 0.90265 0.71776 0.23296 0.0
N2331 N 0.9316 0.62642 0.25541 0.0
H2332 H 0.86113 0.63356 0.2416 0.0
H2333 H 0.88363 0.61582 0.25389 0.0
H2334 H 0.95008 0.62397 0.26097 0.0
H2335 H 0.92058 0.60988 0.24954 0.0
H2336 H 0.91577 0.73286 0.23218 0.0
H2337 H 0.88537 0.71959 0.22351 0.0
H2338 H 0.9418 0.73347 0.26329 0.0
H2339 H 0.96476 0.71507 0.27345 0.0
C2340 C 0.18515 0.9971 0.31201 0.0
C2341 C 0.19571 0.00515 0.3366 0.0
C2342 C 0.15722 0.02345 0.34548 0.0
C2343 C 0.14846 0.01873 0.31994 0.0
N2344 N 0.15489 0.00351 0.27806 0.0
N2345 N 0.19297 0.02834 0.37628 0.0
C2346 C 0.16257 0.00611 0.30295 0.0
C2347 C 0.18197 0.01875 0.35337 0.0
N2348 N 0.19649 0.98042 0.29754 0.0
N2349 N 0.14187 0.03235 0.3622 0.0
H2350 H 0.21111 0.02552 0.38276 0.0
H2351 H 0.18484 0.04073 0.38815 0.0
H2352 H 0.12376 0.03641 0.35699 0.0
H2353 H 0.14626 0.0337 0.3814 0.0
H2354 H 0.18846 0.972 0.28035 0.0
H2355 H 0.21285 0.97311 0.30383 0.0
H2356 H 0.1658 0.99684 0.26452 0.0
H2357 H 0.13845 0.00994 0.27075 0.0
C2358 C 0.36176 0.99747 0.75279 0.0
C2359 C 0.34463 0.00531 0.73427 0.0
C2360 C 0.37591 1.00282 0.70405 0.0
C2361 C 0.39322 0.99617 0.72269 0.0
N2362 N 0.4041 0.98807 0.76497 0.0
N2363 N 0.33246 0.00533 0.69106 0.0
C2364 C 0.38655 0.99367 0.74714 0.0
C2365 C 0.35103 0.00525 0.7095 0.0
N2366 N 0.35357 0.99139 0.77484 0.0
N2367 N 0.38345 0.00764 0.68134 0.0
H2368 H 0.33473 1.00171 0.67223 0.0
H2369 H 0.33473 1.00171 0.67223 0.0
H2370 H 0.40148 0.00576 0.67654 0.0
H2371 H 0.37263 0.01571 0.66803 0.0
H2372 H 0.36421 0.98346 0.78839 0.0
H2373 H 0.33507 0.99194 0.77869 0.0
H2374 H 0.4015 0.98824 0.78377 0.0
H2375 H 0.42215 0.98474 0.76116 0.0
C2376 C 0.66049 0.58404 0.34604 0.0
C2377 C 0.67023 0.60304 0.36501 0.0
C2378 C 0.69496 0.57285 0.38537 0.0
C2379 C 0.68663 0.55444 0.36543 0.0
N2380 N 0.66347 0.54295 0.32537 0.0
N2381 N 0.69807 0.61643 0.40179 0.0
C2382 C 0.66982 0.56014 0.34547 0.0
C2383 C 0.68778 0.59763 0.38449 0.0
N2384 N 0.642 0.58877 0.32871 0.0
N2385 N 0.70957 0.56652 0.40527 0.0
H2386 H 0.69263 0.63443 0.40224 0.0
H2387 H 0.7129 0.61473 0.4149 0.0
H2388 H 0.71539 0.54875 0.40613 0.0
H2389 H 0.71456 0.57812 0.42159 0.0
H2390 H 0.63197 0.57515 0.31609 0.0
H2391 H 0.63533 0.60619 0.32803 0.0
H2392 H 0.65413 0.54687 0.30876 0.0
H2393 H 0.66878 0.5249 0.32464 0.0
C2394 C 0.71586 0.35587 0.01425 0.0
C2395 C 0.73415 0.34524 1.00079 0.0
C2396 C 0.7367 0.38152 0.97673 0.0
C2397 C 0.71999 0.39289 0.99187 0.0
N2398 N 0.69774 0.39335 0.02845 0.0
N2399 N 0.76592 0.35032 0.9726 0.0
C2400 C 0.71095 0.3809 0.01185 0.0
C2401 C 0.7458 0.35881 0.98301 0.0
N2402 N 0.7019 0.34093 0.02757 0.0
N2403 N 0.74324 0.39193 0.95589 0.0
H2404 H 0.77371 0.33435 0.97762 0.0
H2405 H 0.77638 0.3604 0.96099 0.0
H2406 H 0.73756 0.40893 0.95113 0.0
H2407 H 0.75278 0.38286 0.94247 0.0
H2408 H 0.68633 0.34622 0.036 0.0
H2409 H 0.68633 0.34622 0.036 0.0
H2410 H 0.69307 0.38645 0.04496 0.0
H2411 H 0.69364 0.41164 0.02692 0.0
C2412 C 0.24764 0.8952 0.65491 0.0
C2413 C 0.2372 0.88785 0.67663 0.0
C2414 C 0.24772 0.93005 0.69652 0.0
C2415 C 0.25514 0.93865 0.67394 0.0
N2416 N 0.25831 0.92905 0.63007 0.0
N2417 N 0.22185 0.90012 0.71581 0.0
C2418 C 0.25398 0.92109 0.65261 0.0
C2419 C 0.23532 0.90593 0.69658 0.0
N2420 N 0.25216 0.87746 0.63681 0.0
N2421 N 0.2544 0.94398 0.71852 0.0
H2422 H 0.21247 0.88258 0.71652 0.0
H2423 H 0.21794 0.91344 0.72963 0.0
H2424 H 0.26753 0.95904 0.71953 0.0
H2425 H 0.25086 0.93809 0.73577 0.0
H2426 H 0.26224 0.8814 0.62188 0.0
H2427 H 0.24755 0.85851 0.63777 0.0
H2428 H 0.25583 0.91742 0.61352 0.0
H2429 H 0.26197 0.94776 0.62763 0.0
C2430 C 0.31569 0.18254 0.99219 0.0
C2431 C 0.33772 0.19464 0.00566 0.0
C2432 C 0.34114 0.15866 0.02978 0.0
C2433 C 0.31728 0.14844 0.01877 0.0
N2434 N 0.27962 0.15308 0.99305 0.0
N2435 N 0.37001 0.19568 0.03959 0.0
C2436 C 0.30394 0.16096 1.00085 0.0
C2437 C 0.35025 0.18302 0.02498 0.0
N2438 N 0.3062 0.19153 0.97095 0.0
N2439 N 0.35511 0.14512 0.04484 0.0
H2440 H 0.37721 0.21358 0.03682 0.0
H2441 H 0.37805 0.18926 0.05568 0.0
H2442 H 0.34879 0.12749 0.04932 0.0
H2443 H 0.37367 0.1505 0.05127 0.0
H2444 H 0.29157 0.18208 0.95906 0.0
H2445 H 0.31463 0.20715 0.96392 0.0
H2446 H 0.26837 0.16282 0.98156 0.0
H2447 H 0.2699 0.13843 1.00039 0.0
C2448 C 0.37604 0.65962 0.58491 0.0
C2449 C 0.36498 0.67215 0.60498 0.0
C2450 C 0.35759 0.70593 0.57849 0.0
C2451 C 0.37162 0.6954 0.56011 0.0
N2452 N 0.39426 0.6618 0.54542 0.0
N2453 N 0.32852 0.6946 0.60732 0.0
C2454 C 0.38086 0.67209 0.5632 0.0
C2455 C 0.351 0.69203 0.59831 0.0
N2456 N 0.37762 0.63465 0.58432 0.0
N2457 N 0.34996 0.72914 0.57704 0.0
H2458 H 0.32024 0.68123 0.61753 0.0
H2459 H 0.31669 0.70756 0.60142 0.0
H2460 H 0.35428 0.74018 0.5629 0.0
H2461 H 0.34129 0.73806 0.5913 0.0
H2462 H 0.38334 0.6239 0.56939 0.0
H2463 H 0.36911 0.62402 0.59679 0.0
H2464 H 0.40388 0.64623 0.54769 0.0
H2465 H 0.39729 0.67007 0.52912 0.0
C2466 C 0.98823 0.7263 0.34768 0.0
C2467 C 0.01026 0.74025 0.3428 0.0
C2468 C 0.03047 0.73213 0.38322 0.0
C2469 C 0.00941 0.71591 0.3868 0.0
N2470 N 0.96859 0.69583 0.37203 0.0
N2471 N 0.05308 0.75625 0.35638 0.0
C2472 C 0.98813 0.71277 0.36907 0.0
C2473 C 0.03136 0.74343 0.36068 0.0
N2474 N 0.96774 0.72644 0.33117 0.0
N2475 N 0.05038 0.73599 0.40086 0.0
H2476 H 0.05576 0.7647 0.34013 0.0
H2477 H 0.05576 0.7647 0.34013 0.0
H2478 H 0.05055 0.72807 0.41773 0.0
H2479 H 0.06636 0.74755 0.39871 0.0
H2480 H 0.95007 0.71803 0.33321 0.0
H2481 H 0.95007 0.71803 0.33321 0.0
H2482 H 0.95419 0.68982 0.35825 0.0
H2483 H 0.9674 0.68654 0.388 0.0
C2484 C 0.69306 0.2273 0.90957 0.0
C2485 C 0.68131 0.23988 0.89053 0.0
C2486 C 0.66923 0.27062 0.9226 0.0
C2487 C 0.67934 0.25701 0.94173 0.0
N2488 N 0.6984 0.22069 0.95347 0.0
N2489 N 0.65501 0.27131 0.87879 0.0
C2490 C 0.6905 0.23483 0.93517 0.0
C2491 C 0.66839 0.26086 0.89706 0.0
N2492 N 0.70729 0.20855 0.90316 0.0
N2493 N 0.66145 0.29344 0.92872 0.0
H2494 H 0.65446 0.26512 0.85995 0.0
H2495 H 0.64289 0.28478 0.88236 0.0
H2496 H 0.66286 0.30156 0.94698 0.0
H2497 H 0.65595 0.30538 0.91569 0.0
H2498 H 0.71875 0.20044 0.91592 0.0
H2499 H 0.70902 0.20217 0.88472 0.0
H2500 H 0.69729 0.22573 0.97233 0.0
H2501 H 0.70445 0.20314 0.95004 0.0
C2502 C 0.99548 0.34033 0.17341 0.0
C2503 C 0.00945 0.33537 0.19555 0.0
C2504 C 0.0357 0.31013 0.17098 0.0
C2505 C 0.02292 0.31655 0.14888 0.0
N2506 N 0.9934 0.34074 0.12849 0.0
N2507 N 0.04621 0.32031 0.21527 0.0
C2508 C 1.00359 0.33255 0.14991 0.0
C2509 C 0.0305 0.32155 0.19431 0.0
N2510 N 0.97407 0.35178 0.17486 0.0
N2511 N 0.05258 0.29284 0.16973 0.0
H2512 H 0.04344 0.32888 0.23267 0.0
H2513 H 0.06326 0.31283 0.21504 0.0
H2514 H 0.05732 0.28449 0.15293 0.0
H2515 H 0.06039 0.28531 0.1853 0.0
H2516 H 0.96167 0.35365 0.15948 0.0
H2517 H 0.96762 0.35775 0.19175 0.0
H2518 H 0.98118 0.35453 0.1282 0.0
H2519 H 0.99864 0.33513 0.11095 0.0
loop_
_geom_bond_atom_site_label_1
_geom_bond_atom_site_label_2
_geom_bond_distance
_geom_bond_site_symmetry_2
_ccdc_geom_bond_type
C0 C1 1.264 . S
C0 C5 1.479 . S
C0 C10 1.465 . S
C1 C0 1.264 . S
C1 C3 1.339 . S
C1 H28 0.931 . S
C2 C3 1.395 . S
C2 C4 1.320 . S
C3 C1 1.339 . S
C3 C2 1.395 . S
C3 H29 0.929 . S
C4 C2 1.320 . S
C4 C5 1.405 . S
C4 H30 0.930 . S
C5 C0 1.479 . S
C5 C4 1.405 . S
C5 H31 0.931 . S
U6 O7 2.454 . S
U6 O8 2.458 . S
U6 C9 2.984 . S
U6 C10 2.847 . S
U6 C23 2.882 . S
U6 O24 2.441 . S
U6 O25 2.420 . S
U6 O26 2.455 . S
U6 O27 2.449 . S
O7 U6 2.454 . S
O7 C9 1.353 . S
O8 U6 2.458 . S
O8 C9 1.286 . S
C9 U6 2.984 . S
C9 O7 1.353 . S
C9 O8 1.286 . S
C9 C11 1.363 . S
C10 C0 1.465 . S
C10 U6 2.847 . S
C10 O24 1.249 . S
C10 O25 1.202 . S
C11 C9 1.363 . S
C11 C13 1.408 . S
C11 C16 1.342 . S
C12 C13 1.310 . S
C12 C15 1.461 . S
C12 H32 0.932 . S
C13 C11 1.408 . S
C13 C12 1.310 . S
C13 H33 0.930 . S
C14 C15 1.474 . S
C14 C16 1.285 . S
C14 H34 0.929 . S
C15 C12 1.461 . S
C15 C14 1.474 . S
C16 C11 1.342 . S
C16 C14 1.285 . S
C16 H35 0.930 . S
C17 C20 1.424 . S
C17 C22 1.245 . S
C17 C23 1.428 . S
C18 C21 1.260 . S
C18 C22 1.477 . S
C18 H36 0.932 . S
C19 C20 1.384 . S
C19 C21 1.479 . S
C19 H37 0.929 . S
C20 C17 1.424 . S
C20 C19 1.384 . S
C20 H38 0.928 . S
C21 C18 1.260 . S
C21 C19 1.479 . S
C22 C17 1.245 . S
C22 C18 1.477 . S
C22 H39 0.932 . S
C23 U6 2.882 . S
C23 C17 1.428 . S
C23 O26 1.301 . S
C23 O27 1.282 . S
O24 U6 2.441 . S
O24 C10 1.249 . S
O25 U6 2.420 . S
O25 C10 1.202 . S
O26 U6 2.455 . S
O26 C23 1.301 . S
O27 U6 2.449 . S
O27 C23 1.282 . S
H28 C1 0.931 . S
H29 C3 0.929 . S
H30 C4 0.930 . S
H31 C5 0.931 . S
H32 C12 0.932 . S
H33 C13 0.930 . S
H34 C14 0.929 . S
H35 C16 0.930 . S
H36 C18 0.932 . S
H37 C19 0.929 . S
H38 C20 0.928 . S
H39 C22 0.932 . S
C40 C41 1.264 . S
C40 C45 1.479 . S
C40 C50 1.465 . S
C41 C40 1.264 . S
C41 C43 1.339 . S
C41 H68 0.931 . S
C42 C43 1.395 . S
C42 C44 1.320 . S
C43 C41 1.339 . S
C43 C42 1.395 . S
C43 H69 0.929 . S
C44 C42 1.320 . S
C44 C45 1.405 . S
C44 H70 0.930 . S
C45 C40 1.479 . S
C45 C44 1.405 . S
C45 H71 0.931 . S
U46 O47 2.454 . S
U46 O48 2.458 . S
U46 C49 2.984 . S
U46 C50 2.847 . S
U46 C63 2.882 . S
U46 O64 2.441 . S
U46 O65 2.420 . S
U46 O66 2.455 . S
U46 O67 2.449 . S
O47 U46 2.454 . S
O47 C49 1.353 . S
O48 U46 2.458 . S
O48 C49 1.286 . S
C49 U46 2.984 . S
C49 O47 1.353 . S
C49 O48 1.286 . S
C49 C51 1.363 . S
C50 C40 1.465 . S
C50 U46 2.847 . S
C50 O64 1.249 . S
C50 O65 1.202 . S
C51 C49 1.363 . S
C51 C53 1.408 . S
C51 C56 1.342 . S
C52 C53 1.310 . S
C52 C55 1.461 . S
C52 H72 0.932 . S
C53 C51 1.408 . S
C53 C52 1.310 . S
C53 H73 0.930 . S
C54 C55 1.474 . S
C54 C56 1.285 . S
C54 H74 0.929 . S
C55 C52 1.461 . S
C55 C54 1.474 . S
C56 C51 1.342 . S
C56 C54 1.285 . S
C56 H75 0.930 . S
C57 C60 1.424 . S
C57 C62 1.245 . S
C57 C63 1.428 . S
C58 C61 1.260 . S
C58 C62 1.477 . S
C58 H76 0.932 . S
C59 C60 1.384 . S
C59 C61 1.479 . S
C59 H77 0.929 . S
C60 C57 1.424 . S
C60 C59 1.384 . S
C60 H78 0.928 . S
C61 C58 1.260 . S
C61 C59 1.479 . S
C62 C57 1.245 . S
C62 C58 1.477 . S
C62 H79 0.932 . S
C63 U46 2.882 . S
C63 C57 1.428 . S
C63 O66 1.301 . S
C63 O67 1.282 . S
O64 U46 2.441 . S
O64 C50 1.249 . S
O65 U46 2.420 . S
O65 C50 1.202 . S
O66 U46 2.455 . S
O66 C63 1.301 . S
O67 U46 2.449 . S
O67 C63 1.282 . S
H68 C41 0.931 . S
H69 C43 0.929 . S
H70 C44 0.930 . S
H71 C45 0.931 . S
H72 C52 0.932 . S
H73 C53 0.930 . S
H74 C54 0.929 . S
H75 C56 0.930 . S
H76 C58 0.932 . S
H77 C59 0.929 . S
H78 C60 0.928 . S
H79 C62 0.932 . S
C80 C81 1.264 . S
C80 C85 1.479 . S
C80 C90 1.465 . S
C81 C80 1.264 . S
C81 C83 1.339 . S
C81 H108 0.931 . S
C82 C83 1.395 . S
C82 C84 1.320 . S
C83 C81 1.339 . S
C83 C82 1.395 . S
C83 H109 0.929 . S
C84 C82 1.320 . S
C84 C85 1.405 . S
C84 H110 0.925 1_565 S
C85 C80 1.479 . S
C85 C84 1.405 . S
C85 H111 0.931 . S
U86 O87 2.454 . S
U86 O88 2.458 . S
U86 C89 2.984 . S
U86 C90 2.847 . S
U86 C103 2.882 . S
U86 O104 2.441 . S
U86 O105 2.420 . S
U86 O106 2.455 . S
U86 O107 2.449 . S
O87 U86 2.454 . S
O87 C89 1.353 . S
O88 U86 2.458 . S
O88 C89 1.286 . S
C89 U86 2.984 . S
C89 O87 1.353 . S
C89 O88 1.286 . S
C89 C91 1.363 . S
C90 C80 1.465 . S
C90 U86 2.847 . S
C90 O104 1.249 . S
C90 O105 1.202 . S
C91 C89 1.363 . S
C91 C93 1.408 . S
C91 C96 1.342 . S
C92 C93 1.310 . S
C92 C95 1.462 . S
C92 H112 0.932 . S
C93 C91 1.408 . S
C93 C92 1.310 . S
C93 H113 0.930 . S
C94 C95 1.473 1_545 S
C94 C96 1.284 1_545 S
C94 H114 0.932 . S
C95 C92 1.462 . S
C95 C94 1.473 1_565 S
C96 C91 1.342 . S
C96 C94 1.284 1_565 S
C96 H115 0.936 . S
C97 C100 1.424 . S
C97 C102 1.245 . S
C97 C103 1.428 . S
C98 C101 1.260 . S
C98 C102 1.477 . S
C98 H116 0.932 . S
C99 C100 1.384 . S
C99 C101 1.479 . S
C99 H117 0.929 . S
C100 C97 1.424 . S
C100 C99 1.384 . S
C100 H118 0.928 . S
C101 C98 1.260 . S
C101 C99 1.479 . S
C102 C97 1.245 . S
C102 C98 1.477 . S
C102 H119 0.932 . S
C103 U86 2.882 . S
C103 C97 1.428 . S
C103 O106 1.301 . S
C103 O107 1.282 . S
O104 U86 2.441 . S
O104 C90 1.249 . S
O105 U86 2.420 . S
O105 C90 1.202 . S
O106 U86 2.455 . S
O106 C103 1.301 . S
O107 U86 2.449 . S
O107 C103 1.282 . S
H108 C81 0.931 . S
H109 C83 0.929 . S
H110 C84 0.925 1_545 S
H111 C85 0.931 . S
H112 C92 0.932 . S
H113 C93 0.930 . S
H114 C94 0.932 . S
H115 C96 0.936 . S
H116 C98 0.932 . S
H117 C99 0.929 . S
H118 C100 0.928 . S
H119 C102 0.932 . S
C120 C121 1.264 . S
C120 C125 1.479 . S
C120 C130 1.465 . S
C121 C120 1.264 . S
C121 C123 1.339 . S
C121 H148 0.931 . S
C122 C123 1.395 . S
C122 C124 1.320 . S
C123 C121 1.339 . S
C123 C122 1.395 . S
C123 H149 0.929 . S
C124 C122 1.320 . S
C124 C125 1.405 . S
C124 H150 0.930 . S
C125 C120 1.479 . S
C125 C124 1.405 . S
C125 H151 0.931 . S
U126 O127 2.454 . S
U126 O128 2.458 . S
U126 C129 2.984 . S
U126 C130 2.847 . S
U126 C143 2.882 . S
U126 O144 2.441 . S
U126 O145 2.420 . S
U126 O146 2.455 . S
U126 O147 2.449 . S
O127 U126 2.454 . S
O127 C129 1.353 . S
O128 U126 2.458 . S
O128 C129 1.286 . S
C129 U126 2.984 . S
C129 O127 1.353 . S
C129 O128 1.286 . S
C129 C131 1.363 . S
C130 C120 1.465 . S
C130 U126 2.847 . S
C130 O144 1.249 . S
C130 O145 1.202 . S
C131 C129 1.363 . S
C131 C133 1.408 . S
C131 C136 1.342 . S
C132 C133 1.310 . S
C132 C135 1.461 . S
C132 H152 0.932 . S
C133 C131 1.408 . S
C133 C132 1.310 . S
C133 H153 0.930 . S
C134 C135 1.474 . S
C134 C136 1.285 . S
C134 H154 0.929 . S
C135 C132 1.461 . S
C135 C134 1.474 . S
C136 C131 1.342 . S
C136 C134 1.285 . S
C136 H155 0.930 . S
C137 C140 1.424 . S
C137 C142 1.245 . S
C137 C143 1.428 1_565 S
C138 C141 1.260 . S
C138 C142 1.477 . S
C138 H156 0.932 . S
C139 C140 1.384 . S
C139 C141 1.479 . S
C139 H157 0.929 . S
C140 C137 1.424 . S
C140 C139 1.384 . S
C140 H158 0.928 . S
C141 C138 1.260 . S
C141 C139 1.479 . S
C142 C137 1.245 . S
C142 C138 1.477 . S
C142 H159 0.932 . S
C143 U126 2.882 . S
C143 C137 1.428 1_545 S
C143 O146 1.301 . S
C143 O147 1.282 . S
O144 U126 2.441 . S
O144 C130 1.249 . S
O145 U126 2.420 . S
O145 C130 1.202 . S
O146 U126 2.455 . S
O146 C143 1.301 . S
O147 U126 2.449 . S
O147 C143 1.282 . S
H148 C121 0.931 . S
H149 C123 0.929 . S
H150 C124 0.930 . S
H151 C125 0.931 . S
H152 C132 0.932 . S
H153 C133 0.930 . S
H154 C134 0.929 . S
H155 C136 0.930 . S
H156 C138 0.932 . S
H157 C139 0.929 . S
H158 C140 0.928 . S
H159 C142 0.932 . S
C160 C161 1.264 . S
C160 C165 1.479 . S
C160 C170 1.465 . S
C161 C160 1.264 . S
C161 C163 1.339 . S
C161 H188 0.931 . S
C162 C163 1.395 . S
C162 C164 1.320 . S
C163 C161 1.339 . S
C163 C162 1.395 . S
C163 H189 0.929 . S
C164 C162 1.320 . S
C164 C165 1.405 . S
C164 H190 0.930 . S
C165 C160 1.479 . S
C165 C164 1.405 . S
C165 H191 0.931 . S
U166 O167 2.454 . S
U166 O168 2.458 . S
U166 C169 2.984 . S
U166 C170 2.847 . S
U166 C183 2.882 . S
U166 O184 2.441 . S
U166 O185 2.420 . S
U166 O186 2.455 . S
U166 O187 2.449 . S
O167 U166 2.454 . S
O167 C169 1.353 . S
O168 U166 2.458 . S
O168 C169 1.286 . S
C169 U166 2.984 . S
C169 O167 1.353 . S
C169 O168 1.286 . S
C169 C171 1.363 . S
C170 C160 1.465 . S
C170 U166 2.847 . S
C170 O184 1.249 . S
C170 O185 1.202 . S
C171 C169 1.363 . S
C171 C173 1.408 . S
C171 C176 1.342 . S
C172 C173 1.310 . S
C172 C175 1.461 . S
C172 H192 0.932 . S
C173 C171 1.408 . S
C173 C172 1.310 . S
C173 H193 0.930 . S
C174 C175 1.474 . S
C174 C176 1.285 . S
C174 H194 0.929 . S
C175 C172 1.461 . S
C175 C174 1.474 . S
C176 C171 1.342 . S
C176 C174 1.285 . S
C176 H195 0.930 . S
C177 C180 1.424 . S
C177 C182 1.245 . S
C177 C183 1.428 . S
C178 C181 1.260 . S
C178 C182 1.477 . S
C178 H196 0.932 . S
C179 C180 1.384 . S
C179 C181 1.479 . S
C179 H197 0.929 . S
C180 C177 1.424 . S
C180 C179 1.384 . S
C180 H198 0.928 . S
C181 C178 1.260 . S
C181 C179 1.479 . S
C182 C177 1.245 . S
C182 C178 1.477 . S
C182 H199 0.932 . S
C183 U166 2.882 . S
C183 C177 1.428 . S
C183 O186 1.301 . S
C183 O187 1.282 . S
O184 U166 2.441 . S
O184 C170 1.249 . S
O185 U166 2.420 . S
O185 C170 1.202 . S
O186 U166 2.455 . S
O186 C183 1.301 . S
O187 U166 2.449 . S
O187 C183 1.282 . S
H188 C161 0.931 . S
H189 C163 0.929 . S
H190 C164 0.930 . S
H191 C165 0.931 . S
H192 C172 0.932 . S
H193 C173 0.930 . S
H194 C174 0.929 . S
H195 C176 0.930 . S
H196 C178 0.932 . S
H197 C179 0.929 . S
H198 C180 0.928 . S
H199 C182 0.932 . S
C200 C201 1.264 . S
C200 C205 1.479 . S
C200 C210 1.465 . S
C201 C200 1.264 . S
C201 C203 1.339 . S
C201 H228 0.931 . S
C202 C203 1.395 . S
C202 C204 1.320 . S
C203 C201 1.339 . S
C203 C202 1.395 . S
C203 H229 0.929 . S
C204 C202 1.320 . S
C204 C205 1.405 . S
C204 H230 0.930 . S
C205 C200 1.479 . S
C205 C204 1.405 . S
C205 H231 0.931 . S
U206 O207 2.454 . S
U206 O208 2.458 . S
U206 C209 2.984 . S
U206 C210 2.847 . S
U206 C223 2.882 . S
U206 O224 2.441 . S
U206 O225 2.420 . S
U206 O226 2.455 . S
U206 O227 2.449 . S
O207 U206 2.454 . S
O207 C209 1.353 . S
O208 U206 2.458 . S
O208 C209 1.286 . S
C209 U206 2.984 . S
C209 O207 1.353 . S
C209 O208 1.286 . S
C209 C211 1.363 . S
C210 C200 1.465 . S
C210 U206 2.847 . S
C210 O224 1.249 . S
C210 O225 1.202 . S
C211 C209 1.363 . S
C211 C213 1.408 . S
C211 C216 1.342 . S
C212 C213 1.310 . S
C212 C215 1.461 . S
C212 H232 0.932 . S
C213 C211 1.408 . S
C213 C212 1.310 . S
C213 H233 0.930 . S
C214 C215 1.474 . S
C214 C216 1.285 . S
C214 H234 0.929 . S
C215 C212 1.461 . S
C215 C214 1.474 . S
C216 C211 1.342 . S
C216 C214 1.285 . S
C216 H235 0.930 . S
C217 C220 1.424 . S
C217 C222 1.245 . S
C217 C223 1.428 1_556 S
C218 C221 1.260 . S
C218 C222 1.477 . S
C218 H236 0.932 . S
C219 C220 1.384 . S
C219 C221 1.479 . S
C219 H237 0.929 . S
C220 C217 1.424 . S
C220 C219 1.384 . S
C220 H238 0.928 . S
C221 C218 1.260 . S
C221 C219 1.479 . S
C222 C217 1.245 . S
C222 C218 1.477 . S
C222 H239 0.932 . S
C223 U206 2.882 . S
C223 C217 1.428 1_554 S
C223 O226 1.301 . S
C223 O227 1.282 . S
O224 U206 2.441 . S
O224 C210 1.249 . S
O225 U206 2.420 . S
O225 C210 1.202 . S
O226 U206 2.455 . S
O226 C223 1.301 . S
O227 U206 2.449 . S
O227 C223 1.282 . S
H228 C201 0.931 . S
H229 C203 0.929 . S
H230 C204 0.930 . S
H231 C205 0.931 . S
H232 C212 0.932 . S
H233 C213 0.930 . S
H234 C214 0.929 . S
H235 C216 0.930 . S
H236 C218 0.932 . S
H237 C219 0.929 . S
H238 C220 0.928 . S
H239 C222 0.932 . S
C240 C241 1.264 . S
C240 C245 1.479 . S
C240 C250 1.465 . S
C241 C240 1.264 . S
C241 C243 1.339 . S
C241 H268 0.931 . S
C242 C243 1.395 . S
C242 C244 1.320 . S
C243 C241 1.339 . S
C243 C242 1.395 . S
C243 H269 0.929 . S
C244 C242 1.320 . S
C244 C245 1.405 . S
C244 H270 0.930 . S
C245 C240 1.479 . S
C245 C244 1.405 . S
C245 H271 0.931 . S
U246 O247 2.454 . S
U246 O248 2.458 . S
U246 C249 2.984 . S
U246 C250 2.847 . S
U246 C263 2.882 . S
U246 O264 2.441 . S
U246 O265 2.420 . S
U246 O266 2.455 . S
U246 O267 2.449 . S
O247 U246 2.454 . S
O247 C249 1.353 . S
O248 U246 2.458 . S
O248 C249 1.286 . S
C249 U246 2.984 . S
C249 O247 1.353 . S
C249 O248 1.286 . S
C249 C251 1.363 . S
C250 C240 1.465 . S
C250 U246 2.847 . S
C250 O264 1.249 . S
C250 O265 1.202 . S
C251 C249 1.363 . S
C251 C253 1.408 . S
C251 C256 1.342 . S
C252 C253 1.310 . S
C252 C255 1.461 . S
C252 H272 0.932 . S
C253 C251 1.408 . S
C253 C252 1.310 . S
C253 H273 0.930 . S
C254 C255 1.474 . S
C254 C256 1.285 . S
C254 H274 0.929 . S
C255 C252 1.461 . S
C255 C254 1.474 . S
C256 C251 1.342 . S
C256 C254 1.285 . S
C256 H275 0.930 . S
C257 C260 1.424 . S
C257 C262 1.245 . S
C257 C263 1.428 . S
C258 C261 1.260 . S
C258 C262 1.477 . S
C258 H276 0.932 . S
C259 C260 1.384 . S
C259 C261 1.479 . S
C259 H277 0.929 . S
C260 C257 1.424 . S
C260 C259 1.384 . S
C260 H278 0.928 . S
C261 C258 1.260 . S
C261 C259 1.479 . S
C262 C257 1.245 . S
C262 C258 1.477 . S
C262 H279 0.932 . S
C263 U246 2.882 . S
C263 C257 1.428 . S
C263 O266 1.301 . S
C263 O267 1.282 . S
O264 U246 2.441 . S
O264 C250 1.249 . S
O265 U246 2.420 . S
O265 C250 1.202 . S
O266 U246 2.455 . S
O266 C263 1.301 . S
O267 U246 2.449 . S
O267 C263 1.282 . S
H268 C241 0.931 . S
H269 C243 0.929 . S
H270 C244 0.930 . S
H271 C245 0.931 . S
H272 C252 0.932 . S
H273 C253 0.930 . S
H274 C254 0.929 . S
H275 C256 0.930 . S
H276 C258 0.932 . S
H277 C259 0.929 . S
H278 C260 0.928 . S
H279 C262 0.932 . S
C280 C281 1.264 . S
C280 C285 1.479 . S
C280 C290 1.465 . S
C281 C280 1.264 . S
C281 C283 1.339 . S
C281 H308 0.931 . S
C282 C283 1.395 . S
C282 C284 1.320 . S
C283 C281 1.339 . S
C283 C282 1.395 . S
C283 H309 0.929 . S
C284 C282 1.320 . S
C284 C285 1.405 . S
C284 H310 0.925 1_556 S
C285 C280 1.479 . S
C285 C284 1.405 . S
C285 H311 0.931 . S
U286 O287 2.454 . S
U286 O288 2.458 . S
U286 C289 2.984 . S
U286 C290 2.847 . S
U286 C303 2.882 . S
U286 O304 2.441 . S
U286 O305 2.420 . S
U286 O306 2.455 . S
U286 O307 2.449 . S
O287 U286 2.454 . S
O287 C289 1.353 . S
O288 U286 2.458 . S
O288 C289 1.286 . S
C289 U286 2.984 . S
C289 O287 1.353 . S
C289 O288 1.286 . S
C289 C291 1.363 . S
C290 C280 1.465 . S
C290 U286 2.847 . S
C290 O304 1.249 . S
C290 O305 1.202 . S
C291 C289 1.363 . S
C291 C293 1.408 . S
C291 C296 1.342 . S
C292 C293 1.310 . S
C292 C295 1.462 . S
C292 H312 0.932 . S
C293 C291 1.408 . S
C293 C292 1.310 . S
C293 H313 0.930 . S
C294 C295 1.473 1_554 S
C294 C296 1.284 1_554 S
C294 H314 0.932 . S
C295 C292 1.462 . S
C295 C294 1.473 1_556 S
C296 C291 1.342 . S
C296 C294 1.284 1_556 S
C296 H315 0.936 . S
C297 C300 1.424 . S
C297 C302 1.245 . S
C297 C303 1.428 . S
C298 C301 1.260 . S
C298 C302 1.477 . S
C298 H316 0.932 . S
C299 C300 1.384 . S
C299 C301 1.479 . S
C299 H317 0.929 . S
C300 C297 1.424 . S
C300 C299 1.384 . S
C300 H318 0.928 . S
C301 C298 1.260 . S
C301 C299 1.479 . S
C302 C297 1.245 . S
C302 C298 1.477 . S
C302 H319 0.932 . S
C303 U286 2.882 . S
C303 C297 1.428 . S
C303 O306 1.301 . S
C303 O307 1.282 . S
O304 U286 2.441 . S
O304 C290 1.249 . S
O305 U286 2.420 . S
O305 C290 1.202 . S
O306 U286 2.455 . S
O306 C303 1.301 . S
O307 U286 2.449 . S
O307 C303 1.282 . S
H308 C281 0.931 . S
H309 C283 0.929 . S
H310 C284 0.925 1_554 S
H311 C285 0.931 . S
H312 C292 0.932 . S
H313 C293 0.930 . S
H314 C294 0.932 . S
H315 C296 0.936 . S
H316 C298 0.932 . S
H317 C299 0.929 . S
H318 C300 0.928 . S
H319 C302 0.932 . S
C320 C321 1.264 . S
C320 C325 1.479 . S
C320 C330 1.465 . S
C321 C320 1.264 . S
C321 C323 1.339 . S
C321 H348 0.931 . S
C322 C323 1.395 . S
C322 C324 1.320 . S
C323 C321 1.339 . S
C323 C322 1.395 . S
C323 H349 0.929 . S
C324 C322 1.320 . S
C324 C325 1.405 . S
C324 H350 0.930 . S
C325 C320 1.479 . S
C325 C324 1.405 . S
C325 H351 0.931 . S
U326 O327 2.454 . S
U326 O328 2.458 . S
U326 C329 2.984 . S
U326 C330 2.847 . S
U326 C343 2.882 . S
U326 O344 2.441 . S
U326 O345 2.420 . S
U326 O346 2.455 . S
U326 O347 2.449 . S
O327 U326 2.454 . S
O327 C329 1.353 . S
O328 U326 2.458 . S
O328 C329 1.286 . S
C329 U326 2.984 . S
C329 O327 1.353 . S
C329 O328 1.286 . S
C329 C331 1.363 . S
C330 C320 1.465 . S
C330 U326 2.847 . S
C330 O344 1.249 . S
C330 O345 1.202 . S
C331 C329 1.363 . S
C331 C333 1.408 . S
C331 C336 1.342 . S
C332 C333 1.310 . S
C332 C335 1.461 . S
C332 H352 0.932 . S
C333 C331 1.408 . S
C333 C332 1.310 . S
C333 H353 0.930 . S
C334 C335 1.474 . S
C334 C336 1.285 . S
C334 H354 0.929 . S
C335 C332 1.461 . S
C335 C334 1.474 . S
C336 C331 1.342 . S
C336 C334 1.285 . S
C336 H355 0.930 . S
C337 C340 1.424 . S
C337 C342 1.245 . S
C337 C343 1.428 . S
C338 C341 1.260 . S
C338 C342 1.477 . S
C338 H356 0.932 . S
C339 C340 1.384 . S
C339 C341 1.479 . S
C339 H357 0.929 . S
C340 C337 1.424 . S
C340 C339 1.384 . S
C340 H358 0.928 . S
C341 C338 1.260 . S
C341 C339 1.479 . S
C342 C337 1.245 . S
C342 C338 1.477 . S
C342 H359 0.932 . S
C343 U326 2.882 . S
C343 C337 1.428 . S
C343 O346 1.301 . S
C343 O347 1.282 . S
O344 U326 2.441 . S
O344 C330 1.249 . S
O345 U326 2.420 . S
O345 C330 1.202 . S
O346 U326 2.455 . S
O346 C343 1.301 . S
O347 U326 2.449 . S
O347 C343 1.282 . S
H348 C321 0.931 . S
H349 C323 0.929 . S
H350 C324 0.930 . S
H351 C325 0.931 . S
H352 C332 0.932 . S
H353 C333 0.930 . S
H354 C334 0.929 . S
H355 C336 0.930 . S
H356 C338 0.932 . S
H357 C339 0.929 . S
H358 C340 0.928 . S
H359 C342 0.932 . S
C360 C361 1.264 . S
C360 C365 1.479 . S
C360 C370 1.465 . S
C361 C360 1.264 . S
C361 C363 1.339 . S
C361 H388 0.931 . S
C362 C363 1.395 . S
C362 C364 1.320 . S
C363 C361 1.339 . S
C363 C362 1.395 . S
C363 H389 0.929 . S
C364 C362 1.320 . S
C364 C365 1.405 . S
C364 H390 0.930 . S
C365 C360 1.479 . S
C365 C364 1.405 . S
C365 H391 0.931 . S
U366 O367 2.454 . S
U366 O368 2.458 . S
U366 C369 2.984 . S
U366 C370 2.847 . S
U366 C383 2.882 . S
U366 O384 2.441 . S
U366 O385 2.420 . S
U366 O386 2.455 . S
U366 O387 2.449 . S
O367 U366 2.454 . S
O367 C369 1.353 . S
O368 U366 2.458 . S
O368 C369 1.286 . S
C369 U366 2.984 . S
C369 O367 1.353 . S
C369 O368 1.286 . S
C369 C371 1.363 . S
C370 C360 1.465 . S
C370 U366 2.847 . S
C370 O384 1.249 . S
C370 O385 1.202 . S
C371 C369 1.363 . S
C371 C373 1.408 . S
C371 C376 1.342 . S
C372 C373 1.310 . S
C372 C375 1.461 . S
C372 H392 0.932 . S
C373 C371 1.408 . S
C373 C372 1.310 . S
C373 H393 0.930 . S
C374 C375 1.474 . S
C374 C376 1.285 . S
C374 H394 0.929 . S
C375 C372 1.461 . S
C375 C374 1.474 . S
C376 C371 1.342 . S
C376 C374 1.285 . S
C376 H395 0.930 . S
C377 C380 1.424 . S
C377 C382 1.245 . S
C377 C383 1.428 1_655 S
C378 C381 1.260 . S
C378 C382 1.477 . S
C378 H396 0.932 . S
C379 C380 1.384 . S
C379 C381 1.479 . S
C379 H397 0.929 . S
C380 C377 1.424 . S
C380 C379 1.384 . S
C380 H398 0.928 . S
C381 C378 1.260 . S
C381 C379 1.479 . S
C382 C377 1.245 . S
C382 C378 1.477 . S
C382 H399 0.932 . S
C383 U366 2.882 . S
C383 C377 1.428 1_455 S
C383 O386 1.301 . S
C383 O387 1.282 . S
O384 U366 2.441 . S
O384 C370 1.249 . S
O385 U366 2.420 . S
O385 C370 1.202 . S
O386 U366 2.455 . S
O386 C383 1.301 . S
O387 U366 2.449 . S
O387 C383 1.282 . S
H388 C361 0.931 . S
H389 C363 0.929 . S
H390 C364 0.930 . S
H391 C365 0.931 . S
H392 C372 0.932 . S
H393 C373 0.930 . S
H394 C374 0.929 . S
H395 C376 0.930 . S
H396 C378 0.932 . S
H397 C379 0.929 . S
H398 C380 0.928 . S
H399 C382 0.932 . S
C400 C401 1.264 . S
C400 C405 1.479 . S
C400 C410 1.465 . S
C401 C400 1.264 . S
C401 C403 1.339 . S
C401 H428 0.931 . S
C402 C403 1.395 . S
C402 C404 1.320 . S
C403 C401 1.339 . S
C403 C402 1.395 . S
C403 H429 0.929 . S
C404 C402 1.320 . S
C404 C405 1.405 . S
C404 H430 0.930 . S
C405 C400 1.479 . S
C405 C404 1.405 . S
C405 H431 0.931 . S
U406 O407 2.454 . S
U406 O408 2.458 . S
U406 C409 2.984 . S
U406 C410 2.847 . S
U406 C423 2.882 . S
U406 O424 2.441 . S
U406 O425 2.420 . S
U406 O426 2.455 . S
U406 O427 2.449 . S
O407 U406 2.454 . S
O407 C409 1.353 . S
O408 U406 2.458 . S
O408 C409 1.286 . S
C409 U406 2.984 . S
C409 O407 1.353 . S
C409 O408 1.286 . S
C409 C411 1.363 . S
C410 C400 1.465 . S
C410 U406 2.847 . S
C410 O424 1.249 . S
C410 O425 1.202 . S
C411 C409 1.363 . S
C411 C413 1.408 . S
C411 C416 1.342 . S
C412 C413 1.310 . S
C412 C415 1.461 . S
C412 H432 0.932 . S
C413 C411 1.408 . S
C413 C412 1.310 . S
C413 H433 0.930 . S
C414 C415 1.474 . S
C414 C416 1.285 . S
C414 H434 0.929 . S
C415 C412 1.461 . S
C415 C414 1.474 . S
C416 C411 1.342 . S
C416 C414 1.285 . S
C416 H435 0.930 . S
C417 C420 1.424 . S
C417 C422 1.245 . S
C417 C423 1.428 . S
C418 C421 1.260 . S
C418 C422 1.477 . S
C418 H436 0.932 . S
C419 C420 1.384 . S
C419 C421 1.479 . S
C419 H437 0.929 . S
C420 C417 1.424 . S
C420 C419 1.384 . S
C420 H438 0.928 . S
C421 C418 1.260 . S
C421 C419 1.479 . S
C422 C417 1.245 . S
C422 C418 1.477 . S
C422 H439 0.932 . S
C423 U406 2.882 . S
C423 C417 1.428 . S
C423 O426 1.301 . S
C423 O427 1.282 . S
O424 U406 2.441 . S
O424 C410 1.249 . S
O425 U406 2.420 . S
O425 C410 1.202 . S
O426 U406 2.455 . S
O426 C423 1.301 . S
O427 U406 2.449 . S
O427 C423 1.282 . S
H428 C401 0.931 . S
H429 C403 0.929 . S
H430 C404 0.930 . S
H431 C405 0.931 . S
H432 C412 0.932 . S
H433 C413 0.930 . S
H434 C414 0.929 . S
H435 C416 0.930 . S
H436 C418 0.932 . S
H437 C419 0.929 . S
H438 C420 0.928 . S
H439 C422 0.932 . S
C440 C441 1.264 . S
C440 C445 1.479 . S
C440 C450 1.465 . S
C441 C440 1.264 . S
C441 C443 1.339 . S
C441 H468 0.931 . S
C442 C443 1.395 . S
C442 C444 1.320 . S
C443 C441 1.339 . S
C443 C442 1.395 . S
C443 H469 0.929 . S
C444 C442 1.320 . S
C444 C445 1.405 . S
C444 H470 0.925 1_655 S
C445 C440 1.479 . S
C445 C444 1.405 . S
C445 H471 0.931 . S
U446 O447 2.454 . S
U446 O448 2.458 . S
U446 C449 2.984 . S
U446 C450 2.847 . S
U446 C463 2.882 . S
U446 O464 2.441 . S
U446 O465 2.420 . S
U446 O466 2.455 . S
U446 O467 2.449 . S
O447 U446 2.454 . S
O447 C449 1.353 . S
O448 U446 2.458 . S
O448 C449 1.286 . S
C449 U446 2.984 . S
C449 O447 1.353 . S
C449 O448 1.286 . S
C449 C451 1.363 . S
C450 C440 1.465 . S
C450 U446 2.847 . S
C450 O464 1.249 . S
C450 O465 1.202 . S
C451 C449 1.363 . S
C451 C453 1.408 . S
C451 C456 1.342 . S
C452 C453 1.310 . S
C452 C455 1.462 . S
C452 H472 0.932 . S
C453 C451 1.408 . S
C453 C452 1.310 . S
C453 H473 0.930 . S
C454 C455 1.473 1_455 S
C454 C456 1.284 1_455 S
C454 H474 0.932 . S
C455 C452 1.462 . S
C455 C454 1.473 1_655 S
C456 C451 1.342 . S
C456 C454 1.284 1_655 S
C456 H475 0.936 . S
C457 C460 1.424 . S
C457 C462 1.245 . S
C457 C463 1.428 . S
C458 C461 1.260 . S
C458 C462 1.477 . S
C458 H476 0.932 . S
C459 C460 1.384 . S
C459 C461 1.479 . S
C459 H477 0.929 . S
C460 C457 1.424 . S
C460 C459 1.384 . S
C460 H478 0.928 . S
C461 C458 1.260 . S
C461 C459 1.479 . S
C462 C457 1.245 . S
C462 C458 1.477 . S
C462 H479 0.932 . S
C463 U446 2.882 . S
C463 C457 1.428 . S
C463 O466 1.301 . S
C463 O467 1.282 . S
O464 U446 2.441 . S
O464 C450 1.249 . S
O465 U446 2.420 . S
O465 C450 1.202 . S
O466 U446 2.455 . S
O466 C463 1.301 . S
O467 U446 2.449 . S
O467 C463 1.282 . S
H468 C441 0.931 . S
H469 C443 0.929 . S
H470 C444 0.925 1_455 S
H471 C445 0.931 . S
H472 C452 0.932 . S
H473 C453 0.930 . S
H474 C454 0.932 . S
H475 C456 0.936 . S
H476 C458 0.932 . S
H477 C459 0.929 . S
H478 C460 0.928 . S
H479 C462 0.932 . S
C480 C481 1.264 . S
C480 C485 1.479 . S
C480 C490 1.465 . S
C481 C480 1.264 . S
C481 C483 1.339 . S
C481 H508 0.931 . S
C482 C483 1.395 . S
C482 C484 1.320 . S
C483 C481 1.339 . S
C483 C482 1.395 . S
C483 H509 0.929 . S
C484 C482 1.320 . S
C484 C485 1.405 . S
C484 H510 0.930 . S
C485 C480 1.479 . S
C485 C484 1.405 . S
C485 H511 0.931 . S
U486 O487 2.454 . S
U486 O488 2.458 . S
U486 C489 2.984 . S
U486 C490 2.847 . S
U486 C503 2.882 . S
U486 O504 2.441 . S
U486 O505 2.420 . S
U486 O506 2.455 . S
U486 O507 2.449 . S
O487 U486 2.454 . S
O487 C489 1.353 . S
O488 U486 2.458 . S
O488 C489 1.286 . S
C489 U486 2.984 . S
C489 O487 1.353 . S
C489 O488 1.286 . S
C489 C491 1.363 . S
C490 C480 1.465 . S
C490 U486 2.847 . S
C490 O504 1.249 . S
C490 O505 1.202 . S
C491 C489 1.363 . S
C491 C493 1.408 . S
C491 C496 1.342 . S
C492 C493 1.310 . S
C492 C495 1.461 . S
C492 H512 0.932 . S
C493 C491 1.408 . S
C493 C492 1.310 . S
C493 H513 0.930 . S
C494 C495 1.474 . S
C494 C496 1.285 . S
C494 H514 0.929 . S
C495 C492 1.461 . S
C495 C494 1.474 . S
C496 C491 1.342 . S
C496 C494 1.285 . S
C496 H515 0.930 . S
C497 C500 1.424 . S
C497 C502 1.245 . S
C497 C503 1.428 . S
C498 C501 1.260 . S
C498 C502 1.477 . S
C498 H516 0.932 . S
C499 C500 1.384 . S
C499 C501 1.479 . S
C499 H517 0.929 . S
C500 C497 1.424 . S
C500 C499 1.384 . S
C500 H518 0.928 . S
C501 C498 1.260 . S
C501 C499 1.479 . S
C502 C497 1.245 . S
C502 C498 1.477 . S
C502 H519 0.932 . S
C503 U486 2.882 . S
C503 C497 1.428 . S
C503 O506 1.301 . S
C503 O507 1.282 . S
O504 U486 2.441 . S
O504 C490 1.249 . S
O505 U486 2.420 . S
O505 C490 1.202 . S
O506 U486 2.455 . S
O506 C503 1.301 . S
O507 U486 2.449 . S
O507 C503 1.282 . S
H508 C481 0.931 . S
H509 C483 0.929 . S
H510 C484 0.930 . S
H511 C485 0.931 . S
H512 C492 0.932 . S
H513 C493 0.930 . S
H514 C494 0.929 . S
H515 C496 0.930 . S
H516 C498 0.932 . S
H517 C499 0.929 . S
H518 C500 0.928 . S
H519 C502 0.932 . S
C520 C521 1.264 . S
C520 C525 1.479 . S
C520 C530 1.465 . S
C521 C520 1.264 . S
C521 C523 1.339 . S
C521 H548 0.931 . S
C522 C523 1.395 . S
C522 C524 1.320 . S
C523 C521 1.339 . S
C523 C522 1.395 . S
C523 H549 0.929 . S
C524 C522 1.320 . S
C524 C525 1.405 . S
C524 H550 0.930 . S
C525 C520 1.479 . S
C525 C524 1.405 . S
C525 H551 0.931 . S
U526 O527 2.454 . S
U526 O528 2.458 . S
U526 C529 2.984 . S
U526 C530 2.847 . S
U526 C543 2.882 . S
U526 O544 2.441 . S
U526 O545 2.420 . S
U526 O546 2.455 . S
U526 O547 2.449 . S
O527 U526 2.454 . S
O527 C529 1.353 . S
O528 U526 2.458 . S
O528 C529 1.286 . S
C529 U526 2.984 . S
C529 O527 1.353 . S
C529 O528 1.286 . S
C529 C531 1.363 . S
C530 C520 1.465 . S
C530 U526 2.847 . S
C530 O544 1.249 . S
C530 O545 1.202 . S
C531 C529 1.363 . S
C531 C533 1.408 . S
C531 C536 1.342 . S
C532 C533 1.310 . S
C532 C535 1.461 . S
C532 H552 0.932 . S
C533 C531 1.408 . S
C533 C532 1.310 . S
C533 H553 0.930 . S
C534 C535 1.474 . S
C534 C536 1.285 . S
C534 H554 0.929 . S
C535 C532 1.461 . S
C535 C534 1.474 . S
C536 C531 1.342 . S
C536 C534 1.285 . S
C536 H555 0.930 . S
C537 C540 1.424 . S
C537 C542 1.245 . S
C537 C543 1.428 . S
C538 C541 1.260 . S
C538 C542 1.477 . S
C538 H556 0.932 . S
C539 C540 1.384 . S
C539 C541 1.479 . S
C539 H557 0.929 . S
C540 C537 1.424 . S
C540 C539 1.384 . S
C540 H558 0.928 . S
C541 C538 1.260 . S
C541 C539 1.479 . S
C542 C537 1.245 . S
C542 C538 1.477 . S
C542 H559 0.932 . S
C543 U526 2.882 . S
C543 C537 1.428 . S
C543 O546 1.301 . S
C543 O547 1.282 . S
O544 U526 2.441 . S
O544 C530 1.249 . S
O545 U526 2.420 . S
O545 C530 1.202 . S
O546 U526 2.455 . S
O546 C543 1.301 . S
O547 U526 2.449 . S
O547 C543 1.282 . S
H548 C521 0.931 . S
H549 C523 0.929 . S
H550 C524 0.930 . S
H551 C525 0.931 . S
H552 C532 0.932 . S
H553 C533 0.930 . S
H554 C534 0.929 . S
H555 C536 0.930 . S
H556 C538 0.932 . S
H557 C539 0.929 . S
H558 C540 0.928 . S
H559 C542 0.932 . S
C560 C561 1.264 . S
C560 C565 1.479 . S
C560 C570 1.465 . S
C561 C560 1.264 . S
C561 C563 1.339 . S
C561 H588 0.931 . S
C562 C563 1.395 . S
C562 C564 1.320 . S
C563 C561 1.339 . S
C563 C562 1.395 . S
C563 H589 0.929 . S
C564 C562 1.320 . S
C564 C565 1.405 . S
C564 H590 0.919 1_565 S
C565 C560 1.479 . S
C565 C564 1.405 . S
C565 H591 0.931 . S
U566 O567 2.454 . S
U566 O568 2.458 . S
U566 C569 2.984 . S
U566 C570 2.847 . S
U566 C583 2.882 . S
U566 O584 2.441 . S
U566 O585 2.420 . S
U566 O586 2.455 . S
U566 O587 2.449 . S
O567 U566 2.454 . S
O567 C569 1.353 . S
O568 U566 2.458 . S
O568 C569 1.286 . S
C569 U566 2.984 . S
C569 O567 1.353 . S
C569 O568 1.286 . S
C569 C571 1.363 . S
C570 C560 1.465 . S
C570 U566 2.847 . S
C570 O584 1.249 . S
C570 O585 1.202 . S
C571 C569 1.363 . S
C571 C573 1.408 . S
C571 C576 1.342 . S
C572 C573 1.310 . S
C572 C575 1.460 . S
C572 H592 0.932 . S
C573 C571 1.408 . S
C573 C572 1.310 . S
C573 H593 0.930 . S
C574 C575 1.475 1_545 S
C574 C576 1.285 1_545 S
C574 H594 0.930 . S
C575 C572 1.460 . S
C575 C574 1.475 1_565 S
C576 C571 1.342 . S
C576 C574 1.285 1_565 S
C576 H595 0.930 . S
C577 C580 1.424 . S
C577 C582 1.245 . S
C577 C583 1.428 . S
C578 C581 1.260 . S
C578 C582 1.477 . S
C578 H596 0.932 . S
C579 C580 1.384 . S
C579 C581 1.479 . S
C579 H597 0.929 . S
C580 C577 1.424 . S
C580 C579 1.384 . S
C580 H598 0.928 . S
C581 C578 1.260 . S
C581 C579 1.479 . S
C582 C577 1.245 . S
C582 C578 1.477 . S
C582 H599 0.932 . S
C583 U566 2.882 . S
C583 C577 1.428 . S
C583 O586 1.301 . S
C583 O587 1.282 . S
O584 U566 2.441 . S
O584 C570 1.249 . S
O585 U566 2.420 . S
O585 C570 1.202 . S
O586 U566 2.455 . S
O586 C583 1.301 . S
O587 U566 2.449 . S
O587 C583 1.282 . S
H588 C561 0.931 . S
H589 C563 0.929 . S
H590 C564 0.919 1_545 S
H591 C565 0.931 . S
H592 C572 0.932 . S
H593 C573 0.930 . S
H594 C574 0.930 . S
H595 C576 0.930 . S
H596 C578 0.932 . S
H597 C579 0.929 . S
H598 C580 0.928 . S
H599 C582 0.932 . S
C600 C601 1.264 . S
C600 C605 1.479 1_545 S
C600 C610 1.465 . S
C601 C600 1.264 . S
C601 C603 1.339 1_545 S
C601 H628 0.931 . S
C602 C603 1.395 . S
C602 C604 1.320 . S
C603 C601 1.339 1_565 S
C603 C602 1.395 . S
C603 H629 0.929 1_565 S
C604 C602 1.320 . S
C604 C605 1.405 . S
C604 H630 0.930 . S
C605 C600 1.479 1_565 S
C605 C604 1.405 . S
C605 H631 0.931 . S
U606 O607 2.454 1_545 S
U606 O608 2.458 . S
U606 C609 2.988 . S
U606 C610 2.847 . S
U606 C623 2.882 . S
U606 O624 2.441 . S
U606 O625 2.420 . S
U606 O626 2.455 . S
U606 O627 2.449 . S
O607 U606 2.454 1_565 S
O607 C609 1.350 1_565 S
O608 U606 2.458 . S
O608 C609 1.290 . S
C609 U606 2.988 . S
C609 O607 1.350 1_545 S
C609 O608 1.290 . S
C609 C611 1.361 1_545 S
C610 C600 1.465 . S
C610 U606 2.847 . S
C610 O624 1.249 . S
C610 O625 1.202 . S
C611 C609 1.361 1_565 S
C611 C613 1.408 . S
C611 C616 1.342 . S
C612 C613 1.310 . S
C612 C615 1.461 . S
C612 H632 0.932 . S
C613 C611 1.408 . S
C613 C612 1.310 . S
C613 H633 0.930 . S
C614 C615 1.474 . S
C614 C616 1.285 . S
C614 H634 0.929 . S
C615 C612 1.461 . S
C615 C614 1.474 . S
C616 C611 1.342 . S
C616 C614 1.285 . S
C616 H635 0.933 . S
C617 C620 1.424 . S
C617 C622 1.245 . S
C617 C623 1.428 . S
C618 C621 1.260 . S
C618 C622 1.477 . S
C618 H636 0.932 . S
C619 C620 1.384 . S
C619 C621 1.479 . S
C619 H637 0.929 . S
C620 C617 1.424 . S
C620 C619 1.384 . S
C620 H638 0.928 . S
C621 C618 1.260 . S
C621 C619 1.479 . S
C622 C617 1.245 . S
C622 C618 1.477 . S
C622 H639 0.932 . S
C623 U606 2.882 . S
C623 C617 1.428 . S
C623 O626 1.301 . S
C623 O627 1.282 . S
O624 U606 2.441 . S
O624 C610 1.249 . S
O625 U606 2.420 . S
O625 C610 1.202 . S
O626 U606 2.455 . S
O626 C623 1.301 . S
O627 U606 2.449 . S
O627 C623 1.282 . S
H628 C601 0.931 . S
H629 C603 0.929 1_545 S
H630 C604 0.930 . S
H631 C605 0.931 . S
H632 C612 0.932 . S
H633 C613 0.930 . S
H634 C614 0.929 . S
H635 C616 0.933 . S
H636 C618 0.932 . S
H637 C619 0.929 . S
H638 C620 0.928 . S
H639 C622 0.932 . S
C640 C641 1.264 . S
C640 C645 1.479 . S
C640 C650 1.465 . S
C641 C640 1.264 . S
C641 C643 1.339 . S
C641 H668 0.931 . S
C642 C643 1.395 . S
C642 C644 1.320 . S
C643 C641 1.339 . S
C643 C642 1.395 . S
C643 H669 0.929 . S
C644 C642 1.320 . S
C644 C645 1.405 . S
C644 H670 0.930 . S
C645 C640 1.479 . S
C645 C644 1.405 . S
C645 H671 0.931 . S
U646 O647 2.454 . S
U646 O648 2.458 . S
U646 C649 2.984 . S
U646 C650 2.847 . S
U646 C663 2.882 . S
U646 O664 2.441 . S
U646 O665 2.420 . S
U646 O666 2.455 . S
U646 O667 2.449 . S
O647 U646 2.454 . S
O647 C649 1.353 . S
O648 U646 2.458 . S
O648 C649 1.286 . S
C649 U646 2.984 . S
C649 O647 1.353 . S
C649 O648 1.286 . S
C649 C651 1.363 . S
C650 C640 1.465 . S
C650 U646 2.847 . S
C650 O664 1.249 . S
C650 O665 1.202 . S
C651 C649 1.363 . S
C651 C653 1.408 . S
C651 C656 1.342 . S
C652 C653 1.310 . S
C652 C655 1.461 . S
C652 H672 0.932 . S
C653 C651 1.408 . S
C653 C652 1.310 . S
C653 H673 0.930 . S
C654 C655 1.474 . S
C654 C656 1.285 . S
C654 H674 0.929 . S
C655 C652 1.461 . S
C655 C654 1.474 . S
C656 C651 1.342 . S
C656 C654 1.285 . S
C656 H675 0.930 . S
C657 C660 1.424 . S
C657 C662 1.245 . S
C657 C663 1.428 . S
C658 C661 1.260 . S
C658 C662 1.477 . S
C658 H676 0.932 . S
C659 C660 1.384 . S
C659 C661 1.479 . S
C659 H677 0.929 . S
C660 C657 1.424 . S
C660 C659 1.384 . S
C660 H678 0.928 . S
C661 C658 1.260 . S
C661 C659 1.479 . S
C662 C657 1.245 . S
C662 C658 1.477 . S
C662 H679 0.932 . S
C663 U646 2.882 . S
C663 C657 1.428 . S
C663 O666 1.301 . S
C663 O667 1.282 . S
O664 U646 2.441 . S
O664 C650 1.249 . S
O665 U646 2.420 . S
O665 C650 1.202 . S
O666 U646 2.455 . S
O666 C663 1.301 . S
O667 U646 2.449 . S
O667 C663 1.282 . S
H668 C641 0.931 . S
H669 C643 0.929 . S
H670 C644 0.930 . S
H671 C645 0.931 . S
H672 C652 0.932 . S
H673 C653 0.930 . S
H674 C654 0.929 . S
H675 C656 0.930 . S
H676 C658 0.932 . S
H677 C659 0.929 . S
H678 C660 0.928 . S
H679 C662 0.932 . S
C680 C681 1.264 . S
C680 C685 1.479 1_554 S
C680 C690 1.465 . S
C681 C680 1.264 . S
C681 C683 1.339 1_554 S
C681 H708 0.931 . S
C682 C683 1.395 . S
C682 C684 1.320 . S
C683 C681 1.339 1_556 S
C683 C682 1.395 . S
C683 H709 0.929 1_556 S
C684 C682 1.320 . S
C684 C685 1.405 . S
C684 H710 0.930 . S
C685 C680 1.479 1_556 S
C685 C684 1.405 . S
C685 H711 0.931 . S
U686 O687 2.454 1_554 S
U686 O688 2.458 . S
U686 C689 2.988 . S
U686 C690 2.847 . S
U686 C703 2.882 . S
U686 O704 2.441 . S
U686 O705 2.420 . S
U686 O706 2.455 . S
U686 O707 2.449 . S
O687 U686 2.454 1_556 S
O687 C689 1.350 1_556 S
O688 U686 2.458 . S
O688 C689 1.290 . S
C689 U686 2.988 . S
C689 O687 1.350 1_554 S
C689 O688 1.290 . S
C689 C691 1.361 1_554 S
C690 C680 1.465 . S
C690 U686 2.847 . S
C690 O704 1.249 . S
C690 O705 1.202 . S
C691 C689 1.361 1_556 S
C691 C693 1.408 . S
C691 C696 1.342 . S
C692 C693 1.310 . S
C692 C695 1.461 . S
C692 H712 0.932 . S
C693 C691 1.408 . S
C693 C692 1.310 . S
C693 H713 0.930 . S
C694 C695 1.474 . S
C694 C696 1.285 . S
C694 H714 0.929 . S
C695 C692 1.461 . S
C695 C694 1.474 . S
C696 C691 1.342 . S
C696 C694 1.285 . S
C696 H715 0.933 . S
C697 C700 1.424 . S
C697 C702 1.245 . S
C697 C703 1.428 . S
C698 C701 1.260 . S
C698 C702 1.477 . S
C698 H716 0.932 . S
C699 C700 1.384 . S
C699 C701 1.479 . S
C699 H717 0.929 . S
C700 C697 1.424 . S
C700 C699 1.384 . S
C700 H718 0.928 . S
C701 C698 1.260 . S
C701 C699 1.479 . S
C702 C697 1.245 . S
C702 C698 1.477 . S
C702 H719 0.932 . S
C703 U686 2.882 . S
C703 C697 1.428 . S
C703 O706 1.301 . S
C703 O707 1.282 . S
O704 U686 2.441 . S
O704 C690 1.249 . S
O705 U686 2.420 . S
O705 C690 1.202 . S
O706 U686 2.455 . S
O706 C703 1.301 . S
O707 U686 2.449 . S
O707 C703 1.282 . S
H708 C681 0.931 . S
H709 C683 0.929 1_554 S
H710 C684 0.930 . S
H711 C685 0.931 . S
H712 C692 0.932 . S
H713 C693 0.930 . S
H714 C694 0.929 . S
H715 C696 0.933 . S
H716 C698 0.932 . S
H717 C699 0.929 . S
H718 C700 0.928 . S
H719 C702 0.932 . S
C720 C721 1.264 . S
C720 C725 1.479 . S
C720 C730 1.465 . S
C721 C720 1.264 . S
C721 C723 1.339 . S
C721 H748 0.931 . S
C722 C723 1.395 . S
C722 C724 1.320 . S
C723 C721 1.339 . S
C723 C722 1.395 . S
C723 H749 0.929 . S
C724 C722 1.320 . S
C724 C725 1.405 . S
C724 H750 0.930 . S
C725 C720 1.479 . S
C725 C724 1.405 . S
C725 H751 0.931 . S
U726 O727 2.454 . S
U726 O728 2.458 . S
U726 C729 2.984 . S
U726 C730 2.847 . S
U726 C743 2.882 . S
U726 O744 2.441 . S
U726 O745 2.420 . S
U726 O746 2.455 . S
U726 O747 2.449 . S
O727 U726 2.454 . S
O727 C729 1.353 . S
O728 U726 2.458 . S
O728 C729 1.286 . S
C729 U726 2.984 . S
C729 O727 1.353 . S
C729 O728 1.286 . S
C729 C731 1.363 . S
C730 C720 1.465 . S
C730 U726 2.847 . S
C730 O744 1.249 . S
C730 O745 1.202 . S
C731 C729 1.363 . S
C731 C733 1.408 . S
C731 C736 1.342 . S
C732 C733 1.310 . S
C732 C735 1.461 . S
C732 H752 0.932 . S
C733 C731 1.408 . S
C733 C732 1.310 . S
C733 H753 0.930 . S
C734 C735 1.474 . S
C734 C736 1.285 . S
C734 H754 0.929 . S
C735 C732 1.461 . S
C735 C734 1.474 . S
C736 C731 1.342 . S
C736 C734 1.285 . S
C736 H755 0.930 . S
C737 C740 1.424 . S
C737 C742 1.245 . S
C737 C743 1.428 . S
C738 C741 1.260 . S
C738 C742 1.477 . S
C738 H756 0.932 . S
C739 C740 1.384 . S
C739 C741 1.479 . S
C739 H757 0.929 . S
C740 C737 1.424 . S
C740 C739 1.384 . S
C740 H758 0.928 . S
C741 C738 1.260 . S
C741 C739 1.479 . S
C742 C737 1.245 . S
C742 C738 1.477 . S
C742 H759 0.932 . S
C743 U726 2.882 . S
C743 C737 1.428 . S
C743 O746 1.301 . S
C743 O747 1.282 . S
O744 U726 2.441 . S
O744 C730 1.249 . S
O745 U726 2.420 . S
O745 C730 1.202 . S
O746 U726 2.455 . S
O746 C743 1.301 . S
O747 U726 2.449 . S
O747 C743 1.282 . S
H748 C721 0.931 . S
H749 C723 0.929 . S
H750 C724 0.930 . S
H751 C725 0.931 . S
H752 C732 0.932 . S
H753 C733 0.930 . S
H754 C734 0.929 . S
H755 C736 0.930 . S
H756 C738 0.932 . S
H757 C739 0.929 . S
H758 C740 0.928 . S
H759 C742 0.932 . S
C760 C761 1.264 . S
C760 C765 1.479 . S
C760 C770 1.465 . S
C761 C760 1.264 . S
C761 C763 1.339 . S
C761 H788 0.931 . S
C762 C763 1.395 . S
C762 C764 1.320 . S
C763 C761 1.339 . S
C763 C762 1.395 . S
C763 H789 0.929 . S
C764 C762 1.320 . S
C764 C765 1.405 . S
C764 H790 0.919 1_556 S
C765 C760 1.479 . S
C765 C764 1.405 . S
C765 H791 0.931 . S
U766 O767 2.454 . S
U766 O768 2.458 . S
U766 C769 2.984 . S
U766 C770 2.847 . S
U766 C783 2.882 . S
U766 O784 2.441 . S
U766 O785 2.420 . S
U766 O786 2.455 . S
U766 O787 2.449 . S
O767 U766 2.454 . S
O767 C769 1.353 . S
O768 U766 2.458 . S
O768 C769 1.286 . S
C769 U766 2.984 . S
C769 O767 1.353 . S
C769 O768 1.286 . S
C769 C771 1.363 . S
C770 C760 1.465 . S
C770 U766 2.847 . S
C770 O784 1.249 . S
C770 O785 1.202 . S
C771 C769 1.363 . S
C771 C773 1.408 . S
C771 C776 1.342 . S
C772 C773 1.310 . S
C772 C775 1.460 . S
C772 H792 0.932 . S
C773 C771 1.408 . S
C773 C772 1.310 . S
C773 H793 0.930 . S
C774 C775 1.475 1_554 S
C774 C776 1.285 1_554 S
C774 H794 0.930 . S
C775 C772 1.460 . S
C775 C774 1.475 1_556 S
C776 C771 1.342 . S
C776 C774 1.285 1_556 S
C776 H795 0.930 . S
C777 C780 1.424 . S
C777 C782 1.245 . S
C777 C783 1.428 . S
C778 C781 1.260 . S
C778 C782 1.477 . S
C778 H796 0.932 . S
C779 C780 1.384 . S
C779 C781 1.479 . S
C779 H797 0.929 . S
C780 C777 1.424 . S
C780 C779 1.384 . S
C780 H798 0.928 . S
C781 C778 1.260 . S
C781 C779 1.479 . S
C782 C777 1.245 . S
C782 C778 1.477 . S
C782 H799 0.932 . S
C783 U766 2.882 . S
C783 C777 1.428 . S
C783 O786 1.301 . S
C783 O787 1.282 . S
O784 U766 2.441 . S
O784 C770 1.249 . S
O785 U766 2.420 . S
O785 C770 1.202 . S
O786 U766 2.455 . S
O786 C783 1.301 . S
O787 U766 2.449 . S
O787 C783 1.282 . S
H788 C761 0.931 . S
H789 C763 0.929 . S
H790 C764 0.919 1_554 S
H791 C765 0.931 . S
H792 C772 0.932 . S
H793 C773 0.930 . S
H794 C774 0.930 . S
H795 C776 0.930 . S
H796 C778 0.932 . S
H797 C779 0.929 . S
H798 C780 0.928 . S
H799 C782 0.932 . S
C800 C801 1.264 . S
C800 C805 1.479 . S
C800 C810 1.465 . S
C801 C800 1.264 . S
C801 C803 1.339 . S
C801 H828 0.931 . S
C802 C803 1.395 . S
C802 C804 1.320 . S
C803 C801 1.339 . S
C803 C802 1.395 . S
C803 H829 0.929 . S
C804 C802 1.320 . S
C804 C805 1.405 . S
C804 H830 0.930 . S
C805 C800 1.479 . S
C805 C804 1.405 . S
C805 H831 0.931 . S
U806 O807 2.454 . S
U806 O808 2.458 . S
U806 C809 2.984 . S
U806 C810 2.847 . S
U806 C823 2.882 . S
U806 O824 2.441 . S
U806 O825 2.420 . S
U806 O826 2.455 . S
U806 O827 2.449 . S
O807 U806 2.454 . S
O807 C809 1.353 . S
O808 U806 2.458 . S
O808 C809 1.286 . S
C809 U806 2.984 . S
C809 O807 1.353 . S
C809 O808 1.286 . S
C809 C811 1.363 . S
C810 C800 1.465 . S
C810 U806 2.847 . S
C810 O824 1.249 . S
C810 O825 1.202 . S
C811 C809 1.363 . S
C811 C813 1.408 . S
C811 C816 1.342 . S
C812 C813 1.310 . S
C812 C815 1.461 . S
C812 H832 0.932 . S
C813 C811 1.408 . S
C813 C812 1.310 . S
C813 H833 0.930 . S
C814 C815 1.474 . S
C814 C816 1.285 . S
C814 H834 0.929 . S
C815 C812 1.461 . S
C815 C814 1.474 . S
C816 C811 1.342 . S
C816 C814 1.285 . S
C816 H835 0.930 . S
C817 C820 1.424 . S
C817 C822 1.245 . S
C817 C823 1.428 . S
C818 C821 1.260 . S
C818 C822 1.477 . S
C818 H836 0.932 . S
C819 C820 1.384 . S
C819 C821 1.479 . S
C819 H837 0.929 . S
C820 C817 1.424 . S
C820 C819 1.384 . S
C820 H838 0.928 . S
C821 C818 1.260 . S
C821 C819 1.479 . S
C822 C817 1.245 . S
C822 C818 1.477 . S
C822 H839 0.932 . S
C823 U806 2.882 . S
C823 C817 1.428 . S
C823 O826 1.301 . S
C823 O827 1.282 . S
O824 U806 2.441 . S
O824 C810 1.249 . S
O825 U806 2.420 . S
O825 C810 1.202 . S
O826 U806 2.455 . S
O826 C823 1.301 . S
O827 U806 2.449 . S
O827 C823 1.282 . S
H828 C801 0.931 . S
H829 C803 0.929 . S
H830 C804 0.930 . S
H831 C805 0.931 . S
H832 C812 0.932 . S
H833 C813 0.930 . S
H834 C814 0.929 . S
H835 C816 0.930 . S
H836 C818 0.932 . S
H837 C819 0.929 . S
H838 C820 0.928 . S
H839 C822 0.932 . S
C840 C841 1.264 . S
C840 C845 1.479 1_455 S
C840 C850 1.465 . S
C841 C840 1.264 . S
C841 C843 1.339 1_455 S
C841 H868 0.931 . S
C842 C843 1.395 . S
C842 C844 1.320 . S
C843 C841 1.339 1_655 S
C843 C842 1.395 . S
C843 H869 0.929 1_655 S
C844 C842 1.320 . S
C844 C845 1.405 . S
C844 H870 0.930 . S
C845 C840 1.479 1_655 S
C845 C844 1.405 . S
C845 H871 0.931 . S
U846 O847 2.454 1_455 S
U846 O848 2.458 . S
U846 C849 2.988 . S
U846 C850 2.847 . S
U846 C863 2.882 . S
U846 O864 2.441 . S
U846 O865 2.420 . S
U846 O866 2.455 . S
U846 O867 2.449 . S
O847 U846 2.454 1_655 S
O847 C849 1.350 1_655 S
O848 U846 2.458 . S
O848 C849 1.290 . S
C849 U846 2.988 . S
C849 O847 1.350 1_455 S
C849 O848 1.290 . S
C849 C851 1.361 1_455 S
C850 C840 1.465 . S
C850 U846 2.847 . S
C850 O864 1.249 . S
C850 O865 1.202 . S
C851 C849 1.361 1_655 S
C851 C853 1.408 . S
C851 C856 1.342 . S
C852 C853 1.310 . S
C852 C855 1.461 . S
C852 H872 0.932 . S
C853 C851 1.408 . S
C853 C852 1.310 . S
C853 H873 0.930 . S
C854 C855 1.474 . S
C854 C856 1.285 . S
C854 H874 0.929 . S
C855 C852 1.461 . S
C855 C854 1.474 . S
C856 C851 1.342 . S
C856 C854 1.285 . S
C856 H875 0.933 . S
C857 C860 1.424 . S
C857 C862 1.245 . S
C857 C863 1.428 . S
C858 C861 1.260 . S
C858 C862 1.477 . S
C858 H876 0.932 . S
C859 C860 1.384 . S
C859 C861 1.479 . S
C859 H877 0.929 . S
C860 C857 1.424 . S
C860 C859 1.384 . S
C860 H878 0.928 . S
C861 C858 1.260 . S
C861 C859 1.479 . S
C862 C857 1.245 . S
C862 C858 1.477 . S
C862 H879 0.932 . S
C863 U846 2.882 . S
C863 C857 1.428 . S
C863 O866 1.301 . S
C863 O867 1.282 . S
O864 U846 2.441 . S
O864 C850 1.249 . S
O865 U846 2.420 . S
O865 C850 1.202 . S
O866 U846 2.455 . S
O866 C863 1.301 . S
O867 U846 2.449 . S
O867 C863 1.282 . S
H868 C841 0.931 . S
H869 C843 0.929 1_455 S
H870 C844 0.930 . S
H871 C845 0.931 . S
H872 C852 0.932 . S
H873 C853 0.930 . S
H874 C854 0.929 . S
H875 C856 0.933 . S
H876 C858 0.932 . S
H877 C859 0.929 . S
H878 C860 0.928 . S
H879 C862 0.932 . S
C880 C881 1.264 . S
C880 C885 1.479 . S
C880 C890 1.465 . S
C881 C880 1.264 . S
C881 C883 1.339 . S
C881 H908 0.931 . S
C882 C883 1.395 . S
C882 C884 1.320 . S
C883 C881 1.339 . S
C883 C882 1.395 . S
C883 H909 0.929 . S
C884 C882 1.320 . S
C884 C885 1.405 . S
C884 H910 0.930 . S
C885 C880 1.479 . S
C885 C884 1.405 . S
C885 H911 0.931 . S
U886 O887 2.454 . S
U886 O888 2.458 . S
U886 C889 2.984 . S
U886 C890 2.847 . S
U886 C903 2.882 . S
U886 O904 2.441 . S
U886 O905 2.420 . S
U886 O906 2.455 . S
U886 O907 2.449 . S
O887 U886 2.454 . S
O887 C889 1.353 . S
O888 U886 2.458 . S
O888 C889 1.286 . S
C889 U886 2.984 . S
C889 O887 1.353 . S
C889 O888 1.286 . S
C889 C891 1.363 . S
C890 C880 1.465 . S
C890 U886 2.847 . S
C890 O904 1.249 . S
C890 O905 1.202 . S
C891 C889 1.363 . S
C891 C893 1.408 . S
C891 C896 1.342 . S
C892 C893 1.310 . S
C892 C895 1.461 . S
C892 H912 0.932 . S
C893 C891 1.408 . S
C893 C892 1.310 . S
C893 H913 0.930 . S
C894 C895 1.474 . S
C894 C896 1.285 . S
C894 H914 0.929 . S
C895 C892 1.461 . S
C895 C894 1.474 . S
C896 C891 1.342 . S
C896 C894 1.285 . S
C896 H915 0.930 . S
C897 C900 1.424 . S
C897 C902 1.245 . S
C897 C903 1.428 . S
C898 C901 1.260 . S
C898 C902 1.477 . S
C898 H916 0.932 . S
C899 C900 1.384 . S
C899 C901 1.479 . S
C899 H917 0.929 . S
C900 C897 1.424 . S
C900 C899 1.384 . S
C900 H918 0.928 . S
C901 C898 1.260 . S
C901 C899 1.479 . S
C902 C897 1.245 . S
C902 C898 1.477 . S
C902 H919 0.932 . S
C903 U886 2.882 . S
C903 C897 1.428 . S
C903 O906 1.301 . S
C903 O907 1.282 . S
O904 U886 2.441 . S
O904 C890 1.249 . S
O905 U886 2.420 . S
O905 C890 1.202 . S
O906 U886 2.455 . S
O906 C903 1.301 . S
O907 U886 2.449 . S
O907 C903 1.282 . S
H908 C881 0.931 . S
H909 C883 0.929 . S
H910 C884 0.930 . S
H911 C885 0.931 . S
H912 C892 0.932 . S
H913 C893 0.930 . S
H914 C894 0.929 . S
H915 C896 0.930 . S
H916 C898 0.932 . S
H917 C899 0.929 . S
H918 C900 0.928 . S
H919 C902 0.932 . S
C920 C921 1.264 . S
C920 C925 1.479 . S
C920 C930 1.465 . S
C921 C920 1.264 . S
C921 C923 1.339 . S
C921 H948 0.931 . S
C922 C923 1.395 . S
C922 C924 1.320 . S
C923 C921 1.339 . S
C923 C922 1.395 . S
C923 H949 0.929 . S
C924 C922 1.320 . S
C924 C925 1.405 . S
C924 H950 0.919 1_655 S
C925 C920 1.479 . S
C925 C924 1.405 . S
C925 H951 0.931 . S
U926 O927 2.454 . S
U926 O928 2.458 . S
U926 C929 2.984 . S
U926 C930 2.847 . S
U926 C943 2.882 . S
U926 O944 2.441 . S
U926 O945 2.420 . S
U926 O946 2.455 . S
U926 O947 2.449 . S
O927 U926 2.454 . S
O927 C929 1.353 . S
O928 U926 2.458 . S
O928 C929 1.286 . S
C929 U926 2.984 . S
C929 O927 1.353 . S
C929 O928 1.286 . S
C929 C931 1.363 . S
C930 C920 1.465 . S
C930 U926 2.847 . S
C930 O944 1.249 . S
C930 O945 1.202 . S
C931 C929 1.363 . S
C931 C933 1.408 . S
C931 C936 1.342 . S
C932 C933 1.310 . S
C932 C935 1.460 . S
C932 H952 0.932 . S
C933 C931 1.408 . S
C933 C932 1.310 . S
C933 H953 0.930 . S
C934 C935 1.475 1_455 S
C934 C936 1.285 1_455 S
C934 H954 0.930 . S
C935 C932 1.460 . S
C935 C934 1.475 1_655 S
C936 C931 1.342 . S
C936 C934 1.285 1_655 S
C936 H955 0.930 . S
C937 C940 1.424 . S
C937 C942 1.245 . S
C937 C943 1.428 . S
C938 C941 1.260 . S
C938 C942 1.477 . S
C938 H956 0.932 . S
C939 C940 1.384 . S
C939 C941 1.479 . S
C939 H957 0.929 . S
C940 C937 1.424 . S
C940 C939 1.384 . S
C940 H958 0.928 . S
C941 C938 1.260 . S
C941 C939 1.479 . S
C942 C937 1.245 . S
C942 C938 1.477 . S
C942 H959 0.932 . S
C943 U926 2.882 . S
C943 C937 1.428 . S
C943 O946 1.301 . S
C943 O947 1.282 . S
O944 U926 2.441 . S
O944 C930 1.249 . S
O945 U926 2.420 . S
O945 C930 1.202 . S
O946 U926 2.455 . S
O946 C943 1.301 . S
O947 U926 2.449 . S
O947 C943 1.282 . S
H948 C921 0.931 . S
H949 C923 0.929 . S
H950 C924 0.919 1_455 S
H951 C925 0.931 . S
H952 C932 0.932 . S
H953 C933 0.930 . S
H954 C934 0.930 . S
H955 C936 0.930 . S
H956 C938 0.932 . S
H957 C939 0.929 . S
H958 C940 0.928 . S
H959 C942 0.932 . S
H960 C963 0.929 . S
H961 C966 0.929 . S
H962 C968 0.930 . S
C963 H960 0.929 . S
C963 C964 1.398 . S
C963 C965 1.396 . S
C964 C963 1.398 . S
C964 C968 1.407 . S
C965 C963 1.396 . S
C965 C966 1.394 . S
C966 H961 0.929 . S
C966 C965 1.394 . S
C966 C967 1.382 . S
C967 C966 1.382 . S
C967 C968 1.392 . S
C967 N969 1.420 . S
C968 H962 0.930 . S
C968 C964 1.407 . S
C968 C967 1.392 . S
N969 C967 1.420 . S
N969 C970 1.244 . S
C970 N969 1.244 . S
H971 C974 0.929 . S
H972 C977 0.929 . S
H973 C979 0.930 . S
C974 H971 0.929 . S
C974 C975 1.398 1_556 S
C974 C976 1.396 . S
C975 C974 1.398 1_554 S
C975 C979 1.407 . S
C976 C974 1.396 . S
C976 C977 1.394 . S
C977 H972 0.929 . S
C977 C976 1.394 . S
C977 C978 1.382 1_556 S
C978 C977 1.382 1_554 S
C978 C979 1.392 . S
C978 N980 1.420 . S
C979 H973 0.930 . S
C979 C975 1.407 . S
C979 C978 1.392 . S
N980 C978 1.420 . S
N980 C981 1.244 . S
C981 N980 1.244 . S
H982 C985 0.929 . S
H983 C988 0.929 . S
H984 C990 0.930 . S
C985 H982 0.929 . S
C985 C986 1.398 . S
C985 C987 1.396 . S
C986 C985 1.398 . S
C986 C990 1.407 . S
C987 C985 1.396 . S
C987 C988 1.394 1_565 S
C988 H983 0.929 . S
C988 C987 1.394 1_545 S
C988 C989 1.382 . S
C989 C988 1.382 . S
C989 C990 1.392 1_545 S
C989 N991 1.420 . S
C990 H984 0.930 . S
C990 C986 1.407 . S
C990 C989 1.392 1_565 S
N991 C989 1.420 . S
N991 C992 1.244 . S
C992 N991 1.244 . S
H993 C996 0.929 . S
H994 C999 0.929 . S
H995 C1001 0.930 . S
C996 H993 0.929 . S
C996 C997 1.398 1_554 S
C996 C998 1.396 . S
C997 C996 1.398 1_556 S
C997 C1001 1.407 . S
C998 C996 1.396 . S
C998 C999 1.394 . S
C999 H994 0.929 . S
C999 C998 1.394 . S
C999 C1000 1.382 1_554 S
C1000 C999 1.382 1_556 S
C1000 C1001 1.392 . S
C1000 N1002 1.420 . S
C1001 H995 0.930 . S
C1001 C997 1.407 . S
C1001 C1000 1.392 . S
N1002 C1000 1.420 . S
N1002 C1003 1.244 . S
C1003 N1002 1.244 . S
H1004 C1007 0.929 . S
H1005 C1010 0.929 . S
H1006 C1012 0.930 . S
C1007 H1004 0.929 . S
C1007 C1008 1.398 . S
C1007 C1009 1.396 . S
C1008 C1007 1.398 . S
C1008 C1012 1.407 . S
C1009 C1007 1.396 . S
C1009 C1010 1.394 . S
C1010 H1005 0.929 . S
C1010 C1009 1.394 . S
C1010 C1011 1.382 . S
C1011 C1010 1.382 . S
C1011 C1012 1.392 . S
C1011 N1013 1.420 . S
C1012 H1006 0.930 . S
C1012 C1008 1.407 . S
C1012 C1011 1.392 . S
N1013 C1011 1.420 . S
N1013 C1014 1.244 . S
C1014 N1013 1.244 . S
H1015 C1018 0.929 . S
H1016 C1021 0.929 . S
H1017 C1023 0.930 . S
C1018 H1015 0.929 . S
C1018 C1019 1.398 1_455 S
C1018 C1020 1.396 . S
C1019 C1018 1.398 1_655 S
C1019 C1023 1.407 . S
C1020 C1018 1.396 . S
C1020 C1021 1.394 . S
C1021 H1016 0.929 . S
C1021 C1020 1.394 . S
C1021 C1022 1.382 1_455 S
C1022 C1021 1.382 1_655 S
C1022 C1023 1.392 . S
C1022 N1024 1.420 . S
C1023 H1017 0.930 . S
C1023 C1019 1.407 . S
C1023 C1022 1.392 . S
N1024 C1022 1.420 . S
N1024 C1025 1.244 . S
C1025 N1024 1.244 . S
H1026 C1029 0.929 . S
H1027 C1032 0.929 . S
H1028 C1034 0.930 . S
C1029 H1026 0.929 . S
C1029 C1030 1.398 1_655 S
C1029 C1031 1.396 . S
C1030 C1029 1.398 1_455 S
C1030 C1034 1.407 . S
C1031 C1029 1.396 . S
C1031 C1032 1.394 . S
C1032 H1027 0.929 . S
C1032 C1031 1.394 . S
C1032 C1033 1.382 1_655 S
C1033 C1032 1.382 1_455 S
C1033 C1034 1.392 . S
C1033 N1035 1.420 . S
C1034 H1028 0.930 . S
C1034 C1030 1.407 . S
C1034 C1033 1.392 . S
N1035 C1033 1.420 . S
N1035 C1036 1.244 . S
C1036 N1035 1.244 . S
H1037 C1040 0.929 . S
H1038 C1043 0.929 . S
H1039 C1045 0.930 . S
C1040 H1037 0.929 . S
C1040 C1041 1.398 . S
C1040 C1042 1.396 . S
C1041 C1040 1.398 . S
C1041 C1045 1.407 . S
C1042 C1040 1.396 . S
C1042 C1043 1.394 1_556 S
C1043 H1038 0.929 . S
C1043 C1042 1.394 1_554 S
C1043 C1044 1.382 . S
C1044 C1043 1.382 . S
C1044 C1045 1.392 1_554 S
C1044 N1046 1.420 . S
C1045 H1039 0.930 . S
C1045 C1041 1.407 . S
C1045 C1044 1.392 1_556 S
N1046 C1044 1.420 . S
N1046 C1047 1.244 . S
C1047 N1046 1.244 . S
H1048 C1051 0.929 . S
H1049 C1054 0.929 . S
H1050 C1056 0.930 . S
C1051 H1048 0.929 . S
C1051 C1052 1.398 . S
C1051 C1053 1.396 . S
C1052 C1051 1.398 . S
C1052 C1056 1.407 . S
C1053 C1051 1.396 . S
C1053 C1054 1.394 . S
C1054 H1049 0.929 . S
C1054 C1053 1.394 . S
C1054 C1055 1.382 . S
C1055 C1054 1.382 . S
C1055 C1056 1.392 . S
C1055 N1057 1.420 . S
C1056 H1050 0.930 . S
C1056 C1052 1.407 . S
C1056 C1055 1.392 . S
N1057 C1055 1.420 . S
N1057 C1058 1.244 . S
C1058 N1057 1.244 . S
H1059 C1062 0.929 . S
H1060 C1065 0.929 . S
H1061 C1067 0.930 . S
C1062 H1059 0.929 . S
C1062 C1063 1.398 1_545 S
C1062 C1064 1.396 . S
C1063 C1062 1.398 1_565 S
C1063 C1067 1.407 . S
C1064 C1062 1.396 . S
C1064 C1065 1.394 . S
C1065 H1060 0.929 . S
C1065 C1064 1.394 . S
C1065 C1066 1.382 1_545 S
C1066 C1065 1.382 1_565 S
C1066 C1067 1.392 . S
C1066 N1068 1.420 . S
C1067 H1061 0.930 . S
C1067 C1063 1.407 . S
C1067 C1066 1.392 . S
N1068 C1066 1.420 . S
N1068 C1069 1.244 . S
C1069 N1068 1.244 . S
H1070 C1073 0.929 . S
H1071 C1076 0.929 . S
H1072 C1078 0.930 . S
C1073 H1070 0.929 . S
C1073 C1074 1.398 1_565 S
C1073 C1075 1.396 . S
C1074 C1073 1.398 1_545 S
C1074 C1078 1.407 . S
C1075 C1073 1.396 . S
C1075 C1076 1.394 . S
C1076 H1071 0.929 . S
C1076 C1075 1.394 . S
C1076 C1077 1.382 1_565 S
C1077 C1076 1.382 1_545 S
C1077 C1078 1.392 . S
C1077 N1079 1.420 . S
C1078 H1072 0.930 . S
C1078 C1074 1.407 . S
C1078 C1077 1.392 . S
N1079 C1077 1.420 . S
N1079 C1080 1.244 . S
C1080 N1079 1.244 . S
H1081 C1084 0.929 . S
H1082 C1087 0.929 . S
H1083 C1089 0.930 . S
C1084 H1081 0.929 . S
C1084 C1085 1.398 . S
C1084 C1086 1.396 . S
C1085 C1084 1.398 . S
C1085 C1089 1.407 . S
C1086 C1084 1.396 . S
C1086 C1087 1.394 1_655 S
C1087 H1082 0.929 . S
C1087 C1086 1.394 1_455 S
C1087 C1088 1.382 . S
C1088 C1087 1.382 . S
C1088 C1089 1.392 1_455 S
C1088 N1090 1.420 . S
C1089 H1083 0.930 . S
C1089 C1085 1.407 . S
C1089 C1088 1.392 1_655 S
N1090 C1088 1.420 . S
N1090 C1091 1.244 . S
C1091 N1090 1.244 . S
H1092 C1095 0.929 . S
H1093 C1098 0.929 . S
H1094 C1100 0.930 . S
C1095 H1092 0.929 . S
C1095 C1096 1.398 . S
C1095 C1097 1.396 . S
C1096 C1095 1.398 . S
C1096 C1100 1.407 . S
C1097 C1095 1.396 . S
C1097 C1098 1.394 . S
C1098 H1093 0.929 . S
C1098 C1097 1.394 . S
C1098 C1099 1.382 . S
C1099 C1098 1.382 . S
C1099 C1100 1.392 . S
C1099 N1101 1.420 . S
C1100 H1094 0.930 . S
C1100 C1096 1.407 . S
C1100 C1099 1.392 . S
N1101 C1099 1.420 . S
N1101 C1102 1.244 . S
C1102 N1101 1.244 . S
H1103 C1106 0.929 . S
H1104 C1109 0.929 . S
H1105 C1111 0.930 . S
C1106 H1103 0.929 . S
C1106 C1107 1.398 1_554 S
C1106 C1108 1.396 . S
C1107 C1106 1.398 1_556 S
C1107 C1111 1.407 . S
C1108 C1106 1.396 . S
C1108 C1109 1.394 . S
C1109 H1104 0.929 . S
C1109 C1108 1.394 . S
C1109 C1110 1.382 1_554 S
C1110 C1109 1.382 1_556 S
C1110 C1111 1.392 . S
C1110 N1112 1.420 . S
C1111 H1105 0.930 . S
C1111 C1107 1.407 . S
C1111 C1110 1.392 . S
N1112 C1110 1.420 . S
N1112 C1113 1.244 . S
C1113 N1112 1.244 . S
H1114 C1117 0.929 . S
H1115 C1120 0.929 . S
H1116 C1122 0.930 . S
C1117 H1114 0.929 . S
C1117 C1118 1.398 . S
C1117 C1119 1.396 . S
C1118 C1117 1.398 . S
C1118 C1122 1.407 . S
C1119 C1117 1.396 . S
C1119 C1120 1.394 1_545 S
C1120 H1115 0.929 . S
C1120 C1119 1.394 1_565 S
C1120 C1121 1.382 . S
C1121 C1120 1.382 . S
C1121 C1122 1.392 1_565 S
C1121 N1123 1.420 . S
C1122 H1116 0.930 . S
C1122 C1118 1.407 . S
C1122 C1121 1.392 1_545 S
N1123 C1121 1.420 . S
N1123 C1124 1.244 . S
C1124 N1123 1.244 . S
H1125 C1128 0.929 . S
H1126 C1131 0.929 . S
H1127 C1133 0.930 . S
C1128 H1125 0.929 . S
C1128 C1129 1.398 1_556 S
C1128 C1130 1.396 . S
C1129 C1128 1.398 1_554 S
C1129 C1133 1.407 . S
C1130 C1128 1.396 . S
C1130 C1131 1.394 . S
C1131 H1126 0.929 . S
C1131 C1130 1.394 . S
C1131 C1132 1.382 1_556 S
C1132 C1131 1.382 1_554 S
C1132 C1133 1.392 . S
C1132 N1134 1.420 . S
C1133 H1127 0.930 . S
C1133 C1129 1.407 . S
C1133 C1132 1.392 . S
N1134 C1132 1.420 . S
N1134 C1135 1.244 . S
C1135 N1134 1.244 . S
H1136 C1139 0.929 . S
H1137 C1142 0.929 . S
H1138 C1144 0.930 . S
C1139 H1136 0.929 . S
C1139 C1140 1.398 . S
C1139 C1141 1.396 . S
C1140 C1139 1.398 . S
C1140 C1144 1.407 . S
C1141 C1139 1.396 . S
C1141 C1142 1.394 . S
C1142 H1137 0.929 . S
C1142 C1141 1.394 . S
C1142 C1143 1.382 . S
C1143 C1142 1.382 . S
C1143 C1144 1.392 . S
C1143 N1145 1.420 . S
C1144 H1138 0.930 . S
C1144 C1140 1.407 . S
C1144 C1143 1.392 . S
N1145 C1143 1.420 . S
N1145 C1146 1.244 . S
C1146 N1145 1.244 . S
H1147 C1150 0.929 . S
H1148 C1153 0.929 . S
H1149 C1155 0.930 . S
C1150 H1147 0.929 . S
C1150 C1151 1.398 1_655 S
C1150 C1152 1.396 . S
C1151 C1150 1.398 1_455 S
C1151 C1155 1.407 . S
C1152 C1150 1.396 . S
C1152 C1153 1.394 . S
C1153 H1148 0.929 . S
C1153 C1152 1.394 . S
C1153 C1154 1.382 1_655 S
C1154 C1153 1.382 1_455 S
C1154 C1155 1.392 . S
C1154 N1156 1.420 . S
C1155 H1149 0.930 . S
C1155 C1151 1.407 . S
C1155 C1154 1.392 . S
N1156 C1154 1.420 . S
N1156 C1157 1.244 . S
C1157 N1156 1.244 . S
H1158 C1161 0.929 . S
H1159 C1164 0.929 . S
H1160 C1166 0.930 . S
C1161 H1158 0.929 . S
C1161 C1162 1.398 1_455 S
C1161 C1163 1.396 . S
C1162 C1161 1.398 1_655 S
C1162 C1166 1.407 . S
C1163 C1161 1.396 . S
C1163 C1164 1.394 . S
C1164 H1159 0.929 . S
C1164 C1163 1.394 . S
C1164 C1165 1.382 1_455 S
C1165 C1164 1.382 1_655 S
C1165 C1166 1.392 . S
C1165 N1167 1.420 . S
C1166 H1160 0.930 . S
C1166 C1162 1.407 . S
C1166 C1165 1.392 . S
N1167 C1165 1.420 . S
N1167 C1168 1.244 . S
C1168 N1167 1.244 . S
H1169 C1172 0.929 . S
H1170 C1175 0.929 . S
H1171 C1177 0.930 . S
C1172 H1169 0.929 . S
C1172 C1173 1.398 . S
C1172 C1174 1.396 . S
C1173 C1172 1.398 . S
C1173 C1177 1.407 . S
C1174 C1172 1.396 . S
C1174 C1175 1.394 1_554 S
C1175 H1170 0.929 . S
C1175 C1174 1.394 1_556 S
C1175 C1176 1.382 . S
C1176 C1175 1.382 . S
C1176 C1177 1.392 1_556 S
C1176 N1178 1.420 . S
C1177 H1171 0.930 . S
C1177 C1173 1.407 . S
C1177 C1176 1.392 1_554 S
N1178 C1176 1.420 . S
N1178 C1179 1.244 . S
C1179 N1178 1.244 . S
H1180 C1183 0.929 . S
H1181 C1186 0.929 . S
H1182 C1188 0.930 . S
C1183 H1180 0.929 . S
C1183 C1184 1.398 . S
C1183 C1185 1.396 . S
C1184 C1183 1.398 . S
C1184 C1188 1.407 . S
C1185 C1183 1.396 . S
C1185 C1186 1.394 . S
C1186 H1181 0.929 . S
C1186 C1185 1.394 . S
C1186 C1187 1.382 . S
C1187 C1186 1.382 . S
C1187 C1188 1.392 . S
C1187 N1189 1.420 . S
C1188 H1182 0.930 . S
C1188 C1184 1.407 . S
C1188 C1187 1.392 . S
N1189 C1187 1.420 . S
N1189 C1190 1.244 . S
C1190 N1189 1.244 . S
H1191 C1194 0.929 . S
H1192 C1197 0.929 . S
H1193 C1199 0.930 . S
C1194 H1191 0.929 . S
C1194 C1195 1.398 1_565 S
C1194 C1196 1.396 . S
C1195 C1194 1.398 1_545 S
C1195 C1199 1.407 . S
C1196 C1194 1.396 . S
C1196 C1197 1.394 . S
C1197 H1192 0.929 . S
C1197 C1196 1.394 . S
C1197 C1198 1.382 1_565 S
C1198 C1197 1.382 1_545 S
C1198 C1199 1.392 . S
C1198 N1200 1.420 . S
C1199 H1193 0.930 . S
C1199 C1195 1.407 . S
C1199 C1198 1.392 . S
N1200 C1198 1.420 . S
N1200 C1201 1.244 . S
C1201 N1200 1.244 . S
H1202 C1205 0.929 . S
H1203 C1208 0.929 . S
H1204 C1210 0.930 . S
C1205 H1202 0.929 . S
C1205 C1206 1.398 1_545 S
C1205 C1207 1.396 . S
C1206 C1205 1.398 1_565 S
C1206 C1210 1.407 . S
C1207 C1205 1.396 . S
C1207 C1208 1.394 . S
C1208 H1203 0.929 . S
C1208 C1207 1.394 . S
C1208 C1209 1.382 1_545 S
C1209 C1208 1.382 1_565 S
C1209 C1210 1.392 . S
C1209 N1211 1.420 . S
C1210 H1204 0.930 . S
C1210 C1206 1.407 . S
C1210 C1209 1.392 . S
N1211 C1209 1.420 . S
N1211 C1212 1.244 . S
C1212 N1211 1.244 . S
H1213 C1216 0.929 . S
H1214 C1219 0.929 . S
H1215 C1221 0.930 . S
C1216 H1213 0.929 . S
C1216 C1217 1.398 . S
C1216 C1218 1.396 . S
C1217 C1216 1.398 . S
C1217 C1221 1.407 . S
C1218 C1216 1.396 . S
C1218 C1219 1.394 1_455 S
C1219 H1214 0.929 . S
C1219 C1218 1.394 1_655 S
C1219 C1220 1.382 . S
C1220 C1219 1.382 . S
C1220 C1221 1.392 1_655 S
C1220 N1222 1.420 . S
C1221 H1215 0.930 . S
C1221 C1217 1.407 . S
C1221 C1220 1.392 1_455 S
N1222 C1220 1.420 . S
N1222 C1223 1.244 . S
C1223 N1222 1.244 . S
C1224 C1225 1.363 . S
C1224 C1230 1.379 . S
C1224 N1232 1.356 . S
C1225 C1224 1.363 . S
C1225 C1231 1.363 . S
C1226 C1227 1.363 . S
C1226 C1231 1.379 . S
C1226 N1233 1.356 . S
C1227 C1226 1.363 . S
C1227 C1230 1.363 . S
N1228 C1230 1.356 . S
N1228 H1240 0.984 . S
N1228 H1241 0.985 . S
N1229 C1231 1.356 . S
N1229 H1234 0.984 . S
N1229 H1235 0.985 . S
C1230 C1224 1.379 . S
C1230 C1227 1.363 . S
C1230 N1228 1.356 . S
C1231 C1225 1.363 . S
C1231 C1226 1.379 . S
C1231 N1229 1.356 . S
N1232 C1224 1.356 . S
N1232 H1238 0.984 . S
N1232 H1239 0.984 . S
N1233 C1226 1.356 . S
N1233 H1236 0.984 . S
N1233 H1237 0.985 . S
H1234 N1229 0.984 . S
H1235 N1229 0.985 . S
H1236 N1233 0.984 . S
H1237 N1233 0.985 . S
H1238 N1232 0.984 . S
H1239 N1232 0.984 . S
H1240 N1228 0.984 . S
H1241 N1228 0.985 . S
C1242 C1243 1.363 . S
C1242 C1248 1.379 . S
C1242 N1250 1.356 . S
C1243 C1242 1.363 . S
C1243 C1249 1.363 . S
C1244 C1245 1.363 . S
C1244 C1249 1.379 . S
C1244 N1251 1.356 . S
C1245 C1244 1.363 . S
C1245 C1248 1.363 . S
N1246 C1248 1.356 . S
N1246 H1258 0.984 . S
N1246 H1259 0.985 . S
N1247 C1249 1.356 . S
N1247 H1252 0.984 . S
N1247 H1253 0.985 . S
C1248 C1242 1.379 . S
C1248 C1245 1.363 . S
C1248 N1246 1.356 . S
C1249 C1243 1.363 . S
C1249 C1244 1.379 . S
C1249 N1247 1.356 . S
N1250 C1242 1.356 . S
N1250 H1256 0.984 . S
N1250 H1257 0.984 . S
N1251 C1244 1.356 . S
N1251 H1254 0.984 . S
N1251 H1255 0.985 . S
H1252 N1247 0.984 . S
H1253 N1247 0.985 . S
H1254 N1251 0.984 . S
H1255 N1251 0.985 . S
H1256 N1250 0.984 . S
H1257 N1250 0.984 . S
H1258 N1246 0.984 . S
H1259 N1246 0.985 . S
C1260 C1261 1.363 . S
C1260 C1266 1.387 . S
C1260 N1268 1.347 1_565 S
C1261 C1260 1.363 . S
C1261 C1267 1.363 . S
C1262 C1263 1.363 . S
C1262 C1267 1.379 . S
C1262 N1269 1.356 . S
C1263 C1262 1.363 . S
C1263 C1266 1.363 . S
N1264 C1266 1.356 . S
N1264 H1276 0.984 . S
N1264 H1277 0.985 . S
N1265 C1267 1.356 . S
N1265 H1270 0.984 . S
N1265 H1271 0.985 . S
C1266 C1260 1.387 . S
C1266 C1263 1.363 . S
C1266 N1264 1.356 . S
C1267 C1261 1.363 . S
C1267 C1262 1.379 . S
C1267 N1265 1.356 . S
N1268 C1260 1.347 1_545 S
N1268 H1274 0.984 . S
N1268 H1275 0.984 . S
N1269 C1262 1.356 . S
N1269 H1272 0.984 . S
N1269 H1273 0.985 . S
H1270 N1265 0.984 . S
H1271 N1265 0.985 . S
H1272 N1269 0.984 . S
H1273 N1269 0.985 . S
H1274 N1268 0.984 . S
H1275 N1268 0.984 . S
H1276 N1264 0.984 . S
H1277 N1264 0.985 . S
C1278 C1279 1.351 1_565 S
C1278 C1284 1.383 1_565 S
C1278 N1286 1.365 . S
C1279 C1278 1.351 1_545 S
C1279 C1285 1.363 . S
C1280 C1281 1.363 1_655 S
C1280 C1285 1.379 . S
C1280 N1287 1.356 1_655 S
C1281 C1280 1.363 1_455 S
C1281 C1284 1.358 1_455 S
N1282 C1284 1.356 1_465 S
N1282 H1294 0.984 . S
N1282 H1295 0.985 . S
N1283 C1285 1.356 . S
N1283 H1288 0.984 . S
N1283 H1289 0.985 . S
C1284 C1278 1.383 1_545 S
C1284 C1281 1.358 1_655 S
C1284 N1282 1.356 1_645 S
C1285 C1279 1.363 . S
C1285 C1280 1.379 . S
C1285 N1283 1.356 . S
N1286 C1278 1.365 . S
N1286 H1292 0.984 . S
N1286 H1293 0.984 . S
N1287 C1280 1.356 1_455 S
N1287 H1290 0.984 . S
N1287 H1291 1.002 . S
H1288 N1283 0.984 . S
H1289 N1283 0.985 . S
H1290 N1287 0.984 . S
H1291 N1287 1.002 . S
H1292 N1286 0.984 . S
H1293 N1286 0.984 . S
H1294 N1282 0.984 . S
H1295 N1282 0.985 . S
C1296 C1297 1.363 . S
C1296 C1302 1.379 . S
C1296 N1304 1.356 . S
C1297 C1296 1.363 . S
C1297 C1303 1.363 . S
C1298 C1299 1.363 . S
C1298 C1303 1.379 . S
C1298 N1305 1.356 . S
C1299 C1298 1.363 . S
C1299 C1302 1.363 . S
N1300 C1302 1.356 . S
N1300 H1312 0.984 . S
N1300 H1313 0.985 . S
N1301 C1303 1.356 . S
N1301 H1306 0.984 . S
N1301 H1307 0.985 . S
C1302 C1296 1.379 . S
C1302 C1299 1.363 . S
C1302 N1300 1.356 . S
C1303 C1297 1.363 . S
C1303 C1298 1.379 . S
C1303 N1301 1.356 . S
N1304 C1296 1.356 . S
N1304 H1310 0.984 . S
N1304 H1311 0.984 . S
N1305 C1298 1.356 . S
N1305 H1308 0.984 . S
N1305 H1309 0.985 . S
H1306 N1301 0.984 . S
H1307 N1301 0.985 . S
H1308 N1305 0.984 . S
H1309 N1305 0.985 . S
H1310 N1304 0.984 . S
H1311 N1304 0.984 . S
H1312 N1300 0.984 . S
H1313 N1300 0.985 . S
C1314 C1315 1.363 . S
C1314 C1320 1.379 . S
C1314 N1322 1.356 . S
C1315 C1314 1.363 . S
C1315 C1321 1.346 1_554 S
C1316 C1317 1.360 1_566 S
C1316 C1321 1.387 . S
C1316 N1323 1.351 1_565 S
C1317 C1316 1.360 1_544 S
C1317 C1320 1.363 1_545 S
N1318 C1320 1.356 1_545 S
N1318 H1330 0.984 . S
N1318 H1331 0.985 . S
N1319 C1321 1.369 . S
N1319 H1324 0.984 . S
N1319 H1325 0.985 . S
C1320 C1314 1.379 . S
C1320 C1317 1.363 1_565 S
C1320 N1318 1.356 1_565 S
C1321 C1315 1.346 1_556 S
C1321 C1316 1.387 . S
C1321 N1319 1.369 . S
N1322 C1314 1.356 . S
N1322 H1328 0.984 . S
N1322 H1329 0.984 . S
N1323 C1316 1.351 1_545 S
N1323 H1326 0.984 . S
N1323 H1327 0.985 . S
H1324 N1319 0.984 . S
H1325 N1319 0.985 . S
H1326 N1323 0.984 . S
H1327 N1323 0.985 . S
H1328 N1322 0.984 . S
H1329 N1322 0.984 . S
H1330 N1318 0.984 . S
H1331 N1318 0.985 . S
C1332 C1333 1.363 . S
C1332 C1338 1.379 . S
C1332 N1340 1.356 . S
C1333 C1332 1.363 . S
C1333 C1339 1.363 . S
C1334 C1335 1.363 . S
C1334 C1339 1.379 . S
C1334 N1341 1.356 . S
C1335 C1334 1.363 . S
C1335 C1338 1.363 . S
N1336 C1338 1.356 . S
N1336 H1348 0.984 . S
N1336 H1349 0.985 . S
N1337 C1339 1.356 . S
N1337 H1342 0.984 . S
N1337 H1343 0.985 . S
C1338 C1332 1.379 . S
C1338 C1335 1.363 . S
C1338 N1336 1.356 . S
C1339 C1333 1.363 . S
C1339 C1334 1.379 . S
C1339 N1337 1.356 . S
N1340 C1332 1.356 . S
N1340 H1346 0.984 . S
N1340 H1347 0.984 . S
N1341 C1334 1.356 . S
N1341 H1344 0.984 . S
N1341 H1345 0.985 . S
H1342 N1337 0.984 . S
H1343 N1337 0.985 . S
H1344 N1341 0.984 . S
H1345 N1341 0.985 . S
H1346 N1340 0.984 . S
H1347 N1340 0.984 . S
H1348 N1336 0.984 . S
H1349 N1336 0.985 . S
C1350 C1351 1.363 1_554 S
C1350 C1356 1.379 . S
C1350 N1358 1.356 . S
C1351 C1350 1.363 1_556 S
C1351 C1357 1.363 . S
C1352 C1353 1.363 . S
C1352 C1357 1.379 . S
C1352 N1359 1.356 . S
C1353 C1352 1.363 . S
C1353 C1356 1.363 1_556 S
N1354 C1356 1.356 . S
N1354 H1366 0.984 . S
N1354 H1367 0.985 . S
N1355 C1357 1.356 . S
N1355 H1360 0.984 . S
N1355 H1361 0.985 . S
C1356 C1350 1.379 . S
C1356 C1353 1.363 1_554 S
C1356 N1354 1.356 . S
C1357 C1351 1.363 . S
C1357 C1352 1.379 . S
C1357 N1355 1.356 . S
N1358 C1350 1.356 . S
N1358 H1364 0.984 . S
N1358 H1365 0.984 . S
N1359 C1352 1.356 . S
N1359 H1362 0.984 . S
N1359 H1363 0.985 . S
H1360 N1355 0.984 . S
H1361 N1355 0.985 . S
H1362 N1359 0.984 . S
H1363 N1359 0.985 . S
H1364 N1358 0.984 . S
H1365 N1358 0.984 . S
H1366 N1354 0.984 . S
H1367 N1354 0.985 . S
C1368 C1369 1.363 . S
C1368 C1374 1.379 . S
C1368 N1376 1.356 . S
C1369 C1368 1.363 . S
C1369 C1375 1.363 . S
C1370 C1371 1.363 . S
C1370 C1375 1.379 . S
C1370 N1377 1.356 . S
C1371 C1370 1.363 . S
C1371 C1374 1.363 . S
N1372 C1374 1.356 . S
N1372 H1384 0.984 . S
N1372 H1385 0.985 . S
N1373 C1375 1.356 . S
N1373 H1378 0.984 . S
N1373 H1379 0.985 . S
C1374 C1368 1.379 . S
C1374 C1371 1.363 . S
C1374 N1372 1.356 . S
C1375 C1369 1.363 . S
C1375 C1370 1.379 . S
C1375 N1373 1.356 . S
N1376 C1368 1.356 . S
N1376 H1382 0.984 . S
N1376 H1383 0.984 . S
N1377 C1370 1.356 . S
N1377 H1380 0.984 . S
N1377 H1381 0.985 . S
H1378 N1373 0.984 . S
H1379 N1373 0.985 . S
H1380 N1377 0.984 . S
H1381 N1377 0.985 . S
H1382 N1376 0.984 . S
H1383 N1376 0.984 . S
H1384 N1372 0.984 . S
H1385 N1372 0.985 . S
C1386 C1387 1.363 1_655 S
C1386 C1392 1.379 . S
C1386 N1394 1.356 . S
C1387 C1386 1.363 1_455 S
C1387 C1393 1.363 . S
C1388 C1389 1.363 . S
C1388 C1393 1.379 1_554 S
C1388 N1395 1.356 . S
C1389 C1388 1.363 . S
C1389 C1392 1.363 1_454 S
N1390 C1392 1.356 1_554 S
N1390 H1402 0.984 1_554 S
N1390 H1403 0.985 . S
N1391 C1393 1.356 . S
N1391 H1396 0.984 . S
N1391 H1397 0.985 . S
C1392 C1386 1.379 . S
C1392 C1389 1.363 1_656 S
C1392 N1390 1.356 1_556 S
C1393 C1387 1.363 . S
C1393 C1388 1.379 1_556 S
C1393 N1391 1.356 . S
N1394 C1386 1.356 . S
N1394 H1400 0.984 . S
N1394 H1401 0.984 . S
N1395 C1388 1.356 . S
N1395 H1398 0.984 . S
N1395 H1399 0.985 . S
H1396 N1391 0.984 . S
H1397 N1391 0.985 . S
H1398 N1395 0.984 . S
H1399 N1395 0.985 . S
H1400 N1394 0.984 . S
H1401 N1394 0.984 . S
H1402 N1390 0.984 1_556 S
H1403 N1390 0.985 . S
C1404 C1405 1.363 . S
C1404 C1410 1.379 . S
C1404 N1412 1.356 . S
C1405 C1404 1.363 . S
C1405 C1411 1.363 . S
C1406 C1407 1.363 . S
C1406 C1411 1.379 . S
C1406 N1413 1.356 . S
C1407 C1406 1.363 . S
C1407 C1410 1.363 . S
N1408 C1410 1.356 . S
N1408 H1420 0.984 . S
N1408 H1421 0.985 . S
N1409 C1411 1.356 . S
N1409 H1414 0.984 . S
N1409 H1415 0.985 . S
C1410 C1404 1.379 . S
C1410 C1407 1.363 . S
C1410 N1408 1.356 . S
C1411 C1405 1.363 . S
C1411 C1406 1.379 . S
C1411 N1409 1.356 . S
N1412 C1404 1.356 . S
N1412 H1418 0.984 . S
N1412 H1419 0.984 . S
N1413 C1406 1.356 . S
N1413 H1416 0.984 . S
N1413 H1417 0.985 . S
H1414 N1409 0.984 . S
H1415 N1409 0.985 . S
H1416 N1413 0.984 . S
H1417 N1413 0.985 . S
H1418 N1412 0.984 . S
H1419 N1412 0.984 . S
H1420 N1408 0.984 . S
H1421 N1408 0.985 . S
C1422 C1423 1.362 . S
C1422 C1428 1.377 . S
C1422 N1430 1.359 1_655 S
C1423 C1422 1.362 . S
C1423 C1429 1.363 . S
C1424 C1425 1.363 . S
C1424 C1429 1.379 . S
C1424 N1431 1.356 . S
C1425 C1424 1.363 . S
C1425 C1428 1.363 . S
N1426 C1428 1.356 . S
N1426 H1438 0.984 . S
N1426 H1439 0.985 . S
N1427 C1429 1.356 . S
N1427 H1432 0.984 . S
N1427 H1433 0.985 . S
C1428 C1422 1.377 . S
C1428 C1425 1.363 . S
C1428 N1426 1.356 . S
C1429 C1423 1.363 . S
C1429 C1424 1.379 . S
C1429 N1427 1.356 . S
N1430 C1422 1.359 1_455 S
N1430 H1436 0.984 . S
N1430 H1437 0.984 . S
N1431 C1424 1.356 . S
N1431 H1434 0.984 . S
N1431 H1435 0.985 . S
H1432 N1427 0.984 . S
H1433 N1427 0.985 . S
H1434 N1431 0.984 . S
H1435 N1431 0.985 . S
H1436 N1430 0.984 . S
H1437 N1430 0.984 . S
H1438 N1426 0.984 . S
H1439 N1426 0.985 . S
C1440 C1441 1.363 . S
C1440 C1446 1.379 . S
C1440 N1448 1.356 . S
C1441 C1440 1.363 . S
C1441 C1447 1.363 . S
C1442 C1443 1.363 . S
C1442 C1447 1.379 . S
C1442 N1449 1.356 . S
C1443 C1442 1.363 . S
C1443 C1446 1.363 . S
N1444 C1446 1.356 . S
N1444 H1456 0.984 . S
N1444 H1457 0.985 . S
N1445 C1447 1.356 . S
N1445 H1450 0.984 . S
N1445 H1451 0.985 . S
C1446 C1440 1.379 . S
C1446 C1443 1.363 . S
C1446 N1444 1.356 . S
C1447 C1441 1.363 . S
C1447 C1442 1.379 . S
C1447 N1445 1.356 . S
N1448 C1440 1.356 . S
N1448 H1454 0.984 . S
N1448 H1455 0.984 . S
N1449 C1442 1.356 . S
N1449 H1452 0.984 . S
N1449 H1453 0.985 . S
H1450 N1445 0.984 . S
H1451 N1445 0.985 . S
H1452 N1449 0.984 . S
H1453 N1449 0.985 . S
H1454 N1448 0.984 . S
H1455 N1448 0.984 . S
H1456 N1444 0.984 . S
H1457 N1444 0.985 . S
C1458 C1459 1.363 . S
C1458 C1464 1.379 . S
C1458 N1466 1.356 . S
C1459 C1458 1.363 . S
C1459 C1465 1.363 . S
C1460 C1461 1.363 . S
C1460 C1465 1.379 . S
C1460 N1467 1.356 . S
C1461 C1460 1.363 . S
C1461 C1464 1.363 . S
N1462 C1464 1.356 . S
N1462 H1474 0.984 . S
N1462 H1475 0.985 . S
N1463 C1465 1.356 . S
N1463 H1468 0.984 . S
N1463 H1469 0.985 . S
C1464 C1458 1.379 . S
C1464 C1461 1.363 . S
C1464 N1462 1.356 . S
C1465 C1459 1.363 . S
C1465 C1460 1.379 . S
C1465 N1463 1.356 . S
N1466 C1458 1.356 . S
N1466 H1472 0.984 . S
N1466 H1473 0.984 . S
N1467 C1460 1.356 . S
N1467 H1470 0.984 . S
N1467 H1471 0.985 . S
H1468 N1463 0.984 . S
H1469 N1463 0.985 . S
H1470 N1467 0.984 . S
H1471 N1467 0.985 . S
H1472 N1466 0.984 . S
H1473 N1466 0.984 . S
H1474 N1462 0.984 . S
H1475 N1462 0.985 . S
C1476 C1477 1.363 . S
C1476 C1482 1.379 . S
C1476 N1484 1.356 . S
C1477 C1476 1.363 . S
C1477 C1483 1.363 1_545 S
C1478 C1479 1.363 . S
C1478 C1483 1.379 1_545 S
C1478 N1485 1.356 1_545 S
C1479 C1478 1.363 . S
C1479 C1482 1.363 . S
N1480 C1482 1.356 . S
N1480 H1492 0.984 . S
N1480 H1493 0.985 . S
N1481 C1483 1.356 . S
N1481 H1486 0.984 . S
N1481 H1487 0.985 . S
C1482 C1476 1.379 . S
C1482 C1479 1.363 . S
C1482 N1480 1.356 . S
C1483 C1477 1.363 1_565 S
C1483 C1478 1.379 1_565 S
C1483 N1481 1.356 . S
N1484 C1476 1.356 . S
N1484 H1490 0.984 . S
N1484 H1491 0.984 . S
N1485 C1478 1.356 1_565 S
N1485 H1488 0.984 1_565 S
N1485 H1489 0.985 . S
H1486 N1481 0.984 . S
H1487 N1481 0.985 . S
H1488 N1485 0.984 1_545 S
H1489 N1485 0.985 . S
H1490 N1484 0.984 . S
H1491 N1484 0.984 . S
H1492 N1480 0.984 . S
H1493 N1480 0.985 . S
C1494 C1495 1.363 1_545 S
C1494 C1500 1.379 . S
C1494 N1502 1.356 . S
C1495 C1494 1.363 1_565 S
C1495 C1501 1.363 . S
C1496 C1497 1.363 . S
C1496 C1501 1.379 1_655 S
C1496 N1503 1.356 . S
C1497 C1496 1.363 . S
C1497 C1500 1.363 1_665 S
N1498 C1500 1.356 1_655 S
N1498 H1510 0.984 1_655 S
N1498 H1511 0.985 . S
N1499 C1501 1.356 . S
N1499 H1504 0.984 . S
N1499 H1505 0.985 . S
C1500 C1494 1.379 . S
C1500 C1497 1.363 1_445 S
C1500 N1498 1.356 1_455 S
C1501 C1495 1.363 . S
C1501 C1496 1.379 1_455 S
C1501 N1499 1.356 . S
N1502 C1494 1.356 . S
N1502 H1508 0.984 . S
N1502 H1509 0.984 . S
N1503 C1496 1.356 . S
N1503 H1506 0.984 . S
N1503 H1507 0.985 . S
H1504 N1499 0.984 . S
H1505 N1499 0.985 . S
H1506 N1503 0.984 . S
H1507 N1503 0.985 . S
H1508 N1502 0.984 . S
H1509 N1502 0.984 . S
H1510 N1498 0.984 1_455 S
H1511 N1498 0.985 . S
C1512 C1513 1.363 . S
C1512 C1518 1.379 . S
C1512 N1520 1.356 . S
C1513 C1512 1.363 . S
C1513 C1519 1.363 . S
C1514 C1515 1.363 . S
C1514 C1519 1.379 . S
C1514 N1521 1.356 . S
C1515 C1514 1.363 . S
C1515 C1518 1.363 . S
N1516 C1518 1.356 . S
N1516 H1528 0.984 . S
N1516 H1529 0.985 . S
N1517 C1519 1.356 . S
N1517 H1522 0.984 . S
N1517 H1523 0.985 . S
C1518 C1512 1.379 . S
C1518 C1515 1.363 . S
C1518 N1516 1.356 . S
C1519 C1513 1.363 . S
C1519 C1514 1.379 . S
C1519 N1517 1.356 . S
N1520 C1512 1.356 . S
N1520 H1526 0.984 . S
N1520 H1527 0.984 . S
N1521 C1514 1.356 . S
N1521 H1524 0.984 . S
N1521 H1525 0.985 . S
H1522 N1517 0.984 . S
H1523 N1517 0.985 . S
H1524 N1521 0.984 . S
H1525 N1521 0.985 . S
H1526 N1520 0.984 . S
H1527 N1520 0.984 . S
H1528 N1516 0.984 . S
H1529 N1516 0.985 . S
C1530 C1531 1.363 1_554 S
C1530 C1536 1.379 . S
C1530 N1538 1.356 . S
C1531 C1530 1.363 1_556 S
C1531 C1537 1.363 . S
C1532 C1533 1.363 . S
C1532 C1537 1.379 1_565 S
C1532 N1539 1.356 . S
C1533 C1532 1.363 . S
C1533 C1536 1.363 1_566 S
N1534 C1536 1.356 1_565 S
N1534 H1546 0.984 1_565 S
N1534 H1547 0.985 . S
N1535 C1537 1.356 . S
N1535 H1540 0.984 . S
N1535 H1541 0.985 . S
C1536 C1530 1.379 . S
C1536 C1533 1.363 1_544 S
C1536 N1534 1.356 1_545 S
C1537 C1531 1.363 . S
C1537 C1532 1.379 1_545 S
C1537 N1535 1.356 . S
N1538 C1530 1.356 . S
N1538 H1544 0.984 . S
N1538 H1545 0.984 . S
N1539 C1532 1.356 . S
N1539 H1542 0.984 . S
N1539 H1543 0.985 . S
H1540 N1535 0.984 . S
H1541 N1535 0.985 . S
H1542 N1539 0.984 . S
H1543 N1539 0.985 . S
H1544 N1538 0.984 . S
H1545 N1538 0.984 . S
H1546 N1534 0.984 1_545 S
H1547 N1534 0.985 . S
C1548 C1549 1.363 . S
C1548 C1554 1.379 . S
C1548 N1556 1.356 . S
C1549 C1548 1.363 . S
C1549 C1555 1.363 . S
C1550 C1551 1.363 . S
C1550 C1555 1.379 . S
C1550 N1557 1.356 . S
C1551 C1550 1.363 . S
C1551 C1554 1.363 . S
N1552 C1554 1.356 . S
N1552 H1564 0.984 . S
N1552 H1565 0.985 . S
N1553 C1555 1.356 . S
N1553 H1558 0.984 . S
N1553 H1559 0.985 . S
C1554 C1548 1.379 . S
C1554 C1551 1.363 . S
C1554 N1552 1.356 . S
C1555 C1549 1.363 . S
C1555 C1550 1.379 . S
C1555 N1553 1.356 . S
N1556 C1548 1.356 . S
N1556 H1562 0.984 . S
N1556 H1563 0.984 . S
N1557 C1550 1.356 . S
N1557 H1560 0.984 . S
N1557 H1561 0.985 . S
H1558 N1553 0.984 . S
H1559 N1553 0.985 . S
H1560 N1557 0.984 . S
H1561 N1557 0.985 . S
H1562 N1556 0.984 . S
H1563 N1556 0.984 . S
H1564 N1552 0.984 . S
H1565 N1552 0.985 . S
C1566 C1567 1.363 . S
C1566 C1572 1.379 . S
C1566 N1574 1.356 . S
C1567 C1566 1.363 . S
C1567 C1573 1.363 1_554 S
C1568 C1569 1.373 . S
C1568 C1573 1.375 1_554 S
C1568 N1575 1.352 1_554 S
C1569 C1568 1.373 . S
C1569 C1572 1.363 . S
N1570 C1572 1.356 . S
N1570 H1582 0.984 . S
N1570 H1583 0.985 . S
N1571 C1573 1.356 . S
N1571 H1576 0.984 . S
N1571 H1577 0.985 . S
C1572 C1566 1.379 . S
C1572 C1569 1.363 . S
C1572 N1570 1.356 . S
C1573 C1567 1.363 1_556 S
C1573 C1568 1.375 1_556 S
C1573 N1571 1.356 . S
N1574 C1566 1.356 . S
N1574 H1580 0.984 . S
N1574 H1581 0.984 . S
N1575 C1568 1.352 1_556 S
N1575 H1578 0.984 1_556 S
N1575 H1579 0.985 . S
H1576 N1571 0.984 . S
H1577 N1571 0.985 . S
H1578 N1575 0.984 1_554 S
H1579 N1575 0.985 . S
H1580 N1574 0.984 . S
H1581 N1574 0.984 . S
H1582 N1570 0.984 . S
H1583 N1570 0.985 . S
C1584 C1585 1.363 . S
C1584 C1590 1.379 . S
C1584 N1592 1.356 . S
C1585 C1584 1.363 . S
C1585 C1591 1.363 . S
C1586 C1587 1.363 . S
C1586 C1591 1.379 . S
C1586 N1593 1.356 . S
C1587 C1586 1.363 . S
C1587 C1590 1.363 . S
N1588 C1590 1.356 . S
N1588 H1600 0.984 . S
N1588 H1601 0.985 . S
N1589 C1591 1.356 . S
N1589 H1594 0.984 . S
N1589 H1595 0.985 . S
C1590 C1584 1.379 . S
C1590 C1587 1.363 . S
C1590 N1588 1.356 . S
C1591 C1585 1.363 . S
C1591 C1586 1.379 . S
C1591 N1589 1.356 . S
N1592 C1584 1.356 . S
N1592 H1598 0.984 . S
N1592 H1599 0.984 . S
N1593 C1586 1.356 . S
N1593 H1596 0.984 . S
N1593 H1597 0.985 . S
H1594 N1589 0.984 . S
H1595 N1589 0.985 . S
H1596 N1593 0.984 . S
H1597 N1593 0.985 . S
H1598 N1592 0.984 . S
H1599 N1592 0.984 . S
H1600 N1588 0.984 . S
H1601 N1588 0.985 . S
C1602 C1603 1.363 . S
C1602 C1608 1.379 . S
C1602 N1610 1.356 . S
C1603 C1602 1.363 . S
C1603 C1609 1.363 . S
C1604 C1605 1.363 . S
C1604 C1609 1.379 1_556 S
C1604 N1611 1.356 1_655 S
C1605 C1604 1.363 . S
C1605 C1608 1.363 1_556 S
N1606 C1608 1.356 1_556 S
N1606 H1618 0.984 1_556 S
N1606 H1619 0.985 . S
N1607 C1609 1.356 1_455 S
N1607 H1612 0.984 . S
N1607 H1613 0.985 . S
C1608 C1602 1.379 . S
C1608 C1605 1.363 1_554 S
C1608 N1606 1.356 1_554 S
C1609 C1603 1.363 . S
C1609 C1604 1.379 1_554 S
C1609 N1607 1.356 1_655 S
N1610 C1602 1.356 . S
N1610 H1616 0.984 . S
N1610 H1617 0.984 . S
N1611 C1604 1.356 1_455 S
N1611 H1614 0.984 1_455 S
N1611 H1615 0.985 . S
H1612 N1607 0.984 . S
H1613 N1607 0.985 . S
H1614 N1611 0.984 1_655 S
H1615 N1611 0.985 . S
H1616 N1610 0.984 . S
H1617 N1610 0.984 . S
H1618 N1606 0.984 1_554 S
H1619 N1606 0.985 . S
C1620 C1621 1.363 . S
C1620 C1626 1.379 . S
C1620 N1628 1.356 . S
C1621 C1620 1.363 . S
C1621 C1627 1.363 . S
C1622 C1623 1.363 . S
C1622 C1627 1.379 . S
C1622 N1629 1.356 . S
C1623 C1622 1.363 . S
C1623 C1626 1.363 . S
N1624 C1626 1.356 . S
N1624 H1636 0.984 . S
N1624 H1637 0.985 . S
N1625 C1627 1.356 . S
N1625 H1630 0.984 . S
N1625 H1631 0.985 . S
C1626 C1620 1.379 . S
C1626 C1623 1.363 . S
C1626 N1624 1.356 . S
C1627 C1621 1.363 . S
C1627 C1622 1.379 . S
C1627 N1625 1.356 . S
N1628 C1620 1.356 . S
N1628 H1634 0.984 . S
N1628 H1635 0.984 . S
N1629 C1622 1.356 . S
N1629 H1632 0.984 . S
N1629 H1633 0.985 . S
H1630 N1625 0.984 . S
H1631 N1625 0.985 . S
H1632 N1629 0.984 . S
H1633 N1629 0.985 . S
H1634 N1628 0.984 . S
H1635 N1628 0.984 . S
H1636 N1624 0.984 . S
H1637 N1624 0.985 . S
C1638 C1639 1.363 . S
C1638 C1644 1.379 . S
C1638 N1646 1.356 . S
C1639 C1638 1.363 . S
C1639 C1645 1.363 1_455 S
C1640 C1641 1.363 . S
C1640 C1645 1.379 1_455 S
C1640 N1647 1.356 1_455 S
C1641 C1640 1.363 . S
C1641 C1644 1.363 . S
N1642 C1644 1.356 . S
N1642 H1654 0.984 . S
N1642 H1655 0.985 . S
N1643 C1645 1.356 . S
N1643 H1648 0.984 . S
N1643 H1649 0.985 . S
C1644 C1638 1.379 . S
C1644 C1641 1.363 . S
C1644 N1642 1.356 . S
C1645 C1639 1.363 1_655 S
C1645 C1640 1.379 1_655 S
C1645 N1643 1.356 . S
N1646 C1638 1.356 . S
N1646 H1652 0.984 . S
N1646 H1653 0.984 . S
N1647 C1640 1.356 1_655 S
N1647 H1650 0.984 1_655 S
N1647 H1651 0.985 . S
H1648 N1643 0.984 . S
H1649 N1643 0.985 . S
H1650 N1647 0.984 1_455 S
H1651 N1647 0.985 . S
H1652 N1646 0.984 . S
H1653 N1646 0.984 . S
H1654 N1642 0.984 . S
H1655 N1642 0.985 . S
C1656 C1657 1.363 . S
C1656 C1662 1.379 . S
C1656 N1664 1.356 . S
C1657 C1656 1.363 . S
C1657 C1663 1.363 . S
C1658 C1659 1.363 . S
C1658 C1663 1.379 . S
C1658 N1665 1.356 . S
C1659 C1658 1.363 . S
C1659 C1662 1.363 . S
N1660 C1662 1.356 . S
N1660 H1672 0.984 . S
N1660 H1673 0.985 . S
N1661 C1663 1.356 . S
N1661 H1666 0.984 . S
N1661 H1667 0.985 . S
C1662 C1656 1.379 . S
C1662 C1659 1.363 . S
C1662 N1660 1.356 . S
C1663 C1657 1.363 . S
C1663 C1658 1.379 . S
C1663 N1661 1.356 . S
N1664 C1656 1.356 . S
N1664 H1670 0.984 . S
N1664 H1671 0.984 . S
N1665 C1658 1.356 . S
N1665 H1668 0.984 . S
N1665 H1669 0.985 . S
H1666 N1661 0.984 . S
H1667 N1661 0.985 . S
H1668 N1665 0.984 . S
H1669 N1665 0.985 . S
H1670 N1664 0.984 . S
H1671 N1664 0.984 . S
H1672 N1660 0.984 . S
H1673 N1660 0.985 . S
C1674 C1675 1.363 . S
C1674 C1680 1.379 . S
C1674 N1682 1.356 . S
C1675 C1674 1.363 . S
C1675 C1681 1.363 . S
C1676 C1677 1.363 . S
C1676 C1681 1.379 . S
C1676 N1683 1.356 . S
C1677 C1676 1.363 . S
C1677 C1680 1.363 . S
N1678 C1680 1.356 . S
N1678 H1690 0.984 . S
N1678 H1691 0.985 . S
N1679 C1681 1.356 . S
N1679 H1684 0.984 . S
N1679 H1685 0.985 1_556 S
C1680 C1674 1.379 . S
C1680 C1677 1.363 . S
C1680 N1678 1.356 . S
C1681 C1675 1.363 . S
C1681 C1676 1.379 . S
C1681 N1679 1.356 . S
N1682 C1674 1.356 . S
N1682 H1688 0.984 . S
N1682 H1689 0.984 . S
N1683 C1676 1.356 . S
N1683 H1686 0.984 . S
N1683 H1687 0.985 1_556 S
H1684 N1679 0.984 . S
H1685 N1679 0.985 1_554 S
H1686 N1683 0.984 . S
H1687 N1683 0.985 1_554 S
H1688 N1682 0.984 . S
H1689 N1682 0.984 . S
H1690 N1678 0.984 . S
H1691 N1678 0.985 . S
C1692 C1693 1.363 1_545 S
C1692 C1698 1.379 . S
C1692 N1700 1.356 . S
C1693 C1692 1.363 1_565 S
C1693 C1699 1.363 . S
C1694 C1695 1.363 . S
C1694 C1699 1.379 . S
C1694 N1701 1.356 . S
C1695 C1694 1.363 . S
C1695 C1698 1.363 1_565 S
N1696 C1698 1.356 . S
N1696 H1708 0.984 . S
N1696 H1709 0.985 . S
N1697 C1699 1.356 . S
N1697 H1702 0.984 . S
N1697 H1703 0.985 . S
C1698 C1692 1.379 . S
C1698 C1695 1.363 1_545 S
C1698 N1696 1.356 . S
C1699 C1693 1.363 . S
C1699 C1694 1.379 . S
C1699 N1697 1.356 . S
N1700 C1692 1.356 . S
N1700 H1706 0.984 . S
N1700 H1707 0.984 . S
N1701 C1694 1.356 . S
N1701 H1704 0.984 . S
N1701 H1705 0.985 . S
H1702 N1697 0.984 . S
H1703 N1697 0.985 . S
H1704 N1701 0.984 . S
H1705 N1701 0.985 . S
H1706 N1700 0.984 . S
H1707 N1700 0.984 . S
H1708 N1696 0.984 . S
H1709 N1696 0.985 . S
C1710 C1711 1.363 . S
C1710 C1716 1.379 . S
C1710 N1718 1.356 1_565 S
C1711 C1710 1.363 . S
C1711 C1717 1.363 . S
C1712 C1713 1.363 . S
C1712 C1717 1.379 . S
C1712 N1719 1.356 . S
C1713 C1712 1.363 . S
C1713 C1716 1.363 . S
N1714 C1716 1.356 . S
N1714 H1726 0.984 . S
N1714 H1727 0.985 . S
N1715 C1717 1.356 . S
N1715 H1720 0.984 . S
N1715 H1721 0.985 . S
C1716 C1710 1.379 . S
C1716 C1713 1.363 . S
C1716 N1714 1.356 . S
C1717 C1711 1.363 . S
C1717 C1712 1.379 . S
C1717 N1715 1.356 . S
N1718 C1710 1.356 1_545 S
N1718 H1724 0.984 . S
N1718 H1725 0.984 . S
N1719 C1712 1.356 . S
N1719 H1722 0.984 . S
N1719 H1723 0.985 . S
H1720 N1715 0.984 . S
H1721 N1715 0.985 . S
H1722 N1719 0.984 . S
H1723 N1719 0.985 . S
H1724 N1718 0.984 . S
H1725 N1718 0.984 . S
H1726 N1714 0.984 . S
H1727 N1714 0.985 . S
C1728 C1729 1.363 . S
C1728 C1734 1.379 . S
C1728 N1736 1.356 . S
C1729 C1728 1.363 . S
C1729 C1735 1.363 . S
C1730 C1731 1.363 . S
C1730 C1735 1.379 . S
C1730 N1737 1.356 . S
C1731 C1730 1.363 . S
C1731 C1734 1.363 . S
N1732 C1734 1.356 . S
N1732 H1744 0.984 . S
N1732 H1745 0.985 . S
N1733 C1735 1.356 . S
N1733 H1738 0.984 . S
N1733 H1739 0.985 . S
C1734 C1728 1.379 . S
C1734 C1731 1.363 . S
C1734 N1732 1.356 . S
C1735 C1729 1.363 . S
C1735 C1730 1.379 . S
C1735 N1733 1.356 . S
N1736 C1728 1.356 . S
N1736 H1742 0.984 . S
N1736 H1743 0.984 . S
N1737 C1730 1.356 . S
N1737 H1740 0.984 . S
N1737 H1741 0.985 . S
H1738 N1733 0.984 . S
H1739 N1733 0.985 . S
H1740 N1737 0.984 . S
H1741 N1737 0.985 . S
H1742 N1736 0.984 . S
H1743 N1736 0.984 . S
H1744 N1732 0.984 . S
H1745 N1732 0.985 . S
C1746 C1747 1.363 . S
C1746 C1752 1.379 . S
C1746 N1754 1.356 . S
C1747 C1746 1.363 . S
C1747 C1753 1.363 . S
C1748 C1749 1.363 . S
C1748 C1753 1.379 . S
C1748 N1755 1.356 . S
C1749 C1748 1.363 . S
C1749 C1752 1.363 . S
N1750 C1752 1.356 . S
N1750 H1762 0.984 . S
N1750 H1763 0.985 . S
N1751 C1753 1.356 . S
N1751 H1756 0.984 . S
N1751 H1757 0.985 . S
C1752 C1746 1.379 . S
C1752 C1749 1.363 . S
C1752 N1750 1.356 . S
C1753 C1747 1.363 . S
C1753 C1748 1.379 . S
C1753 N1751 1.356 . S
N1754 C1746 1.356 . S
N1754 H1760 0.984 . S
N1754 H1761 0.984 . S
N1755 C1748 1.356 . S
N1755 H1758 0.984 . S
N1755 H1759 0.985 . S
H1756 N1751 0.984 . S
H1757 N1751 0.985 . S
H1758 N1755 0.984 . S
H1759 N1755 0.985 . S
H1760 N1754 0.984 . S
H1761 N1754 0.984 . S
H1762 N1750 0.984 . S
H1763 N1750 0.985 . S
C1764 C1765 1.363 . S
C1764 C1770 1.379 . S
C1764 N1772 1.356 . S
C1765 C1764 1.363 . S
C1765 C1771 1.363 . S
C1766 C1767 1.363 . S
C1766 C1771 1.379 . S
C1766 N1773 1.356 . S
C1767 C1766 1.363 . S
C1767 C1770 1.363 . S
N1768 C1770 1.356 . S
N1768 H1780 0.962 1_655 S
N1768 H1781 0.985 . S
N1769 C1771 1.356 . S
N1769 H1774 0.984 . S
N1769 H1775 0.985 . S
C1770 C1764 1.379 . S
C1770 C1767 1.363 . S
C1770 N1768 1.356 . S
C1771 C1765 1.363 . S
C1771 C1766 1.379 . S
C1771 N1769 1.356 . S
N1772 C1764 1.356 . S
N1772 H1778 0.984 . S
N1772 H1779 0.984 . S
N1773 C1766 1.356 . S
N1773 H1776 0.984 . S
N1773 H1777 0.985 . S
H1774 N1769 0.984 . S
H1775 N1769 0.985 . S
H1776 N1773 0.984 . S
H1777 N1773 0.985 . S
H1778 N1772 0.984 . S
H1779 N1772 0.984 . S
H1780 N1768 0.962 1_455 S
H1781 N1768 0.985 . S
C1782 C1783 1.363 . S
C1782 C1788 1.379 . S
C1782 N1790 1.356 . S
C1783 C1782 1.363 . S
C1783 C1789 1.363 1_556 S
C1784 C1785 1.363 1_554 S
C1784 C1789 1.379 . S
C1784 N1791 1.356 . S
C1785 C1784 1.363 1_556 S
C1785 C1788 1.363 . S
N1786 C1788 1.356 . S
N1786 H1798 0.984 . S
N1786 H1799 0.985 . S
N1787 C1789 1.356 . S
N1787 H1792 0.984 . S
N1787 H1793 0.985 . S
C1788 C1782 1.379 . S
C1788 C1785 1.363 . S
C1788 N1786 1.356 . S
C1789 C1783 1.363 1_554 S
C1789 C1784 1.379 . S
C1789 N1787 1.356 . S
N1790 C1782 1.356 . S
N1790 H1796 0.984 . S
N1790 H1797 0.984 . S
N1791 C1784 1.356 . S
N1791 H1794 0.984 . S
N1791 H1795 0.985 . S
H1792 N1787 0.984 . S
H1793 N1787 0.985 . S
H1794 N1791 0.984 . S
H1795 N1791 0.985 . S
H1796 N1790 0.984 . S
H1797 N1790 0.984 . S
H1798 N1786 0.984 . S
H1799 N1786 0.985 . S
C1800 C1801 1.363 . S
C1800 C1806 1.379 . S
C1800 N1808 1.356 . S
C1801 C1800 1.363 . S
C1801 C1807 1.363 . S
C1802 C1803 1.363 . S
C1802 C1807 1.379 . S
C1802 N1809 1.356 . S
C1803 C1802 1.363 . S
C1803 C1806 1.363 . S
N1804 C1806 1.356 . S
N1804 H1816 0.984 . S
N1804 H1817 0.985 . S
N1805 C1807 1.356 . S
N1805 H1810 0.984 . S
N1805 H1811 0.985 . S
C1806 C1800 1.379 . S
C1806 C1803 1.363 . S
C1806 N1804 1.356 . S
C1807 C1801 1.363 . S
C1807 C1802 1.379 . S
C1807 N1805 1.356 . S
N1808 C1800 1.356 . S
N1808 H1814 0.984 . S
N1808 H1815 0.984 . S
N1809 C1802 1.356 . S
N1809 H1812 0.984 . S
N1809 H1813 0.985 . S
H1810 N1805 0.984 . S
H1811 N1805 0.985 . S
H1812 N1809 0.984 . S
H1813 N1809 0.985 . S
H1814 N1808 0.984 . S
H1815 N1808 0.984 . S
H1816 N1804 0.984 . S
H1817 N1804 0.985 . S
C1818 C1819 1.363 . S
C1818 C1824 1.379 . S
C1818 N1826 1.356 . S
C1819 C1818 1.363 . S
C1819 C1825 1.363 . S
C1820 C1821 1.363 . S
C1820 C1825 1.379 . S
C1820 N1827 1.356 . S
C1821 C1820 1.363 . S
C1821 C1824 1.363 . S
N1822 C1824 1.356 . S
N1822 H1834 0.984 . S
N1822 H1835 0.985 . S
N1823 C1825 1.356 . S
N1823 H1828 0.984 . S
N1823 H1829 0.985 . S
C1824 C1818 1.379 . S
C1824 C1821 1.363 . S
C1824 N1822 1.356 . S
C1825 C1819 1.363 . S
C1825 C1820 1.379 . S
C1825 N1823 1.356 . S
N1826 C1818 1.356 . S
N1826 H1832 0.984 1_655 S
N1826 H1833 0.984 . S
N1827 C1820 1.356 . S
N1827 H1830 0.984 . S
N1827 H1831 0.985 . S
H1828 N1823 0.984 . S
H1829 N1823 0.985 . S
H1830 N1827 0.984 . S
H1831 N1827 0.985 . S
H1832 N1826 0.984 1_455 S
H1833 N1826 0.984 . S
H1834 N1822 0.984 . S
H1835 N1822 0.985 . S
C1836 C1837 1.363 . S
C1836 C1842 1.379 . S
C1836 N1844 1.356 . S
C1837 C1836 1.363 . S
C1837 C1843 1.363 . S
C1838 C1839 1.363 . S
C1838 C1843 1.379 . S
C1838 N1845 1.356 . S
C1839 C1838 1.363 . S
C1839 C1842 1.363 . S
N1840 C1842 1.356 . S
N1840 H1852 0.984 . S
N1840 H1853 0.985 . S
N1841 C1843 1.356 . S
N1841 H1846 0.984 . S
N1841 H1847 0.985 . S
C1842 C1836 1.379 . S
C1842 C1839 1.363 . S
C1842 N1840 1.356 . S
C1843 C1837 1.363 . S
C1843 C1838 1.379 . S
C1843 N1841 1.356 . S
N1844 C1836 1.356 . S
N1844 H1850 0.984 . S
N1844 H1851 0.984 . S
N1845 C1838 1.356 . S
N1845 H1848 0.984 . S
N1845 H1849 0.985 . S
H1846 N1841 0.984 . S
H1847 N1841 0.985 . S
H1848 N1845 0.984 . S
H1849 N1845 0.985 . S
H1850 N1844 0.984 . S
H1851 N1844 0.984 . S
H1852 N1840 0.984 . S
H1853 N1840 0.985 . S
C1854 C1855 1.363 1_455 S
C1854 C1860 1.379 . S
C1854 N1862 1.356 . S
C1855 C1854 1.363 1_655 S
C1855 C1861 1.363 . S
C1856 C1857 1.363 . S
C1856 C1861 1.379 . S
C1856 N1863 1.356 . S
C1857 C1856 1.363 . S
C1857 C1860 1.363 1_655 S
N1858 C1860 1.356 . S
N1858 H1870 0.984 . S
N1858 H1871 0.985 . S
N1859 C1861 1.356 . S
N1859 H1864 0.984 . S
N1859 H1865 0.985 . S
C1860 C1854 1.379 . S
C1860 C1857 1.363 1_455 S
C1860 N1858 1.356 . S
C1861 C1855 1.363 . S
C1861 C1856 1.379 . S
C1861 N1859 1.356 . S
N1862 C1854 1.356 . S
N1862 H1868 0.984 . S
N1862 H1869 0.984 . S
N1863 C1856 1.356 . S
N1863 H1866 0.984 . S
N1863 H1867 0.985 . S
H1864 N1859 0.984 . S
H1865 N1859 0.985 . S
H1866 N1863 0.984 . S
H1867 N1863 0.985 . S
H1868 N1862 0.984 . S
H1869 N1862 0.984 . S
H1870 N1858 0.984 . S
H1871 N1858 0.985 . S
C1872 C1873 1.363 . S
C1872 C1878 1.379 . S
C1872 N1880 1.356 . S
C1873 C1872 1.363 . S
C1873 C1879 1.363 . S
C1874 C1875 1.363 . S
C1874 C1879 1.379 . S
C1874 N1881 1.356 . S
C1875 C1874 1.363 . S
C1875 C1878 1.363 . S
N1876 C1878 1.356 . S
N1876 H1888 0.984 . S
N1876 H1889 0.985 . S
N1877 C1879 1.356 . S
N1877 H1882 0.984 . S
N1877 H1883 0.985 . S
C1878 C1872 1.379 . S
C1878 C1875 1.363 . S
C1878 N1876 1.356 . S
C1879 C1873 1.363 . S
C1879 C1874 1.379 . S
C1879 N1877 1.356 . S
N1880 C1872 1.356 . S
N1880 H1886 0.984 . S
N1880 H1887 0.984 . S
N1881 C1874 1.356 . S
N1881 H1884 0.984 . S
N1881 H1885 0.985 . S
H1882 N1877 0.984 . S
H1883 N1877 0.985 . S
H1884 N1881 0.984 . S
H1885 N1881 0.985 . S
H1886 N1880 0.984 . S
H1887 N1880 0.984 . S
H1888 N1876 0.984 . S
H1889 N1876 0.985 . S
C1890 C1891 1.363 . S
C1890 C1896 1.379 . S
C1890 N1898 1.356 . S
C1891 C1890 1.363 . S
C1891 C1897 1.363 . S
C1892 C1893 1.363 . S
C1892 C1897 1.379 . S
C1892 N1899 1.356 . S
C1893 C1892 1.363 . S
C1893 C1896 1.363 . S
N1894 C1896 1.356 . S
N1894 H1906 0.984 1_554 S
N1894 H1907 0.985 . S
N1895 C1897 1.356 . S
N1895 H1900 0.984 . S
N1895 H1901 0.985 . S
C1896 C1890 1.379 . S
C1896 C1893 1.363 . S
C1896 N1894 1.356 . S
C1897 C1891 1.363 . S
C1897 C1892 1.379 . S
C1897 N1895 1.356 . S
N1898 C1890 1.356 . S
N1898 H1904 0.984 1_554 S
N1898 H1905 0.984 . S
N1899 C1892 1.356 . S
N1899 H1902 0.984 . S
N1899 H1903 0.985 . S
H1900 N1895 0.984 . S
H1901 N1895 0.985 . S
H1902 N1899 0.984 . S
H1903 N1899 0.985 . S
H1904 N1898 0.984 1_556 S
H1905 N1898 0.984 . S
H1906 N1894 0.984 1_556 S
H1907 N1894 0.985 . S
C1908 C1909 1.363 . S
C1908 C1914 1.379 . S
C1908 N1916 1.356 . S
C1909 C1908 1.363 . S
C1909 C1915 1.363 1_545 S
C1910 C1911 1.363 1_565 S
C1910 C1915 1.379 . S
C1910 N1917 1.356 . S
C1911 C1910 1.363 1_545 S
C1911 C1914 1.363 . S
N1912 C1914 1.356 . S
N1912 H1924 0.984 . S
N1912 H1925 0.985 . S
N1913 C1915 1.356 . S
N1913 H1918 0.984 . S
N1913 H1919 0.985 . S
C1914 C1908 1.379 . S
C1914 C1911 1.363 . S
C1914 N1912 1.356 . S
C1915 C1909 1.363 1_565 S
C1915 C1910 1.379 . S
C1915 N1913 1.356 . S
N1916 C1908 1.356 . S
N1916 H1922 0.984 . S
N1916 H1923 0.984 . S
N1917 C1910 1.356 . S
N1917 H1920 0.984 . S
N1917 H1921 0.985 . S
H1918 N1913 0.984 . S
H1919 N1913 0.985 . S
H1920 N1917 0.984 . S
H1921 N1917 0.985 . S
H1922 N1916 0.984 . S
H1923 N1916 0.984 . S
H1924 N1912 0.984 . S
H1925 N1912 0.985 . S
C1926 C1927 1.363 . S
C1926 C1932 1.379 . S
C1926 N1934 1.356 . S
C1927 C1926 1.363 . S
C1927 C1933 1.363 . S
C1928 C1929 1.363 . S
C1928 C1933 1.379 . S
C1928 N1935 1.356 . S
C1929 C1928 1.363 . S
C1929 C1932 1.363 . S
N1930 C1932 1.356 . S
N1930 H1942 0.984 . S
N1930 H1943 0.985 . S
N1931 C1933 1.356 . S
N1931 H1936 0.987 . S
N1931 H1937 0.985 1_545 S
C1932 C1926 1.379 . S
C1932 C1929 1.363 . S
C1932 N1930 1.356 . S
C1933 C1927 1.363 . S
C1933 C1928 1.379 . S
C1933 N1931 1.356 . S
N1934 C1926 1.356 . S
N1934 H1940 0.984 . S
N1934 H1941 0.984 . S
N1935 C1928 1.356 . S
N1935 H1938 0.984 . S
N1935 H1939 0.985 . S
H1936 N1931 0.987 . S
H1937 N1931 0.985 1_565 S
H1938 N1935 0.984 . S
H1939 N1935 0.985 . S
H1940 N1934 0.984 . S
H1941 N1934 0.984 . S
H1942 N1930 0.984 . S
H1943 N1930 0.985 . S
C1944 C1945 1.363 . S
C1944 C1950 1.379 . S
C1944 N1952 1.356 . S
C1945 C1944 1.363 . S
C1945 C1951 1.363 . S
C1946 C1947 1.363 . S
C1946 C1951 1.379 . S
C1946 N1953 1.356 . S
C1947 C1946 1.363 . S
C1947 C1950 1.363 . S
N1948 C1950 1.356 . S
N1948 H1960 0.984 . S
N1948 H1961 0.985 . S
N1949 C1951 1.356 . S
N1949 H1954 0.984 . S
N1949 H1955 0.985 . S
C1950 C1944 1.379 . S
C1950 C1947 1.363 . S
C1950 N1948 1.356 . S
C1951 C1945 1.363 . S
C1951 C1946 1.379 . S
C1951 N1949 1.356 . S
N1952 C1944 1.356 . S
N1952 H1958 0.984 . S
N1952 H1959 0.984 . S
N1953 C1946 1.356 . S
N1953 H1956 0.984 . S
N1953 H1957 0.985 . S
H1954 N1949 0.984 . S
H1955 N1949 0.985 . S
H1956 N1953 0.984 . S
H1957 N1953 0.985 . S
H1958 N1952 0.984 . S
H1959 N1952 0.984 . S
H1960 N1948 0.984 . S
H1961 N1948 0.985 . S
C1962 C1963 1.363 . S
C1962 C1968 1.379 . S
C1962 N1970 1.356 . S
C1963 C1962 1.363 . S
C1963 C1969 1.363 . S
C1964 C1965 1.363 . S
C1964 C1969 1.379 . S
C1964 N1971 1.356 . S
C1965 C1964 1.363 . S
C1965 C1968 1.363 . S
N1966 C1968 1.356 . S
N1966 H1978 0.984 . S
N1966 H1979 0.985 . S
N1967 C1969 1.356 . S
N1967 H1972 0.984 . S
N1967 H1973 0.985 . S
C1968 C1962 1.379 . S
C1968 C1965 1.363 . S
C1968 N1966 1.356 . S
C1969 C1963 1.363 . S
C1969 C1964 1.379 . S
C1969 N1967 1.356 . S
N1970 C1962 1.356 . S
N1970 H1976 0.984 . S
N1970 H1977 0.984 . S
N1971 C1964 1.356 . S
N1971 H1974 0.984 . S
N1971 H1975 0.985 . S
H1972 N1967 0.984 . S
H1973 N1967 0.985 . S
H1974 N1971 0.984 . S
H1975 N1971 0.985 . S
H1976 N1970 0.984 . S
H1977 N1970 0.984 . S
H1978 N1966 0.984 . S
H1979 N1966 0.985 . S
C1980 C1981 1.363 . S
C1980 C1986 1.379 . S
C1980 N1988 1.356 . S
C1981 C1980 1.363 . S
C1981 C1987 1.363 . S
C1982 C1983 1.363 . S
C1982 C1987 1.379 . S
C1982 N1989 1.356 . S
C1983 C1982 1.363 . S
C1983 C1986 1.363 . S
N1984 C1986 1.356 . S
N1984 H1996 0.985 1_455 S
N1984 H1997 0.985 . S
N1985 C1987 1.356 . S
N1985 H1990 0.984 . S
N1985 H1991 0.985 . S
C1986 C1980 1.379 . S
C1986 C1983 1.363 . S
C1986 N1984 1.356 . S
C1987 C1981 1.363 . S
C1987 C1982 1.379 . S
C1987 N1985 1.356 . S
N1988 C1980 1.356 . S
N1988 H1994 0.984 . S
N1988 H1995 0.984 . S
N1989 C1982 1.356 . S
N1989 H1992 0.984 . S
N1989 H1993 0.985 . S
H1990 N1985 0.984 . S
H1991 N1985 0.985 . S
H1992 N1989 0.984 . S
H1993 N1989 0.985 . S
H1994 N1988 0.984 . S
H1995 N1988 0.984 . S
H1996 N1984 0.985 1_655 S
H1997 N1984 0.985 . S
C1998 C1999 1.363 . S
C1998 C2004 1.379 . S
C1998 N2006 1.356 . S
C1999 C1998 1.363 . S
C1999 C2005 1.363 1_554 S
C2000 C2001 1.363 1_556 S
C2000 C2005 1.379 . S
C2000 N2007 1.356 . S
C2001 C2000 1.363 1_554 S
C2001 C2004 1.363 . S
N2002 C2004 1.356 . S
N2002 H2014 0.984 . S
N2002 H2015 0.985 . S
N2003 C2005 1.356 . S
N2003 H2008 0.984 . S
N2003 H2009 0.985 . S
C2004 C1998 1.379 . S
C2004 C2001 1.363 . S
C2004 N2002 1.356 . S
C2005 C1999 1.363 1_556 S
C2005 C2000 1.379 . S
C2005 N2003 1.356 . S
N2006 C1998 1.356 . S
N2006 H2012 0.984 . S
N2006 H2013 0.984 . S
N2007 C2000 1.356 . S
N2007 H2010 0.984 . S
N2007 H2011 0.985 . S
H2008 N2003 0.984 . S
H2009 N2003 0.985 . S
H2010 N2007 0.984 . S
H2011 N2007 0.985 . S
H2012 N2006 0.984 . S
H2013 N2006 0.984 . S
H2014 N2002 0.984 . S
H2015 N2002 0.985 . S
C2016 C2017 1.363 . S
C2016 C2022 1.379 . S
C2016 N2024 1.356 . S
C2017 C2016 1.363 . S
C2017 C2023 1.363 . S
C2018 C2019 1.363 . S
C2018 C2023 1.379 . S
C2018 N2025 1.356 . S
C2019 C2018 1.363 . S
C2019 C2022 1.363 . S
N2020 C2022 1.356 . S
N2020 H2032 0.984 . S
N2020 H2033 0.985 . S
N2021 C2023 1.356 . S
N2021 H2026 0.984 . S
N2021 H2027 0.985 . S
C2022 C2016 1.379 . S
C2022 C2019 1.363 . S
C2022 N2020 1.356 . S
C2023 C2017 1.363 . S
C2023 C2018 1.379 . S
C2023 N2021 1.356 . S
N2024 C2016 1.356 . S
N2024 H2030 0.984 . S
N2024 H2031 0.984 . S
N2025 C2018 1.356 . S
N2025 H2028 0.984 . S
N2025 H2029 0.985 . S
H2026 N2021 0.984 . S
H2027 N2021 0.985 . S
H2028 N2025 0.984 . S
H2029 N2025 0.985 . S
H2030 N2024 0.984 . S
H2031 N2024 0.984 . S
H2032 N2020 0.984 . S
H2033 N2020 0.985 . S
C2034 C2035 1.363 . S
C2034 C2040 1.379 . S
C2034 N2042 1.356 . S
C2035 C2034 1.363 . S
C2035 C2041 1.363 . S
C2036 C2037 1.363 . S
C2036 C2041 1.379 . S
C2036 N2043 1.356 . S
C2037 C2036 1.363 . S
C2037 C2040 1.363 . S
N2038 C2040 1.356 . S
N2038 H2050 0.984 . S
N2038 H2051 0.985 . S
N2039 C2041 1.356 . S
N2039 H2044 0.984 . S
N2039 H2045 0.985 . S
C2040 C2034 1.379 . S
C2040 C2037 1.363 . S
C2040 N2038 1.356 . S
C2041 C2035 1.363 . S
C2041 C2036 1.379 . S
C2041 N2039 1.356 . S
N2042 C2034 1.356 . S
N2042 H2048 0.984 . S
N2042 H2049 0.984 . S
N2043 C2036 1.356 . S
N2043 H2046 0.984 . S
N2043 H2047 0.985 . S
H2044 N2039 0.984 . S
H2045 N2039 0.985 . S
H2046 N2043 0.984 . S
H2047 N2043 0.985 . S
H2048 N2042 0.984 . S
H2049 N2042 0.984 . S
H2050 N2038 0.984 . S
H2051 N2038 0.985 . S
C2052 C2053 1.363 . S
C2052 C2058 1.379 . S
C2052 N2060 1.356 . S
C2053 C2052 1.363 . S
C2053 C2059 1.363 . S
C2054 C2055 1.363 . S
C2054 C2059 1.379 . S
C2054 N2061 1.356 . S
C2055 C2054 1.363 . S
C2055 C2058 1.363 . S
N2056 C2058 1.356 1_565 S
N2056 H2068 0.984 . S
N2056 H2069 0.985 1_565 S
N2057 C2059 1.356 . S
N2057 H2062 0.984 . S
N2057 H2063 0.985 . S
C2058 C2052 1.379 . S
C2058 C2055 1.363 . S
C2058 N2056 1.356 1_545 S
C2059 C2053 1.363 . S
C2059 C2054 1.379 . S
C2059 N2057 1.356 . S
N2060 C2052 1.356 . S
N2060 H2066 0.984 1_545 S
N2060 H2067 0.984 . S
N2061 C2054 1.356 . S
N2061 H2064 0.984 . S
N2061 H2065 0.985 . S
H2062 N2057 0.984 . S
H2063 N2057 0.985 . S
H2064 N2061 0.984 . S
H2065 N2061 0.985 . S
H2066 N2060 0.984 1_565 S
H2067 N2060 0.984 . S
H2068 N2056 0.984 . S
H2069 N2056 0.985 1_545 S
C2070 C2071 1.363 1_655 S
C2070 C2076 1.379 . S
C2070 N2078 1.356 . S
C2071 C2070 1.363 1_455 S
C2071 C2077 1.363 . S
C2072 C2073 1.363 . S
C2072 C2077 1.379 . S
C2072 N2079 1.356 . S
C2073 C2072 1.363 . S
C2073 C2076 1.363 1_455 S
N2074 C2076 1.356 . S
N2074 H2086 0.984 . S
N2074 H2087 0.985 . S
N2075 C2077 1.356 . S
N2075 H2080 0.984 . S
N2075 H2081 0.985 . S
C2076 C2070 1.379 . S
C2076 C2073 1.363 1_655 S
C2076 N2074 1.356 . S
C2077 C2071 1.363 . S
C2077 C2072 1.379 . S
C2077 N2075 1.356 . S
N2078 C2070 1.356 . S
N2078 H2084 0.984 . S
N2078 H2085 0.984 . S
N2079 C2072 1.356 . S
N2079 H2082 0.984 . S
N2079 H2083 0.985 . S
H2080 N2075 0.984 . S
H2081 N2075 0.985 . S
H2082 N2079 0.984 . S
H2083 N2079 0.985 . S
H2084 N2078 0.984 . S
H2085 N2078 0.984 . S
H2086 N2074 0.984 . S
H2087 N2074 0.985 . S
C2088 C2089 1.363 . S
C2088 C2094 1.379 . S
C2088 N2096 1.356 . S
C2089 C2088 1.363 . S
C2089 C2095 1.363 . S
C2090 C2091 1.363 . S
C2090 C2095 1.379 . S
C2090 N2097 1.356 . S
C2091 C2090 1.363 . S
C2091 C2094 1.363 . S
N2092 C2094 1.356 . S
N2092 H2104 0.984 . S
N2092 H2105 0.985 . S
N2093 C2095 1.356 . S
N2093 H2098 0.984 . S
N2093 H2099 0.985 . S
C2094 C2088 1.379 . S
C2094 C2091 1.363 . S
C2094 N2092 1.356 . S
C2095 C2089 1.363 . S
C2095 C2090 1.379 . S
C2095 N2093 1.356 . S
N2096 C2088 1.356 . S
N2096 H2102 0.984 . S
N2096 H2103 0.984 . S
N2097 C2090 1.356 . S
N2097 H2100 0.984 . S
N2097 H2101 0.985 . S
H2098 N2093 0.984 . S
H2099 N2093 0.985 . S
H2100 N2097 0.984 . S
H2101 N2097 0.985 . S
H2102 N2096 0.984 . S
H2103 N2096 0.984 . S
H2104 N2092 0.984 . S
H2105 N2092 0.985 . S
C2106 C2107 1.363 . S
C2106 C2112 1.379 . S
C2106 N2114 1.356 . S
C2107 C2106 1.363 . S
C2107 C2113 1.363 . S
C2108 C2109 1.363 . S
C2108 C2113 1.379 . S
C2108 N2115 1.356 . S
C2109 C2108 1.363 . S
C2109 C2112 1.363 . S
N2110 C2112 1.356 . S
N2110 H2122 0.984 . S
N2110 H2123 0.985 . S
N2111 C2113 1.356 . S
N2111 H2116 0.984 . S
N2111 H2117 0.985 . S
C2112 C2106 1.379 . S
C2112 C2109 1.363 . S
C2112 N2110 1.356 . S
C2113 C2107 1.363 . S
C2113 C2108 1.379 . S
C2113 N2111 1.356 . S
N2114 C2106 1.356 . S
N2114 H2120 0.984 . S
N2114 H2121 0.984 . S
N2115 C2108 1.356 . S
N2115 H2118 0.984 . S
N2115 H2119 0.985 . S
H2116 N2111 0.984 . S
H2117 N2111 0.985 . S
H2118 N2115 0.984 . S
H2119 N2115 0.985 . S
H2120 N2114 0.984 . S
H2121 N2114 0.984 . S
H2122 N2110 0.984 . S
H2123 N2110 0.985 . S
C2124 C2125 1.363 . S
C2124 C2130 1.379 . S
C2124 N2132 1.356 . S
C2125 C2124 1.363 . S
C2125 C2131 1.363 1_565 S
C2126 C2127 1.363 1_545 S
C2126 C2131 1.379 . S
C2126 N2133 1.356 . S
C2127 C2126 1.363 1_565 S
C2127 C2130 1.363 . S
N2128 C2130 1.356 . S
N2128 H2140 0.984 . S
N2128 H2141 0.985 . S
N2129 C2131 1.356 . S
N2129 H2134 0.984 . S
N2129 H2135 0.985 . S
C2130 C2124 1.379 . S
C2130 C2127 1.363 . S
C2130 N2128 1.356 . S
C2131 C2125 1.363 1_545 S
C2131 C2126 1.379 . S
C2131 N2129 1.356 . S
N2132 C2124 1.356 . S
N2132 H2138 0.984 . S
N2132 H2139 0.984 . S
N2133 C2126 1.356 . S
N2133 H2136 0.984 . S
N2133 H2137 0.985 . S
H2134 N2129 0.984 . S
H2135 N2129 0.985 . S
H2136 N2133 0.984 . S
H2137 N2133 0.985 . S
H2138 N2132 0.984 . S
H2139 N2132 0.984 . S
H2140 N2128 0.984 . S
H2141 N2128 0.985 . S
C2142 C2143 1.363 . S
C2142 C2148 1.379 . S
C2142 N2150 1.356 . S
C2143 C2142 1.363 . S
C2143 C2149 1.363 1_545 S
C2144 C2145 1.363 1_565 S
C2144 C2149 1.379 . S
C2144 N2151 1.356 . S
C2145 C2144 1.363 1_545 S
C2145 C2148 1.363 . S
N2146 C2148 1.356 . S
N2146 H2158 0.984 . S
N2146 H2159 0.985 . S
N2147 C2149 1.356 . S
N2147 H2152 0.984 . S
N2147 H2153 0.985 . S
C2148 C2142 1.379 . S
C2148 C2145 1.363 . S
C2148 N2146 1.356 . S
C2149 C2143 1.363 1_565 S
C2149 C2144 1.379 . S
C2149 N2147 1.356 . S
N2150 C2142 1.356 . S
N2150 H2156 0.984 . S
N2150 H2157 0.984 . S
N2151 C2144 1.356 . S
N2151 H2154 0.984 . S
N2151 H2155 0.985 . S
H2152 N2147 0.984 . S
H2153 N2147 0.985 . S
H2154 N2151 0.984 . S
H2155 N2151 0.985 . S
H2156 N2150 0.984 . S
H2157 N2150 0.984 . S
H2158 N2146 0.984 . S
H2159 N2146 0.985 . S
C2160 C2161 1.363 . S
C2160 C2166 1.379 . S
C2160 N2168 1.356 . S
C2161 C2160 1.363 . S
C2161 C2167 1.363 . S
C2162 C2163 1.363 . S
C2162 C2167 1.379 . S
C2162 N2169 1.356 . S
C2163 C2162 1.363 . S
C2163 C2166 1.363 . S
N2164 C2166 1.356 . S
N2164 H2176 0.984 . S
N2164 H2177 0.985 . S
N2165 C2167 1.356 . S
N2165 H2170 0.984 . S
N2165 H2171 0.985 . S
C2166 C2160 1.379 . S
C2166 C2163 1.363 . S
C2166 N2164 1.356 . S
C2167 C2161 1.363 . S
C2167 C2162 1.379 . S
C2167 N2165 1.356 . S
N2168 C2160 1.356 . S
N2168 H2174 0.984 . S
N2168 H2175 0.984 . S
N2169 C2162 1.356 . S
N2169 H2172 0.984 . S
N2169 H2173 0.985 . S
H2170 N2165 0.984 . S
H2171 N2165 0.985 . S
H2172 N2169 0.984 . S
H2173 N2169 0.985 . S
H2174 N2168 0.984 . S
H2175 N2168 0.984 . S
H2176 N2164 0.984 . S
H2177 N2164 0.985 . S
C2178 C2179 1.337 1_556 S
C2178 C2184 1.378 . S
C2178 N2186 1.378 . S
C2179 C2178 1.337 1_554 S
C2179 C2185 1.363 . S
C2180 C2181 1.363 . S
C2180 C2185 1.379 . S
C2180 N2187 1.356 . S
C2181 C2180 1.363 . S
C2181 C2184 1.363 1_554 S
N2182 C2184 1.356 . S
N2182 H2194 0.984 . S
N2182 H2195 0.985 . S
N2183 C2185 1.356 . S
N2183 H2188 0.984 . S
N2183 H2189 0.985 . S
C2184 C2178 1.378 . S
C2184 C2181 1.363 1_556 S
C2184 N2182 1.356 . S
C2185 C2179 1.363 . S
C2185 C2180 1.379 . S
C2185 N2183 1.356 . S
N2186 C2178 1.378 . S
N2186 H2192 0.984 . S
N2186 H2193 0.984 . S
N2187 C2180 1.356 . S
N2187 H2190 0.984 . S
N2187 H2191 0.985 . S
H2188 N2183 0.984 . S
H2189 N2183 0.985 . S
H2190 N2187 0.984 . S
H2191 N2187 0.985 . S
H2192 N2186 0.984 . S
H2193 N2186 0.984 . S
H2194 N2182 0.984 . S
H2195 N2182 0.985 . S
C2196 C2197 1.363 . S
C2196 C2202 1.379 . S
C2196 N2204 1.356 . S
C2197 C2196 1.363 . S
C2197 C2203 1.363 . S
C2198 C2199 1.363 . S
C2198 C2203 1.379 . S
C2198 N2205 1.356 . S
C2199 C2198 1.363 . S
C2199 C2202 1.363 . S
N2200 C2202 1.356 . S
N2200 H2212 0.984 . S
N2200 H2213 0.985 . S
N2201 C2203 1.356 . S
N2201 H2206 0.984 . S
N2201 H2207 0.985 . S
C2202 C2196 1.379 . S
C2202 C2199 1.363 . S
C2202 N2200 1.356 . S
C2203 C2197 1.363 . S
C2203 C2198 1.379 . S
C2203 N2201 1.356 . S
N2204 C2196 1.356 . S
N2204 H2210 0.984 . S
N2204 H2211 0.984 . S
N2205 C2198 1.356 . S
N2205 H2208 0.984 . S
N2205 H2209 0.985 . S
H2206 N2201 0.984 . S
H2207 N2201 0.985 . S
H2208 N2205 0.984 . S
H2209 N2205 0.985 . S
H2210 N2204 0.984 . S
H2211 N2204 0.984 . S
H2212 N2200 0.984 . S
H2213 N2200 0.985 . S
C2214 C2215 1.363 1_554 S
C2214 C2220 1.379 . S
C2214 N2222 1.356 . S
C2215 C2214 1.363 1_556 S
C2215 C2221 1.363 . S
C2216 C2217 1.363 . S
C2216 C2221 1.379 . S
C2216 N2223 1.356 . S
C2217 C2216 1.363 . S
C2217 C2220 1.363 1_556 S
N2218 C2220 1.356 . S
N2218 H2230 0.984 . S
N2218 H2231 0.985 . S
N2219 C2221 1.356 . S
N2219 H2224 0.984 . S
N2219 H2225 0.985 . S
C2220 C2214 1.379 . S
C2220 C2217 1.363 1_554 S
C2220 N2218 1.356 . S
C2221 C2215 1.363 . S
C2221 C2216 1.379 . S
C2221 N2219 1.356 . S
N2222 C2214 1.356 . S
N2222 H2228 0.984 . S
N2222 H2229 0.984 . S
N2223 C2216 1.356 . S
N2223 H2226 0.984 . S
N2223 H2227 0.985 . S
H2224 N2219 0.984 . S
H2225 N2219 0.985 . S
H2226 N2223 0.984 . S
H2227 N2223 0.985 . S
H2228 N2222 0.984 . S
H2229 N2222 0.984 . S
H2230 N2218 0.984 . S
H2231 N2218 0.985 . S
C2232 C2233 1.363 . S
C2232 C2238 1.379 . S
C2232 N2240 1.356 . S
C2233 C2232 1.363 . S
C2233 C2239 1.363 . S
C2234 C2235 1.363 . S
C2234 C2239 1.379 . S
C2234 N2241 1.356 . S
C2235 C2234 1.363 . S
C2235 C2238 1.363 . S
N2236 C2238 1.356 . S
N2236 H2248 0.984 . S
N2236 H2249 0.985 . S
N2237 C2239 1.356 . S
N2237 H2242 0.984 . S
N2237 H2243 0.985 . S
C2238 C2232 1.379 . S
C2238 C2235 1.363 . S
C2238 N2236 1.356 . S
C2239 C2233 1.363 . S
C2239 C2234 1.379 . S
C2239 N2237 1.356 . S
N2240 C2232 1.356 . S
N2240 H2246 0.984 . S
N2240 H2247 0.984 . S
N2241 C2234 1.356 . S
N2241 H2244 0.984 . S
N2241 H2245 0.985 . S
H2242 N2237 0.984 . S
H2243 N2237 0.985 . S
H2244 N2241 0.984 . S
H2245 N2241 0.985 . S
H2246 N2240 0.984 . S
H2247 N2240 0.984 . S
H2248 N2236 0.984 . S
H2249 N2236 0.985 . S
C2250 C2251 1.363 . S
C2250 C2256 1.379 . S
C2250 N2258 1.356 . S
C2251 C2250 1.363 . S
C2251 C2257 1.363 . S
C2252 C2253 1.374 . S
C2252 C2257 1.378 . S
C2252 N2259 1.348 1_455 S
C2253 C2252 1.374 . S
C2253 C2256 1.363 . S
N2254 C2256 1.356 . S
N2254 H2266 0.984 . S
N2254 H2267 0.985 . S
N2255 C2257 1.356 1_655 S
N2255 H2260 0.984 . S
N2255 H2261 0.985 . S
C2256 C2250 1.379 . S
C2256 C2253 1.363 . S
C2256 N2254 1.356 . S
C2257 C2251 1.363 . S
C2257 C2252 1.378 . S
C2257 N2255 1.356 1_455 S
N2258 C2250 1.356 . S
N2258 H2264 0.984 . S
N2258 H2265 0.984 . S
N2259 C2252 1.348 1_655 S
N2259 H2262 0.984 . S
N2259 H2263 0.985 . S
H2260 N2255 0.984 . S
H2261 N2255 0.985 . S
H2262 N2259 0.984 . S
H2263 N2259 0.985 . S
H2264 N2258 0.984 . S
H2265 N2258 0.984 . S
H2266 N2254 0.984 . S
H2267 N2254 0.985 . S
C2268 C2269 1.363 . S
C2268 C2274 1.379 . S
C2268 N2276 1.356 . S
C2269 C2268 1.363 . S
C2269 C2275 1.363 . S
C2270 C2271 1.363 . S
C2270 C2275 1.379 . S
C2270 N2277 1.356 . S
C2271 C2270 1.363 . S
C2271 C2274 1.363 . S
N2272 C2274 1.356 . S
N2272 H2284 0.984 . S
N2272 H2285 0.985 . S
N2273 C2275 1.356 . S
N2273 H2278 0.984 . S
N2273 H2279 0.985 . S
C2274 C2268 1.379 . S
C2274 C2271 1.363 . S
C2274 N2272 1.356 . S
C2275 C2269 1.363 . S
C2275 C2270 1.379 . S
C2275 N2273 1.356 . S
N2276 C2268 1.356 . S
N2276 H2282 0.984 . S
N2276 H2283 0.984 . S
N2277 C2270 1.356 . S
N2277 H2280 0.984 . S
N2277 H2281 0.985 . S
H2278 N2273 0.984 . S
H2279 N2273 0.985 . S
H2280 N2277 0.984 . S
H2281 N2277 0.985 . S
H2282 N2276 0.984 . S
H2283 N2276 0.984 . S
H2284 N2272 0.984 . S
H2285 N2272 0.985 . S
C2286 C2287 1.363 1_455 S
C2286 C2292 1.394 . S
C2286 N2294 1.356 . S
C2287 C2286 1.363 1_655 S
C2287 C2293 1.363 . S
C2288 C2289 1.363 . S
C2288 C2293 1.379 . S
C2288 N2295 1.356 . S
C2289 C2288 1.363 . S
C2289 C2292 1.334 1_655 S
N2290 C2292 1.363 . S
N2290 H2302 0.984 . S
N2290 H2303 0.971 1_455 S
N2291 C2293 1.356 . S
N2291 H2296 0.984 . S
N2291 H2297 0.985 . S
C2292 C2286 1.394 . S
C2292 C2289 1.334 1_455 S
C2292 N2290 1.363 . S
C2293 C2287 1.363 . S
C2293 C2288 1.379 . S
C2293 N2291 1.356 . S
N2294 C2286 1.356 . S
N2294 H2300 0.984 . S
N2294 H2301 0.984 . S
N2295 C2288 1.356 . S
N2295 H2298 0.984 . S
N2295 H2299 0.985 . S
H2296 N2291 0.984 . S
H2297 N2291 0.985 . S
H2298 N2295 0.984 . S
H2299 N2295 0.985 . S
H2300 N2294 0.984 . S
H2301 N2294 0.984 . S
H2302 N2290 0.984 . S
H2303 N2290 0.971 1_655 S
C2304 C2305 1.363 . S
C2304 C2310 1.379 . S
C2304 N2312 1.356 . S
C2305 C2304 1.363 . S
C2305 C2311 1.363 . S
C2306 C2307 1.363 . S
C2306 C2311 1.379 . S
C2306 N2313 1.356 . S
C2307 C2306 1.363 . S
C2307 C2310 1.363 . S
N2308 C2310 1.356 . S
N2308 H2320 0.984 . S
N2308 H2321 0.985 . S
N2309 C2311 1.356 . S
N2309 H2314 0.984 . S
N2309 H2315 0.985 . S
C2310 C2304 1.379 . S
C2310 C2307 1.363 . S
C2310 N2308 1.356 . S
C2311 C2305 1.363 . S
C2311 C2306 1.379 . S
C2311 N2309 1.356 . S
N2312 C2304 1.356 . S
N2312 H2318 0.984 . S
N2312 H2319 0.984 . S
N2313 C2306 1.356 . S
N2313 H2316 0.984 . S
N2313 H2317 0.985 . S
H2314 N2309 0.984 . S
H2315 N2309 0.985 . S
H2316 N2313 0.984 . S
H2317 N2313 0.985 . S
H2318 N2312 0.984 . S
H2319 N2312 0.984 . S
H2320 N2308 0.984 . S
H2321 N2308 0.985 . S
C2322 C2323 1.363 . S
C2322 C2328 1.379 . S
C2322 N2330 1.356 . S
C2323 C2322 1.363 . S
C2323 C2329 1.363 . S
C2324 C2325 1.363 . S
C2324 C2329 1.379 . S
C2324 N2331 1.356 . S
C2325 C2324 1.363 . S
C2325 C2328 1.363 . S
N2326 C2328 1.356 . S
N2326 H2338 0.984 . S
N2326 H2339 0.985 . S
N2327 C2329 1.356 . S
N2327 H2332 0.984 . S
N2327 H2333 0.985 . S
C2328 C2322 1.379 . S
C2328 C2325 1.363 . S
C2328 N2326 1.356 . S
C2329 C2323 1.363 . S
C2329 C2324 1.379 . S
C2329 N2327 1.356 . S
N2330 C2322 1.356 . S
N2330 H2336 0.984 . S
N2330 H2337 0.984 . S
N2331 C2324 1.356 . S
N2331 H2334 0.984 . S
N2331 H2335 0.985 . S
H2332 N2327 0.984 . S
H2333 N2327 0.985 . S
H2334 N2331 0.984 . S
H2335 N2331 0.985 . S
H2336 N2330 0.984 . S
H2337 N2330 0.984 . S
H2338 N2326 0.984 . S
H2339 N2326 0.985 . S
C2340 C2341 1.364 . S
C2340 C2346 1.387 . S
C2340 N2348 1.346 1_545 S
C2341 C2340 1.364 . S
C2341 C2347 1.363 . S
C2342 C2343 1.363 . S
C2342 C2347 1.379 . S
C2342 N2349 1.356 . S
C2343 C2342 1.363 . S
C2343 C2346 1.363 . S
N2344 C2346 1.356 . S
N2344 H2356 0.978 1_545 S
N2344 H2357 0.985 . S
N2345 C2347 1.356 . S
N2345 H2350 0.984 . S
N2345 H2351 0.985 . S
C2346 C2340 1.387 . S
C2346 C2343 1.363 . S
C2346 N2344 1.356 . S
C2347 C2341 1.363 . S
C2347 C2342 1.379 . S
C2347 N2345 1.356 . S
N2348 C2340 1.346 1_565 S
N2348 H2354 0.984 . S
N2348 H2355 0.984 . S
N2349 C2342 1.356 . S
N2349 H2352 0.984 . S
N2349 H2353 0.985 . S
H2350 N2345 0.984 . S
H2351 N2345 0.985 . S
H2352 N2349 0.984 . S
H2353 N2349 0.985 . S
H2354 N2348 0.984 . S
H2355 N2348 0.984 . S
H2356 N2344 0.978 1_565 S
H2357 N2344 0.985 . S
C2358 C2359 1.363 . S
C2358 C2364 1.379 . S
C2358 N2366 1.356 . S
C2359 C2358 1.363 . S
C2359 C2365 1.363 . S
C2360 C2361 1.363 . S
C2360 C2365 1.379 . S
C2360 N2367 1.367 . S
C2361 C2360 1.363 . S
C2361 C2364 1.363 . S
N2362 C2364 1.356 . S
N2362 H2374 0.984 . S
N2362 H2375 0.985 . S
N2363 C2365 1.356 . S
N2363 H2368 0.984 . S
N2363 H2369 0.992 . S
C2364 C2358 1.379 . S
C2364 C2361 1.363 . S
C2364 N2362 1.356 . S
C2365 C2359 1.363 . S
C2365 C2360 1.379 . S
C2365 N2363 1.356 . S
N2366 C2358 1.356 . S
N2366 H2372 0.984 . S
N2366 H2373 0.984 . S
N2367 C2360 1.367 . S
N2367 H2370 0.992 . S
N2367 H2371 0.969 1_565 S
H2368 N2363 0.984 . S
H2369 N2363 0.992 . S
H2370 N2367 0.992 . S
H2371 N2367 0.969 1_545 S
H2372 N2366 0.984 . S
H2373 N2366 0.984 . S
H2374 N2362 0.984 . S
H2375 N2362 0.985 . S
C2376 C2377 1.363 . S
C2376 C2382 1.379 . S
C2376 N2384 1.356 . S
C2377 C2376 1.363 . S
C2377 C2383 1.363 . S
C2378 C2379 1.363 . S
C2378 C2383 1.379 . S
C2378 N2385 1.356 . S
C2379 C2378 1.363 . S
C2379 C2382 1.363 . S
N2380 C2382 1.356 . S
N2380 H2392 0.984 . S
N2380 H2393 0.985 . S
N2381 C2383 1.356 . S
N2381 H2386 0.984 . S
N2381 H2387 0.985 . S
C2382 C2376 1.379 . S
C2382 C2379 1.363 . S
C2382 N2380 1.356 . S
C2383 C2377 1.363 . S
C2383 C2378 1.379 . S
C2383 N2381 1.356 . S
N2384 C2376 1.356 . S
N2384 H2390 0.984 . S
N2384 H2391 0.984 . S
N2385 C2378 1.356 . S
N2385 H2388 0.984 . S
N2385 H2389 0.985 . S
H2386 N2381 0.984 . S
H2387 N2381 0.985 . S
H2388 N2385 0.984 . S
H2389 N2385 0.985 . S
H2390 N2384 0.984 . S
H2391 N2384 0.984 . S
H2392 N2380 0.984 . S
H2393 N2380 0.985 . S
C2394 C2395 1.363 1_554 S
C2394 C2400 1.379 . S
C2394 N2402 1.356 . S
C2395 C2394 1.363 1_556 S
C2395 C2401 1.363 . S
C2396 C2397 1.363 . S
C2396 C2401 1.379 . S
C2396 N2403 1.356 . S
C2397 C2396 1.363 . S
C2397 C2400 1.363 1_556 S
N2398 C2400 1.356 . S
N2398 H2410 0.984 . S
N2398 H2411 0.985 . S
N2399 C2401 1.356 . S
N2399 H2404 0.984 . S
N2399 H2405 0.985 . S
C2400 C2394 1.379 . S
C2400 C2397 1.363 1_554 S
C2400 N2398 1.356 . S
C2401 C2395 1.363 . S
C2401 C2396 1.379 . S
C2401 N2399 1.356 . S
N2402 C2394 1.356 . S
N2402 H2408 0.984 . S
N2402 H2409 0.984 . S
N2403 C2396 1.356 . S
N2403 H2406 0.984 . S
N2403 H2407 0.985 . S
H2404 N2399 0.984 . S
H2405 N2399 0.985 . S
H2406 N2403 0.984 . S
H2407 N2403 0.985 . S
H2408 N2402 0.984 . S
H2409 N2402 0.984 . S
H2410 N2398 0.984 . S
H2411 N2398 0.985 . S
C2412 C2413 1.363 . S
C2412 C2418 1.379 . S
C2412 N2420 1.356 . S
C2413 C2412 1.363 . S
C2413 C2419 1.363 . S
C2414 C2415 1.363 . S
C2414 C2419 1.379 . S
C2414 N2421 1.356 . S
C2415 C2414 1.363 . S
C2415 C2418 1.363 . S
N2416 C2418 1.356 . S
N2416 H2428 0.984 . S
N2416 H2429 0.985 . S
N2417 C2419 1.356 . S
N2417 H2422 0.984 . S
N2417 H2423 0.985 . S
C2418 C2412 1.379 . S
C2418 C2415 1.363 . S
C2418 N2416 1.356 . S
C2419 C2413 1.363 . S
C2419 C2414 1.379 . S
C2419 N2417 1.356 . S
N2420 C2412 1.356 . S
N2420 H2426 0.984 . S
N2420 H2427 0.984 . S
N2421 C2414 1.356 . S
N2421 H2424 0.984 . S
N2421 H2425 0.985 . S
H2422 N2417 0.984 . S
H2423 N2417 0.985 . S
H2424 N2421 0.984 . S
H2425 N2421 0.985 . S
H2426 N2420 0.984 . S
H2427 N2420 0.984 . S
H2428 N2416 0.984 . S
H2429 N2416 0.985 . S
C2430 C2431 1.363 1_556 S
C2430 C2436 1.392 . S
C2430 N2438 1.356 . S
C2431 C2430 1.363 1_554 S
C2431 C2437 1.363 . S
C2432 C2433 1.363 . S
C2432 C2437 1.379 . S
C2432 N2439 1.356 . S
C2433 C2432 1.363 . S
C2433 C2436 1.339 1_554 S
N2434 C2436 1.362 . S
N2434 H2446 0.984 . S
N2434 H2447 0.966 1_556 S
N2435 C2437 1.356 . S
N2435 H2440 0.984 . S
N2435 H2441 0.985 . S
C2436 C2430 1.392 . S
C2436 C2433 1.339 1_556 S
C2436 N2434 1.362 . S
C2437 C2431 1.363 . S
C2437 C2432 1.379 . S
C2437 N2435 1.356 . S
N2438 C2430 1.356 . S
N2438 H2444 0.984 . S
N2438 H2445 0.984 . S
N2439 C2432 1.356 . S
N2439 H2442 0.984 . S
N2439 H2443 0.985 . S
H2440 N2435 0.984 . S
H2441 N2435 0.985 . S
H2442 N2439 0.984 . S
H2443 N2439 0.985 . S
H2444 N2438 0.984 . S
H2445 N2438 0.984 . S
H2446 N2434 0.984 . S
H2447 N2434 0.966 1_554 S
C2448 C2449 1.363 . S
C2448 C2454 1.379 . S
C2448 N2456 1.356 . S
C2449 C2448 1.363 . S
C2449 C2455 1.363 . S
C2450 C2451 1.363 . S
C2450 C2455 1.379 . S
C2450 N2457 1.356 . S
C2451 C2450 1.363 . S
C2451 C2454 1.363 . S
N2452 C2454 1.356 . S
N2452 H2464 0.984 . S
N2452 H2465 0.985 . S
N2453 C2455 1.356 . S
N2453 H2458 0.984 . S
N2453 H2459 0.985 . S
C2454 C2448 1.379 . S
C2454 C2451 1.363 . S
C2454 N2452 1.356 . S
C2455 C2449 1.363 . S
C2455 C2450 1.379 . S
C2455 N2453 1.356 . S
N2456 C2448 1.356 . S
N2456 H2462 0.984 . S
N2456 H2463 0.984 . S
N2457 C2450 1.356 . S
N2457 H2460 0.984 . S
N2457 H2461 0.985 . S
H2458 N2453 0.984 . S
H2459 N2453 0.985 . S
H2460 N2457 0.984 . S
H2461 N2457 0.985 . S
H2462 N2456 0.984 . S
H2463 N2456 0.984 . S
H2464 N2452 0.984 . S
H2465 N2452 0.985 . S
C2466 C2467 1.363 . S
C2466 C2472 1.379 . S
C2466 N2474 1.356 . S
C2467 C2466 1.363 . S
C2467 C2473 1.363 1_655 S
C2468 C2469 1.363 1_455 S
C2468 C2473 1.379 . S
C2468 N2475 1.356 . S
C2469 C2468 1.363 1_655 S
C2469 C2472 1.363 . S
N2470 C2472 1.356 . S
N2470 H2482 0.984 . S
N2470 H2483 0.985 . S
N2471 C2473 1.356 . S
N2471 H2476 0.984 . S
N2471 H2477 0.985 . S
C2472 C2466 1.379 . S
C2472 C2469 1.363 . S
C2472 N2470 1.356 . S
C2473 C2467 1.363 1_455 S
C2473 C2468 1.379 . S
C2473 N2471 1.356 . S
N2474 C2466 1.356 . S
N2474 H2480 0.984 . S
N2474 H2481 0.984 . S
N2475 C2468 1.356 . S
N2475 H2478 0.984 . S
N2475 H2479 0.985 . S
H2476 N2471 0.984 . S
H2477 N2471 0.985 . S
H2478 N2475 0.984 . S
H2479 N2475 0.985 . S
H2480 N2474 0.984 . S
H2481 N2474 0.984 . S
H2482 N2470 0.984 . S
H2483 N2470 0.985 . S
C2484 C2485 1.363 . S
C2484 C2490 1.379 . S
C2484 N2492 1.356 . S
C2485 C2484 1.363 . S
C2485 C2491 1.363 . S
C2486 C2487 1.363 . S
C2486 C2491 1.379 . S
C2486 N2493 1.356 . S
C2487 C2486 1.363 . S
C2487 C2490 1.363 . S
N2488 C2490 1.356 . S
N2488 H2500 0.984 . S
N2488 H2501 0.985 . S
N2489 C2491 1.356 . S
N2489 H2494 0.984 . S
N2489 H2495 0.985 . S
C2490 C2484 1.379 . S
C2490 C2487 1.363 . S
C2490 N2488 1.356 . S
C2491 C2485 1.363 . S
C2491 C2486 1.379 . S
C2491 N2489 1.356 . S
N2492 C2484 1.356 . S
N2492 H2498 0.984 . S
N2492 H2499 0.984 . S
N2493 C2486 1.356 . S
N2493 H2496 0.984 . S
N2493 H2497 0.985 . S
H2494 N2489 0.984 . S
H2495 N2489 0.985 . S
H2496 N2493 0.984 . S
H2497 N2493 0.985 . S
H2498 N2492 0.984 . S
H2499 N2492 0.984 . S
H2500 N2488 0.984 . S
H2501 N2488 0.985 . S
C2502 C2503 1.363 1_655 S
C2502 C2508 1.366 1_655 S
C2502 N2510 1.356 . S
C2503 C2502 1.363 1_455 S
C2503 C2509 1.363 . S
C2504 C2505 1.363 . S
C2504 C2509 1.379 . S
C2504 N2511 1.356 . S
C2505 C2504 1.363 . S
C2505 C2508 1.389 . S
N2506 C2508 1.352 1_655 S
N2506 H2518 0.984 . S
N2506 H2519 0.985 1_655 S
N2507 C2509 1.356 . S
N2507 H2512 0.984 . S
N2507 H2513 0.985 . S
C2508 C2502 1.366 1_455 S
C2508 C2505 1.389 . S
C2508 N2506 1.352 1_455 S
C2509 C2503 1.363 . S
C2509 C2504 1.379 . S
C2509 N2507 1.356 . S
N2510 C2502 1.356 . S
N2510 H2516 0.984 . S
N2510 H2517 0.984 . S
N2511 C2504 1.356 . S
N2511 H2514 0.984 . S
N2511 H2515 0.985 . S
H2512 N2507 0.984 . S
H2513 N2507 0.985 . S
H2514 N2511 0.984 . S
H2515 N2511 0.985 . S
H2516 N2510 0.984 . S
H2517 N2510 0.984 . S
H2518 N2506 0.984 . S
H2519 N2506 0.985 1_455 S
C1227 C1217 1.716 . S
C1225 C15 1.775 . S
C1245 C1184 1.752 . S
C1243 C55 1.610 . S
C1263 C1206 0.969 . S
C1261 C95 1.090 . S
C1281 C1195 1.608 . S
C1279 C135 1.597 . S
C1299 C1118 1.716 . S
C1297 C175 1.775 . S
C1315 C215 1.597 . S
C1317 C1129 1.608 . S
C1335 C1096 1.752 . S
C1333 C255 1.610 . S
C1351 C295 1.090 . S
C1353 C1107 0.969 . S
C1371 C1173 1.716 . S
C1369 C335 1.775 . S
C1387 C375 1.597 . S
C1389 C1151 1.608 . S
C1405 C415 1.610 . S
C1407 C1140 1.752 . S
C1425 C1162 0.969 . S
C1423 C455 1.090 . S
C1443 C1085 1.707 . S
C1441 C495 1.773 . S
C1459 C535 1.597 . S
C1461 C1052 1.746 . S
C1479 C1074 0.970 . S
C1477 C575 1.092 1_545 S
C1495 C615 1.598 . S
C1497 C1063 1.581 . S
C1515 C986 1.707 . S
C1513 C655 1.773 . S
C1533 C997 1.581 . S
C1531 C695 1.598 . S
C1549 C735 1.597 . S
C1551 C964 1.746 . S
C1567 C775 1.092 1_554 S
C1569 C975 0.970 . S
C1585 C815 1.768 . S
C1587 C1041 1.712 . S
C1603 C855 1.598 . S
C1605 C1019 1.581 . S
C1623 C1008 1.746 . S
C1621 C895 1.597 . S
C1639 C935 1.092 1_455 S
C1641 C1030 0.970 . S
C1659 C965 1.614 . S
C1657 C21 1.679 . S
C1677 C976 1.836 . S
C1675 C61 1.939 . S
C1693 C101 0.961 . S
C1695 C987 0.968 . S
C1711 C141 1.074 . S
C1713 C998 1.049 . S
C1731 C1009 1.614 . S
C1729 C181 1.679 . S
C1747 C221 1.074 . S
C1749 C1020 1.049 . S
C1767 C1031 1.836 . S
C1765 C261 1.939 . S
C1785 C1042 0.968 . S
C1783 C301 0.961 . S
C1803 C1053 1.614 . S
C1801 C341 1.679 . S
C1819 C381 1.074 . S
C1821 C1064 1.049 . S
C1837 C421 1.940 . S
C1839 C1075 1.835 . S
C1855 C461 0.961 . S
C1857 C1086 0.968 . S
C1873 C501 1.618 . S
C1875 C1097 1.616 . S
C1891 C541 1.734 . S
C1893 C1108 1.850 . S
C1909 C581 0.965 1_545 S
C1911 C1119 0.968 . S
C1927 C621 1.053 . S
C1929 C1130 1.052 . S
C1945 C661 1.618 . S
C1947 C1141 1.616 . S
C1965 C1152 1.057 . S
C1963 C701 1.048 . S
C1983 C1163 1.851 . S
C1981 C741 1.732 . S
C2001 C1174 0.968 . S
C1999 C781 0.965 1_554 S
C2019 C1185 1.616 . S
C2017 C821 1.618 . S
C2035 C861 1.053 . S
C2037 C1196 1.052 . S
C2053 C901 1.734 . S
C2055 C1207 1.850 . S
C2071 C941 0.965 1_455 S
C2073 C1218 0.968 . S
C2089 C2 1.646 . S
C2091 C1058 1.635 . S
C2109 C1091 1.806 . S
C2107 C42 1.814 . S
C2125 C82 1.567 . S
C2127 C1069 1.504 . S
C2145 C1080 1.691 . S
C2143 C122 1.639 . S
C2161 C162 1.645 . S
C2163 C970 1.634 . S
C2179 C202 1.639 . S
C2181 C981 1.691 . S
C2197 C242 1.818 . S
C2199 C992 1.802 . S
C2215 C282 1.567 . S
C2217 C1003 1.504 . S
C2235 C1014 1.635 . S
C2233 C322 1.646 . S
C2253 C1036 1.691 . S
C2251 C362 1.639 . S
C2269 C402 1.818 . S
C2271 C1047 1.802 . S
C2287 C442 1.567 . S
C2289 C1025 1.504 . S
C2307 C1190 1.638 . S
C2305 C482 1.621 . S
C2325 C1223 1.800 . S
C2323 C522 1.707 . S
C2341 C562 1.615 1_545 S
C2343 C1201 1.498 . S
C2361 C1212 1.700 . S
C2359 C602 1.632 . S
C2377 C642 1.621 . S
C2379 C1102 1.638 . S
C2395 C682 1.632 . S
C2397 C1113 1.700 . S
C2413 C722 1.712 . S
C2415 C1124 1.796 . S
C2433 C1135 1.498 . S
C2431 C762 1.615 1_554 S
C2451 C1146 1.638 . S
C2449 C802 1.621 . S
C2469 C1168 1.700 . S
C2467 C842 1.632 . S
C2485 C882 1.712 . S
C2487 C1179 1.796 . S
C2505 C1157 1.498 . S
C2503 C922 1.615 1_455 S
