# Generated by pormake.
# Topology bwt, (3,3)-cn, num edge types: 1
# Building blocks:
#     Node 0, Type 0, BuildingBlock: OLANEW_clean_sbu_2, # of connection points: 3
#     Node 1, Type 0, BuildingBlock: OLANEW_clean_sbu_2, # of connection points: 3
#     Node 2, Type 0, BuildingBlock: OLANEW_clean_sbu_2, # of connection points: 3
#     Node 3, Type 0, BuildingBlock: OLANEW_clean_sbu_2, # of connection points: 3
#     Node 4, Type 0, BuildingBlock: OLANEW_clean_sbu_2, # of connection points: 3
#     Node 5, Type 0, BuildingBlock: OLANEW_clean_sbu_2, # of connection points: 3
#     Node 6, Type 0, BuildingBlock: OLANEW_clean_sbu_2, # of connection points: 3
#     Node 7, Type 0, BuildingBlock: OLANEW_clean_sbu_2, # of connection points: 3
#     Node 8, Type 0, BuildingBlock: OLANEW_clean_sbu_2, # of connection points: 3
#     Node 9, Type 0, BuildingBlock: OLANEW_clean_sbu_2, # of connection points: 3
#     Node 10, Type 0, BuildingBlock: OLANEW_clean_sbu_2, # of connection points: 3
#     Node 11, Type 0, BuildingBlock: OLANEW_clean_sbu_2, # of connection points: 3
#     Node 12, Type 0, BuildingBlock: OLANEW_clean_sbu_2, # of connection points: 3
#     Node 13, Type 0, BuildingBlock: OLANEW_clean_sbu_2, # of connection points: 3
#     Node 14, Type 0, BuildingBlock: OLANEW_clean_sbu_2, # of connection points: 3
#     Node 15, Type 0, BuildingBlock: OLANEW_clean_sbu_2, # of connection points: 3
#     Node 16, Type 0, BuildingBlock: OLANEW_clean_sbu_2, # of connection points: 3
#     Node 17, Type 0, BuildingBlock: OLANEW_clean_sbu_2, # of connection points: 3
#     Node 18, Type 0, BuildingBlock: OLANEW_clean_sbu_2, # of connection points: 3
#     Node 19, Type 0, BuildingBlock: OLANEW_clean_sbu_2, # of connection points: 3
#     Node 20, Type 0, BuildingBlock: OLANEW_clean_sbu_2, # of connection points: 3
#     Node 21, Type 0, BuildingBlock: OLANEW_clean_sbu_2, # of connection points: 3
#     Node 22, Type 0, BuildingBlock: OLANEW_clean_sbu_2, # of connection points: 3
#     Node 23, Type 0, BuildingBlock: OLANEW_clean_sbu_2, # of connection points: 3
#     Node 24, Type 1, BuildingBlock: MIDCAF_clean_linker_0, # of connection points: 3
#     Node 25, Type 1, BuildingBlock: MIDCAF_clean_linker_0, # of connection points: 3
#     Node 26, Type 1, BuildingBlock: MIDCAF_clean_linker_0, # of connection points: 3
#     Node 27, Type 1, BuildingBlock: MIDCAF_clean_linker_0, # of connection points: 3
#     Node 28, Type 1, BuildingBlock: MIDCAF_clean_linker_0, # of connection points: 3
#     Node 29, Type 1, BuildingBlock: MIDCAF_clean_linker_0, # of connection points: 3
#     Node 30, Type 1, BuildingBlock: MIDCAF_clean_linker_0, # of connection points: 3
#     Node 31, Type 1, BuildingBlock: MIDCAF_clean_linker_0, # of connection points: 3
#     Node 32, Type 1, BuildingBlock: MIDCAF_clean_linker_0, # of connection points: 3
#     Node 33, Type 1, BuildingBlock: MIDCAF_clean_linker_0, # of connection points: 3
#     Node 34, Type 1, BuildingBlock: MIDCAF_clean_linker_0, # of connection points: 3
#     Node 35, Type 1, BuildingBlock: MIDCAF_clean_linker_0, # of connection points: 3
#     Node 36, Type 1, BuildingBlock: MIDCAF_clean_linker_0, # of connection points: 3
#     Node 37, Type 1, BuildingBlock: MIDCAF_clean_linker_0, # of connection points: 3
#     Node 38, Type 1, BuildingBlock: MIDCAF_clean_linker_0, # of connection points: 3
#     Node 39, Type 1, BuildingBlock: MIDCAF_clean_linker_0, # of connection points: 3
#     Node 40, Type 1, BuildingBlock: MIDCAF_clean_linker_0, # of connection points: 3
#     Node 41, Type 1, BuildingBlock: MIDCAF_clean_linker_0, # of connection points: 3
#     Node 42, Type 1, BuildingBlock: MIDCAF_clean_linker_0, # of connection points: 3
#     Node 43, Type 1, BuildingBlock: MIDCAF_clean_linker_0, # of connection points: 3
#     Node 44, Type 1, BuildingBlock: MIDCAF_clean_linker_0, # of connection points: 3
#     Node 45, Type 1, BuildingBlock: MIDCAF_clean_linker_0, # of connection points: 3
#     Node 46, Type 1, BuildingBlock: MIDCAF_clean_linker_0, # of connection points: 3
#     Node 47, Type 1, BuildingBlock: MIDCAF_clean_linker_0, # of connection points: 3
#     Edge 48, Type (0, 1), BuildingBlock: CIFDUS_clean_linker_0, # of connection points: 2
#     Edge 49, Type (0, 1), BuildingBlock: CIFDUS_clean_linker_0, # of connection points: 2
#     Edge 50, Type (0, 1), BuildingBlock: CIFDUS_clean_linker_0, # of connection points: 2
#     Edge 51, Type (0, 1), BuildingBlock: CIFDUS_clean_linker_0, # of connection points: 2
#     Edge 52, Type (0, 1), BuildingBlock: CIFDUS_clean_linker_0, # of connection points: 2
#     Edge 53, Type (0, 1), BuildingBlock: CIFDUS_clean_linker_0, # of connection points: 2
#     Edge 54, Type (0, 1), BuildingBlock: CIFDUS_clean_linker_0, # of connection points: 2
#     Edge 55, Type (0, 1), BuildingBlock: CIFDUS_clean_linker_0, # of connection points: 2
#     Edge 56, Type (0, 1), BuildingBlock: CIFDUS_clean_linker_0, # of connection points: 2
#     Edge 57, Type (0, 1), BuildingBlock: CIFDUS_clean_linker_0, # of connection points: 2
#     Edge 58, Type (0, 1), BuildingBlock: CIFDUS_clean_linker_0, # of connection points: 2
#     Edge 59, Type (0, 1), BuildingBlock: CIFDUS_clean_linker_0, # of connection points: 2
#     Edge 60, Type (0, 1), BuildingBlock: CIFDUS_clean_linker_0, # of connection points: 2
#     Edge 61, Type (0, 1), BuildingBlock: CIFDUS_clean_linker_0, # of connection points: 2
#     Edge 62, Type (0, 1), BuildingBlock: CIFDUS_clean_linker_0, # of connection points: 2
#     Edge 63, Type (0, 1), BuildingBlock: CIFDUS_clean_linker_0, # of connection points: 2
#     Edge 64, Type (0, 1), BuildingBlock: CIFDUS_clean_linker_0, # of connection points: 2
#     Edge 65, Type (0, 1), BuildingBlock: CIFDUS_clean_linker_0, # of connection points: 2
#     Edge 66, Type (0, 1), BuildingBlock: CIFDUS_clean_linker_0, # of connection points: 2
#     Edge 67, Type (0, 1), BuildingBlock: CIFDUS_clean_linker_0, # of connection points: 2
#     Edge 68, Type (0, 1), BuildingBlock: CIFDUS_clean_linker_0, # of connection points: 2
#     Edge 69, Type (0, 1), BuildingBlock: CIFDUS_clean_linker_0, # of connection points: 2
#     Edge 70, Type (0, 1), BuildingBlock: CIFDUS_clean_linker_0, # of connection points: 2
#     Edge 71, Type (0, 1), BuildingBlock: CIFDUS_clean_linker_0, # of connection points: 2
#     Edge 72, Type (0, 1), BuildingBlock: CIFDUS_clean_linker_0, # of connection points: 2
#     Edge 73, Type (0, 1), BuildingBlock: CIFDUS_clean_linker_0, # of connection points: 2
#     Edge 74, Type (0, 1), BuildingBlock: CIFDUS_clean_linker_0, # of connection points: 2
#     Edge 75, Type (0, 1), BuildingBlock: CIFDUS_clean_linker_0, # of connection points: 2
#     Edge 76, Type (0, 1), BuildingBlock: CIFDUS_clean_linker_0, # of connection points: 2
#     Edge 77, Type (0, 1), BuildingBlock: CIFDUS_clean_linker_0, # of connection points: 2
#     Edge 78, Type (0, 1), BuildingBlock: CIFDUS_clean_linker_0, # of connection points: 2
#     Edge 79, Type (0, 1), BuildingBlock: CIFDUS_clean_linker_0, # of connection points: 2
#     Edge 80, Type (0, 1), BuildingBlock: CIFDUS_clean_linker_0, # of connection points: 2
#     Edge 81, Type (0, 1), BuildingBlock: CIFDUS_clean_linker_0, # of connection points: 2
#     Edge 82, Type (0, 1), BuildingBlock: CIFDUS_clean_linker_0, # of connection points: 2
#     Edge 83, Type (0, 1), BuildingBlock: CIFDUS_clean_linker_0, # of connection points: 2
#     Edge 84, Type (0, 1), BuildingBlock: CIFDUS_clean_linker_0, # of connection points: 2
#     Edge 85, Type (0, 1), BuildingBlock: CIFDUS_clean_linker_0, # of connection points: 2
#     Edge 86, Type (0, 1), BuildingBlock: CIFDUS_clean_linker_0, # of connection points: 2
#     Edge 87, Type (0, 1), BuildingBlock: CIFDUS_clean_linker_0, # of connection points: 2
#     Edge 88, Type (0, 1), BuildingBlock: CIFDUS_clean_linker_0, # of connection points: 2
#     Edge 89, Type (0, 1), BuildingBlock: CIFDUS_clean_linker_0, # of connection points: 2
#     Edge 90, Type (0, 1), BuildingBlock: CIFDUS_clean_linker_0, # of connection points: 2
#     Edge 91, Type (0, 1), BuildingBlock: CIFDUS_clean_linker_0, # of connection points: 2
#     Edge 92, Type (0, 1), BuildingBlock: CIFDUS_clean_linker_0, # of connection points: 2
#     Edge 93, Type (0, 1), BuildingBlock: CIFDUS_clean_linker_0, # of connection points: 2
#     Edge 94, Type (0, 1), BuildingBlock: CIFDUS_clean_linker_0, # of connection points: 2
#     Edge 95, Type (0, 1), BuildingBlock: CIFDUS_clean_linker_0, # of connection points: 2
#     Edge 96, Type (0, 1), BuildingBlock: CIFDUS_clean_linker_0, # of connection points: 2
#     Edge 97, Type (0, 1), BuildingBlock: CIFDUS_clean_linker_0, # of connection points: 2
#     Edge 98, Type (0, 1), BuildingBlock: CIFDUS_clean_linker_0, # of connection points: 2
#     Edge 99, Type (0, 1), BuildingBlock: CIFDUS_clean_linker_0, # of connection points: 2
#     Edge 100, Type (0, 1), BuildingBlock: CIFDUS_clean_linker_0, # of connection points: 2
#     Edge 101, Type (0, 1), BuildingBlock: CIFDUS_clean_linker_0, # of connection points: 2
#     Edge 102, Type (0, 1), BuildingBlock: CIFDUS_clean_linker_0, # of connection points: 2
#     Edge 103, Type (0, 1), BuildingBlock: CIFDUS_clean_linker_0, # of connection points: 2
#     Edge 104, Type (0, 1), BuildingBlock: CIFDUS_clean_linker_0, # of connection points: 2
#     Edge 105, Type (0, 1), BuildingBlock: CIFDUS_clean_linker_0, # of connection points: 2
#     Edge 106, Type (0, 1), BuildingBlock: CIFDUS_clean_linker_0, # of connection points: 2
#     Edge 107, Type (0, 1), BuildingBlock: CIFDUS_clean_linker_0, # of connection points: 2
#     Edge 108, Type (0, 1), BuildingBlock: CIFDUS_clean_linker_0, # of connection points: 2
#     Edge 109, Type (0, 1), BuildingBlock: CIFDUS_clean_linker_0, # of connection points: 2
#     Edge 110, Type (0, 1), BuildingBlock: CIFDUS_clean_linker_0, # of connection points: 2
#     Edge 111, Type (0, 1), BuildingBlock: CIFDUS_clean_linker_0, # of connection points: 2
#     Edge 112, Type (0, 1), BuildingBlock: CIFDUS_clean_linker_0, # of connection points: 2
#     Edge 113, Type (0, 1), BuildingBlock: CIFDUS_clean_linker_0, # of connection points: 2
#     Edge 114, Type (0, 1), BuildingBlock: CIFDUS_clean_linker_0, # of connection points: 2
#     Edge 115, Type (0, 1), BuildingBlock: CIFDUS_clean_linker_0, # of connection points: 2
#     Edge 116, Type (0, 1), BuildingBlock: CIFDUS_clean_linker_0, # of connection points: 2
#     Edge 117, Type (0, 1), BuildingBlock: CIFDUS_clean_linker_0, # of connection points: 2
#     Edge 118, Type (0, 1), BuildingBlock: CIFDUS_clean_linker_0, # of connection points: 2
#     Edge 119, Type (0, 1), BuildingBlock: CIFDUS_clean_linker_0, # of connection points: 2
# Relax obj value: 0.147
# Max RMSD: 0.144
# Mean RMSD: 0.092
data_MOF--net-bwt--node1-OLANEW_clean_sbu_2--node2-MIDCAF_clean_linker_0--edge1-CIFDUS_clean_linker_0
_symmetry_space_group_name_H-M    P1
_symmetry_Int_Tables_number       1
_symmetry_cell_setting            triclinic
loop_
_symmetry_equiv_pos_as_xyz
'x, y, z'
_cell_length_a     64.890628
_cell_length_b     64.873321
_cell_length_c     64.839407
_cell_angle_alpha  93.60164
_cell_angle_beta   93.735119
_cell_angle_gamma 93.640669
loop_
_atom_site_label
_atom_site_type_symbol
_atom_site_fract_x
_atom_site_fract_y
_atom_site_fract_z
_atom_type_partial_charge
O0 O 0.27063 0.55988 0.32895 0.0
Cd1 Cd 0.27048 0.56925 0.29298 0.0
O2 O 0.26788 0.59199 0.3408 0.0
Cd3 Cd 0.28088 0.60251 0.31285 0.0
O4 O 0.31196 0.6001 0.30224 0.0
C5 C 0.3256 0.59834 0.31691 0.0
O6 O 0.31991 0.59909 0.33601 0.0
C7 C 0.26767 0.5728 0.34387 0.0
C8 C 0.22989 0.56417 0.27548 0.0
O9 O 0.24209 0.54941 0.2745 0.0
O10 O 0.23703 0.58161 0.28436 0.0
O11 O 0.20045 0.40952 0.69778 0.0
Cd12 Cd 0.19597 0.40011 0.66054 0.0
O13 O 0.20462 0.3774 0.70521 0.0
Cd14 Cd 0.18634 0.36787 0.6764 0.0
O15 O 0.15614 0.37831 0.66654 0.0
C16 C 0.13944 0.36721 0.66761 0.0
O17 O 0.14043 0.34798 0.67266 0.0
C18 C 0.2057 0.39661 0.71081 0.0
C19 C 0.23342 0.41189 0.64455 0.0
O20 O 0.21842 0.42383 0.64449 0.0
O21 O 0.23041 0.39391 0.65139 0.0
O22 O 0.74997 0.97025 0.67322 0.0
Cd23 Cd 0.75664 0.97157 0.71082 0.0
O24 O 0.75688 0.93759 0.66885 0.0
Cd25 Cd 0.77618 0.94061 0.69789 0.0
O26 O 0.80696 0.9542 0.70883 0.0
C27 C 0.81274 0.96963 0.69895 0.0
O28 O 0.79979 0.97592 0.6846 0.0
C29 C 0.74977 0.95368 0.66161 0.0
C30 C 0.7244 0.99145 0.72834 0.0
O31 O 0.74168 0.00135 0.7258 0.0
O32 O 0.72254 0.972 0.72315 0.0
O33 O 0.75699 0.0317 0.29538 0.0
Cd34 Cd 0.76803 0.03034 0.33193 0.0
O35 O 0.72717 0.01529 0.29976 0.0
Cd36 Cd 0.69765 -0.00122 0.28884 0.0
O37 O 0.66769 0.98281 0.27884 0.0
C38 C 0.65238 0.9856 0.28971 0.0
O39 O 0.6551 -0.002 0.30663 0.0
C40 C 0.73949 0.02379 0.28786 0.0
C41 C 0.80259 0.00706 0.33516 0.0
O42 O 0.78434 -0.0014 0.3363 0.0
O43 O 0.80446 0.02656 0.33293 0.0
O44 O 0.33927 0.27501 0.57956 0.0
Cd45 Cd 0.30286 0.27683 0.58651 0.0
O46 O 0.35051 0.29605 0.60641 0.0
Cd47 Cd 0.32107 0.30996 0.60972 0.0
O48 O 0.31389 0.34197 0.60564 0.0
C49 C 0.29629 0.34897 0.60183 0.0
O50 O 0.27958 0.33631 0.60067 0.0
C51 C 0.35417 0.28346 0.59147 0.0
C52 C 0.28379 0.23713 0.57807 0.0
O53 O 0.28422 0.25032 0.56417 0.0
O54 O 0.29184 0.24292 0.59625 0.0
O55 O 0.28244 0.74098 0.03437 0.0
Cd56 Cd 0.31697 0.75826 0.03394 0.0
O57 O 0.29063 0.71005 0.02316 0.0
Cd58 Cd 0.28399 0.67677 0.01528 0.0
O59 O 0.28032 0.64319 0.00818 0.0
C60 C 0.26494 0.63509 -0.00334 0.0
O61 O 0.25118 0.64716 0.98918 0.0
C62 C 0.27712 0.72209 0.02904 0.0
C63 C 0.31348 0.79767 0.01945 0.0
O64 O 0.31663 0.78212 0.00713 0.0
O65 O 0.31232 0.79466 0.0387 0.0
O66 O 0.71666 0.21217 0.38198 0.0
Cd67 Cd 0.68039 0.20823 0.36832 0.0
O68 O 0.72794 0.20367 0.35159 0.0
Cd69 Cd 0.69896 0.18543 0.34256 0.0
O70 O 0.68754 0.15356 0.34651 0.0
C71 C 0.68007 0.14929 0.36349 0.0
O72 O 0.67752 0.16449 0.37726 0.0
C73 C 0.73153 0.21101 0.37021 0.0
C74 C 0.66336 0.24608 0.37672 0.0
O75 O 0.66206 0.23155 0.38919 0.0
O76 O 0.67206 0.24244 0.35981 0.0
O77 O 0.67237 0.74009 0.94917 0.0
Cd78 Cd 0.70981 0.74451 0.94722 0.0
O79 O 0.66398 0.77035 0.93883 0.0
Cd80 Cd 0.69515 0.78535 0.94069 0.0
O81 O 0.70832 0.8154 0.95422 0.0
C82 C 0.70035 0.82104 0.97089 0.0
O83 O 0.68669 0.80821 0.97837 0.0
C84 C 0.65867 0.75239 0.94423 0.0
C85 C 0.72618 0.70991 0.96382 0.0
O86 O 0.72581 0.72698 0.97483 0.0
O87 O 0.7195 0.7094 0.94475 0.0
O88 O 0.58239 0.34509 0.26575 0.0
Cd89 Cd 0.59343 0.30981 0.26634 0.0
O90 O 0.61108 0.35831 0.28279 0.0
Cd91 Cd 0.61774 0.32956 0.29687 0.0
O92 O 0.61515 0.32296 0.32929 0.0
C93 C 0.6103 0.30564 0.33641 0.0
O94 O 0.60737 0.28898 0.32369 0.0
C95 C 0.59423 0.36078 0.27237 0.0
C96 C 0.59031 0.29264 0.22557 0.0
O97 O 0.57525 0.29062 0.23731 0.0
O98 O 0.60715 0.30232 0.2333 0.0
O99 O 0.02708 0.29495 0.76497 0.0
Cd100 Cd 0.03122 0.33024 0.78087 0.0
O101 O 0.01607 0.30468 0.73458 0.0
Cd102 Cd 0.00248 0.29901 0.70272 0.0
O103 O 0.98835 0.29386 0.6711 0.0
C104 C -0.00645 0.27896 0.65929 0.0
O105 O 0.00742 0.26682 0.66641 0.0
C106 C 0.02063 0.29032 0.74622 0.0
C107 C 0.01318 0.33154 0.81879 0.0
O108 O 0.00297 0.33574 0.80215 0.0
O109 O 0.03203 0.32706 0.81754 0.0
O110 O 0.36925 0.70227 0.22462 0.0
Cd111 Cd 0.35499 0.66639 0.22023 0.0
O112 O 0.38469 0.70176 0.19533 0.0
Cd113 Cd 0.37216 0.67225 0.18014 0.0
O114 O 0.37366 0.66657 0.14668 0.0
C115 C 0.37588 0.68346 0.13787 0.0
O116 O 0.37572 0.70095 0.14924 0.0
C117 C 0.381 0.71105 0.21239 0.0
C118 C 0.37254 0.64724 0.25373 0.0
O119 O 0.38089 0.647 0.23635 0.0
O120 O 0.35528 0.65565 0.25495 0.0
O121 O 0.9858 0.66668 0.74138 0.0
Cd122 Cd 0.9804 0.70366 0.74361 0.0
O123 O 0.95524 0.65965 0.75302 0.0
Cd124 Cd 0.95566 0.68918 0.77127 0.0
O125 O 0.96058 0.69896 0.80428 0.0
C126 C 0.97682 0.70957 0.81169 0.0
O127 O 0.99019 0.71645 0.79894 0.0
C128 C 0.97099 0.65364 0.74426 0.0
C129 C 0.98768 0.71808 0.70484 0.0
O130 O 0.00149 0.72085 0.71999 0.0
O131 O 0.97017 0.70909 0.70815 0.0
O132 O 0.70483 0.3637 0.68436 0.0
Cd133 Cd 0.71772 0.35352 0.71825 0.0
O134 O 0.68531 0.38729 0.69698 0.0
Cd135 Cd 0.66161 0.40941 0.69232 0.0
O136 O 0.63497 0.42643 0.68286 0.0
C137 C 0.61708 0.41755 0.6839 0.0
O138 O 0.61555 0.39902 0.69099 0.0
C139 C 0.69237 0.37776 0.6815 0.0
C140 C 0.75972 0.36586 0.72531 0.0
O141 O 0.7538 0.34855 0.71542 0.0
O142 O 0.7458 0.37717 0.73209 0.0
O143 O 0.7602 0.61361 0.30337 0.0
Cd144 Cd 0.75804 0.62787 0.33907 0.0
O145 O 0.78659 0.59496 0.31058 0.0
Cd146 Cd 0.81079 0.57524 0.30053 0.0
O147 O 0.83666 0.55937 0.28829 0.0
C148 C 0.85502 0.56725 0.29244 0.0
O149 O 0.85792 0.58459 0.30418 0.0
C150 C 0.77304 0.6008 0.29753 0.0
C151 C 0.71787 0.61943 0.35085 0.0
O152 O 0.72275 0.63623 0.34239 0.0
O153 O 0.73212 0.60701 0.35423 0.0
O154 O 0.26489 0.06141 0.30711 0.0
Cd155 Cd 0.2722 0.06951 0.27195 0.0
O156 O 0.24201 0.03624 0.29574 0.0
Cd157 Cd 0.21707 0.01289 0.29985 0.0
O158 O 0.18976 -0.00623 0.30652 0.0
C159 C 0.17237 0.00169 0.3049 0.0
O160 O 0.17171 0.02073 0.29918 0.0
C161 C 0.25198 0.04678 0.31081 0.0
C162 C 0.30621 0.0486 0.26039 0.0
O163 O 0.30857 0.0664 0.2703 0.0
O164 O 0.28772 0.04088 0.25554 0.0
O165 O 0.2445 -0.00507 0.70851 0.0
Cd166 Cd 0.22955 4e-05 0.67375 0.0
O167 O 0.27138 0.0167 0.70547 0.0
Cd168 Cd 0.30111 0.03236 0.71766 0.0
O169 O 0.3324 0.04491 0.7286 0.0
C170 C 0.34787 0.03549 0.72286 0.0
O171 O 0.34456 0.01855 0.71057 0.0
C172 C 0.26116 0.00455 0.71629 0.0
C173 C 0.19048 0.01549 0.67633 0.0
O174 O 0.19237 -0.00401 0.67344 0.0
O175 O 0.20698 0.02759 0.67769 0.0
O176 O 0.67921 0.71629 0.36919 0.0
Cd177 Cd 0.70863 0.73417 0.35449 0.0
O178 O 0.6964 0.69042 0.38011 0.0
Cd179 Cd 0.69681 0.66056 0.39406 0.0
O180 O 0.69469 0.63068 0.40785 0.0
C181 C 0.67743 0.62024 0.40787 0.0
O182 O 0.66068 0.6277 0.39959 0.0
C183 C 0.67968 0.69956 0.37838 0.0
C184 C 0.71299 0.77577 0.36927 0.0
O185 O 0.70114 0.76993 0.3531 0.0
O186 O 0.72289 0.76199 0.37829 0.0
O187 O 0.68706 0.24675 0.98182 0.0
Cd188 Cd 0.65288 0.22846 0.98126 0.0
O189 O 0.67821 0.27491 -0.00122 0.0
Cd190 Cd 0.68497 0.30666 0.01252 0.0
O191 O 0.6971 0.3369 0.02676 0.0
C192 C 0.69586 0.35311 0.01682 0.0
O193 O 0.68693 0.3515 -0.00204 0.0
C194 C 0.69192 0.26475 0.99032 0.0
C195 C 0.65638 0.19034 -0.00146 0.0
O196 O 0.65852 0.19217 0.97922 0.0
O197 O 0.65228 0.20645 0.0096 0.0
O198 O 0.29554 0.76782 0.60641 0.0
Cd199 Cd 0.32838 0.77291 0.62753 0.0
O200 O 0.29313 0.79898 0.59495 0.0
Cd201 Cd 0.31989 0.81739 0.60995 0.0
O202 O 0.32131 0.8509 0.60695 0.0
C203 C 0.30356 0.85707 0.60193 0.0
O204 O 0.28753 0.8435 0.60047 0.0
C205 C 0.28601 0.78034 0.59555 0.0
C206 C 0.34286 0.73351 0.63055 0.0
O207 O 0.33073 0.74072 0.64363 0.0
O208 O 0.34891 0.74531 0.61669 0.0
O209 O 0.29711 0.22566 0.03904 0.0
Cd210 Cd 0.26019 0.22744 0.04386 0.0
O211 O 0.29228 0.2295 0.00568 0.0
Cd212 Cd 0.26175 0.2133 0.00519 0.0
O213 O 0.25143 0.18073 -0.00169 0.0
C214 C 0.26316 0.16784 0.00611 0.0
O215 O 0.27911 0.17494 0.01865 0.0
C216 C 0.30442 0.22954 0.02187 0.0
C217 C 0.24915 0.26631 0.03239 0.0
O218 O 0.25724 0.26402 0.05059 0.0
O219 O 0.24569 0.25018 0.0199 0.0
O220 O 0.35288 0.68877 0.70125 0.0
Cd221 Cd 0.34136 0.72082 0.71706 0.0
O222 O 0.37632 0.70434 0.68346 0.0
Cd223 Cd 0.39939 0.70271 0.66033 0.0
O224 O 0.41833 0.69695 0.63419 0.0
C225 C 0.41833 0.67876 0.62567 0.0
O226 O 0.40717 0.6637 0.63309 0.0
C227 C 0.36735 0.68779 0.68899 0.0
C228 C 0.35715 0.72573 0.75827 0.0
O229 O 0.33982 0.71549 0.75328 0.0
O230 O 0.36674 0.73394 0.74383 0.0
O231 O 0.94779 0.7008 0.23423 0.0
Cd232 Cd 0.95007 0.66735 0.21515 0.0
O233 O 0.96763 0.69172 0.26049 0.0
Cd234 Cd 0.98273 0.69818 0.29176 0.0
O235 O -0.00436 0.70481 0.3238 0.0
C236 C 0.98748 0.69584 0.33846 0.0
O237 O 0.97136 0.68263 0.33403 0.0
C238 C 0.95721 0.70519 0.25192 0.0
C239 C 0.96546 0.67188 0.17624 0.0
O240 O 0.94592 0.67061 0.17833 0.0
O241 O 0.97763 0.67101 0.1925 0.0
O242 O 0.65277 0.29651 0.75868 0.0
Cd243 Cd 0.66774 0.33058 0.75097 0.0
O244 O 0.634 0.30761 0.78363 0.0
Cd245 Cd 0.61432 0.30155 0.80904 0.0
O246 O 0.60035 0.2948 0.83787 0.0
C247 C 0.60743 0.28073 0.84856 0.0
O248 O 0.62264 0.27038 0.84171 0.0
C249 C 0.63987 0.29281 0.77215 0.0
C250 C 0.65944 0.3351 0.70878 0.0
O251 O 0.67544 0.32619 0.71534 0.0
O252 O 0.64777 0.3425 0.72222 0.0
O253 O 0.07273 0.27539 0.24952 0.0
Cd254 Cd 0.0727 0.23935 0.25825 0.0
O255 O 0.04398 0.26668 0.23042 0.0
Cd256 Cd 0.01995 0.27446 0.20764 0.0
O257 O 0.00237 0.28255 0.17987 0.0
C258 C 0.00802 0.29855 0.17078 0.0
O259 O 0.02412 0.31041 0.17875 0.0
C260 C 0.05773 0.28048 0.23777 0.0
C261 C 0.04651 0.2334 0.29006 0.0
O262 O 0.06601 0.23739 0.29403 0.0
O263 O 0.0395 0.23183 0.27104 0.0
C264 C 0.35138 0.61717 0.56611 0.0
C265 C 0.3538 0.61921 0.58785 0.0
C266 C 0.34854 0.6019 0.599 0.0
C267 C 0.34005 0.58334 0.58859 0.0
H268 H 0.33386 0.51522 0.58636 0.0
H269 H 0.33334 0.48013 0.59794 0.0
H270 H 0.28721 0.4598 0.54861 0.0
H271 H 0.28749 0.49476 0.53713 0.0
H272 H 0.28104 0.52252 0.49843 0.0
H273 H 0.26638 0.52847 0.46377 0.0
H274 H 0.29064 0.59226 0.47175 0.0
H275 H 0.3047 0.5866 0.50619 0.0
H276 H 0.34073 0.5982 0.53907 0.0
H277 H 0.35491 0.63015 0.55692 0.0
H278 H 0.3504 0.60289 0.61576 0.0
H279 H 0.33538 0.57052 0.59756 0.0
N280 N 0.32312 0.54497 0.56356 0.0
N281 N 0.30253 0.53179 0.53382 0.0
N282 N 0.31521 0.56642 0.5368 0.0
C283 C 0.31202 0.5288 0.55267 0.0
C284 C 0.30403 0.55061 0.52582 0.0
C285 C 0.32479 0.56385 0.55558 0.0
C286 C 0.31083 0.50786 0.56071 0.0
C287 C 0.32347 0.50333 0.57808 0.0
C288 C 0.32326 0.48319 0.58466 0.0
C289 C 0.3103 0.46718 0.57412 0.0
C290 C 0.29724 0.47182 0.55716 0.0
C291 C 0.29753 0.49189 0.5505 0.0
C292 C 0.29416 0.55404 0.50514 0.0
C293 C 0.28307 0.53786 0.49284 0.0
C294 C 0.27472 0.54124 0.47295 0.0
C295 C 0.27727 0.56086 0.46499 0.0
C296 C 0.28801 0.57705 0.47748 0.0
C297 C 0.29628 0.57372 0.49726 0.0
C298 C 0.33654 0.5819 0.5669 0.0
C299 C 0.34293 0.59881 0.55582 0.0
C300 C 0.23881 0.51252 0.92968 0.0
C301 C 0.24217 0.51783 0.95102 0.0
C302 C 0.245 0.50199 0.96457 0.0
C303 C 0.24424 0.48124 0.95691 0.0
H304 H 0.23414 0.41807 0.97409 0.0
H305 H 0.23058 0.38767 -0.00531 0.0
H306 H 0.23579 0.34771 0.93971 0.0
H307 H 0.23904 0.3774 0.91937 0.0
H308 H 0.22922 0.39234 0.8773 0.0
H309 H 0.22704 0.3839 0.84034 0.0
H310 H 0.24487 0.44756 0.83004 0.0
H311 H 0.24639 0.45627 0.86735 0.0
H312 H 0.2356 0.4885 0.90546 0.0
H313 H 0.23687 0.52438 0.91881 0.0
H314 H 0.24751 0.50563 0.98111 0.0
H315 H 0.24637 0.4694 0.96775 0.0
N316 N 0.23915 0.43811 0.93985 0.0
N317 N 0.23782 0.41436 0.91096 0.0
N318 N 0.23984 0.44978 0.90621 0.0
C319 C 0.23806 0.41814 0.93177 0.0
C320 C 0.23872 0.42994 0.89806 0.0
C321 C 0.24006 0.45405 0.92707 0.0
C322 C 0.23669 0.40027 0.945 0.0
C323 C 0.23452 0.40277 0.96646 0.0
C324 C 0.2325 0.38539 0.97826 0.0
C325 C 0.23252 0.36527 0.96875 0.0
C326 C 0.23513 0.36293 0.94744 0.0
C327 C 0.23715 0.3801 0.93577 0.0
C328 C 0.23797 0.42502 0.87537 0.0
C329 C 0.23278 0.4046 0.86725 0.0
C330 C 0.23169 0.39969 0.84596 0.0
C331 C 0.23593 0.41499 0.83214 0.0
C332 C 0.24129 0.43542 0.84022 0.0
C333 C 0.24223 0.4404 0.86161 0.0
C334 C 0.24087 0.47595 0.93551 0.0
C335 C 0.23823 0.49189 0.92203 0.0
C336 C 0.70408 0.89454 0.43153 0.0
C337 C 0.70193 0.89314 0.40978 0.0
C338 C 0.6985 0.91121 0.39948 0.0
C339 C 0.69741 0.93025 0.41073 0.0
H340 H 0.67935 0.99193 0.40688 0.0
H341 H 0.67093 0.02396 0.39133 0.0
H342 H 0.68587 0.05798 0.45041 0.0
H343 H 0.69366 0.02621 0.46601 0.0
H344 H 0.69224 -0.00121 0.50739 0.0
H345 H 0.70017 -0.00097 0.54467 0.0
H346 H 0.73342 0.94383 0.53566 0.0
H347 H 0.72468 0.94309 0.49865 0.0
H348 H 0.70478 0.91374 0.45946 0.0
H349 H 0.70624 0.8809 0.44003 0.0
H350 H 0.69689 0.91069 0.38273 0.0
H351 H 0.69487 0.9439 0.40236 0.0
N352 N 0.69348 0.96902 0.43576 0.0
N353 N 0.69714 0.98759 0.46825 0.0
N354 N 0.70344 0.95247 0.46561 0.0
C355 C 0.69262 0.98713 0.44743 0.0
C356 C 0.70261 0.97033 0.47743 0.0
C357 C 0.69885 0.95157 0.44483 0.0
C358 C 0.68718 0.0064 0.43773 0.0
C359 C 0.68074 0.00624 0.41657 0.0
C360 C 0.67598 0.02462 0.40762 0.0
C361 C 0.6776 0.04357 0.41962 0.0
C362 C 0.68399 0.04366 0.44076 0.0
C363 C 0.68864 0.02535 0.4497 0.0
C364 C 0.70775 0.97088 0.50005 0.0
C365 C 0.70123 0.9867 0.5134 0.0
C366 C 0.70586 0.98688 0.53479 0.0
C367 C 0.71739 0.9714 0.54328 0.0
C368 C 0.7241 0.95574 0.52982 0.0
C369 C 0.71921 0.95539 0.50851 0.0
C370 C 0.69976 0.93159 0.43251 0.0
C371 C 0.70308 0.91346 0.44271 0.0
C372 C 0.71231 0.93309 0.058 0.0
C373 C 0.70725 0.92997 0.03661 0.0
C374 C 0.70387 0.94723 0.02507 0.0
C375 C 0.70488 0.96717 0.03491 0.0
H376 H 0.68668 0.02784 0.02766 0.0
H377 H 0.67639 0.05815 0.01012 0.0
H378 H 0.69685 0.09723 0.06499 0.0
H379 H 0.70652 0.06708 0.08266 0.0
H380 H 0.70529 0.04294 0.12665 0.0
H381 H 0.71388 0.04577 0.16407 0.0
H382 H 0.74512 0.98908 0.15893 0.0
H383 H 0.73649 0.98607 0.12166 0.0
H384 H 0.71717 0.95457 0.08435 0.0
H385 H 0.71527 0.92011 0.06724 0.0
H386 H 0.69983 0.94524 0.00856 0.0
H387 H 0.70179 0.98012 0.02567 0.0
N388 N 0.70387 0.00774 0.05719 0.0
N389 N 0.70884 0.02862 0.08828 0.0
N390 N 0.71499 -0.00653 0.08801 0.0
C391 C 0.70352 0.02662 0.06758 0.0
C392 C 0.71462 0.01213 0.09859 0.0
C393 C 0.70962 0.99106 0.06736 0.0
C394 C 0.69738 0.04494 0.05662 0.0
C395 C 0.68895 0.04289 0.03599 0.0
C396 C 0.68312 0.0603 0.02589 0.0
C397 C 0.68568 0.08016 0.03616 0.0
C398 C 0.69423 0.08216 0.05672 0.0
C399 C 0.69992 0.06481 0.06683 0.0
C400 C 0.72019 0.01427 0.12117 0.0
C401 C 0.71405 0.03112 0.13349 0.0
C402 C 0.71885 0.0327 0.1549 0.0
C403 C 0.73016 0.01765 0.16433 0.0
C404 C 0.73651 0.00097 0.15201 0.0
C405 C 0.73146 -0.00079 0.13068 0.0
C406 C 0.70946 0.97022 0.05645 0.0
C407 C 0.71347 0.95293 0.06778 0.0
C408 C 0.57565 0.32405 0.60044 0.0
C409 C 0.59712 0.32775 0.59956 0.0
C410 C 0.60615 0.32267 0.58093 0.0
C411 C 0.59392 0.31382 0.56361 0.0
H412 H 0.58857 0.30843 0.49804 0.0
H413 H 0.60052 0.30706 0.46324 0.0
H414 H 0.54861 0.26446 0.44198 0.0
H415 H 0.53648 0.26575 0.47687 0.0
H416 H 0.49299 0.27917 0.50669 0.0
H417 H 0.45703 0.27272 0.51496 0.0
H418 H 0.47768 0.26275 0.57806 0.0
H419 H 0.51335 0.26995 0.56999 0.0
H420 H 0.54705 0.31225 0.58475 0.0
H421 H 0.56826 0.32746 0.61465 0.0
H422 H 0.62267 0.3254 0.57981 0.0
H423 H 0.60131 0.30987 0.54954 0.0
N424 N 0.56632 0.29772 0.52765 0.0
N425 N 0.53437 0.28119 0.51466 0.0
N426 N 0.53994 0.29169 0.54993 0.0
C427 C 0.55393 0.28861 0.51141 0.0
C428 C 0.52737 0.28259 0.53397 0.0
C429 C 0.55938 0.29936 0.54696 0.0
C430 C 0.56151 0.28726 0.49031 0.0
C431 C 0.57972 0.29867 0.48603 0.0
C432 C 0.58656 0.29796 0.46604 0.0
C433 C 0.57553 0.28566 0.44987 0.0
C434 C 0.55754 0.27394 0.45417 0.0
C435 C 0.55054 0.27481 0.47414 0.0
C436 C 0.50595 0.27542 0.53778 0.0
C437 C 0.48981 0.27528 0.52222 0.0
C438 C 0.46921 0.27151 0.52696 0.0
C439 C 0.46443 0.26759 0.54729 0.0
C440 C 0.48075 0.2663 0.5624 0.0
C441 C 0.50123 0.27033 0.55775 0.0
C442 C 0.57248 0.30965 0.56473 0.0
C443 C 0.56352 0.31509 0.5833 0.0
C444 C 0.04769 0.6742 0.07235 0.0
C445 C 0.02877 0.68304 0.07513 0.0
C446 C 0.01919 0.69262 0.05848 0.0
C447 C 0.02874 0.69396 0.03976 0.0
H448 H 0.01956 0.70391 0.9746 0.0
H449 H 0.00339 0.71297 0.94152 0.0
H450 H 0.06242 0.7111 0.91451 0.0
H451 H 0.07855 0.70261 0.94725 0.0
H452 H 0.11789 0.69295 0.97173 0.0
H453 H 0.15549 0.69305 0.97484 0.0
H454 H 0.15368 0.68102 0.03947 0.0
H455 H 0.11609 0.68117 0.03655 0.0
H456 H 0.07198 0.66888 0.05247 0.0
H457 H 0.05525 0.66622 0.08459 0.0
H458 H 0.00464 0.69965 0.06013 0.0
H459 H 0.02128 0.7019 0.02743 0.0
N460 N 0.04969 0.69401 0.00055 0.0
N461 N 0.08127 0.69425 0.98476 0.0
N462 N 0.08011 0.68618 0.01928 0.0
C463 C 0.06059 0.69676 0.98354 0.0
C464 C 0.09116 0.68898 0.00253 0.0
C465 C 0.05943 0.68859 0.01849 0.0
C466 C 0.05039 0.70251 0.9637 0.0
C467 C 0.02909 0.70555 0.96163 0.0
C468 C 0.0198 0.71067 0.94264 0.0
C469 C 0.03163 0.71292 0.92537 0.0
C470 C 0.05289 0.70995 0.92755 0.0
C471 C 0.06213 0.70487 0.9464 0.0
C472 C 0.1139 0.68727 0.00394 0.0
C473 C 0.12544 0.69015 0.98659 0.0
C474 C 0.14702 0.69006 0.98831 0.0
C475 C 0.15755 0.68714 0.00743 0.0
C476 C 0.146 0.68357 0.0246 0.0
C477 C 0.12443 0.68359 0.02287 0.0
C478 C 0.0481 0.68583 0.03739 0.0
C479 C 0.05725 0.67565 0.05381 0.0
C480 C 0.96541 0.21795 0.38996 0.0
C481 C 0.98559 0.2274 0.39309 0.0
C482 C 0.99184 0.23752 0.41255 0.0
C483 C 0.97814 0.23846 0.42831 0.0
H484 H 0.9758 0.23947 0.49243 0.0
H485 H 0.98846 0.24482 0.52857 0.0
H486 H 0.92603 0.25114 0.54619 0.0
H487 H 0.91319 0.24598 0.50985 0.0
H488 H 0.87614 0.24692 0.47106 0.0
H489 H 0.83952 0.24502 0.45912 0.0
H490 H 0.85325 0.20995 0.40334 0.0
H491 H 0.88965 0.21257 0.41482 0.0
H492 H 0.93615 0.21191 0.40255 0.0
H493 H 0.96018 0.20959 0.37539 0.0
H494 H 0.00713 0.24523 0.41547 0.0
H495 H 0.98334 0.24668 0.44297 0.0
N496 N 0.94951 0.23601 0.46122 0.0
N497 N 0.91511 0.23642 0.47043 0.0
N498 N 0.92222 0.22958 0.43574 0.0
C499 C 0.93578 0.23829 0.47605 0.0
C500 C 0.90826 0.23203 0.45025 0.0
C501 C 0.94284 0.23165 0.44105 0.0
C502 C 0.94342 0.24222 0.49813 0.0
C503 C 0.96469 0.24206 0.50391 0.0
C504 C 0.97198 0.24499 0.52469 0.0
C505 C 0.95824 0.24826 0.54025 0.0
C506 C 0.93701 0.24878 0.53453 0.0
C507 C 0.92967 0.24572 0.5137 0.0
C508 C 0.88585 0.23004 0.44383 0.0
C509 C 0.87128 0.23878 0.45627 0.0
C510 C 0.85027 0.23764 0.44943 0.0
C511 C 0.84339 0.22754 0.43012 0.0
C512 C 0.85798 0.21837 0.41801 0.0
C513 C 0.87891 0.21973 0.42469 0.0
C514 C 0.9578 0.22957 0.42489 0.0
C515 C 0.95164 0.21916 0.4056 0.0
C516 C 0.42214 0.71248 0.87471 0.0
C517 C 0.40055 0.71326 0.87445 0.0
C518 C 0.39098 0.71266 0.89328 0.0
C519 C 0.40289 0.71201 0.91204 0.0
H520 H 0.40432 0.69237 0.97588 0.0
H521 H 0.38961 0.68924 0.00954 0.0
H522 H 0.44432 0.72209 0.03986 0.0
H523 H 0.45915 0.72506 0.00657 0.0
H524 H 0.50205 0.71695 0.97965 0.0
H525 H 0.53891 0.72674 0.97787 0.0
H526 H 0.527 0.74477 0.91548 0.0
H527 H 0.49036 0.73507 0.91711 0.0
H528 H 0.45061 0.71155 0.89279 0.0
H529 H 0.42996 0.71235 0.86045 0.0
H530 H 0.37436 0.71326 0.89358 0.0
H531 H 0.39516 0.71208 0.92635 0.0
N532 N 0.42946 0.70989 0.95036 0.0
N533 N 0.46248 0.71635 0.96762 0.0
N534 N 0.45835 0.71772 0.93167 0.0
C535 C 0.44182 0.71155 0.96829 0.0
C536 C 0.47085 0.71944 0.94933 0.0
C537 C 0.43772 0.71294 0.93195 0.0
C538 C 0.43289 0.70901 0.98851 0.0
C539 C 0.41322 0.69886 0.98974 0.0
C540 C 0.40484 0.69696 0.00896 0.0
C541 C 0.41582 0.70553 0.0272 0.0
C542 C 0.43549 0.71551 0.02598 0.0
C543 C 0.44399 0.71711 0.0069 0.0
C544 C 0.49322 0.72521 0.94852 0.0
C545 C 0.50729 0.72302 0.96556 0.0
C546 C 0.52839 0.72851 0.96453 0.0
C547 C 0.53576 0.73656 0.94656 0.0
C548 C 0.52171 0.7388 0.9296 0.0
C549 C 0.50072 0.73311 0.93052 0.0
C550 C 0.42459 0.71196 0.91227 0.0
C551 C 0.43398 0.71189 0.89333 0.0
C552 C 0.5981 0.57043 0.32692 0.0
C553 C 0.59805 0.59036 0.33667 0.0
C554 C 0.57907 0.5996 0.33787 0.0
C555 C 0.56054 0.58896 0.32953 0.0
H556 H 0.49415 0.58401 0.33108 0.0
H557 H 0.45926 0.59435 0.33663 0.0
H558 H 0.43385 0.54637 0.29121 0.0
H559 H 0.46852 0.53609 0.28551 0.0
H560 H 0.50137 0.49189 0.28998 0.0
H561 H 0.51026 0.45705 0.27881 0.0
H562 H 0.56694 0.48274 0.25621 0.0
H563 H 0.55843 0.51728 0.26812 0.0
H564 H 0.58078 0.54464 0.31115 0.0
H565 H 0.61244 0.56301 0.3252 0.0
H566 H 0.57856 0.61499 0.34526 0.0
H567 H 0.54615 0.59642 0.33063 0.0
N568 N 0.52245 0.56388 0.31308 0.0
N569 N 0.50744 0.53398 0.29393 0.0
N570 N 0.54341 0.53926 0.29905 0.0
C571 C 0.50524 0.55228 0.30482 0.0
C572 C 0.52654 0.52751 0.29088 0.0
C573 C 0.54165 0.55735 0.31024 0.0
C574 C 0.4842 0.55914 0.30791 0.0
C575 C 0.48115 0.57572 0.3222 0.0
C576 C 0.46116 0.58158 0.32547 0.0
C577 C 0.44384 0.57113 0.31437 0.0
C578 C 0.44691 0.55483 0.29985 0.0
C579 C 0.46682 0.54886 0.29671 0.0
C580 C 0.52939 0.5072 0.28024 0.0
C581 C 0.51548 0.49007 0.2822 0.0
C582 C 0.52057 0.47012 0.27575 0.0
C583 C 0.53955 0.46706 0.26702 0.0
C584 C 0.5525 0.48448 0.26343 0.0
C585 C 0.54758 0.50428 0.27014 0.0
C586 C 0.56077 0.56903 0.31964 0.0
C587 C 0.57982 0.55995 0.31858 0.0
C588 C 0.0699 0.06473 0.68064 0.0
C589 C 0.07288 0.04406 0.68481 0.0
C590 C 0.0564 0.03215 0.69229 0.0
C591 C 0.03769 0.04088 0.69605 0.0
H592 H 0.97174 0.02767 0.6991 0.0
H593 H 0.9375 0.00906 0.69723 0.0
H594 H 0.90937 0.06693 0.70798 0.0
H595 H 0.94313 0.08548 0.70987 0.0
H596 H 0.97125 0.12485 0.72622 0.0
H597 H 0.97362 0.16184 0.73598 0.0
H598 H 0.03383 0.16795 0.71151 0.0
H599 H 0.03157 0.13088 0.70163 0.0
H600 H 0.04983 0.08957 0.68158 0.0
H601 H 0.08195 0.07424 0.67431 0.0
H602 H 0.05815 0.01624 0.69586 0.0
H603 H 0.02548 0.03147 0.70226 0.0
N604 N -0.0021 0.06045 0.69917 0.0
N605 N 0.98196 0.09075 0.70875 0.0
N606 N 0.01708 0.09261 0.7025 0.0
C607 C 0.98064 0.06994 0.70434 0.0
C608 C 7e-05 0.10219 0.70792 0.0
C609 C 0.01618 0.07178 0.69817 0.0
C610 C 0.96026 0.05813 0.70445 0.0
C611 C 0.95827 0.03641 0.7012 0.0
C612 C 0.9387 0.02573 0.70023 0.0
C613 C 0.92081 0.0366 0.70228 0.0
C614 C 0.92288 0.05818 0.70607 0.0
C615 C 0.94232 0.0688 0.70722 0.0
C616 C 0.00126 0.12483 0.7132 0.0
C617 C 0.98498 0.13404 0.7228 0.0
C618 C 0.98635 0.15522 0.7285 0.0
C619 C 0.00393 0.16774 0.72456 0.0
C620 C 0.02004 0.15868 0.71459 0.0
C621 C 0.01877 0.13742 0.70907 0.0
C622 C 0.03516 0.06179 0.69267 0.0
C623 C 0.05139 0.07351 0.68469 0.0
C624 C 0.38454 0.9457 0.23199 0.0
C625 C 0.38908 0.96724 0.23288 0.0
C626 C 0.40994 0.97486 0.23382 0.0
C627 C 0.42584 0.9613 0.23451 0.0
H628 H 0.48522 0.95871 0.26053 0.0
H629 H 0.51987 0.97237 0.27283 0.0
H630 H 0.54292 0.91209 0.26093 0.0
H631 H 0.50815 0.89827 0.24836 0.0
H632 H 0.46548 0.8587 0.25213 0.0
H633 H 0.4549 0.82174 0.24501 0.0
H634 H 0.41021 0.83694 0.19709 0.0
H635 H 0.42027 0.8737 0.20445 0.0
H636 H 0.39628 0.91569 0.23213 0.0
H637 H 0.36871 0.93925 0.23162 0.0
H638 H 0.41403 0.99133 0.23413 0.0
H639 H 0.44173 0.9677 0.23552 0.0
N640 N 0.45745 0.9325 0.243 0.0
N641 N 0.46821 0.89859 0.24111 0.0
N642 N 0.43382 0.90483 0.23129 0.0
C643 C 0.47266 0.91923 0.24562 0.0
C644 C 0.4488 0.89135 0.23382 0.0
C645 C 0.43799 0.92541 0.2359 0.0
C646 C 0.49382 0.92735 0.25341 0.0
C647 C 0.4976 0.94828 0.26051 0.0
C648 C 0.51747 0.95612 0.26771 0.0
C649 C 0.5341 0.94329 0.2679 0.0
C650 C 0.53041 0.92238 0.26081 0.0
C651 C 0.51047 0.91446 0.25371 0.0
C652 C 0.44366 0.86903 0.22886 0.0
C653 C 0.45351 0.85409 0.24 0.0
C654 C 0.44741 0.83303 0.23604 0.0
C655 C 0.43179 0.82665 0.22053 0.0
C656 C 0.42235 0.84154 0.20907 0.0
C657 C 0.42807 0.86253 0.21334 0.0
C658 C 0.42125 0.93981 0.23402 0.0
C659 C 0.40041 0.93216 0.23243 0.0
C660 C 0.88119 0.42156 0.71879 0.0
C661 C 0.87911 0.39982 0.71768 0.0
C662 C 0.89677 0.38879 0.71454 0.0
C663 C 0.91598 0.39931 0.71235 0.0
H664 H 0.98251 0.39476 0.70751 0.0
H665 H 0.01315 0.37788 0.69767 0.0
H666 H 0.03199 0.43115 0.66472 0.0
H667 H 0.002 0.44844 0.67579 0.0
H668 H 0.98279 0.49388 0.69361 0.0
H669 H 0.9826 0.53156 0.69891 0.0
H670 H 0.93469 0.52422 0.74169 0.0
H671 H 0.93432 0.48697 0.73579 0.0
H672 H 0.90106 0.44878 0.71749 0.0
H673 H 0.86791 0.43063 0.72068 0.0
H674 H 0.89578 0.37203 0.7138 0.0
H675 H 0.92924 0.39038 0.70981 0.0
N676 N 0.95428 0.42272 0.70352 0.0
N677 N 0.97337 0.45475 0.70288 0.0
N678 N 0.93958 0.45349 0.71361 0.0
C679 C 0.97205 0.43374 0.69974 0.0
C680 C 0.95719 0.46468 0.71005 0.0
C681 C 0.93787 0.43259 0.71029 0.0
C682 C 0.98996 0.42298 0.69256 0.0
C683 C -0.0068 0.4028 0.6981 0.0
C684 C 0.01074 0.39306 0.69229 0.0
C685 C 0.02526 0.40309 0.6804 0.0
C686 C 0.02154 0.42306 0.6743 0.0
C687 C 0.00425 0.43297 0.68053 0.0
C688 C 0.95839 0.48745 0.71407 0.0
C689 C 0.97228 0.50039 0.70418 0.0
C690 C 0.97222 0.52197 0.70728 0.0
C691 C 0.95841 0.53097 0.7205 0.0
C692 C 0.9451 0.5179 0.73092 0.0
C693 C 0.94498 0.49647 0.72763 0.0
C694 C 0.91792 0.42107 0.71335 0.0
C695 C 0.9003 0.43202 0.71678 0.0
C696 C 0.65779 0.35519 0.45808 0.0
C697 C 0.6486 0.35299 0.43781 0.0
C698 C 0.64247 0.37076 0.42831 0.0
C699 C 0.64498 0.39028 0.43924 0.0
H700 H 0.64215 0.45639 0.43626 0.0
H701 H 0.64237 0.48977 0.42069 0.0
H702 H 0.66702 0.5204 0.47891 0.0
H703 H 0.66686 0.48726 0.49452 0.0
H704 H 0.64915 0.45444 0.53771 0.0
H705 H 0.65367 0.44874 0.57473 0.0
H706 H 0.69031 0.39699 0.56037 0.0
H707 H 0.68497 0.4021 0.52378 0.0
H708 H 0.66733 0.37528 0.48455 0.0
H709 H 0.66324 0.34194 0.46566 0.0
H710 H 0.63538 0.3695 0.41266 0.0
H711 H 0.63977 0.40367 0.43177 0.0
N712 N 0.65339 0.43072 0.46383 0.0
N713 N 0.65956 0.44818 0.49689 0.0
N714 N 0.6598 0.41213 0.49311 0.0
C715 C 0.65551 0.44879 0.47602 0.0
C716 C 0.66174 0.42982 0.50545 0.0
C717 C 0.65554 0.41228 0.4724 0.0
C718 C 0.65454 0.46906 0.46665 0.0
C719 C 0.64754 0.47024 0.44578 0.0
C720 C 0.64757 0.48936 0.43686 0.0
C721 C 0.65484 0.50767 0.44855 0.0
C722 C 0.66157 0.50652 0.46945 0.0
C723 C 0.66134 0.48749 0.47842 0.0
C724 C 0.66646 0.42854 0.5279 0.0
C725 C 0.65829 0.44199 0.54261 0.0
C726 C 0.6609 0.43871 0.56378 0.0
C727 C 0.67196 0.42209 0.57055 0.0
C728 C 0.68106 0.40946 0.55576 0.0
C729 C 0.67817 0.41251 0.53474 0.0
C730 C 0.65366 0.39225 0.4598 0.0
C731 C 0.66024 0.37446 0.4689 0.0
C732 C 0.74946 0.62322 0.05917 0.0
C733 C 0.75258 0.62058 0.03794 0.0
C734 C 0.75508 0.6005 0.02932 0.0
C735 C 0.75448 0.58352 0.04168 0.0
H736 H 0.75065 0.51834 0.04051 0.0
H737 H 0.74129 0.48363 0.02495 0.0
H738 H 0.72541 0.4636 0.08457 0.0
H739 H 0.73542 0.49812 0.10027 0.0
H740 H 0.77272 0.5379 0.14041 0.0
H741 H 0.77756 0.54944 0.17716 0.0
H742 H 0.73517 0.59726 0.16687 0.0
H743 H 0.73172 0.5866 0.13019 0.0
H744 H 0.74647 0.60917 0.08774 0.0
H745 H 0.74692 0.63831 0.0663 0.0
H746 H 0.75767 0.5979 0.01306 0.0
H747 H 0.7565 0.56828 0.0346 0.0
N748 N 0.74877 0.54874 0.06822 0.0
N749 N 0.74903 0.53674 0.10174 0.0
N750 N 0.75181 0.57235 0.09723 0.0
C751 C 0.74772 0.53269 0.08079 0.0
C752 C 0.75107 0.5566 0.10998 0.0
C753 C 0.75085 0.56864 0.07638 0.0
C754 C 0.74368 0.51112 0.07165 0.0
C755 C 0.74533 0.50651 0.05037 0.0
C756 C 0.73983 0.48659 0.04139 0.0
C757 C 0.73236 0.4708 0.05342 0.0
C758 C 0.7313 0.47527 0.07483 0.0
C759 C 0.73697 0.49515 0.08385 0.0
C760 C 0.75202 0.56151 0.13254 0.0
C761 C 0.76438 0.55077 0.14618 0.0
C762 C 0.76707 0.55739 0.16725 0.0
C763 C 0.75704 0.57458 0.17511 0.0
C764 C 0.74378 0.58448 0.16143 0.0
C765 C 0.74157 0.57823 0.14039 0.0
C766 C 0.75149 0.58631 0.06293 0.0
C767 C 0.74904 0.60639 0.07149 0.0
C768 C 0.23934 0.10919 0.54778 0.0
C769 C 0.25531 0.11531 0.56305 0.0
C770 C 0.2684 0.1003 0.57005 0.0
C771 C 0.26643 0.08004 0.56094 0.0
H772 H 0.27599 0.01424 0.56723 0.0
H773 H 0.28272 0.9815 0.58251 0.0
H774 H 0.25919 0.94789 0.52542 0.0
H775 H 0.25259 0.98029 0.51007 0.0
H776 H 0.26113 0.0103 0.46842 0.0
H777 H 0.25983 0.01462 0.43125 0.0
H778 H 0.22723 0.07014 0.44057 0.0
H779 H 0.22905 0.06619 0.47764 0.0
H780 H 0.22576 0.08522 0.52605 0.0
H781 H 0.22858 0.12013 0.54245 0.0
H782 H 0.28093 0.10446 0.58172 0.0
H783 H 0.2774 0.0691 0.56583 0.0
N784 N 0.25764 0.03726 0.54044 0.0
N785 N 0.25424 0.01969 0.50741 0.0
N786 N 0.24744 0.05464 0.5112 0.0
C787 C 0.25854 0.0195 0.52823 0.0
C788 C 0.24872 0.03724 0.49879 0.0
C789 C 0.25189 0.05484 0.53193 0.0
C790 C 0.26365 -8e-05 0.53744 0.0
C791 C 0.27235 -0.00013 0.5579 0.0
C792 C 0.27631 0.98118 0.56663 0.0
C793 C 0.27134 0.96222 0.55517 0.0
C794 C 0.26298 0.9623 0.53466 0.0
C795 C 0.25929 0.9809 0.52585 0.0
C796 C 0.24546 0.03806 0.47604 0.0
C797 C 0.25344 0.02327 0.46249 0.0
C798 C 0.25263 0.02572 0.44116 0.0
C799 C 0.24369 0.04291 0.43295 0.0
C800 C 0.2347 0.05701 0.44642 0.0
C801 C 0.23565 0.05467 0.4677 0.0
C802 C 0.25153 0.07457 0.54451 0.0
C803 C 0.23762 0.08914 0.53848 0.0
C804 C 0.28963 0.89974 0.93777 0.0
C805 C 0.29786 0.89964 0.95837 0.0
C806 C 0.30158 0.91866 0.97014 0.0
C807 C 0.29762 0.93731 0.96134 0.0
H808 H 0.2866 0.00073 0.97509 0.0
H809 H 0.28243 0.03351 -0.00533 0.0
H810 H 0.27272 0.06318 0.93739 0.0
H811 H 0.27659 0.03072 0.91789 0.0
H812 H 0.30435 0.00272 0.87722 0.0
H813 H 0.30281 0.00348 0.83971 0.0
H814 H 0.26015 0.94896 0.83438 0.0
H815 H 0.26339 0.94738 0.87185 0.0
H816 H 0.27978 0.91773 0.91295 0.0
H817 H 0.28606 0.8854 0.92838 0.0
H818 H 0.30808 0.91921 0.98599 0.0
H819 H 0.30107 0.9517 0.97068 0.0
N820 N 0.28617 0.97517 0.94205 0.0
N821 N 0.28365 0.99294 0.91166 0.0
N822 N 0.28626 0.95705 0.90951 0.0
C823 C 0.28415 0.9932 0.93265 0.0
C824 C 0.28466 0.97498 0.90005 0.0
C825 C 0.28725 0.95702 0.93052 0.0
C826 C 0.28196 0.013 0.94488 0.0
C827 C 0.28354 0.01423 0.96668 0.0
C828 C 0.28119 0.03302 0.97791 0.0
C829 C 0.27707 0.0509 0.96758 0.0
C830 C 0.27549 0.04962 0.94583 0.0
C831 C 0.27792 0.03097 0.93464 0.0
C832 C 0.28394 0.97504 0.87732 0.0
C833 C 0.29482 0.99084 0.8679 0.0
C834 C 0.29373 0.99133 0.84636 0.0
C835 C 0.28111 0.97644 0.83373 0.0
C836 C 0.27036 0.96051 0.84335 0.0
C837 C 0.27203 0.95966 0.86488 0.0
C838 C 0.29003 0.93735 0.94053 0.0
C839 C 0.28589 0.91832 0.92895 0.0
C840 C 0.44941 0.64388 0.36319 0.0
C841 C 0.42881 0.63636 0.36454 0.0
C842 C 0.4225 0.63043 0.3838 0.0
C843 C 0.43651 0.63223 0.40135 0.0
H844 H 0.44289 0.62902 0.46648 0.0
H845 H 0.43081 0.63061 0.50134 0.0
H846 H 0.49055 0.65793 0.52565 0.0
H847 H 0.50271 0.65649 0.49086 0.0
H848 H 0.54285 0.63548 0.44315 0.0
H849 H 0.57677 0.64439 0.43019 0.0
H850 H 0.55079 0.69461 0.39867 0.0
H851 H 0.51704 0.68486 0.41063 0.0
H852 H 0.47898 0.65165 0.3787 0.0
H853 H 0.45476 0.64906 0.34878 0.0
H854 H 0.40677 0.62439 0.38532 0.0
H855 H 0.43121 0.62768 0.416 0.0
N856 N 0.46641 0.64024 0.43775 0.0
N857 N 0.50059 0.64947 0.45121 0.0
N858 N 0.49214 0.64873 0.4155 0.0
C859 C 0.48053 0.64367 0.45436 0.0
C860 C 0.50637 0.65199 0.43173 0.0
C861 C 0.4722 0.64268 0.41822 0.0
C862 C 0.47375 0.64275 0.47576 0.0
C863 C 0.45355 0.6352 0.47924 0.0
C864 C 0.44663 0.63601 0.49925 0.0
C865 C 0.45969 0.64452 0.5162 0.0
C866 C 0.48006 0.65152 0.51284 0.0
C867 C 0.48704 0.65056 0.49288 0.0
C868 C 0.52748 0.65946 0.42773 0.0
C869 C 0.54466 0.64861 0.43374 0.0
C870 C 0.56402 0.65373 0.42629 0.0
C871 C 0.56645 0.66995 0.41297 0.0
C872 C 0.5494 0.68159 0.40826 0.0
C873 C 0.53011 0.67622 0.41532 0.0
C874 C 0.45709 0.63993 0.3999 0.0
C875 C 0.46334 0.64554 0.38053 0.0
C876 C 0.92061 0.32303 0.91291 0.0
C877 C 0.94181 0.32938 0.91469 0.0
C878 C 0.95208 0.33209 0.93456 0.0
C879 C 0.94142 0.32835 0.95219 0.0
H880 H 0.95074 0.31775 0.01518 0.0
H881 H 0.96863 0.31301 0.04876 0.0
H882 H 0.90992 0.29849 0.07404 0.0
H883 H 0.89208 0.30293 0.04077 0.0
H884 H 0.85255 0.29635 0.01362 0.0
H885 H 0.81555 0.2877 0.01037 0.0
H886 H 0.8133 0.30286 0.94636 0.0
H887 H 0.85065 0.31109 0.94939 0.0
H888 H 0.89369 0.31438 0.92841 0.0
H889 H 0.91227 0.32041 0.89785 0.0
H890 H 0.96832 0.33723 0.93653 0.0
H891 H 0.94984 0.33056 0.96724 0.0
N892 N 0.91925 0.31677 0.98777 0.0
N893 N 0.88798 0.30842 0.00242 0.0
N894 N 0.88797 0.31366 0.96707 0.0
C895 C 0.90883 0.31222 0.00463 0.0
C896 C 0.8774 0.30913 0.98378 0.0
C897 C 0.90888 0.31754 0.96891 0.0
C898 C 0.91994 0.31057 0.02515 0.0
C899 C 0.94163 0.31363 0.02793 0.0
C900 C 0.9519 0.31102 0.04717 0.0
C901 C 0.94068 0.30521 0.06397 0.0
C902 C 0.91902 0.30262 0.0613 0.0
C903 C 0.90877 0.30528 0.04218 0.0
C904 C 0.85467 0.30443 0.98176 0.0
C905 C 0.84425 0.29794 -0.00118 0.0
C906 C 0.82294 0.29309 -0.00298 0.0
C907 C 0.81142 0.2947 0.97814 0.0
C908 C 0.82176 0.30128 0.96107 0.0
C909 C 0.84316 0.30609 0.96285 0.0
C910 C 0.92023 0.32193 0.95036 0.0
C911 C 0.90995 0.31943 0.93049 0.0
C912 C 0.06212 0.74984 0.60337 0.0
C913 C 0.0404 0.74774 0.60252 0.0
C914 C 0.0294 0.74523 0.58296 0.0
C915 C 0.03998 0.74502 0.56471 0.0
H916 H 0.03439 0.73493 0.49859 0.0
H917 H 0.01855 0.72838 0.46338 0.0
H918 H 0.07922 0.73005 0.43958 0.0
H919 H 0.09503 0.73693 0.47447 0.0
H920 H 0.1374 0.73593 0.51153 0.0
H921 H 0.17482 0.74414 0.51916 0.0
H922 H 0.16189 0.78899 0.56778 0.0
H923 H 0.12485 0.78049 0.56069 0.0
H924 H 0.08933 0.75135 0.58689 0.0
H925 H 0.07119 0.75119 0.61807 0.0
H926 H 0.01265 0.7436 0.58174 0.0
H927 H 0.03113 0.74315 0.54989 0.0
N928 N 0.06436 0.7421 0.52757 0.0
N929 N 0.09671 0.74637 0.51331 0.0
N930 N 0.09423 0.75225 0.54897 0.0
C931 C 0.0759 0.74165 0.51068 0.0
C932 C 0.10589 0.75181 0.53243 0.0
C933 C 0.07357 0.74728 0.54685 0.0
C934 C 0.06602 0.73661 0.48946 0.0
C935 C 0.04437 0.73383 0.48586 0.0
C936 C 0.03527 0.72999 0.46567 0.0
C937 C 0.0476 0.72885 0.44862 0.0
C938 C 0.06923 0.73124 0.45229 0.0
C939 C 0.07831 0.73507 0.4724 0.0
C940 C 0.1283 0.75755 0.53556 0.0
C941 C 0.14263 0.74764 0.52371 0.0
C942 C 0.16393 0.75223 0.52811 0.0
C943 C 0.17106 0.7672 0.544 0.0
C944 C 0.1567 0.77747 0.55539 0.0
C945 C 0.13555 0.77255 0.55137 0.0
C946 C 0.06174 0.74735 0.56572 0.0
C947 C 0.07259 0.74975 0.58532 0.0
C948 C 0.5416 0.23726 0.10077 0.0
C949 C 0.55462 0.25462 0.10828 0.0
C950 C 0.56132 0.26881 0.09412 0.0
C951 C 0.55377 0.26653 0.07328 0.0
H952 H 0.56529 0.26044 0.00334 0.0
H953 H 0.58024 0.26863 0.97095 0.0
H954 H 0.51887 0.27155 0.94173 0.0
H955 H 0.50391 0.26361 0.97391 0.0
H956 H 0.46547 0.23902 -0.00474 0.0
H957 H 0.42802 0.23307 -0.00362 0.0
H958 H 0.43432 0.24222 0.06317 0.0
H959 H 0.4715 0.2473 0.06212 0.0
H960 H 0.52282 0.22232 0.07514 0.0
H961 H 0.5366 0.22571 0.11109 0.0
H962 H 0.5713 0.28239 0.09938 0.0
H963 H 0.55806 0.27836 0.06299 0.0
N964 N 0.53598 0.25551 0.02882 0.0
N965 N 0.50318 0.2519 0.0107 0.0
N966 N 0.50637 0.24619 0.04595 0.0
C967 C 0.52402 0.25609 0.01078 0.0
C968 C 0.49426 0.24704 0.02827 0.0
C969 C 0.52713 0.25034 0.0464 0.0
C970 C 0.53338 0.26135 0.99131 0.0
C971 C 0.55498 0.2629 0.99004 0.0
C972 C 0.56355 0.26747 0.97145 0.0
C973 C 0.55072 0.27077 0.9538 0.0
C974 C 0.52917 0.26934 0.95512 0.0
C975 C 0.52061 0.26465 0.97359 0.0
C976 C 0.47151 0.24349 0.02859 0.0
C977 C 0.45882 0.23969 0.01017 0.0
C978 C 0.43734 0.2364 0.01081 0.0
C979 C 0.42811 0.23706 0.02988 0.0
C980 C 0.44087 0.24111 0.04823 0.0
C981 C 0.46226 0.24414 0.04761 0.0
C982 C 0.53925 0.25019 0.06642 0.0
C983 C 0.53383 0.2352 0.08015 0.0
C984 C 0.35377 0.46914 0.6495 0.0
C985 C 0.35215 0.44838 0.64174 0.0
C986 C 0.37024 0.43903 0.63637 0.0
C987 C 0.38951 0.4504 0.63858 0.0
H988 H 0.45519 0.44786 0.63808 0.0
H989 H 0.48758 0.43115 0.64239 0.0
H990 H 0.51765 0.48831 0.67062 0.0
H991 H 0.48547 0.50521 0.66572 0.0
H992 H 0.45234 0.55005 0.6437 0.0
H993 H 0.44529 0.58681 0.6484 0.0
H994 H 0.3938 0.57018 0.6845 0.0
H995 H 0.40035 0.53396 0.67922 0.0
H996 H 0.37318 0.49638 0.65769 0.0
H997 H 0.34031 0.47671 0.65433 0.0
H998 H 0.36947 0.42305 0.63028 0.0
H999 H 0.40318 0.44291 0.63423 0.0
N1000 N 0.42942 0.4754 0.64768 0.0
N1001 N 0.4468 0.50839 0.65479 0.0
N1002 N 0.41062 0.50465 0.65264 0.0
C1003 C 0.44747 0.48753 0.65085 0.0
C1004 C 0.42829 0.51695 0.65569 0.0
C1005 C 0.41089 0.48397 0.64854 0.0
C1006 C 0.46762 0.47787 0.65169 0.0
C1007 C 0.46874 0.45695 0.64502 0.0
C1008 C 0.48732 0.44731 0.64761 0.0
C1009 C 0.50521 0.45829 0.65707 0.0
C1010 C 0.50427 0.4794 0.66307 0.0
C1011 C 0.48573 0.48909 0.66034 0.0
C1012 C 0.42669 0.53922 0.66084 0.0
C1013 C 0.43972 0.55443 0.65283 0.0
C1014 C 0.43565 0.5754 0.65549 0.0
C1015 C 0.41862 0.58136 0.66635 0.0
C1016 C 0.40655 0.56611 0.67541 0.0
C1017 C 0.41042 0.54534 0.67254 0.0
C1018 C 0.39093 0.47129 0.64612 0.0
C1019 C 0.37279 0.48043 0.65156 0.0
C1020 C 0.90804 0.93339 0.32082 0.0
C1021 C 0.91022 0.95423 0.32855 0.0
C1022 C 0.9301 0.96301 0.33518 0.0
C1023 C 0.9474 0.9514 0.33374 0.0
H1024 H 0.0107 0.95845 0.33626 0.0
H1025 H 0.04378 0.97773 0.33402 0.0
H1026 H 0.06925 0.92247 0.30855 0.0
H1027 H 0.03638 0.90301 0.31138 0.0
H1028 H 0.00365 0.85821 0.33237 0.0
H1029 H 0.00139 0.82116 0.32321 0.0
H1030 H 0.94837 0.82827 0.28075 0.0
H1031 H 0.94981 0.865 0.29138 0.0
H1032 H 0.92314 0.9058 0.31324 0.0
H1033 H 0.893 0.92621 0.31534 0.0
H1034 H 0.93232 0.97888 0.34158 0.0
H1035 H 0.96245 0.95876 0.33892 0.0
N1036 N 0.98298 0.92855 0.32566 0.0
N1037 N -0.00198 0.89706 0.31951 0.0
N1038 N 0.96186 0.8978 0.31939 0.0
C1039 C 0.00016 0.91792 0.32347 0.0
C1040 C 0.97895 0.88693 0.31751 0.0
C1041 C 0.9638 0.91864 0.32372 0.0
C1042 C 0.0208 0.92919 0.32387 0.0
C1043 C 0.02339 0.95034 0.33036 0.0
C1044 C 0.04235 0.96144 0.32896 0.0
C1045 C 0.05913 0.95172 0.32089 0.0
C1046 C 0.05674 0.93042 0.31504 0.0
C1047 C 0.03782 0.91926 0.31658 0.0
C1048 C 0.97693 0.86439 0.31255 0.0
C1049 C 0.99141 0.85171 0.32125 0.0
C1050 C 0.99018 0.83047 0.31581 0.0
C1051 C 0.97483 0.8215 0.30098 0.0
C1052 C 0.96019 0.83433 0.29249 0.0
C1053 C 0.96106 0.85548 0.29845 0.0
C1054 C 0.94527 0.93065 0.32579 0.0
C1055 C 0.92536 0.92171 0.31952 0.0
C1056 C 0.47442 0.08681 0.74733 0.0
C1057 C 0.46927 0.06536 0.74623 0.0
C1058 C 0.48519 0.05197 0.7497 0.0
C1059 C 0.50577 0.05975 0.75338 0.0
H1060 H 0.56771 0.04134 0.75944 0.0
H1061 H 0.59623 0.0187 0.75615 0.0
H1062 H 0.63555 0.07054 0.73961 0.0
H1063 H 0.60759 0.09306 0.74364 0.0
H1064 H 0.59017 0.13726 0.74152 0.0
H1065 H 0.60187 0.17356 0.74614 0.0
H1066 H 0.55222 0.18462 0.78598 0.0
H1067 H 0.5398 0.14813 0.78025 0.0
H1068 H 0.49843 0.11119 0.75131 0.0
H1069 H 0.46262 0.09759 0.74454 0.0
H1070 H 0.48176 0.03539 0.7494 0.0
H1071 H 0.51761 0.04889 0.75559 0.0
N1072 N 0.5484 0.07593 0.75409 0.0
N1073 N 0.5732 0.10393 0.75652 0.0
N1074 N 0.53812 0.11001 0.75824 0.0
C1075 C 0.56853 0.08322 0.75442 0.0
C1076 C 0.55823 0.1174 0.75858 0.0
C1077 C 0.53306 0.08923 0.75587 0.0
C1078 C 0.58538 0.06905 0.75196 0.0
C1079 C 0.58248 0.04785 0.75514 0.0
C1080 C 0.59882 0.03487 0.75319 0.0
C1081 C 0.61833 0.0428 0.74784 0.0
C1082 C 0.621 0.06394 0.74434 0.0
C1083 C 0.60483 0.07688 0.7465 0.0
C1084 C 0.56417 0.13984 0.76065 0.0
C1085 C 0.58168 0.14746 0.7512 0.0
C1086 C 0.58852 0.1683 0.75405 0.0
C1087 C 0.57833 0.18208 0.76686 0.0
C1088 C 0.56044 0.17454 0.77594 0.0
C1089 C 0.55332 0.15364 0.77272 0.0
C1090 C 0.51101 0.08116 0.75382 0.0
C1091 C 0.49502 0.09462 0.75113 0.0
C1092 C 0.96238 0.50428 0.25698 0.0
C1093 C 0.96248 0.526 0.25873 0.0
C1094 C 0.98022 0.53766 0.25358 0.0
C1095 C -0.00245 0.52786 0.24722 0.0
H1096 H 0.06783 0.53043 0.25882 0.0
H1097 H 0.10412 0.5437 0.26277 0.0
H1098 H 0.11739 0.50316 0.2105 0.0
H1099 H 0.0815 0.48935 0.20729 0.0
H1100 H 0.06444 0.44181 0.24227 0.0
H1101 H 0.06482 0.40455 0.24121 0.0
H1102 H 0.00124 0.39888 0.21567 0.0
H1103 H 0.00059 0.4366 0.21819 0.0
H1104 H 0.97905 0.47772 0.24965 0.0
H1105 H 0.94913 0.49479 0.26109 0.0
H1106 H 0.98073 0.55441 0.2544 0.0
H1107 H 0.01096 0.53736 0.24353 0.0
N1108 N 0.03452 0.50688 0.23842 0.0
N1109 N 0.05057 0.47633 0.23031 0.0
N1110 N 0.01538 0.47467 0.23651 0.0
C1111 C 0.05168 0.49722 0.23342 0.0
C1112 C 0.03259 0.46494 0.23186 0.0
C1113 C 0.0162 0.49568 0.23977 0.0
C1114 C 0.072 0.50868 0.23295 0.0
C1115 C 0.07846 0.52477 0.24792 0.0
C1116 C 0.09925 0.53236 0.25014 0.0
C1117 C 0.11381 0.52416 0.23724 0.0
C1118 C 0.10677 0.50937 0.22112 0.0
C1119 C 0.08617 0.50157 0.21916 0.0
C1120 C 0.0325 0.44212 0.23025 0.0
C1121 C 0.05055 0.43262 0.23633 0.0
C1122 C 0.05081 0.41113 0.23551 0.0
C1123 C 0.03315 0.39845 0.22807 0.0
C1124 C 0.01508 0.40803 0.22175 0.0
C1125 C 0.0147 0.42965 0.22306 0.0
C1126 C -0.00246 0.50613 0.24574 0.0
C1127 C 0.97965 0.49447 0.25051 0.0
H1128 H 0.21038 0.52852 0.25806 0.0
H1129 H 0.20006 0.59227 0.27491 0.0
H1130 H 0.16337 0.5859 0.26363 0.0
H1131 H 0.1339 0.56174 0.25022 0.0
H1132 H 0.14469 0.49769 0.23507 0.0
H1133 H 0.18146 0.50483 0.24408 0.0
C1134 C 0.20017 0.5411 0.25915 0.0
C1135 C 0.20797 0.56081 0.26738 0.0
C1136 C 0.1791 0.53729 0.25287 0.0
C1137 C 0.19447 0.57691 0.26867 0.0
C1138 C 0.17346 0.57327 0.26225 0.0
C1139 C 0.14429 0.54935 0.24891 0.0
C1140 C 0.13642 0.52924 0.24179 0.0
C1141 C 0.16555 0.55344 0.25456 0.0
C1142 C 0.15023 0.51343 0.24003 0.0
C1143 C 0.17131 0.51743 0.24539 0.0
H1144 H 0.26974 0.3931 0.6492 0.0
H1145 H 0.24361 0.4479 0.6271 0.0
H1146 H 0.27819 0.46318 0.62269 0.0
H1147 H 0.31562 0.46236 0.62798 0.0
H1148 H 0.3423 0.40834 0.65105 0.0
H1149 H 0.30767 0.39116 0.65172 0.0
C1150 C 0.2716 0.40828 0.64318 0.0
C1151 C 0.25411 0.41948 0.63879 0.0
C1152 C 0.29159 0.41718 0.64102 0.0
C1153 C 0.25679 0.43904 0.63082 0.0
C1154 C 0.27657 0.44785 0.62839 0.0
C1155 C 0.31391 0.44686 0.63327 0.0
C1156 C 0.33152 0.43682 0.63983 0.0
C1157 C 0.29404 0.43731 0.63401 0.0
C1158 C 0.32902 0.41644 0.64593 0.0
C1159 C 0.30921 0.40668 0.64648 0.0
H1160 H 0.68359 0.97837 0.72429 0.0
H1161 H 0.72572 0.02936 0.74918 0.0
H1162 H 0.69656 0.04892 0.75908 0.0
H1163 H 0.65924 0.05236 0.75887 0.0
H1164 H 0.61693 0.00262 0.73135 0.0
H1165 H 0.646 0.98156 0.72485 0.0
C1166 C 0.68638 -0.00633 0.73211 0.0
C1167 C 0.70679 0.00242 0.73595 0.0
C1168 C 0.66951 0.00506 0.73729 0.0
C1169 C 0.71016 0.02232 0.74595 0.0
C1170 C 0.6935 0.03351 0.75161 0.0
C1171 C 0.65632 0.03696 0.75131 0.0
C1172 C 0.63586 0.02924 0.74543 0.0
C1173 C 0.67312 0.02519 0.747 0.0
C1174 C 0.63244 0.00898 0.73622 0.0
C1175 C 0.64909 -0.00304 0.73232 0.0
H1176 H 0.84172 0.01922 0.32662 0.0
H1177 H 0.80454 0.96679 0.34488 0.0
H1178 H 0.83459 0.94592 0.34479 0.0
H1179 H 0.87138 0.94251 0.33925 0.0
H1180 H 0.90796 -0.00537 0.3194 0.0
H1181 H 0.87825 0.01571 0.32069 0.0
C1182 C 0.8402 0.00326 0.33069 0.0
C1183 C 0.82092 -0.0054 0.33579 0.0
C1184 C 0.85745 0.99128 0.33036 0.0
C1185 C 0.8192 0.97384 0.34088 0.0
C1186 C 0.83637 0.96189 0.34082 0.0
C1187 C 0.87282 0.95842 0.33502 0.0
C1188 C 0.89195 0.96694 0.32932 0.0
C1189 C 0.85555 0.97041 0.33547 0.0
C1190 C 0.89356 0.98771 0.32419 0.0
C1191 C 0.87653 -0.00023 0.32478 0.0
H1192 H 0.2823 0.20513 0.60349 0.0
H1193 H 0.2665 0.22052 0.54082 0.0
H1194 H 0.25548 0.18443 0.5311 0.0
H1195 H 0.25261 0.14837 0.5396 0.0
H1196 H 0.26777 0.13242 0.60218 0.0
H1197 H 0.27707 0.1689 0.61262 0.0
C1198 C 0.27625 0.20063 0.58776 0.0
C1199 C 0.27535 0.21554 0.57289 0.0
C1200 C 0.27005 0.17974 0.58218 0.0
C1201 C 0.26745 0.20941 0.55258 0.0
C1202 C 0.26117 0.18874 0.54697 0.0
C1203 C 0.25748 0.15283 0.55567 0.0
C1204 C 0.25943 0.13758 0.57007 0.0
C1205 C 0.2627 0.17376 0.56156 0.0
C1206 C 0.26632 0.14375 0.59069 0.0
C1207 C 0.27156 0.16463 0.59669 0.0
H1208 H 0.32038 0.81 0.98107 0.0
H1209 H 0.30013 0.83177 0.04018 0.0
H1210 H 0.29379 0.86529 0.0267 0.0
H1211 H 0.29275 0.88798 -0.00231 0.0
H1212 H 0.31443 0.86648 0.93906 0.0
H1213 H 0.32115 0.83327 0.95274 0.0
C1214 C 0.31464 0.82209 0.99104 0.0
C1215 C 0.31065 0.81832 0.01157 0.0
C1216 C 0.3111 0.84136 0.98322 0.0
C1217 C 0.30335 0.83423 0.02431 0.0
C1218 C 0.29966 0.85341 0.0166 0.0
C1219 C 0.2992 0.87616 0.98796 0.0
C1220 C 0.3028 0.87974 0.96726 0.0
C1221 C 0.30334 0.8571 -0.00398 0.0
C1222 C 0.311 0.86406 0.95489 0.0
C1223 C 0.31502 0.84507 0.96274 0.0
H1224 H 0.64474 0.25804 0.41133 0.0
H1225 H 0.66772 0.28128 0.35567 0.0
H1226 H 0.66296 0.31673 0.36871 0.0
H1227 H 0.65659 0.34129 0.39798 0.0
H1228 H 0.63443 0.31748 0.4537 0.0
H1229 H 0.63459 0.28218 0.43861 0.0
C1230 C 0.64849 0.27081 0.4019 0.0
C1231 C 0.65697 0.26702 0.38275 0.0
C1232 C 0.6462 0.29113 0.40968 0.0
C1233 C 0.66139 0.28376 0.37061 0.0
C1234 C 0.65879 0.30407 0.3781 0.0
C1235 C 0.65144 0.32838 0.40663 0.0
C1236 C 0.64577 0.332 0.42705 0.0
C1237 C 0.65187 0.30798 0.39793 0.0
C1238 C 0.63917 0.31508 0.43808 0.0
C1239 C 0.63929 0.29488 0.42948 0.0
H1240 H 0.74928 0.70748 -0.0001 0.0
H1241 H 0.71733 0.66981 0.94901 0.0
H1242 H 0.72395 0.63853 0.96679 0.0
H1243 H 0.73585 0.62226 -0.00171 0.0
H1244 H 0.76921 0.65996 0.04844 0.0
H1245 H 0.76489 0.6908 0.02947 0.0
C1246 C 0.74397 0.6924 0.99261 0.0
C1247 C 0.73263 0.69098 0.9733 0.0
C1248 C 0.74786 0.67449 0.00288 0.0
C1249 C 0.72608 0.67133 0.9639 0.0
C1250 C 0.72977 0.65343 0.9741 0.0
C1251 C 0.74259 0.63713 0.00491 0.0
C1252 C 0.75245 0.63876 0.025 0.0
C1253 C 0.74025 0.65486 0.99381 0.0
C1254 C 0.761 0.65826 0.03329 0.0
C1255 C 0.75865 0.67594 0.0224 0.0
H1256 H 0.55631 0.27264 0.20513 0.0
H1257 H 0.61882 0.29547 0.19631 0.0
H1258 H 0.61375 0.28495 0.15934 0.0
H1259 H 0.59092 0.2705 0.12918 0.0
H1260 H 0.52806 0.24902 0.13857 0.0
H1261 H 0.53407 0.25749 0.17558 0.0
C1262 C 0.56891 0.2752 0.19519 0.0
C1263 C 0.58788 0.2849 0.20349 0.0
C1264 C 0.56584 0.26931 0.17396 0.0
C1265 C 0.60402 0.28805 0.19033 0.0
C1266 C 0.60112 0.28208 0.16916 0.0
C1267 C 0.57856 0.26768 0.13933 0.0
C1268 C 0.55913 0.25896 0.13101 0.0
C1269 C 0.58199 0.27293 0.16074 0.0
C1270 C 0.54333 0.25528 0.14448 0.0
C1271 C 0.54666 0.2603 0.1657 0.0
H1272 H 0.97551 0.34473 0.82727 0.0
H1273 H 0.02863 0.31744 0.85509 0.0
H1274 H 0.01153 0.31495 0.88738 0.0
H1275 H 0.98086 0.31899 0.90715 0.0
H1276 H 0.9282 0.3473 0.87964 0.0
H1277 H 0.9457 0.35069 0.84775 0.0
C1278 C 0.98339 0.33832 0.84042 0.0
C1279 C 0.00327 0.33118 0.83871 0.0
C1280 C 0.9735 0.33696 0.85896 0.0
C1281 C 0.01331 0.32305 0.85596 0.0
C1282 C 0.00353 0.32157 0.87444 0.0
C1283 C 0.97332 0.32622 0.89432 0.0
C1284 C 0.95314 0.3327 0.8958 0.0
C1285 C 0.98355 0.32831 0.87605 0.0
C1286 C 0.94355 0.34178 0.87885 0.0
C1287 C 0.9536 0.34385 0.86062 0.0
H1288 H 0.36073 0.64913 0.29336 0.0
H1289 H 0.40942 0.6293 0.25593 0.0
H1290 H 0.43042 0.62264 0.28705 0.0
H1291 H 0.43615 0.62518 0.32471 0.0
H1292 H 0.38818 0.64608 0.36245 0.0
H1293 H 0.36549 0.649 0.33134 0.0
C1294 C 0.37583 0.64311 0.29199 0.0
C1295 C 0.3836 0.64001 0.27233 0.0
C1296 C 0.38801 0.63962 0.30998 0.0
C1297 C 0.40312 0.63201 0.27084 0.0
C1298 C 0.41521 0.62832 0.28864 0.0
C1299 C 0.42078 0.63051 0.32618 0.0
C1300 C 0.41406 0.63574 0.34592 0.0
C1301 C 0.40803 0.6326 0.30827 0.0
C1302 C 0.39379 0.64188 0.3475 0.0
C1303 C 0.38086 0.64375 0.32969 0.0
H1304 H 0.01564 0.74798 0.69481 0.0
H1305 H 0.97036 0.70077 0.66783 0.0
H1306 H 0.98142 0.7069 0.63325 0.0
H1307 H 0.00649 0.72325 0.61121 0.0
H1308 H 0.05034 0.7719 0.63828 0.0
H1309 H 0.03725 0.76766 0.6722 0.0
C1310 C 0.00804 0.73922 0.68132 0.0
C1311 C 0.99242 0.72378 0.68386 0.0
C1312 C 0.01435 0.74294 0.6615 0.0
C1313 C 0.98247 0.71274 0.66626 0.0
C1314 C 0.98885 0.71617 0.64649 0.0
C1315 C 0.01287 0.73326 0.62441 0.0
C1316 C 0.02977 0.74749 0.62221 0.0
C1317 C 0.00511 0.73091 0.64397 0.0
C1318 C 0.03777 0.76034 0.63958 0.0
C1319 C 0.03024 0.75802 0.65902 0.0
H1320 H 0.79175 0.35008 0.70583 0.0
H1321 H 0.77749 0.39783 0.75108 0.0
H1322 H 0.81363 0.41126 0.75412 0.0
H1323 H 0.84875 0.41065 0.74259 0.0
H1324 H 0.86257 0.36459 0.69541 0.0
H1325 H 0.82732 0.34892 0.69497 0.0
C1326 C 0.79659 0.36331 0.7165 0.0
C1327 C 0.78191 0.37299 0.72814 0.0
C1328 C 0.81734 0.37122 0.71788 0.0
C1329 C 0.78843 0.39016 0.74184 0.0
C1330 C 0.8091 0.39785 0.7436 0.0
C1331 C 0.84407 0.39724 0.73212 0.0
C1332 C 0.85833 0.38898 0.71892 0.0
C1333 C 0.8236 0.38872 0.73144 0.0
C1334 C 0.85206 0.37122 0.70589 0.0
C1335 C 0.83182 0.36235 0.70547 0.0
H1336 H 0.68386 0.64137 0.34355 0.0
H1337 H 0.70291 0.58415 0.36696 0.0
H1338 H 0.66685 0.57152 0.36784 0.0
H1339 H 0.63033 0.57486 0.35791 0.0
H1340 H 0.61106 0.63082 0.33213 0.0
H1341 H 0.64659 0.64622 0.33728 0.0
C1342 C 0.68012 0.62626 0.34914 0.0
C1343 C 0.6961 0.61356 0.35477 0.0
C1344 C 0.65927 0.61889 0.34926 0.0
C1345 C 0.69096 0.59414 0.36223 0.0
C1346 C 0.67032 0.58687 0.36271 0.0
C1347 C 0.63387 0.59049 0.35353 0.0
C1348 C 0.61817 0.60147 0.34416 0.0
C1349 C 0.65441 0.59882 0.35561 0.0
C1350 C 0.62285 0.62197 0.33928 0.0
C1351 C 0.64323 0.63069 0.34198 0.0
H1352 H 0.30693 0.01449 0.23393 0.0
H1353 H 0.3461 0.05635 0.27622 0.0
H1354 H 0.37542 0.03537 0.2707 0.0
H1355 H 0.38924 0.00396 0.25579 0.0
H1356 H 0.3506 0.96285 0.21225 0.0
H1357 H 0.3217 0.98464 0.21657 0.0
C1358 C 0.32192 0.01909 0.24183 0.0
C1359 C 0.32428 0.03685 0.25559 0.0
C1360 C 0.33875 0.00701 0.23853 0.0
C1361 C 0.34385 0.04274 0.26555 0.0
C1362 C 0.36062 0.03072 0.26246 0.0
C1363 C 0.37467 -6e-05 0.24687 0.0
C1364 C 0.37212 0.98161 0.23388 0.0
C1365 C 0.35817 0.01267 0.24921 0.0
C1366 C 0.35293 0.97659 0.22272 0.0
C1367 C 0.3364 0.98912 0.22508 0.0
H1368 H 0.15241 -0.00502 0.66875 0.0
H1369 H 0.18242 0.05482 0.68892 0.0
H1370 H 0.14886 0.06868 0.69355 0.0
H1371 H 0.1112 0.06376 0.69258 0.0
H1372 H 0.08068 0.0046 0.67071 0.0
H1373 H 0.11427 0.99044 0.6665 0.0
C1374 C 0.1516 0.01106 0.67413 0.0
C1375 C 0.16994 0.02382 0.67851 0.0
C1376 C 0.13218 0.01902 0.67661 0.0
C1377 C 0.16859 0.04465 0.68538 0.0
C1378 C 0.14938 0.05259 0.68808 0.0
C1379 C 0.11178 0.04785 0.68655 0.0
C1380 C 0.09331 0.03534 0.68193 0.0
C1381 C 0.1311 0.03992 0.68377 0.0
C1382 C 0.09457 0.01458 0.67467 0.0
C1383 C 0.1138 0.00649 0.6721 0.0
H1384 H 0.69038 0.80739 0.35687 0.0
H1385 H 0.73963 0.79328 0.4007 0.0
H1386 H 0.74149 0.82872 0.41601 0.0
H1387 H 0.72823 0.8632 0.418 0.0
H1388 H 0.67784 0.87709 0.37545 0.0
H1389 H 0.67771 0.84244 0.35828 0.0
C1390 C 0.70161 0.8121 0.36968 0.0
C1391 C 0.71477 0.79764 0.37768 0.0
C1392 C 0.70245 0.83249 0.37862 0.0
C1393 C 0.72924 0.80403 0.3943 0.0
C1394 C 0.73033 0.82431 0.40307 0.0
C1395 C 0.71713 0.85864 0.40503 0.0
C1396 C 0.70294 0.87272 0.39818 0.0
C1397 C 0.71682 0.83857 0.39555 0.0
C1398 C 0.68905 0.86668 0.38099 0.0
C1399 C 0.68885 0.84679 0.37126 0.0
H1400 H 0.67059 0.15535 0.98067 0.0
H1401 H 0.64854 0.18056 0.03773 0.0
H1402 H 0.65467 0.14838 0.05397 0.0
H1403 H 0.66724 0.11353 0.05236 0.0
H1404 H 0.69091 0.08884 -0.0041 0.0
H1405 H 0.68277 0.12017 0.97894 0.0
C1406 C 0.667 0.15376 -0.00338 0.0
C1407 C 0.65916 0.17039 0.00796 0.0
C1408 C 0.67081 0.13528 0.00597 0.0
C1409 C 0.65466 0.16807 0.02864 0.0
C1410 C 0.65816 0.14965 0.03796 0.0
C1411 C 0.67077 0.11503 0.03639 0.0
C1412 C 0.67979 0.09883 0.0255 0.0
C1413 C 0.66644 0.13325 0.02685 0.0
C1414 C 0.68378 0.10092 0.00463 0.0
C1415 C 0.67928 0.11892 -0.00505 0.0
H1416 H 0.3705 0.71469 0.60724 0.0
H1417 H 0.32544 0.70263 0.65184 0.0
H1418 H 0.32717 0.66547 0.6446 0.0
H1419 H 0.33764 0.63676 0.62205 0.0
H1420 H 0.3822 0.64894 0.57696 0.0
H1421 H 0.38464 0.68562 0.58814 0.0
C1422 C 0.36142 0.70393 0.61574 0.0
C1423 C 0.34758 0.71144 0.62976 0.0
C1424 C 0.36231 0.68255 0.61134 0.0
C1425 C 0.33612 0.69729 0.64084 0.0
C1426 C 0.33708 0.67599 0.63669 0.0
C1427 C 0.34843 0.64727 0.61513 0.0
C1428 C 0.35938 0.64009 0.59836 0.0
C1429 C 0.3496 0.66846 0.62148 0.0
C1430 C 0.37318 0.65408 0.58955 0.0
C1431 C 0.37459 0.6751 0.59592 0.0
H1432 H 0.22406 0.27541 -0.00036 0.0
H1433 H 0.26556 0.30383 0.04952 0.0
H1434 H 0.26261 0.33766 0.03533 0.0
H1435 H 0.25099 0.35846 0.00665 0.0
H1436 H 0.20878 0.32976 0.95741 0.0
H1437 H 0.20918 0.29684 0.97351 0.0
C1438 C 0.23228 0.28904 0.00753 0.0
C1439 C 0.2452 0.28708 0.02543 0.0
C1440 C 0.23051 0.3084 -0.00069 0.0
C1441 C 0.25554 0.30493 0.03566 0.0
C1442 C 0.25393 0.32427 0.02751 0.0
C1443 C 0.24154 0.34512 -0.0003 0.0
C1444 C 0.23022 0.34648 0.98063 0.0
C1445 C 0.24183 0.32612 0.00906 0.0
C1446 C 0.21804 0.32901 0.97183 0.0
C1447 C 0.2182 0.31017 0.98104 0.0
H1448 H 0.34356 0.70569 0.79108 0.0
H1449 H 0.39148 0.74934 0.77396 0.0
H1450 H 0.40823 0.75029 0.8088 0.0
H1451 H 0.41029 0.73755 0.84349 0.0
H1452 H 0.36343 0.69282 0.86057 0.0
H1453 H 0.34499 0.69382 0.82652 0.0
C1454 C 0.35757 0.71554 0.79503 0.0
C1455 C 0.36631 0.72734 0.77988 0.0
C1456 C 0.36731 0.71582 0.81507 0.0
C1457 C 0.38448 0.74002 0.78526 0.0
C1458 C 0.39408 0.74058 0.80519 0.0
C1459 C 0.39608 0.72793 0.83975 0.0
C1460 C 0.38838 0.71494 0.85447 0.0
C1461 C 0.38582 0.7283 0.82009 0.0
C1462 C 0.36966 0.70301 0.84956 0.0
C1463 C 0.35919 0.70348 0.83004 0.0
H1464 H 0.00545 0.68052 0.16806 0.0
H1465 H 0.94411 0.6684 0.1382 0.0
H1466 H 0.95807 0.67122 0.10428 0.0
H1467 H 0.98799 0.67613 0.08301 0.0
H1468 H 0.04903 0.68934 0.11341 0.0
H1469 H 0.03489 0.68694 0.14709 0.0
C1470 C -0.0049 0.6785 0.15414 0.0
C1471 C 0.97378 0.67414 0.15569 0.0
C1472 C 0.00321 0.68024 0.13472 0.0
C1473 C 0.9606 0.67175 0.13748 0.0
C1474 C 0.96858 0.67334 0.11806 0.0
C1475 C -0.00184 0.67871 0.09701 0.0
C1476 C 0.0196 0.68263 0.09559 0.0
C1477 C 0.98989 0.67749 0.11647 0.0
C1478 C 0.03254 0.68582 0.11395 0.0
C1479 C 0.02446 0.68458 0.13327 0.0
H1480 H 0.63117 0.35815 0.6899 0.0
H1481 H 0.67419 0.31165 0.67735 0.0
H1482 H 0.66028 0.30709 0.64134 0.0
H1483 H 0.63305 0.31321 0.61471 0.0
H1484 H 0.58961 0.35923 0.62746 0.0
H1485 H 0.60664 0.36724 0.66195 0.0
C1486 C 0.63771 0.34726 0.67919 0.0
C1487 C 0.65347 0.33504 0.68636 0.0
C1488 C 0.6295 0.34457 0.65855 0.0
C1489 C 0.66196 0.32116 0.67226 0.0
C1490 C 0.65394 0.31846 0.65168 0.0
C1491 C 0.62767 0.32538 0.62484 0.0
C1492 C 0.60992 0.3354 0.61865 0.0
C1493 C 0.63734 0.32967 0.6448 0.0
C1494 C 0.60305 0.35105 0.63201 0.0
C1495 C 0.61279 0.35566 0.65174 0.0
H1496 H 0.05679 0.22883 0.33081 0.0
H1497 H 0.00444 0.23346 0.28714 0.0
H1498 H 0.98107 0.23189 0.31509 0.0
H1499 H 0.97564 0.23057 0.35195 0.0
H1500 H 0.02766 0.224 0.39554 0.0
H1501 H 0.05104 0.22537 0.3676 0.0
C1502 C 0.04026 0.22942 0.3274 0.0
C1503 C 0.03239 0.23135 0.30693 0.0
C1504 C 0.02687 0.22835 0.34354 0.0
C1505 C 0.01091 0.23195 0.30275 0.0
C1506 C -0.00246 0.23111 0.31873 0.0
C1507 C 0.99203 0.22904 0.35537 0.0
C1508 C -0.0002 0.22726 0.37593 0.0
C1509 C 0.00536 0.22944 0.33919 0.0
C1510 C 0.02121 0.22576 0.37998 0.0
C1511 C 0.03461 0.22639 0.36397 0.0
H1512 H 0.25639 0.59488 0.37788 0.0
H1513 H 0.2759 0.53501 0.3575 0.0
H1514 H 0.27859 0.52518 0.39322 0.0
H1515 H 0.2793 0.53509 0.43044 0.0
H1516 H 0.25918 0.59472 0.45081 0.0
H1517 H 0.25286 0.60309 0.41489 0.0
C1518 C 0.26097 0.57958 0.38122 0.0
C1519 C 0.26622 0.56584 0.36506 0.0
C1520 C 0.2626 0.57405 0.40182 0.0
C1521 C 0.27187 0.54596 0.36964 0.0
C1522 C 0.27349 0.54033 0.39009 0.0
C1523 C 0.27304 0.54971 0.42706 0.0
C1524 C 0.27008 0.56438 0.44333 0.0
C1525 C 0.26944 0.55446 0.40635 0.0
C1526 C 0.26207 0.58332 0.43859 0.0
C1527 C 0.25838 0.58811 0.41805 0.0
H1528 H 0.22564 0.37556 0.7402 0.0
H1529 H 0.1999 0.43413 0.73014 0.0
H1530 H 0.20796 0.44544 0.76653 0.0
H1531 H 0.22017 0.43782 0.80165 0.0
H1532 H 0.24735 0.37986 0.81145 0.0
H1533 H 0.24071 0.36919 0.77477 0.0
C1534 C 0.22188 0.39083 0.74596 0.0
C1535 C 0.212 0.40388 0.73252 0.0
C1536 C 0.22667 0.39731 0.76689 0.0
C1537 C 0.20748 0.42374 0.74016 0.0
C1538 C 0.21203 0.43022 0.76099 0.0
C1539 C 0.22504 0.42302 0.79574 0.0
C1540 C 0.23398 0.40957 0.80942 0.0
C1541 C 0.22138 0.41703 0.77456 0.0
C1542 C 0.23998 0.39036 0.8014 0.0
C1543 C 0.23629 0.38426 0.78039 0.0
H1544 H 0.74409 0.98681 0.63884 0.0
H1545 H 0.73845 0.92 0.63492 0.0
H1546 H 0.727 0.91966 0.59822 0.0
H1547 H 0.71922 0.9383 0.56723 0.0
H1548 H 0.72743 0.00507 0.57066 0.0
H1549 H 0.73675 0.00542 0.60771 0.0
C1550 C 0.74022 0.97216 0.63 0.0
C1551 C 0.74209 0.95345 0.63961 0.0
C1552 C 0.73404 0.97207 0.60884 0.0
C1553 C 0.7372 0.93462 0.62788 0.0
C1554 C 0.73064 0.93441 0.60691 0.0
C1555 C 0.72327 0.95295 0.57598 0.0
C1556 C 0.72261 0.97162 0.56603 0.0
C1557 C 0.72918 0.95305 0.5972 0.0
C1558 C 0.72746 0.99045 0.57785 0.0
C1559 C 0.73297 0.99068 0.59905 0.0
H1560 H 0.76556 0.0193 0.25743 0.0
H1561 H 0.7018 0.02861 0.26797 0.0
H1562 H 0.69331 0.02793 0.23059 0.0
H1563 H 0.70407 0.02427 0.19482 0.0
H1564 H 0.76776 0.01428 0.18448 0.0
H1565 H 0.77631 0.01576 0.22186 0.0
C1566 C 0.74982 0.02123 0.2515 0.0
C1567 C 0.73425 0.02365 0.26536 0.0
C1568 C 0.74509 0.02075 0.23005 0.0
C1569 C 0.71392 0.02613 0.25756 0.0
C1570 C 0.70911 0.02594 0.23621 0.0
C1571 C 0.71984 0.02259 0.20081 0.0
C1572 C 0.73529 0.0192 0.18699 0.0
C1573 C 0.72456 0.02317 0.22231 0.0
C1574 C 0.75561 0.01677 0.19487 0.0
C1575 C 0.7605 0.01766 0.21621 0.0
H1576 H 0.36806 0.26194 0.55814 0.0
H1577 H 0.38914 0.29737 0.6151 0.0
H1578 H 0.42495 0.2947 0.60674 0.0
H1579 H 0.45008 0.28452 0.58239 0.0
H1580 H 0.42969 0.249 0.52539 0.0
H1581 H 0.39373 0.24979 0.53454 0.0
C1582 C 0.38049 0.26889 0.56884 0.0
C1583 C 0.37586 0.27994 0.58718 0.0
C1584 C 0.40114 0.2675 0.56384 0.0
C1585 C 0.39219 0.28885 0.60083 0.0
C1586 C 0.41271 0.28738 0.59606 0.0
C1587 C 0.43787 0.27654 0.57212 0.0
C1588 C 0.44264 0.26666 0.55324 0.0
C1589 C 0.41733 0.27703 0.57748 0.0
C1590 C 0.42646 0.25689 0.53992 0.0
C1591 C 0.40591 0.25726 0.54519 0.0
H1592 H 0.25444 0.69536 0.00106 0.0
H1593 H 0.25053 0.73331 0.0575 0.0
H1594 H 0.2133 0.72453 0.05661 0.0
H1595 H 0.18161 0.70825 0.03847 0.0
H1596 H 0.18499 0.67124 0.9813 0.0
H1597 H 0.22268 0.67749 0.98372 0.0
C1598 C 0.2455 0.70122 0.01343 0.0
C1599 C 0.25519 0.71471 0.02948 0.0
C1600 C 0.224 0.69649 0.01254 0.0
C1601 C 0.24335 0.72283 0.04504 0.0
C1602 C 0.22208 0.71785 0.04452 0.0
C1603 C 0.19063 0.70117 0.02676 0.0
C1604 C 0.18052 0.68928 0.00975 0.0
C1605 C 0.2122 0.70499 0.02816 0.0
C1606 C 0.1924 0.6806 -0.00553 0.0
C1607 C 0.21395 0.68409 -0.0041 0.0
H1608 H 0.74643 0.21477 0.41056 0.0
H1609 H 0.765 0.22008 0.34828 0.0
H1610 H 0.80102 0.22715 0.36155 0.0
H1611 H 0.82732 0.23024 0.39055 0.0
H1612 H 0.80922 0.22218 0.45261 0.0
H1613 H 0.77289 0.21831 0.43975 0.0
C1614 C 0.75833 0.2177 0.39991 0.0
C1615 C 0.75305 0.21687 0.37846 0.0
C1616 C 0.77909 0.22126 0.4076 0.0
C1617 C 0.76867 0.22052 0.36485 0.0
C1618 C 0.78927 0.22457 0.37243 0.0
C1619 C 0.81549 0.22745 0.4013 0.0
C1620 C 0.82113 0.22634 0.42253 0.0
C1621 C 0.79469 0.22463 0.39373 0.0
C1622 C 0.80543 0.22331 0.43623 0.0
C1623 C 0.78462 0.22092 0.42886 0.0
H1624 H 0.62563 0.77437 0.93399 0.0
H1625 H 0.64174 0.71628 0.95757 0.0
H1626 H 0.60521 0.7065 0.96089 0.0
H1627 H 0.56859 0.71444 0.95708 0.0
H1628 H 0.55268 0.77234 0.93314 0.0
H1629 H 0.58925 0.7822 0.93 0.0
C1630 C 0.62119 0.75954 0.93981 0.0
C1631 C 0.63645 0.7461 0.94551 0.0
C1632 C 0.60018 0.75399 0.94168 0.0
C1633 C 0.63035 0.72693 0.95302 0.0
C1634 C 0.60945 0.72133 0.95498 0.0
C1635 C 0.5732 0.72927 0.95135 0.0
C1636 C 0.55801 0.74265 0.94537 0.0
C1637 C 0.59424 0.73476 0.94942 0.0
C1638 C 0.56411 0.76172 0.93769 0.0
C1639 C 0.585 0.76738 0.93593 0.0
H1640 H 0.55663 0.37216 0.25726 0.0
H1641 H 0.61734 0.39714 0.28142 0.0
H1642 H 0.60596 0.43214 0.28055 0.0
H1643 H 0.57829 0.45537 0.27577 0.0
H1644 H 0.51736 0.43109 0.25184 0.0
H1645 H 0.5293 0.39601 0.25003 0.0
C1646 C 0.56745 0.38527 0.26208 0.0
C1647 C 0.58779 0.38198 0.26953 0.0
C1648 C 0.56072 0.40544 0.26182 0.0
C1649 C 0.60157 0.39917 0.27574 0.0
C1650 C 0.59508 0.41922 0.27529 0.0
C1651 C 0.56768 0.44252 0.26966 0.0
C1652 C 0.54695 0.44592 0.26389 0.0
C1653 C 0.57461 0.4225 0.26874 0.0
C1654 C 0.53334 0.42892 0.25656 0.0
C1655 C 0.54019 0.40887 0.25546 0.0
H1656 H 0.00801 0.25806 0.76756 0.0
H1657 H 0.02804 0.27335 0.70797 0.0
H1658 H 0.02434 0.23672 0.69579 0.0
H1659 H 0.0159 0.20021 0.70242 0.0
H1660 H -0.00411 0.18521 0.76218 0.0
H1661 H -0.00092 0.22183 0.774 0.0
C1662 C 0.0115 0.25334 0.75189 0.0
C1663 C 0.01794 0.26835 0.73854 0.0
C1664 C 0.0094 0.23231 0.74508 0.0
C1665 C 0.02246 0.2621 0.7183 0.0
C1666 C 0.02057 0.24116 0.71143 0.0
C1667 C 0.01232 0.205 0.71804 0.0
C1668 C 0.00568 0.19005 0.73142 0.0
C1669 C 0.01409 0.22611 0.7247 0.0
C1670 C 0.00085 0.19646 0.75154 0.0
C1671 C 0.00275 0.21737 0.75833 0.0
H1672 H 0.40005 0.73646 0.18686 0.0
H1673 H 0.38314 0.73331 0.24994 0.0
H1674 H 0.39874 0.76841 0.25843 0.0
H1675 H 0.41631 0.80047 0.24753 0.0
H1676 H 0.43135 0.80385 0.18401 0.0
H1677 H 0.41754 0.76805 0.17608 0.0
C1678 C 0.39983 0.74337 0.20251 0.0
C1679 C 0.39044 0.73226 0.21774 0.0
C1680 C 0.40856 0.76358 0.20719 0.0
C1681 C 0.39019 0.74156 0.2379 0.0
C1682 C 0.39915 0.7616 0.24277 0.0
C1683 C 0.41675 0.79319 0.23205 0.0
C1684 C 0.42489 0.80457 0.21636 0.0
C1685 C 0.40829 0.7728 0.22751 0.0
C1686 C 0.42514 0.79525 0.19627 0.0
C1687 C 0.41723 0.77486 0.19175 0.0
H1688 H 0.93923 0.62429 0.73846 0.0
H1689 H 0.00546 0.63319 0.73605 0.0
H1690 H 0.00749 0.59605 0.72791 0.0
H1691 H 0.99051 0.56082 0.72322 0.0
H1692 H 0.92397 0.5527 0.72391 0.0
H1693 H 0.9221 0.58973 0.73121 0.0
C1694 C 0.95412 0.61813 0.73611 0.0
C1695 C 0.97218 0.63144 0.73805 0.0
C1696 C 0.95515 0.59686 0.73129 0.0
C1697 C 0.99132 0.62325 0.73466 0.0
C1698 C 0.99249 0.60202 0.73006 0.0
C1699 C 0.97557 0.56716 0.72466 0.0
C1700 C 0.95746 0.55384 0.72338 0.0
C1701 C 0.97452 0.58863 0.72854 0.0
C1702 C 0.93825 0.56243 0.7254 0.0
C1703 C 0.93711 0.58366 0.72942 0.0
H1704 H 0.68771 0.41583 0.66727 0.0
H1705 H 0.68462 0.35092 0.6478 0.0
H1706 H 0.67579 0.3588 0.61208 0.0
H1707 H 0.67071 0.38418 0.5863 0.0
H1708 H 0.67722 0.44947 0.60497 0.0
H1709 H 0.6823 0.44144 0.64121 0.0
C1710 C 0.68462 0.40343 0.65526 0.0
C1711 C 0.68617 0.38276 0.66019 0.0
C1712 C 0.68031 0.40819 0.63463 0.0
C1713 C 0.68307 0.36687 0.64438 0.0
C1714 C 0.67815 0.3714 0.62397 0.0
C1715 C 0.67345 0.39673 0.59822 0.0
C1716 C 0.67384 0.41743 0.59279 0.0
C1717 C 0.67704 0.39202 0.61889 0.0
C1718 C 0.67673 0.4334 0.60862 0.0
C1719 C 0.6798 0.42882 0.62936 0.0
H1720 H 0.76714 0.62253 0.26372 0.0
H1721 H 0.77613 0.56105 0.28258 0.0
H1722 H 0.7721 0.54733 0.24638 0.0
H1723 H 0.76444 0.55273 0.20953 0.0
H1724 H 0.75846 0.61497 0.19074 0.0
H1725 H 0.76244 0.62832 0.2267 0.0
C1726 C 0.76833 0.60615 0.25982 0.0
C1727 C 0.77203 0.59281 0.27567 0.0
C1728 C 0.76624 0.59846 0.23901 0.0
C1729 C 0.77363 0.57164 0.27054 0.0
C1730 C 0.77116 0.56379 0.24988 0.0
C1731 C 0.76432 0.56925 0.21318 0.0
C1732 C 0.76068 0.58266 0.19724 0.0
C1733 C 0.76732 0.57704 0.23398 0.0
C1734 C 0.76048 0.60405 0.20255 0.0
C1735 C 0.76299 0.61182 0.22317 0.0
H1736 H 0.25453 0.0745 0.34385 0.0
H1737 H 0.24306 0.00932 0.32661 0.0
H1738 H 0.23825 0.00244 0.36265 0.0
H1739 H 0.23834 0.01492 0.39934 0.0
H1740 H 0.25201 0.07998 0.41655 0.0
H1741 H 0.25485 0.0869 0.38034 0.0
C1742 C 0.25088 0.05881 0.34799 0.0
C1743 C 0.24855 0.04254 0.3325 0.0
C1744 C 0.2486 0.05493 0.36879 0.0
C1745 C 0.24404 0.02224 0.33809 0.0
C1746 C 0.2416 0.01826 0.35877 0.0
C1747 C 0.24203 0.03059 0.39518 0.0
C1748 C 0.24482 0.04689 0.4107 0.0
C1749 C 0.24394 0.03448 0.37427 0.0
C1750 C 0.24938 0.06716 0.40495 0.0
C1751 C 0.25118 0.07114 0.38424 0.0
H1752 H 0.26222 0.96913 0.73624 0.0
H1753 H 0.27432 0.03529 0.74521 0.0
H1754 H 0.28186 0.03246 0.78232 0.0
H1755 H 0.28254 0.0115 0.81224 0.0
H1756 H 0.27397 0.94481 0.80308 0.0
H1757 H 0.26698 0.94763 0.76607 0.0
C1758 C 0.26675 0.98285 0.74636 0.0
C1759 C 0.26782 0.00237 0.73813 0.0
C1760 C 0.27133 0.98106 0.76763 0.0
C1761 C 0.27373 0.02008 0.75124 0.0
C1762 C 0.27786 0.01848 0.77245 0.0
C1763 C 0.27971 -0.00256 0.80226 0.0
C1764 C 0.27857 0.97797 0.81079 0.0
C1765 C 0.27646 -0.00093 0.78084 0.0
C1766 C 0.27438 0.9601 0.79728 0.0
C1767 C 0.27057 0.96165 0.77598 0.0
H1768 H 0.64092 0.6972 0.36044 0.0
H1769 H 0.67617 0.68341 0.41592 0.0
H1770 H 0.6443 0.67201 0.43137 0.0
H1771 H 0.60617 0.66839 0.4299 0.0
H1772 H 0.57133 0.68084 0.37348 0.0
H1773 H 0.60321 0.69061 0.35779 0.0
C1774 C 0.64157 0.69154 0.37586 0.0
C1775 C 0.66075 0.69102 0.38701 0.0
C1776 C 0.62324 0.68507 0.3846 0.0
C1777 C 0.66153 0.68359 0.40691 0.0
C1778 C 0.64332 0.67726 0.41581 0.0
C1779 C 0.60553 0.67295 0.41408 0.0
C1780 C 0.58625 0.67434 0.40315 0.0
C1781 C 0.62403 0.67822 0.4049 0.0
C1782 C 0.58585 0.6803 0.38261 0.0
C1783 C 0.6041 0.68572 0.37349 0.0
H1784 H 0.71846 0.25948 0.96022 0.0
H1785 H 0.71422 0.28823 0.02145 0.0
H1786 H 0.75027 0.30157 0.02225 0.0
H1787 H 0.78342 0.30373 0.00624 0.0
H1788 H 0.78855 0.27296 0.94599 0.0
H1789 H 0.75174 0.26192 0.94401 0.0
C1790 C 0.72544 0.2688 0.97366 0.0
C1791 C 0.71352 0.27342 0.99048 0.0
C1792 C 0.74636 0.27596 0.97421 0.0
C1793 C 0.72276 0.28527 0.00791 0.0
C1794 C 0.74349 0.29262 0.00851 0.0
C1795 C 0.77653 0.29452 0.9927 0.0
C1796 C 0.78878 0.28909 0.97635 0.0
C1797 C 0.75547 0.28792 0.99183 0.0
C1798 C 0.77946 0.27753 0.95873 0.0
C1799 C 0.75844 0.27107 0.95765 0.0
H1800 H 0.26008 0.80437 0.57491 0.0
H1801 H 0.26649 0.74133 0.59079 0.0
H1802 H 0.23212 0.73119 0.57412 0.0
H1803 H 0.19913 0.74089 0.55728 0.0
H1804 H 0.19245 0.80435 0.54353 0.0
H1805 H 0.22817 0.81367 0.55689 0.0
C1806 C 0.2541 0.78835 0.5746 0.0
C1807 C 0.26585 0.77367 0.58422 0.0
C1808 C 0.23425 0.78272 0.56534 0.0
C1809 C 0.25776 0.75299 0.58362 0.0
C1810 C 0.2381 0.74717 0.57408 0.0
C1811 C 0.20573 0.75664 0.55689 0.0
C1812 C 0.19338 0.77194 0.5494 0.0
C1813 C 0.22607 0.76198 0.56519 0.0
C1814 C 0.20181 0.79238 0.54922 0.0
C1815 C 0.22215 0.7977 0.55691 0.0
H1816 H 0.33472 0.21741 0.04815 0.0
H1817 H 0.32466 0.2493 0.99232 0.0
H1818 H 0.36207 0.25447 0.9898 0.0
H1819 H 0.3976 0.25012 0.00369 0.0
H1820 H 0.40725 0.21603 0.05823 0.0
H1821 H 0.37004 0.21175 0.0611 0.0
C1822 C 0.34072 0.22561 0.03549 0.0
C1823 C 0.32698 0.2331 0.02054 0.0
C1824 C 0.36217 0.22814 0.03391 0.0
C1825 C 0.33496 0.2434 0.00405 0.0
C1826 C 0.35633 0.24635 0.00259 0.0
C1827 C 0.39159 0.24151 0.01605 0.0
C1828 C 0.40531 0.23361 0.03083 0.0
C1829 C 0.37008 0.23873 0.01742 0.0
C1830 C 0.39715 0.2227 0.04688 0.0
C1831 C 0.37583 0.22011 0.04848 0.0
H1832 H 0.4065 0.67634 0.68533 0.0
H1833 H 0.34249 0.65333 0.67739 0.0
H1834 H 0.35285 0.6188 0.66714 0.0
H1835 H 0.37999 0.59487 0.66269 0.0
H1836 H 0.44419 0.61688 0.67358 0.0
H1837 H 0.43392 0.6523 0.67977 0.0
C1838 C 0.39486 0.66384 0.6809 0.0
C1839 C 0.37376 0.6674 0.68158 0.0
C1840 C 0.40098 0.64388 0.67574 0.0
C1841 C 0.35881 0.65095 0.67665 0.0
C1842 C 0.36472 0.63123 0.67087 0.0
C1843 C 0.39178 0.60738 0.66654 0.0
C1844 C 0.41282 0.60317 0.66804 0.0
C1845 C 0.38576 0.62747 0.67073 0.0
C1846 C 0.42789 0.61968 0.67234 0.0
C1847 C 0.42202 0.63989 0.67606 0.0
H1848 H 0.98955 0.7295 0.26966 0.0
H1849 H 0.92359 0.72775 0.25591 0.0
H1850 H 0.92292 0.7632 0.2713 0.0
H1851 H 0.94132 0.79473 0.28791 0.0
H1852 H 0.00807 0.79755 0.29746 0.0
H1853 H 0.00806 0.76144 0.2852 0.0
C1854 C 0.97502 0.73683 0.27034 0.0
C1855 C 0.9566 0.72608 0.26203 0.0
C1856 C 0.97489 0.75735 0.27856 0.0
C1857 C 0.93792 0.73582 0.26237 0.0
C1858 C 0.93756 0.75603 0.27115 0.0
C1859 C 0.95595 0.78765 0.2871 0.0
C1860 C 0.97463 0.79912 0.29383 0.0
C1861 C 0.956 0.76702 0.2791 0.0
C1862 C -0.00668 0.78923 0.29298 0.0
C1863 C -0.00659 0.76853 0.2857 0.0
H1864 H 0.60006 0.27903 0.77612 0.0
H1865 H 0.66159 0.25851 0.77158 0.0
H1866 H 0.64808 0.22243 0.77148 0.0
H1867 H 0.61877 0.19688 0.77089 0.0
H1868 H 0.55663 0.21705 0.77155 0.0
H1869 H 0.57043 0.25308 0.77571 0.0
C1870 C 0.61049 0.26662 0.77551 0.0
C1871 C 0.63179 0.27132 0.7741 0.0
C1872 C 0.6025 0.2459 0.77473 0.0
C1873 C 0.64515 0.25518 0.77275 0.0
C1874 C 0.63743 0.2346 0.77266 0.0
C1875 C 0.60813 0.20909 0.77167 0.0
C1876 C 0.58662 0.2041 0.77063 0.0
C1877 C 0.6161 0.22978 0.77326 0.0
C1878 C 0.57325 0.22028 0.77245 0.0
C1879 C 0.58112 0.24095 0.77466 0.0
H1880 H 0.02344 0.30194 0.23777 0.0
H1881 H 0.08854 0.30778 0.22798 0.0
H1882 H 0.08612 0.34448 0.22189 0.0
H1883 H 0.0658 0.37491 0.22072 0.0
H1884 H 0.00151 0.36983 0.23471 0.0
H1885 H 0.00308 0.33261 0.23676 0.0
C1886 C 0.03699 0.31122 0.23396 0.0
C1887 C 0.05608 0.30225 0.23304 0.0
C1888 C 0.03558 0.33237 0.2311 0.0
C1889 C 0.07369 0.31445 0.22869 0.0
C1890 C 0.07229 0.33537 0.22519 0.0
C1891 C 0.05213 0.36581 0.22449 0.0
C1892 C 0.03361 0.37544 0.22772 0.0
C1893 C 0.05337 0.34454 0.22666 0.0
C1894 C 0.01595 0.36303 0.23185 0.0
C1895 C 0.01687 0.34169 0.23328 0.0
H1896 H 0.35754 0.59444 0.34518 0.0
H1897 H 0.34215 0.59271 0.27928 0.0
H1898 H 0.37732 0.58387 0.27272 0.0
H1899 H 0.41233 0.57627 0.28575 0.0
H1900 H 0.42767 0.5788 0.35166 0.0
H1901 H 0.39254 0.58766 0.35816 0.0
C1902 C 0.36182 0.59211 0.32936 0.0
C1903 C 0.34716 0.59409 0.31275 0.0
C1904 C 0.38201 0.58702 0.32571 0.0
C1905 C 0.35309 0.59121 0.29236 0.0
C1906 C 0.37317 0.58607 0.28859 0.0
C1907 C 0.4079 0.57858 0.30153 0.0
C1908 C 0.42256 0.57683 0.3182 0.0
C1909 C 0.38771 0.58379 0.30515 0.0
C1910 C 0.41673 0.58021 0.33857 0.0
C1911 C 0.39661 0.58516 0.34229 0.0
H1912 H 0.10068 0.34798 0.66522 0.0
H1913 H 0.13316 0.4084 0.66841 0.0
H1914 H 0.10068 0.42474 0.67192 0.0
H1915 H 0.06374 0.4219 0.67717 0.0
H1916 H 0.03055 0.36169 0.67181 0.0
H1917 H 0.06274 0.34532 0.66654 0.0
C1918 C 0.10061 0.36472 0.66644 0.0
C1919 C 0.11937 0.37691 0.66675 0.0
C1920 C 0.08182 0.37409 0.66843 0.0
C1921 C 0.11898 0.3986 0.66814 0.0
C1922 C 0.1004 0.408 0.67027 0.0
C1923 C 0.06331 0.40523 0.67435 0.0
C1924 C 0.04459 0.39314 0.67519 0.0
C1925 C 0.0818 0.39589 0.67085 0.0
C1926 C 0.0447 0.37148 0.67184 0.0
C1927 C 0.06312 0.36206 0.66862 0.0
H1928 H 0.82786 0.00377 0.68164 0.0
H1929 H 0.84521 0.95827 0.72417 0.0
H1930 H 0.88044 0.9746 0.72863 0.0
H1931 H 0.90642 0.00196 0.72022 0.0
H1932 H 0.88822 0.04732 0.67792 0.0
H1933 H 0.85325 0.03083 0.67355 0.0
C1934 C 0.8393 -0.00261 0.69193 0.0
C1935 C 0.83388 0.9798 0.70252 0.0
C1936 C 0.85943 0.00682 0.69441 0.0
C1937 C 0.84894 0.97183 0.71585 0.0
C1938 C 0.86911 0.98113 0.71836 0.0
C1939 C 0.89478 0.00809 0.70997 0.0
C1940 C 0.89985 0.02586 0.69945 0.0
C1941 C 0.87456 -0.0014 0.70765 0.0
C1942 C 0.88462 0.0338 0.68635 0.0
C1943 C 0.86464 0.02436 0.6838 0.0
H1944 H 0.61662 0.98967 0.30871 0.0
H1945 H 0.64171 0.95838 0.25619 0.0
H1946 H 0.60751 0.94196 0.24524 0.0
H1947 H 0.57023 0.93725 0.25003 0.0
H1948 H 0.54526 0.96878 0.30241 0.0
H1949 H 0.57965 0.98439 0.3139 0.0
C1950 C 0.61465 0.97922 0.29489 0.0
C1951 C 0.63173 0.97532 0.28328 0.0
C1952 C 0.59494 0.96991 0.28861 0.0
C1953 C 0.62885 0.96172 0.26541 0.0
C1954 C 0.60929 0.9523 0.25913 0.0
C1955 C 0.57239 0.94735 0.26409 0.0
C1956 C 0.55522 0.95189 0.27532 0.0
C1957 C 0.5922 0.95636 0.27055 0.0
C1958 C 0.55819 0.96523 0.29336 0.0
C1959 C 0.57785 0.97411 0.29998 0.0
H1960 H 0.32832 0.37761 0.59987 0.0
H1961 H 0.26158 0.36993 0.59359 0.0
H1962 H 0.26002 0.40583 0.58443 0.0
H1963 H 0.27772 0.43924 0.57767 0.0
H1964 H 0.34445 0.44653 0.58421 0.0
H1965 H 0.34586 0.41084 0.59374 0.0
C1966 C 0.31339 0.38372 0.5965 0.0
C1967 C 0.2951 0.371 0.59728 0.0
C1968 C 0.31261 0.40426 0.59112 0.0
C1969 C 0.27592 0.37931 0.593 0.0
C1970 C 0.27501 0.39982 0.58769 0.0
C1971 C 0.29257 0.43294 0.58101 0.0
C1972 C 0.31095 0.44554 0.58022 0.0
C1973 C 0.29328 0.41238 0.58653 0.0
C1974 C 0.33007 0.43725 0.5849 0.0
C1975 C 0.3309 0.41681 0.59024 0.0
H1976 H 0.23519 0.61356 0.97099 0.0
H1977 H 0.29018 0.60569 0.01009 0.0
H1978 H 0.28746 0.56861 0.00022 0.0
H1979 H 0.27017 0.53853 0.97941 0.0
H1980 H 0.21549 0.54671 0.94007 0.0
H1981 H 0.21742 0.5835 0.95108 0.0
C1982 C 0.24655 0.60375 0.97744 0.0
C1983 C 0.2629 0.61246 0.99122 0.0
C1984 C 0.24499 0.58246 0.97159 0.0
C1985 C 0.27746 0.59945 -0.0006 0.0
C1986 C 0.27592 0.57821 0.99377 0.0
C1987 C 0.25855 0.54834 0.97347 0.0
C1988 C 0.24277 0.5399 0.95887 0.0
C1989 C 0.25984 0.56956 0.97975 0.0
C1990 C 0.22794 0.55286 0.95112 0.0
C1991 C 0.22899 0.57389 0.95745 0.0
H1992 H 0.66277 0.13496 0.39734 0.0
H1993 H 0.69191 0.11464 0.34235 0.0
H1994 H 0.69237 0.07966 0.35417 0.0
H1995 H 0.68767 0.05578 0.38174 0.0
H1996 H 0.65792 0.07606 0.4364 0.0
H1997 H 0.65472 0.11012 0.42312 0.0
C1998 C 0.669 0.12284 0.3878 0.0
C1999 C 0.67751 0.12751 0.3691 0.0
C2000 C 0.66937 0.10278 0.39475 0.0
C2001 C 0.68532 0.11153 0.35685 0.0
C2002 C 0.68568 0.09151 0.36364 0.0
C2003 C 0.68009 0.06748 0.39057 0.0
C2004 C 0.67338 0.0634 0.41022 0.0
C2005 C 0.6782 0.08708 0.38281 0.0
C2006 C 0.66372 0.07889 0.42147 0.0
C2007 C 0.66176 0.09837 0.41384 0.0
H2008 H 0.68696 0.83606 0.00713 0.0
H2009 H 0.72379 0.85349 0.95713 0.0
H2010 H 0.72912 0.88887 0.97293 0.0
H2011 H 0.72261 0.91509 0.00076 0.0
H2012 H 0.68575 0.89698 0.05047 0.0
H2013 H 0.68114 0.86164 0.03495 0.0
C2014 C 0.69624 0.84754 -0.00032 0.0
C2015 C 0.7049 0.84213 0.98094 0.0
C2016 C 0.69917 0.86778 0.00878 0.0
C2017 C 0.71695 0.85723 0.97159 0.0
C2018 C 0.71995 0.87749 0.98057 0.0
C2019 C 0.71351 0.90339 0.00809 0.0
C2020 C 0.70457 0.90862 0.02675 0.0
C2021 C 0.71098 0.88299 -0.00091 0.0
C2022 C 0.69298 0.89328 0.03623 0.0
C2023 C 0.69027 0.87309 0.02733 0.0
H2024 H 0.60043 0.27162 0.35755 0.0
H2025 H 0.61029 0.33822 0.36509 0.0
H2026 H 0.60053 0.3378 0.40066 0.0
H2027 H 0.58803 0.31884 0.42933 0.0
H2028 H 0.57847 0.25231 0.42245 0.0
H2029 H 0.58917 0.25242 0.38694 0.0
C2030 C 0.60051 0.28603 0.36699 0.0
C2031 C 0.60591 0.30491 0.35852 0.0
C2032 C 0.59479 0.28573 0.38753 0.0
C2033 C 0.60609 0.32343 0.37109 0.0
C2034 C 0.60041 0.32325 0.39145 0.0
C2035 C 0.58842 0.30435 0.42011 0.0
C2036 C 0.58243 0.2856 0.42848 0.0
C2037 C 0.59457 0.30453 0.39977 0.0
C2038 C 0.58282 0.26697 0.41627 0.0
C2039 C 0.58901 0.26701 0.396 0.0
H2040 H 0.00237 0.24952 0.63009 0.0
H2041 H 0.96399 0.30072 0.63998 0.0
H2042 H 0.94927 0.2954 0.60427 0.0
H2043 H 0.94788 0.27671 0.5699 0.0
H2044 H 0.98642 0.22565 0.56016 0.0
H2045 H 0.00054 0.23051 0.59609 0.0
C2046 C 0.99075 0.2595 0.62448 0.0
C2047 C 0.98434 0.27551 0.63773 0.0
C2048 C 0.98241 0.25644 0.6039 0.0
C2049 C 0.96926 0.28829 0.63014 0.0
C2050 C 0.96081 0.28527 0.6097 0.0
C2051 C 0.95922 0.26653 0.57572 0.0
C2052 C 0.96615 0.2509 0.56234 0.0
C2053 C 0.96733 0.26944 0.59641 0.0
C2054 C 0.98103 0.23798 0.57005 0.0
C2055 C 0.98905 0.24068 0.59062 0.0
H2056 H 0.38654 0.71712 0.11744 0.0
H2057 H 0.37596 0.6507 0.10883 0.0
H2058 H 0.38607 0.65175 0.07313 0.0
H2059 H 0.39984 0.67158 0.04496 0.0
H2060 H 0.41178 0.73773 0.05492 0.0
H2061 H 0.39915 0.73677 0.08953 0.0
C2062 C 0.38626 0.70284 0.10776 0.0
C2063 C 0.38053 0.68385 0.11583 0.0
C2064 C 0.39244 0.70353 0.0875 0.0
C2065 C 0.38034 0.66552 0.10302 0.0
C2066 C 0.38615 0.66612 0.08262 0.0
C2067 C 0.39942 0.68575 0.05469 0.0
C2068 C 0.40676 0.7047 0.04752 0.0
C2069 C 0.39249 0.68502 0.07477 0.0
C2070 C 0.40636 0.72297 0.06025 0.0
C2071 C 0.39912 0.72243 0.07999 0.0
H2072 H 0.00929 0.73203 0.83274 0.0
H2073 H 0.95627 0.69076 0.8417 0.0
H2074 H 0.96761 0.68955 0.8782 0.0
H2075 H -0.00552 0.69729 0.90666 0.0
H2076 H 0.04721 0.73898 0.89777 0.0
H2077 H 0.0341 0.74284 0.86221 0.0
C2078 C 7e-05 0.72297 0.84271 0.0
C2079 C 0.9821 0.7113 0.83437 0.0
C2080 C 0.00675 0.7222 0.8637 0.0
C2081 C 0.97023 0.69982 0.84763 0.0
C2082 C 0.97674 0.69904 0.86853 0.0
C2083 C 0.00288 0.70758 0.89712 0.0
C2084 C 0.022 0.71753 0.90482 0.0
C2085 C -0.00475 0.70976 0.87661 0.0
C2086 C 0.03271 0.73072 0.89211 0.0
C2087 C 0.02518 0.73302 0.87178 0.0
H2088 H 0.57716 0.40225 0.68389 0.0
H2089 H 0.61462 0.45595 0.66898 0.0
H2090 H 0.58341 0.47301 0.65867 0.0
H2091 H 0.54542 0.47285 0.65437 0.0
H2092 H 0.50823 0.41943 0.67052 0.0
H2093 H 0.53942 0.402 0.67943 0.0
C2094 C 0.57854 0.41769 0.67839 0.0
C2095 C 0.59822 0.42783 0.67732 0.0
C2096 C 0.56056 0.42743 0.67255 0.0
C2097 C 0.59967 0.4478 0.67003 0.0
C2098 C 0.58182 0.45757 0.66412 0.0
C2099 C 0.54412 0.45745 0.65995 0.0
C2100 C 0.52442 0.44751 0.66168 0.0
C2101 C 0.56217 0.44758 0.66543 0.0
C2102 C 0.52311 0.42738 0.66865 0.0
C2103 C 0.54097 0.41743 0.67395 0.0
H2104 H 0.89589 0.57911 0.3002 0.0
H2105 H 0.85435 0.53266 0.26588 0.0
H2106 H 0.88382 0.5161 0.25214 0.0
H2107 H 0.92138 0.51481 0.24983 0.0
H2108 H 0.96282 0.56068 0.28509 0.0
H2109 H 0.93336 0.57763 0.29815 0.0
C2110 C 0.89324 0.56537 0.2897 0.0
C2111 C 0.8729 0.55716 0.28412 0.0
C2112 C 0.91025 0.55587 0.2819 0.0
C2113 C 0.86982 0.53931 0.2705 0.0
C2114 C 0.88667 0.52983 0.26261 0.0
C2115 C 0.924 0.52841 0.26051 0.0
C2116 C 0.94436 0.53644 0.26639 0.0
C2117 C 0.90696 0.53795 0.26824 0.0
C2118 C 0.94737 0.55431 0.27999 0.0
C2119 C 0.93051 0.56394 0.28762 0.0
H2120 H 0.13304 0.01348 0.30039 0.0
H2121 H 0.16851 0.96301 0.31941 0.0
H2122 H 0.1367 0.94332 0.32655 0.0
H2123 H 0.09879 0.94041 0.32727 0.0
H2124 H 0.06347 0.99055 0.30701 0.0
H2125 H 0.0953 0.01051 0.30088 0.0
C2126 C 0.13385 -0.00181 0.30612 0.0
C2127 C 0.15314 0.98975 0.30933 0.0
C2128 C 0.11553 0.98692 0.31011 0.0
C2129 C 0.15386 0.96988 0.31675 0.0
C2130 C 0.13568 0.9586 0.32086 0.0
C2131 C 0.09803 0.95564 0.32138 0.0
C2132 C 0.07871 0.96396 0.31771 0.0
C2133 C 0.11642 0.96695 0.31754 0.0
C2134 C 0.0781 0.98387 0.31034 0.0
C2135 C 0.0963 -0.00474 0.30665 0.0
H2136 H 0.38373 0.01973 0.71196 0.0
H2137 H 0.36027 0.06941 0.7491 0.0
H2138 H 0.39564 0.08279 0.75994 0.0
H2139 H 0.4333 0.08048 0.75872 0.0
H2140 H 0.45642 0.03123 0.72067 0.0
H2141 H 0.42115 0.01746 0.71067 0.0
C2142 C 0.38631 0.03347 0.72245 0.0
C2143 C 0.36932 0.04354 0.72966 0.0
C2144 C 0.40667 0.04113 0.72857 0.0
C2145 C 0.37303 0.06135 0.74326 0.0
C2146 C 0.39327 0.06902 0.74948 0.0
C2147 C 0.43063 0.06681 0.74813 0.0
C2148 C 0.4476 0.0569 0.74057 0.0
C2149 C 0.41022 0.05908 0.74218 0.0
C2150 C 0.44376 0.03902 0.72707 0.0
C2151 C 0.42355 0.0312 0.72118 0.0
H2152 H 0.64503 0.59105 0.40431 0.0
H2153 H 0.70757 0.60325 0.43123 0.0
H2154 H 0.70604 0.5696 0.44606 0.0
H2155 H 0.68699 0.53675 0.45157 0.0
H2156 H 0.6249 0.52384 0.42393 0.0
H2157 H 0.6263 0.5576 0.40895 0.0
C2158 C 0.6583 0.58637 0.41348 0.0
C2159 C 0.67634 0.59974 0.41676 0.0
C2160 C 0.65744 0.56683 0.42174 0.0
C2161 C 0.69348 0.59331 0.42847 0.0
C2162 C 0.69263 0.57405 0.43697 0.0
C2163 C 0.67372 0.54139 0.44237 0.0
C2164 C 0.65581 0.5279 0.439 0.0
C2165 C 0.67468 0.56072 0.43375 0.0
C2166 C 0.63889 0.53393 0.42668 0.0
C2167 C 0.63965 0.55326 0.41821 0.0
H2168 H 0.69291 0.39075 0.00101 0.0
H2169 H 0.71803 0.36138 0.05412 0.0
H2170 H 0.73198 0.395 0.06984 0.0
H2171 H 0.73697 0.43278 0.06858 0.0
H2172 H 0.71058 0.46211 0.01598 0.0
H2173 H 0.69761 0.42844 -0.00011 0.0
C2174 C 0.70145 0.39167 0.01601 0.0
C2175 C 0.70437 0.37353 0.02634 0.0
C2176 C 0.70935 0.41106 0.02503 0.0
C2177 C 0.71548 0.37507 0.04581 0.0
C2178 C 0.7235 0.39431 0.05482 0.0
C2179 C 0.72825 0.43186 0.05367 0.0
C2180 C 0.72489 0.45006 0.04353 0.0
C2181 C 0.72047 0.41242 0.04461 0.0
C2182 C 0.71379 0.44842 0.02404 0.0
C2183 C 0.70618 0.42915 0.01487 0.0
H2184 H 0.26866 0.87195 0.58549 0.0
H2185 H 0.33241 0.89029 0.60493 0.0
H2186 H 0.32781 0.92501 0.59322 0.0
H2187 H 0.30585 0.94967 0.5759 0.0
H2188 H 0.24266 0.93007 0.55544 0.0
H2189 H 0.24686 0.8963 0.56913 0.0
C2190 C 0.28157 0.88354 0.58733 0.0
C2191 C 0.30086 0.8785 0.59607 0.0
C2192 C 0.27891 0.90323 0.58027 0.0
C2193 C 0.31739 0.89374 0.59823 0.0
C2194 C 0.31477 0.91359 0.59152 0.0
C2195 C 0.293 0.93802 0.57466 0.0
C2196 C 0.274 0.94226 0.56461 0.0
C2197 C 0.29564 0.91844 0.5823 0.0
C2198 C 0.25748 0.92704 0.56292 0.0
C2199 C 0.25986 0.90777 0.57078 0.0
H2200 H 0.28648 0.13712 0.01902 0.0
H2201 H 0.23446 0.14848 0.97726 0.0
H2202 H 0.23323 0.11272 0.96274 0.0
H2203 H 0.24861 0.07907 0.96008 0.0
H2204 H 0.30125 0.06812 0.00113 0.0
H2205 H 0.30032 0.10278 0.01798 0.0
C2206 C 0.27471 0.13175 0.00689 0.0
C2207 C 0.26071 0.14556 -0.00089 0.0
C2208 C 0.27425 0.11124 -0.00156 0.0
C2209 C 0.24549 0.13824 0.98349 0.0
C2210 C 0.24481 0.1178 0.97513 0.0
C2211 C 0.25985 0.08427 0.97275 0.0
C2212 C 0.2751 0.07109 0.9792 0.0
C2213 C 0.25941 0.10431 0.98216 0.0
C2214 C 0.28928 0.07788 -0.00407 0.0
C2215 C 0.28885 0.09776 0.00547 0.0
H2216 H 0.41705 0.64308 0.60105 0.0
H2217 H 0.44385 0.70599 0.60713 0.0
H2218 H 0.45979 0.70053 0.57433 0.0
H2219 H 0.46467 0.67853 0.54307 0.0
H2220 H 0.43665 0.61617 0.53613 0.0
H2221 H 0.42232 0.6209 0.56997 0.0
C2222 C 0.42646 0.65558 0.59526 0.0
C2223 C 0.42916 0.67495 0.60651 0.0
C2224 C 0.43519 0.65249 0.57614 0.0
C2225 C 0.44144 0.69094 0.59878 0.0
C2226 C 0.45054 0.68785 0.57999 0.0
C2227 C 0.45567 0.66587 0.54911 0.0
C2228 C 0.45179 0.647 0.53715 0.0
C2229 C 0.44732 0.66878 0.56843 0.0
C2230 C 0.43975 0.63089 0.54499 0.0
C2231 C 0.43162 0.63356 0.56435 0.0
H2232 H 0.01952 0.72321 0.35304 0.0
H2233 H 0.9747 0.67787 0.37287 0.0
H2234 H 0.98899 0.6843 0.40861 0.0
H2235 H 0.01472 0.70226 0.43425 0.0
H2236 H 0.05916 0.74793 0.41439 0.0
H2237 H 0.04462 0.74175 0.37873 0.0
C2238 C 0.01285 0.71473 0.36517 0.0
C2239 C -0.00392 0.70004 0.3602 0.0
C2240 C 0.02114 0.71849 0.38573 0.0
C2241 C 0.98762 0.68926 0.37618 0.0
C2242 C -0.00421 0.69292 0.39667 0.0
C2243 C 0.02108 0.71102 0.42216 0.0
C2244 C 0.03811 0.72545 0.42704 0.0
C2245 C 0.01259 0.70745 0.40163 0.0
C2246 C 0.04629 0.73648 0.41108 0.0
C2247 C 0.03792 0.73304 0.39067 0.0
H2248 H 0.57679 0.29981 0.86743 0.0
H2249 H 0.61931 0.25186 0.87504 0.0
H2250 H 0.60592 0.24489 0.90841 0.0
H2251 H 0.58186 0.25214 0.93534 0.0
H2252 H 0.53942 0.3001 0.92767 0.0
H2253 H 0.55301 0.30726 0.89442 0.0
C2254 C 0.58314 0.28782 0.87636 0.0
C2255 C 0.59904 0.27638 0.86869 0.0
C2256 C 0.57537 0.28387 0.89555 0.0
C2257 C 0.60706 0.26091 0.88052 0.0
C2258 C 0.59943 0.25691 0.89964 0.0
C2259 C 0.57575 0.2643 0.92648 0.0
C2260 C 0.55964 0.27555 0.93397 0.0
C2261 C 0.5836 0.26831 0.90732 0.0
C2262 C 0.55167 0.29106 0.92215 0.0
C2263 C 0.55948 0.29521 0.90317 0.0
H2264 H 0.97579 0.27609 0.14958 0.0
H2265 H 0.01611 0.33133 0.14727 0.0
H2266 H -0.00097 0.33821 0.11393 0.0
H2267 H 0.97264 0.32841 0.08529 0.0
H2268 H 0.93273 0.27295 0.08782 0.0
H2269 H 0.94961 0.26637 0.12124 0.0
C2270 C 0.98084 0.28968 0.14185 0.0
C2271 C -0.00277 0.30315 0.15093 0.0
C2272 C 0.97102 0.29351 0.12268 0.0
C2273 C 0.00354 0.32068 0.14064 0.0
C2274 C -0.0062 0.32463 0.12155 0.0
C2275 C 0.96777 0.31482 0.09311 0.0
C2276 C 0.95141 0.30124 0.08411 0.0
C2277 C 0.97757 0.3111 0.11238 0.0
C2278 C 0.9451 0.2838 0.09454 0.0
C2279 C 0.9548 0.27997 0.11361 0.0
loop_
_geom_bond_atom_site_label_1
_geom_bond_atom_site_label_2
_geom_bond_distance
_geom_bond_site_symmetry_2
_ccdc_geom_bond_type
O0 Cd1 2.300 . S
O0 C7 1.275 . S
Cd1 O0 2.300 . S
Cd1 O9 2.381 . S
Cd1 O10 2.378 . S
O2 Cd3 2.385 . S
O2 C7 1.255 . S
Cd3 O2 2.385 . S
Cd3 O4 2.317 . S
O4 Cd3 2.317 . S
O4 C5 1.232 . S
C5 O4 1.232 . S
C5 O6 1.218 . S
O6 C5 1.218 . S
C7 O0 1.275 . S
C7 O2 1.255 . S
C8 O9 1.258 . S
C8 O10 1.256 . S
O9 Cd1 2.381 . S
O9 C8 1.258 . S
O10 Cd1 2.378 . S
O10 C8 1.256 . S
O11 Cd12 2.300 . S
O11 C18 1.275 . S
Cd12 O11 2.300 . S
Cd12 O20 2.381 . S
Cd12 O21 2.378 . S
O13 Cd14 2.385 . S
O13 C18 1.255 . S
Cd14 O13 2.385 . S
Cd14 O15 2.317 . S
O15 Cd14 2.317 . S
O15 C16 1.232 . S
C16 O15 1.232 . S
C16 O17 1.218 . S
O17 C16 1.218 . S
C18 O11 1.275 . S
C18 O13 1.255 . S
C19 O20 1.258 . S
C19 O21 1.256 . S
O20 Cd12 2.381 . S
O20 C19 1.258 . S
O21 Cd12 2.378 . S
O21 C19 1.256 . S
O22 Cd23 2.300 . S
O22 C29 1.275 . S
Cd23 O22 2.300 . S
Cd23 O31 2.381 1_565 S
Cd23 O32 2.378 . S
O24 Cd25 2.385 . S
O24 C29 1.255 . S
Cd25 O24 2.385 . S
Cd25 O26 2.317 . S
O26 Cd25 2.317 . S
O26 C27 1.232 . S
C27 O26 1.232 . S
C27 O28 1.218 . S
O28 C27 1.218 . S
C29 O22 1.275 . S
C29 O24 1.255 . S
C30 O31 1.258 . S
C30 O32 1.256 1_545 S
O31 Cd23 2.381 1_545 S
O31 C30 1.258 . S
O32 Cd23 2.378 . S
O32 C30 1.256 1_565 S
O33 Cd34 2.300 . S
O33 C40 1.275 . S
Cd34 O33 2.300 . S
Cd34 O42 2.381 1_545 S
Cd34 O43 2.378 . S
O35 Cd36 2.385 . S
O35 C40 1.255 . S
Cd36 O35 2.385 . S
Cd36 O37 2.317 . S
O37 Cd36 2.317 . S
O37 C38 1.232 . S
C38 O37 1.232 . S
C38 O39 1.218 . S
O39 C38 1.218 . S
C40 O33 1.275 . S
C40 O35 1.255 . S
C41 O42 1.258 . S
C41 O43 1.256 1_565 S
O42 Cd34 2.381 1_565 S
O42 C41 1.258 . S
O43 Cd34 2.378 . S
O43 C41 1.256 1_545 S
O44 Cd45 2.300 . S
O44 C51 1.275 . S
Cd45 O44 2.300 . S
Cd45 O53 2.381 . S
Cd45 O54 2.378 . S
O46 Cd47 2.385 . S
O46 C51 1.255 . S
Cd47 O46 2.385 . S
Cd47 O48 2.317 . S
O48 Cd47 2.317 . S
O48 C49 1.232 . S
C49 O48 1.232 . S
C49 O50 1.218 . S
O50 C49 1.218 . S
C51 O44 1.275 . S
C51 O46 1.255 . S
C52 O53 1.258 . S
C52 O54 1.256 . S
O53 Cd45 2.381 . S
O53 C52 1.258 . S
O54 Cd45 2.378 . S
O54 C52 1.256 . S
O55 Cd56 2.300 . S
O55 C62 1.275 . S
Cd56 O55 2.300 . S
Cd56 O64 2.381 1_554 S
Cd56 O65 2.378 . S
O57 Cd58 2.385 . S
O57 C62 1.255 . S
Cd58 O57 2.385 . S
Cd58 O59 2.317 . S
O59 Cd58 2.317 . S
O59 C60 1.232 . S
C60 O59 1.232 . S
C60 O61 1.218 . S
O61 C60 1.218 . S
C62 O55 1.275 . S
C62 O57 1.255 . S
C63 O64 1.258 . S
C63 O65 1.256 1_556 S
O64 Cd56 2.381 1_556 S
O64 C63 1.258 . S
O65 Cd56 2.378 . S
O65 C63 1.256 1_554 S
O66 Cd67 2.300 . S
O66 C73 1.275 . S
Cd67 O66 2.300 . S
Cd67 O75 2.381 . S
Cd67 O76 2.378 . S
O68 Cd69 2.385 . S
O68 C73 1.255 . S
Cd69 O68 2.385 . S
Cd69 O70 2.317 . S
O70 Cd69 2.317 . S
O70 C71 1.232 . S
C71 O70 1.232 . S
C71 O72 1.218 . S
O72 C71 1.218 . S
C73 O66 1.275 . S
C73 O68 1.255 . S
C74 O75 1.258 . S
C74 O76 1.256 . S
O75 Cd67 2.381 . S
O75 C74 1.258 . S
O76 Cd67 2.378 . S
O76 C74 1.256 . S
O77 Cd78 2.300 . S
O77 C84 1.275 . S
Cd78 O77 2.300 . S
Cd78 O86 2.381 1_556 S
Cd78 O87 2.378 . S
O79 Cd80 2.385 . S
O79 C84 1.255 . S
Cd80 O79 2.385 . S
Cd80 O81 2.317 . S
O81 Cd80 2.317 . S
O81 C82 1.232 . S
C82 O81 1.232 . S
C82 O83 1.218 . S
O83 C82 1.218 . S
C84 O77 1.275 . S
C84 O79 1.255 . S
C85 O86 1.258 . S
C85 O87 1.256 1_554 S
O86 Cd78 2.381 1_554 S
O86 C85 1.258 . S
O87 Cd78 2.378 . S
O87 C85 1.256 1_556 S
O88 Cd89 2.300 . S
O88 C95 1.275 . S
Cd89 O88 2.300 . S
Cd89 O97 2.381 . S
Cd89 O98 2.378 . S
O90 Cd91 2.385 . S
O90 C95 1.255 . S
Cd91 O90 2.385 . S
Cd91 O92 2.317 . S
O92 Cd91 2.317 . S
O92 C93 1.232 . S
C93 O92 1.232 . S
C93 O94 1.218 . S
O94 C93 1.218 . S
C95 O88 1.275 . S
C95 O90 1.255 . S
C96 O97 1.258 . S
C96 O98 1.256 . S
O97 Cd89 2.381 . S
O97 C96 1.258 . S
O98 Cd89 2.378 . S
O98 C96 1.256 . S
O99 Cd100 2.300 . S
O99 C106 1.275 . S
Cd100 O99 2.300 . S
Cd100 O108 2.381 1_455 S
Cd100 O109 2.378 . S
O101 Cd102 2.385 . S
O101 C106 1.255 . S
Cd102 O101 2.385 . S
Cd102 O103 2.317 . S
O103 Cd102 2.317 . S
O103 C104 1.232 . S
C104 O103 1.232 . S
C104 O105 1.218 . S
O105 C104 1.218 . S
C106 O99 1.275 . S
C106 O101 1.255 . S
C107 O108 1.258 . S
C107 O109 1.256 1_655 S
O108 Cd100 2.381 1_655 S
O108 C107 1.258 . S
O109 Cd100 2.378 . S
O109 C107 1.256 1_455 S
O110 Cd111 2.300 . S
O110 C117 1.275 . S
Cd111 O110 2.300 . S
Cd111 O119 2.381 . S
Cd111 O120 2.378 . S
O112 Cd113 2.385 . S
O112 C117 1.255 . S
Cd113 O112 2.385 . S
Cd113 O114 2.317 . S
O114 Cd113 2.317 . S
O114 C115 1.232 . S
C115 O114 1.232 . S
C115 O116 1.218 . S
O116 C115 1.218 . S
C117 O110 1.275 . S
C117 O112 1.255 . S
C118 O119 1.258 . S
C118 O120 1.256 . S
O119 Cd111 2.381 . S
O119 C118 1.258 . S
O120 Cd111 2.378 . S
O120 C118 1.256 . S
O121 Cd122 2.300 . S
O121 C128 1.275 . S
Cd122 O121 2.300 . S
Cd122 O130 2.381 1_655 S
Cd122 O131 2.378 . S
O123 Cd124 2.385 . S
O123 C128 1.255 . S
Cd124 O123 2.385 . S
Cd124 O125 2.317 . S
O125 Cd124 2.317 . S
O125 C126 1.232 . S
C126 O125 1.232 . S
C126 O127 1.218 . S
O127 C126 1.218 . S
C128 O121 1.275 . S
C128 O123 1.255 . S
C129 O130 1.258 . S
C129 O131 1.256 1_455 S
O130 Cd122 2.381 1_455 S
O130 C129 1.258 . S
O131 Cd122 2.378 . S
O131 C129 1.256 1_655 S
O132 Cd133 2.300 . S
O132 C139 1.275 . S
Cd133 O132 2.300 . S
Cd133 O141 2.381 . S
Cd133 O142 2.378 . S
O134 Cd135 2.385 . S
O134 C139 1.255 . S
Cd135 O134 2.385 . S
Cd135 O136 2.317 . S
O136 Cd135 2.317 . S
O136 C137 1.232 . S
C137 O136 1.232 . S
C137 O138 1.218 . S
O138 C137 1.218 . S
C139 O132 1.275 . S
C139 O134 1.255 . S
C140 O141 1.258 . S
C140 O142 1.256 . S
O141 Cd133 2.381 . S
O141 C140 1.258 . S
O142 Cd133 2.378 . S
O142 C140 1.256 . S
O143 Cd144 2.300 . S
O143 C150 1.275 . S
Cd144 O143 2.300 . S
Cd144 O152 2.381 . S
Cd144 O153 2.378 . S
O145 Cd146 2.385 . S
O145 C150 1.255 . S
Cd146 O145 2.385 . S
Cd146 O147 2.317 . S
O147 Cd146 2.317 . S
O147 C148 1.232 . S
C148 O147 1.232 . S
C148 O149 1.218 . S
O149 C148 1.218 . S
C150 O143 1.275 . S
C150 O145 1.255 . S
C151 O152 1.258 . S
C151 O153 1.256 . S
O152 Cd144 2.381 . S
O152 C151 1.258 . S
O153 Cd144 2.378 . S
O153 C151 1.256 . S
O154 Cd155 2.300 1_545 S
O154 C161 1.275 . S
Cd155 O154 2.300 1_565 S
Cd155 O163 2.381 1_565 S
Cd155 O164 2.378 . S
O156 Cd157 2.385 . S
O156 C161 1.255 1_565 S
Cd157 O156 2.385 . S
Cd157 O158 2.317 . S
O158 Cd157 2.317 . S
O158 C159 1.232 . S
C159 O158 1.232 . S
C159 O160 1.218 . S
O160 C159 1.218 . S
C161 O154 1.275 . S
C161 O156 1.255 1_545 S
C162 O163 1.258 1_565 S
C162 O164 1.256 . S
O163 Cd155 2.381 1_545 S
O163 C162 1.258 1_545 S
O164 Cd155 2.378 . S
O164 C162 1.256 . S
O165 Cd166 2.300 1_565 S
O165 C172 1.275 . S
Cd166 O165 2.300 1_545 S
Cd166 O174 2.381 1_545 S
Cd166 O175 2.378 . S
O167 Cd168 2.385 . S
O167 C172 1.255 1_545 S
Cd168 O167 2.385 . S
Cd168 O169 2.317 . S
O169 Cd168 2.317 . S
O169 C170 1.232 . S
C170 O169 1.232 . S
C170 O171 1.218 . S
O171 C170 1.218 . S
C172 O165 1.275 . S
C172 O167 1.255 1_565 S
C173 O174 1.258 1_545 S
C173 O175 1.256 . S
O174 Cd166 2.381 1_565 S
O174 C173 1.258 1_565 S
O175 Cd166 2.378 . S
O175 C173 1.256 . S
O176 Cd177 2.300 . S
O176 C183 1.275 . S
Cd177 O176 2.300 . S
Cd177 O185 2.381 . S
Cd177 O186 2.378 . S
O178 Cd179 2.385 . S
O178 C183 1.255 . S
Cd179 O178 2.385 . S
Cd179 O180 2.317 . S
O180 Cd179 2.317 . S
O180 C181 1.232 . S
C181 O180 1.232 . S
C181 O182 1.218 . S
O182 C181 1.218 . S
C183 O176 1.275 . S
C183 O178 1.255 . S
C184 O185 1.258 . S
C184 O186 1.256 . S
O185 Cd177 2.381 . S
O185 C184 1.258 . S
O186 Cd177 2.378 . S
O186 C184 1.256 . S
O187 Cd188 2.300 1_556 S
O187 C194 1.275 . S
Cd188 O187 2.300 1_554 S
Cd188 O196 2.381 1_554 S
Cd188 O197 2.378 . S
O189 Cd190 2.385 . S
O189 C194 1.255 1_554 S
Cd190 O189 2.385 . S
Cd190 O191 2.317 . S
O191 Cd190 2.317 . S
O191 C192 1.232 . S
C192 O191 1.232 . S
C192 O193 1.218 . S
O193 C192 1.218 . S
C194 O187 1.275 . S
C194 O189 1.255 1_556 S
C195 O196 1.258 1_554 S
C195 O197 1.256 . S
O196 Cd188 2.381 1_556 S
O196 C195 1.258 1_556 S
O197 Cd188 2.378 . S
O197 C195 1.256 . S
O198 Cd199 2.300 . S
O198 C205 1.275 . S
Cd199 O198 2.300 . S
Cd199 O207 2.381 . S
Cd199 O208 2.378 . S
O200 Cd201 2.385 . S
O200 C205 1.255 . S
Cd201 O200 2.385 . S
Cd201 O202 2.317 . S
O202 Cd201 2.317 . S
O202 C203 1.232 . S
C203 O202 1.232 . S
C203 O204 1.218 . S
O204 C203 1.218 . S
C205 O198 1.275 . S
C205 O200 1.255 . S
C206 O207 1.258 . S
C206 O208 1.256 . S
O207 Cd199 2.381 . S
O207 C206 1.258 . S
O208 Cd199 2.378 . S
O208 C206 1.256 . S
O209 Cd210 2.300 1_554 S
O209 C216 1.275 . S
Cd210 O209 2.300 1_556 S
Cd210 O218 2.381 1_556 S
Cd210 O219 2.378 . S
O211 Cd212 2.385 . S
O211 C216 1.255 1_556 S
Cd212 O211 2.385 . S
Cd212 O213 2.317 . S
O213 Cd212 2.317 . S
O213 C214 1.232 . S
C214 O213 1.232 . S
C214 O215 1.218 . S
O215 C214 1.218 . S
C216 O209 1.275 . S
C216 O211 1.255 1_554 S
C217 O218 1.258 1_556 S
C217 O219 1.256 . S
O218 Cd210 2.381 1_554 S
O218 C217 1.258 1_554 S
O219 Cd210 2.378 . S
O219 C217 1.256 . S
O220 Cd221 2.300 . S
O220 C227 1.275 . S
Cd221 O220 2.300 . S
Cd221 O229 2.381 . S
Cd221 O230 2.378 . S
O222 Cd223 2.385 . S
O222 C227 1.255 . S
Cd223 O222 2.385 . S
Cd223 O224 2.317 . S
O224 Cd223 2.317 . S
O224 C225 1.232 . S
C225 O224 1.232 . S
C225 O226 1.218 . S
O226 C225 1.218 . S
C227 O220 1.275 . S
C227 O222 1.255 . S
C228 O229 1.258 . S
C228 O230 1.256 . S
O229 Cd221 2.381 . S
O229 C228 1.258 . S
O230 Cd221 2.378 . S
O230 C228 1.256 . S
O231 Cd232 2.300 1_655 S
O231 C238 1.275 . S
Cd232 O231 2.300 1_455 S
Cd232 O240 2.381 1_455 S
Cd232 O241 2.378 . S
O233 Cd234 2.385 . S
O233 C238 1.255 1_455 S
Cd234 O233 2.385 . S
Cd234 O235 2.317 . S
O235 Cd234 2.317 . S
O235 C236 1.232 . S
C236 O235 1.232 . S
C236 O237 1.218 . S
O237 C236 1.218 . S
C238 O231 1.275 . S
C238 O233 1.255 1_655 S
C239 O240 1.258 1_455 S
C239 O241 1.256 . S
O240 Cd232 2.381 1_655 S
O240 C239 1.258 1_655 S
O241 Cd232 2.378 . S
O241 C239 1.256 . S
O242 Cd243 2.300 . S
O242 C249 1.275 . S
Cd243 O242 2.300 . S
Cd243 O251 2.381 . S
Cd243 O252 2.378 . S
O244 Cd245 2.385 . S
O244 C249 1.255 . S
Cd245 O244 2.385 . S
Cd245 O246 2.317 . S
O246 Cd245 2.317 . S
O246 C247 1.232 . S
C247 O246 1.232 . S
C247 O248 1.218 . S
O248 C247 1.218 . S
C249 O242 1.275 . S
C249 O244 1.255 . S
C250 O251 1.258 . S
C250 O252 1.256 . S
O251 Cd243 2.381 . S
O251 C250 1.258 . S
O252 Cd243 2.378 . S
O252 C250 1.256 . S
O253 Cd254 2.300 1_455 S
O253 C260 1.275 . S
Cd254 O253 2.300 1_655 S
Cd254 O262 2.381 1_655 S
Cd254 O263 2.378 . S
O255 Cd256 2.385 . S
O255 C260 1.255 1_655 S
Cd256 O255 2.385 . S
Cd256 O257 2.317 . S
O257 Cd256 2.317 . S
O257 C258 1.232 . S
C258 O257 1.232 . S
C258 O259 1.218 . S
O259 C258 1.218 . S
C260 O253 1.275 . S
C260 O255 1.255 1_455 S
C261 O262 1.258 1_655 S
C261 O263 1.256 . S
O262 Cd254 2.381 1_455 S
O262 C261 1.258 1_455 S
O263 Cd254 2.378 . S
O263 C261 1.256 . S
C264 C265 1.384 . S
C264 H277 0.947 . S
C264 C299 1.382 . S
C265 C264 1.384 . S
C265 C266 1.378 . S
C266 C265 1.378 . S
C266 C267 1.378 . S
C266 H278 0.952 . S
C267 C266 1.378 . S
C267 H279 0.950 . S
C267 C298 1.383 . S
H268 C287 0.947 . S
H269 C288 0.946 . S
H270 C290 0.953 . S
H271 C291 0.945 . S
H272 C293 0.952 . S
H273 C294 0.949 . S
H274 C296 0.950 . S
H275 C297 0.948 . S
H276 C299 0.951 . S
H277 C264 0.947 . S
H278 C266 0.952 . S
H279 C267 0.950 . S
N280 C283 1.382 . S
N280 C285 1.363 . S
N281 C283 1.371 . S
N281 C284 1.372 . S
N282 C284 1.361 . S
N282 C285 1.377 . S
C283 N280 1.382 . S
C283 N281 1.371 . S
C283 C286 1.480 . S
C284 N281 1.372 . S
C284 N282 1.361 . S
C284 C292 1.457 . S
C285 N280 1.363 . S
C285 N282 1.377 . S
C285 C298 1.479 . S
C286 C283 1.480 . S
C286 C287 1.383 . S
C286 C291 1.385 . S
C287 H268 0.947 . S
C287 C286 1.383 . S
C287 C288 1.388 . S
C288 H269 0.946 . S
C288 C287 1.388 . S
C288 C289 1.384 . S
C289 C288 1.384 . S
C289 C290 1.377 . S
C290 H270 0.953 . S
C290 C289 1.377 . S
C290 C291 1.369 . S
C291 H271 0.945 . S
C291 C286 1.385 . S
C291 C290 1.369 . S
C292 C284 1.457 . S
C292 C293 1.372 . S
C292 C297 1.364 . S
C293 H272 0.952 . S
C293 C292 1.372 . S
C293 C294 1.389 . S
C294 H273 0.949 . S
C294 C293 1.389 . S
C294 C295 1.387 . S
C295 C294 1.387 . S
C295 C296 1.372 . S
C296 H274 0.950 . S
C296 C295 1.372 . S
C296 C297 1.379 . S
C297 H275 0.948 . S
C297 C292 1.364 . S
C297 C296 1.379 . S
C298 C267 1.383 . S
C298 C285 1.479 . S
C298 C299 1.398 . S
C299 C264 1.382 . S
C299 H276 0.951 . S
C299 C298 1.398 . S
C300 C301 1.384 . S
C300 H313 0.947 . S
C300 C335 1.382 . S
C301 C300 1.384 . S
C301 C302 1.378 . S
C302 C301 1.378 . S
C302 C303 1.378 . S
C302 H314 0.952 . S
C303 C302 1.378 . S
C303 H315 0.950 . S
C303 C334 1.383 . S
H304 C323 0.947 . S
H305 C324 0.946 . S
H306 C326 0.953 . S
H307 C327 0.945 . S
H308 C329 0.952 . S
H309 C330 0.949 . S
H310 C332 0.950 . S
H311 C333 0.948 . S
H312 C335 0.951 . S
H313 C300 0.947 . S
H314 C302 0.952 . S
H315 C303 0.950 . S
N316 C319 1.382 . S
N316 C321 1.363 . S
N317 C319 1.371 . S
N317 C320 1.372 . S
N318 C320 1.361 . S
N318 C321 1.377 . S
C319 N316 1.382 . S
C319 N317 1.371 . S
C319 C322 1.480 . S
C320 N317 1.372 . S
C320 N318 1.361 . S
C320 C328 1.457 . S
C321 N316 1.363 . S
C321 N318 1.377 . S
C321 C334 1.479 . S
C322 C319 1.480 . S
C322 C323 1.383 . S
C322 C327 1.385 . S
C323 H304 0.947 . S
C323 C322 1.383 . S
C323 C324 1.388 . S
C324 H305 0.946 . S
C324 C323 1.388 . S
C324 C325 1.384 . S
C325 C324 1.384 . S
C325 C326 1.377 . S
C326 H306 0.953 . S
C326 C325 1.377 . S
C326 C327 1.369 . S
C327 H307 0.945 . S
C327 C322 1.385 . S
C327 C326 1.369 . S
C328 C320 1.457 . S
C328 C329 1.372 . S
C328 C333 1.364 . S
C329 H308 0.952 . S
C329 C328 1.372 . S
C329 C330 1.389 . S
C330 H309 0.949 . S
C330 C329 1.389 . S
C330 C331 1.387 . S
C331 C330 1.387 . S
C331 C332 1.372 . S
C332 H310 0.950 . S
C332 C331 1.372 . S
C332 C333 1.379 . S
C333 H311 0.948 . S
C333 C328 1.364 . S
C333 C332 1.379 . S
C334 C303 1.383 . S
C334 C321 1.479 . S
C334 C335 1.398 . S
C335 C300 1.382 . S
C335 H312 0.951 . S
C335 C334 1.398 . S
C336 C337 1.384 . S
C336 H349 0.947 . S
C336 C371 1.382 . S
C337 C336 1.384 . S
C337 C338 1.378 . S
C338 C337 1.378 . S
C338 C339 1.378 . S
C338 H350 0.952 . S
C339 C338 1.378 . S
C339 H351 0.950 . S
C339 C370 1.383 . S
H340 C359 0.947 . S
H341 C360 0.946 . S
H342 C362 0.953 . S
H343 C363 0.945 . S
H344 C365 0.952 . S
H345 C366 0.949 . S
H346 C368 0.950 . S
H347 C369 0.948 . S
H348 C371 0.951 . S
H349 C336 0.947 . S
H350 C338 0.952 . S
H351 C339 0.950 . S
N352 C355 1.382 1_565 S
N352 C357 1.363 . S
N353 C355 1.371 . S
N353 C356 1.372 . S
N354 C356 1.361 1_565 S
N354 C357 1.377 . S
C355 N352 1.382 1_545 S
C355 N353 1.371 . S
C355 C358 1.480 . S
C356 N353 1.372 . S
C356 N354 1.361 1_545 S
C356 C364 1.457 . S
C357 N352 1.363 . S
C357 N354 1.377 . S
C357 C370 1.479 . S
C358 C355 1.480 . S
C358 C359 1.383 . S
C358 C363 1.385 . S
C359 H340 0.947 . S
C359 C358 1.383 . S
C359 C360 1.388 . S
C360 H341 0.946 . S
C360 C359 1.388 . S
C360 C361 1.384 . S
C361 C360 1.384 . S
C361 C362 1.377 . S
C362 H342 0.953 . S
C362 C361 1.377 . S
C362 C363 1.369 . S
C363 H343 0.945 . S
C363 C358 1.385 . S
C363 C362 1.369 . S
C364 C356 1.457 . S
C364 C365 1.372 . S
C364 C369 1.364 1_545 S
C365 H344 0.952 . S
C365 C364 1.372 . S
C365 C366 1.389 . S
C366 H345 0.949 . S
C366 C365 1.389 . S
C366 C367 1.387 . S
C367 C366 1.387 . S
C367 C368 1.372 1_545 S
C368 H346 0.950 . S
C368 C367 1.372 1_565 S
C368 C369 1.379 . S
C369 H347 0.948 . S
C369 C364 1.364 1_565 S
C369 C368 1.379 . S
C370 C339 1.383 . S
C370 C357 1.479 . S
C370 C371 1.398 . S
C371 C336 1.382 . S
C371 H348 0.951 . S
C371 C370 1.398 . S
C372 C373 1.384 . S
C372 H385 0.947 . S
C372 C407 1.382 . S
C373 C372 1.384 . S
C373 C374 1.378 . S
C374 C373 1.378 . S
C374 C375 1.378 . S
C374 H386 0.952 . S
C375 C374 1.378 . S
C375 H387 0.950 . S
C375 C406 1.383 . S
H376 C395 0.947 . S
H377 C396 0.946 . S
H378 C398 0.953 . S
H379 C399 0.945 . S
H380 C401 0.952 . S
H381 C402 0.949 . S
H382 C404 0.950 . S
H383 C405 0.948 . S
H384 C407 0.951 . S
H385 C372 0.947 . S
H386 C374 0.952 . S
H387 C375 0.950 . S
N388 C391 1.368 1_565 S
N388 C393 1.378 . S
N389 C391 1.371 . S
N389 C392 1.372 . S
N390 C392 1.361 1_565 S
N390 C393 1.377 . S
C391 N388 1.368 1_545 S
C391 N389 1.371 . S
C391 C394 1.480 . S
C392 N389 1.372 . S
C392 N390 1.361 1_545 S
C392 C400 1.464 . S
C393 N388 1.378 . S
C393 N390 1.377 . S
C393 C406 1.479 . S
C394 C391 1.480 . S
C394 C395 1.383 . S
C394 C399 1.385 . S
C395 H376 0.947 . S
C395 C394 1.383 . S
C395 C396 1.388 . S
C396 H377 0.946 . S
C396 C395 1.388 . S
C396 C397 1.384 . S
C397 C396 1.384 . S
C397 C398 1.377 . S
C398 H378 0.953 . S
C398 C397 1.377 . S
C398 C399 1.369 . S
C399 H379 0.945 . S
C399 C394 1.385 . S
C399 C398 1.369 . S
C400 C392 1.464 . S
C400 C401 1.420 . S
C400 C405 1.313 1_545 S
C401 H380 0.952 . S
C401 C400 1.420 . S
C401 C402 1.389 . S
C402 H381 0.949 . S
C402 C401 1.389 . S
C402 C403 1.387 . S
C403 C402 1.387 . S
C403 C404 1.372 1_545 S
C404 H382 0.950 . S
C404 C403 1.372 1_565 S
C404 C405 1.379 . S
C405 H383 0.948 . S
C405 C400 1.313 1_565 S
C405 C404 1.379 . S
C406 C375 1.383 . S
C406 C393 1.479 . S
C406 C407 1.398 . S
C407 C372 1.382 . S
C407 H384 0.951 . S
C407 C406 1.398 . S
C408 C409 1.384 . S
C408 H421 0.947 . S
C408 C443 1.382 . S
C409 C408 1.384 . S
C409 C410 1.378 . S
C410 C409 1.378 . S
C410 C411 1.378 . S
C410 H422 0.952 . S
C411 C410 1.378 . S
C411 H423 0.950 . S
C411 C442 1.383 . S
H412 C431 0.947 . S
H413 C432 0.946 . S
H414 C434 0.953 . S
H415 C435 0.945 . S
H416 C437 0.952 . S
H417 C438 0.949 . S
H418 C440 0.950 . S
H419 C441 0.948 . S
H420 C443 0.951 . S
H421 C408 0.947 . S
H422 C410 0.952 . S
H423 C411 0.950 . S
N424 C427 1.382 . S
N424 C429 1.363 . S
N425 C427 1.371 . S
N425 C428 1.372 . S
N426 C428 1.361 . S
N426 C429 1.377 . S
C427 N424 1.382 . S
C427 N425 1.371 . S
C427 C430 1.480 . S
C428 N425 1.372 . S
C428 N426 1.361 . S
C428 C436 1.457 . S
C429 N424 1.363 . S
C429 N426 1.377 . S
C429 C442 1.479 . S
C430 C427 1.480 . S
C430 C431 1.383 . S
C430 C435 1.385 . S
C431 H412 0.947 . S
C431 C430 1.383 . S
C431 C432 1.388 . S
C432 H413 0.946 . S
C432 C431 1.388 . S
C432 C433 1.384 . S
C433 C432 1.384 . S
C433 C434 1.377 . S
C434 H414 0.953 . S
C434 C433 1.377 . S
C434 C435 1.369 . S
C435 H415 0.945 . S
C435 C430 1.385 . S
C435 C434 1.369 . S
C436 C428 1.457 . S
C436 C437 1.372 . S
C436 C441 1.364 . S
C437 H416 0.952 . S
C437 C436 1.372 . S
C437 C438 1.389 . S
C438 H417 0.949 . S
C438 C437 1.389 . S
C438 C439 1.387 . S
C439 C438 1.387 . S
C439 C440 1.372 . S
C440 H418 0.950 . S
C440 C439 1.372 . S
C440 C441 1.379 . S
C441 H419 0.948 . S
C441 C436 1.364 . S
C441 C440 1.379 . S
C442 C411 1.383 . S
C442 C429 1.479 . S
C442 C443 1.398 . S
C443 C408 1.382 . S
C443 H420 0.951 . S
C443 C442 1.398 . S
C444 C445 1.384 . S
C444 H457 0.947 . S
C444 C479 1.382 . S
C445 C444 1.384 . S
C445 C446 1.378 . S
C446 C445 1.378 . S
C446 C447 1.378 . S
C446 H458 0.952 . S
C447 C446 1.378 . S
C447 H459 0.950 . S
C447 C478 1.383 . S
H448 C467 0.947 . S
H449 C468 0.946 . S
H450 C470 0.953 . S
H451 C471 0.945 . S
H452 C473 0.952 . S
H453 C474 0.949 . S
H454 C476 0.950 . S
H455 C477 0.948 . S
H456 C479 0.951 . S
H457 C444 0.947 . S
H458 C446 0.952 . S
H459 C447 0.950 . S
N460 C463 1.416 . S
N460 C465 1.332 1_556 S
N461 C463 1.371 . S
N461 C464 1.416 . S
N462 C464 1.313 1_554 S
N462 C465 1.377 . S
C463 N460 1.416 . S
C463 N461 1.371 . S
C463 C466 1.480 . S
C464 N461 1.416 . S
C464 N462 1.313 1_556 S
C464 C472 1.460 1_556 S
C465 N460 1.332 1_554 S
C465 N462 1.377 . S
C465 C478 1.479 . S
C466 C463 1.480 . S
C466 C467 1.383 . S
C466 C471 1.385 . S
C467 H448 0.947 . S
C467 C466 1.383 . S
C467 C468 1.388 . S
C468 H449 0.946 . S
C468 C467 1.388 . S
C468 C469 1.384 . S
C469 C468 1.384 . S
C469 C470 1.377 . S
C470 H450 0.953 . S
C470 C469 1.377 . S
C470 C471 1.369 . S
C471 H451 0.945 . S
C471 C466 1.385 . S
C471 C470 1.369 . S
C472 C464 1.460 1_554 S
C472 C473 1.341 1_554 S
C472 C477 1.394 . S
C473 H452 0.952 . S
C473 C472 1.341 1_556 S
C473 C474 1.389 . S
C474 H453 0.949 . S
C474 C473 1.389 . S
C474 C475 1.387 1_556 S
C475 C474 1.387 1_554 S
C475 C476 1.372 . S
C476 H454 0.950 . S
C476 C475 1.372 . S
C476 C477 1.379 . S
C477 H455 0.948 . S
C477 C472 1.394 . S
C477 C476 1.379 . S
C478 C447 1.383 . S
C478 C465 1.479 . S
C478 C479 1.398 . S
C479 C444 1.382 . S
C479 H456 0.951 . S
C479 C478 1.398 . S
C480 C481 1.384 . S
C480 H493 0.947 . S
C480 C515 1.382 . S
C481 C480 1.384 . S
C481 C482 1.378 . S
C482 C481 1.378 . S
C482 C483 1.378 . S
C482 H494 0.952 . S
C483 C482 1.378 . S
C483 H495 0.950 . S
C483 C514 1.383 . S
H484 C503 0.947 . S
H485 C504 0.946 . S
H486 C506 0.953 . S
H487 C507 0.945 . S
H488 C509 0.952 . S
H489 C510 0.949 . S
H490 C512 0.950 . S
H491 C513 0.948 . S
H492 C515 0.951 . S
H493 C480 0.947 . S
H494 C482 0.952 . S
H495 C483 0.950 . S
N496 C499 1.382 . S
N496 C501 1.363 . S
N497 C499 1.371 . S
N497 C500 1.372 . S
N498 C500 1.361 . S
N498 C501 1.377 . S
C499 N496 1.382 . S
C499 N497 1.371 . S
C499 C502 1.480 . S
C500 N497 1.372 . S
C500 N498 1.361 . S
C500 C508 1.457 . S
C501 N496 1.363 . S
C501 N498 1.377 . S
C501 C514 1.479 . S
C502 C499 1.480 . S
C502 C503 1.383 . S
C502 C507 1.385 . S
C503 H484 0.947 . S
C503 C502 1.383 . S
C503 C504 1.388 . S
C504 H485 0.946 . S
C504 C503 1.388 . S
C504 C505 1.384 . S
C505 C504 1.384 . S
C505 C506 1.377 . S
C506 H486 0.953 . S
C506 C505 1.377 . S
C506 C507 1.369 . S
C507 H487 0.945 . S
C507 C502 1.385 . S
C507 C506 1.369 . S
C508 C500 1.457 . S
C508 C509 1.372 . S
C508 C513 1.364 . S
C509 H488 0.952 . S
C509 C508 1.372 . S
C509 C510 1.389 . S
C510 H489 0.949 . S
C510 C509 1.389 . S
C510 C511 1.387 . S
C511 C510 1.387 . S
C511 C512 1.372 . S
C512 H490 0.950 . S
C512 C511 1.372 . S
C512 C513 1.379 . S
C513 H491 0.948 . S
C513 C508 1.364 . S
C513 C512 1.379 . S
C514 C483 1.383 . S
C514 C501 1.479 . S
C514 C515 1.398 . S
C515 C480 1.382 . S
C515 H492 0.951 . S
C515 C514 1.398 . S
C516 C517 1.384 . S
C516 H529 0.947 . S
C516 C551 1.382 . S
C517 C516 1.384 . S
C517 C518 1.378 . S
C518 C517 1.378 . S
C518 C519 1.378 . S
C518 H530 0.952 . S
C519 C518 1.378 . S
C519 H531 0.950 . S
C519 C550 1.383 . S
H520 C539 0.947 . S
H521 C540 0.946 . S
H522 C542 0.953 . S
H523 C543 0.945 . S
H524 C545 0.952 . S
H525 C546 0.949 . S
H526 C548 0.950 . S
H527 C549 0.948 . S
H528 C551 0.951 . S
H529 C516 0.947 . S
H530 C518 0.952 . S
H531 C519 0.950 . S
N532 C535 1.382 1_556 S
N532 C537 1.363 . S
N533 C535 1.371 . S
N533 C536 1.372 . S
N534 C536 1.361 1_556 S
N534 C537 1.377 . S
C535 N532 1.382 1_554 S
C535 N533 1.371 . S
C535 C538 1.480 . S
C536 N533 1.372 . S
C536 N534 1.361 1_554 S
C536 C544 1.457 . S
C537 N532 1.363 . S
C537 N534 1.377 . S
C537 C550 1.479 . S
C538 C535 1.480 . S
C538 C539 1.383 . S
C538 C543 1.385 . S
C539 H520 0.947 . S
C539 C538 1.383 . S
C539 C540 1.388 . S
C540 H521 0.946 . S
C540 C539 1.388 . S
C540 C541 1.384 . S
C541 C540 1.384 . S
C541 C542 1.377 . S
C542 H522 0.953 . S
C542 C541 1.377 . S
C542 C543 1.369 . S
C543 H523 0.945 . S
C543 C538 1.385 . S
C543 C542 1.369 . S
C544 C536 1.457 . S
C544 C545 1.372 . S
C544 C549 1.364 1_554 S
C545 H524 0.952 . S
C545 C544 1.372 . S
C545 C546 1.389 . S
C546 H525 0.949 . S
C546 C545 1.389 . S
C546 C547 1.387 . S
C547 C546 1.387 . S
C547 C548 1.372 1_554 S
C548 H526 0.950 . S
C548 C547 1.372 1_556 S
C548 C549 1.379 . S
C549 H527 0.948 . S
C549 C544 1.364 1_556 S
C549 C548 1.379 . S
C550 C519 1.383 . S
C550 C537 1.479 . S
C550 C551 1.398 . S
C551 C516 1.382 . S
C551 H528 0.951 . S
C551 C550 1.398 . S
C552 C553 1.384 . S
C552 H565 0.947 . S
C552 C587 1.382 . S
C553 C552 1.384 . S
C553 C554 1.378 . S
C554 C553 1.378 . S
C554 C555 1.378 . S
C554 H566 0.952 . S
C555 C554 1.378 . S
C555 H567 0.950 . S
C555 C586 1.383 . S
H556 C575 0.947 . S
H557 C576 0.946 . S
H558 C578 0.953 . S
H559 C579 0.945 . S
H560 C581 0.952 . S
H561 C582 0.949 . S
H562 C584 0.950 . S
H563 C585 0.948 . S
H564 C587 0.951 . S
H565 C552 0.947 . S
H566 C554 0.952 . S
H567 C555 0.950 . S
N568 C571 1.382 . S
N568 C573 1.363 . S
N569 C571 1.371 . S
N569 C572 1.372 . S
N570 C572 1.361 . S
N570 C573 1.377 . S
C571 N568 1.382 . S
C571 N569 1.371 . S
C571 C574 1.480 . S
C572 N569 1.372 . S
C572 N570 1.361 . S
C572 C580 1.457 . S
C573 N568 1.363 . S
C573 N570 1.377 . S
C573 C586 1.479 . S
C574 C571 1.480 . S
C574 C575 1.383 . S
C574 C579 1.385 . S
C575 H556 0.947 . S
C575 C574 1.383 . S
C575 C576 1.388 . S
C576 H557 0.946 . S
C576 C575 1.388 . S
C576 C577 1.384 . S
C577 C576 1.384 . S
C577 C578 1.377 . S
C578 H558 0.953 . S
C578 C577 1.377 . S
C578 C579 1.369 . S
C579 H559 0.945 . S
C579 C574 1.385 . S
C579 C578 1.369 . S
C580 C572 1.457 . S
C580 C581 1.372 . S
C580 C585 1.364 . S
C581 H560 0.952 . S
C581 C580 1.372 . S
C581 C582 1.389 . S
C582 H561 0.949 . S
C582 C581 1.389 . S
C582 C583 1.387 . S
C583 C582 1.387 . S
C583 C584 1.372 . S
C584 H562 0.950 . S
C584 C583 1.372 . S
C584 C585 1.379 . S
C585 H563 0.948 . S
C585 C580 1.364 . S
C585 C584 1.379 . S
C586 C555 1.383 . S
C586 C573 1.479 . S
C586 C587 1.398 . S
C587 C552 1.382 . S
C587 H564 0.951 . S
C587 C586 1.398 . S
C588 C589 1.384 . S
C588 H601 0.947 . S
C588 C623 1.382 . S
C589 C588 1.384 . S
C589 C590 1.378 . S
C590 C589 1.378 . S
C590 C591 1.378 . S
C590 H602 0.952 . S
C591 C590 1.378 . S
C591 H603 0.950 . S
C591 C622 1.383 . S
H592 C611 0.947 . S
H593 C612 0.946 . S
H594 C614 0.953 . S
H595 C615 0.945 . S
H596 C617 0.952 . S
H597 C618 0.949 . S
H598 C620 0.950 . S
H599 C621 0.948 . S
H600 C623 0.951 . S
H601 C588 0.947 . S
H602 C590 0.952 . S
H603 C591 0.950 . S
N604 C607 1.415 . S
N604 C609 1.332 1_655 S
N605 C607 1.371 . S
N605 C608 1.416 . S
N606 C608 1.314 1_455 S
N606 C609 1.377 . S
C607 N604 1.415 . S
C607 N605 1.371 . S
C607 C610 1.480 . S
C608 N605 1.416 . S
C608 N606 1.314 1_655 S
C608 C616 1.460 1_655 S
C609 N604 1.332 1_455 S
C609 N606 1.377 . S
C609 C622 1.479 . S
C610 C607 1.480 . S
C610 C611 1.383 . S
C610 C615 1.385 . S
C611 H592 0.947 . S
C611 C610 1.383 . S
C611 C612 1.388 . S
C612 H593 0.946 . S
C612 C611 1.388 . S
C612 C613 1.384 . S
C613 C612 1.384 . S
C613 C614 1.377 . S
C614 H594 0.953 . S
C614 C613 1.377 . S
C614 C615 1.369 . S
C615 H595 0.945 . S
C615 C610 1.385 . S
C615 C614 1.369 . S
C616 C608 1.460 1_455 S
C616 C617 1.340 1_455 S
C616 C621 1.395 . S
C617 H596 0.952 . S
C617 C616 1.340 1_655 S
C617 C618 1.389 . S
C618 H597 0.949 . S
C618 C617 1.389 . S
C618 C619 1.387 1_655 S
C619 C618 1.387 1_455 S
C619 C620 1.372 . S
C620 H598 0.950 . S
C620 C619 1.372 . S
C620 C621 1.379 . S
C621 H599 0.948 . S
C621 C616 1.395 . S
C621 C620 1.379 . S
C622 C591 1.383 . S
C622 C609 1.479 . S
C622 C623 1.398 . S
C623 C588 1.382 . S
C623 H600 0.951 . S
C623 C622 1.398 . S
C624 C625 1.384 . S
C624 H637 0.947 . S
C624 C659 1.382 . S
C625 C624 1.384 . S
C625 C626 1.378 . S
C626 C625 1.378 . S
C626 C627 1.378 . S
C626 H638 0.952 . S
C627 C626 1.378 . S
C627 H639 0.950 . S
C627 C658 1.383 . S
H628 C647 0.947 . S
H629 C648 0.946 . S
H630 C650 0.953 . S
H631 C651 0.945 . S
H632 C653 0.952 . S
H633 C654 0.949 . S
H634 C656 0.950 . S
H635 C657 0.948 . S
H636 C659 0.951 . S
H637 C624 0.947 . S
H638 C626 0.952 . S
H639 C627 0.950 . S
N640 C643 1.382 . S
N640 C645 1.363 . S
N641 C643 1.371 . S
N641 C644 1.372 . S
N642 C644 1.361 . S
N642 C645 1.377 . S
C643 N640 1.382 . S
C643 N641 1.371 . S
C643 C646 1.480 . S
C644 N641 1.372 . S
C644 N642 1.361 . S
C644 C652 1.457 . S
C645 N640 1.363 . S
C645 N642 1.377 . S
C645 C658 1.479 . S
C646 C643 1.480 . S
C646 C647 1.383 . S
C646 C651 1.385 . S
C647 H628 0.947 . S
C647 C646 1.383 . S
C647 C648 1.388 . S
C648 H629 0.946 . S
C648 C647 1.388 . S
C648 C649 1.384 . S
C649 C648 1.384 . S
C649 C650 1.377 . S
C650 H630 0.953 . S
C650 C649 1.377 . S
C650 C651 1.369 . S
C651 H631 0.945 . S
C651 C646 1.385 . S
C651 C650 1.369 . S
C652 C644 1.457 . S
C652 C653 1.372 . S
C652 C657 1.364 . S
C653 H632 0.952 . S
C653 C652 1.372 . S
C653 C654 1.389 . S
C654 H633 0.949 . S
C654 C653 1.389 . S
C654 C655 1.387 . S
C655 C654 1.387 . S
C655 C656 1.372 . S
C656 H634 0.950 . S
C656 C655 1.372 . S
C656 C657 1.379 . S
C657 H635 0.948 . S
C657 C652 1.364 . S
C657 C656 1.379 . S
C658 C627 1.383 . S
C658 C645 1.479 . S
C658 C659 1.398 . S
C659 C624 1.382 . S
C659 H636 0.951 . S
C659 C658 1.398 . S
C660 C661 1.384 . S
C660 H673 0.947 . S
C660 C695 1.382 . S
C661 C660 1.384 . S
C661 C662 1.378 . S
C662 C661 1.378 . S
C662 C663 1.378 . S
C662 H674 0.952 . S
C663 C662 1.378 . S
C663 H675 0.950 . S
C663 C694 1.383 . S
H664 C683 0.947 . S
H665 C684 0.946 . S
H666 C686 0.953 . S
H667 C687 0.945 . S
H668 C689 0.952 . S
H669 C690 0.949 . S
H670 C692 0.950 . S
H671 C693 0.948 . S
H672 C695 0.951 . S
H673 C660 0.947 . S
H674 C662 0.952 . S
H675 C663 0.950 . S
N676 C679 1.382 1_655 S
N676 C681 1.363 . S
N677 C679 1.371 . S
N677 C680 1.372 . S
N678 C680 1.361 1_655 S
N678 C681 1.377 . S
C679 N676 1.382 1_455 S
C679 N677 1.371 . S
C679 C682 1.480 . S
C680 N677 1.372 . S
C680 N678 1.361 1_455 S
C680 C688 1.457 . S
C681 N676 1.363 . S
C681 N678 1.377 . S
C681 C694 1.479 . S
C682 C679 1.480 . S
C682 C683 1.383 . S
C682 C687 1.385 . S
C683 H664 0.947 . S
C683 C682 1.383 . S
C683 C684 1.388 . S
C684 H665 0.946 . S
C684 C683 1.388 . S
C684 C685 1.384 . S
C685 C684 1.384 . S
C685 C686 1.377 . S
C686 H666 0.953 . S
C686 C685 1.377 . S
C686 C687 1.369 . S
C687 H667 0.945 . S
C687 C682 1.385 . S
C687 C686 1.369 . S
C688 C680 1.457 . S
C688 C689 1.372 . S
C688 C693 1.364 1_455 S
C689 H668 0.952 . S
C689 C688 1.372 . S
C689 C690 1.389 . S
C690 H669 0.949 . S
C690 C689 1.389 . S
C690 C691 1.387 . S
C691 C690 1.387 . S
C691 C692 1.372 1_455 S
C692 H670 0.950 . S
C692 C691 1.372 1_655 S
C692 C693 1.379 . S
C693 H671 0.948 . S
C693 C688 1.364 1_655 S
C693 C692 1.379 . S
C694 C663 1.383 . S
C694 C681 1.479 . S
C694 C695 1.398 . S
C695 C660 1.382 . S
C695 H672 0.951 . S
C695 C694 1.398 . S
C696 C697 1.384 . S
C696 H709 0.947 . S
C696 C731 1.382 . S
C697 C696 1.384 . S
C697 C698 1.378 . S
C698 C697 1.378 . S
C698 C699 1.378 . S
C698 H710 0.952 . S
C699 C698 1.378 . S
C699 H711 0.950 . S
C699 C730 1.383 . S
H700 C719 0.947 . S
H701 C720 0.946 . S
H702 C722 0.953 . S
H703 C723 0.945 . S
H704 C725 0.952 . S
H705 C726 0.949 . S
H706 C728 0.950 . S
H707 C729 0.948 . S
H708 C731 0.951 . S
H709 C696 0.947 . S
H710 C698 0.952 . S
H711 C699 0.950 . S
N712 C715 1.382 . S
N712 C717 1.363 . S
N713 C715 1.371 . S
N713 C716 1.372 . S
N714 C716 1.361 . S
N714 C717 1.377 . S
C715 N712 1.382 . S
C715 N713 1.371 . S
C715 C718 1.480 . S
C716 N713 1.372 . S
C716 N714 1.361 . S
C716 C724 1.457 . S
C717 N712 1.363 . S
C717 N714 1.377 . S
C717 C730 1.479 . S
C718 C715 1.480 . S
C718 C719 1.383 . S
C718 C723 1.385 . S
C719 H700 0.947 . S
C719 C718 1.383 . S
C719 C720 1.388 . S
C720 H701 0.946 . S
C720 C719 1.388 . S
C720 C721 1.384 . S
C721 C720 1.384 . S
C721 C722 1.377 . S
C722 H702 0.953 . S
C722 C721 1.377 . S
C722 C723 1.369 . S
C723 H703 0.945 . S
C723 C718 1.385 . S
C723 C722 1.369 . S
C724 C716 1.457 . S
C724 C725 1.372 . S
C724 C729 1.364 . S
C725 H704 0.952 . S
C725 C724 1.372 . S
C725 C726 1.389 . S
C726 H705 0.949 . S
C726 C725 1.389 . S
C726 C727 1.387 . S
C727 C726 1.387 . S
C727 C728 1.372 . S
C728 H706 0.950 . S
C728 C727 1.372 . S
C728 C729 1.379 . S
C729 H707 0.948 . S
C729 C724 1.364 . S
C729 C728 1.379 . S
C730 C699 1.383 . S
C730 C717 1.479 . S
C730 C731 1.398 . S
C731 C696 1.382 . S
C731 H708 0.951 . S
C731 C730 1.398 . S
C732 C733 1.384 . S
C732 H745 0.947 . S
C732 C767 1.382 . S
C733 C732 1.384 . S
C733 C734 1.378 . S
C734 C733 1.378 . S
C734 C735 1.378 . S
C734 H746 0.952 . S
C735 C734 1.378 . S
C735 H747 0.950 . S
C735 C766 1.383 . S
H736 C755 0.947 . S
H737 C756 0.946 . S
H738 C758 0.953 . S
H739 C759 0.945 . S
H740 C761 0.952 . S
H741 C762 0.949 . S
H742 C764 0.950 . S
H743 C765 0.948 . S
H744 C767 0.951 . S
H745 C732 0.947 . S
H746 C734 0.952 . S
H747 C735 0.950 . S
N748 C751 1.382 . S
N748 C753 1.363 . S
N749 C751 1.371 . S
N749 C752 1.372 . S
N750 C752 1.361 . S
N750 C753 1.377 . S
C751 N748 1.382 . S
C751 N749 1.371 . S
C751 C754 1.480 . S
C752 N749 1.372 . S
C752 N750 1.361 . S
C752 C760 1.457 . S
C753 N748 1.363 . S
C753 N750 1.377 . S
C753 C766 1.479 . S
C754 C751 1.480 . S
C754 C755 1.383 . S
C754 C759 1.385 . S
C755 H736 0.947 . S
C755 C754 1.383 . S
C755 C756 1.388 . S
C756 H737 0.946 . S
C756 C755 1.388 . S
C756 C757 1.384 . S
C757 C756 1.384 . S
C757 C758 1.377 . S
C758 H738 0.953 . S
C758 C757 1.377 . S
C758 C759 1.369 . S
C759 H739 0.945 . S
C759 C754 1.385 . S
C759 C758 1.369 . S
C760 C752 1.457 . S
C760 C761 1.372 . S
C760 C765 1.364 . S
C761 H740 0.952 . S
C761 C760 1.372 . S
C761 C762 1.389 . S
C762 H741 0.949 . S
C762 C761 1.389 . S
C762 C763 1.387 . S
C763 C762 1.387 . S
C763 C764 1.372 . S
C764 H742 0.950 . S
C764 C763 1.372 . S
C764 C765 1.379 . S
C765 H743 0.948 . S
C765 C760 1.364 . S
C765 C764 1.379 . S
C766 C735 1.383 . S
C766 C753 1.479 . S
C766 C767 1.398 . S
C767 C732 1.382 . S
C767 H744 0.951 . S
C767 C766 1.398 . S
C768 C769 1.384 . S
C768 H781 0.947 . S
C768 C803 1.382 . S
C769 C768 1.384 . S
C769 C770 1.378 . S
C770 C769 1.378 . S
C770 C771 1.378 . S
C770 H782 0.952 . S
C771 C770 1.378 . S
C771 H783 0.950 . S
C771 C802 1.383 . S
H772 C791 0.947 . S
H773 C792 0.946 . S
H774 C794 0.953 . S
H775 C795 0.945 . S
H776 C797 0.952 . S
H777 C798 0.949 . S
H778 C800 0.950 . S
H779 C801 0.948 . S
H780 C803 0.951 . S
H781 C768 0.947 . S
H782 C770 0.952 . S
H783 C771 0.950 . S
N784 C787 1.382 1_545 S
N784 C789 1.363 . S
N785 C787 1.371 . S
N785 C788 1.372 . S
N786 C788 1.361 1_545 S
N786 C789 1.377 . S
C787 N784 1.382 1_565 S
C787 N785 1.371 . S
C787 C790 1.480 . S
C788 N785 1.372 . S
C788 N786 1.361 1_565 S
C788 C796 1.457 . S
C789 N784 1.363 . S
C789 N786 1.377 . S
C789 C802 1.479 . S
C790 C787 1.480 . S
C790 C791 1.383 . S
C790 C795 1.385 . S
C791 H772 0.947 . S
C791 C790 1.383 . S
C791 C792 1.388 . S
C792 H773 0.946 . S
C792 C791 1.388 . S
C792 C793 1.384 . S
C793 C792 1.384 . S
C793 C794 1.377 . S
C794 H774 0.953 . S
C794 C793 1.377 . S
C794 C795 1.369 . S
C795 H775 0.945 . S
C795 C790 1.385 . S
C795 C794 1.369 . S
C796 C788 1.457 . S
C796 C797 1.372 . S
C796 C801 1.364 1_565 S
C797 H776 0.952 . S
C797 C796 1.372 . S
C797 C798 1.389 . S
C798 H777 0.949 . S
C798 C797 1.389 . S
C798 C799 1.387 . S
C799 C798 1.387 . S
C799 C800 1.372 1_565 S
C800 H778 0.950 . S
C800 C799 1.372 1_545 S
C800 C801 1.379 . S
C801 H779 0.948 . S
C801 C796 1.364 1_545 S
C801 C800 1.379 . S
C802 C771 1.383 . S
C802 C789 1.479 . S
C802 C803 1.398 . S
C803 C768 1.382 . S
C803 H780 0.951 . S
C803 C802 1.398 . S
C804 C805 1.384 . S
C804 H817 0.947 . S
C804 C839 1.382 . S
C805 C804 1.384 . S
C805 C806 1.378 . S
C806 C805 1.378 . S
C806 C807 1.378 . S
C806 H818 0.952 . S
C807 C806 1.378 . S
C807 H819 0.950 . S
C807 C838 1.383 . S
H808 C827 0.947 . S
H809 C828 0.946 . S
H810 C830 0.953 . S
H811 C831 0.945 . S
H812 C833 0.952 . S
H813 C834 0.949 . S
H814 C836 0.950 . S
H815 C837 0.948 . S
H816 C839 0.951 . S
H817 C804 0.947 . S
H818 C806 0.952 . S
H819 C807 0.950 . S
N820 C823 1.385 . S
N820 C825 1.360 1_545 S
N821 C823 1.371 . S
N821 C824 1.376 . S
N822 C824 1.356 1_565 S
N822 C825 1.377 . S
C823 N820 1.385 . S
C823 N821 1.371 . S
C823 C826 1.480 . S
C824 N821 1.376 . S
C824 N822 1.356 1_545 S
C824 C832 1.457 1_545 S
C825 N820 1.360 1_565 S
C825 N822 1.377 . S
C825 C838 1.479 . S
C826 C823 1.480 . S
C826 C827 1.383 . S
C826 C831 1.385 . S
C827 H808 0.947 . S
C827 C826 1.383 . S
C827 C828 1.388 . S
C828 H809 0.946 . S
C828 C827 1.388 . S
C828 C829 1.384 . S
C829 C828 1.384 . S
C829 C830 1.377 . S
C830 H810 0.953 . S
C830 C829 1.377 . S
C830 C831 1.369 . S
C831 H811 0.945 . S
C831 C826 1.385 . S
C831 C830 1.369 . S
C832 C824 1.457 1_565 S
C832 C833 1.372 1_565 S
C832 C837 1.364 . S
C833 H812 0.952 . S
C833 C832 1.372 1_545 S
C833 C834 1.389 . S
C834 H813 0.949 . S
C834 C833 1.389 . S
C834 C835 1.387 1_545 S
C835 C834 1.387 1_565 S
C835 C836 1.372 . S
C836 H814 0.950 . S
C836 C835 1.372 . S
C836 C837 1.379 . S
C837 H815 0.948 . S
C837 C832 1.364 . S
C837 C836 1.379 . S
C838 C807 1.383 . S
C838 C825 1.479 . S
C838 C839 1.398 . S
C839 C804 1.382 . S
C839 H816 0.951 . S
C839 C838 1.398 . S
C840 C841 1.384 . S
C840 H853 0.947 . S
C840 C875 1.382 . S
C841 C840 1.384 . S
C841 C842 1.378 . S
C842 C841 1.378 . S
C842 C843 1.378 . S
C842 H854 0.952 . S
C843 C842 1.378 . S
C843 H855 0.950 . S
C843 C874 1.383 . S
H844 C863 0.947 . S
H845 C864 0.946 . S
H846 C866 0.953 . S
H847 C867 0.945 . S
H848 C869 0.952 . S
H849 C870 0.949 . S
H850 C872 0.950 . S
H851 C873 0.948 . S
H852 C875 0.951 . S
H853 C840 0.947 . S
H854 C842 0.952 . S
H855 C843 0.950 . S
N856 C859 1.382 . S
N856 C861 1.363 . S
N857 C859 1.371 . S
N857 C860 1.372 . S
N858 C860 1.361 . S
N858 C861 1.377 . S
C859 N856 1.382 . S
C859 N857 1.371 . S
C859 C862 1.480 . S
C860 N857 1.372 . S
C860 N858 1.361 . S
C860 C868 1.457 . S
C861 N856 1.363 . S
C861 N858 1.377 . S
C861 C874 1.479 . S
C862 C859 1.480 . S
C862 C863 1.383 . S
C862 C867 1.385 . S
C863 H844 0.947 . S
C863 C862 1.383 . S
C863 C864 1.388 . S
C864 H845 0.946 . S
C864 C863 1.388 . S
C864 C865 1.384 . S
C865 C864 1.384 . S
C865 C866 1.377 . S
C866 H846 0.953 . S
C866 C865 1.377 . S
C866 C867 1.369 . S
C867 H847 0.945 . S
C867 C862 1.385 . S
C867 C866 1.369 . S
C868 C860 1.457 . S
C868 C869 1.372 . S
C868 C873 1.364 . S
C869 H848 0.952 . S
C869 C868 1.372 . S
C869 C870 1.389 . S
C870 H849 0.949 . S
C870 C869 1.389 . S
C870 C871 1.387 . S
C871 C870 1.387 . S
C871 C872 1.372 . S
C872 H850 0.950 . S
C872 C871 1.372 . S
C872 C873 1.379 . S
C873 H851 0.948 . S
C873 C868 1.364 . S
C873 C872 1.379 . S
C874 C843 1.383 . S
C874 C861 1.479 . S
C874 C875 1.398 . S
C875 C840 1.382 . S
C875 H852 0.951 . S
C875 C874 1.398 . S
C876 C877 1.384 . S
C876 H889 0.947 . S
C876 C911 1.382 . S
C877 C876 1.384 . S
C877 C878 1.378 . S
C878 C877 1.378 . S
C878 C879 1.378 . S
C878 H890 0.952 . S
C879 C878 1.378 . S
C879 H891 0.950 . S
C879 C910 1.383 . S
H880 C899 0.947 . S
H881 C900 0.946 . S
H882 C902 0.953 . S
H883 C903 0.945 . S
H884 C905 0.952 . S
H885 C906 0.949 . S
H886 C908 0.950 . S
H887 C909 0.948 . S
H888 C911 0.951 . S
H889 C876 0.947 . S
H890 C878 0.952 . S
H891 C879 0.950 . S
N892 C895 1.385 . S
N892 C897 1.360 1_554 S
N893 C895 1.371 . S
N893 C896 1.377 . S
N894 C896 1.355 1_556 S
N894 C897 1.377 . S
C895 N892 1.385 . S
C895 N893 1.371 . S
C895 C898 1.480 . S
C896 N893 1.377 . S
C896 N894 1.355 1_554 S
C896 C904 1.457 1_554 S
C897 N892 1.360 1_556 S
C897 N894 1.377 . S
C897 C910 1.479 . S
C898 C895 1.480 . S
C898 C899 1.383 . S
C898 C903 1.385 . S
C899 H880 0.947 . S
C899 C898 1.383 . S
C899 C900 1.388 . S
C900 H881 0.946 . S
C900 C899 1.388 . S
C900 C901 1.384 . S
C901 C900 1.384 . S
C901 C902 1.377 . S
C902 H882 0.953 . S
C902 C901 1.377 . S
C902 C903 1.369 . S
C903 H883 0.945 . S
C903 C898 1.385 . S
C903 C902 1.369 . S
C904 C896 1.457 1_556 S
C904 C905 1.372 1_556 S
C904 C909 1.364 . S
C905 H884 0.952 . S
C905 C904 1.372 1_554 S
C905 C906 1.389 . S
C906 H885 0.949 . S
C906 C905 1.389 . S
C906 C907 1.387 1_554 S
C907 C906 1.387 1_556 S
C907 C908 1.372 . S
C908 H886 0.950 . S
C908 C907 1.372 . S
C908 C909 1.379 . S
C909 H887 0.948 . S
C909 C904 1.364 . S
C909 C908 1.379 . S
C910 C879 1.383 . S
C910 C897 1.479 . S
C910 C911 1.398 . S
C911 C876 1.382 . S
C911 H888 0.951 . S
C911 C910 1.398 . S
C912 C913 1.384 . S
C912 H925 0.947 . S
C912 C947 1.382 . S
C913 C912 1.384 . S
C913 C914 1.378 . S
C914 C913 1.378 . S
C914 C915 1.378 . S
C914 H926 0.952 . S
C915 C914 1.378 . S
C915 H927 0.950 . S
C915 C946 1.383 . S
H916 C935 0.947 . S
H917 C936 0.946 . S
H918 C938 0.953 . S
H919 C939 0.945 . S
H920 C941 0.952 . S
H921 C942 0.949 . S
H922 C944 0.950 . S
H923 C945 0.948 . S
H924 C947 0.951 . S
H925 C912 0.947 . S
H926 C914 0.952 . S
H927 C915 0.950 . S
N928 C931 1.382 . S
N928 C933 1.363 . S
N929 C931 1.371 . S
N929 C932 1.372 . S
N930 C932 1.361 . S
N930 C933 1.377 . S
C931 N928 1.382 . S
C931 N929 1.371 . S
C931 C934 1.480 . S
C932 N929 1.372 . S
C932 N930 1.361 . S
C932 C940 1.457 . S
C933 N928 1.363 . S
C933 N930 1.377 . S
C933 C946 1.479 . S
C934 C931 1.480 . S
C934 C935 1.383 . S
C934 C939 1.385 . S
C935 H916 0.947 . S
C935 C934 1.383 . S
C935 C936 1.388 . S
C936 H917 0.946 . S
C936 C935 1.388 . S
C936 C937 1.384 . S
C937 C936 1.384 . S
C937 C938 1.377 . S
C938 H918 0.953 . S
C938 C937 1.377 . S
C938 C939 1.369 . S
C939 H919 0.945 . S
C939 C934 1.385 . S
C939 C938 1.369 . S
C940 C932 1.457 . S
C940 C941 1.372 . S
C940 C945 1.364 . S
C941 H920 0.952 . S
C941 C940 1.372 . S
C941 C942 1.389 . S
C942 H921 0.949 . S
C942 C941 1.389 . S
C942 C943 1.387 . S
C943 C942 1.387 . S
C943 C944 1.372 . S
C944 H922 0.950 . S
C944 C943 1.372 . S
C944 C945 1.379 . S
C945 H923 0.948 . S
C945 C940 1.364 . S
C945 C944 1.379 . S
C946 C915 1.383 . S
C946 C933 1.479 . S
C946 C947 1.398 . S
C947 C912 1.382 . S
C947 H924 0.951 . S
C947 C946 1.398 . S
C948 C949 1.384 . S
C948 H961 0.947 . S
C948 C983 1.382 . S
C949 C948 1.384 . S
C949 C950 1.378 . S
C950 C949 1.378 . S
C950 C951 1.378 . S
C950 H962 0.952 . S
C951 C950 1.378 . S
C951 H963 0.950 . S
C951 C982 1.383 . S
H952 C971 0.947 . S
H953 C972 0.946 . S
H954 C974 0.953 . S
H955 C975 0.945 . S
H956 C977 0.952 . S
H957 C978 0.949 . S
H958 C980 0.950 . S
H959 C981 0.948 . S
H960 C983 0.951 . S
H961 C948 0.947 . S
H962 C950 0.952 . S
H963 C951 0.950 . S
N964 C967 1.382 1_554 S
N964 C969 1.363 . S
N965 C967 1.371 . S
N965 C968 1.372 . S
N966 C968 1.361 1_554 S
N966 C969 1.377 . S
C967 N964 1.382 1_556 S
C967 N965 1.371 . S
C967 C970 1.480 . S
C968 N965 1.372 . S
C968 N966 1.361 1_556 S
C968 C976 1.457 . S
C969 N964 1.363 . S
C969 N966 1.377 . S
C969 C982 1.479 . S
C970 C967 1.480 . S
C970 C971 1.383 . S
C970 C975 1.385 . S
C971 H952 0.947 . S
C971 C970 1.383 . S
C971 C972 1.388 . S
C972 H953 0.946 . S
C972 C971 1.388 . S
C972 C973 1.384 . S
C973 C972 1.384 . S
C973 C974 1.377 . S
C974 H954 0.953 . S
C974 C973 1.377 . S
C974 C975 1.369 . S
C975 H955 0.945 . S
C975 C970 1.385 . S
C975 C974 1.369 . S
C976 C968 1.457 . S
C976 C977 1.372 . S
C976 C981 1.364 1_556 S
C977 H956 0.952 . S
C977 C976 1.372 . S
C977 C978 1.389 . S
C978 H957 0.949 . S
C978 C977 1.389 . S
C978 C979 1.387 . S
C979 C978 1.387 . S
C979 C980 1.372 1_556 S
C980 H958 0.950 . S
C980 C979 1.372 1_554 S
C980 C981 1.379 . S
C981 H959 0.948 . S
C981 C976 1.364 1_554 S
C981 C980 1.379 . S
C982 C951 1.383 . S
C982 C969 1.479 . S
C982 C983 1.398 . S
C983 C948 1.382 . S
C983 H960 0.951 . S
C983 C982 1.398 . S
C984 C985 1.384 . S
C984 H997 0.947 . S
C984 C1019 1.382 . S
C985 C984 1.384 . S
C985 C986 1.378 . S
C986 C985 1.378 . S
C986 C987 1.378 . S
C986 H998 0.952 . S
C987 C986 1.378 . S
C987 H999 0.950 . S
C987 C1018 1.383 . S
H988 C1007 0.947 . S
H989 C1008 0.946 . S
H990 C1010 0.953 . S
H991 C1011 0.945 . S
H992 C1013 0.952 . S
H993 C1014 0.949 . S
H994 C1016 0.950 . S
H995 C1017 0.948 . S
H996 C1019 0.951 . S
H997 C984 0.947 . S
H998 C986 0.952 . S
H999 C987 0.950 . S
N1000 C1003 1.382 . S
N1000 C1005 1.363 . S
N1001 C1003 1.371 . S
N1001 C1004 1.372 . S
N1002 C1004 1.361 . S
N1002 C1005 1.377 . S
C1003 N1000 1.382 . S
C1003 N1001 1.371 . S
C1003 C1006 1.480 . S
C1004 N1001 1.372 . S
C1004 N1002 1.361 . S
C1004 C1012 1.457 . S
C1005 N1000 1.363 . S
C1005 N1002 1.377 . S
C1005 C1018 1.479 . S
C1006 C1003 1.480 . S
C1006 C1007 1.383 . S
C1006 C1011 1.385 . S
C1007 H988 0.947 . S
C1007 C1006 1.383 . S
C1007 C1008 1.388 . S
C1008 H989 0.946 . S
C1008 C1007 1.388 . S
C1008 C1009 1.384 . S
C1009 C1008 1.384 . S
C1009 C1010 1.377 . S
C1010 H990 0.953 . S
C1010 C1009 1.377 . S
C1010 C1011 1.369 . S
C1011 H991 0.945 . S
C1011 C1006 1.385 . S
C1011 C1010 1.369 . S
C1012 C1004 1.457 . S
C1012 C1013 1.372 . S
C1012 C1017 1.364 . S
C1013 H992 0.952 . S
C1013 C1012 1.372 . S
C1013 C1014 1.389 . S
C1014 H993 0.949 . S
C1014 C1013 1.389 . S
C1014 C1015 1.387 . S
C1015 C1014 1.387 . S
C1015 C1016 1.372 . S
C1016 H994 0.950 . S
C1016 C1015 1.372 . S
C1016 C1017 1.379 . S
C1017 H995 0.948 . S
C1017 C1012 1.364 . S
C1017 C1016 1.379 . S
C1018 C987 1.383 . S
C1018 C1005 1.479 . S
C1018 C1019 1.398 . S
C1019 C984 1.382 . S
C1019 H996 0.951 . S
C1019 C1018 1.398 . S
C1020 C1021 1.384 . S
C1020 H1033 0.947 . S
C1020 C1055 1.382 . S
C1021 C1020 1.384 . S
C1021 C1022 1.378 . S
C1022 C1021 1.378 . S
C1022 C1023 1.378 . S
C1022 H1034 0.952 . S
C1023 C1022 1.378 . S
C1023 H1035 0.950 . S
C1023 C1054 1.383 . S
H1024 C1043 0.947 . S
H1025 C1044 0.946 . S
H1026 C1046 0.953 . S
H1027 C1047 0.945 . S
H1028 C1049 0.952 . S
H1029 C1050 0.949 . S
H1030 C1052 0.950 . S
H1031 C1053 0.948 . S
H1032 C1055 0.951 . S
H1033 C1020 0.947 . S
H1034 C1022 0.952 . S
H1035 C1023 0.950 . S
N1036 C1039 1.385 . S
N1036 C1041 1.360 1_455 S
N1037 C1039 1.371 . S
N1037 C1040 1.377 . S
N1038 C1040 1.355 1_655 S
N1038 C1041 1.377 . S
C1039 N1036 1.385 . S
C1039 N1037 1.371 . S
C1039 C1042 1.480 . S
C1040 N1037 1.377 . S
C1040 N1038 1.355 1_455 S
C1040 C1048 1.457 1_455 S
C1041 N1036 1.360 1_655 S
C1041 N1038 1.377 . S
C1041 C1054 1.479 . S
C1042 C1039 1.480 . S
C1042 C1043 1.383 . S
C1042 C1047 1.385 . S
C1043 H1024 0.947 . S
C1043 C1042 1.383 . S
C1043 C1044 1.388 . S
C1044 H1025 0.946 . S
C1044 C1043 1.388 . S
C1044 C1045 1.384 . S
C1045 C1044 1.384 . S
C1045 C1046 1.377 . S
C1046 H1026 0.953 . S
C1046 C1045 1.377 . S
C1046 C1047 1.369 . S
C1047 H1027 0.945 . S
C1047 C1042 1.385 . S
C1047 C1046 1.369 . S
C1048 C1040 1.457 1_655 S
C1048 C1049 1.372 1_655 S
C1048 C1053 1.364 . S
C1049 H1028 0.952 . S
C1049 C1048 1.372 1_455 S
C1049 C1050 1.389 . S
C1050 H1029 0.949 . S
C1050 C1049 1.389 . S
C1050 C1051 1.387 1_455 S
C1051 C1050 1.387 1_655 S
C1051 C1052 1.372 . S
C1052 H1030 0.950 . S
C1052 C1051 1.372 . S
C1052 C1053 1.379 . S
C1053 H1031 0.948 . S
C1053 C1048 1.364 . S
C1053 C1052 1.379 . S
C1054 C1023 1.383 . S
C1054 C1041 1.479 . S
C1054 C1055 1.398 . S
C1055 C1020 1.382 . S
C1055 H1032 0.951 . S
C1055 C1054 1.398 . S
C1056 C1057 1.384 . S
C1056 H1069 0.947 . S
C1056 C1091 1.382 . S
C1057 C1056 1.384 . S
C1057 C1058 1.378 . S
C1058 C1057 1.378 . S
C1058 C1059 1.378 . S
C1058 H1070 0.952 . S
C1059 C1058 1.378 . S
C1059 H1071 0.950 . S
C1059 C1090 1.383 . S
H1060 C1079 0.947 . S
H1061 C1080 0.946 . S
H1062 C1082 0.953 . S
H1063 C1083 0.945 . S
H1064 C1085 0.952 . S
H1065 C1086 0.949 . S
H1066 C1088 0.950 . S
H1067 C1089 0.948 . S
H1068 C1091 0.951 . S
H1069 C1056 0.947 . S
H1070 C1058 0.952 . S
H1071 C1059 0.950 . S
N1072 C1075 1.382 . S
N1072 C1077 1.363 . S
N1073 C1075 1.371 . S
N1073 C1076 1.372 . S
N1074 C1076 1.361 . S
N1074 C1077 1.377 . S
C1075 N1072 1.382 . S
C1075 N1073 1.371 . S
C1075 C1078 1.480 . S
C1076 N1073 1.372 . S
C1076 N1074 1.361 . S
C1076 C1084 1.457 . S
C1077 N1072 1.363 . S
C1077 N1074 1.377 . S
C1077 C1090 1.479 . S
C1078 C1075 1.480 . S
C1078 C1079 1.383 . S
C1078 C1083 1.385 . S
C1079 H1060 0.947 . S
C1079 C1078 1.383 . S
C1079 C1080 1.388 . S
C1080 H1061 0.946 . S
C1080 C1079 1.388 . S
C1080 C1081 1.384 . S
C1081 C1080 1.384 . S
C1081 C1082 1.377 . S
C1082 H1062 0.953 . S
C1082 C1081 1.377 . S
C1082 C1083 1.369 . S
C1083 H1063 0.945 . S
C1083 C1078 1.385 . S
C1083 C1082 1.369 . S
C1084 C1076 1.457 . S
C1084 C1085 1.372 . S
C1084 C1089 1.364 . S
C1085 H1064 0.952 . S
C1085 C1084 1.372 . S
C1085 C1086 1.389 . S
C1086 H1065 0.949 . S
C1086 C1085 1.389 . S
C1086 C1087 1.387 . S
C1087 C1086 1.387 . S
C1087 C1088 1.372 . S
C1088 H1066 0.950 . S
C1088 C1087 1.372 . S
C1088 C1089 1.379 . S
C1089 H1067 0.948 . S
C1089 C1084 1.364 . S
C1089 C1088 1.379 . S
C1090 C1059 1.383 . S
C1090 C1077 1.479 . S
C1090 C1091 1.398 . S
C1091 C1056 1.382 . S
C1091 H1068 0.951 . S
C1091 C1090 1.398 . S
C1092 C1093 1.384 . S
C1092 H1105 0.947 . S
C1092 C1127 1.382 . S
C1093 C1092 1.384 . S
C1093 C1094 1.378 . S
C1094 C1093 1.378 . S
C1094 C1095 1.378 . S
C1094 H1106 0.952 . S
C1095 C1094 1.378 . S
C1095 H1107 0.950 . S
C1095 C1126 1.383 . S
H1096 C1115 0.947 . S
H1097 C1116 0.946 . S
H1098 C1118 0.953 . S
H1099 C1119 0.945 . S
H1100 C1121 0.952 . S
H1101 C1122 0.949 . S
H1102 C1124 0.950 . S
H1103 C1125 0.948 . S
H1104 C1127 0.951 . S
H1105 C1092 0.947 . S
H1106 C1094 0.952 . S
H1107 C1095 0.950 . S
N1108 C1111 1.382 . S
N1108 C1113 1.363 1_455 S
N1109 C1111 1.371 . S
N1109 C1112 1.372 1_455 S
N1110 C1112 1.361 . S
N1110 C1113 1.377 . S
C1111 N1108 1.382 . S
C1111 N1109 1.371 . S
C1111 C1114 1.480 . S
C1112 N1109 1.372 1_655 S
C1112 N1110 1.361 . S
C1112 C1120 1.457 . S
C1113 N1108 1.363 1_655 S
C1113 N1110 1.377 . S
C1113 C1126 1.479 . S
C1114 C1111 1.480 . S
C1114 C1115 1.383 . S
C1114 C1119 1.385 . S
C1115 H1096 0.947 . S
C1115 C1114 1.383 . S
C1115 C1116 1.388 . S
C1116 H1097 0.946 . S
C1116 C1115 1.388 . S
C1116 C1117 1.384 . S
C1117 C1116 1.384 . S
C1117 C1118 1.377 . S
C1118 H1098 0.953 . S
C1118 C1117 1.377 . S
C1118 C1119 1.369 . S
C1119 H1099 0.945 . S
C1119 C1114 1.385 . S
C1119 C1118 1.369 . S
C1120 C1112 1.457 . S
C1120 C1121 1.372 1_655 S
C1120 C1125 1.364 . S
C1121 H1100 0.952 . S
C1121 C1120 1.372 1_455 S
C1121 C1122 1.389 . S
C1122 H1101 0.949 . S
C1122 C1121 1.389 . S
C1122 C1123 1.387 1_455 S
C1123 C1122 1.387 1_655 S
C1123 C1124 1.372 . S
C1124 H1102 0.950 . S
C1124 C1123 1.372 . S
C1124 C1125 1.379 . S
C1125 H1103 0.948 . S
C1125 C1120 1.364 . S
C1125 C1124 1.379 . S
C1126 C1095 1.383 . S
C1126 C1113 1.479 . S
C1126 C1127 1.398 . S
C1127 C1092 1.382 . S
C1127 H1104 0.951 . S
C1127 C1126 1.398 . S
H1128 C1134 0.930 . S
H1129 C1137 0.930 . S
H1130 C1138 0.930 . S
H1131 C1139 0.930 . S
H1132 C1142 0.930 . S
H1133 C1143 0.930 . S
C1134 H1128 0.930 . S
C1134 C1135 1.355 . S
C1134 C1136 1.415 . S
C1135 C1134 1.355 . S
C1135 C1137 1.419 . S
C1136 C1134 1.415 . S
C1136 C1141 1.425 . S
C1136 C1143 1.409 . S
C1137 H1129 0.930 . S
C1137 C1135 1.419 . S
C1137 C1138 1.362 . S
C1138 H1130 0.930 . S
C1138 C1137 1.362 . S
C1138 C1141 1.409 . S
C1139 H1131 0.930 . S
C1139 C1140 1.355 . S
C1139 C1141 1.415 . S
C1140 C1139 1.355 . S
C1140 C1142 1.419 . S
C1141 C1136 1.425 . S
C1141 C1138 1.409 . S
C1141 C1139 1.415 . S
C1142 H1132 0.930 . S
C1142 C1140 1.419 . S
C1142 C1143 1.362 . S
C1143 H1133 0.930 . S
C1143 C1136 1.409 . S
C1143 C1142 1.362 . S
H1144 C1150 0.930 . S
H1145 C1153 0.930 . S
H1146 C1154 0.930 . S
H1147 C1155 0.930 . S
H1148 C1158 0.930 . S
H1149 C1159 0.930 . S
C1150 H1144 0.930 . S
C1150 C1151 1.355 . S
C1150 C1152 1.415 . S
C1151 C1150 1.355 . S
C1151 C1153 1.419 . S
C1152 C1150 1.415 . S
C1152 C1157 1.425 . S
C1152 C1159 1.409 . S
C1153 H1145 0.930 . S
C1153 C1151 1.419 . S
C1153 C1154 1.362 . S
C1154 H1146 0.930 . S
C1154 C1153 1.362 . S
C1154 C1157 1.409 . S
C1155 H1147 0.930 . S
C1155 C1156 1.355 . S
C1155 C1157 1.415 . S
C1156 C1155 1.355 . S
C1156 C1158 1.419 . S
C1157 C1152 1.425 . S
C1157 C1154 1.409 . S
C1157 C1155 1.415 . S
C1158 H1148 0.930 . S
C1158 C1156 1.419 . S
C1158 C1159 1.362 . S
C1159 H1149 0.930 . S
C1159 C1152 1.409 . S
C1159 C1158 1.362 . S
H1160 C1166 0.930 . S
H1161 C1169 0.930 . S
H1162 C1170 0.930 . S
H1163 C1171 0.930 . S
H1164 C1174 0.930 . S
H1165 C1175 0.930 . S
C1166 H1160 0.930 . S
C1166 C1167 1.355 . S
C1166 C1168 1.415 . S
C1167 C1166 1.355 . S
C1167 C1169 1.419 . S
C1168 C1166 1.415 . S
C1168 C1173 1.425 . S
C1168 C1175 1.409 . S
C1169 H1161 0.930 . S
C1169 C1167 1.419 . S
C1169 C1170 1.362 . S
C1170 H1162 0.930 . S
C1170 C1169 1.362 . S
C1170 C1173 1.409 . S
C1171 H1163 0.930 . S
C1171 C1172 1.355 . S
C1171 C1173 1.415 . S
C1172 C1171 1.355 . S
C1172 C1174 1.419 . S
C1173 C1168 1.425 . S
C1173 C1170 1.409 . S
C1173 C1171 1.415 . S
C1174 H1164 0.930 . S
C1174 C1172 1.419 . S
C1174 C1175 1.362 . S
C1175 H1165 0.930 . S
C1175 C1168 1.409 . S
C1175 C1174 1.362 . S
H1176 C1182 0.930 1_545 S
H1177 C1185 0.930 . S
H1178 C1186 0.930 . S
H1179 C1187 0.930 . S
H1180 C1190 0.930 . S
H1181 C1191 0.904 1_545 S
C1182 H1176 0.930 1_565 S
C1182 C1183 1.355 . S
C1182 C1184 1.415 . S
C1183 C1182 1.355 . S
C1183 C1185 1.419 . S
C1184 C1182 1.415 . S
C1184 C1189 1.425 . S
C1184 C1191 1.423 . S
C1185 H1177 0.930 . S
C1185 C1183 1.419 . S
C1185 C1186 1.362 . S
C1186 H1178 0.930 . S
C1186 C1185 1.362 . S
C1186 C1189 1.409 . S
C1187 H1179 0.930 . S
C1187 C1188 1.355 . S
C1187 C1189 1.415 . S
C1188 C1187 1.355 . S
C1188 C1190 1.419 . S
C1189 C1184 1.425 . S
C1189 C1186 1.409 . S
C1189 C1187 1.415 . S
C1190 H1180 0.930 . S
C1190 C1188 1.419 . S
C1190 C1191 1.375 . S
C1191 H1181 0.904 1_565 S
C1191 C1184 1.423 . S
C1191 C1190 1.375 . S
H1192 C1198 0.930 . S
H1193 C1201 0.930 . S
H1194 C1202 0.930 . S
H1195 C1203 0.930 . S
H1196 C1206 0.930 . S
H1197 C1207 0.930 . S
C1198 H1192 0.930 . S
C1198 C1199 1.355 . S
C1198 C1200 1.415 . S
C1199 C1198 1.355 . S
C1199 C1201 1.419 . S
C1200 C1198 1.415 . S
C1200 C1205 1.425 . S
C1200 C1207 1.409 . S
C1201 H1193 0.930 . S
C1201 C1199 1.419 . S
C1201 C1202 1.362 . S
C1202 H1194 0.930 . S
C1202 C1201 1.362 . S
C1202 C1205 1.409 . S
C1203 H1195 0.930 . S
C1203 C1204 1.355 . S
C1203 C1205 1.415 . S
C1204 C1203 1.355 . S
C1204 C1206 1.419 . S
C1205 C1200 1.425 . S
C1205 C1202 1.409 . S
C1205 C1203 1.415 . S
C1206 H1196 0.930 . S
C1206 C1204 1.419 . S
C1206 C1207 1.362 . S
C1207 H1197 0.930 . S
C1207 C1200 1.409 . S
C1207 C1206 1.362 . S
H1208 C1214 0.930 . S
H1209 C1217 0.930 . S
H1210 C1218 0.930 . S
H1211 C1219 0.930 . S
H1212 C1222 0.930 . S
H1213 C1223 0.930 . S
C1214 H1208 0.930 . S
C1214 C1215 1.355 . S
C1214 C1216 1.415 . S
C1215 C1214 1.355 . S
C1215 C1217 1.419 1_556 S
C1216 C1214 1.415 . S
C1216 C1221 1.425 . S
C1216 C1223 1.409 . S
C1217 H1209 0.930 . S
C1217 C1215 1.419 1_554 S
C1217 C1218 1.362 . S
C1218 H1210 0.930 . S
C1218 C1217 1.362 . S
C1218 C1221 1.409 1_554 S
C1219 H1211 0.930 . S
C1219 C1220 1.355 . S
C1219 C1221 1.415 . S
C1220 C1219 1.355 . S
C1220 C1222 1.419 . S
C1221 C1216 1.425 . S
C1221 C1218 1.409 1_556 S
C1221 C1219 1.415 . S
C1222 H1212 0.930 . S
C1222 C1220 1.419 . S
C1222 C1223 1.362 . S
C1223 H1213 0.930 . S
C1223 C1216 1.409 . S
C1223 C1222 1.362 . S
H1224 C1230 0.930 . S
H1225 C1233 0.930 . S
H1226 C1234 0.930 . S
H1227 C1235 0.930 . S
H1228 C1238 0.930 . S
H1229 C1239 0.930 . S
C1230 H1224 0.930 . S
C1230 C1231 1.355 . S
C1230 C1232 1.415 . S
C1231 C1230 1.355 . S
C1231 C1233 1.419 . S
C1232 C1230 1.415 . S
C1232 C1237 1.425 . S
C1232 C1239 1.409 . S
C1233 H1225 0.930 . S
C1233 C1231 1.419 . S
C1233 C1234 1.362 . S
C1234 H1226 0.930 . S
C1234 C1233 1.362 . S
C1234 C1237 1.409 . S
C1235 H1227 0.930 . S
C1235 C1236 1.355 . S
C1235 C1237 1.415 . S
C1236 C1235 1.355 . S
C1236 C1238 1.419 . S
C1237 C1232 1.425 . S
C1237 C1234 1.409 . S
C1237 C1235 1.415 . S
C1238 H1228 0.930 . S
C1238 C1236 1.419 . S
C1238 C1239 1.362 . S
C1239 H1229 0.930 . S
C1239 C1232 1.409 . S
C1239 C1238 1.362 . S
H1240 C1246 0.930 . S
H1241 C1249 0.930 . S
H1242 C1250 0.930 . S
H1243 C1251 0.930 . S
H1244 C1254 0.930 . S
H1245 C1255 0.930 . S
C1246 H1240 0.930 . S
C1246 C1247 1.355 . S
C1246 C1248 1.415 . S
C1247 C1246 1.355 . S
C1247 C1249 1.419 . S
C1248 C1246 1.415 . S
C1248 C1253 1.425 . S
C1248 C1255 1.409 . S
C1249 H1241 0.930 . S
C1249 C1247 1.419 . S
C1249 C1250 1.362 . S
C1250 H1242 0.930 . S
C1250 C1249 1.362 . S
C1250 C1253 1.409 . S
C1251 H1243 0.930 . S
C1251 C1252 1.355 . S
C1251 C1253 1.415 . S
C1252 C1251 1.355 . S
C1252 C1254 1.419 . S
C1253 C1248 1.425 . S
C1253 C1250 1.409 . S
C1253 C1251 1.415 . S
C1254 H1244 0.930 . S
C1254 C1252 1.419 . S
C1254 C1255 1.362 . S
C1255 H1245 0.930 . S
C1255 C1248 1.409 . S
C1255 C1254 1.362 . S
H1256 C1262 0.930 . S
H1257 C1265 0.930 . S
H1258 C1266 0.930 . S
H1259 C1267 0.930 . S
H1260 C1270 0.930 . S
H1261 C1271 0.930 . S
C1262 H1256 0.930 . S
C1262 C1263 1.355 . S
C1262 C1264 1.415 . S
C1263 C1262 1.355 . S
C1263 C1265 1.419 . S
C1264 C1262 1.415 . S
C1264 C1269 1.425 . S
C1264 C1271 1.409 . S
C1265 H1257 0.930 . S
C1265 C1263 1.419 . S
C1265 C1266 1.362 . S
C1266 H1258 0.930 . S
C1266 C1265 1.362 . S
C1266 C1269 1.409 . S
C1267 H1259 0.930 . S
C1267 C1268 1.355 . S
C1267 C1269 1.415 . S
C1268 C1267 1.355 . S
C1268 C1270 1.419 . S
C1269 C1264 1.425 . S
C1269 C1266 1.409 . S
C1269 C1267 1.415 . S
C1270 H1260 0.930 . S
C1270 C1268 1.419 . S
C1270 C1271 1.362 . S
C1271 H1261 0.930 . S
C1271 C1264 1.409 . S
C1271 C1270 1.362 . S
H1272 C1278 0.930 . S
H1273 C1281 0.929 . S
H1274 C1282 0.930 1_455 S
H1275 C1283 0.930 . S
H1276 C1286 0.930 . S
H1277 C1287 0.930 . S
C1278 H1272 0.930 . S
C1278 C1279 1.355 . S
C1278 C1280 1.415 . S
C1279 C1278 1.355 . S
C1279 C1281 1.420 1_655 S
C1280 C1278 1.415 . S
C1280 C1285 1.425 . S
C1280 C1287 1.409 . S
C1281 H1273 0.929 . S
C1281 C1279 1.420 1_455 S
C1281 C1282 1.363 1_455 S
C1282 H1274 0.930 1_655 S
C1282 C1281 1.363 1_655 S
C1282 C1285 1.409 . S
C1283 H1275 0.930 . S
C1283 C1284 1.355 . S
C1283 C1285 1.415 . S
C1284 C1283 1.355 . S
C1284 C1286 1.419 . S
C1285 C1280 1.425 . S
C1285 C1282 1.409 . S
C1285 C1283 1.415 . S
C1286 H1276 0.930 . S
C1286 C1284 1.419 . S
C1286 C1287 1.362 . S
C1287 H1277 0.930 . S
C1287 C1280 1.409 . S
C1287 C1286 1.362 . S
H1288 C1294 0.930 . S
H1289 C1297 0.930 . S
H1290 C1298 0.930 . S
H1291 C1299 0.930 . S
H1292 C1302 0.930 . S
H1293 C1303 0.930 . S
C1294 H1288 0.930 . S
C1294 C1295 1.355 . S
C1294 C1296 1.415 . S
C1295 C1294 1.355 . S
C1295 C1297 1.419 . S
C1296 C1294 1.415 . S
C1296 C1301 1.425 . S
C1296 C1303 1.409 . S
C1297 H1289 0.930 . S
C1297 C1295 1.419 . S
C1297 C1298 1.362 . S
C1298 H1290 0.930 . S
C1298 C1297 1.362 . S
C1298 C1301 1.409 . S
C1299 H1291 0.930 . S
C1299 C1300 1.355 . S
C1299 C1301 1.415 . S
C1300 C1299 1.355 . S
C1300 C1302 1.419 . S
C1301 C1296 1.425 . S
C1301 C1298 1.409 . S
C1301 C1299 1.415 . S
C1302 H1292 0.930 . S
C1302 C1300 1.419 . S
C1302 C1303 1.362 . S
C1303 H1293 0.930 . S
C1303 C1296 1.409 . S
C1303 C1302 1.362 . S
H1304 C1310 0.930 . S
H1305 C1313 0.930 . S
H1306 C1314 0.930 . S
H1307 C1315 0.930 . S
H1308 C1318 0.930 . S
H1309 C1319 0.930 . S
C1310 H1304 0.930 . S
C1310 C1311 1.355 . S
C1310 C1312 1.415 . S
C1311 C1310 1.355 . S
C1311 C1313 1.419 1_455 S
C1312 C1310 1.415 . S
C1312 C1317 1.425 . S
C1312 C1319 1.409 . S
C1313 H1305 0.930 . S
C1313 C1311 1.419 1_655 S
C1313 C1314 1.362 . S
C1314 H1306 0.930 . S
C1314 C1313 1.362 . S
C1314 C1317 1.409 1_655 S
C1315 H1307 0.930 . S
C1315 C1316 1.355 . S
C1315 C1317 1.415 . S
C1316 C1315 1.355 . S
C1316 C1318 1.419 . S
C1317 C1312 1.425 . S
C1317 C1314 1.409 1_455 S
C1317 C1315 1.415 . S
C1318 H1308 0.930 . S
C1318 C1316 1.419 . S
C1318 C1319 1.362 . S
C1319 H1309 0.930 . S
C1319 C1312 1.409 . S
C1319 C1318 1.362 . S
H1320 C1326 0.930 . S
H1321 C1329 0.930 . S
H1322 C1330 0.930 . S
H1323 C1331 0.930 . S
H1324 C1334 0.930 . S
H1325 C1335 0.930 . S
C1326 H1320 0.930 . S
C1326 C1327 1.355 . S
C1326 C1328 1.415 . S
C1327 C1326 1.355 . S
C1327 C1329 1.419 . S
C1328 C1326 1.415 . S
C1328 C1333 1.425 . S
C1328 C1335 1.409 . S
C1329 H1321 0.930 . S
C1329 C1327 1.419 . S
C1329 C1330 1.362 . S
C1330 H1322 0.930 . S
C1330 C1329 1.362 . S
C1330 C1333 1.409 . S
C1331 H1323 0.930 . S
C1331 C1332 1.355 . S
C1331 C1333 1.415 . S
C1332 C1331 1.355 . S
C1332 C1334 1.419 . S
C1333 C1328 1.425 . S
C1333 C1330 1.409 . S
C1333 C1331 1.415 . S
C1334 H1324 0.930 . S
C1334 C1332 1.419 . S
C1334 C1335 1.362 . S
C1335 H1325 0.930 . S
C1335 C1328 1.409 . S
C1335 C1334 1.362 . S
H1336 C1342 0.930 . S
H1337 C1345 0.930 . S
H1338 C1346 0.930 . S
H1339 C1347 0.930 . S
H1340 C1350 0.930 . S
H1341 C1351 0.930 . S
C1342 H1336 0.930 . S
C1342 C1343 1.355 . S
C1342 C1344 1.415 . S
C1343 C1342 1.355 . S
C1343 C1345 1.419 . S
C1344 C1342 1.415 . S
C1344 C1349 1.425 . S
C1344 C1351 1.409 . S
C1345 H1337 0.930 . S
C1345 C1343 1.419 . S
C1345 C1346 1.362 . S
C1346 H1338 0.930 . S
C1346 C1345 1.362 . S
C1346 C1349 1.409 . S
C1347 H1339 0.930 . S
C1347 C1348 1.355 . S
C1347 C1349 1.415 . S
C1348 C1347 1.355 . S
C1348 C1350 1.419 . S
C1349 C1344 1.425 . S
C1349 C1346 1.409 . S
C1349 C1347 1.415 . S
C1350 H1340 0.930 . S
C1350 C1348 1.419 . S
C1350 C1351 1.362 . S
C1351 H1341 0.930 . S
C1351 C1344 1.409 . S
C1351 C1350 1.362 . S
H1352 C1358 0.930 . S
H1353 C1361 0.930 . S
H1354 C1362 0.930 . S
H1355 C1363 0.930 1_545 S
H1356 C1366 0.930 . S
H1357 C1367 0.930 . S
C1358 H1352 0.930 . S
C1358 C1359 1.355 . S
C1358 C1360 1.415 . S
C1359 C1358 1.355 . S
C1359 C1361 1.419 1_565 S
C1360 C1358 1.415 . S
C1360 C1365 1.425 . S
C1360 C1367 1.409 . S
C1361 H1353 0.930 . S
C1361 C1359 1.419 1_545 S
C1361 C1362 1.362 . S
C1362 H1354 0.930 . S
C1362 C1361 1.362 . S
C1362 C1365 1.409 1_545 S
C1363 H1355 0.930 1_565 S
C1363 C1364 1.355 . S
C1363 C1365 1.415 . S
C1364 C1363 1.355 . S
C1364 C1366 1.419 . S
C1365 C1360 1.425 . S
C1365 C1362 1.409 1_565 S
C1365 C1363 1.415 . S
C1366 H1356 0.930 . S
C1366 C1364 1.419 . S
C1366 C1367 1.362 . S
C1367 H1357 0.930 . S
C1367 C1360 1.409 . S
C1367 C1366 1.362 . S
H1368 C1374 0.930 1_565 S
H1369 C1377 0.930 . S
H1370 C1378 0.930 . S
H1371 C1379 0.930 . S
H1372 C1382 0.930 1_565 S
H1373 C1383 0.930 . S
C1374 H1368 0.930 1_545 S
C1374 C1375 1.355 . S
C1374 C1376 1.415 . S
C1375 C1374 1.355 . S
C1375 C1377 1.419 . S
C1376 C1374 1.415 . S
C1376 C1381 1.425 . S
C1376 C1383 1.409 1_545 S
C1377 H1369 0.930 . S
C1377 C1375 1.419 . S
C1377 C1378 1.362 . S
C1378 H1370 0.930 . S
C1378 C1377 1.362 . S
C1378 C1381 1.409 . S
C1379 H1371 0.930 . S
C1379 C1380 1.355 . S
C1379 C1381 1.415 . S
C1380 C1379 1.355 . S
C1380 C1382 1.419 . S
C1381 C1376 1.425 . S
C1381 C1378 1.409 . S
C1381 C1379 1.415 . S
C1382 H1372 0.930 1_545 S
C1382 C1380 1.419 . S
C1382 C1383 1.362 1_545 S
C1383 H1373 0.930 . S
C1383 C1376 1.409 1_565 S
C1383 C1382 1.362 1_565 S
H1384 C1390 0.930 . S
H1385 C1393 0.930 . S
H1386 C1394 0.930 . S
H1387 C1395 0.930 . S
H1388 C1398 0.930 . S
H1389 C1399 0.930 . S
C1390 H1384 0.930 . S
C1390 C1391 1.355 . S
C1390 C1392 1.415 . S
C1391 C1390 1.355 . S
C1391 C1393 1.419 . S
C1392 C1390 1.415 . S
C1392 C1397 1.425 . S
C1392 C1399 1.409 . S
C1393 H1385 0.930 . S
C1393 C1391 1.419 . S
C1393 C1394 1.362 . S
C1394 H1386 0.930 . S
C1394 C1393 1.362 . S
C1394 C1397 1.409 . S
C1395 H1387 0.930 . S
C1395 C1396 1.355 . S
C1395 C1397 1.415 . S
C1396 C1395 1.355 . S
C1396 C1398 1.419 . S
C1397 C1392 1.425 . S
C1397 C1394 1.409 . S
C1397 C1395 1.415 . S
C1398 H1388 0.930 . S
C1398 C1396 1.419 . S
C1398 C1399 1.362 . S
C1399 H1389 0.930 . S
C1399 C1392 1.409 . S
C1399 C1398 1.362 . S
H1400 C1406 0.930 1_556 S
H1401 C1409 0.930 . S
H1402 C1410 0.930 . S
H1403 C1411 0.930 . S
H1404 C1414 0.930 . S
H1405 C1415 0.930 1_556 S
C1406 H1400 0.930 1_554 S
C1406 C1407 1.355 . S
C1406 C1408 1.415 . S
C1407 C1406 1.355 . S
C1407 C1409 1.419 . S
C1408 C1406 1.415 . S
C1408 C1413 1.425 . S
C1408 C1415 1.409 . S
C1409 H1401 0.930 . S
C1409 C1407 1.419 . S
C1409 C1410 1.362 . S
C1410 H1402 0.930 . S
C1410 C1409 1.362 . S
C1410 C1413 1.409 . S
C1411 H1403 0.930 . S
C1411 C1412 1.355 . S
C1411 C1413 1.415 . S
C1412 C1411 1.355 . S
C1412 C1414 1.419 . S
C1413 C1408 1.425 . S
C1413 C1410 1.409 . S
C1413 C1411 1.415 . S
C1414 H1404 0.930 . S
C1414 C1412 1.419 . S
C1414 C1415 1.362 . S
C1415 H1405 0.930 1_554 S
C1415 C1408 1.409 . S
C1415 C1414 1.362 . S
H1416 C1422 0.930 . S
H1417 C1425 0.930 . S
H1418 C1426 0.930 . S
H1419 C1427 0.930 . S
H1420 C1430 0.930 . S
H1421 C1431 0.930 . S
C1422 H1416 0.930 . S
C1422 C1423 1.355 . S
C1422 C1424 1.415 . S
C1423 C1422 1.355 . S
C1423 C1425 1.419 . S
C1424 C1422 1.415 . S
C1424 C1429 1.425 . S
C1424 C1431 1.409 . S
C1425 H1417 0.930 . S
C1425 C1423 1.419 . S
C1425 C1426 1.362 . S
C1426 H1418 0.930 . S
C1426 C1425 1.362 . S
C1426 C1429 1.409 . S
C1427 H1419 0.930 . S
C1427 C1428 1.355 . S
C1427 C1429 1.415 . S
C1428 C1427 1.355 . S
C1428 C1430 1.419 . S
C1429 C1424 1.425 . S
C1429 C1426 1.409 . S
C1429 C1427 1.415 . S
C1430 H1420 0.930 . S
C1430 C1428 1.419 . S
C1430 C1431 1.362 . S
C1431 H1421 0.930 . S
C1431 C1424 1.409 . S
C1431 C1430 1.362 . S
H1432 C1438 0.930 . S
H1433 C1441 0.930 . S
H1434 C1442 0.930 . S
H1435 C1443 0.930 1_554 S
H1436 C1446 0.930 . S
H1437 C1447 0.930 . S
C1438 H1432 0.930 . S
C1438 C1439 1.355 . S
C1438 C1440 1.415 . S
C1439 C1438 1.355 . S
C1439 C1441 1.419 1_556 S
C1440 C1438 1.415 . S
C1440 C1445 1.425 . S
C1440 C1447 1.409 . S
C1441 H1433 0.930 . S
C1441 C1439 1.419 1_554 S
C1441 C1442 1.362 . S
C1442 H1434 0.930 . S
C1442 C1441 1.362 . S
C1442 C1445 1.409 1_554 S
C1443 H1435 0.930 1_556 S
C1443 C1444 1.355 . S
C1443 C1445 1.415 . S
C1444 C1443 1.355 . S
C1444 C1446 1.419 . S
C1445 C1440 1.425 . S
C1445 C1442 1.409 1_556 S
C1445 C1443 1.415 . S
C1446 H1436 0.930 . S
C1446 C1444 1.419 . S
C1446 C1447 1.362 . S
C1447 H1437 0.930 . S
C1447 C1440 1.409 . S
C1447 C1446 1.362 . S
H1448 C1454 0.930 . S
H1449 C1457 0.930 . S
H1450 C1458 0.930 . S
H1451 C1459 0.930 . S
H1452 C1462 0.930 . S
H1453 C1463 0.930 . S
C1454 H1448 0.930 . S
C1454 C1455 1.355 . S
C1454 C1456 1.415 . S
C1455 C1454 1.355 . S
C1455 C1457 1.419 . S
C1456 C1454 1.415 . S
C1456 C1461 1.425 . S
C1456 C1463 1.409 . S
C1457 H1449 0.930 . S
C1457 C1455 1.419 . S
C1457 C1458 1.362 . S
C1458 H1450 0.930 . S
C1458 C1457 1.362 . S
C1458 C1461 1.409 . S
C1459 H1451 0.930 . S
C1459 C1460 1.355 . S
C1459 C1461 1.415 . S
C1460 C1459 1.355 . S
C1460 C1462 1.419 . S
C1461 C1456 1.425 . S
C1461 C1458 1.409 . S
C1461 C1459 1.415 . S
C1462 H1452 0.930 . S
C1462 C1460 1.419 . S
C1462 C1463 1.362 . S
C1463 H1453 0.930 . S
C1463 C1456 1.409 . S
C1463 C1462 1.362 . S
H1464 C1470 0.930 . S
H1465 C1473 0.935 . S
H1466 C1474 0.930 . S
H1467 C1475 0.930 . S
H1468 C1478 0.930 . S
H1469 C1479 0.930 . S
C1470 H1464 0.930 . S
C1470 C1471 1.355 . S
C1470 C1472 1.415 . S
C1471 C1470 1.355 . S
C1471 C1473 1.419 . S
C1472 C1470 1.415 . S
C1472 C1477 1.425 . S
C1472 C1479 1.409 . S
C1473 H1465 0.935 . S
C1473 C1471 1.419 . S
C1473 C1474 1.362 . S
C1474 H1466 0.930 . S
C1474 C1473 1.362 . S
C1474 C1477 1.409 . S
C1475 H1467 0.930 . S
C1475 C1476 1.355 . S
C1475 C1477 1.415 . S
C1476 C1475 1.355 . S
C1476 C1478 1.419 . S
C1477 C1472 1.425 . S
C1477 C1474 1.409 . S
C1477 C1475 1.415 . S
C1478 H1468 0.930 . S
C1478 C1476 1.419 . S
C1478 C1479 1.362 . S
C1479 H1469 0.930 . S
C1479 C1472 1.409 . S
C1479 C1478 1.362 . S
H1480 C1486 0.930 . S
H1481 C1489 0.930 . S
H1482 C1490 0.930 . S
H1483 C1491 0.930 . S
H1484 C1494 0.930 . S
H1485 C1495 0.930 . S
C1486 H1480 0.930 . S
C1486 C1487 1.355 . S
C1486 C1488 1.415 . S
C1487 C1486 1.355 . S
C1487 C1489 1.419 . S
C1488 C1486 1.415 . S
C1488 C1493 1.425 . S
C1488 C1495 1.409 . S
C1489 H1481 0.930 . S
C1489 C1487 1.419 . S
C1489 C1490 1.362 . S
C1490 H1482 0.930 . S
C1490 C1489 1.362 . S
C1490 C1493 1.409 . S
C1491 H1483 0.930 . S
C1491 C1492 1.355 . S
C1491 C1493 1.415 . S
C1492 C1491 1.355 . S
C1492 C1494 1.419 . S
C1493 C1488 1.425 . S
C1493 C1490 1.409 . S
C1493 C1491 1.415 . S
C1494 H1484 0.930 . S
C1494 C1492 1.419 . S
C1494 C1495 1.362 . S
C1495 H1485 0.930 . S
C1495 C1488 1.409 . S
C1495 C1494 1.362 . S
H1496 C1502 0.930 1_455 S
H1497 C1505 0.930 . S
H1498 C1506 0.930 . S
H1499 C1507 0.930 . S
H1500 C1510 0.930 1_455 S
H1501 C1511 0.930 . S
C1502 H1496 0.930 1_655 S
C1502 C1503 1.355 . S
C1502 C1504 1.415 . S
C1503 C1502 1.355 . S
C1503 C1505 1.419 . S
C1504 C1502 1.415 . S
C1504 C1509 1.425 . S
C1504 C1511 1.409 1_655 S
C1505 H1497 0.930 . S
C1505 C1503 1.419 . S
C1505 C1506 1.362 . S
C1506 H1498 0.930 . S
C1506 C1505 1.362 . S
C1506 C1509 1.409 . S
C1507 H1499 0.930 . S
C1507 C1508 1.355 . S
C1507 C1509 1.415 . S
C1508 C1507 1.355 . S
C1508 C1510 1.419 . S
C1509 C1504 1.425 . S
C1509 C1506 1.409 . S
C1509 C1507 1.415 . S
C1510 H1500 0.930 1_655 S
C1510 C1508 1.419 . S
C1510 C1511 1.362 1_655 S
C1511 H1501 0.930 . S
C1511 C1504 1.409 1_455 S
C1511 C1510 1.362 1_455 S
H1512 C1518 0.930 . S
H1513 C1521 0.930 . S
H1514 C1522 0.930 . S
H1515 C1523 0.930 . S
H1516 C1526 0.930 . S
H1517 C1527 0.930 . S
C1518 H1512 0.930 . S
C1518 C1519 1.355 . S
C1518 C1520 1.415 . S
C1519 C1518 1.355 . S
C1519 C1521 1.419 . S
C1520 C1518 1.415 . S
C1520 C1525 1.425 . S
C1520 C1527 1.409 . S
C1521 H1513 0.930 . S
C1521 C1519 1.419 . S
C1521 C1522 1.362 . S
C1522 H1514 0.930 . S
C1522 C1521 1.362 . S
C1522 C1525 1.409 . S
C1523 H1515 0.930 . S
C1523 C1524 1.355 . S
C1523 C1525 1.415 . S
C1524 C1523 1.355 . S
C1524 C1526 1.419 . S
C1525 C1520 1.425 . S
C1525 C1522 1.409 . S
C1525 C1523 1.415 . S
C1526 H1516 0.930 . S
C1526 C1524 1.419 . S
C1526 C1527 1.362 . S
C1527 H1517 0.930 . S
C1527 C1520 1.409 . S
C1527 C1526 1.362 . S
H1528 C1534 0.930 . S
H1529 C1537 0.930 . S
H1530 C1538 0.930 . S
H1531 C1539 0.930 . S
H1532 C1542 0.930 . S
H1533 C1543 0.930 . S
C1534 H1528 0.930 . S
C1534 C1535 1.355 . S
C1534 C1536 1.415 . S
C1535 C1534 1.355 . S
C1535 C1537 1.419 . S
C1536 C1534 1.415 . S
C1536 C1541 1.425 . S
C1536 C1543 1.409 . S
C1537 H1529 0.930 . S
C1537 C1535 1.419 . S
C1537 C1538 1.362 . S
C1538 H1530 0.930 . S
C1538 C1537 1.362 . S
C1538 C1541 1.409 . S
C1539 H1531 0.930 . S
C1539 C1540 1.355 . S
C1539 C1541 1.415 . S
C1540 C1539 1.355 . S
C1540 C1542 1.419 . S
C1541 C1536 1.425 . S
C1541 C1538 1.409 . S
C1541 C1539 1.415 . S
C1542 H1532 0.930 . S
C1542 C1540 1.419 . S
C1542 C1543 1.362 . S
C1543 H1533 0.930 . S
C1543 C1536 1.409 . S
C1543 C1542 1.362 . S
H1544 C1550 0.930 . S
H1545 C1553 0.930 . S
H1546 C1554 0.930 . S
H1547 C1555 0.930 . S
H1548 C1558 0.930 . S
H1549 C1559 0.930 . S
C1550 H1544 0.930 . S
C1550 C1551 1.355 1_545 S
C1550 C1552 1.415 . S
C1551 C1550 1.355 1_565 S
C1551 C1553 1.419 . S
C1552 C1550 1.415 . S
C1552 C1557 1.425 1_545 S
C1552 C1559 1.409 . S
C1553 H1545 0.930 . S
C1553 C1551 1.419 . S
C1553 C1554 1.362 . S
C1554 H1546 0.930 . S
C1554 C1553 1.362 . S
C1554 C1557 1.409 . S
C1555 H1547 0.930 . S
C1555 C1556 1.355 1_565 S
C1555 C1557 1.415 . S
C1556 C1555 1.355 1_545 S
C1556 C1558 1.419 . S
C1557 C1552 1.425 1_565 S
C1557 C1554 1.409 . S
C1557 C1555 1.415 . S
C1558 H1548 0.930 . S
C1558 C1556 1.419 . S
C1558 C1559 1.362 . S
C1559 H1549 0.930 . S
C1559 C1552 1.409 . S
C1559 C1558 1.362 . S
H1560 C1566 0.930 . S
H1561 C1569 0.930 . S
H1562 C1570 0.930 . S
H1563 C1571 0.930 . S
H1564 C1574 0.930 . S
H1565 C1575 0.939 . S
C1566 H1560 0.930 . S
C1566 C1567 1.355 . S
C1566 C1568 1.415 . S
C1567 C1566 1.355 . S
C1567 C1569 1.419 . S
C1568 C1566 1.415 . S
C1568 C1573 1.425 . S
C1568 C1575 1.400 1_545 S
C1569 H1561 0.930 . S
C1569 C1567 1.419 . S
C1569 C1570 1.362 . S
C1570 H1562 0.930 . S
C1570 C1569 1.362 . S
C1570 C1573 1.409 . S
C1571 H1563 0.930 . S
C1571 C1572 1.355 . S
C1571 C1573 1.415 . S
C1572 C1571 1.355 . S
C1572 C1574 1.419 1_545 S
C1573 C1568 1.425 . S
C1573 C1570 1.409 . S
C1573 C1571 1.415 . S
C1574 H1564 0.930 . S
C1574 C1572 1.419 1_565 S
C1574 C1575 1.364 . S
C1575 H1565 0.939 . S
C1575 C1568 1.400 1_565 S
C1575 C1574 1.364 . S
H1576 C1582 0.930 . S
H1577 C1585 0.930 . S
H1578 C1586 0.930 . S
H1579 C1587 0.930 . S
H1580 C1590 0.930 . S
H1581 C1591 0.930 . S
C1582 H1576 0.930 . S
C1582 C1583 1.355 . S
C1582 C1584 1.415 . S
C1583 C1582 1.355 . S
C1583 C1585 1.419 . S
C1584 C1582 1.415 . S
C1584 C1589 1.425 . S
C1584 C1591 1.409 . S
C1585 H1577 0.930 . S
C1585 C1583 1.419 . S
C1585 C1586 1.362 . S
C1586 H1578 0.930 . S
C1586 C1585 1.362 . S
C1586 C1589 1.409 . S
C1587 H1579 0.930 . S
C1587 C1588 1.355 . S
C1587 C1589 1.415 . S
C1588 C1587 1.355 . S
C1588 C1590 1.419 . S
C1589 C1584 1.425 . S
C1589 C1586 1.409 . S
C1589 C1587 1.415 . S
C1590 H1580 0.930 . S
C1590 C1588 1.419 . S
C1590 C1591 1.362 . S
C1591 H1581 0.930 . S
C1591 C1584 1.409 . S
C1591 C1590 1.362 . S
H1592 C1598 0.930 1_556 S
H1593 C1601 0.930 . S
H1594 C1602 0.930 . S
H1595 C1603 0.930 . S
H1596 C1606 0.930 . S
H1597 C1607 0.930 . S
C1598 H1592 0.930 1_554 S
C1598 C1599 1.355 . S
C1598 C1600 1.415 . S
C1599 C1598 1.355 . S
C1599 C1601 1.419 . S
C1600 C1598 1.415 . S
C1600 C1605 1.425 . S
C1600 C1607 1.409 1_554 S
C1601 H1593 0.930 . S
C1601 C1599 1.419 . S
C1601 C1602 1.362 . S
C1602 H1594 0.930 . S
C1602 C1601 1.362 . S
C1602 C1605 1.409 . S
C1603 H1595 0.930 . S
C1603 C1604 1.355 . S
C1603 C1605 1.415 . S
C1604 C1603 1.355 . S
C1604 C1606 1.419 1_554 S
C1605 C1600 1.425 . S
C1605 C1602 1.409 . S
C1605 C1603 1.415 . S
C1606 H1596 0.930 . S
C1606 C1604 1.419 1_556 S
C1606 C1607 1.362 . S
C1607 H1597 0.930 . S
C1607 C1600 1.409 1_556 S
C1607 C1606 1.362 . S
H1608 C1614 0.930 . S
H1609 C1617 0.930 . S
H1610 C1618 0.930 . S
H1611 C1619 0.930 . S
H1612 C1622 0.930 . S
H1613 C1623 0.930 . S
C1614 H1608 0.930 . S
C1614 C1615 1.355 . S
C1614 C1616 1.415 . S
C1615 C1614 1.355 . S
C1615 C1617 1.419 . S
C1616 C1614 1.415 . S
C1616 C1621 1.425 . S
C1616 C1623 1.409 . S
C1617 H1609 0.930 . S
C1617 C1615 1.419 . S
C1617 C1618 1.362 . S
C1618 H1610 0.930 . S
C1618 C1617 1.362 . S
C1618 C1621 1.409 . S
C1619 H1611 0.930 . S
C1619 C1620 1.355 . S
C1619 C1621 1.415 . S
C1620 C1619 1.355 . S
C1620 C1622 1.419 . S
C1621 C1616 1.425 . S
C1621 C1618 1.409 . S
C1621 C1619 1.415 . S
C1622 H1612 0.930 . S
C1622 C1620 1.419 . S
C1622 C1623 1.362 . S
C1623 H1613 0.930 . S
C1623 C1616 1.409 . S
C1623 C1622 1.362 . S
H1624 C1630 0.930 . S
H1625 C1633 0.930 . S
H1626 C1634 0.930 . S
H1627 C1635 0.930 . S
H1628 C1638 0.930 . S
H1629 C1639 0.930 . S
C1630 H1624 0.930 . S
C1630 C1631 1.355 . S
C1630 C1632 1.415 . S
C1631 C1630 1.355 . S
C1631 C1633 1.419 1_556 S
C1632 C1630 1.415 . S
C1632 C1637 1.425 1_556 S
C1632 C1639 1.409 . S
C1633 H1625 0.930 . S
C1633 C1631 1.419 1_554 S
C1633 C1634 1.362 . S
C1634 H1626 0.930 . S
C1634 C1633 1.362 . S
C1634 C1637 1.409 . S
C1635 H1627 0.930 . S
C1635 C1636 1.355 . S
C1635 C1637 1.415 . S
C1636 C1635 1.355 . S
C1636 C1638 1.419 1_554 S
C1637 C1632 1.425 1_554 S
C1637 C1634 1.409 . S
C1637 C1635 1.415 . S
C1638 H1628 0.930 . S
C1638 C1636 1.419 1_556 S
C1638 C1639 1.362 . S
C1639 H1629 0.930 . S
C1639 C1632 1.409 . S
C1639 C1638 1.362 . S
H1640 C1646 0.930 . S
H1641 C1649 0.930 . S
H1642 C1650 0.930 . S
H1643 C1651 0.930 . S
H1644 C1654 0.930 . S
H1645 C1655 0.930 . S
C1646 H1640 0.930 . S
C1646 C1647 1.355 . S
C1646 C1648 1.415 . S
C1647 C1646 1.355 . S
C1647 C1649 1.419 . S
C1648 C1646 1.415 . S
C1648 C1653 1.425 . S
C1648 C1655 1.409 . S
C1649 H1641 0.930 . S
C1649 C1647 1.419 . S
C1649 C1650 1.362 . S
C1650 H1642 0.930 . S
C1650 C1649 1.362 . S
C1650 C1653 1.409 . S
C1651 H1643 0.930 . S
C1651 C1652 1.355 . S
C1651 C1653 1.415 . S
C1652 C1651 1.355 . S
C1652 C1654 1.419 . S
C1653 C1648 1.425 . S
C1653 C1650 1.409 . S
C1653 C1651 1.415 . S
C1654 H1644 0.930 . S
C1654 C1652 1.419 . S
C1654 C1655 1.362 . S
C1655 H1645 0.930 . S
C1655 C1648 1.409 . S
C1655 C1654 1.362 . S
H1656 C1662 0.930 . S
H1657 C1665 0.930 . S
H1658 C1666 0.930 . S
H1659 C1667 0.930 . S
H1660 C1670 0.930 . S
H1661 C1671 0.930 . S
C1662 H1656 0.930 . S
C1662 C1663 1.354 1_655 S
C1662 C1664 1.416 . S
C1663 C1662 1.354 1_455 S
C1663 C1665 1.419 . S
C1664 C1662 1.416 . S
C1664 C1669 1.407 1_655 S
C1664 C1671 1.425 . S
C1665 H1657 0.930 . S
C1665 C1663 1.419 . S
C1665 C1666 1.362 . S
C1666 H1658 0.930 . S
C1666 C1665 1.362 . S
C1666 C1669 1.409 . S
C1667 H1659 0.930 . S
C1667 C1668 1.376 . S
C1667 C1669 1.415 . S
C1668 C1667 1.376 . S
C1668 C1670 1.395 1_455 S
C1669 C1664 1.407 1_455 S
C1669 C1666 1.409 . S
C1669 C1667 1.415 . S
C1670 H1660 0.930 . S
C1670 C1668 1.395 1_655 S
C1670 C1671 1.362 . S
C1671 H1661 0.930 . S
C1671 C1664 1.425 . S
C1671 C1670 1.362 . S
H1672 C1678 0.930 . S
H1673 C1681 0.930 . S
H1674 C1682 0.930 . S
H1675 C1683 0.930 . S
H1676 C1686 0.930 . S
H1677 C1687 0.930 . S
C1678 H1672 0.930 . S
C1678 C1679 1.355 . S
C1678 C1680 1.415 . S
C1679 C1678 1.355 . S
C1679 C1681 1.419 . S
C1680 C1678 1.415 . S
C1680 C1685 1.425 . S
C1680 C1687 1.409 . S
C1681 H1673 0.930 . S
C1681 C1679 1.419 . S
C1681 C1682 1.362 . S
C1682 H1674 0.930 . S
C1682 C1681 1.362 . S
C1682 C1685 1.409 . S
C1683 H1675 0.930 . S
C1683 C1684 1.355 . S
C1683 C1685 1.415 . S
C1684 C1683 1.355 . S
C1684 C1686 1.419 . S
C1685 C1680 1.425 . S
C1685 C1682 1.409 . S
C1685 C1683 1.415 . S
C1686 H1676 0.930 . S
C1686 C1684 1.419 . S
C1686 C1687 1.362 . S
C1687 H1677 0.930 . S
C1687 C1680 1.409 . S
C1687 C1686 1.362 . S
H1688 C1694 0.930 . S
H1689 C1697 0.930 . S
H1690 C1698 0.930 . S
H1691 C1699 0.930 . S
H1692 C1702 0.930 . S
H1693 C1703 0.930 . S
C1694 H1688 0.930 . S
C1694 C1695 1.355 . S
C1694 C1696 1.415 . S
C1695 C1694 1.355 . S
C1695 C1697 1.419 1_655 S
C1696 C1694 1.415 . S
C1696 C1701 1.425 1_655 S
C1696 C1703 1.409 . S
C1697 H1689 0.930 . S
C1697 C1695 1.419 1_455 S
C1697 C1698 1.362 . S
C1698 H1690 0.930 . S
C1698 C1697 1.362 . S
C1698 C1701 1.409 . S
C1699 H1691 0.930 . S
C1699 C1700 1.355 . S
C1699 C1701 1.415 . S
C1700 C1699 1.355 . S
C1700 C1702 1.419 1_455 S
C1701 C1696 1.425 1_455 S
C1701 C1698 1.409 . S
C1701 C1699 1.415 . S
C1702 H1692 0.930 . S
C1702 C1700 1.419 1_655 S
C1702 C1703 1.362 . S
C1703 H1693 0.930 . S
C1703 C1696 1.409 . S
C1703 C1702 1.362 . S
H1704 C1710 0.930 . S
H1705 C1713 0.930 . S
H1706 C1714 0.930 . S
H1707 C1715 0.930 . S
H1708 C1718 0.930 . S
H1709 C1719 0.930 . S
C1710 H1704 0.930 . S
C1710 C1711 1.355 . S
C1710 C1712 1.415 . S
C1711 C1710 1.355 . S
C1711 C1713 1.419 . S
C1712 C1710 1.415 . S
C1712 C1717 1.425 . S
C1712 C1719 1.409 . S
C1713 H1705 0.930 . S
C1713 C1711 1.419 . S
C1713 C1714 1.362 . S
C1714 H1706 0.930 . S
C1714 C1713 1.362 . S
C1714 C1717 1.409 . S
C1715 H1707 0.930 . S
C1715 C1716 1.355 . S
C1715 C1717 1.415 . S
C1716 C1715 1.355 . S
C1716 C1718 1.419 . S
C1717 C1712 1.425 . S
C1717 C1714 1.409 . S
C1717 C1715 1.415 . S
C1718 H1708 0.930 . S
C1718 C1716 1.419 . S
C1718 C1719 1.362 . S
C1719 H1709 0.930 . S
C1719 C1712 1.409 . S
C1719 C1718 1.362 . S
H1720 C1726 0.930 . S
H1721 C1729 0.930 . S
H1722 C1730 0.930 . S
H1723 C1731 0.930 . S
H1724 C1734 0.930 . S
H1725 C1735 0.930 . S
C1726 H1720 0.930 . S
C1726 C1727 1.355 . S
C1726 C1728 1.415 . S
C1727 C1726 1.355 . S
C1727 C1729 1.419 . S
C1728 C1726 1.415 . S
C1728 C1733 1.425 . S
C1728 C1735 1.409 . S
C1729 H1721 0.930 . S
C1729 C1727 1.419 . S
C1729 C1730 1.362 . S
C1730 H1722 0.930 . S
C1730 C1729 1.362 . S
C1730 C1733 1.409 . S
C1731 H1723 0.930 . S
C1731 C1732 1.355 . S
C1731 C1733 1.415 . S
C1732 C1731 1.355 . S
C1732 C1734 1.419 . S
C1733 C1728 1.425 . S
C1733 C1730 1.409 . S
C1733 C1731 1.415 . S
C1734 H1724 0.930 . S
C1734 C1732 1.419 . S
C1734 C1735 1.362 . S
C1735 H1725 0.930 . S
C1735 C1728 1.409 . S
C1735 C1734 1.362 . S
H1736 C1742 0.930 . S
H1737 C1745 0.930 . S
H1738 C1746 0.930 . S
H1739 C1747 0.930 . S
H1740 C1750 0.930 . S
H1741 C1751 0.930 . S
C1742 H1736 0.930 . S
C1742 C1743 1.355 . S
C1742 C1744 1.415 . S
C1743 C1742 1.355 . S
C1743 C1745 1.419 1_545 S
C1744 C1742 1.415 . S
C1744 C1749 1.425 1_545 S
C1744 C1751 1.409 . S
C1745 H1737 0.930 . S
C1745 C1743 1.419 1_565 S
C1745 C1746 1.362 . S
C1746 H1738 0.930 . S
C1746 C1745 1.362 . S
C1746 C1749 1.409 . S
C1747 H1739 0.930 . S
C1747 C1748 1.355 . S
C1747 C1749 1.415 . S
C1748 C1747 1.355 . S
C1748 C1750 1.419 1_565 S
C1749 C1744 1.425 1_565 S
C1749 C1746 1.409 . S
C1749 C1747 1.415 . S
C1750 H1740 0.930 . S
C1750 C1748 1.419 1_545 S
C1750 C1751 1.362 . S
C1751 H1741 0.930 . S
C1751 C1744 1.409 . S
C1751 C1750 1.362 . S
H1752 C1758 0.930 . S
H1753 C1761 0.930 . S
H1754 C1762 0.930 . S
H1755 C1763 0.930 . S
H1756 C1766 0.930 . S
H1757 C1767 0.930 . S
C1758 H1752 0.930 . S
C1758 C1759 1.355 . S
C1758 C1760 1.415 . S
C1759 C1758 1.355 . S
C1759 C1761 1.419 1_565 S
C1760 C1758 1.415 . S
C1760 C1765 1.425 1_565 S
C1760 C1767 1.409 . S
C1761 H1753 0.930 . S
C1761 C1759 1.419 1_545 S
C1761 C1762 1.362 . S
C1762 H1754 0.930 . S
C1762 C1761 1.362 . S
C1762 C1765 1.409 . S
C1763 H1755 0.930 . S
C1763 C1764 1.355 1_545 S
C1763 C1765 1.415 . S
C1764 C1763 1.355 1_565 S
C1764 C1766 1.419 . S
C1765 C1760 1.425 1_545 S
C1765 C1762 1.409 . S
C1765 C1763 1.415 . S
C1766 H1756 0.930 . S
C1766 C1764 1.419 . S
C1766 C1767 1.362 . S
C1767 H1757 0.930 . S
C1767 C1760 1.409 . S
C1767 C1766 1.362 . S
H1768 C1774 0.930 . S
H1769 C1777 0.930 . S
H1770 C1778 0.930 . S
H1771 C1779 0.930 . S
H1772 C1782 0.930 . S
H1773 C1783 0.930 . S
C1774 H1768 0.930 . S
C1774 C1775 1.355 . S
C1774 C1776 1.415 . S
C1775 C1774 1.355 . S
C1775 C1777 1.419 . S
C1776 C1774 1.415 . S
C1776 C1781 1.425 . S
C1776 C1783 1.409 . S
C1777 H1769 0.930 . S
C1777 C1775 1.419 . S
C1777 C1778 1.362 . S
C1778 H1770 0.930 . S
C1778 C1777 1.362 . S
C1778 C1781 1.409 . S
C1779 H1771 0.930 . S
C1779 C1780 1.355 . S
C1779 C1781 1.415 . S
C1780 C1779 1.355 . S
C1780 C1782 1.419 . S
C1781 C1776 1.425 . S
C1781 C1778 1.409 . S
C1781 C1779 1.415 . S
C1782 H1772 0.930 . S
C1782 C1780 1.419 . S
C1782 C1783 1.362 . S
C1783 H1773 0.930 . S
C1783 C1776 1.409 . S
C1783 C1782 1.362 . S
H1784 C1790 0.930 . S
H1785 C1793 0.930 . S
H1786 C1794 0.930 . S
H1787 C1795 0.930 . S
H1788 C1798 0.930 . S
H1789 C1799 0.930 . S
C1790 H1784 0.930 . S
C1790 C1791 1.355 . S
C1790 C1792 1.415 . S
C1791 C1790 1.355 . S
C1791 C1793 1.419 1_556 S
C1792 C1790 1.415 . S
C1792 C1797 1.446 . S
C1792 C1799 1.409 . S
C1793 H1785 0.930 . S
C1793 C1791 1.419 1_554 S
C1793 C1794 1.362 . S
C1794 H1786 0.930 . S
C1794 C1793 1.362 . S
C1794 C1797 1.395 1_554 S
C1795 H1787 0.930 . S
C1795 C1796 1.355 1_554 S
C1795 C1797 1.410 1_554 S
C1796 C1795 1.355 1_556 S
C1796 C1798 1.419 . S
C1797 C1792 1.446 . S
C1797 C1794 1.395 1_556 S
C1797 C1795 1.410 1_556 S
C1798 H1788 0.930 . S
C1798 C1796 1.419 . S
C1798 C1799 1.362 . S
C1799 H1789 0.930 . S
C1799 C1792 1.409 . S
C1799 C1798 1.362 . S
H1800 C1806 0.930 . S
H1801 C1809 0.930 . S
H1802 C1810 0.930 . S
H1803 C1811 0.930 . S
H1804 C1814 0.930 . S
H1805 C1815 0.930 . S
C1806 H1800 0.930 . S
C1806 C1807 1.355 . S
C1806 C1808 1.415 . S
C1807 C1806 1.355 . S
C1807 C1809 1.419 . S
C1808 C1806 1.415 . S
C1808 C1813 1.425 . S
C1808 C1815 1.409 . S
C1809 H1801 0.930 . S
C1809 C1807 1.419 . S
C1809 C1810 1.362 . S
C1810 H1802 0.930 . S
C1810 C1809 1.362 . S
C1810 C1813 1.409 . S
C1811 H1803 0.930 . S
C1811 C1812 1.355 . S
C1811 C1813 1.415 . S
C1812 C1811 1.355 . S
C1812 C1814 1.419 . S
C1813 C1808 1.425 . S
C1813 C1810 1.409 . S
C1813 C1811 1.415 . S
C1814 H1804 0.930 . S
C1814 C1812 1.419 . S
C1814 C1815 1.362 . S
C1815 H1805 0.930 . S
C1815 C1808 1.409 . S
C1815 C1814 1.362 . S
H1816 C1822 0.930 . S
H1817 C1825 0.930 . S
H1818 C1826 0.930 . S
H1819 C1827 0.930 . S
H1820 C1830 0.930 . S
H1821 C1831 0.930 . S
C1822 H1816 0.930 . S
C1822 C1823 1.355 . S
C1822 C1824 1.415 . S
C1823 C1822 1.355 . S
C1823 C1825 1.419 1_554 S
C1824 C1822 1.415 . S
C1824 C1829 1.425 1_554 S
C1824 C1831 1.409 . S
C1825 H1817 0.930 . S
C1825 C1823 1.419 1_556 S
C1825 C1826 1.362 . S
C1826 H1818 0.930 . S
C1826 C1825 1.362 . S
C1826 C1829 1.409 . S
C1827 H1819 0.930 . S
C1827 C1828 1.355 . S
C1827 C1829 1.415 . S
C1828 C1827 1.355 . S
C1828 C1830 1.419 1_556 S
C1829 C1824 1.425 1_556 S
C1829 C1826 1.409 . S
C1829 C1827 1.415 . S
C1830 H1820 0.930 . S
C1830 C1828 1.419 1_554 S
C1830 C1831 1.362 . S
C1831 H1821 0.930 . S
C1831 C1824 1.409 . S
C1831 C1830 1.362 . S
H1832 C1838 0.930 . S
H1833 C1841 0.930 . S
H1834 C1842 0.930 . S
H1835 C1843 0.930 . S
H1836 C1846 0.930 . S
H1837 C1847 0.930 . S
C1838 H1832 0.930 . S
C1838 C1839 1.355 . S
C1838 C1840 1.415 . S
C1839 C1838 1.355 . S
C1839 C1841 1.419 . S
C1840 C1838 1.415 . S
C1840 C1845 1.425 . S
C1840 C1847 1.409 . S
C1841 H1833 0.930 . S
C1841 C1839 1.419 . S
C1841 C1842 1.362 . S
C1842 H1834 0.930 . S
C1842 C1841 1.362 . S
C1842 C1845 1.409 . S
C1843 H1835 0.930 . S
C1843 C1844 1.355 . S
C1843 C1845 1.415 . S
C1844 C1843 1.355 . S
C1844 C1846 1.419 . S
C1845 C1840 1.425 . S
C1845 C1842 1.409 . S
C1845 C1843 1.415 . S
C1846 H1836 0.930 . S
C1846 C1844 1.419 . S
C1846 C1847 1.362 . S
C1847 H1837 0.930 . S
C1847 C1840 1.409 . S
C1847 C1846 1.362 . S
H1848 C1854 0.959 . S
H1849 C1857 0.930 . S
H1850 C1858 0.930 . S
H1851 C1859 0.930 . S
H1852 C1862 0.930 . S
H1853 C1863 0.930 . S
C1854 H1848 0.959 . S
C1854 C1855 1.328 1_455 S
C1854 C1856 1.415 . S
C1855 C1854 1.328 1_655 S
C1855 C1857 1.419 . S
C1856 C1854 1.415 . S
C1856 C1861 1.393 1_455 S
C1856 C1863 1.437 . S
C1857 H1849 0.930 . S
C1857 C1855 1.419 . S
C1857 C1858 1.362 . S
C1858 H1850 0.930 . S
C1858 C1857 1.362 . S
C1858 C1861 1.409 . S
C1859 H1851 0.930 . S
C1859 C1860 1.384 . S
C1859 C1861 1.415 . S
C1860 C1859 1.384 . S
C1860 C1862 1.386 1_655 S
C1861 C1856 1.393 1_655 S
C1861 C1858 1.409 . S
C1861 C1859 1.415 . S
C1862 H1852 0.930 . S
C1862 C1860 1.386 1_455 S
C1862 C1863 1.362 . S
C1863 H1853 0.930 . S
C1863 C1856 1.437 . S
C1863 C1862 1.362 . S
H1864 C1870 0.930 . S
H1865 C1873 0.930 . S
H1866 C1874 0.930 . S
H1867 C1875 0.930 . S
H1868 C1878 0.930 . S
H1869 C1879 0.930 . S
C1870 H1864 0.930 . S
C1870 C1871 1.355 . S
C1870 C1872 1.415 . S
C1871 C1870 1.355 . S
C1871 C1873 1.419 . S
C1872 C1870 1.415 . S
C1872 C1877 1.425 . S
C1872 C1879 1.409 . S
C1873 H1865 0.930 . S
C1873 C1871 1.419 . S
C1873 C1874 1.362 . S
C1874 H1866 0.930 . S
C1874 C1873 1.362 . S
C1874 C1877 1.409 . S
C1875 H1867 0.930 . S
C1875 C1876 1.355 . S
C1875 C1877 1.415 . S
C1876 C1875 1.355 . S
C1876 C1878 1.419 . S
C1877 C1872 1.425 . S
C1877 C1874 1.409 . S
C1877 C1875 1.415 . S
C1878 H1868 0.930 . S
C1878 C1876 1.419 . S
C1878 C1879 1.362 . S
C1879 H1869 0.930 . S
C1879 C1872 1.409 . S
C1879 C1878 1.362 . S
H1880 C1886 0.930 . S
H1881 C1889 0.930 . S
H1882 C1890 0.930 . S
H1883 C1891 0.930 . S
H1884 C1894 0.930 . S
H1885 C1895 0.930 . S
C1886 H1880 0.930 . S
C1886 C1887 1.355 1_655 S
C1886 C1888 1.415 . S
C1887 C1886 1.355 1_455 S
C1887 C1889 1.419 . S
C1888 C1886 1.415 . S
C1888 C1893 1.425 1_655 S
C1888 C1895 1.409 . S
C1889 H1881 0.930 . S
C1889 C1887 1.419 . S
C1889 C1890 1.362 . S
C1890 H1882 0.930 . S
C1890 C1889 1.362 . S
C1890 C1893 1.409 . S
C1891 H1883 0.930 . S
C1891 C1892 1.355 1_455 S
C1891 C1893 1.415 . S
C1892 C1891 1.355 1_655 S
C1892 C1894 1.419 . S
C1893 C1888 1.425 1_455 S
C1893 C1890 1.409 . S
C1893 C1891 1.415 . S
C1894 H1884 0.930 . S
C1894 C1892 1.419 . S
C1894 C1895 1.362 . S
C1895 H1885 0.930 . S
C1895 C1888 1.409 . S
C1895 C1894 1.362 . S
H1896 C1902 0.930 . S
H1897 C1905 0.930 . S
H1898 C1906 0.930 . S
H1899 C1907 0.930 . S
H1900 C1910 0.930 . S
H1901 C1911 0.930 . S
C1902 H1896 0.930 . S
C1902 C1903 1.355 . S
C1902 C1904 1.415 . S
C1903 C1902 1.355 . S
C1903 C1905 1.419 . S
C1904 C1902 1.415 . S
C1904 C1909 1.425 . S
C1904 C1911 1.409 . S
C1905 H1897 0.930 . S
C1905 C1903 1.419 . S
C1905 C1906 1.362 . S
C1906 H1898 0.930 . S
C1906 C1905 1.362 . S
C1906 C1909 1.409 . S
C1907 H1899 0.930 . S
C1907 C1908 1.355 . S
C1907 C1909 1.415 . S
C1908 C1907 1.355 . S
C1908 C1910 1.419 . S
C1909 C1904 1.425 . S
C1909 C1906 1.409 . S
C1909 C1907 1.415 . S
C1910 H1900 0.930 . S
C1910 C1908 1.419 . S
C1910 C1911 1.362 . S
C1911 H1901 0.930 . S
C1911 C1904 1.409 . S
C1911 C1910 1.362 . S
H1912 C1918 0.930 . S
H1913 C1921 0.930 . S
H1914 C1922 0.930 . S
H1915 C1923 0.930 . S
H1916 C1926 0.930 . S
H1917 C1927 0.930 . S
C1918 H1912 0.930 . S
C1918 C1919 1.355 . S
C1918 C1920 1.415 . S
C1919 C1918 1.355 . S
C1919 C1921 1.419 . S
C1920 C1918 1.415 . S
C1920 C1925 1.425 . S
C1920 C1927 1.409 . S
C1921 H1913 0.930 . S
C1921 C1919 1.419 . S
C1921 C1922 1.362 . S
C1922 H1914 0.930 . S
C1922 C1921 1.362 . S
C1922 C1925 1.409 . S
C1923 H1915 0.930 . S
C1923 C1924 1.355 . S
C1923 C1925 1.415 . S
C1924 C1923 1.355 . S
C1924 C1926 1.419 . S
C1925 C1920 1.425 . S
C1925 C1922 1.409 . S
C1925 C1923 1.415 . S
C1926 H1916 0.930 . S
C1926 C1924 1.419 . S
C1926 C1927 1.362 . S
C1927 H1917 0.930 . S
C1927 C1920 1.409 . S
C1927 C1926 1.362 . S
H1928 C1934 0.930 . S
H1929 C1937 0.930 . S
H1930 C1938 0.930 . S
H1931 C1939 0.930 . S
H1932 C1942 0.930 . S
H1933 C1943 0.930 . S
C1934 H1928 0.930 . S
C1934 C1935 1.355 . S
C1934 C1936 1.415 . S
C1935 C1934 1.355 . S
C1935 C1937 1.419 . S
C1936 C1934 1.415 . S
C1936 C1941 1.425 . S
C1936 C1943 1.409 . S
C1937 H1929 0.930 . S
C1937 C1935 1.419 . S
C1937 C1938 1.362 . S
C1938 H1930 0.930 . S
C1938 C1937 1.362 . S
C1938 C1941 1.409 . S
C1939 H1931 0.930 . S
C1939 C1940 1.355 . S
C1939 C1941 1.415 . S
C1940 C1939 1.355 . S
C1940 C1942 1.419 . S
C1941 C1936 1.425 . S
C1941 C1938 1.409 . S
C1941 C1939 1.415 . S
C1942 H1932 0.930 . S
C1942 C1940 1.419 . S
C1942 C1943 1.362 . S
C1943 H1933 0.930 . S
C1943 C1936 1.409 . S
C1943 C1942 1.362 . S
H1944 C1950 0.930 . S
H1945 C1953 0.930 . S
H1946 C1954 0.930 . S
H1947 C1955 0.930 . S
H1948 C1958 0.930 . S
H1949 C1959 0.930 . S
C1950 H1944 0.930 . S
C1950 C1951 1.355 . S
C1950 C1952 1.415 . S
C1951 C1950 1.355 . S
C1951 C1953 1.419 . S
C1952 C1950 1.415 . S
C1952 C1957 1.425 . S
C1952 C1959 1.409 . S
C1953 H1945 0.930 . S
C1953 C1951 1.419 . S
C1953 C1954 1.362 . S
C1954 H1946 0.930 . S
C1954 C1953 1.362 . S
C1954 C1957 1.409 . S
C1955 H1947 0.930 . S
C1955 C1956 1.355 . S
C1955 C1957 1.415 . S
C1956 C1955 1.355 . S
C1956 C1958 1.419 . S
C1957 C1952 1.425 . S
C1957 C1954 1.409 . S
C1957 C1955 1.415 . S
C1958 H1948 0.930 . S
C1958 C1956 1.419 . S
C1958 C1959 1.362 . S
C1959 H1949 0.930 . S
C1959 C1952 1.409 . S
C1959 C1958 1.362 . S
H1960 C1966 0.930 . S
H1961 C1969 0.930 . S
H1962 C1970 0.930 . S
H1963 C1971 0.930 . S
H1964 C1974 0.930 . S
H1965 C1975 0.930 . S
C1966 H1960 0.930 . S
C1966 C1967 1.355 . S
C1966 C1968 1.415 . S
C1967 C1966 1.355 . S
C1967 C1969 1.419 . S
C1968 C1966 1.415 . S
C1968 C1973 1.425 . S
C1968 C1975 1.409 . S
C1969 H1961 0.930 . S
C1969 C1967 1.419 . S
C1969 C1970 1.362 . S
C1970 H1962 0.930 . S
C1970 C1969 1.362 . S
C1970 C1973 1.409 . S
C1971 H1963 0.930 . S
C1971 C1972 1.355 . S
C1971 C1973 1.415 . S
C1972 C1971 1.355 . S
C1972 C1974 1.419 . S
C1973 C1968 1.425 . S
C1973 C1970 1.409 . S
C1973 C1971 1.415 . S
C1974 H1964 0.930 . S
C1974 C1972 1.419 . S
C1974 C1975 1.362 . S
C1975 H1965 0.930 . S
C1975 C1968 1.409 . S
C1975 C1974 1.362 . S
H1976 C1982 0.930 . S
H1977 C1985 0.930 . S
H1978 C1986 0.930 . S
H1979 C1987 0.930 . S
H1980 C1990 0.930 . S
H1981 C1991 0.930 . S
C1982 H1976 0.930 . S
C1982 C1983 1.355 . S
C1982 C1984 1.415 . S
C1983 C1982 1.355 . S
C1983 C1985 1.419 . S
C1984 C1982 1.415 . S
C1984 C1989 1.425 . S
C1984 C1991 1.409 . S
C1985 H1977 0.930 . S
C1985 C1983 1.419 . S
C1985 C1986 1.362 . S
C1986 H1978 0.930 . S
C1986 C1985 1.362 . S
C1986 C1989 1.409 . S
C1987 H1979 0.930 . S
C1987 C1988 1.355 . S
C1987 C1989 1.415 . S
C1988 C1987 1.355 . S
C1988 C1990 1.419 . S
C1989 C1984 1.425 . S
C1989 C1986 1.409 . S
C1989 C1987 1.415 . S
C1990 H1980 0.930 . S
C1990 C1988 1.419 . S
C1990 C1991 1.362 . S
C1991 H1981 0.930 . S
C1991 C1984 1.409 . S
C1991 C1990 1.362 . S
H1992 C1998 0.930 . S
H1993 C2001 0.930 . S
H1994 C2002 0.930 . S
H1995 C2003 0.930 . S
H1996 C2006 0.930 . S
H1997 C2007 0.930 . S
C1998 H1992 0.930 . S
C1998 C1999 1.355 . S
C1998 C2000 1.415 . S
C1999 C1998 1.355 . S
C1999 C2001 1.419 . S
C2000 C1998 1.415 . S
C2000 C2005 1.425 . S
C2000 C2007 1.409 . S
C2001 H1993 0.930 . S
C2001 C1999 1.419 . S
C2001 C2002 1.362 . S
C2002 H1994 0.930 . S
C2002 C2001 1.362 . S
C2002 C2005 1.409 . S
C2003 H1995 0.930 . S
C2003 C2004 1.355 . S
C2003 C2005 1.415 . S
C2004 C2003 1.355 . S
C2004 C2006 1.419 . S
C2005 C2000 1.425 . S
C2005 C2002 1.409 . S
C2005 C2003 1.415 . S
C2006 H1996 0.930 . S
C2006 C2004 1.419 . S
C2006 C2007 1.362 . S
C2007 H1997 0.930 . S
C2007 C2000 1.409 . S
C2007 C2006 1.362 . S
H2008 C2014 0.930 . S
H2009 C2017 0.930 . S
H2010 C2018 0.930 . S
H2011 C2019 0.941 . S
H2012 C2022 0.930 . S
H2013 C2023 0.930 . S
C2014 H2008 0.930 . S
C2014 C2015 1.355 . S
C2014 C2016 1.415 . S
C2015 C2014 1.355 . S
C2015 C2017 1.419 1_554 S
C2016 C2014 1.415 . S
C2016 C2021 1.425 . S
C2016 C2023 1.409 . S
C2017 H2009 0.930 . S
C2017 C2015 1.419 1_556 S
C2017 C2018 1.362 . S
C2018 H2010 0.930 . S
C2018 C2017 1.362 . S
C2018 C2021 1.409 1_556 S
C2019 H2011 0.941 . S
C2019 C2020 1.355 . S
C2019 C2021 1.415 . S
C2020 C2019 1.355 . S
C2020 C2022 1.419 . S
C2021 C2016 1.425 . S
C2021 C2018 1.409 1_554 S
C2021 C2019 1.415 . S
C2022 H2012 0.930 . S
C2022 C2020 1.419 . S
C2022 C2023 1.362 . S
C2023 H2013 0.930 . S
C2023 C2016 1.409 . S
C2023 C2022 1.362 . S
H2024 C2030 0.930 . S
H2025 C2033 0.930 . S
H2026 C2034 0.930 . S
H2027 C2035 0.930 . S
H2028 C2038 0.930 . S
H2029 C2039 0.930 . S
C2030 H2024 0.930 . S
C2030 C2031 1.355 . S
C2030 C2032 1.415 . S
C2031 C2030 1.355 . S
C2031 C2033 1.419 . S
C2032 C2030 1.415 . S
C2032 C2037 1.425 . S
C2032 C2039 1.409 . S
C2033 H2025 0.930 . S
C2033 C2031 1.419 . S
C2033 C2034 1.362 . S
C2034 H2026 0.930 . S
C2034 C2033 1.362 . S
C2034 C2037 1.409 . S
C2035 H2027 0.930 . S
C2035 C2036 1.355 . S
C2035 C2037 1.415 . S
C2036 C2035 1.355 . S
C2036 C2038 1.419 . S
C2037 C2032 1.425 . S
C2037 C2034 1.409 . S
C2037 C2035 1.415 . S
C2038 H2028 0.930 . S
C2038 C2036 1.419 . S
C2038 C2039 1.362 . S
C2039 H2029 0.930 . S
C2039 C2032 1.409 . S
C2039 C2038 1.362 . S
H2040 C2046 0.930 1_455 S
H2041 C2049 0.930 . S
H2042 C2050 0.930 . S
H2043 C2051 0.930 . S
H2044 C2054 0.930 . S
H2045 C2055 0.930 1_455 S
C2046 H2040 0.930 1_655 S
C2046 C2047 1.355 . S
C2046 C2048 1.415 . S
C2047 C2046 1.355 . S
C2047 C2049 1.419 . S
C2048 C2046 1.415 . S
C2048 C2053 1.425 . S
C2048 C2055 1.409 . S
C2049 H2041 0.930 . S
C2049 C2047 1.419 . S
C2049 C2050 1.362 . S
C2050 H2042 0.930 . S
C2050 C2049 1.362 . S
C2050 C2053 1.409 . S
C2051 H2043 0.930 . S
C2051 C2052 1.355 . S
C2051 C2053 1.415 . S
C2052 C2051 1.355 . S
C2052 C2054 1.419 . S
C2053 C2048 1.425 . S
C2053 C2050 1.409 . S
C2053 C2051 1.415 . S
C2054 H2044 0.930 . S
C2054 C2052 1.419 . S
C2054 C2055 1.362 . S
C2055 H2045 0.930 1_655 S
C2055 C2048 1.409 . S
C2055 C2054 1.362 . S
H2056 C2062 0.930 . S
H2057 C2065 0.930 . S
H2058 C2066 0.930 . S
H2059 C2067 0.930 . S
H2060 C2070 0.930 . S
H2061 C2071 0.930 . S
C2062 H2056 0.930 . S
C2062 C2063 1.355 . S
C2062 C2064 1.415 . S
C2063 C2062 1.355 . S
C2063 C2065 1.419 . S
C2064 C2062 1.415 . S
C2064 C2069 1.425 . S
C2064 C2071 1.409 . S
C2065 H2057 0.930 . S
C2065 C2063 1.419 . S
C2065 C2066 1.362 . S
C2066 H2058 0.930 . S
C2066 C2065 1.362 . S
C2066 C2069 1.409 . S
C2067 H2059 0.930 . S
C2067 C2068 1.355 . S
C2067 C2069 1.415 . S
C2068 C2067 1.355 . S
C2068 C2070 1.419 . S
C2069 C2064 1.425 . S
C2069 C2066 1.409 . S
C2069 C2067 1.415 . S
C2070 H2060 0.930 . S
C2070 C2068 1.419 . S
C2070 C2071 1.362 . S
C2071 H2061 0.930 . S
C2071 C2064 1.409 . S
C2071 C2070 1.362 . S
H2072 C2078 0.930 . S
H2073 C2081 0.930 . S
H2074 C2082 0.930 . S
H2075 C2083 0.930 1_655 S
H2076 C2086 0.930 . S
H2077 C2087 0.930 . S
C2078 H2072 0.930 . S
C2078 C2079 1.355 . S
C2078 C2080 1.415 . S
C2079 C2078 1.355 . S
C2079 C2081 1.419 1_455 S
C2080 C2078 1.415 . S
C2080 C2085 1.425 . S
C2080 C2087 1.409 . S
C2081 H2073 0.930 . S
C2081 C2079 1.419 1_655 S
C2081 C2082 1.362 . S
C2082 H2074 0.930 . S
C2082 C2081 1.362 . S
C2082 C2085 1.409 1_655 S
C2083 H2075 0.930 1_455 S
C2083 C2084 1.355 . S
C2083 C2085 1.415 . S
C2084 C2083 1.355 . S
C2084 C2086 1.419 . S
C2085 C2080 1.425 . S
C2085 C2082 1.409 1_455 S
C2085 C2083 1.415 . S
C2086 H2076 0.930 . S
C2086 C2084 1.419 . S
C2086 C2087 1.362 . S
C2087 H2077 0.930 . S
C2087 C2080 1.409 . S
C2087 C2086 1.362 . S
H2088 C2094 0.930 . S
H2089 C2097 0.930 . S
H2090 C2098 0.930 . S
H2091 C2099 0.930 . S
H2092 C2102 0.930 . S
H2093 C2103 0.930 . S
C2094 H2088 0.930 . S
C2094 C2095 1.355 . S
C2094 C2096 1.415 . S
C2095 C2094 1.355 . S
C2095 C2097 1.419 . S
C2096 C2094 1.415 . S
C2096 C2101 1.425 . S
C2096 C2103 1.409 . S
C2097 H2089 0.930 . S
C2097 C2095 1.419 . S
C2097 C2098 1.362 . S
C2098 H2090 0.930 . S
C2098 C2097 1.362 . S
C2098 C2101 1.409 . S
C2099 H2091 0.930 . S
C2099 C2100 1.355 . S
C2099 C2101 1.415 . S
C2100 C2099 1.355 . S
C2100 C2102 1.419 . S
C2101 C2096 1.425 . S
C2101 C2098 1.409 . S
C2101 C2099 1.415 . S
C2102 H2092 0.930 . S
C2102 C2100 1.419 . S
C2102 C2103 1.362 . S
C2103 H2093 0.930 . S
C2103 C2096 1.409 . S
C2103 C2102 1.362 . S
H2104 C2110 0.930 . S
H2105 C2113 0.930 . S
H2106 C2114 0.930 . S
H2107 C2115 0.930 . S
H2108 C2118 0.930 . S
H2109 C2119 0.930 . S
C2110 H2104 0.930 . S
C2110 C2111 1.355 . S
C2110 C2112 1.415 . S
C2111 C2110 1.355 . S
C2111 C2113 1.419 . S
C2112 C2110 1.415 . S
C2112 C2117 1.425 . S
C2112 C2119 1.409 . S
C2113 H2105 0.930 . S
C2113 C2111 1.419 . S
C2113 C2114 1.362 . S
C2114 H2106 0.930 . S
C2114 C2113 1.362 . S
C2114 C2117 1.409 . S
C2115 H2107 0.930 . S
C2115 C2116 1.355 . S
C2115 C2117 1.415 . S
C2116 C2115 1.355 . S
C2116 C2118 1.419 . S
C2117 C2112 1.425 . S
C2117 C2114 1.409 . S
C2117 C2115 1.415 . S
C2118 H2108 0.930 . S
C2118 C2116 1.419 . S
C2118 C2119 1.362 . S
C2119 H2109 0.930 . S
C2119 C2112 1.409 . S
C2119 C2118 1.362 . S
H2120 C2126 0.930 . S
H2121 C2129 0.930 . S
H2122 C2130 0.930 . S
H2123 C2131 0.930 . S
H2124 C2134 0.930 . S
H2125 C2135 0.930 . S
C2126 H2120 0.930 . S
C2126 C2127 1.355 . S
C2126 C2128 1.415 . S
C2127 C2126 1.355 . S
C2127 C2129 1.419 . S
C2128 C2126 1.415 . S
C2128 C2133 1.425 . S
C2128 C2135 1.409 . S
C2129 H2121 0.930 . S
C2129 C2127 1.419 . S
C2129 C2130 1.362 . S
C2130 H2122 0.930 . S
C2130 C2129 1.362 . S
C2130 C2133 1.409 . S
C2131 H2123 0.930 . S
C2131 C2132 1.355 . S
C2131 C2133 1.415 . S
C2132 C2131 1.355 . S
C2132 C2134 1.419 . S
C2133 C2128 1.425 . S
C2133 C2130 1.409 . S
C2133 C2131 1.415 . S
C2134 H2124 0.930 . S
C2134 C2132 1.419 . S
C2134 C2135 1.362 . S
C2135 H2125 0.930 . S
C2135 C2128 1.409 . S
C2135 C2134 1.362 . S
H2136 C2142 0.930 1_565 S
H2137 C2145 0.930 . S
H2138 C2146 0.930 . S
H2139 C2147 0.930 . S
H2140 C2150 0.930 . S
H2141 C2151 0.930 1_565 S
C2142 H2136 0.930 1_545 S
C2142 C2143 1.355 . S
C2142 C2144 1.415 . S
C2143 C2142 1.355 . S
C2143 C2145 1.419 . S
C2144 C2142 1.415 . S
C2144 C2149 1.425 . S
C2144 C2151 1.409 . S
C2145 H2137 0.930 . S
C2145 C2143 1.419 . S
C2145 C2146 1.362 . S
C2146 H2138 0.930 . S
C2146 C2145 1.362 . S
C2146 C2149 1.409 . S
C2147 H2139 0.930 . S
C2147 C2148 1.355 . S
C2147 C2149 1.415 . S
C2148 C2147 1.355 . S
C2148 C2150 1.419 . S
C2149 C2144 1.425 . S
C2149 C2146 1.409 . S
C2149 C2147 1.415 . S
C2150 H2140 0.930 . S
C2150 C2148 1.419 . S
C2150 C2151 1.362 . S
C2151 H2141 0.930 1_545 S
C2151 C2144 1.409 . S
C2151 C2150 1.362 . S
H2152 C2158 0.930 . S
H2153 C2161 0.930 . S
H2154 C2162 0.930 . S
H2155 C2163 0.930 . S
H2156 C2166 0.930 . S
H2157 C2167 0.930 . S
C2158 H2152 0.930 . S
C2158 C2159 1.355 . S
C2158 C2160 1.415 . S
C2159 C2158 1.355 . S
C2159 C2161 1.419 . S
C2160 C2158 1.415 . S
C2160 C2165 1.425 . S
C2160 C2167 1.409 . S
C2161 H2153 0.930 . S
C2161 C2159 1.419 . S
C2161 C2162 1.362 . S
C2162 H2154 0.930 . S
C2162 C2161 1.362 . S
C2162 C2165 1.409 . S
C2163 H2155 0.930 . S
C2163 C2164 1.355 . S
C2163 C2165 1.415 . S
C2164 C2163 1.355 . S
C2164 C2166 1.419 . S
C2165 C2160 1.425 . S
C2165 C2162 1.409 . S
C2165 C2163 1.415 . S
C2166 H2156 0.930 . S
C2166 C2164 1.419 . S
C2166 C2167 1.362 . S
C2167 H2157 0.930 . S
C2167 C2160 1.409 . S
C2167 C2166 1.362 . S
H2168 C2174 0.930 . S
H2169 C2177 0.930 . S
H2170 C2178 0.930 . S
H2171 C2179 0.930 . S
H2172 C2182 0.930 . S
H2173 C2183 0.930 . S
C2174 H2168 0.930 . S
C2174 C2175 1.355 . S
C2174 C2176 1.415 . S
C2175 C2174 1.355 . S
C2175 C2177 1.419 . S
C2176 C2174 1.415 . S
C2176 C2181 1.425 . S
C2176 C2183 1.409 . S
C2177 H2169 0.930 . S
C2177 C2175 1.419 . S
C2177 C2178 1.362 . S
C2178 H2170 0.930 . S
C2178 C2177 1.362 . S
C2178 C2181 1.409 . S
C2179 H2171 0.930 . S
C2179 C2180 1.355 . S
C2179 C2181 1.415 . S
C2180 C2179 1.355 . S
C2180 C2182 1.419 . S
C2181 C2176 1.425 . S
C2181 C2178 1.409 . S
C2181 C2179 1.415 . S
C2182 H2172 0.930 . S
C2182 C2180 1.419 . S
C2182 C2183 1.362 . S
C2183 H2173 0.930 . S
C2183 C2176 1.409 . S
C2183 C2182 1.362 . S
H2184 C2190 0.930 . S
H2185 C2193 0.930 . S
H2186 C2194 0.930 . S
H2187 C2195 0.930 . S
H2188 C2198 0.930 . S
H2189 C2199 0.930 . S
C2190 H2184 0.930 . S
C2190 C2191 1.355 . S
C2190 C2192 1.415 . S
C2191 C2190 1.355 . S
C2191 C2193 1.419 . S
C2192 C2190 1.415 . S
C2192 C2197 1.425 . S
C2192 C2199 1.409 . S
C2193 H2185 0.930 . S
C2193 C2191 1.419 . S
C2193 C2194 1.362 . S
C2194 H2186 0.930 . S
C2194 C2193 1.362 . S
C2194 C2197 1.409 . S
C2195 H2187 0.930 . S
C2195 C2196 1.355 . S
C2195 C2197 1.415 . S
C2196 C2195 1.355 . S
C2196 C2198 1.419 . S
C2197 C2192 1.425 . S
C2197 C2194 1.409 . S
C2197 C2195 1.415 . S
C2198 H2188 0.930 . S
C2198 C2196 1.419 . S
C2198 C2199 1.362 . S
C2199 H2189 0.930 . S
C2199 C2192 1.409 . S
C2199 C2198 1.362 . S
H2200 C2206 0.930 . S
H2201 C2209 0.930 . S
H2202 C2210 0.930 . S
H2203 C2211 0.930 . S
H2204 C2214 0.930 . S
H2205 C2215 0.930 . S
C2206 H2200 0.930 . S
C2206 C2207 1.355 . S
C2206 C2208 1.415 . S
C2207 C2206 1.355 . S
C2207 C2209 1.419 . S
C2208 C2206 1.415 . S
C2208 C2213 1.425 . S
C2208 C2215 1.409 . S
C2209 H2201 0.930 . S
C2209 C2207 1.419 . S
C2209 C2210 1.362 . S
C2210 H2202 0.930 . S
C2210 C2209 1.362 . S
C2210 C2213 1.409 . S
C2211 H2203 0.930 . S
C2211 C2212 1.355 . S
C2211 C2213 1.415 . S
C2212 C2211 1.355 . S
C2212 C2214 1.419 . S
C2213 C2208 1.425 . S
C2213 C2210 1.409 . S
C2213 C2211 1.415 . S
C2214 H2204 0.930 . S
C2214 C2212 1.419 . S
C2214 C2215 1.362 . S
C2215 H2205 0.930 . S
C2215 C2208 1.409 . S
C2215 C2214 1.362 . S
H2216 C2222 0.930 . S
H2217 C2225 0.930 . S
H2218 C2226 0.930 . S
H2219 C2227 0.930 . S
H2220 C2230 0.930 . S
H2221 C2231 0.930 . S
C2222 H2216 0.930 . S
C2222 C2223 1.355 . S
C2222 C2224 1.415 . S
C2223 C2222 1.355 . S
C2223 C2225 1.419 . S
C2224 C2222 1.415 . S
C2224 C2229 1.425 . S
C2224 C2231 1.409 . S
C2225 H2217 0.930 . S
C2225 C2223 1.419 . S
C2225 C2226 1.362 . S
C2226 H2218 0.930 . S
C2226 C2225 1.362 . S
C2226 C2229 1.409 . S
C2227 H2219 0.930 . S
C2227 C2228 1.355 . S
C2227 C2229 1.415 . S
C2228 C2227 1.355 . S
C2228 C2230 1.419 . S
C2229 C2224 1.425 . S
C2229 C2226 1.409 . S
C2229 C2227 1.415 . S
C2230 H2220 0.930 . S
C2230 C2228 1.419 . S
C2230 C2231 1.362 . S
C2231 H2221 0.930 . S
C2231 C2224 1.409 . S
C2231 C2230 1.362 . S
H2232 C2238 0.930 . S
H2233 C2241 0.930 . S
H2234 C2242 0.930 . S
H2235 C2243 0.930 . S
H2236 C2246 0.930 . S
H2237 C2247 0.930 . S
C2238 H2232 0.930 . S
C2238 C2239 1.355 . S
C2238 C2240 1.415 . S
C2239 C2238 1.355 . S
C2239 C2241 1.419 1_455 S
C2240 C2238 1.415 . S
C2240 C2245 1.425 . S
C2240 C2247 1.409 . S
C2241 H2233 0.930 . S
C2241 C2239 1.419 1_655 S
C2241 C2242 1.362 . S
C2242 H2234 0.930 . S
C2242 C2241 1.362 . S
C2242 C2245 1.409 1_655 S
C2243 H2235 0.930 . S
C2243 C2244 1.355 . S
C2243 C2245 1.415 . S
C2244 C2243 1.355 . S
C2244 C2246 1.419 . S
C2245 C2240 1.425 . S
C2245 C2242 1.409 1_455 S
C2245 C2243 1.415 . S
C2246 H2236 0.930 . S
C2246 C2244 1.419 . S
C2246 C2247 1.362 . S
C2247 H2237 0.930 . S
C2247 C2240 1.409 . S
C2247 C2246 1.362 . S
H2248 C2254 0.930 . S
H2249 C2257 0.930 . S
H2250 C2258 0.930 . S
H2251 C2259 0.930 . S
H2252 C2262 0.930 . S
H2253 C2263 0.930 . S
C2254 H2248 0.930 . S
C2254 C2255 1.355 . S
C2254 C2256 1.415 . S
C2255 C2254 1.355 . S
C2255 C2257 1.419 . S
C2256 C2254 1.415 . S
C2256 C2261 1.425 . S
C2256 C2263 1.409 . S
C2257 H2249 0.930 . S
C2257 C2255 1.419 . S
C2257 C2258 1.362 . S
C2258 H2250 0.930 . S
C2258 C2257 1.362 . S
C2258 C2261 1.409 . S
C2259 H2251 0.930 . S
C2259 C2260 1.355 . S
C2259 C2261 1.415 . S
C2260 C2259 1.355 . S
C2260 C2262 1.419 . S
C2261 C2256 1.425 . S
C2261 C2258 1.409 . S
C2261 C2259 1.415 . S
C2262 H2252 0.930 . S
C2262 C2260 1.419 . S
C2262 C2263 1.362 . S
C2263 H2253 0.930 . S
C2263 C2256 1.409 . S
C2263 C2262 1.362 . S
H2264 C2270 0.930 . S
H2265 C2273 0.930 . S
H2266 C2274 0.930 . S
H2267 C2275 0.913 1_455 S
H2268 C2278 0.930 . S
H2269 C2279 0.930 . S
C2270 H2264 0.930 . S
C2270 C2271 1.355 . S
C2270 C2272 1.415 . S
C2271 C2270 1.355 . S
C2271 C2273 1.419 1_655 S
C2272 C2270 1.415 . S
C2272 C2277 1.425 . S
C2272 C2279 1.409 . S
C2273 H2265 0.930 . S
C2273 C2271 1.419 1_455 S
C2273 C2274 1.362 . S
C2274 H2266 0.930 . S
C2274 C2273 1.362 . S
C2274 C2277 1.409 1_455 S
C2275 H2267 0.913 1_655 S
C2275 C2276 1.355 . S
C2275 C2277 1.415 . S
C2276 C2275 1.355 . S
C2276 C2278 1.419 . S
C2277 C2272 1.425 . S
C2277 C2274 1.409 1_655 S
C2277 C2275 1.415 . S
C2278 H2268 0.930 . S
C2278 C2276 1.419 . S
C2278 C2279 1.362 . S
C2279 H2269 0.930 . S
C2279 C2272 1.409 . S
C2279 C2278 1.362 . S
C1140 C1117 1.862 . S
C1135 C8 1.897 . S
C1156 C985 1.606 . S
C1151 C19 1.553 . S
C1172 C1081 1.468 . S
C1167 C30 1.489 . S
C1188 C1021 2.058 . S
C1183 C41 2.031 . S
C1204 C769 1.920 . S
C1199 C52 1.908 . S
C1215 C63 2.006 . S
C1220 C805 2.051 . S
C1236 C697 1.563 . S
C1231 C74 1.536 . S
C1247 C85 1.439 . S
C1252 C733 1.455 . S
C1268 C949 1.881 . S
C1263 C96 1.908 . S
C1279 C107 1.996 . S
C1284 C877 2.051 . S
C1295 C118 1.554 . S
C1300 C841 1.607 . S
C1316 C913 1.439 . S
C1311 C129 1.439 . S
C1332 C661 1.906 . S
C1327 C140 1.909 . S
C1343 C151 1.504 . S
C1348 C553 1.604 . S
C1364 C625 1.448 . S
C1359 C162 1.423 . S
C1375 C173 1.944 . S
C1380 C589 2.063 . S
C1396 C337 1.905 . S
C1391 C184 1.910 . S
C1412 C397 2.030 . S
C1407 C195 1.992 . S
C1423 C206 1.487 . S
C1428 C265 1.560 . S
C1439 C217 1.422 . S
C1444 C325 1.420 . S
C1455 C228 1.886 . S
C1460 C517 1.927 . S
C1471 C239 1.992 . S
C1476 C445 2.053 . S
C1492 C409 1.576 . S
C1487 C250 1.464 . S
C1503 C261 1.417 . S
C1508 C481 1.484 . S
C1524 C295 1.224 . S
C1519 C7 1.287 . S
C1540 C331 1.211 . S
C1535 C18 1.309 . S
C1551 C29 1.247 . S
C1556 C367 1.259 . S
C1567 C40 0.983 . S
C1572 C403 0.924 . S
C1588 C439 1.294 . S
C1583 C51 1.300 . S
C1599 C62 0.963 . S
C1604 C475 0.984 . S
C1620 C511 1.317 . S
C1615 C73 1.331 . S
C1636 C547 1.199 . S
C1631 C84 1.232 . S
C1652 C583 1.245 . S
C1647 C95 1.301 . S
C1663 C106 0.978 . S
C1668 C619 0.989 . S
C1679 C117 1.296 . S
C1684 C655 1.227 . S
C1695 C128 1.233 . S
C1700 C691 1.190 . S
C1711 C139 1.250 . S
C1716 C727 1.261 . S
C1727 C150 1.091 . S
C1732 C763 1.211 . S
C1743 C161 1.078 . S
C1748 C799 1.161 . S
C1759 C172 0.829 . S
C1764 C835 0.957 . S
C1775 C183 1.124 . S
C1780 C871 1.213 . S
C1796 C907 0.916 . S
C1791 C194 0.843 . S
C1812 C943 1.294 . S
C1807 C205 1.166 . S
C1828 C979 1.184 . S
C1823 C216 1.070 . S
C1844 C1015 1.228 . S
C1839 C227 1.228 . S
C1855 C238 0.988 . S
C1860 C1051 0.956 . S
C1871 C249 1.243 . S
C1876 C1087 1.321 . S
C1887 C260 1.211 . S
C1892 C1123 1.259 . S
C1903 C5 1.498 . S
C1908 C577 1.754 . S
C1924 C685 1.682 . S
C1919 C16 1.440 . S
C1935 C27 1.267 1_545 S
C1940 C613 1.423 . S
C1956 C649 2.142 . S
C1951 C38 1.904 1_565 S
C1967 C49 1.549 . S
C1972 C289 1.774 . S
C1983 C60 1.906 1_556 S
C1988 C301 2.121 . S
C1999 C71 1.375 . S
C2004 C361 1.653 . S
C2015 C82 1.210 1_554 S
C2020 C373 1.398 . S
C2036 C433 1.732 . S
C2031 C93 1.423 . S
C2052 C505 2.169 . S
C2047 C104 1.940 1_655 S
C2063 C115 1.455 . S
C2068 C541 1.683 . S
C2079 C126 1.193 1_455 S
C2084 C469 1.388 . S
C2100 C1009 1.675 . S
C2095 C137 1.329 . S
C2116 C1093 1.673 . S
C2111 C148 1.089 . S
C2127 C159 1.047 . S
C2132 C1045 1.342 . S
C2148 C1057 2.143 . S
C2143 C170 1.474 . S
C2159 C181 1.317 . S
C2164 C721 1.739 . S
C2175 C192 1.493 . S
C2180 C757 2.054 . S
C2191 C203 1.177 . S
C2196 C793 1.655 . S
C2212 C829 1.433 . S
C2207 C214 1.136 . S
C2228 C865 1.742 . S
C2223 C225 1.342 . S
C2244 C937 2.097 . S
C2239 C236 1.604 . S
C2255 C247 1.235 . S
C2260 C973 1.591 . S
C2276 C901 1.344 . S
C2271 C258 1.127 . S
