# Generated by pormake.
# Topology eea, (3,6)-cn, num edge types: 1
# Building blocks:
#     Node 0, Type 0, BuildingBlock: CUQRIR_clean_linker_1, # of connection points: 3
#     Node 1, Type 0, BuildingBlock: CUQRIR_clean_linker_1, # of connection points: 3
#     Node 2, Type 0, BuildingBlock: CUQRIR_clean_linker_1, # of connection points: 3
#     Node 3, Type 0, BuildingBlock: CUQRIR_clean_linker_1, # of connection points: 3
#     Node 4, Type 0, BuildingBlock: CUQRIR_clean_linker_1, # of connection points: 3
#     Node 5, Type 0, BuildingBlock: CUQRIR_clean_linker_1, # of connection points: 3
#     Node 6, Type 0, BuildingBlock: CUQRIR_clean_linker_1, # of connection points: 3
#     Node 7, Type 0, BuildingBlock: CUQRIR_clean_linker_1, # of connection points: 3
#     Node 8, Type 0, BuildingBlock: CUQRIR_clean_linker_1, # of connection points: 3
#     Node 9, Type 0, BuildingBlock: CUQRIR_clean_linker_1, # of connection points: 3
#     Node 10, Type 0, BuildingBlock: CUQRIR_clean_linker_1, # of connection points: 3
#     Node 11, Type 0, BuildingBlock: CUQRIR_clean_linker_1, # of connection points: 3
#     Node 12, Type 0, BuildingBlock: CUQRIR_clean_linker_1, # of connection points: 3
#     Node 13, Type 0, BuildingBlock: CUQRIR_clean_linker_1, # of connection points: 3
#     Node 14, Type 0, BuildingBlock: CUQRIR_clean_linker_1, # of connection points: 3
#     Node 15, Type 0, BuildingBlock: CUQRIR_clean_linker_1, # of connection points: 3
#     Node 16, Type 0, BuildingBlock: CUQRIR_clean_linker_1, # of connection points: 3
#     Node 17, Type 0, BuildingBlock: CUQRIR_clean_linker_1, # of connection points: 3
#     Node 18, Type 1, BuildingBlock: HISSIN_clean_sbu_0, # of connection points: 6
#     Node 19, Type 1, BuildingBlock: HISSIN_clean_sbu_0, # of connection points: 6
#     Node 20, Type 1, BuildingBlock: HISSIN_clean_sbu_0, # of connection points: 6
#     Node 21, Type 1, BuildingBlock: HISSIN_clean_sbu_0, # of connection points: 6
#     Node 22, Type 1, BuildingBlock: HISSIN_clean_sbu_0, # of connection points: 6
#     Node 23, Type 1, BuildingBlock: HISSIN_clean_sbu_0, # of connection points: 6
#     Node 24, Type 1, BuildingBlock: HISSIN_clean_sbu_0, # of connection points: 6
#     Node 25, Type 1, BuildingBlock: HISSIN_clean_sbu_0, # of connection points: 6
#     Node 26, Type 1, BuildingBlock: HISSIN_clean_sbu_0, # of connection points: 6
#     Edge 27, Type (0, 1), BuildingBlock: KIFKEQ_clean_linker_1, # of connection points: 2
#     Edge 28, Type (0, 1), BuildingBlock: KIFKEQ_clean_linker_1, # of connection points: 2
#     Edge 29, Type (0, 1), BuildingBlock: KIFKEQ_clean_linker_1, # of connection points: 2
#     Edge 30, Type (0, 1), BuildingBlock: KIFKEQ_clean_linker_1, # of connection points: 2
#     Edge 31, Type (0, 1), BuildingBlock: KIFKEQ_clean_linker_1, # of connection points: 2
#     Edge 32, Type (0, 1), BuildingBlock: KIFKEQ_clean_linker_1, # of connection points: 2
#     Edge 33, Type (0, 1), BuildingBlock: KIFKEQ_clean_linker_1, # of connection points: 2
#     Edge 34, Type (0, 1), BuildingBlock: KIFKEQ_clean_linker_1, # of connection points: 2
#     Edge 35, Type (0, 1), BuildingBlock: KIFKEQ_clean_linker_1, # of connection points: 2
#     Edge 36, Type (0, 1), BuildingBlock: KIFKEQ_clean_linker_1, # of connection points: 2
#     Edge 37, Type (0, 1), BuildingBlock: KIFKEQ_clean_linker_1, # of connection points: 2
#     Edge 38, Type (0, 1), BuildingBlock: KIFKEQ_clean_linker_1, # of connection points: 2
#     Edge 39, Type (0, 1), BuildingBlock: KIFKEQ_clean_linker_1, # of connection points: 2
#     Edge 40, Type (0, 1), BuildingBlock: KIFKEQ_clean_linker_1, # of connection points: 2
#     Edge 41, Type (0, 1), BuildingBlock: KIFKEQ_clean_linker_1, # of connection points: 2
#     Edge 42, Type (0, 1), BuildingBlock: KIFKEQ_clean_linker_1, # of connection points: 2
#     Edge 43, Type (0, 1), BuildingBlock: KIFKEQ_clean_linker_1, # of connection points: 2
#     Edge 44, Type (0, 1), BuildingBlock: KIFKEQ_clean_linker_1, # of connection points: 2
#     Edge 45, Type (0, 1), BuildingBlock: KIFKEQ_clean_linker_1, # of connection points: 2
#     Edge 46, Type (0, 1), BuildingBlock: KIFKEQ_clean_linker_1, # of connection points: 2
#     Edge 47, Type (0, 1), BuildingBlock: KIFKEQ_clean_linker_1, # of connection points: 2
#     Edge 48, Type (0, 1), BuildingBlock: KIFKEQ_clean_linker_1, # of connection points: 2
#     Edge 49, Type (0, 1), BuildingBlock: KIFKEQ_clean_linker_1, # of connection points: 2
#     Edge 50, Type (0, 1), BuildingBlock: KIFKEQ_clean_linker_1, # of connection points: 2
#     Edge 51, Type (0, 1), BuildingBlock: KIFKEQ_clean_linker_1, # of connection points: 2
#     Edge 52, Type (0, 1), BuildingBlock: KIFKEQ_clean_linker_1, # of connection points: 2
#     Edge 53, Type (0, 1), BuildingBlock: KIFKEQ_clean_linker_1, # of connection points: 2
#     Edge 54, Type (0, 1), BuildingBlock: KIFKEQ_clean_linker_1, # of connection points: 2
#     Edge 55, Type (0, 1), BuildingBlock: KIFKEQ_clean_linker_1, # of connection points: 2
#     Edge 56, Type (0, 1), BuildingBlock: KIFKEQ_clean_linker_1, # of connection points: 2
#     Edge 57, Type (0, 1), BuildingBlock: KIFKEQ_clean_linker_1, # of connection points: 2
#     Edge 58, Type (0, 1), BuildingBlock: KIFKEQ_clean_linker_1, # of connection points: 2
#     Edge 59, Type (0, 1), BuildingBlock: KIFKEQ_clean_linker_1, # of connection points: 2
#     Edge 60, Type (0, 1), BuildingBlock: KIFKEQ_clean_linker_1, # of connection points: 2
#     Edge 61, Type (0, 1), BuildingBlock: KIFKEQ_clean_linker_1, # of connection points: 2
#     Edge 62, Type (0, 1), BuildingBlock: KIFKEQ_clean_linker_1, # of connection points: 2
#     Edge 63, Type (0, 1), BuildingBlock: KIFKEQ_clean_linker_1, # of connection points: 2
#     Edge 64, Type (0, 1), BuildingBlock: KIFKEQ_clean_linker_1, # of connection points: 2
#     Edge 65, Type (0, 1), BuildingBlock: KIFKEQ_clean_linker_1, # of connection points: 2
#     Edge 66, Type (0, 1), BuildingBlock: KIFKEQ_clean_linker_1, # of connection points: 2
#     Edge 67, Type (0, 1), BuildingBlock: KIFKEQ_clean_linker_1, # of connection points: 2
#     Edge 68, Type (0, 1), BuildingBlock: KIFKEQ_clean_linker_1, # of connection points: 2
#     Edge 69, Type (0, 1), BuildingBlock: KIFKEQ_clean_linker_1, # of connection points: 2
#     Edge 70, Type (0, 1), BuildingBlock: KIFKEQ_clean_linker_1, # of connection points: 2
#     Edge 71, Type (0, 1), BuildingBlock: KIFKEQ_clean_linker_1, # of connection points: 2
#     Edge 72, Type (0, 1), BuildingBlock: KIFKEQ_clean_linker_1, # of connection points: 2
#     Edge 73, Type (0, 1), BuildingBlock: KIFKEQ_clean_linker_1, # of connection points: 2
#     Edge 74, Type (0, 1), BuildingBlock: KIFKEQ_clean_linker_1, # of connection points: 2
#     Edge 75, Type (0, 1), BuildingBlock: KIFKEQ_clean_linker_1, # of connection points: 2
#     Edge 76, Type (0, 1), BuildingBlock: KIFKEQ_clean_linker_1, # of connection points: 2
#     Edge 77, Type (0, 1), BuildingBlock: KIFKEQ_clean_linker_1, # of connection points: 2
#     Edge 78, Type (0, 1), BuildingBlock: KIFKEQ_clean_linker_1, # of connection points: 2
#     Edge 79, Type (0, 1), BuildingBlock: KIFKEQ_clean_linker_1, # of connection points: 2
#     Edge 80, Type (0, 1), BuildingBlock: KIFKEQ_clean_linker_1, # of connection points: 2
# Relax obj value: 0.106
# Max RMSD: 0.247
# Mean RMSD: 0.180
data_MOF--net-eea--node1-HISSIN_clean_sbu_0--node2-CUQRIR_clean_linker_1--edge1-KIFKEQ_clean_linker_1
_symmetry_space_group_name_H-M    P1
_symmetry_Int_Tables_number       1
_symmetry_cell_setting            triclinic
loop_
_symmetry_equiv_pos_as_xyz
'x, y, z'
_cell_length_a     50.492126
_cell_length_b     51.973268
_cell_length_c     66.406269
_cell_angle_alpha  86.602612
_cell_angle_beta   93.707208
_cell_angle_gamma 119.78811
loop_
_atom_site_label
_atom_site_type_symbol
_atom_site_fract_x
_atom_site_fract_y
_atom_site_fract_z
_atom_type_partial_charge
C0 C 0.2102 0.10447 0.40772 0.0
N1 N 0.21845 0.12669 0.42063 0.0
N2 N 0.21041 0.08091 0.4175 0.0
C3 C 0.20127 0.10538 0.38574 0.0
C4 C 0.2188 0.08956 0.43682 0.0
N5 N 0.22344 0.11727 0.43871 0.0
C6 C 0.22306 0.07115 0.45373 0.0
H7 H 0.17629 0.09687 0.38426 0.0
H8 H 0.20668 0.09119 0.37694 0.0
H9 H 0.21294 0.12825 0.37919 0.0
H10 H 0.24734 0.07669 0.45474 0.0
H11 H 0.20854 0.04712 0.45101 0.0
H12 H 0.21746 0.07585 0.46844 0.0
C13 C 0.90362 0.12254 0.41739 0.0
N14 N 0.9182 0.14574 0.42995 0.0
N15 N 0.87831 0.10014 0.42584 0.0
C16 C 0.91541 0.1207 0.39759 0.0
C17 C 0.87812 0.11045 0.44406 0.0
N18 N 0.90247 0.13792 0.4467 0.0
C19 C 0.85301 0.09453 0.45879 0.0
H20 H 0.90674 0.13045 0.38538 0.0
H21 H 0.9075 0.09732 0.39404 0.0
H22 H 0.94074 0.1333 0.3979 0.0
H23 H 0.8591 0.081 0.4696 0.0
H24 H 0.83096 0.07962 0.45089 0.0
H25 H 0.85011 0.11045 0.46752 0.0
C26 C 0.88679 0.77661 0.41516 0.0
N27 N 0.9031 0.76844 0.42828 0.0
N28 N 0.86504 0.7784 0.42482 0.0
C29 C 0.89346 0.78478 0.39321 0.0
C30 C 0.86887 0.77133 0.44431 0.0
N31 N 0.89237 0.76571 0.44647 0.0
C32 C 0.8483 0.76789 0.46091 0.0
H33 H 0.91829 0.79522 0.39083 0.0
H34 H 0.88529 0.80019 0.38742 0.0
H35 H 0.88156 0.76429 0.38438 0.0
H36 H 0.82567 0.76388 0.45473 0.0
H37 H 0.8591 0.78854 0.46957 0.0
H38 H 0.84501 0.74925 0.47147 0.0
C39 C 0.12015 0.26398 0.64908 0.0
N40 N 0.14196 0.27212 0.63542 0.0
N41 N 0.0953 0.26417 0.64035 0.0
C42 C 0.12169 0.25236 0.67019 0.0
C43 C 0.10255 0.27235 0.62089 0.0
N44 N 0.1308 0.27695 0.61784 0.0
C45 C 0.08193 0.27587 0.60494 0.0
H46 H 0.13097 0.23697 0.67014 0.0
H47 H 0.099 0.24068 0.67701 0.0
H48 H 0.13744 0.27123 0.67974 0.0
H49 H 0.06561 0.28088 0.61184 0.0
H50 H 0.06868 0.25484 0.59681 0.0
H51 H 0.09547 0.29383 0.59384 0.0
C52 C 0.78703 0.89832 0.64318 0.0
N53 N 0.77848 0.87666 0.62972 0.0
N54 N 0.78593 0.92194 0.63433 0.0
C55 C 0.79889 0.89742 0.66444 0.0
C56 C 0.77653 0.91393 0.61501 0.0
N57 N 0.77246 0.88663 0.61213 0.0
C58 C 0.76899 0.93175 0.59935 0.0
H59 H 0.77931 0.88643 0.67453 0.0
H60 H 0.8146 0.92011 0.66981 0.0
H61 H 0.81107 0.88453 0.66547 0.0
H62 H 0.78937 0.94568 0.59032 0.0
H63 H 0.76247 0.94645 0.6065 0.0
H64 H 0.75001 0.91701 0.58894 0.0
C65 C 0.1048 0.90847 0.63632 0.0
N66 N 0.09035 0.88443 0.62446 0.0
N67 N 0.12808 0.93145 0.62658 0.0
C68 C 0.09642 0.9095 0.65749 0.0
C69 C 0.1271 0.9207 0.60831 0.0
N70 N 0.10402 0.89232 0.6069 0.0
C71 C 0.14927 0.93749 0.59198 0.0
H72 H 0.07139 0.8957 0.65913 0.0
H73 H 0.10386 0.93247 0.66172 0.0
H74 H 0.10796 0.90061 0.66816 0.0
H75 H 0.16243 0.92619 0.58933 0.0
H76 H 0.16528 0.96083 0.59588 0.0
H77 H 0.1366 0.93732 0.57767 0.0
C78 C 0.87716 0.44235 0.74174 0.0
N79 N 0.89037 0.46613 0.75376 0.0
N80 N 0.88774 0.42344 0.74703 0.0
C81 C 0.85531 0.4383 0.72413 0.0
C82 C 0.90784 0.43649 0.76266 0.0
N83 N 0.90973 0.46263 0.7666 0.0
C84 C 0.92336 0.42232 0.77522 0.0
H85 H 0.83176 0.4275 0.72962 0.0
H86 H 0.85619 0.42397 0.71275 0.0
H87 H 0.86059 0.46003 0.71688 0.0
H88 H 0.94669 0.43091 0.76977 0.0
H89 H 0.91069 0.39785 0.774 0.0
H90 H 0.92539 0.42782 0.79133 0.0
C91 C 0.5682 0.45739 0.7502 0.0
N92 N 0.58424 0.47956 0.76338 0.0
N93 N 0.54112 0.43689 0.75772 0.0
C94 C 0.57904 0.45543 0.73006 0.0
C95 C 0.54097 0.44737 0.77582 0.0
N96 N 0.56695 0.47336 0.77925 0.0
C97 C 0.51574 0.43177 0.79045 0.0
H98 H 0.55954 0.4429 0.71933 0.0
H99 H 0.5922 0.44352 0.73215 0.0
H100 H 0.59405 0.47787 0.72345 0.0
H101 H 0.5226 0.41996 0.80227 0.0
H102 H 0.49413 0.41541 0.78279 0.0
H103 H 0.51184 0.448 0.79802 0.0
C104 C 0.55897 0.1264 0.75104 0.0
N105 N 0.57382 0.11487 0.76267 0.0
N106 N 0.53119 0.11752 0.75827 0.0
C107 C 0.57041 0.14412 0.73164 0.0
C108 C 0.5295 0.09998 0.77457 0.0
N109 N 0.55526 0.09807 0.7771 0.0
C110 C 0.50331 0.08579 0.78857 0.0
H111 H 0.58493 0.1679 0.73515 0.0
H112 H 0.5512 0.14167 0.72129 0.0
H113 H 0.58442 0.13705 0.72385 0.0
H114 H 0.48731 0.06286 0.78375 0.0
H115 H 0.49075 0.0983 0.78816 0.0
H116 H 0.51148 0.08452 0.80432 0.0
C117 C 0.78351 0.58686 0.97873 0.0
N118 N 0.80734 0.59888 0.96645 0.0
N119 N 0.76394 0.59693 0.97333 0.0
C120 C 0.77948 0.56548 0.99611 0.0
C121 C 0.77676 0.61558 0.9573 0.0
N122 N 0.80343 0.61702 0.95324 0.0
C123 C 0.76168 0.62979 0.94433 0.0
H124 H 0.76857 0.54269 0.99035 0.0
H125 H 0.7647 0.56612 1.00752 0.0
H126 H 0.80193 0.57067 1.00338 0.0
H127 H 0.77182 0.65328 0.94851 0.0
H128 H 0.73673 0.61847 0.94644 0.0
H129 H 0.76574 0.62947 0.92814 0.0
C130 C 0.45761 0.23045 0.97439 0.0
N131 N 0.44969 0.20918 0.96076 0.0
N132 N 0.45094 0.25152 0.9669 0.0
C133 C 0.46976 0.22938 0.99554 0.0
C134 C 0.43865 0.24216 0.94817 0.0
N135 N 0.43776 0.2164 0.94452 0.0
C136 C 0.42858 0.25867 0.93305 0.0
H137 H 0.46268 0.24041 1.00609 0.0
H138 H 0.49507 0.24102 0.99565 0.0
H139 H 0.46155 0.20612 1.00093 0.0
H140 H 0.44178 0.28289 0.93542 0.0
H141 H 0.40401 0.25083 0.93483 0.0
H142 H 0.43139 0.25441 0.91738 0.0
C143 C 0.77589 0.2452 0.97095 0.0
N144 N 0.76143 0.22102 0.95921 0.0
N145 N 0.80303 0.26551 0.96324 0.0
C146 C 0.76314 0.24931 0.98962 0.0
C147 C 0.80465 0.25275 0.94653 0.0
N148 N 0.7796 0.22575 0.94414 0.0
C149 C 0.83067 0.26679 0.9324 0.0
H150 H 0.7478 0.2584 0.9851 0.0
H151 H 0.7813 0.26506 0.99998 0.0
H152 H 0.7497 0.22776 0.99782 0.0
H153 H 0.83393 0.24971 0.92548 0.0
H154 H 0.85223 0.28263 0.94039 0.0
H155 H 0.82527 0.27906 0.92009 0.0
C156 C 0.54587 0.77358 0.07257 0.0
N157 N 0.55485 0.79548 0.0859 0.0
N158 N 0.54332 0.74869 0.08207 0.0
C159 C 0.53731 0.77567 0.05067 0.0
C160 C 0.55098 0.75619 0.10161 0.0
N161 N 0.55768 0.78448 0.10397 0.0
C162 C 0.5537 0.73645 0.11816 0.0
H163 H 0.52649 0.78977 0.04852 0.0
H164 H 0.52145 0.75341 0.04468 0.0
H165 H 0.55832 0.786 0.04188 0.0
H166 H 0.55822 0.71971 0.11195 0.0
H167 H 0.53193 0.72468 0.12612 0.0
H168 H 0.57228 0.74968 0.12932 0.0
C169 C 0.24188 0.79146 0.08565 0.0
N170 N 0.25599 0.81475 0.09815 0.0
N171 N 0.21242 0.77356 0.09046 0.0
C172 C 0.25614 0.78714 0.06787 0.0
C173 C 0.20894 0.78674 0.10625 0.0
N174 N 0.23524 0.81197 0.11082 0.0
C175 C 0.18041 0.77388 0.1181 0.0
H176 H 0.23847 0.77292 0.05655 0.0
H177 H 0.26951 0.77621 0.07321 0.0
H178 H 0.27186 0.8088 0.06054 0.0
H179 H 0.16576 0.74974 0.11584 0.0
H180 H 0.16726 0.78514 0.11301 0.0
H181 H 0.18621 0.77766 0.13446 0.0
C182 C 0.21836 0.44208 0.07744 0.0
N183 N 0.23313 0.4313 0.0899 0.0
N184 N 0.19459 0.44074 0.08671 0.0
C185 C 0.22898 0.45673 0.05703 0.0
C186 C 0.19552 0.42896 0.10528 0.0
N187 N 0.21908 0.42349 0.10728 0.0
C188 C 0.17302 0.42213 0.12136 0.0
H189 H 0.22194 0.47363 0.05338 0.0
H190 H 0.21862 0.43962 0.04538 0.0
H191 H 0.25419 0.46753 0.05644 0.0
H192 H 0.16968 0.40248 0.1308 0.0
H193 H 0.15063 0.41799 0.11459 0.0
H194 H 0.18213 0.44134 0.13134 0.0
C195 C 0.44354 0.90872 0.31199 0.0
N196 N 0.46528 0.91753 0.29828 0.0
N197 N 0.42296 0.91735 0.30589 0.0
C198 C 0.44356 0.89339 0.33195 0.0
C199 C 0.43322 0.93201 0.28801 0.0
N200 N 0.45923 0.93244 0.28353 0.0
C201 C 0.41619 0.94309 0.27396 0.0
H202 H 0.43185 0.86909 0.32988 0.0
H203 H 0.43145 0.89804 0.34332 0.0
H204 H 0.46728 0.90065 0.3377 0.0
H205 H 0.42362 0.96637 0.2775 0.0
H206 H 0.3912 0.92956 0.27581 0.0
H207 H 0.42105 0.94258 0.25797 0.0
C208 C 0.12533 0.56403 0.30713 0.0
N209 N 0.1157 0.54178 0.29401 0.0
N210 N 0.11396 0.58218 0.30136 0.0
C211 C 0.14375 0.56671 0.32643 0.0
C212 C 0.09695 0.57012 0.28434 0.0
N213 N 0.09768 0.54537 0.28002 0.0
C214 C 0.08125 0.58357 0.27119 0.0
H215 H 0.13953 0.57897 0.33776 0.0
H216 H 0.16837 0.57898 0.32316 0.0
H217 H 0.13814 0.54448 0.3329 0.0
H218 H 0.09273 0.60793 0.27288 0.0
H219 H 0.05728 0.57367 0.27573 0.0
H220 H 0.0809 0.57885 0.25507 0.0
C221 C 0.44278 0.57147 0.30495 0.0
N222 N 0.42761 0.54816 0.29258 0.0
N223 N 0.46589 0.5948 0.29527 0.0
C224 C 0.43494 0.57166 0.3264 0.0
C225 C 0.46394 0.58486 0.27651 0.0
N226 N 0.4406 0.55667 0.27483 0.0
C227 C 0.48512 0.60253 0.25985 0.0
H228 H 0.41858 0.58006 0.32644 0.0
H229 H 0.45564 0.58647 0.33558 0.0
H230 H 0.42406 0.54915 0.33355 0.0
H231 H 0.50377 0.59707 0.25999 0.0
H232 H 0.49526 0.6267 0.26185 0.0
H233 H 0.47299 0.59697 0.24487 0.0
Eu234 Eu 0.50109 0.99174 1.00527 0.0
Eu235 Eu 0.52275 0.02623 0.04864 0.0
C236 C 0.49498 0.04973 1.01185 0.0
C237 C 0.4973 0.97794 0.94975 0.0
C238 C 0.51785 0.0082 0.9463 0.0
C239 C 0.49818 0.96936 0.91432 0.0
C240 C 0.52857 0.01898 0.927 0.0
C241 C 0.48757 0.95858 0.93368 0.0
C242 C 0.51886 0.9997 0.91076 0.0
C243 C 0.48719 0.96649 0.97026 0.0
O244 O 0.47171 0.99592 0.04974 0.0
O245 O 0.46536 0.9611 0.02736 0.0
C246 C 0.45566 0.96923 0.04242 0.0
O247 O 0.53152 0.977 0.02232 0.0
O248 O 0.5152 0.04667 0.07388 0.0
O249 O 0.55641 0.04356 0.07358 0.0
O250 O 0.52143 0.98249 0.05422 0.0
C251 C 0.53066 0.97033 0.04169 0.0
O252 O 0.54359 0.03479 0.99807 0.0
O253 O 0.56497 0.04798 0.03006 0.0
O254 O 0.51491 0.05716 0.02719 0.0
O255 O 0.50827 0.96704 0.98287 0.0
O256 O 0.4708 0.97589 0.97833 0.0
O257 O 0.48255 0.02345 1.00391 0.0
C258 C 0.53461 0.03724 0.10492 0.0
C259 C 0.5254 1.00717 0.10876 0.0
C260 C 0.53469 0.04364 0.14083 0.0
C261 C 0.52102 0.99543 0.12851 0.0
C262 C 0.53923 0.05539 0.12104 0.0
C263 C 0.52554 0.01349 0.14482 0.0
C264 C 0.53943 0.04964 0.08416 0.0
C265 C 0.56679 0.05112 1.0103 0.0
H266 H 0.52565 0.02349 0.95855 0.0
H267 H 0.49047 0.9539 0.90218 0.0
H268 H 0.54408 0.04251 0.92474 0.0
H269 H 0.47192 0.93511 0.93613 0.0
H270 H 0.52167 0.99279 0.09646 0.0
H271 H 0.53787 0.05807 0.15296 0.0
H272 H 0.51433 0.97225 0.13101 0.0
H273 H 0.54621 0.07862 0.11832 0.0
Eu274 Eu 0.01963 0.53299 0.99998 0.0
Eu275 Eu 0.99026 0.51589 0.04528 0.0
C276 C 0.96082 0.46882 1.00959 0.0
C277 C 0.02866 0.54195 0.94276 0.0
C278 C 0.01238 0.51287 0.93576 0.0
C279 C 0.02149 0.5605 0.90954 0.0
C280 C 0.00102 0.50772 0.91578 0.0
C281 C 0.03312 0.56568 0.92947 0.0
C282 C 0.00546 0.53148 0.90247 0.0
C283 C 0.04093 0.54806 0.96378 0.0
O284 O 0.02068 0.49587 0.04471 0.0
O285 O 0.05275 0.52487 0.01966 0.0
C286 C 0.0461 0.50607 0.03513 0.0
O287 O 0.04057 0.57524 0.01746 0.0
O288 O 0.9668 0.48357 0.0695 0.0
O289 O 0.98 0.52966 0.07279 0.0
O290 O 0.03756 0.55503 0.04929 0.0
C291 C 0.04975 0.57781 0.03656 0.0
O292 O 0.97383 0.52995 0.99638 0.0
O293 O 0.9719 0.54311 0.02825 0.0
O294 O 0.95557 0.47969 0.02529 0.0
O295 O 0.0329 0.56371 0.97387 0.0
O296 O 0.04086 0.52629 0.97472 0.0
O297 O 0.98612 0.48375 0.99964 0.0
C298 C 0.98163 0.50253 0.10213 0.0
C299 C 0.01275 0.51178 0.10563 0.0
C300 C 0.97377 0.49155 0.13799 0.0
C301 C 0.02439 0.51118 0.12527 0.0
C302 C 0.96221 0.49221 0.11838 0.0
C303 C 0.00507 0.50129 0.14173 0.0
C304 C 0.96917 0.50349 0.08164 0.0
C305 C 0.96336 0.5408 1.00901 0.0
H306 H 0.00833 0.49408 0.94569 0.0
H307 H 0.02545 0.57923 0.89956 0.0
H308 H 0.98842 0.48508 0.91079 0.0
H309 H 0.04562 0.58829 0.93453 0.0
H310 H 0.02807 0.51974 0.0932 0.0
H311 H 0.95816 0.48337 0.15024 0.0
H312 H 0.04862 0.51912 0.12761 0.0
H313 H 0.93807 0.48475 0.11591 0.0
Eu314 Eu 0.50251 0.49164 0.05387 0.0
Eu315 Eu 0.48305 0.49961 1.00585 0.0
C316 C 0.49823 0.54884 0.03868 0.0
C317 C 0.50201 0.4871 0.11118 0.0
C318 C 0.4823 0.49886 0.11127 0.0
C319 C 0.49863 0.47929 0.14759 0.0
C320 C 0.47111 0.50116 0.12945 0.0
C321 C 0.50987 0.4771 0.12941 0.0
C322 C 0.47932 0.49163 0.14791 0.0
C323 C 0.51456 0.48534 0.09219 0.0
O324 O 0.52922 0.50323 1.00648 0.0
O325 O 0.54641 0.52103 0.03817 0.0
C326 C 0.55163 0.51766 0.01967 0.0
O327 O 0.50509 0.45708 0.0364 0.0
O328 O 0.49144 0.52845 0.97893 0.0
O329 O 0.45824 0.48188 0.97717 0.0
O330 O 0.46801 0.45133 1.0124 0.0
C331 C 0.4845 0.44142 0.02248 0.0
O332 O 0.45128 0.46696 0.05088 0.0
O333 O 0.44193 0.49039 0.02307 0.0
O334 O 0.50209 0.54414 0.02014 0.0
O335 O 0.49644 0.46321 0.08079 0.0
O336 O 0.5291 0.51016 0.08174 0.0
O337 O 0.49121 0.52833 0.05303 0.0
C338 C 0.48771 0.50574 0.94841 0.0
C339 C 0.50712 0.49358 0.94866 0.0
C340 C 0.49668 0.51857 0.91269 0.0
C341 C 0.52109 0.49378 0.93101 0.0
C342 C 0.48264 0.51824 0.93031 0.0
C343 C 0.51613 0.50637 0.91277 0.0
C344 C 0.47384 0.50683 0.96707 0.0
C345 C 0.43315 0.47403 0.03985 0.0
H346 H 0.47586 0.5066 0.09731 0.0
H347 H 0.50506 0.47125 0.1614 0.0
H348 H 0.45662 0.51109 0.12907 0.0
H349 H 0.52486 0.46774 0.12962 0.0
H350 H 0.51166 0.48413 0.96254 0.0
H351 H 0.49196 0.52808 0.89891 0.0
H352 H 0.53616 0.48448 0.93173 0.0
H353 H 0.46789 0.5279 0.92982 0.0
Eu354 Eu 0.16435 0.32342 0.33868 0.0
Eu355 Eu 0.18783 0.35792 0.38193 0.0
C356 C 0.15952 0.38164 0.3454 0.0
C357 C 0.16118 0.31202 0.28304 0.0
C358 C 0.17958 0.34279 0.28023 0.0
C359 C 0.16513 0.30585 0.24758 0.0
C360 C 0.19078 0.35503 0.26128 0.0
C361 C 0.15403 0.2936 0.26664 0.0
C362 C 0.18366 0.33675 0.24468 0.0
C363 C 0.1511 0.29928 0.30331 0.0
O364 O 0.13724 0.32653 0.38516 0.0
O365 O 0.12695 0.29373 0.35995 0.0
C366 C 0.11925 0.30118 0.37634 0.0
O367 O 0.19216 0.30592 0.35621 0.0
O368 O 0.18344 0.38163 0.4064 0.0
O369 O 0.22234 0.37465 0.40648 0.0
O370 O 0.18379 0.31322 0.38818 0.0
C371 C 0.19141 0.29969 0.37566 0.0
O372 O 0.20675 0.36687 0.3319 0.0
O373 O 0.22977 0.37451 0.36344 0.0
O374 O 0.18021 0.38897 0.36027 0.0
O375 O 0.17255 0.30016 0.31573 0.0
O376 O 0.13395 0.30741 0.3118 0.0
O377 O 0.14608 0.35515 0.33776 0.0
C378 C 0.20258 0.37283 0.43779 0.0
C379 C 0.18026 0.34362 0.44262 0.0
C380 C 0.21786 0.38098 0.47328 0.0
C381 C 0.17668 0.33317 0.46269 0.0
C382 C 0.22137 0.39143 0.45318 0.0
C383 C 0.19549 0.3517 0.47827 0.0
C384 C 0.20725 0.38349 0.41666 0.0
C385 C 0.2312 0.38006 0.34385 0.0
H386 H 0.18554 0.35734 0.29278 0.0
H387 H 0.15889 0.29117 0.23508 0.0
H388 H 0.20535 0.37883 0.25972 0.0
H389 H 0.14001 0.26976 0.26859 0.0
H390 H 0.16567 0.3289 0.43085 0.0
H391 H 0.23294 0.39571 0.48486 0.0
H392 H 0.15893 0.31067 0.46601 0.0
H393 H 0.23892 0.41394 0.44964 0.0
Eu394 Eu 0.68302 0.85955 0.33438 0.0
Eu395 Eu 0.65353 0.84261 0.37995 0.0
C396 C 0.62419 0.79627 0.34389 0.0
C397 C 0.68636 0.86696 0.27767 0.0
C398 C 0.65436 0.85067 0.27613 0.0
C399 C 0.6877 0.87321 0.24115 0.0
C400 C 0.63913 0.84528 0.25721 0.0
C401 C 0.70295 0.87846 0.26013 0.0
C402 C 0.65563 0.85621 0.23949 0.0
C403 C 0.70227 0.87135 0.29756 0.0
O404 O 0.69815 0.84315 0.38364 0.0
O405 O 0.70341 0.83414 0.35115 0.0
C406 C 0.71044 0.83472 0.37057 0.0
O407 O 0.71865 0.89506 0.35438 0.0
O408 O 0.63617 0.81071 0.40519 0.0
O409 O 0.63731 0.85277 0.40649 0.0
O410 O 0.68811 0.89159 0.37988 0.0
C411 C 0.71383 0.90584 0.37031 0.0
O412 O 0.65328 0.88018 0.33579 0.0
O413 O 0.62002 0.84943 0.35961 0.0
O414 O 0.63176 0.79983 0.36323 0.0
O415 O 0.7015 0.89075 0.30873 0.0
O416 O 0.69678 0.84713 0.30781 0.0
O417 O 0.63712 0.81825 0.33061 0.0
C418 C 0.64683 0.83197 0.43687 0.0
C419 C 0.67842 0.85016 0.44019 0.0
C420 C 0.64223 0.81692 0.47239 0.0
C421 C 0.69185 0.85175 0.45952 0.0
C422 C 0.62883 0.81541 0.45306 0.0
C423 C 0.67394 0.83503 0.47586 0.0
C424 C 0.63281 0.82855 0.4164 0.0
C425 C 0.62696 0.86869 0.34439 0.0
H426 H 0.64117 0.84181 0.28956 0.0
H427 H 0.70103 0.8817 0.22777 0.0
H428 H 0.61442 0.83244 0.25644 0.0
H429 H 0.72767 0.89112 0.26108 0.0
H430 H 0.69272 0.86293 0.4278 0.0
H431 H 0.6278 0.80345 0.48452 0.0
H432 H 0.71623 0.86626 0.46167 0.0
H433 H 0.60446 0.80095 0.4507 0.0
Eu434 Eu 0.16162 0.82074 0.38568 0.0
Eu435 Eu 0.1481 0.83534 0.33715 0.0
C436 C 0.16297 0.88166 0.37205 0.0
C437 C 0.15635 0.81291 0.44314 0.0
C438 C 0.13947 0.82771 0.44331 0.0
C439 C 0.15226 0.80499 0.47954 0.0
C440 C 0.1293 0.83136 0.46151 0.0
C441 C 0.16244 0.80139 0.46134 0.0
C442 C 0.1358 0.82029 0.47993 0.0
C443 C 0.16838 0.81007 0.42422 0.0
O444 O 0.1947 0.84012 0.33876 0.0
O445 O 0.20799 0.84826 0.37261 0.0
C446 C 0.21518 0.84976 0.35374 0.0
O447 O 0.1655 0.78764 0.3675 0.0
O448 O 0.15975 0.86621 0.31118 0.0
O449 O 0.1236 0.82091 0.30789 0.0
O450 O 0.13376 0.78682 0.34086 0.0
C451 C 0.14785 0.77478 0.35159 0.0
O452 O 0.11106 0.79624 0.37855 0.0
O453 O 0.10718 0.82736 0.35409 0.0
O454 O 0.16712 0.87824 0.35329 0.0
O455 O 0.14889 0.79001 0.41191 0.0
O456 O 0.18644 0.83484 0.41469 0.0
O457 O 0.15433 0.86001 0.38572 0.0
C458 C 0.15459 0.84498 0.27978 0.0
C459 C 0.17706 0.83651 0.28015 0.0
C460 C 0.15965 0.85427 0.24348 0.0
C461 C 0.19073 0.83693 0.2623 0.0
C462 C 0.14597 0.85379 0.26132 0.0
C463 C 0.18233 0.84596 0.2437 0.0
C464 C 0.14114 0.84613 0.29861 0.0
C465 C 0.0954 0.80728 0.36876 0.0
H466 H 0.13455 0.83681 0.42939 0.0
H467 H 0.15731 0.79576 0.49332 0.0
H468 H 0.11703 0.84356 0.4612 0.0
H469 H 0.17533 0.7898 0.46151 0.0
H470 H 0.18426 0.82988 0.29429 0.0
H471 H 0.15219 0.8609 0.22946 0.0
H472 H 0.20829 0.83068 0.26315 0.0
H473 H 0.12876 0.86051 0.2607 0.0
Eu474 Eu 0.83079 0.65951 0.67346 0.0
Eu475 Eu 0.85266 0.69462 0.71665 0.0
C476 C 0.82361 0.71667 0.67933 0.0
C477 C 0.83132 0.64714 0.61844 0.0
C478 C 0.84892 0.6779 0.61503 0.0
C479 C 0.83997 0.63949 0.58431 0.0
C480 C 0.86171 0.68941 0.59631 0.0
C481 C 0.82706 0.628 0.60305 0.0
C482 C 0.85736 0.67037 0.58068 0.0
C483 C 0.81875 0.63516 0.63836 0.0
O484 O 0.80787 0.6536 0.72334 0.0
O485 O 0.78746 0.63944 0.6911 0.0
C486 C 0.78472 0.63769 0.71086 0.0
O487 O 0.83383 0.62755 0.69632 0.0
O488 O 0.84432 0.71367 0.74226 0.0
O489 O 0.88849 0.71701 0.73986 0.0
O490 O 0.86867 0.6608 0.71869 0.0
C491 C 0.85399 0.63407 0.71137 0.0
O492 O 0.88179 0.69056 0.6723 0.0
O493 O 0.88701 0.72531 0.69419 0.0
O494 O 0.82593 0.71333 0.69903 0.0
O495 O 0.83797 0.63378 0.65187 0.0
O496 O 0.80271 0.64569 0.64557 0.0
O497 O 0.83004 0.70204 0.6669 0.0
C498 C 0.87064 0.71267 0.77251 0.0
C499 C 0.8621 0.6833 0.77845 0.0
C500 C 0.87606 0.7253 0.80768 0.0
C501 C 0.86036 0.67493 0.79896 0.0
C502 C 0.87788 0.73365 0.7872 0.0
C503 C 0.86696 0.69578 0.81379 0.0
C504 C 0.87094 0.72144 0.75107 0.0
C505 C 0.89717 0.71741 0.67938 0.0
H506 H 0.85272 0.69302 0.62685 0.0
H507 H 0.83649 0.62418 0.57273 0.0
H508 H 0.87453 0.71326 0.59401 0.0
H509 H 0.8139 0.60419 0.60555 0.0
H510 H 0.85628 0.66678 0.76724 0.0
H511 H 0.88162 0.74194 0.81874 0.0
H512 H 0.85294 0.65196 0.80316 0.0
H513 H 0.88453 0.75642 0.78283 0.0
Eu514 Eu 0.34712 0.1958 0.66759 0.0
Eu515 Eu 0.31754 0.17757 0.71273 0.0
C516 C 0.28736 0.13241 0.67657 0.0
C517 C 0.35353 0.204 0.61081 0.0
C518 C 0.32178 0.18629 0.60809 0.0
C519 C 0.35785 0.21201 0.57454 0.0
C520 C 0.30811 0.1814 0.58868 0.0
C521 C 0.37148 0.21689 0.59397 0.0
C522 C 0.32599 0.19418 0.57166 0.0
C523 C 0.36784 0.20975 0.63119 0.0
O524 O 0.34752 0.1572 0.71066 0.0
O525 O 0.38109 0.18953 0.68761 0.0
C526 C 0.37405 0.16938 0.70222 0.0
O527 O 0.36964 0.23796 0.68513 0.0
O528 O 0.29598 0.14421 0.73681 0.0
O529 O 0.30588 0.18925 0.74055 0.0
O530 O 0.36402 0.21784 0.71727 0.0
C531 C 0.37727 0.2405 0.70451 0.0
O532 O 0.30297 0.19629 0.66431 0.0
O533 O 0.29954 0.20582 0.69699 0.0
O534 O 0.28173 0.14391 0.69173 0.0
O535 O 0.36241 0.22684 0.64177 0.0
O536 O 0.36544 0.18672 0.64172 0.0
O537 O 0.31378 0.14643 0.66783 0.0
C538 C 0.31116 0.1633 0.7694 0.0
C539 C 0.34297 0.17629 0.77222 0.0
C540 C 0.30579 0.15088 0.80528 0.0
C541 C 0.35615 0.17685 0.7915 0.0
C542 C 0.29266 0.15039 0.786 0.0
C543 C 0.33773 0.16437 0.80833 0.0
C544 C 0.29718 0.16327 0.74926 0.0
C545 C 0.29247 0.20624 0.67761 0.0
H546 H 0.30759 0.17625 0.621 0.0
H547 H 0.37221 0.22244 0.56177 0.0
H548 H 0.28361 0.16721 0.587 0.0
H549 H 0.39602 0.23082 0.59587 0.0
H550 H 0.35762 0.18631 0.75952 0.0
H551 H 0.29088 0.14065 0.81782 0.0
H552 H 0.3808 0.18773 0.79329 0.0
H553 H 0.26804 0.14007 0.78406 0.0
Eu554 Eu 0.83054 0.16038 0.71819 0.0
Eu555 Eu 0.81614 0.17328 0.6698 0.0
C556 C 0.83327 0.22098 0.70362 0.0
C557 C 0.82745 0.15413 0.77593 0.0
C558 C 0.81023 0.1685 0.77666 0.0
C559 C 0.82427 0.1455 0.81229 0.0
C560 C 0.80038 0.17165 0.79516 0.0
C561 C 0.8341 0.14241 0.79382 0.0
C562 C 0.80759 0.16048 0.81327 0.0
C563 C 0.83914 0.1517 0.75677 0.0
O564 O 0.86109 0.17445 0.67103 0.0
O565 O 0.87638 0.18683 0.70405 0.0
C566 C 0.88253 0.18537 0.68535 0.0
O567 O 0.83238 0.12526 0.70102 0.0
O568 O 0.82894 0.20407 0.64373 0.0
O569 O 0.79069 0.15969 0.64078 0.0
O570 O 0.80262 0.12499 0.67314 0.0
C571 C 0.81586 0.11276 0.68463 0.0
O572 O 0.77984 0.13589 0.71207 0.0
O573 O 0.77547 0.16588 0.68695 0.0
O574 O 0.8392 0.21684 0.68553 0.0
O575 O 0.81987 0.13077 0.74492 0.0
O576 O 0.85583 0.17652 0.74682 0.0
O577 O 0.82227 0.19921 0.71719 0.0
C578 C 0.82142 0.18215 0.6123 0.0
C579 C 0.83886 0.16794 0.61186 0.0
C580 C 0.82973 0.19506 0.57652 0.0
C581 C 0.8516 0.16726 0.59386 0.0
C582 C 0.81699 0.19568 0.5945 0.0
C583 C 0.84727 0.18086 0.5759 0.0
C584 C 0.80917 0.18443 0.63134 0.0
C585 C 0.76402 0.14666 0.70216 0.0
H586 H 0.8048 0.17767 0.76297 0.0
H587 H 0.8298 0.13616 0.82583 0.0
H588 H 0.78786 0.18355 0.79533 0.0
H589 H 0.8472 0.13107 0.79354 0.0
H590 H 0.84275 0.15752 0.62548 0.0
H591 H 0.82624 0.20619 0.56317 0.0
H592 H 0.86458 0.15578 0.594 0.0
H593 H 0.80393 0.20707 0.59455 0.0
H594 H 0.27264 0.87246 0.09132 0.0
H595 H 0.308 0.81222 0.0993 0.0
H596 H 0.3221 0.91148 0.0791 0.0
H597 H 0.35733 0.85078 0.08705 0.0
H598 H 0.42059 0.90939 0.03658 0.0
H599 H 0.37389 0.87385 0.05319 0.0
H600 H 0.37786 0.94428 0.08689 0.0
H601 H 0.4246 0.97993 0.07025 0.0
C602 C 0.29138 0.86797 0.09108 0.0
C603 C 0.28661 0.83941 0.09618 0.0
C604 C 0.31962 0.89015 0.08394 0.0
C605 C 0.34355 0.8841 0.08167 0.0
C606 C 0.33924 0.85605 0.08814 0.0
C607 C 0.31117 0.83406 0.09538 0.0
C608 C 0.41152 0.91738 0.04747 0.0
C609 C 0.42648 0.94762 0.052 0.0
C610 C 0.38483 0.89693 0.05715 0.0
C611 C 0.37217 0.90612 0.07154 0.0
C612 C 0.38687 0.93642 0.07586 0.0
C613 C 0.41376 0.95685 0.06633 0.0
H614 H 0.18163 0.47833 0.10425 0.0
H615 H 0.16148 0.42588 0.05166 0.0
H616 H 0.14534 0.49438 0.09153 0.0
H617 H 0.1258 0.44257 0.03851 0.0
H618 H 0.09223 0.50824 1.01448 0.0
H619 H 0.12897 0.49266 0.0268 0.0
H620 H 0.08683 0.46745 0.08455 0.0
H621 H 0.04999 0.48277 0.0723 0.0
C622 C 0.16926 0.47022 0.09001 0.0
C623 C 0.17395 0.45075 0.07895 0.0
C624 C 0.14867 0.47941 0.08272 0.0
C625 C 0.13282 0.46962 0.06409 0.0
C626 C 0.13796 0.45058 0.05284 0.0
C627 C 0.15825 0.44107 0.0603 0.0
C628 C 0.09084 0.49938 0.02979 0.0
C629 C 0.06824 0.49664 0.04242 0.0
C630 C 0.11173 0.49036 0.03678 0.0
C631 C 0.11064 0.47893 0.05659 0.0
C632 C 0.0882 0.47639 0.06925 0.0
C633 C 0.06705 0.48498 0.06219 0.0
H634 H 0.56975 0.7378 0.05225 0.0
H635 H 0.49611 0.69622 0.09322 0.0
H636 H 0.55699 0.68901 0.04036 0.0
H637 H 0.4826 0.64742 0.08123 0.0
H638 H 0.49504 0.56703 0.07572 0.0
H639 H 0.50418 0.61544 0.08466 0.0
H640 H 0.51988 0.64556 0.02226 0.0
H641 H 0.51146 0.59706 1.01331 0.0
C642 C 0.55048 0.7181 0.05839 0.0
C643 C 0.53398 0.72044 0.07367 0.0
C644 C 0.54308 0.69022 0.0516 0.0
C645 C 0.51893 0.66423 0.05998 0.0
C646 C 0.50172 0.66689 0.07475 0.0
C647 C 0.50926 0.69471 0.08156 0.0
C648 C 0.5003 0.58386 0.06384 0.0
C649 C 0.50255 0.57811 0.04378 0.0
C650 C 0.50535 0.61164 0.06896 0.0
C651 C 0.51264 0.63442 0.05417 0.0
C652 C 0.51462 0.62862 0.03406 0.0
C653 C 0.50963 0.60076 0.02892 0.0
H654 H 0.83484 0.27902 0.99899 0.0
H655 H 0.82068 0.31754 0.943 0.0
H656 H 0.87277 0.32859 1.01049 0.0
H657 H 0.85915 0.36712 0.95412 0.0
H658 H 0.95519 0.44422 0.97306 0.0
H659 H 0.91644 0.39498 0.96199 0.0
H660 H 0.87457 0.37641 0.01962 0.0
H661 H 0.91312 0.42566 0.0307 0.0
C662 C 0.83965 0.29822 0.9893 0.0
C663 C 0.82461 0.29468 0.97029 0.0
C664 C 0.86138 0.32652 0.9958 0.0
C665 C 0.86893 0.35177 0.98321 0.0
C666 C 0.854 0.3481 0.96409 0.0
C667 C 0.83197 0.31985 0.95775 0.0
C668 C 0.93774 0.42965 0.98339 0.0
C669 C 0.93728 0.43893 1.00277 0.0
C670 C 0.91544 0.40151 0.97699 0.0
C671 C 0.89245 0.38181 0.98993 0.0
C672 C 0.89212 0.391 1.00936 0.0
C673 C 0.91412 0.41929 1.01565 0.0
H674 H 0.71826 0.54072 0.97293 0.0
H675 H 0.74255 0.62875 0.98978 0.0
H676 H 0.66684 0.52156 0.98507 0.0
H677 H 0.69083 0.60986 1.00186 0.0
H678 H 0.6048 0.55499 0.04035 0.0
H679 H 0.65702 0.57491 0.02949 0.0
H680 H 0.62196 0.52766 0.97401 0.0
H681 H 0.57005 0.5077 0.98473 0.0
C682 C 0.7124 0.55583 0.97936 0.0
C683 C 0.73397 0.58603 0.98058 0.0
C684 C 0.68309 0.54502 0.98616 0.0
C685 C 0.6749 0.56427 0.99436 0.0
C686 C 0.69668 0.59454 0.99576 0.0
C687 C 0.72602 0.60537 0.98879 0.0
C688 C 0.60827 0.54882 0.02587 0.0
C689 C 0.5833 0.52969 1.01345 0.0
C690 C 0.63812 0.56037 0.01962 0.0
C691 C 0.64345 0.55273 1.00096 0.0
C692 C 0.61849 0.53364 0.98857 0.0
C693 C 0.58875 0.52232 0.99471 0.0
H694 H 0.40795 0.15087 0.96277 0.0
H695 H 0.50444 0.21293 0.96478 0.0
H696 H 0.41818 0.11044 0.97361 0.0
H697 H 0.51506 0.17296 0.97533 0.0
H698 H 0.51877 0.10733 0.02239 0.0
H699 H 0.50715 0.14444 1.00719 0.0
H700 H 0.44199 0.08028 0.96543 0.0
H701 H 0.45337 0.04275 0.98084 0.0
C702 C 0.43134 0.15554 0.96495 0.0
C703 C 0.45548 0.18473 0.96299 0.0
C704 C 0.43726 0.13256 0.97121 0.0
C705 C 0.46743 0.13861 0.97566 0.0
C706 C 0.49155 0.16766 0.97245 0.0
C707 C 0.4856 0.19046 0.96623 0.0
C708 C 0.5019 0.10099 1.01001 0.0
C709 C 0.48705 0.072 1.00286 0.0
C710 C 0.49542 0.12239 1.00116 0.0
C711 C 0.47388 0.11541 0.98494 0.0
C712 C 0.45863 0.08632 0.97794 0.0
C713 C 0.46524 0.06486 0.98675 0.0
H714 H 0.74828 0.16372 0.96226 0.0
H715 H 0.70816 0.21981 0.96411 0.0
H716 H 0.69998 0.1207 0.97282 0.0
H717 H 0.6606 0.17732 0.97581 0.0
H718 H 0.61038 0.10216 0.02777 0.0
H719 H 0.65646 0.14232 1.01275 0.0
H720 H 0.63486 0.09372 0.95809 0.0
H721 H 0.58805 0.05374 0.97281 0.0
C722 C 0.72896 0.1667 0.9645 0.0
C723 C 0.73198 0.19509 0.96249 0.0
C724 C 0.70148 0.14221 0.9707 0.0
C725 C 0.6768 0.14587 0.97531 0.0
C726 C 0.67942 0.17401 0.97252 0.0
C727 C 0.70658 0.19827 0.9659 0.0
C728 C 0.61546 0.09991 1.01259 0.0
C729 C 0.59554 0.07473 1.00151 0.0
C730 C 0.64175 0.12295 1.00399 0.0
C731 C 0.6491 0.12103 0.98429 0.0
C732 C 0.62966 0.09564 0.97331 0.0
C733 C 0.6029 0.07286 0.98174 0.0
H734 H 0.80497 0.54752 0.95971 0.0
H735 H 0.86542 0.63745 0.97713 0.0
H736 H 0.84524 0.535 0.96836 0.0
H737 H 0.90605 0.62522 0.98603 0.0
H738 H 0.93327 0.53012 0.97221 0.0
H739 H 0.89808 0.54689 0.95893 0.0
H740 H 0.9099 0.59137 1.01443 0.0
H741 H 0.94521 0.5746 0.02785 0.0
C742 C 0.82728 0.56468 0.96494 0.0
C743 C 0.8325 0.59334 0.96777 0.0
C744 C 0.85023 0.55763 0.9699 0.0
C745 C 0.87863 0.57912 0.97802 0.0
C746 C 0.88424 0.60822 0.97998 0.0
C747 C 0.86131 0.61531 0.97473 0.0
C748 C 0.92846 0.54354 0.9816 0.0
C749 C 0.94191 0.55092 1.00115 0.0
C750 C 0.9083 0.5531 0.97397 0.0
C751 C 0.90143 0.57051 0.98562 0.0
C752 C 0.91515 0.57827 1.00505 0.0
C753 C 0.93509 0.56842 1.01279 0.0
H754 H 0.41028 0.27053 0.96903 0.0
H755 H 0.50227 0.29155 0.98673 0.0
H756 H 0.41905 0.31619 0.98319 0.0
H757 H 0.51026 0.33552 1.00329 0.0
H758 H 0.52781 0.42921 1.01154 0.0
H759 H 0.51982 0.38278 0.99879 0.0
H760 H 0.42352 0.34176 1.01053 0.0
H761 H 0.4316 0.38914 0.02135 0.0
C762 C 0.43235 0.28492 0.97616 0.0
C763 C 0.45568 0.27768 0.97658 0.0
C764 C 0.43729 0.31091 0.98473 0.0
C765 C 0.46544 0.32993 0.99462 0.0
C766 C 0.48849 0.32204 0.99552 0.0
C767 C 0.48379 0.29649 0.98635 0.0
C768 C 0.50505 0.41005 1.01145 0.0
C769 C 0.48028 0.41252 0.01731 0.0
C770 C 0.50037 0.38328 1.00427 0.0
C771 C 0.47087 0.35813 1.00338 0.0
C772 C 0.4464 0.3606 1.01027 0.0
C773 C 0.45099 0.38764 0.01676 0.0
H774 H 0.15839 0.76149 0.07242 0.0
H775 H 0.21631 0.72398 0.08865 0.0
H776 H 0.1192 0.71399 0.05857 0.0
H777 H 0.17724 0.67629 0.07496 0.0
H778 H 0.08339 0.58899 0.07219 0.0
H779 H 0.12364 0.63679 0.08437 0.0
H780 H 0.11191 0.68027 0.02989 0.0
H781 H 0.07173 0.63243 0.01757 0.0
C782 C 0.16264 0.74299 0.07286 0.0
C783 C 0.19015 0.74613 0.08149 0.0
C784 C 0.1404 0.71593 0.06491 0.0
C785 C 0.14513 0.69139 0.06572 0.0
C786 C 0.17285 0.69472 0.07427 0.0
C787 C 0.19524 0.72192 0.08196 0.0
C788 C 0.08938 0.60872 0.06278 0.0
C789 C 0.0743 0.60687 0.0439 0.0
C790 C 0.11258 0.63607 0.06972 0.0
C791 C 0.12096 0.66227 0.05808 0.0
C792 C 0.10581 0.66047 0.03925 0.0
C793 C 0.0829 0.63305 0.03217 0.0
H794 H 0.28764 0.45785 0.11018 0.0
H795 H 0.23963 0.40431 0.05896 0.0
H796 H 0.33598 0.46508 0.09844 0.0
H797 H 0.2879 0.4119 0.04683 0.0
H798 H 0.38367 0.47335 0.01951 0.0
H799 H 0.33394 0.45847 0.03307 0.0
H800 H 0.36403 0.43774 0.09098 0.0
H801 H 0.41347 0.45245 0.07761 0.0
C802 C 0.28742 0.44688 0.09677 0.0
C803 C 0.26016 0.43048 0.08546 0.0
C804 C 0.31501 0.45118 0.08993 0.0
C805 C 0.31567 0.43937 0.07156 0.0
C806 C 0.28808 0.42163 0.06085 0.0
C807 C 0.26055 0.41709 0.06783 0.0
C808 C 0.37958 0.46544 0.03508 0.0
C809 C 0.40249 0.46402 0.04742 0.0
C810 C 0.35109 0.45676 0.04281 0.0
C811 C 0.34518 0.4469 0.06307 0.0
C812 C 0.36802 0.44536 0.07535 0.0
C813 C 0.39628 0.45366 0.0676 0.0
H814 H 0.58981 0.83794 0.05897 0.0
H815 H 0.52328 0.81621 0.10374 0.0
H816 H 0.58828 0.88347 0.04949 0.0
H817 H 0.52089 0.86119 0.09418 0.0
H818 H 0.53568 0.9535 0.08101 0.0
H819 H 0.54613 0.91415 0.09334 0.0
H820 H 0.55319 0.89574 0.03189 0.0
H821 H 0.54371 0.93554 0.01965 0.0
C822 C 0.57505 0.84319 0.06684 0.0
C823 C 0.55659 0.82379 0.08197 0.0
C824 C 0.57398 0.86908 0.06139 0.0
C825 C 0.55421 0.87592 0.07092 0.0
C826 C 0.53665 0.85691 0.08667 0.0
C827 C 0.53792 0.83114 0.09216 0.0
C828 C 0.53974 0.94122 0.07014 0.0
C829 C 0.53874 0.94762 0.04932 0.0
C830 C 0.54558 0.91854 0.07722 0.0
C831 C 0.55043 0.90164 0.06364 0.0
C832 C 0.55007 0.90854 0.04284 0.0
C833 C 0.5444 0.93129 0.03579 0.0
H834 H 0.92662 0.18312 0.3982 0.0
H835 H 0.97222 0.16969 0.4514 0.0
H836 H 0.97554 0.22258 0.38606 0.0
H837 H 0.02155 0.20975 0.43951 0.0
H838 H 0.10168 0.30006 0.41485 0.0
H839 H 0.05279 0.26544 0.42975 0.0
H840 H 0.02045 0.22025 0.37343 0.0
H841 H 0.06925 0.25453 0.35858 0.0
C842 C 0.94717 0.1892 0.4075 0.0
C843 C 0.94574 0.17331 0.42565 0.0
C844 C 0.97519 0.21159 0.4005 0.0
C845 C 0.00256 0.21897 0.41162 0.0
C846 C 0.0009 0.20459 0.43057 0.0
C847 C 0.97272 0.18184 0.43747 0.0
C848 C 0.08411 0.28278 0.40561 0.0
C849 C 0.08945 0.2802 0.38544 0.0
C850 C 0.05615 0.26286 0.41422 0.0
C851 C 0.0326 0.24019 0.40277 0.0
C852 C 0.03794 0.23768 0.38261 0.0
C853 C 0.06602 0.25725 0.37411 0.0
H854 H 0.85794 0.82295 0.43664 0.0
H855 H 0.82406 0.75281 0.39424 0.0
H856 H 0.82076 0.83718 0.42284 0.0
H857 H 0.78639 0.76652 0.3804 0.0
H858 H 0.74437 0.81957 0.34847 0.0
H859 H 0.78269 0.80643 0.36119 0.0
H860 H 0.76582 0.81691 0.42233 0.0
H861 H 0.72814 0.83059 0.40972 0.0
C862 C 0.8423 0.81058 0.4244 0.0
C863 C 0.84349 0.78684 0.41646 0.0
C864 C 0.82104 0.81858 0.41653 0.0
C865 C 0.80056 0.80286 0.4006 0.0
C866 C 0.80209 0.77925 0.39252 0.0
C867 C 0.82344 0.77132 0.40041 0.0
C868 C 0.74885 0.81906 0.36462 0.0
C869 C 0.73328 0.82621 0.37807 0.0
C870 C 0.77069 0.81141 0.3719 0.0
C871 C 0.77733 0.81076 0.39275 0.0
C872 C 0.76158 0.81771 0.40616 0.0
C873 C 0.73984 0.82538 0.39891 0.0
H874 H 0.24676 0.05658 0.4203 0.0
H875 H 0.15949 0.04301 0.39637 0.0
H876 H 0.23426 0.00767 0.40889 0.0
H877 H 0.14747 0.99456 0.38403 0.0
H878 H 0.16222 0.9258 0.34791 0.0
H879 H 0.1734 0.97492 0.35804 0.0
H880 H 0.18871 0.9529 0.41975 0.0
H881 H 0.17691 0.90365 0.40985 0.0
C882 C 0.22498 0.0431 0.41251 0.0
C883 C 0.20393 0.05326 0.40933 0.0
C884 C 0.21789 0.01529 0.40596 0.0
C885 C 0.18989 0.99747 0.39571 0.0
C886 C 0.16925 0.00804 0.39185 0.0
C887 C 0.17612 0.03566 0.39879 0.0
C888 C 0.16784 0.93142 0.36365 0.0
C889 C 0.16873 0.91094 0.37809 0.0
C890 C 0.1741 0.95941 0.36941 0.0
C891 C 0.18201 0.96755 0.38961 0.0
C892 C 0.18283 0.94709 0.40405 0.0
C893 C 0.17594 0.91893 0.39839 0.0
H894 H 0.52722 0.62042 0.29421 0.0
H895 H 0.45524 0.6333 0.31423 0.0
H896 H 0.56534 0.66979 0.30572 0.0
H897 H 0.49347 0.68217 0.32675 0.0
H898 H 0.57918 0.75146 0.36585 0.0
H899 H 0.54015 0.70243 0.35442 0.0
H900 H 0.57672 0.72474 0.29498 0.0
H901 H 0.61534 0.77406 0.30619 0.0
C902 C 0.51962 0.63386 0.30109 0.0
C903 C 0.4883 0.62318 0.30319 0.0
C904 C 0.54137 0.66201 0.30771 0.0
C905 C 0.53232 0.67981 0.31704 0.0
C906 C 0.50105 0.66883 0.31968 0.0
C907 C 0.47923 0.64089 0.31263 0.0
C908 C 0.57887 0.74594 0.35033 0.0
C909 C 0.6004 0.76664 0.33693 0.0
C910 C 0.55644 0.71794 0.34379 0.0
C911 C 0.5555 0.70981 0.32385 0.0
C912 C 0.57707 0.73041 0.31047 0.0
C913 C 0.59907 0.75866 0.31687 0.0
H914 H 0.38078 0.86299 0.31901 0.0
H915 H 0.40167 0.9542 0.31321 0.0
H916 H 0.33215 0.84928 0.33377 0.0
H917 H 0.35201 0.94014 0.32691 0.0
H918 H 0.24143 0.87945 0.31925 0.0
H919 H 0.29422 0.89879 0.31002 0.0
H920 H 0.31414 0.86755 0.36752 0.0
H921 H 0.26129 0.84884 0.37714 0.0
C922 C 0.3751 0.88012 0.3212 0.0
C923 C 0.39488 0.90964 0.31512 0.0
C924 C 0.34737 0.87229 0.32956 0.0
C925 C 0.3387 0.89376 0.33151 0.0
C926 C 0.35845 0.92332 0.32556 0.0
C927 C 0.38657 0.93128 0.31763 0.0
C928 C 0.25715 0.87697 0.33001 0.0
C929 C 0.24739 0.86258 0.34887 0.0
C930 C 0.28729 0.8882 0.32477 0.0
C931 C 0.30796 0.88465 0.33813 0.0
C932 C 0.29842 0.87056 0.35708 0.0
C933 C 0.26836 0.85994 0.36255 0.0
H934 H 0.07394 0.48376 0.29715 0.0
H935 H 0.17055 0.54507 0.29625 0.0
H936 H 0.08415 0.44342 0.30794 0.0
H937 H 0.18113 0.50506 0.30689 0.0
H938 H 0.1858 0.44007 0.35474 0.0
H939 H 0.17494 0.47756 0.33917 0.0
H940 H 0.10626 0.41236 0.2995 0.0
H941 H 0.11685 0.37457 0.31523 0.0
C942 C 0.09733 0.48828 0.29869 0.0
C943 C 0.12151 0.51731 0.29604 0.0
C944 C 0.10324 0.46533 0.30493 0.0
C945 C 0.13347 0.47118 0.30864 0.0
C946 C 0.1576 0.49997 0.30462 0.0
C947 C 0.15164 0.52278 0.29837 0.0
C948 C 0.16833 0.43362 0.34274 0.0
C949 C 0.1522 0.40425 0.33628 0.0
C950 C 0.16229 0.45522 0.33367 0.0
C951 C 0.13993 0.44801 0.31795 0.0
C952 C 0.12354 0.41859 0.31161 0.0
C953 C 0.12968 0.39696 0.32063 0.0
H954 H 0.42299 0.50408 0.31822 0.0
H955 H 0.37099 0.53067 0.27712 0.0
H956 H 0.37571 0.46078 0.3295 0.0
H957 H 0.32341 0.48785 0.28844 0.0
H958 H 0.24319 0.39708 0.30402 0.0
H959 H 0.29112 0.4348 0.28985 0.0
H960 H 0.334 0.45192 0.34969 0.0
H961 H 0.28633 0.41382 0.36379 0.0
C962 C 0.40129 0.50028 0.31147 0.0
C963 C 0.40035 0.52057 0.29697 0.0
C964 C 0.37421 0.47573 0.31801 0.0
C965 C 0.34557 0.47093 0.31012 0.0
C966 C 0.34493 0.4906 0.29479 0.0
C967 C 0.37207 0.51513 0.28828 0.0
C968 C 0.26287 0.40875 0.31417 0.0
C969 C 0.26076 0.40236 0.3351 0.0
C970 C 0.29039 0.43054 0.30602 0.0
C971 C 0.31658 0.44655 0.31857 0.0
C972 C 0.31453 0.43981 0.33947 0.0
C973 C 0.28704 0.41803 0.34761 0.0
H974 H 0.52542 0.95704 0.30025 0.0
H975 H 0.46005 0.86372 0.29948 0.0
H976 H 0.56645 0.94565 0.3097 0.0
H977 H 0.50064 0.85198 0.30871 0.0
H978 H 0.56819 0.84622 0.35559 0.0
H979 H 0.53019 0.85848 0.34107 0.0
H980 H 0.59584 0.9216 0.29956 0.0
H981 H 0.63413 0.9096 0.31419 0.0
C982 C 0.52018 0.93414 0.30155 0.0
C983 C 0.48991 0.91117 0.29939 0.0
C984 C 0.54346 0.92756 0.30698 0.0
C985 C 0.53657 0.89792 0.31033 0.0
C986 C 0.50648 0.87502 0.30669 0.0
C987 C 0.48337 0.88163 0.30127 0.0
C988 C 0.57461 0.86277 0.34342 0.0
C989 C 0.60421 0.87692 0.33608 0.0
C990 C 0.55275 0.86961 0.33497 0.0
C991 C 0.55999 0.89079 0.31903 0.0
C992 C 0.58967 0.90526 0.31185 0.0
C993 C 0.61154 0.89831 0.32024 0.0
H994 H 0.07092 0.59377 0.31276 0.0
H995 H 0.16819 0.6296 0.31129 0.0
H996 H 0.07909 0.6399 0.32661 0.0
H997 H 0.17669 0.67587 0.32528 0.0
H998 H 0.17751 0.74502 0.36652 0.0
H999 H 0.16923 0.69709 0.35609 0.0
H1000 H 0.0991 0.6912 0.31269 0.0
H1001 H 0.10708 0.73865 0.32307 0.0
C1002 C 0.09404 0.61161 0.31551 0.0
C1003 C 0.11895 0.60845 0.31089 0.0
C1004 C 0.09876 0.63793 0.32339 0.0
C1005 C 0.12854 0.66157 0.32689 0.0
C1006 C 0.1535 0.65796 0.3229 0.0
C1007 C 0.14871 0.63161 0.31491 0.0
C1008 C 0.16026 0.73342 0.35481 0.0
C1009 C 0.14295 0.74567 0.34565 0.0
C1010 C 0.15563 0.70606 0.34879 0.0
C1011 C 0.13342 0.69035 0.33366 0.0
C1012 C 0.11607 0.70257 0.32461 0.0
C1013 C 0.12082 0.72991 0.33048 0.0
H1014 H 0.84933 0.09167 0.38912 0.0
H1015 H 0.85702 0.0455 0.44327 0.0
H1016 H 0.81012 0.04443 0.37511 0.0
H1017 H 0.8172 0.99831 0.42963 0.0
H1018 H 0.71973 0.92809 0.40767 0.0
H1019 H 0.76045 0.97501 0.42071 0.0
H1020 H 0.80439 0.9958 0.36373 0.0
H1021 H 0.76373 0.94872 0.35064 0.0
C1022 C 0.84279 0.07134 0.39791 0.0
C1023 C 0.8561 0.07218 0.41727 0.0
C1024 C 0.82033 0.04434 0.38995 0.0
C1025 C 0.81044 0.01766 0.40132 0.0
C1026 C 0.82403 0.01853 0.42062 0.0
C1027 C 0.84677 0.04547 0.42843 0.0
C1028 C 0.738 0.94267 0.39787 0.0
C1029 C 0.73841 0.93463 0.37808 0.0
C1030 C 0.76145 0.96946 0.40541 0.0
C1031 C 0.78566 0.98909 0.39326 0.0
C1032 C 0.78594 0.98123 0.37341 0.0
C1033 C 0.76272 0.95419 0.36595 0.0
H1034 H 0.95982 0.81031 0.43844 0.0
H1035 H 0.90777 0.7289 0.40681 0.0
H1036 H 0.00669 0.81842 0.42339 0.0
H1037 H 0.95458 0.73639 0.39199 0.0
H1038 H 0.05608 0.75493 0.38714 0.0
H1039 H 0.00912 0.74281 0.4036 0.0
H1040 H 0.02015 0.82827 0.38443 0.0
H1041 H 0.06693 0.8403 0.36761 0.0
C1042 C 0.95882 0.79368 0.42883 0.0
C1043 C 0.93069 0.76886 0.42387 0.0
C1044 C 0.98533 0.79846 0.42002 0.0
C1045 C 0.98402 0.77818 0.40637 0.0
C1046 C 0.95611 0.7523 0.40249 0.0
C1047 C 0.92952 0.74785 0.41103 0.0
C1048 C 0.0482 0.77094 0.38618 0.0
C1049 C 0.06502 0.79852 0.37606 0.0
C1050 C 0.02143 0.764 0.39562 0.0
C1051 C 0.01139 0.78478 0.39547 0.0
C1052 C 0.02774 0.81206 0.38493 0.0
C1053 C 0.05422 0.81878 0.37512 0.0
H1054 H 0.18089 0.14267 0.43548 0.0
H1055 H 0.25629 0.17219 0.3966 0.0
H1056 H 0.17704 0.18699 0.42586 0.0
H1057 H 0.25307 0.2169 0.38697 0.0
H1058 H 0.20778 0.26685 0.3542 0.0
H1059 H 0.21734 0.22717 0.36674 0.0
H1060 H 0.20184 0.2407 0.42748 0.0
H1061 H 0.19166 0.28014 0.41488 0.0
C1062 C 0.19687 0.15904 0.42507 0.0
C1063 C 0.21848 0.15412 0.41643 0.0
C1064 C 0.19484 0.1844 0.41961 0.0
C1065 C 0.21455 0.20535 0.40546 0.0
C1066 C 0.23715 0.20092 0.39758 0.0
C1067 C 0.23912 0.17553 0.40308 0.0
C1068 C 0.20656 0.26152 0.37025 0.0
C1069 C 0.1988 0.27661 0.38351 0.0
C1070 C 0.21228 0.23888 0.37747 0.0
C1071 C 0.21039 0.23076 0.39812 0.0
C1072 C 0.20315 0.2462 0.41145 0.0
C1073 C 0.19745 0.26889 0.40423 0.0
H1074 H 0.60355 0.53848 0.76357 0.0
H1075 H 0.63398 0.47549 0.75684 0.0
H1076 H 0.6531 0.57886 0.75207 0.0
H1077 H 0.68268 0.51526 0.74457 0.0
H1078 H 0.73918 0.58623 0.69468 0.0
H1079 H 0.69177 0.54921 0.71019 0.0
H1080 H 0.71505 0.60333 0.76226 0.0
H1081 H 0.76299 0.6401 0.74705 0.0
C1082 C 0.62111 0.53344 0.76011 0.0
C1083 C 0.61495 0.50391 0.76093 0.0
C1084 C 0.64929 0.55641 0.75336 0.0
C1085 C 0.67148 0.55006 0.74705 0.0
C1086 C 0.66584 0.52074 0.749 0.0
C1087 C 0.63808 0.49804 0.75609 0.0
C1088 C 0.73415 0.59036 0.70937 0.0
C1089 C 0.75493 0.61611 0.71962 0.0
C1090 C 0.70708 0.5691 0.71829 0.0
C1091 C 0.69979 0.57337 0.73746 0.0
C1092 C 0.72006 0.5995 0.74747 0.0
C1093 C 0.74752 0.62046 0.73876 0.0
H1094 H 0.47273 0.07895 0.74792 0.0
H1095 H 0.53883 0.17204 0.75046 0.0
H1096 H 0.43398 0.091 0.73387 0.0
H1097 H 0.50035 0.18441 0.73633 0.0
H1098 H 0.43269 0.19233 0.69051 0.0
H1099 H 0.47071 0.17931 0.70398 0.0
H1100 H 0.40521 0.11465 0.74491 0.0
H1101 H 0.36701 0.12734 0.73137 0.0
C1102 C 0.47874 0.10198 0.74556 0.0
C1103 C 0.50848 0.12464 0.75021 0.0
C1104 C 0.45672 0.1089 0.73755 0.0
C1105 C 0.46421 0.13864 0.73399 0.0
C1106 C 0.49407 0.1613 0.73867 0.0
C1107 C 0.51601 0.15432 0.74676 0.0
C1108 C 0.42632 0.17523 0.70231 0.0
C1109 C 0.39681 0.16085 0.70985 0.0
C1110 C 0.44817 0.16793 0.7101 0.0
C1111 C 0.4409 0.14603 0.7255 0.0
C1112 C 0.41132 0.13141 0.73289 0.0
C1113 C 0.38951 0.13879 0.72518 0.0
H1114 H 0.92411 0.40713 0.73058 0.0
H1115 H 0.83111 0.37622 0.74552 0.0
H1116 H 0.90957 0.35776 0.71889 0.0
H1117 H 0.8162 0.32667 0.73383 0.0
H1118 H 0.81569 0.23638 0.73692 0.0
H1119 H 0.82764 0.28596 0.74605 0.0
H1120 H 0.87714 0.32267 0.69146 0.0
H1121 H 0.86526 0.27318 0.68226 0.0
C1122 C 0.9005 0.38968 0.73112 0.0
C1123 C 0.87864 0.39515 0.73883 0.0
C1124 C 0.89213 0.36157 0.7244 0.0
C1125 C 0.86176 0.33837 0.72549 0.0
C1126 C 0.8398 0.34407 0.73296 0.0
C1127 C 0.84817 0.37232 0.73948 0.0
C1128 C 0.82903 0.255 0.72682 0.0
C1129 C 0.83961 0.25084 0.70889 0.0
C1130 C 0.83569 0.28334 0.73199 0.0
C1131 C 0.85333 0.30814 0.71946 0.0
C1132 C 0.8637 0.30397 0.70147 0.0
C1133 C 0.85676 0.2756 0.69618 0.0
H1134 H 0.18788 0.951 0.63423 0.0
H1135 H 0.11854 0.97586 0.63606 0.0
H1136 H 0.22648 0.99974 0.64653 0.0
H1137 H 0.15689 0.02481 0.64831 0.0
H1138 H 0.22903 0.09748 0.68956 0.0
H1139 H 0.19037 0.04875 0.67784 0.0
H1140 H 0.25278 0.05172 0.63507 0.0
H1141 H 0.29155 0.10025 0.64689 0.0
C1142 C 0.18105 0.96705 0.63735 0.0
C1143 C 0.15041 0.95985 0.63438 0.0
C1144 C 0.20306 0.99496 0.64426 0.0
C1145 C 0.19485 0.01629 0.64841 0.0
C1146 C 0.16399 0.00885 0.64553 0.0
C1147 C 0.14204 0.98094 0.6385 0.0
C1148 C 0.23455 0.08779 0.67765 0.0
C1149 C 0.26353 0.10288 0.66923 0.0
C1150 C 0.21228 0.05986 0.67085 0.0
C1151 C 0.21843 0.04621 0.65553 0.0
C1152 C 0.24737 0.06135 0.64708 0.0
C1153 C 0.26958 0.08932 0.6538 0.0
H1154 H 0.04518 0.21493 0.62841 0.0
H1155 H 0.07928 0.28553 0.6704 0.0
H1156 H 0.99381 0.19432 0.64086 0.0
H1157 H 0.0276 0.26563 0.68276 0.0
H1158 H 0.93388 0.20566 0.71049 0.0
H1159 H 0.98636 0.22378 0.70086 0.0
H1160 H 0.9553 0.20871 0.63825 0.0
H1161 H 0.90327 0.19009 0.64777 0.0
C1162 C 0.04138 0.22597 0.64031 0.0
C1163 C 0.06562 0.2518 0.64839 0.0
C1164 C 0.01213 0.21435 0.64741 0.0
C1165 C 0.00658 0.22857 0.66263 0.0
C1166 C 0.0312 0.25408 0.67112 0.0
C1167 C 0.06059 0.26558 0.66405 0.0
C1168 C 0.93832 0.20613 0.6947 0.0
C1169 C 0.91437 0.19627 0.67994 0.0
C1170 C 0.96836 0.21664 0.68918 0.0
C1171 C 0.97493 0.21747 0.66881 0.0
C1172 C 0.95095 0.20778 0.65411 0.0
C1173 C 0.92107 0.19723 0.6596 0.0
H1174 H 0.74671 0.83392 0.65723 0.0
H1175 H 0.81173 0.85855 0.61097 0.0
H1176 H 0.75432 0.79213 0.66806 0.0
H1177 H 0.8201 0.81716 0.62185 0.0
H1178 H 0.81503 0.72876 0.63947 0.0
H1179 H 0.79964 0.76401 0.62547 0.0
H1180 H 0.7954 0.78826 0.68581 0.0
H1181 H 0.8101 0.75264 0.69982 0.0
C1182 C 0.76225 0.82991 0.64921 0.0
C1183 C 0.77874 0.84924 0.63338 0.0
C1184 C 0.76688 0.80626 0.65547 0.0
C1185 C 0.78823 0.80157 0.64606 0.0
C1186 C 0.80336 0.81999 0.62937 0.0
C1187 C 0.79859 0.84361 0.62308 0.0
C1188 C 0.81069 0.74152 0.64977 0.0
C1189 C 0.81386 0.73786 0.67081 0.0
C1190 C 0.80196 0.76182 0.64172 0.0
C1191 C 0.79617 0.77893 0.65448 0.0
C1192 C 0.79913 0.77508 0.67551 0.0
C1193 C 0.80782 0.75479 0.68357 0.0
H1194 H 0.08615 0.84921 0.65702 0.0
H1195 H 0.03592 0.85576 0.60392 0.0
H1196 H 0.0396 0.80654 0.66955 0.0
H1197 H 0.9892 0.81231 0.6161 0.0
H1198 H 0.91681 0.71818 0.64158 0.0
H1199 H 0.96448 0.7559 0.62651 0.0
H1200 H 0.99122 0.80419 0.68167 0.0
H1201 H 0.94366 0.76699 0.69658 0.0
C1202 C 0.06514 0.84118 0.64792 0.0
C1203 C 0.06444 0.85604 0.62971 0.0
C1204 C 0.03852 0.8168 0.65507 0.0
C1205 C 0.01061 0.80633 0.64397 0.0
C1206 C 0.01035 0.81985 0.625 0.0
C1207 C 0.03704 0.84459 0.61797 0.0
C1208 C 0.93297 0.73677 0.65052 0.0
C1209 C 0.92645 0.73952 0.67032 0.0
C1210 C 0.96017 0.75843 0.64183 0.0
C1211 C 0.9817 0.78293 0.65293 0.0
C1212 C 0.97527 0.78541 0.6728 0.0
C1213 C 0.94792 0.76415 0.68131 0.0
H1214 H 0.18926 0.30021 0.66187 0.0
H1215 H 0.15287 0.23482 0.61595 0.0
H1216 H 0.22907 0.28725 0.67114 0.0
H1217 H 0.19207 0.22126 0.62519 0.0
H1218 H 0.26221 0.22498 0.70027 0.0
H1219 H 0.22913 0.2448 0.68818 0.0
H1220 H 0.24558 0.23617 0.62653 0.0
H1221 H 0.27798 0.21565 0.63857 0.0
C1222 C 0.19032 0.28346 0.65356 0.0
C1223 C 0.16837 0.26852 0.63821 0.0
C1224 C 0.21278 0.27581 0.65893 0.0
C1225 C 0.21351 0.25296 0.64907 0.0
C1226 C 0.19239 0.23916 0.63295 0.0
C1227 C 0.17002 0.24691 0.62758 0.0
C1228 C 0.25879 0.22733 0.68414 0.0
C1229 C 0.27256 0.21852 0.67041 0.0
C1230 C 0.24006 0.23896 0.6772 0.0
C1231 C 0.2348 0.24217 0.65637 0.0
C1232 C 0.24888 0.23368 0.64266 0.0
C1233 C 0.2675 0.22195 0.64959 0.0
H1234 H 0.82396 0.97704 0.62008 0.0
H1235 H 0.76404 0.92855 0.66852 0.0
H1236 H 0.83274 0.02377 0.63329 0.0
H1237 H 0.77346 0.97538 0.6822 0.0
H1238 H 0.82385 0.07151 0.70785 0.0
H1239 H 0.8185 0.02486 0.69681 0.0
H1240 H 0.79593 0.04426 0.6361 0.0
H1241 H 0.80092 0.09043 0.64701 0.0
C1242 C 0.81286 0.97653 0.63363 0.0
C1243 C 0.79313 0.94938 0.64321 0.0
C1244 C 0.8179 1.00314 0.64121 0.0
C1245 C 0.80363 1.00309 0.65869 0.0
C1246 C 0.78488 0.97599 0.66878 0.0
C1247 C 0.77952 0.9493 0.66101 0.0
C1248 C 0.81776 0.06576 0.69216 0.0
C1249 C 0.8127 0.08456 0.67831 0.0
C1250 C 0.8146 0.03908 0.68589 0.0
C1251 C 0.80696 0.03113 0.66561 0.0
C1252 C 0.80213 0.05003 0.65179 0.0
C1253 C 0.80477 0.07635 0.65808 0.0
H1254 H 0.52902 0.38274 0.77155 0.0
H1255 H 0.50268 0.42851 0.72561 0.0
H1256 H 0.48987 0.33491 0.75837 0.0
H1257 H 0.4628 0.38089 0.71249 0.0
H1258 H 0.41387 0.29102 0.6825 0.0
H1259 H 0.45426 0.33835 0.69497 0.0
H1260 H 0.43587 0.30334 0.75626 0.0
H1261 H 0.39611 0.25577 0.74378 0.0
C1262 C 0.51471 0.38234 0.75857 0.0
C1263 C 0.51879 0.40898 0.7494 0.0
C1264 C 0.49216 0.35508 0.75109 0.0
C1265 C 0.47301 0.35392 0.73435 0.0
C1266 C 0.47735 0.38083 0.72518 0.0
C1267 C 0.50003 0.40808 0.73266 0.0
C1268 C 0.41843 0.29339 0.69865 0.0
C1269 C 0.40169 0.2695 0.71211 0.0
C1270 C 0.44154 0.32065 0.70582 0.0
C1271 C 0.44845 0.3248 0.72666 0.0
C1272 C 0.43161 0.30089 0.74011 0.0
C1273 C 0.4086 0.2736 0.73294 0.0
H1274 H 0.62723 0.16549 0.76011 0.0
H1275 H 0.58473 0.07089 0.75489 0.0
H1276 H 0.67329 0.17192 0.74516 0.0
H1277 H 0.63069 0.07694 0.73984 0.0
H1278 H 0.73063 0.10198 0.72903 0.0
H1279 H 0.68553 0.09351 0.74596 0.0
H1280 H 0.68483 0.16569 0.71065 0.0
H1281 H 0.73041 0.17456 0.69383 0.0
C1282 C 0.62822 0.14608 0.75616 0.0
C1283 C 0.60276 0.11774 0.75859 0.0
C1284 C 0.65427 0.1497 0.74738 0.0
C1285 C 0.65534 0.12497 0.74093 0.0
C1286 C 0.63054 0.09641 0.74464 0.0
C1287 C 0.6044 0.09285 0.7534 0.0
C1288 C 0.72071 0.11589 0.72468 0.0
C1289 C 0.73419 0.13905 0.7101 0.0
C1290 C 0.69481 0.11096 0.7344 0.0
C1291 C 0.68187 0.12915 0.72984 0.0
C1292 C 0.69467 0.15165 0.71475 0.0
C1293 C 0.72053 0.1565 0.70492 0.0
H1294 H 0.83701 0.4657 0.75481 0.0
H1295 H 0.9337 0.52343 0.74906 0.0
H1296 H 0.8283 0.50765 0.74741 0.0
H1297 H 0.92531 0.56572 0.74151 0.0
H1298 H 0.89794 0.63859 0.74005 0.0
H1299 H 0.90715 0.59872 0.75374 0.0
H1300 H 0.83219 0.53626 0.71606 0.0
H1301 H 0.82283 0.57551 0.70265 0.0
C1302 C 0.85637 0.48754 0.7521 0.0
C1303 C 0.88591 0.49147 0.75215 0.0
C1304 C 0.85148 0.51151 0.74785 0.0
C1305 C 0.87609 0.53994 0.74356 0.0
C1306 C 0.9059 0.54415 0.74483 0.0
C1307 C 0.91075 0.52006 0.7491 0.0
C1308 C 0.88338 0.6163 0.73479 0.0
C1309 C 0.85972 0.61031 0.7202 0.0
C1310 C 0.88871 0.59351 0.74258 0.0
C1311 C 0.87026 0.56429 0.73609 0.0
C1312 C 0.84649 0.55839 0.72167 0.0
C1313 C 0.84131 0.58105 0.71383 0.0
H1314 H 0.48589 0.98922 0.27053 0.0
H1315 H 0.46838 0.90255 0.25555 0.0
H1316 H 0.50632 0.00876 0.23717 0.0
H1317 H 0.4891 0.92186 0.22207 0.0
H1318 H 0.47995 0.95921 0.15769 0.0
H1319 H 0.46936 0.93939 0.19217 0.0
H1320 H 0.54756 0.01926 0.21417 0.0
H1321 H 0.55857 0.03903 0.17957 0.0
C1322 C 0.48718 0.97463 0.26013 0.0
C1323 C 0.47571 0.94456 0.26537 0.0
C1324 C 0.49891 0.98572 0.24112 0.0
C1325 C 0.49915 0.96679 0.22695 0.0
C1326 C 0.48892 0.93689 0.23262 0.0
C1327 C 0.47739 0.92589 0.25174 0.0
C1328 C 0.49529 0.97236 0.1698 0.0
C1329 C 0.52004 1.00081 0.16582 0.0
C1330 C 0.48921 0.96095 0.18959 0.0
C1331 C 0.50763 0.97776 0.20589 0.0
C1332 C 0.53278 1.00592 0.20192 0.0
C1333 C 0.53897 0.01728 0.18211 0.0
H1334 H 0.03792 0.51017 0.27206 0.0
H1335 H 0.12659 0.54432 0.24782 0.0
H1336 H 0.01374 0.49313 0.23871 0.0
H1337 H 0.10289 0.52829 0.21413 0.0
H1338 H 0.04866 0.48678 0.15581 0.0
H1339 H 0.07008 0.49011 0.19031 0.0
H1340 H 0.01135 0.5216 0.20955 0.0
H1341 H 0.99013 0.5183 0.17536 0.0
C1342 C 0.05206 0.51305 0.25959 0.0
C1343 C 0.08392 0.52827 0.2623 0.0
C1344 C 0.03838 0.50377 0.24047 0.0
C1345 C 0.05639 0.50993 0.22361 0.0
C1346 C 0.08829 0.52306 0.22674 0.0
C1347 C 0.10193 0.53213 0.24598 0.0
C1348 C 0.04035 0.4944 0.16744 0.0
C1349 C 0.01757 0.50218 0.1628 0.0
C1350 C 0.05258 0.49623 0.18722 0.0
C1351 C 0.04226 0.50584 0.20279 0.0
C1352 C 0.01932 0.51336 0.19811 0.0
C1353 C 0.00716 0.51154 0.17842 0.0
H1354 H 0.41412 0.55707 0.23843 0.0
H1355 H 0.45763 0.51553 0.27391 0.0
H1356 H 0.41914 0.53604 0.20779 0.0
H1357 H 0.4623 0.49374 0.2435 0.0
H1358 H 0.51167 0.50806 0.18405 0.0
H1359 H 0.49572 0.51676 0.21546 0.0
H1360 H 0.40723 0.49342 0.1877 0.0
H1361 H 0.42314 0.48439 0.15612 0.0
C1362 C 0.42365 0.54239 0.23966 0.0
C1363 C 0.43549 0.53777 0.25834 0.0
C1364 C 0.42665 0.5304 0.22217 0.0
C1365 C 0.44163 0.51359 0.2231 0.0
C1366 C 0.4512 0.50705 0.24217 0.0
C1367 C 0.44816 0.51908 0.25961 0.0
C1368 C 0.48858 0.50416 0.18467 0.0
C1369 C 0.46875 0.4955 0.16744 0.0
C1370 C 0.47938 0.50913 0.20277 0.0
C1371 C 0.45009 0.50566 0.20421 0.0
C1372 C 0.43003 0.49656 0.1871 0.0
C1373 C 0.43922 0.49148 0.16896 0.0
H1374 H 0.96994 0.48775 0.77554 0.0
H1375 H 0.88585 0.47735 0.79598 0.0
H1376 H 0.99583 0.50947 0.8077 0.0
H1377 H 0.91151 0.49919 0.82819 0.0
H1378 H 0.97387 0.55469 0.8807 0.0
H1379 H 0.95304 0.54408 0.84591 0.0
H1380 H 0.98931 0.48487 0.84185 0.0
H1381 H 0.01032 0.4957 0.87637 0.0
C1382 C 0.95729 0.49079 0.78684 0.0
C1383 C 0.92602 0.48079 0.78354 0.0
C1384 C 0.97195 0.50302 0.80521 0.0
C1385 C 0.95556 0.50561 0.82056 0.0
C1386 C 0.92475 0.4976 0.81662 0.0
C1387 C 0.91008 0.4852 0.79824 0.0
C1388 C 0.97763 0.53967 0.87224 0.0
C1389 C 0.9936 0.52591 0.88123 0.0
C1390 C 0.9656 0.5335 0.85242 0.0
C1391 C 0.96969 0.51378 0.84114 0.0
C1392 C 0.98615 0.50049 0.85005 0.0
C1393 C -0.00213 0.50641 0.86989 0.0
H1394 H 0.59359 0.46507 0.81337 0.0
H1395 H 0.55259 0.5149 0.78665 0.0
H1396 H 0.58772 0.47779 0.84711 0.0
H1397 H 0.54563 0.52714 0.82014 0.0
H1398 H 0.54172 0.55091 0.88373 0.0
H1399 H 0.56296 0.54982 0.852 0.0
H1400 H 0.5443 0.46049 0.86706 0.0
H1401 H 0.52352 0.4618 0.89877 0.0
C1402 C 0.58462 0.47994 0.81479 0.0
C1403 C 0.57413 0.48957 0.7975 0.0
C1404 C 0.58057 0.4867 0.83408 0.0
C1405 C 0.56557 0.50302 0.8365 0.0
C1406 C 0.55747 0.51475 0.81903 0.0
C1407 C 0.56169 0.50804 0.79977 0.0
C1408 C 0.5422 0.53104 0.88027 0.0
C1409 C 0.5307 0.50637 0.89383 0.0
C1410 C 0.55445 0.53043 0.86205 0.0
C1411 C 0.55547 0.50508 0.85681 0.0
C1412 C 0.54458 0.48068 0.87063 0.0
C1413 C 0.53247 0.48135 0.88887 0.0
H1414 H 0.53348 0.03958 0.78144 0.0
H1415 H 0.58941 0.12256 0.81045 0.0
H1416 H 0.53014 0.01265 0.81355 0.0
H1417 H 0.58541 0.09622 0.84288 0.0
H1418 H 0.57666 0.04083 0.8995 0.0
H1419 H 0.59292 0.06267 0.86583 0.0
H1420 H 0.50098 1.00728 0.84186 0.0
H1421 H 0.48499 0.98539 0.87528 0.0
C1422 C 0.54604 0.05187 0.79466 0.0
C1423 C 0.56192 0.08292 0.79366 0.0
C1424 C 0.54376 0.03662 0.81309 0.0
C1425 C 0.5569 0.05226 0.83094 0.0
C1426 C 0.57513 0.08338 0.82949 0.0
C1427 C 0.57762 0.09855 0.81095 0.0
C1428 C 0.56001 0.03325 0.88698 0.0
C1429 C 0.52948 0.01145 0.89009 0.0
C1430 C 0.56934 0.04572 0.86768 0.0
C1431 C 0.54834 0.03674 0.85106 0.0
C1432 C 0.51802 0.01433 0.85415 0.0
C1433 C 0.50875 1.00181 0.87338 0.0
H1434 H 0.18424 0.32569 0.60979 0.0
H1435 H 0.11073 0.24672 0.58361 0.0
H1436 H 0.20542 0.34383 0.57627 0.0
H1437 H 0.13118 0.26462 0.55012 0.0
H1438 H 0.18406 0.29704 0.49333 0.0
H1439 H 0.17353 0.27776 0.52805 0.0
H1440 H 0.18724 0.36208 0.54626 0.0
H1441 H 0.1975 0.38128 0.5116 0.0
C1442 C 0.17308 0.31207 0.59683 0.0
C1443 C 0.14584 0.28513 0.59899 0.0
C1444 C 0.18492 0.32244 0.5777 0.0
C1445 C 0.16977 0.3058 0.56052 0.0
C1446 C 0.14351 0.2779 0.56302 0.0
C1447 C 0.13166 0.26771 0.5821 0.0
C1448 C 0.18482 0.31146 0.50475 0.0
C1449 C 0.19135 0.34063 0.49964 0.0
C1450 C 0.17892 0.30045 0.52464 0.0
C1451 C 0.17952 0.31837 0.5399 0.0
C1452 C 0.18708 0.34784 0.53493 0.0
C1453 C 0.1929 0.35884 0.51503 0.0
H1454 H 0.80052 0.90163 0.57705 0.0
H1455 H 0.71839 0.83733 0.60576 0.0
H1456 H 0.77638 0.88353 0.54391 0.0
H1457 H 0.69381 0.81861 0.57259 0.0
H1458 H 0.6516 0.83627 0.51211 0.0
H1459 H 0.67611 0.84173 0.54557 0.0
H1460 H 0.75337 0.84334 0.5199 0.0
H1461 H 0.7287 0.83758 0.48633 0.0
C1462 C 0.7776 0.8828 0.57616 0.0
C1463 C 0.7612 0.87071 0.59373 0.0
C1464 C 0.76371 0.87243 0.55725 0.0
C1465 C 0.73301 0.84984 0.55558 0.0
C1466 C 0.71735 0.83631 0.57337 0.0
C1467 C 0.73142 0.84665 0.59232 0.0
C1468 C 0.67354 0.8372 0.51359 0.0
C1469 C 0.68824 0.83671 0.49645 0.0
C1470 C 0.68758 0.84024 0.53283 0.0
C1471 C 0.71671 0.84294 0.53544 0.0
C1472 C 0.73106 0.84163 0.51838 0.0
C1473 C 0.71698 0.83849 0.49913 0.0
H1474 H 0.08034 0.89529 0.57008 0.0
H1475 H 0.11768 0.84857 0.6062 0.0
H1476 H 0.08397 0.87316 0.5396 0.0
H1477 H 0.12096 0.82563 0.57586 0.0
H1478 H 0.1682 0.83404 0.51621 0.0
H1479 H 0.15436 0.8451 0.54765 0.0
H1480 H 0.06838 0.82999 0.51971 0.0
H1481 H 0.08223 0.81878 0.48813 0.0
C1482 C 0.08829 0.87935 0.57146 0.0
C1483 C 0.09861 0.87342 0.59032 0.0
C1484 C 0.09045 0.86667 0.55406 0.0
C1485 C 0.10315 0.84785 0.55517 0.0
C1486 C 0.11155 0.8404 0.57437 0.0
C1487 C 0.10928 0.8531 0.59177 0.0
C1488 C 0.14608 0.8325 0.51681 0.0
C1489 C 0.12641 0.82555 0.49951 0.0
C1490 C 0.13808 0.83881 0.53493 0.0
C1491 C 0.11017 0.83839 0.53632 0.0
C1492 C 0.0902 0.83086 0.51915 0.0
C1493 C 0.0982 0.82451 0.501 0.0
H1494 H 0.61322 0.83145 0.11101 0.0
H1495 H 0.52759 0.77274 0.13813 0.0
H1496 H 0.636 0.85199 0.14403 0.0
H1497 H 0.54948 0.79375 0.17113 0.0
H1498 H 0.6097 0.80239 0.22757 0.0
H1499 H 0.58426 0.78893 0.19449 0.0
H1500 H 0.63928 0.87949 0.17266 0.0
H1501 H 0.66529 0.89279 0.20592 0.0
C1502 C 0.59913 0.82373 0.12405 0.0
C1503 C 0.56889 0.80057 0.1223 0.0
C1504 C 0.61204 0.83541 0.14295 0.0
C1505 C 0.59474 0.82418 0.16037 0.0
C1506 C 0.56373 0.8024 0.15817 0.0
C1507 C 0.55103 0.79057 0.13934 0.0
C1508 C 0.61609 0.81953 0.2158 0.0
C1509 C 0.63945 0.84866 0.21938 0.0
C1510 C 0.6014 0.81186 0.1968 0.0
C1511 C 0.60949 0.83316 0.18085 0.0
C1512 C 0.63266 0.86244 0.1845 0.0
C1513 C 0.64755 0.87008 0.20355 0.0
H1514 H 0.26826 0.81349 0.14461 0.0
H1515 H 0.21047 0.84579 0.11719 0.0
H1516 H 0.26142 0.82691 0.17794 0.0
H1517 H 0.20285 0.85879 0.15022 0.0
H1518 H 0.19976 0.8874 0.21234 0.0
H1519 H 0.22064 0.8867 0.18038 0.0
H1520 H 0.21861 0.80492 0.19966 0.0
H1521 H 0.19787 0.80569 0.23157 0.0
C1522 C 0.25521 0.82471 0.14569 0.0
C1523 C 0.24019 0.829 0.12841 0.0
C1524 C 0.25071 0.83185 0.16477 0.0
C1525 C 0.23108 0.84346 0.16692 0.0
C1526 C 0.21828 0.85011 0.14929 0.0
C1527 C 0.22277 0.84291 0.13029 0.0
C1528 C 0.20374 0.86924 0.20977 0.0
C1529 C 0.19683 0.84647 0.22457 0.0
C1530 C 0.21584 0.86889 0.19142 0.0
C1531 C 0.22139 0.84575 0.18731 0.0
C1532 C 0.21525 0.82343 0.20234 0.0
C1533 C 0.20319 0.8238 0.2207 0.0
H1534 H 0.20216 0.36653 0.11609 0.0
H1535 H 0.25129 0.45439 0.13934 0.0
H1536 H 0.19937 0.34525 0.15035 0.0
H1537 H 0.24959 0.43365 0.17359 0.0
H1538 H 0.20525 0.31626 0.21611 0.0
H1539 H 0.22257 0.33796 0.1825 0.0
H1540 H 0.2049 0.4089 0.19397 0.0
H1541 H 0.1875 0.3873 0.2272 0.0
C1542 C 0.21378 0.38119 0.12851 0.0
C1543 C 0.2272 0.41194 0.12529 0.0
C1544 C 0.21207 0.36912 0.14812 0.0
C1545 C 0.22374 0.38777 0.16475 0.0
C1546 C 0.23985 0.41868 0.16115 0.0
C1547 C 0.24133 0.43061 0.14159 0.0
C1548 C 0.20504 0.33647 0.21141 0.0
C1549 C 0.19502 0.35006 0.2244 0.0
C1550 C 0.21511 0.34896 0.1922 0.0
C1551 C 0.21549 0.37536 0.18563 0.0
C1552 C 0.20572 0.389 0.19872 0.0
C1553 C 0.19562 0.37653 0.2178 0.0
H1554 H 0.81212 0.58893 0.92391 0.0
H1555 H 0.83203 0.6749 0.94241 0.0
H1556 H 0.83242 0.60995 0.89078 0.0
H1557 H 0.85324 0.69656 0.90952 0.0
H1558 H 0.84021 0.71123 0.84149 0.0
H1559 H 0.83069 0.69418 0.8765 0.0
H1560 H 0.87487 0.64217 0.87036 0.0
H1561 H 0.88402 0.65906 0.83504 0.0
C1562 C 0.82186 0.61257 0.92099 0.0
C1563 C 0.82064 0.63043 0.93549 0.0
C1564 C 0.83347 0.62467 0.90206 0.0
C1565 C 0.84414 0.65493 0.89735 0.0
C1566 C 0.84461 0.67307 0.91246 0.0
C1567 C 0.8328 0.66087 0.93132 0.0
C1568 C 0.84835 0.69654 0.84769 0.0
C1569 C 0.86288 0.68651 0.83548 0.0
C1570 C 0.84299 0.68681 0.86782 0.0
C1571 C 0.85214 0.66688 0.87634 0.0
C1572 C 0.86721 0.65726 0.86423 0.0
C1573 C 0.87246 0.66692 0.84401 0.0
H1574 H 0.37939 0.17514 0.93814 0.0
H1575 H 0.46641 0.22188 0.91054 0.0
H1576 H 0.35403 0.15649 0.90527 0.0
H1577 H 0.44143 0.20415 0.87739 0.0
H1578 H 0.38729 0.15781 0.82044 0.0
H1579 H 0.41156 0.16385 0.85423 0.0
H1580 H 0.3443 0.18199 0.87674 0.0
H1581 H 0.32027 0.17609 0.84319 0.0
C1582 C 0.39307 0.18048 0.92502 0.0
C1583 C 0.42468 0.19948 0.92668 0.0
C1584 C 0.37865 0.17027 0.90618 0.0
C1585 C 0.39562 0.17922 0.8886 0.0
C1586 C 0.42766 0.19661 0.89058 0.0
C1587 C 0.44204 0.20669 0.9095 0.0
C1588 C 0.3777 0.16307 0.83263 0.0
C1589 C 0.35178 0.16644 0.82906 0.0
C1590 C 0.39157 0.16646 0.852 0.0
C1591 C 0.3798 0.17321 0.86826 0.0
C1592 C 0.35361 0.1761 0.86471 0.0
C1593 C 0.33981 0.17277 0.8454 0.0
H1594 H 0.79511 0.18383 0.94085 0.0
H1595 H 0.75266 0.22897 0.9087 0.0
H1596 H 0.79713 0.16266 0.90939 0.0
H1597 H 0.75536 0.20885 0.87693 0.0
H1598 H 0.75392 0.15769 0.82294 0.0
H1599 H 0.74084 0.16739 0.8554 0.0
H1600 H 0.82874 0.18445 0.88097 0.0
H1601 H 0.84169 0.17479 0.84875 0.0
C1602 C 0.78518 0.18824 0.92707 0.0
C1603 C 0.77312 0.20737 0.92711 0.0
C1604 C 0.78681 0.17665 0.90899 0.0
C1605 C 0.77683 0.18438 0.8905 0.0
C1606 C 0.763 0.20214 0.89083 0.0
C1607 C 0.76128 0.21358 0.90898 0.0
C1608 C 0.77044 0.16353 0.8355 0.0
C1609 C 0.79886 0.16536 0.83318 0.0
C1610 C 0.76291 0.16903 0.85414 0.0
C1611 C 0.7836 0.17649 0.87092 0.0
C1612 C 0.81187 0.17805 0.86859 0.0
C1613 C 0.81937 0.17256 0.85002 0.0
H1614 H 0.19621 0.11082 0.47355 0.0
H1615 H 0.28013 0.16323 0.44293 0.0
H1616 H 0.22158 0.13444 0.50534 0.0
H1617 H 0.3058 0.18772 0.4745 0.0
H1618 H 0.34662 0.18241 0.53827 0.0
H1619 H 0.3215 0.16955 0.50498 0.0
H1620 H 0.24727 0.17933 0.52489 0.0
H1621 H 0.27253 0.1923 0.55832 0.0
C1622 C 0.21996 0.12805 0.47368 0.0
C1623 C 0.23652 0.13516 0.45614 0.0
C1624 C 0.23449 0.14166 0.49176 0.0
C1625 C 0.26586 0.16269 0.49251 0.0
C1626 C 0.28178 0.17122 0.4745 0.0
C1627 C 0.26717 0.15754 0.45645 0.0
C1628 C 0.32523 0.18238 0.53547 0.0
C1629 C 0.31152 0.18824 0.55099 0.0
C1630 C 0.31084 0.17507 0.51634 0.0
C1631 C 0.28237 0.17344 0.51225 0.0
C1632 C 0.26901 0.18006 0.52762 0.0
C1633 C 0.28344 0.1874 0.54678 0.0
H1634 H 0.9235 0.13009 0.48321 0.0
H1635 H 0.89024 0.1823 0.44971 0.0
H1636 H 0.91454 0.14552 0.51494 0.0
H1637 H 0.88145 0.19842 0.4814 0.0
H1638 H 0.82182 0.17431 0.53737 0.0
H1639 H 0.84278 0.1717 0.5061 0.0
H1640 H 0.92417 0.18275 0.53903 0.0
H1641 H 0.90324 0.1856 0.57044 0.0
C1642 C 0.91575 0.14617 0.48275 0.0
C1643 C 0.90803 0.15544 0.46412 0.0
C1644 C 0.91032 0.15486 0.50091 0.0
C1645 C 0.89675 0.17288 0.50082 0.0
C1646 C 0.89142 0.18412 0.48208 0.0
C1647 C 0.89701 0.17546 0.46392 0.0
C1648 C 0.84442 0.17671 0.53799 0.0
C1649 C 0.8607 0.18009 0.55659 0.0
C1650 C 0.85654 0.17531 0.51996 0.0
C1651 C 0.88532 0.17717 0.51991 0.0
C1652 C 0.90183 0.18096 0.53846 0.0
C1653 C 0.88972 0.18245 0.55652 0.0
H1654 H 0.88775 0.71212 0.452 0.0
H1655 H 0.91368 0.79317 0.48164 0.0
H1656 H 0.88653 0.68734 0.48483 0.0
H1657 H 0.91226 0.76878 0.5145 0.0
H1658 H 0.91276 0.71899 0.5719 0.0
H1659 H 0.93039 0.7424 0.53879 0.0
H1660 H 0.84806 0.67318 0.51065 0.0
H1661 H 0.83022 0.65011 0.54358 0.0
C1662 C 0.89438 0.72484 0.46557 0.0
C1663 C 0.9007 0.75434 0.46453 0.0
C1664 C 0.89333 0.71068 0.48433 0.0
C1665 C 0.89879 0.72597 0.50229 0.0
C1666 C 0.90807 0.75638 0.501 0.0
C1667 C 0.90892 0.7704 0.48225 0.0
C1668 C 0.89847 0.7087 0.55864 0.0
C1669 C 0.86988 0.68281 0.56046 0.0
C1670 C 0.90868 0.72204 0.53967 0.0
C1671 C 0.89066 0.70966 0.52209 0.0
C1672 C 0.86279 0.68302 0.52385 0.0
C1673 C 0.8525 0.66979 0.54279 0.0
loop_
_geom_bond_atom_site_label_1
_geom_bond_atom_site_label_2
_geom_bond_distance
_geom_bond_site_symmetry_2
_ccdc_geom_bond_type
C0 N1 1.317 . S
C0 N2 1.348 . S
C0 C3 1.485 . S
N1 C0 1.317 . S
N1 N5 1.370 . S
N2 C0 1.348 . S
N2 C4 1.346 . S
C3 C0 1.485 . S
C3 H7 0.960 . S
C3 H8 0.961 . S
C3 H9 0.960 . S
C4 N2 1.346 . S
C4 N5 1.307 . S
C4 C6 1.486 . S
N5 N1 1.370 . S
N5 C4 1.307 . S
C6 C4 1.486 . S
C6 H10 0.960 . S
C6 H11 0.960 . S
C6 H12 0.959 . S
H7 C3 0.960 . S
H8 C3 0.961 . S
H9 C3 0.960 . S
H10 C6 0.960 . S
H11 C6 0.960 . S
H12 C6 0.959 . S
C13 N14 1.317 . S
C13 N15 1.348 . S
C13 C16 1.485 . S
N14 C13 1.317 . S
N14 N18 1.370 . S
N15 C13 1.348 . S
N15 C17 1.346 . S
C16 C13 1.485 . S
C16 H20 0.960 . S
C16 H21 0.961 . S
C16 H22 0.960 . S
C17 N15 1.346 . S
C17 N18 1.307 . S
C17 C19 1.486 . S
N18 N14 1.370 . S
N18 C17 1.307 . S
C19 C17 1.486 . S
C19 H23 0.960 . S
C19 H24 0.960 . S
C19 H25 0.959 . S
H20 C16 0.960 . S
H21 C16 0.961 . S
H22 C16 0.960 . S
H23 C19 0.960 . S
H24 C19 0.960 . S
H25 C19 0.959 . S
C26 N27 1.317 . S
C26 N28 1.348 . S
C26 C29 1.485 . S
N27 C26 1.317 . S
N27 N31 1.370 . S
N28 C26 1.348 . S
N28 C30 1.346 . S
C29 C26 1.485 . S
C29 H33 0.960 . S
C29 H34 0.961 . S
C29 H35 0.960 . S
C30 N28 1.346 . S
C30 N31 1.307 . S
C30 C32 1.486 . S
N31 N27 1.370 . S
N31 C30 1.307 . S
C32 C30 1.486 . S
C32 H36 0.960 . S
C32 H37 0.960 . S
C32 H38 0.959 . S
H33 C29 0.960 . S
H34 C29 0.961 . S
H35 C29 0.960 . S
H36 C32 0.960 . S
H37 C32 0.960 . S
H38 C32 0.959 . S
C39 N40 1.317 . S
C39 N41 1.348 . S
C39 C42 1.485 . S
N40 C39 1.317 . S
N40 N44 1.370 . S
N41 C39 1.348 . S
N41 C43 1.346 . S
C42 C39 1.485 . S
C42 H46 0.960 . S
C42 H47 0.961 . S
C42 H48 0.960 . S
C43 N41 1.346 . S
C43 N44 1.307 . S
C43 C45 1.486 . S
N44 N40 1.370 . S
N44 C43 1.307 . S
C45 C43 1.486 . S
C45 H49 0.960 . S
C45 H50 0.960 . S
C45 H51 0.959 . S
H46 C42 0.960 . S
H47 C42 0.961 . S
H48 C42 0.960 . S
H49 C45 0.960 . S
H50 C45 0.960 . S
H51 C45 0.959 . S
C52 N53 1.317 . S
C52 N54 1.348 . S
C52 C55 1.485 . S
N53 C52 1.317 . S
N53 N57 1.370 . S
N54 C52 1.348 . S
N54 C56 1.346 . S
C55 C52 1.485 . S
C55 H59 0.960 . S
C55 H60 0.961 . S
C55 H61 0.960 . S
C56 N54 1.346 . S
C56 N57 1.307 . S
C56 C58 1.486 . S
N57 N53 1.370 . S
N57 C56 1.307 . S
C58 C56 1.486 . S
C58 H62 0.960 . S
C58 H63 0.960 . S
C58 H64 0.959 . S
H59 C55 0.960 . S
H60 C55 0.961 . S
H61 C55 0.960 . S
H62 C58 0.960 . S
H63 C58 0.960 . S
H64 C58 0.959 . S
C65 N66 1.317 . S
C65 N67 1.348 . S
C65 C68 1.485 . S
N66 C65 1.317 . S
N66 N70 1.370 . S
N67 C65 1.348 . S
N67 C69 1.346 . S
C68 C65 1.485 . S
C68 H72 0.960 . S
C68 H73 0.961 . S
C68 H74 0.960 . S
C69 N67 1.346 . S
C69 N70 1.307 . S
C69 C71 1.486 . S
N70 N66 1.370 . S
N70 C69 1.307 . S
C71 C69 1.486 . S
C71 H75 0.960 . S
C71 H76 0.960 . S
C71 H77 0.959 . S
H72 C68 0.960 . S
H73 C68 0.961 . S
H74 C68 0.960 . S
H75 C71 0.960 . S
H76 C71 0.960 . S
H77 C71 0.959 . S
C78 N79 1.317 . S
C78 N80 1.348 . S
C78 C81 1.485 . S
N79 C78 1.317 . S
N79 N83 1.370 . S
N80 C78 1.348 . S
N80 C82 1.346 . S
C81 C78 1.485 . S
C81 H85 0.960 . S
C81 H86 0.961 . S
C81 H87 0.960 . S
C82 N80 1.346 . S
C82 N83 1.307 . S
C82 C84 1.486 . S
N83 N79 1.370 . S
N83 C82 1.307 . S
C84 C82 1.486 . S
C84 H88 0.960 . S
C84 H89 0.960 . S
C84 H90 0.959 . S
H85 C81 0.960 . S
H86 C81 0.961 . S
H87 C81 0.960 . S
H88 C84 0.960 . S
H89 C84 0.960 . S
H90 C84 0.959 . S
C91 N92 1.317 . S
C91 N93 1.348 . S
C91 C94 1.485 . S
N92 C91 1.317 . S
N92 N96 1.370 . S
N93 C91 1.348 . S
N93 C95 1.346 . S
C94 C91 1.485 . S
C94 H98 0.960 . S
C94 H99 0.961 . S
C94 H100 0.960 . S
C95 N93 1.346 . S
C95 N96 1.307 . S
C95 C97 1.486 . S
N96 N92 1.370 . S
N96 C95 1.307 . S
C97 C95 1.486 . S
C97 H101 0.960 . S
C97 H102 0.960 . S
C97 H103 0.959 . S
H98 C94 0.960 . S
H99 C94 0.961 . S
H100 C94 0.960 . S
H101 C97 0.960 . S
H102 C97 0.960 . S
H103 C97 0.959 . S
C104 N105 1.317 . S
C104 N106 1.348 . S
C104 C107 1.485 . S
N105 C104 1.317 . S
N105 N109 1.370 . S
N106 C104 1.348 . S
N106 C108 1.346 . S
C107 C104 1.485 . S
C107 H111 0.960 . S
C107 H112 0.961 . S
C107 H113 0.960 . S
C108 N106 1.346 . S
C108 N109 1.307 . S
C108 C110 1.486 . S
N109 N105 1.370 . S
N109 C108 1.307 . S
C110 C108 1.486 . S
C110 H114 0.960 . S
C110 H115 0.960 . S
C110 H116 0.959 . S
H111 C107 0.960 . S
H112 C107 0.961 . S
H113 C107 0.960 . S
H114 C110 0.960 . S
H115 C110 0.960 . S
H116 C110 0.959 . S
C117 N118 1.317 . S
C117 N119 1.348 . S
C117 C120 1.485 . S
N118 C117 1.317 . S
N118 N122 1.370 . S
N119 C117 1.348 . S
N119 C121 1.346 . S
C120 C117 1.485 . S
C120 H124 0.960 . S
C120 H125 0.961 . S
C120 H126 0.960 . S
C121 N119 1.346 . S
C121 N122 1.307 . S
C121 C123 1.486 . S
N122 N118 1.370 . S
N122 C121 1.307 . S
C123 C121 1.486 . S
C123 H127 0.960 . S
C123 H128 0.960 . S
C123 H129 0.959 . S
H124 C120 0.960 . S
H125 C120 0.961 . S
H126 C120 0.960 . S
H127 C123 0.960 . S
H128 C123 0.960 . S
H129 C123 0.959 . S
C130 N131 1.317 . S
C130 N132 1.348 . S
C130 C133 1.485 1_556 S
N131 C130 1.317 . S
N131 N135 1.370 . S
N132 C130 1.348 . S
N132 C134 1.346 . S
C133 C130 1.485 1_554 S
C133 H137 0.960 . S
C133 H138 0.961 . S
C133 H139 0.960 . S
C134 N132 1.346 . S
C134 N135 1.307 . S
C134 C136 1.486 . S
N135 N131 1.370 . S
N135 C134 1.307 . S
C136 C134 1.486 . S
C136 H140 0.960 . S
C136 H141 0.960 . S
C136 H142 0.959 . S
H137 C133 0.960 . S
H138 C133 0.961 . S
H139 C133 0.960 . S
H140 C136 0.960 . S
H141 C136 0.960 . S
H142 C136 0.959 . S
C143 N144 1.317 . S
C143 N145 1.348 . S
C143 C146 1.485 1_556 S
N144 C143 1.317 . S
N144 N148 1.370 . S
N145 C143 1.348 . S
N145 C147 1.346 . S
C146 C143 1.485 1_554 S
C146 H150 0.960 . S
C146 H151 0.961 . S
C146 H152 0.960 . S
C147 N145 1.346 . S
C147 N148 1.307 . S
C147 C149 1.486 . S
N148 N144 1.370 . S
N148 C147 1.307 . S
C149 C147 1.486 . S
C149 H153 0.960 . S
C149 H154 0.960 . S
C149 H155 0.959 . S
H150 C146 0.960 . S
H151 C146 0.961 . S
H152 C146 0.960 . S
H153 C149 0.960 . S
H154 C149 0.960 . S
H155 C149 0.959 . S
C156 N157 1.317 . S
C156 N158 1.348 . S
C156 C159 1.485 . S
N157 C156 1.317 . S
N157 N161 1.370 . S
N158 C156 1.348 . S
N158 C160 1.346 . S
C159 C156 1.485 . S
C159 H163 0.960 . S
C159 H164 0.986 . S
C159 H165 0.960 . S
C160 N158 1.346 . S
C160 N161 1.307 . S
C160 C162 1.486 . S
N161 N157 1.370 . S
N161 C160 1.307 . S
C162 C160 1.486 . S
C162 H166 0.960 . S
C162 H167 0.960 . S
C162 H168 0.959 . S
H163 C159 0.960 . S
H164 C159 0.986 . S
H165 C159 0.960 . S
H166 C162 0.960 . S
H167 C162 0.960 . S
H168 C162 0.959 . S
C169 N170 1.317 . S
C169 N171 1.348 . S
C169 C172 1.485 . S
N170 C169 1.317 . S
N170 N174 1.370 . S
N171 C169 1.348 . S
N171 C173 1.346 . S
C172 C169 1.485 . S
C172 H176 0.960 . S
C172 H177 0.961 . S
C172 H178 0.960 . S
C173 N171 1.346 . S
C173 N174 1.307 . S
C173 C175 1.486 . S
N174 N170 1.370 . S
N174 C173 1.307 . S
C175 C173 1.486 . S
C175 H179 0.960 . S
C175 H180 0.960 . S
C175 H181 0.959 . S
H176 C172 0.960 . S
H177 C172 0.961 . S
H178 C172 0.960 . S
H179 C175 0.960 . S
H180 C175 0.960 . S
H181 C175 0.959 . S
C182 N183 1.317 . S
C182 N184 1.348 . S
C182 C185 1.485 . S
N183 C182 1.317 . S
N183 N187 1.370 . S
N184 C182 1.348 . S
N184 C186 1.346 . S
C185 C182 1.485 . S
C185 H189 0.960 . S
C185 H190 0.961 . S
C185 H191 0.960 . S
C186 N184 1.346 . S
C186 N187 1.307 . S
C186 C188 1.486 . S
N187 N183 1.370 . S
N187 C186 1.307 . S
C188 C186 1.486 . S
C188 H192 0.960 . S
C188 H193 0.960 . S
C188 H194 0.959 . S
H189 C185 0.960 . S
H190 C185 0.961 . S
H191 C185 0.960 . S
H192 C188 0.960 . S
H193 C188 0.960 . S
H194 C188 0.959 . S
C195 N196 1.317 . S
C195 N197 1.348 . S
C195 C198 1.485 . S
N196 C195 1.317 . S
N196 N200 1.370 . S
N197 C195 1.348 . S
N197 C199 1.346 . S
C198 C195 1.485 . S
C198 H202 0.960 . S
C198 H203 0.961 . S
C198 H204 0.960 . S
C199 N197 1.346 . S
C199 N200 1.307 . S
C199 C201 1.486 . S
N200 N196 1.370 . S
N200 C199 1.307 . S
C201 C199 1.486 . S
C201 H205 0.960 . S
C201 H206 0.960 . S
C201 H207 0.959 . S
H202 C198 0.960 . S
H203 C198 0.961 . S
H204 C198 0.960 . S
H205 C201 0.960 . S
H206 C201 0.960 . S
H207 C201 0.959 . S
C208 N209 1.317 . S
C208 N210 1.348 . S
C208 C211 1.485 . S
N209 C208 1.317 . S
N209 N213 1.370 . S
N210 C208 1.348 . S
N210 C212 1.346 . S
C211 C208 1.485 . S
C211 H215 0.960 . S
C211 H216 0.961 . S
C211 H217 0.960 . S
C212 N210 1.346 . S
C212 N213 1.307 . S
C212 C214 1.486 . S
N213 N209 1.370 . S
N213 C212 1.307 . S
C214 C212 1.486 . S
C214 H218 0.960 . S
C214 H219 0.960 . S
C214 H220 0.959 . S
H215 C211 0.960 . S
H216 C211 0.961 . S
H217 C211 0.960 . S
H218 C214 0.960 . S
H219 C214 0.960 . S
H220 C214 0.959 . S
C221 N222 1.317 . S
C221 N223 1.348 . S
C221 C224 1.485 . S
N222 C221 1.317 . S
N222 N226 1.370 . S
N223 C221 1.348 . S
N223 C225 1.346 . S
C224 C221 1.485 . S
C224 H228 0.960 . S
C224 H229 0.961 . S
C224 H230 0.960 . S
C225 N223 1.346 . S
C225 N226 1.307 . S
C225 C227 1.486 . S
N226 N222 1.370 . S
N226 C225 1.307 . S
C227 C225 1.486 . S
C227 H231 0.960 . S
C227 H232 0.960 . S
C227 H233 0.959 . S
H228 C224 0.960 . S
H229 C224 0.961 . S
H230 C224 0.960 . S
H231 C227 0.960 . S
H232 C227 0.960 . S
H233 C227 0.959 . S
Eu234 C243 2.828 1_565 S
Eu234 O245 2.392 1_556 S
Eu234 O247 2.418 . S
Eu234 O252 2.373 1_565 S
Eu234 O255 2.488 . S
Eu234 O256 2.471 1_565 S
Eu234 O257 2.349 1_566 S
Eu235 O244 2.373 1_545 S
Eu235 O248 2.488 . S
Eu235 O249 2.471 1_545 S
Eu235 O250 2.349 1_545 S
Eu235 O253 2.392 . S
Eu235 O254 2.418 . S
Eu235 C264 2.828 1_545 S
C236 O254 1.244 . S
C236 O257 1.265 . S
C237 C238 1.379 . S
C237 C241 1.373 . S
C237 C243 1.505 . S
C238 C237 1.379 . S
C238 C240 1.369 . S
C238 H266 0.930 . S
C239 C241 1.383 . S
C239 C242 1.382 . S
C239 H267 0.930 . S
C240 C238 1.369 . S
C240 C242 1.392 . S
C240 H268 0.930 . S
C241 C237 1.373 . S
C241 C239 1.383 . S
C241 H269 0.931 1_545 S
C242 C239 1.382 . S
C242 C240 1.392 . S
C243 Eu234 2.828 1_545 S
C243 C237 1.505 . S
C243 O255 1.249 1_545 S
C243 O256 1.244 . S
O244 Eu235 2.373 1_565 S
O244 C246 1.258 . S
O245 Eu234 2.392 1_554 S
O245 C246 1.242 . S
C246 O244 1.258 . S
C246 O245 1.242 . S
O247 Eu234 2.418 . S
O247 C251 1.244 1_556 S
O248 Eu235 2.488 . S
O248 C264 1.249 1_545 S
O249 Eu235 2.471 1_565 S
O249 C264 1.244 . S
O250 Eu235 2.349 1_565 S
O250 C251 1.265 . S
C251 O247 1.244 1_554 S
C251 O250 1.265 . S
O252 Eu234 2.373 1_545 S
O252 C265 1.226 1_556 S
O253 Eu235 2.392 . S
O253 C265 1.289 . S
O254 Eu235 2.418 . S
O254 C236 1.244 . S
O255 Eu234 2.488 . S
O255 C243 1.249 1_565 S
O256 Eu234 2.471 1_545 S
O256 C243 1.244 . S
O257 Eu234 2.349 1_544 S
O257 C236 1.265 . S
C258 C259 1.379 . S
C258 C262 1.373 . S
C258 C264 1.505 . S
C259 C258 1.379 . S
C259 C261 1.369 . S
C259 H270 0.930 . S
C260 C262 1.383 . S
C260 C263 1.382 . S
C260 H271 0.930 . S
C261 C259 1.369 . S
C261 C263 1.392 . S
C261 H272 0.930 . S
C262 C258 1.373 . S
C262 C260 1.383 . S
C262 H273 0.931 1_565 S
C263 C260 1.382 . S
C263 C261 1.392 . S
C264 Eu235 2.828 1_565 S
C264 O248 1.249 1_565 S
C264 O249 1.244 . S
C264 C258 1.505 . S
C265 O252 1.226 1_554 S
C265 O253 1.289 . S
H266 C238 0.930 . S
H267 C239 0.930 . S
H268 C240 0.930 . S
H269 C241 0.931 1_565 S
H270 C259 0.930 . S
H271 C260 0.930 . S
H272 C261 0.930 . S
H273 C262 0.931 1_545 S
Eu274 C283 2.828 . S
Eu274 O285 2.392 1_556 S
Eu274 O287 2.418 . S
Eu274 O292 2.373 1_455 S
Eu274 O295 2.488 . S
Eu274 O296 2.459 1_455 S
Eu274 O297 2.349 1_455 S
Eu275 O284 2.373 1_655 S
Eu275 O288 2.488 . S
Eu275 O289 2.471 1_655 S
Eu275 O290 2.349 1_655 S
Eu275 O293 2.392 . S
Eu275 O294 2.418 . S
Eu275 C304 2.828 1_655 S
C276 O294 1.244 . S
C276 O297 1.265 1_554 S
C277 C278 1.377 . S
C277 C281 1.374 1_655 S
C277 C283 1.506 1_655 S
C278 C277 1.377 . S
C278 C280 1.369 . S
C278 H306 0.930 . S
C279 C281 1.383 . S
C279 C282 1.382 1_455 S
C279 H307 0.930 . S
C280 C278 1.369 . S
C280 C282 1.392 . S
C280 H308 0.930 . S
C281 C277 1.374 1_455 S
C281 C279 1.383 . S
C281 H309 0.931 . S
C282 C279 1.382 1_655 S
C282 C280 1.392 . S
C283 Eu274 2.828 . S
C283 C277 1.506 1_455 S
C283 O295 1.249 . S
C283 O296 1.243 1_455 S
O284 Eu275 2.373 1_455 S
O284 C286 1.258 . S
O285 Eu274 2.392 1_554 S
O285 C286 1.242 . S
C286 O284 1.258 . S
C286 O285 1.242 . S
O287 Eu274 2.418 . S
O287 C291 1.244 1_556 S
O288 Eu275 2.488 . S
O288 C304 1.249 1_655 S
O289 Eu275 2.471 1_455 S
O289 C304 1.244 . S
O290 Eu275 2.349 1_455 S
O290 C291 1.265 . S
C291 O287 1.244 1_554 S
C291 O290 1.265 . S
O292 Eu274 2.373 1_655 S
O292 C305 1.258 . S
O293 Eu275 2.392 . S
O293 C305 1.242 1_554 S
O294 Eu275 2.418 . S
O294 C276 1.244 . S
O295 Eu274 2.488 . S
O295 C283 1.249 . S
O296 Eu274 2.459 1_655 S
O296 C283 1.243 1_655 S
O297 Eu274 2.349 1_655 S
O297 C276 1.265 1_556 S
C298 C299 1.379 . S
C298 C302 1.367 1_455 S
C298 C304 1.505 . S
C299 C298 1.379 . S
C299 C301 1.369 . S
C299 H310 0.930 . S
C300 C302 1.376 1_455 S
C300 C303 1.382 . S
C300 H311 0.930 1_455 S
C301 C299 1.369 . S
C301 C303 1.392 . S
C301 H312 0.930 . S
C302 C298 1.367 1_655 S
C302 C300 1.376 1_655 S
C302 H313 0.944 . S
C303 C300 1.382 . S
C303 C301 1.392 . S
C304 Eu275 2.828 1_455 S
C304 O288 1.249 1_455 S
C304 O289 1.244 . S
C304 C298 1.505 . S
C305 O292 1.258 . S
C305 O293 1.242 1_556 S
H306 C278 0.930 . S
H307 C279 0.930 . S
H308 C280 0.930 . S
H309 C281 0.931 . S
H310 C299 0.930 . S
H311 C300 0.930 1_655 S
H312 C301 0.930 . S
H313 C302 0.944 . S
Eu314 C323 2.828 . S
Eu314 O325 2.392 . S
Eu314 O327 2.418 . S
Eu314 O332 2.373 . S
Eu314 O335 2.488 . S
Eu314 O336 2.471 . S
Eu314 O337 2.349 . S
Eu315 O324 2.373 . S
Eu315 O328 2.488 . S
Eu315 O329 2.471 . S
Eu315 O330 2.349 1_556 S
Eu315 O333 2.392 1_556 S
Eu315 O334 2.422 . S
Eu315 C344 2.828 . S
C316 O334 1.230 1_554 S
C316 O337 1.265 . S
C317 C318 1.379 . S
C317 C321 1.373 . S
C317 C323 1.505 . S
C318 C317 1.379 . S
C318 C320 1.369 . S
C318 H346 0.930 . S
C319 C321 1.383 . S
C319 C322 1.382 . S
C319 H347 0.930 . S
C320 C318 1.369 . S
C320 C322 1.392 . S
C320 H348 0.930 . S
C321 C317 1.373 . S
C321 C319 1.383 . S
C321 H349 0.931 . S
C322 C319 1.382 . S
C322 C320 1.392 . S
C323 Eu314 2.828 . S
C323 C317 1.505 . S
C323 O335 1.249 . S
C323 O336 1.244 . S
O324 Eu315 2.373 . S
O324 C326 1.258 1_556 S
O325 Eu314 2.392 . S
O325 C326 1.242 . S
C326 O324 1.258 1_554 S
C326 O325 1.242 . S
O327 Eu314 2.418 . S
O327 C331 1.244 . S
O328 Eu315 2.488 . S
O328 C344 1.249 . S
O329 Eu315 2.471 . S
O329 C344 1.244 . S
O330 Eu315 2.349 1_554 S
O330 C331 1.265 . S
C331 O327 1.244 . S
C331 O330 1.265 . S
O332 Eu314 2.373 . S
O332 C345 1.258 . S
O333 Eu315 2.392 1_554 S
O333 C345 1.242 . S
O334 Eu315 2.422 . S
O334 C316 1.230 1_556 S
O335 Eu314 2.488 . S
O335 C323 1.249 . S
O336 Eu314 2.471 . S
O336 C323 1.244 . S
O337 Eu314 2.349 . S
O337 C316 1.265 . S
C338 C339 1.379 . S
C338 C342 1.373 . S
C338 C344 1.505 . S
C339 C338 1.379 . S
C339 C341 1.369 . S
C339 H350 0.930 . S
C340 C342 1.383 . S
C340 C343 1.382 . S
C340 H351 0.930 . S
C341 C339 1.369 . S
C341 C343 1.392 . S
C341 H352 0.930 . S
C342 C338 1.373 . S
C342 C340 1.383 . S
C342 H353 0.931 . S
C343 C340 1.382 . S
C343 C341 1.392 . S
C344 Eu315 2.828 . S
C344 O328 1.249 . S
C344 O329 1.244 . S
C344 C338 1.505 . S
C345 O332 1.258 . S
C345 O333 1.242 . S
H346 C318 0.930 . S
H347 C319 0.930 . S
H348 C320 0.930 . S
H349 C321 0.931 . S
H350 C339 0.930 . S
H351 C340 0.930 . S
H352 C341 0.930 . S
H353 C342 0.931 . S
Eu354 C363 2.828 . S
Eu354 O365 2.392 . S
Eu354 O367 2.418 . S
Eu354 O372 2.373 . S
Eu354 O375 2.488 . S
Eu354 O376 2.471 . S
Eu354 O377 2.349 . S
Eu355 O364 2.373 . S
Eu355 O368 2.488 . S
Eu355 O369 2.471 . S
Eu355 O370 2.349 . S
Eu355 O373 2.392 . S
Eu355 O374 2.418 . S
Eu355 C384 2.828 . S
C356 O374 1.244 . S
C356 O377 1.265 . S
C357 C358 1.379 . S
C357 C361 1.373 . S
C357 C363 1.505 . S
C358 C357 1.379 . S
C358 C360 1.369 . S
C358 H386 0.930 . S
C359 C361 1.383 . S
C359 C362 1.382 . S
C359 H387 0.930 . S
C360 C358 1.369 . S
C360 C362 1.392 . S
C360 H388 0.930 . S
C361 C357 1.373 . S
C361 C359 1.383 . S
C361 H389 0.931 . S
C362 C359 1.382 . S
C362 C360 1.392 . S
C363 Eu354 2.828 . S
C363 C357 1.505 . S
C363 O375 1.249 . S
C363 O376 1.244 . S
O364 Eu355 2.373 . S
O364 C366 1.258 . S
O365 Eu354 2.392 . S
O365 C366 1.242 . S
C366 O364 1.258 . S
C366 O365 1.242 . S
O367 Eu354 2.418 . S
O367 C371 1.244 . S
O368 Eu355 2.488 . S
O368 C384 1.249 . S
O369 Eu355 2.471 . S
O369 C384 1.244 . S
O370 Eu355 2.349 . S
O370 C371 1.265 . S
C371 O367 1.244 . S
C371 O370 1.265 . S
O372 Eu354 2.373 . S
O372 C385 1.258 . S
O373 Eu355 2.392 . S
O373 C385 1.242 . S
O374 Eu355 2.418 . S
O374 C356 1.244 . S
O375 Eu354 2.488 . S
O375 C363 1.249 . S
O376 Eu354 2.471 . S
O376 C363 1.244 . S
O377 Eu354 2.349 . S
O377 C356 1.265 . S
C378 C379 1.379 . S
C378 C382 1.373 . S
C378 C384 1.505 . S
C379 C378 1.379 . S
C379 C381 1.369 . S
C379 H390 0.930 . S
C380 C382 1.383 . S
C380 C383 1.382 . S
C380 H391 0.930 . S
C381 C379 1.369 . S
C381 C383 1.392 . S
C381 H392 0.930 . S
C382 C378 1.373 . S
C382 C380 1.383 . S
C382 H393 0.931 . S
C383 C380 1.382 . S
C383 C381 1.392 . S
C384 Eu355 2.828 . S
C384 O368 1.249 . S
C384 O369 1.244 . S
C384 C378 1.505 . S
C385 O372 1.258 . S
C385 O373 1.242 . S
H386 C358 0.930 . S
H387 C359 0.930 . S
H388 C360 0.930 . S
H389 C361 0.931 . S
H390 C379 0.930 . S
H391 C380 0.930 . S
H392 C381 0.930 . S
H393 C382 0.931 . S
Eu394 C403 2.828 . S
Eu394 O405 2.392 . S
Eu394 O407 2.418 . S
Eu394 O412 2.373 . S
Eu394 O415 2.488 . S
Eu394 O416 2.471 . S
Eu394 O417 2.349 . S
Eu395 O404 2.373 . S
Eu395 O408 2.488 . S
Eu395 O409 2.471 . S
Eu395 O410 2.349 . S
Eu395 O413 2.392 . S
Eu395 O414 2.418 . S
Eu395 C424 2.828 . S
C396 O414 1.244 . S
C396 O417 1.265 . S
C397 C398 1.379 . S
C397 C401 1.373 . S
C397 C403 1.505 . S
C398 C397 1.379 . S
C398 C400 1.369 . S
C398 H426 0.930 . S
C399 C401 1.383 . S
C399 C402 1.382 . S
C399 H427 0.930 . S
C400 C398 1.369 . S
C400 C402 1.392 . S
C400 H428 0.930 . S
C401 C397 1.373 . S
C401 C399 1.383 . S
C401 H429 0.931 . S
C402 C399 1.382 . S
C402 C400 1.392 . S
C403 Eu394 2.828 . S
C403 C397 1.505 . S
C403 O415 1.249 . S
C403 O416 1.244 . S
O404 Eu395 2.373 . S
O404 C406 1.258 . S
O405 Eu394 2.392 . S
O405 C406 1.242 . S
C406 O404 1.258 . S
C406 O405 1.242 . S
O407 Eu394 2.418 . S
O407 C411 1.244 . S
O408 Eu395 2.488 . S
O408 C424 1.249 . S
O409 Eu395 2.471 . S
O409 C424 1.244 . S
O410 Eu395 2.349 . S
O410 C411 1.265 . S
C411 O407 1.244 . S
C411 O410 1.265 . S
O412 Eu394 2.373 . S
O412 C425 1.258 . S
O413 Eu395 2.392 . S
O413 C425 1.242 . S
O414 Eu395 2.418 . S
O414 C396 1.244 . S
O415 Eu394 2.488 . S
O415 C403 1.249 . S
O416 Eu394 2.471 . S
O416 C403 1.244 . S
O417 Eu394 2.349 . S
O417 C396 1.265 . S
C418 C419 1.379 . S
C418 C422 1.373 . S
C418 C424 1.505 . S
C419 C418 1.379 . S
C419 C421 1.369 . S
C419 H430 0.930 . S
C420 C422 1.383 . S
C420 C423 1.382 . S
C420 H431 0.930 . S
C421 C419 1.369 . S
C421 C423 1.392 . S
C421 H432 0.930 . S
C422 C418 1.373 . S
C422 C420 1.383 . S
C422 H433 0.931 . S
C423 C420 1.382 . S
C423 C421 1.392 . S
C424 Eu395 2.828 . S
C424 O408 1.249 . S
C424 O409 1.244 . S
C424 C418 1.505 . S
C425 O412 1.258 . S
C425 O413 1.242 . S
H426 C398 0.930 . S
H427 C399 0.930 . S
H428 C400 0.930 . S
H429 C401 0.931 . S
H430 C419 0.930 . S
H431 C420 0.930 . S
H432 C421 0.930 . S
H433 C422 0.931 . S
Eu434 C443 2.828 . S
Eu434 O445 2.392 . S
Eu434 O447 2.418 . S
Eu434 O452 2.373 . S
Eu434 O455 2.488 . S
Eu434 O456 2.471 . S
Eu434 O457 2.349 . S
Eu435 O444 2.373 . S
Eu435 O448 2.488 . S
Eu435 O449 2.471 . S
Eu435 O450 2.349 . S
Eu435 O453 2.392 . S
Eu435 O454 2.418 . S
Eu435 C464 2.828 . S
C436 O454 1.244 . S
C436 O457 1.265 . S
C437 C438 1.379 . S
C437 C441 1.373 . S
C437 C443 1.505 . S
C438 C437 1.379 . S
C438 C440 1.369 . S
C438 H466 0.930 . S
C439 C441 1.383 . S
C439 C442 1.382 . S
C439 H467 0.930 . S
C440 C438 1.369 . S
C440 C442 1.392 . S
C440 H468 0.930 . S
C441 C437 1.373 . S
C441 C439 1.383 . S
C441 H469 0.931 . S
C442 C439 1.382 . S
C442 C440 1.392 . S
C443 Eu434 2.828 . S
C443 C437 1.505 . S
C443 O455 1.249 . S
C443 O456 1.244 . S
O444 Eu435 2.373 . S
O444 C446 1.258 . S
O445 Eu434 2.392 . S
O445 C446 1.242 . S
C446 O444 1.258 . S
C446 O445 1.242 . S
O447 Eu434 2.418 . S
O447 C451 1.244 . S
O448 Eu435 2.488 . S
O448 C464 1.249 . S
O449 Eu435 2.471 . S
O449 C464 1.244 . S
O450 Eu435 2.349 . S
O450 C451 1.265 . S
C451 O447 1.244 . S
C451 O450 1.265 . S
O452 Eu434 2.373 . S
O452 C465 1.258 . S
O453 Eu435 2.392 . S
O453 C465 1.242 . S
O454 Eu435 2.418 . S
O454 C436 1.244 . S
O455 Eu434 2.488 . S
O455 C443 1.249 . S
O456 Eu434 2.471 . S
O456 C443 1.244 . S
O457 Eu434 2.349 . S
O457 C436 1.265 . S
C458 C459 1.379 . S
C458 C462 1.373 . S
C458 C464 1.505 . S
C459 C458 1.379 . S
C459 C461 1.369 . S
C459 H470 0.930 . S
C460 C462 1.383 . S
C460 C463 1.382 . S
C460 H471 0.930 . S
C461 C459 1.369 . S
C461 C463 1.392 . S
C461 H472 0.930 . S
C462 C458 1.373 . S
C462 C460 1.383 . S
C462 H473 0.931 . S
C463 C460 1.382 . S
C463 C461 1.392 . S
C464 Eu435 2.828 . S
C464 O448 1.249 . S
C464 O449 1.244 . S
C464 C458 1.505 . S
C465 O452 1.258 . S
C465 O453 1.242 . S
H466 C438 0.930 . S
H467 C439 0.930 . S
H468 C440 0.930 . S
H469 C441 0.931 . S
H470 C459 0.930 . S
H471 C460 0.930 . S
H472 C461 0.930 . S
H473 C462 0.931 . S
Eu474 C483 2.828 . S
Eu474 O485 2.392 . S
Eu474 O487 2.418 . S
Eu474 O492 2.373 . S
Eu474 O495 2.488 . S
Eu474 O496 2.471 . S
Eu474 O497 2.349 . S
Eu475 O484 2.373 . S
Eu475 O488 2.488 . S
Eu475 O489 2.471 . S
Eu475 O490 2.349 . S
Eu475 O493 2.392 . S
Eu475 O494 2.418 . S
Eu475 C504 2.828 . S
C476 O494 1.244 . S
C476 O497 1.265 . S
C477 C478 1.379 . S
C477 C481 1.373 . S
C477 C483 1.505 . S
C478 C477 1.379 . S
C478 C480 1.369 . S
C478 H506 0.930 . S
C479 C481 1.383 . S
C479 C482 1.382 . S
C479 H507 0.930 . S
C480 C478 1.369 . S
C480 C482 1.392 . S
C480 H508 0.930 . S
C481 C477 1.373 . S
C481 C479 1.383 . S
C481 H509 0.931 . S
C482 C479 1.382 . S
C482 C480 1.392 . S
C483 Eu474 2.828 . S
C483 C477 1.505 . S
C483 O495 1.249 . S
C483 O496 1.244 . S
O484 Eu475 2.373 . S
O484 C486 1.258 . S
O485 Eu474 2.392 . S
O485 C486 1.242 . S
C486 O484 1.258 . S
C486 O485 1.242 . S
O487 Eu474 2.418 . S
O487 C491 1.244 . S
O488 Eu475 2.488 . S
O488 C504 1.249 . S
O489 Eu475 2.471 . S
O489 C504 1.244 . S
O490 Eu475 2.349 . S
O490 C491 1.265 . S
C491 O487 1.244 . S
C491 O490 1.265 . S
O492 Eu474 2.373 . S
O492 C505 1.258 . S
O493 Eu475 2.392 . S
O493 C505 1.242 . S
O494 Eu475 2.418 . S
O494 C476 1.244 . S
O495 Eu474 2.488 . S
O495 C483 1.249 . S
O496 Eu474 2.471 . S
O496 C483 1.244 . S
O497 Eu474 2.349 . S
O497 C476 1.265 . S
C498 C499 1.379 . S
C498 C502 1.373 . S
C498 C504 1.505 . S
C499 C498 1.379 . S
C499 C501 1.369 . S
C499 H510 0.930 . S
C500 C502 1.383 . S
C500 C503 1.382 . S
C500 H511 0.930 . S
C501 C499 1.369 . S
C501 C503 1.392 . S
C501 H512 0.930 . S
C502 C498 1.373 . S
C502 C500 1.383 . S
C502 H513 0.931 . S
C503 C500 1.382 . S
C503 C501 1.392 . S
C504 Eu475 2.828 . S
C504 O488 1.249 . S
C504 O489 1.244 . S
C504 C498 1.505 . S
C505 O492 1.258 . S
C505 O493 1.242 . S
H506 C478 0.930 . S
H507 C479 0.930 . S
H508 C480 0.930 . S
H509 C481 0.931 . S
H510 C499 0.930 . S
H511 C500 0.930 . S
H512 C501 0.930 . S
H513 C502 0.931 . S
Eu514 C523 2.828 . S
Eu514 O525 2.392 . S
Eu514 O527 2.418 . S
Eu514 O532 2.373 . S
Eu514 O535 2.488 . S
Eu514 O536 2.471 . S
Eu514 O537 2.349 . S
Eu515 O524 2.373 . S
Eu515 O528 2.488 . S
Eu515 O529 2.471 . S
Eu515 O530 2.349 . S
Eu515 O533 2.392 . S
Eu515 O534 2.418 . S
Eu515 C544 2.828 . S
C516 O534 1.244 . S
C516 O537 1.265 . S
C517 C518 1.379 . S
C517 C521 1.373 . S
C517 C523 1.505 . S
C518 C517 1.379 . S
C518 C520 1.369 . S
C518 H546 0.930 . S
C519 C521 1.383 . S
C519 C522 1.382 . S
C519 H547 0.930 . S
C520 C518 1.369 . S
C520 C522 1.392 . S
C520 H548 0.930 . S
C521 C517 1.373 . S
C521 C519 1.383 . S
C521 H549 0.931 . S
C522 C519 1.382 . S
C522 C520 1.392 . S
C523 Eu514 2.828 . S
C523 C517 1.505 . S
C523 O535 1.249 . S
C523 O536 1.244 . S
O524 Eu515 2.373 . S
O524 C526 1.258 . S
O525 Eu514 2.392 . S
O525 C526 1.242 . S
C526 O524 1.258 . S
C526 O525 1.242 . S
O527 Eu514 2.418 . S
O527 C531 1.244 . S
O528 Eu515 2.488 . S
O528 C544 1.249 . S
O529 Eu515 2.471 . S
O529 C544 1.244 . S
O530 Eu515 2.349 . S
O530 C531 1.265 . S
C531 O527 1.244 . S
C531 O530 1.265 . S
O532 Eu514 2.373 . S
O532 C545 1.258 . S
O533 Eu515 2.392 . S
O533 C545 1.242 . S
O534 Eu515 2.418 . S
O534 C516 1.244 . S
O535 Eu514 2.488 . S
O535 C523 1.249 . S
O536 Eu514 2.471 . S
O536 C523 1.244 . S
O537 Eu514 2.349 . S
O537 C516 1.265 . S
C538 C539 1.379 . S
C538 C542 1.373 . S
C538 C544 1.505 . S
C539 C538 1.379 . S
C539 C541 1.369 . S
C539 H550 0.930 . S
C540 C542 1.383 . S
C540 C543 1.382 . S
C540 H551 0.930 . S
C541 C539 1.369 . S
C541 C543 1.392 . S
C541 H552 0.930 . S
C542 C538 1.373 . S
C542 C540 1.383 . S
C542 H553 0.931 . S
C543 C540 1.382 . S
C543 C541 1.392 . S
C544 Eu515 2.828 . S
C544 O528 1.249 . S
C544 O529 1.244 . S
C544 C538 1.505 . S
C545 O532 1.258 . S
C545 O533 1.242 . S
H546 C518 0.930 . S
H547 C519 0.930 . S
H548 C520 0.930 . S
H549 C521 0.931 . S
H550 C539 0.930 . S
H551 C540 0.930 . S
H552 C541 0.930 . S
H553 C542 0.931 . S
Eu554 C563 2.828 . S
Eu554 O565 2.392 . S
Eu554 O567 2.418 . S
Eu554 O572 2.373 . S
Eu554 O575 2.488 . S
Eu554 O576 2.471 . S
Eu554 O577 2.349 . S
Eu555 O564 2.373 . S
Eu555 O568 2.488 . S
Eu555 O569 2.471 . S
Eu555 O570 2.349 . S
Eu555 O573 2.392 . S
Eu555 O574 2.418 . S
Eu555 C584 2.828 . S
C556 O574 1.244 . S
C556 O577 1.265 . S
C557 C558 1.379 . S
C557 C561 1.373 . S
C557 C563 1.505 . S
C558 C557 1.379 . S
C558 C560 1.369 . S
C558 H586 0.930 . S
C559 C561 1.383 . S
C559 C562 1.382 . S
C559 H587 0.930 . S
C560 C558 1.369 . S
C560 C562 1.392 . S
C560 H588 0.930 . S
C561 C557 1.373 . S
C561 C559 1.383 . S
C561 H589 0.931 . S
C562 C559 1.382 . S
C562 C560 1.392 . S
C563 Eu554 2.828 . S
C563 C557 1.505 . S
C563 O575 1.249 . S
C563 O576 1.244 . S
O564 Eu555 2.373 . S
O564 C566 1.258 . S
O565 Eu554 2.392 . S
O565 C566 1.242 . S
C566 O564 1.258 . S
C566 O565 1.242 . S
O567 Eu554 2.418 . S
O567 C571 1.244 . S
O568 Eu555 2.488 . S
O568 C584 1.249 . S
O569 Eu555 2.471 . S
O569 C584 1.244 . S
O570 Eu555 2.349 . S
O570 C571 1.265 . S
C571 O567 1.244 . S
C571 O570 1.265 . S
O572 Eu554 2.373 . S
O572 C585 1.258 . S
O573 Eu555 2.392 . S
O573 C585 1.242 . S
O574 Eu555 2.418 . S
O574 C556 1.244 . S
O575 Eu554 2.488 . S
O575 C563 1.249 . S
O576 Eu554 2.471 . S
O576 C563 1.244 . S
O577 Eu554 2.349 . S
O577 C556 1.265 . S
C578 C579 1.379 . S
C578 C582 1.373 . S
C578 C584 1.505 . S
C579 C578 1.379 . S
C579 C581 1.369 . S
C579 H590 0.930 . S
C580 C582 1.383 . S
C580 C583 1.382 . S
C580 H591 0.930 . S
C581 C579 1.369 . S
C581 C583 1.392 . S
C581 H592 0.930 . S
C582 C578 1.373 . S
C582 C580 1.383 . S
C582 H593 0.931 . S
C583 C580 1.382 . S
C583 C581 1.392 . S
C584 Eu555 2.828 . S
C584 O568 1.249 . S
C584 O569 1.244 . S
C584 C578 1.505 . S
C585 O572 1.258 . S
C585 O573 1.242 . S
H586 C558 0.930 . S
H587 C559 0.930 . S
H588 C560 0.930 . S
H589 C561 0.931 . S
H590 C579 0.930 . S
H591 C580 0.930 . S
H592 C581 0.930 . S
H593 C582 0.931 . S
H594 C602 0.950 . S
H595 C607 0.950 . S
H596 C604 0.950 . S
H597 C606 0.950 . S
H598 C608 0.950 . S
H599 C610 0.950 . S
H600 C612 0.950 . S
H601 C613 0.950 . S
C602 H594 0.950 . S
C602 C603 1.386 . S
C602 C604 1.391 . S
C603 C602 1.386 . S
C603 C607 1.393 . S
C604 H596 0.950 . S
C604 C602 1.391 . S
C604 C605 1.400 . S
C605 C604 1.400 . S
C605 C606 1.398 . S
C605 C611 1.491 . S
C606 H597 0.950 . S
C606 C605 1.398 . S
C606 C607 1.391 . S
C607 H595 0.950 . S
C607 C603 1.393 . S
C607 C606 1.391 . S
C608 H598 0.950 . S
C608 C609 1.386 . S
C608 C610 1.391 . S
C609 C608 1.386 . S
C609 C613 1.393 . S
C610 H599 0.950 . S
C610 C608 1.391 . S
C610 C611 1.400 . S
C611 C605 1.491 . S
C611 C610 1.400 . S
C611 C612 1.398 . S
C612 H600 0.950 . S
C612 C611 1.398 . S
C612 C613 1.391 . S
C613 H601 0.950 . S
C613 C609 1.393 . S
C613 C612 1.391 . S
H614 C622 0.950 . S
H615 C627 0.950 . S
H616 C624 0.950 . S
H617 C626 0.950 . S
H618 C628 0.950 . S
H619 C630 0.950 . S
H620 C632 0.950 . S
H621 C633 0.950 . S
C622 H614 0.950 . S
C622 C623 1.386 . S
C622 C624 1.391 . S
C623 C622 1.386 . S
C623 C627 1.393 . S
C624 H616 0.950 . S
C624 C622 1.391 . S
C624 C625 1.400 . S
C625 C624 1.400 . S
C625 C626 1.398 . S
C625 C631 1.491 . S
C626 H617 0.950 . S
C626 C625 1.398 . S
C626 C627 1.391 . S
C627 H615 0.950 . S
C627 C623 1.393 . S
C627 C626 1.391 . S
C628 H618 0.950 . S
C628 C629 1.386 . S
C628 C630 1.391 . S
C629 C628 1.386 . S
C629 C633 1.393 . S
C630 H619 0.950 . S
C630 C628 1.391 . S
C630 C631 1.400 . S
C631 C625 1.491 . S
C631 C630 1.400 . S
C631 C632 1.398 . S
C632 H620 0.950 . S
C632 C631 1.398 . S
C632 C633 1.391 . S
C633 H621 0.950 . S
C633 C629 1.393 . S
C633 C632 1.391 . S
H634 C642 0.950 . S
H635 C647 0.950 . S
H636 C644 0.950 . S
H637 C646 0.950 . S
H638 C648 0.950 . S
H639 C650 0.950 . S
H640 C652 0.969 . S
H641 C653 0.950 1_556 S
C642 H634 0.950 . S
C642 C643 1.386 . S
C642 C644 1.391 . S
C643 C642 1.386 . S
C643 C647 1.393 . S
C644 H636 0.950 . S
C644 C642 1.391 . S
C644 C645 1.400 . S
C645 C644 1.400 . S
C645 C646 1.398 . S
C645 C651 1.491 . S
C646 H637 0.950 . S
C646 C645 1.398 . S
C646 C647 1.391 . S
C647 H635 0.950 . S
C647 C643 1.393 . S
C647 C646 1.391 . S
C648 H638 0.950 . S
C648 C649 1.386 . S
C648 C650 1.391 . S
C649 C648 1.386 . S
C649 C653 1.393 . S
C650 H639 0.950 . S
C650 C648 1.391 . S
C650 C651 1.400 . S
C651 C645 1.491 . S
C651 C650 1.400 . S
C651 C652 1.398 . S
C652 H640 0.969 . S
C652 C651 1.398 . S
C652 C653 1.391 . S
C653 H641 0.950 1_554 S
C653 C649 1.393 . S
C653 C652 1.391 . S
H654 C662 0.931 1_554 S
H655 C667 0.950 . S
H656 C664 0.950 1_554 S
H657 C666 0.950 . S
H658 C668 0.950 . S
H659 C670 0.950 . S
H660 C672 0.950 . S
H661 C673 0.950 . S
C662 H654 0.931 1_556 S
C662 C663 1.386 . S
C662 C664 1.391 . S
C663 C662 1.386 . S
C663 C667 1.393 . S
C664 H656 0.950 1_556 S
C664 C662 1.391 . S
C664 C665 1.400 . S
C665 C664 1.400 . S
C665 C666 1.398 . S
C665 C671 1.491 . S
C666 H657 0.950 . S
C666 C665 1.398 . S
C666 C667 1.391 . S
C667 H655 0.950 . S
C667 C663 1.393 . S
C667 C666 1.391 . S
C668 H658 0.950 . S
C668 C669 1.386 . S
C668 C670 1.391 . S
C669 C668 1.386 . S
C669 C673 1.393 1_556 S
C670 H659 0.950 . S
C670 C668 1.391 . S
C670 C671 1.400 . S
C671 C665 1.491 . S
C671 C670 1.400 . S
C671 C672 1.398 1_556 S
C672 H660 0.950 . S
C672 C671 1.398 1_554 S
C672 C673 1.391 . S
C673 H661 0.950 . S
C673 C669 1.393 1_554 S
C673 C672 1.391 . S
H674 C682 0.950 . S
H675 C687 0.950 . S
H676 C684 0.950 . S
H677 C686 0.950 . S
H678 C688 0.950 . S
H679 C690 0.950 1_554 S
H680 C692 0.950 . S
H681 C693 0.950 . S
C682 H674 0.950 . S
C682 C683 1.386 . S
C682 C684 1.391 . S
C683 C682 1.386 . S
C683 C687 1.393 . S
C684 H676 0.950 . S
C684 C682 1.391 . S
C684 C685 1.400 . S
C685 C684 1.400 . S
C685 C686 1.398 . S
C685 C691 1.491 . S
C686 H677 0.950 . S
C686 C685 1.398 . S
C686 C687 1.391 . S
C687 H675 0.950 . S
C687 C683 1.393 . S
C687 C686 1.391 . S
C688 H678 0.950 . S
C688 C689 1.386 1_554 S
C688 C690 1.391 1_554 S
C689 C688 1.386 1_556 S
C689 C693 1.393 . S
C690 H679 0.950 1_556 S
C690 C688 1.391 1_556 S
C690 C691 1.400 . S
C691 C685 1.491 . S
C691 C690 1.400 . S
C691 C692 1.398 . S
C692 H680 0.950 . S
C692 C691 1.398 . S
C692 C693 1.391 . S
C693 H681 0.950 . S
C693 C689 1.393 . S
C693 C692 1.391 . S
H694 C702 0.950 . S
H695 C707 0.950 . S
H696 C704 0.950 . S
H697 C706 0.950 . S
H698 C708 0.950 . S
H699 C710 0.950 . S
H700 C712 0.958 . S
H701 C713 0.950 . S
C702 H694 0.950 . S
C702 C703 1.386 . S
C702 C704 1.391 . S
C703 C702 1.386 . S
C703 C707 1.393 . S
C704 H696 0.950 . S
C704 C702 1.391 . S
C704 C705 1.400 . S
C705 C704 1.400 . S
C705 C706 1.398 . S
C705 C711 1.491 . S
C706 H697 0.950 . S
C706 C705 1.398 . S
C706 C707 1.391 . S
C707 H695 0.950 . S
C707 C703 1.393 . S
C707 C706 1.391 . S
C708 H698 0.950 . S
C708 C709 1.386 1_556 S
C708 C710 1.391 . S
C709 C708 1.386 1_554 S
C709 C713 1.393 . S
C710 H699 0.950 . S
C710 C708 1.391 . S
C710 C711 1.400 . S
C711 C705 1.491 . S
C711 C710 1.400 . S
C711 C712 1.398 . S
C712 H700 0.958 . S
C712 C711 1.398 . S
C712 C713 1.391 1_556 S
C713 H701 0.950 . S
C713 C709 1.393 . S
C713 C712 1.391 1_554 S
H714 C722 0.950 . S
H715 C727 0.950 . S
H716 C724 0.950 . S
H717 C726 0.950 . S
H718 C728 0.950 1_554 S
H719 C730 0.950 . S
H720 C732 0.950 . S
H721 C733 0.950 . S
C722 H714 0.950 . S
C722 C723 1.386 . S
C722 C724 1.391 . S
C723 C722 1.386 . S
C723 C727 1.393 . S
C724 H716 0.950 . S
C724 C722 1.391 . S
C724 C725 1.400 . S
C725 C724 1.400 . S
C725 C726 1.398 . S
C725 C731 1.491 . S
C726 H717 0.950 . S
C726 C725 1.398 . S
C726 C727 1.391 . S
C727 H715 0.950 . S
C727 C723 1.393 . S
C727 C726 1.391 . S
C728 H718 0.950 1_556 S
C728 C729 1.386 . S
C728 C730 1.391 . S
C729 C728 1.386 . S
C729 C733 1.393 . S
C730 H719 0.950 . S
C730 C728 1.391 . S
C730 C731 1.400 . S
C731 C725 1.491 . S
C731 C730 1.400 . S
C731 C732 1.398 . S
C732 H720 0.950 . S
C732 C731 1.398 . S
C732 C733 1.391 . S
C733 H721 0.950 . S
C733 C729 1.393 . S
C733 C732 1.391 . S
H734 C742 0.950 . S
H735 C747 0.950 . S
H736 C744 0.950 . S
H737 C746 0.950 . S
H738 C748 0.950 . S
H739 C750 0.950 . S
H740 C752 0.950 . S
H741 C753 0.950 . S
C742 H734 0.950 . S
C742 C743 1.386 . S
C742 C744 1.391 . S
C743 C742 1.386 . S
C743 C747 1.393 . S
C744 H736 0.950 . S
C744 C742 1.391 . S
C744 C745 1.400 . S
C745 C744 1.400 . S
C745 C746 1.398 . S
C745 C751 1.491 . S
C746 H737 0.950 . S
C746 C745 1.398 . S
C746 C747 1.391 . S
C747 H735 0.950 . S
C747 C743 1.393 . S
C747 C746 1.391 . S
C748 H738 0.950 . S
C748 C749 1.386 . S
C748 C750 1.391 . S
C749 C748 1.386 . S
C749 C753 1.393 . S
C750 H739 0.950 . S
C750 C748 1.391 . S
C750 C751 1.400 . S
C751 C745 1.491 . S
C751 C750 1.400 . S
C751 C752 1.398 . S
C752 H740 0.950 . S
C752 C751 1.398 . S
C752 C753 1.391 . S
C753 H741 0.950 . S
C753 C749 1.393 . S
C753 C752 1.391 . S
H754 C762 0.956 . S
H755 C767 0.950 . S
H756 C764 0.975 . S
H757 C766 0.950 . S
H758 C768 0.950 1_556 S
H759 C770 0.950 . S
H760 C772 0.950 . S
H761 C773 0.950 . S
C762 H754 0.956 . S
C762 C763 1.386 . S
C762 C764 1.380 1_556 S
C763 C762 1.386 . S
C763 C767 1.393 . S
C764 H756 0.975 . S
C764 C762 1.380 1_554 S
C764 C765 1.390 1_554 S
C765 C764 1.390 1_556 S
C765 C766 1.398 . S
C765 C771 1.491 1_556 S
C766 H757 0.950 . S
C766 C765 1.398 . S
C766 C767 1.391 . S
C767 H755 0.950 . S
C767 C763 1.393 . S
C767 C766 1.391 . S
C768 H758 0.950 1_554 S
C768 C769 1.386 . S
C768 C770 1.391 1_554 S
C769 C768 1.386 . S
C769 C773 1.393 . S
C770 H759 0.950 . S
C770 C768 1.391 1_556 S
C770 C771 1.400 1_556 S
C771 C765 1.491 1_554 S
C771 C770 1.400 1_554 S
C771 C772 1.398 . S
C772 H760 0.950 . S
C772 C771 1.398 . S
C772 C773 1.391 . S
C773 H761 0.950 . S
C773 C769 1.393 . S
C773 C772 1.391 . S
H774 C782 0.950 . S
H775 C787 0.950 . S
H776 C784 0.950 . S
H777 C786 0.950 . S
H778 C788 0.950 . S
H779 C790 0.950 . S
H780 C792 0.950 . S
H781 C793 0.950 . S
C782 H774 0.950 . S
C782 C783 1.386 . S
C782 C784 1.391 . S
C783 C782 1.386 . S
C783 C787 1.393 . S
C784 H776 0.950 . S
C784 C782 1.391 . S
C784 C785 1.400 . S
C785 C784 1.400 . S
C785 C786 1.398 . S
C785 C791 1.491 . S
C786 H777 0.950 . S
C786 C785 1.398 . S
C786 C787 1.391 . S
C787 H775 0.950 . S
C787 C783 1.393 . S
C787 C786 1.391 . S
C788 H778 0.950 . S
C788 C789 1.386 . S
C788 C790 1.391 . S
C789 C788 1.386 . S
C789 C793 1.393 . S
C790 H779 0.950 . S
C790 C788 1.391 . S
C790 C791 1.400 . S
C791 C785 1.491 . S
C791 C790 1.400 . S
C791 C792 1.398 . S
C792 H780 0.950 . S
C792 C791 1.398 . S
C792 C793 1.391 . S
C793 H781 0.950 . S
C793 C789 1.393 . S
C793 C792 1.391 . S
H794 C802 0.950 . S
H795 C807 0.950 . S
H796 C804 0.950 . S
H797 C806 0.950 . S
H798 C808 0.950 . S
H799 C810 0.950 . S
H800 C812 0.950 . S
H801 C813 0.950 . S
C802 H794 0.950 . S
C802 C803 1.386 . S
C802 C804 1.391 . S
C803 C802 1.386 . S
C803 C807 1.393 . S
C804 H796 0.950 . S
C804 C802 1.391 . S
C804 C805 1.400 . S
C805 C804 1.400 . S
C805 C806 1.398 . S
C805 C811 1.491 . S
C806 H797 0.950 . S
C806 C805 1.398 . S
C806 C807 1.391 . S
C807 H795 0.950 . S
C807 C803 1.393 . S
C807 C806 1.391 . S
C808 H798 0.950 . S
C808 C809 1.386 . S
C808 C810 1.391 . S
C809 C808 1.386 . S
C809 C813 1.393 . S
C810 H799 0.950 . S
C810 C808 1.391 . S
C810 C811 1.400 . S
C811 C805 1.491 . S
C811 C810 1.400 . S
C811 C812 1.398 . S
C812 H800 0.950 . S
C812 C811 1.398 . S
C812 C813 1.391 . S
C813 H801 0.950 . S
C813 C809 1.393 . S
C813 C812 1.391 . S
H814 C822 0.950 . S
H815 C827 0.950 . S
H816 C824 0.950 . S
H817 C826 0.950 . S
H818 C828 0.950 . S
H819 C830 0.950 . S
H820 C832 0.950 . S
H821 C833 0.950 . S
C822 H814 0.950 . S
C822 C823 1.386 . S
C822 C824 1.391 . S
C823 C822 1.386 . S
C823 C827 1.393 . S
C824 H816 0.950 . S
C824 C822 1.391 . S
C824 C825 1.400 . S
C825 C824 1.400 . S
C825 C826 1.398 . S
C825 C831 1.491 . S
C826 H817 0.950 . S
C826 C825 1.398 . S
C826 C827 1.391 . S
C827 H815 0.950 . S
C827 C823 1.393 . S
C827 C826 1.391 . S
C828 H818 0.950 . S
C828 C829 1.386 . S
C828 C830 1.391 . S
C829 C828 1.386 . S
C829 C833 1.393 . S
C830 H819 0.950 . S
C830 C828 1.391 . S
C830 C831 1.400 . S
C831 C825 1.491 . S
C831 C830 1.400 . S
C831 C832 1.398 . S
C832 H820 0.950 . S
C832 C831 1.398 . S
C832 C833 1.391 . S
C833 H821 0.950 . S
C833 C829 1.393 . S
C833 C832 1.391 . S
H834 C842 0.950 . S
H835 C847 0.950 . S
H836 C844 0.950 . S
H837 C846 0.950 . S
H838 C848 0.950 . S
H839 C850 0.950 . S
H840 C852 0.950 . S
H841 C853 0.950 . S
C842 H834 0.950 . S
C842 C843 1.386 . S
C842 C844 1.391 . S
C843 C842 1.386 . S
C843 C847 1.393 . S
C844 H836 0.950 . S
C844 C842 1.391 . S
C844 C845 1.400 . S
C845 C844 1.400 . S
C845 C846 1.398 . S
C845 C851 1.491 1_655 S
C846 H837 0.950 . S
C846 C845 1.398 . S
C846 C847 1.391 . S
C847 H835 0.950 . S
C847 C843 1.393 . S
C847 C846 1.391 . S
C848 H838 0.950 . S
C848 C849 1.386 . S
C848 C850 1.391 . S
C849 C848 1.386 . S
C849 C853 1.393 . S
C850 H839 0.950 . S
C850 C848 1.391 . S
C850 C851 1.400 . S
C851 C845 1.491 1_455 S
C851 C850 1.400 . S
C851 C852 1.398 . S
C852 H840 0.950 . S
C852 C851 1.398 . S
C852 C853 1.391 . S
C853 H841 0.950 . S
C853 C849 1.393 . S
C853 C852 1.391 . S
H854 C862 0.950 . S
H855 C867 0.950 . S
H856 C864 0.950 . S
H857 C866 0.950 . S
H858 C868 0.950 . S
H859 C870 0.950 . S
H860 C872 0.950 . S
H861 C873 0.950 . S
C862 H854 0.950 . S
C862 C863 1.386 . S
C862 C864 1.391 . S
C863 C862 1.386 . S
C863 C867 1.393 . S
C864 H856 0.950 . S
C864 C862 1.391 . S
C864 C865 1.400 . S
C865 C864 1.400 . S
C865 C866 1.398 . S
C865 C871 1.491 . S
C866 H857 0.950 . S
C866 C865 1.398 . S
C866 C867 1.391 . S
C867 H855 0.950 . S
C867 C863 1.393 . S
C867 C866 1.391 . S
C868 H858 0.950 . S
C868 C869 1.386 . S
C868 C870 1.391 . S
C869 C868 1.386 . S
C869 C873 1.393 . S
C870 H859 0.950 . S
C870 C868 1.391 . S
C870 C871 1.400 . S
C871 C865 1.491 . S
C871 C870 1.400 . S
C871 C872 1.398 . S
C872 H860 0.950 . S
C872 C871 1.398 . S
C872 C873 1.391 . S
C873 H861 0.950 . S
C873 C869 1.393 . S
C873 C872 1.391 . S
H874 C882 0.950 . S
H875 C887 0.950 . S
H876 C884 0.950 . S
H877 C886 0.950 . S
H878 C888 0.950 . S
H879 C890 0.950 . S
H880 C892 0.950 . S
H881 C893 0.950 . S
C882 H874 0.950 . S
C882 C883 1.386 . S
C882 C884 1.391 . S
C883 C882 1.386 . S
C883 C887 1.393 . S
C884 H876 0.950 . S
C884 C882 1.391 . S
C884 C885 1.400 . S
C885 C884 1.400 . S
C885 C886 1.398 . S
C885 C891 1.491 1_545 S
C886 H877 0.950 . S
C886 C885 1.398 . S
C886 C887 1.391 . S
C887 H875 0.950 . S
C887 C883 1.393 . S
C887 C886 1.391 . S
C888 H878 0.950 . S
C888 C889 1.386 . S
C888 C890 1.391 . S
C889 C888 1.386 . S
C889 C893 1.393 . S
C890 H879 0.950 . S
C890 C888 1.391 . S
C890 C891 1.400 . S
C891 C885 1.491 1_565 S
C891 C890 1.400 . S
C891 C892 1.398 . S
C892 H880 0.950 . S
C892 C891 1.398 . S
C892 C893 1.391 . S
C893 H881 0.950 . S
C893 C889 1.393 . S
C893 C892 1.391 . S
H894 C902 0.950 . S
H895 C907 0.950 . S
H896 C904 0.950 . S
H897 C906 0.950 . S
H898 C908 0.950 . S
H899 C910 0.950 . S
H900 C912 0.950 . S
H901 C913 0.950 . S
C902 H894 0.950 . S
C902 C903 1.386 . S
C902 C904 1.391 . S
C903 C902 1.386 . S
C903 C907 1.393 . S
C904 H896 0.950 . S
C904 C902 1.391 . S
C904 C905 1.400 . S
C905 C904 1.400 . S
C905 C906 1.398 . S
C905 C911 1.491 . S
C906 H897 0.950 . S
C906 C905 1.398 . S
C906 C907 1.391 . S
C907 H895 0.950 . S
C907 C903 1.393 . S
C907 C906 1.391 . S
C908 H898 0.950 . S
C908 C909 1.386 . S
C908 C910 1.391 . S
C909 C908 1.386 . S
C909 C913 1.393 . S
C910 H899 0.950 . S
C910 C908 1.391 . S
C910 C911 1.400 . S
C911 C905 1.491 . S
C911 C910 1.400 . S
C911 C912 1.398 . S
C912 H900 0.950 . S
C912 C911 1.398 . S
C912 C913 1.391 . S
C913 H901 0.950 . S
C913 C909 1.393 . S
C913 C912 1.391 . S
H914 C922 0.950 . S
H915 C927 0.950 . S
H916 C924 0.950 . S
H917 C926 0.950 . S
H918 C928 0.950 . S
H919 C930 0.950 . S
H920 C932 0.950 . S
H921 C933 0.950 . S
C922 H914 0.950 . S
C922 C923 1.386 . S
C922 C924 1.391 . S
C923 C922 1.386 . S
C923 C927 1.393 . S
C924 H916 0.950 . S
C924 C922 1.391 . S
C924 C925 1.400 . S
C925 C924 1.400 . S
C925 C926 1.398 . S
C925 C931 1.491 . S
C926 H917 0.950 . S
C926 C925 1.398 . S
C926 C927 1.391 . S
C927 H915 0.950 . S
C927 C923 1.393 . S
C927 C926 1.391 . S
C928 H918 0.950 . S
C928 C929 1.386 . S
C928 C930 1.391 . S
C929 C928 1.386 . S
C929 C933 1.393 . S
C930 H919 0.950 . S
C930 C928 1.391 . S
C930 C931 1.400 . S
C931 C925 1.491 . S
C931 C930 1.400 . S
C931 C932 1.398 . S
C932 H920 0.950 . S
C932 C931 1.398 . S
C932 C933 1.391 . S
C933 H921 0.950 . S
C933 C929 1.393 . S
C933 C932 1.391 . S
H934 C942 0.950 . S
H935 C947 0.950 . S
H936 C944 0.950 . S
H937 C946 0.950 . S
H938 C948 0.950 . S
H939 C950 0.950 . S
H940 C952 0.950 . S
H941 C953 0.950 . S
C942 H934 0.950 . S
C942 C943 1.386 . S
C942 C944 1.391 . S
C943 C942 1.386 . S
C943 C947 1.393 . S
C944 H936 0.950 . S
C944 C942 1.391 . S
C944 C945 1.400 . S
C945 C944 1.400 . S
C945 C946 1.398 . S
C945 C951 1.491 . S
C946 H937 0.950 . S
C946 C945 1.398 . S
C946 C947 1.391 . S
C947 H935 0.950 . S
C947 C943 1.393 . S
C947 C946 1.391 . S
C948 H938 0.950 . S
C948 C949 1.386 . S
C948 C950 1.391 . S
C949 C948 1.386 . S
C949 C953 1.393 . S
C950 H939 0.950 . S
C950 C948 1.391 . S
C950 C951 1.400 . S
C951 C945 1.491 . S
C951 C950 1.400 . S
C951 C952 1.398 . S
C952 H940 0.950 . S
C952 C951 1.398 . S
C952 C953 1.391 . S
C953 H941 0.950 . S
C953 C949 1.393 . S
C953 C952 1.391 . S
H954 C962 0.950 . S
H955 C967 0.950 . S
H956 C964 0.950 . S
H957 C966 0.950 . S
H958 C968 0.950 . S
H959 C970 0.950 . S
H960 C972 0.950 . S
H961 C973 0.950 . S
C962 H954 0.950 . S
C962 C963 1.386 . S
C962 C964 1.391 . S
C963 C962 1.386 . S
C963 C967 1.393 . S
C964 H956 0.950 . S
C964 C962 1.391 . S
C964 C965 1.400 . S
C965 C964 1.400 . S
C965 C966 1.398 . S
C965 C971 1.491 . S
C966 H957 0.950 . S
C966 C965 1.398 . S
C966 C967 1.391 . S
C967 H955 0.950 . S
C967 C963 1.393 . S
C967 C966 1.391 . S
C968 H958 0.950 . S
C968 C969 1.386 . S
C968 C970 1.391 . S
C969 C968 1.386 . S
C969 C973 1.393 . S
C970 H959 0.950 . S
C970 C968 1.391 . S
C970 C971 1.400 . S
C971 C965 1.491 . S
C971 C970 1.400 . S
C971 C972 1.398 . S
C972 H960 0.950 . S
C972 C971 1.398 . S
C972 C973 1.391 . S
C973 H961 0.950 . S
C973 C969 1.393 . S
C973 C972 1.391 . S
H974 C982 0.950 . S
H975 C987 0.950 . S
H976 C984 0.950 . S
H977 C986 0.950 . S
H978 C988 0.950 . S
H979 C990 0.950 . S
H980 C992 0.950 . S
H981 C993 0.950 . S
C982 H974 0.950 . S
C982 C983 1.386 . S
C982 C984 1.391 . S
C983 C982 1.386 . S
C983 C987 1.393 . S
C984 H976 0.950 . S
C984 C982 1.391 . S
C984 C985 1.400 . S
C985 C984 1.400 . S
C985 C986 1.398 . S
C985 C991 1.491 . S
C986 H977 0.950 . S
C986 C985 1.398 . S
C986 C987 1.391 . S
C987 H975 0.950 . S
C987 C983 1.393 . S
C987 C986 1.391 . S
C988 H978 0.950 . S
C988 C989 1.386 . S
C988 C990 1.391 . S
C989 C988 1.386 . S
C989 C993 1.393 . S
C990 H979 0.950 . S
C990 C988 1.391 . S
C990 C991 1.400 . S
C991 C985 1.491 . S
C991 C990 1.400 . S
C991 C992 1.398 . S
C992 H980 0.950 . S
C992 C991 1.398 . S
C992 C993 1.391 . S
C993 H981 0.950 . S
C993 C989 1.393 . S
C993 C992 1.391 . S
H994 C1002 0.950 . S
H995 C1007 0.950 . S
H996 C1004 0.950 . S
H997 C1006 0.950 . S
H998 C1008 0.950 . S
H999 C1010 0.950 . S
H1000 C1012 0.950 . S
H1001 C1013 0.950 . S
C1002 H994 0.950 . S
C1002 C1003 1.386 . S
C1002 C1004 1.391 . S
C1003 C1002 1.386 . S
C1003 C1007 1.393 . S
C1004 H996 0.950 . S
C1004 C1002 1.391 . S
C1004 C1005 1.400 . S
C1005 C1004 1.400 . S
C1005 C1006 1.398 . S
C1005 C1011 1.491 . S
C1006 H997 0.950 . S
C1006 C1005 1.398 . S
C1006 C1007 1.391 . S
C1007 H995 0.950 . S
C1007 C1003 1.393 . S
C1007 C1006 1.391 . S
C1008 H998 0.950 . S
C1008 C1009 1.386 . S
C1008 C1010 1.391 . S
C1009 C1008 1.386 . S
C1009 C1013 1.393 . S
C1010 H999 0.950 . S
C1010 C1008 1.391 . S
C1010 C1011 1.400 . S
C1011 C1005 1.491 . S
C1011 C1010 1.400 . S
C1011 C1012 1.398 . S
C1012 H1000 0.950 . S
C1012 C1011 1.398 . S
C1012 C1013 1.391 . S
C1013 H1001 0.950 . S
C1013 C1009 1.393 . S
C1013 C1012 1.391 . S
H1014 C1022 0.950 . S
H1015 C1027 0.950 . S
H1016 C1024 0.950 . S
H1017 C1026 0.950 . S
H1018 C1028 0.950 . S
H1019 C1030 0.950 . S
H1020 C1032 0.950 . S
H1021 C1033 0.950 . S
C1022 H1014 0.950 . S
C1022 C1023 1.386 . S
C1022 C1024 1.391 . S
C1023 C1022 1.386 . S
C1023 C1027 1.393 . S
C1024 H1016 0.950 . S
C1024 C1022 1.391 . S
C1024 C1025 1.400 . S
C1025 C1024 1.400 . S
C1025 C1026 1.398 . S
C1025 C1031 1.491 1_545 S
C1026 H1017 0.950 . S
C1026 C1025 1.398 . S
C1026 C1027 1.391 . S
C1027 H1015 0.950 . S
C1027 C1023 1.393 . S
C1027 C1026 1.391 . S
C1028 H1018 0.950 . S
C1028 C1029 1.386 . S
C1028 C1030 1.391 . S
C1029 C1028 1.386 . S
C1029 C1033 1.393 . S
C1030 H1019 0.950 . S
C1030 C1028 1.391 . S
C1030 C1031 1.400 . S
C1031 C1025 1.491 1_565 S
C1031 C1030 1.400 . S
C1031 C1032 1.398 . S
C1032 H1020 0.950 . S
C1032 C1031 1.398 . S
C1032 C1033 1.391 . S
C1033 H1021 0.950 . S
C1033 C1029 1.393 . S
C1033 C1032 1.391 . S
H1034 C1042 0.950 . S
H1035 C1047 0.950 . S
H1036 C1044 0.950 1_455 S
H1037 C1046 0.950 . S
H1038 C1048 0.950 . S
H1039 C1050 0.950 . S
H1040 C1052 0.950 . S
H1041 C1053 0.950 . S
C1042 H1034 0.950 . S
C1042 C1043 1.386 . S
C1042 C1044 1.391 . S
C1043 C1042 1.386 . S
C1043 C1047 1.393 . S
C1044 H1036 0.950 1_655 S
C1044 C1042 1.391 . S
C1044 C1045 1.400 1_655 S
C1045 C1044 1.400 1_455 S
C1045 C1046 1.398 1_455 S
C1045 C1051 1.491 . S
C1046 H1037 0.950 . S
C1046 C1045 1.398 1_655 S
C1046 C1047 1.391 . S
C1047 H1035 0.950 . S
C1047 C1043 1.393 . S
C1047 C1046 1.391 . S
C1048 H1038 0.950 . S
C1048 C1049 1.386 . S
C1048 C1050 1.391 . S
C1049 C1048 1.386 . S
C1049 C1053 1.393 . S
C1050 H1039 0.950 . S
C1050 C1048 1.391 . S
C1050 C1051 1.400 . S
C1051 C1045 1.491 . S
C1051 C1050 1.400 . S
C1051 C1052 1.398 . S
C1052 H1040 0.950 . S
C1052 C1051 1.398 . S
C1052 C1053 1.391 . S
C1053 H1041 0.950 . S
C1053 C1049 1.393 . S
C1053 C1052 1.391 . S
H1054 C1062 0.950 . S
H1055 C1067 0.950 . S
H1056 C1064 0.950 . S
H1057 C1066 0.950 . S
H1058 C1068 0.950 . S
H1059 C1070 0.950 . S
H1060 C1072 0.950 . S
H1061 C1073 0.950 . S
C1062 H1054 0.950 . S
C1062 C1063 1.386 . S
C1062 C1064 1.391 . S
C1063 C1062 1.386 . S
C1063 C1067 1.393 . S
C1064 H1056 0.950 . S
C1064 C1062 1.391 . S
C1064 C1065 1.400 . S
C1065 C1064 1.400 . S
C1065 C1066 1.398 . S
C1065 C1071 1.491 . S
C1066 H1057 0.950 . S
C1066 C1065 1.398 . S
C1066 C1067 1.391 . S
C1067 H1055 0.950 . S
C1067 C1063 1.393 . S
C1067 C1066 1.391 . S
C1068 H1058 0.950 . S
C1068 C1069 1.386 . S
C1068 C1070 1.391 . S
C1069 C1068 1.386 . S
C1069 C1073 1.393 . S
C1070 H1059 0.950 . S
C1070 C1068 1.391 . S
C1070 C1071 1.400 . S
C1071 C1065 1.491 . S
C1071 C1070 1.400 . S
C1071 C1072 1.398 . S
C1072 H1060 0.950 . S
C1072 C1071 1.398 . S
C1072 C1073 1.391 . S
C1073 H1061 0.950 . S
C1073 C1069 1.393 . S
C1073 C1072 1.391 . S
H1074 C1082 0.950 . S
H1075 C1087 0.950 . S
H1076 C1084 0.950 . S
H1077 C1086 0.950 . S
H1078 C1088 0.950 . S
H1079 C1090 0.950 . S
H1080 C1092 0.950 . S
H1081 C1093 0.950 . S
C1082 H1074 0.950 . S
C1082 C1083 1.386 . S
C1082 C1084 1.391 . S
C1083 C1082 1.386 . S
C1083 C1087 1.393 . S
C1084 H1076 0.950 . S
C1084 C1082 1.391 . S
C1084 C1085 1.400 . S
C1085 C1084 1.400 . S
C1085 C1086 1.398 . S
C1085 C1091 1.491 . S
C1086 H1077 0.950 . S
C1086 C1085 1.398 . S
C1086 C1087 1.391 . S
C1087 H1075 0.950 . S
C1087 C1083 1.393 . S
C1087 C1086 1.391 . S
C1088 H1078 0.950 . S
C1088 C1089 1.386 . S
C1088 C1090 1.391 . S
C1089 C1088 1.386 . S
C1089 C1093 1.393 . S
C1090 H1079 0.950 . S
C1090 C1088 1.391 . S
C1090 C1091 1.400 . S
C1091 C1085 1.491 . S
C1091 C1090 1.400 . S
C1091 C1092 1.398 . S
C1092 H1080 0.950 . S
C1092 C1091 1.398 . S
C1092 C1093 1.391 . S
C1093 H1081 0.950 . S
C1093 C1089 1.393 . S
C1093 C1092 1.391 . S
H1094 C1102 0.950 . S
H1095 C1107 0.950 . S
H1096 C1104 0.950 . S
H1097 C1106 0.950 . S
H1098 C1108 0.950 . S
H1099 C1110 0.950 . S
H1100 C1112 0.950 . S
H1101 C1113 0.950 . S
C1102 H1094 0.950 . S
C1102 C1103 1.386 . S
C1102 C1104 1.391 . S
C1103 C1102 1.386 . S
C1103 C1107 1.393 . S
C1104 H1096 0.950 . S
C1104 C1102 1.391 . S
C1104 C1105 1.400 . S
C1105 C1104 1.400 . S
C1105 C1106 1.398 . S
C1105 C1111 1.491 . S
C1106 H1097 0.950 . S
C1106 C1105 1.398 . S
C1106 C1107 1.391 . S
C1107 H1095 0.950 . S
C1107 C1103 1.393 . S
C1107 C1106 1.391 . S
C1108 H1098 0.950 . S
C1108 C1109 1.386 . S
C1108 C1110 1.391 . S
C1109 C1108 1.386 . S
C1109 C1113 1.393 . S
C1110 H1099 0.950 . S
C1110 C1108 1.391 . S
C1110 C1111 1.400 . S
C1111 C1105 1.491 . S
C1111 C1110 1.400 . S
C1111 C1112 1.398 . S
C1112 H1100 0.950 . S
C1112 C1111 1.398 . S
C1112 C1113 1.391 . S
C1113 H1101 0.950 . S
C1113 C1109 1.393 . S
C1113 C1112 1.391 . S
H1114 C1122 0.950 . S
H1115 C1127 0.950 . S
H1116 C1124 0.950 . S
H1117 C1126 0.950 . S
H1118 C1128 0.950 . S
H1119 C1130 0.950 . S
H1120 C1132 0.950 . S
H1121 C1133 0.950 . S
C1122 H1114 0.950 . S
C1122 C1123 1.386 . S
C1122 C1124 1.391 . S
C1123 C1122 1.386 . S
C1123 C1127 1.393 . S
C1124 H1116 0.950 . S
C1124 C1122 1.391 . S
C1124 C1125 1.400 . S
C1125 C1124 1.400 . S
C1125 C1126 1.398 . S
C1125 C1131 1.491 . S
C1126 H1117 0.950 . S
C1126 C1125 1.398 . S
C1126 C1127 1.391 . S
C1127 H1115 0.950 . S
C1127 C1123 1.393 . S
C1127 C1126 1.391 . S
C1128 H1118 0.950 . S
C1128 C1129 1.386 . S
C1128 C1130 1.391 . S
C1129 C1128 1.386 . S
C1129 C1133 1.393 . S
C1130 H1119 0.950 . S
C1130 C1128 1.391 . S
C1130 C1131 1.400 . S
C1131 C1125 1.491 . S
C1131 C1130 1.400 . S
C1131 C1132 1.398 . S
C1132 H1120 0.950 . S
C1132 C1131 1.398 . S
C1132 C1133 1.391 . S
C1133 H1121 0.950 . S
C1133 C1129 1.393 . S
C1133 C1132 1.391 . S
H1134 C1142 0.950 . S
H1135 C1147 0.950 . S
H1136 C1144 0.950 . S
H1137 C1146 0.950 . S
H1138 C1148 0.950 . S
H1139 C1150 0.950 . S
H1140 C1152 0.950 . S
H1141 C1153 0.950 . S
C1142 H1134 0.950 . S
C1142 C1143 1.386 . S
C1142 C1144 1.391 . S
C1143 C1142 1.386 . S
C1143 C1147 1.393 . S
C1144 H1136 0.950 . S
C1144 C1142 1.391 . S
C1144 C1145 1.381 1_565 S
C1145 C1144 1.381 1_545 S
C1145 C1146 1.399 1_545 S
C1145 C1151 1.509 . S
C1146 H1137 0.950 . S
C1146 C1145 1.399 1_565 S
C1146 C1147 1.391 . S
C1147 H1135 0.950 . S
C1147 C1143 1.393 . S
C1147 C1146 1.391 . S
C1148 H1138 0.950 . S
C1148 C1149 1.386 . S
C1148 C1150 1.391 . S
C1149 C1148 1.386 . S
C1149 C1153 1.393 . S
C1150 H1139 0.950 . S
C1150 C1148 1.391 . S
C1150 C1151 1.400 . S
C1151 C1145 1.509 . S
C1151 C1150 1.400 . S
C1151 C1152 1.398 . S
C1152 H1140 0.950 . S
C1152 C1151 1.398 . S
C1152 C1153 1.391 . S
C1153 H1141 0.950 . S
C1153 C1149 1.393 . S
C1153 C1152 1.391 . S
H1154 C1162 0.950 . S
H1155 C1167 0.950 . S
H1156 C1164 0.950 . S
H1157 C1166 0.950 . S
H1158 C1168 0.950 . S
H1159 C1170 0.950 . S
H1160 C1172 0.950 . S
H1161 C1173 0.950 . S
C1162 H1154 0.950 . S
C1162 C1163 1.386 . S
C1162 C1164 1.391 1_455 S
C1163 C1162 1.386 . S
C1163 C1167 1.393 . S
C1164 H1156 0.950 . S
C1164 C1162 1.391 1_655 S
C1164 C1165 1.400 . S
C1165 C1164 1.400 . S
C1165 C1166 1.398 1_655 S
C1165 C1171 1.491 . S
C1166 H1157 0.950 . S
C1166 C1165 1.398 1_455 S
C1166 C1167 1.391 . S
C1167 H1155 0.950 . S
C1167 C1163 1.393 . S
C1167 C1166 1.391 . S
C1168 H1158 0.950 . S
C1168 C1169 1.386 . S
C1168 C1170 1.391 . S
C1169 C1168 1.386 . S
C1169 C1173 1.393 . S
C1170 H1159 0.950 . S
C1170 C1168 1.391 . S
C1170 C1171 1.400 . S
C1171 C1165 1.491 . S
C1171 C1170 1.400 . S
C1171 C1172 1.398 . S
C1172 H1160 0.950 . S
C1172 C1171 1.398 . S
C1172 C1173 1.391 . S
C1173 H1161 0.950 . S
C1173 C1169 1.393 . S
C1173 C1172 1.391 . S
H1174 C1182 0.950 . S
H1175 C1187 0.950 . S
H1176 C1184 0.950 . S
H1177 C1186 0.950 . S
H1178 C1188 0.950 . S
H1179 C1190 0.950 . S
H1180 C1192 0.950 . S
H1181 C1193 0.950 . S
C1182 H1174 0.950 . S
C1182 C1183 1.386 . S
C1182 C1184 1.391 . S
C1183 C1182 1.386 . S
C1183 C1187 1.393 . S
C1184 H1176 0.950 . S
C1184 C1182 1.391 . S
C1184 C1185 1.400 . S
C1185 C1184 1.400 . S
C1185 C1186 1.398 . S
C1185 C1191 1.491 . S
C1186 H1177 0.950 . S
C1186 C1185 1.398 . S
C1186 C1187 1.391 . S
C1187 H1175 0.950 . S
C1187 C1183 1.393 . S
C1187 C1186 1.391 . S
C1188 H1178 0.950 . S
C1188 C1189 1.386 . S
C1188 C1190 1.391 . S
C1189 C1188 1.386 . S
C1189 C1193 1.393 . S
C1190 H1179 0.950 . S
C1190 C1188 1.391 . S
C1190 C1191 1.400 . S
C1191 C1185 1.491 . S
C1191 C1190 1.400 . S
C1191 C1192 1.398 . S
C1192 H1180 0.950 . S
C1192 C1191 1.398 . S
C1192 C1193 1.391 . S
C1193 H1181 0.950 . S
C1193 C1189 1.393 . S
C1193 C1192 1.391 . S
H1194 C1202 0.950 . S
H1195 C1207 0.950 . S
H1196 C1204 0.950 . S
H1197 C1206 0.950 . S
H1198 C1208 0.950 . S
H1199 C1210 0.950 . S
H1200 C1212 0.950 . S
H1201 C1213 0.950 . S
C1202 H1194 0.950 . S
C1202 C1203 1.386 . S
C1202 C1204 1.391 . S
C1203 C1202 1.386 . S
C1203 C1207 1.393 . S
C1204 H1196 0.950 . S
C1204 C1202 1.391 . S
C1204 C1205 1.400 . S
C1205 C1204 1.400 . S
C1205 C1206 1.398 . S
C1205 C1211 1.491 . S
C1206 H1197 0.950 . S
C1206 C1205 1.398 . S
C1206 C1207 1.391 . S
C1207 H1195 0.950 . S
C1207 C1203 1.393 . S
C1207 C1206 1.391 . S
C1208 H1198 0.950 . S
C1208 C1209 1.386 . S
C1208 C1210 1.391 . S
C1209 C1208 1.386 . S
C1209 C1213 1.393 . S
C1210 H1199 0.950 . S
C1210 C1208 1.391 . S
C1210 C1211 1.400 1_655 S
C1211 C1205 1.491 . S
C1211 C1210 1.400 1_455 S
C1211 C1212 1.398 . S
C1212 H1200 0.950 . S
C1212 C1211 1.398 . S
C1212 C1213 1.391 1_455 S
C1213 H1201 0.950 . S
C1213 C1209 1.393 . S
C1213 C1212 1.391 1_655 S
H1214 C1222 0.950 . S
H1215 C1227 0.950 . S
H1216 C1224 0.950 . S
H1217 C1226 0.950 . S
H1218 C1228 0.950 . S
H1219 C1230 0.950 . S
H1220 C1232 0.950 . S
H1221 C1233 0.950 . S
C1222 H1214 0.950 . S
C1222 C1223 1.386 . S
C1222 C1224 1.391 . S
C1223 C1222 1.386 . S
C1223 C1227 1.393 . S
C1224 H1216 0.950 . S
C1224 C1222 1.391 . S
C1224 C1225 1.400 . S
C1225 C1224 1.400 . S
C1225 C1226 1.398 . S
C1225 C1231 1.491 . S
C1226 H1217 0.950 . S
C1226 C1225 1.398 . S
C1226 C1227 1.391 . S
C1227 H1215 0.950 . S
C1227 C1223 1.393 . S
C1227 C1226 1.391 . S
C1228 H1218 0.950 . S
C1228 C1229 1.386 . S
C1228 C1230 1.391 . S
C1229 C1228 1.386 . S
C1229 C1233 1.393 . S
C1230 H1219 0.950 . S
C1230 C1228 1.391 . S
C1230 C1231 1.400 . S
C1231 C1225 1.491 . S
C1231 C1230 1.400 . S
C1231 C1232 1.398 . S
C1232 H1220 0.950 . S
C1232 C1231 1.398 . S
C1232 C1233 1.391 . S
C1233 H1221 0.950 . S
C1233 C1229 1.393 . S
C1233 C1232 1.391 . S
H1234 C1242 0.950 . S
H1235 C1247 0.950 . S
H1236 C1244 0.950 . S
H1237 C1246 0.950 . S
H1238 C1248 0.950 . S
H1239 C1250 0.950 . S
H1240 C1252 0.950 . S
H1241 C1253 0.950 . S
C1242 H1234 0.950 . S
C1242 C1243 1.386 . S
C1242 C1244 1.391 . S
C1243 C1242 1.386 . S
C1243 C1247 1.393 . S
C1244 H1236 0.950 . S
C1244 C1242 1.391 . S
C1244 C1245 1.400 . S
C1245 C1244 1.400 . S
C1245 C1246 1.398 . S
C1245 C1251 1.491 1_565 S
C1246 H1237 0.950 . S
C1246 C1245 1.398 . S
C1246 C1247 1.391 . S
C1247 H1235 0.950 . S
C1247 C1243 1.393 . S
C1247 C1246 1.391 . S
C1248 H1238 0.950 . S
C1248 C1249 1.386 . S
C1248 C1250 1.391 . S
C1249 C1248 1.386 . S
C1249 C1253 1.393 . S
C1250 H1239 0.950 . S
C1250 C1248 1.391 . S
C1250 C1251 1.400 . S
C1251 C1245 1.491 1_545 S
C1251 C1250 1.400 . S
C1251 C1252 1.398 . S
C1252 H1240 0.950 . S
C1252 C1251 1.398 . S
C1252 C1253 1.391 . S
C1253 H1241 0.950 . S
C1253 C1249 1.393 . S
C1253 C1252 1.391 . S
H1254 C1262 0.950 . S
H1255 C1267 0.950 . S
H1256 C1264 0.950 . S
H1257 C1266 0.950 . S
H1258 C1268 0.950 . S
H1259 C1270 0.950 . S
H1260 C1272 0.950 . S
H1261 C1273 0.950 . S
C1262 H1254 0.950 . S
C1262 C1263 1.386 . S
C1262 C1264 1.391 . S
C1263 C1262 1.386 . S
C1263 C1267 1.393 . S
C1264 H1256 0.950 . S
C1264 C1262 1.391 . S
C1264 C1265 1.400 . S
C1265 C1264 1.400 . S
C1265 C1266 1.398 . S
C1265 C1271 1.491 . S
C1266 H1257 0.950 . S
C1266 C1265 1.398 . S
C1266 C1267 1.391 . S
C1267 H1255 0.950 . S
C1267 C1263 1.393 . S
C1267 C1266 1.391 . S
C1268 H1258 0.950 . S
C1268 C1269 1.386 . S
C1268 C1270 1.391 . S
C1269 C1268 1.386 . S
C1269 C1273 1.393 . S
C1270 H1259 0.950 . S
C1270 C1268 1.391 . S
C1270 C1271 1.400 . S
C1271 C1265 1.491 . S
C1271 C1270 1.400 . S
C1271 C1272 1.398 . S
C1272 H1260 0.950 . S
C1272 C1271 1.398 . S
C1272 C1273 1.391 . S
C1273 H1261 0.950 . S
C1273 C1269 1.393 . S
C1273 C1272 1.391 . S
H1274 C1282 0.950 . S
H1275 C1287 0.950 . S
H1276 C1284 0.950 . S
H1277 C1286 0.950 . S
H1278 C1288 0.950 . S
H1279 C1290 0.950 . S
H1280 C1292 0.950 . S
H1281 C1293 0.950 . S
C1282 H1274 0.950 . S
C1282 C1283 1.386 . S
C1282 C1284 1.391 . S
C1283 C1282 1.386 . S
C1283 C1287 1.393 . S
C1284 H1276 0.950 . S
C1284 C1282 1.391 . S
C1284 C1285 1.400 . S
C1285 C1284 1.400 . S
C1285 C1286 1.398 . S
C1285 C1291 1.491 . S
C1286 H1277 0.950 . S
C1286 C1285 1.398 . S
C1286 C1287 1.391 . S
C1287 H1275 0.950 . S
C1287 C1283 1.393 . S
C1287 C1286 1.391 . S
C1288 H1278 0.950 . S
C1288 C1289 1.386 . S
C1288 C1290 1.391 . S
C1289 C1288 1.386 . S
C1289 C1293 1.393 . S
C1290 H1279 0.950 . S
C1290 C1288 1.391 . S
C1290 C1291 1.400 . S
C1291 C1285 1.491 . S
C1291 C1290 1.400 . S
C1291 C1292 1.398 . S
C1292 H1280 0.950 . S
C1292 C1291 1.398 . S
C1292 C1293 1.391 . S
C1293 H1281 0.950 . S
C1293 C1289 1.393 . S
C1293 C1292 1.391 . S
H1294 C1302 0.950 . S
H1295 C1307 0.950 . S
H1296 C1304 0.950 . S
H1297 C1306 0.950 . S
H1298 C1308 0.950 . S
H1299 C1310 0.950 . S
H1300 C1312 0.950 . S
H1301 C1313 0.950 . S
C1302 H1294 0.950 . S
C1302 C1303 1.386 . S
C1302 C1304 1.391 . S
C1303 C1302 1.386 . S
C1303 C1307 1.393 . S
C1304 H1296 0.950 . S
C1304 C1302 1.391 . S
C1304 C1305 1.400 . S
C1305 C1304 1.400 . S
C1305 C1306 1.398 . S
C1305 C1311 1.491 . S
C1306 H1297 0.950 . S
C1306 C1305 1.398 . S
C1306 C1307 1.391 . S
C1307 H1295 0.950 . S
C1307 C1303 1.393 . S
C1307 C1306 1.391 . S
C1308 H1298 0.950 . S
C1308 C1309 1.386 . S
C1308 C1310 1.391 . S
C1309 C1308 1.386 . S
C1309 C1313 1.393 . S
C1310 H1299 0.950 . S
C1310 C1308 1.391 . S
C1310 C1311 1.400 . S
C1311 C1305 1.491 . S
C1311 C1310 1.400 . S
C1311 C1312 1.398 . S
C1312 H1300 0.950 . S
C1312 C1311 1.398 . S
C1312 C1313 1.391 . S
C1313 H1301 0.950 . S
C1313 C1309 1.393 . S
C1313 C1312 1.391 . S
H1314 C1322 0.950 . S
H1315 C1327 0.950 . S
H1316 C1324 0.950 . S
H1317 C1326 0.950 . S
H1318 C1328 0.950 . S
H1319 C1330 0.950 . S
H1320 C1332 0.950 . S
H1321 C1333 0.950 . S
C1322 H1314 0.950 . S
C1322 C1323 1.386 . S
C1322 C1324 1.391 . S
C1323 C1322 1.386 . S
C1323 C1327 1.393 . S
C1324 H1316 0.950 . S
C1324 C1322 1.391 . S
C1324 C1325 1.400 . S
C1325 C1324 1.400 . S
C1325 C1326 1.398 . S
C1325 C1331 1.491 . S
C1326 H1317 0.950 . S
C1326 C1325 1.398 . S
C1326 C1327 1.391 . S
C1327 H1315 0.950 . S
C1327 C1323 1.393 . S
C1327 C1326 1.391 . S
C1328 H1318 0.950 . S
C1328 C1329 1.386 . S
C1328 C1330 1.391 . S
C1329 C1328 1.386 . S
C1329 C1333 1.393 . S
C1330 H1319 0.950 . S
C1330 C1328 1.391 . S
C1330 C1331 1.400 . S
C1331 C1325 1.491 . S
C1331 C1330 1.400 . S
C1331 C1332 1.398 . S
C1332 H1320 0.950 . S
C1332 C1331 1.398 . S
C1332 C1333 1.391 . S
C1333 H1321 0.950 . S
C1333 C1329 1.393 . S
C1333 C1332 1.391 . S
H1334 C1342 0.950 . S
H1335 C1347 0.950 . S
H1336 C1344 0.950 . S
H1337 C1346 0.950 . S
H1338 C1348 0.950 . S
H1339 C1350 0.950 . S
H1340 C1352 0.950 . S
H1341 C1353 0.950 . S
C1342 H1334 0.950 . S
C1342 C1343 1.386 . S
C1342 C1344 1.391 . S
C1343 C1342 1.386 . S
C1343 C1347 1.393 . S
C1344 H1336 0.950 . S
C1344 C1342 1.391 . S
C1344 C1345 1.400 . S
C1345 C1344 1.400 . S
C1345 C1346 1.398 . S
C1345 C1351 1.491 . S
C1346 H1337 0.950 . S
C1346 C1345 1.398 . S
C1346 C1347 1.391 . S
C1347 H1335 0.950 . S
C1347 C1343 1.393 . S
C1347 C1346 1.391 . S
C1348 H1338 0.950 . S
C1348 C1349 1.386 . S
C1348 C1350 1.391 . S
C1349 C1348 1.386 . S
C1349 C1353 1.393 . S
C1350 H1339 0.950 . S
C1350 C1348 1.391 . S
C1350 C1351 1.400 . S
C1351 C1345 1.491 . S
C1351 C1350 1.400 . S
C1351 C1352 1.398 . S
C1352 H1340 0.950 . S
C1352 C1351 1.398 . S
C1352 C1353 1.391 . S
C1353 H1341 0.950 . S
C1353 C1349 1.393 . S
C1353 C1352 1.391 . S
H1354 C1362 0.950 . S
H1355 C1367 0.950 . S
H1356 C1364 0.950 . S
H1357 C1366 0.950 . S
H1358 C1368 0.950 . S
H1359 C1370 0.950 . S
H1360 C1372 0.950 . S
H1361 C1373 0.950 . S
C1362 H1354 0.950 . S
C1362 C1363 1.386 . S
C1362 C1364 1.391 . S
C1363 C1362 1.386 . S
C1363 C1367 1.393 . S
C1364 H1356 0.950 . S
C1364 C1362 1.391 . S
C1364 C1365 1.400 . S
C1365 C1364 1.400 . S
C1365 C1366 1.398 . S
C1365 C1371 1.491 . S
C1366 H1357 0.950 . S
C1366 C1365 1.398 . S
C1366 C1367 1.391 . S
C1367 H1355 0.950 . S
C1367 C1363 1.393 . S
C1367 C1366 1.391 . S
C1368 H1358 0.950 . S
C1368 C1369 1.386 . S
C1368 C1370 1.391 . S
C1369 C1368 1.386 . S
C1369 C1373 1.393 . S
C1370 H1359 0.950 . S
C1370 C1368 1.391 . S
C1370 C1371 1.400 . S
C1371 C1365 1.491 . S
C1371 C1370 1.400 . S
C1371 C1372 1.398 . S
C1372 H1360 0.950 . S
C1372 C1371 1.398 . S
C1372 C1373 1.391 . S
C1373 H1361 0.950 . S
C1373 C1369 1.393 . S
C1373 C1372 1.391 . S
H1374 C1382 0.950 . S
H1375 C1387 0.950 . S
H1376 C1384 0.950 . S
H1377 C1386 0.950 . S
H1378 C1388 0.950 . S
H1379 C1390 0.950 . S
H1380 C1392 0.950 . S
H1381 C1393 0.966 . S
C1382 H1374 0.950 . S
C1382 C1383 1.386 . S
C1382 C1384 1.391 . S
C1383 C1382 1.386 . S
C1383 C1387 1.393 . S
C1384 H1376 0.950 . S
C1384 C1382 1.391 . S
C1384 C1385 1.400 . S
C1385 C1384 1.400 . S
C1385 C1386 1.398 . S
C1385 C1391 1.491 . S
C1386 H1377 0.950 . S
C1386 C1385 1.398 . S
C1386 C1387 1.391 . S
C1387 H1375 0.950 . S
C1387 C1383 1.393 . S
C1387 C1386 1.391 . S
C1388 H1378 0.950 . S
C1388 C1389 1.386 . S
C1388 C1390 1.391 . S
C1389 C1388 1.386 . S
C1389 C1393 1.393 . S
C1390 H1379 0.950 . S
C1390 C1388 1.391 . S
C1390 C1391 1.400 . S
C1391 C1385 1.491 . S
C1391 C1390 1.400 . S
C1391 C1392 1.398 . S
C1392 H1380 0.950 . S
C1392 C1391 1.398 . S
C1392 C1393 1.391 . S
C1393 H1381 0.966 . S
C1393 C1389 1.393 . S
C1393 C1392 1.391 . S
H1394 C1402 0.950 . S
H1395 C1407 0.950 . S
H1396 C1404 0.950 . S
H1397 C1406 0.950 . S
H1398 C1408 0.950 . S
H1399 C1410 0.950 . S
H1400 C1412 0.950 . S
H1401 C1413 0.950 . S
C1402 H1394 0.950 . S
C1402 C1403 1.386 . S
C1402 C1404 1.391 . S
C1403 C1402 1.386 . S
C1403 C1407 1.393 . S
C1404 H1396 0.950 . S
C1404 C1402 1.391 . S
C1404 C1405 1.400 . S
C1405 C1404 1.400 . S
C1405 C1406 1.398 . S
C1405 C1411 1.491 . S
C1406 H1397 0.950 . S
C1406 C1405 1.398 . S
C1406 C1407 1.391 . S
C1407 H1395 0.950 . S
C1407 C1403 1.393 . S
C1407 C1406 1.391 . S
C1408 H1398 0.950 . S
C1408 C1409 1.386 . S
C1408 C1410 1.391 . S
C1409 C1408 1.386 . S
C1409 C1413 1.393 . S
C1410 H1399 0.950 . S
C1410 C1408 1.391 . S
C1410 C1411 1.400 . S
C1411 C1405 1.491 . S
C1411 C1410 1.400 . S
C1411 C1412 1.398 . S
C1412 H1400 0.950 . S
C1412 C1411 1.398 . S
C1412 C1413 1.391 . S
C1413 H1401 0.950 . S
C1413 C1409 1.393 . S
C1413 C1412 1.391 . S
H1414 C1422 0.950 . S
H1415 C1427 0.950 . S
H1416 C1424 0.950 . S
H1417 C1426 0.950 . S
H1418 C1428 0.950 . S
H1419 C1430 0.950 . S
H1420 C1432 0.950 . S
H1421 C1433 0.950 . S
C1422 H1414 0.950 . S
C1422 C1423 1.386 . S
C1422 C1424 1.391 . S
C1423 C1422 1.386 . S
C1423 C1427 1.393 . S
C1424 H1416 0.950 . S
C1424 C1422 1.391 . S
C1424 C1425 1.400 . S
C1425 C1424 1.400 . S
C1425 C1426 1.398 . S
C1425 C1431 1.491 . S
C1426 H1417 0.950 . S
C1426 C1425 1.398 . S
C1426 C1427 1.391 . S
C1427 H1415 0.950 . S
C1427 C1423 1.393 . S
C1427 C1426 1.391 . S
C1428 H1418 0.950 . S
C1428 C1429 1.386 . S
C1428 C1430 1.391 . S
C1429 C1428 1.386 . S
C1429 C1433 1.393 . S
C1430 H1419 0.950 . S
C1430 C1428 1.391 . S
C1430 C1431 1.400 . S
C1431 C1425 1.491 . S
C1431 C1430 1.400 . S
C1431 C1432 1.398 . S
C1432 H1420 0.950 . S
C1432 C1431 1.398 . S
C1432 C1433 1.391 . S
C1433 H1421 0.950 . S
C1433 C1429 1.393 . S
C1433 C1432 1.391 . S
H1434 C1442 0.950 . S
H1435 C1447 0.950 . S
H1436 C1444 0.950 . S
H1437 C1446 0.950 . S
H1438 C1448 0.950 . S
H1439 C1450 0.950 . S
H1440 C1452 0.950 . S
H1441 C1453 0.950 . S
C1442 H1434 0.950 . S
C1442 C1443 1.386 . S
C1442 C1444 1.391 . S
C1443 C1442 1.386 . S
C1443 C1447 1.393 . S
C1444 H1436 0.950 . S
C1444 C1442 1.391 . S
C1444 C1445 1.400 . S
C1445 C1444 1.400 . S
C1445 C1446 1.398 . S
C1445 C1451 1.491 . S
C1446 H1437 0.950 . S
C1446 C1445 1.398 . S
C1446 C1447 1.391 . S
C1447 H1435 0.950 . S
C1447 C1443 1.393 . S
C1447 C1446 1.391 . S
C1448 H1438 0.950 . S
C1448 C1449 1.386 . S
C1448 C1450 1.391 . S
C1449 C1448 1.386 . S
C1449 C1453 1.393 . S
C1450 H1439 0.950 . S
C1450 C1448 1.391 . S
C1450 C1451 1.400 . S
C1451 C1445 1.491 . S
C1451 C1450 1.400 . S
C1451 C1452 1.398 . S
C1452 H1440 0.950 . S
C1452 C1451 1.398 . S
C1452 C1453 1.391 . S
C1453 H1441 0.950 . S
C1453 C1449 1.393 . S
C1453 C1452 1.391 . S
H1454 C1462 0.950 . S
H1455 C1467 0.950 . S
H1456 C1464 0.950 . S
H1457 C1466 0.950 . S
H1458 C1468 0.950 . S
H1459 C1470 0.950 . S
H1460 C1472 0.950 . S
H1461 C1473 0.950 . S
C1462 H1454 0.950 . S
C1462 C1463 1.386 . S
C1462 C1464 1.391 . S
C1463 C1462 1.386 . S
C1463 C1467 1.393 . S
C1464 H1456 0.950 . S
C1464 C1462 1.391 . S
C1464 C1465 1.400 . S
C1465 C1464 1.400 . S
C1465 C1466 1.398 . S
C1465 C1471 1.491 . S
C1466 H1457 0.950 . S
C1466 C1465 1.398 . S
C1466 C1467 1.391 . S
C1467 H1455 0.950 . S
C1467 C1463 1.393 . S
C1467 C1466 1.391 . S
C1468 H1458 0.950 . S
C1468 C1469 1.386 . S
C1468 C1470 1.391 . S
C1469 C1468 1.386 . S
C1469 C1473 1.393 . S
C1470 H1459 0.950 . S
C1470 C1468 1.391 . S
C1470 C1471 1.400 . S
C1471 C1465 1.491 . S
C1471 C1470 1.400 . S
C1471 C1472 1.398 . S
C1472 H1460 0.950 . S
C1472 C1471 1.398 . S
C1472 C1473 1.391 . S
C1473 H1461 0.950 . S
C1473 C1469 1.393 . S
C1473 C1472 1.391 . S
H1474 C1482 0.950 . S
H1475 C1487 0.950 . S
H1476 C1484 0.950 . S
H1477 C1486 0.950 . S
H1478 C1488 0.950 . S
H1479 C1490 0.950 . S
H1480 C1492 0.950 . S
H1481 C1493 0.950 . S
C1482 H1474 0.950 . S
C1482 C1483 1.386 . S
C1482 C1484 1.391 . S
C1483 C1482 1.386 . S
C1483 C1487 1.393 . S
C1484 H1476 0.950 . S
C1484 C1482 1.391 . S
C1484 C1485 1.400 . S
C1485 C1484 1.400 . S
C1485 C1486 1.398 . S
C1485 C1491 1.491 . S
C1486 H1477 0.950 . S
C1486 C1485 1.398 . S
C1486 C1487 1.391 . S
C1487 H1475 0.950 . S
C1487 C1483 1.393 . S
C1487 C1486 1.391 . S
C1488 H1478 0.950 . S
C1488 C1489 1.386 . S
C1488 C1490 1.391 . S
C1489 C1488 1.386 . S
C1489 C1493 1.393 . S
C1490 H1479 0.950 . S
C1490 C1488 1.391 . S
C1490 C1491 1.400 . S
C1491 C1485 1.491 . S
C1491 C1490 1.400 . S
C1491 C1492 1.398 . S
C1492 H1480 0.950 . S
C1492 C1491 1.398 . S
C1492 C1493 1.391 . S
C1493 H1481 0.950 . S
C1493 C1489 1.393 . S
C1493 C1492 1.391 . S
H1494 C1502 0.950 . S
H1495 C1507 0.950 . S
H1496 C1504 0.950 . S
H1497 C1506 0.950 . S
H1498 C1508 0.950 . S
H1499 C1510 0.950 . S
H1500 C1512 0.950 . S
H1501 C1513 0.950 . S
C1502 H1494 0.950 . S
C1502 C1503 1.386 . S
C1502 C1504 1.391 . S
C1503 C1502 1.386 . S
C1503 C1507 1.393 . S
C1504 H1496 0.950 . S
C1504 C1502 1.391 . S
C1504 C1505 1.400 . S
C1505 C1504 1.400 . S
C1505 C1506 1.398 . S
C1505 C1511 1.491 . S
C1506 H1497 0.950 . S
C1506 C1505 1.398 . S
C1506 C1507 1.391 . S
C1507 H1495 0.950 . S
C1507 C1503 1.393 . S
C1507 C1506 1.391 . S
C1508 H1498 0.950 . S
C1508 C1509 1.386 . S
C1508 C1510 1.391 . S
C1509 C1508 1.386 . S
C1509 C1513 1.393 . S
C1510 H1499 0.950 . S
C1510 C1508 1.391 . S
C1510 C1511 1.400 . S
C1511 C1505 1.491 . S
C1511 C1510 1.400 . S
C1511 C1512 1.398 . S
C1512 H1500 0.950 . S
C1512 C1511 1.398 . S
C1512 C1513 1.391 . S
C1513 H1501 0.950 . S
C1513 C1509 1.393 . S
C1513 C1512 1.391 . S
H1514 C1522 0.950 . S
H1515 C1527 0.950 . S
H1516 C1524 0.950 . S
H1517 C1526 0.950 . S
H1518 C1528 0.950 . S
H1519 C1530 0.950 . S
H1520 C1532 0.950 . S
H1521 C1533 0.950 . S
C1522 H1514 0.950 . S
C1522 C1523 1.386 . S
C1522 C1524 1.391 . S
C1523 C1522 1.386 . S
C1523 C1527 1.393 . S
C1524 H1516 0.950 . S
C1524 C1522 1.391 . S
C1524 C1525 1.400 . S
C1525 C1524 1.400 . S
C1525 C1526 1.398 . S
C1525 C1531 1.491 . S
C1526 H1517 0.950 . S
C1526 C1525 1.398 . S
C1526 C1527 1.391 . S
C1527 H1515 0.950 . S
C1527 C1523 1.393 . S
C1527 C1526 1.391 . S
C1528 H1518 0.950 . S
C1528 C1529 1.386 . S
C1528 C1530 1.391 . S
C1529 C1528 1.386 . S
C1529 C1533 1.393 . S
C1530 H1519 0.950 . S
C1530 C1528 1.391 . S
C1530 C1531 1.400 . S
C1531 C1525 1.491 . S
C1531 C1530 1.400 . S
C1531 C1532 1.398 . S
C1532 H1520 0.950 . S
C1532 C1531 1.398 . S
C1532 C1533 1.391 . S
C1533 H1521 0.950 . S
C1533 C1529 1.393 . S
C1533 C1532 1.391 . S
H1534 C1542 0.950 . S
H1535 C1547 0.950 . S
H1536 C1544 0.950 . S
H1537 C1546 0.950 . S
H1538 C1548 0.950 . S
H1539 C1550 0.950 . S
H1540 C1552 0.950 . S
H1541 C1553 0.950 . S
C1542 H1534 0.950 . S
C1542 C1543 1.386 . S
C1542 C1544 1.391 . S
C1543 C1542 1.386 . S
C1543 C1547 1.393 . S
C1544 H1536 0.950 . S
C1544 C1542 1.391 . S
C1544 C1545 1.400 . S
C1545 C1544 1.400 . S
C1545 C1546 1.398 . S
C1545 C1551 1.491 . S
C1546 H1537 0.950 . S
C1546 C1545 1.398 . S
C1546 C1547 1.391 . S
C1547 H1535 0.950 . S
C1547 C1543 1.393 . S
C1547 C1546 1.391 . S
C1548 H1538 0.950 . S
C1548 C1549 1.386 . S
C1548 C1550 1.391 . S
C1549 C1548 1.386 . S
C1549 C1553 1.393 . S
C1550 H1539 0.950 . S
C1550 C1548 1.391 . S
C1550 C1551 1.400 . S
C1551 C1545 1.491 . S
C1551 C1550 1.400 . S
C1551 C1552 1.398 . S
C1552 H1540 0.950 . S
C1552 C1551 1.398 . S
C1552 C1553 1.391 . S
C1553 H1541 0.950 . S
C1553 C1549 1.393 . S
C1553 C1552 1.391 . S
H1554 C1562 0.950 . S
H1555 C1567 0.950 . S
H1556 C1564 0.950 . S
H1557 C1566 0.950 . S
H1558 C1568 0.950 . S
H1559 C1570 0.950 . S
H1560 C1572 0.950 . S
H1561 C1573 0.950 . S
C1562 H1554 0.950 . S
C1562 C1563 1.386 . S
C1562 C1564 1.391 . S
C1563 C1562 1.386 . S
C1563 C1567 1.393 . S
C1564 H1556 0.950 . S
C1564 C1562 1.391 . S
C1564 C1565 1.400 . S
C1565 C1564 1.400 . S
C1565 C1566 1.398 . S
C1565 C1571 1.491 . S
C1566 H1557 0.950 . S
C1566 C1565 1.398 . S
C1566 C1567 1.391 . S
C1567 H1555 0.950 . S
C1567 C1563 1.393 . S
C1567 C1566 1.391 . S
C1568 H1558 0.950 . S
C1568 C1569 1.386 . S
C1568 C1570 1.391 . S
C1569 C1568 1.386 . S
C1569 C1573 1.393 . S
C1570 H1559 0.950 . S
C1570 C1568 1.391 . S
C1570 C1571 1.400 . S
C1571 C1565 1.491 . S
C1571 C1570 1.400 . S
C1571 C1572 1.398 . S
C1572 H1560 0.950 . S
C1572 C1571 1.398 . S
C1572 C1573 1.391 . S
C1573 H1561 0.950 . S
C1573 C1569 1.393 . S
C1573 C1572 1.391 . S
H1574 C1582 0.950 . S
H1575 C1587 0.950 . S
H1576 C1584 0.950 . S
H1577 C1586 0.950 . S
H1578 C1588 0.950 . S
H1579 C1590 0.950 . S
H1580 C1592 0.950 . S
H1581 C1593 0.950 . S
C1582 H1574 0.950 . S
C1582 C1583 1.386 . S
C1582 C1584 1.391 . S
C1583 C1582 1.386 . S
C1583 C1587 1.393 . S
C1584 H1576 0.950 . S
C1584 C1582 1.391 . S
C1584 C1585 1.400 . S
C1585 C1584 1.400 . S
C1585 C1586 1.398 . S
C1585 C1591 1.491 . S
C1586 H1577 0.950 . S
C1586 C1585 1.398 . S
C1586 C1587 1.391 . S
C1587 H1575 0.950 . S
C1587 C1583 1.393 . S
C1587 C1586 1.391 . S
C1588 H1578 0.950 . S
C1588 C1589 1.386 . S
C1588 C1590 1.391 . S
C1589 C1588 1.386 . S
C1589 C1593 1.393 . S
C1590 H1579 0.950 . S
C1590 C1588 1.391 . S
C1590 C1591 1.400 . S
C1591 C1585 1.491 . S
C1591 C1590 1.400 . S
C1591 C1592 1.398 . S
C1592 H1580 0.950 . S
C1592 C1591 1.398 . S
C1592 C1593 1.391 . S
C1593 H1581 0.950 . S
C1593 C1589 1.393 . S
C1593 C1592 1.391 . S
H1594 C1602 0.950 . S
H1595 C1607 0.950 . S
H1596 C1604 0.950 . S
H1597 C1606 0.950 . S
H1598 C1608 0.950 . S
H1599 C1610 0.950 . S
H1600 C1612 0.950 . S
H1601 C1613 0.950 . S
C1602 H1594 0.950 . S
C1602 C1603 1.386 . S
C1602 C1604 1.391 . S
C1603 C1602 1.386 . S
C1603 C1607 1.393 . S
C1604 H1596 0.950 . S
C1604 C1602 1.391 . S
C1604 C1605 1.400 . S
C1605 C1604 1.400 . S
C1605 C1606 1.398 . S
C1605 C1611 1.491 . S
C1606 H1597 0.950 . S
C1606 C1605 1.398 . S
C1606 C1607 1.391 . S
C1607 H1595 0.950 . S
C1607 C1603 1.393 . S
C1607 C1606 1.391 . S
C1608 H1598 0.950 . S
C1608 C1609 1.386 . S
C1608 C1610 1.391 . S
C1609 C1608 1.386 . S
C1609 C1613 1.393 . S
C1610 H1599 0.950 . S
C1610 C1608 1.391 . S
C1610 C1611 1.400 . S
C1611 C1605 1.491 . S
C1611 C1610 1.400 . S
C1611 C1612 1.398 . S
C1612 H1600 0.950 . S
C1612 C1611 1.398 . S
C1612 C1613 1.391 . S
C1613 H1601 0.950 . S
C1613 C1609 1.393 . S
C1613 C1612 1.391 . S
H1614 C1622 0.950 . S
H1615 C1627 0.950 . S
H1616 C1624 0.950 . S
H1617 C1626 0.950 . S
H1618 C1628 0.950 . S
H1619 C1630 0.950 . S
H1620 C1632 0.950 . S
H1621 C1633 0.950 . S
C1622 H1614 0.950 . S
C1622 C1623 1.386 . S
C1622 C1624 1.391 . S
C1623 C1622 1.386 . S
C1623 C1627 1.393 . S
C1624 H1616 0.950 . S
C1624 C1622 1.391 . S
C1624 C1625 1.400 . S
C1625 C1624 1.400 . S
C1625 C1626 1.398 . S
C1625 C1631 1.491 . S
C1626 H1617 0.950 . S
C1626 C1625 1.398 . S
C1626 C1627 1.391 . S
C1627 H1615 0.950 . S
C1627 C1623 1.393 . S
C1627 C1626 1.391 . S
C1628 H1618 0.950 . S
C1628 C1629 1.386 . S
C1628 C1630 1.391 . S
C1629 C1628 1.386 . S
C1629 C1633 1.393 . S
C1630 H1619 0.950 . S
C1630 C1628 1.391 . S
C1630 C1631 1.400 . S
C1631 C1625 1.491 . S
C1631 C1630 1.400 . S
C1631 C1632 1.398 . S
C1632 H1620 0.950 . S
C1632 C1631 1.398 . S
C1632 C1633 1.391 . S
C1633 H1621 0.950 . S
C1633 C1629 1.393 . S
C1633 C1632 1.391 . S
H1634 C1642 0.950 . S
H1635 C1647 0.950 . S
H1636 C1644 0.950 . S
H1637 C1646 0.950 . S
H1638 C1648 0.950 . S
H1639 C1650 0.950 . S
H1640 C1652 0.950 . S
H1641 C1653 0.950 . S
C1642 H1634 0.950 . S
C1642 C1643 1.386 . S
C1642 C1644 1.391 . S
C1643 C1642 1.386 . S
C1643 C1647 1.393 . S
C1644 H1636 0.950 . S
C1644 C1642 1.391 . S
C1644 C1645 1.400 . S
C1645 C1644 1.400 . S
C1645 C1646 1.398 . S
C1645 C1651 1.491 . S
C1646 H1637 0.950 . S
C1646 C1645 1.398 . S
C1646 C1647 1.391 . S
C1647 H1635 0.950 . S
C1647 C1643 1.393 . S
C1647 C1646 1.391 . S
C1648 H1638 0.950 . S
C1648 C1649 1.386 . S
C1648 C1650 1.391 . S
C1649 C1648 1.386 . S
C1649 C1653 1.393 . S
C1650 H1639 0.950 . S
C1650 C1648 1.391 . S
C1650 C1651 1.400 . S
C1651 C1645 1.491 . S
C1651 C1650 1.400 . S
C1651 C1652 1.398 . S
C1652 H1640 0.950 . S
C1652 C1651 1.398 . S
C1652 C1653 1.391 . S
C1653 H1641 0.950 . S
C1653 C1649 1.393 . S
C1653 C1652 1.391 . S
H1654 C1662 0.950 . S
H1655 C1667 0.950 . S
H1656 C1664 0.950 . S
H1657 C1666 0.950 . S
H1658 C1668 0.950 . S
H1659 C1670 0.950 . S
H1660 C1672 0.950 . S
H1661 C1673 0.950 . S
C1662 H1654 0.950 . S
C1662 C1663 1.386 . S
C1662 C1664 1.391 . S
C1663 C1662 1.386 . S
C1663 C1667 1.393 . S
C1664 H1656 0.950 . S
C1664 C1662 1.391 . S
C1664 C1665 1.400 . S
C1665 C1664 1.400 . S
C1665 C1666 1.398 . S
C1665 C1671 1.491 . S
C1666 H1657 0.950 . S
C1666 C1665 1.398 . S
C1666 C1667 1.391 . S
C1667 H1655 0.950 . S
C1667 C1663 1.393 . S
C1667 C1666 1.391 . S
C1668 H1658 0.950 . S
C1668 C1669 1.386 . S
C1668 C1670 1.391 . S
C1669 C1668 1.386 . S
C1669 C1673 1.393 . S
C1670 H1659 0.950 . S
C1670 C1668 1.391 . S
C1670 C1671 1.400 . S
C1671 C1665 1.491 . S
C1671 C1670 1.400 . S
C1671 C1672 1.398 . S
C1672 H1660 0.950 . S
C1672 C1671 1.398 . S
C1672 C1673 1.391 . S
C1673 H1661 0.950 . S
C1673 C1669 1.393 . S
C1673 C1672 1.391 . S
C603 N170 2.089 . S
C609 C246 2.136 . S
C623 N184 1.157 . S
C629 C286 1.155 . S
C643 N158 1.677 . S
C649 C316 1.657 . S
C663 N145 1.553 . S
C669 C276 1.528 1_556 S
C689 C326 0.832 1_556 S
C683 N119 0.833 . S
C703 N131 1.838 . S
C709 C236 1.861 . S
C729 C265 1.772 1_556 S
C723 N144 1.772 . S
C749 C305 1.667 . S
C743 N118 1.677 . S
C763 N132 1.566 . S
C769 C331 1.580 . S
C783 N171 1.476 . S
C789 C291 1.482 . S
C803 N183 1.325 . S
C809 C345 1.328 . S
C829 C251 1.467 . S
C823 N157 1.468 . S
C849 C366 2.142 . S
C843 N14 2.097 . S
C863 N28 1.158 . S
C869 C406 1.156 . S
C883 N2 1.672 . S
C889 C436 1.663 . S
C903 N223 1.551 . S
C909 C396 1.539 . S
C923 N197 0.833 . S
C929 C446 0.836 . S
C943 N209 1.832 . S
C949 C356 1.863 . S
C963 N222 1.767 . S
C969 C385 1.785 . S
C983 N196 1.670 . S
C989 C425 1.673 . S
C1009 C451 1.572 . S
C1003 N210 1.572 . S
C1023 N15 1.467 . S
C1029 C411 1.477 . S
C1049 C465 1.329 . S
C1043 N27 1.329 . S
C1063 N1 1.477 . S
C1069 C371 1.451 . S
C1089 C486 2.136 . S
C1083 N92 2.090 . S
C1103 N106 1.151 . S
C1109 C526 1.148 . S
C1129 C556 1.656 . S
C1123 N80 1.672 . S
C1149 C516 1.530 . S
C1143 N67 1.549 . S
C1169 C566 0.831 . S
C1163 N41 0.833 . S
C1183 N53 1.846 . S
C1189 C476 1.868 . S
C1203 N66 1.767 . S
C1209 C505 1.784 . S
C1223 N40 1.672 . S
C1229 C545 1.669 . S
C1249 C571 1.569 . S
C1243 N54 1.570 . S
C1263 N93 1.479 . S
C1269 C531 1.468 . S
C1283 N105 1.327 . S
C1289 C585 1.330 . S
C1303 N79 1.473 . S
C1309 C491 1.450 . S
C1323 N200 1.028 . S
C1329 C263 1.027 . S
C1349 C303 2.012 . S
C1343 N213 1.993 . S
C1363 N226 1.575 . S
C1369 C322 1.586 . S
C1383 N83 1.817 . S
C1389 C282 1.785 . S
C1403 N96 1.818 . S
C1409 C343 1.845 . S
C1429 C242 1.147 . S
C1423 N109 1.176 . S
C1443 N44 1.026 . S
C1449 C383 1.031 . S
C1463 N57 2.007 . S
C1469 C423 2.011 . S
C1483 N70 1.575 . S
C1489 C442 1.588 . S
C1503 N161 1.806 . S
C1509 C402 1.780 . S
C1529 C463 1.845 . S
C1523 N174 1.818 . S
C1543 N187 1.173 . S
C1549 C362 1.154 . S
C1563 N122 1.016 . S
C1569 C503 1.018 . S
C1583 N135 1.993 . S
C1589 C543 2.012 . S
C1609 C562 1.578 . S
C1603 N148 1.590 . S
C1623 N5 1.805 . S
C1629 C522 1.793 . S
C1643 N18 1.825 . S
C1649 C583 1.849 . S
C1663 N31 1.178 . S
C1669 C482 1.140 . S
