# Generated by pormake.
# Topology ssa, (4,4)-cn, num edge types: 1
# Building blocks:
#     Node 0, Type 0, BuildingBlock: NAWXER_clean_sbu_0, # of connection points: 4
#     Node 1, Type 0, BuildingBlock: NAWXER_clean_sbu_0, # of connection points: 4
#     Node 2, Type 0, BuildingBlock: NAWXER_clean_sbu_0, # of connection points: 4
#     Node 3, Type 0, BuildingBlock: NAWXER_clean_sbu_0, # of connection points: 4
#     Node 4, Type 0, BuildingBlock: NAWXER_clean_sbu_0, # of connection points: 4
#     Node 5, Type 0, BuildingBlock: NAWXER_clean_sbu_0, # of connection points: 4
#     Node 6, Type 1, BuildingBlock: KUFVIS_clean_linker_0, # of connection points: 4
#     Node 7, Type 1, BuildingBlock: KUFVIS_clean_linker_0, # of connection points: 4
#     Node 8, Type 1, BuildingBlock: KUFVIS_clean_linker_0, # of connection points: 4
#     Node 9, Type 1, BuildingBlock: KUFVIS_clean_linker_0, # of connection points: 4
#     Node 10, Type 1, BuildingBlock: KUFVIS_clean_linker_0, # of connection points: 4
#     Node 11, Type 1, BuildingBlock: KUFVIS_clean_linker_0, # of connection points: 4
#     Edge 12, Type (0, 1), BuildingBlock: KIFKEQ_clean_linker_1, # of connection points: 2
#     Edge 13, Type (0, 1), BuildingBlock: KIFKEQ_clean_linker_1, # of connection points: 2
#     Edge 14, Type (0, 1), BuildingBlock: KIFKEQ_clean_linker_1, # of connection points: 2
#     Edge 15, Type (0, 1), BuildingBlock: KIFKEQ_clean_linker_1, # of connection points: 2
#     Edge 16, Type (0, 1), BuildingBlock: KIFKEQ_clean_linker_1, # of connection points: 2
#     Edge 17, Type (0, 1), BuildingBlock: KIFKEQ_clean_linker_1, # of connection points: 2
#     Edge 18, Type (0, 1), BuildingBlock: KIFKEQ_clean_linker_1, # of connection points: 2
#     Edge 19, Type (0, 1), BuildingBlock: KIFKEQ_clean_linker_1, # of connection points: 2
#     Edge 20, Type (0, 1), BuildingBlock: KIFKEQ_clean_linker_1, # of connection points: 2
#     Edge 21, Type (0, 1), BuildingBlock: KIFKEQ_clean_linker_1, # of connection points: 2
#     Edge 22, Type (0, 1), BuildingBlock: KIFKEQ_clean_linker_1, # of connection points: 2
#     Edge 23, Type (0, 1), BuildingBlock: KIFKEQ_clean_linker_1, # of connection points: 2
#     Edge 24, Type (0, 1), BuildingBlock: KIFKEQ_clean_linker_1, # of connection points: 2
#     Edge 25, Type (0, 1), BuildingBlock: KIFKEQ_clean_linker_1, # of connection points: 2
#     Edge 26, Type (0, 1), BuildingBlock: KIFKEQ_clean_linker_1, # of connection points: 2
#     Edge 27, Type (0, 1), BuildingBlock: KIFKEQ_clean_linker_1, # of connection points: 2
#     Edge 28, Type (0, 1), BuildingBlock: KIFKEQ_clean_linker_1, # of connection points: 2
#     Edge 29, Type (0, 1), BuildingBlock: KIFKEQ_clean_linker_1, # of connection points: 2
#     Edge 30, Type (0, 1), BuildingBlock: KIFKEQ_clean_linker_1, # of connection points: 2
#     Edge 31, Type (0, 1), BuildingBlock: KIFKEQ_clean_linker_1, # of connection points: 2
#     Edge 32, Type (0, 1), BuildingBlock: KIFKEQ_clean_linker_1, # of connection points: 2
#     Edge 33, Type (0, 1), BuildingBlock: KIFKEQ_clean_linker_1, # of connection points: 2
#     Edge 34, Type (0, 1), BuildingBlock: KIFKEQ_clean_linker_1, # of connection points: 2
#     Edge 35, Type (0, 1), BuildingBlock: KIFKEQ_clean_linker_1, # of connection points: 2
# Relax obj value: 0.007
# Max RMSD: 0.057
# Mean RMSD: 0.038
data_MOF--net-ssa--node1-NAWXER_clean_sbu_0--node2-KUFVIS_clean_linker_0--edge1-KIFKEQ_clean_linker_1
_symmetry_space_group_name_H-M    P1
_symmetry_Int_Tables_number       1
_symmetry_cell_setting            triclinic
loop_
_symmetry_equiv_pos_as_xyz
'x, y, z'
_cell_length_a     52.299606
_cell_length_b     52.289496
_cell_length_c     29.37419
_cell_angle_alpha  89.84996
_cell_angle_beta   90.283802
_cell_angle_gamma 119.76471
loop_
_atom_site_label
_atom_site_type_symbol
_atom_site_fract_x
_atom_site_fract_y
_atom_site_fract_z
_atom_type_partial_charge
C0 C 0.07956 0.56784 -0.00797 0.0
C1 C 1.0112 0.46535 0.95095 0.0
O2 O 0.06066 0.55355 0.02325 0.0
Zn3 Zn 0.02505 0.50938 0.03526 0.0
O4 O 0.07926 0.55485 0.95531 0.0
Zn5 Zn 0.0462 0.51678 0.97134 0.0
O6 O 1.01006 0.52578 0.97428 0.0
O7 O 0.99166 0.51548 0.04372 0.0
O8 O 0.03235 0.48493 0.92777 0.0
O9 O 1.00653 0.47169 0.99108 0.0
O10 O 0.0401 0.49751 0.08679 0.0
O11 O 0.06583 0.50382 0.02448 0.0
C12 C 0.99114 0.52425 0.00348 0.0
C13 C 0.06168 0.49755 0.06698 0.0
C14 C 0.51268 0.05382 0.47854 0.0
C15 C 0.55057 0.98914 0.43125 0.0
O16 O 0.50908 0.03453 0.50866 0.0
Zn17 Zn 0.51923 0.99984 0.51782 0.0
O18 O 0.52538 0.05464 0.44135 0.0
Zn19 Zn 0.53282 0.02236 0.45463 0.0
O20 O 0.4897 0.98347 0.45524 0.0
O21 O 0.48043 0.96555 0.52522 0.0
O22 O 0.55212 1.01101 0.40973 0.0
O23 O 0.53931 0.9831 0.47126 0.0
O24 O 0.54614 0.01379 0.56913 0.0
O25 O 0.56534 0.04056 0.5075 0.0
C26 C 0.47256 0.96385 0.48379 0.0
C27 C 0.56766 0.03542 0.54955 0.0
C28 C 0.47814 0.44988 0.92755 0.0
C29 C 0.51007 0.54944 0.98578 0.0
O30 O 0.4772 0.47057 0.90596 0.0
Zn31 Zn 0.49448 0.50038 0.95373 0.0
O32 O 0.489 0.45468 0.96783 0.0
Zn33 Zn 0.50794 0.48926 0.01671 0.0
O34 O 0.47924 0.47223 0.066 0.0
O35 O 0.46134 0.48186 0.0043 0.0
O36 O 0.51496 0.53324 0.01328 0.0
O37 O 0.49829 0.53927 0.94716 0.0
O38 O 0.53898 0.50907 0.95545 0.0
O39 O 0.54783 0.49512 0.02188 0.0
C40 C 0.45774 0.47203 0.04506 0.0
C41 C 0.55662 0.50594 0.98237 0.0
C42 C 0.04725 0.54801 0.44279 0.0
C43 C 0.97812 0.45021 0.50294 0.0
O44 O 0.05199 0.54514 0.48483 0.0
Zn45 Zn 0.03353 0.5118 0.53629 0.0
O46 O 0.02585 0.52671 0.42227 0.0
Zn47 Zn 1.01165 0.49884 0.47235 0.0
O48 O 0.99306 0.51662 0.51893 0.0
O49 O 1.01979 0.52881 0.5817 0.0
O50 O 0.97807 0.45973 0.46306 0.0
O51 O 0.99745 0.46713 0.53214 0.0
O52 O 0.06661 0.50614 0.55048 0.0
O53 O 0.0474 0.4899 0.48234 0.0
C54 C 0.99799 0.52694 0.55954 0.0
C55 C 0.06654 0.49386 0.51313 0.0
C56 C 0.53474 0.97856 0.98633 0.0
C57 C 0.49765 0.04242 0.93008 0.0
O58 O 0.53645 0.99728 0.01606 0.0
Zn59 Zn 0.52499 0.03129 0.02196 0.0
O60 O 0.52357 0.97784 0.94753 0.0
Zn61 Zn 0.51473 1.00939 0.95811 0.0
O62 O 0.55735 0.0486 0.96333 0.0
O63 O 0.56314 0.06594 0.03345 0.0
O64 O 0.49748 0.02091 0.90964 0.0
O65 O 0.50689 0.04815 0.9714 0.0
O66 O 0.49545 0.01657 0.06953 0.0
O67 O 0.47972 0.99032 0.00664 0.0
C68 C 0.57295 0.06807 -0.00674 0.0
C69 C 0.47511 0.99502 0.04779 0.0
C70 C 0.62188 0.55977 0.48002 0.0
C71 C 0.51954 0.52854 0.43435 0.0
O72 O 0.60642 0.56362 0.50996 0.0
Zn73 Zn 0.56301 0.55574 0.52009 0.0
O74 O 0.61061 0.54863 0.44148 0.0
Zn75 Zn 0.57138 0.54368 0.45278 0.0
O76 O 0.57914 0.58752 0.45862 0.0
O77 O 0.56834 0.59531 0.5281 0.0
O78 O 0.53834 0.52672 0.40906 0.0
O79 O 0.52677 0.53852 0.47485 0.0
O80 O 0.54931 0.52515 0.56793 0.0
O81 O 0.55633 0.50994 0.5017 0.0
C82 C 0.57686 0.60449 0.48771 0.0
C83 C 0.54891 0.50481 0.54351 0.0
H84 H 0.33748 0.44905 0.2695 0.0
H85 H 0.29449 0.48322 0.35267 0.0
H86 H 0.26005 0.44761 0.21858 0.0
H87 H 0.24284 0.47938 0.22343 0.0
H88 H 0.18241 0.48523 0.31509 0.0
H89 H 0.24528 0.46319 0.36801 0.0
C90 C 0.31898 0.45263 0.2751 0.0
C91 C 0.29885 0.44677 0.23991 0.0
C92 C 0.31755 0.46558 0.31566 0.0
C93 C 0.29482 0.47224 0.32167 0.0
C94 C 0.27301 0.46511 0.28742 0.0
C95 C 0.27573 0.45275 0.24603 0.0
C96 C 0.24786 0.47088 0.29474 0.0
C97 C 0.23464 0.47763 0.2577 0.0
C98 C 0.21108 0.48295 0.26491 0.0
C99 C 0.20092 0.48172 0.30921 0.0
C100 C 0.21337 0.475 0.34614 0.0
C101 C 0.23654 0.46926 0.33905 0.0
H102 H 0.69906 0.16866 0.79335 0.0
H103 H 0.77856 0.24457 0.83567 0.0
H104 H 0.76726 0.21418 0.69542 0.0
H105 H 0.79963 0.26018 0.68039 0.0
H106 H 0.88712 0.32142 0.72369 0.0
H107 H 0.82542 0.26351 0.82208 0.0
C108 C 0.7208 0.18663 0.78482 0.0
C109 C 0.73071 0.19014 0.73999 0.0
C110 C 0.73816 0.20585 0.81911 0.0
C111 C 0.76622 0.22926 0.80875 0.0
C112 C 0.77764 0.23289 0.76393 0.0
C113 C 0.75948 0.21261 0.72989 0.0
C114 C 0.80811 0.25768 0.75275 0.0
C115 C 0.81573 0.26854 0.7076 0.0
C116 C 0.84444 0.29075 0.69716 0.0
C117 C 0.86538 0.30332 0.73183 0.0
C118 C 0.85831 0.29417 0.77696 0.0
C119 C 0.82995 0.27102 0.7872 0.0
H120 H 0.54068 0.68636 0.22519 0.0
H121 H 0.54416 0.75375 0.13866 0.0
H122 H 0.57256 0.77264 0.27977 0.0
H123 H 0.56214 0.80737 0.2755 0.0
H124 H 0.58074 0.8804 0.18961 0.0
H125 H 0.56617 0.80034 0.12843 0.0
C126 C 0.54522 0.70884 0.22082 0.0
C127 C 0.55583 0.72834 0.25768 0.0
C128 C 0.54214 0.71843 0.17772 0.0
C129 C 0.54806 0.74757 0.17196 0.0
C130 C 0.55838 0.76788 0.20871 0.0
C131 C 0.56315 0.75785 0.2512 0.0
C132 C 0.56435 0.79922 0.203 0.0
C133 C 0.56626 0.81649 0.24155 0.0
C134 C 0.5733 0.84602 0.23685 0.0
C135 C 0.57685 0.85809 0.1934 0.0
C136 C 0.57337 0.84135 0.15458 0.0
C137 C 0.56769 0.81223 0.15923 0.0
H138 H 0.88499 0.55325 0.79578 0.0
H139 H 0.80881 0.5497 0.85438 0.0
H140 H 0.81504 0.54196 0.70776 0.0
H141 H 0.78579 0.55935 0.70186 0.0
H142 H 0.70585 0.54901 0.7573 0.0
H143 H 0.76243 0.53265 0.84275 0.0
C144 C 0.86351 0.55141 0.79134 0.0
C145 C 0.85209 0.54894 0.74763 0.0
C146 C 0.84756 0.55077 0.82958 0.0
C147 C 0.81987 0.54865 0.82408 0.0
C148 C 0.80744 0.54613 0.77992 0.0
C149 C 0.82375 0.54519 0.74198 0.0
C150 C 0.77843 0.54563 0.77319 0.0
C151 C 0.77098 0.55307 0.73044 0.0
C152 C 0.74471 0.55387 0.72423 0.0
C153 C 0.72608 0.54824 0.76149 0.0
C154 C 0.73286 0.5413 0.80421 0.0
C155 C 0.75837 0.53904 0.80968 0.0
H156 H 0.18034 0.68399 0.20331 0.0
H157 H 0.25359 0.7658 0.16254 0.0
H158 H 0.22793 0.74949 0.30486 0.0
H159 H 0.2749 0.78145 0.3177 0.0
H160 H 0.33514 0.87007 0.27871 0.0
H161 H 0.27289 0.81189 0.18067 0.0
C162 C 0.19845 0.70549 0.21267 0.0
C163 C 0.20296 0.7141 0.25834 0.0
C164 C 0.21627 0.7243 0.17846 0.0
C165 C 0.23951 0.75228 0.18977 0.0
C166 C 0.24451 0.76216 0.23563 0.0
C167 C 0.22545 0.74272 0.26962 0.0
C168 C 0.26944 0.79241 0.24784 0.0
C169 C 0.2821 0.79852 0.2921 0.0
C170 C 0.30499 0.8268 0.30339 0.0
C171 C 0.3163 0.84883 0.27028 0.0
C172 C 0.30549 0.8432 0.22573 0.0
C173 C 0.28162 0.81531 0.21492 0.0
H174 H 0.48573 0.33573 0.72256 0.0
H175 H 0.45626 0.24739 0.76624 0.0
H176 H 0.50981 0.28192 0.64465 0.0
H177 H 0.48317 0.2335 0.62346 0.0
H178 H 0.4749 0.15433 0.68053 0.0
H179 H 0.48048 0.22149 0.76997 0.0
C180 C 0.48486 0.31474 0.71741 0.0
C181 C 0.4992 0.31124 0.68025 0.0
C182 C 0.46962 0.29201 0.74832 0.0
C183 C 0.46859 0.26491 0.74213 0.0
C184 C 0.48288 0.26051 0.70443 0.0
C185 C 0.49821 0.28415 0.67339 0.0
C186 C 0.48158 0.23138 0.69766 0.0
C187 C 0.48179 0.22073 0.65336 0.0
C188 C 0.47942 0.19298 0.64743 0.0
C189 C 0.47644 0.17563 0.6854 0.0
C190 C 0.47648 0.18559 0.72947 0.0
C191 C 0.47966 0.21368 0.7356 0.0
H192 H 0.10546 0.4886 0.03357 0.0
H193 H 0.06779 0.49687 0.15947 0.0
H194 H 0.14453 0.48632 0.07644 0.0
H195 H 0.10687 0.49473 0.20205 0.0
H196 H 0.19778 0.52695 0.25943 0.0
H197 H 0.16192 0.52939 0.20896 0.0
H198 H 0.15207 0.45371 0.1352 0.0
H199 H 0.18795 0.45103 0.18648 0.0
C200 C 0.10533 0.48966 0.07039 0.0
C201 C 0.08351 0.49302 0.09309 0.0
C202 C 0.12771 0.4883 0.09487 0.0
C203 C 0.12899 0.49073 0.14252 0.0
C204 C 0.10673 0.49328 0.16525 0.0
C205 C 0.08418 0.49424 0.14088 0.0
C206 C 0.18838 0.51114 0.23192 0.0
C207 C 0.19544 0.48861 0.22719 0.0
C208 C 0.16766 0.51239 0.20327 0.0
C209 C 0.15366 0.49131 0.16884 0.0
C210 C 0.16242 0.47016 0.16163 0.0
C211 C 0.1831 0.46876 0.1907 0.0
H212 H 0.57453 0.0415 0.64188 0.0
H213 H 0.62122 0.07638 0.51563 0.0
H214 H 0.61648 0.07976 0.6839 0.0
H215 H 0.66336 0.11446 0.55803 0.0
H216 H 0.74032 0.15904 0.67276 0.0
H217 H 0.70267 0.12025 0.62389 0.0
H218 H 0.63653 0.13708 0.68073 0.0
H219 H 0.67378 0.17599 0.728 0.0
C220 C 0.5939 0.05697 0.62315 0.0
C221 C 0.59443 0.05605 0.57541 0.0
C222 C 0.61785 0.07893 0.64718 0.0
C223 C 0.643 0.10015 0.62408 0.0
C224 C 0.64425 0.09832 0.57659 0.0
C225 C 0.62008 0.07661 0.55243 0.0
C226 C 0.71786 0.15484 0.67392 0.0
C227 C 0.70989 0.17019 0.70474 0.0
C228 C 0.69635 0.13257 0.64628 0.0
C229 C 0.66665 0.12528 0.64951 0.0
C230 C 0.65913 0.14178 0.67842 0.0
C231 C 0.6805 0.16409 0.70536 0.0
H232 H 0.55748 0.589 0.03428 0.0
H233 H 0.47611 0.57538 0.97463 0.0
H234 H 0.56438 0.63383 0.07141 0.0
H235 H 0.4825 0.61987 0.01338 0.0
H236 H 0.49216 0.66567 0.16397 0.0
H237 H 0.48442 0.62818 0.10704 0.0
H238 H 0.56937 0.68707 0.04884 0.0
H239 H 0.57667 0.7249 0.10492 0.0
C240 C 0.54137 0.59596 0.02845 0.0
C241 C 0.51637 0.57887 0.00141 0.0
C242 C 0.54534 0.6216 0.04961 0.0
C243 C 0.52396 0.63026 0.04522 0.0
C244 C 0.49932 0.61367 0.01712 0.0
C245 C 0.49577 0.5884 -0.00519 0.0
C246 C 0.50869 0.67086 0.13804 0.0
C247 C 0.53489 0.69816 0.13848 0.0
C248 C 0.50428 0.64949 0.10551 0.0
C249 C 0.52631 0.65479 0.0736 0.0
C250 C 0.55202 0.68252 0.07298 0.0
C251 C 0.55613 0.70415 0.10483 0.0
H252 H 1.00276 0.55232 0.64285 0.0
H253 H 0.94542 0.51811 0.5255 0.0
H254 H 0.96626 0.56069 0.68088 0.0
H255 H 0.90897 0.52671 0.56357 0.0
H256 H 0.83967 0.50756 0.6814 0.0
H257 H 0.87531 0.50528 0.62999 0.0
H258 H 0.94241 0.59101 0.67677 0.0
H259 H 0.90694 0.593 0.72815 0.0
C260 C 0.98255 0.54693 0.62493 0.0
C261 C 0.97704 0.53451 0.58118 0.0
C262 C 0.96166 0.55187 0.64662 0.0
C263 C 0.93471 0.54439 0.62518 0.0
C264 C 0.92942 0.5325 0.58108 0.0
C265 C 0.95041 0.52775 0.55923 0.0
C266 C 0.86179 0.52623 0.67948 0.0
C267 C 0.87069 0.55035 0.7088 0.0
C268 C 0.88224 0.52493 0.65024 0.0
C269 C 0.91184 0.54775 0.65 0.0
C270 C 0.91997 0.57282 0.6769 0.0
C271 C 0.89963 0.57408 0.70597 0.0
H272 H 0.42655 0.94898 0.00873 0.0
H273 H 0.45904 0.99473 0.13661 0.0
H274 H 0.38077 0.9136 0.04543 0.0
H275 H 0.41354 0.95893 0.17355 0.0
H276 H 0.32344 0.902 0.2275 0.0
H277 H 0.36138 0.94037 0.1801 0.0
H278 H 0.36485 0.8735 0.09853 0.0
H279 H 0.32657 0.83528 0.14551 0.0
C280 C 0.42391 0.95159 0.04468 0.0
C281 C 0.44659 0.97466 0.06979 0.0
C282 C 0.39765 0.93119 0.06574 0.0
C283 C 0.39339 0.93329 0.11249 0.0
C284 C 0.4158 0.95684 0.13733 0.0
C285 C 0.44204 0.97729 0.11623 0.0
C286 C 0.33179 0.89557 0.19863 0.0
C287 C 0.32216 0.86566 0.19032 0.0
C288 C 0.35374 0.91753 0.17177 0.0
C289 C 0.36667 0.9101 0.13605 0.0
C290 C 0.35535 0.8801 0.12559 0.0
C291 C 0.33328 0.85811 0.15239 0.0
H292 H 0.54522 0.48736 0.63324 0.0
H293 H 0.5366 0.45591 0.49501 0.0
H294 H 0.53719 0.43966 0.66113 0.0
H295 H 0.52927 0.40902 0.5226 0.0
H296 H 0.48047 0.3181 0.59732 0.0
H297 H 0.49311 0.36546 0.56262 0.0
H298 H 0.56211 0.41011 0.66264 0.0
H299 H 0.54904 0.36265 0.69738 0.0
C300 C 0.54144 0.4703 0.6089 0.0
C301 C 0.54156 0.47551 0.56198 0.0
C302 C 0.53722 0.44311 0.62475 0.0
C303 C 0.53288 0.4206 0.59399 0.0
C304 C 0.5324 0.42573 0.54722 0.0
C305 C 0.5367 0.45276 0.53146 0.0
C306 C 0.49925 0.33795 0.61034 0.0
C307 C 0.51413 0.33677 0.64942 0.0
C308 C 0.50628 0.36515 0.59096 0.0
C309 C 0.52822 0.39165 0.61053 0.0
C310 C 0.54467 0.39018 0.6474 0.0
C311 C 0.53768 0.36301 0.66663 0.0
H312 H 0.57695 0.9957 0.34841 0.0
H313 H 0.54305 0.93673 0.46362 0.0
H314 H 0.58607 0.96013 0.30883 0.0
H315 H 0.55244 0.90126 0.42405 0.0
H316 H 0.53274 0.83335 0.30421 0.0
H317 H 0.53097 0.86848 0.35724 0.0
H318 H 0.61612 0.93609 0.30998 0.0
H319 H 0.61767 0.90105 0.25695 0.0
C320 C 0.57186 0.97536 0.36559 0.0
C321 C 0.55919 0.96908 0.40913 0.0
C322 C 0.57723 0.955 0.34299 0.0
C323 C 0.56995 0.92781 0.3633 0.0
C324 C 0.55804 0.92187 0.40734 0.0
C325 C 0.55284 0.94232 0.43008 0.0
C326 C 0.55144 0.85545 0.3063 0.0
C327 C 0.57522 0.86458 0.2763 0.0
C328 C 0.55043 0.87563 0.33652 0.0
C329 C 0.5732 0.90524 0.3372 0.0
C330 C 0.59796 0.91364 0.30957 0.0
C331 C 0.59895 0.89354 0.27949 0.0
H332 H 0.58583 0.54223 0.912 0.0
H333 H 0.5945 0.48723 0.01378 0.0
H334 H 0.63187 0.55188 0.87795 0.0
H335 H 0.64135 0.49718 0.97938 0.0
H336 H 0.69749 0.49167 0.85404 0.0
H337 H 0.65771 0.48482 0.90571 0.0
H338 H 0.68466 0.57706 0.8919 0.0
H339 H 0.7236 0.58349 0.83982 0.0
C340 C 0.59779 0.53246 0.92752 0.0
C341 C 0.58642 0.51392 0.96561 0.0
C342 C 0.62439 0.53818 0.90812 0.0
C343 C 0.64046 0.52543 0.92602 0.0
C344 C 0.62945 0.50726 0.96471 0.0
C345 C 0.60277 0.50174 0.98458 0.0
C346 C 0.69527 0.51053 0.86321 0.0
C347 C 0.71339 0.53805 0.84292 0.0
C348 C 0.67256 0.50667 0.89275 0.0
C349 C 0.6677 0.53031 0.90234 0.0
C350 C 0.68739 0.55827 0.88454 0.0
C351 C 0.70982 0.56204 0.85499 0.0
H352 H 0.05396 0.55615 0.35068 0.0
H353 H 0.08858 0.60091 0.47871 0.0
H354 H 0.09277 0.5984 0.3103 0.0
H355 H 0.12725 0.64333 0.438 0.0
H356 H 0.17325 0.72239 0.32904 0.0
H357 H 0.13452 0.68381 0.37637 0.0
H358 H 0.14919 0.61838 0.31112 0.0
H359 H 0.18802 0.65657 0.26517 0.0
C360 C 0.06951 0.57516 0.37017 0.0
C361 C 0.06828 0.57505 0.41793 0.0
C362 C 0.09184 0.59928 0.34707 0.0
C363 C 0.11317 0.62399 0.37112 0.0
C364 C 0.11109 0.62459 0.41867 0.0
C365 C 0.08899 0.60025 0.44188 0.0
C366 C 0.16864 0.69987 0.32572 0.0
C367 C 0.18337 0.69245 0.29294 0.0
C368 C 0.14638 0.6778 0.3525 0.0
C369 C 0.13843 0.64806 0.34651 0.0
C370 C 0.15435 0.64101 0.31562 0.0
C371 C 0.17666 0.66292 0.28947 0.0
H372 H 0.50112 0.09332 0.96143 0.0
H373 H 0.4766 0.03702 0.843 0.0
H374 H 0.49213 0.12833 0.91912 0.0
H375 H 0.46799 0.07217 0.80066 0.0
H376 H 0.43449 0.1285 0.74214 0.0
H377 H 0.43585 0.09332 0.79538 0.0
H378 H 0.51525 0.16329 0.85591 0.0
H379 H 0.51354 0.19859 0.80271 0.0
C380 C 0.49353 0.08824 0.92651 0.0
C381 C 0.4896 0.06231 0.9056 0.0
C382 C 0.48857 0.10844 0.9022 0.0
C383 C 0.47936 0.10311 0.85651 0.0
C384 C 0.47467 0.0768 0.83601 0.0
C385 C 0.47975 0.05668 0.86023 0.0
C386 C 0.45187 0.13643 0.76752 0.0
C387 C 0.47403 0.1662 0.76816 0.0
C388 C 0.45279 0.11626 0.79775 0.0
C389 C 0.47596 0.12535 0.82933 0.0
C390 C 0.49703 0.15556 0.8321 0.0
C391 C 0.49605 0.17582 0.80178 0.0
H392 H 0.48417 0.54825 0.46738 0.0
H393 H 0.48677 0.48992 0.36594 0.0
H394 H 0.43352 0.53298 0.44625 0.0
H395 H 0.43561 0.47445 0.34483 0.0
H396 H 0.33611 0.43031 0.3537 0.0
H397 H 0.38534 0.44613 0.38385 0.0
H398 H 0.40534 0.53671 0.37807 0.0
H399 H 0.35603 0.52077 0.34715 0.0
C400 C 0.47391 0.53214 0.44044 0.0
C401 C 0.48944 0.52013 0.41843 0.0
C402 C 0.44491 0.52352 0.4283 0.0
C403 C 0.43052 0.50236 0.39426 0.0
C404 C 0.44609 0.49056 0.37171 0.0
C405 C 0.4754 0.49955 0.38343 0.0
C406 C 0.35072 0.45352 0.36034 0.0
C407 C 0.34229 0.47434 0.34817 0.0
C408 C 0.37902 0.4626 0.37685 0.0
C409 C 0.39939 0.49267 0.38219 0.0
C410 C 0.3901 0.51336 0.37404 0.0
C411 C 0.36178 0.50427 0.35696 0.0
H412 H 0.96378 0.41893 -0.00851 0.0
H413 H 1.01205 0.44549 0.86509 0.0
H414 H 0.92758 0.37255 0.95667 0.0
H415 H 0.97559 0.39948 0.83008 0.0
H416 H 0.91621 0.30895 0.78036 0.0
H417 H 0.95468 0.34677 0.82805 0.0
H418 H 0.88868 0.35715 0.90051 0.0
H419 H 0.85027 0.31891 0.85323 0.0
C420 C 0.96683 0.4148 0.95637 0.0
C421 C 0.99079 0.43605 0.93102 0.0
C422 C 0.94596 0.38823 0.93636 0.0
C423 C 0.94855 0.38223 0.89052 0.0
C424 C 0.97307 0.40309 0.86566 0.0
C425 C 0.99393 0.42964 0.88566 0.0
C426 C 0.90993 0.31882 0.80732 0.0
C427 C 0.88029 0.31116 0.81293 0.0
C428 C 0.93196 0.34067 0.83436 0.0
C429 C 0.92488 0.35547 0.86752 0.0
C430 C 0.89497 0.34615 0.87547 0.0
C431 C 0.87289 0.32416 0.84848 0.0
H432 H 0.99401 0.55863 0.93204 0.0
H433 H 0.93729 0.50741 0.04243 0.0
H434 H 0.95606 0.56859 0.90391 0.0
H435 H 0.89881 0.5173 0.01375 0.0
H436 H 0.89417 0.59752 0.8689 0.0
H437 H 0.92818 0.59442 0.92295 0.0
H438 H 0.86702 0.5017 0.94149 0.0
H439 H 0.83293 0.50508 0.88761 0.0
C440 C 0.9735 0.54974 0.95062 0.0
C441 C 0.96864 0.53213 0.98936 0.0
C442 C 0.9518 0.55569 0.93473 0.0
C443 C 0.92445 0.54392 0.95679 0.0
C444 C 0.91968 0.52672 -0.0039 0.0
C445 C 0.94171 0.52114 0.01254 0.0
C446 C 0.88738 0.57689 0.88645 0.0
C447 C 0.8609 0.55159 0.87445 0.0
C448 C 0.90699 0.57498 0.91688 0.0
C449 C 0.90056 0.54768 0.93573 0.0
C450 C 0.87259 0.52306 0.92765 0.0
C451 C 0.85294 0.525 0.89708 0.0
H452 H 0.46305 0.93981 0.39987 0.0
H453 H 0.42044 0.92991 0.52945 0.0
H454 H 0.41836 0.8983 0.36964 0.0
H455 H 0.37488 0.88836 0.49829 0.0
H456 H 0.30126 0.85971 0.37153 0.0
H457 H 0.34034 0.88785 0.42708 0.0
H458 H 0.38494 0.84092 0.38647 0.0
H459 H 0.34559 0.81252 0.33148 0.0
C460 C 0.44406 0.92873 0.42192 0.0
C461 C 0.44513 0.93824 0.4669 0.0
C462 C 0.41859 0.90473 0.40475 0.0
C463 C 0.39332 0.88993 0.43182 0.0
C464 C 0.39421 0.89929 0.47693 0.0
C465 C 0.42015 0.92301 0.49463 0.0
C466 C 0.31854 0.85426 0.37652 0.0
C467 C 0.32039 0.83383 0.34772 0.0
C468 C 0.34096 0.87043 0.40809 0.0
C469 C 0.36575 0.86673 0.41061 0.0
C470 C 0.36604 0.84417 0.38507 0.0
C471 C 0.34343 0.82773 0.35397 0.0
H472 H 0.46098 0.43245 0.83911 0.0
H473 H 0.47192 0.4006 0.96956 0.0
H474 H 0.44934 0.38545 0.80458 0.0
H475 H 0.45981 0.35361 0.93528 0.0
H476 H 0.49159 0.3047 0.83386 0.0
H477 H 0.48633 0.33887 0.88392 0.0
H478 H 0.4156 0.33241 0.79914 0.0
H479 H 0.42141 0.29853 0.7488 0.0
C480 C 0.46038 0.41528 0.86055 0.0
C481 C 0.4678 0.42048 0.9069 0.0
C482 C 0.45346 0.3882 0.84089 0.0
C483 C 0.45371 0.36573 0.86719 0.0
C484 C 0.45975 0.37052 0.91396 0.0
C485 C 0.4667 0.39752 0.93355 0.0
C486 C 0.47378 0.30922 0.82758 0.0
C487 C 0.4568 0.29893 0.78776 0.0
C488 C 0.47093 0.3291 0.85594 0.0
C489 C 0.45103 0.33898 0.84482 0.0
C490 C 0.43157 0.32574 0.80804 0.0
C491 C 0.43444 0.30587 0.77975 0.0
H492 H 0.06362 0.45468 0.44992 0.0
H493 H 0.12077 0.51444 0.55355 0.0
H494 H 0.10287 0.44595 0.42529 0.0
H495 H 0.16044 0.50563 0.52869 0.0
H496 H 0.22459 0.52042 0.40202 0.0
H497 H 0.18986 0.52069 0.45692 0.0
H498 H 0.13593 0.42628 0.44337 0.0
H499 H 0.17077 0.42632 0.38799 0.0
C500 C 0.08446 0.46556 0.46803 0.0
C501 C 0.08919 0.4855 0.50336 0.0
C502 C 0.10692 0.4603 0.45421 0.0
C503 C 0.13484 0.47506 0.47506 0.0
C504 C 0.1392 0.49398 0.5119 0.0
C505 C 0.11648 0.49896 0.52619 0.0
C506 C 0.20615 0.4996 0.41279 0.0
C507 C 0.20039 0.47333 0.39126 0.0
C508 C 0.18614 0.49971 0.44408 0.0
C509 C 0.15986 0.47355 0.4539 0.0
C510 C 0.1558 0.44683 0.43601 0.0
C511 C 0.1759 0.44674 0.40483 0.0
H512 H 0.62355 0.10181 0.04348 0.0
H513 H 0.5848 0.09326 0.91025 0.0
H514 H 0.66979 0.14421 0.01593 0.0
H515 H 0.63001 0.13553 0.88368 0.0
H516 H 0.69997 0.222 0.85105 0.0
H517 H 0.66168 0.19353 0.90683 0.0
H518 H 0.70637 0.14578 0.94322 0.0
H519 H 0.74462 0.17422 0.887 0.0
C520 C 0.62482 0.10918 0.00864 0.0
C521 C 0.60074 0.09414 0.97884 0.0
C522 C 0.65113 0.13336 -0.00698 0.0
C523 C 0.6532 0.14331 0.94795 0.0
C524 C 0.62883 0.12861 0.91879 0.0
C525 C 0.60306 0.10421 0.93389 0.0
C526 C 0.70258 0.20676 0.87304 0.0
C527 C 0.72525 0.20037 0.86508 0.0
C528 C 0.68055 0.19028 0.90463 0.0
C529 C 0.68098 0.16729 0.92884 0.0
C530 C 0.70569 0.16355 0.92523 0.0
C531 C 0.72767 0.17994 0.8933 0.0
H532 H 0.54127 0.62781 0.50451 0.0
H533 H 0.61813 0.64275 0.42941 0.0
H534 H 0.53752 0.66461 0.4573 0.0
H535 H 0.61473 0.67963 0.38284 0.0
H536 H 0.60606 0.75059 0.30946 0.0
H537 H 0.61457 0.72797 0.37698 0.0
H538 H 0.52357 0.65884 0.37331 0.0
H539 H 0.51528 0.68128 0.30596 0.0
C540 C 0.55811 0.63992 0.47934 0.0
C541 C 0.58004 0.63253 0.47064 0.0
C542 C 0.55579 0.66072 0.45197 0.0
C543 C 0.57568 0.67483 0.41605 0.0
C544 C 0.5992 0.66936 0.41036 0.0
C545 C 0.60117 0.64823 0.43707 0.0
C546 C 0.58779 0.73095 0.32384 0.0
C547 C 0.56006 0.71756 0.30242 0.0
C548 C 0.59266 0.71796 0.36232 0.0
C549 C 0.56974 0.69163 0.38053 0.0
C550 C 0.5416 0.6793 0.36056 0.0
C551 C 0.53688 0.69199 0.32177 0.0
H552 H 0.47132 0.04812 0.53938 0.0
H553 H 0.53359 0.10929 0.44248 0.0
H554 H 0.46047 0.08573 0.56534 0.0
H555 H 0.52269 0.14741 0.46881 0.0
H556 H 0.52825 0.20788 0.59717 0.0
H557 H 0.53337 0.17537 0.54275 0.0
H558 H 0.43921 0.11702 0.54523 0.0
H559 H 0.43439 0.14936 0.60019 0.0
C560 C 0.48234 0.06952 0.52304 0.0
C561 C 0.50343 0.07576 0.48905 0.0
C562 C 0.47592 0.09107 0.53766 0.0
C563 C 0.49063 0.11962 0.51905 0.0
C564 C 0.51101 0.12564 0.48383 0.0
C565 C 0.51715 0.1038 0.46864 0.0
C566 C 0.50857 0.18892 0.58413 0.0
C567 C 0.48093 0.18115 0.6025 0.0
C568 C 0.51147 0.17017 0.55316 0.0
C569 C 0.48674 0.14329 0.54035 0.0
C570 C 0.45873 0.13731 0.555 0.0
C571 C 0.45587 0.156 0.58595 0.0
H572 H 0.40948 0.47136 0.00826 0.0
H573 H 0.43988 0.44857 0.13073 0.0
H574 H 0.36254 0.45709 0.04434 0.0
H575 H 0.39269 0.43441 0.16695 0.0
H576 H 0.31369 0.47894 0.16235 0.0
H577 H 0.34843 0.47933 0.10694 0.0
H578 H 0.33839 0.3988 0.16461 0.0
H579 H 0.30358 0.39855 0.22 0.0
C580 C 0.40611 0.46306 0.04282 0.0
C581 C 0.42864 0.46136 0.0668 0.0
C582 C 0.37912 0.45487 0.06339 0.0
C583 C 0.37384 0.44456 0.10837 0.0
C584 C 0.39593 0.44185 0.13192 0.0
C585 C 0.42308 0.45022 0.11138 0.0
C586 C 0.31752 0.4604 0.16134 0.0
C587 C 0.30615 0.43883 0.19551 0.0
C588 C 0.33775 0.46077 0.12997 0.0
C589 C 0.3468 0.43954 0.1324 0.0
C590 C 0.33233 0.41581 0.16267 0.0
C591 C 0.31199 0.41534 0.19377 0.0
H592 H 0.92045 0.41812 0.47492 0.0
H593 H 0.9847 0.41545 0.56461 0.0
H594 H 0.88176 0.372 0.50871 0.0
H595 H 0.94662 0.36968 0.59757 0.0
H596 H 0.88121 0.28318 0.64177 0.0
H597 H 0.91057 0.31655 0.58071 0.0
H598 H 0.85998 0.36112 0.59014 0.0
H599 H 0.83042 0.32736 0.65104 0.0
C600 C 0.92639 0.40728 0.50097 0.0
C601 C 0.95551 0.42034 0.51732 0.0
C602 C 0.90429 0.38104 0.52039 0.0
C603 C 0.91117 0.36714 0.5556 0.0
C604 C 0.94062 0.37954 0.57004 0.0
C605 C 0.96245 0.4059 0.55139 0.0
C606 C 0.87548 0.29919 0.62914 0.0
C607 C 0.85358 0.30273 0.65078 0.0
C608 C 0.89242 0.31846 0.59455 0.0
C609 C 0.8879 0.34176 0.58123 0.0
C610 C 0.86388 0.34329 0.59952 0.0
C611 C 0.84687 0.32393 0.63423 0.0
H612 H 0.57261 0.98421 0.05421 0.0
H613 H 0.51961 0.92516 0.94674 0.0
H614 H 0.58577 0.9482 0.08045 0.0
H615 H 0.53288 0.88867 0.97336 0.0
H616 H 0.52673 0.82462 0.09745 0.0
H617 H 0.5207 0.85734 0.04426 0.0
H618 H 0.61263 0.9221 0.06109 0.0
H619 H 0.61833 0.88952 0.11477 0.0
C620 C 0.56406 0.96364 0.03577 0.0
C621 C 0.54492 0.95751 -0.00145 0.0
C622 C 0.57185 0.94304 0.05056 0.0
C623 C 0.56053 0.91556 0.02884 0.0
C624 C 0.54196 0.90964 0.99078 0.0
C625 C 0.53446 0.93055 0.97549 0.0
C626 C 0.54593 0.8452 0.08787 0.0
C627 C 0.57297 0.85461 0.11016 0.0
C628 C 0.54247 0.86407 0.05762 0.0
C629 C 0.56604 0.89262 0.0493 0.0
C630 C 0.59392 0.90048 0.0675 0.0
C631 C 0.59732 0.8817 0.09775 0.0
H632 H 0.63905 0.51872 0.48665 0.0
H633 H 0.66803 0.61028 0.51148 0.0
H634 H 0.67663 0.52131 0.53907 0.0
H635 H 0.70677 0.61364 0.56188 0.0
H636 H 0.72385 0.5914 0.70651 0.0
H637 H 0.70201 0.59642 0.63661 0.0
H638 H 0.72495 0.53734 0.56872 0.0
H639 H 0.74591 0.53142 0.64015 0.0
C640 C 0.65463 0.53984 0.5013 0.0
C641 C 0.6508 0.56434 0.49491 0.0
C642 C 0.67615 0.54136 0.53166 0.0
C643 C 0.69437 0.56753 0.55584 0.0
C644 C 0.6926 0.59287 0.54505 0.0
C645 C 0.67076 0.59116 0.51551 0.0
C646 C 0.72451 0.57968 0.67658 0.0
C647 C 0.73623 0.56067 0.67913 0.0
C648 C 0.71229 0.58285 0.63607 0.0
C649 C 0.71157 0.56726 0.5966 0.0
C650 C 0.72478 0.54945 0.59845 0.0
C651 C 0.73706 0.54626 0.63927 0.0
H652 H 0.13663 0.59634 0.96198 0.0
H653 H 0.07506 0.60794 0.04445 0.0
H654 H 0.17703 0.64305 0.99111 0.0
H655 H 0.11497 0.6544 0.07286 0.0
H656 H 0.22693 0.68501 0.13477 0.0
H657 H 0.1971 0.65319 0.07248 0.0
H658 H 0.15534 0.70612 0.05618 0.0
H659 H 0.18541 0.73795 0.1186 0.0
C660 C 0.13162 0.60933 0.98514 0.0
C661 C 0.1028 0.59847 0.00131 0.0
C662 C 0.15471 0.63596 0.00189 0.0
C663 C 0.14919 0.65241 0.03424 0.0
C664 C 0.11996 0.64251 0.04752 0.0
C665 C 0.09709 0.61575 0.03154 0.0
C666 C 0.21259 0.69076 0.11606 0.0
C667 C 0.20852 0.71393 0.13107 0.0
C668 C 0.1954 0.6725 0.08048 0.0
C669 C 0.17356 0.67692 0.0599 0.0
C670 C 0.17184 0.70208 0.07169 0.0
C671 C 0.18924 0.72049 0.10702 0.0
loop_
_geom_bond_atom_site_label_1
_geom_bond_atom_site_label_2
_geom_bond_distance
_geom_bond_site_symmetry_2
_ccdc_geom_bond_type
C0 O2 1.247 . S
C0 O4 1.269 . S
C1 O8 1.247 . S
C1 O9 1.258 1_556 S
O2 C0 1.247 . S
O2 Zn3 2.028 1_455 S
Zn3 O2 2.028 1_655 S
Zn3 O7 2.035 . S
Zn3 O9 2.035 . S
Zn3 O10 2.028 1_655 S
O4 C0 1.269 . S
O4 Zn5 2.029 1_554 S
Zn5 O4 2.029 1_556 S
Zn5 O6 2.028 1_455 S
Zn5 O8 2.028 1_455 S
Zn5 O11 2.029 1_556 S
O6 Zn5 2.028 1_655 S
O6 C12 1.247 . S
O7 Zn3 2.035 . S
O7 C12 1.258 1_554 S
O8 C1 1.247 . S
O8 Zn5 2.028 1_655 S
O9 C1 1.258 1_554 S
O9 Zn3 2.035 . S
O10 Zn3 2.028 1_455 S
O10 C13 1.247 . S
O11 Zn5 2.029 1_554 S
O11 C13 1.269 . S
C12 O6 1.247 . S
C12 O7 1.258 1_556 S
C13 O10 1.247 . S
C13 O11 1.269 . S
C14 O16 1.247 . S
C14 O18 1.258 . S
C15 O22 1.247 . S
C15 O23 1.258 . S
O16 C14 1.247 . S
O16 Zn17 2.028 1_545 S
Zn17 O16 2.028 1_565 S
Zn17 O21 2.035 . S
Zn17 O23 2.035 . S
Zn17 O24 2.028 1_565 S
O18 C14 1.258 . S
O18 Zn19 2.035 . S
Zn19 O18 2.035 . S
Zn19 O20 2.028 1_545 S
Zn19 O22 2.028 1_545 S
Zn19 O25 2.035 . S
O20 Zn19 2.028 1_565 S
O20 C26 1.247 . S
O21 Zn17 2.035 . S
O21 C26 1.258 . S
O22 C15 1.247 . S
O22 Zn19 2.028 1_565 S
O23 C15 1.258 . S
O23 Zn17 2.035 . S
O24 Zn17 2.028 1_545 S
O24 C27 1.247 . S
O25 Zn19 2.035 . S
O25 C27 1.258 . S
C26 O20 1.247 . S
C26 O21 1.258 . S
C27 O24 1.247 . S
C27 O25 1.258 . S
C28 O30 1.247 . S
C28 O32 1.258 1_556 S
C29 O36 1.247 . S
C29 O37 1.271 . S
O30 C28 1.247 . S
O30 Zn31 2.028 . S
Zn31 O30 2.028 . S
Zn31 O35 2.028 1_556 S
Zn31 O37 2.027 1_556 S
Zn31 O38 2.028 . S
O32 C28 1.258 1_554 S
O32 Zn33 2.035 . S
Zn33 O32 2.035 . S
Zn33 O34 2.028 . S
Zn33 O36 2.028 . S
Zn33 O39 2.035 . S
O34 Zn33 2.028 . S
O34 C40 1.247 . S
O35 Zn31 2.028 1_554 S
O35 C40 1.271 . S
O36 C29 1.247 . S
O36 Zn33 2.028 . S
O37 C29 1.271 . S
O37 Zn31 2.027 1_554 S
O38 Zn31 2.028 . S
O38 C41 1.247 . S
O39 Zn33 2.035 . S
O39 C41 1.258 1_554 S
C40 O34 1.247 . S
C40 O35 1.271 . S
C41 O38 1.247 . S
C41 O39 1.258 1_556 S
C42 O44 1.247 . S
C42 O46 1.258 . S
C43 O50 1.247 . S
C43 O51 1.258 . S
O44 C42 1.247 . S
O44 Zn45 2.028 . S
Zn45 O44 2.028 . S
Zn45 O49 2.035 1_455 S
Zn45 O51 2.035 1_455 S
Zn45 O52 2.028 . S
O46 C42 1.258 . S
O46 Zn47 2.035 1_455 S
Zn47 O46 2.035 1_655 S
Zn47 O48 2.028 . S
Zn47 O50 2.028 . S
Zn47 O53 2.035 1_655 S
O48 Zn47 2.028 . S
O48 C54 1.247 . S
O49 Zn45 2.035 1_655 S
O49 C54 1.258 . S
O50 C43 1.247 . S
O50 Zn47 2.028 . S
O51 C43 1.258 . S
O51 Zn45 2.035 1_655 S
O52 Zn45 2.028 . S
O52 C55 1.247 . S
O53 Zn47 2.035 1_455 S
O53 C55 1.258 . S
C54 O48 1.247 . S
C54 O49 1.258 . S
C55 O52 1.247 . S
C55 O53 1.258 . S
C56 O58 1.247 . S
C56 O60 1.258 . S
C57 O64 1.247 . S
C57 O65 1.258 1_556 S
O58 C56 1.247 . S
O58 Zn59 2.028 1_565 S
Zn59 O58 2.028 1_545 S
Zn59 O63 2.035 . S
Zn59 O65 2.035 . S
Zn59 O66 2.028 1_545 S
O60 C56 1.258 . S
O60 Zn61 2.035 1_554 S
Zn61 O60 2.035 1_556 S
Zn61 O62 2.028 1_565 S
Zn61 O64 2.028 1_565 S
Zn61 O67 2.035 1_556 S
O62 Zn61 2.028 1_545 S
O62 C68 1.247 . S
O63 Zn59 2.035 . S
O63 C68 1.258 1_554 S
O64 C57 1.247 . S
O64 Zn61 2.028 1_545 S
O65 C57 1.258 1_554 S
O65 Zn59 2.035 . S
O66 Zn59 2.028 1_565 S
O66 C69 1.247 . S
O67 Zn61 2.035 1_554 S
O67 C69 1.258 . S
C68 O62 1.247 . S
C68 O63 1.258 1_556 S
C69 O66 1.247 . S
C69 O67 1.258 . S
C70 O72 1.247 . S
C70 O74 1.258 . S
C71 O78 1.247 . S
C71 O79 1.258 . S
O72 C70 1.247 . S
O72 Zn73 2.028 . S
Zn73 O72 2.028 . S
Zn73 O77 2.035 . S
Zn73 O79 2.035 . S
Zn73 O80 2.028 . S
O74 C70 1.258 . S
O74 Zn75 2.035 . S
Zn75 O74 2.035 . S
Zn75 O76 2.028 . S
Zn75 O78 2.028 . S
Zn75 O81 2.035 . S
O76 Zn75 2.028 . S
O76 C82 1.247 . S
O77 Zn73 2.035 . S
O77 C82 1.258 . S
O78 C71 1.247 . S
O78 Zn75 2.028 . S
O79 C71 1.258 . S
O79 Zn73 2.035 . S
O80 Zn73 2.028 . S
O80 C83 1.247 . S
O81 Zn75 2.035 . S
O81 C83 1.258 . S
C82 O76 1.247 . S
C82 O77 1.258 . S
C83 O80 1.247 . S
C83 O81 1.258 . S
H84 C90 0.930 . S
H85 C93 0.931 . S
H86 C95 0.931 . S
H87 C97 0.930 . S
H88 C99 0.930 . S
H89 C101 0.931 . S
C90 H84 0.930 . S
C90 C91 1.380 . S
C90 C92 1.394 . S
C91 C90 1.380 . S
C91 C95 1.382 . S
C92 C90 1.394 . S
C92 C93 1.400 . S
C93 H85 0.931 . S
C93 C92 1.400 . S
C93 C94 1.375 . S
C94 C93 1.375 . S
C94 C95 1.415 . S
C94 C96 1.501 . S
C95 H86 0.931 . S
C95 C91 1.382 . S
C95 C94 1.415 . S
C96 C94 1.501 . S
C96 C97 1.384 . S
C96 C101 1.408 . S
C97 H87 0.930 . S
C97 C96 1.384 . S
C97 C98 1.389 . S
C98 C97 1.389 . S
C98 C99 1.405 . S
C99 H88 0.930 . S
C99 C98 1.405 . S
C99 C100 1.364 . S
C100 C99 1.364 . S
C100 C101 1.400 . S
C101 H89 0.931 . S
C101 C96 1.408 . S
C101 C100 1.400 . S
H102 C108 0.930 . S
H103 C111 0.931 . S
H104 C113 0.931 . S
H105 C115 0.930 . S
H106 C117 0.930 . S
H107 C119 0.931 . S
C108 H102 0.930 . S
C108 C109 1.380 . S
C108 C110 1.394 . S
C109 C108 1.380 . S
C109 C113 1.382 . S
C110 C108 1.394 . S
C110 C111 1.400 . S
C111 H103 0.931 . S
C111 C110 1.400 . S
C111 C112 1.375 . S
C112 C111 1.375 . S
C112 C113 1.415 . S
C112 C114 1.501 . S
C113 H104 0.931 . S
C113 C109 1.382 . S
C113 C112 1.415 . S
C114 C112 1.501 . S
C114 C115 1.384 . S
C114 C119 1.408 . S
C115 H105 0.930 . S
C115 C114 1.384 . S
C115 C116 1.389 . S
C116 C115 1.389 . S
C116 C117 1.405 . S
C117 H106 0.930 . S
C117 C116 1.405 . S
C117 C118 1.364 . S
C118 C117 1.364 . S
C118 C119 1.400 . S
C119 H107 0.931 . S
C119 C114 1.408 . S
C119 C118 1.400 . S
H120 C126 0.930 . S
H121 C129 0.931 . S
H122 C131 0.931 . S
H123 C133 0.930 . S
H124 C135 0.930 . S
H125 C137 0.931 . S
C126 H120 0.930 . S
C126 C127 1.380 . S
C126 C128 1.394 . S
C127 C126 1.380 . S
C127 C131 1.382 . S
C128 C126 1.394 . S
C128 C129 1.400 . S
C129 H121 0.931 . S
C129 C128 1.400 . S
C129 C130 1.375 . S
C130 C129 1.375 . S
C130 C131 1.415 . S
C130 C132 1.501 . S
C131 H122 0.931 . S
C131 C127 1.382 . S
C131 C130 1.415 . S
C132 C130 1.501 . S
C132 C133 1.384 . S
C132 C137 1.408 . S
C133 H123 0.930 . S
C133 C132 1.384 . S
C133 C134 1.389 . S
C134 C133 1.389 . S
C134 C135 1.405 . S
C135 H124 0.930 . S
C135 C134 1.405 . S
C135 C136 1.364 . S
C136 C135 1.364 . S
C136 C137 1.400 . S
C137 H125 0.931 . S
C137 C132 1.408 . S
C137 C136 1.400 . S
H138 C144 0.930 . S
H139 C147 0.931 . S
H140 C149 0.931 . S
H141 C151 0.930 . S
H142 C153 0.930 . S
H143 C155 0.931 . S
C144 H138 0.930 . S
C144 C145 1.380 . S
C144 C146 1.394 . S
C145 C144 1.380 . S
C145 C149 1.382 . S
C146 C144 1.394 . S
C146 C147 1.400 . S
C147 H139 0.931 . S
C147 C146 1.400 . S
C147 C148 1.375 . S
C148 C147 1.375 . S
C148 C149 1.415 . S
C148 C150 1.501 . S
C149 H140 0.931 . S
C149 C145 1.382 . S
C149 C148 1.415 . S
C150 C148 1.501 . S
C150 C151 1.384 . S
C150 C155 1.408 . S
C151 H141 0.930 . S
C151 C150 1.384 . S
C151 C152 1.389 . S
C152 C151 1.389 . S
C152 C153 1.405 . S
C153 H142 0.930 . S
C153 C152 1.405 . S
C153 C154 1.364 . S
C154 C153 1.364 . S
C154 C155 1.400 . S
C155 H143 0.931 . S
C155 C150 1.408 . S
C155 C154 1.400 . S
H156 C162 0.930 . S
H157 C165 0.931 . S
H158 C167 0.931 . S
H159 C169 0.930 . S
H160 C171 0.930 . S
H161 C173 0.931 . S
C162 H156 0.930 . S
C162 C163 1.380 . S
C162 C164 1.394 . S
C163 C162 1.380 . S
C163 C167 1.382 . S
C164 C162 1.394 . S
C164 C165 1.400 . S
C165 H157 0.931 . S
C165 C164 1.400 . S
C165 C166 1.375 . S
C166 C165 1.375 . S
C166 C167 1.415 . S
C166 C168 1.501 . S
C167 H158 0.931 . S
C167 C163 1.382 . S
C167 C166 1.415 . S
C168 C166 1.501 . S
C168 C169 1.384 . S
C168 C173 1.408 . S
C169 H159 0.930 . S
C169 C168 1.384 . S
C169 C170 1.389 . S
C170 C169 1.389 . S
C170 C171 1.405 . S
C171 H160 0.930 . S
C171 C170 1.405 . S
C171 C172 1.364 . S
C172 C171 1.364 . S
C172 C173 1.400 . S
C173 H161 0.931 . S
C173 C168 1.408 . S
C173 C172 1.400 . S
H174 C180 0.930 . S
H175 C183 0.931 . S
H176 C185 0.931 . S
H177 C187 0.930 . S
H178 C189 0.930 . S
H179 C191 0.931 . S
C180 H174 0.930 . S
C180 C181 1.380 . S
C180 C182 1.394 . S
C181 C180 1.380 . S
C181 C185 1.382 . S
C182 C180 1.394 . S
C182 C183 1.400 . S
C183 H175 0.931 . S
C183 C182 1.400 . S
C183 C184 1.375 . S
C184 C183 1.375 . S
C184 C185 1.415 . S
C184 C186 1.501 . S
C185 H176 0.931 . S
C185 C181 1.382 . S
C185 C184 1.415 . S
C186 C184 1.501 . S
C186 C187 1.384 . S
C186 C191 1.408 . S
C187 H177 0.930 . S
C187 C186 1.384 . S
C187 C188 1.389 . S
C188 C187 1.389 . S
C188 C189 1.405 . S
C189 H178 0.930 . S
C189 C188 1.405 . S
C189 C190 1.364 . S
C190 C189 1.364 . S
C190 C191 1.400 . S
C191 H179 0.931 . S
C191 C186 1.408 . S
C191 C190 1.400 . S
H192 C200 0.950 . S
H193 C205 0.950 . S
H194 C202 0.950 . S
H195 C204 0.950 . S
H196 C206 0.950 . S
H197 C208 0.950 . S
H198 C210 0.950 . S
H199 C211 0.950 . S
C200 H192 0.950 . S
C200 C201 1.386 . S
C200 C202 1.391 . S
C201 C200 1.386 . S
C201 C205 1.393 . S
C202 H194 0.950 . S
C202 C200 1.391 . S
C202 C203 1.400 . S
C203 C202 1.400 . S
C203 C204 1.398 . S
C203 C209 1.491 . S
C204 H195 0.950 . S
C204 C203 1.398 . S
C204 C205 1.391 . S
C205 H193 0.950 . S
C205 C201 1.393 . S
C205 C204 1.391 . S
C206 H196 0.950 . S
C206 C207 1.386 . S
C206 C208 1.391 . S
C207 C206 1.386 . S
C207 C211 1.393 . S
C208 H197 0.950 . S
C208 C206 1.391 . S
C208 C209 1.400 . S
C209 C203 1.491 . S
C209 C208 1.400 . S
C209 C210 1.398 . S
C210 H198 0.950 . S
C210 C209 1.398 . S
C210 C211 1.391 . S
C211 H199 0.950 . S
C211 C207 1.393 . S
C211 C210 1.391 . S
H212 C220 0.950 . S
H213 C225 0.950 . S
H214 C222 0.950 . S
H215 C224 0.950 . S
H216 C226 0.950 . S
H217 C228 0.950 . S
H218 C230 0.950 . S
H219 C231 0.950 . S
C220 H212 0.950 . S
C220 C221 1.386 . S
C220 C222 1.391 . S
C221 C220 1.386 . S
C221 C225 1.393 . S
C222 H214 0.950 . S
C222 C220 1.391 . S
C222 C223 1.400 . S
C223 C222 1.400 . S
C223 C224 1.398 . S
C223 C229 1.491 . S
C224 H215 0.950 . S
C224 C223 1.398 . S
C224 C225 1.391 . S
C225 H213 0.950 . S
C225 C221 1.393 . S
C225 C224 1.391 . S
C226 H216 0.950 . S
C226 C227 1.386 . S
C226 C228 1.391 . S
C227 C226 1.386 . S
C227 C231 1.393 . S
C228 H217 0.950 . S
C228 C226 1.391 . S
C228 C229 1.400 . S
C229 C223 1.491 . S
C229 C228 1.400 . S
C229 C230 1.398 . S
C230 H218 0.950 . S
C230 C229 1.398 . S
C230 C231 1.391 . S
C231 H219 0.950 . S
C231 C227 1.393 . S
C231 C230 1.391 . S
H232 C240 0.950 . S
H233 C245 0.950 . S
H234 C242 0.950 . S
H235 C244 0.950 . S
H236 C246 0.950 . S
H237 C248 0.950 . S
H238 C250 0.950 . S
H239 C251 0.950 . S
C240 H232 0.950 . S
C240 C241 1.386 . S
C240 C242 1.391 . S
C241 C240 1.386 . S
C241 C245 1.393 . S
C242 H234 0.950 . S
C242 C240 1.391 . S
C242 C243 1.400 . S
C243 C242 1.400 . S
C243 C244 1.398 . S
C243 C249 1.491 . S
C244 H235 0.950 . S
C244 C243 1.398 . S
C244 C245 1.391 . S
C245 H233 0.950 . S
C245 C241 1.393 . S
C245 C244 1.391 . S
C246 H236 0.950 . S
C246 C247 1.386 . S
C246 C248 1.391 . S
C247 C246 1.386 . S
C247 C251 1.393 . S
C248 H237 0.950 . S
C248 C246 1.391 . S
C248 C249 1.400 . S
C249 C243 1.491 . S
C249 C248 1.400 . S
C249 C250 1.398 . S
C250 H238 0.950 . S
C250 C249 1.398 . S
C250 C251 1.391 . S
C251 H239 0.950 . S
C251 C247 1.393 . S
C251 C250 1.391 . S
H252 C260 0.950 . S
H253 C265 0.950 . S
H254 C262 0.950 . S
H255 C264 0.950 . S
H256 C266 0.950 . S
H257 C268 0.950 . S
H258 C270 0.950 . S
H259 C271 0.950 . S
C260 H252 0.950 . S
C260 C261 1.386 . S
C260 C262 1.391 . S
C261 C260 1.386 . S
C261 C265 1.393 . S
C262 H254 0.950 . S
C262 C260 1.391 . S
C262 C263 1.400 . S
C263 C262 1.400 . S
C263 C264 1.398 . S
C263 C269 1.491 . S
C264 H255 0.950 . S
C264 C263 1.398 . S
C264 C265 1.391 . S
C265 H253 0.950 . S
C265 C261 1.393 . S
C265 C264 1.391 . S
C266 H256 0.950 . S
C266 C267 1.386 . S
C266 C268 1.391 . S
C267 C266 1.386 . S
C267 C271 1.393 . S
C268 H257 0.950 . S
C268 C266 1.391 . S
C268 C269 1.400 . S
C269 C263 1.491 . S
C269 C268 1.400 . S
C269 C270 1.398 . S
C270 H258 0.950 . S
C270 C269 1.398 . S
C270 C271 1.391 . S
C271 H259 0.950 . S
C271 C267 1.393 . S
C271 C270 1.391 . S
H272 C280 0.950 . S
H273 C285 0.950 . S
H274 C282 0.950 . S
H275 C284 0.950 . S
H276 C286 0.950 . S
H277 C288 0.950 . S
H278 C290 0.950 . S
H279 C291 0.950 . S
C280 H272 0.950 . S
C280 C281 1.386 . S
C280 C282 1.391 . S
C281 C280 1.386 . S
C281 C285 1.393 . S
C282 H274 0.950 . S
C282 C280 1.391 . S
C282 C283 1.400 . S
C283 C282 1.400 . S
C283 C284 1.398 . S
C283 C289 1.491 . S
C284 H275 0.950 . S
C284 C283 1.398 . S
C284 C285 1.391 . S
C285 H273 0.950 . S
C285 C281 1.393 . S
C285 C284 1.391 . S
C286 H276 0.950 . S
C286 C287 1.386 . S
C286 C288 1.391 . S
C287 C286 1.386 . S
C287 C291 1.393 . S
C288 H277 0.950 . S
C288 C286 1.391 . S
C288 C289 1.400 . S
C289 C283 1.491 . S
C289 C288 1.400 . S
C289 C290 1.398 . S
C290 H278 0.950 . S
C290 C289 1.398 . S
C290 C291 1.391 . S
C291 H279 0.950 . S
C291 C287 1.393 . S
C291 C290 1.391 . S
H292 C300 0.950 . S
H293 C305 0.950 . S
H294 C302 0.950 . S
H295 C304 0.950 . S
H296 C306 0.950 . S
H297 C308 0.950 . S
H298 C310 0.950 . S
H299 C311 0.950 . S
C300 H292 0.950 . S
C300 C301 1.386 . S
C300 C302 1.391 . S
C301 C300 1.386 . S
C301 C305 1.393 . S
C302 H294 0.950 . S
C302 C300 1.391 . S
C302 C303 1.400 . S
C303 C302 1.400 . S
C303 C304 1.398 . S
C303 C309 1.491 . S
C304 H295 0.950 . S
C304 C303 1.398 . S
C304 C305 1.391 . S
C305 H293 0.950 . S
C305 C301 1.393 . S
C305 C304 1.391 . S
C306 H296 0.950 . S
C306 C307 1.386 . S
C306 C308 1.391 . S
C307 C306 1.386 . S
C307 C311 1.393 . S
C308 H297 0.950 . S
C308 C306 1.391 . S
C308 C309 1.400 . S
C309 C303 1.491 . S
C309 C308 1.400 . S
C309 C310 1.398 . S
C310 H298 0.950 . S
C310 C309 1.398 . S
C310 C311 1.391 . S
C311 H299 0.950 . S
C311 C307 1.393 . S
C311 C310 1.391 . S
H312 C320 0.950 . S
H313 C325 0.950 . S
H314 C322 0.950 . S
H315 C324 0.950 . S
H316 C326 0.950 . S
H317 C328 0.950 . S
H318 C330 0.950 . S
H319 C331 0.950 . S
C320 H312 0.950 . S
C320 C321 1.386 . S
C320 C322 1.391 . S
C321 C320 1.386 . S
C321 C325 1.393 . S
C322 H314 0.950 . S
C322 C320 1.391 . S
C322 C323 1.400 . S
C323 C322 1.400 . S
C323 C324 1.398 . S
C323 C329 1.491 . S
C324 H315 0.950 . S
C324 C323 1.398 . S
C324 C325 1.391 . S
C325 H313 0.950 . S
C325 C321 1.393 . S
C325 C324 1.391 . S
C326 H316 0.950 . S
C326 C327 1.386 . S
C326 C328 1.391 . S
C327 C326 1.386 . S
C327 C331 1.393 . S
C328 H317 0.950 . S
C328 C326 1.391 . S
C328 C329 1.400 . S
C329 C323 1.491 . S
C329 C328 1.400 . S
C329 C330 1.398 . S
C330 H318 0.950 . S
C330 C329 1.398 . S
C330 C331 1.391 . S
C331 H319 0.950 . S
C331 C327 1.393 . S
C331 C330 1.391 . S
H332 C340 0.950 . S
H333 C345 0.950 . S
H334 C342 0.950 . S
H335 C344 0.950 . S
H336 C346 0.950 . S
H337 C348 0.950 . S
H338 C350 0.950 . S
H339 C351 0.950 . S
C340 H332 0.950 . S
C340 C341 1.386 . S
C340 C342 1.391 . S
C341 C340 1.386 . S
C341 C345 1.393 . S
C342 H334 0.950 . S
C342 C340 1.391 . S
C342 C343 1.400 . S
C343 C342 1.400 . S
C343 C344 1.398 . S
C343 C349 1.491 . S
C344 H335 0.950 . S
C344 C343 1.398 . S
C344 C345 1.391 . S
C345 H333 0.950 . S
C345 C341 1.393 . S
C345 C344 1.391 . S
C346 H336 0.950 . S
C346 C347 1.386 . S
C346 C348 1.391 . S
C347 C346 1.386 . S
C347 C351 1.393 . S
C348 H337 0.950 . S
C348 C346 1.391 . S
C348 C349 1.400 . S
C349 C343 1.491 . S
C349 C348 1.400 . S
C349 C350 1.398 . S
C350 H338 0.950 . S
C350 C349 1.398 . S
C350 C351 1.391 . S
C351 H339 0.950 . S
C351 C347 1.393 . S
C351 C350 1.391 . S
H352 C360 0.950 . S
H353 C365 0.950 . S
H354 C362 0.950 . S
H355 C364 0.950 . S
H356 C366 0.950 . S
H357 C368 0.950 . S
H358 C370 0.950 . S
H359 C371 0.950 . S
C360 H352 0.950 . S
C360 C361 1.386 . S
C360 C362 1.391 . S
C361 C360 1.386 . S
C361 C365 1.393 . S
C362 H354 0.950 . S
C362 C360 1.391 . S
C362 C363 1.400 . S
C363 C362 1.400 . S
C363 C364 1.398 . S
C363 C369 1.491 . S
C364 H355 0.950 . S
C364 C363 1.398 . S
C364 C365 1.391 . S
C365 H353 0.950 . S
C365 C361 1.393 . S
C365 C364 1.391 . S
C366 H356 0.950 . S
C366 C367 1.386 . S
C366 C368 1.391 . S
C367 C366 1.386 . S
C367 C371 1.393 . S
C368 H357 0.950 . S
C368 C366 1.391 . S
C368 C369 1.400 . S
C369 C363 1.491 . S
C369 C368 1.400 . S
C369 C370 1.398 . S
C370 H358 0.950 . S
C370 C369 1.398 . S
C370 C371 1.391 . S
C371 H359 0.950 . S
C371 C367 1.393 . S
C371 C370 1.391 . S
H372 C380 0.950 . S
H373 C385 0.950 . S
H374 C382 0.950 . S
H375 C384 0.950 . S
H376 C386 0.950 . S
H377 C388 0.950 . S
H378 C390 0.950 . S
H379 C391 0.950 . S
C380 H372 0.950 . S
C380 C381 1.386 . S
C380 C382 1.391 . S
C381 C380 1.386 . S
C381 C385 1.393 . S
C382 H374 0.950 . S
C382 C380 1.391 . S
C382 C383 1.400 . S
C383 C382 1.400 . S
C383 C384 1.398 . S
C383 C389 1.491 . S
C384 H375 0.950 . S
C384 C383 1.398 . S
C384 C385 1.391 . S
C385 H373 0.950 . S
C385 C381 1.393 . S
C385 C384 1.391 . S
C386 H376 0.950 . S
C386 C387 1.386 . S
C386 C388 1.391 . S
C387 C386 1.386 . S
C387 C391 1.393 . S
C388 H377 0.950 . S
C388 C386 1.391 . S
C388 C389 1.400 . S
C389 C383 1.491 . S
C389 C388 1.400 . S
C389 C390 1.398 . S
C390 H378 0.950 . S
C390 C389 1.398 . S
C390 C391 1.391 . S
C391 H379 0.950 . S
C391 C387 1.393 . S
C391 C390 1.391 . S
H392 C400 0.950 . S
H393 C405 0.950 . S
H394 C402 0.950 . S
H395 C404 0.950 . S
H396 C406 0.950 . S
H397 C408 0.950 . S
H398 C410 0.950 . S
H399 C411 0.950 . S
C400 H392 0.950 . S
C400 C401 1.386 . S
C400 C402 1.391 . S
C401 C400 1.386 . S
C401 C405 1.393 . S
C402 H394 0.950 . S
C402 C400 1.391 . S
C402 C403 1.400 . S
C403 C402 1.400 . S
C403 C404 1.398 . S
C403 C409 1.491 . S
C404 H395 0.950 . S
C404 C403 1.398 . S
C404 C405 1.391 . S
C405 H393 0.950 . S
C405 C401 1.393 . S
C405 C404 1.391 . S
C406 H396 0.950 . S
C406 C407 1.386 . S
C406 C408 1.391 . S
C407 C406 1.386 . S
C407 C411 1.393 . S
C408 H397 0.950 . S
C408 C406 1.391 . S
C408 C409 1.400 . S
C409 C403 1.491 . S
C409 C408 1.400 . S
C409 C410 1.398 . S
C410 H398 0.950 . S
C410 C409 1.398 . S
C410 C411 1.391 . S
C411 H399 0.950 . S
C411 C407 1.393 . S
C411 C410 1.391 . S
H412 C420 0.950 . S
H413 C425 0.950 . S
H414 C422 0.950 . S
H415 C424 0.950 . S
H416 C426 0.950 . S
H417 C428 0.950 . S
H418 C430 0.950 . S
H419 C431 0.950 . S
C420 H412 0.950 . S
C420 C421 1.386 . S
C420 C422 1.391 . S
C421 C420 1.386 . S
C421 C425 1.393 . S
C422 H414 0.950 . S
C422 C420 1.391 . S
C422 C423 1.400 . S
C423 C422 1.400 . S
C423 C424 1.398 . S
C423 C429 1.491 . S
C424 H415 0.950 . S
C424 C423 1.398 . S
C424 C425 1.391 . S
C425 H413 0.950 . S
C425 C421 1.393 . S
C425 C424 1.391 . S
C426 H416 0.950 . S
C426 C427 1.386 . S
C426 C428 1.391 . S
C427 C426 1.386 . S
C427 C431 1.393 . S
C428 H417 0.950 . S
C428 C426 1.391 . S
C428 C429 1.400 . S
C429 C423 1.491 . S
C429 C428 1.400 . S
C429 C430 1.398 . S
C430 H418 0.950 . S
C430 C429 1.398 . S
C430 C431 1.391 . S
C431 H419 0.950 . S
C431 C427 1.393 . S
C431 C430 1.391 . S
H432 C440 0.950 . S
H433 C445 0.950 . S
H434 C442 0.950 . S
H435 C444 0.950 . S
H436 C446 0.950 . S
H437 C448 0.950 . S
H438 C450 0.950 . S
H439 C451 0.950 . S
C440 H432 0.950 . S
C440 C441 1.386 . S
C440 C442 1.391 . S
C441 C440 1.386 . S
C441 C445 1.393 . S
C442 H434 0.950 . S
C442 C440 1.391 . S
C442 C443 1.400 . S
C443 C442 1.400 . S
C443 C444 1.398 . S
C443 C449 1.491 . S
C444 H435 0.950 . S
C444 C443 1.398 . S
C444 C445 1.391 . S
C445 H433 0.950 . S
C445 C441 1.393 . S
C445 C444 1.391 . S
C446 H436 0.950 . S
C446 C447 1.386 . S
C446 C448 1.391 . S
C447 C446 1.386 . S
C447 C451 1.393 . S
C448 H437 0.950 . S
C448 C446 1.391 . S
C448 C449 1.400 . S
C449 C443 1.491 . S
C449 C448 1.400 . S
C449 C450 1.398 . S
C450 H438 0.950 . S
C450 C449 1.398 . S
C450 C451 1.391 . S
C451 H439 0.950 . S
C451 C447 1.393 . S
C451 C450 1.391 . S
H452 C460 0.950 . S
H453 C465 0.950 . S
H454 C462 0.950 . S
H455 C464 0.950 . S
H456 C466 0.950 . S
H457 C468 0.950 . S
H458 C470 0.950 . S
H459 C471 0.950 . S
C460 H452 0.950 . S
C460 C461 1.386 . S
C460 C462 1.391 . S
C461 C460 1.386 . S
C461 C465 1.393 . S
C462 H454 0.950 . S
C462 C460 1.391 . S
C462 C463 1.400 . S
C463 C462 1.400 . S
C463 C464 1.398 . S
C463 C469 1.491 . S
C464 H455 0.950 . S
C464 C463 1.398 . S
C464 C465 1.391 . S
C465 H453 0.950 . S
C465 C461 1.393 . S
C465 C464 1.391 . S
C466 H456 0.950 . S
C466 C467 1.386 . S
C466 C468 1.391 . S
C467 C466 1.386 . S
C467 C471 1.393 . S
C468 H457 0.950 . S
C468 C466 1.391 . S
C468 C469 1.400 . S
C469 C463 1.491 . S
C469 C468 1.400 . S
C469 C470 1.398 . S
C470 H458 0.950 . S
C470 C469 1.398 . S
C470 C471 1.391 . S
C471 H459 0.950 . S
C471 C467 1.393 . S
C471 C470 1.391 . S
H472 C480 0.950 . S
H473 C485 0.950 . S
H474 C482 0.950 . S
H475 C484 0.950 . S
H476 C486 0.950 . S
H477 C488 0.950 . S
H478 C490 0.950 . S
H479 C491 0.950 . S
C480 H472 0.950 . S
C480 C481 1.386 . S
C480 C482 1.391 . S
C481 C480 1.386 . S
C481 C485 1.393 . S
C482 H474 0.950 . S
C482 C480 1.391 . S
C482 C483 1.400 . S
C483 C482 1.400 . S
C483 C484 1.398 . S
C483 C489 1.491 . S
C484 H475 0.950 . S
C484 C483 1.398 . S
C484 C485 1.391 . S
C485 H473 0.950 . S
C485 C481 1.393 . S
C485 C484 1.391 . S
C486 H476 0.950 . S
C486 C487 1.386 . S
C486 C488 1.391 . S
C487 C486 1.386 . S
C487 C491 1.393 . S
C488 H477 0.950 . S
C488 C486 1.391 . S
C488 C489 1.400 . S
C489 C483 1.491 . S
C489 C488 1.400 . S
C489 C490 1.398 . S
C490 H478 0.950 . S
C490 C489 1.398 . S
C490 C491 1.391 . S
C491 H479 0.950 . S
C491 C487 1.393 . S
C491 C490 1.391 . S
H492 C500 0.950 . S
H493 C505 0.950 . S
H494 C502 0.950 . S
H495 C504 0.950 . S
H496 C506 0.950 . S
H497 C508 0.950 . S
H498 C510 0.950 . S
H499 C511 0.950 . S
C500 H492 0.950 . S
C500 C501 1.386 . S
C500 C502 1.391 . S
C501 C500 1.386 . S
C501 C505 1.393 . S
C502 H494 0.950 . S
C502 C500 1.391 . S
C502 C503 1.400 . S
C503 C502 1.400 . S
C503 C504 1.398 . S
C503 C509 1.491 . S
C504 H495 0.950 . S
C504 C503 1.398 . S
C504 C505 1.391 . S
C505 H493 0.950 . S
C505 C501 1.393 . S
C505 C504 1.391 . S
C506 H496 0.950 . S
C506 C507 1.386 . S
C506 C508 1.391 . S
C507 C506 1.386 . S
C507 C511 1.393 . S
C508 H497 0.950 . S
C508 C506 1.391 . S
C508 C509 1.400 . S
C509 C503 1.491 . S
C509 C508 1.400 . S
C509 C510 1.398 . S
C510 H498 0.950 . S
C510 C509 1.398 . S
C510 C511 1.391 . S
C511 H499 0.950 . S
C511 C507 1.393 . S
C511 C510 1.391 . S
H512 C520 0.950 . S
H513 C525 0.950 . S
H514 C522 0.950 . S
H515 C524 0.950 . S
H516 C526 0.950 . S
H517 C528 0.950 . S
H518 C530 0.950 . S
H519 C531 0.950 . S
C520 H512 0.950 . S
C520 C521 1.386 . S
C520 C522 1.391 . S
C521 C520 1.386 . S
C521 C525 1.393 . S
C522 H514 0.950 . S
C522 C520 1.391 . S
C522 C523 1.400 . S
C523 C522 1.400 . S
C523 C524 1.398 . S
C523 C529 1.491 . S
C524 H515 0.950 . S
C524 C523 1.398 . S
C524 C525 1.391 . S
C525 H513 0.950 . S
C525 C521 1.393 . S
C525 C524 1.391 . S
C526 H516 0.950 . S
C526 C527 1.386 . S
C526 C528 1.391 . S
C527 C526 1.386 . S
C527 C531 1.393 . S
C528 H517 0.950 . S
C528 C526 1.391 . S
C528 C529 1.400 . S
C529 C523 1.491 . S
C529 C528 1.400 . S
C529 C530 1.398 . S
C530 H518 0.950 . S
C530 C529 1.398 . S
C530 C531 1.391 . S
C531 H519 0.950 . S
C531 C527 1.393 . S
C531 C530 1.391 . S
H532 C540 0.950 . S
H533 C545 0.950 . S
H534 C542 0.950 . S
H535 C544 0.950 . S
H536 C546 0.950 . S
H537 C548 0.950 . S
H538 C550 0.950 . S
H539 C551 0.950 . S
C540 H532 0.950 . S
C540 C541 1.386 . S
C540 C542 1.391 . S
C541 C540 1.386 . S
C541 C545 1.393 . S
C542 H534 0.950 . S
C542 C540 1.391 . S
C542 C543 1.400 . S
C543 C542 1.400 . S
C543 C544 1.398 . S
C543 C549 1.491 . S
C544 H535 0.950 . S
C544 C543 1.398 . S
C544 C545 1.391 . S
C545 H533 0.950 . S
C545 C541 1.393 . S
C545 C544 1.391 . S
C546 H536 0.950 . S
C546 C547 1.386 . S
C546 C548 1.391 . S
C547 C546 1.386 . S
C547 C551 1.393 . S
C548 H537 0.950 . S
C548 C546 1.391 . S
C548 C549 1.400 . S
C549 C543 1.491 . S
C549 C548 1.400 . S
C549 C550 1.398 . S
C550 H538 0.950 . S
C550 C549 1.398 . S
C550 C551 1.391 . S
C551 H539 0.950 . S
C551 C547 1.393 . S
C551 C550 1.391 . S
H552 C560 0.950 . S
H553 C565 0.950 . S
H554 C562 0.950 . S
H555 C564 0.950 . S
H556 C566 0.950 . S
H557 C568 0.950 . S
H558 C570 0.950 . S
H559 C571 0.950 . S
C560 H552 0.950 . S
C560 C561 1.386 . S
C560 C562 1.391 . S
C561 C560 1.386 . S
C561 C565 1.393 . S
C562 H554 0.950 . S
C562 C560 1.391 . S
C562 C563 1.400 . S
C563 C562 1.400 . S
C563 C564 1.398 . S
C563 C569 1.491 . S
C564 H555 0.950 . S
C564 C563 1.398 . S
C564 C565 1.391 . S
C565 H553 0.950 . S
C565 C561 1.393 . S
C565 C564 1.391 . S
C566 H556 0.950 . S
C566 C567 1.386 . S
C566 C568 1.391 . S
C567 C566 1.386 . S
C567 C571 1.393 . S
C568 H557 0.950 . S
C568 C566 1.391 . S
C568 C569 1.400 . S
C569 C563 1.491 . S
C569 C568 1.400 . S
C569 C570 1.398 . S
C570 H558 0.950 . S
C570 C569 1.398 . S
C570 C571 1.391 . S
C571 H559 0.950 . S
C571 C567 1.393 . S
C571 C570 1.391 . S
H572 C580 0.950 . S
H573 C585 0.950 . S
H574 C582 0.950 . S
H575 C584 0.950 . S
H576 C586 0.950 . S
H577 C588 0.950 . S
H578 C590 0.950 . S
H579 C591 0.950 . S
C580 H572 0.950 . S
C580 C581 1.386 . S
C580 C582 1.391 . S
C581 C580 1.386 . S
C581 C585 1.393 . S
C582 H574 0.950 . S
C582 C580 1.391 . S
C582 C583 1.400 . S
C583 C582 1.400 . S
C583 C584 1.398 . S
C583 C589 1.491 . S
C584 H575 0.950 . S
C584 C583 1.398 . S
C584 C585 1.391 . S
C585 H573 0.950 . S
C585 C581 1.393 . S
C585 C584 1.391 . S
C586 H576 0.950 . S
C586 C587 1.386 . S
C586 C588 1.391 . S
C587 C586 1.386 . S
C587 C591 1.393 . S
C588 H577 0.950 . S
C588 C586 1.391 . S
C588 C589 1.400 . S
C589 C583 1.491 . S
C589 C588 1.400 . S
C589 C590 1.398 . S
C590 H578 0.950 . S
C590 C589 1.398 . S
C590 C591 1.391 . S
C591 H579 0.950 . S
C591 C587 1.393 . S
C591 C590 1.391 . S
H592 C600 0.950 . S
H593 C605 0.950 . S
H594 C602 0.950 . S
H595 C604 0.950 . S
H596 C606 0.950 . S
H597 C608 0.950 . S
H598 C610 0.950 . S
H599 C611 0.950 . S
C600 H592 0.950 . S
C600 C601 1.386 . S
C600 C602 1.391 . S
C601 C600 1.386 . S
C601 C605 1.393 . S
C602 H594 0.950 . S
C602 C600 1.391 . S
C602 C603 1.400 . S
C603 C602 1.400 . S
C603 C604 1.398 . S
C603 C609 1.491 . S
C604 H595 0.950 . S
C604 C603 1.398 . S
C604 C605 1.391 . S
C605 H593 0.950 . S
C605 C601 1.393 . S
C605 C604 1.391 . S
C606 H596 0.950 . S
C606 C607 1.386 . S
C606 C608 1.391 . S
C607 C606 1.386 . S
C607 C611 1.393 . S
C608 H597 0.950 . S
C608 C606 1.391 . S
C608 C609 1.400 . S
C609 C603 1.491 . S
C609 C608 1.400 . S
C609 C610 1.398 . S
C610 H598 0.950 . S
C610 C609 1.398 . S
C610 C611 1.391 . S
C611 H599 0.950 . S
C611 C607 1.393 . S
C611 C610 1.391 . S
H612 C620 0.950 . S
H613 C625 0.950 . S
H614 C622 0.950 . S
H615 C624 0.950 . S
H616 C626 0.950 . S
H617 C628 0.950 . S
H618 C630 0.950 . S
H619 C631 0.950 . S
C620 H612 0.950 . S
C620 C621 1.386 . S
C620 C622 1.391 . S
C621 C620 1.386 . S
C621 C625 1.393 . S
C622 H614 0.950 . S
C622 C620 1.391 . S
C622 C623 1.400 . S
C623 C622 1.400 . S
C623 C624 1.398 . S
C623 C629 1.491 . S
C624 H615 0.950 . S
C624 C623 1.398 . S
C624 C625 1.391 . S
C625 H613 0.950 . S
C625 C621 1.393 . S
C625 C624 1.391 . S
C626 H616 0.950 . S
C626 C627 1.386 . S
C626 C628 1.391 . S
C627 C626 1.386 . S
C627 C631 1.393 . S
C628 H617 0.950 . S
C628 C626 1.391 . S
C628 C629 1.400 . S
C629 C623 1.491 . S
C629 C628 1.400 . S
C629 C630 1.398 . S
C630 H618 0.950 . S
C630 C629 1.398 . S
C630 C631 1.391 . S
C631 H619 0.950 . S
C631 C627 1.393 . S
C631 C630 1.391 . S
H632 C640 0.950 . S
H633 C645 0.950 . S
H634 C642 0.950 . S
H635 C644 0.950 . S
H636 C646 0.950 . S
H637 C648 0.950 . S
H638 C650 0.950 . S
H639 C651 0.950 . S
C640 H632 0.950 . S
C640 C641 1.386 . S
C640 C642 1.391 . S
C641 C640 1.386 . S
C641 C645 1.393 . S
C642 H634 0.950 . S
C642 C640 1.391 . S
C642 C643 1.400 . S
C643 C642 1.400 . S
C643 C644 1.398 . S
C643 C649 1.491 . S
C644 H635 0.950 . S
C644 C643 1.398 . S
C644 C645 1.391 . S
C645 H633 0.950 . S
C645 C641 1.393 . S
C645 C644 1.391 . S
C646 H636 0.950 . S
C646 C647 1.386 . S
C646 C648 1.391 . S
C647 C646 1.386 . S
C647 C651 1.393 . S
C648 H637 0.950 . S
C648 C646 1.391 . S
C648 C649 1.400 . S
C649 C643 1.491 . S
C649 C648 1.400 . S
C649 C650 1.398 . S
C650 H638 0.950 . S
C650 C649 1.398 . S
C650 C651 1.391 . S
C651 H639 0.950 . S
C651 C647 1.393 . S
C651 C650 1.391 . S
H652 C660 0.950 . S
H653 C665 0.950 . S
H654 C662 0.950 . S
H655 C664 0.950 . S
H656 C666 0.950 . S
H657 C668 0.950 . S
H658 C670 0.950 . S
H659 C671 0.950 . S
C660 H652 0.950 . S
C660 C661 1.386 . S
C660 C662 1.391 . S
C661 C660 1.386 . S
C661 C665 1.393 . S
C662 H654 0.950 . S
C662 C660 1.391 . S
C662 C663 1.400 . S
C663 C662 1.400 . S
C663 C664 1.398 . S
C663 C669 1.491 . S
C664 H655 0.950 . S
C664 C663 1.398 . S
C664 C665 1.391 . S
C665 H653 0.950 . S
C665 C661 1.393 . S
C665 C664 1.391 . S
C666 H656 0.950 . S
C666 C667 1.386 . S
C666 C668 1.391 . S
C667 C666 1.386 . S
C667 C671 1.393 . S
C668 H657 0.950 . S
C668 C666 1.391 . S
C668 C669 1.400 . S
C669 C663 1.491 . S
C669 C668 1.400 . S
C669 C670 1.398 . S
C670 H658 0.950 . S
C670 C669 1.398 . S
C670 C671 1.391 . S
C671 H659 0.950 . S
C671 C667 1.393 . S
C671 C670 1.391 . S
C201 C13 1.592 . S
C207 C98 1.515 . S
C221 C27 1.594 . S
C227 C109 1.531 . S
C247 C128 1.502 . S
C241 C29 1.586 . S
C267 C145 1.513 . S
C261 C54 1.590 . S
C287 C172 1.537 . S
C281 C69 1.587 . S
C307 C181 1.532 . S
C301 C83 1.595 . S
C321 C15 1.590 . S
C327 C134 1.498 . S
C341 C41 1.592 . S
C347 C154 1.519 . S
C367 C163 1.526 . S
C361 C42 1.589 . S
C387 C190 1.543 . S
C381 C57 1.592 . S
C401 C71 1.590 . S
C407 C92 1.530 . S
C427 C118 1.537 . S
C421 C1 1.594 . S
C447 C146 1.565 . S
C441 C12 1.651 . S
C461 C26 1.660 . S
C467 C170 1.567 . S
C487 C182 1.565 . S
C481 C28 1.648 . S
C501 C55 1.659 . S
C507 C100 1.552 . S
C521 C68 1.647 . S
C527 C110 1.571 . S
C541 C82 1.651 . S
C547 C127 1.536 . S
C561 C14 1.656 . S
C567 C188 1.580 . S
C587 C91 1.561 . S
C581 C40 1.653 . S
C601 C43 1.651 . S
C607 C116 1.557 . S
C621 C56 1.655 . S
C627 C136 1.554 . S
C641 C70 1.649 . S
C647 C152 1.553 . S
C661 C0 1.648 . S
C667 C164 1.565 . S
