# Generated by pormake.
# Topology anh, (6,3)-cn, num edge types: 1
# Building blocks:
#     Node 0, Type 0, BuildingBlock: BETDAH_clean_sbu_0, # of connection points: 6
#     Node 1, Type 0, BuildingBlock: BETDAH_clean_sbu_0, # of connection points: 6
#     Node 2, Type 0, BuildingBlock: BETDAH_clean_sbu_0, # of connection points: 6
#     Node 3, Type 1, BuildingBlock: PAMTOO_clean_linker_0, # of connection points: 3
#     Node 4, Type 1, BuildingBlock: PAMTOO_clean_linker_0, # of connection points: 3
#     Node 5, Type 1, BuildingBlock: PAMTOO_clean_linker_0, # of connection points: 3
#     Node 6, Type 1, BuildingBlock: PAMTOO_clean_linker_0, # of connection points: 3
#     Node 7, Type 1, BuildingBlock: PAMTOO_clean_linker_0, # of connection points: 3
#     Node 8, Type 1, BuildingBlock: PAMTOO_clean_linker_0, # of connection points: 3
#     Edge 9, Type (0, 1), BuildingBlock: AJUNOK_clean_linker_0, # of connection points: 2
#     Edge 10, Type (0, 1), BuildingBlock: AJUNOK_clean_linker_0, # of connection points: 2
#     Edge 11, Type (0, 1), BuildingBlock: AJUNOK_clean_linker_0, # of connection points: 2
#     Edge 12, Type (0, 1), BuildingBlock: AJUNOK_clean_linker_0, # of connection points: 2
#     Edge 13, Type (0, 1), BuildingBlock: AJUNOK_clean_linker_0, # of connection points: 2
#     Edge 14, Type (0, 1), BuildingBlock: AJUNOK_clean_linker_0, # of connection points: 2
#     Edge 15, Type (0, 1), BuildingBlock: AJUNOK_clean_linker_0, # of connection points: 2
#     Edge 16, Type (0, 1), BuildingBlock: AJUNOK_clean_linker_0, # of connection points: 2
#     Edge 17, Type (0, 1), BuildingBlock: AJUNOK_clean_linker_0, # of connection points: 2
#     Edge 18, Type (0, 1), BuildingBlock: AJUNOK_clean_linker_0, # of connection points: 2
#     Edge 19, Type (0, 1), BuildingBlock: AJUNOK_clean_linker_0, # of connection points: 2
#     Edge 20, Type (0, 1), BuildingBlock: AJUNOK_clean_linker_0, # of connection points: 2
#     Edge 21, Type (0, 1), BuildingBlock: AJUNOK_clean_linker_0, # of connection points: 2
#     Edge 22, Type (0, 1), BuildingBlock: AJUNOK_clean_linker_0, # of connection points: 2
#     Edge 23, Type (0, 1), BuildingBlock: AJUNOK_clean_linker_0, # of connection points: 2
#     Edge 24, Type (0, 1), BuildingBlock: AJUNOK_clean_linker_0, # of connection points: 2
#     Edge 25, Type (0, 1), BuildingBlock: AJUNOK_clean_linker_0, # of connection points: 2
#     Edge 26, Type (0, 1), BuildingBlock: AJUNOK_clean_linker_0, # of connection points: 2
# Relax obj value: 0.226
# Max RMSD: 0.214
# Mean RMSD: 0.134
data_MOF--net-anh--node1-BETDAH_clean_sbu_0--node2-PAMTOO_clean_linker_0--edge1-AJUNOK_clean_linker_0
_symmetry_space_group_name_H-M    P1
_symmetry_Int_Tables_number       1
_symmetry_cell_setting            triclinic
loop_
_symmetry_equiv_pos_as_xyz
'x, y, z'
_cell_length_a     24.398939
_cell_length_b     29.661794
_cell_length_c     36.164162
_cell_angle_alpha  87.855548
_cell_angle_beta   91.851344
_cell_angle_gamma 132.68475
loop_
_atom_site_label
_atom_site_type_symbol
_atom_site_fract_x
_atom_site_fract_y
_atom_site_fract_z
_atom_type_partial_charge
Ho0 Ho 0.22939 0.56298 0.14635 0.0
Ho1 Ho 0.13987 0.59142 0.16924 0.0
C2 C 0.31359 0.70785 0.15887 0.0
C3 C 0.31252 0.55147 0.11423 0.0
C4 C 0.30704 0.49999 0.10766 0.0
C5 C 0.35486 0.50695 0.08243 0.0
C6 C 0.3523 0.45902 0.07733 0.0
C7 C 0.30192 0.40357 0.09751 0.0
C8 C 0.25336 0.39652 0.12239 0.0
C9 C 0.25564 0.44425 0.12729 0.0
C10 C 0.21085 0.55745 0.22005 0.0
C11 C 1.05563 0.44499 0.16094 0.0
C12 C 1.04699 0.59059 0.20235 0.0
C13 C 0.96568 0.54819 0.19911 0.0
C14 C 0.92371 0.54795 0.22483 0.0
C15 C 0.84602 0.50738 0.22088 0.0
C16 C 0.80978 0.46625 0.19143 0.0
C17 C 0.8524 0.46628 0.16618 0.0
C18 C 0.92951 0.50673 0.17004 0.0
C19 C 0.15009 0.5905 0.09462 0.0
O20 O 0.31261 0.66911 0.14044 0.0
O21 O 0.25363 0.68613 0.17735 0.0
O22 O 0.26428 0.55053 0.09643 0.0
O23 O 0.32069 0.56646 0.14881 0.0
O24 O 0.21003 0.51948 0.2027 0.0
O25 O 0.2248 0.59777 0.19777 0.0
O26 O 1.05407 0.48611 0.17266 0.0
O27 O 0.11773 0.46372 0.14647 0.0
O28 O 1.08357 0.62411 0.17272 0.0
O29 O 1.07193 0.56632 0.2168 0.0
O30 O 0.14973 0.62808 0.11151 0.0
O31 O 0.14102 0.55345 0.11809 0.0
H32 H 0.39491 0.54975 0.06711 0.0
H33 H 0.3909 0.4658 0.05834 0.0
H34 H 0.21381 0.35409 0.13811 0.0
H35 H 0.21805 0.43803 0.14678 0.0
H36 H 0.95101 0.57958 0.24754 0.0
H37 H 0.81441 0.50874 0.24037 0.0
H38 H 0.82642 0.43655 0.14254 0.0
H39 H 0.96113 0.5063 0.14993 0.0
Ho40 Ho 0.74846 0.07559 0.47951 0.0
Ho41 Ho 0.65205 0.09983 0.46074 0.0
C42 C 0.56914 0.95783 0.46332 0.0
C43 C 0.80745 0.0362 0.50961 0.0
C44 C 0.78674 0.97712 0.51792 0.0
C45 C 0.78326 0.95945 0.55495 0.0
C46 C 0.76922 0.90616 0.56363 0.0
C47 C 0.75941 0.86981 0.53544 0.0
C48 C 0.76041 0.88631 0.49837 0.0
C49 C 0.77408 0.93953 0.48966 0.0
C50 C 0.7421 0.09371 0.40637 0.0
C51 C 0.83431 0.21833 0.46959 0.0
C52 C 0.59189 0.14156 0.43727 0.0
C53 C 0.59894 0.19323 0.44789 0.0
C54 C 0.66165 0.25447 0.43814 0.0
C55 C 0.66813 0.30256 0.44959 0.0
C56 C 0.61213 0.29046 0.47099 0.0
C57 C 0.54935 0.22932 0.48045 0.0
C58 C 0.54261 0.1813 0.46885 0.0
C59 C 0.65955 0.08196 0.53416 0.0
O60 O 0.63099 0.97805 0.48076 0.0
O61 O 0.56809 0.99829 0.44731 0.0
O62 O 0.8161 0.05354 0.47489 0.0
O63 O 0.77345 0.04775 0.52844 0.0
O64 O 0.80181 0.11342 0.4239 0.0
O65 O 0.6873 0.06272 0.42805 0.0
O66 O 0.76871 0.19681 0.45688 0.0
O67 O 0.83954 0.17962 0.48426 0.0
O68 O 0.56121 0.09699 0.46173 0.0
O69 O 0.64894 0.15503 0.42127 0.0
O70 O 0.60027 0.0629 0.51684 0.0
O71 O 0.71367 0.11312 0.51212 0.0
H72 H 0.79255 0.98744 0.57726 0.0
H73 H 0.76678 0.89371 0.59248 0.0
H74 H 0.75277 0.85901 0.4761 0.0
H75 H 0.77614 0.95175 0.46081 0.0
H76 H 0.70611 0.26541 0.42199 0.0
H77 H 0.71755 0.3493 0.44223 0.0
H78 H 0.50507 0.2186 0.49668 0.0
H79 H 0.49339 0.13468 0.47659 0.0
Ho80 Ho 0.68953 0.60394 0.85485 0.0
Ho81 Ho 0.58311 0.46961 0.85001 0.0
C82 C 0.50444 0.53166 0.85357 0.0
C83 C 0.76192 0.71951 0.84402 0.0
C84 C 0.74603 0.75764 0.82946 0.0
C85 C 0.74919 0.77064 0.79132 0.0
C86 C 0.73873 0.80951 0.77807 0.0
C87 C 0.72552 0.83706 0.80254 0.0
C88 C 0.72085 0.82308 0.84059 0.0
C89 C 0.73134 0.78423 0.85387 0.0
C90 C 0.65331 0.54268 0.91981 0.0
C91 C 0.76742 0.54186 0.85775 0.0
C92 C 0.49515 0.35198 0.85538 0.0
C93 C 0.50584 0.31048 0.84427 0.0
C94 C 0.49368 0.26778 0.86994 0.0
C95 C 0.50858 0.23139 0.86077 0.0
C96 C 0.53618 0.23684 0.82566 0.0
C97 C 0.54749 0.27911 0.79982 0.0
C98 C 0.53298 0.31571 0.80905 0.0
C99 C 0.65357 0.52974 0.78552 0.0
O100 O 0.5769 0.58481 0.85518 0.0
O101 O 0.493 0.48004 0.85103 0.0
O102 O 0.73206 0.6904 0.87564 0.0
O103 O 0.761 0.68651 0.82042 0.0
O104 O 0.72125 0.59206 0.91171 0.0
O105 O 0.61008 0.52953 0.89375 0.0
O106 O 0.69521 0.48997 0.86332 0.0
O107 O 0.77863 0.59292 0.85034 0.0
O108 O 0.4894 0.3799 0.8287 0.0
O109 O 0.53758 0.38833 0.88286 0.0
O110 O 0.63923 0.48146 0.79792 0.0
O111 O 0.6276 0.54292 0.80762 0.0
H112 H 0.76047 0.75125 0.7716 0.0
H113 H 0.74096 0.81794 0.74852 0.0
H114 H 0.71087 0.84343 0.86027 0.0
H115 H 0.72904 0.77577 0.88342 0.0
H116 H 0.47326 0.26295 0.89732 0.0
H117 H 0.49776 0.1985 0.88111 0.0
H118 H 0.5688 0.2846 0.77258 0.0
H119 H 0.54395 0.34865 0.78869 0.0
H120 H 0.82802 0.20944 0.24619 0.0
H121 H 0.64523 1.01511 0.23608 0.0
H122 H 0.74569 0.13061 0.13788 0.0
H123 H 0.56114 0.99364 0.12775 0.0
C124 C 0.56453 0.98166 0.15667 0.0
O125 O 0.63926 1.01252 0.16468 0.0
H126 H 0.54631 0.99929 0.17439 0.0
C127 C 0.78937 0.17007 0.22869 0.0
C128 C 0.79449 0.1789 0.19004 0.0
C129 C 0.7356 0.11188 0.24546 0.0
C130 C 0.68544 0.06033 0.22328 0.0
C131 C 0.68747 0.06575 0.18458 0.0
C132 C 0.7429 0.12566 0.16774 0.0
H133 H 0.70339 0.66602 0.63402 0.0
H134 H 0.6782 0.51118 0.61092 0.0
H135 H 0.71133 0.62696 0.52195 0.0
H136 H 0.60487 0.4956 0.50077 0.0
C137 C 0.61875 0.47849 0.52356 0.0
O138 O 0.68633 0.52751 0.53931 0.0
H139 H 0.57332 0.45492 0.54427 0.0
C140 C 0.70182 0.63816 0.61461 0.0
C141 C 0.71115 0.65376 0.57675 0.0
C142 C 0.6891 0.58652 0.62754 0.0
C143 C 0.68577 0.55027 0.60176 0.0
C144 C 0.69228 0.56412 0.56378 0.0
C145 C 0.70515 0.61593 0.5513 0.0
H146 H 1.01596 0.55512 0.93335 0.0
H147 H 0.19669 0.56142 0.92899 0.0
H148 H 1.07535 0.53224 0.82814 0.0
H149 H 0.17692 0.46397 0.86446 0.0
C150 C 0.22488 0.51274 0.87107 0.0
O151 O 0.20023 0.54545 0.85934 0.0
H152 H 0.22671 0.51237 0.90174 0.0
C153 C 1.04931 0.55226 0.91638 0.0
C154 C 1.03383 0.54376 0.87808 0.0
C155 C 0.10541 0.55664 0.93415 0.0
C156 C 0.15226 0.55436 0.9141 0.0
C157 C 0.14445 0.54351 0.87604 0.0
C158 C 1.08323 0.53857 0.85772 0.0
H159 H 1.06848 0.44821 0.38001 0.0
H160 H 0.27242 0.63724 0.38839 0.0
H161 H 0.15334 0.53122 0.48727 0.0
H162 H 0.26298 0.68916 0.49351 0.0
C163 C 0.28182 0.69349 0.46498 0.0
O164 O 0.27619 0.6439 0.4593 0.0
H165 H 0.24204 0.68986 0.44612 0.0
C166 C 0.10977 0.4876 0.39702 0.0
C167 C 0.1017 0.48128 0.43576 0.0
C168 C 0.17036 0.54336 0.37971 0.0
C169 C 0.22443 0.59466 0.40143 0.0
C170 C 0.21906 0.59198 0.43999 0.0
C171 C 0.15751 0.53446 0.45741 0.0
H172 H 0.69601 0.99042 0.68919 0.0
H173 H 0.64849 0.10367 0.70622 0.0
H174 H 0.66984 0.02313 0.79991 0.0
H175 H 0.55776 0.03818 0.81364 0.0
C176 C 0.57425 0.06773 0.78861 0.0
O177 O 0.64508 0.09436 0.77824 0.0
H178 H 0.53291 0.03733 0.76644 0.0
C179 C 0.68703 1.01249 0.70796 0.0
C180 C 0.68596 1.00257 0.74653 0.0
C181 C 0.67325 0.04859 0.69323 0.0
C182 C 0.65903 0.07566 0.71729 0.0
C183 C 0.6576 0.06654 0.75563 0.0
C184 C 0.67071 0.02979 0.77021 0.0
H185 H 0.6283 0.44333 0.08433 0.0
H186 H 0.42925 0.30771 0.02114 0.0
H187 H 0.45051 0.26446 0.13213 0.0
H188 H 0.28716 0.18318 0.1151 0.0
C189 C 0.29744 0.20482 0.0873 0.0
O190 O 0.36279 0.22373 0.07357 0.0
H191 H 0.25032 0.16841 0.06928 0.0
C192 C 0.57312 0.39791 0.08223 0.0
C193 C 0.5446 0.35619 0.11219 0.0
C194 C 0.53282 0.38083 0.04904 0.0
C195 C 0.46112 0.32211 0.04668 0.0
C196 C 0.43109 0.28073 0.07679 0.0
C197 C 0.47318 0.29738 0.10936 0.0
C198 C 0.30817 0.32902 0.12577 0.0
C199 C 0.3016 0.35379 0.0939 0.0
C200 C 0.30721 0.28147 0.12337 0.0
C201 C 0.2983 0.25626 0.08909 0.0
H202 H 0.31481 0.34697 0.15276 0.0
H203 H 0.31318 0.26411 0.14855 0.0
S204 S 0.27931 0.30492 -0.00254 0.0
N205 N 0.28705 0.35022 0.02696 0.0
N206 N 0.28362 0.25972 0.02261 0.0
C207 C 0.29204 0.28073 0.05701 0.0
C208 C 0.2941 0.32978 0.05936 0.0
C209 C 0.8982 0.32639 0.44556 0.0
C210 C 0.90316 0.28725 0.46552 0.0
C211 C 0.96143 0.38932 0.43839 0.0
C212 C 1.03391 0.4179 0.45116 0.0
H213 H 0.84502 0.3079 0.43414 0.0
H214 H 0.95376 0.41562 0.42146 0.0
S215 S 1.07952 0.33857 0.50617 0.0
N216 N 0.98859 0.28409 0.49912 0.0
N217 N 0.10592 0.40142 0.48584 0.0
C218 C 1.03966 0.3802 0.47228 0.0
C219 C 0.97515 0.31561 0.47935 0.0
C220 C 0.65943 0.87575 0.80129 0.0
C221 C 0.71742 0.88069 0.78857 0.0
C222 C 0.65036 0.91575 0.78815 0.0
C223 C 0.69887 0.96253 0.76169 0.0
H224 H 0.61976 0.83988 0.82109 0.0
H225 H 0.60392 0.90909 0.79821 0.0
S226 S 0.8646 0.99962 0.72249 0.0
N227 N 0.82749 0.93949 0.74999 0.0
N228 N 0.81044 1.01411 0.7254 0.0
C229 C 0.7582 0.96896 0.74949 0.0
C230 C 0.76743 0.9283 0.76285 0.0
C231 C 0.70313 0.45891 0.17902 0.0
C232 C 0.72961 0.42919 0.18336 0.0
C233 C 0.63682 0.43137 0.15953 0.0
C234 C 0.59511 0.37337 0.1438 0.0
H235 H 0.7373 0.50598 0.18743 0.0
H236 H 0.62176 0.45793 0.15376 0.0
S237 S 0.6321 0.27129 0.15503 0.0
N238 N 0.7022 0.33438 0.17671 0.0
N239 N 0.57835 0.28309 0.13924 0.0
C240 C 0.61611 0.3402 0.15203 0.0
C241 C 0.68344 0.36815 0.17199 0.0
C242 C 0.43678 0.86764 0.44021 0.0
C243 C 0.4998 0.88902 0.46156 0.0
C244 C 0.36979 0.80478 0.43971 0.0
C245 C 0.36109 0.75877 0.46037 0.0
H246 H 0.43833 0.90002 0.42413 0.0
H247 H 0.32309 0.79243 0.42375 0.0
S248 S 0.50861 0.78818 0.52036 0.0
N249 N 0.54862 0.85685 0.50332 0.0
N250 N 0.42331 0.7401 0.50267 0.0
C251 C 0.42402 0.77906 0.48124 0.0
C252 C 0.49275 0.84331 0.48168 0.0
C253 C 0.52354 0.16557 0.78215 0.0
C254 C 0.55134 0.19755 0.81564 0.0
C255 C 0.53327 0.12563 0.77306 0.0
C256 C 0.57139 0.11603 0.79703 0.0
H257 H 0.49205 0.17004 0.76323 0.0
H258 H 0.50909 0.10086 0.74745 0.0
S259 S 0.6625 0.1937 0.88597 0.0
N260 N 0.62424 0.22054 0.87135 0.0
N261 N 0.64193 0.14535 0.8543 0.0
C262 C 0.60218 0.14961 0.82979 0.0
C263 C 0.59212 0.19015 0.83913 0.0
C264 C 0.69228 0.75874 0.52834 0.0
C265 C 0.74999 0.81568 0.54477 0.0
C266 C 0.68112 0.7067 0.53795 0.0
C267 C 0.72718 0.70988 0.56436 0.0
H268 H 0.6544 0.75405 0.5086 0.0
H269 H 0.63491 0.66334 0.52546 0.0
S270 S 0.89129 0.84933 0.61205 0.0
N271 N 0.85765 0.87305 0.58621 0.0
N272 N 0.83597 0.77522 0.60454 0.0
C273 C 0.78649 0.76688 0.58 0.0
C274 C 0.79804 0.81975 0.57016 0.0
C275 C 0.91458 0.595 0.85654 0.0
C276 C 0.8357 0.5417 0.85998 0.0
C277 C 0.97524 0.59487 0.8595 0.0
C278 C 0.96581 0.54131 0.8651 0.0
H279 H 0.93087 0.639 0.85224 0.0
H280 H 1.03185 0.63898 0.85823 0.0
S281 S 0.77293 0.38722 0.87805 0.0
N282 N 0.75578 0.43202 0.87081 0.0
N283 N 0.86436 0.43207 0.87602 0.0
C284 C 0.88722 0.48783 0.86886 0.0
C285 C 0.82539 0.4879 0.86614 0.0
C286 C 0.38692 0.81464 0.18476 0.0
C287 C 0.3826 0.77676 0.15968 0.0
C288 C 0.44764 0.87917 0.18524 0.0
C289 C 0.50825 0.91038 0.16066 0.0
H290 H 0.34204 0.79445 0.20404 0.0
H291 H 0.44557 0.90523 0.20436 0.0
S292 S 0.52769 0.83432 0.09003 0.0
N293 N 0.44783 0.77679 0.11022 0.0
N294 N 0.5602 0.89714 0.11087 0.0
C295 C 0.50599 0.87315 0.13611 0.0
C296 C 0.44411 0.80707 0.13571 0.0
C297 C 0.60742 0.34356 0.52142 0.0
C298 C 0.61873 0.34107 0.48389 0.0
C299 C 0.60945 0.38887 0.53404 0.0
C300 C 0.62185 0.43289 0.50952 0.0
H301 H 0.59662 0.31003 0.5412 0.0
H302 H 0.59983 0.38882 0.56309 0.0
S303 S 0.65653 0.44751 0.40881 0.0
N304 N 0.64435 0.3875 0.42251 0.0
N305 N 0.64844 0.47274 0.44628 0.0
C306 C 0.63522 0.43199 0.47215 0.0
C307 C 0.63343 0.386 0.4593 0.0
C308 C 0.35772 0.47697 0.84954 0.0
C309 C 0.43539 0.53053 0.85512 0.0
C310 C 0.29559 0.47468 0.85172 0.0
C311 C 0.30133 0.5254 0.85945 0.0
H312 H 0.34356 0.43455 0.84378 0.0
H313 H 0.24007 0.43013 0.84825 0.0
S314 S 0.49047 0.67927 0.8782 0.0
N315 N 0.51116 0.63794 0.86956 0.0
N316 N 0.39881 0.63291 0.87449 0.0
C317 C 0.37888 0.57949 0.86543 0.0
C318 C 0.44284 0.58215 0.86286 0.0
C319 C 0.98128 0.33004 0.15079 0.0
C320 C 0.98552 0.37646 0.16474 0.0
C321 C 0.9175 0.26617 0.15622 0.0
C322 C 0.85419 0.24512 0.17573 0.0
H323 H 1.02851 0.34304 0.1363 0.0
H324 H 0.91933 0.23309 0.14657 0.0
S325 S 0.83417 0.34589 0.21746 0.0
N326 N 0.91762 0.39447 0.1987 0.0
N327 N 0.79995 0.27687 0.20803 0.0
C328 C 0.85689 0.29098 0.18866 0.0
C329 C 0.92146 0.35553 0.18343 0.0
C330 C 0.14074 0.62115 0.03059 0.0
C331 C 0.13947 0.58119 0.05382 0.0
C332 C 0.12891 0.61266 -0.00788 0.0
C333 C 0.11609 0.5642 0.9752 0.0
H334 H 0.15074 0.65933 0.04222 0.0
H335 H 0.13074 0.64473 0.97542 0.0
S336 S 0.10422 0.44517 0.02345 0.0
N337 N 0.12166 0.48994 0.05687 0.0
N338 N 0.1008 0.47472 0.98481 0.0
C339 C 0.11446 0.52383 -0.00193 0.0
C340 C 0.12579 0.53211 0.03725 0.0
C341 C 0.80271 0.12894 0.34464 0.0
C342 C 0.73761 0.09734 0.36554 0.0
C343 C 0.8012 0.13292 0.30597 0.0
C344 C 0.73448 0.10542 0.28652 0.0
H345 H 0.85557 0.1508 0.35821 0.0
H346 H 0.85277 0.15743 0.29112 0.0
S347 S 0.54884 1.01915 0.32816 0.0
N348 N 0.60456 0.03902 0.36395 0.0
N349 N 0.60181 0.04681 0.29112 0.0
C350 C 0.66888 0.07383 0.30702 0.0
C351 C 0.67045 0.06987 0.34655 0.0
C352 C 0.71561 0.60444 0.73224 0.0
C353 C 0.66106 0.54388 0.74555 0.0
C354 C 0.72496 0.61773 0.69406 0.0
C355 C 0.67913 0.57097 0.6679 0.0
H356 H 0.75224 0.64154 0.75139 0.0
H357 H 0.76898 0.66499 0.68498 0.0
S358 S 0.52289 0.40534 0.68957 0.0
N359 N 0.55841 0.43705 0.73033 0.0
N360 N 0.57339 0.46203 0.65877 0.0
C361 C 0.62301 0.51031 0.68121 0.0
C362 C 0.61454 0.4968 0.71998 0.0
C363 C 0.72999 0.09608 0.59211 0.0
C364 C 0.66293 0.07273 0.57462 0.0
C365 C 0.733 0.08714 0.63042 0.0
C366 C 0.66937 0.05551 0.65258 0.0
H367 H 0.78051 0.12163 0.57617 0.0
H368 H 0.78564 0.10603 0.64291 0.0
S369 S 0.48004 0.98373 0.62059 0.0
N370 N 0.53088 1.01476 0.58275 0.0
N371 N 0.53755 0.99959 0.65442 0.0
C372 C 0.60222 0.03177 0.63549 0.0
C373 C 0.59876 0.04001 0.59662 0.0
C374 C 0.55358 0.47229 0.96554 0.0
C375 C 0.62716 0.50561 0.95419 0.0
C376 C 0.52387 0.43256 -0.00361 0.0
C377 C 0.56631 0.42396 0.01672 0.0
H378 H 0.51848 0.47687 0.95036 0.0
H379 H 0.46726 0.40846 0.0044 0.0
S380 S 0.76005 0.49683 -0.00379 0.0
N381 N 0.74104 0.52624 0.96452 0.0
N382 N 0.68468 0.44969 0.02193 0.0
C383 C 0.63996 0.45666 0.00536 0.0
C384 C 0.67055 0.49799 0.97422 0.0
C385 C 0.18239 0.50627 0.28221 0.0
C386 C 0.19985 0.55485 0.26048 0.0
C387 C 0.17205 0.50254 0.32055 0.0
C388 C 0.17888 0.54732 0.33874 0.0
H389 H 0.17693 0.47084 0.26957 0.0
H390 H 0.15987 0.46479 0.33617 0.0
S391 S 0.22045 0.68237 0.29425 0.0
N392 N 0.22189 0.64806 0.2599 0.0
N393 N 0.20116 0.64045 0.33174 0.0
C394 C 0.19533 0.59572 0.31724 0.0
C395 C 0.20604 0.59959 0.2782 0.0
loop_
_geom_bond_atom_site_label_1
_geom_bond_atom_site_label_2
_geom_bond_distance
_geom_bond_site_symmetry_2
_ccdc_geom_bond_type
Ho0 C3 2.811 . S
Ho0 O20 2.322 . S
Ho0 O22 2.378 . S
Ho0 O23 2.524 . S
Ho0 O24 2.381 . S
Ho0 O25 2.669 1_455 S
Ho0 O27 2.346 1_455 S
Ho0 O31 2.305 . S
Ho1 C12 2.811 . S
Ho1 O21 2.346 1_655 S
Ho1 O25 2.305 . S
Ho1 O26 2.322 . S
Ho1 O28 2.378 . S
Ho1 O29 2.524 . S
Ho1 O30 2.381 . S
Ho1 O31 2.669 1_655 S
C2 O20 1.259 . S
C2 O21 1.268 . S
C3 Ho0 2.811 . S
C3 C4 1.488 . S
C3 O22 1.215 . S
C3 O23 1.289 . S
C4 C3 1.488 . S
C4 C5 1.348 . S
C4 C9 1.413 . S
C5 C4 1.348 . S
C5 C6 1.442 . S
C5 H32 0.930 . S
C6 C5 1.442 . S
C6 C7 1.381 . S
C6 H33 0.931 . S
C7 C6 1.381 . S
C7 C8 1.321 . S
C8 C7 1.321 . S
C8 C9 1.403 . S
C8 H34 0.934 . S
C9 C4 1.413 . S
C9 C8 1.403 . S
C9 H35 0.930 . S
C10 O24 1.275 . S
C10 O25 1.256 1_455 S
C11 O26 1.259 . S
C11 O27 1.268 . S
C12 Ho1 2.811 . S
C12 C13 1.488 . S
C12 O28 1.215 . S
C12 O29 1.289 . S
C13 C12 1.488 . S
C13 C14 1.348 . S
C13 C18 1.413 . S
C14 C13 1.348 . S
C14 C15 1.442 . S
C14 H36 0.930 . S
C15 C14 1.442 . S
C15 C16 1.381 . S
C15 H37 0.931 . S
C16 C15 1.381 . S
C16 C17 1.321 . S
C17 C16 1.321 . S
C17 C18 1.403 . S
C17 H38 0.934 . S
C18 C13 1.413 . S
C18 C17 1.403 . S
C18 H39 0.930 . S
C19 O30 1.275 1_455 S
C19 O31 1.256 . S
O20 Ho0 2.322 . S
O20 C2 1.259 . S
O21 Ho1 2.346 1_455 S
O21 C2 1.268 . S
O22 Ho0 2.378 . S
O22 C3 1.215 . S
O23 Ho0 2.524 . S
O23 C3 1.289 . S
O24 Ho0 2.381 . S
O24 C10 1.275 . S
O25 Ho0 2.669 1_655 S
O25 Ho1 2.305 . S
O25 C10 1.256 1_655 S
O26 Ho1 2.322 . S
O26 C11 1.259 . S
O27 Ho0 2.346 1_655 S
O27 C11 1.268 . S
O28 Ho1 2.378 . S
O28 C12 1.215 . S
O29 Ho1 2.524 . S
O29 C12 1.289 . S
O30 Ho1 2.381 . S
O30 C19 1.275 1_655 S
O31 Ho0 2.305 . S
O31 Ho1 2.669 1_455 S
O31 C19 1.256 . S
H32 C5 0.930 . S
H33 C6 0.931 . S
H34 C8 0.934 . S
H35 C9 0.930 . S
H36 C14 0.930 . S
H37 C15 0.931 . S
H38 C17 0.934 . S
H39 C18 0.930 . S
Ho40 C43 2.811 1_545 S
Ho40 O60 2.322 1_545 S
Ho40 O62 2.378 1_545 S
Ho40 O63 2.524 1_545 S
Ho40 O64 2.381 . S
Ho40 O65 2.669 . S
Ho40 O67 2.346 . S
Ho40 O71 2.305 . S
Ho41 C52 2.811 . S
Ho41 O61 2.346 1_545 S
Ho41 O65 2.305 . S
Ho41 O66 2.322 . S
Ho41 O68 2.378 . S
Ho41 O69 2.524 . S
Ho41 O70 2.381 . S
Ho41 O71 2.669 . S
C42 O60 1.259 . S
C42 O61 1.268 . S
C43 Ho40 2.811 1_565 S
C43 C44 1.488 . S
C43 O62 1.215 . S
C43 O63 1.289 . S
C44 C43 1.488 . S
C44 C45 1.348 . S
C44 C49 1.413 . S
C45 C44 1.348 . S
C45 C46 1.442 . S
C45 H72 0.930 . S
C46 C45 1.442 . S
C46 C47 1.381 . S
C46 H73 0.931 . S
C47 C46 1.381 . S
C47 C48 1.321 . S
C48 C47 1.321 . S
C48 C49 1.403 . S
C48 H74 0.934 . S
C49 C44 1.413 . S
C49 C48 1.403 . S
C49 H75 0.930 . S
C50 O64 1.275 . S
C50 O65 1.256 . S
C51 O66 1.259 . S
C51 O67 1.268 . S
C52 Ho41 2.811 . S
C52 C53 1.488 . S
C52 O68 1.215 . S
C52 O69 1.289 . S
C53 C52 1.488 . S
C53 C54 1.348 . S
C53 C58 1.413 . S
C54 C53 1.348 . S
C54 C55 1.442 . S
C54 H76 0.930 . S
C55 C54 1.442 . S
C55 C56 1.381 . S
C55 H77 0.931 . S
C56 C55 1.381 . S
C56 C57 1.321 . S
C57 C56 1.321 . S
C57 C58 1.403 . S
C57 H78 0.934 . S
C58 C53 1.413 . S
C58 C57 1.403 . S
C58 H79 0.930 . S
C59 O70 1.275 . S
C59 O71 1.256 . S
O60 Ho40 2.322 1_565 S
O60 C42 1.259 . S
O61 Ho41 2.346 1_565 S
O61 C42 1.268 . S
O62 Ho40 2.378 1_565 S
O62 C43 1.215 . S
O63 Ho40 2.524 1_565 S
O63 C43 1.289 . S
O64 Ho40 2.381 . S
O64 C50 1.275 . S
O65 Ho40 2.669 . S
O65 Ho41 2.305 . S
O65 C50 1.256 . S
O66 Ho41 2.322 . S
O66 C51 1.259 . S
O67 Ho40 2.346 . S
O67 C51 1.268 . S
O68 Ho41 2.378 . S
O68 C52 1.215 . S
O69 Ho41 2.524 . S
O69 C52 1.289 . S
O70 Ho41 2.381 . S
O70 C59 1.275 . S
O71 Ho40 2.305 . S
O71 Ho41 2.669 . S
O71 C59 1.256 . S
H72 C45 0.930 . S
H73 C46 0.931 . S
H74 C48 0.934 . S
H75 C49 0.930 . S
H76 C54 0.930 . S
H77 C55 0.931 . S
H78 C57 0.934 . S
H79 C58 0.930 . S
Ho80 C83 2.811 . S
Ho80 O100 2.322 . S
Ho80 O102 2.378 . S
Ho80 O103 2.524 . S
Ho80 O104 2.381 . S
Ho80 O105 2.669 . S
Ho80 O107 2.346 . S
Ho80 O111 2.305 . S
Ho81 C92 2.811 . S
Ho81 O101 2.346 . S
Ho81 O105 2.305 . S
Ho81 O106 2.322 . S
Ho81 O108 2.378 . S
Ho81 O109 2.524 . S
Ho81 O110 2.381 . S
Ho81 O111 2.669 . S
C82 O100 1.259 . S
C82 O101 1.268 . S
C83 Ho80 2.811 . S
C83 C84 1.488 . S
C83 O102 1.215 . S
C83 O103 1.289 . S
C84 C83 1.488 . S
C84 C85 1.348 . S
C84 C89 1.413 . S
C85 C84 1.348 . S
C85 C86 1.442 . S
C85 H112 0.930 . S
C86 C85 1.442 . S
C86 C87 1.381 . S
C86 H113 0.931 . S
C87 C86 1.381 . S
C87 C88 1.321 . S
C88 C87 1.321 . S
C88 C89 1.403 . S
C88 H114 0.934 . S
C89 C84 1.413 . S
C89 C88 1.403 . S
C89 H115 0.930 . S
C90 O104 1.275 . S
C90 O105 1.256 . S
C91 O106 1.259 . S
C91 O107 1.268 . S
C92 Ho81 2.811 . S
C92 C93 1.488 . S
C92 O108 1.215 . S
C92 O109 1.289 . S
C93 C92 1.488 . S
C93 C94 1.348 . S
C93 C98 1.413 . S
C94 C93 1.348 . S
C94 C95 1.442 . S
C94 H116 0.930 . S
C95 C94 1.442 . S
C95 C96 1.381 . S
C95 H117 0.931 . S
C96 C95 1.381 . S
C96 C97 1.321 . S
C97 C96 1.321 . S
C97 C98 1.403 . S
C97 H118 0.934 . S
C98 C93 1.413 . S
C98 C97 1.403 . S
C98 H119 0.930 . S
C99 O110 1.275 . S
C99 O111 1.256 . S
O100 Ho80 2.322 . S
O100 C82 1.259 . S
O101 Ho81 2.346 . S
O101 C82 1.268 . S
O102 Ho80 2.378 . S
O102 C83 1.215 . S
O103 Ho80 2.524 . S
O103 C83 1.289 . S
O104 Ho80 2.381 . S
O104 C90 1.275 . S
O105 Ho80 2.669 . S
O105 Ho81 2.305 . S
O105 C90 1.256 . S
O106 Ho81 2.322 . S
O106 C91 1.259 . S
O107 Ho80 2.346 . S
O107 C91 1.268 . S
O108 Ho81 2.378 . S
O108 C92 1.215 . S
O109 Ho81 2.524 . S
O109 C92 1.289 . S
O110 Ho81 2.381 . S
O110 C99 1.275 . S
O111 Ho80 2.305 . S
O111 Ho81 2.669 . S
O111 C99 1.256 . S
H112 C85 0.930 . S
H113 C86 0.931 . S
H114 C88 0.934 . S
H115 C89 0.930 . S
H116 C94 0.930 . S
H117 C95 0.931 . S
H118 C97 0.934 . S
H119 C98 0.930 . S
H120 C127 0.929 . S
H121 C130 0.930 . S
H122 C132 0.929 . S
H123 C124 0.969 . S
C124 H123 0.969 . S
C124 O125 1.550 . S
C124 H126 0.973 . S
O125 C124 1.550 . S
O125 C131 1.412 . S
H126 C124 0.973 . S
C127 H120 0.929 . S
C127 C128 1.400 . S
C127 C129 1.364 . S
C128 C127 1.400 . S
C128 C132 1.377 . S
C129 C127 1.364 . S
C129 C130 1.374 1_545 S
C130 H121 0.930 . S
C130 C129 1.374 1_565 S
C130 C131 1.383 . S
C131 O125 1.412 . S
C131 C130 1.383 . S
C131 C132 1.394 1_565 S
C132 H122 0.929 . S
C132 C128 1.377 . S
C132 C131 1.394 1_545 S
H133 C140 0.929 . S
H134 C143 0.930 . S
H135 C145 0.929 . S
H136 C137 0.969 . S
C137 H136 0.969 . S
C137 O138 1.550 . S
C137 H139 0.973 . S
O138 C137 1.550 . S
O138 C144 1.412 . S
H139 C137 0.973 . S
C140 H133 0.929 . S
C140 C141 1.400 . S
C140 C142 1.364 . S
C141 C140 1.400 . S
C141 C145 1.377 . S
C142 C140 1.364 . S
C142 C143 1.374 . S
C143 H134 0.930 . S
C143 C142 1.374 . S
C143 C144 1.383 . S
C144 O138 1.412 . S
C144 C143 1.383 . S
C144 C145 1.394 . S
C145 H135 0.929 . S
C145 C141 1.377 . S
C145 C144 1.394 . S
H146 C153 0.929 1_655 S
H147 C156 0.930 . S
H148 C158 0.929 . S
H149 C150 0.969 . S
C150 H149 0.969 . S
C150 O151 1.550 . S
C150 H152 0.973 . S
O151 C150 1.550 . S
O151 C157 1.412 . S
H152 C150 0.973 . S
C153 H146 0.929 1_455 S
C153 C154 1.400 . S
C153 C155 1.364 . S
C154 C153 1.400 . S
C154 C158 1.377 . S
C155 C153 1.364 . S
C155 C156 1.374 . S
C156 H147 0.930 . S
C156 C155 1.374 . S
C156 C157 1.383 . S
C157 O151 1.412 . S
C157 C156 1.383 . S
C157 C158 1.394 . S
C158 H148 0.929 . S
C158 C154 1.377 . S
C158 C157 1.394 . S
H159 C166 0.929 . S
H160 C169 0.930 . S
H161 C171 0.929 . S
H162 C163 0.969 . S
C163 H162 0.969 . S
C163 O164 1.550 . S
C163 H165 0.973 . S
O164 C163 1.550 . S
O164 C170 1.412 . S
H165 C163 0.973 . S
C166 H159 0.929 . S
C166 C167 1.400 . S
C166 C168 1.364 1_655 S
C167 C166 1.400 . S
C167 C171 1.377 1_655 S
C168 C166 1.364 1_455 S
C168 C169 1.374 . S
C169 H160 0.930 . S
C169 C168 1.374 . S
C169 C170 1.383 . S
C170 O164 1.412 . S
C170 C169 1.383 . S
C170 C171 1.394 . S
C171 H161 0.929 . S
C171 C167 1.377 1_455 S
C171 C170 1.394 . S
H172 C179 0.929 . S
H173 C182 0.930 . S
H174 C184 0.929 . S
H175 C176 0.969 . S
C176 H175 0.969 . S
C176 O177 1.550 . S
C176 H178 0.973 . S
O177 C176 1.550 . S
O177 C183 1.412 . S
H178 C176 0.973 . S
C179 H172 0.929 . S
C179 C180 1.400 . S
C179 C181 1.364 1_565 S
C180 C179 1.400 . S
C180 C184 1.377 . S
C181 C179 1.364 1_545 S
C181 C182 1.374 . S
C182 H173 0.930 . S
C182 C181 1.374 . S
C182 C183 1.383 . S
C183 O177 1.412 . S
C183 C182 1.383 . S
C183 C184 1.394 1_545 S
C184 H174 0.929 . S
C184 C180 1.377 . S
C184 C183 1.394 1_565 S
H185 C192 0.929 . S
H186 C195 0.930 . S
H187 C197 0.929 . S
H188 C189 0.969 . S
C189 H188 0.969 . S
C189 O190 1.550 . S
C189 H191 0.973 . S
O190 C189 1.550 . S
O190 C196 1.412 . S
H191 C189 0.973 . S
C192 H185 0.929 . S
C192 C193 1.400 . S
C192 C194 1.364 . S
C193 C192 1.400 . S
C193 C197 1.377 . S
C194 C192 1.364 . S
C194 C195 1.374 . S
C195 H186 0.930 . S
C195 C194 1.374 . S
C195 C196 1.383 . S
C196 O190 1.412 . S
C196 C195 1.383 . S
C196 C197 1.394 . S
C197 H187 0.929 . S
C197 C193 1.377 . S
C197 C196 1.394 . S
C198 C199 1.369 . S
C198 C200 1.419 . S
C198 H202 0.930 . S
C199 C198 1.369 . S
C199 C208 1.429 . S
C200 C198 1.419 . S
C200 C201 1.363 . S
C200 H203 0.929 . S
C201 C200 1.363 . S
C201 C207 1.428 . S
H202 C198 0.930 . S
H203 C200 0.929 . S
S204 N205 1.613 . S
S204 N206 1.610 . S
N205 S204 1.613 . S
N205 C208 1.350 . S
N206 S204 1.610 . S
N206 C207 1.351 . S
C207 C201 1.428 . S
C207 N206 1.351 . S
C207 C208 1.434 . S
C208 C199 1.429 . S
C208 N205 1.350 . S
C208 C207 1.434 . S
C209 C210 1.369 . S
C209 C211 1.419 . S
C209 H213 0.930 . S
C210 C209 1.369 . S
C210 C219 1.429 . S
C211 C209 1.419 . S
C211 C212 1.363 . S
C211 H214 0.929 . S
C212 C211 1.363 . S
C212 C218 1.428 . S
H213 C209 0.930 . S
H214 C211 0.929 . S
S215 N216 1.613 . S
S215 N217 1.610 . S
N216 S215 1.613 . S
N216 C219 1.350 . S
N217 S215 1.610 . S
N217 C218 1.351 . S
C218 C212 1.428 . S
C218 N217 1.351 . S
C218 C219 1.434 . S
C219 C210 1.429 . S
C219 N216 1.350 . S
C219 C218 1.434 . S
C220 C221 1.369 . S
C220 C222 1.419 . S
C220 H224 0.930 . S
C221 C220 1.369 . S
C221 C230 1.429 . S
C222 C220 1.419 . S
C222 C223 1.363 . S
C222 H225 0.929 . S
C223 C222 1.363 . S
C223 C229 1.428 . S
H224 C220 0.930 . S
H225 C222 0.929 . S
S226 N227 1.613 1_545 S
S226 N228 1.610 . S
N227 S226 1.613 1_565 S
N227 C230 1.350 . S
N228 S226 1.610 . S
N228 C229 1.351 1_545 S
C229 C223 1.428 . S
C229 N228 1.351 1_565 S
C229 C230 1.434 . S
C230 C221 1.429 . S
C230 N227 1.350 . S
C230 C229 1.434 . S
C231 C232 1.369 . S
C231 C233 1.419 . S
C231 H235 0.930 . S
C232 C231 1.369 . S
C232 C241 1.429 . S
C233 C231 1.419 . S
C233 C234 1.363 . S
C233 H236 0.929 . S
C234 C233 1.363 . S
C234 C240 1.428 . S
H235 C231 0.930 . S
H236 C233 0.929 . S
S237 N238 1.613 . S
S237 N239 1.610 . S
N238 S237 1.613 . S
N238 C241 1.350 . S
N239 S237 1.610 . S
N239 C240 1.351 . S
C240 C234 1.428 . S
C240 N239 1.351 . S
C240 C241 1.434 . S
C241 C232 1.429 . S
C241 N238 1.350 . S
C241 C240 1.434 . S
C242 C243 1.369 . S
C242 C244 1.419 . S
C242 H246 0.930 . S
C243 C242 1.369 . S
C243 C252 1.429 . S
C244 C242 1.419 . S
C244 C245 1.363 . S
C244 H247 0.929 . S
C245 C244 1.363 . S
C245 C251 1.428 . S
H246 C242 0.930 . S
H247 C244 0.929 . S
S248 N249 1.613 . S
S248 N250 1.610 . S
N249 S248 1.613 . S
N249 C252 1.350 . S
N250 S248 1.610 . S
N250 C251 1.351 . S
C251 C245 1.428 . S
C251 N250 1.351 . S
C251 C252 1.434 . S
C252 C243 1.429 . S
C252 N249 1.350 . S
C252 C251 1.434 . S
C253 C254 1.369 . S
C253 C255 1.419 . S
C253 H257 0.930 . S
C254 C253 1.369 . S
C254 C263 1.429 . S
C255 C253 1.419 . S
C255 C256 1.363 . S
C255 H258 0.929 . S
C256 C255 1.363 . S
C256 C262 1.428 . S
H257 C253 0.930 . S
H258 C255 0.929 . S
S259 N260 1.613 . S
S259 N261 1.610 . S
N260 S259 1.613 . S
N260 C263 1.350 . S
N261 S259 1.610 . S
N261 C262 1.351 . S
C262 C256 1.428 . S
C262 N261 1.351 . S
C262 C263 1.434 . S
C263 C254 1.429 . S
C263 N260 1.350 . S
C263 C262 1.434 . S
C264 C265 1.369 . S
C264 C266 1.419 . S
C264 H268 0.930 . S
C265 C264 1.369 . S
C265 C274 1.429 . S
C266 C264 1.419 . S
C266 C267 1.363 . S
C266 H269 0.929 . S
C267 C266 1.363 . S
C267 C273 1.428 . S
H268 C264 0.930 . S
H269 C266 0.929 . S
S270 N271 1.613 . S
S270 N272 1.610 . S
N271 S270 1.613 . S
N271 C274 1.350 . S
N272 S270 1.610 . S
N272 C273 1.351 . S
C273 C267 1.428 . S
C273 N272 1.351 . S
C273 C274 1.434 . S
C274 C265 1.429 . S
C274 N271 1.350 . S
C274 C273 1.434 . S
C275 C276 1.369 . S
C275 C277 1.419 . S
C275 H279 0.930 . S
C276 C275 1.369 . S
C276 C285 1.429 . S
C277 C275 1.419 . S
C277 C278 1.363 . S
C277 H280 0.929 . S
C278 C277 1.363 . S
C278 C284 1.428 . S
H279 C275 0.930 . S
H280 C277 0.929 . S
S281 N282 1.613 . S
S281 N283 1.610 . S
N282 S281 1.613 . S
N282 C285 1.350 . S
N283 S281 1.610 . S
N283 C284 1.351 . S
C284 C278 1.428 . S
C284 N283 1.351 . S
C284 C285 1.434 . S
C285 C276 1.429 . S
C285 N282 1.350 . S
C285 C284 1.434 . S
C286 C287 1.369 . S
C286 C288 1.419 . S
C286 H290 0.930 . S
C287 C286 1.369 . S
C287 C296 1.429 . S
C288 C286 1.419 . S
C288 C289 1.363 . S
C288 H291 0.929 . S
C289 C288 1.363 . S
C289 C295 1.428 . S
H290 C286 0.930 . S
H291 C288 0.929 . S
S292 N293 1.613 . S
S292 N294 1.610 . S
N293 S292 1.613 . S
N293 C296 1.350 . S
N294 S292 1.610 . S
N294 C295 1.351 . S
C295 C289 1.428 . S
C295 N294 1.351 . S
C295 C296 1.434 . S
C296 C287 1.429 . S
C296 N293 1.350 . S
C296 C295 1.434 . S
C297 C298 1.369 . S
C297 C299 1.419 . S
C297 H301 0.930 . S
C298 C297 1.369 . S
C298 C307 1.429 . S
C299 C297 1.419 . S
C299 C300 1.363 . S
C299 H302 0.929 . S
C300 C299 1.363 . S
C300 C306 1.428 . S
H301 C297 0.930 . S
H302 C299 0.929 . S
S303 N304 1.613 . S
S303 N305 1.610 . S
N304 S303 1.613 . S
N304 C307 1.350 . S
N305 S303 1.610 . S
N305 C306 1.351 . S
C306 C300 1.428 . S
C306 N305 1.351 . S
C306 C307 1.434 . S
C307 C298 1.429 . S
C307 N304 1.350 . S
C307 C306 1.434 . S
C308 C309 1.369 . S
C308 C310 1.419 . S
C308 H312 0.930 . S
C309 C308 1.369 . S
C309 C318 1.429 . S
C310 C308 1.419 . S
C310 C311 1.363 . S
C310 H313 0.929 . S
C311 C310 1.363 . S
C311 C317 1.428 . S
H312 C308 0.930 . S
H313 C310 0.929 . S
S314 N315 1.613 . S
S314 N316 1.610 . S
N315 S314 1.613 . S
N315 C318 1.350 . S
N316 S314 1.610 . S
N316 C317 1.351 . S
C317 C311 1.428 . S
C317 N316 1.351 . S
C317 C318 1.434 . S
C318 C309 1.429 . S
C318 N315 1.350 . S
C318 C317 1.434 . S
C319 C320 1.369 . S
C319 C321 1.419 . S
C319 H323 0.930 . S
C320 C319 1.369 . S
C320 C329 1.429 . S
C321 C319 1.419 . S
C321 C322 1.363 . S
C321 H324 0.929 . S
C322 C321 1.363 . S
C322 C328 1.428 . S
H323 C319 0.930 . S
H324 C321 0.929 . S
S325 N326 1.613 . S
S325 N327 1.610 . S
N326 S325 1.613 . S
N326 C329 1.350 . S
N327 S325 1.610 . S
N327 C328 1.351 . S
C328 C322 1.428 . S
C328 N327 1.351 . S
C328 C329 1.434 . S
C329 C320 1.429 . S
C329 N326 1.350 . S
C329 C328 1.434 . S
C330 C331 1.369 . S
C330 C332 1.419 . S
C330 H334 0.930 . S
C331 C330 1.369 . S
C331 C340 1.429 . S
C332 C330 1.419 . S
C332 C333 1.363 1_554 S
C332 H335 0.929 1_554 S
C333 C332 1.363 1_556 S
C333 C339 1.428 . S
H334 C330 0.930 . S
H335 C332 0.929 1_556 S
S336 N337 1.613 . S
S336 N338 1.610 1_554 S
N337 S336 1.613 . S
N337 C340 1.350 1_655 S
N338 S336 1.610 1_556 S
N338 C339 1.351 1_655 S
C339 C333 1.428 . S
C339 N338 1.351 1_455 S
C339 C340 1.434 1_556 S
C340 C331 1.429 . S
C340 N337 1.350 1_455 S
C340 C339 1.434 1_554 S
C341 C342 1.369 . S
C341 C343 1.419 . S
C341 H345 0.930 . S
C342 C341 1.369 . S
C342 C351 1.429 . S
C343 C341 1.419 . S
C343 C344 1.363 . S
C343 H346 0.929 . S
C344 C343 1.363 . S
C344 C350 1.428 . S
H345 C341 0.930 . S
H346 C343 0.929 . S
S347 N348 1.613 . S
S347 N349 1.610 . S
N348 S347 1.613 . S
N348 C351 1.350 1_565 S
N349 S347 1.610 . S
N349 C350 1.351 1_565 S
C350 C344 1.428 . S
C350 N349 1.351 1_545 S
C350 C351 1.434 . S
C351 C342 1.429 . S
C351 N348 1.350 1_545 S
C351 C350 1.434 . S
C352 C353 1.369 . S
C352 C354 1.419 . S
C352 H356 0.930 . S
C353 C352 1.369 . S
C353 C362 1.429 . S
C354 C352 1.419 . S
C354 C355 1.363 . S
C354 H357 0.929 . S
C355 C354 1.363 . S
C355 C361 1.428 . S
H356 C352 0.930 . S
H357 C354 0.929 . S
S358 N359 1.613 . S
S358 N360 1.610 . S
N359 S358 1.613 . S
N359 C362 1.350 . S
N360 S358 1.610 . S
N360 C361 1.351 . S
C361 C355 1.428 . S
C361 N360 1.351 . S
C361 C362 1.434 . S
C362 C353 1.429 . S
C362 N359 1.350 . S
C362 C361 1.434 . S
C363 C364 1.369 . S
C363 C365 1.419 . S
C363 H367 0.930 . S
C364 C363 1.369 . S
C364 C373 1.429 1_545 S
C365 C363 1.419 . S
C365 C366 1.363 . S
C365 H368 0.929 . S
C366 C365 1.363 . S
C366 C372 1.428 1_545 S
H367 C363 0.930 . S
H368 C365 0.929 . S
S369 N370 1.613 . S
S369 N371 1.610 . S
N370 S369 1.613 . S
N370 C373 1.350 . S
N371 S369 1.610 . S
N371 C372 1.351 . S
C372 C366 1.428 1_565 S
C372 N371 1.351 . S
C372 C373 1.434 . S
C373 C364 1.429 1_565 S
C373 N370 1.350 . S
C373 C372 1.434 . S
C374 C375 1.369 . S
C374 C376 1.419 1_556 S
C374 H378 0.930 . S
C375 C374 1.369 . S
C375 C384 1.429 . S
C376 C374 1.419 1_554 S
C376 C377 1.363 . S
C376 H379 0.929 . S
C377 C376 1.363 . S
C377 C383 1.428 1_554 S
H378 C374 0.930 . S
H379 C376 0.929 . S
S380 N381 1.613 . S
S380 N382 1.610 . S
N381 S380 1.613 . S
N381 C384 1.350 . S
N382 S380 1.610 . S
N382 C383 1.351 . S
C383 C377 1.428 1_556 S
C383 N382 1.351 . S
C383 C384 1.434 . S
C384 C375 1.429 . S
C384 N381 1.350 . S
C384 C383 1.434 . S
C385 C386 1.369 1_455 S
C385 C387 1.419 . S
C385 H389 0.930 . S
C386 C385 1.369 1_655 S
C386 C395 1.429 . S
C387 C385 1.419 . S
C387 C388 1.363 . S
C387 H390 0.929 . S
C388 C387 1.363 . S
C388 C394 1.428 1_455 S
H389 C385 0.930 . S
H390 C387 0.929 . S
S391 N392 1.613 . S
S391 N393 1.610 . S
N392 S391 1.613 . S
N392 C395 1.350 . S
N393 S391 1.610 . S
N393 C394 1.351 . S
C394 C388 1.428 1_655 S
C394 N393 1.351 . S
C394 C395 1.434 . S
C395 C386 1.429 . S
C395 N392 1.350 . S
C395 C394 1.434 . S
C199 C7 0.959 . S
C201 C189 1.082 . S
C210 C51 1.880 . S
C212 C167 1.846 . S
C221 C87 1.353 . S
C223 C180 1.381 . S
C232 C16 0.744 . S
C234 C193 0.704 . S
C245 C163 1.868 . S
C243 C42 2.045 . S
C256 C176 1.361 . S
C254 C96 1.373 . S
C265 C47 1.157 . S
C267 C141 1.170 . S
C276 C91 3.090 . S
C278 C154 3.049 1_655 S
C287 C2 2.061 . S
C289 C124 1.900 . S
C300 C137 1.436 . S
C298 C56 1.409 . S
C311 C150 2.916 . S
C309 C82 3.103 . S
C320 C11 1.895 . S
C322 C128 1.885 . S
C333 C155 1.780 . S
C331 C19 1.739 . S
C342 C50 1.451 . S
C344 C129 1.476 . S
C353 C99 1.496 . S
C355 C142 1.605 . S
C366 C181 1.534 . S
C364 C59 1.466 . S
C377 C194 1.274 . S
C375 C90 1.284 . S
C386 C10 1.408 1_655 S
C388 C168 1.455 . S
