# Generated by pormake.
# Topology bwt, (3,3)-cn, num edge types: 1
# Building blocks:
#     Node 0, Type 0, BuildingBlock: OLANEW_clean_sbu_2, # of connection points: 3
#     Node 1, Type 0, BuildingBlock: OLANEW_clean_sbu_2, # of connection points: 3
#     Node 2, Type 0, BuildingBlock: OLANEW_clean_sbu_2, # of connection points: 3
#     Node 3, Type 0, BuildingBlock: OLANEW_clean_sbu_2, # of connection points: 3
#     Node 4, Type 0, BuildingBlock: OLANEW_clean_sbu_2, # of connection points: 3
#     Node 5, Type 0, BuildingBlock: OLANEW_clean_sbu_2, # of connection points: 3
#     Node 6, Type 0, BuildingBlock: OLANEW_clean_sbu_2, # of connection points: 3
#     Node 7, Type 0, BuildingBlock: OLANEW_clean_sbu_2, # of connection points: 3
#     Node 8, Type 0, BuildingBlock: OLANEW_clean_sbu_2, # of connection points: 3
#     Node 9, Type 0, BuildingBlock: OLANEW_clean_sbu_2, # of connection points: 3
#     Node 10, Type 0, BuildingBlock: OLANEW_clean_sbu_2, # of connection points: 3
#     Node 11, Type 0, BuildingBlock: OLANEW_clean_sbu_2, # of connection points: 3
#     Node 12, Type 0, BuildingBlock: OLANEW_clean_sbu_2, # of connection points: 3
#     Node 13, Type 0, BuildingBlock: OLANEW_clean_sbu_2, # of connection points: 3
#     Node 14, Type 0, BuildingBlock: OLANEW_clean_sbu_2, # of connection points: 3
#     Node 15, Type 0, BuildingBlock: OLANEW_clean_sbu_2, # of connection points: 3
#     Node 16, Type 0, BuildingBlock: OLANEW_clean_sbu_2, # of connection points: 3
#     Node 17, Type 0, BuildingBlock: OLANEW_clean_sbu_2, # of connection points: 3
#     Node 18, Type 0, BuildingBlock: OLANEW_clean_sbu_2, # of connection points: 3
#     Node 19, Type 0, BuildingBlock: OLANEW_clean_sbu_2, # of connection points: 3
#     Node 20, Type 0, BuildingBlock: OLANEW_clean_sbu_2, # of connection points: 3
#     Node 21, Type 0, BuildingBlock: OLANEW_clean_sbu_2, # of connection points: 3
#     Node 22, Type 0, BuildingBlock: OLANEW_clean_sbu_2, # of connection points: 3
#     Node 23, Type 0, BuildingBlock: OLANEW_clean_sbu_2, # of connection points: 3
#     Node 24, Type 1, BuildingBlock: PAMTOO_clean_linker_0, # of connection points: 3
#     Node 25, Type 1, BuildingBlock: PAMTOO_clean_linker_0, # of connection points: 3
#     Node 26, Type 1, BuildingBlock: PAMTOO_clean_linker_0, # of connection points: 3
#     Node 27, Type 1, BuildingBlock: PAMTOO_clean_linker_0, # of connection points: 3
#     Node 28, Type 1, BuildingBlock: PAMTOO_clean_linker_0, # of connection points: 3
#     Node 29, Type 1, BuildingBlock: PAMTOO_clean_linker_0, # of connection points: 3
#     Node 30, Type 1, BuildingBlock: PAMTOO_clean_linker_0, # of connection points: 3
#     Node 31, Type 1, BuildingBlock: PAMTOO_clean_linker_0, # of connection points: 3
#     Node 32, Type 1, BuildingBlock: PAMTOO_clean_linker_0, # of connection points: 3
#     Node 33, Type 1, BuildingBlock: PAMTOO_clean_linker_0, # of connection points: 3
#     Node 34, Type 1, BuildingBlock: PAMTOO_clean_linker_0, # of connection points: 3
#     Node 35, Type 1, BuildingBlock: PAMTOO_clean_linker_0, # of connection points: 3
#     Node 36, Type 1, BuildingBlock: PAMTOO_clean_linker_0, # of connection points: 3
#     Node 37, Type 1, BuildingBlock: PAMTOO_clean_linker_0, # of connection points: 3
#     Node 38, Type 1, BuildingBlock: PAMTOO_clean_linker_0, # of connection points: 3
#     Node 39, Type 1, BuildingBlock: PAMTOO_clean_linker_0, # of connection points: 3
#     Node 40, Type 1, BuildingBlock: PAMTOO_clean_linker_0, # of connection points: 3
#     Node 41, Type 1, BuildingBlock: PAMTOO_clean_linker_0, # of connection points: 3
#     Node 42, Type 1, BuildingBlock: PAMTOO_clean_linker_0, # of connection points: 3
#     Node 43, Type 1, BuildingBlock: PAMTOO_clean_linker_0, # of connection points: 3
#     Node 44, Type 1, BuildingBlock: PAMTOO_clean_linker_0, # of connection points: 3
#     Node 45, Type 1, BuildingBlock: PAMTOO_clean_linker_0, # of connection points: 3
#     Node 46, Type 1, BuildingBlock: PAMTOO_clean_linker_0, # of connection points: 3
#     Node 47, Type 1, BuildingBlock: PAMTOO_clean_linker_0, # of connection points: 3
#     Edge 48, Type (0, 1), BuildingBlock: TEMPAE_clean_linker_10, # of connection points: 2
#     Edge 49, Type (0, 1), BuildingBlock: TEMPAE_clean_linker_10, # of connection points: 2
#     Edge 50, Type (0, 1), BuildingBlock: TEMPAE_clean_linker_10, # of connection points: 2
#     Edge 51, Type (0, 1), BuildingBlock: TEMPAE_clean_linker_10, # of connection points: 2
#     Edge 52, Type (0, 1), BuildingBlock: TEMPAE_clean_linker_10, # of connection points: 2
#     Edge 53, Type (0, 1), BuildingBlock: TEMPAE_clean_linker_10, # of connection points: 2
#     Edge 54, Type (0, 1), BuildingBlock: TEMPAE_clean_linker_10, # of connection points: 2
#     Edge 55, Type (0, 1), BuildingBlock: TEMPAE_clean_linker_10, # of connection points: 2
#     Edge 56, Type (0, 1), BuildingBlock: TEMPAE_clean_linker_10, # of connection points: 2
#     Edge 57, Type (0, 1), BuildingBlock: TEMPAE_clean_linker_10, # of connection points: 2
#     Edge 58, Type (0, 1), BuildingBlock: TEMPAE_clean_linker_10, # of connection points: 2
#     Edge 59, Type (0, 1), BuildingBlock: TEMPAE_clean_linker_10, # of connection points: 2
#     Edge 60, Type (0, 1), BuildingBlock: TEMPAE_clean_linker_10, # of connection points: 2
#     Edge 61, Type (0, 1), BuildingBlock: TEMPAE_clean_linker_10, # of connection points: 2
#     Edge 62, Type (0, 1), BuildingBlock: TEMPAE_clean_linker_10, # of connection points: 2
#     Edge 63, Type (0, 1), BuildingBlock: TEMPAE_clean_linker_10, # of connection points: 2
#     Edge 64, Type (0, 1), BuildingBlock: TEMPAE_clean_linker_10, # of connection points: 2
#     Edge 65, Type (0, 1), BuildingBlock: TEMPAE_clean_linker_10, # of connection points: 2
#     Edge 66, Type (0, 1), BuildingBlock: TEMPAE_clean_linker_10, # of connection points: 2
#     Edge 67, Type (0, 1), BuildingBlock: TEMPAE_clean_linker_10, # of connection points: 2
#     Edge 68, Type (0, 1), BuildingBlock: TEMPAE_clean_linker_10, # of connection points: 2
#     Edge 69, Type (0, 1), BuildingBlock: TEMPAE_clean_linker_10, # of connection points: 2
#     Edge 70, Type (0, 1), BuildingBlock: TEMPAE_clean_linker_10, # of connection points: 2
#     Edge 71, Type (0, 1), BuildingBlock: TEMPAE_clean_linker_10, # of connection points: 2
#     Edge 72, Type (0, 1), BuildingBlock: TEMPAE_clean_linker_10, # of connection points: 2
#     Edge 73, Type (0, 1), BuildingBlock: TEMPAE_clean_linker_10, # of connection points: 2
#     Edge 74, Type (0, 1), BuildingBlock: TEMPAE_clean_linker_10, # of connection points: 2
#     Edge 75, Type (0, 1), BuildingBlock: TEMPAE_clean_linker_10, # of connection points: 2
#     Edge 76, Type (0, 1), BuildingBlock: TEMPAE_clean_linker_10, # of connection points: 2
#     Edge 77, Type (0, 1), BuildingBlock: TEMPAE_clean_linker_10, # of connection points: 2
#     Edge 78, Type (0, 1), BuildingBlock: TEMPAE_clean_linker_10, # of connection points: 2
#     Edge 79, Type (0, 1), BuildingBlock: TEMPAE_clean_linker_10, # of connection points: 2
#     Edge 80, Type (0, 1), BuildingBlock: TEMPAE_clean_linker_10, # of connection points: 2
#     Edge 81, Type (0, 1), BuildingBlock: TEMPAE_clean_linker_10, # of connection points: 2
#     Edge 82, Type (0, 1), BuildingBlock: TEMPAE_clean_linker_10, # of connection points: 2
#     Edge 83, Type (0, 1), BuildingBlock: TEMPAE_clean_linker_10, # of connection points: 2
#     Edge 84, Type (0, 1), BuildingBlock: TEMPAE_clean_linker_10, # of connection points: 2
#     Edge 85, Type (0, 1), BuildingBlock: TEMPAE_clean_linker_10, # of connection points: 2
#     Edge 86, Type (0, 1), BuildingBlock: TEMPAE_clean_linker_10, # of connection points: 2
#     Edge 87, Type (0, 1), BuildingBlock: TEMPAE_clean_linker_10, # of connection points: 2
#     Edge 88, Type (0, 1), BuildingBlock: TEMPAE_clean_linker_10, # of connection points: 2
#     Edge 89, Type (0, 1), BuildingBlock: TEMPAE_clean_linker_10, # of connection points: 2
#     Edge 90, Type (0, 1), BuildingBlock: TEMPAE_clean_linker_10, # of connection points: 2
#     Edge 91, Type (0, 1), BuildingBlock: TEMPAE_clean_linker_10, # of connection points: 2
#     Edge 92, Type (0, 1), BuildingBlock: TEMPAE_clean_linker_10, # of connection points: 2
#     Edge 93, Type (0, 1), BuildingBlock: TEMPAE_clean_linker_10, # of connection points: 2
#     Edge 94, Type (0, 1), BuildingBlock: TEMPAE_clean_linker_10, # of connection points: 2
#     Edge 95, Type (0, 1), BuildingBlock: TEMPAE_clean_linker_10, # of connection points: 2
#     Edge 96, Type (0, 1), BuildingBlock: TEMPAE_clean_linker_10, # of connection points: 2
#     Edge 97, Type (0, 1), BuildingBlock: TEMPAE_clean_linker_10, # of connection points: 2
#     Edge 98, Type (0, 1), BuildingBlock: TEMPAE_clean_linker_10, # of connection points: 2
#     Edge 99, Type (0, 1), BuildingBlock: TEMPAE_clean_linker_10, # of connection points: 2
#     Edge 100, Type (0, 1), BuildingBlock: TEMPAE_clean_linker_10, # of connection points: 2
#     Edge 101, Type (0, 1), BuildingBlock: TEMPAE_clean_linker_10, # of connection points: 2
#     Edge 102, Type (0, 1), BuildingBlock: TEMPAE_clean_linker_10, # of connection points: 2
#     Edge 103, Type (0, 1), BuildingBlock: TEMPAE_clean_linker_10, # of connection points: 2
#     Edge 104, Type (0, 1), BuildingBlock: TEMPAE_clean_linker_10, # of connection points: 2
#     Edge 105, Type (0, 1), BuildingBlock: TEMPAE_clean_linker_10, # of connection points: 2
#     Edge 106, Type (0, 1), BuildingBlock: TEMPAE_clean_linker_10, # of connection points: 2
#     Edge 107, Type (0, 1), BuildingBlock: TEMPAE_clean_linker_10, # of connection points: 2
#     Edge 108, Type (0, 1), BuildingBlock: TEMPAE_clean_linker_10, # of connection points: 2
#     Edge 109, Type (0, 1), BuildingBlock: TEMPAE_clean_linker_10, # of connection points: 2
#     Edge 110, Type (0, 1), BuildingBlock: TEMPAE_clean_linker_10, # of connection points: 2
#     Edge 111, Type (0, 1), BuildingBlock: TEMPAE_clean_linker_10, # of connection points: 2
#     Edge 112, Type (0, 1), BuildingBlock: TEMPAE_clean_linker_10, # of connection points: 2
#     Edge 113, Type (0, 1), BuildingBlock: TEMPAE_clean_linker_10, # of connection points: 2
#     Edge 114, Type (0, 1), BuildingBlock: TEMPAE_clean_linker_10, # of connection points: 2
#     Edge 115, Type (0, 1), BuildingBlock: TEMPAE_clean_linker_10, # of connection points: 2
#     Edge 116, Type (0, 1), BuildingBlock: TEMPAE_clean_linker_10, # of connection points: 2
#     Edge 117, Type (0, 1), BuildingBlock: TEMPAE_clean_linker_10, # of connection points: 2
#     Edge 118, Type (0, 1), BuildingBlock: TEMPAE_clean_linker_10, # of connection points: 2
#     Edge 119, Type (0, 1), BuildingBlock: TEMPAE_clean_linker_10, # of connection points: 2
# Relax obj value: 0.062
# Max RMSD: 0.118
# Mean RMSD: 0.060
data_MOF--net-bwt--node1-OLANEW_clean_sbu_2--node2-PAMTOO_clean_linker_0--edge1-TEMPAE_clean_linker_10
_symmetry_space_group_name_H-M    P1
_symmetry_Int_Tables_number       1
_symmetry_cell_setting            triclinic
loop_
_symmetry_equiv_pos_as_xyz
'x, y, z'
_cell_length_a     60.586808
_cell_length_b     60.550754
_cell_length_c     60.564301
_cell_angle_alpha  94.786346
_cell_angle_beta   94.758199
_cell_angle_gamma 94.755821
loop_
_atom_site_label
_atom_site_type_symbol
_atom_site_fract_x
_atom_site_fract_y
_atom_site_fract_z
_atom_type_partial_charge
O0 O 0.28414 0.55254 0.40439 0.0
Cd1 Cd 0.28494 0.56024 0.36537 0.0
O2 O 0.3131 0.5766 0.41486 0.0
Cd3 Cd 0.32097 0.58241 0.38114 0.0
O4 O 0.3388 0.58969 0.35228 0.0
C5 C 0.35131 0.57579 0.34424 0.0
O6 O 0.35251 0.55671 0.35292 0.0
C7 C 0.29758 0.56291 0.41978 0.0
C8 C 0.24207 0.56077 0.34467 0.0
O9 O 0.2523 0.54306 0.3436 0.0
O10 O 0.25217 0.57833 0.35546 0.0
O11 O 0.2227 0.39614 0.80263 0.0
Cd12 Cd 0.20768 0.37465 0.76786 0.0
O13 O 0.22286 0.42883 0.78921 0.0
Cd14 Cd 0.20263 0.41462 0.75927 0.0
O15 O 0.16937 0.40507 0.74328 0.0
C16 C 0.15576 0.39648 0.75571 0.0
O17 O 0.16313 0.3928 0.77598 0.0
C18 C 0.22765 0.41709 0.80508 0.0
C19 C 0.24341 0.36905 0.74248 0.0
O20 O 0.23117 0.38509 0.73995 0.0
O21 O 0.23818 0.35512 0.75641 0.0
O22 O 0.68618 0.9866 0.60112 0.0
Cd23 Cd 0.70175 0.98908 0.6399 0.0
O24 O 0.70902 0.96269 0.58943 0.0
Cd25 Cd 0.73014 0.96523 0.62076 0.0
O26 O 0.76269 0.97101 0.63979 0.0
C27 C 0.76732 0.98618 0.65571 0.0
O28 O 0.75159 0.99832 0.66206 0.0
C29 C 0.69262 0.97403 0.58551 0.0
C30 C 0.67074 0.00398 0.66799 0.0
O31 O 0.68432 0.01768 0.6597 0.0
O32 O 0.67198 0.98312 0.6632 0.0
O33 O 0.80369 0.01747 0.24374 0.0
Cd34 Cd 0.81056 0.02283 0.28425 0.0
O35 O 0.78098 0.04383 0.2416 0.0
Cd36 Cd 0.7756 0.04415 0.27678 0.0
O37 O 0.74836 0.02876 0.29329 0.0
C38 C 0.72975 0.02783 0.28172 0.0
O39 O 0.72892 0.03719 0.26288 0.0
C40 C 0.79207 0.0295 0.23205 0.0
C41 C 0.85269 0.00985 0.29612 0.0
O42 O 0.83525 0.99626 0.29578 0.0
O43 O 0.85013 0.02977 0.29139 0.0
O44 O 0.3753 0.27732 0.5719 0.0
Cd45 Cd 0.3366 0.2813 0.57886 0.0
O46 O 0.38908 0.28768 0.60626 0.0
Cd47 Cd 0.35833 0.30075 0.61512 0.0
O48 O 0.34636 0.33346 0.62101 0.0
C49 C 0.36186 0.34918 0.62306 0.0
O50 O 0.38245 0.34415 0.62185 0.0
C51 C 0.39182 0.28025 0.58653 0.0
C52 C 0.31364 0.23912 0.57305 0.0
O53 O 0.31665 0.25055 0.5565 0.0
O54 O 0.32097 0.24788 0.59256 0.0
O55 O 0.24052 0.75426 0.98181 0.0
Cd56 Cd 0.28091 0.76238 0.98656 0.0
O57 O 0.2397 0.7277 0.00455 0.0
Cd58 Cd 0.27494 0.72202 0.00595 0.0
O59 O 0.29421 0.69299 0.00353 0.0
C60 C 0.29933 0.68338 0.02087 0.0
O61 O 0.29493 0.69252 0.04028 0.0
C62 C 0.22956 0.7405 0.99241 0.0
C63 C 0.29103 0.80725 0.98047 0.0
O64 O 0.29101 0.79207 0.9644 0.0
O65 O 0.28675 0.80119 0.99955 0.0
O66 O 0.75047 0.23564 0.39738 0.0
Cd67 Cd 0.71517 0.22562 0.37479 0.0
O68 O 0.76678 0.24611 0.36839 0.0
Cd69 Cd 0.74152 0.225 0.34662 0.0
O70 O 0.72372 0.19178 0.34117 0.0
C71 C 0.73535 0.17615 0.34639 0.0
O72 O 0.7565 0.18113 0.35311 0.0
C73 C 0.76701 0.24538 0.38935 0.0
C74 C 0.69368 0.26456 0.37537 0.0
O75 O 0.68976 0.24999 0.38908 0.0
O76 O 0.70706 0.26023 0.3606 0.0
O77 O 0.59836 0.72478 0.00436 0.0
Cd78 Cd 0.63839 0.73396 0.01288 0.0
O79 O 0.60107 0.71664 0.96866 0.0
Cd80 Cd 0.63473 0.73316 0.97172 0.0
O81 O 0.65538 0.76453 0.98015 0.0
C82 C 0.64516 0.77972 0.98951 0.0
O83 O 0.62429 0.77502 0.99319 0.0
C84 C 0.58936 0.71734 0.98517 0.0
C85 C 0.65953 0.69564 0.02032 0.0
O86 O 0.65206 0.70726 0.03625 0.0
O87 O 0.65717 0.70225 0.00077 0.0
O88 O 0.52428 0.40954 0.29083 0.0
Cd89 Cd 0.53773 0.37289 0.29449 0.0
O90 O 0.55841 0.42562 0.29684 0.0
Cd91 Cd 0.57071 0.39704 0.31199 0.0
O92 O 0.57576 0.37801 0.34077 0.0
C93 C 0.57309 0.38855 0.35926 0.0
O94 O 0.56808 0.40926 0.35934 0.0
C95 C 0.53786 0.42678 0.29124 0.0
C96 C 0.55562 0.35889 0.25514 0.0
O97 O 0.53528 0.35334 0.25814 0.0
O98 O 0.56765 0.37069 0.27093 0.0
O99 O 0.98072 0.26124 0.77637 0.0
Cd100 Cd 0.98306 0.30184 0.78222 0.0
O101 O 0.00824 0.26094 0.75491 0.0
Cd102 Cd 0.00735 0.29603 0.74912 0.0
O103 O 0.99729 0.31554 0.72184 0.0
C104 C 0.97689 0.31248 0.71452 0.0
O105 O 0.96333 0.30013 0.72529 0.0
C106 C 0.99415 0.25049 0.76558 0.0
C107 C 0.9717 0.31358 0.82506 0.0
O108 O 0.95724 0.31246 0.80822 0.0
O109 O 0.99165 0.30969 0.82157 0.0
O110 O 0.4345 0.74764 0.2299 0.0
Cd111 Cd 0.40893 0.71469 0.21828 0.0
O112 O 0.42825 0.77008 0.20362 0.0
Cd113 Cd 0.40793 0.74576 0.17995 0.0
O114 O 0.39454 0.73064 0.14688 0.0
C115 C 0.40826 0.72563 0.13288 0.0
O116 O 0.42966 0.72888 0.13915 0.0
C117 C 0.43792 0.7664 0.22224 0.0
C118 C 0.40157 0.69787 0.25882 0.0
O119 O 0.41738 0.69175 0.24758 0.0
O120 O 0.38822 0.71077 0.25015 0.0
O121 O 0.95137 0.62712 0.65078 0.0
Cd122 Cd 0.94632 0.66625 0.64653 0.0
O123 O 0.95056 0.6353 0.68659 0.0
Cd124 Cd 0.95391 0.62906 0.72175 0.0
O125 O 0.96139 0.63284 0.7579 0.0
C126 C 0.97142 0.61863 0.76825 0.0
O127 O 0.97695 0.60074 0.75698 0.0
C128 C 0.95218 0.62097 0.67036 0.0
C129 C 0.9723 0.68442 0.61547 0.0
O130 O 0.98019 0.68334 0.63561 0.0
O131 O 0.95207 0.67673 0.60989 0.0
O132 O 0.71742 0.34177 0.6082 0.0
Cd133 Cd 0.73553 0.31845 0.63385 0.0
O134 O 0.69404 0.35247 0.63166 0.0
Cd135 Cd 0.66427 0.3661 0.64302 0.0
O136 O 0.63053 0.36988 0.65159 0.0
C137 C 0.61518 0.3716 0.63638 0.0
O138 O 0.6202 0.37208 0.61572 0.0
C139 C 0.70119 0.35291 0.61251 0.0
C140 C 0.77883 0.33656 0.64629 0.0
O141 O 0.77376 0.32505 0.62757 0.0
O142 O 0.76351 0.33923 0.65939 0.0
O143 O 0.74846 0.63508 0.26043 0.0
Cd144 Cd 0.74249 0.65706 0.29495 0.0
O145 O 0.78362 0.63107 0.26955 0.0
Cd146 Cd 0.81718 0.62141 0.26493 0.0
O147 O 0.85122 0.61167 0.2668 0.0
C148 C 0.86071 0.60487 0.24987 0.0
O149 O 0.84978 0.60358 0.23007 0.0
C150 C 0.76653 0.62735 0.2556 0.0
C151 C 0.69678 0.65745 0.29849 0.0
O152 O 0.70735 0.67219 0.28838 0.0
O153 O 0.70794 0.64286 0.30736 0.0
O154 O 0.34561 0.05562 0.36133 0.0
Cd155 Cd 0.36624 0.06132 0.32896 0.0
O156 O 0.3149 0.04271 0.34094 0.0
Cd157 Cd 0.27935 0.03169 0.33523 0.0
O158 O 0.24435 0.0193 0.32816 0.0
C159 C 0.23089 0.02014 0.34317 0.0
O160 O 0.23821 0.02884 0.36331 0.0
C161 C 0.32532 0.04792 0.36002 0.0
C162 C 0.40335 0.03693 0.32902 0.0
O163 O 0.40444 0.05631 0.33955 0.0
O164 O 0.38474 0.02916 0.31846 0.0
O165 O 0.2102 0.98173 0.75058 0.0
Cd166 Cd 0.18899 0.97763 0.71417 0.0
O167 O 0.24128 0.99295 0.7371 0.0
Cd168 Cd 0.27706 0.00262 0.73802 0.0
O169 O 0.31187 0.01535 0.73784 0.0
C170 C 0.32621 0.01313 0.75387 0.0
O171 O 0.31994 0.00272 0.77081 0.0
C172 C 0.23079 0.9883 0.75372 0.0
C173 C 0.14633 0.99089 0.7179 0.0
O174 O 0.1506 0.97088 0.72067 0.0
O175 O 0.1622 0.00455 0.71315 0.0
O176 O 0.61314 0.73571 0.34406 0.0
Cd177 Cd 0.64051 0.75361 0.32235 0.0
O178 O 0.63107 0.70619 0.34882 0.0
Cd179 Cd 0.6354 0.67301 0.35946 0.0
O180 O 0.64116 0.64146 0.37298 0.0
C181 C 0.6252 0.62834 0.37791 0.0
O182 O 0.60474 0.63387 0.37464 0.0
C183 C 0.61447 0.71718 0.35228 0.0
C184 C 0.63998 0.79964 0.33024 0.0
O185 O 0.62771 0.78879 0.31399 0.0
O186 O 0.65277 0.78877 0.34235 0.0
O187 O 0.72699 0.21748 0.97223 0.0
Cd188 Cd 0.69199 0.19393 0.96589 0.0
O189 O 0.71156 0.24422 0.99017 0.0
Cd190 Cd 0.71003 0.27775 0.00622 0.0
O191 O 0.70893 0.31222 0.01946 0.0
C192 C 0.72361 0.32704 0.01505 0.0
O193 O 0.73944 0.32115 0.00282 0.0
C194 C 0.72878 0.23667 0.98279 0.0
C195 C 0.69927 0.1512 0.97694 0.0
O196 O 0.70122 0.15664 0.95714 0.0
O197 O 0.69349 0.16586 0.99132 0.0
O198 O 0.21889 0.76391 0.67249 0.0
Cd199 Cd 0.23832 0.75326 0.70635 0.0
O200 O 0.23577 0.79748 0.67346 0.0
Cd201 Cd 0.24179 0.8308 0.66262 0.0
O202 O 0.24917 0.86218 0.64843 0.0
C203 C 0.23449 0.87021 0.63601 0.0
O204 O 0.21461 0.85947 0.63205 0.0
C205 C 0.2217 0.78221 0.66382 0.0
C206 C 0.25144 0.71095 0.6961 0.0
O207 O 0.2316 0.7137 0.70094 0.0
O208 O 0.2654 0.72815 0.69689 0.0
O209 O 0.41298 0.26015 0.02074 0.0
Cd210 Cd 0.37255 0.25389 0.01441 0.0
O211 O 0.41794 0.25903 0.98512 0.0
Cd212 Cd 0.38474 0.24198 0.9767 0.0
O213 O 0.36238 0.21142 0.97374 0.0
C214 C 0.37064 0.19397 0.96628 0.0
O215 O 0.39098 0.19587 0.9602 0.0
C216 C 0.42576 0.26287 0.00535 0.0
C217 C 0.3563 0.29536 0.01071 0.0
O218 O 0.35844 0.28727 0.02958 0.0
O219 O 0.36126 0.28355 0.99356 0.0
O220 O 0.40117 0.60115 0.69493 0.0
Cd221 Cd 0.3965 0.64084 0.70147 0.0
O222 O 0.4375 0.60738 0.69548 0.0
Cd223 Cd 0.43526 0.64178 0.68795 0.0
O224 O 0.43448 0.66143 0.65928 0.0
C225 C 0.42865 0.64991 0.64089 0.0
O226 O 0.42307 0.62849 0.64118 0.0
C227 C 0.42027 0.59382 0.69522 0.0
C228 C 0.39441 0.65135 0.74705 0.0
O229 O 0.3766 0.64704 0.73391 0.0
O230 O 0.41309 0.65114 0.73858 0.0
O231 O 0.96323 0.75158 0.20631 0.0
Cd232 Cd 0.94573 0.7183 0.18388 0.0
O233 O 0.98366 0.73391 0.22927 0.0
Cd234 Cd 0.00752 0.72746 0.25682 0.0
O235 O 0.02748 0.72727 0.28858 0.0
C236 C 0.02009 0.73587 0.30606 0.0
O237 O 0.00067 0.74407 0.30439 0.0
C238 C 0.97735 0.75223 0.22315 0.0
C239 C 0.96297 0.71272 0.14271 0.0
O240 O 0.94902 0.72708 0.14638 0.0
O241 O 0.96881 0.70093 0.15843 0.0
O242 O 0.64264 0.26143 0.7729 0.0
Cd243 Cd 0.6631 0.29552 0.76408 0.0
O244 O 0.63983 0.27269 0.80778 0.0
Cd245 Cd 0.63251 0.27133 0.84247 0.0
O246 O 0.63106 0.27654 0.87844 0.0
C247 C 0.64845 0.28562 0.88994 0.0
O248 O 0.66615 0.29105 0.87971 0.0
C249 C 0.63571 0.25769 0.79159 0.0
C250 C 0.65486 0.29751 0.71839 0.0
O251 O 0.67166 0.28822 0.72635 0.0
O252 O 0.64254 0.30654 0.73212 0.0
O253 O 0.06694 0.34024 0.3071 0.0
Cd254 Cd 0.07188 0.30464 0.32216 0.0
O255 O 0.04159 0.32644 0.28049 0.0
Cd256 Cd 0.01654 0.32635 0.25219 0.0
O257 O 0.99968 0.32606 0.21884 0.0
C258 C 0.00289 0.31034 0.20454 0.0
O259 O 0.01556 0.29493 0.21067 0.0
C260 C 0.0534 0.3432 0.29064 0.0
C261 C 0.05046 0.30352 0.36108 0.0
O262 O 0.0705 0.3123 0.36149 0.0
O263 O 0.0408 0.29484 0.34237 0.0
H264 H 0.28254 0.57939 0.58783 0.0
H265 H 0.3043 0.51339 0.58546 0.0
H266 H 0.30193 0.55036 0.64835 0.0
H267 H 0.33692 0.51985 0.65187 0.0
C268 C 0.33275 0.51125 0.63492 0.0
O269 O 0.3106 0.51284 0.62852 0.0
H270 H 0.34364 0.51953 0.62352 0.0
C271 C 0.28843 0.56567 0.59631 0.0
C272 C 0.29139 0.5675 0.61975 0.0
C273 C 0.29332 0.54642 0.58363 0.0
C274 C 0.30072 0.52856 0.59475 0.0
C275 C 0.30353 0.53009 0.618 0.0
C276 C 0.29901 0.54944 0.6304 0.0
H277 H 0.29724 0.43412 0.95571 0.0
H278 H 0.30492 0.50562 0.96126 0.0
H279 H 0.33423 0.47026 0.01324 0.0
H280 H 0.32583 0.51729 0.03333 0.0
C281 C 0.31683 0.51947 0.01702 0.0
O282 O 0.3279 0.50967 0.00027 0.0
H283 H 0.29968 0.51119 0.01699 0.0
C284 C 0.30335 0.44972 0.96523 0.0
C285 C 0.31598 0.44958 0.98571 0.0
C286 C 0.29947 0.46977 0.95627 0.0
C287 C 0.30784 0.49002 0.96807 0.0
C288 C 0.32013 0.49012 0.98873 0.0
C289 C 0.32449 0.46996 0.99737 0.0
H290 H 0.6371 0.94519 0.41809 0.0
H291 H 0.65482 0.01594 0.42221 0.0
H292 H 0.64357 0.97836 0.35865 0.0
H293 H 0.68302 0.00954 0.3633 0.0
C294 C 0.67832 0.02204 0.37607 0.0
O295 O 0.65622 0.01754 0.37952 0.0
H296 H 0.68908 0.02071 0.39165 0.0
C297 C 0.6396 0.96045 0.41008 0.0
C298 C 0.63871 0.95939 0.38673 0.0
C299 C 0.64556 0.9807 0.42319 0.0
C300 C 0.65004 0.00014 0.41254 0.0
C301 C 0.64946 0.99923 0.38935 0.0
C302 C 0.64359 0.97897 0.37651 0.0
H303 H 0.75419 0.02686 0.06273 0.0
H304 H 0.74661 0.95628 0.06843 0.0
H305 H 0.72263 0.9821 0.0081 0.0
H306 H 0.6919 0.94925 0.02284 0.0
C307 C 0.70345 0.93935 0.03234 0.0
O308 O 0.72512 0.94638 0.02924 0.0
H309 H 0.70056 0.94221 0.05025 0.0
C310 C 0.74935 0.01007 0.05531 0.0
C311 C 0.73863 0.00677 0.03365 0.0
C312 C 0.75235 0.99204 0.06809 0.0
C313 C 0.74476 0.97042 0.0588 0.0
C314 C 0.73403 0.96696 0.03727 0.0
C315 C 0.73119 0.98503 0.02465 0.0
H316 H 0.55826 0.27061 0.5784 0.0
H317 H 0.5447 0.28971 0.51217 0.0
H318 H 0.61206 0.29199 0.54067 0.0
H319 H 0.60694 0.32918 0.51571 0.0
C320 C 0.58999 0.32404 0.50749 0.0
O321 O 0.58623 0.30118 0.5067 0.0
H322 H 0.57792 0.33233 0.51756 0.0
C323 C 0.56422 0.27536 0.56293 0.0
C324 C 0.58714 0.28027 0.56164 0.0
C325 C 0.54873 0.27854 0.54518 0.0
C326 C 0.55638 0.28653 0.52582 0.0
C327 C 0.57917 0.2913 0.52432 0.0
C328 C 0.59451 0.28777 0.54196 0.0
H329 H 0.06199 0.71586 0.00976 0.0
H330 H 0.05944 0.69243 0.94048 0.0
H331 H 0.00344 0.67748 0.97691 0.0
H332 H 0.00962 0.6412 0.94309 0.0
C333 C 0.02018 0.651 0.93254 0.0
O334 O 0.01906 0.6734 0.93818 0.0
H335 H 0.03757 0.64652 0.93562 0.0
C336 C 0.05302 0.70697 0.99505 0.0
C337 C 0.03124 0.69716 0.99612 0.0
C338 C 0.06362 0.70502 0.97526 0.0
C339 C 0.05182 0.69385 0.95605 0.0
C340 C 0.03015 0.68419 0.95677 0.0
C341 C 0.01998 0.68568 0.9767 0.0
H342 H 0.92373 0.30544 0.4523 0.0
H343 H 0.89603 0.30993 0.51551 0.0
H344 H 0.96646 0.32351 0.51255 0.0
H345 H 0.94787 0.2911 0.54391 0.0
C346 C 0.93617 0.30227 0.55132 0.0
O347 O 0.9344 0.32033 0.53899 0.0
H348 H 0.91961 0.29276 0.55082 0.0
C349 C 0.92585 0.30914 0.47023 0.0
C350 C 0.94718 0.31533 0.48083 0.0
C351 C 0.90733 0.30695 0.48255 0.0
C352 C 0.91015 0.31179 0.50573 0.0
C353 C 0.93151 0.31758 0.51653 0.0
C354 C 0.95 0.31926 0.50409 0.0
H355 H 0.43265 0.6857 0.91319 0.0
H356 H 0.4126 0.67351 0.978 0.0
H357 H 0.3659 0.65867 0.92031 0.0
H358 H 0.34038 0.66264 0.97165 0.0
C359 C 0.35683 0.6723 0.97244 0.0
O360 O 0.37169 0.65864 0.96367 0.0
H361 H 0.35439 0.68651 0.96219 0.0
C362 C 0.41986 0.6806 0.92372 0.0
C363 C 0.3986 0.67252 0.91395 0.0
C364 C 0.42519 0.68077 0.94674 0.0
C365 C 0.40878 0.67344 0.96019 0.0
C366 C 0.38736 0.66585 0.95066 0.0
C367 C 0.38238 0.66504 0.92757 0.0
H368 H 0.54199 0.58594 0.28433 0.0
H369 H 0.47531 0.58493 0.2533 0.0
H370 H 0.52038 0.644 0.25576 0.0
H371 H 0.45792 0.64876 0.23845 0.0
C372 C 0.4663 0.63995 0.25168 0.0
O373 O 0.4802 0.6258 0.24201 0.0
H374 H 0.47618 0.65307 0.26327 0.0
C375 C 0.52887 0.59444 0.27633 0.0
C376 C 0.53347 0.61639 0.27129 0.0
C377 C 0.50795 0.58294 0.26998 0.0
C378 C 0.4914 0.59375 0.25872 0.0
C379 C 0.49579 0.61587 0.25391 0.0
C380 C 0.51684 0.62717 0.26017 0.0
H381 H 0.0138 0.08118 0.74631 0.0
H382 H 0.94243 0.07874 0.73495 0.0
H383 H 0.97517 0.01927 0.72385 0.0
H384 H 0.93826 0.01898 0.69151 0.0
C385 C 0.92979 0.03288 0.69922 0.0
O386 O 0.9369 0.03639 0.72159 0.0
H387 H 0.93429 0.04809 0.69079 0.0
C388 C 0.99778 0.07175 0.74208 0.0
C389 C 0.99692 0.04886 0.73547 0.0
C390 C 0.97827 0.08282 0.74194 0.0
C391 C 0.9577 0.0706 0.73529 0.0
C392 C 0.95667 0.04777 0.72882 0.0
C393 C 0.97619 0.03691 0.72907 0.0
H394 H 0.49731 0.91015 0.31507 0.0
H395 H 0.56205 0.88695 0.30917 0.0
H396 H 0.55608 0.95553 0.32975 0.0
H397 H 0.58079 0.93753 0.2879 0.0
C398 C 0.59222 0.9288 0.29885 0.0
O399 O 0.58365 0.9261 0.31898 0.0
H400 H 0.59366 0.91208 0.29025 0.0
C401 C 0.51529 0.91298 0.31728 0.0
C402 C 0.52509 0.93453 0.32423 0.0
C403 C 0.52835 0.89562 0.31146 0.0
C404 C 0.55161 0.9 0.31359 0.0
C405 C 0.56154 0.92158 0.31993 0.0
C406 C 0.5483 0.93882 0.32523 0.0
H407 H 0.91807 0.45153 0.67404 0.0
H408 H 0.9881 0.4545 0.69466 0.0
H409 H 0.94805 0.39302 0.69323 0.0
H410 H 0.98166 0.39416 0.72725 0.0
C411 C 0.9923 0.40895 0.72335 0.0
O412 O 0.9877 0.41256 0.70135 0.0
H413 H 0.98848 0.42347 0.73449 0.0
C414 C 0.93244 0.44344 0.67974 0.0
C415 C 0.93012 0.42051 0.68268 0.0
C416 C 0.95314 0.45616 0.68432 0.0
C417 C 0.97182 0.44542 0.69146 0.0
C418 C 0.96975 0.4227 0.69434 0.0
C419 C 0.9491 0.4104 0.6901 0.0
H420 H 0.66349 0.39232 0.46762 0.0
H421 H 0.64692 0.45909 0.48304 0.0
H422 H 0.65492 0.43567 0.41531 0.0
H423 H 0.67726 0.47966 0.43143 0.0
C424 C 0.66444 0.48613 0.44178 0.0
O425 O 0.64697 0.47003 0.44194 0.0
H426 H 0.67243 0.4904 0.459 0.0
C427 C 0.65959 0.40825 0.4621 0.0
C428 C 0.65976 0.41182 0.43953 0.0
C429 C 0.65456 0.42494 0.47777 0.0
C430 C 0.65019 0.44582 0.47094 0.0
C431 C 0.65034 0.44965 0.44839 0.0
C432 C 0.65471 0.43254 0.43265 0.0
H433 H 0.74375 0.5851 0.09507 0.0
H434 H 0.75012 0.5161 0.10401 0.0
H435 H 0.72029 0.53456 0.04218 0.0
H436 H 0.69801 0.49506 0.05789 0.0
C437 C 0.71234 0.4886 0.06723 0.0
O438 O 0.73169 0.50128 0.06431 0.0
H439 H 0.70929 0.48975 0.08516 0.0
C440 C 0.74207 0.56781 0.08834 0.0
C441 C 0.73166 0.56199 0.06681 0.0
C442 C 0.74872 0.55146 0.10196 0.0
C443 C 0.7453 0.52897 0.09366 0.0
C444 C 0.73523 0.52297 0.07207 0.0
C445 C 0.72839 0.53942 0.0587 0.0
H446 H 0.26732 0.08561 0.50635 0.0
H447 H 0.2603 0.01572 0.51592 0.0
H448 H 0.25951 0.06449 0.57149 0.0
H449 H 0.28259 0.02683 0.58319 0.0
C450 C 0.2753 0.01416 0.56961 0.0
O451 O 0.25695 0.02182 0.55872 0.0
H452 H 0.2883 0.01144 0.55793 0.0
C453 C 0.26425 0.07231 0.51695 0.0
C454 C 0.26289 0.07762 0.53973 0.0
C455 C 0.26355 0.05003 0.50815 0.0
C456 C 0.26069 0.03301 0.52235 0.0
C457 C 0.25895 0.03826 0.54508 0.0
C458 C 0.26014 0.06054 0.55378 0.0
H459 H 0.29062 0.95419 0.90847 0.0
H460 H 0.30432 0.02526 0.92078 0.0
H461 H 0.31382 0.98387 0.97432 0.0
H462 H 0.3015 0.03318 0.99114 0.0
C463 C 0.30182 0.03749 0.97368 0.0
O464 O 0.31645 0.02484 0.9631 0.0
H465 H 0.28454 0.03394 0.96558 0.0
C466 C 0.29605 0.9688 0.91981 0.0
C467 C 0.30216 0.96636 0.94231 0.0
C468 C 0.29673 0.98996 0.91185 0.0
C469 C 0.30363 0.00881 0.92664 0.0
C470 C 0.30972 0.00656 0.94909 0.0
C471 C 0.30912 0.9854 0.95689 0.0
H472 H 0.46757 0.68596 0.39483 0.0
H473 H 0.48597 0.6834 0.46467 0.0
H474 H 0.41786 0.68968 0.44135 0.0
H475 H 0.43259 0.71596 0.48426 0.0
C476 C 0.44601 0.70588 0.49032 0.0
O477 O 0.44554 0.68651 0.47651 0.0
H478 H 0.46221 0.71598 0.49019 0.0
C479 C 0.463 0.68575 0.41178 0.0
C480 C 0.44092 0.68803 0.41605 0.0
C481 C 0.47937 0.68395 0.42909 0.0
C482 C 0.47346 0.68448 0.45104 0.0
C483 C 0.45124 0.68639 0.45542 0.0
C484 C 0.43493 0.68802 0.43789 0.0
H485 H 0.88231 0.3106 0.96299 0.0
H486 H 0.89324 0.31 0.03412 0.0
H487 H 0.94794 0.3271 0.99623 0.0
H488 H 0.962 0.30163 0.03229 0.0
C489 C 0.94722 0.30275 0.04192 0.0
O490 O 0.93608 0.32063 0.03597 0.0
H491 H 0.93643 0.28687 0.03779 0.0
C492 C 0.89331 0.31342 0.97821 0.0
C493 C 0.91605 0.31949 0.97711 0.0
C494 C 0.88484 0.3101 0.99869 0.0
C495 C 0.89938 0.31293 0.01821 0.0
C496 C 0.92203 0.31919 0.01728 0.0
C497 C 0.93028 0.32281 0.99682 0.0
H498 H 0.09569 0.7695 0.55431 0.0
H499 H 0.13378 0.78167 0.49899 0.0
H500 H 0.06656 0.75163 0.48729 0.0
H501 H 0.10678 0.73323 0.4647 0.0
C502 C 0.10899 0.74882 0.45624 0.0
O503 O 0.10154 0.76652 0.46847 0.0
H504 H 0.12708 0.75232 0.4547 0.0
C505 C 0.09672 0.76935 0.5365 0.0
C506 C 0.07862 0.75991 0.52185 0.0
C507 C 0.11673 0.77704 0.52846 0.0
C508 C 0.11838 0.77591 0.50543 0.0
C509 C 0.10014 0.76708 0.49064 0.0
C510 C 0.08039 0.75888 0.49884 0.0
H511 H 0.56594 0.32082 0.09186 0.0
H512 H 0.60468 0.29444 0.04105 0.0
H513 H 0.63583 0.31509 0.10664 0.0
H514 H 0.6743 0.30907 0.06375 0.0
C515 C 0.65726 0.31258 0.05766 0.0
O516 O 0.6421 0.29839 0.06662 0.0
H517 H 0.65559 0.33025 0.06351 0.0
C518 C 0.58189 0.31689 0.08642 0.0
C519 C 0.60073 0.31947 0.10184 0.0
C520 C 0.58304 0.30777 0.06451 0.0
C521 C 0.60351 0.30167 0.05785 0.0
C522 C 0.62253 0.30466 0.07298 0.0
C523 C 0.62111 0.31331 0.09497 0.0
H524 H 0.38951 0.43037 0.69948 0.0
H525 H 0.45069 0.41974 0.67081 0.0
H526 H 0.4042 0.36395 0.67821 0.0
H527 H 0.44989 0.34751 0.6778 0.0
C528 C 0.45695 0.36509 0.67812 0.0
O529 O 0.44282 0.37627 0.66486 0.0
H530 H 0.45836 0.37224 0.69581 0.0
C531 C 0.40067 0.41905 0.69268 0.0
C532 C 0.39433 0.39608 0.69011 0.0
C533 C 0.42091 0.42778 0.68589 0.0
C534 C 0.435 0.41328 0.67617 0.0
C535 C 0.4289 0.3903 0.67351 0.0
C536 C 0.40854 0.38177 0.68022 0.0
H537 H 0.9805 0.91219 0.29132 0.0
H538 H 0.05141 0.9098 0.30353 0.0
H539 H 0.02234 0.97123 0.3164 0.0
H540 H 0.06153 0.97506 0.29228 0.0
C541 C 0.0709 0.96163 0.29894 0.0
O542 O 0.05959 0.95232 0.31525 0.0
H543 H 0.07216 0.94882 0.28492 0.0
C544 C 0.99688 0.92017 0.29706 0.0
C545 C 0.99908 0.94294 0.30434 0.0
C546 C 0.01553 0.90778 0.29682 0.0
C547 C 0.03668 0.91877 0.30364 0.0
C548 C 0.03907 0.94162 0.31041 0.0
C549 C 0.02028 0.95355 0.31121 0.0
H550 H 0.58366 0.09796 0.76862 0.0
H551 H 0.51783 0.11272 0.78312 0.0
H552 H 0.52778 0.04947 0.74966 0.0
H553 H 0.49041 0.07187 0.73158 0.0
C554 C 0.48439 0.07885 0.74735 0.0
O555 O 0.49833 0.07439 0.76529 0.0
H556 H 0.48441 0.09717 0.7467 0.0
C557 C 0.56612 0.0927 0.76873 0.0
C558 C 0.55763 0.07173 0.75842 0.0
C559 C 0.55195 0.10766 0.77761 0.0
C560 C 0.52905 0.10128 0.77659 0.0
C561 C 0.52044 0.08025 0.76668 0.0
C562 C 0.53469 0.06553 0.75762 0.0
H563 H 0.09154 0.50403 0.2824 0.0
H564 H 0.02433 0.51223 0.25713 0.0
H565 H 0.07014 0.56951 0.2785 0.0
H566 H 0.0268 0.57821 0.29061 0.0
C567 C 0.01728 0.56319 0.28157 0.0
O568 O 0.0288 0.55563 0.26414 0.0
H569 H 0.01561 0.55045 0.29375 0.0
C570 C 0.0787 0.51459 0.27758 0.0
C571 C 0.0834 0.53772 0.28107 0.0
C572 C 0.05762 0.50502 0.26854 0.0
C573 C 0.04089 0.51912 0.26364 0.0
C574 C 0.0454 0.54231 0.26733 0.0
C575 C 0.06681 0.5516 0.27551 0.0
C576 C 0.20633 0.57855 0.339 0.0
C577 C 0.21907 0.56071 0.33418 0.0
C578 C 0.18404 0.57796 0.33025 0.0
C579 C 0.17437 0.55919 0.31621 0.0
C580 C 0.18741 0.54152 0.31066 0.0
C581 C 0.20955 0.54245 0.3198 0.0
C582 C 0.17061 0.59702 0.33668 0.0
C583 C 0.17779 0.52129 0.29556 0.0
C584 C 0.11288 0.5406 0.31243 0.0
C585 C 0.10556 0.54677 0.29148 0.0
C586 C 0.135 0.54573 0.32124 0.0
C587 C 0.15023 0.55704 0.30861 0.0
C588 C 0.14262 0.5643 0.28789 0.0
C589 C 0.12025 0.55916 0.27959 0.0
C590 C 0.14232 0.53795 0.34353 0.0
C591 C 0.15837 0.57628 0.2739 0.0
H592 H 0.21358 0.59274 0.3501 0.0
H593 H 0.21933 0.52869 0.31585 0.0
H594 H 0.16231 0.6031 0.32163 0.0
H595 H 0.15735 0.59118 0.34696 0.0
H596 H 0.18101 0.61116 0.34628 0.0
H597 H 0.19055 0.50976 0.29161 0.0
H598 H 0.16452 0.5121 0.30364 0.0
H599 H 0.17007 0.52642 0.27976 0.0
H600 H 0.10141 0.53104 0.32159 0.0
H601 H 0.11453 0.56374 0.2633 0.0
H602 H 0.15182 0.55177 0.3544 0.0
H603 H 0.15353 0.52452 0.34114 0.0
H604 H 0.12803 0.53146 0.35221 0.0
H605 H 0.16858 0.59012 0.28409 0.0
H606 H 0.14943 0.58308 0.25956 0.0
H607 H 0.16994 0.56457 0.26741 0.0
C608 C 0.2798 0.35337 0.73765 0.0
C609 C 0.26407 0.36789 0.73117 0.0
C610 C 0.30094 0.35462 0.7297 0.0
C611 C 0.30635 0.37066 0.71486 0.0
C612 C 0.29001 0.38424 0.70704 0.0
C613 C 0.26908 0.38277 0.71538 0.0
C614 C 0.3179 0.33975 0.73828 0.0
C615 C 0.29508 0.4014 0.69102 0.0
C616 C 0.36528 0.39737 0.71712 0.0
C617 C 0.37275 0.38753 0.69764 0.0
C618 C 0.34395 0.39149 0.72321 0.0
C619 C 0.32972 0.3752 0.70959 0.0
C620 C 0.3375 0.36433 0.69054 0.0
C621 C 0.35902 0.37054 0.68488 0.0
C622 C 0.33638 0.4033 0.74385 0.0
C623 C 0.32279 0.34694 0.67557 0.0
H624 H 0.27601 0.34174 0.74977 0.0
H625 H 0.25695 0.39391 0.71013 0.0
H626 H 0.32623 0.332 0.72435 0.0
H627 H 0.33094 0.34987 0.74963 0.0
H628 H 0.31033 0.32638 0.7475 0.0
H629 H 0.27971 0.40744 0.68327 0.0
H630 H 0.3054 0.41584 0.70011 0.0
H631 H 0.30471 0.39452 0.67768 0.0
H632 H 0.37604 0.41 0.72752 0.0
H633 H 0.36478 0.36259 0.67006 0.0
H634 H 0.33013 0.391 0.75497 0.0
H635 H 0.32244 0.41325 0.73912 0.0
H636 H 0.34992 0.41462 0.75331 0.0
H637 H 0.31393 0.33502 0.68547 0.0
H638 H 0.33238 0.33752 0.66373 0.0
H639 H 0.31001 0.35519 0.66587 0.0
C640 C 0.65097 0.03483 0.68505 0.0
C641 C 0.65386 0.01206 0.6823 0.0
C642 C 0.63471 0.04278 0.69806 0.0
C643 C 0.62109 0.02762 0.70875 0.0
C644 C 0.62405 0.00463 0.70625 0.0
C645 C 0.64035 0.9971 0.69297 0.0
C646 C 0.63199 0.06743 0.70021 0.0
C647 C 0.60996 0.98801 0.71756 0.0
C648 C 0.59364 0.05438 0.75699 0.0
C649 C 0.57263 0.05747 0.74679 0.0
C650 C 0.60923 0.04365 0.7451 0.0
C651 C 0.60372 0.03602 0.72242 0.0
C652 C 0.58215 0.03816 0.71234 0.0
C653 C 0.56682 0.04881 0.72468 0.0
C654 C 0.63195 0.04142 0.75653 0.0
C655 C 0.57567 0.03035 0.68817 0.0
H656 H 0.66128 0.0465 0.67682 0.0
H657 H 0.64251 0.97948 0.69097 0.0
H658 H 0.61481 0.07037 0.69405 0.0
H659 H 0.63457 0.07404 0.71796 0.0
H660 H 0.64386 0.07699 0.69076 0.0
H661 H 0.61461 0.97076 0.71426 0.0
H662 H 0.61168 0.99249 0.7358 0.0
H663 H 0.59216 0.98844 0.71174 0.0
H664 H 0.59808 0.06088 0.77415 0.0
H665 H 0.55068 0.05138 0.71667 0.0
H666 H 0.6446 0.05232 0.74935 0.0
H667 H 0.63643 0.02408 0.75374 0.0
H668 H 0.63283 0.04612 0.77473 0.0
H669 H 0.58548 0.04071 0.67753 0.0
H670 H 0.55771 0.03142 0.68339 0.0
H671 H 0.57954 0.01289 0.68458 0.0
C672 C 0.89408 0.01568 0.29616 0.0
C673 C 0.87516 0.00237 0.30058 0.0
C674 C 0.91526 0.00782 0.29811 0.0
C675 C 0.91756 0.98624 0.30485 0.0
C676 C 0.89867 0.97315 0.31032 0.0
C677 C 0.87768 0.98132 0.30801 0.0
C678 C 0.93499 0.02221 0.29199 0.0
C679 C 0.90049 0.95015 0.31782 0.0
C680 C 0.96404 0.95357 0.28508 0.0
C681 C 0.97911 0.95551 0.30413 0.0
C682 C 0.94426 0.96403 0.28495 0.0
C683 C 0.93932 0.97657 0.30443 0.0
C684 C 0.95473 0.97904 0.32357 0.0
C685 C 0.97456 0.96855 0.32315 0.0
C686 C 0.92842 0.96125 0.26409 0.0
C687 C 0.94995 0.99214 0.34468 0.0
H688 H 0.89227 0.03196 0.2904 0.0
H689 H 0.86316 0.97101 0.31161 0.0
H690 H 0.94876 0.02351 0.30543 0.0
H691 H 0.94124 0.01444 0.27676 0.0
H692 H 0.93075 0.03925 0.28886 0.0
H693 H 0.88461 0.9429 0.32328 0.0
H694 H 0.9053 0.93892 0.30394 0.0
H695 H 0.91367 0.95064 0.33175 0.0
H696 H 0.96771 0.94371 0.27027 0.0
H697 H 0.98617 0.96994 0.33792 0.0
H698 H 0.92452 0.97777 0.25898 0.0
H699 H 0.91253 0.95217 0.2674 0.0
H700 H 0.93527 0.95192 0.25002 0.0
H701 H 0.946 0.00914 0.34119 0.0
H702 H 0.96416 0.99349 0.35769 0.0
H703 H 0.93515 0.98397 0.35135 0.0
C704 C 0.30336 0.20384 0.54887 0.0
C705 C 0.30315 0.21603 0.56955 0.0
C706 C 0.29522 0.18134 0.54563 0.0
C707 C 0.28609 0.17095 0.56334 0.0
C708 C 0.28502 0.18341 0.58401 0.0
C709 C 0.29388 0.20577 0.58698 0.0
C710 C 0.29711 0.16851 0.52348 0.0
C711 C 0.27486 0.17304 0.60305 0.0
C712 C 0.25178 0.11633 0.54445 0.0
C713 C 0.26724 0.10101 0.54893 0.0
C714 C 0.25717 0.13918 0.55041 0.0
C715 C 0.27876 0.14675 0.56036 0.0
C716 C 0.29415 0.13113 0.56553 0.0
C717 C 0.28809 0.10838 0.55992 0.0
C718 C 0.24014 0.15526 0.54516 0.0
C719 C 0.31748 0.13851 0.57568 0.0
H720 H 0.31066 0.21166 0.5354 0.0
H721 H 0.29356 0.21521 0.60295 0.0
H722 H 0.3076 0.15457 0.52588 0.0
H723 H 0.28047 0.16115 0.51616 0.0
H724 H 0.3045 0.17911 0.51139 0.0
H725 H 0.2736 0.18545 0.61737 0.0
H726 H 0.258 0.16494 0.59744 0.0
H727 H 0.28508 0.15991 0.60884 0.0
H728 H 0.2357 0.11047 0.53582 0.0
H729 H 0.30006 0.09639 0.56306 0.0
H730 H 0.24516 0.16482 0.53126 0.0
H731 H 0.23919 0.1674 0.55974 0.0
H732 H 0.22334 0.14659 0.54029 0.0
H733 H 0.3266 0.14793 0.56378 0.0
H734 H 0.32692 0.12424 0.57992 0.0
H735 H 0.31708 0.14984 0.59097 0.0
C736 C 0.28965 0.84763 0.99271 0.0
C737 C 0.29492 0.83112 0.97683 0.0
C738 C 0.29159 0.8702 0.9887 0.0
C739 C 0.29925 0.87641 0.96844 0.0
C740 C 0.30535 0.8599 0.95271 0.0
C741 C 0.30296 0.83744 0.95702 0.0
C742 C 0.2847 0.88729 0.00578 0.0
C743 C 0.31386 0.86589 0.93104 0.0
C744 C 0.2819 0.92914 0.94486 0.0
C745 C 0.30104 0.94385 0.95035 0.0
C746 C 0.28092 0.90734 0.95117 0.0
C747 C 0.29965 0.89999 0.96305 0.0
C748 C 0.3189 0.91491 0.96901 0.0
C749 C 0.3193 0.93675 0.96271 0.0
C750 C 0.25996 0.89207 0.94479 0.0
C751 C 0.33926 0.90762 0.98147 0.0
H752 H 0.28337 0.84287 0.00804 0.0
H753 H 0.3072 0.8248 0.94473 0.0
H754 H 0.29831 0.90074 0.01024 0.0
H755 H 0.27011 0.8951 0.99866 0.0
H756 H 0.28027 0.87991 0.02119 0.0
H757 H 0.31936 0.8513 0.92129 0.0
H758 H 0.30057 0.87285 0.92076 0.0
H759 H 0.32803 0.87891 0.93427 0.0
H760 H 0.26767 0.93471 0.93553 0.0
H761 H 0.33416 0.94808 0.96683 0.0
H762 H 0.25386 0.88512 0.95977 0.0
H763 H 0.26356 0.87785 0.93328 0.0
H764 H 0.2465 0.90071 0.93656 0.0
H765 H 0.3348 0.90074 0.99709 0.0
H766 H 0.35253 0.92148 0.98566 0.0
H767 H 0.34602 0.89414 0.97124 0.0
C768 C 0.69306 0.3043 0.3667 0.0
C769 C 0.68477 0.28657 0.37808 0.0
C770 C 0.68772 0.32613 0.37221 0.0
C771 C 0.67382 0.33024 0.38949 0.0
C772 C 0.66412 0.31212 0.39981 0.0
C773 C 0.66966 0.29054 0.39394 0.0
C774 C 0.69832 0.34491 0.36071 0.0
C775 C 0.64886 0.31565 0.41798 0.0
C776 C 0.68408 0.38221 0.42931 0.0
C777 C 0.6655 0.3936 0.42374 0.0
C778 C 0.68763 0.36222 0.41738 0.0
C779 C 0.67221 0.35336 0.39934 0.0
C780 C 0.65431 0.36564 0.39254 0.0
C781 C 0.65119 0.38576 0.40482 0.0
C782 C 0.70707 0.34983 0.42513 0.0
C783 C 0.63771 0.35689 0.37323 0.0
H784 H 0.70466 0.30136 0.35431 0.0
H785 H 0.66291 0.27688 0.40256 0.0
H786 H 0.68619 0.3571 0.35683 0.0
H787 H 0.7122 0.35386 0.37194 0.0
H788 H 0.70508 0.33877 0.34506 0.0
H789 H 0.64243 0.2998 0.42412 0.0
H790 H 0.65772 0.32647 0.43222 0.0
H791 H 0.63456 0.32419 0.41153 0.0
H792 H 0.69536 0.38848 0.44373 0.0
H793 H 0.63675 0.39452 0.40056 0.0
H794 H 0.71662 0.34492 0.41095 0.0
H795 H 0.70082 0.33436 0.43209 0.0
H796 H 0.71855 0.3599 0.43814 0.0
H797 H 0.64639 0.35135 0.35861 0.0
H798 H 0.62642 0.36956 0.36839 0.0
H799 H 0.62752 0.34219 0.3778 0.0
C800 C 0.67906 0.6627 0.00706 0.0
C801 C 0.67045 0.67516 0.02443 0.0
C802 C 0.68947 0.6433 0.01092 0.0
C803 C 0.69127 0.63621 0.03263 0.0
C804 C 0.6825 0.64866 0.05017 0.0
C805 C 0.67224 0.66797 0.04587 0.0
C806 C 0.69866 0.63047 0.99183 0.0
C807 C 0.68406 0.64165 0.07358 0.0
C808 C 0.70027 0.57708 0.04507 0.0
C809 C 0.72251 0.57956 0.05405 0.0
C810 C 0.69015 0.59511 0.03674 0.0
C811 C 0.70263 0.61603 0.03738 0.0
C812 C 0.72551 0.61816 0.04496 0.0
C813 C 0.73516 0.59991 0.05325 0.0
C814 C 0.66573 0.59214 0.02872 0.0
C815 C 0.73947 0.6401 0.04569 0.0
H816 H 0.67773 0.66814 0.99044 0.0
H817 H 0.6656 0.67745 0.05938 0.0
H818 H 0.71684 0.62984 0.99544 0.0
H819 H 0.69101 0.61304 0.98982 0.0
H820 H 0.6956 0.63798 0.97586 0.0
H821 H 0.67611 0.65297 0.08527 0.0
H822 H 0.67595 0.62455 0.07368 0.0
H823 H 0.70176 0.64135 0.07983 0.0
H824 H 0.69038 0.56143 0.0458 0.0
H825 H 0.75244 0.60178 0.05994 0.0
H826 H 0.66274 0.59943 0.01266 0.0
H827 H 0.65619 0.60105 0.04097 0.0
H828 H 0.65916 0.57433 0.02659 0.0
H829 H 0.7371 0.64747 0.02959 0.0
H830 H 0.75746 0.63833 0.04949 0.0
H831 H 0.73411 0.65199 0.05871 0.0
C832 C 0.55207 0.33772 0.21755 0.0
C833 C 0.56469 0.3525 0.23377 0.0
C834 C 0.55989 0.33244 0.19676 0.0
C835 C 0.58077 0.34232 0.19198 0.0
C836 C 0.5938 0.35692 0.20842 0.0
C837 C 0.58564 0.36177 0.22917 0.0
C838 C 0.54559 0.31661 0.17973 0.0
C839 C 0.61606 0.36788 0.20389 0.0
C840 C 0.60594 0.31465 0.14252 0.0
C841 C 0.59839 0.32709 0.12537 0.0
C842 C 0.60099 0.31986 0.16451 0.0
C843 C 0.58838 0.33805 0.1694 0.0
C844 C 0.58171 0.35132 0.1523 0.0
C845 C 0.5867 0.34561 0.13047 0.0
C846 C 0.60829 0.30525 0.18225 0.0
C847 C 0.5685 0.37102 0.15688 0.0
H848 H 0.53592 0.3304 0.221 0.0
H849 H 0.59548 0.37325 0.2416 0.0
H850 H 0.54061 0.32544 0.16504 0.0
H851 H 0.55517 0.30277 0.17386 0.0
H852 H 0.53031 0.30947 0.18644 0.0
H853 H 0.62463 0.37799 0.21877 0.0
H854 H 0.627 0.35512 0.19828 0.0
H855 H 0.61377 0.37887 0.19026 0.0
H856 H 0.61478 0.30019 0.13857 0.0
H857 H 0.58101 0.35534 0.11723 0.0
H858 H 0.59348 0.29605 0.18788 0.0
H859 H 0.61692 0.31552 0.19696 0.0
H860 H 0.61957 0.29298 0.17618 0.0
H861 H 0.55187 0.36518 0.16168 0.0
H862 H 0.56618 0.38068 0.14217 0.0
H863 H 0.57693 0.38229 0.17101 0.0
C864 C 0.94498 0.32663 0.85157 0.0
C865 C 0.96525 0.31795 0.84795 0.0
C866 C 0.93778 0.32904 0.87302 0.0
C867 C 0.95097 0.32219 0.89117 0.0
C868 C 0.97176 0.31405 0.88771 0.0
C869 C 0.97875 0.31221 0.86615 0.0
C870 C 0.91569 0.33819 0.87611 0.0
C871 C 0.98615 0.30624 0.90657 0.0
C872 C 0.93859 0.33915 0.95052 0.0
C873 C 0.92508 0.3205 0.9552 0.0
C874 C 0.94702 0.34009 0.92965 0.0
C875 C 0.94216 0.32175 0.91335 0.0
C876 C 0.92877 0.30278 0.91819 0.0
C877 C 0.92026 0.30247 0.93899 0.0
C878 C 0.96094 0.36072 0.92495 0.0
C879 C 0.92353 0.28271 0.90144 0.0
H880 H 0.93456 0.33127 0.83758 0.0
H881 H 0.9944 0.30542 0.86345 0.0
H882 H 0.90369 0.32485 0.88069 0.0
H883 H 0.91756 0.35165 0.88991 0.0
H884 H 0.90854 0.34485 0.8608 0.0
H885 H 0.00251 0.30178 0.90142 0.0
H886 H 0.98903 0.31933 0.92069 0.0
H887 H 0.97747 0.29142 0.91273 0.0
H888 H 0.94224 0.35311 0.96307 0.0
H889 H 0.91006 0.28792 0.94274 0.0
H890 H 0.9531 0.3679 0.91028 0.0
H891 H 0.97764 0.35641 0.9208 0.0
H892 H 0.96299 0.37362 0.9393 0.0
H893 H 0.91443 0.28751 0.88618 0.0
H894 H 0.91329 0.2691 0.90803 0.0
H895 H 0.93918 0.27623 0.89652 0.0
C896 C 0.38267 0.69826 0.29418 0.0
C897 C 0.40054 0.69254 0.28217 0.0
C898 C 0.38341 0.6968 0.31729 0.0
C899 C 0.40259 0.68975 0.32861 0.0
C900 C 0.42019 0.68295 0.31637 0.0
C901 C 0.41885 0.68421 0.2933 0.0
C902 C 0.36433 0.70427 0.32966 0.0
C903 C 0.44104 0.67546 0.32779 0.0
C904 C 0.42757 0.71038 0.38623 0.0
C905 C 0.42488 0.69101 0.39715 0.0
C906 C 0.41806 0.71107 0.36445 0.0
C907 C 0.40585 0.69178 0.35336 0.0
C908 C 0.40094 0.67311 0.36534 0.0
C909 C 0.4107 0.67288 0.38717 0.0
C910 C 0.42318 0.73159 0.35258 0.0
C911 C 0.38738 0.65251 0.35446 0.0
H912 H 0.36845 0.7047 0.28569 0.0
H913 H 0.43273 0.67971 0.28419 0.0
H914 H 0.3609 0.69354 0.34318 0.0
H915 H 0.36875 0.72149 0.33741 0.0
H916 H 0.34891 0.70419 0.31836 0.0
H917 H 0.45203 0.66842 0.31575 0.0
H918 H 0.45054 0.68985 0.33785 0.0
H919 H 0.43675 0.66281 0.33933 0.0
H920 H 0.43862 0.72436 0.39408 0.0
H921 H 0.40877 0.65788 0.3957 0.0
H922 H 0.40816 0.73576 0.3426 0.0
H923 H 0.43604 0.72838 0.34097 0.0
H924 H 0.42952 0.7462 0.36439 0.0
H925 H 0.37327 0.65684 0.34329 0.0
H926 H 0.38082 0.64188 0.36696 0.0
H927 H 0.39809 0.64266 0.3443 0.0
C928 C 0.97623 0.70152 0.57955 0.0
C929 C 0.9861 0.69462 0.59931 0.0
C930 C 0.98917 0.71219 0.56466 0.0
C931 C 0.01252 0.71567 0.5695 0.0
C932 C 0.02259 0.70823 0.58915 0.0
C933 C 0.00925 0.69797 0.60389 0.0
C934 C 0.97783 0.7202 0.54406 0.0
C935 C 0.04749 0.71133 0.59475 0.0
C936 C 0.05207 0.72695 0.5255 0.0
C937 C 0.05882 0.74955 0.53106 0.0
C938 C 0.03613 0.71582 0.53718 0.0
C939 C 0.02656 0.72774 0.55456 0.0
C940 C 0.03225 0.75093 0.55914 0.0
C941 C 0.0485 0.76152 0.54746 0.0
C942 C 0.03069 0.69106 0.53196 0.0
C943 C 0.02213 0.76432 0.57723 0.0
H944 H 0.95832 0.69905 0.57598 0.0
H945 H 0.01699 0.69254 0.61905 0.0
H946 H 0.98078 0.73858 0.54465 0.0
H947 H 0.98497 0.71318 0.529 0.0
H948 H 0.9596 0.71553 0.54231 0.0
H949 H 0.05279 0.70361 0.61011 0.0
H950 H 0.05604 0.70392 0.5808 0.0
H951 H 0.05315 0.72934 0.59712 0.0
H952 H 0.06024 0.71767 0.51295 0.0
H953 H 0.0537 0.77904 0.55165 0.0
H954 H 0.01243 0.68678 0.53022 0.0
H955 H 0.03771 0.68226 0.5459 0.0
H956 H 0.03758 0.68475 0.51645 0.0
H957 H 0.00378 0.76076 0.5756 0.0
H958 H 0.02622 0.7825 0.57683 0.0
H959 H 0.02843 0.75953 0.59372 0.0
C960 C 0.81391 0.35529 0.63556 0.0
C961 C 0.80152 0.34724 0.65218 0.0
C962 C 0.83497 0.36677 0.64094 0.0
C963 C 0.84413 0.36953 0.66338 0.0
C964 C 0.83201 0.36065 0.68012 0.0
C965 C 0.8106 0.34998 0.67436 0.0
C966 C 0.84715 0.37648 0.6227 0.0
C967 C 0.8417 0.36233 0.70405 0.0
C968 C 0.90651 0.38436 0.67129 0.0
C969 C 0.90798 0.40724 0.67827 0.0
C970 C 0.8859 0.37166 0.66752 0.0
C971 C 0.86612 0.38228 0.66932 0.0
C972 C 0.86733 0.40531 0.67605 0.0
C973 C 0.88819 0.41733 0.68106 0.0
C974 C 0.88538 0.34692 0.6614 0.0
C975 C 0.84658 0.41737 0.67758 0.0
H976 H 0.80678 0.35328 0.61841 0.0
H977 H 0.80105 0.34353 0.68716 0.0
H978 H 0.85095 0.3947 0.62669 0.0
H979 H 0.86323 0.36915 0.62151 0.0
H980 H 0.83739 0.37348 0.60621 0.0
H981 H 0.83079 0.35316 0.71473 0.0
H982 H 0.8582 0.35557 0.70506 0.0
H983 H 0.84431 0.38002 0.71084 0.0
H984 H 0.92141 0.37621 0.66851 0.0
H985 H 0.88881 0.4347 0.68717 0.0
H986 H 0.88097 0.34324 0.64325 0.0
H987 H 0.87268 0.33762 0.67008 0.0
H988 H 0.90177 0.34066 0.66566 0.0
H989 H 0.83634 0.41497 0.66135 0.0
H990 H 0.85041 0.43551 0.68221 0.0
H991 H 0.83634 0.41038 0.69011 0.0
C992 C 0.66098 0.64025 0.30995 0.0
C993 C 0.67223 0.65627 0.2985 0.0
C994 C 0.63769 0.63671 0.30749 0.0
C995 C 0.62535 0.64947 0.29319 0.0
C996 C 0.63651 0.66669 0.2828 0.0
C997 C 0.65983 0.66991 0.2856 0.0
C998 C 0.6264 0.61829 0.31899 0.0
C999 C 0.62395 0.6807 0.2675 0.0
C1000 C 0.57299 0.61834 0.26351 0.0
C1001 C 0.55644 0.62681 0.27566 0.0
C1002 C 0.59538 0.62615 0.26866 0.0
C1003 C 0.60137 0.64263 0.28665 0.0
C1004 C 0.58458 0.6516 0.2987 0.0
C1005 C 0.56219 0.64361 0.29297 0.0
C1006 C 0.61268 0.61626 0.25524 0.0
C1007 C 0.59029 0.66898 0.31809 0.0
H1008 H 0.67041 0.62982 0.32018 0.0
H1009 H 0.66837 0.68245 0.27683 0.0
H1010 H 0.6121 0.62427 0.32731 0.0
H1011 H 0.61977 0.60439 0.30648 0.0
H1012 H 0.63796 0.6117 0.33152 0.0
H1013 H 0.63463 0.69516 0.26303 0.0
H1014 H 0.61745 0.67035 0.25197 0.0
H1015 H 0.60945 0.68687 0.27534 0.0
H1016 H 0.56837 0.60526 0.25017 0.0
H1017 H 0.54927 0.64989 0.30246 0.0
H1018 H 0.6239 0.60734 0.26608 0.0
H1019 H 0.62306 0.62965 0.24853 0.0
H1020 H 0.60513 0.60438 0.24112 0.0
H1021 H 0.59905 0.66147 0.33203 0.0
H1022 H 0.57526 0.67597 0.32411 0.0
H1023 H 0.60168 0.68275 0.31339 0.0
C1024 C 0.42273 0.00466 0.31442 0.0
C1025 C 0.42291 0.0238 0.32918 0.0
C1026 C 0.44091 0.99176 0.31459 0.0
C1027 C 0.45965 0.99796 0.33011 0.0
C1028 C 0.46003 0.01734 0.34496 0.0
C1029 C 0.4417 0.03013 0.34423 0.0
C1030 C 0.43996 0.97132 0.2983 0.0
C1031 C 0.4796 0.02431 0.3619 0.0
C1032 C 0.49346 0.94981 0.34243 0.0
C1033 C 0.51057 0.95264 0.32844 0.0
C1034 C 0.47745 0.96516 0.34408 0.0
C1035 C 0.4784 0.98359 0.33114 0.0
C1036 C 0.49626 0.98707 0.31777 0.0
C1037 C 0.51225 0.97158 0.31668 0.0
C1038 C 0.4589 0.96105 0.35883 0.0
C1039 C 0.49776 0.0064 0.30359 0.0
H1040 H 0.40833 0.99975 0.30265 0.0
H1041 H 0.44193 0.04487 0.35573 0.0
H1042 H 0.45459 0.97223 0.28843 0.0
H1043 H 0.44062 0.95624 0.30746 0.0
H1044 H 0.42462 0.96935 0.28667 0.0
H1045 H 0.47762 0.0402 0.37181 0.0
H1046 H 0.48162 0.01118 0.37345 0.0
H1047 H 0.49514 0.02627 0.3535 0.0
H1048 H 0.49227 0.9352 0.35162 0.0
H1049 H 0.52537 0.97364 0.30569 0.0
H1050 H 0.44297 0.95661 0.34839 0.0
H1051 H 0.45695 0.97636 0.36962 0.0
H1052 H 0.46185 0.94736 0.36953 0.0
H1053 H 0.48393 0.00409 0.29016 0.0
H1054 H 0.51374 0.00799 0.29586 0.0
H1055 H 0.49596 0.0222 0.31366 0.0
C1056 C 0.10761 0.9843 0.7291 0.0
C1057 C 0.12384 0.99814 0.7204 0.0
C1058 C 0.08642 0.99124 0.73207 0.0
C1059 C 0.08128 0.01242 0.72598 0.0
C1060 C 0.0975 0.02634 0.71696 0.0
C1061 C 0.11861 0.01908 0.71438 0.0
C1062 C 0.0696 0.97602 0.74192 0.0
C1063 C 0.09258 0.04896 0.71006 0.0
C1064 C 0.02113 0.02468 0.71451 0.0
C1065 C 0.01784 0.03792 0.73387 0.0
C1066 C 0.04155 0.01583 0.71192 0.0
C1067 C 0.059 0.0202 0.72917 0.0
C1068 C 0.05551 0.03294 0.74906 0.0
C1069 C 0.03499 0.04175 0.75112 0.0
C1070 C 0.0447 0.00247 0.69039 0.0
C1071 C 0.07362 0.03772 0.76795 0.0
H1072 H 0.11155 0.96812 0.73387 0.0
H1073 H 0.13103 0.02984 0.70758 0.0
H1074 H 0.06457 0.98437 0.75749 0.0
H1075 H 0.0544 0.97236 0.73023 0.0
H1076 H 0.07618 0.96003 0.74571 0.0
H1077 H 0.10685 0.05756 0.70287 0.0
H1078 H 0.07794 0.04727 0.69756 0.0
H1079 H 0.08836 0.05961 0.72464 0.0
H1080 H 0.008 0.0219 0.70103 0.0
H1081 H 0.0324 0.05182 0.76619 0.0
H1082 H 0.05057 0.98612 0.69381 0.0
H1083 H 0.05765 0.01136 0.68167 0.0
H1084 H 0.02913 0.9996 0.67909 0.0
H1085 H 0.0799 0.02197 0.77282 0.0
H1086 H 0.06778 0.04671 0.78281 0.0
H1087 H 0.08784 0.04797 0.76246 0.0
C1088 C 0.62546 0.83594 0.32175 0.0
C1089 C 0.63888 0.82386 0.33543 0.0
C1090 C 0.62356 0.85869 0.3272 0.0
C1091 C 0.63543 0.86959 0.34674 0.0
C1092 C 0.64923 0.85754 0.36043 0.0
C1093 C 0.65081 0.83486 0.35459 0.0
C1094 C 0.60904 0.87096 0.31188 0.0
C1095 C 0.66216 0.86854 0.38144 0.0
C1096 C 0.64965 0.93185 0.35735 0.0
C1097 C 0.63516 0.93745 0.37342 0.0
C1098 C 0.6489 0.91006 0.34725 0.0
C1099 C 0.63335 0.89349 0.35344 0.0
C1100 C 0.6175 0.89945 0.36827 0.0
C1101 C 0.61866 0.92136 0.37817 0.0
C1102 C 0.66567 0.90449 0.33104 0.0
C1103 C 0.60006 0.88241 0.37455 0.0
H1104 H 0.6163 0.82761 0.30681 0.0
H1105 H 0.66121 0.82569 0.36527 0.0
H1106 H 0.60044 0.8836 0.32134 0.0
H1107 H 0.61962 0.87976 0.30068 0.0
H1108 H 0.5964 0.85943 0.3014 0.0
H1109 H 0.67241 0.85691 0.39007 0.0
H1110 H 0.67329 0.88288 0.37748 0.0
H1111 H 0.65052 0.87507 0.39306 0.0
H1112 H 0.66248 0.94413 0.35366 0.0
H1113 H 0.60711 0.92575 0.39022 0.0
H1114 H 0.65711 0.89561 0.31551 0.0
H1115 H 0.67724 0.8932 0.33832 0.0
H1116 H 0.67556 0.91955 0.32675 0.0
H1117 H 0.5911 0.87324 0.35935 0.0
H1118 H 0.58776 0.89008 0.38468 0.0
H1119 H 0.60819 0.87006 0.38424 0.0
C1120 C 0.71181 0.11335 0.96776 0.0
C1121 C 0.70418 0.12888 0.98322 0.0
C1122 C 0.71747 0.09253 0.97388 0.0
C1123 C 0.71542 0.08713 0.99595 0.0
C1124 C 0.70739 0.10259 0.01151 0.0
C1125 C 0.70188 0.12326 0.00496 0.0
C1126 C 0.72595 0.07645 0.95685 0.0
C1127 C 0.70492 0.09741 0.0352 0.0
C1128 C 0.71209 0.02749 0.01115 0.0
C1129 C 0.73351 0.02628 0.02146 0.0
C1130 C 0.7062 0.04692 0.00193 0.0
C1131 C 0.72211 0.06556 0.00309 0.0
C1132 C 0.74403 0.0641 0.0126 0.0
C1133 C 0.74946 0.04447 0.02168 0.0
C1134 C 0.68267 0.04784 0.9919 0.0
C1135 C 0.7615 0.08358 0.01402 0.0
H1136 H 0.71363 0.11756 0.95093 0.0
H1137 H 0.69597 0.13513 0.017 0.0
H1138 H 0.74317 0.07309 0.96236 0.0
H1139 H 0.71558 0.06032 0.95529 0.0
H1140 H 0.7259 0.08288 0.9402 0.0
H1141 H 0.69793 0.11101 0.0451 0.0
H1142 H 0.69389 0.08187 0.03539 0.0
H1143 H 0.72136 0.09462 0.04349 0.0
H1144 H 0.69961 0.01358 0.01115 0.0
H1145 H 0.76611 0.04349 0.0294 0.0
H1146 H 0.68268 0.054 0.97516 0.0
H1147 H 0.67413 0.0597 0.00245 0.0
H1148 H 0.67293 0.03133 0.99043 0.0
H1149 H 0.76273 0.08982 0.99742 0.0
H1150 H 0.77816 0.07919 0.02038 0.0
H1151 H 0.75668 0.09742 0.02528 0.0
C1152 C 0.27938 0.68313 0.6918 0.0
C1153 C 0.25751 0.68878 0.68813 0.0
C1154 C 0.28555 0.66266 0.68277 0.0
C1155 C 0.26967 0.64802 0.66905 0.0
C1156 C 0.24748 0.65359 0.66556 0.0
C1157 C 0.24158 0.67375 0.67549 0.0
C1158 C 0.30915 0.65691 0.68756 0.0
C1159 C 0.23021 0.63876 0.65049 0.0
C1160 C 0.29054 0.60911 0.62466 0.0
C1161 C 0.2867 0.58828 0.63296 0.0
C1162 C 0.28508 0.62864 0.63625 0.0
C1163 C 0.27645 0.62754 0.65717 0.0
C1164 C 0.27344 0.60681 0.66618 0.0
C1165 C 0.27819 0.58739 0.6538 0.0
C1166 C 0.28808 0.65038 0.62582 0.0
C1167 C 0.26492 0.60508 0.68877 0.0
H1168 H 0.29165 0.69473 0.70172 0.0
H1169 H 0.22471 0.67823 0.67247 0.0
H1170 H 0.30923 0.63992 0.69317 0.0
H1171 H 0.31783 0.65694 0.67214 0.0
H1172 H 0.31872 0.66887 0.70049 0.0
H1173 H 0.2136 0.64531 0.64986 0.0
H1174 H 0.23551 0.63716 0.63336 0.0
H1175 H 0.22863 0.62181 0.65617 0.0
H1176 H 0.29776 0.61026 0.60898 0.0
H1177 H 0.27482 0.57149 0.66038 0.0
H1178 H 0.2998 0.66242 0.63675 0.0
H1179 H 0.27194 0.65779 0.624 0.0
H1180 H 0.29451 0.6483 0.60919 0.0
H1181 H 0.27474 0.61724 0.70131 0.0
H1182 H 0.26571 0.58814 0.69439 0.0
H1183 H 0.2474 0.60922 0.68821 0.0
C1184 C 0.34834 0.3271 0.98827 0.0
C1185 C 0.34912 0.318 0.00884 0.0
C1186 C 0.34257 0.34887 0.98635 0.0
C1187 C 0.33738 0.36186 0.00544 0.0
C1188 C 0.33785 0.35271 0.02621 0.0
C1189 C 0.34376 0.33089 0.02768 0.0
C1190 C 0.34223 0.35802 0.96388 0.0
C1191 C 0.33229 0.36604 0.04689 0.0
C1192 C 0.34289 0.42424 0.001 0.0
C1193 C 0.321 0.42798 0.99397 0.0
C1194 C 0.34834 0.40293 0.00573 0.0
C1195 C 0.33146 0.38503 0.00347 0.0
C1196 C 0.30914 0.38901 0.99755 0.0
C1197 C 0.30419 0.41043 0.99285 0.0
C1198 C 0.37233 0.39934 0.01201 0.0
C1199 C 0.29063 0.37043 0.99516 0.0
H1200 H 0.35249 0.3173 0.97364 0.0
H1201 H 0.34432 0.32399 0.04364 0.0
H1202 H 0.32545 0.36307 0.95901 0.0
H1203 H 0.35411 0.3731 0.96476 0.0
H1204 H 0.34667 0.34575 0.95067 0.0
H1205 H 0.33308 0.35638 0.0617 0.0
H1206 H 0.34402 0.38123 0.05041 0.0
H1207 H 0.31534 0.37157 0.04426 0.0
H1208 H 0.35595 0.43772 0.00172 0.0
H1209 H 0.28719 0.41336 0.9877 0.0
H1210 H 0.37868 0.38889 0.99842 0.0
H1211 H 0.37378 0.39031 0.02718 0.0
H1212 H 0.38309 0.41526 0.01502 0.0
H1213 H 0.29291 0.35848 0.98079 0.0
H1214 H 0.27396 0.37666 0.99251 0.0
H1215 H 0.29111 0.36112 0.01019 0.0
C1216 C 0.37368 0.66096 0.78021 0.0
C1217 C 0.39351 0.65576 0.77139 0.0
C1218 C 0.37261 0.66464 0.80332 0.0
C1219 C 0.3917 0.66264 0.81791 0.0
C1220 C 0.41174 0.65738 0.80907 0.0
C1221 C 0.41246 0.65422 0.78593 0.0
C1222 C 0.35108 0.67064 0.81211 0.0
C1223 C 0.43239 0.65478 0.82407 0.0
C1224 C 0.39932 0.689 0.87749 0.0
C1225 C 0.3941 0.67069 0.88941 0.0
C1226 C 0.39755 0.68687 0.85414 0.0
C1227 C 0.39085 0.66581 0.84248 0.0
C1228 C 0.38489 0.64742 0.85446 0.0
C1229 C 0.3864 0.65014 0.87781 0.0
C1230 C 0.4036 0.70698 0.84199 0.0
C1231 C 0.37799 0.62463 0.84268 0.0
H1232 H 0.35901 0.66227 0.76905 0.0
H1233 H 0.4278 0.65008 0.77924 0.0
H1234 H 0.34492 0.65774 0.82264 0.0
H1235 H 0.35391 0.6866 0.82278 0.0
H1236 H 0.33796 0.67225 0.79855 0.0
H1237 H 0.44655 0.65036 0.81456 0.0
H1238 H 0.43749 0.67049 0.8347 0.0
H1239 H 0.42884 0.64162 0.83531 0.0
H1240 H 0.40515 0.70492 0.8865 0.0
H1241 H 0.38259 0.63593 0.88705 0.0
H1242 H 0.39032 0.70894 0.82873 0.0
H1243 H 0.41907 0.70468 0.8338 0.0
H1244 H 0.40629 0.72254 0.85333 0.0
H1245 H 0.3642 0.62548 0.82963 0.0
H1246 H 0.37259 0.6124 0.85429 0.0
H1247 H 0.39217 0.61843 0.83427 0.0
C1248 C 0.97732 0.72864 0.10951 0.0
C1249 C 0.97219 0.71 0.12098 0.0
C1250 C 0.98678 0.72643 0.08914 0.0
C1251 C 0.99031 0.70498 0.07964 0.0
C1252 C 0.98452 0.68603 0.09091 0.0
C1253 C 0.97595 0.68883 0.1117 0.0
C1254 C 0.99348 0.7471 0.07807 0.0
C1255 C 0.98726 0.66283 0.08094 0.0
C1256 C 0.99747 0.69969 0.01769 0.0
C1257 C 0.02056 0.69865 0.01755 0.0
C1258 C 0.98732 0.70111 0.03773 0.0
C1259 C 0.00062 0.70243 0.05822 0.0
C1260 C 0.02389 0.7016 0.05829 0.0
C1261 C 0.03347 0.69919 0.03802 0.0
C1262 C 0.96236 0.70125 0.03697 0.0
C1263 C 0.03874 0.70352 0.0798 0.0
H1264 H 0.97454 0.74503 0.11682 0.0
H1265 H 0.97175 0.67441 0.12052 0.0
H1266 H 0.01152 0.74794 0.07582 0.0
H1267 H 0.98446 0.74646 0.06131 0.0
H1268 H 0.99002 0.76257 0.08788 0.0
H1269 H 0.98061 0.64981 0.09113 0.0
H1270 H 0.97856 0.66002 0.06394 0.0
H1271 H 0.0051 0.66084 0.07936 0.0
H1272 H 0.98724 0.69965 0.00216 0.0
H1273 H 0.05117 0.6977 0.03835 0.0
H1274 H 0.958 0.71747 0.04447 0.0
H1275 H 0.9554 0.68819 0.0469 0.0
H1276 H 0.95424 0.69839 0.01972 0.0
H1277 H 0.03618 0.71902 0.09004 0.0
H1278 H 0.05664 0.70371 0.07697 0.0
H1279 H 0.03438 0.68939 0.08961 0.0
C1280 C 0.66194 0.28574 0.67912 0.0
C1281 C 0.64892 0.29646 0.69408 0.0
C1282 C 0.65516 0.28262 0.65624 0.0
C1283 C 0.63482 0.29028 0.64823 0.0
C1284 C 0.62203 0.30184 0.66314 0.0
C1285 C 0.62928 0.30486 0.68586 0.0
C1286 C 0.66932 0.27043 0.6408 0.0
C1287 C 0.60029 0.31039 0.65521 0.0
C1288 C 0.61848 0.29868 0.58804 0.0
C1289 C 0.60269 0.28045 0.58194 0.0
C1290 C 0.63029 0.30132 0.60913 0.0
C1291 C 0.62612 0.28545 0.62449 0.0
C1292 C 0.61142 0.26621 0.61785 0.0
C1293 C 0.59994 0.2639 0.5966 0.0
C1294 C 0.64627 0.32171 0.61544 0.0
C1295 C 0.60664 0.24881 0.6337 0.0
H1296 H 0.67718 0.27927 0.68533 0.0
H1297 H 0.61917 0.31326 0.69727 0.0
H1298 H 0.66054 0.25405 0.63442 0.0
H1299 H 0.67213 0.27986 0.6262 0.0
H1300 H 0.68572 0.26762 0.64922 0.0
H1301 H 0.59262 0.31951 0.66886 0.0
H1302 H 0.60294 0.32165 0.64195 0.0
H1303 H 0.58834 0.29627 0.64792 0.0
H1304 H 0.62065 0.31163 0.57688 0.0
H1305 H 0.58805 0.24957 0.5918 0.0
H1306 H 0.66311 0.31664 0.61987 0.0
H1307 H 0.64113 0.33109 0.63035 0.0
H1308 H 0.64718 0.33291 0.60185 0.0
H1309 H 0.62236 0.24378 0.64168 0.0
H1310 H 0.59674 0.23374 0.62525 0.0
H1311 H 0.5972 0.25589 0.64713 0.0
C1312 C 0.04638 0.31901 0.40002 0.0
C1313 C 0.03841 0.30433 0.38137 0.0
C1314 C 0.03394 0.32152 0.41849 0.0
C1315 C 0.01323 0.30883 0.41838 0.0
C1316 C 0.00563 0.29325 0.40002 0.0
C1317 C 0.01823 0.29131 0.38168 0.0
C1318 C 0.04248 0.33844 0.43766 0.0
C1319 C 0.98377 0.27917 0.39941 0.0
C1320 C 0.98335 0.30241 0.47051 0.0
C1321 C 0.96632 0.3164 0.46724 0.0
C1322 C 0.99946 0.30043 0.45523 0.0
C1323 C 0.99854 0.31297 0.43649 0.0
C1324 C 0.98215 0.32817 0.43397 0.0
C1325 C 0.96611 0.32954 0.44929 0.0
C1326 C 0.01657 0.28395 0.45838 0.0
C1327 C 0.98081 0.34212 0.41444 0.0
H1328 H 0.06196 0.32916 0.39986 0.0
H1329 H 0.01208 0.27981 0.36739 0.0
H1330 H 0.03153 0.35224 0.43833 0.0
H1331 H 0.04206 0.33083 0.45367 0.0
H1332 H 0.05974 0.34552 0.43612 0.0
H1333 H 0.98113 0.26658 0.38479 0.0
H1334 H 0.98303 0.27045 0.41477 0.0
H1335 H 0.96985 0.28998 0.39875 0.0
H1336 H 0.98333 0.29211 0.48432 0.0
H1337 H 0.95293 0.34041 0.44687 0.0
H1338 H 0.03343 0.29168 0.45634 0.0
H1339 H 0.0129 0.26971 0.44546 0.0
H1340 H 0.01668 0.27744 0.47501 0.0
H1341 H 0.99732 0.35083 0.41264 0.0
H1342 H 0.96857 0.3547 0.41615 0.0
H1343 H 0.97584 0.33119 0.39889 0.0
C1344 C 0.30614 0.57442 0.46037 0.0
C1345 C 0.29539 0.55914 0.4434 0.0
C1346 C 0.30456 0.5711 0.48285 0.0
C1347 C 0.29222 0.55183 0.48855 0.0
C1348 C 0.28133 0.53631 0.47152 0.0
C1349 C 0.28288 0.54024 0.44912 0.0
C1350 C 0.31614 0.58824 0.50051 0.0
C1351 C 0.2683 0.51542 0.47697 0.0
C1352 C 0.30807 0.53641 0.54689 0.0
C1353 C 0.29161 0.54554 0.55887 0.0
C1354 C 0.30787 0.53739 0.52379 0.0
C1355 C 0.29098 0.54804 0.51241 0.0
C1356 C 0.27387 0.55656 0.52422 0.0
C1357 C 0.27429 0.55504 0.54725 0.0
C1358 C 0.32626 0.52784 0.51174 0.0
C1359 C 0.25562 0.56813 0.51271 0.0
H1360 H 0.3157 0.58914 0.4561 0.0
H1361 H 0.27463 0.52831 0.43609 0.0
H1362 H 0.30394 0.59453 0.51163 0.0
H1363 H 0.32873 0.58051 0.51096 0.0
H1364 H 0.32456 0.6026 0.4933 0.0
H1365 H 0.26069 0.50507 0.46181 0.0
H1366 H 0.27938 0.5053 0.48664 0.0
H1367 H 0.25491 0.51977 0.48754 0.0
H1368 H 0.32165 0.52922 0.55567 0.0
H1369 H 0.26121 0.5617 0.55624 0.0
H1370 H 0.33704 0.54154 0.50601 0.0
H1371 H 0.31921 0.51692 0.49677 0.0
H1372 H 0.33677 0.5181 0.52249 0.0
H1373 H 0.26289 0.58359 0.50647 0.0
H1374 H 0.24278 0.57257 0.52396 0.0
H1375 H 0.24743 0.55738 0.4981 0.0
C1376 C 0.2494 0.41496 0.84155 0.0
C1377 C 0.23859 0.42776 0.82651 0.0
C1378 C 0.25934 0.42462 0.86221 0.0
C1379 C 0.25808 0.44758 0.86814 0.0
C1380 C 0.24732 0.46065 0.85298 0.0
C1381 C 0.23785 0.45061 0.83223 0.0
C1382 C 0.271 0.41017 0.87778 0.0
C1383 C 0.24538 0.48509 0.85889 0.0
C1384 C 0.2652 0.46139 0.93053 0.0
C1385 C 0.28778 0.4689 0.9339 0.0
C1386 C 0.25484 0.45594 0.90897 0.0
C1387 C 0.2676 0.45753 0.8905 0.0
C1388 C 0.29018 0.46626 0.89386 0.0
C1389 C 0.29999 0.47197 0.91562 0.0
C1390 C 0.23063 0.4471 0.90606 0.0
C1391 C 0.30441 0.46794 0.87465 0.0
H1392 H 0.25017 0.39733 0.83715 0.0
H1393 H 0.22941 0.46057 0.8207 0.0
H1394 H 0.28835 0.41737 0.8826 0.0
H1395 H 0.26244 0.4096 0.89325 0.0
H1396 H 0.2714 0.39287 0.87022 0.0
H1397 H 0.23708 0.49308 0.84499 0.0
H1398 H 0.23571 0.48722 0.87358 0.0
H1399 H 0.2621 0.49395 0.86352 0.0
H1400 H 0.25592 0.45888 0.94482 0.0
H1401 H 0.31757 0.4775 0.91841 0.0
H1402 H 0.22925 0.42898 0.90093 0.0
H1403 H 0.22155 0.4552 0.89275 0.0
H1404 H 0.22239 0.44978 0.92166 0.0
H1405 H 0.30741 0.45097 0.86784 0.0
H1406 H 0.32075 0.47749 0.87976 0.0
H1407 H 0.29578 0.476 0.86103 0.0
C1408 C 0.68815 0.95868 0.54556 0.0
C1409 C 0.68208 0.97366 0.56246 0.0
C1410 C 0.68005 0.95952 0.5233 0.0
C1411 C 0.6656 0.97582 0.51773 0.0
C1412 C 0.65871 0.99045 0.53477 0.0
C1413 C 0.66698 0.98915 0.55695 0.0
C1414 C 0.68764 0.94349 0.50563 0.0
C1415 C 0.64336 0.00807 0.52948 0.0
C1416 C 0.66807 0.99336 0.45927 0.0
C1417 C 0.64934 0.98102 0.44782 0.0
C1418 C 0.67308 0.99238 0.48216 0.0
C1419 C 0.65915 0.97856 0.49394 0.0
C1420 C 0.63988 0.96652 0.48267 0.0
C1421 C 0.63517 0.96792 0.45974 0.0
C1422 C 0.69377 0.00553 0.49358 0.0
C1423 C 0.62462 0.95163 0.49467 0.0
H1424 H 0.69967 0.94654 0.54965 0.0
H1425 H 0.66217 0.00079 0.56988 0.0
H1426 H 0.67309 0.93487 0.49509 0.0
H1427 H 0.69799 0.95279 0.49459 0.0
H1428 H 0.69755 0.93076 0.51284 0.0
H1429 H 0.63805 0.01685 0.54473 0.0
H1430 H 0.65194 0.02053 0.51993 0.0
H1431 H 0.62835 0.00058 0.5189 0.0
H1432 H 0.67934 0.0032 0.45018 0.0
H1433 H 0.62054 0.95853 0.45107 0.0
H1434 H 0.70579 0.99397 0.49947 0.0
H1435 H 0.6896 0.01586 0.5084 0.0
H1436 H 0.70202 0.0166 0.4824 0.0
H1437 H 0.63366 0.93773 0.50059 0.0
H1438 H 0.60957 0.94452 0.48387 0.0
H1439 H 0.61933 0.96102 0.50955 0.0
C1440 C 0.77541 0.0373 0.1946 0.0
C1441 C 0.78995 0.02556 0.20744 0.0
C1442 C 0.77128 0.03203 0.17155 0.0
C1443 C 0.78201 0.01465 0.16105 0.0
C1444 C 0.79744 0.00339 0.17372 0.0
C1445 C 0.80121 0.00896 0.19678 0.0
C1446 C 0.75475 0.04448 0.15858 0.0
C1447 C 0.8093 0.98487 0.16307 0.0
C1448 C 0.75089 0.98565 0.10824 0.0
C1449 C 0.76151 0.99619 0.09173 0.0
C1450 C 0.75786 0.99105 0.13085 0.0
C1451 C 0.7759 0.00738 0.13711 0.0
C1452 C 0.78719 0.01752 0.12051 0.0
C1453 C 0.77984 0.01182 0.098 0.0
C1454 C 0.74535 0.97988 0.14806 0.0
C1455 C 0.8066 0.03487 0.12655 0.0
H1456 H 0.76667 0.05019 0.20264 0.0
H1457 H 0.81255 0.99985 0.20653 0.0
H1458 H 0.76228 0.05123 0.14419 0.0
H1459 H 0.74012 0.0329 0.15188 0.0
H1460 H 0.74887 0.05843 0.16896 0.0
H1461 H 0.8222 0.9791 0.17483 0.0
H1462 H 0.79708 0.97052 0.15705 0.0
H1463 H 0.8173 0.99042 0.14841 0.0
H1464 H 0.73652 0.9738 0.10354 0.0
H1465 H 0.78824 0.01983 0.08528 0.0
H1466 H 0.73706 0.99244 0.15802 0.0
H1467 H 0.75705 0.97239 0.15972 0.0
H1468 H 0.73252 0.96666 0.14044 0.0
H1469 H 0.80084 0.04982 0.13539 0.0
H1470 H 0.81458 0.03997 0.11168 0.0
H1471 H 0.81928 0.02846 0.13803 0.0
C1472 C 0.41742 0.26631 0.55918 0.0
C1473 C 0.41442 0.27661 0.58021 0.0
C1474 C 0.43881 0.26457 0.55228 0.0
C1475 C 0.45758 0.27354 0.56667 0.0
C1476 C 0.45469 0.28343 0.58813 0.0
C1477 C 0.43314 0.28473 0.59469 0.0
C1478 C 0.44129 0.25372 0.52936 0.0
C1479 C 0.47431 0.29333 0.60391 0.0
C1480 C 0.5156 0.25738 0.55792 0.0
C1481 C 0.52465 0.27586 0.54814 0.0
C1482 C 0.4935 0.25599 0.56336 0.0
C1483 C 0.48023 0.27357 0.55899 0.0
C1484 C 0.48904 0.29189 0.54838 0.0
C1485 C 0.51116 0.29279 0.54304 0.0
C1486 C 0.48461 0.23613 0.57448 0.0
C1487 C 0.47544 0.31101 0.54356 0.0
H1488 H 0.40304 0.25991 0.54794 0.0
H1489 H 0.43098 0.29278 0.61094 0.0
H1490 H 0.44852 0.26625 0.519 0.0
H1491 H 0.45292 0.24054 0.53044 0.0
H1492 H 0.42515 0.24622 0.5208 0.0
H1493 H 0.46925 0.29966 0.62031 0.0
H1494 H 0.48629 0.28071 0.60661 0.0
H1495 H 0.4832 0.3073 0.59656 0.0
H1496 H 0.52598 0.2442 0.56173 0.0
H1497 H 0.51819 0.30725 0.53578 0.0
H1498 H 0.46862 0.22873 0.56557 0.0
H1499 H 0.48125 0.2415 0.59175 0.0
H1500 H 0.49644 0.22307 0.57508 0.0
H1501 H 0.45941 0.30474 0.53401 0.0
H1502 H 0.48428 0.3233 0.53399 0.0
H1503 H 0.47149 0.31968 0.55943 0.0
C1504 C 0.19295 0.72612 0.00433 0.0
C1505 C 0.2049 0.73854 0.98998 0.0
C1506 C 0.16968 0.72271 0.00138 0.0
C1507 C 0.15804 0.73174 0.98351 0.0
C1508 C 0.16992 0.74478 0.9693 0.0
C1509 C 0.19322 0.74812 0.97277 0.0
C1510 C 0.1576 0.70894 0.01709 0.0
C1511 C 0.15807 0.75456 0.95 0.0
C1512 C 0.10207 0.70034 0.9643 0.0
C1513 C 0.08744 0.71337 0.9752 0.0
C1514 C 0.12499 0.7067 0.96604 0.0
C1515 C 0.13356 0.72646 0.97918 0.0
C1516 C 0.11883 0.74015 0.9895 0.0
C1517 C 0.09594 0.7335 0.98729 0.0
C1518 C 0.14013 0.69172 0.95462 0.0
C1519 C 0.12734 0.76134 0.00365 0.0
H1520 H 0.20181 0.71881 0.01778 0.0
H1521 H 0.20233 0.75771 0.96158 0.0
H1522 H 0.14453 0.7183 0.02432 0.0
H1523 H 0.1492 0.69353 0.00782 0.0
H1524 H 0.16898 0.70418 0.03089 0.0
H1525 H 0.16954 0.7655 0.94139 0.0
H1526 H 0.15015 0.74095 0.93778 0.0
H1527 H 0.14463 0.76433 0.95581 0.0
H1528 H 0.09575 0.68464 0.95514 0.0
H1529 H 0.08471 0.74388 0.99542 0.0
H1530 H 0.15072 0.68424 0.9673 0.0
H1531 H 0.15138 0.70148 0.94475 0.0
H1532 H 0.13071 0.67807 0.94341 0.0
H1533 H 0.13736 0.75724 0.0187 0.0
H1534 H 0.11363 0.77103 0.00902 0.0
H1535 H 0.13841 0.77198 0.9944 0.0
C1536 C 0.78918 0.25038 0.42647 0.0
C1537 C 0.78641 0.25559 0.40431 0.0
C1538 C 0.80792 0.25925 0.4406 0.0
C1539 C 0.82411 0.27393 0.43247 0.0
C1540 C 0.82107 0.27979 0.41034 0.0
C1541 C 0.80234 0.27042 0.39647 0.0
C1542 C 0.81075 0.25236 0.46399 0.0
C1543 C 0.83784 0.29561 0.40115 0.0
C1544 C 0.86666 0.30972 0.47297 0.0
C1545 C 0.88552 0.29805 0.47106 0.0
C1546 C 0.84638 0.30197 0.46068 0.0
C1547 C 0.84499 0.28195 0.44653 0.0
C1548 C 0.86387 0.26976 0.44521 0.0
C1549 C 0.88393 0.27805 0.45737 0.0
C1550 C 0.82667 0.31551 0.46231 0.0
C1551 C 0.86299 0.24815 0.43064 0.0
H1552 H 0.77695 0.23892 0.43265 0.0
H1553 H 0.80021 0.27469 0.37945 0.0
H1554 H 0.82565 0.24297 0.46594 0.0
H1555 H 0.8135 0.26725 0.47618 0.0
H1556 H 0.79609 0.24174 0.46814 0.0
H1557 H 0.83223 0.29973 0.38417 0.0
H1558 H 0.84103 0.31127 0.41226 0.0
H1559 H 0.85388 0.28807 0.40047 0.0
H1560 H 0.86798 0.32522 0.48353 0.0
H1561 H 0.8985 0.26892 0.45613 0.0
H1562 H 0.81217 0.30509 0.467 0.0
H1563 H 0.82183 0.32131 0.44584 0.0
H1564 H 0.83023 0.33025 0.47469 0.0
H1565 H 0.84932 0.23633 0.43488 0.0
H1566 H 0.87882 0.24015 0.43239 0.0
H1567 H 0.85944 0.25121 0.41295 0.0
C1568 C 0.55115 0.71728 0.99805 0.0
C1569 C 0.56516 0.71066 0.98186 0.0
C1570 C 0.52799 0.71254 0.99442 0.0
C1571 C 0.51866 0.70063 0.97425 0.0
C1572 C 0.53276 0.69326 0.95817 0.0
C1573 C 0.55582 0.69852 0.96209 0.0
C1574 C 0.51347 0.7209 0.01183 0.0
C1575 C 0.52344 0.68021 0.9366 0.0
C1576 C 0.45973 0.67269 0.96894 0.0
C1577 C 0.44837 0.68719 0.95622 0.0
C1578 C 0.48256 0.67713 0.9755 0.0
C1579 C 0.49412 0.69668 0.96942 0.0
C1580 C 0.48243 0.7119 0.95751 0.0
C1581 C 0.45971 0.70687 0.95089 0.0
C1582 C 0.49449 0.6604 0.98799 0.0
C1583 C 0.49407 0.73313 0.95108 0.0
H1584 H 0.55823 0.72676 0.01333 0.0
H1585 H 0.56654 0.69322 0.94957 0.0
H1586 H 0.50275 0.73311 0.00489 0.0
H1587 H 0.50231 0.70697 0.01658 0.0
H1588 H 0.52337 0.72902 0.02705 0.0
H1589 H 0.53671 0.67455 0.92645 0.0
H1590 H 0.51262 0.66542 0.94003 0.0
H1591 H 0.51299 0.69064 0.92664 0.0
H1592 H 0.45099 0.65735 0.97287 0.0
H1593 H 0.45085 0.71814 0.94117 0.0
H1594 H 0.50417 0.66871 0.0032 0.0
H1595 H 0.50648 0.65285 0.9774 0.0
H1596 H 0.48283 0.64688 0.99284 0.0
H1597 H 0.50347 0.74255 0.9659 0.0
H1598 H 0.48225 0.74402 0.94346 0.0
H1599 H 0.50625 0.72908 0.93899 0.0
C1600 C 0.54492 0.46568 0.28113 0.0
C1601 C 0.52984 0.44839 0.28615 0.0
C1602 C 0.53801 0.48674 0.27767 0.0
C1603 C 0.51551 0.49073 0.27961 0.0
C1604 C 0.50007 0.47323 0.2842 0.0
C1605 C 0.5074 0.45218 0.28726 0.0
C1606 C 0.55494 0.50487 0.27244 0.0
C1607 C 0.47604 0.47696 0.28665 0.0
C1608 C 0.51011 0.55183 0.29427 0.0
C1609 C 0.50474 0.55902 0.27326 0.0
C1610 C 0.51195 0.52925 0.29685 0.0
C1611 C 0.5087 0.5136 0.27788 0.0
C1612 C 0.50174 0.52061 0.25688 0.0
C1613 C 0.49972 0.5433 0.25484 0.0
C1614 C 0.51899 0.52242 0.31961 0.0
C1615 C 0.49825 0.50449 0.23624 0.0
H1616 H 0.56224 0.46281 0.28006 0.0
H1617 H 0.49568 0.43889 0.29123 0.0
H1618 H 0.54905 0.51221 0.25707 0.0
H1619 H 0.55706 0.51842 0.28616 0.0
H1620 H 0.57143 0.49868 0.27016 0.0
H1621 H 0.46582 0.46129 0.28871 0.0
H1622 H 0.47498 0.48888 0.30139 0.0
H1623 H 0.46877 0.48444 0.27192 0.0
H1624 H 0.5139 0.56405 0.30851 0.0
H1625 H 0.49576 0.54893 0.23856 0.0
H1626 H 0.5365 0.5182 0.32016 0.0
H1627 H 0.50861 0.50737 0.32311 0.0
H1628 H 0.51777 0.53588 0.33297 0.0
H1629 H 0.51461 0.49966 0.23151 0.0
H1630 H 0.48982 0.51184 0.22198 0.0
H1631 H 0.48825 0.48907 0.2394 0.0
C1632 C 0.97675 0.21408 0.77571 0.0
C1633 C 0.99265 0.22583 0.7645 0.0
C1634 C 0.97419 0.19071 0.7736 0.0
C1635 C 0.98784 0.17879 0.75992 0.0
C1636 C 0.00428 0.19051 0.749 0.0
C1637 C 0.00651 0.21387 0.75143 0.0
C1638 C 0.95655 0.17878 0.78559 0.0
C1639 C 0.01919 0.17839 0.73429 0.0
C1640 C 0.99398 0.11749 0.76554 0.0
C1641 C 0.97964 0.1073 0.74751 0.0
C1642 C 0.99648 0.14073 0.77009 0.0
C1643 C 0.98438 0.15409 0.75625 0.0
C1644 C 0.96953 0.14388 0.73832 0.0
C1645 C 0.96734 0.12062 0.73417 0.0
C1646 C 0.01238 0.151 0.78944 0.0
C1647 C 0.95637 0.15755 0.72314 0.0
H1648 H 0.96598 0.22316 0.78591 0.0
H1649 H 0.01885 0.22274 0.74274 0.0
H1650 H 0.94385 0.16941 0.77328 0.0
H1651 H 0.964 0.1665 0.79586 0.0
H1652 H 0.94811 0.19042 0.79651 0.0
H1653 H 0.03172 0.18992 0.72767 0.0
H1654 H 0.02802 0.16631 0.74371 0.0
H1655 H 0.00899 0.16878 0.72006 0.0
H1656 H 0.00333 0.10726 0.77606 0.0
H1657 H 0.95647 0.11289 0.72003 0.0
H1658 H 0.00368 0.16202 0.8007 0.0
H1659 H 0.02602 0.16149 0.78325 0.0
H1660 H 0.01979 0.13826 0.79918 0.0
H1661 H 0.94654 0.16875 0.73302 0.0
H1662 H 0.94484 0.14703 0.71052 0.0
H1663 H 0.96789 0.16823 0.71438 0.0
C1664 C 0.45194 0.8065 0.23111 0.0
C1665 C 0.45275 0.78422 0.23557 0.0
C1666 C 0.46513 0.82361 0.24432 0.0
C1667 C 0.47976 0.81828 0.26218 0.0
C1668 C 0.481 0.79579 0.26649 0.0
C1669 C 0.46734 0.77905 0.25325 0.0
C1670 C 0.46315 0.84745 0.23937 0.0
C1671 C 0.49668 0.78944 0.28513 0.0
C1672 C 0.52608 0.8633 0.28231 0.0
C1673 C 0.51746 0.87393 0.3008 0.0
C1674 C 0.51447 0.84451 0.2702 0.0
C1675 C 0.49354 0.83637 0.27645 0.0
C1676 C 0.48515 0.84641 0.2956 0.0
C1677 C 0.49732 0.86492 0.30766 0.0
C1678 C 0.52416 0.834 0.25011 0.0
C1679 C 0.46285 0.83826 0.30277 0.0
H1680 H 0.44062 0.81065 0.21757 0.0
H1681 H 0.46817 0.76184 0.25673 0.0
H1682 H 0.45798 0.85714 0.25413 0.0
H1683 H 0.47954 0.85525 0.23582 0.0
H1684 H 0.45091 0.8488 0.22495 0.0
H1685 H 0.49616 0.77113 0.28585 0.0
H1686 H 0.51397 0.79593 0.28301 0.0
H1687 H 0.49238 0.79708 0.30132 0.0
H1688 H 0.54145 0.87021 0.27662 0.0
H1689 H 0.49073 0.87272 0.32216 0.0
H1690 H 0.51402 0.83712 0.23477 0.0
H1691 H 0.52371 0.81571 0.25069 0.0
H1692 H 0.5416 0.84073 0.24892 0.0
H1693 H 0.44952 0.84073 0.28973 0.0
H1694 H 0.45924 0.84712 0.31869 0.0
H1695 H 0.46218 0.82018 0.30472 0.0
C1696 C 0.94227 0.5869 0.68918 0.0
C1697 C 0.95471 0.59749 0.67398 0.0
C1698 C 0.94302 0.56407 0.69136 0.0
C1699 C 0.95698 0.55171 0.6784 0.0
C1700 C 0.97024 0.56258 0.66365 0.0
C1701 C 0.96864 0.58528 0.66132 0.0
C1702 C 0.92819 0.553 0.70684 0.0
C1703 C 0.98585 0.55015 0.65008 0.0
C1704 C 0.96948 0.49527 0.69707 0.0
C1705 C 0.95502 0.48065 0.68212 0.0
C1706 C 0.97077 0.51838 0.69569 0.0
C1707 C 0.95678 0.52721 0.6794 0.0
C1708 C 0.94223 0.51264 0.66422 0.0
C1709 C 0.94183 0.48959 0.66549 0.0
C1710 C 0.98694 0.53336 0.7118 0.0
C1711 C 0.92674 0.52142 0.64684 0.0
H1712 H 0.9312 0.59628 0.69867 0.0
H1713 H 0.97832 0.59353 0.64962 0.0
H1714 H 0.91617 0.54025 0.69712 0.0
H1715 H 0.93821 0.5443 0.71896 0.0
H1716 H 0.91874 0.56507 0.71616 0.0
H1717 H 0.99644 0.56143 0.64093 0.0
H1718 H 0.99678 0.54105 0.66104 0.0
H1719 H 0.97617 0.53761 0.63784 0.0
H1720 H 0.97955 0.48874 0.71021 0.0
H1721 H 0.93105 0.47858 0.65343 0.0
H1722 H 0.97771 0.54414 0.72277 0.0
H1723 H 0.9976 0.54447 0.70258 0.0
H1724 H 0.99779 0.5238 0.72239 0.0
H1725 H 0.91597 0.53299 0.65499 0.0
H1726 H 0.91596 0.5079 0.63671 0.0
H1727 H 0.93648 0.53098 0.63552 0.0
C1728 C 0.69419 0.35924 0.57253 0.0
C1729 C 0.69059 0.36508 0.59476 0.0
C1730 C 0.68568 0.37106 0.55531 0.0
C1731 C 0.6728 0.38899 0.56031 0.0
C1732 C 0.66853 0.39464 0.58261 0.0
C1733 C 0.67786 0.38291 0.59963 0.0
C1734 C 0.69092 0.36461 0.53179 0.0
C1735 C 0.65446 0.41333 0.58852 0.0
C1736 C 0.6738 0.42934 0.51587 0.0
C1737 C 0.65558 0.42027 0.50133 0.0
C1738 C 0.67873 0.42038 0.53617 0.0
C1739 C 0.66483 0.40219 0.54206 0.0
C1740 C 0.64521 0.39443 0.5283 0.0
C1741 C 0.64099 0.40336 0.50788 0.0
C1742 C 0.7 0.42892 0.55013 0.0
C1743 C 0.62968 0.37547 0.53421 0.0
H1744 H 0.704 0.34551 0.56853 0.0
H1745 H 0.67576 0.38828 0.61671 0.0
H1746 H 0.67531 0.35997 0.5209 0.0
H1747 H 0.69979 0.37899 0.52505 0.0
H1748 H 0.7014 0.3504 0.53077 0.0
H1749 H 0.65074 0.41409 0.60621 0.0
H1750 H 0.66322 0.42946 0.58549 0.0
H1751 H 0.63853 0.41127 0.57779 0.0
H1752 H 0.68521 0.44218 0.51054 0.0
H1753 H 0.62699 0.39626 0.49643 0.0
H1754 H 0.7123 0.41641 0.54854 0.0
H1755 H 0.69707 0.43139 0.56796 0.0
H1756 H 0.70734 0.44486 0.54489 0.0
H1757 H 0.63738 0.35961 0.53136 0.0
H1758 H 0.61344 0.37409 0.52399 0.0
H1759 H 0.62669 0.37761 0.55206 0.0
C1760 C 0.75248 0.61901 0.21574 0.0
C1761 C 0.76726 0.61478 0.23364 0.0
C1762 C 0.75203 0.60696 0.19491 0.0
C1763 C 0.76679 0.59025 0.19179 0.0
C1764 C 0.78187 0.58594 0.20972 0.0
C1765 C 0.78176 0.59811 0.23053 0.0
C1766 C 0.73558 0.61202 0.17626 0.0
C1767 C 0.7979 0.56832 0.20699 0.0
C1768 C 0.74651 0.54867 0.14263 0.0
C1769 C 0.75698 0.55819 0.12548 0.0
C1770 C 0.75073 0.55804 0.16473 0.0
C1771 C 0.76591 0.57725 0.16973 0.0
C1772 C 0.77788 0.58576 0.15272 0.0
C1773 C 0.77317 0.57621 0.13075 0.0
C1774 C 0.73755 0.54849 0.18235 0.0
C1775 C 0.79448 0.60597 0.1574 0.0
H1776 H 0.74118 0.63181 0.21803 0.0
H1777 H 0.79253 0.59404 0.24447 0.0
H1778 H 0.74452 0.6171 0.16198 0.0
H1779 H 0.72441 0.59687 0.17031 0.0
H1780 H 0.72521 0.62549 0.18146 0.0
H1781 H 0.80929 0.56774 0.22224 0.0
H1782 H 0.78854 0.55175 0.20291 0.0
H1783 H 0.80802 0.57148 0.19293 0.0
H1784 H 0.73387 0.53484 0.13856 0.0
H1785 H 0.78142 0.58345 0.11749 0.0
H1786 H 0.72493 0.55992 0.18694 0.0
H1787 H 0.74852 0.54692 0.19762 0.0
H1788 H 0.72883 0.5319 0.17651 0.0
H1789 H 0.78549 0.62102 0.16044 0.0
H1790 H 0.80476 0.60839 0.14329 0.0
H1791 H 0.80565 0.60455 0.17259 0.0
C1792 C 0.32079 0.06127 0.39919 0.0
C1793 C 0.31409 0.04609 0.38063 0.0
C1794 C 0.31076 0.05989 0.41911 0.0
C1795 C 0.29364 0.04282 0.42057 0.0
C1796 C 0.28688 0.0273 0.40196 0.0
C1797 C 0.2973 0.02905 0.38221 0.0
C1798 C 0.31856 0.07669 0.43864 0.0
C1799 C 0.26883 0.00877 0.40301 0.0
C1800 C 0.28514 0.03117 0.47991 0.0
C1801 C 0.26838 0.04497 0.48476 0.0
C1802 C 0.29271 0.02927 0.45862 0.0
C1803 C 0.28313 0.04133 0.44179 0.0
C1804 C 0.26515 0.05406 0.4462 0.0
C1805 C 0.25809 0.05585 0.46771 0.0
C1806 C 0.312 0.01564 0.45464 0.0
C1807 C 0.25426 0.06683 0.42858 0.0
H1808 H 0.33384 0.07441 0.39807 0.0
H1809 H 0.2927 0.01672 0.36824 0.0
H1810 H 0.30449 0.08597 0.4437 0.0
H1811 H 0.3246 0.06803 0.4531 0.0
H1812 H 0.33215 0.08885 0.43479 0.0
H1813 H 0.26506 0.99844 0.38688 0.0
H1814 H 0.27394 0.99784 0.41597 0.0
H1815 H 0.25338 0.01578 0.40781 0.0
H1816 H 0.29328 0.02291 0.49312 0.0
H1817 H 0.24497 0.06635 0.47141 0.0
H1818 H 0.32707 0.02694 0.45311 0.0
H1819 H 0.3086 0.00477 0.43885 0.0
H1820 H 0.31567 0.0051 0.46842 0.0
H1821 H 0.26603 0.08083 0.42498 0.0
H1822 H 0.23888 0.07371 0.43383 0.0
H1823 H 0.25004 0.05598 0.41285 0.0
C1824 C 0.26022 0.00542 0.78329 0.0
C1825 C 0.2421 0.98971 0.77648 0.0
C1826 C 0.27069 0.00681 0.80501 0.0
C1827 C 0.26251 0.99246 0.82036 0.0
C1828 C 0.24399 0.97683 0.81366 0.0
C1829 C 0.23405 0.97564 0.79181 0.0
C1830 C 0.29038 0.0237 0.81159 0.0
C1831 C 0.23463 0.96137 0.82959 0.0
C1832 C 0.29776 0.97887 0.87128 0.0
C1833 C 0.2896 0.99223 0.88823 0.0
C1834 C 0.28984 0.97956 0.84895 0.0
C1835 C 0.27311 0.9937 0.84351 0.0
C1836 C 0.26531 0.00774 0.86051 0.0
C1837 C 0.27377 0.00693 0.88268 0.0
C1838 C 0.29883 0.96463 0.83125 0.0
C1839 C 0.24731 0.02286 0.85541 0.0
H1840 H 0.26586 0.01705 0.77189 0.0
H1841 H 0.21994 0.96356 0.78668 0.0
H1842 H 0.28675 0.03533 0.82569 0.0
H1843 H 0.30504 0.01517 0.81732 0.0
H1844 H 0.29481 0.03353 0.79764 0.0
H1845 H 0.21996 0.95037 0.82183 0.0
H1846 H 0.24755 0.9508 0.83561 0.0
H1847 H 0.22962 0.97119 0.84436 0.0
H1848 H 0.31021 0.96769 0.87557 0.0
H1849 H 0.26735 0.01716 0.89581 0.0
H1850 H 0.30425 0.97443 0.81766 0.0
H1851 H 0.28552 0.95184 0.82382 0.0
H1852 H 0.3131 0.95606 0.83798 0.0
H1853 H 0.25176 0.03329 0.84196 0.0
H1854 H 0.24431 0.03394 0.87022 0.0
H1855 H 0.23155 0.01267 0.84939 0.0
C1856 C 0.57489 0.71502 0.36051 0.0
C1857 C 0.59639 0.70871 0.36519 0.0
C1858 C 0.55755 0.70846 0.37313 0.0
C1859 C 0.56175 0.69514 0.3909 0.0
C1860 C 0.58333 0.68838 0.39553 0.0
C1861 C 0.6005 0.69549 0.38277 0.0
C1862 C 0.53476 0.71607 0.3676 0.0
C1863 C 0.58837 0.67399 0.41418 0.0
C1864 C 0.51867 0.70048 0.43236 0.0
C1865 C 0.50268 0.68326 0.4237 0.0
C1866 C 0.539 0.70355 0.42296 0.0
C1867 C 0.54338 0.68888 0.40466 0.0
C1868 C 0.52815 0.6702 0.39736 0.0
C1869 C 0.50786 0.66771 0.40687 0.0
C1870 C 0.55477 0.72371 0.43119 0.0
C1871 C 0.53235 0.65394 0.3782 0.0
H1872 H 0.57162 0.72525 0.34695 0.0
H1873 H 0.61722 0.69133 0.38713 0.0
H1874 H 0.52237 0.70144 0.36355 0.0
H1875 H 0.52953 0.72592 0.38223 0.0
H1876 H 0.53431 0.72642 0.35329 0.0
H1877 H 0.60564 0.66902 0.41473 0.0
H1878 H 0.58604 0.68311 0.43036 0.0
H1879 H 0.57664 0.65874 0.41226 0.0
H1880 H 0.51456 0.71258 0.44526 0.0
H1881 H 0.49546 0.65433 0.40026 0.0
H1882 H 0.55382 0.73626 0.41887 0.0
H1883 H 0.57217 0.71925 0.43294 0.0
H1884 H 0.55066 0.73147 0.44744 0.0
H1885 H 0.52974 0.66175 0.36237 0.0
H1886 H 0.52098 0.63844 0.37715 0.0
H1887 H 0.54978 0.64952 0.37979 0.0
C1888 C 0.76641 0.24605 0.97057 0.0
C1889 C 0.7507 0.24982 0.98588 0.0
C1890 C 0.78776 0.25728 0.97365 0.0
C1891 C 0.79353 0.27283 0.99243 0.0
C1892 C 0.77766 0.277 0.0078 0.0
C1893 C 0.75653 0.26517 0.00452 0.0
C1894 C 0.80429 0.25219 0.95699 0.0
C1895 C 0.78314 0.29359 0.02793 0.0
C1896 C 0.85535 0.28308 0.00993 0.0
C1897 C 0.86114 0.3021 0.99925 0.0
C1898 C 0.83323 0.2738 0.0085 0.0
C1899 C 0.8165 0.28396 0.9963 0.0
C1900 C 0.82211 0.30378 0.98638 0.0
C1901 C 0.84443 0.31252 0.98781 0.0
C1902 C 0.82795 0.25251 0.01911 0.0
C1903 C 0.80467 0.31532 0.97361 0.0
H1904 H 0.76205 0.23411 0.95619 0.0
H1905 H 0.74496 0.26738 0.01701 0.0
H1906 H 0.8103 0.26764 0.94989 0.0
H1907 H 0.81898 0.24556 0.96542 0.0
H1908 H 0.79708 0.23984 0.94313 0.0
H1909 H 0.76839 0.29625 0.03725 0.0
H1910 H 0.79623 0.28765 0.0393 0.0
H1911 H 0.78982 0.30983 0.02283 0.0
H1912 H 0.8683 0.2749 0.0186 0.0
H1913 H 0.8489 0.32735 0.97971 0.0
H1914 H 0.8223 0.23886 0.00597 0.0
H1915 H 0.8142 0.25437 0.02992 0.0
H1916 H 0.84256 0.24754 0.02922 0.0
H1917 H 0.79802 0.30466 0.95833 0.0
H1918 H 0.81139 0.33165 0.96872 0.0
H1919 H 0.79051 0.31796 0.98374 0.0
C1920 C 0.18727 0.77318 0.63827 0.0
C1921 C 0.2081 0.78529 0.64299 0.0
C1922 C 0.17435 0.77457 0.61824 0.0
C1923 C 0.18232 0.78864 0.60255 0.0
C1924 C 0.20323 0.80113 0.60726 0.0
C1925 C 0.21605 0.79904 0.62731 0.0
C1926 C 0.15227 0.76069 0.61378 0.0
C1927 C 0.21214 0.81647 0.59102 0.0
C1928 C 0.15467 0.77136 0.54468 0.0
C1929 C 0.13627 0.78389 0.54454 0.0
C1930 C 0.17088 0.77388 0.56287 0.0
C1931 C 0.16871 0.78957 0.58111 0.0
C1932 C 0.15123 0.80369 0.58002 0.0
C1933 C 0.135 0.80046 0.56184 0.0
C1934 C 0.18907 0.75829 0.56347 0.0
C1935 C 0.14865 0.821 0.59883 0.0
H1936 H 0.18107 0.7624 0.65024 0.0
H1937 H 0.23254 0.80759 0.63026 0.0
H1938 H 0.13864 0.77163 0.61126 0.0
H1939 H 0.15215 0.74949 0.59829 0.0
H1940 H 0.14864 0.75037 0.6276 0.0
H1941 H 0.22837 0.82558 0.59748 0.0
H1942 H 0.21426 0.80681 0.57508 0.0
H1943 H 0.20007 0.82878 0.58731 0.0
H1944 H 0.15548 0.7584 0.53136 0.0
H1945 H 0.12073 0.81016 0.56165 0.0
H1946 H 0.18553 0.74575 0.57536 0.0
H1947 H 0.20538 0.76746 0.56935 0.0
H1948 H 0.19037 0.74939 0.54689 0.0
H1949 H 0.14245 0.81267 0.61304 0.0
H1950 H 0.13671 0.83303 0.59381 0.0
H1951 H 0.16491 0.83028 0.60474 0.0
C1952 C 0.46333 0.27664 0.99474 0.0
C1953 C 0.44965 0.27014 0.01111 0.0
C1954 C 0.486 0.28354 0.00021 0.0
C1955 C 0.49518 0.2837 0.02249 0.0
C1956 C 0.48147 0.27704 0.03902 0.0
C1957 C 0.45888 0.27047 0.03315 0.0
C1958 C 0.50008 0.29079 0.98222 0.0
C1959 C 0.49065 0.27681 0.06297 0.0
C1960 C 0.55642 0.28121 0.03955 0.0
C1961 C 0.56227 0.30282 0.0496 0.0
C1962 C 0.53492 0.27505 0.02926 0.0
C1963 C 0.51906 0.29096 0.0289 0.0
C1964 C 0.52548 0.31326 0.03743 0.0
C1965 C 0.547 0.31889 0.04781 0.0
C1966 C 0.52871 0.25109 0.02041 0.0
C1967 C 0.50919 0.33081 0.03704 0.0
H1968 H 0.4563 0.2765 0.97768 0.0
H1969 H 0.44848 0.26538 0.04589 0.0
H1970 H 0.50729 0.30821 0.98652 0.0
H1971 H 0.51418 0.28031 0.981 0.0
H1972 H 0.49043 0.28967 0.96569 0.0
H1973 H 0.47786 0.27075 0.0737 0.0
H1974 H 0.50453 0.26597 0.06398 0.0
H1975 H 0.49746 0.29383 0.06975 0.0
H1976 H 0.56817 0.26873 0.04104 0.0
H1977 H 0.55162 0.33568 0.0554 0.0
H1978 H 0.51939 0.25007 0.00375 0.0
H1979 H 0.51767 0.24298 0.03168 0.0
H1980 H 0.54355 0.24159 0.01919 0.0
H1981 H 0.49987 0.33014 0.0204 0.0
H1982 H 0.51757 0.34783 0.04131 0.0
H1983 H 0.49688 0.32763 0.04925 0.0
C1984 C 0.44331 0.5616 0.69882 0.0
C1985 C 0.42243 0.56959 0.69453 0.0
C1986 C 0.44563 0.53866 0.69779 0.0
C1987 C 0.42666 0.52338 0.69207 0.0
C1988 C 0.40556 0.53133 0.68763 0.0
C1989 C 0.40368 0.55433 0.68901 0.0
C1990 C 0.46833 0.53078 0.70296 0.0
C1991 C 0.38495 0.51553 0.68122 0.0
C1992 C 0.43153 0.46357 0.66999 0.0
C1993 C 0.42637 0.4522 0.68838 0.0
C1994 C 0.43243 0.4869 0.67112 0.0
C1995 C 0.42862 0.49902 0.69127 0.0
C1996 C 0.42497 0.48764 0.71031 0.0
C1997 C 0.42374 0.46435 0.70858 0.0
C1998 C 0.43612 0.49842 0.6504 0.0
C1999 C 0.42116 0.49997 0.73218 0.0
H2000 H 0.45788 0.57328 0.70315 0.0
H2001 H 0.38752 0.56036 0.68546 0.0
H2002 H 0.46804 0.52046 0.71726 0.0
H2003 H 0.47288 0.52011 0.68855 0.0
H2004 H 0.48144 0.54481 0.70702 0.0
H2005 H 0.36966 0.52439 0.67957 0.0
H2006 H 0.38662 0.5059 0.66513 0.0
H2007 H 0.38292 0.5034 0.69381 0.0
H2008 H 0.43356 0.45419 0.65437 0.0
H2009 H 0.41999 0.45554 0.72288 0.0
H2010 H 0.44927 0.51242 0.65404 0.0
H2011 H 0.42061 0.50553 0.64455 0.0
H2012 H 0.4409 0.48688 0.63673 0.0
H2013 H 0.43435 0.51381 0.73679 0.0
H2014 H 0.42086 0.4889 0.74591 0.0
H2015 H 0.40503 0.5074 0.73053 0.0
C2016 C 0.98163 0.79374 0.22467 0.0
C2017 C 0.98575 0.77431 0.2349 0.0
C2018 C 0.98798 0.81492 0.2356 0.0
C2019 C 0.99931 0.81688 0.25716 0.0
C2020 C 0.00416 0.79745 0.26738 0.0
C2021 C 0.99682 0.77646 0.25635 0.0
C2022 C 0.98196 0.83521 0.22432 0.0
C2023 C 0.0164 0.7986 0.29027 0.0
C2024 C 0.02824 0.87434 0.27549 0.0
C2025 C 0.01271 0.88371 0.28858 0.0
C2026 C 0.02465 0.85219 0.26608 0.0
C2027 C 0.00481 0.8393 0.26933 0.0
C2028 C 0.98947 0.84835 0.28314 0.0
C2029 C 0.99377 0.87029 0.29285 0.0
C2030 C 0.04183 0.84273 0.25224 0.0
C2031 C 0.96814 0.83512 0.28707 0.0
H2032 H 0.973 0.79244 0.20814 0.0
H2033 H 0.99924 0.76197 0.26501 0.0
H2034 H 0.97105 0.8448 0.23459 0.0
H2035 H 0.99715 0.84631 0.22279 0.0
H2036 H 0.97321 0.83084 0.20747 0.0
H2037 H 0.02537 0.78354 0.2924 0.0
H2038 H 0.02859 0.81347 0.29356 0.0
H2039 H 0.00425 0.79948 0.30297 0.0
H2040 H 0.04289 0.88448 0.27195 0.0
H2041 H 0.982 0.87707 0.30351 0.0
H2042 H 0.03492 0.83949 0.23462 0.0
H2043 H 0.04617 0.82658 0.25803 0.0
H2044 H 0.05726 0.85415 0.25302 0.0
H2045 H 0.95814 0.83013 0.27096 0.0
H2046 H 0.95788 0.84464 0.29817 0.0
H2047 H 0.97192 0.81965 0.29464 0.0
C2048 C 0.62587 0.21777 0.77861 0.0
C2049 C 0.62328 0.23596 0.7938 0.0
C2050 C 0.61319 0.19739 0.77883 0.0
C2051 C 0.59759 0.19497 0.7948 0.0
C2052 C 0.59518 0.21306 0.81054 0.0
C2053 C 0.60788 0.23346 0.80968 0.0
C2054 C 0.61616 0.17859 0.76159 0.0
C2055 C 0.57883 0.21103 0.82791 0.0
C2056 C 0.55216 0.14876 0.77639 0.0
C2057 C 0.5611 0.13064 0.78565 0.0
C2058 C 0.56316 0.17022 0.78041 0.0
C2059 C 0.58342 0.17361 0.79423 0.0
C2060 C 0.59155 0.15565 0.80499 0.0
C2061 C 0.5804 0.1343 0.8004 0.0
C2062 C 0.55404 0.18885 0.76841 0.0
C2063 C 0.61283 0.15867 0.82019 0.0
H2064 H 0.6377 0.21954 0.76624 0.0
H2065 H 0.60509 0.24758 0.82091 0.0
H2066 H 0.6209 0.16379 0.76987 0.0
H2067 H 0.60023 0.17368 0.75129 0.0
H2068 H 0.6291 0.18317 0.7504 0.0
H2069 H 0.58055 0.22581 0.8403 0.0
H2070 H 0.56162 0.20911 0.81975 0.0
H2071 H 0.58118 0.19597 0.83679 0.0
H2072 H 0.53734 0.1459 0.76483 0.0
H2073 H 0.58721 0.12029 0.80768 0.0
H2074 H 0.56493 0.1932 0.75526 0.0
H2075 H 0.55391 0.20399 0.78003 0.0
H2076 H 0.5369 0.18419 0.76049 0.0
H2077 H 0.62721 0.16103 0.81015 0.0
H2078 H 0.61505 0.14406 0.82982 0.0
H2079 H 0.61309 0.17375 0.83199 0.0
C2080 C 0.04392 0.3705 0.26278 0.0
C2081 C 0.05127 0.36617 0.28445 0.0
C2082 C 0.04196 0.3924 0.25728 0.0
C2083 C 0.04851 0.4104 0.27358 0.0
C2084 C 0.05626 0.40614 0.29537 0.0
C2085 C 0.05733 0.38413 0.30057 0.0
C2086 C 0.03332 0.39624 0.23394 0.0
C2087 C 0.06393 0.42486 0.31314 0.0
C2088 C 0.06999 0.46724 0.25893 0.0
C2089 C 0.05325 0.48034 0.26567 0.0
C2090 C 0.06814 0.44418 0.26025 0.0
C2091 C 0.04874 0.43381 0.26781 0.0
C2092 C 0.03088 0.44658 0.27259 0.0
C2093 C 0.03343 0.46977 0.2717 0.0
C2094 C 0.0877 0.43127 0.25522 0.0
C2095 C 0.00963 0.43597 0.27999 0.0
H2096 H 0.04038 0.35696 0.24989 0.0
H2097 H 0.06312 0.38098 0.31734 0.0
H2098 H 0.02078 0.40859 0.2343 0.0
H2099 H 0.04718 0.40309 0.22495 0.0
H2100 H 0.02568 0.38062 0.22439 0.0
H2101 H 0.06955 0.4187 0.32925 0.0
H2102 H 0.07788 0.43547 0.30763 0.0
H2103 H 0.05024 0.43557 0.31589 0.0
H2104 H 0.08508 0.47517 0.25356 0.0
H2105 H 0.02036 0.47967 0.27691 0.0
H2106 H 0.08222 0.41621 0.24377 0.0
H2107 H 0.09526 0.42562 0.27086 0.0
H2108 H 0.10071 0.4414 0.24765 0.0
H2109 H 0.00393 0.42039 0.26935 0.0
H2110 H 0.99613 0.44731 0.27945 0.0
H2111 H 0.01268 0.43151 0.29731 0.0
C2112 C 0.3655 0.60286 0.31854 0.0
C2113 C 0.36602 0.58199 0.32692 0.0
C2114 C 0.38102 0.61002 0.30412 0.0
C2115 C 0.39747 0.59599 0.2979 0.0
C2116 C 0.39714 0.57432 0.30507 0.0
C2117 C 0.38151 0.56763 0.31964 0.0
C2118 C 0.38054 0.63307 0.29647 0.0
C2119 C 0.41374 0.55842 0.29812 0.0
C2120 C 0.43013 0.61598 0.25133 0.0
C2121 C 0.44904 0.62725 0.26341 0.0
C2122 C 0.41362 0.6047 0.26221 0.0
C2123 C 0.41607 0.60497 0.28569 0.0
C2124 C 0.43579 0.61533 0.29777 0.0
C2125 C 0.45211 0.62621 0.28643 0.0
C2126 C 0.39352 0.59264 0.24864 0.0
C2127 C 0.43961 0.6151 0.3227 0.0
H2128 H 0.35342 0.61397 0.32383 0.0
H2129 H 0.38187 0.55134 0.32577 0.0
H2130 H 0.37854 0.63221 0.27806 0.0
H2131 H 0.3669 0.64212 0.30303 0.0
H2132 H 0.39661 0.64277 0.302 0.0
H2133 H 0.40739 0.54086 0.29934 0.0
H2134 H 0.4179 0.56026 0.28082 0.0
H2135 H 0.42932 0.56196 0.30927 0.0
H2136 H 0.42818 0.61625 0.23341 0.0
H2137 H 0.46717 0.63428 0.29559 0.0
H2138 H 0.37851 0.60126 0.25186 0.0
H2139 H 0.39061 0.57546 0.25357 0.0
H2140 H 0.39539 0.59177 0.2305 0.0
H2141 H 0.42508 0.62072 0.33082 0.0
H2142 H 0.45472 0.62583 0.3298 0.0
H2143 H 0.44161 0.59788 0.32692 0.0
C2144 C 0.12348 0.39865 0.72757 0.0
C2145 C 0.13162 0.39367 0.74878 0.0
C2146 C 0.10056 0.39891 0.72196 0.0
C2147 C 0.08551 0.39422 0.73798 0.0
C2148 C 0.09356 0.38801 0.75897 0.0
C2149 C 0.11651 0.38772 0.76408 0.0
C2150 C 0.09255 0.4053 0.69929 0.0
C2151 C 0.07802 0.38289 0.7765 0.0
C2152 C 0.032 0.42254 0.73593 0.0
C2153 C 0.01636 0.405 0.72731 0.0
C2154 C 0.05459 0.41921 0.73937 0.0
C2155 C 0.06167 0.39791 0.7337 0.0
C2156 C 0.04595 0.38026 0.72449 0.0
C2157 C 0.02341 0.38405 0.72138 0.0
C2158 C 0.07085 0.43845 0.74927 0.0
C2159 C 0.05293 0.35742 0.71801 0.0
H2160 H 0.13503 0.40308 0.71559 0.0
H2161 H 0.12264 0.38371 0.78046 0.0
H2162 H 0.0786 0.39338 0.69159 0.0
H2163 H 0.08621 0.42197 0.70101 0.0
H2164 H 0.106 0.40585 0.68788 0.0
H2165 H 0.08668 0.37645 0.79119 0.0
H2166 H 0.07051 0.39824 0.78217 0.0
H2167 H 0.06422 0.37045 0.76949 0.0
H2168 H 0.0265 0.43883 0.7401 0.0
H2169 H 0.01123 0.37066 0.71435 0.0
H2170 H 0.08384 0.44174 0.73779 0.0
H2171 H 0.07936 0.4342 0.76509 0.0
H2172 H 0.06263 0.45396 0.75266 0.0
H2173 H 0.0653 0.35853 0.70554 0.0
H2174 H 0.03864 0.34554 0.71094 0.0
H2175 H 0.06108 0.35063 0.73274 0.0
C2176 C 0.80781 0.98058 0.65619 0.0
C2177 C 0.79068 0.99152 0.66531 0.0
C2178 C 0.8302 0.9869 0.66351 0.0
C2179 C 0.83562 0.00447 0.68051 0.0
C2180 C 0.81841 0.01495 0.69047 0.0
C2181 C 0.79613 0.0084 0.6827 0.0
C2182 C 0.84806 0.97534 0.6524 0.0
C2183 C 0.82355 0.03358 0.70881 0.0
C2184 C 0.89501 0.01025 0.70759 0.0
C2185 C 0.90502 0.02683 0.6959 0.0
C2186 C 0.87223 0.00328 0.70331 0.0
C2187 C 0.85932 0.01285 0.68666 0.0
C2188 C 0.86935 0.02972 0.67494 0.0
C2189 C 0.89208 0.03647 0.67969 0.0
C2190 C 0.86211 0.98533 0.71621 0.0
C2191 C 0.85623 0.04019 0.65692 0.0
H2192 H 0.8038 0.96748 0.64279 0.0
H2193 H 0.78301 0.01686 0.68994 0.0
H2194 H 0.8579 0.98737 0.6434 0.0
H2195 H 0.8597 0.9691 0.66505 0.0
H2196 H 0.84108 0.96114 0.64036 0.0
H2197 H 0.80832 0.03869 0.71611 0.0
H2198 H 0.83509 0.02845 0.72224 0.0
H2199 H 0.83198 0.04825 0.70216 0.0
H2200 H 0.90511 0.00252 0.71986 0.0
H2201 H 0.89986 0.04904 0.67039 0.0
H2202 H 0.85667 0.97021 0.7048 0.0
H2203 H 0.84715 0.99088 0.72365 0.0
H2204 H 0.874 0.98077 0.7297 0.0
H2205 H 0.85001 0.02733 0.64319 0.0
H2206 H 0.86631 0.05367 0.64996 0.0
H2207 H 0.84151 0.04719 0.66356 0.0
C2208 C 0.71085 0.00286 0.3069 0.0
C2209 C 0.7099 0.01452 0.28783 0.0
C2210 C 0.69253 0.9888 0.31164 0.0
C2211 C 0.67288 0.98628 0.29691 0.0
C2212 C 0.67175 0.9983 0.27784 0.0
C2213 C 0.69018 0.01238 0.27365 0.0
C2214 C 0.69453 0.97617 0.33203 0.0
C2215 C 0.65136 0.99566 0.26136 0.0
C2216 C 0.63275 0.93429 0.29249 0.0
C2217 C 0.61437 0.94239 0.302 0.0
C2218 C 0.65238 0.9481 0.29174 0.0
C2219 C 0.65364 0.97056 0.30077 0.0
C2220 C 0.63549 0.97849 0.31139 0.0
C2221 C 0.61602 0.96429 0.31185 0.0
C2222 C 0.67112 0.93906 0.27986 0.0
C2223 C 0.63619 0.00229 0.32129 0.0
H2224 H 0.72603 0.00439 0.31793 0.0
H2225 H 0.68928 0.02129 0.25885 0.0
H2226 H 0.67894 0.97593 0.34036 0.0
H2227 H 0.69747 0.95869 0.32709 0.0
H2228 H 0.70854 0.9835 0.34413 0.0
H2229 H 0.65321 0.00613 0.2473 0.0
H2230 H 0.64803 0.978 0.25453 0.0
H2231 H 0.63658 0.0002 0.26976 0.0
H2232 H 0.63141 0.91739 0.28471 0.0
H2233 H 0.60171 0.97057 0.31905 0.0
H2234 H 0.68713 0.94276 0.29029 0.0
H2235 H 0.67276 0.9473 0.2643 0.0
H2236 H 0.66832 0.92079 0.27554 0.0
H2237 H 0.65231 0.00729 0.33116 0.0
H2238 H 0.62254 0.00479 0.33215 0.0
H2239 H 0.63466 0.0135 0.30778 0.0
C2240 C 0.33518 0.37845 0.62743 0.0
C2241 C 0.35708 0.37273 0.62651 0.0
C2242 C 0.33063 0.40083 0.63019 0.0
C2243 C 0.34835 0.41781 0.63184 0.0
C2244 C 0.37049 0.41211 0.63161 0.0
C2245 C 0.3746 0.38966 0.62894 0.0
C2246 C 0.30684 0.40634 0.63083 0.0
C2247 C 0.3898 0.4298 0.63383 0.0
C2248 C 0.33737 0.4747 0.61396 0.0
C2249 C 0.33693 0.48712 0.63443 0.0
C2250 C 0.34079 0.45204 0.61295 0.0
C2251 C 0.34381 0.44159 0.63293 0.0
C2252 C 0.34314 0.45408 0.6537 0.0
C2253 C 0.33954 0.4767 0.65415 0.0
C2254 C 0.34132 0.43931 0.59049 0.0
C2255 C 0.34616 0.44408 0.67565 0.0
H2256 H 0.32157 0.36546 0.62581 0.0
H2257 H 0.39161 0.38542 0.62857 0.0
H2258 H 0.30536 0.41869 0.64512 0.0
H2259 H 0.30157 0.41397 0.61545 0.0
H2260 H 0.2953 0.39136 0.63216 0.0
H2261 H 0.40609 0.42262 0.63488 0.0
H2262 H 0.38883 0.43979 0.6193 0.0
H2263 H 0.38891 0.44132 0.6489 0.0
H2264 H 0.33504 0.4828 0.59874 0.0
H2265 H 0.33887 0.48626 0.67 0.0
H2266 H 0.32863 0.42482 0.58853 0.0
H2267 H 0.35778 0.43276 0.58924 0.0
H2268 H 0.33816 0.44979 0.57655 0.0
H2269 H 0.33089 0.44548 0.68443 0.0
H2270 H 0.35996 0.45386 0.68635 0.0
H2271 H 0.34969 0.42638 0.67411 0.0
C2272 C 0.30618 0.6486 0.99798 0.0
C2273 C 0.30668 0.66058 0.01891 0.0
C2274 C 0.31029 0.62605 0.99604 0.0
C2275 C 0.3148 0.61516 0.01549 0.0
C2276 C 0.31646 0.62746 0.03658 0.0
C2277 C 0.31233 0.64999 0.03804 0.0
C2278 C 0.30882 0.61365 0.97322 0.0
C2279 C 0.3216 0.61656 0.05771 0.0
C2280 C 0.296 0.55377 0.0155 0.0
C2281 C 0.31611 0.54399 0.01468 0.0
C2282 C 0.29535 0.57685 0.01517 0.0
C2283 C 0.31532 0.59051 0.01401 0.0
C2284 C 0.33559 0.5806 0.01252 0.0
C2285 C 0.33576 0.55747 0.01315 0.0
C2286 C 0.27334 0.58667 0.01661 0.0
C2287 C 0.35728 0.5943 0.01107 0.0
H2288 H 0.30178 0.6566 0.98309 0.0
H2289 H 0.31283 0.65908 0.05428 0.0
H2290 H 0.3237 0.60437 0.97136 0.0
H2291 H 0.29406 0.60127 0.97112 0.0
H2292 H 0.30742 0.62496 0.95974 0.0
H2293 H 0.32465 0.62887 0.07255 0.0
H2294 H 0.30745 0.60449 0.06028 0.0
H2295 H 0.33647 0.60716 0.05639 0.0
H2296 H 0.2808 0.54338 0.01683 0.0
H2297 H 0.35135 0.54991 0.01277 0.0
H2298 H 0.27011 0.59685 0.00247 0.0
H2299 H 0.27389 0.59786 0.03215 0.0
H2300 H 0.25923 0.57369 0.01643 0.0
H2301 H 0.35499 0.60828 0.00066 0.0
H2302 H 0.36987 0.58405 0.00408 0.0
H2303 H 0.36396 0.60128 0.02803 0.0
C2304 C 0.73841 0.13634 0.35303 0.0
C2305 C 0.7251 0.15312 0.34693 0.0
C2306 C 0.72897 0.1149 0.35568 0.0
C2307 C 0.70563 0.11004 0.35213 0.0
C2308 C 0.69215 0.12661 0.34508 0.0
C2309 C 0.70204 0.148 0.34259 0.0
C2310 C 0.74396 0.09764 0.36302 0.0
C2311 C 0.66724 0.12189 0.34078 0.0
C2312 C 0.6866 0.04834 0.34699 0.0
C2313 C 0.68248 0.04511 0.36897 0.0
C2314 C 0.69301 0.06963 0.34087 0.0
C2315 C 0.69545 0.08803 0.35721 0.0
C2316 C 0.69013 0.08495 0.37917 0.0
C2317 C 0.68362 0.0635 0.38475 0.0
C2318 C 0.69834 0.07209 0.31724 0.0
C2319 C 0.69246 0.10412 0.39707 0.0
H2320 H 0.75625 0.14006 0.35626 0.0
H2321 H 0.69164 0.16083 0.33776 0.0
H2322 H 0.73989 0.09272 0.37956 0.0
H2323 H 0.74121 0.08247 0.35119 0.0
H2324 H 0.76185 0.10379 0.36419 0.0
H2325 H 0.65928 0.13601 0.33386 0.0
H2326 H 0.66307 0.1068 0.32899 0.0
H2327 H 0.66001 0.11849 0.35652 0.0
H2328 H 0.68559 0.03412 0.33474 0.0
H2329 H 0.68025 0.06092 0.4017 0.0
H2330 H 0.71662 0.07276 0.31651 0.0
H2331 H 0.69266 0.0877 0.31132 0.0
H2332 H 0.69058 0.05782 0.30569 0.0
H2333 H 0.71026 0.11032 0.40065 0.0
H2334 H 0.68599 0.09927 0.41278 0.0
H2335 H 0.68346 0.11811 0.39134 0.0
C2336 C 0.64435 0.81862 0.00639 0.0
C2337 C 0.65609 0.80245 0.99575 0.0
C2338 C 0.65398 0.84042 0.01198 0.0
C2339 C 0.67593 0.84629 0.0068 0.0
C2340 C 0.68802 0.83002 0.99627 0.0
C2341 C 0.67795 0.80825 0.99086 0.0
C2342 C 0.64052 0.85726 0.02325 0.0
C2343 C 0.71147 0.83569 0.99053 0.0
C2344 C 0.68878 0.9082 0.00334 0.0
C2345 C 0.69861 0.91501 0.02483 0.0
C2346 C 0.68226 0.88565 0.99684 0.0
C2347 C 0.68585 0.86961 0.01219 0.0
C2348 C 0.69702 0.87633 0.03347 0.0
C2349 C 0.70334 0.89899 0.03952 0.0
C2350 C 0.67054 0.87916 0.97395 0.0
C2351 C 0.70129 0.85973 0.05024 0.0
H2352 H 0.62748 0.8143 0.0103 0.0
H2353 H 0.68714 0.79585 0.98264 0.0
H2354 H 0.64944 0.86435 0.03935 0.0
H2355 H 0.63843 0.87123 0.01274 0.0
H2356 H 0.62379 0.84993 0.02643 0.0
H2357 H 0.71883 0.82101 0.98289 0.0
H2358 H 0.71163 0.84877 0.97875 0.0
H2359 H 0.72219 0.84252 0.0057 0.0
H2360 H 0.6855 0.92062 0.99189 0.0
H2361 H 0.7113 0.90433 0.05602 0.0
H2362 H 0.65292 0.87335 0.97546 0.0
H2363 H 0.67826 0.86518 0.96551 0.0
H2364 H 0.67094 0.89325 0.96332 0.0
H2365 H 0.68525 0.85305 0.05577 0.0
H2366 H 0.71213 0.86727 0.06511 0.0
H2367 H 0.70919 0.84544 0.04259 0.0
C2368 C 0.57907 0.35531 0.38042 0.0
C2369 C 0.57518 0.37782 0.38035 0.0
C2370 C 0.58108 0.34513 0.40042 0.0
C2371 C 0.57888 0.35773 0.42078 0.0
C2372 C 0.57467 0.38037 0.42076 0.0
C2373 C 0.57298 0.39015 0.40058 0.0
C2374 C 0.58511 0.3208 0.39947 0.0
C2375 C 0.57194 0.39431 0.44207 0.0
C2376 C 0.56659 0.32866 0.47222 0.0
C2377 C 0.58746 0.33141 0.48444 0.0
C2378 C 0.56359 0.33672 0.45121 0.0
C2379 C 0.58192 0.34769 0.44229 0.0
C2380 C 0.60312 0.34993 0.4544 0.0
C2381 C 0.60564 0.34184 0.47538 0.0
C2382 C 0.54074 0.33403 0.4388 0.0
C2383 C 0.62299 0.36165 0.4456 0.0
H2384 H 0.5806 0.34559 0.36485 0.0
H2385 H 0.56991 0.40754 0.4007 0.0
H2386 H 0.595 0.31671 0.41457 0.0
H2387 H 0.56885 0.31069 0.39817 0.0
H2388 H 0.59376 0.31573 0.38464 0.0
H2389 H 0.56705 0.41116 0.43901 0.0
H2390 H 0.55912 0.3859 0.45134 0.0
H2391 H 0.58778 0.39624 0.45292 0.0
H2392 H 0.55257 0.32058 0.47936 0.0
H2393 H 0.62177 0.34405 0.48488 0.0
H2394 H 0.54129 0.32457 0.42239 0.0
H2395 H 0.53526 0.35061 0.43564 0.0
H2396 H 0.5282 0.32519 0.4481 0.0
H2397 H 0.62329 0.35699 0.42758 0.0
H2398 H 0.63888 0.35795 0.45442 0.0
H2399 H 0.62168 0.37982 0.44777 0.0
C2400 C 0.94852 0.31012 0.68187 0.0
C2401 C 0.96953 0.31855 0.69203 0.0
C2402 C 0.94293 0.31151 0.65913 0.0
C2403 C 0.95857 0.32192 0.6463 0.0
C2404 C 0.97891 0.33238 0.65691 0.0
C2405 C 0.98426 0.3304 0.67964 0.0
C2406 C 0.92107 0.30004 0.64851 0.0
C2407 C 0.9957 0.3443 0.64395 0.0
C2408 C 0.9567 0.29519 0.58731 0.0
C2409 C 0.94419 0.30937 0.57531 0.0
C2410 C 0.96221 0.29965 0.61026 0.0
C2411 C 0.95498 0.31879 0.62159 0.0
C2412 C 0.9429 0.33359 0.60947 0.0
C2413 C 0.93731 0.3285 0.58649 0.0
C2414 C 0.97498 0.28332 0.62253 0.0
C2415 C 0.93494 0.35421 0.62084 0.0
H2416 H 0.93691 0.30113 0.69132 0.0
H2417 H 0.00042 0.3372 0.68739 0.0
H2418 H 0.91303 0.31049 0.63657 0.0
H2419 H 0.92417 0.28426 0.63906 0.0
H2420 H 0.90934 0.29607 0.66107 0.0
H2421 H 0.00886 0.35456 0.65507 0.0
H2422 H 0.00372 0.3319 0.63352 0.0
H2423 H 0.98739 0.35519 0.63262 0.0
H2424 H 0.96164 0.28017 0.57878 0.0
H2425 H 0.92717 0.33925 0.57739 0.0
H2426 H 0.9645 0.27569 0.63456 0.0
H2427 H 0.99002 0.29205 0.63217 0.0
H2428 H 0.98022 0.26979 0.61111 0.0
H2429 H 0.91958 0.34952 0.62872 0.0
H2430 H 0.93103 0.36655 0.60883 0.0
H2431 H 0.94748 0.36223 0.63411 0.0
C2432 C 0.41569 0.71034 0.09477 0.0
C2433 C 0.40045 0.71727 0.10957 0.0
C2434 C 0.40875 0.70302 0.07248 0.0
C2435 C 0.38603 0.70272 0.06472 0.0
C2436 C 0.37054 0.70962 0.07955 0.0
C2437 C 0.37791 0.71674 0.10182 0.0
C2438 C 0.42576 0.69561 0.05722 0.0
C2439 C 0.34619 0.70958 0.07185 0.0
C2440 C 0.37148 0.70275 0.0024 0.0
C2441 C 0.36444 0.68029 0.99631 0.0
C2442 C 0.37841 0.71033 0.02464 0.0
C2443 C 0.37848 0.69502 0.04109 0.0
C2444 C 0.37157 0.67227 0.03494 0.0
C2445 C 0.3646 0.66519 0.0126 0.0
C2446 C 0.38562 0.73472 0.03055 0.0
C2447 C 0.37161 0.65545 0.05197 0.0
H2448 H 0.43313 0.71065 0.10059 0.0
H2449 H 0.36602 0.72212 0.11309 0.0
H2450 H 0.42111 0.67816 0.05024 0.0
H2451 H 0.42608 0.70602 0.043 0.0
H2452 H 0.44276 0.69672 0.06587 0.0
H2453 H 0.33628 0.71567 0.08537 0.0
H2454 H 0.34412 0.7202 0.05789 0.0
H2455 H 0.33931 0.69248 0.06551 0.0
H2456 H 0.37148 0.7144 0.98975 0.0
H2457 H 0.3592 0.64784 0.0078 0.0
H2458 H 0.4031 0.73681 0.03803 0.0
H2459 H 0.37522 0.74173 0.04316 0.0
H2460 H 0.38435 0.7445 0.01584 0.0
H2461 H 0.38852 0.65556 0.06056 0.0
H2462 H 0.36626 0.63835 0.04439 0.0
H2463 H 0.3603 0.65989 0.06481 0.0
C2464 C 0.98862 0.60709 0.8041 0.0
C2465 C 0.97766 0.62275 0.79255 0.0
C2466 C 0.99526 0.61115 0.82696 0.0
C2467 C 0.99088 0.63138 0.83855 0.0
C2468 C 0.97962 0.64716 0.82705 0.0
C2469 C 0.97312 0.64265 0.80422 0.0
C2470 C 0.00715 0.59388 0.83868 0.0
C2471 C 0.97469 0.66895 0.83881 0.0
C2472 C 0.99138 0.63493 0.90159 0.0
C2473 C 0.01259 0.64557 0.90826 0.0
C2474 C 0.98413 0.63007 0.87894 0.0
C2475 C 0.99838 0.63622 0.86264 0.0
C2476 C 0.01974 0.64719 0.86936 0.0
C2477 C 0.02657 0.65177 0.89212 0.0
C2478 C 0.96124 0.61839 0.87244 0.0
C2479 C 0.03536 0.65416 0.85251 0.0
H2480 H 0.99217 0.59166 0.79526 0.0
H2481 H 0.96467 0.65487 0.79546 0.0
H2482 H 0.02399 0.60105 0.84562 0.0
H2483 H 0.99801 0.58885 0.85285 0.0
H2484 H 0.00886 0.5788 0.82741 0.0
H2485 H 0.96547 0.67929 0.82756 0.0
H2486 H 0.96471 0.66579 0.85296 0.0
H2487 H 0.99045 0.6786 0.84578 0.0
H2488 H 0.98049 0.63038 0.91411 0.0
H2489 H 0.04287 0.66024 0.89738 0.0
H2490 H 0.96252 0.60263 0.86206 0.0
H2491 H 0.95115 0.62893 0.86224 0.0
H2492 H 0.9523 0.61452 0.88714 0.0
H2493 H 0.03879 0.6394 0.84163 0.0
H2494 H 0.05142 0.66248 0.86048 0.0
H2495 H 0.02748 0.66573 0.84166 0.0
C2496 C 0.58616 0.36764 0.66315 0.0
C2497 C 0.59178 0.3716 0.64173 0.0
C2498 C 0.56398 0.3666 0.66828 0.0
C2499 C 0.54701 0.36994 0.6517 0.0
C2500 C 0.55257 0.3742 0.63011 0.0
C2501 C 0.5749 0.37487 0.62535 0.0
C2502 C 0.55868 0.36163 0.69139 0.0
C2503 C 0.53493 0.378 0.61206 0.0
C2504 C 0.48826 0.34746 0.66037 0.0
C2505 C 0.47977 0.36646 0.66999 0.0
C2506 C 0.51006 0.3484 0.65402 0.0
C2507 C 0.52346 0.36892 0.65706 0.0
C2508 C 0.51467 0.38829 0.66613 0.0
C2509 C 0.49292 0.38679 0.67258 0.0
C2510 C 0.51884 0.32738 0.64441 0.0
C2511 C 0.52839 0.41049 0.66948 0.0
H2512 H 0.59908 0.36494 0.67587 0.0
H2513 H 0.57911 0.37795 0.60876 0.0
H2514 H 0.55022 0.37542 0.69922 0.0
H2515 H 0.54709 0.34632 0.69044 0.0
H2516 H 0.57379 0.35925 0.70232 0.0
H2517 H 0.54207 0.38172 0.59632 0.0
H2518 H 0.52289 0.36303 0.60862 0.0
H2519 H 0.52548 0.39205 0.61765 0.0
H2520 H 0.47798 0.33177 0.65822 0.0
H2521 H 0.48626 0.40144 0.68 0.0
H2522 H 0.53484 0.32465 0.65364 0.0
H2523 H 0.52213 0.32903 0.62684 0.0
H2524 H 0.50699 0.31247 0.64495 0.0
H2525 H 0.54287 0.4096 0.68175 0.0
H2526 H 0.51866 0.42417 0.67552 0.0
H2527 H 0.53501 0.41463 0.65364 0.0
C2528 C 0.89508 0.59928 0.27389 0.0
C2529 C 0.88384 0.59846 0.25259 0.0
C2530 C 0.9169 0.59324 0.27688 0.0
C2531 C 0.92786 0.58622 0.25812 0.0
C2532 C 0.91668 0.58538 0.23654 0.0
C2533 C 0.89478 0.59149 0.23403 0.0
C2534 C 0.92823 0.59433 0.30018 0.0
C2535 C 0.92785 0.57804 0.21615 0.0
C2536 C 0.99085 0.5903 0.26817 0.0
C2537 C 0.99447 0.56864 0.27312 0.0
C2538 C 0.9693 0.59608 0.26232 0.0
C2539 C 0.95102 0.57972 0.2613 0.0
C2540 C 0.9548 0.55751 0.2651 0.0
C2541 C 0.97654 0.55222 0.27086 0.0
C2542 C 0.966 0.61988 0.2582 0.0
C2543 C 0.9358 0.53957 0.26405 0.0
H2544 H 0.8868 0.60462 0.28834 0.0
H2545 H 0.88625 0.59082 0.21751 0.0
H2546 H 0.93313 0.57765 0.30377 0.0
H2547 H 0.94366 0.60578 0.30164 0.0
H2548 H 0.91741 0.60014 0.313 0.0
H2549 H 0.91693 0.57842 0.20054 0.0
H2550 H 0.94331 0.58897 0.21523 0.0
H2551 H 0.93271 0.56087 0.21724 0.0
H2552 H 0.00483 0.6029 0.2696 0.0
H2553 H 0.97947 0.53538 0.27436 0.0
H2554 H 0.95689 0.62751 0.2716 0.0
H2555 H 0.95575 0.6205 0.24225 0.0
H2556 H 0.98203 0.63009 0.25771 0.0
H2557 H 0.92516 0.54329 0.27771 0.0
H2558 H 0.94168 0.52283 0.26562 0.0
H2559 H 0.92522 0.53917 0.24815 0.0
C2560 C 0.19272 0.0107 0.3548 0.0
C2561 C 0.20726 0.01146 0.33795 0.0
C2562 C 0.17029 0.00255 0.35 0.0
C2563 C 0.1622 0.99507 0.32781 0.0
C2564 C 0.17679 0.99576 0.31074 0.0
C2565 C 0.19913 0.00388 0.31602 0.0
C2566 C 0.15524 0.00197 0.36864 0.0
C2567 C 0.16877 0.98803 0.28685 0.0
C2568 C 0.10949 0.95595 0.31486 0.0
C2569 C 0.09404 0.97059 0.30816 0.0
C2570 C 0.13162 0.96378 0.32196 0.0
C2571 C 0.1384 0.98677 0.32224 0.0
C2572 C 0.12266 0.00169 0.31607 0.0
C2573 C 0.10063 0.99341 0.30913 0.0
C2574 C 0.14788 0.94737 0.32854 0.0
C2575 C 0.12923 0.0263 0.31612 0.0
H2576 H 0.19886 0.01645 0.3718 0.0
H2577 H 0.21022 0.00441 0.30288 0.0
H2578 H 0.14132 0.01238 0.36533 0.0
H2579 H 0.14783 0.98472 0.36954 0.0
H2580 H 0.16419 0.00806 0.38505 0.0
H2581 H 0.18226 0.98955 0.27556 0.0
H2582 H 0.16181 0.97039 0.28556 0.0
H2583 H 0.15522 0.99796 0.28098 0.0
H2584 H 0.1043 0.93831 0.3141 0.0
H2585 H 0.08865 0.00473 0.30398 0.0
H2586 H 0.15643 0.95277 0.34527 0.0
H2587 H 0.16085 0.9468 0.31666 0.0
H2588 H 0.13966 0.93031 0.32876 0.0
H2589 H 0.1373 0.03309 0.33268 0.0
H2590 H 0.11476 0.03581 0.31196 0.0
H2591 H 0.14154 0.02907 0.30382 0.0
C2592 C 0.36538 0.02051 0.77144 0.0
C2593 C 0.34962 0.02233 0.75349 0.0
C2594 C 0.38756 0.02932 0.7713 0.0
C2595 C 0.39415 0.0402 0.75278 0.0
C2596 C 0.37835 0.04203 0.73461 0.0
C2597 C 0.3563 0.0331 0.73518 0.0
C2598 C 0.40394 0.02705 0.791 0.0
C2599 C 0.38473 0.0535 0.71455 0.0
C2600 C 0.44568 0.08132 0.75921 0.0
C2601 C 0.46121 0.06868 0.74937 0.0
C2602 C 0.42386 0.07216 0.76072 0.0
C2603 C 0.41754 0.04977 0.75238 0.0
C2604 C 0.4334 0.03676 0.74302 0.0
C2605 C 0.4551 0.04637 0.74172 0.0
C2606 C 0.40746 0.08654 0.7709 0.0
C2607 C 0.42734 0.01281 0.73406 0.0
H2608 H 0.36038 0.01225 0.78566 0.0
H2609 H 0.34427 0.03458 0.72123 0.0
H2610 H 0.418 0.01801 0.7855 0.0
H2611 H 0.41099 0.04376 0.79846 0.0
H2612 H 0.3962 0.01803 0.80405 0.0
H2613 H 0.37049 0.05345 0.70174 0.0
H2614 H 0.39123 0.071 0.71971 0.0
H2615 H 0.39822 0.04516 0.70688 0.0
H2616 H 0.45057 0.09848 0.76545 0.0
H2617 H 0.46728 0.03655 0.73444 0.0
H2618 H 0.40028 0.07852 0.78482 0.0
H2619 H 0.3935 0.08836 0.75831 0.0
H2620 H 0.41521 0.10339 0.77726 0.0
H2621 H 0.42059 0.00316 0.74716 0.0
H2622 H 0.44181 0.00476 0.728 0.0
H2623 H 0.41412 0.01192 0.72011 0.0
C2624 C 0.65164 0.60174 0.39144 0.0
C2625 C 0.62969 0.60704 0.3871 0.0
C2626 C 0.65625 0.58176 0.40029 0.0
C2627 C 0.63848 0.56662 0.40486 0.0
C2628 C 0.61626 0.57178 0.40042 0.0
C2629 C 0.61213 0.59196 0.39163 0.0
C2630 C 0.68017 0.5769 0.40485 0.0
C2631 C 0.59688 0.55601 0.40499 0.0
C2632 C 0.65223 0.50695 0.40929 0.0
C2633 C 0.65626 0.5065 0.43234 0.0
C2634 C 0.64582 0.52623 0.4001 0.0
C2635 C 0.64329 0.54544 0.41437 0.0
C2636 C 0.64653 0.54475 0.43773 0.0
C2637 C 0.65289 0.52522 0.44645 0.0
C2638 C 0.64236 0.52625 0.37513 0.0
C2639 C 0.64392 0.56484 0.4535 0.0
H2640 H 0.66533 0.61327 0.38799 0.0
H2641 H 0.59511 0.59589 0.3883 0.0
H2642 H 0.68376 0.57467 0.42275 0.0
H2643 H 0.68311 0.56113 0.3953 0.0
H2644 H 0.69207 0.59039 0.40035 0.0
H2645 H 0.5806 0.56239 0.40042 0.0
H2646 H 0.5975 0.53962 0.39551 0.0
H2647 H 0.59794 0.5532 0.4229 0.0
H2648 H 0.65458 0.49231 0.39845 0.0
H2649 H 0.65572 0.52473 0.4643 0.0
H2650 H 0.65496 0.53829 0.36935 0.0
H2651 H 0.62576 0.5317 0.3702 0.0
H2652 H 0.64369 0.50959 0.36642 0.0
H2653 H 0.65655 0.57854 0.45099 0.0
H2654 H 0.64587 0.56121 0.4712 0.0
H2655 H 0.62733 0.57092 0.44998 0.0
C2656 C 0.73849 0.36713 0.01791 0.0
C2657 C 0.72239 0.35072 0.02291 0.0
C2658 C 0.73731 0.38966 0.02497 0.0
C2659 C 0.71955 0.39594 0.03721 0.0
C2660 C 0.70327 0.37945 0.04232 0.0
C2661 C 0.70496 0.35705 0.0352 0.0
C2662 C 0.75505 0.40674 0.01928 0.0
C2663 C 0.684 0.38547 0.05522 0.0
C2664 C 0.72627 0.45126 0.07278 0.0
C2665 C 0.7143 0.46467 0.05931 0.0
C2666 C 0.7282 0.42887 0.06576 0.0
C2667 C 0.718 0.41976 0.04471 0.0
C2668 C 0.70619 0.43339 0.03089 0.0
C2669 C 0.70459 0.45575 0.03832 0.0
C2670 C 0.74103 0.41492 0.08091 0.0
C2671 C 0.69513 0.4243 0.00833 0.0
H2672 H 0.75204 0.36239 0.00845 0.0
H2673 H 0.69255 0.34449 0.03927 0.0
H2674 H 0.74737 0.41908 0.00924 0.0
H2675 H 0.76338 0.41598 0.03474 0.0
H2676 H 0.76786 0.39912 0.00981 0.0
H2677 H 0.67283 0.37065 0.05794 0.0
H2678 H 0.69029 0.39423 0.07164 0.0
H2679 H 0.67411 0.39704 0.04615 0.0
H2680 H 0.73401 0.45833 0.08889 0.0
H2681 H 0.69559 0.46624 0.0278 0.0
H2682 H 0.75473 0.40797 0.0723 0.0
H2683 H 0.72995 0.40064 0.0851 0.0
H2684 H 0.74821 0.42459 0.09663 0.0
H2685 H 0.70766 0.41775 0.99776 0.0
H2686 H 0.68665 0.4371 0.99958 0.0
H2687 H 0.68269 0.41021 0.01016 0.0
C2688 C 0.22356 0.90056 0.61276 0.0
C2689 C 0.23983 0.89132 0.62606 0.0
C2690 C 0.22848 0.92055 0.60323 0.0
C2691 C 0.25021 0.9315 0.60705 0.0
C2692 C 0.2667 0.92225 0.62042 0.0
C2693 C 0.26131 0.9023 0.62978 0.0
C2694 C 0.21046 0.92996 0.5891 0.0
C2695 C 0.29007 0.93341 0.62481 0.0
C2696 C 0.2702 0.9723 0.56707 0.0
C2697 C 0.26849 0.99276 0.57913 0.0
C2698 C 0.26406 0.95219 0.57585 0.0
C2699 C 0.25579 0.95265 0.59707 0.0
C2700 C 0.25345 0.97333 0.60902 0.0
C2701 C 0.25978 0.99317 0.59984 0.0
C2702 C 0.26674 0.93048 0.56259 0.0
C2703 C 0.24455 0.97448 0.63161 0.0
H2704 H 0.20693 0.89219 0.60978 0.0
H2705 H 0.274 0.89528 0.64001 0.0
H2706 H 0.20782 0.94692 0.59623 0.0
H2707 H 0.21562 0.93151 0.5721 0.0
H2708 H 0.1944 0.91945 0.5878 0.0
H2709 H 0.30098 0.92402 0.63554 0.0
H2710 H 0.29755 0.93508 0.60885 0.0
H2711 H 0.28973 0.95044 0.63302 0.0
H2712 H 0.27657 0.97207 0.55085 0.0
H2713 H 0.25813 0.00906 0.60893 0.0
H2714 H 0.25061 0.92011 0.55996 0.0
H2715 H 0.27864 0.92098 0.572 0.0
H2716 H 0.27287 0.93302 0.54612 0.0
H2717 H 0.22793 0.96507 0.63058 0.0
H2718 H 0.24311 0.99187 0.6384 0.0
H2719 H 0.25569 0.96659 0.64348 0.0
C2720 C 0.36805 0.1527 0.9578 0.0
C2721 C 0.35839 0.17168 0.96589 0.0
C2722 C 0.35754 0.1313 0.95861 0.0
C2723 C 0.33681 0.12876 0.96772 0.0
C2724 C 0.32665 0.14784 0.97539 0.0
C2725 C 0.33756 0.1691 0.97439 0.0
C2726 C 0.36889 0.11138 0.95018 0.0
C2727 C 0.30451 0.14577 0.98514 0.0
C2728 C 0.30361 0.07252 0.95402 0.0
C2729 C 0.30929 0.06172 0.97298 0.0
C2730 C 0.31187 0.09462 0.95234 0.0
C2731 C 0.32631 0.10604 0.96998 0.0
C2732 C 0.33186 0.09523 0.98929 0.0
C2733 C 0.32337 0.07313 0.99049 0.0
C2734 C 0.30565 0.10553 0.93146 0.0
C2735 C 0.34726 0.1068 0.00841 0.0
H2736 H 0.38409 0.1545 0.95112 0.0
H2737 H 0.32996 0.18367 0.98064 0.0
H2738 H 0.37284 0.10109 0.96407 0.0
H2739 H 0.35762 0.10076 0.93746 0.0
H2740 H 0.38455 0.11623 0.94277 0.0
H2741 H 0.2983 0.16222 0.98933 0.0
H2742 H 0.29194 0.13566 0.97326 0.0
H2743 H 0.30608 0.13699 0.00049 0.0
H2744 H 0.29296 0.06351 0.94036 0.0
H2745 H 0.32801 0.0646 0.00499 0.0
H2746 H 0.32071 0.10917 0.92266 0.0
H2747 H 0.29884 0.12163 0.93573 0.0
H2748 H 0.29317 0.09487 0.91989 0.0
H2749 H 0.364 0.11066 0.00279 0.0
H2750 H 0.34892 0.09652 0.02272 0.0
H2751 H 0.34108 0.12284 0.01419 0.0
C2752 C 0.4245 0.64624 0.59935 0.0
C2753 C 0.42952 0.65981 0.61937 0.0
C2754 C 0.42654 0.65482 0.57874 0.0
C2755 C 0.43369 0.67758 0.57807 0.0
C2756 C 0.43823 0.69154 0.59817 0.0
C2757 C 0.43614 0.68248 0.61861 0.0
C2758 C 0.42155 0.63936 0.55769 0.0
C2759 C 0.44572 0.71594 0.59808 0.0
C2760 C 0.46074 0.69227 0.52623 0.0
C2761 C 0.44309 0.70008 0.51363 0.0
C2762 C 0.45807 0.68546 0.54751 0.0
C2763 C 0.43719 0.68643 0.55631 0.0
C2764 C 0.41937 0.69461 0.54373 0.0
C2765 C 0.4225 0.70121 0.52244 0.0
C2766 C 0.47742 0.67668 0.56031 0.0
C2767 C 0.39688 0.69591 0.55255 0.0
H2768 H 0.41932 0.62872 0.59973 0.0
H2769 H 0.43999 0.6931 0.63399 0.0
H2770 H 0.40881 0.64588 0.54637 0.0
H2771 H 0.43678 0.63845 0.54878 0.0
H2772 H 0.41549 0.62225 0.56104 0.0
H2773 H 0.44748 0.72479 0.61505 0.0
H2774 H 0.46197 0.71785 0.59093 0.0
H2775 H 0.43366 0.72409 0.5874 0.0
H2776 H 0.47656 0.6912 0.51923 0.0
H2777 H 0.40878 0.70703 0.51255 0.0
H2778 H 0.47321 0.65896 0.56294 0.0
H2779 H 0.48085 0.68599 0.57698 0.0
H2780 H 0.49281 0.67795 0.55154 0.0
H2781 H 0.38944 0.67891 0.55458 0.0
H2782 H 0.38522 0.704 0.54133 0.0
H2783 H 0.39866 0.70535 0.5692 0.0
C2784 C 0.0267 0.74979 0.3463 0.0
C2785 C 0.03332 0.73718 0.32791 0.0
C2786 C 0.03914 0.75148 0.36707 0.0
C2787 C 0.05858 0.74015 0.36957 0.0
C2788 C 0.06529 0.72728 0.35112 0.0
C2789 C 0.05263 0.72602 0.33047 0.0
C2790 C 0.03153 0.76552 0.38632 0.0
C2791 C 0.08585 0.71484 0.35319 0.0
C2792 C 0.10147 0.76085 0.41779 0.0
C2793 C 0.09651 0.74591 0.4335 0.0
C2794 C 0.08939 0.75904 0.39681 0.0
C2795 C 0.07193 0.74189 0.39151 0.0
C2796 C 0.0669 0.72673 0.40736 0.0
C2797 C 0.07915 0.72904 0.42827 0.0
C2798 C 0.0951 0.77567 0.38045 0.0
C2799 C 0.04845 0.7082 0.40231 0.0
H2800 H 0.01187 0.75856 0.34445 0.0
H2801 H 0.05783 0.7162 0.31635 0.0
H2802 H 0.02848 0.75515 0.40021 0.0
H2803 H 0.04474 0.77886 0.39265 0.0
H2804 H 0.01607 0.77332 0.3816 0.0
H2805 H 0.08867 0.70534 0.33732 0.0
H2806 H 0.10067 0.72668 0.35847 0.0
H2807 H 0.08439 0.70307 0.3662 0.0
H2808 H 0.11471 0.77406 0.42204 0.0
H2809 H 0.07514 0.71769 0.44058 0.0
H2810 H 0.08049 0.78494 0.37629 0.0
H2811 H 0.09928 0.76688 0.36474 0.0
H2812 H 0.10935 0.78781 0.38705 0.0
H2813 H 0.03232 0.7153 0.39904 0.0
H2814 H 0.04711 0.6974 0.41618 0.0
H2815 H 0.0513 0.69775 0.38706 0.0
C2816 C 0.62965 0.28576 0.92534 0.0
C2817 C 0.64888 0.29008 0.91442 0.0
C2818 C 0.63004 0.28983 0.94856 0.0
C2819 C 0.65014 0.29831 0.96114 0.0
C2820 C 0.66953 0.3029 0.95017 0.0
C2821 C 0.66866 0.29872 0.92698 0.0
C2822 C 0.60897 0.28495 0.95965 0.0
C2823 C 0.69137 0.31171 0.96296 0.0
C2824 C 0.64884 0.32591 0.01969 0.0
C2825 C 0.65462 0.3088 0.03265 0.0
C2826 C 0.64716 0.3227 0.99637 0.0
C2827 C 0.65112 0.30181 0.98583 0.0
C2828 C 0.65656 0.28436 0.9989 0.0
C2829 C 0.65829 0.28809 0.02218 0.0
C2830 C 0.64147 0.34175 0.98301 0.0
C2831 C 0.66061 0.26177 0.98829 0.0
H2832 H 0.61427 0.27917 0.91576 0.0
H2833 H 0.68362 0.30207 0.91871 0.0
H2834 H 0.61139 0.27205 0.97138 0.0
H2835 H 0.60494 0.30013 0.96952 0.0
H2836 H 0.59455 0.27905 0.94745 0.0
H2837 H 0.70414 0.31696 0.95184 0.0
H2838 H 0.68908 0.32607 0.9749 0.0
H2839 H 0.69777 0.29849 0.97268 0.0
H2840 H 0.64597 0.34192 0.02783 0.0
H2841 H 0.66268 0.27488 0.03229 0.0
H2842 H 0.62657 0.33661 0.97123 0.0
H2843 H 0.65539 0.34634 0.97298 0.0
H2844 H 0.63821 0.35671 0.99373 0.0
H2845 H 0.64506 0.25385 0.97893 0.0
H2846 H 0.66628 0.25052 0.00076 0.0
H2847 H 0.67327 0.26349 0.97617 0.0
C2848 C 0.99649 0.29194 0.16575 0.0
C2849 C 0.9933 0.30976 0.18115 0.0
C2850 C 0.98821 0.2914 0.14337 0.0
C2851 C 0.97647 0.30914 0.13615 0.0
C2852 C 0.97295 0.32707 0.15163 0.0
C2853 C 0.98139 0.32716 0.17396 0.0
C2854 C 0.99223 0.27194 0.12739 0.0
C2855 C 0.96052 0.34628 0.14453 0.0
C2856 C 0.97504 0.31647 0.0744 0.0
C2857 C 0.95429 0.3055 0.06646 0.0
C2858 C 0.98226 0.31826 0.09716 0.0
C2859 C 0.96828 0.30899 0.11228 0.0
C2860 C 0.94693 0.29865 0.1044 0.0
C2861 C 0.94014 0.29714 0.08155 0.0
C2862 C 0.00506 0.32955 0.10493 0.0
C2863 C 0.93152 0.28867 0.12001 0.0
H2864 H 0.00562 0.27839 0.17114 0.0
H2865 H 0.97886 0.341 0.18574 0.0
H2866 H 0.97616 0.26385 0.11928 0.0
H2867 H 0.00207 0.27788 0.11404 0.0
H2868 H 0.00127 0.25926 0.13574 0.0
H2869 H 0.95874 0.35869 0.15871 0.0
H2870 H 0.96939 0.35477 0.13186 0.0
H2871 H 0.94371 0.34006 0.1367 0.0
H2872 H 0.98578 0.32325 0.0627 0.0
H2873 H 0.92393 0.289 0.07537 0.0
H2874 H 0.01569 0.31733 0.11199 0.0
H2875 H 0.00386 0.34292 0.11834 0.0
H2876 H 0.01339 0.33689 0.09123 0.0
H2877 H 0.93912 0.27473 0.12764 0.0
H2878 H 0.91504 0.28227 0.11141 0.0
H2879 H 0.92899 0.30124 0.13375 0.0
loop_
_geom_bond_atom_site_label_1
_geom_bond_atom_site_label_2
_geom_bond_distance
_geom_bond_site_symmetry_2
_ccdc_geom_bond_type
O0 Cd1 2.300 . S
O0 C7 1.275 . S
Cd1 O0 2.300 . S
Cd1 O9 2.381 . S
Cd1 O10 2.378 . S
O2 Cd3 2.385 . S
O2 C7 1.255 . S
Cd3 O2 2.385 . S
Cd3 O4 2.317 . S
O4 Cd3 2.317 . S
O4 C5 1.232 . S
C5 O4 1.232 . S
C5 O6 1.218 . S
O6 C5 1.218 . S
C7 O0 1.275 . S
C7 O2 1.255 . S
C8 O9 1.258 . S
C8 O10 1.256 . S
O9 Cd1 2.381 . S
O9 C8 1.258 . S
O10 Cd1 2.378 . S
O10 C8 1.256 . S
O11 Cd12 2.300 . S
O11 C18 1.275 . S
Cd12 O11 2.300 . S
Cd12 O20 2.381 . S
Cd12 O21 2.378 . S
O13 Cd14 2.385 . S
O13 C18 1.255 . S
Cd14 O13 2.385 . S
Cd14 O15 2.317 . S
O15 Cd14 2.317 . S
O15 C16 1.232 . S
C16 O15 1.232 . S
C16 O17 1.218 . S
O17 C16 1.218 . S
C18 O11 1.275 . S
C18 O13 1.255 . S
C19 O20 1.258 . S
C19 O21 1.256 . S
O20 Cd12 2.381 . S
O20 C19 1.258 . S
O21 Cd12 2.378 . S
O21 C19 1.256 . S
O22 Cd23 2.299 1_545 S
O22 C29 1.274 1_545 S
Cd23 O22 2.299 1_565 S
Cd23 O31 2.381 1_565 S
Cd23 O32 2.378 . S
O24 Cd25 2.385 . S
O24 C29 1.255 . S
Cd25 O24 2.385 . S
Cd25 O26 2.317 . S
O26 Cd25 2.317 . S
O26 C27 1.232 . S
C27 O26 1.232 . S
C27 O28 1.218 . S
O28 C27 1.218 . S
C29 O22 1.274 1_565 S
C29 O24 1.255 . S
C30 O31 1.258 . S
C30 O32 1.256 1_545 S
O31 Cd23 2.381 1_545 S
O31 C30 1.258 . S
O32 Cd23 2.378 . S
O32 C30 1.256 1_565 S
O33 Cd34 2.300 1_565 S
O33 C40 1.275 1_565 S
Cd34 O33 2.300 1_545 S
Cd34 O42 2.381 1_545 S
Cd34 O43 2.378 . S
O35 Cd36 2.385 . S
O35 C40 1.255 . S
Cd36 O35 2.385 . S
Cd36 O37 2.317 . S
O37 Cd36 2.317 . S
O37 C38 1.232 . S
C38 O37 1.232 . S
C38 O39 1.218 . S
O39 C38 1.218 . S
C40 O33 1.275 1_545 S
C40 O35 1.255 . S
C41 O42 1.258 1_545 S
C41 O43 1.256 . S
O42 Cd34 2.381 1_565 S
O42 C41 1.258 1_565 S
O43 Cd34 2.378 . S
O43 C41 1.256 . S
O44 Cd45 2.300 . S
O44 C51 1.275 . S
Cd45 O44 2.300 . S
Cd45 O53 2.381 . S
Cd45 O54 2.378 . S
O46 Cd47 2.385 . S
O46 C51 1.255 . S
Cd47 O46 2.385 . S
Cd47 O48 2.317 . S
O48 Cd47 2.317 . S
O48 C49 1.232 . S
C49 O48 1.232 . S
C49 O50 1.218 . S
O50 C49 1.218 . S
C51 O44 1.275 . S
C51 O46 1.255 . S
C52 O53 1.258 . S
C52 O54 1.256 . S
O53 Cd45 2.381 . S
O53 C52 1.258 . S
O54 Cd45 2.378 . S
O54 C52 1.256 . S
O55 Cd56 2.300 1_556 S
O55 C62 1.275 1_556 S
Cd56 O55 2.300 1_554 S
Cd56 O64 2.381 1_554 S
Cd56 O65 2.378 . S
O57 Cd58 2.385 . S
O57 C62 1.255 . S
Cd58 O57 2.385 . S
Cd58 O59 2.317 . S
O59 Cd58 2.317 . S
O59 C60 1.232 . S
C60 O59 1.232 . S
C60 O61 1.218 . S
O61 C60 1.218 . S
C62 O55 1.275 1_554 S
C62 O57 1.255 . S
C63 O64 1.258 1_554 S
C63 O65 1.256 . S
O64 Cd56 2.381 1_556 S
O64 C63 1.258 1_556 S
O65 Cd56 2.378 . S
O65 C63 1.256 . S
O66 Cd67 2.300 . S
O66 C73 1.275 . S
Cd67 O66 2.300 . S
Cd67 O75 2.381 . S
Cd67 O76 2.378 . S
O68 Cd69 2.385 . S
O68 C73 1.255 . S
Cd69 O68 2.385 . S
Cd69 O70 2.317 . S
O70 Cd69 2.317 . S
O70 C71 1.232 . S
C71 O70 1.232 . S
C71 O72 1.218 . S
O72 C71 1.218 . S
C73 O66 1.275 . S
C73 O68 1.255 . S
C74 O75 1.258 . S
C74 O76 1.256 . S
O75 Cd67 2.381 . S
O75 C74 1.258 . S
O76 Cd67 2.378 . S
O76 C74 1.256 . S
O77 Cd78 2.299 1_554 S
O77 C84 1.274 1_554 S
Cd78 O77 2.299 1_556 S
Cd78 O86 2.381 1_556 S
Cd78 O87 2.378 . S
O79 Cd80 2.385 . S
O79 C84 1.255 . S
Cd80 O79 2.385 . S
Cd80 O81 2.317 . S
O81 Cd80 2.317 . S
O81 C82 1.232 . S
C82 O81 1.232 . S
C82 O83 1.218 . S
O83 C82 1.218 . S
C84 O77 1.274 1_556 S
C84 O79 1.255 . S
C85 O86 1.258 . S
C85 O87 1.256 1_554 S
O86 Cd78 2.381 1_554 S
O86 C85 1.258 . S
O87 Cd78 2.378 . S
O87 C85 1.256 1_556 S
O88 Cd89 2.300 . S
O88 C95 1.275 . S
Cd89 O88 2.300 . S
Cd89 O97 2.381 . S
Cd89 O98 2.378 . S
O90 Cd91 2.385 . S
O90 C95 1.255 . S
Cd91 O90 2.385 . S
Cd91 O92 2.317 . S
O92 Cd91 2.317 . S
O92 C93 1.232 . S
C93 O92 1.232 . S
C93 O94 1.218 . S
O94 C93 1.218 . S
C95 O88 1.275 . S
C95 O90 1.255 . S
C96 O97 1.258 . S
C96 O98 1.256 . S
O97 Cd89 2.381 . S
O97 C96 1.258 . S
O98 Cd89 2.378 . S
O98 C96 1.256 . S
O99 Cd100 2.300 1_655 S
O99 C106 1.275 1_655 S
Cd100 O99 2.300 1_455 S
Cd100 O108 2.381 1_455 S
Cd100 O109 2.378 . S
O101 Cd102 2.385 . S
O101 C106 1.255 . S
Cd102 O101 2.385 . S
Cd102 O103 2.317 . S
O103 Cd102 2.317 . S
O103 C104 1.232 . S
C104 O103 1.232 . S
C104 O105 1.218 . S
O105 C104 1.218 . S
C106 O99 1.275 1_455 S
C106 O101 1.255 . S
C107 O108 1.258 1_455 S
C107 O109 1.256 . S
O108 Cd100 2.381 1_655 S
O108 C107 1.258 1_655 S
O109 Cd100 2.378 . S
O109 C107 1.256 . S
O110 Cd111 2.300 . S
O110 C117 1.275 . S
Cd111 O110 2.300 . S
Cd111 O119 2.381 . S
Cd111 O120 2.378 . S
O112 Cd113 2.385 . S
O112 C117 1.255 . S
Cd113 O112 2.385 . S
Cd113 O114 2.317 . S
O114 Cd113 2.317 . S
O114 C115 1.232 . S
C115 O114 1.232 . S
C115 O116 1.218 . S
O116 C115 1.218 . S
C117 O110 1.275 . S
C117 O112 1.255 . S
C118 O119 1.258 . S
C118 O120 1.256 . S
O119 Cd111 2.381 . S
O119 C118 1.258 . S
O120 Cd111 2.378 . S
O120 C118 1.256 . S
O121 Cd122 2.299 1_455 S
O121 C128 1.274 1_455 S
Cd122 O121 2.299 1_655 S
Cd122 O130 2.381 1_655 S
Cd122 O131 2.378 . S
O123 Cd124 2.385 . S
O123 C128 1.255 . S
Cd124 O123 2.385 . S
Cd124 O125 2.317 . S
O125 Cd124 2.317 . S
O125 C126 1.232 . S
C126 O125 1.232 . S
C126 O127 1.218 . S
O127 C126 1.218 . S
C128 O121 1.274 1_655 S
C128 O123 1.255 . S
C129 O130 1.258 . S
C129 O131 1.256 1_455 S
O130 Cd122 2.381 1_455 S
O130 C129 1.258 . S
O131 Cd122 2.378 . S
O131 C129 1.256 1_655 S
O132 Cd133 2.300 . S
O132 C139 1.275 . S
Cd133 O132 2.300 . S
Cd133 O141 2.381 . S
Cd133 O142 2.378 . S
O134 Cd135 2.385 . S
O134 C139 1.255 . S
Cd135 O134 2.385 . S
Cd135 O136 2.317 . S
O136 Cd135 2.317 . S
O136 C137 1.232 . S
C137 O136 1.232 . S
C137 O138 1.218 . S
O138 C137 1.218 . S
C139 O132 1.275 . S
C139 O134 1.255 . S
C140 O141 1.258 . S
C140 O142 1.256 . S
O141 Cd133 2.381 . S
O141 C140 1.258 . S
O142 Cd133 2.378 . S
O142 C140 1.256 . S
O143 Cd144 2.300 . S
O143 C150 1.275 . S
Cd144 O143 2.300 . S
Cd144 O152 2.381 . S
Cd144 O153 2.378 . S
O145 Cd146 2.385 . S
O145 C150 1.255 . S
Cd146 O145 2.385 . S
Cd146 O147 2.317 . S
O147 Cd146 2.317 . S
O147 C148 1.232 . S
C148 O147 1.232 . S
C148 O149 1.218 . S
O149 C148 1.218 . S
C150 O143 1.275 . S
C150 O145 1.255 . S
C151 O152 1.258 . S
C151 O153 1.256 . S
O152 Cd144 2.381 . S
O152 C151 1.258 . S
O153 Cd144 2.378 . S
O153 C151 1.256 . S
O154 Cd155 2.300 1_545 S
O154 C161 1.275 . S
Cd155 O154 2.300 1_565 S
Cd155 O163 2.381 1_565 S
Cd155 O164 2.378 . S
O156 Cd157 2.385 . S
O156 C161 1.255 1_565 S
Cd157 O156 2.385 . S
Cd157 O158 2.317 . S
O158 Cd157 2.317 . S
O158 C159 1.232 . S
C159 O158 1.232 . S
C159 O160 1.218 . S
O160 C159 1.218 . S
C161 O154 1.275 . S
C161 O156 1.255 1_545 S
C162 O163 1.258 1_565 S
C162 O164 1.256 . S
O163 Cd155 2.381 1_545 S
O163 C162 1.258 1_545 S
O164 Cd155 2.378 . S
O164 C162 1.256 . S
O165 Cd166 2.300 1_565 S
O165 C172 1.275 1_565 S
Cd166 O165 2.300 1_545 S
Cd166 O174 2.381 1_545 S
Cd166 O175 2.378 . S
O167 Cd168 2.385 . S
O167 C172 1.255 . S
Cd168 O167 2.385 . S
Cd168 O169 2.317 . S
O169 Cd168 2.317 . S
O169 C170 1.232 . S
C170 O169 1.232 . S
C170 O171 1.218 . S
O171 C170 1.218 . S
C172 O165 1.275 1_545 S
C172 O167 1.255 . S
C173 O174 1.258 1_545 S
C173 O175 1.256 . S
O174 Cd166 2.381 1_565 S
O174 C173 1.258 1_565 S
O175 Cd166 2.378 . S
O175 C173 1.256 . S
O176 Cd177 2.300 . S
O176 C183 1.275 . S
Cd177 O176 2.300 . S
Cd177 O185 2.381 . S
Cd177 O186 2.378 . S
O178 Cd179 2.385 . S
O178 C183 1.255 . S
Cd179 O178 2.385 . S
Cd179 O180 2.317 . S
O180 Cd179 2.317 . S
O180 C181 1.232 . S
C181 O180 1.232 . S
C181 O182 1.218 . S
O182 C181 1.218 . S
C183 O176 1.275 . S
C183 O178 1.255 . S
C184 O185 1.258 . S
C184 O186 1.256 . S
O185 Cd177 2.381 . S
O185 C184 1.258 . S
O186 Cd177 2.378 . S
O186 C184 1.256 . S
O187 Cd188 2.300 1_556 S
O187 C194 1.275 1_556 S
Cd188 O187 2.300 1_554 S
Cd188 O196 2.381 1_554 S
Cd188 O197 2.378 . S
O189 Cd190 2.385 . S
O189 C194 1.255 . S
Cd190 O189 2.385 . S
Cd190 O191 2.317 . S
O191 Cd190 2.317 . S
O191 C192 1.232 . S
C192 O191 1.232 . S
C192 O193 1.218 . S
O193 C192 1.218 . S
C194 O187 1.275 1_554 S
C194 O189 1.255 . S
C195 O196 1.258 1_554 S
C195 O197 1.256 . S
O196 Cd188 2.381 1_556 S
O196 C195 1.258 1_556 S
O197 Cd188 2.378 . S
O197 C195 1.256 . S
O198 Cd199 2.300 . S
O198 C205 1.275 . S
Cd199 O198 2.300 . S
Cd199 O207 2.381 . S
Cd199 O208 2.378 . S
O200 Cd201 2.385 . S
O200 C205 1.255 . S
Cd201 O200 2.385 . S
Cd201 O202 2.317 . S
O202 Cd201 2.317 . S
O202 C203 1.232 . S
C203 O202 1.232 . S
C203 O204 1.218 . S
O204 C203 1.218 . S
C205 O198 1.275 . S
C205 O200 1.255 . S
C206 O207 1.258 . S
C206 O208 1.256 . S
O207 Cd199 2.381 . S
O207 C206 1.258 . S
O208 Cd199 2.378 . S
O208 C206 1.256 . S
O209 Cd210 2.300 1_554 S
O209 C216 1.275 . S
Cd210 O209 2.300 1_556 S
Cd210 O218 2.381 1_556 S
Cd210 O219 2.378 . S
O211 Cd212 2.385 . S
O211 C216 1.255 1_556 S
Cd212 O211 2.385 . S
Cd212 O213 2.317 . S
O213 Cd212 2.317 . S
O213 C214 1.232 . S
C214 O213 1.232 . S
C214 O215 1.218 . S
O215 C214 1.218 . S
C216 O209 1.275 . S
C216 O211 1.255 1_554 S
C217 O218 1.258 1_556 S
C217 O219 1.256 . S
O218 Cd210 2.381 1_554 S
O218 C217 1.258 1_554 S
O219 Cd210 2.378 . S
O219 C217 1.256 . S
O220 Cd221 2.300 . S
O220 C227 1.275 . S
Cd221 O220 2.300 . S
Cd221 O229 2.381 . S
Cd221 O230 2.378 . S
O222 Cd223 2.385 . S
O222 C227 1.255 . S
Cd223 O222 2.385 . S
Cd223 O224 2.317 . S
O224 Cd223 2.317 . S
O224 C225 1.232 . S
C225 O224 1.232 . S
C225 O226 1.218 . S
O226 C225 1.218 . S
C227 O220 1.275 . S
C227 O222 1.255 . S
C228 O229 1.258 . S
C228 O230 1.256 . S
O229 Cd221 2.381 . S
O229 C228 1.258 . S
O230 Cd221 2.378 . S
O230 C228 1.256 . S
O231 Cd232 2.300 1_655 S
O231 C238 1.275 1_655 S
Cd232 O231 2.300 1_455 S
Cd232 O240 2.381 1_455 S
Cd232 O241 2.378 . S
O233 Cd234 2.385 . S
O233 C238 1.255 . S
Cd234 O233 2.385 . S
Cd234 O235 2.317 . S
O235 Cd234 2.317 . S
O235 C236 1.232 . S
C236 O235 1.232 . S
C236 O237 1.218 . S
O237 C236 1.218 . S
C238 O231 1.275 1_455 S
C238 O233 1.255 . S
C239 O240 1.258 1_455 S
C239 O241 1.256 . S
O240 Cd232 2.381 1_655 S
O240 C239 1.258 1_655 S
O241 Cd232 2.378 . S
O241 C239 1.256 . S
O242 Cd243 2.300 . S
O242 C249 1.275 . S
Cd243 O242 2.300 . S
Cd243 O251 2.381 . S
Cd243 O252 2.378 . S
O244 Cd245 2.385 . S
O244 C249 1.255 . S
Cd245 O244 2.385 . S
Cd245 O246 2.317 . S
O246 Cd245 2.317 . S
O246 C247 1.232 . S
C247 O246 1.232 . S
C247 O248 1.218 . S
O248 C247 1.218 . S
C249 O242 1.275 . S
C249 O244 1.255 . S
C250 O251 1.258 . S
C250 O252 1.256 . S
O251 Cd243 2.381 . S
O251 C250 1.258 . S
O252 Cd243 2.378 . S
O252 C250 1.256 . S
O253 Cd254 2.300 1_455 S
O253 C260 1.275 . S
Cd254 O253 2.300 1_655 S
Cd254 O262 2.381 1_655 S
Cd254 O263 2.378 . S
O255 Cd256 2.385 . S
O255 C260 1.255 1_655 S
Cd256 O255 2.385 . S
Cd256 O257 2.317 . S
O257 Cd256 2.317 . S
O257 C258 1.232 . S
C258 O257 1.232 . S
C258 O259 1.218 . S
O259 C258 1.218 . S
C260 O253 1.275 . S
C260 O255 1.255 1_455 S
C261 O262 1.258 1_655 S
C261 O263 1.256 . S
O262 Cd254 2.381 1_455 S
O262 C261 1.258 1_455 S
O263 Cd254 2.378 . S
O263 C261 1.256 . S
H264 C271 0.929 . S
H265 C274 0.930 . S
H266 C276 0.929 . S
H267 C268 0.969 . S
C268 H267 0.969 . S
C268 O269 1.550 . S
C268 H270 0.973 . S
O269 C268 1.550 . S
O269 C275 1.412 . S
H270 C268 0.973 . S
C271 H264 0.929 . S
C271 C272 1.400 . S
C271 C273 1.364 . S
C272 C271 1.400 . S
C272 C276 1.377 . S
C273 C271 1.364 . S
C273 C274 1.374 . S
C274 H265 0.930 . S
C274 C273 1.374 . S
C274 C275 1.383 . S
C275 O269 1.412 . S
C275 C274 1.383 . S
C275 C276 1.394 . S
C276 H266 0.929 . S
C276 C272 1.377 . S
C276 C275 1.394 . S
H277 C284 0.929 . S
H278 C287 0.930 . S
H279 C289 0.929 . S
H280 C281 0.969 . S
C281 H280 0.969 . S
C281 O282 1.550 . S
C281 H283 0.973 . S
O282 C281 1.550 . S
O282 C288 1.412 . S
H283 C281 0.973 . S
C284 H277 0.929 . S
C284 C285 1.400 . S
C284 C286 1.364 . S
C285 C284 1.400 . S
C285 C289 1.377 . S
C286 C284 1.364 . S
C286 C287 1.374 . S
C287 H278 0.930 . S
C287 C286 1.374 . S
C287 C288 1.383 . S
C288 O282 1.412 . S
C288 C287 1.383 . S
C288 C289 1.394 . S
C289 H279 0.929 . S
C289 C285 1.377 . S
C289 C288 1.394 . S
H290 C297 0.929 . S
H291 C300 0.930 . S
H292 C302 0.929 . S
H293 C294 0.969 . S
C294 H293 0.969 . S
C294 O295 1.550 . S
C294 H296 0.973 . S
O295 C294 1.550 . S
O295 C301 1.412 . S
H296 C294 0.973 . S
C297 H290 0.929 . S
C297 C298 1.400 . S
C297 C299 1.364 . S
C298 C297 1.400 . S
C298 C302 1.377 . S
C299 C297 1.364 . S
C299 C300 1.374 1_565 S
C300 H291 0.930 . S
C300 C299 1.374 1_545 S
C300 C301 1.383 . S
C301 O295 1.412 . S
C301 C300 1.383 . S
C301 C302 1.394 1_545 S
C302 H292 0.929 . S
C302 C298 1.377 . S
C302 C301 1.394 1_565 S
H303 C310 0.929 1_545 S
H304 C313 0.930 . S
H305 C315 0.929 . S
H306 C307 0.969 . S
C307 H306 0.969 . S
C307 O308 1.550 . S
C307 H309 0.973 . S
O308 C307 1.550 . S
O308 C314 1.412 . S
H309 C307 0.973 . S
C310 H303 0.929 1_565 S
C310 C311 1.400 . S
C310 C312 1.364 . S
C311 C310 1.400 . S
C311 C315 1.377 . S
C312 C310 1.364 . S
C312 C313 1.374 . S
C313 H304 0.930 . S
C313 C312 1.374 . S
C313 C314 1.383 . S
C314 O308 1.412 . S
C314 C313 1.383 . S
C314 C315 1.394 . S
C315 H305 0.929 . S
C315 C311 1.377 . S
C315 C314 1.394 . S
H316 C323 0.929 . S
H317 C326 0.930 . S
H318 C328 0.929 . S
H319 C320 0.969 . S
C320 H319 0.969 . S
C320 O321 1.550 . S
C320 H322 0.973 . S
O321 C320 1.550 . S
O321 C327 1.412 . S
H322 C320 0.973 . S
C323 H316 0.929 . S
C323 C324 1.400 . S
C323 C325 1.364 . S
C324 C323 1.400 . S
C324 C328 1.377 . S
C325 C323 1.364 . S
C325 C326 1.374 . S
C326 H317 0.930 . S
C326 C325 1.374 . S
C326 C327 1.383 . S
C327 O321 1.412 . S
C327 C326 1.383 . S
C327 C328 1.394 . S
C328 H318 0.929 . S
C328 C324 1.377 . S
C328 C327 1.394 . S
H329 C336 0.929 1_554 S
H330 C339 0.930 . S
H331 C341 0.929 . S
H332 C333 0.969 . S
C333 H332 0.969 . S
C333 O334 1.550 . S
C333 H335 0.973 . S
O334 C333 1.550 . S
O334 C340 1.412 . S
H335 C333 0.973 . S
C336 H329 0.929 1_556 S
C336 C337 1.400 . S
C336 C338 1.364 . S
C337 C336 1.400 . S
C337 C341 1.377 . S
C338 C336 1.364 . S
C338 C339 1.374 . S
C339 H330 0.930 . S
C339 C338 1.374 . S
C339 C340 1.383 . S
C340 O334 1.412 . S
C340 C339 1.383 . S
C340 C341 1.394 . S
C341 H331 0.929 . S
C341 C337 1.377 . S
C341 C340 1.394 . S
H342 C349 0.929 . S
H343 C352 0.930 . S
H344 C354 0.929 . S
H345 C346 0.969 . S
C346 H345 0.969 . S
C346 O347 1.550 . S
C346 H348 0.973 . S
O347 C346 1.550 . S
O347 C353 1.412 . S
H348 C346 0.973 . S
C349 H342 0.929 . S
C349 C350 1.400 . S
C349 C351 1.364 . S
C350 C349 1.400 . S
C350 C354 1.377 . S
C351 C349 1.364 . S
C351 C352 1.374 . S
C352 H343 0.930 . S
C352 C351 1.374 . S
C352 C353 1.383 . S
C353 O347 1.412 . S
C353 C352 1.383 . S
C353 C354 1.394 . S
C354 H344 0.929 . S
C354 C350 1.377 . S
C354 C353 1.394 . S
H355 C362 0.929 . S
H356 C365 0.930 . S
H357 C367 0.929 . S
H358 C359 0.969 . S
C359 H358 0.969 . S
C359 O360 1.550 . S
C359 H361 0.973 . S
O360 C359 1.550 . S
O360 C366 1.412 . S
H361 C359 0.973 . S
C362 H355 0.929 . S
C362 C363 1.400 . S
C362 C364 1.364 . S
C363 C362 1.400 . S
C363 C367 1.377 . S
C364 C362 1.364 . S
C364 C365 1.374 1_556 S
C365 H356 0.930 . S
C365 C364 1.374 1_554 S
C365 C366 1.383 . S
C366 O360 1.412 . S
C366 C365 1.383 . S
C366 C367 1.394 1_554 S
C367 H357 0.929 . S
C367 C363 1.377 . S
C367 C366 1.394 1_556 S
H368 C375 0.929 . S
H369 C378 0.930 . S
H370 C380 0.929 . S
H371 C372 0.969 . S
C372 H371 0.969 . S
C372 O373 1.550 . S
C372 H374 0.973 . S
O373 C372 1.550 . S
O373 C379 1.412 . S
H374 C372 0.973 . S
C375 H368 0.929 . S
C375 C376 1.400 . S
C375 C377 1.364 . S
C376 C375 1.400 . S
C376 C380 1.377 . S
C377 C375 1.364 . S
C377 C378 1.374 . S
C378 H369 0.930 . S
C378 C377 1.374 . S
C378 C379 1.383 . S
C379 O373 1.412 . S
C379 C378 1.383 . S
C379 C380 1.394 . S
C380 H370 0.929 . S
C380 C376 1.377 . S
C380 C379 1.394 . S
H381 C388 0.929 1_455 S
H382 C391 0.930 . S
H383 C393 0.929 . S
H384 C385 0.969 . S
C385 H384 0.969 . S
C385 O386 1.550 . S
C385 H387 0.973 . S
O386 C385 1.550 . S
O386 C392 1.412 . S
H387 C385 0.973 . S
C388 H381 0.929 1_655 S
C388 C389 1.400 . S
C388 C390 1.364 . S
C389 C388 1.400 . S
C389 C393 1.377 . S
C390 C388 1.364 . S
C390 C391 1.374 . S
C391 H382 0.930 . S
C391 C390 1.374 . S
C391 C392 1.383 . S
C392 O386 1.412 . S
C392 C391 1.383 . S
C392 C393 1.394 . S
C393 H383 0.929 . S
C393 C389 1.377 . S
C393 C392 1.394 . S
H394 C401 0.929 . S
H395 C404 0.930 . S
H396 C406 0.929 . S
H397 C398 0.969 . S
C398 H397 0.969 . S
C398 O399 1.550 . S
C398 H400 0.973 . S
O399 C398 1.550 . S
O399 C405 1.412 . S
H400 C398 0.973 . S
C401 H394 0.929 . S
C401 C402 1.400 . S
C401 C403 1.364 . S
C402 C401 1.400 . S
C402 C406 1.377 . S
C403 C401 1.364 . S
C403 C404 1.374 . S
C404 H395 0.930 . S
C404 C403 1.374 . S
C404 C405 1.383 . S
C405 O399 1.412 . S
C405 C404 1.383 . S
C405 C406 1.394 . S
C406 H396 0.929 . S
C406 C402 1.377 . S
C406 C405 1.394 . S
H407 C414 0.929 . S
H408 C417 0.930 . S
H409 C419 0.929 . S
H410 C411 0.969 . S
C411 H410 0.969 . S
C411 O412 1.550 . S
C411 H413 0.973 . S
O412 C411 1.550 . S
O412 C418 1.412 . S
H413 C411 0.973 . S
C414 H407 0.929 . S
C414 C415 1.400 . S
C414 C416 1.364 . S
C415 C414 1.400 . S
C415 C419 1.377 . S
C416 C414 1.364 . S
C416 C417 1.374 1_655 S
C417 H408 0.930 . S
C417 C416 1.374 1_455 S
C417 C418 1.383 . S
C418 O412 1.412 . S
C418 C417 1.383 . S
C418 C419 1.394 1_455 S
C419 H409 0.929 . S
C419 C415 1.377 . S
C419 C418 1.394 1_655 S
H420 C427 0.929 . S
H421 C430 0.930 . S
H422 C432 0.929 . S
H423 C424 0.969 . S
C424 H423 0.969 . S
C424 O425 1.550 . S
C424 H426 0.973 . S
O425 C424 1.550 . S
O425 C431 1.412 . S
H426 C424 0.973 . S
C427 H420 0.929 . S
C427 C428 1.400 . S
C427 C429 1.364 . S
C428 C427 1.400 . S
C428 C432 1.377 . S
C429 C427 1.364 . S
C429 C430 1.374 . S
C430 H421 0.930 . S
C430 C429 1.374 . S
C430 C431 1.383 . S
C431 O425 1.412 . S
C431 C430 1.383 . S
C431 C432 1.394 . S
C432 H422 0.929 . S
C432 C428 1.377 . S
C432 C431 1.394 . S
H433 C440 0.929 . S
H434 C443 0.930 . S
H435 C445 0.929 . S
H436 C437 0.969 . S
C437 H436 0.969 . S
C437 O438 1.550 . S
C437 H439 0.973 . S
O438 C437 1.550 . S
O438 C444 1.412 . S
H439 C437 0.973 . S
C440 H433 0.929 . S
C440 C441 1.400 . S
C440 C442 1.364 . S
C441 C440 1.400 . S
C441 C445 1.377 . S
C442 C440 1.364 . S
C442 C443 1.374 . S
C443 H434 0.930 . S
C443 C442 1.374 . S
C443 C444 1.383 . S
C444 O438 1.412 . S
C444 C443 1.383 . S
C444 C445 1.394 . S
C445 H435 0.929 . S
C445 C441 1.377 . S
C445 C444 1.394 . S
H446 C453 0.929 . S
H447 C456 0.930 . S
H448 C458 0.929 . S
H449 C450 0.969 . S
C450 H449 0.969 . S
C450 O451 1.550 . S
C450 H452 0.973 . S
O451 C450 1.550 . S
O451 C457 1.412 . S
H452 C450 0.973 . S
C453 H446 0.929 . S
C453 C454 1.400 . S
C453 C455 1.364 . S
C454 C453 1.400 . S
C454 C458 1.377 . S
C455 C453 1.364 . S
C455 C456 1.374 1_545 S
C456 H447 0.930 . S
C456 C455 1.374 1_565 S
C456 C457 1.383 . S
C457 O451 1.412 . S
C457 C456 1.383 . S
C457 C458 1.394 1_565 S
C458 H448 0.929 . S
C458 C454 1.377 . S
C458 C457 1.394 1_545 S
H459 C466 0.929 1_565 S
H460 C469 0.930 . S
H461 C471 0.929 . S
H462 C463 0.969 . S
C463 H462 0.969 . S
C463 O464 1.550 . S
C463 H465 0.973 . S
O464 C463 1.550 . S
O464 C470 1.412 . S
H465 C463 0.973 . S
C466 H459 0.929 1_545 S
C466 C467 1.400 . S
C466 C468 1.364 . S
C467 C466 1.400 . S
C467 C471 1.377 . S
C468 C466 1.364 . S
C468 C469 1.374 . S
C469 H460 0.930 . S
C469 C468 1.374 . S
C469 C470 1.383 . S
C470 O464 1.412 . S
C470 C469 1.383 . S
C470 C471 1.394 . S
C471 H461 0.929 . S
C471 C467 1.377 . S
C471 C470 1.394 . S
H472 C479 0.929 . S
H473 C482 0.930 . S
H474 C484 0.929 . S
H475 C476 0.969 . S
C476 H475 0.969 . S
C476 O477 1.550 . S
C476 H478 0.973 . S
O477 C476 1.550 . S
O477 C483 1.412 . S
H478 C476 0.973 . S
C479 H472 0.929 . S
C479 C480 1.400 . S
C479 C481 1.364 . S
C480 C479 1.400 . S
C480 C484 1.377 . S
C481 C479 1.364 . S
C481 C482 1.374 . S
C482 H473 0.930 . S
C482 C481 1.374 . S
C482 C483 1.383 . S
C483 O477 1.412 . S
C483 C482 1.383 . S
C483 C484 1.394 . S
C484 H474 0.929 . S
C484 C480 1.377 . S
C484 C483 1.394 . S
H485 C492 0.929 1_556 S
H486 C495 0.930 . S
H487 C497 0.929 . S
H488 C489 0.969 . S
C489 H488 0.969 . S
C489 O490 1.550 . S
C489 H491 0.973 . S
O490 C489 1.550 . S
O490 C496 1.412 . S
H491 C489 0.973 . S
C492 H485 0.929 1_554 S
C492 C493 1.400 . S
C492 C494 1.364 . S
C493 C492 1.400 . S
C493 C497 1.377 . S
C494 C492 1.364 . S
C494 C495 1.374 . S
C495 H486 0.930 . S
C495 C494 1.374 . S
C495 C496 1.383 . S
C496 O490 1.412 . S
C496 C495 1.383 . S
C496 C497 1.394 . S
C497 H487 0.929 . S
C497 C493 1.377 . S
C497 C496 1.394 . S
H498 C505 0.929 . S
H499 C508 0.930 . S
H500 C510 0.929 . S
H501 C502 0.969 . S
C502 H501 0.969 . S
C502 O503 1.550 . S
C502 H504 0.973 . S
O503 C502 1.550 . S
O503 C509 1.412 . S
H504 C502 0.973 . S
C505 H498 0.929 . S
C505 C506 1.400 . S
C505 C507 1.364 . S
C506 C505 1.400 . S
C506 C510 1.377 . S
C507 C505 1.364 . S
C507 C508 1.374 . S
C508 H499 0.930 . S
C508 C507 1.374 . S
C508 C509 1.383 . S
C509 O503 1.412 . S
C509 C508 1.383 . S
C509 C510 1.394 . S
C510 H500 0.929 . S
C510 C506 1.377 . S
C510 C509 1.394 . S
H511 C518 0.929 . S
H512 C521 0.930 . S
H513 C523 0.929 . S
H514 C515 0.969 . S
C515 H514 0.969 . S
C515 O516 1.550 . S
C515 H517 0.973 . S
O516 C515 1.550 . S
O516 C522 1.412 . S
H517 C515 0.973 . S
C518 H511 0.929 . S
C518 C519 1.400 . S
C518 C520 1.364 . S
C519 C518 1.400 . S
C519 C523 1.377 . S
C520 C518 1.364 . S
C520 C521 1.374 1_554 S
C521 H512 0.930 . S
C521 C520 1.374 1_556 S
C521 C522 1.383 . S
C522 O516 1.412 . S
C522 C521 1.383 . S
C522 C523 1.394 1_556 S
C523 H513 0.929 . S
C523 C519 1.377 . S
C523 C522 1.394 1_554 S
H524 C531 0.929 . S
H525 C534 0.930 . S
H526 C536 0.929 . S
H527 C528 0.969 . S
C528 H527 0.969 . S
C528 O529 1.550 . S
C528 H530 0.973 . S
O529 C528 1.550 . S
O529 C535 1.412 . S
H530 C528 0.973 . S
C531 H524 0.929 . S
C531 C532 1.400 . S
C531 C533 1.364 . S
C532 C531 1.400 . S
C532 C536 1.377 . S
C533 C531 1.364 . S
C533 C534 1.374 . S
C534 H525 0.930 . S
C534 C533 1.374 . S
C534 C535 1.383 . S
C535 O529 1.412 . S
C535 C534 1.383 . S
C535 C536 1.394 . S
C536 H526 0.929 . S
C536 C532 1.377 . S
C536 C535 1.394 . S
H537 C544 0.929 1_655 S
H538 C547 0.930 . S
H539 C549 0.929 . S
H540 C541 0.969 . S
C541 H540 0.969 . S
C541 O542 1.550 . S
C541 H543 0.973 . S
O542 C541 1.550 . S
O542 C548 1.412 . S
H543 C541 0.973 . S
C544 H537 0.929 1_455 S
C544 C545 1.400 . S
C544 C546 1.364 . S
C545 C544 1.400 . S
C545 C549 1.377 . S
C546 C544 1.364 . S
C546 C547 1.374 . S
C547 H538 0.930 . S
C547 C546 1.374 . S
C547 C548 1.383 . S
C548 O542 1.412 . S
C548 C547 1.383 . S
C548 C549 1.394 . S
C549 H539 0.929 . S
C549 C545 1.377 . S
C549 C548 1.394 . S
H550 C557 0.929 . S
H551 C560 0.930 . S
H552 C562 0.929 . S
H553 C554 0.969 . S
C554 H553 0.969 . S
C554 O555 1.550 . S
C554 H556 0.973 . S
O555 C554 1.550 . S
O555 C561 1.412 . S
H556 C554 0.973 . S
C557 H550 0.929 . S
C557 C558 1.400 . S
C557 C559 1.364 . S
C558 C557 1.400 . S
C558 C562 1.377 . S
C559 C557 1.364 . S
C559 C560 1.374 . S
C560 H551 0.930 . S
C560 C559 1.374 . S
C560 C561 1.383 . S
C561 O555 1.412 . S
C561 C560 1.383 . S
C561 C562 1.394 . S
C562 H552 0.929 . S
C562 C558 1.377 . S
C562 C561 1.394 . S
H563 C570 0.929 . S
H564 C573 0.930 . S
H565 C575 0.929 . S
H566 C567 0.969 . S
C567 H566 0.969 . S
C567 O568 1.550 . S
C567 H569 0.973 . S
O568 C567 1.550 . S
O568 C574 1.412 . S
H569 C567 0.973 . S
C570 H563 0.929 . S
C570 C571 1.400 . S
C570 C572 1.364 . S
C571 C570 1.400 . S
C571 C575 1.377 . S
C572 C570 1.364 . S
C572 C573 1.374 1_455 S
C573 H564 0.930 . S
C573 C572 1.374 1_655 S
C573 C574 1.383 . S
C574 O568 1.412 . S
C574 C573 1.383 . S
C574 C575 1.394 1_655 S
C575 H565 0.929 . S
C575 C571 1.377 . S
C575 C574 1.394 1_455 S
C576 C577 1.391 . S
C576 C578 1.394 . S
C576 H592 0.931 . S
C577 C576 1.391 . S
C577 C581 1.376 . S
C578 C576 1.394 . S
C578 C579 1.369 . S
C578 C582 1.531 . S
C579 C578 1.369 . S
C579 C580 1.410 . S
C579 C587 1.503 . S
C580 C579 1.410 . S
C580 C581 1.392 . S
C580 C583 1.511 . S
C581 C577 1.376 . S
C581 C580 1.392 . S
C581 H593 0.929 . S
C582 C578 1.531 . S
C582 H594 0.960 . S
C582 H595 0.962 . S
C582 H596 0.960 . S
C583 C580 1.511 . S
C583 H597 0.961 . S
C583 H598 0.961 . S
C583 H599 0.961 . S
C584 C585 1.370 . S
C584 C586 1.363 . S
C584 H600 0.931 . S
C585 C584 1.370 . S
C585 C589 1.408 . S
C586 C584 1.363 . S
C586 C587 1.370 . S
C586 C590 1.524 . S
C587 C579 1.503 . S
C587 C586 1.370 . S
C587 C588 1.403 . S
C588 C587 1.403 . S
C588 C589 1.404 . S
C588 C591 1.539 . S
C589 C585 1.408 . S
C589 C588 1.404 . S
C589 H601 0.930 . S
C590 C586 1.524 . S
C590 H602 0.956 . S
C590 H603 0.961 . S
C590 H604 0.961 . S
C591 C588 1.539 . S
C591 H605 0.958 . S
C591 H606 0.961 . S
C591 H607 0.960 . S
H592 C576 0.931 . S
H593 C581 0.929 . S
H594 C582 0.960 . S
H595 C582 0.962 . S
H596 C582 0.960 . S
H597 C583 0.961 . S
H598 C583 0.961 . S
H599 C583 0.961 . S
H600 C584 0.931 . S
H601 C589 0.930 . S
H602 C590 0.956 . S
H603 C590 0.961 . S
H604 C590 0.961 . S
H605 C591 0.958 . S
H606 C591 0.961 . S
H607 C591 0.960 . S
C608 C609 1.391 . S
C608 C610 1.394 . S
C608 H624 0.931 . S
C609 C608 1.391 . S
C609 C613 1.376 . S
C610 C608 1.394 . S
C610 C611 1.369 . S
C610 C614 1.531 . S
C611 C610 1.369 . S
C611 C612 1.410 . S
C611 C619 1.503 . S
C612 C611 1.410 . S
C612 C613 1.392 . S
C612 C615 1.511 . S
C613 C609 1.376 . S
C613 C612 1.392 . S
C613 H625 0.929 . S
C614 C610 1.531 . S
C614 H626 0.960 . S
C614 H627 0.962 . S
C614 H628 0.960 . S
C615 C612 1.511 . S
C615 H629 0.961 . S
C615 H630 0.961 . S
C615 H631 0.961 . S
C616 C617 1.370 . S
C616 C618 1.363 . S
C616 H632 0.931 . S
C617 C616 1.370 . S
C617 C621 1.408 . S
C618 C616 1.363 . S
C618 C619 1.370 . S
C618 C622 1.524 . S
C619 C611 1.503 . S
C619 C618 1.370 . S
C619 C620 1.403 . S
C620 C619 1.403 . S
C620 C621 1.404 . S
C620 C623 1.539 . S
C621 C617 1.408 . S
C621 C620 1.404 . S
C621 H633 0.930 . S
C622 C618 1.524 . S
C622 H634 0.956 . S
C622 H635 0.961 . S
C622 H636 0.961 . S
C623 C620 1.539 . S
C623 H637 0.958 . S
C623 H638 0.961 . S
C623 H639 0.960 . S
H624 C608 0.931 . S
H625 C613 0.929 . S
H626 C614 0.960 . S
H627 C614 0.962 . S
H628 C614 0.960 . S
H629 C615 0.961 . S
H630 C615 0.961 . S
H631 C615 0.961 . S
H632 C616 0.931 . S
H633 C621 0.930 . S
H634 C622 0.956 . S
H635 C622 0.961 . S
H636 C622 0.961 . S
H637 C623 0.958 . S
H638 C623 0.961 . S
H639 C623 0.960 . S
C640 C641 1.391 . S
C640 C642 1.394 . S
C640 H656 0.931 . S
C641 C640 1.391 . S
C641 C645 1.376 1_545 S
C642 C640 1.394 . S
C642 C643 1.369 . S
C642 C646 1.531 . S
C643 C642 1.369 . S
C643 C644 1.410 1_545 S
C643 C651 1.503 . S
C644 C643 1.410 1_565 S
C644 C645 1.392 . S
C644 C647 1.511 . S
C645 C641 1.376 1_565 S
C645 C644 1.392 . S
C645 H657 0.929 . S
C646 C642 1.531 . S
C646 H658 0.960 . S
C646 H659 0.962 . S
C646 H660 0.960 . S
C647 C644 1.511 . S
C647 H661 0.961 . S
C647 H662 0.961 . S
C647 H663 0.961 . S
C648 C649 1.370 . S
C648 C650 1.363 . S
C648 H664 0.931 . S
C649 C648 1.370 . S
C649 C653 1.408 . S
C650 C648 1.363 . S
C650 C651 1.370 . S
C650 C654 1.524 . S
C651 C643 1.503 . S
C651 C650 1.370 . S
C651 C652 1.403 . S
C652 C651 1.403 . S
C652 C653 1.404 . S
C652 C655 1.539 1_545 S
C653 C649 1.408 . S
C653 C652 1.404 . S
C653 H665 0.930 . S
C654 C650 1.524 . S
C654 H666 0.956 . S
C654 H667 0.961 . S
C654 H668 0.961 . S
C655 C652 1.539 1_565 S
C655 H669 0.958 1_565 S
C655 H670 0.961 . S
C655 H671 0.960 . S
H656 C640 0.931 . S
H657 C645 0.929 . S
H658 C646 0.960 . S
H659 C646 0.962 . S
H660 C646 0.960 . S
H661 C647 0.961 . S
H662 C647 0.961 . S
H663 C647 0.961 . S
H664 C648 0.931 . S
H665 C653 0.930 . S
H666 C654 0.956 . S
H667 C654 0.961 . S
H668 C654 0.961 . S
H669 C655 0.958 1_545 S
H670 C655 0.961 . S
H671 C655 0.960 . S
C672 C673 1.391 1_545 S
C672 C674 1.394 . S
C672 H688 0.931 . S
C673 C672 1.391 1_565 S
C673 C677 1.376 . S
C674 C672 1.394 . S
C674 C675 1.369 1_545 S
C674 C678 1.531 . S
C675 C674 1.369 1_565 S
C675 C676 1.410 . S
C675 C683 1.503 . S
C676 C675 1.410 . S
C676 C677 1.392 . S
C676 C679 1.511 . S
C677 C673 1.376 . S
C677 C676 1.392 . S
C677 H689 0.929 . S
C678 C674 1.531 . S
C678 H690 0.960 . S
C678 H691 0.962 . S
C678 H692 0.960 . S
C679 C676 1.511 . S
C679 H693 0.961 . S
C679 H694 0.961 . S
C679 H695 0.961 . S
C680 C681 1.370 . S
C680 C682 1.363 . S
C680 H696 0.931 . S
C681 C680 1.370 . S
C681 C685 1.408 . S
C682 C680 1.363 . S
C682 C683 1.370 . S
C682 C686 1.527 . S
C683 C675 1.503 . S
C683 C682 1.370 . S
C683 C684 1.403 . S
C684 C683 1.403 . S
C684 C685 1.404 . S
C684 C687 1.539 . S
C685 C681 1.408 . S
C685 C684 1.404 . S
C685 H697 0.930 . S
C686 C682 1.527 . S
C686 H698 0.952 1_565 S
C686 H699 0.963 . S
C686 H700 0.960 1_565 S
C687 C684 1.539 . S
C687 H701 0.958 . S
C687 H702 0.961 . S
C687 H703 0.960 . S
H688 C672 0.931 . S
H689 C677 0.929 . S
H690 C678 0.960 . S
H691 C678 0.962 . S
H692 C678 0.960 . S
H693 C679 0.961 . S
H694 C679 0.961 . S
H695 C679 0.961 . S
H696 C680 0.931 . S
H697 C685 0.930 . S
H698 C686 0.952 1_545 S
H699 C686 0.963 . S
H700 C686 0.960 1_545 S
H701 C687 0.958 . S
H702 C687 0.961 . S
H703 C687 0.960 . S
C704 C705 1.391 . S
C704 C706 1.394 . S
C704 H720 0.931 . S
C705 C704 1.391 . S
C705 C709 1.376 . S
C706 C704 1.394 . S
C706 C707 1.369 . S
C706 C710 1.531 . S
C707 C706 1.369 . S
C707 C708 1.410 . S
C707 C715 1.503 . S
C708 C707 1.410 . S
C708 C709 1.392 . S
C708 C711 1.511 . S
C709 C705 1.376 . S
C709 C708 1.392 . S
C709 H721 0.929 . S
C710 C706 1.531 . S
C710 H722 0.960 . S
C710 H723 0.962 . S
C710 H724 0.960 . S
C711 C708 1.511 . S
C711 H725 0.961 . S
C711 H726 0.961 . S
C711 H727 0.961 . S
C712 C713 1.370 . S
C712 C714 1.363 . S
C712 H728 0.931 . S
C713 C712 1.370 . S
C713 C717 1.408 . S
C714 C712 1.363 . S
C714 C715 1.370 . S
C714 C718 1.524 . S
C715 C707 1.503 . S
C715 C714 1.370 . S
C715 C716 1.403 . S
C716 C715 1.403 . S
C716 C717 1.404 . S
C716 C719 1.539 . S
C717 C713 1.408 . S
C717 C716 1.404 . S
C717 H729 0.930 . S
C718 C714 1.524 . S
C718 H730 0.956 . S
C718 H731 0.961 . S
C718 H732 0.961 . S
C719 C716 1.539 . S
C719 H733 0.958 . S
C719 H734 0.961 . S
C719 H735 0.960 . S
H720 C704 0.931 . S
H721 C709 0.929 . S
H722 C710 0.960 . S
H723 C710 0.962 . S
H724 C710 0.960 . S
H725 C711 0.961 . S
H726 C711 0.961 . S
H727 C711 0.961 . S
H728 C712 0.931 . S
H729 C717 0.930 . S
H730 C718 0.956 . S
H731 C718 0.961 . S
H732 C718 0.961 . S
H733 C719 0.958 . S
H734 C719 0.961 . S
H735 C719 0.960 . S
C736 C737 1.391 1_554 S
C736 C738 1.394 . S
C736 H752 0.931 . S
C737 C736 1.391 1_556 S
C737 C741 1.376 . S
C738 C736 1.394 . S
C738 C739 1.369 1_554 S
C738 C742 1.531 . S
C739 C738 1.369 1_556 S
C739 C740 1.410 . S
C739 C747 1.503 . S
C740 C739 1.410 . S
C740 C741 1.392 . S
C740 C743 1.511 . S
C741 C737 1.376 . S
C741 C740 1.392 . S
C741 H753 0.929 . S
C742 C738 1.531 . S
C742 H754 0.960 . S
C742 H755 0.962 . S
C742 H756 0.960 . S
C743 C740 1.511 . S
C743 H757 0.961 . S
C743 H758 0.961 . S
C743 H759 0.961 . S
C744 C745 1.370 . S
C744 C746 1.363 . S
C744 H760 0.931 . S
C745 C744 1.370 . S
C745 C749 1.408 . S
C746 C744 1.363 . S
C746 C747 1.370 . S
C746 C750 1.524 . S
C747 C739 1.503 . S
C747 C746 1.370 . S
C747 C748 1.403 . S
C748 C747 1.403 . S
C748 C749 1.404 . S
C748 C751 1.539 1_556 S
C749 C745 1.408 . S
C749 C748 1.404 . S
C749 H761 0.930 . S
C750 C746 1.524 . S
C750 H762 0.956 . S
C750 H763 0.961 . S
C750 H764 0.961 . S
C751 C748 1.539 1_554 S
C751 H765 0.958 . S
C751 H766 0.961 . S
C751 H767 0.960 . S
H752 C736 0.931 . S
H753 C741 0.929 . S
H754 C742 0.960 . S
H755 C742 0.962 . S
H756 C742 0.960 . S
H757 C743 0.961 . S
H758 C743 0.961 . S
H759 C743 0.961 . S
H760 C744 0.931 . S
H761 C749 0.930 . S
H762 C750 0.956 . S
H763 C750 0.961 . S
H764 C750 0.961 . S
H765 C751 0.958 . S
H766 C751 0.961 . S
H767 C751 0.960 . S
C768 C769 1.391 . S
C768 C770 1.394 . S
C768 H784 0.931 . S
C769 C768 1.391 . S
C769 C773 1.376 . S
C770 C768 1.394 . S
C770 C771 1.369 . S
C770 C774 1.531 . S
C771 C770 1.369 . S
C771 C772 1.410 . S
C771 C779 1.503 . S
C772 C771 1.410 . S
C772 C773 1.392 . S
C772 C775 1.511 . S
C773 C769 1.376 . S
C773 C772 1.392 . S
C773 H785 0.929 . S
C774 C770 1.531 . S
C774 H786 0.960 . S
C774 H787 0.962 . S
C774 H788 0.960 . S
C775 C772 1.511 . S
C775 H789 0.961 . S
C775 H790 0.961 . S
C775 H791 0.961 . S
C776 C777 1.370 . S
C776 C778 1.363 . S
C776 H792 0.931 . S
C777 C776 1.370 . S
C777 C781 1.408 . S
C778 C776 1.363 . S
C778 C779 1.370 . S
C778 C782 1.524 . S
C779 C771 1.503 . S
C779 C778 1.370 . S
C779 C780 1.403 . S
C780 C779 1.403 . S
C780 C781 1.404 . S
C780 C783 1.539 . S
C781 C777 1.408 . S
C781 C780 1.404 . S
C781 H793 0.930 . S
C782 C778 1.524 . S
C782 H794 0.956 . S
C782 H795 0.961 . S
C782 H796 0.961 . S
C783 C780 1.539 . S
C783 H797 0.958 . S
C783 H798 0.961 . S
C783 H799 0.960 . S
H784 C768 0.931 . S
H785 C773 0.929 . S
H786 C774 0.960 . S
H787 C774 0.962 . S
H788 C774 0.960 . S
H789 C775 0.961 . S
H790 C775 0.961 . S
H791 C775 0.961 . S
H792 C776 0.931 . S
H793 C781 0.930 . S
H794 C782 0.956 . S
H795 C782 0.961 . S
H796 C782 0.961 . S
H797 C783 0.958 . S
H798 C783 0.961 . S
H799 C783 0.960 . S
C800 C801 1.391 1_556 S
C800 C802 1.383 1_556 S
C800 H816 0.931 . S
C801 C800 1.391 1_554 S
C801 C805 1.376 . S
C802 C800 1.383 1_554 S
C802 C803 1.401 . S
C802 C806 1.509 1_554 S
C803 C802 1.401 . S
C803 C804 1.410 . S
C803 C811 1.503 . S
C804 C803 1.410 . S
C804 C805 1.392 . S
C804 C807 1.511 . S
C805 C801 1.376 . S
C805 C804 1.392 . S
C805 H817 0.929 . S
C806 C802 1.509 1_556 S
C806 H818 0.960 . S
C806 H819 0.962 . S
C806 H820 0.960 . S
C807 C804 1.511 . S
C807 H821 0.961 . S
C807 H822 0.961 . S
C807 H823 0.961 . S
C808 C809 1.370 . S
C808 C810 1.363 . S
C808 H824 0.931 . S
C809 C808 1.370 . S
C809 C813 1.408 . S
C810 C808 1.363 . S
C810 C811 1.370 . S
C810 C814 1.524 1_554 S
C811 C803 1.503 . S
C811 C810 1.370 . S
C811 C812 1.403 . S
C812 C811 1.403 . S
C812 C813 1.404 . S
C812 C815 1.539 . S
C813 C809 1.408 . S
C813 C812 1.404 . S
C813 H825 0.930 . S
C814 C810 1.524 1_556 S
C814 H826 0.956 . S
C814 H827 0.961 1_556 S
C814 H828 0.961 . S
C815 C812 1.539 . S
C815 H829 0.958 . S
C815 H830 0.961 . S
C815 H831 0.960 . S
H816 C800 0.931 . S
H817 C805 0.929 . S
H818 C806 0.960 . S
H819 C806 0.962 . S
H820 C806 0.960 . S
H821 C807 0.961 . S
H822 C807 0.961 . S
H823 C807 0.961 . S
H824 C808 0.931 . S
H825 C813 0.930 . S
H826 C814 0.956 . S
H827 C814 0.961 1_554 S
H828 C814 0.961 . S
H829 C815 0.958 . S
H830 C815 0.961 . S
H831 C815 0.960 . S
C832 C833 1.391 . S
C832 C834 1.394 . S
C832 H848 0.931 . S
C833 C832 1.391 . S
C833 C837 1.376 . S
C834 C832 1.394 . S
C834 C835 1.369 . S
C834 C838 1.531 . S
C835 C834 1.369 . S
C835 C836 1.410 . S
C835 C843 1.503 . S
C836 C835 1.410 . S
C836 C837 1.392 . S
C836 C839 1.511 . S
C837 C833 1.376 . S
C837 C836 1.392 . S
C837 H849 0.929 . S
C838 C834 1.531 . S
C838 H850 0.960 . S
C838 H851 0.962 . S
C838 H852 0.960 . S
C839 C836 1.511 . S
C839 H853 0.961 . S
C839 H854 0.961 . S
C839 H855 0.961 . S
C840 C841 1.370 . S
C840 C842 1.363 . S
C840 H856 0.931 . S
C841 C840 1.370 . S
C841 C845 1.408 . S
C842 C840 1.363 . S
C842 C843 1.370 . S
C842 C846 1.524 . S
C843 C835 1.503 . S
C843 C842 1.370 . S
C843 C844 1.403 . S
C844 C843 1.403 . S
C844 C845 1.404 . S
C844 C847 1.539 . S
C845 C841 1.408 . S
C845 C844 1.404 . S
C845 H857 0.930 . S
C846 C842 1.524 . S
C846 H858 0.956 . S
C846 H859 0.961 . S
C846 H860 0.961 . S
C847 C844 1.539 . S
C847 H861 0.958 . S
C847 H862 0.961 . S
C847 H863 0.960 . S
H848 C832 0.931 . S
H849 C837 0.929 . S
H850 C838 0.960 . S
H851 C838 0.962 . S
H852 C838 0.960 . S
H853 C839 0.961 . S
H854 C839 0.961 . S
H855 C839 0.961 . S
H856 C840 0.931 . S
H857 C845 0.930 . S
H858 C846 0.956 . S
H859 C846 0.961 . S
H860 C846 0.961 . S
H861 C847 0.958 . S
H862 C847 0.961 . S
H863 C847 0.960 . S
C864 C865 1.391 . S
C864 C866 1.394 . S
C864 H880 0.931 . S
C865 C864 1.391 . S
C865 C869 1.376 1_655 S
C866 C864 1.394 . S
C866 C867 1.369 . S
C866 C870 1.531 . S
C867 C866 1.369 . S
C867 C868 1.410 1_655 S
C867 C875 1.503 . S
C868 C867 1.410 1_455 S
C868 C869 1.392 . S
C868 C871 1.511 . S
C869 C865 1.376 1_455 S
C869 C868 1.392 . S
C869 H881 0.929 . S
C870 C866 1.531 . S
C870 H882 0.960 . S
C870 H883 0.962 . S
C870 H884 0.960 . S
C871 C868 1.511 . S
C871 H885 0.961 . S
C871 H886 0.961 . S
C871 H887 0.961 . S
C872 C873 1.370 . S
C872 C874 1.363 . S
C872 H888 0.931 . S
C873 C872 1.370 . S
C873 C877 1.408 . S
C874 C872 1.363 . S
C874 C875 1.370 . S
C874 C878 1.524 . S
C875 C867 1.503 . S
C875 C874 1.370 . S
C875 C876 1.403 . S
C876 C875 1.403 . S
C876 C877 1.404 . S
C876 C879 1.539 . S
C877 C873 1.408 . S
C877 C876 1.404 . S
C877 H889 0.930 . S
C878 C874 1.524 . S
C878 H890 0.956 . S
C878 H891 0.961 . S
C878 H892 0.961 . S
C879 C876 1.539 . S
C879 H893 0.958 . S
C879 H894 0.961 . S
C879 H895 0.980 . S
H880 C864 0.931 . S
H881 C869 0.929 . S
H882 C870 0.960 . S
H883 C870 0.962 . S
H884 C870 0.960 . S
H885 C871 0.961 . S
H886 C871 0.961 . S
H887 C871 0.961 . S
H888 C872 0.931 . S
H889 C877 0.930 . S
H890 C878 0.956 . S
H891 C878 0.961 . S
H892 C878 0.961 . S
H893 C879 0.958 . S
H894 C879 0.961 . S
H895 C879 0.980 . S
C896 C897 1.391 . S
C896 C898 1.394 . S
C896 H912 0.931 . S
C897 C896 1.391 . S
C897 C901 1.376 . S
C898 C896 1.394 . S
C898 C899 1.369 . S
C898 C902 1.531 . S
C899 C898 1.369 . S
C899 C900 1.410 . S
C899 C907 1.503 . S
C900 C899 1.410 . S
C900 C901 1.392 . S
C900 C903 1.511 . S
C901 C897 1.376 . S
C901 C900 1.392 . S
C901 H913 0.929 . S
C902 C898 1.531 . S
C902 H914 0.960 . S
C902 H915 0.962 . S
C902 H916 0.960 . S
C903 C900 1.511 . S
C903 H917 0.961 . S
C903 H918 0.961 . S
C903 H919 0.961 . S
C904 C905 1.370 . S
C904 C906 1.363 . S
C904 H920 0.931 . S
C905 C904 1.370 . S
C905 C909 1.408 . S
C906 C904 1.363 . S
C906 C907 1.370 . S
C906 C910 1.524 . S
C907 C899 1.503 . S
C907 C906 1.370 . S
C907 C908 1.403 . S
C908 C907 1.403 . S
C908 C909 1.404 . S
C908 C911 1.539 . S
C909 C905 1.408 . S
C909 C908 1.404 . S
C909 H921 0.930 . S
C910 C906 1.524 . S
C910 H922 0.956 . S
C910 H923 0.961 . S
C910 H924 0.961 . S
C911 C908 1.539 . S
C911 H925 0.958 . S
C911 H926 0.961 . S
C911 H927 0.960 . S
H912 C896 0.931 . S
H913 C901 0.929 . S
H914 C902 0.960 . S
H915 C902 0.962 . S
H916 C902 0.960 . S
H917 C903 0.961 . S
H918 C903 0.961 . S
H919 C903 0.961 . S
H920 C904 0.931 . S
H921 C909 0.930 . S
H922 C910 0.956 . S
H923 C910 0.961 . S
H924 C910 0.961 . S
H925 C911 0.958 . S
H926 C911 0.961 . S
H927 C911 0.960 . S
C928 C929 1.391 1_655 S
C928 C930 1.394 . S
C928 H944 0.931 . S
C929 C928 1.391 1_455 S
C929 C933 1.376 . S
C930 C928 1.394 . S
C930 C931 1.369 1_655 S
C930 C934 1.531 . S
C931 C930 1.369 1_455 S
C931 C932 1.410 . S
C931 C939 1.503 . S
C932 C931 1.410 . S
C932 C933 1.392 . S
C932 C935 1.511 . S
C933 C929 1.376 . S
C933 C932 1.392 . S
C933 H945 0.929 . S
C934 C930 1.531 . S
C934 H946 0.960 . S
C934 H947 0.962 . S
C934 H948 0.960 . S
C935 C932 1.511 . S
C935 H949 0.961 . S
C935 H950 0.961 . S
C935 H951 0.961 . S
C936 C937 1.370 . S
C936 C938 1.363 . S
C936 H952 0.931 . S
C937 C936 1.370 . S
C937 C941 1.408 . S
C938 C936 1.363 . S
C938 C939 1.370 . S
C938 C942 1.524 . S
C939 C931 1.503 . S
C939 C938 1.370 . S
C939 C940 1.403 . S
C940 C939 1.403 . S
C940 C941 1.404 . S
C940 C943 1.539 . S
C941 C937 1.408 . S
C941 C940 1.404 . S
C941 H953 0.930 . S
C942 C938 1.524 . S
C942 H954 0.956 1_455 S
C942 H955 0.961 . S
C942 H956 0.961 . S
C943 C940 1.539 . S
C943 H957 0.958 . S
C943 H958 0.961 . S
C943 H959 0.960 . S
H944 C928 0.931 . S
H945 C933 0.929 . S
H946 C934 0.960 . S
H947 C934 0.962 . S
H948 C934 0.960 . S
H949 C935 0.961 . S
H950 C935 0.961 . S
H951 C935 0.961 . S
H952 C936 0.931 . S
H953 C941 0.930 . S
H954 C942 0.956 1_655 S
H955 C942 0.961 . S
H956 C942 0.961 . S
H957 C943 0.958 . S
H958 C943 0.961 . S
H959 C943 0.960 . S
C960 C961 1.391 . S
C960 C962 1.394 . S
C960 H976 0.931 . S
C961 C960 1.391 . S
C961 C965 1.376 . S
C962 C960 1.394 . S
C962 C963 1.369 . S
C962 C966 1.531 . S
C963 C962 1.369 . S
C963 C964 1.410 . S
C963 C971 1.503 . S
C964 C963 1.410 . S
C964 C965 1.392 . S
C964 C967 1.511 . S
C965 C961 1.376 . S
C965 C964 1.392 . S
C965 H977 0.929 . S
C966 C962 1.531 . S
C966 H978 0.960 . S
C966 H979 0.962 . S
C966 H980 0.960 . S
C967 C964 1.511 . S
C967 H981 0.961 . S
C967 H982 0.961 . S
C967 H983 0.961 . S
C968 C969 1.370 . S
C968 C970 1.363 . S
C968 H984 0.931 . S
C969 C968 1.370 . S
C969 C973 1.408 . S
C970 C968 1.363 . S
C970 C971 1.370 . S
C970 C974 1.524 . S
C971 C963 1.503 . S
C971 C970 1.370 . S
C971 C972 1.403 . S
C972 C971 1.403 . S
C972 C973 1.404 . S
C972 C975 1.539 . S
C973 C969 1.408 . S
C973 C972 1.404 . S
C973 H985 0.930 . S
C974 C970 1.524 . S
C974 H986 0.956 . S
C974 H987 0.961 . S
C974 H988 0.961 . S
C975 C972 1.539 . S
C975 H989 0.958 . S
C975 H990 0.961 . S
C975 H991 0.960 . S
H976 C960 0.931 . S
H977 C965 0.929 . S
H978 C966 0.960 . S
H979 C966 0.962 . S
H980 C966 0.960 . S
H981 C967 0.961 . S
H982 C967 0.961 . S
H983 C967 0.961 . S
H984 C968 0.931 . S
H985 C973 0.930 . S
H986 C974 0.956 . S
H987 C974 0.961 . S
H988 C974 0.961 . S
H989 C975 0.958 . S
H990 C975 0.961 . S
H991 C975 0.960 . S
C992 C993 1.391 . S
C992 C994 1.394 . S
C992 H1008 0.931 . S
C993 C992 1.391 . S
C993 C997 1.376 . S
C994 C992 1.394 . S
C994 C995 1.369 . S
C994 C998 1.531 . S
C995 C994 1.369 . S
C995 C996 1.410 . S
C995 C1003 1.503 . S
C996 C995 1.410 . S
C996 C997 1.392 . S
C996 C999 1.511 . S
C997 C993 1.376 . S
C997 C996 1.392 . S
C997 H1009 0.929 . S
C998 C994 1.531 . S
C998 H1010 0.960 . S
C998 H1011 0.962 . S
C998 H1012 0.960 . S
C999 C996 1.511 . S
C999 H1013 0.961 . S
C999 H1014 0.961 . S
C999 H1015 0.961 . S
C1000 C1001 1.370 . S
C1000 C1002 1.363 . S
C1000 H1016 0.931 . S
C1001 C1000 1.370 . S
C1001 C1005 1.408 . S
C1002 C1000 1.363 . S
C1002 C1003 1.370 . S
C1002 C1006 1.524 . S
C1003 C995 1.503 . S
C1003 C1002 1.370 . S
C1003 C1004 1.403 . S
C1004 C1003 1.403 . S
C1004 C1005 1.404 . S
C1004 C1007 1.539 . S
C1005 C1001 1.408 . S
C1005 C1004 1.404 . S
C1005 H1017 0.930 . S
C1006 C1002 1.524 . S
C1006 H1018 0.956 . S
C1006 H1019 0.961 . S
C1006 H1020 0.961 . S
C1007 C1004 1.539 . S
C1007 H1021 0.958 . S
C1007 H1022 0.961 . S
C1007 H1023 0.960 . S
H1008 C992 0.931 . S
H1009 C997 0.929 . S
H1010 C998 0.960 . S
H1011 C998 0.962 . S
H1012 C998 0.960 . S
H1013 C999 0.961 . S
H1014 C999 0.961 . S
H1015 C999 0.961 . S
H1016 C1000 0.931 . S
H1017 C1005 0.930 . S
H1018 C1006 0.956 . S
H1019 C1006 0.961 . S
H1020 C1006 0.961 . S
H1021 C1007 0.958 . S
H1022 C1007 0.961 . S
H1023 C1007 0.960 . S
C1024 C1025 1.391 . S
C1024 C1026 1.394 . S
C1024 H1040 0.931 . S
C1025 C1024 1.391 . S
C1025 C1029 1.376 1_565 S
C1026 C1024 1.394 . S
C1026 C1027 1.369 . S
C1026 C1030 1.531 . S
C1027 C1026 1.369 . S
C1027 C1028 1.410 1_565 S
C1027 C1035 1.503 . S
C1028 C1027 1.410 1_545 S
C1028 C1029 1.392 . S
C1028 C1031 1.511 . S
C1029 C1025 1.376 1_545 S
C1029 C1028 1.392 . S
C1029 H1041 0.929 . S
C1030 C1026 1.531 . S
C1030 H1042 0.960 . S
C1030 H1043 0.962 . S
C1030 H1044 0.960 . S
C1031 C1028 1.511 . S
C1031 H1045 0.961 . S
C1031 H1046 0.961 . S
C1031 H1047 0.961 . S
C1032 C1033 1.370 . S
C1032 C1034 1.363 . S
C1032 H1048 0.931 . S
C1033 C1032 1.370 . S
C1033 C1037 1.408 . S
C1034 C1032 1.363 . S
C1034 C1035 1.370 . S
C1034 C1038 1.524 . S
C1035 C1027 1.503 . S
C1035 C1034 1.370 . S
C1035 C1036 1.403 . S
C1036 C1035 1.403 . S
C1036 C1037 1.404 . S
C1036 C1039 1.539 1_565 S
C1037 C1033 1.408 . S
C1037 C1036 1.404 . S
C1037 H1049 0.930 . S
C1038 C1034 1.524 . S
C1038 H1050 0.956 . S
C1038 H1051 0.961 . S
C1038 H1052 0.961 . S
C1039 C1036 1.539 1_545 S
C1039 H1053 0.962 . S
C1039 H1054 0.961 . S
C1039 H1055 0.960 . S
H1040 C1024 0.931 . S
H1041 C1029 0.929 . S
H1042 C1030 0.960 . S
H1043 C1030 0.962 . S
H1044 C1030 0.960 . S
H1045 C1031 0.961 . S
H1046 C1031 0.961 . S
H1047 C1031 0.961 . S
H1048 C1032 0.931 . S
H1049 C1037 0.930 . S
H1050 C1038 0.956 . S
H1051 C1038 0.961 . S
H1052 C1038 0.961 . S
H1053 C1039 0.962 . S
H1054 C1039 0.961 . S
H1055 C1039 0.960 . S
C1056 C1057 1.380 1_565 S
C1056 C1058 1.394 . S
C1056 H1072 0.931 . S
C1057 C1056 1.380 1_545 S
C1057 C1061 1.395 . S
C1058 C1056 1.394 . S
C1058 C1059 1.369 1_565 S
C1058 C1062 1.531 . S
C1059 C1058 1.369 1_545 S
C1059 C1060 1.410 . S
C1059 C1067 1.503 . S
C1060 C1059 1.410 . S
C1060 C1061 1.392 . S
C1060 C1063 1.511 . S
C1061 C1057 1.395 . S
C1061 C1060 1.392 . S
C1061 H1073 0.929 . S
C1062 C1058 1.531 . S
C1062 H1074 0.960 . S
C1062 H1075 0.962 . S
C1062 H1076 0.960 . S
C1063 C1060 1.511 . S
C1063 H1077 0.961 . S
C1063 H1078 0.961 . S
C1063 H1079 0.961 . S
C1064 C1065 1.370 . S
C1064 C1066 1.363 . S
C1064 H1080 0.931 . S
C1065 C1064 1.370 . S
C1065 C1069 1.408 . S
C1066 C1064 1.363 . S
C1066 C1067 1.370 . S
C1066 C1070 1.524 . S
C1067 C1059 1.503 . S
C1067 C1066 1.370 . S
C1067 C1068 1.391 1_545 S
C1068 C1067 1.391 1_565 S
C1068 C1069 1.397 1_565 S
C1068 C1071 1.557 . S
C1069 C1065 1.408 . S
C1069 C1068 1.397 1_545 S
C1069 H1081 0.930 1_545 S
C1070 C1066 1.524 . S
C1070 H1082 0.956 . S
C1070 H1083 0.961 . S
C1070 H1084 0.961 . S
C1071 C1068 1.557 . S
C1071 H1085 0.958 . S
C1071 H1086 0.961 . S
C1071 H1087 0.960 . S
H1072 C1056 0.931 . S
H1073 C1061 0.929 . S
H1074 C1062 0.960 . S
H1075 C1062 0.962 . S
H1076 C1062 0.960 . S
H1077 C1063 0.961 . S
H1078 C1063 0.961 . S
H1079 C1063 0.961 . S
H1080 C1064 0.931 . S
H1081 C1069 0.930 1_565 S
H1082 C1070 0.956 . S
H1083 C1070 0.961 . S
H1084 C1070 0.961 . S
H1085 C1071 0.958 . S
H1086 C1071 0.961 . S
H1087 C1071 0.960 . S
C1088 C1089 1.391 . S
C1088 C1090 1.394 . S
C1088 H1104 0.931 . S
C1089 C1088 1.391 . S
C1089 C1093 1.376 . S
C1090 C1088 1.394 . S
C1090 C1091 1.369 . S
C1090 C1094 1.531 . S
C1091 C1090 1.369 . S
C1091 C1092 1.410 . S
C1091 C1099 1.503 . S
C1092 C1091 1.410 . S
C1092 C1093 1.392 . S
C1092 C1095 1.511 . S
C1093 C1089 1.376 . S
C1093 C1092 1.392 . S
C1093 H1105 0.929 . S
C1094 C1090 1.531 . S
C1094 H1106 0.960 . S
C1094 H1107 0.962 . S
C1094 H1108 0.960 . S
C1095 C1092 1.511 . S
C1095 H1109 0.961 . S
C1095 H1110 0.961 . S
C1095 H1111 0.961 . S
C1096 C1097 1.370 . S
C1096 C1098 1.363 . S
C1096 H1112 0.931 . S
C1097 C1096 1.370 . S
C1097 C1101 1.408 . S
C1098 C1096 1.363 . S
C1098 C1099 1.370 . S
C1098 C1102 1.524 . S
C1099 C1091 1.503 . S
C1099 C1098 1.370 . S
C1099 C1100 1.403 . S
C1100 C1099 1.403 . S
C1100 C1101 1.404 . S
C1100 C1103 1.539 . S
C1101 C1097 1.408 . S
C1101 C1100 1.404 . S
C1101 H1113 0.930 . S
C1102 C1098 1.524 . S
C1102 H1114 0.956 . S
C1102 H1115 0.961 . S
C1102 H1116 0.961 . S
C1103 C1100 1.539 . S
C1103 H1117 0.958 . S
C1103 H1118 0.961 . S
C1103 H1119 0.960 . S
H1104 C1088 0.931 . S
H1105 C1093 0.929 . S
H1106 C1094 0.960 . S
H1107 C1094 0.962 . S
H1108 C1094 0.960 . S
H1109 C1095 0.961 . S
H1110 C1095 0.961 . S
H1111 C1095 0.961 . S
H1112 C1096 0.931 . S
H1113 C1101 0.930 . S
H1114 C1102 0.956 . S
H1115 C1102 0.961 . S
H1116 C1102 0.961 . S
H1117 C1103 0.958 . S
H1118 C1103 0.961 . S
H1119 C1103 0.960 . S
C1120 C1121 1.391 1_556 S
C1120 C1122 1.394 . S
C1120 H1136 0.931 . S
C1121 C1120 1.391 1_554 S
C1121 C1125 1.376 . S
C1122 C1120 1.394 . S
C1122 C1123 1.369 1_556 S
C1122 C1126 1.531 . S
C1123 C1122 1.369 1_554 S
C1123 C1124 1.410 . S
C1123 C1131 1.503 . S
C1124 C1123 1.410 . S
C1124 C1125 1.392 . S
C1124 C1127 1.511 . S
C1125 C1121 1.376 . S
C1125 C1124 1.392 . S
C1125 H1137 0.929 . S
C1126 C1122 1.531 . S
C1126 H1138 0.960 . S
C1126 H1139 0.962 . S
C1126 H1140 0.960 . S
C1127 C1124 1.511 . S
C1127 H1141 0.961 . S
C1127 H1142 0.961 . S
C1127 H1143 0.961 . S
C1128 C1129 1.370 . S
C1128 C1130 1.363 . S
C1128 H1144 0.931 . S
C1129 C1128 1.370 . S
C1129 C1133 1.408 . S
C1130 C1128 1.363 . S
C1130 C1131 1.370 . S
C1130 C1134 1.524 . S
C1131 C1123 1.503 . S
C1131 C1130 1.370 . S
C1131 C1132 1.403 . S
C1132 C1131 1.403 . S
C1132 C1133 1.404 . S
C1132 C1135 1.539 1_554 S
C1133 C1129 1.408 . S
C1133 C1132 1.404 . S
C1133 H1145 0.930 . S
C1134 C1130 1.524 . S
C1134 H1146 0.956 . S
C1134 H1147 0.961 . S
C1134 H1148 0.961 . S
C1135 C1132 1.539 1_556 S
C1135 H1149 0.958 . S
C1135 H1150 0.961 . S
C1135 H1151 0.960 . S
H1136 C1120 0.931 . S
H1137 C1125 0.929 . S
H1138 C1126 0.960 . S
H1139 C1126 0.962 . S
H1140 C1126 0.960 . S
H1141 C1127 0.961 . S
H1142 C1127 0.961 . S
H1143 C1127 0.961 . S
H1144 C1128 0.931 . S
H1145 C1133 0.930 . S
H1146 C1134 0.956 . S
H1147 C1134 0.961 . S
H1148 C1134 0.961 . S
H1149 C1135 0.958 . S
H1150 C1135 0.961 . S
H1151 C1135 0.960 . S
C1152 C1153 1.391 . S
C1152 C1154 1.394 . S
C1152 H1168 0.931 . S
C1153 C1152 1.391 . S
C1153 C1157 1.376 . S
C1154 C1152 1.394 . S
C1154 C1155 1.369 . S
C1154 C1158 1.531 . S
C1155 C1154 1.369 . S
C1155 C1156 1.410 . S
C1155 C1163 1.503 . S
C1156 C1155 1.410 . S
C1156 C1157 1.392 . S
C1156 C1159 1.511 . S
C1157 C1153 1.376 . S
C1157 C1156 1.392 . S
C1157 H1169 0.929 . S
C1158 C1154 1.531 . S
C1158 H1170 0.960 . S
C1158 H1171 0.962 . S
C1158 H1172 0.960 . S
C1159 C1156 1.511 . S
C1159 H1173 0.961 . S
C1159 H1174 0.961 . S
C1159 H1175 0.961 . S
C1160 C1161 1.370 . S
C1160 C1162 1.363 . S
C1160 H1176 0.931 . S
C1161 C1160 1.370 . S
C1161 C1165 1.408 . S
C1162 C1160 1.363 . S
C1162 C1163 1.370 . S
C1162 C1166 1.524 . S
C1163 C1155 1.503 . S
C1163 C1162 1.370 . S
C1163 C1164 1.403 . S
C1164 C1163 1.403 . S
C1164 C1165 1.404 . S
C1164 C1167 1.539 . S
C1165 C1161 1.408 . S
C1165 C1164 1.404 . S
C1165 H1177 0.930 . S
C1166 C1162 1.524 . S
C1166 H1178 0.956 . S
C1166 H1179 0.961 . S
C1166 H1180 0.961 . S
C1167 C1164 1.539 . S
C1167 H1181 0.958 . S
C1167 H1182 0.961 . S
C1167 H1183 0.960 . S
H1168 C1152 0.931 . S
H1169 C1157 0.929 . S
H1170 C1158 0.960 . S
H1171 C1158 0.962 . S
H1172 C1158 0.960 . S
H1173 C1159 0.961 . S
H1174 C1159 0.961 . S
H1175 C1159 0.961 . S
H1176 C1160 0.931 . S
H1177 C1165 0.930 . S
H1178 C1166 0.956 . S
H1179 C1166 0.961 . S
H1180 C1166 0.961 . S
H1181 C1167 0.958 . S
H1182 C1167 0.961 . S
H1183 C1167 0.960 . S
C1184 C1185 1.391 . S
C1184 C1186 1.394 . S
C1184 H1200 0.931 . S
C1185 C1184 1.391 . S
C1185 C1189 1.378 . S
C1186 C1184 1.394 . S
C1186 C1187 1.369 . S
C1186 C1190 1.531 . S
C1187 C1186 1.369 . S
C1187 C1188 1.410 . S
C1187 C1195 1.503 . S
C1188 C1187 1.410 . S
C1188 C1189 1.394 . S
C1188 C1191 1.511 1_556 S
C1189 C1185 1.378 . S
C1189 C1188 1.394 . S
C1189 H1201 0.925 1_556 S
C1190 C1186 1.531 . S
C1190 H1202 0.960 . S
C1190 H1203 0.962 . S
C1190 H1204 0.960 . S
C1191 C1188 1.511 1_554 S
C1191 H1205 0.961 . S
C1191 H1206 0.961 . S
C1191 H1207 0.961 1_554 S
C1192 C1193 1.370 . S
C1192 C1194 1.363 . S
C1192 H1208 0.931 . S
C1193 C1192 1.370 . S
C1193 C1197 1.408 . S
C1194 C1192 1.363 . S
C1194 C1195 1.370 . S
C1194 C1198 1.524 1_556 S
C1195 C1187 1.503 . S
C1195 C1194 1.370 . S
C1195 C1196 1.403 . S
C1196 C1195 1.403 . S
C1196 C1197 1.404 . S
C1196 C1199 1.539 . S
C1197 C1193 1.408 . S
C1197 C1196 1.404 . S
C1197 H1209 0.930 . S
C1198 C1194 1.524 1_554 S
C1198 H1210 0.956 . S
C1198 H1211 0.961 . S
C1198 H1212 0.961 . S
C1199 C1196 1.539 . S
C1199 H1213 0.958 . S
C1199 H1214 0.961 . S
C1199 H1215 0.960 . S
H1200 C1184 0.931 . S
H1201 C1189 0.925 1_554 S
H1202 C1190 0.960 . S
H1203 C1190 0.962 . S
H1204 C1190 0.960 . S
H1205 C1191 0.961 . S
H1206 C1191 0.961 . S
H1207 C1191 0.961 1_556 S
H1208 C1192 0.931 . S
H1209 C1197 0.930 . S
H1210 C1198 0.956 . S
H1211 C1198 0.961 . S
H1212 C1198 0.961 . S
H1213 C1199 0.958 . S
H1214 C1199 0.961 . S
H1215 C1199 0.960 . S
C1216 C1217 1.391 . S
C1216 C1218 1.394 . S
C1216 H1232 0.931 . S
C1217 C1216 1.391 . S
C1217 C1221 1.376 . S
C1218 C1216 1.394 . S
C1218 C1219 1.369 . S
C1218 C1222 1.531 . S
C1219 C1218 1.369 . S
C1219 C1220 1.410 . S
C1219 C1227 1.503 . S
C1220 C1219 1.410 . S
C1220 C1221 1.392 . S
C1220 C1223 1.511 . S
C1221 C1217 1.376 . S
C1221 C1220 1.392 . S
C1221 H1233 0.929 . S
C1222 C1218 1.531 . S
C1222 H1234 0.960 . S
C1222 H1235 0.962 . S
C1222 H1236 0.960 . S
C1223 C1220 1.511 . S
C1223 H1237 0.961 . S
C1223 H1238 0.961 . S
C1223 H1239 0.961 . S
C1224 C1225 1.370 . S
C1224 C1226 1.363 . S
C1224 H1240 0.931 . S
C1225 C1224 1.370 . S
C1225 C1229 1.408 . S
C1226 C1224 1.363 . S
C1226 C1227 1.370 . S
C1226 C1230 1.524 . S
C1227 C1219 1.503 . S
C1227 C1226 1.370 . S
C1227 C1228 1.403 . S
C1228 C1227 1.403 . S
C1228 C1229 1.404 . S
C1228 C1231 1.539 . S
C1229 C1225 1.408 . S
C1229 C1228 1.404 . S
C1229 H1241 0.930 . S
C1230 C1226 1.524 . S
C1230 H1242 0.956 . S
C1230 H1243 0.961 . S
C1230 H1244 0.961 . S
C1231 C1228 1.539 . S
C1231 H1245 0.958 . S
C1231 H1246 0.961 . S
C1231 H1247 0.960 . S
H1232 C1216 0.931 . S
H1233 C1221 0.929 . S
H1234 C1222 0.960 . S
H1235 C1222 0.962 . S
H1236 C1222 0.960 . S
H1237 C1223 0.961 . S
H1238 C1223 0.961 . S
H1239 C1223 0.961 . S
H1240 C1224 0.931 . S
H1241 C1229 0.930 . S
H1242 C1230 0.956 . S
H1243 C1230 0.961 . S
H1244 C1230 0.961 . S
H1245 C1231 0.958 . S
H1246 C1231 0.961 . S
H1247 C1231 0.960 . S
C1248 C1249 1.391 . S
C1248 C1250 1.394 . S
C1248 H1264 0.931 . S
C1249 C1248 1.391 . S
C1249 C1253 1.376 . S
C1250 C1248 1.394 . S
C1250 C1251 1.369 . S
C1250 C1254 1.531 . S
C1251 C1250 1.369 . S
C1251 C1252 1.410 . S
C1251 C1259 1.503 . S
C1252 C1251 1.410 . S
C1252 C1253 1.392 . S
C1252 C1255 1.511 . S
C1253 C1249 1.376 . S
C1253 C1252 1.392 . S
C1253 H1265 0.929 . S
C1254 C1250 1.531 . S
C1254 H1266 0.960 . S
C1254 H1267 0.962 . S
C1254 H1268 0.960 . S
C1255 C1252 1.511 . S
C1255 H1269 0.961 . S
C1255 H1270 0.961 . S
C1255 H1271 0.961 . S
C1256 C1257 1.370 . S
C1256 C1258 1.363 . S
C1256 H1272 0.931 1_455 S
C1257 C1256 1.370 . S
C1257 C1261 1.408 . S
C1258 C1256 1.363 . S
C1258 C1259 1.370 . S
C1258 C1262 1.524 1_455 S
C1259 C1251 1.503 . S
C1259 C1258 1.370 . S
C1259 C1260 1.403 . S
C1260 C1259 1.403 . S
C1260 C1261 1.404 . S
C1260 C1263 1.539 . S
C1261 C1257 1.408 . S
C1261 C1260 1.404 . S
C1261 H1273 0.930 . S
C1262 C1258 1.524 1_655 S
C1262 H1274 0.956 . S
C1262 H1275 0.961 . S
C1262 H1276 0.961 . S
C1263 C1260 1.539 . S
C1263 H1277 0.958 . S
C1263 H1278 0.961 . S
C1263 H1279 0.960 . S
H1264 C1248 0.931 . S
H1265 C1253 0.929 . S
H1266 C1254 0.960 . S
H1267 C1254 0.962 . S
H1268 C1254 0.960 . S
H1269 C1255 0.961 . S
H1270 C1255 0.961 . S
H1271 C1255 0.961 . S
H1272 C1256 0.931 1_655 S
H1273 C1261 0.930 . S
H1274 C1262 0.956 . S
H1275 C1262 0.961 . S
H1276 C1262 0.961 . S
H1277 C1263 0.958 . S
H1278 C1263 0.961 . S
H1279 C1263 0.960 . S
C1280 C1281 1.391 . S
C1280 C1282 1.394 . S
C1280 H1296 0.931 . S
C1281 C1280 1.391 . S
C1281 C1285 1.376 . S
C1282 C1280 1.394 . S
C1282 C1283 1.369 . S
C1282 C1286 1.531 . S
C1283 C1282 1.369 . S
C1283 C1284 1.410 . S
C1283 C1291 1.503 . S
C1284 C1283 1.410 . S
C1284 C1285 1.392 . S
C1284 C1287 1.511 . S
C1285 C1281 1.376 . S
C1285 C1284 1.392 . S
C1285 H1297 0.929 . S
C1286 C1282 1.531 . S
C1286 H1298 0.960 . S
C1286 H1299 0.962 . S
C1286 H1300 0.960 . S
C1287 C1284 1.511 . S
C1287 H1301 0.961 . S
C1287 H1302 0.961 . S
C1287 H1303 0.961 . S
C1288 C1289 1.370 . S
C1288 C1290 1.363 . S
C1288 H1304 0.931 . S
C1289 C1288 1.370 . S
C1289 C1293 1.408 . S
C1290 C1288 1.363 . S
C1290 C1291 1.370 . S
C1290 C1294 1.524 . S
C1291 C1283 1.503 . S
C1291 C1290 1.370 . S
C1291 C1292 1.403 . S
C1292 C1291 1.403 . S
C1292 C1293 1.404 . S
C1292 C1295 1.539 . S
C1293 C1289 1.408 . S
C1293 C1292 1.404 . S
C1293 H1305 0.930 . S
C1294 C1290 1.524 . S
C1294 H1306 0.956 . S
C1294 H1307 0.961 . S
C1294 H1308 0.961 . S
C1295 C1292 1.539 . S
C1295 H1309 0.958 . S
C1295 H1310 0.961 . S
C1295 H1311 0.960 . S
H1296 C1280 0.931 . S
H1297 C1285 0.929 . S
H1298 C1286 0.960 . S
H1299 C1286 0.962 . S
H1300 C1286 0.960 . S
H1301 C1287 0.961 . S
H1302 C1287 0.961 . S
H1303 C1287 0.961 . S
H1304 C1288 0.931 . S
H1305 C1293 0.930 . S
H1306 C1294 0.956 . S
H1307 C1294 0.961 . S
H1308 C1294 0.961 . S
H1309 C1295 0.958 . S
H1310 C1295 0.961 . S
H1311 C1295 0.960 . S
C1312 C1313 1.391 1_455 S
C1312 C1314 1.394 1_455 S
C1312 H1328 0.931 . S
C1313 C1312 1.391 1_655 S
C1313 C1317 1.376 . S
C1314 C1312 1.394 1_655 S
C1314 C1315 1.369 . S
C1314 C1318 1.531 1_655 S
C1315 C1314 1.369 . S
C1315 C1316 1.410 . S
C1315 C1323 1.503 . S
C1316 C1315 1.410 . S
C1316 C1317 1.392 . S
C1316 C1319 1.511 . S
C1317 C1313 1.376 . S
C1317 C1316 1.392 . S
C1317 H1329 0.929 . S
C1318 C1314 1.531 1_455 S
C1318 H1330 0.960 . S
C1318 H1331 0.962 . S
C1318 H1332 0.960 . S
C1319 C1316 1.511 . S
C1319 H1333 0.961 . S
C1319 H1334 0.961 . S
C1319 H1335 0.961 . S
C1320 C1321 1.370 . S
C1320 C1322 1.363 . S
C1320 H1336 0.931 . S
C1321 C1320 1.370 . S
C1321 C1325 1.408 . S
C1322 C1320 1.363 . S
C1322 C1323 1.370 . S
C1322 C1326 1.524 1_655 S
C1323 C1315 1.503 . S
C1323 C1322 1.370 . S
C1323 C1324 1.403 . S
C1324 C1323 1.403 . S
C1324 C1325 1.404 . S
C1324 C1327 1.539 . S
C1325 C1321 1.408 . S
C1325 C1324 1.404 . S
C1325 H1337 0.930 . S
C1326 C1322 1.524 1_455 S
C1326 H1338 0.956 . S
C1326 H1339 0.961 1_455 S
C1326 H1340 0.961 . S
C1327 C1324 1.539 . S
C1327 H1341 0.958 . S
C1327 H1342 0.961 . S
C1327 H1343 0.960 . S
H1328 C1312 0.931 . S
H1329 C1317 0.929 . S
H1330 C1318 0.960 . S
H1331 C1318 0.962 . S
H1332 C1318 0.960 . S
H1333 C1319 0.961 . S
H1334 C1319 0.961 . S
H1335 C1319 0.961 . S
H1336 C1320 0.931 . S
H1337 C1325 0.930 . S
H1338 C1326 0.956 . S
H1339 C1326 0.961 1_655 S
H1340 C1326 0.961 . S
H1341 C1327 0.958 . S
H1342 C1327 0.961 . S
H1343 C1327 0.960 . S
C1344 C1345 1.391 . S
C1344 C1346 1.394 . S
C1344 H1360 0.931 . S
C1345 C1344 1.391 . S
C1345 C1349 1.376 . S
C1346 C1344 1.394 . S
C1346 C1347 1.369 . S
C1346 C1350 1.531 . S
C1347 C1346 1.369 . S
C1347 C1348 1.410 . S
C1347 C1355 1.503 . S
C1348 C1347 1.410 . S
C1348 C1349 1.392 . S
C1348 C1351 1.511 . S
C1349 C1345 1.376 . S
C1349 C1348 1.392 . S
C1349 H1361 0.929 . S
C1350 C1346 1.531 . S
C1350 H1362 0.960 . S
C1350 H1363 0.962 . S
C1350 H1364 0.960 . S
C1351 C1348 1.511 . S
C1351 H1365 0.961 . S
C1351 H1366 0.961 . S
C1351 H1367 0.961 . S
C1352 C1353 1.370 . S
C1352 C1354 1.363 . S
C1352 H1368 0.931 . S
C1353 C1352 1.370 . S
C1353 C1357 1.408 . S
C1354 C1352 1.363 . S
C1354 C1355 1.370 . S
C1354 C1358 1.524 . S
C1355 C1347 1.503 . S
C1355 C1354 1.370 . S
C1355 C1356 1.403 . S
C1356 C1355 1.403 . S
C1356 C1357 1.404 . S
C1356 C1359 1.539 . S
C1357 C1353 1.408 . S
C1357 C1356 1.404 . S
C1357 H1369 0.930 . S
C1358 C1354 1.524 . S
C1358 H1370 0.956 . S
C1358 H1371 0.961 . S
C1358 H1372 0.961 . S
C1359 C1356 1.539 . S
C1359 H1373 0.958 . S
C1359 H1374 0.961 . S
C1359 H1375 0.960 . S
H1360 C1344 0.931 . S
H1361 C1349 0.929 . S
H1362 C1350 0.960 . S
H1363 C1350 0.962 . S
H1364 C1350 0.960 . S
H1365 C1351 0.961 . S
H1366 C1351 0.961 . S
H1367 C1351 0.961 . S
H1368 C1352 0.931 . S
H1369 C1357 0.930 . S
H1370 C1358 0.956 . S
H1371 C1358 0.961 . S
H1372 C1358 0.961 . S
H1373 C1359 0.958 . S
H1374 C1359 0.961 . S
H1375 C1359 0.960 . S
C1376 C1377 1.391 . S
C1376 C1378 1.394 . S
C1376 H1392 0.931 . S
C1377 C1376 1.391 . S
C1377 C1381 1.376 . S
C1378 C1376 1.394 . S
C1378 C1379 1.369 . S
C1378 C1382 1.531 . S
C1379 C1378 1.369 . S
C1379 C1380 1.410 . S
C1379 C1387 1.503 . S
C1380 C1379 1.410 . S
C1380 C1381 1.392 . S
C1380 C1383 1.511 . S
C1381 C1377 1.376 . S
C1381 C1380 1.392 . S
C1381 H1393 0.929 . S
C1382 C1378 1.531 . S
C1382 H1394 0.960 . S
C1382 H1395 0.962 . S
C1382 H1396 0.960 . S
C1383 C1380 1.511 . S
C1383 H1397 0.961 . S
C1383 H1398 0.961 . S
C1383 H1399 0.961 . S
C1384 C1385 1.370 . S
C1384 C1386 1.363 . S
C1384 H1400 0.931 . S
C1385 C1384 1.370 . S
C1385 C1389 1.408 . S
C1386 C1384 1.363 . S
C1386 C1387 1.370 . S
C1386 C1390 1.524 . S
C1387 C1379 1.503 . S
C1387 C1386 1.370 . S
C1387 C1388 1.403 . S
C1388 C1387 1.403 . S
C1388 C1389 1.404 . S
C1388 C1391 1.539 . S
C1389 C1385 1.408 . S
C1389 C1388 1.404 . S
C1389 H1401 0.930 . S
C1390 C1386 1.524 . S
C1390 H1402 0.956 . S
C1390 H1403 0.961 . S
C1390 H1404 0.961 . S
C1391 C1388 1.539 . S
C1391 H1405 0.958 . S
C1391 H1406 0.961 . S
C1391 H1407 0.960 . S
H1392 C1376 0.931 . S
H1393 C1381 0.929 . S
H1394 C1382 0.960 . S
H1395 C1382 0.962 . S
H1396 C1382 0.960 . S
H1397 C1383 0.961 . S
H1398 C1383 0.961 . S
H1399 C1383 0.961 . S
H1400 C1384 0.931 . S
H1401 C1389 0.930 . S
H1402 C1390 0.956 . S
H1403 C1390 0.961 . S
H1404 C1390 0.961 . S
H1405 C1391 0.958 . S
H1406 C1391 0.961 . S
H1407 C1391 0.960 . S
C1408 C1409 1.391 . S
C1408 C1410 1.394 . S
C1408 H1424 0.931 . S
C1409 C1408 1.391 . S
C1409 C1413 1.399 . S
C1410 C1408 1.394 . S
C1410 C1411 1.369 . S
C1410 C1414 1.531 . S
C1411 C1410 1.369 . S
C1411 C1412 1.410 . S
C1411 C1419 1.503 . S
C1412 C1411 1.410 . S
C1412 C1413 1.391 . S
C1412 C1415 1.511 1_565 S
C1413 C1409 1.399 . S
C1413 C1412 1.391 . S
C1413 H1425 0.910 1_565 S
C1414 C1410 1.531 . S
C1414 H1426 0.960 . S
C1414 H1427 0.962 . S
C1414 H1428 0.960 . S
C1415 C1412 1.511 1_545 S
C1415 H1429 0.961 . S
C1415 H1430 0.961 . S
C1415 H1431 0.961 1_545 S
C1416 C1417 1.370 1_545 S
C1416 C1418 1.363 . S
C1416 H1432 0.931 . S
C1417 C1416 1.370 1_565 S
C1417 C1421 1.408 . S
C1418 C1416 1.363 . S
C1418 C1419 1.370 1_545 S
C1418 C1422 1.524 . S
C1419 C1411 1.503 . S
C1419 C1418 1.370 1_565 S
C1419 C1420 1.403 . S
C1420 C1419 1.403 . S
C1420 C1421 1.404 . S
C1420 C1423 1.539 . S
C1421 C1417 1.408 . S
C1421 C1420 1.404 . S
C1421 H1433 0.930 . S
C1422 C1418 1.524 . S
C1422 H1434 0.956 . S
C1422 H1435 0.961 . S
C1422 H1436 0.961 . S
C1423 C1420 1.539 . S
C1423 H1437 0.958 . S
C1423 H1438 0.961 . S
C1423 H1439 0.960 . S
H1424 C1408 0.931 . S
H1425 C1413 0.910 1_545 S
H1426 C1414 0.960 . S
H1427 C1414 0.962 . S
H1428 C1414 0.960 . S
H1429 C1415 0.961 . S
H1430 C1415 0.961 . S
H1431 C1415 0.961 1_565 S
H1432 C1416 0.931 . S
H1433 C1421 0.930 . S
H1434 C1422 0.956 . S
H1435 C1422 0.961 . S
H1436 C1422 0.961 . S
H1437 C1423 0.958 . S
H1438 C1423 0.961 . S
H1439 C1423 0.960 . S
C1440 C1441 1.391 . S
C1440 C1442 1.394 . S
C1440 H1456 0.931 . S
C1441 C1440 1.391 . S
C1441 C1445 1.376 1_545 S
C1442 C1440 1.394 . S
C1442 C1443 1.369 1_545 S
C1442 C1446 1.531 . S
C1443 C1442 1.369 1_565 S
C1443 C1444 1.410 . S
C1443 C1451 1.503 . S
C1444 C1443 1.410 . S
C1444 C1445 1.392 . S
C1444 C1447 1.511 . S
C1445 C1441 1.376 1_565 S
C1445 C1444 1.392 . S
C1445 H1457 0.929 . S
C1446 C1442 1.531 . S
C1446 H1458 0.960 . S
C1446 H1459 0.962 1_545 S
C1446 H1460 0.960 . S
C1447 C1444 1.511 . S
C1447 H1461 0.961 . S
C1447 H1462 0.961 . S
C1447 H1463 0.961 . S
C1448 C1449 1.370 . S
C1448 C1450 1.363 . S
C1448 H1464 0.931 . S
C1449 C1448 1.370 . S
C1449 C1453 1.408 . S
C1450 C1448 1.363 . S
C1450 C1451 1.370 . S
C1450 C1454 1.524 . S
C1451 C1443 1.503 . S
C1451 C1450 1.370 . S
C1451 C1452 1.403 1_565 S
C1452 C1451 1.403 1_545 S
C1452 C1453 1.404 1_545 S
C1452 C1455 1.539 . S
C1453 C1449 1.408 . S
C1453 C1452 1.404 1_565 S
C1453 H1465 0.930 1_565 S
C1454 C1450 1.524 . S
C1454 H1466 0.956 . S
C1454 H1467 0.961 . S
C1454 H1468 0.961 . S
C1455 C1452 1.539 . S
C1455 H1469 0.958 . S
C1455 H1470 0.961 . S
C1455 H1471 0.960 . S
H1456 C1440 0.931 . S
H1457 C1445 0.929 . S
H1458 C1446 0.960 . S
H1459 C1446 0.962 1_565 S
H1460 C1446 0.960 . S
H1461 C1447 0.961 . S
H1462 C1447 0.961 . S
H1463 C1447 0.961 . S
H1464 C1448 0.931 . S
H1465 C1453 0.930 1_545 S
H1466 C1454 0.956 . S
H1467 C1454 0.961 . S
H1468 C1454 0.961 . S
H1469 C1455 0.958 . S
H1470 C1455 0.961 . S
H1471 C1455 0.960 . S
C1472 C1473 1.391 . S
C1472 C1474 1.394 . S
C1472 H1488 0.931 . S
C1473 C1472 1.391 . S
C1473 C1477 1.376 . S
C1474 C1472 1.394 . S
C1474 C1475 1.369 . S
C1474 C1478 1.531 . S
C1475 C1474 1.369 . S
C1475 C1476 1.410 . S
C1475 C1483 1.503 . S
C1476 C1475 1.410 . S
C1476 C1477 1.392 . S
C1476 C1479 1.511 . S
C1477 C1473 1.376 . S
C1477 C1476 1.392 . S
C1477 H1489 0.929 . S
C1478 C1474 1.531 . S
C1478 H1490 0.960 . S
C1478 H1491 0.962 . S
C1478 H1492 0.960 . S
C1479 C1476 1.511 . S
C1479 H1493 0.961 . S
C1479 H1494 0.961 . S
C1479 H1495 0.961 . S
C1480 C1481 1.370 . S
C1480 C1482 1.363 . S
C1480 H1496 0.931 . S
C1481 C1480 1.370 . S
C1481 C1485 1.408 . S
C1482 C1480 1.363 . S
C1482 C1483 1.370 . S
C1482 C1486 1.524 . S
C1483 C1475 1.503 . S
C1483 C1482 1.370 . S
C1483 C1484 1.403 . S
C1484 C1483 1.403 . S
C1484 C1485 1.404 . S
C1484 C1487 1.539 . S
C1485 C1481 1.408 . S
C1485 C1484 1.404 . S
C1485 H1497 0.930 . S
C1486 C1482 1.524 . S
C1486 H1498 0.956 . S
C1486 H1499 0.961 . S
C1486 H1500 0.961 . S
C1487 C1484 1.539 . S
C1487 H1501 0.958 . S
C1487 H1502 0.961 . S
C1487 H1503 0.960 . S
H1488 C1472 0.931 . S
H1489 C1477 0.929 . S
H1490 C1478 0.960 . S
H1491 C1478 0.962 . S
H1492 C1478 0.960 . S
H1493 C1479 0.961 . S
H1494 C1479 0.961 . S
H1495 C1479 0.961 . S
H1496 C1480 0.931 . S
H1497 C1485 0.930 . S
H1498 C1486 0.956 . S
H1499 C1486 0.961 . S
H1500 C1486 0.961 . S
H1501 C1487 0.958 . S
H1502 C1487 0.961 . S
H1503 C1487 0.960 . S
C1504 C1505 1.391 1_554 S
C1504 C1506 1.394 . S
C1504 H1520 0.931 . S
C1505 C1504 1.391 1_556 S
C1505 C1509 1.376 . S
C1506 C1504 1.394 . S
C1506 C1507 1.369 1_554 S
C1506 C1510 1.531 . S
C1507 C1506 1.369 1_556 S
C1507 C1508 1.410 . S
C1507 C1515 1.503 . S
C1508 C1507 1.410 . S
C1508 C1509 1.392 . S
C1508 C1511 1.511 . S
C1509 C1505 1.376 . S
C1509 C1508 1.392 . S
C1509 H1521 0.929 . S
C1510 C1506 1.531 . S
C1510 H1522 0.960 . S
C1510 H1523 0.962 . S
C1510 H1524 0.960 . S
C1511 C1508 1.511 . S
C1511 H1525 0.961 . S
C1511 H1526 0.961 . S
C1511 H1527 0.961 . S
C1512 C1513 1.370 . S
C1512 C1514 1.363 . S
C1512 H1528 0.931 . S
C1513 C1512 1.370 . S
C1513 C1517 1.408 . S
C1514 C1512 1.363 . S
C1514 C1515 1.370 . S
C1514 C1518 1.524 1_556 S
C1515 C1507 1.503 . S
C1515 C1514 1.370 . S
C1515 C1516 1.403 . S
C1516 C1515 1.403 . S
C1516 C1517 1.404 . S
C1516 C1519 1.539 . S
C1517 C1513 1.408 . S
C1517 C1516 1.404 . S
C1517 H1529 0.930 . S
C1518 C1514 1.524 1_554 S
C1518 H1530 0.956 . S
C1518 H1531 0.961 1_554 S
C1518 H1532 0.961 . S
C1519 C1516 1.539 . S
C1519 H1533 0.958 . S
C1519 H1534 0.961 . S
C1519 H1535 0.960 . S
H1520 C1504 0.931 . S
H1521 C1509 0.929 . S
H1522 C1510 0.960 . S
H1523 C1510 0.962 . S
H1524 C1510 0.960 . S
H1525 C1511 0.961 . S
H1526 C1511 0.961 . S
H1527 C1511 0.961 . S
H1528 C1512 0.931 . S
H1529 C1517 0.930 . S
H1530 C1518 0.956 . S
H1531 C1518 0.961 1_556 S
H1532 C1518 0.961 . S
H1533 C1519 0.958 . S
H1534 C1519 0.961 . S
H1535 C1519 0.960 . S
C1536 C1537 1.391 . S
C1536 C1538 1.394 . S
C1536 H1552 0.931 . S
C1537 C1536 1.391 . S
C1537 C1541 1.376 . S
C1538 C1536 1.394 . S
C1538 C1539 1.369 . S
C1538 C1542 1.531 . S
C1539 C1538 1.369 . S
C1539 C1540 1.410 . S
C1539 C1547 1.503 . S
C1540 C1539 1.410 . S
C1540 C1541 1.392 . S
C1540 C1543 1.511 . S
C1541 C1537 1.376 . S
C1541 C1540 1.392 . S
C1541 H1553 0.929 . S
C1542 C1538 1.531 . S
C1542 H1554 0.960 . S
C1542 H1555 0.962 . S
C1542 H1556 0.960 . S
C1543 C1540 1.511 . S
C1543 H1557 0.961 . S
C1543 H1558 0.961 . S
C1543 H1559 0.961 . S
C1544 C1545 1.370 . S
C1544 C1546 1.363 . S
C1544 H1560 0.931 . S
C1545 C1544 1.370 . S
C1545 C1549 1.408 . S
C1546 C1544 1.363 . S
C1546 C1547 1.370 . S
C1546 C1550 1.524 . S
C1547 C1539 1.503 . S
C1547 C1546 1.370 . S
C1547 C1548 1.403 . S
C1548 C1547 1.403 . S
C1548 C1549 1.404 . S
C1548 C1551 1.539 . S
C1549 C1545 1.408 . S
C1549 C1548 1.404 . S
C1549 H1561 0.930 . S
C1550 C1546 1.524 . S
C1550 H1562 0.956 . S
C1550 H1563 0.961 . S
C1550 H1564 0.961 . S
C1551 C1548 1.539 . S
C1551 H1565 0.958 . S
C1551 H1566 0.961 . S
C1551 H1567 0.960 . S
H1552 C1536 0.931 . S
H1553 C1541 0.929 . S
H1554 C1542 0.960 . S
H1555 C1542 0.962 . S
H1556 C1542 0.960 . S
H1557 C1543 0.961 . S
H1558 C1543 0.961 . S
H1559 C1543 0.961 . S
H1560 C1544 0.931 . S
H1561 C1549 0.930 . S
H1562 C1550 0.956 . S
H1563 C1550 0.961 . S
H1564 C1550 0.961 . S
H1565 C1551 0.958 . S
H1566 C1551 0.961 . S
H1567 C1551 0.960 . S
C1568 C1569 1.391 1_554 S
C1568 C1570 1.394 . S
C1568 H1584 0.931 . S
C1569 C1568 1.391 1_556 S
C1569 C1573 1.376 . S
C1570 C1568 1.394 . S
C1570 C1571 1.369 1_554 S
C1570 C1574 1.531 . S
C1571 C1570 1.369 1_556 S
C1571 C1572 1.410 . S
C1571 C1579 1.503 . S
C1572 C1571 1.410 . S
C1572 C1573 1.392 . S
C1572 C1575 1.511 . S
C1573 C1569 1.376 . S
C1573 C1572 1.392 . S
C1573 H1585 0.929 . S
C1574 C1570 1.531 . S
C1574 H1586 0.960 . S
C1574 H1587 0.962 . S
C1574 H1588 0.960 . S
C1575 C1572 1.511 . S
C1575 H1589 0.961 . S
C1575 H1590 0.961 . S
C1575 H1591 0.961 . S
C1576 C1577 1.370 . S
C1576 C1578 1.363 . S
C1576 H1592 0.931 . S
C1577 C1576 1.370 . S
C1577 C1581 1.408 . S
C1578 C1576 1.363 . S
C1578 C1579 1.370 . S
C1578 C1582 1.524 . S
C1579 C1571 1.503 . S
C1579 C1578 1.370 . S
C1579 C1580 1.403 . S
C1580 C1579 1.403 . S
C1580 C1581 1.408 . S
C1580 C1583 1.538 . S
C1581 C1577 1.408 . S
C1581 C1580 1.408 . S
C1581 H1593 0.928 1_556 S
C1582 C1578 1.524 . S
C1582 H1594 0.956 1_556 S
C1582 H1595 0.961 . S
C1582 H1596 0.961 . S
C1583 C1580 1.538 . S
C1583 H1597 0.945 1_556 S
C1583 H1598 0.968 . S
C1583 H1599 0.968 . S
H1584 C1568 0.931 . S
H1585 C1573 0.929 . S
H1586 C1574 0.960 . S
H1587 C1574 0.962 . S
H1588 C1574 0.960 . S
H1589 C1575 0.961 . S
H1590 C1575 0.961 . S
H1591 C1575 0.961 . S
H1592 C1576 0.931 . S
H1593 C1581 0.928 1_554 S
H1594 C1582 0.956 1_554 S
H1595 C1582 0.961 . S
H1596 C1582 0.961 . S
H1597 C1583 0.945 1_554 S
H1598 C1583 0.968 . S
H1599 C1583 0.968 . S
C1600 C1601 1.391 . S
C1600 C1602 1.394 . S
C1600 H1616 0.931 . S
C1601 C1600 1.391 . S
C1601 C1605 1.376 . S
C1602 C1600 1.394 . S
C1602 C1603 1.369 . S
C1602 C1606 1.531 . S
C1603 C1602 1.369 . S
C1603 C1604 1.410 . S
C1603 C1611 1.503 . S
C1604 C1603 1.410 . S
C1604 C1605 1.392 . S
C1604 C1607 1.511 . S
C1605 C1601 1.376 . S
C1605 C1604 1.392 . S
C1605 H1617 0.929 . S
C1606 C1602 1.531 . S
C1606 H1618 0.960 . S
C1606 H1619 0.962 . S
C1606 H1620 0.960 . S
C1607 C1604 1.511 . S
C1607 H1621 0.961 . S
C1607 H1622 0.961 . S
C1607 H1623 0.961 . S
C1608 C1609 1.370 . S
C1608 C1610 1.363 . S
C1608 H1624 0.931 . S
C1609 C1608 1.370 . S
C1609 C1613 1.408 . S
C1610 C1608 1.363 . S
C1610 C1611 1.370 . S
C1610 C1614 1.524 . S
C1611 C1603 1.503 . S
C1611 C1610 1.370 . S
C1611 C1612 1.403 . S
C1612 C1611 1.403 . S
C1612 C1613 1.404 . S
C1612 C1615 1.539 . S
C1613 C1609 1.408 . S
C1613 C1612 1.404 . S
C1613 H1625 0.930 . S
C1614 C1610 1.524 . S
C1614 H1626 0.956 . S
C1614 H1627 0.961 . S
C1614 H1628 0.961 . S
C1615 C1612 1.539 . S
C1615 H1629 0.958 . S
C1615 H1630 0.961 . S
C1615 H1631 0.960 . S
H1616 C1600 0.931 . S
H1617 C1605 0.929 . S
H1618 C1606 0.960 . S
H1619 C1606 0.962 . S
H1620 C1606 0.960 . S
H1621 C1607 0.961 . S
H1622 C1607 0.961 . S
H1623 C1607 0.961 . S
H1624 C1608 0.931 . S
H1625 C1613 0.930 . S
H1626 C1614 0.956 . S
H1627 C1614 0.961 . S
H1628 C1614 0.961 . S
H1629 C1615 0.958 . S
H1630 C1615 0.961 . S
H1631 C1615 0.960 . S
C1632 C1633 1.437 . S
C1632 C1634 1.394 . S
C1632 H1648 0.931 . S
C1633 C1632 1.437 . S
C1633 C1637 1.339 1_655 S
C1634 C1632 1.394 . S
C1634 C1635 1.369 . S
C1634 C1638 1.531 . S
C1635 C1634 1.369 . S
C1635 C1636 1.410 1_655 S
C1635 C1643 1.503 . S
C1636 C1635 1.410 1_455 S
C1636 C1637 1.392 . S
C1636 C1639 1.511 . S
C1637 C1633 1.339 1_455 S
C1637 C1636 1.392 . S
C1637 H1649 0.929 . S
C1638 C1634 1.531 . S
C1638 H1650 0.960 . S
C1638 H1651 0.962 . S
C1638 H1652 0.960 . S
C1639 C1636 1.511 . S
C1639 H1653 0.961 . S
C1639 H1654 0.961 . S
C1639 H1655 0.961 . S
C1640 C1641 1.370 . S
C1640 C1642 1.363 . S
C1640 H1656 0.931 . S
C1641 C1640 1.370 . S
C1641 C1645 1.408 . S
C1642 C1640 1.363 . S
C1642 C1643 1.370 . S
C1642 C1646 1.524 1_655 S
C1643 C1635 1.503 . S
C1643 C1642 1.370 . S
C1643 C1644 1.403 . S
C1644 C1643 1.403 . S
C1644 C1645 1.404 . S
C1644 C1647 1.539 . S
C1645 C1641 1.408 . S
C1645 C1644 1.404 . S
C1645 H1657 0.930 . S
C1646 C1642 1.524 1_455 S
C1646 H1658 0.956 1_455 S
C1646 H1659 0.961 . S
C1646 H1660 0.961 . S
C1647 C1644 1.539 . S
C1647 H1661 0.958 . S
C1647 H1662 0.961 . S
C1647 H1663 0.960 . S
H1648 C1632 0.931 . S
H1649 C1637 0.929 . S
H1650 C1638 0.960 . S
H1651 C1638 0.962 . S
H1652 C1638 0.960 . S
H1653 C1639 0.961 . S
H1654 C1639 0.961 . S
H1655 C1639 0.961 . S
H1656 C1640 0.931 . S
H1657 C1645 0.930 . S
H1658 C1646 0.956 1_655 S
H1659 C1646 0.961 . S
H1660 C1646 0.961 . S
H1661 C1647 0.958 . S
H1662 C1647 0.961 . S
H1663 C1647 0.960 . S
C1664 C1665 1.391 . S
C1664 C1666 1.394 . S
C1664 H1680 0.931 . S
C1665 C1664 1.391 . S
C1665 C1669 1.376 . S
C1666 C1664 1.394 . S
C1666 C1667 1.369 . S
C1666 C1670 1.531 . S
C1667 C1666 1.369 . S
C1667 C1668 1.410 . S
C1667 C1675 1.503 . S
C1668 C1667 1.410 . S
C1668 C1669 1.392 . S
C1668 C1671 1.511 . S
C1669 C1665 1.376 . S
C1669 C1668 1.392 . S
C1669 H1681 0.929 . S
C1670 C1666 1.531 . S
C1670 H1682 0.960 . S
C1670 H1683 0.962 . S
C1670 H1684 0.960 . S
C1671 C1668 1.511 . S
C1671 H1685 0.961 . S
C1671 H1686 0.961 . S
C1671 H1687 0.961 . S
C1672 C1673 1.370 . S
C1672 C1674 1.363 . S
C1672 H1688 0.931 . S
C1673 C1672 1.370 . S
C1673 C1677 1.408 . S
C1674 C1672 1.363 . S
C1674 C1675 1.370 . S
C1674 C1678 1.524 . S
C1675 C1667 1.503 . S
C1675 C1674 1.370 . S
C1675 C1676 1.403 . S
C1676 C1675 1.403 . S
C1676 C1677 1.404 . S
C1676 C1679 1.539 . S
C1677 C1673 1.408 . S
C1677 C1676 1.404 . S
C1677 H1689 0.930 . S
C1678 C1674 1.524 . S
C1678 H1690 0.956 . S
C1678 H1691 0.961 . S
C1678 H1692 0.961 . S
C1679 C1676 1.539 . S
C1679 H1693 0.958 . S
C1679 H1694 0.961 . S
C1679 H1695 0.960 . S
H1680 C1664 0.931 . S
H1681 C1669 0.929 . S
H1682 C1670 0.960 . S
H1683 C1670 0.962 . S
H1684 C1670 0.960 . S
H1685 C1671 0.961 . S
H1686 C1671 0.961 . S
H1687 C1671 0.961 . S
H1688 C1672 0.931 . S
H1689 C1677 0.930 . S
H1690 C1678 0.956 . S
H1691 C1678 0.961 . S
H1692 C1678 0.961 . S
H1693 C1679 0.958 . S
H1694 C1679 0.961 . S
H1695 C1679 0.960 . S
C1696 C1697 1.391 . S
C1696 C1698 1.394 . S
C1696 H1712 0.931 . S
C1697 C1696 1.391 . S
C1697 C1701 1.376 1_655 S
C1698 C1696 1.394 . S
C1698 C1699 1.369 . S
C1698 C1702 1.531 . S
C1699 C1698 1.369 . S
C1699 C1700 1.410 1_655 S
C1699 C1707 1.503 . S
C1700 C1699 1.410 1_455 S
C1700 C1701 1.392 . S
C1700 C1703 1.511 . S
C1701 C1697 1.376 1_455 S
C1701 C1700 1.392 . S
C1701 H1713 0.929 . S
C1702 C1698 1.531 . S
C1702 H1714 0.960 . S
C1702 H1715 0.962 . S
C1702 H1716 0.960 . S
C1703 C1700 1.511 . S
C1703 H1717 0.961 . S
C1703 H1718 0.961 . S
C1703 H1719 0.961 . S
C1704 C1705 1.370 1_455 S
C1704 C1706 1.360 1_455 S
C1704 H1720 0.931 . S
C1705 C1704 1.370 1_655 S
C1705 C1709 1.408 . S
C1706 C1704 1.360 1_655 S
C1706 C1707 1.376 . S
C1706 C1710 1.523 1_655 S
C1707 C1699 1.503 . S
C1707 C1706 1.376 . S
C1707 C1708 1.403 . S
C1708 C1707 1.403 . S
C1708 C1709 1.404 . S
C1708 C1711 1.539 . S
C1709 C1705 1.408 . S
C1709 C1708 1.404 . S
C1709 H1721 0.930 . S
C1710 C1706 1.523 1_455 S
C1710 H1722 0.956 1_455 S
C1710 H1723 0.961 . S
C1710 H1724 0.961 . S
C1711 C1708 1.539 . S
C1711 H1725 0.958 . S
C1711 H1726 0.961 . S
C1711 H1727 0.960 . S
H1712 C1696 0.931 . S
H1713 C1701 0.929 . S
H1714 C1702 0.960 . S
H1715 C1702 0.962 . S
H1716 C1702 0.960 . S
H1717 C1703 0.961 . S
H1718 C1703 0.961 . S
H1719 C1703 0.961 . S
H1720 C1704 0.931 . S
H1721 C1709 0.930 . S
H1722 C1710 0.956 1_655 S
H1723 C1710 0.961 . S
H1724 C1710 0.961 . S
H1725 C1711 0.958 . S
H1726 C1711 0.961 . S
H1727 C1711 0.960 . S
C1728 C1729 1.391 . S
C1728 C1730 1.394 . S
C1728 H1744 0.931 . S
C1729 C1728 1.391 . S
C1729 C1733 1.376 . S
C1730 C1728 1.394 . S
C1730 C1731 1.369 . S
C1730 C1734 1.531 . S
C1731 C1730 1.369 . S
C1731 C1732 1.410 . S
C1731 C1739 1.503 . S
C1732 C1731 1.410 . S
C1732 C1733 1.392 . S
C1732 C1735 1.511 . S
C1733 C1729 1.376 . S
C1733 C1732 1.392 . S
C1733 H1745 0.929 . S
C1734 C1730 1.531 . S
C1734 H1746 0.960 . S
C1734 H1747 0.962 . S
C1734 H1748 0.960 . S
C1735 C1732 1.511 . S
C1735 H1749 0.961 . S
C1735 H1750 0.961 . S
C1735 H1751 0.961 . S
C1736 C1737 1.370 . S
C1736 C1738 1.363 . S
C1736 H1752 0.931 . S
C1737 C1736 1.370 . S
C1737 C1741 1.408 . S
C1738 C1736 1.363 . S
C1738 C1739 1.370 . S
C1738 C1742 1.524 . S
C1739 C1731 1.503 . S
C1739 C1738 1.370 . S
C1739 C1740 1.403 . S
C1740 C1739 1.403 . S
C1740 C1741 1.404 . S
C1740 C1743 1.539 . S
C1741 C1737 1.408 . S
C1741 C1740 1.404 . S
C1741 H1753 0.930 . S
C1742 C1738 1.524 . S
C1742 H1754 0.956 . S
C1742 H1755 0.961 . S
C1742 H1756 0.961 . S
C1743 C1740 1.539 . S
C1743 H1757 0.958 . S
C1743 H1758 0.961 . S
C1743 H1759 0.960 . S
H1744 C1728 0.931 . S
H1745 C1733 0.929 . S
H1746 C1734 0.960 . S
H1747 C1734 0.962 . S
H1748 C1734 0.960 . S
H1749 C1735 0.961 . S
H1750 C1735 0.961 . S
H1751 C1735 0.961 . S
H1752 C1736 0.931 . S
H1753 C1741 0.930 . S
H1754 C1742 0.956 . S
H1755 C1742 0.961 . S
H1756 C1742 0.961 . S
H1757 C1743 0.958 . S
H1758 C1743 0.961 . S
H1759 C1743 0.960 . S
C1760 C1761 1.391 . S
C1760 C1762 1.394 . S
C1760 H1776 0.931 . S
C1761 C1760 1.391 . S
C1761 C1765 1.376 . S
C1762 C1760 1.394 . S
C1762 C1763 1.369 . S
C1762 C1766 1.531 . S
C1763 C1762 1.369 . S
C1763 C1764 1.410 . S
C1763 C1771 1.503 . S
C1764 C1763 1.410 . S
C1764 C1765 1.392 . S
C1764 C1767 1.511 . S
C1765 C1761 1.376 . S
C1765 C1764 1.392 . S
C1765 H1777 0.929 . S
C1766 C1762 1.531 . S
C1766 H1778 0.960 . S
C1766 H1779 0.962 . S
C1766 H1780 0.960 . S
C1767 C1764 1.511 . S
C1767 H1781 0.961 . S
C1767 H1782 0.961 . S
C1767 H1783 0.961 . S
C1768 C1769 1.370 . S
C1768 C1770 1.363 . S
C1768 H1784 0.931 . S
C1769 C1768 1.370 . S
C1769 C1773 1.408 . S
C1770 C1768 1.363 . S
C1770 C1771 1.370 . S
C1770 C1774 1.524 . S
C1771 C1763 1.503 . S
C1771 C1770 1.370 . S
C1771 C1772 1.403 . S
C1772 C1771 1.403 . S
C1772 C1773 1.404 . S
C1772 C1775 1.539 . S
C1773 C1769 1.408 . S
C1773 C1772 1.404 . S
C1773 H1785 0.930 . S
C1774 C1770 1.524 . S
C1774 H1786 0.956 . S
C1774 H1787 0.961 . S
C1774 H1788 0.961 . S
C1775 C1772 1.539 . S
C1775 H1789 0.958 . S
C1775 H1790 0.961 . S
C1775 H1791 0.960 . S
H1776 C1760 0.931 . S
H1777 C1765 0.929 . S
H1778 C1766 0.960 . S
H1779 C1766 0.962 . S
H1780 C1766 0.960 . S
H1781 C1767 0.961 . S
H1782 C1767 0.961 . S
H1783 C1767 0.961 . S
H1784 C1768 0.931 . S
H1785 C1773 0.930 . S
H1786 C1774 0.956 . S
H1787 C1774 0.961 . S
H1788 C1774 0.961 . S
H1789 C1775 0.958 . S
H1790 C1775 0.961 . S
H1791 C1775 0.960 . S
C1792 C1793 1.391 . S
C1792 C1794 1.394 . S
C1792 H1808 0.931 . S
C1793 C1792 1.391 . S
C1793 C1797 1.376 1_545 S
C1794 C1792 1.394 . S
C1794 C1795 1.369 . S
C1794 C1798 1.531 . S
C1795 C1794 1.369 . S
C1795 C1796 1.410 1_545 S
C1795 C1803 1.503 . S
C1796 C1795 1.410 1_565 S
C1796 C1797 1.392 . S
C1796 C1799 1.511 . S
C1797 C1793 1.376 1_565 S
C1797 C1796 1.392 . S
C1797 H1809 0.929 . S
C1798 C1794 1.531 . S
C1798 H1810 0.960 . S
C1798 H1811 0.962 . S
C1798 H1812 0.960 . S
C1799 C1796 1.511 . S
C1799 H1813 0.961 . S
C1799 H1814 0.961 . S
C1799 H1815 0.961 . S
C1800 C1801 1.370 1_565 S
C1800 C1802 1.363 . S
C1800 H1816 0.931 . S
C1801 C1800 1.370 1_545 S
C1801 C1805 1.408 . S
C1802 C1800 1.363 . S
C1802 C1803 1.370 1_565 S
C1802 C1806 1.524 . S
C1803 C1795 1.503 . S
C1803 C1802 1.370 1_545 S
C1803 C1804 1.403 . S
C1804 C1803 1.403 . S
C1804 C1805 1.404 . S
C1804 C1807 1.539 . S
C1805 C1801 1.408 . S
C1805 C1804 1.404 . S
C1805 H1817 0.930 . S
C1806 C1802 1.524 . S
C1806 H1818 0.956 . S
C1806 H1819 0.961 . S
C1806 H1820 0.961 . S
C1807 C1804 1.539 . S
C1807 H1821 0.958 . S
C1807 H1822 0.961 . S
C1807 H1823 0.960 . S
H1808 C1792 0.931 . S
H1809 C1797 0.929 . S
H1810 C1798 0.960 . S
H1811 C1798 0.962 . S
H1812 C1798 0.960 . S
H1813 C1799 0.961 . S
H1814 C1799 0.961 . S
H1815 C1799 0.961 . S
H1816 C1800 0.931 . S
H1817 C1805 0.930 . S
H1818 C1806 0.956 . S
H1819 C1806 0.961 . S
H1820 C1806 0.961 . S
H1821 C1807 0.958 . S
H1822 C1807 0.961 . S
H1823 C1807 0.960 . S
C1824 C1825 1.391 . S
C1824 C1826 1.394 . S
C1824 H1840 0.931 . S
C1825 C1824 1.391 . S
C1825 C1829 1.376 1_545 S
C1826 C1824 1.394 . S
C1826 C1827 1.369 . S
C1826 C1830 1.531 . S
C1827 C1826 1.369 . S
C1827 C1828 1.386 1_545 S
C1827 C1835 1.503 . S
C1828 C1827 1.386 1_565 S
C1828 C1829 1.400 . S
C1828 C1831 1.529 . S
C1829 C1825 1.376 1_565 S
C1829 C1828 1.400 . S
C1829 H1841 0.929 . S
C1830 C1826 1.531 . S
C1830 H1842 0.960 . S
C1830 H1843 0.962 . S
C1830 H1844 0.960 . S
C1831 C1828 1.529 . S
C1831 H1845 0.961 . S
C1831 H1846 0.961 . S
C1831 H1847 0.988 . S
C1832 C1833 1.370 . S
C1832 C1834 1.363 . S
C1832 H1848 0.929 . S
C1833 C1832 1.370 . S
C1833 C1837 1.408 . S
C1834 C1832 1.363 . S
C1834 C1835 1.370 . S
C1834 C1838 1.524 1_545 S
C1835 C1827 1.503 . S
C1835 C1834 1.370 . S
C1835 C1836 1.403 . S
C1836 C1835 1.403 . S
C1836 C1837 1.404 . S
C1836 C1839 1.539 . S
C1837 C1833 1.408 . S
C1837 C1836 1.404 . S
C1837 H1849 0.930 . S
C1838 C1834 1.524 1_565 S
C1838 H1850 0.956 . S
C1838 H1851 0.961 . S
C1838 H1852 0.961 . S
C1839 C1836 1.539 . S
C1839 H1853 0.958 . S
C1839 H1854 0.961 . S
C1839 H1855 0.960 . S
H1840 C1824 0.931 . S
H1841 C1829 0.929 . S
H1842 C1830 0.960 . S
H1843 C1830 0.962 . S
H1844 C1830 0.960 . S
H1845 C1831 0.961 . S
H1846 C1831 0.961 . S
H1847 C1831 0.988 . S
H1848 C1832 0.929 . S
H1849 C1837 0.930 . S
H1850 C1838 0.956 . S
H1851 C1838 0.961 . S
H1852 C1838 0.961 . S
H1853 C1839 0.958 . S
H1854 C1839 0.961 . S
H1855 C1839 0.960 . S
C1856 C1857 1.391 . S
C1856 C1858 1.394 . S
C1856 H1872 0.931 . S
C1857 C1856 1.391 . S
C1857 C1861 1.376 . S
C1858 C1856 1.394 . S
C1858 C1859 1.369 . S
C1858 C1862 1.531 . S
C1859 C1858 1.369 . S
C1859 C1860 1.410 . S
C1859 C1867 1.503 . S
C1860 C1859 1.410 . S
C1860 C1861 1.392 . S
C1860 C1863 1.511 . S
C1861 C1857 1.376 . S
C1861 C1860 1.392 . S
C1861 H1873 0.929 . S
C1862 C1858 1.531 . S
C1862 H1874 0.960 . S
C1862 H1875 0.962 . S
C1862 H1876 0.960 . S
C1863 C1860 1.511 . S
C1863 H1877 0.961 . S
C1863 H1878 0.961 . S
C1863 H1879 0.961 . S
C1864 C1865 1.370 . S
C1864 C1866 1.363 . S
C1864 H1880 0.931 . S
C1865 C1864 1.370 . S
C1865 C1869 1.408 . S
C1866 C1864 1.363 . S
C1866 C1867 1.370 . S
C1866 C1870 1.524 . S
C1867 C1859 1.503 . S
C1867 C1866 1.370 . S
C1867 C1868 1.403 . S
C1868 C1867 1.403 . S
C1868 C1869 1.404 . S
C1868 C1871 1.539 . S
C1869 C1865 1.408 . S
C1869 C1868 1.404 . S
C1869 H1881 0.930 . S
C1870 C1866 1.524 . S
C1870 H1882 0.956 . S
C1870 H1883 0.961 . S
C1870 H1884 0.961 . S
C1871 C1868 1.539 . S
C1871 H1885 0.958 . S
C1871 H1886 0.961 . S
C1871 H1887 0.960 . S
H1872 C1856 0.931 . S
H1873 C1861 0.929 . S
H1874 C1862 0.960 . S
H1875 C1862 0.962 . S
H1876 C1862 0.960 . S
H1877 C1863 0.961 . S
H1878 C1863 0.961 . S
H1879 C1863 0.961 . S
H1880 C1864 0.931 . S
H1881 C1869 0.930 . S
H1882 C1870 0.956 . S
H1883 C1870 0.961 . S
H1884 C1870 0.961 . S
H1885 C1871 0.958 . S
H1886 C1871 0.961 . S
H1887 C1871 0.960 . S
C1888 C1889 1.391 . S
C1888 C1890 1.394 . S
C1888 H1904 0.931 . S
C1889 C1888 1.391 . S
C1889 C1893 1.376 1_556 S
C1890 C1888 1.394 . S
C1890 C1891 1.369 1_556 S
C1890 C1894 1.531 . S
C1891 C1890 1.369 1_554 S
C1891 C1892 1.410 . S
C1891 C1899 1.503 . S
C1892 C1891 1.410 . S
C1892 C1893 1.392 . S
C1892 C1895 1.511 . S
C1893 C1889 1.376 1_554 S
C1893 C1892 1.392 . S
C1893 H1905 0.929 . S
C1894 C1890 1.531 . S
C1894 H1906 0.960 . S
C1894 H1907 0.962 1_556 S
C1894 H1908 0.960 . S
C1895 C1892 1.511 . S
C1895 H1909 0.961 . S
C1895 H1910 0.961 . S
C1895 H1911 0.961 . S
C1896 C1897 1.370 . S
C1896 C1898 1.363 . S
C1896 H1912 0.931 . S
C1897 C1896 1.370 . S
C1897 C1901 1.408 . S
C1898 C1896 1.363 . S
C1898 C1899 1.370 . S
C1898 C1902 1.524 . S
C1899 C1891 1.503 . S
C1899 C1898 1.370 . S
C1899 C1900 1.403 1_554 S
C1900 C1899 1.403 1_556 S
C1900 C1901 1.404 1_556 S
C1900 C1903 1.539 . S
C1901 C1897 1.408 . S
C1901 C1900 1.404 1_554 S
C1901 H1913 0.930 1_554 S
C1902 C1898 1.524 . S
C1902 H1914 0.956 . S
C1902 H1915 0.961 . S
C1902 H1916 0.961 . S
C1903 C1900 1.539 . S
C1903 H1917 0.958 . S
C1903 H1918 0.961 . S
C1903 H1919 0.960 . S
H1904 C1888 0.931 . S
H1905 C1893 0.929 . S
H1906 C1894 0.960 . S
H1907 C1894 0.962 1_554 S
H1908 C1894 0.960 . S
H1909 C1895 0.961 . S
H1910 C1895 0.961 . S
H1911 C1895 0.961 . S
H1912 C1896 0.931 . S
H1913 C1901 0.930 1_556 S
H1914 C1902 0.956 . S
H1915 C1902 0.961 . S
H1916 C1902 0.961 . S
H1917 C1903 0.958 . S
H1918 C1903 0.961 . S
H1919 C1903 0.960 . S
C1920 C1921 1.391 . S
C1920 C1922 1.394 . S
C1920 H1936 0.931 . S
C1921 C1920 1.391 . S
C1921 C1925 1.376 . S
C1922 C1920 1.394 . S
C1922 C1923 1.369 . S
C1922 C1926 1.531 . S
C1923 C1922 1.369 . S
C1923 C1924 1.410 . S
C1923 C1931 1.503 . S
C1924 C1923 1.410 . S
C1924 C1925 1.392 . S
C1924 C1927 1.511 . S
C1925 C1921 1.376 . S
C1925 C1924 1.392 . S
C1925 H1937 0.929 . S
C1926 C1922 1.531 . S
C1926 H1938 0.960 . S
C1926 H1939 0.962 . S
C1926 H1940 0.960 . S
C1927 C1924 1.511 . S
C1927 H1941 0.961 . S
C1927 H1942 0.961 . S
C1927 H1943 0.961 . S
C1928 C1929 1.370 . S
C1928 C1930 1.363 . S
C1928 H1944 0.931 . S
C1929 C1928 1.370 . S
C1929 C1933 1.408 . S
C1930 C1928 1.363 . S
C1930 C1931 1.370 . S
C1930 C1934 1.524 . S
C1931 C1923 1.503 . S
C1931 C1930 1.370 . S
C1931 C1932 1.403 . S
C1932 C1931 1.403 . S
C1932 C1933 1.404 . S
C1932 C1935 1.539 . S
C1933 C1929 1.408 . S
C1933 C1932 1.404 . S
C1933 H1945 0.930 . S
C1934 C1930 1.524 . S
C1934 H1946 0.956 . S
C1934 H1947 0.961 . S
C1934 H1948 0.961 . S
C1935 C1932 1.539 . S
C1935 H1949 0.958 . S
C1935 H1950 0.961 . S
C1935 H1951 0.960 . S
H1936 C1920 0.931 . S
H1937 C1925 0.929 . S
H1938 C1926 0.960 . S
H1939 C1926 0.962 . S
H1940 C1926 0.960 . S
H1941 C1927 0.961 . S
H1942 C1927 0.961 . S
H1943 C1927 0.961 . S
H1944 C1928 0.931 . S
H1945 C1933 0.930 . S
H1946 C1934 0.956 . S
H1947 C1934 0.961 . S
H1948 C1934 0.961 . S
H1949 C1935 0.958 . S
H1950 C1935 0.961 . S
H1951 C1935 0.960 . S
C1952 C1953 1.391 1_556 S
C1952 C1954 1.394 . S
C1952 H1968 0.931 . S
C1953 C1952 1.391 1_554 S
C1953 C1957 1.376 . S
C1954 C1952 1.394 . S
C1954 C1955 1.369 1_556 S
C1954 C1958 1.531 . S
C1955 C1954 1.369 1_554 S
C1955 C1956 1.410 . S
C1955 C1963 1.503 . S
C1956 C1955 1.410 . S
C1956 C1957 1.392 . S
C1956 C1959 1.511 . S
C1957 C1953 1.376 . S
C1957 C1956 1.392 . S
C1957 H1969 0.929 . S
C1958 C1954 1.531 . S
C1958 H1970 0.960 . S
C1958 H1971 0.962 . S
C1958 H1972 0.960 . S
C1959 C1956 1.511 . S
C1959 H1973 0.961 . S
C1959 H1974 0.961 . S
C1959 H1975 0.961 . S
C1960 C1961 1.370 1_556 S
C1960 C1962 1.363 . S
C1960 H1976 0.931 . S
C1961 C1960 1.370 1_554 S
C1961 C1965 1.408 . S
C1962 C1960 1.363 . S
C1962 C1963 1.370 1_556 S
C1962 C1966 1.524 . S
C1963 C1955 1.503 . S
C1963 C1962 1.370 1_554 S
C1963 C1964 1.403 . S
C1964 C1963 1.403 . S
C1964 C1965 1.404 . S
C1964 C1967 1.539 . S
C1965 C1961 1.408 . S
C1965 C1964 1.404 . S
C1965 H1977 0.930 . S
C1966 C1962 1.524 . S
C1966 H1978 0.956 . S
C1966 H1979 0.961 . S
C1966 H1980 0.961 . S
C1967 C1964 1.539 . S
C1967 H1981 0.958 . S
C1967 H1982 0.961 . S
C1967 H1983 0.960 . S
H1968 C1952 0.931 . S
H1969 C1957 0.929 . S
H1970 C1958 0.960 . S
H1971 C1958 0.962 . S
H1972 C1958 0.960 . S
H1973 C1959 0.961 . S
H1974 C1959 0.961 . S
H1975 C1959 0.961 . S
H1976 C1960 0.931 . S
H1977 C1965 0.930 . S
H1978 C1966 0.956 . S
H1979 C1966 0.961 . S
H1980 C1966 0.961 . S
H1981 C1967 0.958 . S
H1982 C1967 0.961 . S
H1983 C1967 0.960 . S
C1984 C1985 1.391 . S
C1984 C1986 1.394 . S
C1984 H2000 0.931 . S
C1985 C1984 1.391 . S
C1985 C1989 1.376 . S
C1986 C1984 1.394 . S
C1986 C1987 1.369 . S
C1986 C1990 1.531 . S
C1987 C1986 1.369 . S
C1987 C1988 1.410 . S
C1987 C1995 1.503 . S
C1988 C1987 1.410 . S
C1988 C1989 1.392 . S
C1988 C1991 1.511 . S
C1989 C1985 1.376 . S
C1989 C1988 1.392 . S
C1989 H2001 0.929 . S
C1990 C1986 1.531 . S
C1990 H2002 0.960 . S
C1990 H2003 0.962 . S
C1990 H2004 0.960 . S
C1991 C1988 1.511 . S
C1991 H2005 0.961 . S
C1991 H2006 0.961 . S
C1991 H2007 0.961 . S
C1992 C1993 1.370 . S
C1992 C1994 1.363 . S
C1992 H2008 0.931 . S
C1993 C1992 1.370 . S
C1993 C1997 1.408 . S
C1994 C1992 1.363 . S
C1994 C1995 1.370 . S
C1994 C1998 1.524 . S
C1995 C1987 1.503 . S
C1995 C1994 1.370 . S
C1995 C1996 1.403 . S
C1996 C1995 1.403 . S
C1996 C1997 1.404 . S
C1996 C1999 1.539 . S
C1997 C1993 1.408 . S
C1997 C1996 1.404 . S
C1997 H2009 0.930 . S
C1998 C1994 1.524 . S
C1998 H2010 0.956 . S
C1998 H2011 0.961 . S
C1998 H2012 0.961 . S
C1999 C1996 1.539 . S
C1999 H2013 0.958 . S
C1999 H2014 0.961 . S
C1999 H2015 0.960 . S
H2000 C1984 0.931 . S
H2001 C1989 0.929 . S
H2002 C1990 0.960 . S
H2003 C1990 0.962 . S
H2004 C1990 0.960 . S
H2005 C1991 0.961 . S
H2006 C1991 0.961 . S
H2007 C1991 0.961 . S
H2008 C1992 0.931 . S
H2009 C1997 0.930 . S
H2010 C1998 0.956 . S
H2011 C1998 0.961 . S
H2012 C1998 0.961 . S
H2013 C1999 0.958 . S
H2014 C1999 0.961 . S
H2015 C1999 0.960 . S
C2016 C2017 1.391 . S
C2016 C2018 1.394 . S
C2016 H2032 0.931 . S
C2017 C2016 1.391 . S
C2017 C2021 1.376 1_655 S
C2018 C2016 1.394 . S
C2018 C2019 1.369 1_655 S
C2018 C2022 1.531 . S
C2019 C2018 1.369 1_455 S
C2019 C2020 1.410 . S
C2019 C2027 1.503 . S
C2020 C2019 1.410 . S
C2020 C2021 1.392 . S
C2020 C2023 1.511 . S
C2021 C2017 1.376 1_455 S
C2021 C2020 1.392 . S
C2021 H2033 0.929 . S
C2022 C2018 1.531 . S
C2022 H2034 0.960 . S
C2022 H2035 0.962 . S
C2022 H2036 0.960 . S
C2023 C2020 1.511 . S
C2023 H2037 0.961 . S
C2023 H2038 0.961 . S
C2023 H2039 0.961 . S
C2024 C2025 1.370 . S
C2024 C2026 1.363 . S
C2024 H2040 0.931 . S
C2025 C2024 1.370 . S
C2025 C2029 1.408 . S
C2026 C2024 1.363 . S
C2026 C2027 1.370 . S
C2026 C2030 1.524 . S
C2027 C2019 1.503 . S
C2027 C2026 1.370 . S
C2027 C2028 1.403 . S
C2028 C2027 1.403 . S
C2028 C2029 1.404 . S
C2028 C2031 1.539 1_455 S
C2029 C2025 1.408 . S
C2029 C2028 1.404 . S
C2029 H2041 0.930 1_455 S
C2030 C2026 1.524 . S
C2030 H2042 0.956 . S
C2030 H2043 0.961 . S
C2030 H2044 0.961 . S
C2031 C2028 1.539 1_655 S
C2031 H2045 0.958 . S
C2031 H2046 0.961 . S
C2031 H2047 0.960 . S
H2032 C2016 0.931 . S
H2033 C2021 0.929 . S
H2034 C2022 0.960 . S
H2035 C2022 0.962 . S
H2036 C2022 0.960 . S
H2037 C2023 0.961 . S
H2038 C2023 0.961 . S
H2039 C2023 0.961 . S
H2040 C2024 0.931 . S
H2041 C2029 0.930 1_655 S
H2042 C2030 0.956 . S
H2043 C2030 0.961 . S
H2044 C2030 0.961 . S
H2045 C2031 0.958 . S
H2046 C2031 0.961 . S
H2047 C2031 0.960 . S
C2048 C2049 1.391 . S
C2048 C2050 1.394 . S
C2048 H2064 0.931 . S
C2049 C2048 1.391 . S
C2049 C2053 1.376 . S
C2050 C2048 1.394 . S
C2050 C2051 1.369 . S
C2050 C2054 1.531 . S
C2051 C2050 1.369 . S
C2051 C2052 1.410 . S
C2051 C2059 1.503 . S
C2052 C2051 1.410 . S
C2052 C2053 1.392 . S
C2052 C2055 1.511 . S
C2053 C2049 1.376 . S
C2053 C2052 1.392 . S
C2053 H2065 0.929 . S
C2054 C2050 1.531 . S
C2054 H2066 0.960 . S
C2054 H2067 0.962 . S
C2054 H2068 0.960 . S
C2055 C2052 1.511 . S
C2055 H2069 0.961 . S
C2055 H2070 0.961 . S
C2055 H2071 0.961 . S
C2056 C2057 1.370 . S
C2056 C2058 1.363 . S
C2056 H2072 0.931 . S
C2057 C2056 1.370 . S
C2057 C2061 1.408 . S
C2058 C2056 1.363 . S
C2058 C2059 1.370 . S
C2058 C2062 1.524 . S
C2059 C2051 1.503 . S
C2059 C2058 1.370 . S
C2059 C2060 1.403 . S
C2060 C2059 1.403 . S
C2060 C2061 1.404 . S
C2060 C2063 1.539 . S
C2061 C2057 1.408 . S
C2061 C2060 1.404 . S
C2061 H2073 0.930 . S
C2062 C2058 1.524 . S
C2062 H2074 0.956 . S
C2062 H2075 0.961 . S
C2062 H2076 0.961 . S
C2063 C2060 1.539 . S
C2063 H2077 0.958 . S
C2063 H2078 0.961 . S
C2063 H2079 0.960 . S
H2064 C2048 0.931 . S
H2065 C2053 0.929 . S
H2066 C2054 0.960 . S
H2067 C2054 0.962 . S
H2068 C2054 0.960 . S
H2069 C2055 0.961 . S
H2070 C2055 0.961 . S
H2071 C2055 0.961 . S
H2072 C2056 0.931 . S
H2073 C2061 0.930 . S
H2074 C2062 0.956 . S
H2075 C2062 0.961 . S
H2076 C2062 0.961 . S
H2077 C2063 0.958 . S
H2078 C2063 0.961 . S
H2079 C2063 0.960 . S
C2080 C2081 1.391 1_655 S
C2080 C2082 1.394 . S
C2080 H2096 0.931 . S
C2081 C2080 1.391 1_455 S
C2081 C2085 1.376 . S
C2082 C2080 1.394 . S
C2082 C2083 1.354 1_655 S
C2082 C2086 1.531 . S
C2083 C2082 1.354 1_455 S
C2083 C2084 1.433 . S
C2083 C2091 1.502 . S
C2084 C2083 1.433 . S
C2084 C2085 1.392 . S
C2084 C2087 1.511 . S
C2085 C2081 1.376 . S
C2085 C2084 1.392 . S
C2085 H2097 0.929 . S
C2086 C2082 1.531 . S
C2086 H2098 0.960 . S
C2086 H2099 0.962 . S
C2086 H2100 0.960 . S
C2087 C2084 1.511 . S
C2087 H2101 0.961 . S
C2087 H2102 0.961 . S
C2087 H2103 0.961 . S
C2088 C2089 1.370 . S
C2088 C2090 1.363 . S
C2088 H2104 0.931 . S
C2089 C2088 1.370 . S
C2089 C2093 1.408 1_455 S
C2090 C2088 1.363 . S
C2090 C2091 1.370 . S
C2090 C2094 1.524 . S
C2091 C2083 1.502 . S
C2091 C2090 1.370 . S
C2091 C2092 1.403 1_455 S
C2092 C2091 1.403 1_655 S
C2092 C2093 1.404 . S
C2092 C2095 1.539 . S
C2093 C2089 1.408 1_655 S
C2093 C2092 1.404 . S
C2093 H2105 0.930 . S
C2094 C2090 1.524 . S
C2094 H2106 0.956 . S
C2094 H2107 0.961 . S
C2094 H2108 0.961 . S
C2095 C2092 1.539 . S
C2095 H2109 0.958 . S
C2095 H2110 0.961 . S
C2095 H2111 0.960 . S
H2096 C2080 0.931 . S
H2097 C2085 0.929 . S
H2098 C2086 0.960 . S
H2099 C2086 0.962 . S
H2100 C2086 0.960 . S
H2101 C2087 0.961 . S
H2102 C2087 0.961 . S
H2103 C2087 0.961 . S
H2104 C2088 0.931 . S
H2105 C2093 0.930 . S
H2106 C2094 0.956 . S
H2107 C2094 0.961 . S
H2108 C2094 0.961 . S
H2109 C2095 0.958 . S
H2110 C2095 0.961 . S
H2111 C2095 0.960 . S
C2112 C2113 1.391 . S
C2112 C2114 1.394 . S
C2112 H2128 0.931 . S
C2113 C2112 1.391 . S
C2113 C2117 1.376 . S
C2114 C2112 1.394 . S
C2114 C2115 1.369 . S
C2114 C2118 1.531 . S
C2115 C2114 1.369 . S
C2115 C2116 1.410 . S
C2115 C2123 1.503 . S
C2116 C2115 1.410 . S
C2116 C2117 1.392 . S
C2116 C2119 1.511 . S
C2117 C2113 1.376 . S
C2117 C2116 1.392 . S
C2117 H2129 0.929 . S
C2118 C2114 1.531 . S
C2118 H2130 0.960 . S
C2118 H2131 0.962 . S
C2118 H2132 0.960 . S
C2119 C2116 1.511 . S
C2119 H2133 0.961 . S
C2119 H2134 0.961 . S
C2119 H2135 0.961 . S
C2120 C2121 1.370 . S
C2120 C2122 1.363 . S
C2120 H2136 0.931 . S
C2121 C2120 1.370 . S
C2121 C2125 1.408 . S
C2122 C2120 1.363 . S
C2122 C2123 1.370 . S
C2122 C2126 1.524 . S
C2123 C2115 1.503 . S
C2123 C2122 1.370 . S
C2123 C2124 1.403 . S
C2124 C2123 1.403 . S
C2124 C2125 1.404 . S
C2124 C2127 1.539 . S
C2125 C2121 1.408 . S
C2125 C2124 1.404 . S
C2125 H2137 0.930 . S
C2126 C2122 1.524 . S
C2126 H2138 0.956 . S
C2126 H2139 0.961 . S
C2126 H2140 0.961 . S
C2127 C2124 1.539 . S
C2127 H2141 0.958 . S
C2127 H2142 0.961 . S
C2127 H2143 0.960 . S
H2128 C2112 0.931 . S
H2129 C2117 0.929 . S
H2130 C2118 0.960 . S
H2131 C2118 0.962 . S
H2132 C2118 0.960 . S
H2133 C2119 0.961 . S
H2134 C2119 0.961 . S
H2135 C2119 0.961 . S
H2136 C2120 0.931 . S
H2137 C2125 0.930 . S
H2138 C2126 0.956 . S
H2139 C2126 0.961 . S
H2140 C2126 0.961 . S
H2141 C2127 0.958 . S
H2142 C2127 0.961 . S
H2143 C2127 0.960 . S
C2144 C2145 1.391 . S
C2144 C2146 1.394 . S
C2144 H2160 0.931 . S
C2145 C2144 1.391 . S
C2145 C2149 1.376 . S
C2146 C2144 1.394 . S
C2146 C2147 1.369 . S
C2146 C2150 1.531 . S
C2147 C2146 1.369 . S
C2147 C2148 1.410 . S
C2147 C2155 1.503 . S
C2148 C2147 1.410 . S
C2148 C2149 1.392 . S
C2148 C2151 1.511 . S
C2149 C2145 1.376 . S
C2149 C2148 1.392 . S
C2149 H2161 0.929 . S
C2150 C2146 1.531 . S
C2150 H2162 0.960 . S
C2150 H2163 0.962 . S
C2150 H2164 0.960 . S
C2151 C2148 1.511 . S
C2151 H2165 0.961 . S
C2151 H2166 0.961 . S
C2151 H2167 0.961 . S
C2152 C2153 1.370 . S
C2152 C2154 1.363 . S
C2152 H2168 0.931 . S
C2153 C2152 1.370 . S
C2153 C2157 1.408 . S
C2154 C2152 1.363 . S
C2154 C2155 1.370 . S
C2154 C2158 1.524 . S
C2155 C2147 1.503 . S
C2155 C2154 1.370 . S
C2155 C2156 1.403 . S
C2156 C2155 1.403 . S
C2156 C2157 1.404 . S
C2156 C2159 1.539 . S
C2157 C2153 1.408 . S
C2157 C2156 1.404 . S
C2157 H2169 0.930 . S
C2158 C2154 1.524 . S
C2158 H2170 0.956 . S
C2158 H2171 0.961 . S
C2158 H2172 0.961 . S
C2159 C2156 1.539 . S
C2159 H2173 0.958 . S
C2159 H2174 0.961 . S
C2159 H2175 0.960 . S
H2160 C2144 0.931 . S
H2161 C2149 0.929 . S
H2162 C2150 0.960 . S
H2163 C2150 0.962 . S
H2164 C2150 0.960 . S
H2165 C2151 0.961 . S
H2166 C2151 0.961 . S
H2167 C2151 0.961 . S
H2168 C2152 0.931 . S
H2169 C2157 0.930 . S
H2170 C2158 0.956 . S
H2171 C2158 0.961 . S
H2172 C2158 0.961 . S
H2173 C2159 0.958 . S
H2174 C2159 0.961 . S
H2175 C2159 0.960 . S
C2176 C2177 1.391 1_565 S
C2176 C2178 1.394 . S
C2176 H2192 0.931 . S
C2177 C2176 1.391 1_545 S
C2177 C2181 1.376 . S
C2178 C2176 1.394 . S
C2178 C2179 1.369 1_565 S
C2178 C2182 1.531 . S
C2179 C2178 1.369 1_545 S
C2179 C2180 1.410 . S
C2179 C2187 1.503 . S
C2180 C2179 1.410 . S
C2180 C2181 1.392 . S
C2180 C2183 1.511 . S
C2181 C2177 1.376 . S
C2181 C2180 1.392 . S
C2181 H2193 0.929 . S
C2182 C2178 1.531 . S
C2182 H2194 0.960 . S
C2182 H2195 0.962 . S
C2182 H2196 0.960 . S
C2183 C2180 1.511 . S
C2183 H2197 0.961 . S
C2183 H2198 0.961 . S
C2183 H2199 0.961 . S
C2184 C2185 1.370 . S
C2184 C2186 1.363 . S
C2184 H2200 0.931 1_545 S
C2185 C2184 1.370 . S
C2185 C2189 1.408 . S
C2186 C2184 1.363 . S
C2186 C2187 1.370 . S
C2186 C2190 1.524 1_545 S
C2187 C2179 1.503 . S
C2187 C2186 1.370 . S
C2187 C2188 1.403 . S
C2188 C2187 1.403 . S
C2188 C2189 1.404 . S
C2188 C2191 1.539 . S
C2189 C2185 1.408 . S
C2189 C2188 1.404 . S
C2189 H2201 0.930 . S
C2190 C2186 1.524 1_565 S
C2190 H2202 0.956 . S
C2190 H2203 0.961 1_565 S
C2190 H2204 0.961 . S
C2191 C2188 1.539 . S
C2191 H2205 0.958 . S
C2191 H2206 0.961 . S
C2191 H2207 0.960 . S
H2192 C2176 0.931 . S
H2193 C2181 0.929 . S
H2194 C2182 0.960 . S
H2195 C2182 0.962 . S
H2196 C2182 0.960 . S
H2197 C2183 0.961 . S
H2198 C2183 0.961 . S
H2199 C2183 0.961 . S
H2200 C2184 0.931 1_565 S
H2201 C2189 0.930 . S
H2202 C2190 0.956 . S
H2203 C2190 0.961 1_545 S
H2204 C2190 0.961 . S
H2205 C2191 0.958 . S
H2206 C2191 0.961 . S
H2207 C2191 0.960 . S
C2208 C2209 1.391 . S
C2208 C2210 1.394 . S
C2208 H2224 0.931 . S
C2209 C2208 1.391 . S
C2209 C2213 1.376 . S
C2210 C2208 1.394 . S
C2210 C2211 1.369 . S
C2210 C2214 1.531 . S
C2211 C2210 1.369 . S
C2211 C2212 1.410 . S
C2211 C2219 1.503 . S
C2212 C2211 1.410 . S
C2212 C2213 1.392 . S
C2212 C2215 1.511 . S
C2213 C2209 1.376 . S
C2213 C2212 1.392 . S
C2213 H2225 0.920 1_565 S
C2214 C2210 1.531 . S
C2214 H2226 0.960 . S
C2214 H2227 0.962 . S
C2214 H2228 0.960 . S
C2215 C2212 1.511 . S
C2215 H2229 0.961 . S
C2215 H2230 0.961 . S
C2215 H2231 0.961 1_565 S
C2216 C2217 1.370 . S
C2216 C2218 1.363 . S
C2216 H2232 0.931 . S
C2217 C2216 1.370 . S
C2217 C2221 1.408 . S
C2218 C2216 1.363 . S
C2218 C2219 1.370 . S
C2218 C2222 1.524 . S
C2219 C2211 1.503 . S
C2219 C2218 1.370 . S
C2219 C2220 1.403 . S
C2220 C2219 1.403 . S
C2220 C2221 1.404 . S
C2220 C2223 1.539 1_565 S
C2221 C2217 1.408 . S
C2221 C2220 1.404 . S
C2221 H2233 0.930 1_565 S
C2222 C2218 1.524 . S
C2222 H2234 0.956 . S
C2222 H2235 0.961 . S
C2222 H2236 0.961 . S
C2223 C2220 1.539 1_545 S
C2223 H2237 0.958 . S
C2223 H2238 0.961 . S
C2223 H2239 0.960 . S
H2224 C2208 0.931 . S
H2225 C2213 0.920 1_545 S
H2226 C2214 0.960 . S
H2227 C2214 0.962 . S
H2228 C2214 0.960 . S
H2229 C2215 0.961 . S
H2230 C2215 0.961 . S
H2231 C2215 0.961 1_545 S
H2232 C2216 0.931 . S
H2233 C2221 0.930 1_545 S
H2234 C2222 0.956 . S
H2235 C2222 0.961 . S
H2236 C2222 0.961 . S
H2237 C2223 0.958 . S
H2238 C2223 0.961 . S
H2239 C2223 0.960 . S
C2240 C2241 1.391 . S
C2240 C2242 1.394 . S
C2240 H2256 0.931 . S
C2241 C2240 1.391 . S
C2241 C2245 1.376 . S
C2242 C2240 1.394 . S
C2242 C2243 1.369 . S
C2242 C2246 1.531 . S
C2243 C2242 1.369 . S
C2243 C2244 1.410 . S
C2243 C2251 1.503 . S
C2244 C2243 1.410 . S
C2244 C2245 1.392 . S
C2244 C2247 1.511 . S
C2245 C2241 1.376 . S
C2245 C2244 1.392 . S
C2245 H2257 0.929 . S
C2246 C2242 1.531 . S
C2246 H2258 0.960 . S
C2246 H2259 0.962 . S
C2246 H2260 0.960 . S
C2247 C2244 1.511 . S
C2247 H2261 0.961 . S
C2247 H2262 0.961 . S
C2247 H2263 0.961 . S
C2248 C2249 1.370 . S
C2248 C2250 1.363 . S
C2248 H2264 0.931 . S
C2249 C2248 1.370 . S
C2249 C2253 1.408 . S
C2250 C2248 1.363 . S
C2250 C2251 1.370 . S
C2250 C2254 1.524 . S
C2251 C2243 1.503 . S
C2251 C2250 1.370 . S
C2251 C2252 1.403 . S
C2252 C2251 1.403 . S
C2252 C2253 1.404 . S
C2252 C2255 1.539 . S
C2253 C2249 1.408 . S
C2253 C2252 1.404 . S
C2253 H2265 0.930 . S
C2254 C2250 1.524 . S
C2254 H2266 0.956 . S
C2254 H2267 0.961 . S
C2254 H2268 0.961 . S
C2255 C2252 1.539 . S
C2255 H2269 0.958 . S
C2255 H2270 0.961 . S
C2255 H2271 0.960 . S
H2256 C2240 0.931 . S
H2257 C2245 0.929 . S
H2258 C2246 0.960 . S
H2259 C2246 0.962 . S
H2260 C2246 0.960 . S
H2261 C2247 0.961 . S
H2262 C2247 0.961 . S
H2263 C2247 0.961 . S
H2264 C2248 0.931 . S
H2265 C2253 0.930 . S
H2266 C2254 0.956 . S
H2267 C2254 0.961 . S
H2268 C2254 0.961 . S
H2269 C2255 0.958 . S
H2270 C2255 0.961 . S
H2271 C2255 0.960 . S
C2272 C2273 1.391 . S
C2272 C2274 1.394 . S
C2272 H2288 0.931 . S
C2273 C2272 1.391 . S
C2273 C2277 1.376 1_556 S
C2274 C2272 1.394 . S
C2274 C2275 1.369 . S
C2274 C2278 1.531 . S
C2275 C2274 1.369 . S
C2275 C2276 1.410 . S
C2275 C2283 1.503 . S
C2276 C2275 1.410 . S
C2276 C2277 1.392 1_556 S
C2276 C2279 1.511 1_556 S
C2277 C2273 1.376 1_554 S
C2277 C2276 1.392 1_554 S
C2277 H2289 0.929 . S
C2278 C2274 1.531 . S
C2278 H2290 0.960 . S
C2278 H2291 0.962 . S
C2278 H2292 0.960 . S
C2279 C2276 1.511 1_554 S
C2279 H2293 0.961 . S
C2279 H2294 0.961 1_554 S
C2279 H2295 0.961 . S
C2280 C2281 1.370 . S
C2280 C2282 1.363 . S
C2280 H2296 0.931 . S
C2281 C2280 1.370 . S
C2281 C2285 1.408 . S
C2282 C2280 1.363 . S
C2282 C2283 1.370 . S
C2282 C2286 1.524 . S
C2283 C2275 1.503 . S
C2283 C2282 1.370 . S
C2283 C2284 1.403 . S
C2284 C2283 1.403 . S
C2284 C2285 1.404 . S
C2284 C2287 1.539 1_556 S
C2285 C2281 1.408 . S
C2285 C2284 1.404 . S
C2285 H2297 0.925 1_556 S
C2286 C2282 1.524 . S
C2286 H2298 0.956 . S
C2286 H2299 0.961 . S
C2286 H2300 0.961 . S
C2287 C2284 1.539 1_554 S
C2287 H2301 0.958 . S
C2287 H2302 0.961 . S
C2287 H2303 0.960 . S
H2288 C2272 0.931 . S
H2289 C2277 0.929 . S
H2290 C2278 0.960 . S
H2291 C2278 0.962 . S
H2292 C2278 0.960 . S
H2293 C2279 0.961 . S
H2294 C2279 0.961 1_556 S
H2295 C2279 0.961 . S
H2296 C2280 0.931 . S
H2297 C2285 0.925 1_554 S
H2298 C2286 0.956 . S
H2299 C2286 0.961 . S
H2300 C2286 0.961 . S
H2301 C2287 0.958 . S
H2302 C2287 0.961 . S
H2303 C2287 0.960 . S
C2304 C2305 1.391 . S
C2304 C2306 1.394 . S
C2304 H2320 0.931 . S
C2305 C2304 1.391 . S
C2305 C2309 1.376 . S
C2306 C2304 1.394 . S
C2306 C2307 1.369 . S
C2306 C2310 1.531 . S
C2307 C2306 1.369 . S
C2307 C2308 1.410 . S
C2307 C2315 1.503 . S
C2308 C2307 1.410 . S
C2308 C2309 1.392 . S
C2308 C2311 1.511 . S
C2309 C2305 1.376 . S
C2309 C2308 1.392 . S
C2309 H2321 0.929 . S
C2310 C2306 1.531 . S
C2310 H2322 0.960 . S
C2310 H2323 0.962 . S
C2310 H2324 0.960 . S
C2311 C2308 1.511 . S
C2311 H2325 0.961 . S
C2311 H2326 0.961 . S
C2311 H2327 0.961 . S
C2312 C2313 1.370 . S
C2312 C2314 1.363 . S
C2312 H2328 0.931 . S
C2313 C2312 1.370 . S
C2313 C2317 1.408 . S
C2314 C2312 1.363 . S
C2314 C2315 1.370 . S
C2314 C2318 1.524 . S
C2315 C2307 1.503 . S
C2315 C2314 1.370 . S
C2315 C2316 1.403 . S
C2316 C2315 1.403 . S
C2316 C2317 1.404 . S
C2316 C2319 1.539 . S
C2317 C2313 1.408 . S
C2317 C2316 1.404 . S
C2317 H2329 0.930 . S
C2318 C2314 1.524 . S
C2318 H2330 0.956 . S
C2318 H2331 0.961 . S
C2318 H2332 0.961 . S
C2319 C2316 1.539 . S
C2319 H2333 0.958 . S
C2319 H2334 0.961 . S
C2319 H2335 0.960 . S
H2320 C2304 0.931 . S
H2321 C2309 0.929 . S
H2322 C2310 0.960 . S
H2323 C2310 0.962 . S
H2324 C2310 0.960 . S
H2325 C2311 0.961 . S
H2326 C2311 0.961 . S
H2327 C2311 0.961 . S
H2328 C2312 0.931 . S
H2329 C2317 0.930 . S
H2330 C2318 0.956 . S
H2331 C2318 0.961 . S
H2332 C2318 0.961 . S
H2333 C2319 0.958 . S
H2334 C2319 0.961 . S
H2335 C2319 0.960 . S
C2336 C2337 1.391 . S
C2336 C2338 1.394 . S
C2336 H2352 0.931 . S
C2337 C2336 1.391 . S
C2337 C2341 1.376 . S
C2338 C2336 1.394 . S
C2338 C2339 1.369 . S
C2338 C2342 1.531 . S
C2339 C2338 1.369 . S
C2339 C2340 1.410 . S
C2339 C2347 1.503 . S
C2340 C2339 1.410 . S
C2340 C2341 1.392 . S
C2340 C2343 1.511 . S
C2341 C2337 1.376 . S
C2341 C2340 1.392 . S
C2341 H2353 0.929 . S
C2342 C2338 1.531 . S
C2342 H2354 0.960 . S
C2342 H2355 0.962 . S
C2342 H2356 0.960 . S
C2343 C2340 1.511 . S
C2343 H2357 0.983 . S
C2343 H2358 0.961 . S
C2343 H2359 0.961 . S
C2344 C2345 1.370 1_556 S
C2344 C2346 1.363 . S
C2344 H2360 0.931 . S
C2345 C2344 1.370 1_554 S
C2345 C2349 1.408 . S
C2346 C2344 1.363 . S
C2346 C2347 1.370 1_556 S
C2346 C2350 1.524 . S
C2347 C2339 1.503 . S
C2347 C2346 1.370 1_554 S
C2347 C2348 1.403 . S
C2348 C2347 1.403 . S
C2348 C2349 1.404 . S
C2348 C2351 1.539 . S
C2349 C2345 1.408 . S
C2349 C2348 1.404 . S
C2349 H2361 0.930 . S
C2350 C2346 1.524 . S
C2350 H2362 0.956 . S
C2350 H2363 0.961 . S
C2350 H2364 0.961 . S
C2351 C2348 1.539 . S
C2351 H2365 0.958 . S
C2351 H2366 0.961 . S
C2351 H2367 0.960 . S
H2352 C2336 0.931 . S
H2353 C2341 0.929 . S
H2354 C2342 0.960 . S
H2355 C2342 0.962 . S
H2356 C2342 0.960 . S
H2357 C2343 0.983 . S
H2358 C2343 0.961 . S
H2359 C2343 0.961 . S
H2360 C2344 0.931 . S
H2361 C2349 0.930 . S
H2362 C2350 0.956 . S
H2363 C2350 0.961 . S
H2364 C2350 0.961 . S
H2365 C2351 0.958 . S
H2366 C2351 0.961 . S
H2367 C2351 0.960 . S
C2368 C2369 1.391 . S
C2368 C2370 1.394 . S
C2368 H2384 0.931 . S
C2369 C2368 1.391 . S
C2369 C2373 1.376 . S
C2370 C2368 1.394 . S
C2370 C2371 1.369 . S
C2370 C2374 1.531 . S
C2371 C2370 1.369 . S
C2371 C2372 1.410 . S
C2371 C2379 1.503 . S
C2372 C2371 1.410 . S
C2372 C2373 1.392 . S
C2372 C2375 1.511 . S
C2373 C2369 1.376 . S
C2373 C2372 1.392 . S
C2373 H2385 0.929 . S
C2374 C2370 1.531 . S
C2374 H2386 0.960 . S
C2374 H2387 0.962 . S
C2374 H2388 0.960 . S
C2375 C2372 1.511 . S
C2375 H2389 0.961 . S
C2375 H2390 0.961 . S
C2375 H2391 0.961 . S
C2376 C2377 1.370 . S
C2376 C2378 1.363 . S
C2376 H2392 0.931 . S
C2377 C2376 1.370 . S
C2377 C2381 1.408 . S
C2378 C2376 1.363 . S
C2378 C2379 1.370 . S
C2378 C2382 1.524 . S
C2379 C2371 1.503 . S
C2379 C2378 1.370 . S
C2379 C2380 1.403 . S
C2380 C2379 1.403 . S
C2380 C2381 1.404 . S
C2380 C2383 1.539 . S
C2381 C2377 1.408 . S
C2381 C2380 1.404 . S
C2381 H2393 0.930 . S
C2382 C2378 1.524 . S
C2382 H2394 0.956 . S
C2382 H2395 0.961 . S
C2382 H2396 0.961 . S
C2383 C2380 1.539 . S
C2383 H2397 0.958 . S
C2383 H2398 0.961 . S
C2383 H2399 0.960 . S
H2384 C2368 0.931 . S
H2385 C2373 0.929 . S
H2386 C2374 0.960 . S
H2387 C2374 0.962 . S
H2388 C2374 0.960 . S
H2389 C2375 0.961 . S
H2390 C2375 0.961 . S
H2391 C2375 0.961 . S
H2392 C2376 0.931 . S
H2393 C2381 0.930 . S
H2394 C2382 0.956 . S
H2395 C2382 0.961 . S
H2396 C2382 0.961 . S
H2397 C2383 0.958 . S
H2398 C2383 0.961 . S
H2399 C2383 0.960 . S
C2400 C2401 1.391 . S
C2400 C2402 1.394 . S
C2400 H2416 0.931 . S
C2401 C2400 1.391 . S
C2401 C2405 1.376 1_655 S
C2402 C2400 1.394 . S
C2402 C2403 1.369 . S
C2402 C2406 1.531 . S
C2403 C2402 1.369 . S
C2403 C2404 1.410 1_655 S
C2403 C2411 1.503 . S
C2404 C2403 1.410 1_455 S
C2404 C2405 1.392 . S
C2404 C2407 1.511 . S
C2405 C2401 1.376 1_455 S
C2405 C2404 1.392 . S
C2405 H2417 0.929 . S
C2406 C2402 1.531 . S
C2406 H2418 0.960 . S
C2406 H2419 0.962 . S
C2406 H2420 0.960 . S
C2407 C2404 1.511 . S
C2407 H2421 0.961 . S
C2407 H2422 0.961 . S
C2407 H2423 0.961 . S
C2408 C2409 1.370 . S
C2408 C2410 1.363 . S
C2408 H2424 0.931 . S
C2409 C2408 1.370 . S
C2409 C2413 1.408 . S
C2410 C2408 1.363 . S
C2410 C2411 1.370 . S
C2410 C2414 1.524 . S
C2411 C2403 1.503 . S
C2411 C2410 1.370 . S
C2411 C2412 1.403 . S
C2412 C2411 1.403 . S
C2412 C2413 1.404 . S
C2412 C2415 1.539 1_655 S
C2413 C2409 1.408 . S
C2413 C2412 1.404 . S
C2413 H2425 0.930 . S
C2414 C2410 1.524 . S
C2414 H2426 0.956 . S
C2414 H2427 0.961 . S
C2414 H2428 0.961 . S
C2415 C2412 1.539 1_455 S
C2415 H2429 0.958 1_455 S
C2415 H2430 0.961 . S
C2415 H2431 0.960 . S
H2416 C2400 0.931 . S
H2417 C2405 0.929 . S
H2418 C2406 0.960 . S
H2419 C2406 0.962 . S
H2420 C2406 0.960 . S
H2421 C2407 0.961 . S
H2422 C2407 0.961 . S
H2423 C2407 0.961 . S
H2424 C2408 0.931 . S
H2425 C2413 0.930 . S
H2426 C2414 0.956 . S
H2427 C2414 0.961 . S
H2428 C2414 0.961 . S
H2429 C2415 0.958 1_655 S
H2430 C2415 0.961 . S
H2431 C2415 0.960 . S
C2432 C2433 1.391 . S
C2432 C2434 1.394 . S
C2432 H2448 0.931 . S
C2433 C2432 1.391 . S
C2433 C2437 1.376 . S
C2434 C2432 1.394 . S
C2434 C2435 1.369 . S
C2434 C2438 1.531 . S
C2435 C2434 1.369 . S
C2435 C2436 1.410 . S
C2435 C2443 1.503 . S
C2436 C2435 1.410 . S
C2436 C2437 1.392 . S
C2436 C2439 1.511 . S
C2437 C2433 1.376 . S
C2437 C2436 1.392 . S
C2437 H2449 0.929 . S
C2438 C2434 1.531 . S
C2438 H2450 0.960 . S
C2438 H2451 0.962 . S
C2438 H2452 0.960 . S
C2439 C2436 1.511 . S
C2439 H2453 0.961 . S
C2439 H2454 0.961 . S
C2439 H2455 0.961 . S
C2440 C2441 1.370 . S
C2440 C2442 1.363 . S
C2440 H2456 0.931 . S
C2441 C2440 1.370 . S
C2441 C2445 1.408 . S
C2442 C2440 1.363 . S
C2442 C2443 1.370 . S
C2442 C2446 1.524 . S
C2443 C2435 1.503 . S
C2443 C2442 1.370 . S
C2443 C2444 1.403 . S
C2444 C2443 1.403 . S
C2444 C2445 1.404 . S
C2444 C2447 1.539 . S
C2445 C2441 1.408 . S
C2445 C2444 1.404 . S
C2445 H2457 0.930 . S
C2446 C2442 1.524 . S
C2446 H2458 0.956 . S
C2446 H2459 0.961 . S
C2446 H2460 0.961 . S
C2447 C2444 1.539 . S
C2447 H2461 0.958 . S
C2447 H2462 0.961 . S
C2447 H2463 0.960 . S
H2448 C2432 0.931 . S
H2449 C2437 0.929 . S
H2450 C2438 0.960 . S
H2451 C2438 0.962 . S
H2452 C2438 0.960 . S
H2453 C2439 0.961 . S
H2454 C2439 0.961 . S
H2455 C2439 0.961 . S
H2456 C2440 0.931 . S
H2457 C2445 0.930 . S
H2458 C2446 0.956 . S
H2459 C2446 0.961 . S
H2460 C2446 0.961 . S
H2461 C2447 0.958 . S
H2462 C2447 0.961 . S
H2463 C2447 0.960 . S
C2464 C2465 1.391 . S
C2464 C2466 1.394 . S
C2464 H2480 0.931 . S
C2465 C2464 1.391 . S
C2465 C2469 1.376 1_455 S
C2466 C2464 1.394 . S
C2466 C2467 1.369 . S
C2466 C2470 1.531 . S
C2467 C2466 1.369 . S
C2467 C2468 1.410 1_455 S
C2467 C2475 1.503 . S
C2468 C2467 1.410 1_655 S
C2468 C2469 1.392 . S
C2468 C2471 1.511 . S
C2469 C2465 1.376 1_655 S
C2469 C2468 1.392 . S
C2469 H2481 0.929 . S
C2470 C2466 1.531 . S
C2470 H2482 0.960 . S
C2470 H2483 0.962 . S
C2470 H2484 0.960 . S
C2471 C2468 1.511 . S
C2471 H2485 0.961 . S
C2471 H2486 0.961 . S
C2471 H2487 0.961 . S
C2472 C2473 1.370 . S
C2472 C2474 1.363 . S
C2472 H2488 0.931 1_455 S
C2473 C2472 1.370 . S
C2473 C2477 1.408 . S
C2474 C2472 1.363 . S
C2474 C2475 1.370 . S
C2474 C2478 1.524 1_455 S
C2475 C2467 1.503 . S
C2475 C2474 1.370 . S
C2475 C2476 1.403 . S
C2476 C2475 1.403 . S
C2476 C2477 1.404 . S
C2476 C2479 1.539 . S
C2477 C2473 1.408 . S
C2477 C2476 1.404 . S
C2477 H2489 0.930 . S
C2478 C2474 1.524 1_655 S
C2478 H2490 0.956 . S
C2478 H2491 0.961 . S
C2478 H2492 0.961 . S
C2479 C2476 1.539 . S
C2479 H2493 0.958 . S
C2479 H2494 0.961 . S
C2479 H2495 0.960 . S
H2480 C2464 0.931 . S
H2481 C2469 0.929 . S
H2482 C2470 0.960 . S
H2483 C2470 0.962 . S
H2484 C2470 0.960 . S
H2485 C2471 0.961 . S
H2486 C2471 0.961 . S
H2487 C2471 0.961 . S
H2488 C2472 0.931 1_655 S
H2489 C2477 0.930 . S
H2490 C2478 0.956 . S
H2491 C2478 0.961 . S
H2492 C2478 0.961 . S
H2493 C2479 0.958 . S
H2494 C2479 0.961 . S
H2495 C2479 0.960 . S
C2496 C2497 1.391 . S
C2496 C2498 1.394 . S
C2496 H2512 0.931 . S
C2497 C2496 1.391 . S
C2497 C2501 1.376 . S
C2498 C2496 1.394 . S
C2498 C2499 1.369 . S
C2498 C2502 1.531 . S
C2499 C2498 1.369 . S
C2499 C2500 1.410 . S
C2499 C2507 1.503 . S
C2500 C2499 1.410 . S
C2500 C2501 1.392 . S
C2500 C2503 1.511 . S
C2501 C2497 1.376 . S
C2501 C2500 1.392 . S
C2501 H2513 0.929 . S
C2502 C2498 1.531 . S
C2502 H2514 0.960 . S
C2502 H2515 0.962 . S
C2502 H2516 0.960 . S
C2503 C2500 1.511 . S
C2503 H2517 0.961 . S
C2503 H2518 0.961 . S
C2503 H2519 0.961 . S
C2504 C2505 1.370 . S
C2504 C2506 1.363 . S
C2504 H2520 0.931 . S
C2505 C2504 1.370 . S
C2505 C2509 1.408 . S
C2506 C2504 1.363 . S
C2506 C2507 1.370 . S
C2506 C2510 1.524 . S
C2507 C2499 1.503 . S
C2507 C2506 1.370 . S
C2507 C2508 1.403 . S
C2508 C2507 1.403 . S
C2508 C2509 1.404 . S
C2508 C2511 1.539 . S
C2509 C2505 1.408 . S
C2509 C2508 1.404 . S
C2509 H2521 0.930 . S
C2510 C2506 1.524 . S
C2510 H2522 0.956 . S
C2510 H2523 0.961 . S
C2510 H2524 0.961 . S
C2511 C2508 1.539 . S
C2511 H2525 0.958 . S
C2511 H2526 0.961 . S
C2511 H2527 0.960 . S
H2512 C2496 0.931 . S
H2513 C2501 0.929 . S
H2514 C2502 0.960 . S
H2515 C2502 0.962 . S
H2516 C2502 0.960 . S
H2517 C2503 0.961 . S
H2518 C2503 0.961 . S
H2519 C2503 0.961 . S
H2520 C2504 0.931 . S
H2521 C2509 0.930 . S
H2522 C2510 0.956 . S
H2523 C2510 0.961 . S
H2524 C2510 0.961 . S
H2525 C2511 0.958 . S
H2526 C2511 0.961 . S
H2527 C2511 0.960 . S
C2528 C2529 1.391 . S
C2528 C2530 1.394 . S
C2528 H2544 0.931 . S
C2529 C2528 1.391 . S
C2529 C2533 1.376 . S
C2530 C2528 1.394 . S
C2530 C2531 1.369 . S
C2530 C2534 1.531 . S
C2531 C2530 1.369 . S
C2531 C2532 1.410 . S
C2531 C2539 1.503 . S
C2532 C2531 1.410 . S
C2532 C2533 1.392 . S
C2532 C2535 1.511 . S
C2533 C2529 1.376 . S
C2533 C2532 1.392 . S
C2533 H2545 0.929 . S
C2534 C2530 1.531 . S
C2534 H2546 0.960 . S
C2534 H2547 0.962 . S
C2534 H2548 0.960 . S
C2535 C2532 1.511 . S
C2535 H2549 0.961 . S
C2535 H2550 0.961 . S
C2535 H2551 0.961 . S
C2536 C2537 1.370 . S
C2536 C2538 1.363 . S
C2536 H2552 0.931 . S
C2537 C2536 1.370 . S
C2537 C2541 1.408 . S
C2538 C2536 1.363 . S
C2538 C2539 1.370 . S
C2538 C2542 1.524 . S
C2539 C2531 1.503 . S
C2539 C2538 1.370 . S
C2539 C2540 1.403 . S
C2540 C2539 1.403 . S
C2540 C2541 1.404 . S
C2540 C2543 1.539 . S
C2541 C2537 1.408 . S
C2541 C2540 1.404 . S
C2541 H2553 0.930 . S
C2542 C2538 1.524 . S
C2542 H2554 0.956 . S
C2542 H2555 0.961 . S
C2542 H2556 0.961 . S
C2543 C2540 1.539 . S
C2543 H2557 0.958 . S
C2543 H2558 0.961 . S
C2543 H2559 0.960 . S
H2544 C2528 0.931 . S
H2545 C2533 0.929 . S
H2546 C2534 0.960 . S
H2547 C2534 0.962 . S
H2548 C2534 0.960 . S
H2549 C2535 0.961 . S
H2550 C2535 0.961 . S
H2551 C2535 0.961 . S
H2552 C2536 0.931 . S
H2553 C2541 0.930 . S
H2554 C2542 0.956 . S
H2555 C2542 0.961 . S
H2556 C2542 0.961 . S
H2557 C2543 0.958 . S
H2558 C2543 0.961 . S
H2559 C2543 0.960 . S
C2560 C2561 1.391 1_545 S
C2560 C2562 1.394 . S
C2560 H2576 0.931 . S
C2561 C2560 1.391 1_565 S
C2561 C2565 1.376 . S
C2562 C2560 1.394 . S
C2562 C2563 1.369 1_545 S
C2562 C2566 1.531 . S
C2563 C2562 1.369 1_565 S
C2563 C2564 1.410 . S
C2563 C2571 1.503 . S
C2564 C2563 1.410 . S
C2564 C2565 1.392 . S
C2564 C2567 1.511 . S
C2565 C2561 1.376 . S
C2565 C2564 1.392 . S
C2565 H2577 0.929 . S
C2566 C2562 1.531 . S
C2566 H2578 0.960 . S
C2566 H2579 0.962 . S
C2566 H2580 0.960 . S
C2567 C2564 1.511 . S
C2567 H2581 0.961 . S
C2567 H2582 0.961 . S
C2567 H2583 0.961 . S
C2568 C2569 1.370 . S
C2568 C2570 1.363 . S
C2568 H2584 0.931 . S
C2569 C2568 1.370 . S
C2569 C2573 1.422 . S
C2570 C2568 1.363 . S
C2570 C2571 1.370 . S
C2570 C2574 1.524 . S
C2571 C2563 1.503 . S
C2571 C2570 1.370 . S
C2571 C2572 1.403 1_565 S
C2572 C2571 1.403 1_545 S
C2572 C2573 1.403 1_545 S
C2572 C2575 1.539 . S
C2573 C2569 1.422 . S
C2573 C2572 1.403 1_565 S
C2573 H2585 0.918 1_565 S
C2574 C2570 1.524 . S
C2574 H2586 0.956 . S
C2574 H2587 0.961 . S
C2574 H2588 0.961 . S
C2575 C2572 1.539 . S
C2575 H2589 0.958 . S
C2575 H2590 0.961 . S
C2575 H2591 0.960 . S
H2576 C2560 0.931 . S
H2577 C2565 0.929 . S
H2578 C2566 0.960 . S
H2579 C2566 0.962 . S
H2580 C2566 0.960 . S
H2581 C2567 0.961 . S
H2582 C2567 0.961 . S
H2583 C2567 0.961 . S
H2584 C2568 0.931 . S
H2585 C2573 0.918 1_545 S
H2586 C2574 0.956 . S
H2587 C2574 0.961 . S
H2588 C2574 0.961 . S
H2589 C2575 0.958 . S
H2590 C2575 0.961 . S
H2591 C2575 0.960 . S
C2592 C2593 1.391 . S
C2592 C2594 1.394 . S
C2592 H2608 0.931 . S
C2593 C2592 1.391 . S
C2593 C2597 1.376 1_545 S
C2594 C2592 1.394 . S
C2594 C2595 1.369 . S
C2594 C2598 1.531 . S
C2595 C2594 1.369 . S
C2595 C2596 1.410 . S
C2595 C2603 1.503 . S
C2596 C2595 1.410 . S
C2596 C2597 1.392 1_545 S
C2596 C2599 1.511 1_545 S
C2597 C2593 1.376 1_565 S
C2597 C2596 1.392 1_565 S
C2597 H2609 0.929 . S
C2598 C2594 1.531 . S
C2598 H2610 0.960 . S
C2598 H2611 0.962 . S
C2598 H2612 0.960 . S
C2599 C2596 1.511 1_565 S
C2599 H2613 0.961 . S
C2599 H2614 0.961 1_565 S
C2599 H2615 0.961 . S
C2600 C2601 1.370 . S
C2600 C2602 1.363 . S
C2600 H2616 0.931 . S
C2601 C2600 1.370 . S
C2601 C2605 1.408 . S
C2602 C2600 1.363 . S
C2602 C2603 1.370 . S
C2602 C2606 1.524 . S
C2603 C2595 1.503 . S
C2603 C2602 1.370 . S
C2603 C2604 1.403 . S
C2604 C2603 1.403 . S
C2604 C2605 1.404 . S
C2604 C2607 1.539 1_545 S
C2605 C2601 1.408 . S
C2605 C2604 1.404 . S
C2605 H2617 0.895 1_545 S
C2606 C2602 1.524 . S
C2606 H2618 0.956 . S
C2606 H2619 0.961 . S
C2606 H2620 0.961 . S
C2607 C2604 1.539 1_565 S
C2607 H2621 0.958 . S
C2607 H2622 0.961 . S
C2607 H2623 0.960 . S
H2608 C2592 0.931 . S
H2609 C2597 0.929 . S
H2610 C2598 0.960 . S
H2611 C2598 0.962 . S
H2612 C2598 0.960 . S
H2613 C2599 0.961 . S
H2614 C2599 0.961 1_545 S
H2615 C2599 0.961 . S
H2616 C2600 0.931 . S
H2617 C2605 0.895 1_565 S
H2618 C2606 0.956 . S
H2619 C2606 0.961 . S
H2620 C2606 0.961 . S
H2621 C2607 0.958 . S
H2622 C2607 0.961 . S
H2623 C2607 0.960 . S
C2624 C2625 1.391 . S
C2624 C2626 1.394 . S
C2624 H2640 0.931 . S
C2625 C2624 1.391 . S
C2625 C2629 1.376 . S
C2626 C2624 1.394 . S
C2626 C2627 1.369 . S
C2626 C2630 1.531 . S
C2627 C2626 1.369 . S
C2627 C2628 1.410 . S
C2627 C2635 1.503 . S
C2628 C2627 1.410 . S
C2628 C2629 1.392 . S
C2628 C2631 1.511 . S
C2629 C2625 1.376 . S
C2629 C2628 1.392 . S
C2629 H2641 0.929 . S
C2630 C2626 1.531 . S
C2630 H2642 0.960 . S
C2630 H2643 0.962 . S
C2630 H2644 0.960 . S
C2631 C2628 1.511 . S
C2631 H2645 0.961 . S
C2631 H2646 0.961 . S
C2631 H2647 0.961 . S
C2632 C2633 1.370 . S
C2632 C2634 1.363 . S
C2632 H2648 0.931 . S
C2633 C2632 1.370 . S
C2633 C2637 1.408 . S
C2634 C2632 1.363 . S
C2634 C2635 1.370 . S
C2634 C2638 1.524 . S
C2635 C2627 1.503 . S
C2635 C2634 1.370 . S
C2635 C2636 1.403 . S
C2636 C2635 1.403 . S
C2636 C2637 1.404 . S
C2636 C2639 1.539 . S
C2637 C2633 1.408 . S
C2637 C2636 1.404 . S
C2637 H2649 0.930 . S
C2638 C2634 1.524 . S
C2638 H2650 0.956 . S
C2638 H2651 0.961 . S
C2638 H2652 0.961 . S
C2639 C2636 1.539 . S
C2639 H2653 0.958 . S
C2639 H2654 0.961 . S
C2639 H2655 0.960 . S
H2640 C2624 0.931 . S
H2641 C2629 0.929 . S
H2642 C2630 0.960 . S
H2643 C2630 0.962 . S
H2644 C2630 0.960 . S
H2645 C2631 0.961 . S
H2646 C2631 0.961 . S
H2647 C2631 0.961 . S
H2648 C2632 0.931 . S
H2649 C2637 0.930 . S
H2650 C2638 0.956 . S
H2651 C2638 0.961 . S
H2652 C2638 0.961 . S
H2653 C2639 0.958 . S
H2654 C2639 0.961 . S
H2655 C2639 0.960 . S
C2656 C2657 1.391 1_556 S
C2656 C2658 1.394 . S
C2656 H2672 0.931 . S
C2657 C2656 1.391 1_554 S
C2657 C2661 1.376 . S
C2658 C2656 1.394 . S
C2658 C2659 1.369 1_556 S
C2658 C2662 1.531 . S
C2659 C2658 1.369 1_554 S
C2659 C2660 1.410 . S
C2659 C2667 1.503 . S
C2660 C2659 1.410 . S
C2660 C2661 1.392 . S
C2660 C2663 1.511 . S
C2661 C2657 1.376 . S
C2661 C2660 1.392 . S
C2661 H2673 0.929 . S
C2662 C2658 1.531 . S
C2662 H2674 0.960 . S
C2662 H2675 0.962 . S
C2662 H2676 0.960 . S
C2663 C2660 1.511 . S
C2663 H2677 0.961 . S
C2663 H2678 0.961 . S
C2663 H2679 0.961 . S
C2664 C2665 1.370 . S
C2664 C2666 1.363 . S
C2664 H2680 0.931 . S
C2665 C2664 1.370 . S
C2665 C2669 1.408 . S
C2666 C2664 1.363 . S
C2666 C2667 1.370 . S
C2666 C2670 1.524 . S
C2667 C2659 1.503 . S
C2667 C2666 1.370 . S
C2667 C2668 1.403 . S
C2668 C2667 1.403 . S
C2668 C2669 1.404 . S
C2668 C2671 1.539 1_554 S
C2669 C2665 1.408 . S
C2669 C2668 1.404 . S
C2669 H2681 0.930 . S
C2670 C2666 1.524 . S
C2670 H2682 0.956 . S
C2670 H2683 0.961 . S
C2670 H2684 0.961 . S
C2671 C2668 1.539 1_556 S
C2671 H2685 0.958 . S
C2671 H2686 0.961 . S
C2671 H2687 0.960 . S
H2672 C2656 0.931 . S
H2673 C2661 0.929 . S
H2674 C2662 0.960 . S
H2675 C2662 0.962 . S
H2676 C2662 0.960 . S
H2677 C2663 0.961 . S
H2678 C2663 0.961 . S
H2679 C2663 0.961 . S
H2680 C2664 0.931 . S
H2681 C2669 0.930 . S
H2682 C2670 0.956 . S
H2683 C2670 0.961 . S
H2684 C2670 0.961 . S
H2685 C2671 0.958 . S
H2686 C2671 0.961 . S
H2687 C2671 0.960 . S
C2688 C2689 1.391 . S
C2688 C2690 1.394 . S
C2688 H2704 0.931 . S
C2689 C2688 1.391 . S
C2689 C2693 1.376 . S
C2690 C2688 1.394 . S
C2690 C2691 1.369 . S
C2690 C2694 1.531 . S
C2691 C2690 1.369 . S
C2691 C2692 1.410 . S
C2691 C2699 1.503 . S
C2692 C2691 1.410 . S
C2692 C2693 1.392 . S
C2692 C2695 1.511 . S
C2693 C2689 1.376 . S
C2693 C2692 1.392 . S
C2693 H2705 0.929 . S
C2694 C2690 1.531 . S
C2694 H2706 0.960 . S
C2694 H2707 0.962 . S
C2694 H2708 0.960 . S
C2695 C2692 1.511 . S
C2695 H2709 0.961 . S
C2695 H2710 0.961 . S
C2695 H2711 0.961 . S
C2696 C2697 1.370 . S
C2696 C2698 1.363 . S
C2696 H2712 0.931 . S
C2697 C2696 1.370 . S
C2697 C2701 1.408 . S
C2698 C2696 1.363 . S
C2698 C2699 1.370 . S
C2698 C2702 1.524 . S
C2699 C2691 1.503 . S
C2699 C2698 1.370 . S
C2699 C2700 1.403 . S
C2700 C2699 1.403 . S
C2700 C2701 1.404 . S
C2700 C2703 1.539 . S
C2701 C2697 1.408 . S
C2701 C2700 1.404 . S
C2701 H2713 0.930 . S
C2702 C2698 1.524 . S
C2702 H2714 0.956 . S
C2702 H2715 0.961 . S
C2702 H2716 0.961 . S
C2703 C2700 1.539 . S
C2703 H2717 0.958 . S
C2703 H2718 0.961 . S
C2703 H2719 0.960 . S
H2704 C2688 0.931 . S
H2705 C2693 0.929 . S
H2706 C2694 0.960 . S
H2707 C2694 0.962 . S
H2708 C2694 0.960 . S
H2709 C2695 0.961 . S
H2710 C2695 0.961 . S
H2711 C2695 0.961 . S
H2712 C2696 0.931 . S
H2713 C2701 0.930 . S
H2714 C2702 0.956 . S
H2715 C2702 0.961 . S
H2716 C2702 0.961 . S
H2717 C2703 0.958 . S
H2718 C2703 0.961 . S
H2719 C2703 0.960 . S
C2720 C2721 1.391 1_554 S
C2720 C2722 1.394 . S
C2720 H2736 0.931 . S
C2721 C2720 1.391 1_556 S
C2721 C2725 1.376 . S
C2722 C2720 1.394 . S
C2722 C2723 1.369 1_554 S
C2722 C2726 1.531 . S
C2723 C2722 1.369 1_556 S
C2723 C2724 1.410 . S
C2723 C2731 1.503 . S
C2724 C2723 1.410 . S
C2724 C2725 1.392 . S
C2724 C2727 1.511 . S
C2725 C2721 1.376 . S
C2725 C2724 1.392 . S
C2725 H2737 0.929 . S
C2726 C2722 1.531 . S
C2726 H2738 0.960 . S
C2726 H2739 0.962 . S
C2726 H2740 0.960 . S
C2727 C2724 1.511 . S
C2727 H2741 0.961 . S
C2727 H2742 0.961 . S
C2727 H2743 0.961 . S
C2728 C2729 1.370 . S
C2728 C2730 1.363 . S
C2728 H2744 0.931 . S
C2729 C2728 1.370 . S
C2729 C2733 1.408 1_556 S
C2730 C2728 1.363 . S
C2730 C2731 1.370 . S
C2730 C2734 1.524 . S
C2731 C2723 1.503 . S
C2731 C2730 1.370 . S
C2731 C2732 1.403 1_556 S
C2732 C2731 1.403 1_554 S
C2732 C2733 1.404 . S
C2732 C2735 1.539 . S
C2733 C2729 1.408 1_554 S
C2733 C2732 1.404 . S
C2733 H2745 0.930 . S
C2734 C2730 1.524 . S
C2734 H2746 0.956 . S
C2734 H2747 0.961 . S
C2734 H2748 0.961 . S
C2735 C2732 1.539 . S
C2735 H2749 0.958 . S
C2735 H2750 0.961 . S
C2735 H2751 0.960 . S
H2736 C2720 0.931 . S
H2737 C2725 0.929 . S
H2738 C2726 0.960 . S
H2739 C2726 0.962 . S
H2740 C2726 0.960 . S
H2741 C2727 0.961 . S
H2742 C2727 0.961 . S
H2743 C2727 0.961 . S
H2744 C2728 0.931 . S
H2745 C2733 0.930 . S
H2746 C2734 0.956 . S
H2747 C2734 0.961 . S
H2748 C2734 0.961 . S
H2749 C2735 0.958 . S
H2750 C2735 0.961 . S
H2751 C2735 0.960 . S
C2752 C2753 1.391 . S
C2752 C2754 1.394 . S
C2752 H2768 0.931 . S
C2753 C2752 1.391 . S
C2753 C2757 1.376 . S
C2754 C2752 1.394 . S
C2754 C2755 1.369 . S
C2754 C2758 1.531 . S
C2755 C2754 1.369 . S
C2755 C2756 1.410 . S
C2755 C2763 1.503 . S
C2756 C2755 1.410 . S
C2756 C2757 1.392 . S
C2756 C2759 1.511 . S
C2757 C2753 1.376 . S
C2757 C2756 1.392 . S
C2757 H2769 0.929 . S
C2758 C2754 1.531 . S
C2758 H2770 0.960 . S
C2758 H2771 0.962 . S
C2758 H2772 0.960 . S
C2759 C2756 1.511 . S
C2759 H2773 0.961 . S
C2759 H2774 0.961 . S
C2759 H2775 0.961 . S
C2760 C2761 1.370 . S
C2760 C2762 1.363 . S
C2760 H2776 0.931 . S
C2761 C2760 1.370 . S
C2761 C2765 1.408 . S
C2762 C2760 1.363 . S
C2762 C2763 1.370 . S
C2762 C2766 1.524 . S
C2763 C2755 1.503 . S
C2763 C2762 1.370 . S
C2763 C2764 1.403 . S
C2764 C2763 1.403 . S
C2764 C2765 1.404 . S
C2764 C2767 1.539 . S
C2765 C2761 1.408 . S
C2765 C2764 1.404 . S
C2765 H2777 0.930 . S
C2766 C2762 1.524 . S
C2766 H2778 0.956 . S
C2766 H2779 0.961 . S
C2766 H2780 0.961 . S
C2767 C2764 1.539 . S
C2767 H2781 0.958 . S
C2767 H2782 0.961 . S
C2767 H2783 0.960 . S
H2768 C2752 0.931 . S
H2769 C2757 0.929 . S
H2770 C2758 0.960 . S
H2771 C2758 0.962 . S
H2772 C2758 0.960 . S
H2773 C2759 0.961 . S
H2774 C2759 0.961 . S
H2775 C2759 0.961 . S
H2776 C2760 0.931 . S
H2777 C2765 0.930 . S
H2778 C2766 0.956 . S
H2779 C2766 0.961 . S
H2780 C2766 0.961 . S
H2781 C2767 0.958 . S
H2782 C2767 0.961 . S
H2783 C2767 0.960 . S
C2784 C2785 1.391 1_655 S
C2784 C2786 1.394 . S
C2784 H2800 0.931 . S
C2785 C2784 1.391 1_455 S
C2785 C2789 1.376 . S
C2786 C2784 1.394 . S
C2786 C2787 1.369 1_655 S
C2786 C2790 1.531 . S
C2787 C2786 1.369 1_455 S
C2787 C2788 1.410 . S
C2787 C2795 1.503 . S
C2788 C2787 1.410 . S
C2788 C2789 1.392 . S
C2788 C2791 1.511 . S
C2789 C2785 1.376 . S
C2789 C2788 1.392 . S
C2789 H2801 0.929 . S
C2790 C2786 1.531 . S
C2790 H2802 0.960 . S
C2790 H2803 0.962 . S
C2790 H2804 0.960 . S
C2791 C2788 1.511 . S
C2791 H2805 0.961 . S
C2791 H2806 0.961 . S
C2791 H2807 0.961 . S
C2792 C2793 1.370 . S
C2792 C2794 1.363 . S
C2792 H2808 0.931 . S
C2793 C2792 1.370 . S
C2793 C2797 1.408 . S
C2794 C2792 1.363 . S
C2794 C2795 1.370 . S
C2794 C2798 1.524 . S
C2795 C2787 1.503 . S
C2795 C2794 1.370 . S
C2795 C2796 1.403 . S
C2796 C2795 1.403 . S
C2796 C2797 1.404 . S
C2796 C2799 1.539 . S
C2797 C2793 1.408 . S
C2797 C2796 1.404 . S
C2797 H2809 0.930 . S
C2798 C2794 1.524 . S
C2798 H2810 0.956 . S
C2798 H2811 0.961 . S
C2798 H2812 0.961 . S
C2799 C2796 1.539 . S
C2799 H2813 0.958 1_455 S
C2799 H2814 0.961 . S
C2799 H2815 0.960 . S
H2800 C2784 0.931 . S
H2801 C2789 0.929 . S
H2802 C2790 0.960 . S
H2803 C2790 0.962 . S
H2804 C2790 0.960 . S
H2805 C2791 0.961 . S
H2806 C2791 0.961 . S
H2807 C2791 0.961 . S
H2808 C2792 0.931 . S
H2809 C2797 0.930 . S
H2810 C2798 0.956 . S
H2811 C2798 0.961 . S
H2812 C2798 0.961 . S
H2813 C2799 0.958 1_655 S
H2814 C2799 0.961 . S
H2815 C2799 0.960 . S
C2816 C2817 1.391 . S
C2816 C2818 1.394 . S
C2816 H2832 0.931 . S
C2817 C2816 1.391 . S
C2817 C2821 1.376 . S
C2818 C2816 1.394 . S
C2818 C2819 1.369 . S
C2818 C2822 1.531 . S
C2819 C2818 1.369 . S
C2819 C2820 1.410 . S
C2819 C2827 1.503 . S
C2820 C2819 1.410 . S
C2820 C2821 1.392 . S
C2820 C2823 1.511 . S
C2821 C2817 1.376 . S
C2821 C2820 1.392 . S
C2821 H2833 0.929 . S
C2822 C2818 1.531 . S
C2822 H2834 0.960 . S
C2822 H2835 0.962 . S
C2822 H2836 0.960 . S
C2823 C2820 1.511 . S
C2823 H2837 0.961 . S
C2823 H2838 0.961 . S
C2823 H2839 0.961 . S
C2824 C2825 1.370 . S
C2824 C2826 1.363 . S
C2824 H2840 0.931 . S
C2825 C2824 1.370 . S
C2825 C2829 1.408 . S
C2826 C2824 1.363 . S
C2826 C2827 1.370 . S
C2826 C2830 1.524 . S
C2827 C2819 1.503 . S
C2827 C2826 1.370 . S
C2827 C2828 1.403 . S
C2828 C2827 1.403 . S
C2828 C2829 1.404 . S
C2828 C2831 1.539 . S
C2829 C2825 1.408 . S
C2829 C2828 1.404 . S
C2829 H2841 0.930 . S
C2830 C2826 1.524 . S
C2830 H2842 0.956 . S
C2830 H2843 0.961 . S
C2830 H2844 0.961 . S
C2831 C2828 1.539 . S
C2831 H2845 0.958 . S
C2831 H2846 0.961 . S
C2831 H2847 0.960 . S
H2832 C2816 0.931 . S
H2833 C2821 0.929 . S
H2834 C2822 0.960 . S
H2835 C2822 0.962 . S
H2836 C2822 0.960 . S
H2837 C2823 0.961 . S
H2838 C2823 0.961 . S
H2839 C2823 0.961 . S
H2840 C2824 0.931 . S
H2841 C2829 0.930 . S
H2842 C2830 0.956 . S
H2843 C2830 0.961 . S
H2844 C2830 0.961 . S
H2845 C2831 0.958 . S
H2846 C2831 0.961 . S
H2847 C2831 0.960 . S
C2848 C2849 1.391 1_455 S
C2848 C2850 1.394 . S
C2848 H2864 0.931 . S
C2849 C2848 1.391 1_655 S
C2849 C2853 1.376 . S
C2850 C2848 1.394 . S
C2850 C2851 1.369 1_455 S
C2850 C2854 1.531 . S
C2851 C2850 1.369 1_655 S
C2851 C2852 1.410 . S
C2851 C2859 1.503 . S
C2852 C2851 1.410 . S
C2852 C2853 1.392 . S
C2852 C2855 1.511 . S
C2853 C2849 1.376 . S
C2853 C2852 1.392 . S
C2853 H2865 0.929 . S
C2854 C2850 1.531 . S
C2854 H2866 0.960 . S
C2854 H2867 0.962 . S
C2854 H2868 0.960 . S
C2855 C2852 1.511 . S
C2855 H2869 0.961 . S
C2855 H2870 0.961 . S
C2855 H2871 0.961 . S
C2856 C2857 1.386 . S
C2856 C2858 1.367 1_655 S
C2856 H2872 0.914 1_655 S
C2857 C2856 1.386 . S
C2857 C2861 1.408 . S
C2858 C2856 1.367 1_455 S
C2858 C2859 1.346 1_455 S
C2858 C2862 1.548 . S
C2859 C2851 1.503 . S
C2859 C2858 1.346 1_655 S
C2859 C2860 1.403 . S
C2860 C2859 1.403 . S
C2860 C2861 1.404 . S
C2860 C2863 1.539 . S
C2861 C2857 1.408 . S
C2861 C2860 1.404 . S
C2861 H2873 0.930 . S
C2862 C2858 1.548 . S
C2862 H2874 0.956 . S
C2862 H2875 0.961 . S
C2862 H2876 0.961 . S
C2863 C2860 1.539 . S
C2863 H2877 0.958 . S
C2863 H2878 0.961 . S
C2863 H2879 0.960 . S
H2864 C2848 0.931 . S
H2865 C2853 0.929 . S
H2866 C2854 0.960 . S
H2867 C2854 0.962 . S
H2868 C2854 0.960 . S
H2869 C2855 0.961 . S
H2870 C2855 0.961 . S
H2871 C2855 0.961 . S
H2872 C2856 0.914 1_455 S
H2873 C2861 0.930 . S
H2874 C2862 0.956 . S
H2875 C2862 0.961 . S
H2876 C2862 0.961 . S
H2877 C2863 0.958 . S
H2878 C2863 0.961 . S
H2879 C2863 0.960 . S
C585 C571 1.580 . S
C577 C8 1.586 . S
C617 C532 1.481 . S
C609 C19 1.478 . S
C649 C558 1.240 . S
C641 C30 1.232 . S
C681 C545 1.586 1_655 S
C673 C41 1.586 1_565 S
C713 C454 1.581 . S
C705 C52 1.578 . S
C737 C63 1.583 1_556 S
C745 C467 1.590 1_565 S
C777 C428 1.481 . S
C769 C74 1.482 . S
C801 C85 1.262 . S
C809 C441 1.220 . S
C841 C519 1.579 . S
C833 C96 1.572 . S
C865 C107 1.549 1_655 S
C873 C493 1.588 1_556 S
C897 C118 1.479 . S
C905 C480 1.472 . S
C937 C506 1.225 . S
C929 C129 1.260 . S
C969 C415 1.568 . S
C961 C140 1.530 . S
C993 C151 1.427 . S
C1001 C376 1.476 . S
C1033 C402 1.239 . S
C1025 C162 1.257 . S
C1057 C173 1.538 . S
C1065 C389 1.589 1_455 S
C1097 C298 1.567 . S
C1089 C184 1.528 . S
C1129 C311 1.591 1_545 S
C1121 C195 1.530 . S
C1153 C206 1.438 . S
C1161 C272 1.481 . S
C1185 C217 1.222 . S
C1193 C285 1.220 . S
C1217 C228 1.556 . S
C1225 C363 1.576 . S
C1249 C239 1.509 . S
C1257 C337 1.578 1_554 S
C1289 C324 1.466 . S
C1281 C250 1.371 . S
C1313 C261 1.202 . S
C1321 C350 1.222 . S
C1353 C273 1.410 . S
C1345 C7 1.420 . S
C1385 C286 1.380 . S
C1377 C18 1.398 . S
C1409 C29 1.272 . S
C1417 C299 1.292 . S
C1441 C40 1.144 . S
C1449 C312 1.160 . S
C1481 C325 1.425 . S
C1473 C51 1.453 . S
C1505 C62 1.146 1_556 S
C1513 C338 1.170 . S
C1545 C351 1.358 . S
C1537 C73 1.423 . S
C1577 C364 1.302 . S
C1569 C84 1.309 . S
C1609 C377 1.429 . S
C1601 C95 1.435 . S
C1633 C106 1.171 1_655 S
C1641 C390 1.169 . S
C1665 C117 1.381 . S
C1673 C403 1.364 . S
C1697 C128 1.268 . S
C1705 C416 1.296 . S
C1729 C139 1.416 . S
C1737 C429 1.419 . S
C1761 C150 1.347 . S
C1769 C442 1.359 . S
C1793 C161 1.288 . S
C1801 C455 1.298 . S
C1825 C172 1.068 . S
C1833 C468 1.169 . S
C1857 C183 1.374 . S
C1865 C481 1.431 . S
C1897 C494 1.161 . S
C1889 C194 1.164 1_556 S
C1929 C507 1.375 . S
C1921 C205 1.311 . S
C1961 C520 1.291 . S
C1953 C216 1.268 . S
C1993 C533 1.412 . S
C1985 C227 1.368 . S
C2017 C238 1.161 1_655 S
C2025 C546 1.163 . S
C2049 C249 1.278 . S
C2057 C559 1.380 . S
C2081 C260 1.209 . S
C2089 C572 1.300 . S
C2113 C5 1.332 . S
C2121 C372 1.440 . S
C2153 C411 1.471 . S
C2145 C16 1.369 . S
C2177 C27 1.263 1_545 S
C2185 C385 1.289 . S
C2217 C398 1.570 . S
C2209 C38 1.347 1_565 S
C2241 C49 1.285 . S
C2249 C268 1.462 . S
C2273 C60 1.359 1_556 S
C2281 C281 1.568 . S
C2305 C71 1.460 . S
C2313 C294 1.462 . S
C2337 C82 1.307 1_554 S
C2345 C307 1.285 . S
C2377 C320 1.444 . S
C2369 C93 1.312 . S
C2409 C346 1.570 . S
C2401 C104 1.392 1_655 S
C2433 C115 1.424 . S
C2441 C359 1.488 . S
C2465 C126 1.300 1_455 S
C2473 C333 1.295 . S
C2505 C528 1.426 . S
C2497 C137 1.191 . S
C2537 C567 1.427 . S
C2529 C148 1.140 . S
C2561 C159 1.248 . S
C2569 C541 1.290 . S
C2601 C554 1.530 . S
C2593 C170 1.278 . S
C2625 C181 1.210 . S
C2633 C424 1.433 . S
C2657 C192 1.297 . S
C2665 C437 1.515 . S
C2689 C203 1.281 . S
C2697 C450 1.453 . S
C2729 C463 1.301 . S
C2721 C214 1.254 . S
C2761 C476 1.444 . S
C2753 C225 1.302 . S
C2793 C502 1.510 . S
C2785 C236 1.284 . S
C2817 C247 1.207 . S
C2825 C515 1.456 . S
C2857 C489 1.272 . S
C2849 C258 1.164 . S
