# Generated by pormake.
# Topology anh, (6,3)-cn, num edge types: 1
# Building blocks:
#     Node 0, Type 0, BuildingBlock: VOLQOD_clean_sbu_1, # of connection points: 6
#     Node 1, Type 0, BuildingBlock: VOLQOD_clean_sbu_1, # of connection points: 6
#     Node 2, Type 0, BuildingBlock: VOLQOD_clean_sbu_1, # of connection points: 6
#     Node 3, Type 1, BuildingBlock: KAKCAD_clean_linker_0, # of connection points: 3
#     Node 4, Type 1, BuildingBlock: KAKCAD_clean_linker_0, # of connection points: 3
#     Node 5, Type 1, BuildingBlock: KAKCAD_clean_linker_0, # of connection points: 3
#     Node 6, Type 1, BuildingBlock: KAKCAD_clean_linker_0, # of connection points: 3
#     Node 7, Type 1, BuildingBlock: KAKCAD_clean_linker_0, # of connection points: 3
#     Node 8, Type 1, BuildingBlock: KAKCAD_clean_linker_0, # of connection points: 3
#     Edge 9, Type (0, 1), BuildingBlock: XUDNAN_clean_linker_2, # of connection points: 2
#     Edge 10, Type (0, 1), BuildingBlock: XUDNAN_clean_linker_2, # of connection points: 2
#     Edge 11, Type (0, 1), BuildingBlock: XUDNAN_clean_linker_2, # of connection points: 2
#     Edge 12, Type (0, 1), BuildingBlock: XUDNAN_clean_linker_2, # of connection points: 2
#     Edge 13, Type (0, 1), BuildingBlock: XUDNAN_clean_linker_2, # of connection points: 2
#     Edge 14, Type (0, 1), BuildingBlock: XUDNAN_clean_linker_2, # of connection points: 2
#     Edge 15, Type (0, 1), BuildingBlock: XUDNAN_clean_linker_2, # of connection points: 2
#     Edge 16, Type (0, 1), BuildingBlock: XUDNAN_clean_linker_2, # of connection points: 2
#     Edge 17, Type (0, 1), BuildingBlock: XUDNAN_clean_linker_2, # of connection points: 2
#     Edge 18, Type (0, 1), BuildingBlock: XUDNAN_clean_linker_2, # of connection points: 2
#     Edge 19, Type (0, 1), BuildingBlock: XUDNAN_clean_linker_2, # of connection points: 2
#     Edge 20, Type (0, 1), BuildingBlock: XUDNAN_clean_linker_2, # of connection points: 2
#     Edge 21, Type (0, 1), BuildingBlock: XUDNAN_clean_linker_2, # of connection points: 2
#     Edge 22, Type (0, 1), BuildingBlock: XUDNAN_clean_linker_2, # of connection points: 2
#     Edge 23, Type (0, 1), BuildingBlock: XUDNAN_clean_linker_2, # of connection points: 2
#     Edge 24, Type (0, 1), BuildingBlock: XUDNAN_clean_linker_2, # of connection points: 2
#     Edge 25, Type (0, 1), BuildingBlock: XUDNAN_clean_linker_2, # of connection points: 2
#     Edge 26, Type (0, 1), BuildingBlock: XUDNAN_clean_linker_2, # of connection points: 2
# Relax obj value: 0.167
# Max RMSD: 0.230
# Mean RMSD: 0.114
data_MOF--net-anh--node1-VOLQOD_clean_sbu_1--node2-KAKCAD_clean_linker_0--edge1-XUDNAN_clean_linker_2
_symmetry_space_group_name_H-M    P1
_symmetry_Int_Tables_number       1
_symmetry_cell_setting            triclinic
loop_
_symmetry_equiv_pos_as_xyz
'x, y, z'
_cell_length_a     34.66191
_cell_length_b     34.563845
_cell_length_c     74.74667
_cell_angle_alpha  90.228004
_cell_angle_beta   89.898154
_cell_angle_gamma 120.09287
loop_
_atom_site_label
_atom_site_type_symbol
_atom_site_fract_x
_atom_site_fract_y
_atom_site_fract_z
_atom_type_partial_charge
O0 O 0.99044 0.53493 0.20324 0.0
Zn1 Zn -0.00155 0.55318 0.17724 0.0
O2 O 0.00503 0.51055 0.16198 0.0
Zn3 Zn 0.95754 0.48448 0.1444 0.0
Zn4 Zn 0.00171 0.46257 0.17674 0.0
Zn5 Zn 0.06163 0.54104 0.14913 0.0
O6 O 0.98091 0.48775 0.11964 0.0
O7 O 0.05375 0.53432 0.12225 0.0
O8 O 0.94576 0.55891 0.16934 0.0
O9 O 0.92323 0.51672 0.14478 0.0
O10 O 0.91407 0.41995 0.14953 0.0
O11 O 0.94704 0.4038 0.17128 0.0
O12 O 0.05606 0.45662 0.17362 0.0
O13 O 0.05318 0.61407 0.17571 0.0
O14 O 0.09911 0.51403 0.156 0.0
O15 O 0.09534 0.60655 0.1551 0.0
C16 C 0.9906 0.50249 0.21119 0.0
C17 C 0.01948 0.51003 0.11272 0.0
C18 C 0.91475 0.39219 0.16046 0.0
C19 C 0.92056 0.54372 0.15566 0.0
C20 C 0.09255 0.48042 0.16531 0.0
C21 C 0.08824 0.63047 0.16612 0.0
O22 O -0.00438 0.47343 0.20263 0.0
O23 O 0.49561 0.99635 0.4602 0.0
Zn24 Zn 0.47799 0.00342 0.48512 0.0
O25 O 0.52115 0.00679 0.50263 0.0
Zn26 Zn 0.55154 0.06596 0.51319 0.0
Zn27 Zn 0.56436 0.99472 0.49063 0.0
Zn28 Zn 0.49066 0.96371 0.5217 0.0
O29 O 0.54713 0.06394 0.54004 0.0
O30 O 0.49586 0.99353 0.54552 0.0
O31 O 0.47069 0.05768 0.48582 0.0
O32 O 0.52439 0.10167 0.50471 0.0
O33 O 0.61569 0.09894 0.50625 0.0
O34 O 0.62596 0.04941 0.49116 0.0
O35 O 0.56782 0.94452 0.50255 0.0
O36 O 0.41838 0.94988 0.48994 0.0
O37 O 0.52009 0.92707 0.52518 0.0
O38 O 0.42574 0.9221 0.51562 0.0
C39 C 0.52278 0.98477 0.45422 0.0
C40 C 0.52196 0.03332 0.55091 0.0
C41 C 0.64087 0.08846 0.49767 0.0
C42 C 0.49267 0.09458 0.49418 0.0
C43 C 0.5491 0.92219 0.51658 0.0
C44 C 0.4021 0.92093 0.50236 0.0
O45 O 0.54913 0.97986 0.46459 0.0
O46 O 0.46747 0.47738 0.78663 0.0
Zn47 Zn 0.44467 0.46261 0.81193 0.0
O48 O 0.49284 0.4999 0.82875 0.0
Zn49 Zn 0.47606 0.53618 0.84278 0.0
Zn50 Zn 0.54821 0.54059 0.81607 0.0
Zn51 Zn 0.50233 0.46114 0.84484 0.0
O52 O 0.47774 0.52632 0.869 0.0
O53 O 0.49136 0.47019 0.87072 0.0
O54 O 0.39141 0.4717 0.81461 0.0
O55 O 0.41515 0.52247 0.83637 0.0
O56 O 0.51388 0.6011 0.83761 0.0
O57 O 0.5655 0.60568 0.81884 0.0
O58 O 0.59926 0.53294 0.82445 0.0
O59 O 0.42376 0.39723 0.81539 0.0
O60 O 0.56556 0.47511 0.84298 0.0
O61 O 0.46404 0.39628 0.83824 0.0
C62 C 0.5058 0.50312 0.77991 0.0
C63 C 0.48315 0.49848 0.87819 0.0
C64 C 0.54775 0.62408 0.82781 0.0
C65 C 0.38565 0.49753 0.82509 0.0
C66 C 0.60025 0.50434 0.83485 0.0
C67 C 0.4346 0.37594 0.82623 0.0
O68 O 0.5394 0.52791 0.7897 0.0
C69 C 0.53511 0.03216 0.31638 0.0
C70 C 0.51999 0.98897 0.32307 0.0
C71 C 0.53106 0.0386 0.29819 0.0
C72 C 0.51111 0.00186 0.28648 0.0
C73 C 0.49601 0.95868 0.29317 0.0
C74 C 0.50073 0.95233 0.31129 0.0
C75 C 0.50555 0.00833 0.26732 0.0
C76 C 0.54198 0.03937 0.25713 0.0
C77 C 0.53694 0.04455 0.23882 0.0
C78 C 0.49502 0.01855 0.23079 0.0
C79 C 0.45812 0.98766 0.24082 0.0
C80 C 0.46375 0.98284 0.25913 0.0
C81 C 0.41445 0.95913 0.23192 0.0
C82 C 0.39998 0.97623 0.21803 0.0
C83 C 0.38797 0.91384 0.23659 0.0
C84 C 0.34877 0.88606 0.22726 0.0
C85 C 0.33544 0.90282 0.21293 0.0
C86 C 0.57543 0.07623 0.22782 0.0
C87 C 0.57067 0.10408 0.21548 0.0
C88 C 0.61663 0.07784 0.22914 0.0
C89 C 0.65227 0.10648 0.21819 0.0
C90 C 0.64742 0.13418 0.20575 0.0
C91 C 0.60627 0.1328 0.20459 0.0
C92 C 0.36104 0.94824 0.20853 0.0
H93 H 0.5503 0.06095 0.32522 0.0
H94 H 0.54278 0.07217 0.29333 0.0
H95 H 0.48076 0.92988 0.28435 0.0
H96 H 0.4886 0.91869 0.31617 0.0
H97 H 0.5743 0.05916 0.26343 0.0
H98 H 0.4355 0.95959 0.26713 0.0
H99 H 0.49161 0.02131 0.21652 0.0
H100 H 0.41906 0.01116 0.21432 0.0
H101 H 0.39837 0.8993 0.24699 0.0
H102 H 0.32991 0.85096 0.23074 0.0
H103 H 0.53943 0.10392 0.21435 0.0
H104 H 0.62103 0.05629 0.23838 0.0
H105 H 0.35119 0.96195 0.19761 0.0
H106 H 0.60172 0.15443 0.19546 0.0
H107 H 0.68341 0.10647 0.21928 0.0
C108 C 0.46706 0.51121 0.64014 0.0
C109 C 0.47774 0.48271 0.64942 0.0
C110 C 0.46147 0.50749 0.62163 0.0
C111 C 0.46754 0.47587 0.61201 0.0
C112 C 0.47576 0.44565 0.62152 0.0
C113 C 0.48058 0.44892 0.64013 0.0
C114 C 0.47022 0.47785 0.59216 0.0
C115 C 0.49284 0.51957 0.58368 0.0
C116 C 0.49862 0.52276 0.5651 0.0
C117 C 0.4816 0.48374 0.55477 0.0
C118 C 0.45984 0.44158 0.56302 0.0
C119 C 0.45359 0.4389 0.5817 0.0
C120 C 0.44879 0.40098 0.55245 0.0
C121 C 0.43069 0.39464 0.53511 0.0
C122 C 0.46049 0.37032 0.5591 0.0
C123 C 0.45636 0.33546 0.54838 0.0
C124 C 0.44045 0.33043 0.53079 0.0
C125 C 0.52309 0.56739 0.55679 0.0
C126 C 0.5033 0.57922 0.54314 0.0
C127 C 0.56412 0.59998 0.56397 0.0
C128 C 0.58313 0.64447 0.55871 0.0
C129 C 0.56126 0.65717 0.54626 0.0
C130 C 0.5222 0.62387 0.53793 0.0
C131 C 0.42632 0.35938 0.52437 0.0
H132 H 0.46443 0.53728 0.64717 0.0
H133 H 0.45407 0.53056 0.61478 0.0
H134 H 0.48101 0.42116 0.61454 0.0
H135 H 0.48903 0.42678 0.64714 0.0
H136 H 0.50688 0.54999 0.5916 0.0
H137 H 0.43637 0.40647 0.5881 0.0
H138 H 0.48758 0.4864 0.54047 0.0
H139 H 0.42106 0.41761 0.52972 0.0
H140 H 0.475 0.37451 0.57229 0.0
H141 H 0.46695 0.31312 0.55368 0.0
H142 H 0.47163 0.55457 0.53743 0.0
H143 H 0.58038 0.59136 0.5743 0.0
H144 H 0.41385 0.35597 0.51084 0.0
H145 H 0.5044 0.63267 0.52839 0.0
H146 H 0.6137 0.66931 0.56509 0.0
C147 C 0.09121 0.5851 0.97577 0.0
C148 C 0.04995 0.55557 0.98372 0.0
C149 C 0.09306 0.59898 0.95803 0.0
C150 C 0.05366 0.58392 0.94805 0.0
C151 C 0.01253 0.55517 0.95623 0.0
C152 C 0.0107 0.54135 0.97382 0.0
C153 C 0.0547 0.59536 0.92884 0.0
C154 C 0.08423 0.59175 0.91699 0.0
C155 C 0.07971 0.59408 0.89837 0.0
C156 C 0.04555 0.6007 0.89175 0.0
C157 C 0.01528 0.60352 0.90339 0.0
C158 C 0.02144 0.60294 0.92191 0.0
C159 C 0.97277 0.59783 0.89626 0.0
C160 C 0.97136 0.61772 0.88006 0.0
C161 C 0.93243 0.56715 0.90452 0.0
C162 C 0.89184 0.55464 0.89632 0.0
C163 C 0.8905 0.57224 0.8796 0.0
C164 C 0.1069 0.58396 0.88586 0.0
C165 C 0.15221 0.59977 0.88931 0.0
C166 C 0.08702 0.55639 0.87082 0.0
C167 C 0.11171 0.54451 0.85964 0.0
C168 C 0.15673 0.55944 0.86332 0.0
C169 C 0.1768 0.58752 0.87822 0.0
C170 C 0.93046 0.60509 0.87181 0.0
H171 H 0.122 0.59656 0.98311 0.0
H172 H 0.12524 0.6212 0.95208 0.0
H173 H 0.98155 0.54218 0.94888 0.0
H174 H 0.97835 0.51921 0.97965 0.0
H175 H 0.10847 0.58362 0.92218 0.0
H176 H -0.00163 0.60551 0.93097 0.0
H177 H 0.04073 0.60067 0.87743 0.0
H178 H 0.00187 0.64174 0.87345 0.0
H179 H 0.93207 0.55059 0.91684 0.0
H180 H 0.86142 0.52986 0.90278 0.0
H181 H 0.16857 0.62123 0.90071 0.0
H182 H 0.05196 0.54282 0.86792 0.0
H183 H 0.93022 0.61931 0.85895 0.0
H184 H 0.21124 0.59909 0.88165 0.0
H185 H 0.09532 0.52323 0.8482 0.0
C186 C 0.93431 0.49928 0.35277 0.0
C187 C 0.97193 0.52094 0.3417 0.0
C188 C 0.93872 0.50401 0.37131 0.0
C189 C 0.98098 0.52998 0.3792 0.0
C190 C 0.01828 0.55382 0.36803 0.0
C191 C 0.01374 0.54946 0.34942 0.0
C192 C 0.98648 0.52863 0.39886 0.0
C193 C 0.96245 0.48783 0.40798 0.0
C194 C 0.96884 0.48498 0.42631 0.0
C195 C -0.00048 0.52325 0.43567 0.0
C196 C 0.02348 0.56456 0.42693 0.0
C197 C 0.01691 0.567 0.40847 0.0
C198 C 0.05622 0.60457 0.4371 0.0
C199 C 0.04632 0.6125 0.45453 0.0
C200 C 0.09847 0.6337 0.42989 0.0
C201 C 0.13064 0.66907 0.4401 0.0
C202 C 0.12123 0.67603 0.45774 0.0
C203 C 0.94308 0.44186 0.43565 0.0
C204 C 0.89648 0.41773 0.43417 0.0
C205 C 0.96471 0.42456 0.44602 0.0
C206 C 0.93997 0.38347 0.45468 0.0
C207 C 0.8933 0.3597 0.45336 0.0
C208 C 0.87178 0.37717 0.44305 0.0
C209 C 0.07854 0.64778 0.46476 0.0
H210 H 0.90161 0.47759 0.34708 0.0
H211 H 0.90915 0.48611 0.37951 0.0
H212 H 0.05133 0.57387 0.37366 0.0
H213 H 0.04327 0.56633 0.34113 0.0
H214 H 0.93969 0.45767 0.40073 0.0
H215 H 0.03506 0.5988 0.40165 0.0
H216 H 0.00474 0.52071 0.44982 0.0
H217 H 0.01376 0.59109 0.46034 0.0
H218 H 0.10728 0.62816 0.4166 0.0
H219 H 0.16345 0.68994 0.4344 0.0
H220 H 0.87914 0.43055 0.42629 0.0
H221 H 0.00071 0.44259 0.44724 0.0
H222 H 0.07016 0.65276 0.47822 0.0
H223 H 0.8358 0.35916 0.44172 0.0
H224 H 0.95715 0.37053 0.46258 0.0
C225 C 0.5012 0.99401 0.68923 0.0
C226 C 0.51263 0.03629 0.68236 0.0
C227 C 0.49608 0.98602 0.70765 0.0
C228 C 0.50259 0.0202 0.71966 0.0
C229 C 0.51381 0.06237 0.71276 0.0
C230 C 0.51847 0.07021 0.69437 0.0
C231 C 0.49859 0.01244 0.73933 0.0
C232 C 0.51416 0.98617 0.74742 0.0
C233 C 0.51266 0.98097 0.76609 0.0
C234 C 0.49591 0.00264 0.77681 0.0
C235 C 0.47911 0.02779 0.76886 0.0
C236 C 0.48022 0.03234 0.75022 0.0
C237 C 0.46107 0.05048 0.77983 0.0
C238 C 0.41525 0.03533 0.77968 0.0
C239 C 0.49013 0.09018 0.78882 0.0
C240 C 0.47387 0.11582 0.79677 0.0
C241 C 0.42808 0.10187 0.79603 0.0
C242 C 0.52714 0.9515 0.77425 0.0
C243 C 0.5077 0.90681 0.76863 0.0
C244 C 0.5599 0.96746 0.7877 0.0
C245 C 0.57324 0.93906 0.79531 0.0
C246 C 0.55316 0.89421 0.78984 0.0
C247 C 0.52028 0.87828 0.7765 0.0
C248 C 0.3988 0.06053 0.78788 0.0
H249 H 0.49692 0.9672 0.68042 0.0
H250 H 0.48689 0.95298 0.71244 0.0
H251 H 0.51974 0.08974 0.72159 0.0
H252 H 0.52661 0.10298 0.68959 0.0
H253 H 0.52854 0.97055 0.7393 0.0
H254 H 0.46695 0.0518 0.74426 0.0
H255 H 0.49474 -0.0011 0.79123 0.0
H256 H 0.39239 0.00466 0.77276 0.0
H257 H 0.5257 0.10253 0.78887 0.0
H258 H 0.49766 0.14772 0.80261 0.0
H259 H 0.48223 0.8938 0.75835 0.0
H260 H 0.57537 0.0019 0.79217 0.0
H261 H 0.3633 0.04824 0.78735 0.0
H262 H 0.50451 0.84375 0.7721 0.0
H263 H 0.59862 0.95183 0.80562 0.0
C264 C 0.4908 0.44209 0.01568 0.0
C265 C 0.46457 0.45908 0.00877 0.0
C266 C 0.49021 0.43353 0.034 0.0
C267 C 0.46345 0.44189 0.04576 0.0
C268 C 0.43609 0.45734 0.03866 0.0
C269 C 0.4364 0.46547 0.02042 0.0
C270 C 0.46627 0.43816 0.06549 0.0
C271 C 0.50771 0.45309 0.07382 0.0
C272 C 0.51161 0.45661 0.09253 0.0
C273 C 0.47375 0.44511 0.10298 0.0
C274 C 0.43203 0.42975 0.09491 0.0
C275 C 0.4284 0.42491 0.07622 0.0
C276 C 0.3937 0.4245 0.10567 0.0
C277 C 0.38513 0.40575 0.12292 0.0
C278 C 0.36725 0.44154 0.09911 0.0
C279 C 0.33389 0.44099 0.10965 0.0
C280 C 0.32633 0.42382 0.1271 0.0
C281 C 0.55588 0.47527 0.10104 0.0
C282 C 0.58406 0.45861 0.09648 0.0
C283 C 0.57041 0.51019 0.11359 0.0
C284 C 0.61258 0.52829 0.1214 0.0
C285 C 0.64087 0.51154 0.11691 0.0
C286 C 0.62596 0.47629 0.10442 0.0
C287 C 0.35157 0.40529 0.13353 0.0
H288 H 0.51296 0.4369 0.00706 0.0
H289 H 0.51132 0.42117 0.03899 0.0
H290 H 0.41555 0.46491 0.04726 0.0
H291 H 0.41509 0.47767 0.01549 0.0
H292 H 0.53753 0.46467 0.06578 0.0
H293 H 0.3961 0.41241 0.06997 0.0
H294 H 0.47719 0.44972 0.11736 0.0
H295 H 0.40475 0.39206 0.12828 0.0
H296 H 0.3733 0.45686 0.08603 0.0
H297 H 0.31436 0.4547 0.10418 0.0
H298 H 0.57339 0.43141 0.08696 0.0
H299 H 0.54943 0.524 0.11714 0.0
H300 H 0.34631 0.39174 0.14693 0.0
H301 H 0.64634 0.46177 0.10096 0.0
H302 H 0.62318 0.55574 0.13078 0.0
H303 H 0.17757 0.52831 0.15256 0.0
H304 H 0.08528 0.40243 0.17792 0.0
H305 H 0.14028 0.37735 0.17456 0.0
H306 H 0.21339 0.48488 0.11984 0.0
H307 H 0.27062 0.52958 0.11978 0.0
H308 H 0.22736 0.54038 0.12687 0.0
H309 H 0.2677 0.57114 0.1572 0.0
H310 H 0.31141 0.56068 0.15014 0.0
H311 H 0.28195 0.53708 0.17074 0.0
H312 H 0.20108 0.36209 0.16439 0.0
H313 H 0.26231 0.35881 0.14859 0.0
H314 H 0.31456 0.49546 0.13086 0.0
C315 C 0.16922 0.49585 0.15779 0.0
C316 C 0.12713 0.46735 0.16548 0.0
C317 C 0.11745 0.42498 0.17205 0.0
C318 C 0.14851 0.41046 0.17023 0.0
C319 C 0.18925 0.43897 0.16208 0.0
C320 C 0.19979 0.48102 0.15617 0.0
C321 C 0.24396 0.50385 0.14649 0.0
C322 C 0.23846 0.5153 0.1271 0.0
C323 C 0.27829 0.54566 0.15676 0.0
C324 C 0.2557 0.46732 0.14713 0.0
C325 C 0.22422 0.43035 0.15639 0.0
C326 C 0.22642 0.39118 0.15742 0.0
C327 C 0.26126 0.3896 0.14844 0.0
C328 C 0.29293 0.42681 0.13847 0.0
C329 C 0.29062 0.4664 0.13829 0.0
H330 H 0.67645 0.17819 0.50205 0.0
H331 H 0.70927 0.07866 0.48395 0.0
H332 H 0.78354 0.1391 0.47432 0.0
H333 H 0.71998 0.24662 0.46593 0.0
H334 H 0.74025 0.29846 0.47803 0.0
H335 H 0.69372 0.24812 0.48657 0.0
H336 H 0.73538 0.25871 0.51656 0.0
H337 H 0.78213 0.30942 0.50815 0.0
H338 H 0.79032 0.26516 0.51645 0.0
H339 H 0.85069 0.21045 0.46361 0.0
H340 H 0.90245 0.28567 0.45136 0.0
H341 H 0.82311 0.33672 0.47556 0.0
C342 C 0.69965 0.16894 0.49656 0.0
C343 C 0.68722 0.12371 0.4939 0.0
C344 C 0.71821 0.11314 0.48621 0.0
C345 C 0.76052 0.14723 0.48078 0.0
C346 C 0.77119 0.19156 0.48316 0.0
C347 C 0.74154 0.20237 0.4909 0.0
C348 C 0.75847 0.252 0.49006 0.0
C349 C 0.72619 0.26184 0.47951 0.0
C350 C 0.7671 0.27253 0.50893 0.0
C351 C 0.80157 0.26737 0.48004 0.0
C352 C 0.80897 0.23231 0.47652 0.0
C353 C 0.84555 0.23824 0.46651 0.0
C354 C 0.87475 0.28093 0.45964 0.0
C355 C 0.86651 0.31661 0.46258 0.0
C356 C 0.83004 0.30985 0.47319 0.0
H357 H 0.49846 0.66424 0.83287 0.0
H358 H 0.62888 0.69077 0.81538 0.0
H359 H 0.64846 0.76799 0.80728 0.0
H360 H 0.48049 0.7155 0.79733 0.0
H361 H 0.45052 0.73694 0.80972 0.0
H362 H 0.45013 0.68746 0.81727 0.0
H363 H 0.48031 0.7243 0.84819 0.0
H364 H 0.48059 0.77402 0.8408 0.0
H365 H 0.53089 0.77781 0.84946 0.0
H366 H 0.65079 0.8401 0.79864 0.0
H367 H 0.6336 0.89789 0.78814 0.0
H368 H 0.49985 0.82054 0.80941 0.0
C369 C 0.53172 0.68667 0.82789 0.0
C370 C 0.56249 0.67182 0.82503 0.0
C371 C 0.60503 0.70171 0.81785 0.0
C372 C 0.61644 0.7456 0.81328 0.0
C373 C 0.58477 0.75878 0.81586 0.0
C374 C 0.54319 0.72999 0.82295 0.0
C375 C 0.51299 0.74981 0.82235 0.0
C376 C 0.4711 0.7207 0.81099 0.0
C377 C 0.50048 0.75692 0.84133 0.0
C378 C 0.5436 0.79388 0.81337 0.0
C379 C 0.58524 0.79905 0.8101 0.0
C380 C 0.61847 0.83657 0.8013 0.0
C381 C 0.60854 0.86916 0.79541 0.0
C382 C 0.56557 0.86335 0.79809 0.0
C383 C 0.53303 0.82563 0.80736 0.0
H384 H 0.88133 0.54236 0.12406 0.0
H385 H 0.87901 0.56835 0.18074 0.0
H386 H 0.81113 0.57369 0.17624 0.0
H387 H 0.83558 0.61522 0.10838 0.0
H388 H 0.80464 0.57626 0.09072 0.0
H389 H 0.85716 0.5828 0.09799 0.0
H390 H 0.81855 0.49756 0.10386 0.0
H391 H 0.76596 0.49078 0.09687 0.0
H392 H 0.77119 0.47187 0.11869 0.0
H393 H 0.73652 0.56186 0.1664 0.0
H394 H 0.66424 0.53857 0.15184 0.0
H395 H 0.71812 0.52491 0.10126 0.0
C396 C 0.86724 0.55042 0.13544 0.0
C397 C 0.88521 0.55486 0.15274 0.0
C398 C 0.86588 0.5652 0.16734 0.0
C399 C 0.82735 0.56828 0.16491 0.0
C400 C 0.80941 0.56194 0.14773 0.0
C401 C 0.82932 0.55415 0.13319 0.0
C402 C 0.80168 0.54474 0.11641 0.0
C403 C 0.82623 0.58199 0.10256 0.0
C404 C 0.78857 0.4985 0.10851 0.0
C405 C 0.76176 0.54572 0.12398 0.0
C406 C 0.76699 0.55631 0.142 0.0
C407 C 0.73254 0.55478 0.15219 0.0
C408 C 0.69159 0.54158 0.14378 0.0
C409 C 0.68543 0.52994 0.12537 0.0
C410 C 0.72153 0.53326 0.11536 0.0
H411 H 0.34555 0.90424 0.47425 0.0
H412 H 0.35355 0.85329 0.5263 0.0
H413 H 0.27805 0.78823 0.52185 0.0
H414 H 0.22487 0.86524 0.47524 0.0
H415 H 0.21869 0.85153 0.45174 0.0
H416 H 0.27062 0.89673 0.46012 0.0
H417 H 0.31277 0.85956 0.44629 0.0
H418 H 0.2611 0.81423 0.43797 0.0
H419 H 0.29614 0.80275 0.45216 0.0
H420 H 0.20493 0.72535 0.51037 0.0
H421 H 0.14123 0.66914 0.49259 0.0
H422 H 0.182 0.76183 0.44814 0.0
C423 C 0.33122 0.87996 0.48492 0.0
C424 C 0.35547 0.88399 0.50067 0.0
C425 C 0.33557 0.85102 0.51415 0.0
C426 C 0.29265 0.81403 0.51176 0.0
C427 C 0.27011 0.81071 0.49589 0.0
C428 C 0.2887 0.84293 0.48273 0.0
C429 C 0.25935 0.82996 0.4663 0.0
C430 C 0.24237 0.86282 0.46318 0.0
C431 C 0.28381 0.8264 0.44971 0.0
C432 C 0.22196 0.78466 0.47201 0.0
C433 C 0.22833 0.77441 0.48921 0.0
C434 C 0.19925 0.73331 0.49699 0.0
C435 C 0.16309 0.70168 0.48682 0.0
C436 C 0.15665 0.71123 0.46901 0.0
C437 C 0.18615 0.75357 0.4617 0.0
H438 H 0.46239 0.32267 0.84199 0.0
H439 H 0.36683 0.31982 0.80376 0.0
H440 H 0.34538 0.24246 0.79556 0.0
H441 H 0.50296 0.27216 0.81555 0.0
H442 H 0.51056 0.23998 0.83267 0.0
H443 H 0.51156 0.29093 0.83851 0.0
H444 H 0.44839 0.24841 0.8616 0.0
H445 H 0.44745 0.19717 0.85595 0.0
H446 H 0.39703 0.20005 0.85459 0.0
H447 H 0.34445 0.17223 0.78754 0.0
H448 H 0.36339 0.11428 0.7805 0.0
H449 H 0.45773 0.1606 0.82461 0.0
C450 C 0.43581 0.30527 0.83235 0.0
C451 C 0.41618 0.32732 0.82357 0.0
C452 C 0.38226 0.30365 0.81073 0.0
C453 C 0.3697 0.25957 0.80603 0.0
C454 C 0.39101 0.23946 0.81442 0.0
C455 C 0.423 0.26134 0.82747 0.0
C456 C 0.44466 0.23443 0.83287 0.0
C457 C 0.49541 0.26096 0.8297 0.0
C458 C 0.43371 0.2191 0.85241 0.0
C459 C 0.42167 0.19526 0.82009 0.0
C460 C 0.39021 0.19834 0.80982 0.0
C461 C 0.36804 0.16868 0.79584 0.0
C462 C 0.37894 0.1356 0.792 0.0
C463 C 0.41189 0.13239 0.80207 0.0
C464 C 0.43244 0.162 0.81662 0.0
H465 H 0.55802 0.85912 0.4979 0.0
H466 H 0.56777 0.91412 0.55101 0.0
H467 H 0.58547 0.85873 0.56345 0.0
H468 H 0.49911 0.74881 0.51133 0.0
H469 H 0.52422 0.72799 0.49575 0.0
H470 H 0.52145 0.77719 0.49041 0.0
H471 H 0.60711 0.82164 0.48582 0.0
H472 H 0.61014 0.77242 0.49121 0.0
H473 H 0.64329 0.82359 0.50353 0.0
H474 H 0.5942 0.79416 0.57057 0.0
H475 H 0.58486 0.71905 0.57277 0.0
H476 H 0.56546 0.7021 0.5153 0.0
C477 C 0.56515 0.86006 0.51205 0.0
C478 C 0.56229 0.89096 0.52355 0.0
C479 C 0.57015 0.89064 0.54207 0.0
C480 C 0.58059 0.85966 0.54919 0.0
C481 C 0.58249 0.82901 0.5376 0.0
C482 C 0.57454 0.82857 0.51945 0.0
C483 C 0.57221 0.78811 0.51043 0.0
C484 C 0.52653 0.75881 0.50146 0.0
C485 C 0.61048 0.8023 0.49695 0.0
C486 C 0.57836 0.76508 0.52646 0.0
C487 C 0.5856 0.79003 0.54188 0.0
C488 C 0.58935 0.77461 0.55857 0.0
C489 C 0.58424 0.73194 0.55966 0.0
C490 C 0.57487 0.7049 0.54417 0.0
C491 C 0.57295 0.72221 0.52732 0.0
H492 H 0.68434 0.57752 0.83548 0.0
H493 H 0.61095 0.43349 0.84225 0.0
H494 H 0.68039 0.43511 0.85082 0.0
H495 H 0.79148 0.58746 0.81957 0.0
H496 H 0.82461 0.6383 0.83208 0.0
H497 H 0.77083 0.62535 0.82351 0.0
H498 H 0.74618 0.63304 0.85544 0.0
H499 H 0.79965 0.64575 0.86412 0.0
H500 H 0.74946 0.59991 0.87331 0.0
H501 H 0.75433 0.45233 0.86162 0.0
H502 H 0.82899 0.48447 0.87509 0.0
H503 H 0.85515 0.61805 0.86267 0.0
C504 C 0.68329 0.54628 0.83826 0.0
C505 C 0.64257 0.50531 0.83806 0.0
C506 C 0.64197 0.46516 0.8423 0.0
C507 C 0.68122 0.46572 0.84707 0.0
C508 C 0.72068 0.50673 0.84761 0.0
C509 C 0.72217 0.54634 0.84334 0.0
C510 C 0.76801 0.58622 0.84694 0.0
C511 C 0.79003 0.61077 0.82948 0.0
C512 C 0.76566 0.61808 0.86078 0.0
C513 C 0.79148 0.56284 0.85446 0.0
C514 C 0.76369 0.51696 0.85439 0.0
C515 C 0.77661 0.48816 0.8616 0.0
C516 C 0.81888 0.50674 0.86934 0.0
C517 C 0.84756 0.55369 0.87 0.0
C518 C 0.83401 0.58203 0.86214 0.0
H519 H 0.10671 0.68014 0.19657 0.0
H520 H 0.14864 0.68626 0.14146 0.0
H521 H 0.21093 0.76317 0.14655 0.0
H522 H 0.14144 0.80082 0.20222 0.0
H523 H 0.16073 0.80207 0.22471 0.0
H524 H 0.11473 0.75126 0.21586 0.0
H525 H 0.15665 0.70876 0.22318 0.0
H526 H 0.20267 0.75928 0.23199 0.0
H527 H 0.21199 0.72912 0.21438 0.0
H528 H 0.27261 0.83554 0.15838 0.0
H529 H 0.33263 0.89497 0.17661 0.0
H530 H 0.25246 0.83985 0.22435 0.0
C531 C 0.12821 0.69824 0.18544 0.0
C532 C 0.12267 0.6777 0.16856 0.0
C533 C 0.1523 0.70167 0.15446 0.0
C534 C 0.18752 0.7454 0.1572 0.0
C535 C 0.19268 0.76442 0.17414 0.0
C536 C 0.16395 0.7415 0.18805 0.0
C537 C 0.18011 0.76689 0.20552 0.0
C538 C 0.14729 0.78111 0.21248 0.0
C539 C 0.18835 0.73937 0.21958 0.0
C540 C 0.22326 0.80686 0.1994 0.0
C541 C 0.22932 0.80544 0.18117 0.0
C542 C 0.26796 0.8374 0.17261 0.0
C543 C 0.30177 0.87106 0.18304 0.0
C544 C 0.29691 0.87191 0.20182 0.0
C545 C 0.25678 0.83997 0.21 0.0
H546 H 0.54258 0.18199 0.50359 0.0
H547 H 0.41331 0.08491 0.48213 0.0
H548 H 0.38866 0.14067 0.48465 0.0
H549 H 0.50502 0.22162 0.53625 0.0
H550 H 0.54896 0.27917 0.53491 0.0
H551 H 0.55924 0.23547 0.52785 0.0
H552 H 0.58407 0.27214 0.49661 0.0
H553 H 0.57421 0.3164 0.50363 0.0
H554 H 0.54738 0.28428 0.48381 0.0
H555 H 0.37449 0.20281 0.49451 0.0
H556 H 0.37286 0.26509 0.51052 0.0
H557 H 0.51157 0.31998 0.52511 0.0
C558 C 0.50946 0.17276 0.49895 0.0
C559 C 0.47983 0.12919 0.49271 0.0
C560 C 0.43668 0.11831 0.48685 0.0
C561 C 0.42243 0.14977 0.4882 0.0
C562 C 0.45204 0.19202 0.49513 0.0
C563 C 0.49493 0.20364 0.50016 0.0
C564 C 0.51887 0.24902 0.50902 0.0
C565 C 0.53385 0.24609 0.52813 0.0
C566 C 0.55847 0.28244 0.49758 0.0
C567 C 0.48202 0.26017 0.50916 0.0
C568 C 0.44393 0.22751 0.50078 0.0
C569 C 0.40441 0.22904 0.50076 0.0
C570 C 0.4037 0.26436 0.50986 0.0
C571 C 0.44206 0.29692 0.51902 0.0
C572 C 0.48183 0.29535 0.51818 0.0
H573 H 0.37844 0.57057 0.83132 0.0
H574 H 0.30043 0.4297 0.81795 0.0
H575 H 0.23096 0.43275 0.82213 0.0
H576 H 0.31584 0.57064 0.86571 0.0
H577 H 0.32096 0.62426 0.86132 0.0
H578 H 0.36375 0.61313 0.8539 0.0
H579 H 0.3546 0.63255 0.82135 0.0
H580 H 0.312 0.64443 0.82865 0.0
H581 H 0.30032 0.60439 0.81098 0.0
H582 H 0.17152 0.44854 0.83332 0.0
H583 H 0.127 0.47594 0.84885 0.0
H584 H 0.24455 0.60775 0.85329 0.0
C585 C 0.3467 0.54062 0.82881 0.0
C586 C 0.34446 0.49985 0.82439 0.0
C587 C 0.3026 0.46129 0.82121 0.0
C588 C 0.26312 0.46279 0.82356 0.0
C589 C 0.2665 0.50333 0.82864 0.0
C590 C 0.30736 0.54176 0.83086 0.0
C591 C 0.30243 0.58015 0.83785 0.0
C592 C 0.32719 0.59804 0.85575 0.0
C593 C 0.31826 0.61758 0.82387 0.0
C594 C 0.2525 0.5567 0.84028 0.0
C595 C 0.2322 0.51263 0.83465 0.0
C596 C 0.18685 0.48329 0.83729 0.0
C597 C 0.1618 0.49925 0.8461 0.0
C598 C 0.1822 0.54414 0.85224 0.0
C599 C 0.22793 0.57327 0.84884 0.0
H600 H 0.89235 0.33434 0.18844 0.0
H601 H 0.84688 0.34918 0.13621 0.0
H602 H 0.77602 0.2785 0.14073 0.0
H603 H 0.83545 0.20954 0.18861 0.0
H604 H 0.82227 0.20721 0.21206 0.0
H605 H 0.87221 0.25435 0.20336 0.0
H606 H 0.84718 0.30801 0.21626 0.0
H607 H 0.79716 0.2612 0.22487 0.0
H608 H 0.79351 0.30029 0.21007 0.0
H609 H 0.70723 0.21159 0.15238 0.0
H610 H 0.64535 0.15415 0.17038 0.0
H611 H 0.73512 0.18561 0.21548 0.0
C612 C 0.86813 0.32202 0.17769 0.0
C613 C 0.87528 0.34701 0.1619 0.0
C614 C 0.84217 0.33041 0.14838 0.0
C615 C 0.80191 0.29024 0.1508 0.0
C616 C 0.79537 0.26715 0.16679 0.0
C617 C 0.82766 0.28236 0.17998 0.0
C618 C 0.81065 0.25421 0.19671 0.0
C619 C 0.83669 0.22988 0.20039 0.0
C620 C 0.81221 0.28263 0.21292 0.0
C621 C 0.76323 0.22174 0.19111 0.0
C622 C 0.75529 0.22921 0.1737 0.0
C623 C 0.71319 0.2051 0.16595 0.0
C624 C 0.67818 0.17285 0.17633 0.0
C625 C 0.68538 0.16541 0.19435 0.0
C626 C 0.7287 0.18982 0.20166 0.0
H627 H 0.07701 0.57592 0.08988 0.0
H628 H 0.97115 0.43726 0.09171 0.0
H629 H 0.97468 0.43199 0.0589 0.0
H630 H 0.03663 0.60321 0.052 0.0
H631 H 0.09045 0.64112 0.04253 0.0
H632 H 0.08467 0.63248 0.06632 0.0
H633 H 0.14567 0.61006 0.06596 0.0
H634 H 0.15159 0.6186 0.0421 0.0
H635 H 0.13944 0.5656 0.05138 0.0
H636 H 0.98533 0.44255 0.02626 0.0
H637 H -0.0017 0.46982 0.99522 0.0
H638 H 0.09434 0.60313 0.01388 0.0
C639 C 0.05538 0.54425 0.08335 0.0
C640 C 0.02412 0.50682 0.09326 0.0
C641 C -0.00462 0.46624 0.08431 0.0
C642 C -0.00265 0.46284 0.06571 0.0
C643 C 0.02799 0.50046 0.05626 0.0
C644 C 0.05633 0.54052 0.0647 0.0
C645 C 0.08267 0.57705 0.05116 0.0
C646 C 0.073 0.61573 0.05312 0.0
C647 C 0.13282 0.5938 0.05275 0.0
C648 C 0.0638 0.55146 0.03384 0.0
C649 C 0.03299 0.50713 0.03716 0.0
C650 C 0.00951 0.47712 0.02346 0.0
C651 C 0.01689 0.49301 0.00589 0.0
C652 C 0.04703 0.53865 0.00216 0.0
C653 C 0.07152 0.56798 0.01632 0.0
H654 H 0.49249 0.01618 0.42737 0.0
H655 H 0.55816 0.93935 0.43712 0.0
H656 H 0.56308 0.93038 0.4045 0.0
H657 H 0.42851 0.95433 0.38865 0.0
H658 H 0.43593 0.00356 0.37733 0.0
H659 H 0.43565 0.00186 0.40141 0.0
H660 H 0.51301 0.07421 0.40211 0.0
H661 H 0.51362 0.07605 0.37804 0.0
H662 H 0.55881 0.07601 0.38992 0.0
H663 H 0.56066 0.92988 0.37077 0.0
H664 H 0.55433 0.94107 0.33843 0.0
H665 H 0.4934 0.02098 0.35105 0.0
C666 C 0.5075 0.99706 0.42267 0.0
C667 C 0.52468 0.97819 0.43477 0.0
C668 C 0.54476 0.95406 0.42807 0.0
C669 C 0.5476 0.94871 0.40959 0.0
C670 C 0.53058 0.96802 0.39803 0.0
C671 C 0.51115 0.99192 0.40431 0.0
C672 C 0.49708 0.01093 0.38912 0.0
C673 C 0.44628 0.99149 0.38913 0.0
C674 C 0.52214 0.06235 0.38985 0.0
C675 C 0.51176 0.99412 0.37328 0.0
C676 C 0.53059 0.96905 0.37868 0.0
C677 C 0.54607 0.94953 0.36639 0.0
C678 C 0.54226 0.95594 0.3481 0.0
C679 C 0.52366 0.98207 0.34235 0.0
C680 C 0.50826 0.00132 0.35513 0.0
H681 H 0.44997 0.44293 0.75478 0.0
H682 H 0.57359 0.5694 0.76067 0.0
H683 H 0.58078 0.57624 0.72786 0.0
H684 H 0.48547 0.40445 0.71572 0.0
H685 H 0.43102 0.37821 0.70552 0.0
H686 H 0.43627 0.38234 0.72953 0.0
H687 H 0.39022 0.42261 0.73043 0.0
H688 H 0.38497 0.41876 0.70644 0.0
H689 H 0.40814 0.47246 0.71734 0.0
H690 H 0.57176 0.57258 0.69478 0.0
H691 H 0.54958 0.55569 0.66299 0.0
H692 H 0.43423 0.4299 0.67824 0.0
C693 C 0.4787 0.47192 0.74916 0.0
C694 C 0.51117 0.50571 0.76027 0.0
C695 C 0.5484 0.54301 0.75242 0.0
C696 C 0.55275 0.54726 0.7338 0.0
C697 C 0.51994 0.51363 0.72325 0.0
C698 C 0.48391 0.4764 0.73059 0.0
C699 C 0.45327 0.44524 0.71618 0.0
C700 C 0.45142 0.39988 0.71677 0.0
C701 C 0.40638 0.43945 0.71769 0.0
C702 C 0.47723 0.4713 0.6996 0.0
C703 C 0.51556 0.51072 0.70402 0.0
C704 C 0.54219 0.54158 0.69111 0.0
C705 C 0.52933 0.53186 0.67318 0.0
C706 C 0.49053 0.49152 0.66838 0.0
C707 C 0.46432 0.4607 0.6817 0.0
H708 H 0.47089 0.9778 0.57813 0.0
H709 H 0.57955 0.11231 0.56759 0.0
H710 H 0.58736 0.1283 0.59997 0.0
H711 H 0.4228 0.00787 0.61548 0.0
H712 H 0.40828 0.95748 0.62767 0.0
H713 H 0.40986 0.9573 0.60358 0.0
H714 H 0.46548 0.92792 0.60458 0.0
H715 H 0.46433 0.92831 0.62866 0.0
H716 H 0.51671 0.95873 0.617 0.0
H717 H 0.58671 0.12818 0.63347 0.0
H718 H 0.57553 0.11306 0.6658 0.0
H719 H 0.46521 0.97972 0.65453 0.0
C720 C 0.49607 0.01078 0.58258 0.0
C721 C 0.52463 0.04377 0.57027 0.0
C722 C 0.55719 0.08647 0.57672 0.0
C723 C 0.56195 0.0959 0.5951 0.0
C724 C 0.53369 0.06243 0.60686 0.0
C725 C 0.50114 0.02087 0.60087 0.0
C726 C 0.47562 0.99056 0.61635 0.0
C727 C 0.42621 0.97755 0.61573 0.0
C728 C 0.48087 0.94893 0.61666 0.0
C729 C 0.49943 0.02137 0.63198 0.0
C730 C 0.53276 0.06267 0.62621 0.0
C731 C 0.56028 0.09618 0.63816 0.0
C732 C 0.55346 0.08732 0.65653 0.0
C733 C 0.51921 0.04531 0.66281 0.0
C734 C 0.49188 0.01206 0.65026 0.0
H735 H 0.48286 0.43885 0.90268 0.0
H736 H 0.47707 0.56122 0.89838 0.0
H737 H 0.47283 0.56447 0.93115 0.0
H738 H 0.40518 0.39198 0.93917 0.0
H739 H 0.43468 0.36789 0.94994 0.0
H740 H 0.43809 0.37527 0.92604 0.0
H741 H 0.52429 0.42127 0.92812 0.0
H742 H 0.52114 0.41412 0.95204 0.0
H743 H 0.55031 0.46951 0.94263 0.0
H744 H 0.47005 0.55554 0.96406 0.0
H745 H 0.46639 0.5335 0.99554 0.0
H746 H 0.47129 0.41543 0.97892 0.0
C747 C 0.4808 0.46638 0.90863 0.0
C748 C 0.48037 0.49982 0.89792 0.0
C749 C 0.47739 0.53515 0.90625 0.0
C750 C 0.47507 0.53739 0.92487 0.0
C751 C 0.47559 0.504 0.93501 0.0
C752 C 0.4782 0.46905 0.92725 0.0
C753 C 0.47741 0.43718 0.94132 0.0
C754 C 0.43639 0.39031 0.93897 0.0
C755 C 0.52088 0.43544 0.941 0.0
C756 C 0.47394 0.45978 0.95817 0.0
C757 C 0.47313 0.49835 0.95416 0.0
C758 C 0.4703 0.52523 0.96739 0.0
C759 C 0.46789 0.5122 0.98523 0.0
C760 C 0.46796 0.47241 0.98972 0.0
C761 C 0.47135 0.4461 0.97595 0.0
H762 H 0.01258 0.56801 0.2366 0.0
H763 H 0.95143 0.42437 0.22962 0.0
H764 H 0.93748 0.41385 0.26209 0.0
H765 H 0.06907 0.57292 0.27754 0.0
H766 H 0.06162 0.61641 0.28741 0.0
H767 H 0.06471 0.61278 0.26346 0.0
H768 H 0.98849 0.60906 0.26027 0.0
H769 H 0.98512 0.61258 0.28423 0.0
H770 H 0.94073 0.56662 0.27215 0.0
H771 H 0.9292 0.4184 0.29489 0.0
H772 H 0.93279 0.43814 0.32685 0.0
H773 H 0.00324 0.57904 0.31322 0.0
C774 C -0.00399 0.53439 0.24194 0.0
C775 C 0.98285 0.49695 0.23065 0.0
C776 C 0.96188 0.45348 0.23808 0.0
C777 C 0.95362 0.44715 0.25647 0.0
C778 C 0.96706 0.48468 0.26726 0.0
C779 C 0.98826 0.52749 0.26036 0.0
C780 C 0.00129 0.5621 0.27511 0.0
C781 C 0.0522 0.59286 0.27592 0.0
C782 C 0.97747 0.58918 0.2728 0.0
C783 C 0.98401 0.53195 0.29134 0.0
C784 C 0.96388 0.48742 0.28643 0.0
C785 C 0.9449 0.45313 0.29894 0.0
C786 C 0.94689 0.46463 0.31701 0.0
C787 C 0.96813 0.51002 0.32241 0.0
C788 C 0.98692 0.5441 0.3094 0.0
loop_
_geom_bond_atom_site_label_1
_geom_bond_atom_site_label_2
_geom_bond_distance
_geom_bond_site_symmetry_2
_ccdc_geom_bond_type
O0 Zn1 1.955 1_655 S
O0 C16 1.225 1_655 S
Zn1 O0 1.955 1_455 S
Zn1 O2 1.959 . S
Zn1 O8 1.901 1_455 S
Zn1 O13 1.932 . S
O2 Zn1 1.959 . S
O2 Zn3 1.923 1_455 S
O2 Zn4 1.950 . S
O2 Zn5 1.945 . S
Zn3 O2 1.923 1_655 S
Zn3 O6 1.933 . S
Zn3 O9 1.941 . S
Zn3 O10 1.965 . S
Zn4 O2 1.950 . S
Zn4 O11 1.938 1_455 S
Zn4 O12 1.906 . S
Zn4 O22 1.953 . S
Zn5 O2 1.945 . S
Zn5 O7 1.932 . S
Zn5 O14 1.977 . S
Zn5 O15 1.910 . S
O6 Zn3 1.933 . S
O6 C17 1.226 1_655 S
O7 Zn5 1.932 . S
O7 C17 1.307 . S
O8 Zn1 1.901 1_655 S
O8 C19 1.253 . S
O9 Zn3 1.941 . S
O9 C19 1.283 . S
O10 Zn3 1.965 . S
O10 C18 1.303 . S
O11 Zn4 1.938 1_655 S
O11 C18 1.247 . S
O12 Zn4 1.906 . S
O12 C20 1.304 . S
O13 Zn1 1.932 . S
O13 C21 1.311 . S
O14 Zn5 1.977 . S
O14 C20 1.272 . S
O15 Zn5 1.910 . S
O15 C21 1.231 . S
C16 O0 1.225 1_455 S
C16 O22 1.298 . S
C17 O6 1.226 1_455 S
C17 O7 1.307 . S
C18 O10 1.303 . S
C18 O11 1.247 . S
C19 O8 1.253 . S
C19 O9 1.283 . S
C20 O12 1.304 . S
C20 O14 1.272 . S
C21 O13 1.311 . S
C21 O15 1.231 . S
O22 Zn4 1.953 . S
O22 C16 1.298 . S
O23 Zn24 1.953 . S
O23 C39 1.225 . S
Zn24 O23 1.953 . S
Zn24 O25 1.949 . S
Zn24 O31 1.919 . S
Zn24 O36 1.924 1_545 S
O25 Zn24 1.949 . S
O25 Zn26 1.923 . S
O25 Zn27 1.952 . S
O25 Zn28 1.945 1_545 S
Zn26 O25 1.923 . S
Zn26 O29 1.933 . S
Zn26 O32 1.941 . S
Zn26 O33 1.965 . S
Zn27 O25 1.952 . S
Zn27 O34 1.940 . S
Zn27 O35 1.903 1_545 S
Zn27 O45 1.954 1_545 S
Zn28 O25 1.945 1_565 S
Zn28 O30 1.932 . S
Zn28 O37 1.977 . S
Zn28 O38 1.910 . S
O29 Zn26 1.933 . S
O29 C40 1.226 . S
O30 Zn28 1.932 . S
O30 C40 1.307 1_565 S
O31 Zn24 1.919 . S
O31 C42 1.253 . S
O32 Zn26 1.941 . S
O32 C42 1.283 . S
O33 Zn26 1.965 . S
O33 C41 1.303 . S
O34 Zn27 1.940 . S
O34 C41 1.247 . S
O35 Zn27 1.903 1_565 S
O35 C43 1.304 . S
O36 Zn24 1.924 1_565 S
O36 C44 1.311 . S
O37 Zn28 1.977 . S
O37 C43 1.272 . S
O38 Zn28 1.910 . S
O38 C44 1.231 . S
C39 O23 1.225 . S
C39 O45 1.298 1_545 S
C40 O29 1.226 . S
C40 O30 1.307 1_545 S
C41 O33 1.303 . S
C41 O34 1.247 . S
C42 O31 1.253 . S
C42 O32 1.283 . S
C43 O35 1.304 . S
C43 O37 1.272 . S
C44 O36 1.311 . S
C44 O38 1.231 . S
O45 Zn27 1.954 1_565 S
O45 C39 1.298 1_565 S
O46 Zn47 1.953 . S
O46 C62 1.225 . S
Zn47 O46 1.953 . S
Zn47 O48 1.949 . S
Zn47 O54 1.919 . S
Zn47 O59 1.924 . S
O48 Zn47 1.949 . S
O48 Zn49 1.923 . S
O48 Zn50 1.950 . S
O48 Zn51 1.945 . S
Zn49 O48 1.923 . S
Zn49 O52 1.933 . S
Zn49 O55 1.941 . S
Zn49 O56 1.965 . S
Zn50 O48 1.950 . S
Zn50 O57 1.938 . S
Zn50 O58 1.906 . S
Zn50 O68 1.953 . S
Zn51 O48 1.945 . S
Zn51 O53 1.932 . S
Zn51 O60 1.977 . S
Zn51 O61 1.910 . S
O52 Zn49 1.933 . S
O52 C63 1.226 . S
O53 Zn51 1.932 . S
O53 C63 1.307 . S
O54 Zn47 1.919 . S
O54 C65 1.253 . S
O55 Zn49 1.941 . S
O55 C65 1.283 . S
O56 Zn49 1.965 . S
O56 C64 1.303 . S
O57 Zn50 1.938 . S
O57 C64 1.247 . S
O58 Zn50 1.906 . S
O58 C66 1.304 . S
O59 Zn47 1.924 . S
O59 C67 1.311 . S
O60 Zn51 1.977 . S
O60 C66 1.272 . S
O61 Zn51 1.910 . S
O61 C67 1.231 . S
C62 O46 1.225 . S
C62 O68 1.298 . S
C63 O52 1.226 . S
C63 O53 1.307 . S
C64 O56 1.303 . S
C64 O57 1.247 . S
C65 O54 1.253 . S
C65 O55 1.283 . S
C66 O58 1.304 . S
C66 O60 1.272 . S
C67 O59 1.311 . S
C67 O61 1.231 . S
O68 Zn50 1.953 . S
O68 C62 1.298 . S
C69 C70 1.386 . S
C69 C71 1.397 . S
C69 H93 0.931 . S
C70 C69 1.386 . S
C70 C74 1.397 1_545 S
C71 C69 1.397 . S
C71 C72 1.384 . S
C71 H94 0.930 . S
C72 C71 1.384 . S
C72 C73 1.377 1_545 S
C72 C75 1.481 . S
C73 C72 1.377 1_565 S
C73 C74 1.389 . S
C73 H95 0.929 . S
C74 C70 1.397 1_565 S
C74 C73 1.389 . S
C74 H96 0.931 . S
C75 C72 1.481 . S
C75 C76 1.387 . S
C75 C80 1.390 1_545 S
C76 C75 1.387 . S
C76 C77 1.401 . S
C76 H97 0.930 . S
C77 C76 1.401 . S
C77 C78 1.376 . S
C77 C86 1.511 . S
C78 C77 1.376 . S
C78 C79 1.392 1_545 S
C78 H99 0.931 . S
C79 C78 1.392 1_565 S
C79 C80 1.361 . S
C79 C81 1.500 . S
C80 C75 1.390 1_565 S
C80 C79 1.361 . S
C80 H98 0.931 . S
C81 C79 1.500 . S
C81 C82 1.371 . S
C81 C83 1.365 . S
C82 C81 1.371 . S
C82 C92 1.386 . S
C82 H100 0.931 . S
C83 C81 1.365 . S
C83 C84 1.409 . S
C83 H101 0.929 . S
C84 C83 1.409 . S
C84 C85 1.380 . S
C84 H102 0.930 . S
C85 C84 1.380 . S
C85 C92 1.357 . S
C86 C77 1.511 . S
C86 C87 1.341 . S
C86 C88 1.371 . S
C87 C86 1.341 . S
C87 C91 1.394 . S
C87 H103 0.930 . S
C88 C86 1.371 . S
C88 C89 1.392 . S
C88 H104 0.931 . S
C89 C88 1.392 . S
C89 C90 1.331 . S
C89 H107 0.932 . S
C90 C89 1.331 . S
C90 C91 1.336 . S
C91 C87 1.394 . S
C91 C90 1.336 . S
C91 H106 0.929 . S
C92 C82 1.386 . S
C92 C85 1.357 . S
C92 H105 0.928 . S
H93 C69 0.931 . S
H94 C71 0.930 . S
H95 C73 0.929 . S
H96 C74 0.931 . S
H97 C76 0.930 . S
H98 C80 0.931 . S
H99 C78 0.931 . S
H100 C82 0.931 . S
H101 C83 0.929 . S
H102 C84 0.930 . S
H103 C87 0.930 . S
H104 C88 0.931 . S
H105 C92 0.928 . S
H106 C91 0.929 . S
H107 C89 0.932 . S
C108 C109 1.386 . S
C108 C110 1.397 . S
C108 H132 0.931 . S
C109 C108 1.386 . S
C109 C113 1.397 . S
C110 C108 1.397 . S
C110 C111 1.384 . S
C110 H133 0.930 . S
C111 C110 1.384 . S
C111 C112 1.377 . S
C111 C114 1.481 . S
C112 C111 1.377 . S
C112 C113 1.389 . S
C112 H134 0.929 . S
C113 C109 1.397 . S
C113 C112 1.389 . S
C113 H135 0.931 . S
C114 C111 1.481 . S
C114 C115 1.387 . S
C114 C119 1.390 . S
C115 C114 1.387 . S
C115 C116 1.401 . S
C115 H136 0.930 . S
C116 C115 1.401 . S
C116 C117 1.376 . S
C116 C125 1.511 . S
C117 C116 1.376 . S
C117 C118 1.392 . S
C117 H138 0.931 . S
C118 C117 1.392 . S
C118 C119 1.361 . S
C118 C120 1.500 . S
C119 C114 1.390 . S
C119 C118 1.361 . S
C119 H137 0.931 . S
C120 C118 1.500 . S
C120 C121 1.371 . S
C120 C122 1.365 . S
C121 C120 1.371 . S
C121 C131 1.386 . S
C121 H139 0.931 . S
C122 C120 1.365 . S
C122 C123 1.409 . S
C122 H140 0.929 . S
C123 C122 1.409 . S
C123 C124 1.380 . S
C123 H141 0.930 . S
C124 C123 1.380 . S
C124 C131 1.357 . S
C125 C116 1.511 . S
C125 C126 1.341 . S
C125 C127 1.371 . S
C126 C125 1.341 . S
C126 C130 1.394 . S
C126 H142 0.930 . S
C127 C125 1.371 . S
C127 C128 1.392 . S
C127 H143 0.931 . S
C128 C127 1.392 . S
C128 C129 1.331 . S
C128 H146 0.932 . S
C129 C128 1.331 . S
C129 C130 1.336 . S
C130 C126 1.394 . S
C130 C129 1.336 . S
C130 H145 0.929 . S
C131 C121 1.386 . S
C131 C124 1.357 . S
C131 H144 0.928 . S
H132 C108 0.931 . S
H133 C110 0.930 . S
H134 C112 0.929 . S
H135 C113 0.931 . S
H136 C115 0.930 . S
H137 C119 0.931 . S
H138 C117 0.931 . S
H139 C121 0.931 . S
H140 C122 0.929 . S
H141 C123 0.930 . S
H142 C126 0.930 . S
H143 C127 0.931 . S
H144 C131 0.928 . S
H145 C130 0.929 . S
H146 C128 0.932 . S
C147 C148 1.386 . S
C147 C149 1.397 . S
C147 H171 0.931 . S
C148 C147 1.386 . S
C148 C152 1.397 1_455 S
C149 C147 1.397 . S
C149 C150 1.384 . S
C149 H172 0.930 . S
C150 C149 1.384 . S
C150 C151 1.377 1_455 S
C150 C153 1.481 . S
C151 C150 1.377 1_655 S
C151 C152 1.389 . S
C151 H173 0.929 . S
C152 C148 1.397 1_655 S
C152 C151 1.389 . S
C152 H174 0.931 . S
C153 C150 1.481 . S
C153 C154 1.387 . S
C153 C158 1.390 1_455 S
C154 C153 1.387 . S
C154 C155 1.401 . S
C154 H175 0.930 . S
C155 C154 1.401 . S
C155 C156 1.376 . S
C155 C164 1.511 . S
C156 C155 1.376 . S
C156 C157 1.392 1_455 S
C156 H177 0.931 . S
C157 C156 1.392 1_655 S
C157 C158 1.361 . S
C157 C159 1.500 . S
C158 C153 1.390 1_655 S
C158 C157 1.361 . S
C158 H176 0.931 . S
C159 C157 1.500 . S
C159 C160 1.371 . S
C159 C161 1.365 . S
C160 C159 1.371 . S
C160 C170 1.386 . S
C160 H178 0.931 . S
C161 C159 1.365 . S
C161 C162 1.409 . S
C161 H179 0.929 . S
C162 C161 1.409 . S
C162 C163 1.380 . S
C162 H180 0.930 . S
C163 C162 1.380 . S
C163 C170 1.357 . S
C164 C155 1.511 . S
C164 C165 1.341 . S
C164 C166 1.371 . S
C165 C164 1.341 . S
C165 C169 1.394 . S
C165 H181 0.930 . S
C166 C164 1.371 . S
C166 C167 1.392 . S
C166 H182 0.931 . S
C167 C166 1.392 . S
C167 C168 1.331 . S
C167 H185 0.932 . S
C168 C167 1.331 . S
C168 C169 1.336 . S
C169 C165 1.394 . S
C169 C168 1.336 . S
C169 H184 0.929 . S
C170 C160 1.386 . S
C170 C163 1.357 . S
C170 H183 0.928 . S
H171 C147 0.931 . S
H172 C149 0.930 . S
H173 C151 0.929 . S
H174 C152 0.931 . S
H175 C154 0.930 . S
H176 C158 0.931 . S
H177 C156 0.931 . S
H178 C160 0.931 . S
H179 C161 0.929 . S
H180 C162 0.930 . S
H181 C165 0.930 . S
H182 C166 0.931 . S
H183 C170 0.928 . S
H184 C169 0.929 . S
H185 C167 0.932 . S
C186 C187 1.386 1_655 S
C186 C188 1.397 . S
C186 H210 0.931 . S
C187 C186 1.386 1_455 S
C187 C191 1.397 . S
C188 C186 1.397 . S
C188 C189 1.384 1_655 S
C188 H211 0.930 . S
C189 C188 1.384 1_455 S
C189 C190 1.377 . S
C189 C192 1.481 . S
C190 C189 1.377 . S
C190 C191 1.389 . S
C190 H212 0.929 . S
C191 C187 1.397 . S
C191 C190 1.389 . S
C191 H213 0.931 . S
C192 C189 1.481 . S
C192 C193 1.387 1_455 S
C192 C197 1.390 . S
C193 C192 1.387 1_655 S
C193 C194 1.401 . S
C193 H214 0.930 . S
C194 C193 1.401 . S
C194 C195 1.376 1_655 S
C194 C203 1.511 . S
C195 C194 1.376 1_455 S
C195 C196 1.392 . S
C195 H216 0.931 . S
C196 C195 1.392 . S
C196 C197 1.361 . S
C196 C198 1.500 . S
C197 C192 1.390 . S
C197 C196 1.361 . S
C197 H215 0.931 . S
C198 C196 1.500 . S
C198 C199 1.371 . S
C198 C200 1.365 . S
C199 C198 1.371 . S
C199 C209 1.386 . S
C199 H217 0.931 . S
C200 C198 1.365 . S
C200 C201 1.409 . S
C200 H218 0.929 . S
C201 C200 1.409 . S
C201 C202 1.380 . S
C201 H219 0.930 . S
C202 C201 1.380 . S
C202 C209 1.357 . S
C203 C194 1.511 . S
C203 C204 1.341 . S
C203 C205 1.371 . S
C204 C203 1.341 . S
C204 C208 1.394 . S
C204 H220 0.930 . S
C205 C203 1.371 . S
C205 C206 1.392 . S
C205 H221 0.931 . S
C206 C205 1.392 . S
C206 C207 1.331 . S
C206 H224 0.932 . S
C207 C206 1.331 . S
C207 C208 1.336 . S
C208 C204 1.394 . S
C208 C207 1.336 . S
C208 H223 0.929 . S
C209 C199 1.386 . S
C209 C202 1.357 . S
C209 H222 0.928 . S
H210 C186 0.931 . S
H211 C188 0.930 . S
H212 C190 0.929 . S
H213 C191 0.931 . S
H214 C193 0.930 . S
H215 C197 0.931 . S
H216 C195 0.931 . S
H217 C199 0.931 . S
H218 C200 0.929 . S
H219 C201 0.930 . S
H220 C204 0.930 . S
H221 C205 0.931 . S
H222 C209 0.928 . S
H223 C208 0.929 . S
H224 C206 0.932 . S
C225 C226 1.386 1_565 S
C225 C227 1.397 . S
C225 H249 0.931 . S
C226 C225 1.386 1_545 S
C226 C230 1.397 . S
C227 C225 1.397 . S
C227 C228 1.384 1_565 S
C227 H250 0.930 . S
C228 C227 1.384 1_545 S
C228 C229 1.377 . S
C228 C231 1.481 . S
C229 C228 1.377 . S
C229 C230 1.389 . S
C229 H251 0.929 . S
C230 C226 1.397 . S
C230 C229 1.389 . S
C230 H252 0.931 . S
C231 C228 1.481 . S
C231 C232 1.387 1_545 S
C231 C236 1.390 . S
C232 C231 1.387 1_565 S
C232 C233 1.401 . S
C232 H253 0.930 . S
C233 C232 1.401 . S
C233 C234 1.376 1_565 S
C233 C242 1.511 . S
C234 C233 1.376 1_545 S
C234 C235 1.392 . S
C234 H255 0.931 . S
C235 C234 1.392 . S
C235 C236 1.361 . S
C235 C237 1.500 . S
C236 C231 1.390 . S
C236 C235 1.361 . S
C236 H254 0.931 . S
C237 C235 1.500 . S
C237 C238 1.371 . S
C237 C239 1.365 . S
C238 C237 1.371 . S
C238 C248 1.386 . S
C238 H256 0.931 . S
C239 C237 1.365 . S
C239 C240 1.409 . S
C239 H257 0.929 . S
C240 C239 1.409 . S
C240 C241 1.380 . S
C240 H258 0.930 . S
C241 C240 1.380 . S
C241 C248 1.357 . S
C242 C233 1.511 . S
C242 C243 1.341 . S
C242 C244 1.371 . S
C243 C242 1.341 . S
C243 C247 1.394 . S
C243 H259 0.930 . S
C244 C242 1.371 . S
C244 C245 1.392 . S
C244 H260 0.931 . S
C245 C244 1.392 . S
C245 C246 1.331 . S
C245 H263 0.932 . S
C246 C245 1.331 . S
C246 C247 1.336 . S
C247 C243 1.394 . S
C247 C246 1.336 . S
C247 H262 0.929 . S
C248 C238 1.386 . S
C248 C241 1.357 . S
C248 H261 0.928 . S
H249 C225 0.931 . S
H250 C227 0.930 . S
H251 C229 0.929 . S
H252 C230 0.931 . S
H253 C232 0.930 . S
H254 C236 0.931 . S
H255 C234 0.931 . S
H256 C238 0.931 . S
H257 C239 0.929 . S
H258 C240 0.930 . S
H259 C243 0.930 . S
H260 C244 0.931 . S
H261 C248 0.928 . S
H262 C247 0.929 . S
H263 C245 0.932 . S
C264 C265 1.386 . S
C264 C266 1.397 . S
C264 H288 0.931 . S
C265 C264 1.386 . S
C265 C269 1.397 . S
C266 C264 1.397 . S
C266 C267 1.384 . S
C266 H289 0.930 . S
C267 C266 1.384 . S
C267 C268 1.377 . S
C267 C270 1.481 . S
C268 C267 1.377 . S
C268 C269 1.389 . S
C268 H290 0.929 . S
C269 C265 1.397 . S
C269 C268 1.389 . S
C269 H291 0.931 . S
C270 C267 1.481 . S
C270 C271 1.387 . S
C270 C275 1.390 . S
C271 C270 1.387 . S
C271 C272 1.401 . S
C271 H292 0.930 . S
C272 C271 1.401 . S
C272 C273 1.376 . S
C272 C281 1.511 . S
C273 C272 1.376 . S
C273 C274 1.392 . S
C273 H294 0.931 . S
C274 C273 1.392 . S
C274 C275 1.361 . S
C274 C276 1.500 . S
C275 C270 1.390 . S
C275 C274 1.361 . S
C275 H293 0.931 . S
C276 C274 1.500 . S
C276 C277 1.371 . S
C276 C278 1.365 . S
C277 C276 1.371 . S
C277 C287 1.386 . S
C277 H295 0.931 . S
C278 C276 1.365 . S
C278 C279 1.409 . S
C278 H296 0.929 . S
C279 C278 1.409 . S
C279 C280 1.380 . S
C279 H297 0.930 . S
C280 C279 1.380 . S
C280 C287 1.357 . S
C281 C272 1.511 . S
C281 C282 1.341 . S
C281 C283 1.371 . S
C282 C281 1.341 . S
C282 C286 1.394 . S
C282 H298 0.930 . S
C283 C281 1.371 . S
C283 C284 1.392 . S
C283 H299 0.931 . S
C284 C283 1.392 . S
C284 C285 1.331 . S
C284 H302 0.932 . S
C285 C284 1.331 . S
C285 C286 1.336 . S
C286 C282 1.394 . S
C286 C285 1.336 . S
C286 H301 0.929 . S
C287 C277 1.386 . S
C287 C280 1.357 . S
C287 H300 0.928 . S
H288 C264 0.931 . S
H289 C266 0.930 . S
H290 C268 0.929 . S
H291 C269 0.931 . S
H292 C271 0.930 . S
H293 C275 0.931 . S
H294 C273 0.931 . S
H295 C277 0.931 . S
H296 C278 0.929 . S
H297 C279 0.930 . S
H298 C282 0.930 . S
H299 C283 0.931 . S
H300 C287 0.928 . S
H301 C286 0.929 . S
H302 C284 0.932 . S
H303 C315 0.930 . S
H304 C317 0.930 . S
H305 C318 0.930 . S
H306 C322 0.959 . S
H307 C322 0.959 . S
H308 C322 0.961 . S
H309 C323 0.960 . S
H310 C323 0.961 . S
H311 C323 0.959 . S
H312 C326 0.929 . S
H313 C327 0.931 . S
H314 C329 0.930 . S
C315 H303 0.930 . S
C315 C316 1.399 . S
C315 C320 1.399 . S
C316 C315 1.399 . S
C316 C317 1.376 . S
C317 H304 0.930 . S
C317 C316 1.376 . S
C317 C318 1.388 . S
C318 H305 0.930 . S
C318 C317 1.388 . S
C318 C319 1.390 . S
C319 C318 1.390 . S
C319 C320 1.394 . S
C319 C325 1.465 . S
C320 C315 1.399 . S
C320 C319 1.394 . S
C320 C321 1.516 . S
C321 C320 1.516 . S
C321 C322 1.502 . S
C321 C323 1.561 . S
C321 C324 1.526 . S
C322 H306 0.959 . S
C322 H307 0.959 . S
C322 H308 0.961 . S
C322 C321 1.502 . S
C323 H309 0.960 . S
C323 H310 0.961 . S
C323 H311 0.959 . S
C323 C321 1.561 . S
C324 C321 1.526 . S
C324 C325 1.396 . S
C324 C329 1.390 . S
C325 C319 1.465 . S
C325 C324 1.396 . S
C325 C326 1.399 . S
C326 H312 0.929 . S
C326 C325 1.399 . S
C326 C327 1.385 . S
C327 H313 0.931 . S
C327 C326 1.385 . S
C327 C328 1.389 . S
C328 C327 1.389 . S
C328 C329 1.387 . S
C329 H314 0.930 . S
C329 C324 1.390 . S
C329 C328 1.387 . S
H330 C342 0.930 . S
H331 C344 0.930 . S
H332 C345 0.930 . S
H333 C349 0.959 . S
H334 C349 0.959 . S
H335 C349 0.961 . S
H336 C350 0.960 . S
H337 C350 0.961 . S
H338 C350 0.959 . S
H339 C353 0.929 . S
H340 C354 0.931 . S
H341 C356 0.930 . S
C342 H330 0.930 . S
C342 C343 1.399 . S
C342 C347 1.399 . S
C343 C342 1.399 . S
C343 C344 1.376 . S
C344 H331 0.930 . S
C344 C343 1.376 . S
C344 C345 1.388 . S
C345 H332 0.930 . S
C345 C344 1.388 . S
C345 C346 1.390 . S
C346 C345 1.390 . S
C346 C347 1.394 . S
C346 C352 1.465 . S
C347 C342 1.399 . S
C347 C346 1.394 . S
C347 C348 1.516 . S
C348 C347 1.516 . S
C348 C349 1.502 . S
C348 C350 1.561 . S
C348 C351 1.526 . S
C349 H333 0.959 . S
C349 H334 0.959 . S
C349 H335 0.961 . S
C349 C348 1.502 . S
C350 H336 0.960 . S
C350 H337 0.961 . S
C350 H338 0.959 . S
C350 C348 1.561 . S
C351 C348 1.526 . S
C351 C352 1.396 . S
C351 C356 1.390 . S
C352 C346 1.465 . S
C352 C351 1.396 . S
C352 C353 1.399 . S
C353 H339 0.929 . S
C353 C352 1.399 . S
C353 C354 1.385 . S
C354 H340 0.931 . S
C354 C353 1.385 . S
C354 C355 1.389 . S
C355 C354 1.389 . S
C355 C356 1.387 . S
C356 H341 0.930 . S
C356 C351 1.390 . S
C356 C355 1.387 . S
H357 C369 0.930 . S
H358 C371 0.930 . S
H359 C372 0.930 . S
H360 C376 0.959 . S
H361 C376 0.959 . S
H362 C376 0.961 . S
H363 C377 0.960 . S
H364 C377 0.961 . S
H365 C377 0.959 . S
H366 C380 0.929 . S
H367 C381 0.931 . S
H368 C383 0.930 . S
C369 H357 0.930 . S
C369 C370 1.399 . S
C369 C374 1.399 . S
C370 C369 1.399 . S
C370 C371 1.376 . S
C371 H358 0.930 . S
C371 C370 1.376 . S
C371 C372 1.388 . S
C372 H359 0.930 . S
C372 C371 1.388 . S
C372 C373 1.390 . S
C373 C372 1.390 . S
C373 C374 1.394 . S
C373 C379 1.465 . S
C374 C369 1.399 . S
C374 C373 1.394 . S
C374 C375 1.516 . S
C375 C374 1.516 . S
C375 C376 1.502 . S
C375 C377 1.561 . S
C375 C378 1.526 . S
C376 H360 0.959 . S
C376 H361 0.959 . S
C376 H362 0.961 . S
C376 C375 1.502 . S
C377 H363 0.960 . S
C377 H364 0.961 . S
C377 H365 0.959 . S
C377 C375 1.561 . S
C378 C375 1.526 . S
C378 C379 1.396 . S
C378 C383 1.390 . S
C379 C373 1.465 . S
C379 C378 1.396 . S
C379 C380 1.399 . S
C380 H366 0.929 . S
C380 C379 1.399 . S
C380 C381 1.385 . S
C381 H367 0.931 . S
C381 C380 1.385 . S
C381 C382 1.389 . S
C382 C381 1.389 . S
C382 C383 1.387 . S
C383 H368 0.930 . S
C383 C378 1.390 . S
C383 C382 1.387 . S
H384 C396 0.930 . S
H385 C398 0.930 . S
H386 C399 0.930 . S
H387 C403 0.959 . S
H388 C403 0.959 . S
H389 C403 0.961 . S
H390 C404 0.960 . S
H391 C404 0.961 . S
H392 C404 0.959 . S
H393 C407 0.929 . S
H394 C408 0.931 . S
H395 C410 0.930 . S
C396 H384 0.930 . S
C396 C397 1.399 . S
C396 C401 1.399 . S
C397 C396 1.399 . S
C397 C398 1.376 . S
C398 H385 0.930 . S
C398 C397 1.376 . S
C398 C399 1.388 . S
C399 H386 0.930 . S
C399 C398 1.388 . S
C399 C400 1.390 . S
C400 C399 1.390 . S
C400 C401 1.394 . S
C400 C406 1.465 . S
C401 C396 1.399 . S
C401 C400 1.394 . S
C401 C402 1.516 . S
C402 C401 1.516 . S
C402 C403 1.502 . S
C402 C404 1.561 . S
C402 C405 1.526 . S
C403 H387 0.959 . S
C403 H388 0.959 . S
C403 H389 0.961 . S
C403 C402 1.502 . S
C404 H390 0.960 . S
C404 H391 0.961 . S
C404 H392 0.959 . S
C404 C402 1.561 . S
C405 C402 1.526 . S
C405 C406 1.396 . S
C405 C410 1.390 . S
C406 C400 1.465 . S
C406 C405 1.396 . S
C406 C407 1.399 . S
C407 H393 0.929 . S
C407 C406 1.399 . S
C407 C408 1.385 . S
C408 H394 0.931 . S
C408 C407 1.385 . S
C408 C409 1.389 . S
C409 C408 1.389 . S
C409 C410 1.387 . S
C410 H395 0.930 . S
C410 C405 1.390 . S
C410 C409 1.387 . S
H411 C423 0.930 . S
H412 C425 0.930 . S
H413 C426 0.930 . S
H414 C430 0.959 . S
H415 C430 0.959 . S
H416 C430 0.961 . S
H417 C431 0.960 . S
H418 C431 0.961 . S
H419 C431 0.959 . S
H420 C434 0.929 . S
H421 C435 0.931 . S
H422 C437 0.930 . S
C423 H411 0.930 . S
C423 C424 1.399 . S
C423 C428 1.399 . S
C424 C423 1.399 . S
C424 C425 1.376 . S
C425 H412 0.930 . S
C425 C424 1.376 . S
C425 C426 1.388 . S
C426 H413 0.930 . S
C426 C425 1.388 . S
C426 C427 1.390 . S
C427 C426 1.390 . S
C427 C428 1.394 . S
C427 C433 1.465 . S
C428 C423 1.399 . S
C428 C427 1.394 . S
C428 C429 1.516 . S
C429 C428 1.516 . S
C429 C430 1.502 . S
C429 C431 1.561 . S
C429 C432 1.526 . S
C430 H414 0.959 . S
C430 H415 0.959 . S
C430 H416 0.961 . S
C430 C429 1.502 . S
C431 H417 0.960 . S
C431 H418 0.961 . S
C431 H419 0.959 . S
C431 C429 1.561 . S
C432 C429 1.526 . S
C432 C433 1.396 . S
C432 C437 1.390 . S
C433 C427 1.465 . S
C433 C432 1.396 . S
C433 C434 1.399 . S
C434 H420 0.929 . S
C434 C433 1.399 . S
C434 C435 1.385 . S
C435 H421 0.931 . S
C435 C434 1.385 . S
C435 C436 1.389 . S
C436 C435 1.389 . S
C436 C437 1.387 . S
C437 H422 0.930 . S
C437 C432 1.390 . S
C437 C436 1.387 . S
H438 C450 0.930 . S
H439 C452 0.930 . S
H440 C453 0.930 . S
H441 C457 0.959 . S
H442 C457 0.959 . S
H443 C457 0.961 . S
H444 C458 0.960 . S
H445 C458 0.961 . S
H446 C458 0.959 . S
H447 C461 0.929 . S
H448 C462 0.931 . S
H449 C464 0.930 . S
C450 H438 0.930 . S
C450 C451 1.399 . S
C450 C455 1.399 . S
C451 C450 1.399 . S
C451 C452 1.376 . S
C452 H439 0.930 . S
C452 C451 1.376 . S
C452 C453 1.388 . S
C453 H440 0.930 . S
C453 C452 1.388 . S
C453 C454 1.390 . S
C454 C453 1.390 . S
C454 C455 1.394 . S
C454 C460 1.465 . S
C455 C450 1.399 . S
C455 C454 1.394 . S
C455 C456 1.516 . S
C456 C455 1.516 . S
C456 C457 1.502 . S
C456 C458 1.561 . S
C456 C459 1.526 . S
C457 H441 0.959 . S
C457 H442 0.959 . S
C457 H443 0.961 . S
C457 C456 1.502 . S
C458 H444 0.960 . S
C458 H445 0.961 . S
C458 H446 0.959 . S
C458 C456 1.561 . S
C459 C456 1.526 . S
C459 C460 1.396 . S
C459 C464 1.390 . S
C460 C454 1.465 . S
C460 C459 1.396 . S
C460 C461 1.399 . S
C461 H447 0.929 . S
C461 C460 1.399 . S
C461 C462 1.385 . S
C462 H448 0.931 . S
C462 C461 1.385 . S
C462 C463 1.389 . S
C463 C462 1.389 . S
C463 C464 1.387 . S
C464 H449 0.930 . S
C464 C459 1.390 . S
C464 C463 1.387 . S
H465 C477 0.930 . S
H466 C479 0.930 . S
H467 C480 0.930 . S
H468 C484 0.959 . S
H469 C484 0.959 . S
H470 C484 0.961 . S
H471 C485 0.960 . S
H472 C485 0.961 . S
H473 C485 0.959 . S
H474 C488 0.929 . S
H475 C489 0.931 . S
H476 C491 0.930 . S
C477 H465 0.930 . S
C477 C478 1.399 . S
C477 C482 1.399 . S
C478 C477 1.399 . S
C478 C479 1.376 . S
C479 H466 0.930 . S
C479 C478 1.376 . S
C479 C480 1.388 . S
C480 H467 0.930 . S
C480 C479 1.388 . S
C480 C481 1.390 . S
C481 C480 1.390 . S
C481 C482 1.394 . S
C481 C487 1.465 . S
C482 C477 1.399 . S
C482 C481 1.394 . S
C482 C483 1.516 . S
C483 C482 1.516 . S
C483 C484 1.502 . S
C483 C485 1.561 . S
C483 C486 1.526 . S
C484 H468 0.959 . S
C484 H469 0.959 . S
C484 H470 0.961 . S
C484 C483 1.502 . S
C485 H471 0.960 . S
C485 H472 0.961 . S
C485 H473 0.959 . S
C485 C483 1.561 . S
C486 C483 1.526 . S
C486 C487 1.396 . S
C486 C491 1.390 . S
C487 C481 1.465 . S
C487 C486 1.396 . S
C487 C488 1.399 . S
C488 H474 0.929 . S
C488 C487 1.399 . S
C488 C489 1.385 . S
C489 H475 0.931 . S
C489 C488 1.385 . S
C489 C490 1.389 . S
C490 C489 1.389 . S
C490 C491 1.387 . S
C491 H476 0.930 . S
C491 C486 1.390 . S
C491 C490 1.387 . S
H492 C504 0.930 . S
H493 C506 0.930 . S
H494 C507 0.930 . S
H495 C511 0.959 . S
H496 C511 0.959 . S
H497 C511 0.961 . S
H498 C512 0.960 . S
H499 C512 0.961 . S
H500 C512 0.959 . S
H501 C515 0.929 . S
H502 C516 0.931 . S
H503 C518 0.930 . S
C504 H492 0.930 . S
C504 C505 1.399 . S
C504 C509 1.399 . S
C505 C504 1.399 . S
C505 C506 1.376 . S
C506 H493 0.930 . S
C506 C505 1.376 . S
C506 C507 1.388 . S
C507 H494 0.930 . S
C507 C506 1.388 . S
C507 C508 1.390 . S
C508 C507 1.390 . S
C508 C509 1.394 . S
C508 C514 1.465 . S
C509 C504 1.399 . S
C509 C508 1.394 . S
C509 C510 1.516 . S
C510 C509 1.516 . S
C510 C511 1.502 . S
C510 C512 1.561 . S
C510 C513 1.526 . S
C511 H495 0.959 . S
C511 H496 0.959 . S
C511 H497 0.961 . S
C511 C510 1.502 . S
C512 H498 0.960 . S
C512 H499 0.961 . S
C512 H500 0.959 . S
C512 C510 1.561 . S
C513 C510 1.526 . S
C513 C514 1.396 . S
C513 C518 1.390 . S
C514 C508 1.465 . S
C514 C513 1.396 . S
C514 C515 1.399 . S
C515 H501 0.929 . S
C515 C514 1.399 . S
C515 C516 1.385 . S
C516 H502 0.931 . S
C516 C515 1.385 . S
C516 C517 1.389 . S
C517 C516 1.389 . S
C517 C518 1.387 . S
C518 H503 0.930 . S
C518 C513 1.390 . S
C518 C517 1.387 . S
H519 C531 0.930 . S
H520 C533 0.930 . S
H521 C534 0.930 . S
H522 C538 0.959 . S
H523 C538 0.959 . S
H524 C538 0.961 . S
H525 C539 0.960 . S
H526 C539 0.961 . S
H527 C539 0.959 . S
H528 C542 0.929 . S
H529 C543 0.931 . S
H530 C545 0.930 . S
C531 H519 0.930 . S
C531 C532 1.399 . S
C531 C536 1.399 . S
C532 C531 1.399 . S
C532 C533 1.376 . S
C533 H520 0.930 . S
C533 C532 1.376 . S
C533 C534 1.388 . S
C534 H521 0.930 . S
C534 C533 1.388 . S
C534 C535 1.390 . S
C535 C534 1.390 . S
C535 C536 1.394 . S
C535 C541 1.465 . S
C536 C531 1.399 . S
C536 C535 1.394 . S
C536 C537 1.516 . S
C537 C536 1.516 . S
C537 C538 1.502 . S
C537 C539 1.561 . S
C537 C540 1.526 . S
C538 H522 0.959 . S
C538 H523 0.959 . S
C538 H524 0.961 . S
C538 C537 1.502 . S
C539 H525 0.960 . S
C539 H526 0.961 . S
C539 H527 0.959 . S
C539 C537 1.561 . S
C540 C537 1.526 . S
C540 C541 1.396 . S
C540 C545 1.390 . S
C541 C535 1.465 . S
C541 C540 1.396 . S
C541 C542 1.399 . S
C542 H528 0.929 . S
C542 C541 1.399 . S
C542 C543 1.385 . S
C543 H529 0.931 . S
C543 C542 1.385 . S
C543 C544 1.389 . S
C544 C543 1.389 . S
C544 C545 1.387 . S
C545 H530 0.930 . S
C545 C540 1.390 . S
C545 C544 1.387 . S
H546 C558 0.930 . S
H547 C560 0.930 . S
H548 C561 0.930 . S
H549 C565 0.959 . S
H550 C565 0.959 . S
H551 C565 0.961 . S
H552 C566 0.960 . S
H553 C566 0.961 . S
H554 C566 0.959 . S
H555 C569 0.929 . S
H556 C570 0.931 . S
H557 C572 0.930 . S
C558 H546 0.930 . S
C558 C559 1.399 . S
C558 C563 1.399 . S
C559 C558 1.399 . S
C559 C560 1.376 . S
C560 H547 0.930 . S
C560 C559 1.376 . S
C560 C561 1.388 . S
C561 H548 0.930 . S
C561 C560 1.388 . S
C561 C562 1.390 . S
C562 C561 1.390 . S
C562 C563 1.394 . S
C562 C568 1.465 . S
C563 C558 1.399 . S
C563 C562 1.394 . S
C563 C564 1.516 . S
C564 C563 1.516 . S
C564 C565 1.502 . S
C564 C566 1.561 . S
C564 C567 1.526 . S
C565 H549 0.959 . S
C565 H550 0.959 . S
C565 H551 0.961 . S
C565 C564 1.502 . S
C566 H552 0.960 . S
C566 H553 0.961 . S
C566 H554 0.959 . S
C566 C564 1.561 . S
C567 C564 1.526 . S
C567 C568 1.396 . S
C567 C572 1.390 . S
C568 C562 1.465 . S
C568 C567 1.396 . S
C568 C569 1.399 . S
C569 H555 0.929 . S
C569 C568 1.399 . S
C569 C570 1.385 . S
C570 H556 0.931 . S
C570 C569 1.385 . S
C570 C571 1.389 . S
C571 C570 1.389 . S
C571 C572 1.387 . S
C572 H557 0.930 . S
C572 C567 1.390 . S
C572 C571 1.387 . S
H573 C585 0.930 . S
H574 C587 0.930 . S
H575 C588 0.930 . S
H576 C592 0.959 . S
H577 C592 0.959 . S
H578 C592 0.961 . S
H579 C593 0.960 . S
H580 C593 0.961 . S
H581 C593 0.959 . S
H582 C596 0.929 . S
H583 C597 0.931 . S
H584 C599 0.930 . S
C585 H573 0.930 . S
C585 C586 1.399 . S
C585 C590 1.399 . S
C586 C585 1.399 . S
C586 C587 1.376 . S
C587 H574 0.930 . S
C587 C586 1.376 . S
C587 C588 1.388 . S
C588 H575 0.930 . S
C588 C587 1.388 . S
C588 C589 1.390 . S
C589 C588 1.390 . S
C589 C590 1.394 . S
C589 C595 1.465 . S
C590 C585 1.399 . S
C590 C589 1.394 . S
C590 C591 1.516 . S
C591 C590 1.516 . S
C591 C592 1.502 . S
C591 C593 1.561 . S
C591 C594 1.526 . S
C592 H576 0.959 . S
C592 H577 0.959 . S
C592 H578 0.961 . S
C592 C591 1.502 . S
C593 H579 0.960 . S
C593 H580 0.961 . S
C593 H581 0.959 . S
C593 C591 1.561 . S
C594 C591 1.526 . S
C594 C595 1.396 . S
C594 C599 1.390 . S
C595 C589 1.465 . S
C595 C594 1.396 . S
C595 C596 1.399 . S
C596 H582 0.929 . S
C596 C595 1.399 . S
C596 C597 1.385 . S
C597 H583 0.931 . S
C597 C596 1.385 . S
C597 C598 1.389 . S
C598 C597 1.389 . S
C598 C599 1.387 . S
C599 H584 0.930 . S
C599 C594 1.390 . S
C599 C598 1.387 . S
H600 C612 0.930 . S
H601 C614 0.930 . S
H602 C615 0.930 . S
H603 C619 0.959 . S
H604 C619 0.959 . S
H605 C619 0.961 . S
H606 C620 0.960 . S
H607 C620 0.961 . S
H608 C620 0.959 . S
H609 C623 0.929 . S
H610 C624 0.931 . S
H611 C626 0.930 . S
C612 H600 0.930 . S
C612 C613 1.399 . S
C612 C617 1.399 . S
C613 C612 1.399 . S
C613 C614 1.376 . S
C614 H601 0.930 . S
C614 C613 1.376 . S
C614 C615 1.388 . S
C615 H602 0.930 . S
C615 C614 1.388 . S
C615 C616 1.390 . S
C616 C615 1.390 . S
C616 C617 1.394 . S
C616 C622 1.465 . S
C617 C612 1.399 . S
C617 C616 1.394 . S
C617 C618 1.516 . S
C618 C617 1.516 . S
C618 C619 1.502 . S
C618 C620 1.561 . S
C618 C621 1.526 . S
C619 H603 0.959 . S
C619 H604 0.959 . S
C619 H605 0.961 . S
C619 C618 1.502 . S
C620 H606 0.960 . S
C620 H607 0.961 . S
C620 H608 0.959 . S
C620 C618 1.561 . S
C621 C618 1.526 . S
C621 C622 1.396 . S
C621 C626 1.390 . S
C622 C616 1.465 . S
C622 C621 1.396 . S
C622 C623 1.399 . S
C623 H609 0.929 . S
C623 C622 1.399 . S
C623 C624 1.385 . S
C624 H610 0.931 . S
C624 C623 1.385 . S
C624 C625 1.389 . S
C625 C624 1.389 . S
C625 C626 1.387 . S
C626 H611 0.930 . S
C626 C621 1.390 . S
C626 C625 1.387 . S
H627 C639 0.930 . S
H628 C641 0.930 1_655 S
H629 C642 0.930 1_655 S
H630 C646 0.959 1_655 S
H631 C646 0.959 . S
H632 C646 0.961 . S
H633 C647 0.960 . S
H634 C647 0.961 . S
H635 C647 0.959 . S
H636 C650 0.929 1_655 S
H637 C651 0.931 1_655 S
H638 C653 0.930 . S
C639 H627 0.930 . S
C639 C640 1.399 . S
C639 C644 1.399 . S
C640 C639 1.399 . S
C640 C641 1.376 . S
C641 H628 0.930 1_455 S
C641 C640 1.376 . S
C641 C642 1.388 . S
C642 H629 0.930 1_455 S
C642 C641 1.388 . S
C642 C643 1.390 . S
C643 C642 1.390 . S
C643 C644 1.394 . S
C643 C649 1.465 . S
C644 C639 1.399 . S
C644 C643 1.394 . S
C644 C645 1.516 . S
C645 C644 1.516 . S
C645 C646 1.502 . S
C645 C647 1.561 . S
C645 C648 1.526 . S
C646 H630 0.959 1_455 S
C646 H631 0.959 . S
C646 H632 0.961 . S
C646 C645 1.502 . S
C647 H633 0.960 . S
C647 H634 0.961 . S
C647 H635 0.959 . S
C647 C645 1.561 . S
C648 C645 1.526 . S
C648 C649 1.396 . S
C648 C653 1.390 . S
C649 C643 1.465 . S
C649 C648 1.396 . S
C649 C650 1.399 . S
C650 H636 0.929 1_455 S
C650 C649 1.399 . S
C650 C651 1.385 . S
C651 H637 0.931 1_455 S
C651 C650 1.385 . S
C651 C652 1.389 . S
C652 C651 1.389 . S
C652 C653 1.387 . S
C653 H638 0.930 . S
C653 C648 1.390 . S
C653 C652 1.387 . S
H654 C666 0.930 . S
H655 C668 0.930 . S
H656 C669 0.930 . S
H657 C673 0.959 . S
H658 C673 0.959 . S
H659 C673 0.961 . S
H660 C674 0.960 . S
H661 C674 0.961 . S
H662 C674 0.959 . S
H663 C677 0.929 . S
H664 C678 0.931 . S
H665 C680 0.930 . S
C666 H654 0.930 . S
C666 C667 1.399 . S
C666 C671 1.399 . S
C667 C666 1.399 . S
C667 C668 1.376 1_545 S
C668 H655 0.930 . S
C668 C667 1.376 1_565 S
C668 C669 1.388 . S
C669 H656 0.930 . S
C669 C668 1.388 . S
C669 C670 1.390 . S
C670 C669 1.390 . S
C670 C671 1.394 1_565 S
C670 C676 1.465 . S
C671 C666 1.399 . S
C671 C670 1.394 1_545 S
C671 C672 1.516 . S
C672 C671 1.516 . S
C672 C673 1.502 . S
C672 C674 1.561 . S
C672 C675 1.526 . S
C673 H657 0.959 . S
C673 H658 0.959 . S
C673 H659 0.961 . S
C673 C672 1.502 . S
C674 H660 0.960 . S
C674 H661 0.961 . S
C674 H662 0.959 . S
C674 C672 1.561 . S
C675 C672 1.526 . S
C675 C676 1.396 1_545 S
C675 C680 1.390 . S
C676 C670 1.465 . S
C676 C675 1.396 1_565 S
C676 C677 1.399 . S
C677 H663 0.929 . S
C677 C676 1.399 . S
C677 C678 1.385 . S
C678 H664 0.931 . S
C678 C677 1.385 . S
C678 C679 1.389 1_565 S
C679 C678 1.389 1_545 S
C679 C680 1.387 . S
C680 H665 0.930 . S
C680 C675 1.390 . S
C680 C679 1.387 . S
H681 C693 0.930 . S
H682 C695 0.930 . S
H683 C696 0.930 . S
H684 C700 0.959 . S
H685 C700 0.959 . S
H686 C700 0.961 . S
H687 C701 0.960 . S
H688 C701 0.961 . S
H689 C701 0.959 . S
H690 C704 0.929 . S
H691 C705 0.931 . S
H692 C707 0.930 . S
C693 H681 0.930 . S
C693 C694 1.399 . S
C693 C698 1.399 . S
C694 C693 1.399 . S
C694 C695 1.376 . S
C695 H682 0.930 . S
C695 C694 1.376 . S
C695 C696 1.388 . S
C696 H683 0.930 . S
C696 C695 1.388 . S
C696 C697 1.390 . S
C697 C696 1.390 . S
C697 C698 1.394 . S
C697 C703 1.465 . S
C698 C693 1.399 . S
C698 C697 1.394 . S
C698 C699 1.516 . S
C699 C698 1.516 . S
C699 C700 1.502 . S
C699 C701 1.561 . S
C699 C702 1.526 . S
C700 H684 0.959 . S
C700 H685 0.959 . S
C700 H686 0.961 . S
C700 C699 1.502 . S
C701 H687 0.960 . S
C701 H688 0.961 . S
C701 H689 0.959 . S
C701 C699 1.561 . S
C702 C699 1.526 . S
C702 C703 1.396 . S
C702 C707 1.390 . S
C703 C697 1.465 . S
C703 C702 1.396 . S
C703 C704 1.399 . S
C704 H690 0.929 . S
C704 C703 1.399 . S
C704 C705 1.385 . S
C705 H691 0.931 . S
C705 C704 1.385 . S
C705 C706 1.389 . S
C706 C705 1.389 . S
C706 C707 1.387 . S
C707 H692 0.930 . S
C707 C702 1.390 . S
C707 C706 1.387 . S
H708 C720 0.930 . S
H709 C722 0.930 . S
H710 C723 0.930 . S
H711 C727 0.959 . S
H712 C727 0.959 . S
H713 C727 0.961 . S
H714 C728 0.960 . S
H715 C728 0.961 . S
H716 C728 0.959 . S
H717 C731 0.929 . S
H718 C732 0.931 . S
H719 C734 0.930 . S
C720 H708 0.930 . S
C720 C721 1.399 1_565 S
C720 C725 1.399 . S
C721 C720 1.399 1_545 S
C721 C722 1.376 . S
C722 H709 0.930 . S
C722 C721 1.376 . S
C722 C723 1.388 . S
C723 H710 0.930 . S
C723 C722 1.388 . S
C723 C724 1.390 . S
C724 C723 1.390 . S
C724 C725 1.394 1_545 S
C724 C730 1.465 . S
C725 C720 1.399 . S
C725 C724 1.394 1_565 S
C725 C726 1.516 . S
C726 C725 1.516 . S
C726 C727 1.502 . S
C726 C728 1.561 . S
C726 C729 1.526 . S
C727 H711 0.959 . S
C727 H712 0.959 . S
C727 H713 0.961 . S
C727 C726 1.502 . S
C728 H714 0.960 . S
C728 H715 0.961 . S
C728 H716 0.959 . S
C728 C726 1.561 . S
C729 C726 1.526 . S
C729 C730 1.396 1_565 S
C729 C734 1.390 . S
C730 C724 1.465 . S
C730 C729 1.396 1_545 S
C730 C731 1.399 . S
C731 H717 0.929 . S
C731 C730 1.399 . S
C731 C732 1.385 . S
C732 H718 0.931 . S
C732 C731 1.385 . S
C732 C733 1.389 . S
C733 C732 1.389 . S
C733 C734 1.387 1_545 S
C734 H719 0.930 . S
C734 C729 1.390 . S
C734 C733 1.387 1_565 S
H735 C747 0.930 . S
H736 C749 0.930 . S
H737 C750 0.930 . S
H738 C754 0.959 . S
H739 C754 0.959 . S
H740 C754 0.961 . S
H741 C755 0.960 . S
H742 C755 0.961 . S
H743 C755 0.959 . S
H744 C758 0.929 . S
H745 C759 0.931 . S
H746 C761 0.930 . S
C747 H735 0.930 . S
C747 C748 1.399 . S
C747 C752 1.399 . S
C748 C747 1.399 . S
C748 C749 1.376 . S
C749 H736 0.930 . S
C749 C748 1.376 . S
C749 C750 1.388 . S
C750 H737 0.930 . S
C750 C749 1.388 . S
C750 C751 1.390 . S
C751 C750 1.390 . S
C751 C752 1.394 . S
C751 C757 1.465 . S
C752 C747 1.399 . S
C752 C751 1.394 . S
C752 C753 1.516 . S
C753 C752 1.516 . S
C753 C754 1.502 . S
C753 C755 1.561 . S
C753 C756 1.526 . S
C754 H738 0.959 . S
C754 H739 0.959 . S
C754 H740 0.961 . S
C754 C753 1.502 . S
C755 H741 0.960 . S
C755 H742 0.961 . S
C755 H743 0.959 . S
C755 C753 1.561 . S
C756 C753 1.526 . S
C756 C757 1.396 . S
C756 C761 1.390 . S
C757 C751 1.465 . S
C757 C756 1.396 . S
C757 C758 1.399 . S
C758 H744 0.929 . S
C758 C757 1.399 . S
C758 C759 1.385 . S
C759 H745 0.931 . S
C759 C758 1.385 . S
C759 C760 1.389 . S
C760 C759 1.389 . S
C760 C761 1.387 . S
C761 H746 0.930 . S
C761 C756 1.390 . S
C761 C760 1.387 . S
H762 C774 0.930 . S
H763 C776 0.930 . S
H764 C777 0.930 . S
H765 C781 0.959 . S
H766 C781 0.959 . S
H767 C781 0.961 . S
H768 C782 0.960 . S
H769 C782 0.961 . S
H770 C782 0.959 . S
H771 C785 0.929 . S
H772 C786 0.931 . S
H773 C788 0.930 . S
C774 H762 0.930 . S
C774 C775 1.399 . S
C774 C779 1.399 . S
C775 C774 1.399 . S
C775 C776 1.376 1_455 S
C776 H763 0.930 . S
C776 C775 1.376 1_655 S
C776 C777 1.388 . S
C777 H764 0.930 . S
C777 C776 1.388 . S
C777 C778 1.390 . S
C778 C777 1.390 . S
C778 C779 1.394 1_655 S
C778 C784 1.465 . S
C779 C774 1.399 . S
C779 C778 1.394 1_455 S
C779 C780 1.516 . S
C780 C779 1.516 . S
C780 C781 1.502 . S
C780 C782 1.561 . S
C780 C783 1.526 . S
C781 H765 0.959 . S
C781 H766 0.959 . S
C781 H767 0.961 . S
C781 C780 1.502 . S
C782 H768 0.960 . S
C782 H769 0.961 . S
C782 H770 0.959 . S
C782 C780 1.561 . S
C783 C780 1.526 . S
C783 C784 1.396 1_455 S
C783 C788 1.390 . S
C784 C778 1.465 . S
C784 C783 1.396 1_655 S
C784 C785 1.399 . S
C785 H771 0.929 . S
C785 C784 1.399 . S
C785 C786 1.385 . S
C786 H772 0.931 . S
C786 C785 1.385 . S
C786 C787 1.389 1_655 S
C787 C786 1.389 1_455 S
C787 C788 1.387 . S
C788 H773 0.930 . S
C788 C783 1.390 . S
C788 C787 1.387 . S
C316 C20 1.208 . S
C328 C280 1.203 . S
C343 C41 1.246 . S
C355 C207 1.206 . S
C370 C64 1.264 . S
C382 C246 1.244 . S
C397 C19 1.161 . S
C409 C285 1.271 . S
C436 C202 1.242 . S
C424 C44 1.195 . S
C463 C241 1.183 . S
C451 C67 1.231 . S
C478 C43 1.212 . S
C490 C129 1.179 . S
C505 C66 1.137 . S
C517 C163 1.209 . S
C532 C21 1.202 . S
C544 C85 1.236 . S
C571 C124 1.213 . S
C559 C42 1.250 . S
C598 C168 1.230 . S
C586 C65 1.252 . S
C613 C18 1.243 . S
C625 C90 1.227 . S
C652 C148 1.452 1_554 S
C640 C17 1.452 . S
C667 C39 1.453 . S
C679 C70 1.452 . S
C694 C62 1.469 . S
C706 C109 1.467 . S
C733 C226 1.437 . S
C721 C40 1.431 . S
C760 C265 1.452 1_556 S
C748 C63 1.451 . S
C775 C16 1.449 . S
C787 C187 1.449 . S
