# Generated by pormake.
# Topology eea, (3,6)-cn, num edge types: 1
# Building blocks:
#     Node 0, Type 0, BuildingBlock: BETDAH_clean_linker_0, # of connection points: 3
#     Node 1, Type 0, BuildingBlock: BETDAH_clean_linker_0, # of connection points: 3
#     Node 2, Type 0, BuildingBlock: BETDAH_clean_linker_0, # of connection points: 3
#     Node 3, Type 0, BuildingBlock: BETDAH_clean_linker_0, # of connection points: 3
#     Node 4, Type 0, BuildingBlock: BETDAH_clean_linker_0, # of connection points: 3
#     Node 5, Type 0, BuildingBlock: BETDAH_clean_linker_0, # of connection points: 3
#     Node 6, Type 0, BuildingBlock: BETDAH_clean_linker_0, # of connection points: 3
#     Node 7, Type 0, BuildingBlock: BETDAH_clean_linker_0, # of connection points: 3
#     Node 8, Type 0, BuildingBlock: BETDAH_clean_linker_0, # of connection points: 3
#     Node 9, Type 0, BuildingBlock: BETDAH_clean_linker_0, # of connection points: 3
#     Node 10, Type 0, BuildingBlock: BETDAH_clean_linker_0, # of connection points: 3
#     Node 11, Type 0, BuildingBlock: BETDAH_clean_linker_0, # of connection points: 3
#     Node 12, Type 0, BuildingBlock: BETDAH_clean_linker_0, # of connection points: 3
#     Node 13, Type 0, BuildingBlock: BETDAH_clean_linker_0, # of connection points: 3
#     Node 14, Type 0, BuildingBlock: BETDAH_clean_linker_0, # of connection points: 3
#     Node 15, Type 0, BuildingBlock: BETDAH_clean_linker_0, # of connection points: 3
#     Node 16, Type 0, BuildingBlock: BETDAH_clean_linker_0, # of connection points: 3
#     Node 17, Type 0, BuildingBlock: BETDAH_clean_linker_0, # of connection points: 3
#     Node 18, Type 1, BuildingBlock: NUHQIS_clean_sbu_0, # of connection points: 6
#     Node 19, Type 1, BuildingBlock: NUHQIS_clean_sbu_0, # of connection points: 6
#     Node 20, Type 1, BuildingBlock: NUHQIS_clean_sbu_0, # of connection points: 6
#     Node 21, Type 1, BuildingBlock: NUHQIS_clean_sbu_0, # of connection points: 6
#     Node 22, Type 1, BuildingBlock: NUHQIS_clean_sbu_0, # of connection points: 6
#     Node 23, Type 1, BuildingBlock: NUHQIS_clean_sbu_0, # of connection points: 6
#     Node 24, Type 1, BuildingBlock: NUHQIS_clean_sbu_0, # of connection points: 6
#     Node 25, Type 1, BuildingBlock: NUHQIS_clean_sbu_0, # of connection points: 6
#     Node 26, Type 1, BuildingBlock: NUHQIS_clean_sbu_0, # of connection points: 6
#     Edge 27, Type (0, 1), BuildingBlock: MIFKUJ_clean_linker_0, # of connection points: 2
#     Edge 28, Type (0, 1), BuildingBlock: MIFKUJ_clean_linker_0, # of connection points: 2
#     Edge 29, Type (0, 1), BuildingBlock: MIFKUJ_clean_linker_0, # of connection points: 2
#     Edge 30, Type (0, 1), BuildingBlock: MIFKUJ_clean_linker_0, # of connection points: 2
#     Edge 31, Type (0, 1), BuildingBlock: MIFKUJ_clean_linker_0, # of connection points: 2
#     Edge 32, Type (0, 1), BuildingBlock: MIFKUJ_clean_linker_0, # of connection points: 2
#     Edge 33, Type (0, 1), BuildingBlock: MIFKUJ_clean_linker_0, # of connection points: 2
#     Edge 34, Type (0, 1), BuildingBlock: MIFKUJ_clean_linker_0, # of connection points: 2
#     Edge 35, Type (0, 1), BuildingBlock: MIFKUJ_clean_linker_0, # of connection points: 2
#     Edge 36, Type (0, 1), BuildingBlock: MIFKUJ_clean_linker_0, # of connection points: 2
#     Edge 37, Type (0, 1), BuildingBlock: MIFKUJ_clean_linker_0, # of connection points: 2
#     Edge 38, Type (0, 1), BuildingBlock: MIFKUJ_clean_linker_0, # of connection points: 2
#     Edge 39, Type (0, 1), BuildingBlock: MIFKUJ_clean_linker_0, # of connection points: 2
#     Edge 40, Type (0, 1), BuildingBlock: MIFKUJ_clean_linker_0, # of connection points: 2
#     Edge 41, Type (0, 1), BuildingBlock: MIFKUJ_clean_linker_0, # of connection points: 2
#     Edge 42, Type (0, 1), BuildingBlock: MIFKUJ_clean_linker_0, # of connection points: 2
#     Edge 43, Type (0, 1), BuildingBlock: MIFKUJ_clean_linker_0, # of connection points: 2
#     Edge 44, Type (0, 1), BuildingBlock: MIFKUJ_clean_linker_0, # of connection points: 2
#     Edge 45, Type (0, 1), BuildingBlock: MIFKUJ_clean_linker_0, # of connection points: 2
#     Edge 46, Type (0, 1), BuildingBlock: MIFKUJ_clean_linker_0, # of connection points: 2
#     Edge 47, Type (0, 1), BuildingBlock: MIFKUJ_clean_linker_0, # of connection points: 2
#     Edge 48, Type (0, 1), BuildingBlock: MIFKUJ_clean_linker_0, # of connection points: 2
#     Edge 49, Type (0, 1), BuildingBlock: MIFKUJ_clean_linker_0, # of connection points: 2
#     Edge 50, Type (0, 1), BuildingBlock: MIFKUJ_clean_linker_0, # of connection points: 2
#     Edge 51, Type (0, 1), BuildingBlock: MIFKUJ_clean_linker_0, # of connection points: 2
#     Edge 52, Type (0, 1), BuildingBlock: MIFKUJ_clean_linker_0, # of connection points: 2
#     Edge 53, Type (0, 1), BuildingBlock: MIFKUJ_clean_linker_0, # of connection points: 2
#     Edge 54, Type (0, 1), BuildingBlock: MIFKUJ_clean_linker_0, # of connection points: 2
#     Edge 55, Type (0, 1), BuildingBlock: MIFKUJ_clean_linker_0, # of connection points: 2
#     Edge 56, Type (0, 1), BuildingBlock: MIFKUJ_clean_linker_0, # of connection points: 2
#     Edge 57, Type (0, 1), BuildingBlock: MIFKUJ_clean_linker_0, # of connection points: 2
#     Edge 58, Type (0, 1), BuildingBlock: MIFKUJ_clean_linker_0, # of connection points: 2
#     Edge 59, Type (0, 1), BuildingBlock: MIFKUJ_clean_linker_0, # of connection points: 2
#     Edge 60, Type (0, 1), BuildingBlock: MIFKUJ_clean_linker_0, # of connection points: 2
#     Edge 61, Type (0, 1), BuildingBlock: MIFKUJ_clean_linker_0, # of connection points: 2
#     Edge 62, Type (0, 1), BuildingBlock: MIFKUJ_clean_linker_0, # of connection points: 2
#     Edge 63, Type (0, 1), BuildingBlock: MIFKUJ_clean_linker_0, # of connection points: 2
#     Edge 64, Type (0, 1), BuildingBlock: MIFKUJ_clean_linker_0, # of connection points: 2
#     Edge 65, Type (0, 1), BuildingBlock: MIFKUJ_clean_linker_0, # of connection points: 2
#     Edge 66, Type (0, 1), BuildingBlock: MIFKUJ_clean_linker_0, # of connection points: 2
#     Edge 67, Type (0, 1), BuildingBlock: MIFKUJ_clean_linker_0, # of connection points: 2
#     Edge 68, Type (0, 1), BuildingBlock: MIFKUJ_clean_linker_0, # of connection points: 2
#     Edge 69, Type (0, 1), BuildingBlock: MIFKUJ_clean_linker_0, # of connection points: 2
#     Edge 70, Type (0, 1), BuildingBlock: MIFKUJ_clean_linker_0, # of connection points: 2
#     Edge 71, Type (0, 1), BuildingBlock: MIFKUJ_clean_linker_0, # of connection points: 2
#     Edge 72, Type (0, 1), BuildingBlock: MIFKUJ_clean_linker_0, # of connection points: 2
#     Edge 73, Type (0, 1), BuildingBlock: MIFKUJ_clean_linker_0, # of connection points: 2
#     Edge 74, Type (0, 1), BuildingBlock: MIFKUJ_clean_linker_0, # of connection points: 2
#     Edge 75, Type (0, 1), BuildingBlock: MIFKUJ_clean_linker_0, # of connection points: 2
#     Edge 76, Type (0, 1), BuildingBlock: MIFKUJ_clean_linker_0, # of connection points: 2
#     Edge 77, Type (0, 1), BuildingBlock: MIFKUJ_clean_linker_0, # of connection points: 2
#     Edge 78, Type (0, 1), BuildingBlock: MIFKUJ_clean_linker_0, # of connection points: 2
#     Edge 79, Type (0, 1), BuildingBlock: MIFKUJ_clean_linker_0, # of connection points: 2
#     Edge 80, Type (0, 1), BuildingBlock: MIFKUJ_clean_linker_0, # of connection points: 2
# Relax obj value: 0.056
# Max RMSD: 0.194
# Mean RMSD: 0.136
data_MOF--net-eea--node1-NUHQIS_clean_sbu_0--node2-BETDAH_clean_linker_0--edge1-MIFKUJ_clean_linker_0
_symmetry_space_group_name_H-M    P1
_symmetry_Int_Tables_number       1
_symmetry_cell_setting            triclinic
loop_
_symmetry_equiv_pos_as_xyz
'x, y, z'
_cell_length_a     71.369757
_cell_length_b     71.718828
_cell_length_c     86.224673
_cell_angle_alpha  93.387274
_cell_angle_beta   93.506383
_cell_angle_gamma 119.77174
loop_
_atom_site_label
_atom_site_type_symbol
_atom_site_fract_x
_atom_site_fract_y
_atom_site_fract_z
_atom_type_partial_charge
H0 H 0.25504 0.10031 0.43025 0.0
H1 H 0.28432 0.16849 0.42526 0.0
H2 H 0.26605 0.12285 0.38487 0.0
C3 C 0.26072 0.1136 0.42305 0.0
C4 C 0.25923 0.10918 0.40685 0.0
C5 C 0.27028 0.13502 0.43 0.0
C6 C 0.27677 0.15185 0.42026 0.0
C7 C 0.27498 0.14737 0.40398 0.0
C8 C 0.2668 0.12615 0.3974 0.0
N9 N 0.28276 0.16417 0.39411 0.0
C10 C 0.27463 0.17813 0.39333 0.0
H11 H 0.93677 0.17042 0.4351 0.0
H12 H 0.87273 0.11506 0.42354 0.0
H13 H 0.91573 0.13957 0.38799 0.0
C14 C 0.92442 0.15804 0.42656 0.0
C15 C 0.92903 0.15675 0.411 0.0
C16 C 0.90411 0.14309 0.43125 0.0
C17 C 0.88849 0.12648 0.42018 0.0
C18 C 0.89286 0.12525 0.4046 0.0
C19 C 0.91287 0.14049 0.40013 0.0
N20 N 0.8774 0.10939 0.39288 0.0
C21 C 0.85927 0.09019 0.3956 0.0
H22 H 0.85497 0.77272 0.44542 0.0
H23 H 0.90668 0.75955 0.43822 0.0
H24 H 0.87911 0.77756 0.40045 0.0
C25 C 0.8661 0.77173 0.43786 0.0
C26 C 0.86538 0.77636 0.42229 0.0
C27 C 0.88071 0.76541 0.44376 0.0
C28 C 0.89577 0.76501 0.43408 0.0
C29 C 0.89535 0.76975 0.4185 0.0
C30 C 0.88003 0.77512 0.4127 0.0
N31 N 0.90727 0.76537 0.40774 0.0
C32 C 0.92981 0.77609 0.40845 0.0
H33 H 0.07803 0.23515 0.58305 0.0
H34 H 0.14161 0.24311 0.5937 0.0
H35 H 0.09736 0.22544 0.62873 0.0
C36 C 0.09003 0.23492 0.59124 0.0
C37 C 0.08484 0.22917 0.60638 0.0
C38 C 0.11054 0.2402 0.58652 0.0
C39 C 0.12566 0.23879 0.59701 0.0
C40 C 0.12071 0.23331 0.6122 0.0
C41 C 0.10059 0.22892 0.61681 0.0
N42 N 0.13609 0.23369 0.62363 0.0
C43 C 0.15137 0.22762 0.62078 0.0
H44 H 0.76187 0.84466 0.60352 0.0
H45 H 0.73717 0.88788 0.61228 0.0
H46 H 0.75333 0.86074 0.65037 0.0
C47 C 0.75724 0.85348 0.61157 0.0
C48 C 0.75886 0.85143 0.6276 0.0
C49 C 0.74903 0.86626 0.60583 0.0
C50 C 0.74363 0.87805 0.61649 0.0
C51 C 0.74521 0.87599 0.63257 0.0
C52 C 0.75231 0.86234 0.63797 0.0
N53 N 0.73902 0.88687 0.64354 0.0
C54 C 0.74365 0.90796 0.64262 0.0
H55 H 0.14687 0.91079 0.58294 0.0
H56 H 0.10071 0.84679 0.5934 0.0
H57 H 0.13777 0.89685 0.63067 0.0
C58 C 0.13861 0.89966 0.59142 0.0
C59 C 0.14394 0.90685 0.60744 0.0
C60 C 0.12328 0.87798 0.5862 0.0
C61 C 0.1124 0.86355 0.59723 0.0
C62 C 0.11746 0.87062 0.61328 0.0
C63 C 0.13342 0.89198 0.61824 0.0
N64 N 0.10825 0.85636 0.62488 0.0
C65 C 0.08672 0.83992 0.62403 0.0
H66 H 0.9229 0.43194 0.76448 0.0
H67 H 0.94021 0.49642 0.75429 0.0
H68 H 0.92126 0.44624 0.71692 0.0
C69 C 0.92485 0.44337 0.75615 0.0
C70 C 0.9206 0.43638 0.74013 0.0
C71 C 0.93199 0.46503 0.76146 0.0
C72 C 0.93465 0.47968 0.75042 0.0
C73 C 0.93075 0.47279 0.73435 0.0
C74 C 0.92391 0.4513 0.72934 0.0
N75 N 0.93457 0.48724 0.72285 0.0
C76 C 0.93053 0.50426 0.72424 0.0
H77 H 0.60388 0.5081 0.77022 0.0
H78 H 0.54222 0.44953 0.75862 0.0
H79 H 0.58454 0.47774 0.72303 0.0
C80 C 0.59216 0.49508 0.76174 0.0
C81 C 0.59667 0.4947 0.74613 0.0
C82 C 0.5724 0.47896 0.76635 0.0
C83 C 0.55754 0.46191 0.75525 0.0
C84 C 0.56196 0.46154 0.73959 0.0
C85 C 0.58128 0.47811 0.73513 0.0
N86 N 0.54712 0.44525 0.72786 0.0
C87 C 0.53117 0.42471 0.73061 0.0
H88 H 0.52916 0.1082 0.78063 0.0
H89 H 0.5807 0.09592 0.77064 0.0
H90 H 0.54815 0.11038 0.73398 0.0
C91 C 0.53955 0.10713 0.7724 0.0
C92 C 0.53691 0.11063 0.75672 0.0
C93 C 0.55501 0.10143 0.77751 0.0
C94 C 0.56882 0.10039 0.76691 0.0
C95 C 0.56654 0.10412 0.75127 0.0
C96 C 0.55034 0.10865 0.74625 0.0
N97 N 0.57884 0.10149 0.7399 0.0
C98 C 0.601 0.10891 0.74211 0.0
H99 H 0.746 0.57512 0.91646 0.0
H100 H 0.80415 0.57152 0.92663 0.0
H101 H 0.7582 0.55594 0.96042 0.0
C102 C 0.7561 0.5715 0.92415 0.0
C103 C 0.74967 0.56512 0.93892 0.0
C104 C 0.77588 0.57413 0.91956 0.0
C105 C 0.78905 0.56983 0.92999 0.0
C106 C 0.78254 0.56325 0.94474 0.0
C107 C 0.76307 0.56112 0.94905 0.0
N108 N 0.79486 0.5587 0.95585 0.0
C109 C 0.81388 0.55831 0.954 0.0
H110 H 0.41238 0.16556 0.93407 0.0
H111 H 0.40766 0.22196 0.94654 0.0
H112 H 0.42686 0.19353 0.98193 0.0
C113 C 0.41415 0.17795 0.94283 0.0
C114 C 0.42045 0.17753 0.95853 0.0
C115 C 0.40952 0.19392 0.93837 0.0
C116 C 0.41109 0.20954 0.94985 0.0
C117 C 0.41708 0.20909 0.9656 0.0
C118 C 0.42167 0.19317 0.96979 0.0
N119 N 0.41861 0.2243 0.97761 0.0
C120 C 0.42087 0.24421 0.97507 0.0
H121 H 0.81602 0.2439 0.91357 0.0
H122 H 0.76238 0.18356 0.92401 0.0
H123 H 0.79792 0.23559 0.96036 0.0
C124 C 0.80544 0.23401 0.92183 0.0
C125 C 0.80875 0.24258 0.93747 0.0
C126 C 0.78882 0.21271 0.9168 0.0
C127 C 0.77517 0.19998 0.92769 0.0
C128 C 0.77845 0.20845 0.9434 0.0
C129 C 0.79528 0.22949 0.94814 0.0
N130 N 0.76597 0.19625 0.95509 0.0
C131 C 0.74528 0.1782 0.95267 0.0
H132 H 0.59563 0.76799 0.10009 0.0
H133 H 0.60923 0.8309 0.08853 0.0
H134 H 0.59816 0.78205 0.05222 0.0
C135 C 0.59739 0.77898 0.09146 0.0
C136 C 0.59566 0.77212 0.07557 0.0
C137 C 0.60232 0.80016 0.09634 0.0
C138 C 0.60539 0.81453 0.08502 0.0
C139 C 0.60415 0.80792 0.06914 0.0
C140 C 0.59945 0.78692 0.06455 0.0
N141 N 0.60834 0.82221 0.05748 0.0
C142 C 0.60149 0.83722 0.05743 0.0
H143 H 0.26889 0.84237 0.1028 0.0
H144 H 0.209 0.78168 0.09238 0.0
H145 H 0.25268 0.80729 0.05723 0.0
C146 C 0.25781 0.82847 0.0947 0.0
C147 C 0.26311 0.82689 0.07943 0.0
C148 C 0.23823 0.81228 0.0995 0.0
C149 C 0.22419 0.79413 0.08889 0.0
C150 C 0.22945 0.79245 0.07361 0.0
C151 C 0.24871 0.80887 0.069 0.0
N152 N 0.2158 0.77472 0.06237 0.0
C153 C 0.19771 0.75574 0.06542 0.0
H154 H 0.19408 0.44559 0.11585 0.0
H155 H 0.24944 0.4383 0.10807 0.0
H156 H 0.21746 0.45223 0.07062 0.0
C157 C 0.20585 0.446 0.10831 0.0
C158 C 0.20427 0.45029 0.09274 0.0
C159 C 0.22202 0.44156 0.11408 0.0
C160 C 0.23707 0.44194 0.10399 0.0
C161 C 0.23543 0.44597 0.08834 0.0
C162 C 0.219 0.44991 0.08285 0.0
N163 N 0.24814 0.44345 0.07728 0.0
C164 C 0.27058 0.45246 0.07922 0.0
H165 H 0.40766 0.90222 0.24764 0.0
H166 H 0.47118 0.91081 0.26018 0.0
H167 H 0.42551 0.89377 0.29416 0.0
C168 C 0.41929 0.90187 0.25612 0.0
C169 C 0.41359 0.89655 0.27126 0.0
C170 C 0.44012 0.90729 0.25197 0.0
C171 C 0.45511 0.90667 0.26311 0.0
C172 C 0.44962 0.90156 0.27827 0.0
C173 C 0.42915 0.89689 0.28225 0.0
N174 N 0.46478 0.90279 0.29033 0.0
C175 C 0.48063 0.89713 0.2886 0.0
H176 H 0.0905 0.50557 0.26574 0.0
H177 H 0.08244 0.56042 0.27678 0.0
H178 H 0.10552 0.53572 0.31285 0.0
C179 C 0.09129 0.51781 0.2742 0.0
C180 C 0.0989 0.51897 0.28981 0.0
C181 C 0.08531 0.53269 0.26933 0.0
C182 C 0.08723 0.54903 0.28034 0.0
C183 C 0.09447 0.55 0.29609 0.0
C184 C 0.10013 0.53494 0.30068 0.0
N185 N 0.09574 0.56542 0.30779 0.0
C186 C 0.09665 0.58469 0.30498 0.0
H187 H 0.48142 0.57939 0.2521 0.0
H188 H 0.44016 0.51157 0.25648 0.0
H189 H 0.46476 0.55726 0.2972 0.0
C190 C 0.47288 0.56628 0.25919 0.0
C191 C 0.47479 0.571 0.27546 0.0
C192 C 0.46069 0.54491 0.25206 0.0
C193 C 0.44903 0.52827 0.26147 0.0
C194 C 0.44995 0.53287 0.27764 0.0
C195 C 0.463 0.55413 0.28459 0.0
N196 N 0.44099 0.51577 0.28723 0.0
C197 C 0.41966 0.5062 0.29083 0.0
Tb198 Tb 0.49743 0.99265 0.99574 0.0
Eu199 Eu 0.51044 0.01419 0.03315 0.0
C200 C 0.51546 0.97437 0.02162 0.0
C201 C 0.46425 0.97162 0.02077 0.0
C202 C 0.49651 0.98961 0.95227 0.0
C203 C 0.51142 0.99255 0.9273 0.0
C204 C 0.50584 0.98268 0.94111 0.0
C205 C 0.49279 0.00664 0.94935 0.0
C206 C 0.49822 0.01644 0.93544 0.0
C207 C 0.50766 0.00956 0.92421 0.0
C208 C 0.49175 0.97942 0.96704 0.0
O209 O 0.48297 0.01299 0.99801 0.0
O210 O 0.50327 0.03637 0.01985 0.0
O211 O 0.54112 0.02877 0.02098 0.0
O212 O 0.52474 0.0252 0.99646 0.0
C213 C 0.48985 0.03102 0.0071 0.0
O214 O 0.5041 0.0287 0.05369 0.0
O215 O 0.53129 0.02312 0.05508 0.0
O216 O 0.50878 0.98225 0.03264 0.0
O217 O 0.51634 0.98017 0.00738 0.0
O218 O 0.47129 0.96852 0.00763 0.0
O219 O 0.47513 0.98916 0.03057 0.0
C220 C 0.5421 0.03391 0.00655 0.0
O221 O 0.50866 0.98349 0.9764 0.0
O222 O 0.47686 0.9802 0.97466 0.0
C223 C 0.51211 0.01789 0.07732 0.0
C224 C 0.49884 0.99813 0.10518 0.0
C225 C 0.51036 0.02081 0.10536 0.0
C226 C 0.51693 0.03055 0.09158 0.0
C227 C 0.50039 0.99529 0.07697 0.0
C228 C 0.49384 0.98551 0.09076 0.0
C229 C 0.51911 0.02831 0.06286 0.0
H230 H 0.51904 0.98705 0.91915 0.0
H231 H 0.50909 0.96975 0.94319 0.0
H232 H 0.48577 0.01243 0.95781 0.0
H233 H 0.49483 0.02928 0.93345 0.0
H234 H 0.51415 0.03108 0.11616 0.0
H235 H 0.52578 0.04801 0.09206 0.0
H236 H 0.49642 0.98521 0.06604 0.0
H237 H 0.4852 0.96805 0.09013 0.0
Tb238 Tb 0.01666 0.50094 0.99799 0.0
Eu239 Eu 0.99511 0.49137 0.03144 0.0
C240 C 0.03538 0.5364 0.02679 0.0
C241 C 0.03578 0.48567 0.02496 0.0
C242 C 0.02349 0.50483 0.9557 0.0
C243 C 0.0292 0.50801 0.9283 0.0
C244 C 0.03738 0.51032 0.94388 0.0
C245 C 1.00122 0.49668 0.95177 0.0
C246 C 0.99302 0.49441 0.93619 0.0
C247 C 0.00695 0.50024 0.92428 0.0
C248 C 0.03252 0.50869 0.9721 0.0
O249 O 0.99418 0.46614 0.99634 0.0
O250 O 0.97065 0.4646 0.0139 0.0
O251 O 0.98103 0.50847 0.018 0.0
O252 O 0.98575 0.49958 0.9931 0.0
C253 C 0.97528 0.45593 1.00198 0.0
O254 O 0.98116 0.47053 0.04998 0.0
O255 O 0.98465 0.50239 0.05144 0.0
O256 O 0.02779 0.52134 0.03631 0.0
O257 O 0.02874 0.53197 0.0118 0.0
O258 O 0.04028 0.49904 0.01413 0.0
O259 O 0.01701 0.47714 0.03077 0.0
C260 C 0.97663 0.5067 0.00276 0.0
O261 O 0.02958 0.52222 0.98087 0.0
O262 O 0.02861 0.49168 0.97908 0.0
C263 C 0.98928 0.48954 0.07499 0.0
C264 C 0.00677 0.49835 0.10653 0.0
C265 C 0.98437 0.48456 0.10234 0.0
C266 C 0.97572 0.48023 0.0867 0.0
C267 C 0.01167 0.50312 0.07904 0.0
C268 C 0.02034 0.50754 0.09469 0.0
C269 C 0.97991 0.48533 0.05865 0.0
H270 H 0.04032 0.51229 0.9194 0.0
H271 H 0.0546 0.51662 0.94672 0.0
H272 H 0.99027 0.49243 0.96079 0.0
H273 H 0.97586 0.48857 0.93354 0.0
H274 H 0.97347 0.4774 0.11119 0.0
H275 H 0.95839 0.46975 0.08376 0.0
H276 H 0.02241 0.51037 0.07011 0.0
H277 H 0.03768 0.51799 0.09752 0.0
Tb278 Tb 0.51692 0.50771 0.02474 0.0
Eu279 Eu 0.50055 0.51434 0.9899 0.0
C280 C 0.4958 0.46939 0.99835 0.0
C281 C 0.54695 0.51865 0.99724 0.0
C282 C 0.52008 0.50586 0.06748 0.0
C283 C 0.50713 0.4918 0.09203 0.0
C284 C 0.51471 0.48991 0.07777 0.0
C285 C 0.51767 0.52375 0.07166 0.0
C286 C 0.51033 0.52576 0.086 0.0
C287 C 0.50498 0.5098 0.09632 0.0
C288 C 0.5271 0.50305 0.05219 0.0
O289 O 0.5154 0.53716 0.02757 0.0
O290 O 0.52234 0.54719 0.00298 0.0
O291 O 0.4767 0.51444 0.00588 0.0
O292 O 0.482 0.49492 0.02402 0.0
C293 C 0.52237 0.55206 0.01789 0.0
O294 O 0.50717 0.53373 0.97025 0.0
O295 O 0.47697 0.50345 0.96923 0.0
O296 O 0.48631 0.47867 0.99126 0.0
O297 O 0.51173 0.47997 0.00955 0.0
O298 O 0.54599 0.52245 0.01224 0.0
O299 O 0.52969 0.51076 0.9871 0.0
C300 C 0.47057 0.50293 0.01783 0.0
O301 O 0.51229 0.48729 0.04241 0.0
O302 O 0.53834 0.52047 0.04532 0.0
C303 C 0.49372 0.513 0.94594 0.0
C304 C 0.50385 0.50371 0.91635 0.0
C305 C 0.49281 0.51532 0.91794 0.0
C306 C 0.48782 0.51994 0.93261 0.0
C307 C 0.5044 0.50111 0.94442 0.0
C308 C 0.5094 0.49648 0.92976 0.0
C309 C 0.48986 0.5192 0.96147 0.0
H310 H 0.50323 0.47933 0.09981 0.0
H311 H 0.51627 0.4759 0.07472 0.0
H312 H 0.52132 0.53612 0.06383 0.0
H313 H 0.50854 0.53966 0.08892 0.0
H314 H 0.48807 0.5209 0.90784 0.0
H315 H 0.47962 0.52918 0.93359 0.0
H316 H 0.50924 0.49576 0.95462 0.0
H317 H 0.51816 0.48777 0.92902 0.0
Tb318 Tb 0.16465 0.32914 0.33122 0.0
Eu319 Eu 0.17823 0.34972 0.3683 0.0
C320 C 0.18188 0.30929 0.35612 0.0
C321 C 0.13105 0.30956 0.35573 0.0
C322 C 0.16159 0.3274 0.28797 0.0
C323 C 0.16189 0.32556 0.25976 0.0
C324 C 0.15609 0.31526 0.2734 0.0
C325 C 0.17272 0.35004 0.28872 0.0
C326 C 0.17854 0.36039 0.27507 0.0
C327 C 0.17339 0.34827 0.26041 0.0
C328 C 0.15665 0.31633 0.30231 0.0
O329 O 0.15077 0.34982 0.33509 0.0
O330 O 0.17483 0.37416 0.35505 0.0
O331 O 0.20905 0.36372 0.3564 0.0
O332 O 0.19358 0.36072 0.33165 0.0
C333 C 0.16 0.36885 0.34324 0.0
O334 O 0.172 0.36339 0.38938 0.0
O335 O 0.19945 0.35823 0.38995 0.0
O336 O 0.17514 0.31702 0.36722 0.0
O337 O 0.18308 0.31563 0.34204 0.0
O338 O 0.1391 0.30508 0.34364 0.0
O339 O 0.142 0.32802 0.36458 0.0
C340 C 0.21067 0.369 0.342 0.0
O341 O 0.17339 0.31877 0.31105 0.0
O342 O 0.14309 0.31851 0.31064 0.0
C343 C 0.181 0.35234 0.41256 0.0
C344 C 0.16884 0.33207 0.44031 0.0
C345 C 0.17732 0.35449 0.44036 0.0
C346 C 0.18336 0.36451 0.42662 0.0
C347 C 0.1724 0.32995 0.41239 0.0
C348 C 0.16646 0.31992 0.42614 0.0
C349 C 0.18736 0.36303 0.39815 0.0
H350 H 0.15732 0.31569 0.24867 0.0
H351 H 0.14751 0.29777 0.27258 0.0
H352 H 0.1772 0.35971 0.29989 0.0
H353 H 0.18756 0.37787 0.27606 0.0
H354 H 0.17958 0.36435 0.45109 0.0
H355 H 0.18994 0.3818 0.42698 0.0
H356 H 0.17027 0.32022 0.40162 0.0
H357 H 0.15973 0.30261 0.42562 0.0
Tb358 Tb 0.67709 0.83133 0.33358 0.0
Eu359 Eu 0.658 0.82424 0.36797 0.0
C360 C 0.69729 0.86861 0.36112 0.0
C361 C 0.69783 0.81749 0.36048 0.0
C362 C 0.68255 0.83454 0.291 0.0
C363 C 0.68813 0.83957 0.26376 0.0
C364 C 0.69636 0.84079 0.27913 0.0
C365 C 0.6603 0.82671 0.28732 0.0
C366 C 0.65202 0.82546 0.27192 0.0
C367 C 0.66591 0.8321 0.25998 0.0
C368 C 0.69178 0.83751 0.30724 0.0
O369 O 0.65412 0.79668 0.33311 0.0
O370 O 0.63237 0.79646 0.35176 0.0
O371 O 0.64222 0.83968 0.35424 0.0
O372 O 0.64653 0.83067 0.32917 0.0
C373 C 0.63591 0.78701 0.33973 0.0
O374 O 0.64564 0.80494 0.38753 0.0
O375 O 0.64926 0.83685 0.38813 0.0
O376 O 0.69069 0.8543 0.37122 0.0
O377 O 0.68949 0.86309 0.34636 0.0
O378 O 0.70154 0.8301 0.34922 0.0
O379 O 0.67968 0.80969 0.3671 0.0
C380 C 0.63755 0.83774 0.339 0.0
O381 O 0.69077 0.85207 0.31628 0.0
O382 O 0.6864 0.82007 0.31406 0.0
C383 C 0.65607 0.82577 0.41199 0.0
C384 C 0.67619 0.83597 0.44288 0.0
C385 C 0.65454 0.81923 0.43931 0.0
C386 C 0.64456 0.81422 0.42399 0.0
C387 C 0.67777 0.84232 0.41544 0.0
C388 C 0.68771 0.84745 0.43078 0.0
C389 C 0.64529 0.82046 0.39596 0.0
H390 H 0.69919 0.84447 0.2548 0.0
H391 H 0.71358 0.8469 0.2818 0.0
H392 H 0.64943 0.82194 0.2964 0.0
H393 H 0.63487 0.81979 0.26942 0.0
H394 H 0.64519 0.81023 0.4484 0.0
H395 H 0.62781 0.80139 0.42153 0.0
H396 H 0.68701 0.85131 0.40629 0.0
H397 H 0.70449 0.86024 0.43314 0.0
Tb398 Tb 0.18373 0.84699 0.35887 0.0
Eu399 Eu 0.16623 0.85056 0.3234 0.0
C400 C 0.16302 0.80758 0.3332 0.0
C401 C 0.21439 0.85828 0.33211 0.0
C402 C 0.18589 0.84564 0.4019 0.0
C403 C 0.16703 0.82746 0.42379 0.0
C404 C 0.17568 0.82702 0.40974 0.0
C405 C 0.18732 0.8648 0.40848 0.0
C406 C 0.1788 0.86528 0.42261 0.0
C407 C 0.16857 0.84662 0.43049 0.0
C408 C 0.19462 0.84468 0.38687 0.0
O409 O 0.19741 0.88105 0.35544 0.0
O410 O 0.17022 0.87893 0.33867 0.0
O411 O 0.13669 0.83599 0.33683 0.0
O412 O 0.15397 0.84746 0.36183 0.0
C413 C 0.1867 0.88984 0.34936 0.0
O414 O 0.1697 0.86923 0.30358 0.0
O415 O 0.14395 0.83581 0.30213 0.0
O416 O 0.16921 0.82089 0.32241 0.0
O417 O 0.16262 0.81428 0.3476 0.0
O418 O 0.20789 0.84733 0.34433 0.0
O419 O 0.20256 0.86494 0.32461 0.0
C420 C 0.13632 0.83915 0.35199 0.0
O421 O 0.18225 0.82792 0.37692 0.0
O422 O 0.20367 0.86229 0.37993 0.0
C423 C 0.16094 0.84836 0.27935 0.0
C424 C 0.17373 0.84102 0.25033 0.0
C425 C 0.16221 0.85218 0.25157 0.0
C426 C 0.15585 0.85579 0.26596 0.0
C427 C 0.17248 0.83728 0.27821 0.0
C428 C 0.17875 0.83357 0.26382 0.0
C429 C 0.15462 0.8526 0.29451 0.0
H430 H 0.15898 0.81267 0.42934 0.0
H431 H 0.17427 0.81202 0.40493 0.0
H432 H 0.19508 0.87948 0.40278 0.0
H433 H 0.18061 0.88042 0.42748 0.0
H434 H 0.15791 0.85795 0.24138 0.0
H435 H 0.147 0.86442 0.26664 0.0
H436 H 0.17674 0.8316 0.28848 0.0
H437 H 0.18785 0.82518 0.26331 0.0
Tb438 Tb 0.83153 0.66434 0.66503 0.0
Eu439 Eu 0.84583 0.68551 0.70202 0.0
C440 C 0.8484 0.64454 0.69011 0.0
C441 C 0.79816 0.64612 0.68977 0.0
C442 C 0.82801 0.66123 0.62166 0.0
C443 C 0.82284 0.65867 0.5933 0.0
C444 C 0.81762 0.64908 0.60728 0.0
C445 C 0.84358 0.6832 0.62189 0.0
C446 C 0.84891 0.69278 0.60792 0.0
C447 C 0.83867 0.68061 0.59343 0.0
C448 C 0.8231 0.65072 0.63625 0.0
O449 O 0.81881 0.68613 0.66852 0.0
O450 O 0.84262 0.71004 0.68882 0.0
O451 O 0.87643 0.69856 0.6898 0.0
O452 O 0.86063 0.69562 0.66517 0.0
C453 C 0.82805 0.70504 0.67687 0.0
O454 O 0.84058 0.70001 0.72311 0.0
O455 O 0.86702 0.69333 0.72364 0.0
O456 O 0.84151 0.65235 0.70104 0.0
O457 O 0.84995 0.65095 0.67605 0.0
O458 O 0.80593 0.64102 0.67779 0.0
O459 O 0.80947 0.6647 0.69843 0.0
C460 C 0.87789 0.70355 0.67532 0.0
O461 O 0.83979 0.65309 0.64504 0.0
O462 O 0.8098 0.65347 0.64449 0.0
C463 C 0.84896 0.68856 0.74633 0.0
C464 C 0.83696 0.66859 0.77423 0.0
C465 C 0.85161 0.69093 0.77471 0.0
C466 C 0.85753 0.70079 0.76089 0.0
C467 C 0.83427 0.66631 0.74574 0.0
C468 C 0.82831 0.65641 0.75955 0.0
C469 C 0.85558 0.69902 0.73186 0.0
H470 H 0.8148 0.64875 0.58237 0.0
H471 H 0.80562 0.63209 0.60685 0.0
H472 H 0.85174 0.69289 0.63287 0.0
H473 H 0.86095 0.70977 0.60848 0.0
H474 H 0.85835 0.70087 0.78577 0.0
H475 H 0.86885 0.718 0.76158 0.0
H476 H 0.82752 0.65657 0.73458 0.0
H477 H 0.81721 0.63916 0.75871 0.0
Tb478 Tb 0.35056 0.16664 0.66722 0.0
Eu479 Eu 0.32794 0.15719 0.70042 0.0
C480 C 0.36925 0.20245 0.69537 0.0
C481 C 0.36973 0.15235 0.69538 0.0
C482 C 0.35638 0.17185 0.62493 0.0
C483 C 0.35656 0.18755 0.60066 0.0
C484 C 0.36532 0.18947 0.61602 0.0
C485 C 0.33844 0.15223 0.61823 0.0
C486 C 0.32983 0.15023 0.60283 0.0
C487 C 0.3388 0.16786 0.59387 0.0
C488 C 0.36576 0.17433 0.64118 0.0
O489 O 0.32022 0.13617 0.66172 0.0
O490 O 0.3135 0.12494 0.68624 0.0
O491 O 0.3038 0.15752 0.68263 0.0
O492 O 0.32861 0.17966 0.66696 0.0
C493 C 0.31012 0.12103 0.67096 0.0
O494 O 0.31664 0.13803 0.72006 0.0
O495 O 0.31322 0.16627 0.71868 0.0
O496 O 0.35024 0.19314 0.70083 0.0
O497 O 0.37398 0.19233 0.6845 0.0
O498 O 0.36593 0.15164 0.68015 0.0
O499 O 0.35948 0.15764 0.70531 0.0
C500 C 0.3091 0.17065 0.67166 0.0
O501 O 0.36513 0.18874 0.65072 0.0
O502 O 0.36066 0.15664 0.64765 0.0
C503 C 0.32008 0.15799 0.74368 0.0
C504 C 0.33643 0.16948 0.77549 0.0
C505 C 0.31395 0.15677 0.77106 0.0
C506 C 0.30587 0.15107 0.75529 0.0
C507 C 0.34249 0.17088 0.74797 0.0
C508 C 0.3506 0.17658 0.76375 0.0
C509 C 0.31148 0.15113 0.72719 0.0
H510 H 0.36391 0.20134 0.59399 0.0
H511 H 0.37911 0.20476 0.62096 0.0
H512 H 0.33103 0.13841 0.62487 0.0
H513 H 0.31599 0.13495 0.59796 0.0
H514 H 0.30262 0.15078 0.77979 0.0
H515 H 0.28853 0.14102 0.75215 0.0
H516 H 0.35369 0.17636 0.73911 0.0
H517 H 0.36796 0.18658 0.76675 0.0
Tb518 Tb 0.85443 0.17747 0.69341 0.0
Eu519 Eu 0.83547 0.17821 0.65765 0.0
C520 C 0.83151 0.13613 0.66978 0.0
C521 C 0.88398 0.18666 0.66602 0.0
C522 C 0.85768 0.17647 0.73661 0.0
C523 C 0.83039 0.15713 0.75421 0.0
C524 C 0.83927 0.15756 0.74009 0.0
C525 C 0.8671 0.19477 0.74762 0.0
C526 C 0.85812 0.19439 0.76163 0.0
C527 C 0.8396 0.17561 0.76507 0.0
C528 C 0.86703 0.17772 0.72155 0.0
O529 O 0.8688 0.21077 0.68795 0.0
O530 O 0.84062 0.20781 0.67197 0.0
O531 O 0.80655 0.16489 0.67176 0.0
O532 O 0.82485 0.17836 0.69636 0.0
C533 C 0.85776 0.21932 0.68205 0.0
O534 O 0.83748 0.19563 0.6373 0.0
O535 O 0.81313 0.16176 0.63657 0.0
O536 O 0.83811 0.14843 0.65839 0.0
O537 O 0.83161 0.14429 0.68383 0.0
O538 O 0.87816 0.17696 0.67883 0.0
O539 O 0.87161 0.19223 0.65797 0.0
C540 C 0.80683 0.1695 0.68684 0.0
O541 O 0.85783 0.16054 0.71152 0.0
O542 O 0.872 0.19504 0.71472 0.0
C543 C 0.82909 0.17428 0.61328 0.0
C544 C 0.84228 0.16797 0.58411 0.0
C545 C 0.83284 0.18104 0.58603 0.0
C546 C 0.82629 0.18412 0.60047 0.0
C547 C 0.83855 0.16126 0.61147 0.0
C548 C 0.84497 0.15804 0.597 0.0
C549 C 0.82284 0.17834 0.62857 0.0
H550 H 0.81605 0.14246 0.7565 0.0
H551 H 0.83158 0.14316 0.73187 0.0
H552 H 0.88137 0.2095 0.74531 0.0
H553 H 0.86578 0.2088 0.76985 0.0
H554 H 0.83034 0.18874 0.57632 0.0
H555 H 0.81912 0.1943 0.60166 0.0
H556 H 0.84112 0.15372 0.62127 0.0
H557 H 0.85243 0.14811 0.59597 0.0
H558 H 0.26881 0.84611 0.05238 0.0
H559 H 0.30305 0.87086 0.04249 0.0
H560 H 0.33838 0.86995 0.0846 0.0
H561 H 0.30404 0.84536 0.09465 0.0
H562 H 0.35641 0.90978 0.07562 0.0
H563 H 0.33235 0.83874 0.05071 0.0
H564 H 0.30635 0.80406 0.0355 0.0
H565 H 0.30446 0.83753 0.99628 0.0
H566 H 0.33023 0.87244 0.01134 0.0
H567 H 0.45886 0.95451 0.04824 0.0
H568 H 0.42485 0.9289 0.05792 0.0
H569 H 0.38962 0.92576 0.01437 0.0
H570 H 0.42406 0.95039 0.00429 0.0
H571 H 0.37134 0.88801 0.02421 0.0
H572 H 0.39579 0.9594 0.04942 0.0
H573 H 0.42253 0.99377 0.06468 0.0
H574 H 0.42393 0.95955 0.10355 0.0
H575 H 0.39746 0.92494 0.08843 0.0
C576 C 0.28388 0.85128 0.05956 0.0
C577 C 0.28378 0.84365 0.07423 0.0
C578 C 0.30344 0.86537 0.05389 0.0
C579 C 0.32332 0.87189 0.06265 0.0
C580 C 0.32324 0.86505 0.0776 0.0
C581 C 0.30363 0.85106 0.08335 0.0
C582 C 0.34414 0.88535 0.05604 0.0
C583 C 0.35978 0.90492 0.06446 0.0
C584 C 0.3484 0.87921 0.04133 0.0
C585 C 0.33307 0.85821 0.0322 0.0
C586 C 0.32629 0.83871 0.03888 0.0
C587 C 0.3116 0.81901 0.03028 0.0
C588 C 0.30372 0.8186 0.01495 0.0
C589 C 0.31056 0.83788 0.00817 0.0
C590 C 0.32522 0.85762 0.01672 0.0
C591 C 0.44384 0.94804 0.04067 0.0
C592 C 0.44391 0.95439 0.02558 0.0
C593 C 0.42439 0.93359 0.04625 0.0
C594 C 0.40452 0.92594 0.03711 0.0
C595 C 0.4047 0.93159 0.02173 0.0
C596 C 0.42431 0.9456 0.01595 0.0
C597 C 0.38364 0.91255 0.04374 0.0
C598 C 0.36797 0.89296 0.03534 0.0
C599 C 0.37936 0.91869 0.05848 0.0
C600 C 0.39476 0.93957 0.06774 0.0
C601 C 0.40185 0.9592 0.0612 0.0
C602 C 0.41698 0.97872 0.06982 0.0
C603 C 0.42499 0.97883 0.08505 0.0
C604 C 0.41777 0.95943 0.09173 0.0
C605 C 0.40268 0.93987 0.08315 0.0
H606 H 0.43675 0.99395 0.09169 0.0
H607 H 0.29235 0.80333 0.00831 0.0
H608 H 0.16118 0.42887 0.09769 0.0
H609 H 0.13234 0.43474 0.0866 0.0
H610 H 0.1787 0.48617 0.06226 0.0
H611 H 0.20769 0.48073 0.0736 0.0
H612 H 0.15144 0.49716 0.07526 0.0
H613 H 0.14473 0.43656 0.04316 0.0
H614 H 0.14069 0.40049 0.03796 0.0
H615 H 0.07994 0.37184 0.05785 0.0
H616 H 0.08377 0.40779 0.06336 0.0
H617 H 0.07878 0.50553 0.01999 0.0
H618 H 0.10684 0.49909 0.03179 0.0
H619 H 0.05931 0.4492 0.05652 0.0
H620 H 0.03112 0.4555 0.04479 0.0
H621 H 0.08659 0.43709 0.0438 0.0
H622 H 0.09252 0.49722 0.07525 0.0
H623 H 0.09628 0.53312 0.08058 0.0
H624 H 0.15833 0.56257 0.06252 0.0
H625 H 0.15468 0.52679 0.05669 0.0
C626 C 0.16529 0.44161 0.09014 0.0
C627 C 0.18676 0.4543 0.08651 0.0
C628 C 0.14875 0.44482 0.08368 0.0
C629 C 0.15329 0.46073 0.07343 0.0
C630 C 0.17478 0.47374 0.07008 0.0
C631 C 0.19131 0.47051 0.07649 0.0
C632 C 0.13565 0.46371 0.06606 0.0
C633 C 0.1374 0.4841 0.06822 0.0
C634 C 0.11704 0.44653 0.05718 0.0
C635 C 0.11465 0.42489 0.05382 0.0
C636 C 0.1306 0.42259 0.04654 0.0
C637 C 0.12833 0.40216 0.04351 0.0
C638 C 0.1101 0.38389 0.04761 0.0
C639 C 0.09407 0.38601 0.0547 0.0
C640 C 0.09627 0.4064 0.05777 0.0
C641 C 0.07423 0.49309 0.02786 0.0
C642 C 0.05267 0.48109 0.03147 0.0
C643 C 0.09033 0.48949 0.03465 0.0
C644 C 0.08522 0.47379 0.04516 0.0
C645 C 0.06363 0.46141 0.04847 0.0
C646 C 0.04755 0.4651 0.04178 0.0
C647 C 0.10248 0.47058 0.0529 0.0
C648 C 0.10063 0.45015 0.05084 0.0
C649 C 0.12098 0.48771 0.06191 0.0
C650 C 0.12321 0.50928 0.06537 0.0
C651 C 0.10685 0.51132 0.07224 0.0
C652 C 0.10896 0.53167 0.07536 0.0
C653 C 0.12748 0.55012 0.07183 0.0
C654 C 0.14393 0.54827 0.06518 0.0
C655 C 0.14185 0.52796 0.06196 0.0
H656 H 0.1291 0.56585 0.07432 0.0
H657 H 0.10837 0.36809 0.04526 0.0
H658 H 0.56629 0.73505 0.08726 0.0
H659 H 0.55535 0.69782 0.07805 0.0
H660 H 0.59958 0.7205 0.04267 0.0
H661 H 0.61132 0.75783 0.05215 0.0
H662 H 0.55632 0.68755 0.03154 0.0
H663 H 0.61303 0.70247 0.07203 0.0
H664 H 0.63159 0.71434 0.09879 0.0
H665 H 0.57527 0.66425 0.11647 0.0
H666 H 0.55625 0.65228 0.08982 0.0
H667 H 0.54743 0.58849 0.00398 0.0
H668 H 0.56083 0.6259 0.01423 0.0
H669 H 0.52777 0.60413 0.05541 0.0
H670 H 0.51507 0.56673 0.0455 0.0
H671 H 0.56566 0.6371 0.06378 0.0
H672 H 0.50812 0.62224 0.02476 0.0
H673 H 0.4875 0.61026 0.99865 0.0
H674 H 0.54215 0.65966 0.97898 0.0
H675 H 0.56321 0.67176 0.00494 0.0
C676 C 0.57403 0.73219 0.07772 0.0
C677 C 0.58967 0.74949 0.07043 0.0
C678 C 0.56765 0.71089 0.07242 0.0
C679 C 0.57667 0.70649 0.05969 0.0
C680 C 0.59237 0.72363 0.05246 0.0
C681 C 0.59895 0.74494 0.05786 0.0
C682 C 0.56926 0.68394 0.05363 0.0
C683 C 0.55861 0.67655 0.03847 0.0
C684 C 0.57167 0.66953 0.06293 0.0
C685 C 0.58314 0.67661 0.07894 0.0
C686 C 0.60453 0.6941 0.08164 0.0
C687 C 0.61515 0.70083 0.09678 0.0
C688 C 0.6046 0.69009 0.10933 0.0
C689 C 0.58342 0.67257 0.10674 0.0
C690 C 0.57272 0.66579 0.09162 0.0
C691 C 0.54296 0.59168 0.01519 0.0
C692 C 0.53011 0.57468 0.0239 0.0
C693 C 0.55056 0.61308 0.02102 0.0
C694 C 0.54502 0.61786 0.03549 0.0
C695 C 0.53226 0.60087 0.04423 0.0
C696 C 0.52495 0.57949 0.03852 0.0
C697 C 0.55265 0.64056 0.04158 0.0
C698 C 0.56334 0.64802 0.05678 0.0
C699 C 0.54995 0.65497 0.0324 0.0
C700 C 0.53731 0.64777 0.01677 0.0
C701 C 0.5158 0.63045 0.01484 0.0
C702 C 0.50402 0.62365 1.00007 0.0
C703 C 0.51353 0.63415 0.98716 0.0
C704 C 0.53482 0.65152 0.98899 0.0
C705 C 0.54668 0.65836 0.00373 0.0
H706 H 0.50439 0.62886 0.97573 0.0
H707 H 0.61284 0.69533 0.12105 0.0
H708 H 0.80678 0.27239 0.95753 0.0
H709 H 0.8359 0.3087 0.96721 0.0
H710 H 0.87958 0.30033 0.939 0.0
H711 H 0.85063 0.26356 0.92967 0.0
H712 H 0.89892 0.31832 0.96783 0.0
H713 H 0.85841 0.33184 0.92846 0.0
H714 H 0.82572 0.32897 0.91454 0.0
H715 H 0.81498 0.35771 0.95565 0.0
H716 H 0.84745 0.36046 0.9699 0.0
H717 H 0.98 0.43045 0.97936 0.0
H718 H 0.95249 0.39447 0.96735 0.0
H719 H 0.90567 0.39595 0.99597 0.0
H720 H 0.93298 0.43188 0.00802 0.0
H721 H 0.88905 0.3819 0.96533 0.0
H722 H 0.92874 0.36672 0.0049 0.0
H723 H 0.96144 0.36949 0.01873 0.0
H724 H 0.97391 0.34399 0.9768 0.0
H725 H 0.94143 0.34136 0.96264 0.0
C726 C 0.82261 0.2782 0.95344 0.0
C727 C 0.82636 0.26504 0.94282 0.0
C728 C 0.8392 0.29907 0.95887 0.0
C729 C 0.85988 0.30737 0.95369 0.0
C730 C 0.86373 0.2943 0.9431 0.0
C731 C 0.84711 0.27336 0.93767 0.0
C732 C 0.87751 0.32955 0.9596 0.0
C733 C 0.89691 0.33228 0.96703 0.0
C734 C 0.87476 0.34772 0.95884 0.0
C735 C 0.85527 0.34619 0.95029 0.0
C736 C 0.84899 0.3374 0.93457 0.0
C737 C 0.83051 0.33582 0.92661 0.0
C738 C 0.81825 0.34311 0.93421 0.0
C739 C 0.82448 0.35205 0.94978 0.0
C740 C 0.84293 0.35365 0.9578 0.0
C741 C 0.96387 0.42313 0.98312 0.0
C742 C 0.95875 0.43406 0.9947 0.0
C743 C 0.94818 0.40253 0.97627 0.0
C744 C 0.92707 0.39248 0.98084 0.0
C745 C 0.92186 0.40341 0.99227 0.0
C746 C 0.93755 0.42393 0.99919 0.0
C747 C 0.91032 0.3706 0.97367 0.0
C748 C 0.8911 0.36794 0.96601 0.0
C749 C 0.91327 0.35252 0.97418 0.0
C750 C 0.9328 0.35408 0.98267 0.0
C751 C 0.93856 0.36189 0.99859 0.0
C752 C 0.95704 0.3634 0.00649 0.0
C753 C 0.96978 0.35699 0.99863 0.0
C754 C 0.96404 0.34899 0.98286 0.0
C755 C 0.9456 0.34748 0.97489 0.0
H756 H 0.98407 0.35816 0.00478 0.0
H757 H 0.80395 0.34187 0.92803 0.0
H758 H 0.70911 0.54308 0.92286 0.0
H759 H 0.6747 0.5358 0.93241 0.0
H760 H 0.70925 0.57399 0.97595 0.0
H761 H 0.74354 0.58079 0.96659 0.0
H762 H 0.67578 0.53773 0.98168 0.0
H763 H 0.68513 0.5926 0.94759 0.0
H764 H 0.6922 0.60832 0.92242 0.0
H765 H 0.6368 0.5509 0.89943 0.0
H766 H 0.62917 0.53499 0.92451 0.0
H767 H 0.58801 0.54238 0.01267 0.0
H768 H 0.62241 0.55124 0.00245 0.0
H769 H 0.58772 0.51446 0.95853 0.0
H770 H 0.55344 0.50617 0.96845 0.0
H771 H 0.62121 0.54991 0.95277 0.0
H772 H 0.61057 0.4955 0.98665 0.0
H773 H 0.60388 0.47852 0.01131 0.0
H774 H 0.66218 0.53309 0.0342 0.0
H775 H 0.66907 0.55053 0.00972 0.0
C776 C 0.70934 0.55017 0.93437 0.0
C777 C 0.729 0.56247 0.94398 0.0
C778 C 0.68967 0.54603 0.93983 0.0
C779 C 0.68931 0.55449 0.95489 0.0
C780 C 0.70903 0.56719 0.96434 0.0
C781 C 0.72863 0.57111 0.95896 0.0
C782 C 0.66842 0.54949 0.96109 0.0
C783 C 0.664 0.54072 0.97547 0.0
C784 C 0.65269 0.55272 0.95282 0.0
C785 C 0.65665 0.5626 0.93788 0.0
C786 C 0.67441 0.58338 0.93716 0.0
C787 C 0.67846 0.59234 0.92293 0.0
C788 C 0.66488 0.58065 0.90935 0.0
C789 C 0.64715 0.56002 0.90998 0.0
C790 C 0.64289 0.55106 0.92421 0.0
C791 C 0.5877 0.5361 1.00086 0.0
C792 C 0.56792 0.52349 0.99142 0.0
C793 C 0.60741 0.54112 0.99503 0.0
C794 C 0.60775 0.53331 0.97974 0.0
C795 C 0.58798 0.52073 0.97033 0.0
C796 C 0.56834 0.51592 0.97607 0.0
C797 C 0.62861 0.53831 0.97347 0.0
C798 C 0.633 0.54701 0.95905 0.0
C799 C 0.64428 0.53489 0.98168 0.0
C800 C 0.64021 0.52441 0.9964 0.0
C801 C 0.62188 0.50394 0.99697 0.0
C802 C 0.61806 0.49423 0.01091 0.0
C803 C 0.63257 0.50475 0.02432 0.0
C804 C 0.65095 0.52498 0.02381 0.0
C805 C 0.65482 0.53478 0.00991 0.0
H806 H 0.62959 0.4972 0.0351 0.0
H807 H 0.66811 0.58755 0.89832 0.0
H808 H 0.44121 0.16035 0.94215 0.0
H809 H 0.45183 0.13458 0.9504 0.0
H810 H 0.42497 0.13296 0.99403 0.0
H811 H 0.41296 0.15757 0.98559 0.0
H812 H 0.47373 0.14254 0.9928 0.0
H813 H 0.39675 0.09297 0.97555 0.0
H814 H 0.36476 0.0779 0.95601 0.0
H815 H 0.39827 0.06087 0.92339 0.0
H816 H 0.43059 0.07615 0.94268 0.0
H817 H 0.48498 0.06014 0.02579 0.0
H818 H 0.47253 0.08462 0.01759 0.0
H819 H 0.4674 0.0611 0.96934 0.0
H820 H 0.47864 0.03586 0.97757 0.0
H821 H 0.43478 0.06496 0.97264 0.0
H822 H 0.51042 0.11202 0.98719 0.0
H823 H 0.54513 0.12877 0.004 0.0
H824 H 0.51887 0.15284 0.03813 0.0
H825 H 0.48389 0.13599 0.0216 0.0
C826 C 0.43709 0.15421 0.95336 0.0
C827 C 0.42624 0.16119 0.96321 0.0
C828 C 0.44339 0.13965 0.9581 0.0
C829 C 0.43926 0.13208 0.97282 0.0
C830 C 0.42842 0.13884 0.98266 0.0
C831 C 0.42171 0.15303 0.97783 0.0
C832 C 0.44647 0.11721 0.97802 0.0
C833 C 0.46514 0.1255 0.98861 0.0
C834 C 0.43563 0.09527 0.972 0.0
C835 C 0.41615 0.08592 0.96048 0.0
C836 C 0.39737 0.08621 0.96416 0.0
C837 C 0.37916 0.07758 0.95314 0.0
C838 C 0.3795 0.06849 0.93845 0.0
C839 C 0.39803 0.06794 0.93476 0.0
C840 C 0.41629 0.07657 0.94573 0.0
C841 C 0.48119 0.06025 0.01345 0.0
C842 C 0.48273 0.04612 0.00231 0.0
C843 C 0.4742 0.07433 0.00875 0.0
C844 C 0.46933 0.075 0.9928 0.0
C845 C 0.47097 0.06088 0.9817 0.0
C846 C 0.47743 0.04648 0.98642 0.0
C847 C 0.46219 0.09012 0.98764 0.0
C848 C 0.44351 0.08195 0.97697 0.0
C849 C 0.47344 0.11235 0.99325 0.0
C850 C 0.49446 0.12256 0.00322 0.0
C851 C 0.512 0.12076 0.99833 0.0
C852 C 0.53173 0.13029 0.0078 0.0
C853 C 0.53418 0.14182 0.02214 0.0
C854 C 0.51693 0.14388 0.02703 0.0
C855 C 0.49715 0.13436 0.0176 0.0
H856 H 0.54947 0.14918 0.02946 0.0
H857 H 0.36539 0.06182 0.92993 0.0
H858 H 0.73566 0.14437 0.96884 0.0
H859 H 0.69988 0.11842 0.97605 0.0
H860 H 0.67084 0.14708 0.94783 0.0
H861 H 0.70695 0.17349 0.94096 0.0
H862 H 0.65659 0.14303 0.97508 0.0
H863 H 0.66172 0.09503 0.93777 0.0
H864 H 0.67792 0.0761 0.92423 0.0
H865 H 0.68085 0.04746 0.96599 0.0
H866 H 0.66495 0.06646 0.97986 0.0
H867 H 0.54825 0.05809 0.98217 0.0
H868 H 0.58244 0.08202 0.97187 0.0
H869 H 0.61742 0.06865 0.0079 0.0
H870 H 0.58316 0.04484 0.01851 0.0
H871 H 0.62714 0.06418 0.97542 0.0
H872 H 0.62186 0.11457 0.01228 0.0
H873 H 0.60284 0.13198 0.02373 0.0
H874 H 0.59721 0.15461 0.97964 0.0
H875 H 0.61594 0.13705 0.96786 0.0
C876 C 0.72152 0.14469 0.96385 0.0
C877 C 0.72383 0.16057 0.95419 0.0
C878 C 0.70107 0.12987 0.96797 0.0
C879 C 0.68253 0.1306 0.96239 0.0
C880 C 0.68485 0.14614 0.95227 0.0
C881 C 0.70539 0.16107 0.94822 0.0
C882 C 0.66117 0.11628 0.96814 0.0
C883 C 0.65002 0.12574 0.97489 0.0
C884 C 0.65262 0.09372 0.96814 0.0
C885 C 0.66234 0.08236 0.9599 0.0
C886 C 0.66601 0.08486 0.94411 0.0
C887 C 0.6751 0.07408 0.93637 0.0
C888 C 0.68047 0.06063 0.94426 0.0
C889 C 0.67672 0.05791 0.9599 0.0
C890 C 0.66765 0.06866 0.96771 0.0
C891 C 0.56323 0.06036 0.988 0.0
C892 C 0.56304 0.04962 1.00119 0.0
C893 C 0.58273 0.07404 0.98209 0.0
C894 C 0.60241 0.07706 0.98911 0.0
C895 C 0.60235 0.06648 0.00232 0.0
C896 C 0.58283 0.05304 0.00843 0.0
C897 C 0.62296 0.09105 0.98245 0.0
C898 C 0.63383 0.08149 0.97553 0.0
C899 C 0.63102 0.11341 0.982 0.0
C900 C 0.62012 0.12432 0.98915 0.0
C901 C 0.61643 0.12312 0.00499 0.0
C902 C 0.60572 0.13304 0.01155 0.0
C903 C 0.59876 0.14434 0.00241 0.0
C904 C 0.60259 0.14582 0.9867 0.0
C905 C 0.61327 0.13591 0.98008 0.0
H906 H 0.59045 0.15199 0.0075 0.0
H907 H 0.68749 0.05229 0.93824 0.0
H908 H 0.83979 0.55555 0.93287 0.0
H909 H 0.87042 0.54933 0.93876 0.0
H910 H 0.85982 0.54865 0.98755 0.0
H911 H 0.82987 0.55531 0.9817 0.0
H912 H 0.90152 0.5707 0.985 0.0
H913 H 0.84137 0.50145 0.96183 0.0
H914 H 0.8133 0.4769 0.94076 0.0
H915 H 0.86238 0.49027 0.90977 0.0
H916 H 0.89071 0.5151 0.93062 0.0
H917 H 0.94933 0.51554 0.01853 0.0
H918 H 0.92396 0.52621 0.00797 0.0
H919 H 0.94326 0.52309 0.96187 0.0
H920 H 0.96829 0.51179 0.9723 0.0
H921 H 0.90084 0.50621 0.96008 0.0
H922 H 0.96138 0.57217 0.98418 0.0
H923 H 0.98952 0.59627 0.00534 0.0
H924 H 0.94022 0.58949 0.03444 0.0
H925 H 0.91177 0.56511 0.01354 0.0
C926 C 0.84428 0.55427 0.94482 0.0
C927 C 0.83271 0.55595 0.95688 0.0
C928 C 0.86163 0.55059 0.94819 0.0
C929 C 0.86736 0.54832 0.96361 0.0
C930 C 0.85585 0.55041 0.97559 0.0
C931 C 0.83872 0.55417 0.97225 0.0
C932 C 0.88494 0.54336 0.96754 0.0
C933 C 0.90129 0.55653 0.9796 0.0
C934 C 0.88513 0.52526 0.9602 0.0
C935 C 0.86811 0.51031 0.94771 0.0
C936 C 0.84614 0.49927 0.95048 0.0
C937 C 0.8302 0.48528 0.93859 0.0
C938 C 0.83605 0.48208 0.92392 0.0
C939 C 0.85787 0.4928 0.92112 0.0
C940 C 0.87387 0.50682 0.93297 0.0
C941 C 0.94822 0.51712 0.00614 0.0
C942 C 0.96097 0.51291 0.9963 0.0
C943 C 0.93375 0.52334 1.00011 0.0
C944 C 0.93196 0.5259 0.98415 0.0
C945 C 0.94439 0.52134 0.97423 0.0
C946 C 0.95874 0.5149 0.98023 0.0
C947 C 0.917 0.53319 0.97787 0.0
C948 C 0.90125 0.52053 0.96536 0.0
C949 C 0.91736 0.5518 0.98478 0.0
C950 C 0.93444 0.5667 0.99731 0.0
C951 C 0.95654 0.57573 0.99512 0.0
C952 C 0.97255 0.58945 0.00707 0.0
C953 C 0.96666 0.59438 0.02123 0.0
C954 C 0.94476 0.58565 0.02346 0.0
C955 C 0.92868 0.57191 0.01156 0.0
H956 H 0.97908 0.60499 0.03047 0.0
H957 H 0.82368 0.47125 0.91472 0.0
H958 H 0.44164 0.27075 0.95339 0.0
H959 H 0.45276 0.30924 0.95408 0.0
H960 H 0.42124 0.30464 0.99602 0.0
H961 H 0.4099 0.26621 0.99513 0.0
H962 H 0.41539 0.33027 0.97754 0.0
H963 H 0.47524 0.32247 0.99803 0.0
H964 H 0.50184 0.31008 0.99726 0.0
H965 H 0.52713 0.34532 0.95783 0.0
H966 H 0.50045 0.35769 0.95824 0.0
H967 H 0.50721 0.44315 0.01293 0.0
H968 H 0.49326 0.4047 0.00609 0.0
H969 H 0.45385 0.40515 0.96627 0.0
H970 H 0.46737 0.44357 0.97322 0.0
H971 H 0.49472 0.38163 0.98177 0.0
H972 H 0.40633 0.3569 0.96094 0.0
H973 H 0.38015 0.36928 0.96498 0.0
H974 H 0.41258 0.39903 0.01071 0.0
H975 H 0.43876 0.38659 0.00701 0.0
C976 C 0.4368 0.278 0.96253 0.0
C977 C 0.42498 0.26584 0.9742 0.0
C978 C 0.4432 0.2999 0.96298 0.0
C979 C 0.43803 0.30984 0.97521 0.0
C980 C 0.42535 0.2973 0.98647 0.0
C981 C 0.41893 0.27543 0.98599 0.0
C982 C 0.44702 0.33353 0.97702 0.0
C983 C 0.43272 0.34152 0.97831 0.0
C984 C 0.46965 0.34819 0.97831 0.0
C985 C 0.48569 0.34079 0.97805 0.0
C986 C 0.48636 0.32743 0.98911 0.0
C987 C 0.50146 0.32044 0.98876 0.0
C988 C 0.51612 0.32685 0.97747 0.0
C989 C 0.51573 0.34033 0.96654 0.0
C990 C 0.50063 0.34734 0.96683 0.0
C991 C 0.49564 0.43512 0.00267 0.0
C992 C 0.48826 0.44638 0.9937 0.0
C993 C 0.48773 0.41314 0.99875 0.0
C994 C 0.47234 0.402 0.98578 0.0
C995 C 0.46545 0.41335 0.97649 0.0
C996 C 0.47323 0.43532 0.98047 0.0
C997 C 0.4631 0.3784 0.98233 0.0
C998 C 0.47736 0.37042 0.98072 0.0
C999 C 0.44047 0.36374 0.98116 0.0
C1000 C 0.42463 0.37102 0.98361 0.0
C1001 C 0.40782 0.36602 0.97187 0.0
C1002 C 0.39298 0.37305 0.9741 0.0
C1003 C 0.39474 0.385 0.98807 0.0
C1004 C 0.41128 0.38985 0.99987 0.0
C1005 C 0.42613 0.38283 0.99771 0.0
H1006 H 0.38327 0.39045 0.98976 0.0
H1007 H 0.52781 0.32143 0.97721 0.0
H1008 H 0.15994 0.73863 0.0474 0.0
H1009 H 0.1305 0.701 0.04495 0.0
H1010 H 0.16456 0.68763 0.08179 0.0
H1011 H 0.19429 0.72537 0.08398 0.0
H1012 H 0.15268 0.65893 0.0575 0.0
H1013 H 0.11641 0.68679 0.08695 0.0
H1014 H 0.10278 0.71128 0.09432 0.0
H1015 H 0.063 0.69193 0.05048 0.0
H1016 H 0.07664 0.66756 0.04272 0.0
H1017 H 0.06217 0.55038 0.05413 0.0
H1018 H 0.08878 0.58777 0.06423 0.0
H1019 H 0.07053 0.61049 0.02402 0.0
H1020 H 0.04426 0.57323 0.0137 0.0
H1021 H 0.07382 0.63342 0.0537 0.0
H1022 H 0.11297 0.60734 0.02412 0.0
H1023 H 0.12728 0.58326 0.01736 0.0
H1024 H 0.16267 0.60007 0.06287 0.0
H1025 H 0.14789 0.62359 0.07012 0.0
C1026 C 0.16081 0.72772 0.05521 0.0
C1027 C 0.17907 0.73469 0.06596 0.0
C1028 C 0.144 0.70626 0.05384 0.0
C1029 C 0.14518 0.69148 0.06329 0.0
C1030 C 0.16325 0.69874 0.07442 0.0
C1031 C 0.18012 0.72025 0.07574 0.0
C1032 C 0.12853 0.66817 0.06048 0.0
C1033 C 0.13544 0.6533 0.05705 0.0
C1034 C 0.10601 0.66084 0.05959 0.0
C1035 C 0.09768 0.67544 0.06421 0.0
C1036 C 0.10488 0.68787 0.07882 0.0
C1037 C 0.09713 0.70172 0.08308 0.0
C1038 C 0.08206 0.70319 0.07286 0.0
C1039 C 0.07468 0.69078 0.05838 0.0
C1040 C 0.0824 0.67693 0.05405 0.0
C1041 C 0.0638 0.56336 0.04747 0.0
C1042 C 0.0512 0.55889 0.03309 0.0
C1043 C 0.079 0.58467 0.05325 0.0
C1044 C 0.08157 0.60183 0.04486 0.0
C1045 C 0.06871 0.59744 0.03067 0.0
C1046 C 0.05382 0.57615 0.02476 0.0
C1047 C 0.09807 0.62441 0.05058 0.0
C1048 C 0.09109 0.63909 0.05447 0.0
C1049 C 0.12053 0.63153 0.05204 0.0
C1050 C 0.129 0.61695 0.04777 0.0
C1051 C 0.12347 0.60559 0.0328 0.0
C1052 C 0.13169 0.59205 0.02886 0.0
C1053 C 0.14575 0.59 0.03971 0.0
C1054 C 0.15164 0.60152 0.05451 0.0
C1055 C 0.14328 0.6149 0.05856 0.0
H1056 H 0.15217 0.57957 0.03662 0.0
H1057 H 0.07608 0.71392 0.07618 0.0
H1058 H 0.29408 0.48642 0.06362 0.0
H1059 H 0.33004 0.49772 0.05513 0.0
H1060 H 0.33369 0.44923 0.08033 0.0
H1061 H 0.29752 0.43786 0.0888 0.0
H1062 H 0.3742 0.48935 0.08202 0.0
H1063 H 0.31757 0.43709 0.0434 0.0
H1064 H 0.28397 0.42246 0.02554 0.0
H1065 H 0.31297 0.4792 1.00117 0.0
H1066 H 0.34665 0.49431 0.01905 0.0
H1067 H 0.45228 0.47831 0.04159 0.0
H1068 H 0.42009 0.4725 0.0537 0.0
H1069 H 0.41151 0.51332 0.02267 0.0
H1070 H 0.4436 0.5189 0.01023 0.0
H1071 H 0.37404 0.47855 0.02461 0.0
H1072 H 0.43158 0.53017 0.0616 0.0
H1073 H 0.46529 0.54576 0.07944 0.0
H1074 H 0.43544 0.49252 0.1071 0.0
H1075 H 0.40172 0.47629 0.08921 0.0
C1076 C 0.30284 0.47858 0.06766 0.0
C1077 C 0.29327 0.46145 0.07693 0.0
C1078 C 0.3233 0.48495 0.06275 0.0
C1079 C 0.33448 0.47419 0.06697 0.0
C1080 C 0.32538 0.45778 0.07696 0.0
C1081 C 0.30479 0.45133 0.08182 0.0
C1082 C 0.35467 0.47885 0.05985 0.0
C1083 C 0.37418 0.48677 0.06949 0.0
C1084 C 0.35473 0.47602 0.04346 0.0
C1085 C 0.33454 0.46692 0.03266 0.0
C1086 C 0.31671 0.44652 0.03432 0.0
C1087 C 0.29767 0.43813 0.02418 0.0
C1088 C 0.29631 0.44992 0.01226 0.0
C1089 C 0.31403 0.47011 0.01043 0.0
C1090 C 0.3331 0.47858 0.02055 0.0
C1091 C 0.44358 0.48607 0.03728 0.0
C1092 C 0.45059 0.49908 0.02488 0.0
C1093 C 0.42521 0.48284 0.04433 0.0
C1094 C 0.41349 0.49273 0.0393 0.0
C1095 C 0.4203 0.50556 0.02682 0.0
C1096 C 0.43867 0.50874 0.01969 0.0
C1097 C 0.39377 0.48911 0.04674 0.0
C1098 C 0.37423 0.48128 0.03715 0.0
C1099 C 0.3938 0.49221 0.06317 0.0
C1100 C 0.41415 0.50187 0.07393 0.0
C1101 C 0.43227 0.52163 0.07137 0.0
C1102 C 0.45139 0.53059 0.0815 0.0
C1103 C 0.45254 0.52007 0.09433 0.0
C1104 C 0.43457 0.50059 0.09709 0.0
C1105 C 0.41544 0.49149 0.08696 0.0
H1106 H 0.4673 0.52714 0.10221 0.0
H1107 H 0.28156 0.4434 0.00441 0.0
H1108 H 0.59408 0.86101 0.07922 0.0
H1109 H 0.57956 0.8851 0.07406 0.0
H1110 H 0.57599 0.86933 0.02445 0.0
H1111 H 0.59074 0.84566 0.02964 0.0
H1112 H 0.59277 0.9118 0.03139 0.0
H1113 H 0.53076 0.84653 0.0442 0.0
H1114 H 0.51049 0.81755 0.06081 0.0
H1115 H 0.51663 0.8645 0.09709 0.0
H1116 H 0.5372 0.8938 0.08077 0.0
H1117 H 0.52522 0.94998 1.00171 0.0
H1118 H 0.53963 0.92663 0.00863 0.0
H1119 H 0.53865 0.94242 0.05754 0.0
H1120 H 0.52362 0.96522 0.05072 0.0
H1121 H 0.52516 0.90112 0.05212 0.0
H1122 H 0.58615 0.96634 0.03935 0.0
H1123 H 0.60638 0.99559 0.02293 0.0
H1124 H 0.60273 0.94939 0.98707 0.0
H1125 H 0.5822 0.91982 0.0032 0.0
C1126 C 0.59022 0.86286 0.06726 0.0
C1127 C 0.59343 0.8517 0.05478 0.0
C1128 C 0.58187 0.87647 0.06431 0.0
C1129 C 0.57653 0.87886 0.04886 0.0
C1130 C 0.58002 0.86776 0.03644 0.0
C1131 C 0.58838 0.85425 0.0394 0.0
C1132 C 0.56727 0.89285 0.04546 0.0
C1133 C 0.57788 0.90934 0.0358 0.0
C1134 C 0.54814 0.88997 0.05154 0.0
C1135 C 0.53572 0.87236 0.06133 0.0
C1136 C 0.52794 0.85068 0.05577 0.0
C1137 C 0.51637 0.8342 0.06512 0.0
C1138 C 0.51233 0.83918 0.08001 0.0
C1139 C 0.51981 0.86066 0.08556 0.0
C1140 C 0.5314 0.87721 0.07626 0.0
C1141 C 0.528 0.94842 0.01393 0.0
C1142 C 0.52341 0.95957 0.02566 0.0
C1143 C 0.53634 0.93515 0.01788 0.0
C1144 C 0.54061 0.93309 0.03362 0.0
C1145 C 0.53555 0.94381 0.04532 0.0
C1146 C 0.52699 0.95688 0.04139 0.0
C1147 C 0.55056 0.91995 0.03792 0.0
C1148 C 0.54011 0.90366 0.04776 0.0
C1149 C 0.56991 0.92306 0.03207 0.0
C1150 C 0.58249 0.94085 0.02243 0.0
C1151 C 0.58955 0.9624 0.02793 0.0
C1152 C 0.60108 0.97904 0.01868 0.0
C1153 C 0.6058 0.97434 0.00396 0.0
C1154 C 0.59905 0.953 0.99847 0.0
C1155 C 0.58749 0.9363 0.00767 0.0
H1156 H 0.61472 0.98725 0.99681 0.0
H1157 H 0.50337 0.8264 0.08723 0.0
H1158 H 0.95242 0.1482 0.39058 0.0
H1159 H 0.98607 0.17369 0.38062 0.0
H1160 H 0.98882 0.22582 0.41022 0.0
H1161 H 0.95435 0.20047 0.41965 0.0
H1162 H 0.99814 0.23783 0.3822 0.0
H1163 H 0.0224 0.20399 0.4183 0.0
H1164 H 0.02259 0.17356 0.43005 0.0
H1165 H 0.03646 0.15305 0.38659 0.0
H1166 H 0.03607 0.18321 0.37451 0.0
H1167 H 0.10804 0.3156 0.37764 0.0
H1168 H 0.07354 0.28909 0.38596 0.0
H1169 H 0.07031 0.24032 0.35237 0.0
H1170 H 0.1052 0.2669 0.34395 0.0
H1171 H 0.061 0.22609 0.38144 0.0
H1172 H 0.03792 0.26123 0.34579 0.0
H1173 H 0.03827 0.29224 0.33459 0.0
H1174 H 0.02281 0.31097 0.37803 0.0
H1175 H 0.02266 0.28024 0.38957 0.0
C1176 C 0.96004 0.16511 0.39492 0.0
C1177 C 0.95052 0.17225 0.40588 0.0
C1178 C 0.9795 0.17966 0.38934 0.0
C1179 C 0.9902 0.2017 0.39478 0.0
C1180 C 0.98091 0.20889 0.40586 0.0
C1181 C 0.9613 0.19433 0.41137 0.0
C1182 C 0.01075 0.21726 0.38858 0.0
C1183 C 0.01198 0.2354 0.38226 0.0
C1184 C 0.02866 0.21384 0.38821 0.0
C1185 C 0.029 0.19575 0.39546 0.0
C1186 C 0.02533 0.1929 0.41122 0.0
C1187 C 0.0255 0.17571 0.41794 0.0
C1188 C 0.02948 0.16135 0.40906 0.0
C1189 C 0.03336 0.16418 0.39345 0.0
C1190 C 0.03318 0.18133 0.38666 0.0
C1191 C 0.10002 0.29928 0.3719 0.0
C1192 C 0.10945 0.29342 0.36008 0.0
C1193 C 0.08019 0.28414 0.37666 0.0
C1194 C 0.06921 0.26276 0.3697 0.0
C1195 C 0.07849 0.25677 0.35787 0.0
C1196 C 0.09837 0.272 0.35303 0.0
C1197 C 0.04838 0.24666 0.37519 0.0
C1198 C 0.0471 0.22845 0.38137 0.0
C1199 C 0.03049 0.25007 0.37552 0.0
C1200 C 0.03047 0.26852 0.36859 0.0
C1201 C 0.03476 0.27205 0.353 0.0
C1202 C 0.03489 0.28957 0.34658 0.0
C1203 C 0.03061 0.30359 0.3556 0.0
C1204 C 0.02614 0.3001 0.37105 0.0
C1205 C 0.02601 0.28262 0.37754 0.0
H1206 H 0.03073 0.31714 0.35061 0.0
H1207 H 0.0296 0.14805 0.41429 0.0
H1208 H 0.82273 0.75767 0.42819 0.0
H1209 H 0.79497 0.76513 0.41754 0.0
H1210 H 0.84123 0.81236 0.39045 0.0
H1211 H 0.86947 0.80566 0.40162 0.0
H1212 H 0.81734 0.82719 0.4029 0.0
H1213 H 0.80226 0.76162 0.37364 0.0
H1214 H 0.79521 0.72426 0.36973 0.0
H1215 H 0.73799 0.70213 0.39367 0.0
H1216 H 0.74486 0.73942 0.39792 0.0
H1217 H 0.73916 0.8343 0.35205 0.0
H1218 H 0.76761 0.82737 0.36222 0.0
H1219 H 0.72402 0.78333 0.39232 0.0
H1220 H 0.69539 0.79009 0.38219 0.0
H1221 H 0.74683 0.76709 0.37775 0.0
H1222 H 0.76254 0.83324 0.40707 0.0
H1223 H 0.76958 0.87063 0.41031 0.0
H1224 H 0.82586 0.8917 0.38542 0.0
H1225 H 0.81897 0.85434 0.38181 0.0
C1226 C 0.82717 0.76989 0.42014 0.0
C1227 C 0.84844 0.7811 0.41582 0.0
C1228 C 0.81114 0.77394 0.41389 0.0
C1229 C 0.81586 0.78909 0.40299 0.0
C1230 C 0.83714 0.80053 0.39879 0.0
C1231 C 0.85323 0.79655 0.40509 0.0
C1232 C 0.79859 0.79294 0.39602 0.0
C1233 C 0.80206 0.81407 0.3972 0.0
C1234 C 0.77843 0.77582 0.38881 0.0
C1235 C 0.77419 0.75335 0.38622 0.0
C1236 C 0.78826 0.74881 0.37817 0.0
C1237 C 0.78428 0.72764 0.37588 0.0
C1238 C 0.76619 0.71084 0.38148 0.0
C1239 C 0.75201 0.71517 0.38935 0.0
C1240 C 0.75593 0.73631 0.39169 0.0
C1241 C 0.73555 0.82308 0.36081 0.0
C1242 C 0.71495 0.81281 0.36633 0.0
C1243 C 0.7519 0.81921 0.36665 0.0
C1244 C 0.74804 0.80499 0.37815 0.0
C1245 C 0.72739 0.79439 0.38347 0.0
C1246 C 0.71105 0.79833 0.37769 0.0
C1247 C 0.76558 0.80128 0.3847 0.0
C1248 C 0.76215 0.78018 0.38343 0.0
C1249 C 0.7858 0.81844 0.39174 0.0
C1250 C 0.79011 0.84095 0.39404 0.0
C1251 C 0.77632 0.84581 0.40218 0.0
C1252 C 0.7803 0.86701 0.4041 0.0
C1253 C 0.79812 0.88352 0.39804 0.0
C1254 C 0.81205 0.87889 0.39009 0.0
C1255 C 0.80812 0.85771 0.38811 0.0
H1256 H 0.80117 0.89992 0.39953 0.0
H1257 H 0.76314 0.69446 0.37969 0.0
H1258 H 0.28256 0.09234 0.39512 0.0
H1259 H 0.26927 0.05495 0.38458 0.0
H1260 H 0.20385 0.03885 0.39214 0.0
H1261 H 0.21749 0.0761 0.40348 0.0
H1262 H 0.20944 0.00829 0.40039 0.0
H1263 H 0.22338 0.04535 0.35463 0.0
H1264 H 0.24434 0.07339 0.33756 0.0
H1265 H 0.29161 0.05297 0.33717 0.0
H1266 H 0.27108 0.02499 0.35442 0.0
H1267 H 0.16217 0.90928 0.34869 0.0
H1268 H 0.17382 0.94688 0.35778 0.0
H1269 H 0.2388 0.95934 0.36994 0.0
H1270 H 0.22718 0.92164 0.36131 0.0
H1271 H 0.23151 0.99092 0.35057 0.0
H1272 H 0.21668 0.95487 0.39821 0.0
H1273 H 0.19333 0.92585 0.41382 0.0
H1274 H 0.1444 0.94389 0.40848 0.0
H1275 H 0.16736 0.97283 0.39261 0.0
C1276 C 0.26535 0.08074 0.39443 0.0
C1277 C 0.25094 0.08689 0.39993 0.0
C1278 C 0.25773 0.05945 0.38834 0.0
C1279 C 0.23546 0.0441 0.38724 0.0
C1280 C 0.22107 0.05036 0.3928 0.0
C1281 C 0.22879 0.07158 0.3992 0.0
C1282 C 0.22733 0.02144 0.38069 0.0
C1283 C 0.21404 0.00458 0.38937 0.0
C1284 C 0.23341 0.01643 0.36636 0.0
C1285 C 0.24577 0.03318 0.35593 0.0
C1286 C 0.23832 0.04693 0.35099 0.0
C1287 C 0.25012 0.0628 0.34127 0.0
C1288 C 0.26932 0.06499 0.33631 0.0
C1289 C 0.27674 0.05127 0.34103 0.0
C1290 C 0.26502 0.03538 0.35077 0.0
C1291 C 0.17896 0.92007 0.35325 0.0
C1292 C 0.19379 0.91259 0.35433 0.0
C1293 C 0.18554 0.94147 0.35843 0.0
C1294 C 0.20713 0.95575 0.36448 0.0
C1295 C 0.22208 0.94847 0.36526 0.0
C1296 C 0.2154 0.92697 0.36041 0.0
C1297 C 0.214 0.97818 0.37036 0.0
C1298 C 0.22694 0.99486 0.36153 0.0
C1299 C 0.2073 0.98301 0.38436 0.0
C1300 C 0.19363 0.96585 0.39409 0.0
C1301 C 0.20086 0.95253 0.40024 0.0
C1302 C 0.18772 0.93612 0.40916 0.0
C1303 C 0.16739 0.93301 0.41211 0.0
C1304 C 0.16016 0.94632 0.40617 0.0
C1305 C 0.17324 0.96273 0.39722 0.0
H1306 H 0.15727 0.92035 0.41905 0.0
H1307 H 0.27843 0.07729 0.32879 0.0
H1308 H 0.46994 0.59439 0.29978 0.0
H1309 H 0.49669 0.63074 0.31191 0.0
H1310 H 0.54212 0.63386 0.27995 0.0
H1311 H 0.51586 0.59753 0.26813 0.0
H1312 H 0.56178 0.6484 0.30904 0.0
H1313 H 0.51352 0.66006 0.27465 0.0
H1314 H 0.47805 0.65468 0.2642 0.0
H1315 H 0.46961 0.677 0.30913 0.0
H1316 H 0.50493 0.68223 0.3199 0.0
H1317 H 0.63755 0.76074 0.31601 0.0
H1318 H 0.6096 0.72384 0.30626 0.0
H1319 H 0.568 0.72565 0.33983 0.0
H1320 H 0.59572 0.76257 0.34957 0.0
H1321 H 0.54563 0.70821 0.31152 0.0
H1322 H 0.59452 0.69817 0.34568 0.0
H1323 H 0.62991 0.70351 0.35628 0.0
H1324 H 0.63707 0.67797 0.31215 0.0
H1325 H 0.60184 0.67278 0.3012 0.0
C1326 C 0.48567 0.60282 0.2954 0.0
C1327 C 0.49065 0.59315 0.28287 0.0
C1328 C 0.50088 0.62363 0.30227 0.0
C1329 C 0.52135 0.63513 0.29673 0.0
C1330 C 0.52643 0.62536 0.28439 0.0
C1331 C 0.51128 0.60465 0.27753 0.0
C1332 C 0.53761 0.65735 0.30369 0.0
C1333 C 0.55832 0.66153 0.30944 0.0
C1334 C 0.53294 0.67438 0.30459 0.0
C1335 C 0.51175 0.67131 0.29812 0.0
C1336 C 0.50402 0.66366 0.28233 0.0
C1337 C 0.48396 0.66066 0.27635 0.0
C1338 C 0.47155 0.66544 0.28601 0.0
C1339 C 0.47922 0.67327 0.30166 0.0
C1340 C 0.49926 0.67627 0.30771 0.0
C1341 C 0.62248 0.75332 0.32134 0.0
C1342 C 0.61897 0.76465 0.33364 0.0
C1343 C 0.60653 0.73217 0.31578 0.0
C1344 C 0.58678 0.72188 0.32243 0.0
C1345 C 0.58312 0.73324 0.33454 0.0
C1346 C 0.59905 0.75435 0.34013 0.0
C1347 C 0.56989 0.69931 0.31668 0.0
C1348 C 0.54907 0.69507 0.31119 0.0
C1349 C 0.57444 0.6822 0.31603 0.0
C1350 C 0.59563 0.68529 0.32258 0.0
C1351 C 0.60372 0.69387 0.33819 0.0
C1352 C 0.62374 0.69683 0.34427 0.0
C1353 C 0.63576 0.69114 0.33488 0.0
C1354 C 0.62775 0.68241 0.3194 0.0
C1355 C 0.60776 0.67943 0.31326 0.0
H1356 H 0.65125 0.69344 0.33961 0.0
H1357 H 0.45602 0.66311 0.28135 0.0
H1358 H 0.38934 0.9155 0.26341 0.0
H1359 H 0.35493 0.90841 0.27274 0.0
H1360 H 0.35465 0.85957 0.29978 0.0
H1361 H 0.38838 0.86579 0.28991 0.0
H1362 H 0.31516 0.84618 0.28752 0.0
H1363 H 0.37115 0.91194 0.31632 0.0
H1364 H 0.40235 0.9491 0.31971 0.0
H1365 H 0.3641 0.97142 0.29542 0.0
H1366 H 0.33274 0.93432 0.2917 0.0
H1367 H 0.24051 0.84172 0.34067 0.0
H1368 H 0.27387 0.848 0.32979 0.0
H1369 H 0.26871 0.89102 0.2992 0.0
H1370 H 0.23546 0.88488 0.30994 0.0
H1371 H 0.31051 0.90741 0.31298 0.0
H1372 H 0.25411 0.84106 0.28495 0.0
H1373 H 0.22298 0.8039 0.2826 0.0
H1374 H 0.26243 0.78267 0.3066 0.0
H1375 H 0.29372 0.8198 0.3093 0.0
C1376 C 0.38178 0.90298 0.27112 0.0
C1377 C 0.39184 0.89138 0.276 0.0
C1378 C 0.36219 0.89912 0.27661 0.0
C1379 C 0.35233 0.88375 0.28725 0.0
C1380 C 0.36193 0.87162 0.29168 0.0
C1381 C 0.38139 0.87536 0.28613 0.0
C1382 C 0.3323 0.88055 0.29405 0.0
C1383 C 0.31428 0.85957 0.29324 0.0
C1384 C 0.33087 0.89799 0.30133 0.0
C1385 C 0.34967 0.92032 0.3036 0.0
C1386 C 0.36944 0.92475 0.3116 0.0
C1387 C 0.38715 0.9458 0.3136 0.0
C1388 C 0.38523 0.9626 0.30774 0.0
C1389 C 0.36557 0.95839 0.29992 0.0
C1390 C 0.34782 0.93735 0.29788 0.0
C1391 C 0.24653 0.85262 0.33169 0.0
C1392 C 0.23522 0.86274 0.32617 0.0
C1393 C 0.26556 0.85611 0.32543 0.0
C1394 C 0.27371 0.86985 0.31357 0.0
C1395 C 0.26274 0.88035 0.30832 0.0
C1396 C 0.24366 0.87675 0.31447 0.0
C1397 C 0.29351 0.8731 0.30648 0.0
C1398 C 0.31144 0.89406 0.30724 0.0
C1399 C 0.29491 0.85564 0.29926 0.0
C1400 C 0.2762 0.83325 0.29746 0.0
C1401 C 0.25611 0.8285 0.28983 0.0
C1402 C 0.23844 0.80744 0.28842 0.0
C1403 C 0.24071 0.79095 0.29448 0.0
C1404 C 0.26068 0.79547 0.30192 0.0
C1405 C 0.2784 0.81652 0.30339 0.0
H1406 H 0.22701 0.77465 0.29339 0.0
H1407 H 0.39895 0.97889 0.3093 0.0
H1408 H 0.07701 0.47506 0.28334 0.0
H1409 H 0.08772 0.44963 0.29251 0.0
H1410 H 0.14651 0.50274 0.31679 0.0
H1411 H 0.13592 0.52822 0.30763 0.0
H1412 H 0.15278 0.47172 0.29963 0.0
H1413 H 0.10675 0.47493 0.33721 0.0
H1414 H 0.07323 0.4726 0.34544 0.0
H1415 H 0.03642 0.40651 0.32553 0.0
H1416 H 0.0697 0.40855 0.31697 0.0
H1417 H 0.18262 0.41284 0.34978 0.0
H1418 H 0.17244 0.43863 0.34053 0.0
H1419 H 0.11263 0.3859 0.31714 0.0
H1420 H 0.12273 0.36013 0.32615 0.0
H1421 H 0.10691 0.41675 0.33372 0.0
H1422 H 0.15157 0.41205 0.29682 0.0
H1423 H 0.1839 0.41337 0.28707 0.0
H1424 H 0.22194 0.48084 0.30329 0.0
H1425 H 0.19005 0.47974 0.31372 0.0
C1426 C 0.09229 0.48129 0.29053 0.0
C1427 C 0.10561 0.50357 0.29485 0.0
C1428 C 0.09833 0.46678 0.29581 0.0
C1429 C 0.11783 0.47435 0.3054 0.0
C1430 C 0.13139 0.49662 0.30941 0.0
C1431 C 0.12526 0.5111 0.30427 0.0
C1432 C 0.1239 0.45902 0.31152 0.0
C1433 C 0.14297 0.4599 0.30728 0.0
C1434 C 0.11069 0.44324 0.32111 0.0
C1435 C 0.09068 0.44196 0.32631 0.0
C1436 C 0.09148 0.45996 0.33447 0.0
C1437 C 0.07253 0.45868 0.33921 0.0
C1438 C 0.0527 0.43944 0.33597 0.0
C1439 C 0.05178 0.42142 0.32801 0.0
C1440 C 0.07069 0.42262 0.32322 0.0
C1441 C 0.16724 0.40677 0.34278 0.0
C1442 C 0.1535 0.3845 0.33865 0.0
C1443 C 0.1615 0.42149 0.33745 0.0
C1444 C 0.14186 0.41412 0.32808 0.0
C1445 C 0.12786 0.39188 0.32434 0.0
C1446 C 0.13371 0.37721 0.32946 0.0
C1447 C 0.13593 0.42955 0.32196 0.0
C1448 C 0.11684 0.42865 0.32616 0.0
C1449 C 0.14903 0.44514 0.31219 0.0
C1450 C 0.16845 0.44572 0.30631 0.0
C1451 C 0.16691 0.42708 0.2986 0.0
C1452 C 0.18518 0.42779 0.29293 0.0
C1453 C 0.20502 0.44713 0.29468 0.0
C1454 C 0.20663 0.46581 0.30209 0.0
C1455 C 0.18847 0.46514 0.30792 0.0
H1456 H 0.2191 0.44768 0.2902 0.0
H1457 H 0.03804 0.43848 0.33966 0.0
H1458 H 0.41056 0.49077 0.31859 0.0
H1459 H 0.37457 0.46881 0.32735 0.0
H1460 H 0.34476 0.47303 0.28362 0.0
H1461 H 0.38099 0.49523 0.27489 0.0
H1462 H 0.32473 0.47772 0.30888 0.0
H1463 H 0.34642 0.42818 0.28916 0.0
H1464 H 0.37072 0.41317 0.28675 0.0
H1465 H 0.36875 0.40286 0.33532 0.0
H1466 H 0.34468 0.4181 0.33807 0.0
H1467 H 0.21913 0.38857 0.31496 0.0
H1468 H 0.25446 0.4135 0.30664 0.0
H1469 H 0.28616 0.41009 0.34971 0.0
H1470 H 0.25082 0.38507 0.35816 0.0
H1471 H 0.30487 0.40509 0.32432 0.0
H1472 H 0.28362 0.45451 0.34434 0.0
H1473 H 0.25958 0.4697 0.34726 0.0
H1474 H 0.26069 0.48028 0.29875 0.0
H1475 H 0.28448 0.46478 0.29546 0.0
C1476 C 0.39629 0.48713 0.31093 0.0
C1477 C 0.39834 0.49455 0.29612 0.0
C1478 C 0.37576 0.47453 0.3159 0.0
C1479 C 0.35693 0.46903 0.30606 0.0
C1480 C 0.35905 0.47704 0.29138 0.0
C1481 C 0.37966 0.48965 0.2864 0.0
C1482 C 0.33514 0.4544 0.31101 0.0
C1483 C 0.32025 0.46171 0.31203 0.0
C1484 C 0.32946 0.43369 0.31547 0.0
C1485 C 0.34392 0.42449 0.31385 0.0
C1486 C 0.35131 0.42288 0.29935 0.0
C1487 C 0.36502 0.4143 0.29792 0.0
C1488 C 0.37132 0.40712 0.31088 0.0
C1489 C 0.36388 0.40846 0.32529 0.0
C1490 C 0.35019 0.41705 0.32679 0.0
C1491 C 0.23359 0.39317 0.32272 0.0
C1492 C 0.23212 0.3848 0.33725 0.0
C1493 C 0.25379 0.40752 0.31796 0.0
C1494 C 0.27297 0.41378 0.32759 0.0
C1495 C 0.27157 0.40549 0.3421 0.0
C1496 C 0.25135 0.39126 0.34694 0.0
C1497 C 0.2945 0.42844 0.32229 0.0
C1498 C 0.30932 0.42109 0.32116 0.0
C1499 C 0.30009 0.44909 0.31776 0.0
C1500 C 0.28568 0.4583 0.31962 0.0
C1501 C 0.27857 0.45987 0.33425 0.0
C1502 C 0.26502 0.46857 0.33598 0.0
C1503 C 0.25859 0.47592 0.3232 0.0
C1504 C 0.26568 0.47456 0.30864 0.0
C1505 C 0.27921 0.46583 0.30683 0.0
H1506 H 0.2482 0.48275 0.32462 0.0
H1507 H 0.38192 0.40047 0.30974 0.0
H1508 H 0.51351 0.90312 0.27105 0.0
H1509 H 0.54181 0.89374 0.2776 0.0
H1510 H 0.51178 0.8674 0.319 0.0
H1511 H 0.48377 0.87669 0.31248 0.0
H1512 H 0.55586 0.89566 0.32503 0.0
H1513 H 0.50671 0.83452 0.28683 0.0
H1514 H 0.48716 0.8183 0.26066 0.0
H1515 H 0.54752 0.84777 0.24027 0.0
H1516 H 0.56741 0.86426 0.26632 0.0
H1517 H 0.60554 0.83972 0.35361 0.0
H1518 H 0.57994 0.8502 0.34311 0.0
H1519 H 0.6091 0.86117 0.2997 0.0
H1520 H 0.63396 0.84956 0.30989 0.0
H1521 H 0.56868 0.84428 0.29279 0.0
H1522 H 0.61886 0.90365 0.32845 0.0
H1523 H 0.64131 0.92269 0.35327 0.0
H1524 H 0.58383 0.90218 0.37669 0.0
H1525 H 0.56102 0.88272 0.35203 0.0
C1526 C 0.51294 0.89509 0.28142 0.0
C1527 C 0.49655 0.89047 0.29127 0.0
C1528 C 0.52904 0.88975 0.28516 0.0
C1529 C 0.5289 0.87983 0.2988 0.0
C1530 C 0.51227 0.87507 0.30846 0.0
C1531 C 0.49624 0.88029 0.3047 0.0
C1532 C 0.54627 0.87491 0.30351 0.0
C1533 C 0.55856 0.88429 0.31805 0.0
C1534 C 0.55052 0.86086 0.2941 0.0
C1535 C 0.53851 0.8508 0.27849 0.0
C1536 C 0.51579 0.83765 0.27675 0.0
C1537 C 0.50466 0.82836 0.26194 0.0
C1538 C 0.51609 0.83202 0.2488 0.0
C1539 C 0.53869 0.84492 0.25045 0.0
C1540 C 0.5499 0.85422 0.26523 0.0
C1541 C 0.60648 0.84435 0.34183 0.0
C1542 C 0.62186 0.84393 0.33263 0.0
C1543 C 0.59191 0.85049 0.33584 0.0
C1544 C 0.59282 0.85703 0.32069 0.0
C1545 C 0.60801 0.85629 0.31142 0.0
C1546 C 0.62228 0.84969 0.31728 0.0
C1547 C 0.57792 0.86455 0.31459 0.0
C1548 C 0.56618 0.85579 0.29978 0.0
C1549 C 0.57461 0.8797 0.32355 0.0
C1550 C 0.58823 0.89158 0.3384 0.0
C1551 C 0.611 0.9031 0.33891 0.0
C1552 C 0.62379 0.91398 0.35295 0.0
C1553 C 0.614 0.91362 0.36656 0.0
C1554 C 0.59139 0.90243 0.36614 0.0
C1555 C 0.57852 0.89149 0.35212 0.0
H1556 H 0.62394 0.92204 0.37742 0.0
H1557 H 0.50744 0.82484 0.23735 0.0
H1558 H 0.11683 0.61303 0.28408 0.0
H1559 H 0.12616 0.6511 0.28599 0.0
H1560 H 0.09317 0.64216 0.32762 0.0
H1561 H 0.08356 0.60414 0.32548 0.0
H1562 H 0.0862 0.66797 0.31025 0.0
H1563 H 0.14801 0.66295 0.3297 0.0
H1564 H 0.17617 0.65268 0.32848 0.0
H1565 H 0.20056 0.69063 0.29012 0.0
H1566 H 0.17233 0.7009 0.29098 0.0
H1567 H 0.14032 0.77359 0.35008 0.0
H1568 H 0.12729 0.73537 0.34253 0.0
H1569 H 0.156 0.75122 0.29916 0.0
H1570 H 0.16898 0.78949 0.30655 0.0
H1571 H 0.16472 0.72252 0.31489 0.0
H1572 H 0.10383 0.73005 0.29773 0.0
H1573 H 0.07638 0.74096 0.30072 0.0
H1574 H 0.05086 0.69869 0.33667 0.0
H1575 H 0.07839 0.68776 0.33407 0.0
C1576 C 0.11124 0.61922 0.2934 0.0
C1577 C 0.09949 0.60595 0.30462 0.0
C1578 C 0.11667 0.64091 0.29456 0.0
C1579 C 0.11063 0.64955 0.30709 0.0
C1580 C 0.09799 0.63586 0.31787 0.0
C1581 C 0.09251 0.61421 0.31666 0.0
C1582 C 0.11853 0.67304 0.30962 0.0
C1583 C 0.10337 0.67988 0.31134 0.0
C1584 C 0.14093 0.68863 0.31083 0.0
C1585 C 0.15789 0.68246 0.31027 0.0
C1586 C 0.15926 0.66895 0.32092 0.0
C1587 C 0.17525 0.66315 0.3203 0.0
C1588 C 0.1901 0.67093 0.30919 0.0
C1589 C 0.18902 0.68457 0.29869 0.0
C1590 C 0.17303 0.69039 0.29924 0.0
C1591 C 0.1439 0.76897 0.33895 0.0
C1592 C 0.1556 0.78454 0.32888 0.0
C1593 C 0.13636 0.74713 0.33463 0.0
C1594 C 0.14052 0.74051 0.32023 0.0
C1595 C 0.15256 0.75604 0.31029 0.0
C1596 C 0.1599 0.77786 0.31452 0.0
C1597 C 0.1324 0.71735 0.31564 0.0
C1598 C 0.14753 0.7106 0.31358 0.0
C1599 C 0.11002 0.70185 0.31431 0.0
C1600 C 0.0933 0.70822 0.31579 0.0
C1601 C 0.09247 0.7232 0.30636 0.0
C1602 C 0.07688 0.72937 0.30797 0.0
C1603 C 0.06191 0.72056 0.3189 0.0
C1604 C 0.06247 0.70552 0.32822 0.0
C1605 C 0.07805 0.69931 0.32667 0.0
H1606 H 0.04986 0.72537 0.32013 0.0
H1607 H 0.20248 0.66644 0.30874 0.0
H1608 H 0.85268 0.06104 0.41625 0.0
H1609 H 0.82314 0.02317 0.41368 0.0
H1610 H 0.79525 0.03378 0.37162 0.0
H1611 H 0.82445 0.07159 0.37442 0.0
H1612 H 0.76391 0.00791 0.38796 0.0
H1613 H 0.82844 0.01178 0.3705 0.0
H1614 H 0.86679 0.02107 0.37286 0.0
H1615 H 0.8556 0.98192 0.41086 0.0
H1616 H 0.81722 0.97263 0.40887 0.0
H1617 H 0.70773 0.90402 0.34551 0.0
H1618 H 0.73372 0.94181 0.35459 0.0
H1619 H 0.74895 0.92282 0.39796 0.0
H1620 H 0.72281 0.88492 0.38903 0.0
H1621 H 0.78571 0.95213 0.38397 0.0
H1622 H 0.71916 0.94525 0.39873 0.0
H1623 H 0.68069 0.93528 0.39456 0.0
H1624 H 0.6956 0.9796 0.3597 0.0
H1625 H 0.73413 0.9896 0.36348 0.0
C1626 C 0.83993 0.05527 0.40668 0.0
C1627 C 0.84059 0.06898 0.39555 0.0
C1628 C 0.82318 0.03367 0.40514 0.0
C1629 C 0.80713 0.02553 0.39232 0.0
C1630 C 0.8074 0.03966 0.3816 0.0
C1631 C 0.82405 0.06121 0.38319 0.0
C1632 C 0.79081 0.00211 0.38941 0.0
C1633 C 0.7687 0.99574 0.38702 0.0
C1634 C 0.79698 0.98613 0.38842 0.0
C1635 C 0.82005 0.99175 0.38968 0.0
C1636 C 0.83421 0.00531 0.37946 0.0
C1637 C 0.85594 0.01055 0.38071 0.0
C1638 C 0.86365 0.00215 0.39204 0.0
C1639 C 0.84962 0.98846 0.40212 0.0
C1640 C 0.82788 0.9832 0.40093 0.0
C1641 C 0.71659 0.90785 0.35698 0.0
C1642 C 0.71318 0.89147 0.36656 0.0
C1643 C 0.73135 0.92947 0.36218 0.0
C1644 C 0.74309 0.9351 0.377 0.0
C1645 C 0.73997 0.91879 0.38651 0.0
C1646 C 0.725 0.89717 0.3814 0.0
C1647 C 0.75894 0.95804 0.38237 0.0
C1648 C 0.78093 0.96429 0.38516 0.0
C1649 C 0.75267 0.9739 0.38354 0.0
C1650 C 0.72953 0.96806 0.38131 0.0
C1651 C 0.71422 0.95275 0.39008 0.0
C1652 C 0.6924 0.94711 0.38781 0.0
C1653 C 0.6857 0.95678 0.37686 0.0
C1654 C 0.70081 0.97212 0.36817 0.0
C1655 C 0.72265 0.9778 0.37039 0.0
H1656 H 0.66881 0.95243 0.37514 0.0
H1657 H 0.88047 0.00621 0.39299 0.0
H1658 H 0.94728 0.79925 0.38474 0.0
H1659 H 0.98359 0.81138 0.37669 0.0
H1660 H 0.99908 0.78607 0.41657 0.0
H1661 H 0.96251 0.77384 0.42463 0.0
H1662 H 0.0341 0.8265 0.41015 0.0
H1663 H 0.98453 0.75672 0.38309 0.0
H1664 H 0.95111 0.7295 0.36698 0.0
H1665 H 0.96861 0.76938 0.32914 0.0
H1666 H 1.002 0.797 0.34512 0.0
H1667 H 0.12559 0.82781 0.38111 0.0
H1668 H 0.09146 0.81789 0.39191 0.0
H1669 H 0.06618 0.82849 0.34862 0.0
H1670 H 0.09999 0.83715 0.33743 0.0
H1671 H 0.03614 0.79488 0.35795 0.0
H1672 H 0.08458 0.8658 0.38521 0.0
H1673 H 0.118 0.89337 0.40122 0.0
H1674 H 0.10319 0.85208 0.43812 0.0
H1675 H 0.06975 0.82419 0.42226 0.0
C1676 C 0.95861 0.79666 0.39193 0.0
C1677 C 0.95229 0.78577 0.40531 0.0
C1678 C 0.97928 0.80348 0.38729 0.0
C1679 C 0.994 0.79943 0.39592 0.0
C1680 C 0.98801 0.78937 0.40974 0.0
C1681 C 0.96718 0.78242 0.41434 0.0
C1682 C 0.01501 0.80457 0.38991 0.0
C1683 C 0.03459 0.81943 0.39881 0.0
C1684 C 0.01569 0.79563 0.37501 0.0
C1685 C 0.99565 0.77902 0.36536 0.0
C1686 C 0.98116 0.75977 0.37138 0.0
C1687 C 0.96224 0.74425 0.36226 0.0
C1688 C 0.95771 0.74773 0.34706 0.0
C1689 C 0.97212 0.76672 0.34093 0.0
C1690 C 0.99106 0.7823 0.35 0.0
C1691 C 0.11277 0.82808 0.37389 0.0
C1692 C 0.11552 0.83337 0.35842 0.0
C1693 C 0.09326 0.82258 0.38015 0.0
C1694 C 0.07626 0.82294 0.37129 0.0
C1695 C 0.07899 0.82813 0.35578 0.0
C1696 C 0.09834 0.83312 0.34937 0.0
C1697 C 0.05543 0.81728 0.37798 0.0
C1698 C 0.03579 0.80214 0.36925 0.0
C1699 C 0.05475 0.8261 0.39298 0.0
C1700 C 0.07469 0.84294 0.40258 0.0
C1701 C 0.08848 0.8626 0.39674 0.0
C1702 C 0.10741 0.87828 0.40578 0.0
C1703 C 0.11267 0.87448 0.42069 0.0
C1704 C 0.09902 0.85501 0.4266 0.0
C1705 C 0.08005 0.83931 0.41762 0.0
H1706 H 0.12731 0.8866 0.42769 0.0
H1707 H 0.94306 0.73569 0.34002 0.0
H1708 H 0.25154 0.18822 0.41242 0.0
H1709 H 0.23502 0.21045 0.40677 0.0
H1710 H 0.26073 0.22039 0.36203 0.0
H1711 H 0.27746 0.19854 0.36784 0.0
H1712 H 0.2662 0.2571 0.37564 0.0
H1713 H 0.20729 0.18398 0.36533 0.0
H1714 H 0.18273 0.14681 0.37132 0.0
H1715 H 0.16112 0.17105 0.40877 0.0
H1716 H 0.18579 0.20842 0.40314 0.0
H1717 H 0.20196 0.29383 0.33755 0.0
H1718 H 0.21689 0.27092 0.34454 0.0
H1719 H 0.19431 0.26766 0.3901 0.0
H1720 H 0.17924 0.2905 0.38324 0.0
H1721 H 0.18714 0.22805 0.37701 0.0
H1722 H 0.24584 0.30143 0.38649 0.0
H1723 H 0.26966 0.33827 0.37955 0.0
H1724 H 0.29117 0.31295 0.34268 0.0
H1725 H 0.26721 0.27591 0.34926 0.0
C1726 C 0.25371 0.19534 0.40146 0.0
C1727 C 0.2657 0.19189 0.39054 0.0
C1728 C 0.2442 0.20788 0.39819 0.0
C1729 C 0.24645 0.2169 0.38389 0.0
C1730 C 0.25879 0.21363 0.37312 0.0
C1731 C 0.2683 0.20116 0.37642 0.0
C1732 C 0.23593 0.22969 0.38002 0.0
C1733 C 0.24887 0.25064 0.37579 0.0
C1734 C 0.21338 0.22145 0.3805 0.0
C1735 C 0.19857 0.19901 0.38393 0.0
C1736 C 0.19744 0.1814 0.37493 0.0
C1737 C 0.18348 0.16029 0.37825 0.0
C1738 C 0.17043 0.15657 0.39045 0.0
C1739 C 0.17128 0.17396 0.39934 0.0
C1740 C 0.18524 0.1951 0.39609 0.0
C1741 C 0.2 0.28812 0.34902 0.0
C1742 C 0.18954 0.29414 0.35987 0.0
C1743 C 0.20861 0.27508 0.35301 0.0
C1744 C 0.20693 0.26783 0.3679 0.0
C1745 C 0.19582 0.27315 0.37856 0.0
C1746 C 0.18729 0.28626 0.37462 0.0
C1747 C 0.2174 0.25531 0.37253 0.0
C1748 C 0.20447 0.23448 0.37693 0.0
C1749 C 0.23994 0.26359 0.37213 0.0
C1750 C 0.25458 0.28588 0.36828 0.0
C1751 C 0.25554 0.3037 0.37684 0.0
C1752 C 0.26908 0.32462 0.37297 0.0
C1753 C 0.28188 0.32794 0.36066 0.0
C1754 C 0.28122 0.31035 0.35221 0.0
C1755 C 0.26768 0.28939 0.35601 0.0
H1756 H 0.29235 0.34415 0.35768 0.0
H1757 H 0.15962 0.14021 0.39299 0.0
H1758 H 0.63777 0.506 0.75762 0.0
H1759 H 0.67184 0.53152 0.74774 0.0
H1760 H 0.6361 0.54699 0.71366 0.0
H1761 H 0.60205 0.52067 0.72304 0.0
H1762 H 0.66458 0.54346 0.7 0.0
H1763 H 0.66735 0.58137 0.74856 0.0
H1764 H 0.66658 0.58688 0.77697 0.0
H1765 H 0.72196 0.5789 0.78556 0.0
H1766 H 0.72287 0.57303 0.7572 0.0
H1767 H 0.77324 0.65466 0.7083 0.0
H1768 H 0.7387 0.62915 0.71717 0.0
H1769 H 0.73987 0.57655 0.6911 0.0
H1770 H 0.77429 0.60225 0.68171 0.0
H1771 H 0.72867 0.59892 0.73477 0.0
H1772 H 0.68839 0.53486 0.68103 0.0
H1773 H 0.68763 0.53275 0.65231 0.0
H1774 H 0.70447 0.59925 0.65353 0.0
H1775 H 0.70506 0.60168 0.68222 0.0
C1776 C 0.63731 0.51505 0.74812 0.0
C1777 C 0.61738 0.5115 0.74112 0.0
C1778 C 0.65676 0.52967 0.74249 0.0
C1779 C 0.65668 0.54147 0.73003 0.0
C1780 C 0.63669 0.53809 0.72322 0.0
C1781 C 0.61724 0.52315 0.72863 0.0
C1782 C 0.67728 0.55698 0.72384 0.0
C1783 C 0.67857 0.55559 0.70763 0.0
C1784 C 0.69556 0.57305 0.73369 0.0
C1785 C 0.69503 0.57654 0.75076 0.0
C1786 C 0.67926 0.58063 0.75651 0.0
C1787 C 0.67881 0.58384 0.7726 0.0
C1788 C 0.69417 0.58318 0.78306 0.0
C1789 C 0.71005 0.57936 0.77745 0.0
C1790 C 0.71054 0.57611 0.76137 0.0
C1791 C 0.7661 0.63768 0.70432 0.0
C1792 C 0.77652 0.63049 0.69427 0.0
C1793 C 0.74634 0.62307 0.70947 0.0
C1794 C 0.73656 0.60087 0.70481 0.0
C1795 C 0.74687 0.59362 0.69468 0.0
C1796 C 0.76657 0.60832 0.68933 0.0
C1797 C 0.71589 0.58547 0.71095 0.0
C1798 C 0.71466 0.58679 0.72715 0.0
C1799 C 0.69744 0.56981 0.70105 0.0
C1800 C 0.69701 0.56849 0.68379 0.0
C1801 C 0.69188 0.54901 0.67516 0.0
C1802 C 0.69148 0.54776 0.65889 0.0
C1803 C 0.69608 0.56588 0.65111 0.0
C1804 C 0.70101 0.58526 0.65957 0.0
C1805 C 0.7014 0.58659 0.67584 0.0
H1806 H 0.69577 0.56488 0.63851 0.0
H1807 H 0.6938 0.58568 0.79552 0.0
H1808 H 0.53853 0.13677 0.73409 0.0
H1809 H 0.50999 0.14318 0.7238 0.0
H1810 H 0.46821 0.10372 0.75681 0.0
H1811 H 0.49601 0.09561 0.76625 0.0
H1812 H 0.44507 0.09491 0.73107 0.0
H1813 H 0.49567 0.16183 0.76053 0.0
H1814 H 0.53125 0.19409 0.76909 0.0
H1815 H 0.53528 0.21409 0.72286 0.0
H1816 H 0.49984 0.18179 0.71397 0.0
H1817 H 0.3734 0.1387 0.72377 0.0
H1818 H 0.40153 0.13129 0.73417 0.0
H1819 H 0.43261 0.14849 0.69183 0.0
H1820 H 0.40423 0.1554 0.68114 0.0
H1821 H 0.46047 0.16884 0.72264 0.0
H1822 H 0.40834 0.10007 0.69409 0.0
H1823 H 0.37171 0.06849 0.68734 0.0
H1824 H 0.36969 0.05315 0.73482 0.0
H1825 H 0.4062 0.08487 0.74191 0.0
C1826 C 0.5232 0.12916 0.73907 0.0
C1827 C 0.51975 0.11561 0.75106 0.0
C1828 C 0.50694 0.13318 0.73332 0.0
C1829 C 0.48697 0.12432 0.73969 0.0
C1830 C 0.48347 0.11087 0.7517 0.0
C1831 C 0.49959 0.10649 0.75727 0.0
C1832 C 0.46961 0.12867 0.73358 0.0
C1833 C 0.44847 0.11115 0.72948 0.0
C1834 C 0.47388 0.1498 0.73124 0.0
C1835 C 0.49518 0.16928 0.73655 0.0
C1836 C 0.50421 0.17303 0.75217 0.0
C1837 C 0.52435 0.19133 0.75708 0.0
C1838 C 0.53554 0.2061 0.74652 0.0
C1839 C 0.5266 0.20262 0.73103 0.0
C1840 C 0.50648 0.18433 0.72605 0.0
C1841 C 0.38619 0.14085 0.71664 0.0
C1842 C 0.38657 0.14759 0.70161 0.0
C1843 C 0.40221 0.13658 0.7226 0.0
C1844 C 0.41911 0.13934 0.71376 0.0
C1845 C 0.41968 0.14627 0.69882 0.0
C1846 C 0.40341 0.1501 0.69272 0.0
C1847 C 0.43627 0.13513 0.72016 0.0
C1848 C 0.45726 0.15267 0.72432 0.0
C1849 C 0.43178 0.11412 0.72284 0.0
C1850 C 0.40989 0.09498 0.71857 0.0
C1851 C 0.4 0.09009 0.70313 0.0
C1852 C 0.37928 0.07214 0.69923 0.0
C1853 C 0.36835 0.05886 0.71065 0.0
C1854 C 0.37816 0.06347 0.72599 0.0
C1855 C 0.39887 0.08143 0.72995 0.0
H1856 H 0.35232 0.04497 0.70761 0.0
H1857 H 0.55113 0.22026 0.75035 0.0
H1858 H 0.93797 0.41182 0.74911 0.0
H1859 H 0.92666 0.37472 0.73888 0.0
H1860 H 0.87532 0.37267 0.70838 0.0
H1861 H 0.88659 0.40979 0.71855 0.0
H1862 H 0.86236 0.33495 0.72393 0.0
H1863 H 0.91811 0.38058 0.693 0.0
H1864 H 0.9542 0.41022 0.68857 0.0
H1865 H 0.98442 0.37923 0.71203 0.0
H1866 H 0.94848 0.34955 0.71681 0.0
H1867 H 0.83776 0.24196 0.67376 0.0
H1868 H 0.84827 0.27899 0.68328 0.0
H1869 H 0.90352 0.28504 0.71136 0.0
H1870 H 0.89331 0.24816 0.70181 0.0
H1871 H 0.91409 0.3209 0.69669 0.0
H1872 H 0.85873 0.27547 0.72791 0.0
H1873 H 0.82278 0.24553 0.7323 0.0
H1874 H 0.79197 0.27586 0.70867 0.0
H1875 H 0.82777 0.30584 0.70393 0.0
C1876 C 0.92415 0.40335 0.74034 0.0
C1877 C 0.91318 0.41363 0.73456 0.0
C1878 C 0.91778 0.38225 0.73446 0.0
C1879 C 0.90026 0.37107 0.72282 0.0
C1880 C 0.88889 0.38107 0.71735 0.0
C1881 C 0.89541 0.40226 0.72309 0.0
C1882 C 0.89419 0.34914 0.71603 0.0
C1883 C 0.87354 0.33188 0.7178 0.0
C1884 C 0.90898 0.34518 0.7083 0.0
C1885 C 0.93061 0.36296 0.70541 0.0
C1886 C 0.93246 0.38019 0.69734 0.0
C1887 C 0.95288 0.39697 0.69474 0.0
C1888 C 0.9716 0.39664 0.70006 0.0
C1889 C 0.96991 0.37948 0.70795 0.0
C1890 C 0.94951 0.36267 0.71059 0.0
C1891 C 0.85223 0.2512 0.68187 0.0
C1892 C 0.86465 0.24207 0.68707 0.0
C1893 C 0.85816 0.27232 0.68735 0.0
C1894 C 0.87652 0.28464 0.69816 0.0
C1895 C 0.88927 0.27578 0.70304 0.0
C1896 C 0.88336 0.25467 0.69759 0.0
C1897 C 0.88227 0.30663 0.70464 0.0
C1898 C 0.90288 0.32394 0.70281 0.0
C1899 C 0.86746 0.3106 0.71236 0.0
C1900 C 0.84592 0.29279 0.71542 0.0
C1901 C 0.84429 0.27568 0.72356 0.0
C1902 C 0.82394 0.25872 0.72612 0.0
C1903 C 0.8051 0.25876 0.72072 0.0
C1904 C 0.80658 0.27583 0.71282 0.0
C1905 C 0.8269 0.29282 0.7102 0.0
H1906 H 0.78936 0.24559 0.7227 0.0
H1907 H 0.9874 0.40965 0.69803 0.0
H1908 H 0.14461 0.93254 0.63262 0.0
H1909 H 0.17317 0.96889 0.64249 0.0
H1910 H 0.20995 0.96977 0.60437 0.0
H1911 H 0.18215 0.93273 0.59505 0.0
H1912 H 0.23625 0.98661 0.62938 0.0
H1913 H 0.18109 0.99815 0.606 0.0
H1914 H 0.14433 0.99284 0.60064 0.0
H1915 H 0.14515 0.01273 0.64876 0.0
H1916 H 0.18181 0.01788 0.65445 0.0
H1917 H 0.30604 0.10254 0.64133 0.0
H1918 H 0.27815 0.06633 0.62975 0.0
H1919 H 0.24852 0.0541 0.67288 0.0
H1920 H 0.27653 0.09001 0.68467 0.0
H1921 H 0.2193 0.04414 0.64407 0.0
H1922 H 0.27516 0.03135 0.66668 0.0
H1923 H 0.3125 0.03779 0.67069 0.0
H1924 H 0.31071 0.02168 0.62165 0.0
H1925 H 0.27345 0.01547 0.61731 0.0
C1926 C 0.15885 0.94031 0.62639 0.0
C1927 C 0.16096 0.92957 0.613 0.0
C1928 C 0.17508 0.9613 0.63194 0.0
C1929 C 0.19361 0.97233 0.62404 0.0
C1930 C 0.19577 0.9617 0.61064 0.0
C1931 C 0.17968 0.94056 0.60521 0.0
C1932 C 0.21092 0.9947 0.62999 0.0
C1933 C 0.23251 0.99924 0.63233 0.0
C1934 C 0.20617 0.01124 0.63406 0.0
C1935 C 0.18413 0.00822 0.63068 0.0
C1936 C 0.17337 0.00124 0.61546 0.0
C1937 C 0.15256 0.99828 0.61236 0.0
C1938 C 0.14239 0.0024 0.62436 0.0
C1939 C 0.15303 0.00953 0.63948 0.0
C1940 C 0.17384 0.0125 0.64265 0.0
C1941 C 0.29361 0.09211 0.64836 0.0
C1942 C 0.29352 0.0991 0.66393 0.0
C1943 C 0.27774 0.07145 0.64173 0.0
C1944 C 0.26133 0.0576 0.65048 0.0
C1945 C 0.26107 0.06459 0.66596 0.0
C1946 C 0.27714 0.08507 0.67268 0.0
C1947 C 0.24434 0.03579 0.64351 0.0
C1948 C 0.22289 0.03144 0.64099 0.0
C1949 C 0.24926 0.01956 0.63904 0.0
C1950 C 0.27162 0.0232 0.64164 0.0
C1951 C 0.28281 0.0294 0.65672 0.0
C1952 C 0.30394 0.03296 0.65906 0.0
C1953 C 0.31399 0.03022 0.64642 0.0
C1954 C 0.30291 0.02384 0.63142 0.0
C1955 C 0.28178 0.02029 0.62902 0.0
H1956 H 0.33035 0.03298 0.64826 0.0
H1957 H 0.12628 1.00009 0.62193 0.0
H1958 H 0.06049 0.24828 0.59946 0.0
H1959 H 0.02601 0.24049 0.60893 0.0
H1960 H 0.02639 0.19123 0.6351 0.0
H1961 H 0.06019 0.19807 0.62502 0.0
H1962 H 0.987 0.1775 0.62263 0.0
H1963 H 0.04168 0.24288 0.65248 0.0
H1964 H 0.07246 0.28026 0.65659 0.0
H1965 H 0.03396 0.30251 0.63257 0.0
H1966 H 0.00302 0.26521 0.62813 0.0
H1967 H 0.91056 0.17087 0.6751 0.0
H1968 H 0.94441 0.17787 0.66468 0.0
H1969 H 0.93858 0.21995 0.63348 0.0
H1970 H 0.90478 0.21301 0.64372 0.0
H1971 H 0.98044 0.23731 0.64859 0.0
H1972 H 0.92558 0.17121 0.61917 0.0
H1973 H 0.89489 0.13378 0.61605 0.0
H1974 H 0.93426 0.11288 0.64057 0.0
H1975 H 0.96512 0.15028 0.64404 0.0
C1976 C 0.05309 0.23554 0.60702 0.0
C1977 C 0.06331 0.22394 0.61156 0.0
C1978 C 0.03346 0.23128 0.6126 0.0
C1979 C 0.02374 0.21555 0.623 0.0
C1980 C 0.03358 0.20355 0.62719 0.0
C1981 C 0.05308 0.20765 0.62152 0.0
C1982 C 0.0035 0.21172 0.6297 0.0
C1983 C 0.98571 0.19057 0.62847 0.0
C1984 C 1.00156 0.22877 0.63713 0.0
C1985 C 0.02011 0.25122 0.63984 0.0
C1986 C 0.03983 0.25573 0.64798 0.0
C1987 C 0.05729 0.2769 0.65038 0.0
C1988 C 0.05518 0.29374 0.64481 0.0
C1989 C 0.03558 0.28945 0.63686 0.0
C1990 C 0.01807 0.26829 0.63441 0.0
C1991 C 0.91652 0.18168 0.66607 0.0
C1992 C 0.90489 0.19132 0.66023 0.0
C1993 C 0.93582 0.1856 0.66009 0.0
C1994 C 0.94394 0.19933 0.64823 0.0
C1995 C 0.93261 0.2093 0.64262 0.0
C1996 C 0.91323 0.20523 0.64846 0.0
C1997 C 0.9641 0.20316 0.64152 0.0
C1998 C 0.98182 0.22429 0.64275 0.0
C1999 C 0.96604 0.18609 0.63421 0.0
C2000 C 0.94759 0.16357 0.632 0.0
C2001 C 0.92764 0.15866 0.62401 0.0
C2002 C 0.91022 0.13745 0.62215 0.0
C2003 C 0.9126 0.12097 0.62815 0.0
C2004 C 0.93243 0.12567 0.63596 0.0
C2005 C 0.9499 0.14687 0.63786 0.0
H2006 H 0.8991 0.10456 0.62671 0.0
H2007 H 0.06873 0.31012 0.64669 0.0
H2008 H 0.79649 0.85244 0.62203 0.0
H2009 H 0.80975 0.82912 0.6315 0.0
H2010 H 0.75241 0.79542 0.65542 0.0
H2011 H 0.7396 0.81932 0.64646 0.0
H2012 H 0.78529 0.80032 0.67307 0.0
H2013 H 0.75863 0.7751 0.61909 0.0
H2014 H 0.75596 0.77835 0.59083 0.0
H2015 H 0.8234 0.79814 0.59016 0.0
H2016 H 0.82653 0.79529 0.61848 0.0
H2017 H 0.79612 0.69878 0.65456 0.0
H2018 H 0.78533 0.7246 0.6472 0.0
H2019 H 0.8346 0.77313 0.68157 0.0
H2020 H 0.84529 0.74714 0.6893 0.0
H2021 H 0.80606 0.761 0.63494 0.0
H2022 H 0.81672 0.80677 0.69543 0.0
H2023 H 0.81475 0.79998 0.72318 0.0
H2024 H 0.77108 0.73238 0.70984 0.0
H2025 H 0.77256 0.73881 0.68204 0.0
C2026 C 0.78679 0.84005 0.62932 0.0
C2027 C 0.767 0.83753 0.63347 0.0
C2028 C 0.79432 0.82672 0.6347 0.0
C2029 C 0.78191 0.81026 0.64397 0.0
C2030 C 0.76229 0.808 0.64831 0.0
C2031 C 0.75495 0.82159 0.64317 0.0
C2032 C 0.78907 0.79507 0.64886 0.0
C2033 C 0.7899 0.79178 0.66473 0.0
C2034 C 0.79474 0.78362 0.63797 0.0
C2035 C 0.79286 0.78518 0.62093 0.0
C2036 C 0.77292 0.78027 0.61293 0.0
C2037 C 0.77132 0.78203 0.5969 0.0
C2038 C 0.78951 0.7885 0.58871 0.0
C2039 C 0.80933 0.79316 0.59653 0.0
C2040 C 0.81102 0.79147 0.61256 0.0
C2041 C 0.80468 0.71491 0.66063 0.0
C2042 C 0.82155 0.72086 0.67257 0.0
C2043 C 0.79851 0.72969 0.65634 0.0
C2044 C 0.80906 0.75076 0.66387 0.0
C2045 C 0.82602 0.75686 0.67574 0.0
C2046 C 0.83215 0.742 0.68011 0.0
C2047 C 0.80227 0.76625 0.65913 0.0
C2048 C 0.80159 0.76966 0.64329 0.0
C2049 C 0.79609 0.77728 0.66997 0.0
C2050 C 0.79498 0.77326 0.68666 0.0
C2051 C 0.80667 0.79047 0.69843 0.0
C2052 C 0.80563 0.78668 0.71416 0.0
C2053 C 0.79287 0.76575 0.71826 0.0
C2054 C 0.78104 0.74857 0.70664 0.0
C2055 C 0.782 0.75227 0.6909 0.0
H2056 H 0.7921 0.76285 0.73045 0.0
H2057 H 0.78825 0.78985 0.5763 0.0
H2058 H 0.04847 0.8313 0.60864 0.0
H2059 H 0.01198 0.80666 0.61592 0.0
H2060 H 0.04037 0.78865 0.65364 0.0
H2061 H 0.0766 0.81278 0.6461 0.0
H2062 H 0.00468 0.75431 0.64075 0.0
H2063 H 0.02439 0.82688 0.6595 0.0
H2064 H 0.03605 0.86518 0.65734 0.0
H2065 H 0.9796 0.84651 0.62544 0.0
H2066 H 0.96775 0.80807 0.62726 0.0
H2067 H 0.91829 0.71538 0.68943 0.0
H2068 H 0.95341 0.73779 0.67954 0.0
H2069 H 0.92106 0.74716 0.63941 0.0
H2070 H 0.886 0.72482 0.64913 0.0
H2071 H 0.95778 0.78512 0.65257 0.0
H2072 H 0.93739 0.71207 0.63529 0.0
H2073 H 0.92566 0.67406 0.63868 0.0
H2074 H 0.98377 0.69402 0.66904 0.0
H2075 H 0.99566 0.73222 0.66608 0.0
C2076 C 0.04675 0.82172 0.61828 0.0
C2077 C 0.06512 0.8237 0.6268 0.0
C2078 C 0.02598 0.80781 0.62253 0.0
C2079 C 0.0234 0.79601 0.63551 0.0
C2080 C 0.04187 0.79752 0.64361 0.0
C2081 C 0.06255 0.81129 0.6393 0.0
C2082 C 1.0017 0.7828 0.64114 0.0
C2083 C 0.99455 0.76114 0.64347 0.0
C2084 C 0.98823 0.79153 0.64449 0.0
C2085 C 0.99532 0.81461 0.64338 0.0
C2086 C 0.01456 0.83095 0.65193 0.0
C2087 C 0.02119 0.85268 0.65078 0.0
C2088 C 0.00861 0.85828 0.64122 0.0
C2089 C 0.98935 0.84215 0.63282 0.0
C2090 C 0.98266 0.82039 0.63391 0.0
C2091 C 0.91867 0.72237 0.67857 0.0
C2092 C 0.89933 0.71825 0.67005 0.0
C2093 C 0.93873 0.73506 0.67289 0.0
C2094 C 0.93981 0.74398 0.65866 0.0
C2095 C 0.92059 0.74041 0.65039 0.0
C2096 C 0.90056 0.72756 0.65595 0.0
C2097 C 0.96092 0.75678 0.65225 0.0
C2098 C 0.96793 0.77832 0.64979 0.0
C2099 C 0.97431 0.74799 0.6489 0.0
C2100 C 0.96731 0.72503 0.65058 0.0
C2101 C 0.94758 0.70838 0.6428 0.0
C2102 C 0.94091 0.68679 0.64464 0.0
C2103 C 0.95393 0.68163 0.65411 0.0
C2104 C 0.97368 0.69805 0.66174 0.0
C2105 C 0.9804 0.71967 0.65998 0.0
H2106 H 0.94873 0.66491 0.65551 0.0
H2107 H 0.01377 0.87511 0.64035 0.0
H2108 H 0.19371 0.2496 0.61535 0.0
H2109 H 0.22089 0.23873 0.62136 0.0
H2110 H 0.17075 0.17837 0.63486 0.0
H2111 H 0.14373 0.18922 0.62884 0.0
H2112 H 0.20501 0.2002 0.65753 0.0
H2113 H 0.19427 0.17904 0.60222 0.0
H2114 H 0.19286 0.18449 0.5743 0.0
H2115 H 0.25996 0.2342 0.58059 0.0
H2116 H 0.26169 0.22927 0.60861 0.0
H2117 H 0.26524 0.14894 0.67314 0.0
H2118 H 0.23862 0.15772 0.66205 0.0
H2119 H 0.2896 0.21309 0.64366 0.0
H2120 H 0.31624 0.2039 0.65425 0.0
H2121 H 0.25559 0.19472 0.62306 0.0
H2122 H 0.26701 0.2175 0.67775 0.0
H2123 H 0.26948 0.21378 0.70594 0.0
H2124 H 0.20252 0.16376 0.70135 0.0
H2125 H 0.19973 0.16698 0.67307 0.0
C2126 C 0.18853 0.2338 0.6192 0.0
C2127 C 0.16675 0.22009 0.62151 0.0
C2128 C 0.204 0.22761 0.62265 0.0
C2129 C 0.19784 0.20771 0.62856 0.0
C2130 C 0.17587 0.19377 0.63032 0.0
C2131 C 0.16045 0.1999 0.62679 0.0
C2132 C 0.21439 0.20212 0.63416 0.0
C2133 C 0.21586 0.19869 0.64993 0.0
C2134 C 0.22907 0.20094 0.62439 0.0
C2135 C 0.22804 0.20394 0.60755 0.0
C2136 C 0.20867 0.19128 0.59768 0.0
C2137 C 0.20783 0.19425 0.58183 0.0
C2138 C 0.22629 0.20973 0.57568 0.0
C2139 C 0.24566 0.22224 0.58537 0.0
C2140 C 0.24659 0.21936 0.60124 0.0
C2141 C 0.27081 0.163 0.66674 0.0
C2142 C 0.29291 0.17584 0.66473 0.0
C2143 C 0.25556 0.16805 0.66043 0.0
C2144 C 0.2621 0.18635 0.65227 0.0
C2145 C 0.28411 0.19894 0.64994 0.0
C2146 C 0.29935 0.1937 0.65606 0.0
C2147 C 0.24604 0.19253 0.64643 0.0
C2148 C 0.24472 0.19619 0.63066 0.0
C2149 C 0.23164 0.19424 0.65625 0.0
C2150 C 0.23322 0.19236 0.67327 0.0
C2151 C 0.25285 0.20561 0.68273 0.0
C2152 C 0.2543 0.20361 0.69873 0.0
C2153 C 0.23619 0.18851 0.70542 0.0
C2154 C 0.21655 0.17543 0.69614 0.0
C2155 C 0.21502 0.17735 0.68013 0.0
H2156 H 0.23735 0.18698 0.71781 0.0
H2157 H 0.2256 0.21199 0.5634 0.0
H2158 H 0.76433 0.93593 0.62166 0.0
H2159 H 0.77835 0.9751 0.62473 0.0
H2160 H 0.75201 0.96944 0.66911 0.0
H2161 H 0.73775 0.93035 0.66586 0.0
H2162 H 0.74582 0.997 0.65314 0.0
H2163 H 0.80548 0.98577 0.66707 0.0
H2164 H 0.83063 0.97212 0.66306 0.0
H2165 H 0.85237 0.00878 0.62377 0.0
H2166 H 0.8271 0.02242 0.62742 0.0
H2167 H 0.80983 0.10451 0.68877 0.0
H2168 H 0.79409 0.06554 0.68269 0.0
H2169 H 0.81762 0.07566 0.63729 0.0
H2170 H 0.83342 0.11464 0.64323 0.0
H2171 H 0.82493 0.04625 0.65231 0.0
H2172 H 0.76603 0.05894 0.63971 0.0
H2173 H 0.74163 0.07318 0.64487 0.0
H2174 H 0.71907 0.03407 0.68286 0.0
H2175 H 0.7436 0.01983 0.67808 0.0
C2176 C 0.76134 0.94315 0.63192 0.0
C2177 C 0.75002 0.93044 0.64353 0.0
C2178 C 0.76942 0.96544 0.63372 0.0
C2179 C 0.76646 0.97523 0.64725 0.0
C2180 C 0.75448 0.96225 0.65859 0.0
C2181 C 0.74637 0.94 0.65675 0.0
C2182 C 0.77647 0.99903 0.64995 0.0
C2183 C 0.76314 0.00774 0.65309 0.0
C2184 C 0.79903 0.01309 0.64962 0.0
C2185 C 0.81422 0.0049 0.6474 0.0
C2186 C 0.81549 0.99077 0.65749 0.0
C2187 C 0.82979 0.98306 0.6553 0.0
C2188 C 0.84304 0.98952 0.64313 0.0
C2189 C 0.84206 0.00375 0.63316 0.0
C2190 C 0.82776 0.01148 0.63529 0.0
C2191 C 0.81174 0.09847 0.67751 0.0
C2192 C 0.82277 0.11265 0.66645 0.0
C2193 C 0.80267 0.0762 0.67404 0.0
C2194 C 0.80451 0.06775 0.65948 0.0
C2195 C 0.81598 0.08189 0.64857 0.0
C2196 C 0.82492 0.10414 0.65198 0.0
C2197 C 0.7943 0.04413 0.65559 0.0
C2198 C 0.80759 0.03547 0.65224 0.0
C2199 C 0.77175 0.03012 0.65584 0.0
C2200 C 0.7568 0.03846 0.65862 0.0
C2201 C 0.75599 0.05349 0.64924 0.0
C2202 C 0.74212 0.06155 0.65208 0.0
C2203 C 0.72885 0.05457 0.66421 0.0
C2204 C 0.72938 0.03948 0.67348 0.0
C2205 C 0.74324 0.03139 0.6707 0.0
H2206 H 0.71813 0.06083 0.66639 0.0
H2207 H 0.85411 0.98354 0.64146 0.0
H2208 H 0.49002 0.4082 0.73831 0.0
H2209 H 0.46158 0.36982 0.73492 0.0
H2210 H 0.50796 0.35281 0.71926 0.0
H2211 H 0.5362 0.39104 0.72259 0.0
H2212 H 0.47104 0.33586 0.69899 0.0
H2213 H 0.48956 0.34119 0.75466 0.0
H2214 H 0.49498 0.35717 0.78182 0.0
H2215 H 0.42827 0.34113 0.77897 0.0
H2216 H 0.42252 0.3253 0.7517 0.0
H2217 H 0.41266 0.22334 0.69243 0.0
H2218 H 0.43951 0.26089 0.70109 0.0
H2219 H 0.39002 0.27028 0.72029 0.0
H2220 H 0.3631 0.23236 0.7121 0.0
H2221 H 0.42664 0.29184 0.73904 0.0
H2222 H 0.40702 0.2868 0.68449 0.0
H2223 H 0.4003 0.27232 0.6568 0.0
H2224 H 0.46717 0.28962 0.65679 0.0
H2225 H 0.47422 0.30393 0.68455 0.0
C2226 C 0.4941 0.39612 0.73446 0.0
C2227 C 0.51514 0.40228 0.73078 0.0
C2228 C 0.47793 0.37428 0.73252 0.0
C2229 C 0.48268 0.35846 0.72686 0.0
C2230 C 0.50395 0.36474 0.72363 0.0
C2231 C 0.52006 0.38649 0.72561 0.0
C2232 C 0.46533 0.33554 0.72323 0.0
C2233 C 0.46153 0.32614 0.7078 0.0
C2234 C 0.45233 0.32317 0.73458 0.0
C2235 C 0.45566 0.33225 0.75109 0.0
C2236 C 0.47608 0.34119 0.75979 0.0
C2237 C 0.47921 0.35021 0.77521 0.0
C2238 C 0.462 0.35024 0.7821 0.0
C2239 C 0.4416 0.34113 0.77361 0.0
C2240 C 0.43838 0.33211 0.75818 0.0
C2241 C 0.40747 0.23334 0.69856 0.0
C2242 C 0.38568 0.22493 0.70141 0.0
C2243 C 0.42285 0.25485 0.70348 0.0
C2244 C 0.41672 0.26859 0.71104 0.0
C2245 C 0.39513 0.26004 0.71441 0.0
C2246 C 0.37975 0.23838 0.70968 0.0
C2247 C 0.43273 0.29199 0.71484 0.0
C2248 C 0.43616 0.30153 0.73024 0.0
C2249 C 0.44522 0.30469 0.70339 0.0
C2250 C 0.4411 0.29627 0.68665 0.0
C2251 C 0.42026 0.28739 0.67861 0.0
C2252 C 0.41639 0.27922 0.6629 0.0
C2253 C 0.43329 0.28 0.65505 0.0
C2254 C 0.4541 0.28901 0.66289 0.0
C2255 C 0.45804 0.29716 0.67861 0.0
H2256 H 0.43026 0.27367 0.64289 0.0
H2257 H 0.46448 0.35728 0.79403 0.0
H2258 H 0.62128 0.08563 0.74047 0.0
H2259 H 0.65835 0.0984 0.73365 0.0
H2260 H 0.66868 0.16298 0.73323 0.0
H2261 H 0.63154 0.15009 0.7399 0.0
H2262 H 0.68047 0.15231 0.70757 0.0
H2263 H 0.69454 0.15019 0.76154 0.0
H2264 H 0.69022 0.13543 0.787 0.0
H2265 H 0.70373 0.08692 0.76855 0.0
H2266 H 0.70777 0.10115 0.74287 0.0
H2267 H 0.80225 0.18129 0.71651 0.0
H2268 H 0.76889 0.17329 0.72782 0.0
H2269 H 0.73155 0.1384 0.68409 0.0
H2270 H 0.765 0.1468 0.67254 0.0
H2271 H 0.7352 0.13793 0.73369 0.0
H2272 H 0.68674 0.14258 0.6788 0.0
H2273 H 0.69389 0.16239 0.65542 0.0
H2274 H 0.75324 0.21422 0.67948 0.0
H2275 H 0.74631 0.19486 0.70306 0.0
C2276 C 0.63173 0.10264 0.7393 0.0
C2277 C 0.62383 0.11699 0.74088 0.0
C2278 C 0.65287 0.10994 0.73538 0.0
C2279 C 0.66641 0.13171 0.73295 0.0
C2280 C 0.65859 0.14614 0.73502 0.0
C2281 C 0.63747 0.13883 0.73895 0.0
C2282 C 0.68805 0.13906 0.72718 0.0
C2283 C 0.69242 0.14916 0.71332 0.0
C2284 C 0.70394 0.13545 0.73482 0.0
C2285 C 0.70121 0.1266 0.75019 0.0
C2286 C 0.6963 0.13619 0.76283 0.0
C2287 C 0.69394 0.12794 0.77732 0.0
C2288 C 0.6966 0.11019 0.77937 0.0
C2289 C 0.70163 0.10065 0.76693 0.0
C2290 C 0.70397 0.10881 0.7524 0.0
C2291 C 0.78697 0.17199 0.70923 0.0
C2292 C 0.78638 0.1648 0.69354 0.0
C2293 C 0.76785 0.16734 0.71577 0.0
C2294 C 0.74763 0.15538 0.70682 0.0
C2295 C 0.74695 0.14799 0.69119 0.0
C2296 C 0.76611 0.15276 0.68459 0.0
C2297 C 0.72731 0.15061 0.71387 0.0
C2298 C 0.72321 0.14103 0.72796 0.0
C2299 C 0.71192 0.15527 0.70671 0.0
C2300 C 0.71609 0.16715 0.69264 0.0
C2301 C 0.70127 0.15824 0.67912 0.0
C2302 C 0.70529 0.16939 0.66583 0.0
C2303 C 0.72404 0.18952 0.66595 0.0
C2304 C 0.73877 0.19859 0.67938 0.0
C2305 C 0.73481 0.18752 0.6927 0.0
H2306 H 0.72713 0.19811 0.65564 0.0
H2307 H 0.69485 0.10387 0.79062 0.0
H2308 H 0.91124 0.51715 0.74501 0.0
H2309 H 0.8983 0.54274 0.74106 0.0
H2310 H 0.92349 0.55309 0.69614 0.0
H2311 H 0.93674 0.52796 0.70029 0.0
H2312 H 0.93084 0.59015 0.71055 0.0
H2313 H 0.86961 0.51791 0.69966 0.0
H2314 H 0.84409 0.48095 0.70556 0.0
H2315 H 0.82503 0.50642 0.74393 0.0
H2316 H 0.85066 0.54357 0.73837 0.0
H2317 H 0.86884 0.62902 0.672 0.0
H2318 H 0.88342 0.60596 0.6794 0.0
H2319 H 0.85988 0.60296 0.72461 0.0
H2320 H 0.84512 0.62588 0.71732 0.0
H2321 H 0.85217 0.56346 0.71189 0.0
H2322 H 0.91194 0.63602 0.7212 0.0
H2323 H 0.93657 0.67265 0.71426 0.0
H2324 H 0.958 0.64628 0.67802 0.0
H2325 H 0.93316 0.60943 0.68454 0.0
C2326 C 0.91426 0.52524 0.73446 0.0
C2327 C 0.92495 0.52085 0.72295 0.0
C2328 C 0.90677 0.5397 0.73214 0.0
C2329 C 0.90967 0.54962 0.71819 0.0
C2330 C 0.92108 0.54567 0.70698 0.0
C2331 C 0.92862 0.53134 0.70933 0.0
C2332 C 0.90008 0.56336 0.71486 0.0
C2333 C 0.91361 0.58424 0.71073 0.0
C2334 C 0.87766 0.55582 0.71537 0.0
C2335 C 0.86223 0.53351 0.71871 0.0
C2336 C 0.8601 0.51563 0.70943 0.0
C2337 C 0.8456 0.49465 0.7127 0.0
C2338 C 0.833 0.49134 0.72515 0.0
C2339 C 0.83483 0.50901 0.73432 0.0
C2340 C 0.84934 0.53003 0.73111 0.0
C2341 C 0.86661 0.62334 0.68348 0.0
C2342 C 0.85593 0.6294 0.6941 0.0
C2343 C 0.87504 0.61025 0.68771 0.0
C2344 C 0.87298 0.60302 0.70263 0.0
C2345 C 0.86171 0.60845 0.71307 0.0
C2346 C 0.85334 0.6216 0.70888 0.0
C2347 C 0.8829 0.5901 0.70744 0.0
C2348 C 0.86942 0.5694 0.71184 0.0
C2349 C 0.90534 0.59777 0.7071 0.0
C2350 C 0.92053 0.61994 0.70328 0.0
C2351 C 0.92177 0.63801 0.71167 0.0
C2352 C 0.93578 0.65882 0.70781 0.0
C2353 C 0.94879 0.66179 0.69568 0.0
C2354 C 0.94787 0.64395 0.6874 0.0
C2355 C 0.93383 0.6231 0.69117 0.0
H2356 H 0.95962 0.67791 0.69273 0.0
H2357 H 0.82177 0.47508 0.72766 0.0
H2358 H 0.41649 0.89034 0.22325 0.0
H2359 H 0.42619 0.90457 0.19801 0.0
H2360 H 0.48789 0.95574 0.22014 0.0
H2361 H 0.47816 0.94181 0.24542 0.0
H2362 H 0.4681 0.9711 0.20108 0.0
H2363 H 0.48486 0.91403 0.19744 0.0
H2364 H 0.47755 0.87671 0.19819 0.0
H2365 H 0.42619 0.85472 0.16099 0.0
H2366 H 0.433 0.8919 0.16016 0.0
H2367 H 0.52197 0.01133 0.13418 0.0
H2368 H 0.51124 0.99487 0.15846 0.0
H2369 H 0.45058 0.94472 0.13423 0.0
H2370 H 0.46106 0.96128 0.10984 0.0
H2371 H 0.4686 0.92819 0.15398 0.0
H2372 H 0.45179 0.98488 0.15729 0.0
H2373 H 0.45866 0.02204 0.15642 0.0
H2374 H 0.50933 0.04448 0.1942 0.0
H2375 H 0.50297 0.00748 0.19515 0.0
C2376 C 0.43214 0.90459 0.22273 0.0
C2377 C 0.44656 0.9149 0.23638 0.0
C2378 C 0.43773 0.91264 0.20827 0.0
C2379 C 0.45784 0.93119 0.20713 0.0
C2380 C 0.47231 0.9414 0.2207 0.0
C2381 C 0.46679 0.93329 0.23514 0.0
C2382 C 0.46353 0.94038 0.1919 0.0
C2383 C 0.4685 0.9618 0.19085 0.0
C2384 C 0.46342 0.92808 0.17838 0.0
C2385 C 0.45929 0.90572 0.17885 0.0
C2386 C 0.47188 0.90121 0.18951 0.0
C2387 C 0.46786 0.88009 0.18994 0.0
C2388 C 0.45138 0.86335 0.17968 0.0
C2389 C 0.43893 0.8677 0.16895 0.0
C2390 C 0.44287 0.8888 0.16849 0.0
C2391 C 0.50622 0.99695 0.13399 0.0
C2392 C 0.49233 0.9878 0.12 0.0
C2393 C 0.50014 0.98749 0.14792 0.0
C2394 C 0.47999 0.96866 0.14825 0.0
C2395 C 0.46622 0.95923 0.13428 0.0
C2396 C 0.47227 0.96872 0.12032 0.0
C2397 C 0.47337 0.95897 0.16322 0.0
C2398 C 0.46818 0.93747 0.16421 0.0
C2399 C 0.47319 0.97116 0.17669 0.0
C2400 C 0.47704 0.99344 0.17618 0.0
C2401 C 0.46452 0.99777 0.16533 0.0
C2402 C 0.4683 0.0188 0.16484 0.0
C2403 C 0.48446 0.03562 0.17523 0.0
C2404 C 0.49684 0.03144 0.18615 0.0
C2405 C 0.49314 0.01043 0.18668 0.0
H2406 H 0.48736 0.05189 0.17483 0.0
H2407 H 0.44829 0.847 0.18002 0.0
H2408 H 0.09583 0.56499 0.25018 0.0
H2409 H 0.0834 0.56115 0.22242 0.0
H2410 H 0.0434 0.49232 0.22346 0.0
H2411 H 0.05579 0.49604 0.25108 0.0
H2412 H 0.06605 0.50089 0.19898 0.0
H2413 H 0.02175 0.52591 0.22226 0.0
H2414 H 0.01492 0.55088 0.2386 0.0
H2415 H 0.05228 0.60205 0.21078 0.0
H2416 H 0.05957 0.57744 0.19439 0.0
H2417 H 0.99703 0.4701 0.12874 0.0
H2418 H 0.0116 0.47808 0.15623 0.0
H2419 H 0.05186 0.54528 0.1495 0.0
H2420 H 0.03701 0.53748 0.122 0.0
H2421 H 0.03165 0.53999 0.17632 0.0
H2422 H 0.07439 0.51444 0.15226 0.0
H2423 H 0.08107 0.48943 0.13586 0.0
H2424 H 0.04669 0.43925 0.1652 0.0
H2425 H 0.03953 0.46389 0.18166 0.0
C2426 C 0.08418 0.5491 0.24452 0.0
C2427 C 0.07689 0.5308 0.25278 0.0
C2428 C 0.07711 0.54691 0.22866 0.0
C2429 C 0.06242 0.52644 0.22085 0.0
C2430 C 0.05485 0.50825 0.22919 0.0
C2431 C 0.06197 0.5104 0.24497 0.0
C2432 C 0.05532 0.52369 0.2039 0.0
C2433 C 0.05831 0.50926 0.19407 0.0
C2434 C 0.04583 0.53511 0.19739 0.0
C2435 C 0.0414 0.5499 0.20721 0.0
C2436 C 0.02865 0.54253 0.21971 0.0
C2437 C 0.02467 0.55661 0.22896 0.0
C2438 C 0.03321 0.57805 0.22576 0.0
C2439 C 0.0457 0.58544 0.21326 0.0
C2440 C 0.04975 0.57144 0.20398 0.0
C2441 C 0.00889 0.4866 0.13312 0.0
C2442 C 0.01589 0.50316 0.12318 0.0
C2443 C 0.01732 0.49111 0.14881 0.0
C2444 C 0.03297 0.51224 0.15487 0.0
C2445 C 0.03985 0.52886 0.14504 0.0
C2446 C 0.03149 0.52434 0.12931 0.0
C2447 C 0.04202 0.51689 0.17151 0.0
C2448 C 0.03948 0.53171 0.18125 0.0
C2449 C 0.05193 0.50582 0.17796 0.0
C2450 C 0.05626 0.49097 0.16811 0.0
C2451 C 0.0681 0.49803 0.15515 0.0
C2452 C 0.072 0.48392 0.14585 0.0
C2453 C 0.06427 0.46275 0.14946 0.0
C2454 C 0.05266 0.45565 0.16241 0.0
C2455 C 0.04869 0.46968 0.17173 0.0
H2456 H 0.06731 0.45186 0.14226 0.0
H2457 H 0.03011 0.58892 0.23294 0.0
H2458 H 0.42874 0.51314 0.23053 0.0
H2459 H 0.43173 0.50482 0.20309 0.0
H2460 H 0.49777 0.5575 0.2077 0.0
H2461 H 0.49554 0.56518 0.23513 0.0
H2462 H 0.46952 0.55509 0.18017 0.0
H2463 H 0.49212 0.51158 0.20895 0.0
H2464 H 0.48609 0.4838 0.22669 0.0
H2465 H 0.43028 0.43684 0.19628 0.0
H2466 H 0.43582 0.46446 0.17847 0.0
H2467 H 0.52313 0.54516 0.11777 0.0
H2468 H 0.51101 0.54902 0.143 0.0
H2469 H 0.45714 0.48368 0.1344 0.0
H2470 H 0.46982 0.47954 0.10933 0.0
H2471 H 0.47268 0.4896 0.1628 0.0
H2472 H 0.45054 0.52974 0.13252 0.0
H2473 H 0.45361 0.55632 0.11446 0.0
H2474 H 0.50369 0.60763 0.14637 0.0
H2475 H 0.50098 0.58138 0.16463 0.0
C2476 C 0.44397 0.52287 0.22577 0.0
C2477 C 0.46181 0.54001 0.23515 0.0
C2478 C 0.44558 0.51816 0.21005 0.0
C2479 C 0.46493 0.53066 0.20339 0.0
C2480 C 0.48261 0.54785 0.2126 0.0
C2481 C 0.48119 0.55231 0.2283 0.0
C2482 C 0.46726 0.52571 0.18693 0.0
C2483 C 0.47027 0.54082 0.17633 0.0
C2484 C 0.46743 0.50671 0.18183 0.0
C2485 C 0.46422 0.49013 0.19249 0.0
C2486 C 0.47845 0.49538 0.20612 0.0
C2487 C 0.47515 0.47966 0.21617 0.0
C2488 C 0.45777 0.45859 0.21264 0.0
C2489 C 0.4437 0.45318 0.19902 0.0
C2490 C 0.44692 0.46886 0.18894 0.0
C2491 C 0.50864 0.53167 0.12124 0.0
C2492 C 0.49738 0.51208 0.11158 0.0
C2493 C 0.50161 0.53392 0.13563 0.0
C2494 C 0.48283 0.5168 0.14054 0.0
C2495 C 0.47163 0.49715 0.13091 0.0
C2496 C 0.47889 0.49478 0.11661 0.0
C2497 C 0.47551 0.51929 0.15596 0.0
C2498 C 0.47155 0.50372 0.16642 0.0
C2499 C 0.47398 0.53768 0.16083 0.0
C2500 C 0.47565 0.55356 0.14991 0.0
C2501 C 0.46229 0.54668 0.13566 0.0
C2502 C 0.46395 0.56169 0.12539 0.0
C2503 C 0.47889 0.58362 0.12924 0.0
C2504 C 0.49214 0.59063 0.1434 0.0
C2505 C 0.4905 0.5757 0.15374 0.0
H2506 H 0.48018 0.59521 0.12126 0.0
H2507 H 0.45524 0.44643 0.22043 0.0
H2508 H 0.90984 0.44439 0.78567 0.0
H2509 H 0.92194 0.45374 0.81355 0.0
H2510 H 0.97918 0.51154 0.80372 0.0
H2511 H 0.96753 0.50185 0.77571 0.0
H2512 H 0.98978 0.48982 0.82267 0.0
H2513 H 0.93819 0.51372 0.82158 0.0
H2514 H 0.90277 0.51124 0.8155 0.0
H2515 H 0.87291 0.4583 0.84345 0.0
H2516 H 0.90811 0.46026 0.84952 0.0
H2517 H 0.02564 0.52879 0.90263 0.0
H2518 H 0.01216 0.52553 0.8753 0.0
H2519 H 0.95536 0.46491 0.88116 0.0
H2520 H 0.96886 0.4679 0.9085 0.0
H2521 H 0.94522 0.49066 0.86438 0.0
H2522 H 0.99635 0.46536 0.86378 0.0
H2523 H 0.0318 0.46785 0.86982 0.0
H2524 H 0.06247 0.52387 0.84483 0.0
H2525 H 0.02722 0.52188 0.83882 0.0
C2526 C 0.92494 0.45917 0.78944 0.0
C2527 C 0.93779 0.4723 0.77845 0.0
C2528 C 0.93174 0.46462 0.80541 0.0
C2529 C 0.95142 0.48342 0.81077 0.0
C2530 C 0.96392 0.49697 0.79986 0.0
C2531 C 0.95714 0.4915 0.78386 0.0
C2532 C 0.9597 0.488 0.8276 0.0
C2533 C 0.98019 0.49044 0.83176 0.0
C2534 C 0.94699 0.48825 0.83951 0.0
C2535 C 0.92578 0.48702 0.8359 0.0
C2536 C 0.92404 0.50143 0.82633 0.0
C2537 C 0.90401 0.50014 0.8229 0.0
C2538 C 0.88559 0.48459 0.82905 0.0
C2539 C 0.88719 0.47033 0.83868 0.0
C2540 C 0.90718 0.47154 0.84213 0.0
C2541 C 0.01037 0.51466 0.89809 0.0
C2542 C 0.99843 0.4985 0.90774 0.0
C2543 C 0.00264 0.51288 0.88248 0.0
C2544 C 0.98286 0.49488 0.87615 0.0
C2545 C 0.97065 0.47896 0.88581 0.0
C2546 C 0.97838 0.48072 0.90144 0.0
C2547 C 0.97519 0.49238 0.85936 0.0
C2548 C 0.95484 0.49026 0.85523 0.0
C2549 C 0.98801 0.49245 0.84745 0.0
C2550 C 0.0092 0.49361 0.851 0.0
C2551 C 0.01069 0.47831 0.85968 0.0
C2552 C 0.03073 0.47962 0.86308 0.0
C2553 C 0.04938 0.49605 0.85775 0.0
C2554 C 0.04801 0.51117 0.84897 0.0
C2555 C 0.02801 0.50996 0.84556 0.0
H2556 H 0.06489 0.49702 0.86039 0.0
H2557 H 0.8701 0.48362 0.82639 0.0
H2558 H 0.55543 0.44724 0.78612 0.0
H2559 H 0.5446 0.44997 0.81221 0.0
H2560 H 0.5649 0.51703 0.8087 0.0
H2561 H 0.57629 0.5145 0.78289 0.0
H2562 H 0.57661 0.51295 0.83674 0.0
H2563 H 0.50985 0.47462 0.80232 0.0
H2564 H 0.48339 0.4453 0.78273 0.0
H2565 H 0.47572 0.39836 0.81423 0.0
H2566 H 0.50233 0.42741 0.83395 0.0
H2567 H 0.51984 0.5317 0.89399 0.0
H2568 H 0.53137 0.52576 0.86899 0.0
H2569 H 0.51464 0.46133 0.87878 0.0
H2570 H 0.50241 0.46691 0.90366 0.0
H2571 H 0.50172 0.4622 0.84851 0.0
H2572 H 0.56678 0.50142 0.8837 0.0
H2573 H 0.59255 0.5312 0.90325 0.0
H2574 H 0.60318 0.57695 0.87006 0.0
H2575 H 0.57714 0.54749 0.85039 0.0
C2576 C 0.55762 0.46256 0.79097 0.0
C2577 C 0.56669 0.48066 0.78246 0.0
C2578 C 0.55135 0.4641 0.80585 0.0
C2579 C 0.55357 0.48363 0.81237 0.0
C2580 C 0.56302 0.50179 0.80398 0.0
C2581 C 0.56956 0.50034 0.78922 0.0
C2582 C 0.54584 0.48523 0.8278 0.0
C2583 C 0.56016 0.50197 0.83923 0.0
C2584 C 0.52453 0.4706 0.83127 0.0
C2585 C 0.50823 0.45317 0.81954 0.0
C2586 C 0.50259 0.45804 0.80504 0.0
C2587 C 0.48756 0.44147 0.79392 0.0
C2588 C 0.47793 0.41998 0.79722 0.0
C2589 C 0.48322 0.41502 0.81168 0.0
C2590 C 0.49825 0.43152 0.82284 0.0
C2591 C 0.51831 0.51614 0.89076 0.0
C2592 C 0.51023 0.4998 0.90088 0.0
C2593 C 0.52512 0.51285 0.87651 0.0
C2594 C 0.52416 0.4932 0.87209 0.0
C2595 C 0.51563 0.47665 0.88197 0.0
C2596 C 0.50882 0.47994 0.89625 0.0
C2597 C 0.53238 0.49013 0.85727 0.0
C2598 C 0.51819 0.4731 0.84601 0.0
C2599 C 0.55377 0.50455 0.85391 0.0
C2600 C 0.56984 0.52225 0.86561 0.0
C2601 C 0.5745 0.51785 0.88059 0.0
C2602 C 0.58914 0.53467 0.8917 0.0
C2603 C 0.59941 0.55596 0.88792 0.0
C2604 C 0.59516 0.56046 0.87298 0.0
C2605 C 0.58047 0.5437 0.86185 0.0
H2606 H 0.61073 0.56898 0.89653 0.0
H2607 H 0.46633 0.40717 0.78858 0.0
H2608 H 0.55367 0.06466 0.78565 0.0
H2609 H 0.54822 0.05076 0.81128 0.0
H2610 H 0.55043 0.10855 0.83101 0.0
H2611 H 0.55567 0.12246 0.80533 0.0
H2612 H 0.57337 0.09216 0.85061 0.0
H2613 H 0.50388 0.06913 0.82192 0.0
H2614 H 0.4767 0.05246 0.79889 0.0
H2615 H 0.47546 0.9924 0.80246 0.0
H2616 H 0.50295 0.00885 0.82536 0.0
H2617 H 0.52418 0.05248 0.91977 0.0
H2618 H 0.53399 0.06934 0.89552 0.0
H2619 H 0.5158 0.00763 0.87095 0.0
H2620 H 0.50473 0.99045 0.89489 0.0
H2621 H 0.50173 0.02705 0.85377 0.0
H2622 H 0.57036 0.04852 0.88203 0.0
H2623 H 0.59864 0.06441 0.90443 0.0
H2624 H 0.60296 0.12594 0.90137 0.0
H2625 H 0.57448 0.11034 0.87907 0.0
C2626 C 0.55349 0.07462 0.79552 0.0
C2627 C 0.55507 0.09464 0.79348 0.0
C2628 C 0.55026 0.06661 0.81013 0.0
C2629 C 0.54878 0.07857 0.82302 0.0
C2630 C 0.55153 0.09908 0.82123 0.0
C2631 C 0.55444 0.10696 0.80655 0.0
C2632 C 0.54269 0.06892 0.838 0.0
C2633 C 0.55763 0.07807 0.8514 0.0
C2634 C 0.52234 0.05027 0.8389 0.0
C2635 C 0.50563 0.04028 0.82525 0.0
C2636 C 0.49795 0.05242 0.81771 0.0
C2637 C 0.48247 0.04301 0.80469 0.0
C2638 C 0.4744 0.0214 0.79919 0.0
C2639 C 0.48175 0.00914 0.80672 0.0
C2640 C 0.49728 0.0185 0.81972 0.0
C2641 C 0.52198 0.0424 0.90918 0.0
C2642 C 0.5137 0.02004 0.9094 0.0
C2643 C 0.52792 0.05216 0.89532 0.0
C2644 C 0.52604 0.03988 0.88138 0.0
C2645 C 0.51756 0.01754 0.88153 0.0
C2646 C 0.51143 0.00775 0.89532 0.0
C2647 C 0.53248 0.05012 0.86655 0.0
C2648 C 0.51753 0.04111 0.8531 0.0
C2649 C 0.55294 0.06875 0.8656 0.0
C2650 C 0.57012 0.0782 0.87898 0.0
C2651 C 0.57722 0.0654 0.88621 0.0
C2652 C 0.59331 0.07436 0.89888 0.0
C2653 C 0.60255 0.09616 0.90435 0.0
C2654 C 0.59576 0.10905 0.89714 0.0
C2655 C 0.57966 0.10017 0.88447 0.0
H2656 H 0.615 0.10307 0.91416 0.0
H2657 H 0.46241 0.01413 0.78911 0.0
H2658 H 0.10206 0.26875 0.57247 0.0
H2659 H 0.11158 0.28229 0.54716 0.0
H2660 H 0.14218 0.244 0.54004 0.0
H2661 H 0.13272 0.23038 0.56553 0.0
H2662 H 0.16688 0.28352 0.53158 0.0
H2663 H 0.09234 0.22905 0.52064 0.0
H2664 H 0.05343 0.20967 0.52441 0.0
H2665 H 0.0497 0.26641 0.51677 0.0
H2666 H 0.08868 0.28624 0.51318 0.0
H2667 H 0.17628 0.30077 0.45094 0.0
H2668 H 0.16605 0.28352 0.4751 0.0
H2669 H 0.1372 0.32219 0.48711 0.0
H2670 H 0.14698 0.33918 0.46284 0.0
H2671 H 0.11125 0.28014 0.49225 0.0
H2672 H 0.18646 0.33483 0.50444 0.0
H2673 H 0.22535 0.35386 0.50059 0.0
H2674 H 0.22751 0.29571 0.50553 0.0
H2675 H 0.18854 0.27625 0.50919 0.0
C2676 C 0.11058 0.26296 0.56546 0.0
C2677 C 0.1164 0.24826 0.57098 0.0
C2678 C 0.11605 0.27076 0.55096 0.0
C2679 C 0.12729 0.26391 0.54152 0.0
C2680 C 0.13344 0.24948 0.54708 0.0
C2681 C 0.12804 0.24172 0.56166 0.0
C2682 C 0.13284 0.27214 0.526 0.0
C2683 C 0.15464 0.28243 0.52288 0.0
C2684 C 0.11698 0.2711 0.5147 0.0
C2685 C 0.09349 0.25919 0.51677 0.0
C2686 C 0.08326 0.23745 0.51988 0.0
C2687 C 0.06119 0.22637 0.52196 0.0
C2688 C 0.04911 0.23681 0.52086 0.0
C2689 C 0.05908 0.25834 0.51763 0.0
C2690 C 0.08116 0.26951 0.51555 0.0
C2691 C 0.1676 0.30548 0.45866 0.0
C2692 C 0.16252 0.32143 0.45496 0.0
C2693 C 0.16192 0.29573 0.47253 0.0
C2694 C 0.15103 0.3017 0.48301 0.0
C2695 C 0.14564 0.31736 0.47924 0.0
C2696 C 0.15141 0.32719 0.46541 0.0
C2697 C 0.14529 0.2917 0.49793 0.0
C2698 C 0.12344 0.28108 0.50092 0.0
C2699 C 0.16109 0.29234 0.50906 0.0
C2700 C 0.18453 0.30403 0.50692 0.0
C2701 C 0.19518 0.32606 0.50457 0.0
C2702 C 0.21725 0.33693 0.50245 0.0
C2703 C 0.22888 0.32599 0.50277 0.0
C2704 C 0.21848 0.30416 0.50526 0.0
C2705 C 0.1964 0.2932 0.50737 0.0
H2706 H 0.24596 0.33443 0.50113 0.0
H2707 H 0.03202 0.22821 0.52249 0.0
H2708 H 0.75719 0.90035 0.58886 0.0
H2709 H 0.74875 0.89896 0.56064 0.0
H2710 H 0.72213 0.82992 0.55614 0.0
H2711 H 0.73059 0.83122 0.58412 0.0
H2712 H 0.74618 0.84688 0.53316 0.0
H2713 H 0.68977 0.85335 0.55706 0.0
H2714 H 0.67561 0.87076 0.5746 0.0
H2715 H 0.70559 0.928 0.55083 0.0
H2716 H 0.72017 0.91101 0.53326 0.0
H2717 H 0.67456 0.80821 0.46384 0.0
H2718 H 0.69091 0.81716 0.49094 0.0
H2719 H 0.7179 0.88498 0.48593 0.0
H2720 H 0.70131 0.87611 0.45881 0.0
H2721 H 0.69807 0.87346 0.51297 0.0
H2722 H 0.75074 0.86472 0.48698 0.0
H2723 H 0.76406 0.84659 0.46934 0.0
H2724 H 0.74051 0.79296 0.49695 0.0
H2725 H 0.72674 0.81062 0.51463 0.0
C2726 C 0.74954 0.88491 0.58182 0.0
C2727 C 0.74465 0.86592 0.58871 0.0
C2728 C 0.74472 0.88412 0.56571 0.0
C2729 C 0.73467 0.8643 0.55628 0.0
C2730 C 0.73001 0.84541 0.56314 0.0
C2731 C 0.73491 0.8462 0.57915 0.0
C2732 C 0.72847 0.86287 0.53929 0.0
C2733 C 0.73555 0.85258 0.52876 0.0
C2734 C 0.7151 0.87084 0.53348 0.0
C2735 C 0.70626 0.88101 0.54398 0.0
C2736 C 0.69347 0.86971 0.55565 0.0
C2737 C 0.68535 0.87949 0.56559 0.0
C2738 C 0.68976 0.9005 0.56387 0.0
C2739 C 0.70223 0.91174 0.55217 0.0
C2740 C 0.71042 0.90205 0.54222 0.0
C2741 C 0.68393 0.82503 0.46852 0.0
C2742 C 0.68664 0.84146 0.4592 0.0
C2743 C 0.69341 0.83013 0.48396 0.0
C2744 C 0.70579 0.85175 0.4904 0.0
C2745 C 0.70849 0.86821 0.48116 0.0
C2746 C 0.69912 0.86312 0.46566 0.0
C2747 C 0.71535 0.85699 0.50693 0.0
C2748 C 0.70893 0.86803 0.51735 0.0
C2749 C 0.72924 0.8496 0.51266 0.0
C2750 C 0.73756 0.83894 0.50207 0.0
C2751 C 0.74824 0.84899 0.48923 0.0
C2752 C 0.7559 0.83881 0.47923 0.0
C2753 C 0.7531 0.81862 0.482 0.0
C2754 C 0.74266 0.80859 0.4948 0.0
C2755 C 0.73495 0.81869 0.50483 0.0
H2756 H 0.75904 0.81077 0.47425 0.0
H2757 H 0.68346 0.90804 0.57157 0.0
H2758 H 0.12449 0.84287 0.57355 0.0
H2759 H 0.12721 0.83431 0.54615 0.0
H2760 H 0.11972 0.88769 0.53348 0.0
H2761 H 0.11694 0.89632 0.56089 0.0
H2762 H 0.09812 0.85005 0.51099 0.0
H2763 H 0.16818 0.89692 0.53979 0.0
H2764 H 0.19643 0.90738 0.56176 0.0
H2765 H 0.19952 0.85005 0.54982 0.0
H2766 H 0.17098 0.83906 0.52793 0.0
H2767 H 0.14845 0.86904 0.4399 0.0
H2768 H 0.13633 0.87141 0.46546 0.0
H2769 H 0.15645 0.82741 0.48117 0.0
H2770 H 0.16957 0.82583 0.45598 0.0
H2771 H 0.17029 0.85955 0.50221 0.0
H2772 H 0.10145 0.81288 0.47275 0.0
H2773 H 0.07145 0.80065 0.45182 0.0
H2774 H 0.065 0.85572 0.46491 0.0
H2775 H 0.09515 0.86845 0.4858 0.0
C2776 C 0.12278 0.85239 0.56487 0.0
C2777 C 0.12062 0.87034 0.56937 0.0
C2778 C 0.12448 0.84757 0.54924 0.0
C2779 C 0.12392 0.86052 0.53782 0.0
C2780 C 0.12022 0.87751 0.54211 0.0
C2781 C 0.11873 0.88247 0.55776 0.0
C2782 C 0.12941 0.85774 0.52183 0.0
C2783 C 0.11394 0.8523 0.50898 0.0
C2784 C 0.14993 0.86033 0.5193 0.0
C2785 C 0.16729 0.86706 0.53232 0.0
C2786 C 0.17476 0.88646 0.54192 0.0
C2787 C 0.19084 0.89249 0.55435 0.0
C2788 C 0.19972 0.87936 0.55721 0.0
C2789 C 0.19259 0.86019 0.54761 0.0
C2790 C 0.17647 0.85405 0.53519 0.0
C2791 C 0.15039 0.85993 0.44881 0.0
C2792 C 0.16004 0.84725 0.4458 0.0
C2793 C 0.14317 0.86108 0.46339 0.0
C2794 C 0.14522 0.8494 0.47526 0.0
C2795 C 0.15459 0.83653 0.47222 0.0
C2796 C 0.16192 0.83549 0.4577 0.0
C2797 C 0.1389 0.85154 0.49115 0.0
C2798 C 0.15435 0.85709 0.50406 0.0
C2799 C 0.11831 0.84892 0.49368 0.0
C2800 C 0.10068 0.8417 0.48077 0.0
C2801 C 0.09379 0.82251 0.47106 0.0
C2802 C 0.0767 0.81543 0.45925 0.0
C2803 C 0.06626 0.82735 0.4571 0.0
C2804 C 0.07304 0.84647 0.46664 0.0
C2805 C 0.09013 0.85361 0.47847 0.0
H2806 H 0.05296 0.8218 0.448 0.0
H2807 H 0.21217 0.88406 0.56684 0.0
H2808 H 0.63382 0.83875 0.11185 0.0
H2809 H 0.64222 0.84825 0.14009 0.0
H2810 H 0.58741 0.78695 0.14755 0.0
H2811 H 0.5783 0.77776 0.11934 0.0
H2812 H 0.59252 0.81772 0.16939 0.0
H2813 H 0.63819 0.7935 0.14739 0.0
H2814 H 0.66407 0.794 0.1295 0.0
H2815 H 0.71065 0.85904 0.14807 0.0
H2816 H 0.6849 0.85903 0.16593 0.0
H2817 H 0.62836 0.8002 0.2434 0.0
H2818 H 0.61549 0.79861 0.21613 0.0
H2819 H 0.67137 0.86095 0.21244 0.0
H2820 H 0.68428 0.86267 0.23968 0.0
H2821 H 0.66595 0.83244 0.18887 0.0
H2822 H 0.6204 0.85449 0.2132 0.0
H2823 H 0.59411 0.85226 0.23134 0.0
H2824 H 0.54688 0.78962 0.20888 0.0
H2825 H 0.57298 0.79132 0.19074 0.0
C2826 C 0.62318 0.82754 0.11948 0.0
C2827 C 0.60557 0.80734 0.11333 0.0
C2828 C 0.62812 0.83291 0.13563 0.0
C2829 C 0.61574 0.8181 0.14594 0.0
C2830 C 0.59731 0.79857 0.13984 0.0
C2831 C 0.59225 0.79325 0.1237 0.0
C2832 C 0.623 0.82203 0.16292 0.0
C2833 C 0.60853 0.82084 0.17368 0.0
C2834 C 0.64399 0.82636 0.16852 0.0
C2835 C 0.65954 0.82635 0.15787 0.0
C2836 C 0.65389 0.80796 0.14758 0.0
C2837 C 0.66854 0.80815 0.13746 0.0
C2838 C 0.68897 0.82656 0.13762 0.0
C2839 C 0.69481 0.8448 0.14794 0.0
C2840 C 0.6802 0.84472 0.15807 0.0
C2841 C 0.63773 0.81371 0.23685 0.0
C2842 C 0.65741 0.8315 0.24368 0.0
C2843 C 0.63034 0.8128 0.22127 0.0
C2844 C 0.64239 0.82974 0.21227 0.0
C2845 C 0.66183 0.84768 0.21915 0.0
C2846 C 0.66925 0.84858 0.23469 0.0
C2847 C 0.63551 0.82816 0.19541 0.0
C2848 C 0.65004 0.82966 0.18464 0.0
C2849 C 0.61453 0.82393 0.18987 0.0
C2850 C 0.59873 0.82296 0.20068 0.0
C2851 C 0.60446 0.84017 0.2122 0.0
C2852 C 0.58958 0.83902 0.22247 0.0
C2853 C 0.56886 0.82079 0.22129 0.0
C2854 C 0.56295 0.80372 0.20979 0.0
C2855 C 0.57777 0.80478 0.1995 0.0
H2856 H 0.55738 0.81988 0.22927 0.0
H2857 H 0.70029 0.82667 0.12978 0.0
H2858 H 0.22062 0.78134 0.11981 0.0
H2859 H 0.21014 0.78522 0.14579 0.0
H2860 H 0.2316 0.85225 0.14115 0.0
H2861 H 0.2422 0.84851 0.11524 0.0
H2862 H 0.24466 0.84787 0.1695 0.0
H2863 H 0.17724 0.81288 0.1361 0.0
H2864 H 0.14908 0.78455 0.11677 0.0
H2865 H 0.13864 0.73657 0.14798 0.0
H2866 H 0.16697 0.76459 0.16743 0.0
H2867 H 0.19137 0.86962 0.22857 0.0
H2868 H 0.20268 0.86356 0.20345 0.0
H2869 H 0.18341 0.79824 0.21245 0.0
H2870 H 0.17169 0.80408 0.23751 0.0
H2871 H 0.16963 0.80034 0.18254 0.0
H2872 H 0.23598 0.83553 0.21635 0.0
H2873 H 0.2642 0.86383 0.23566 0.0
H2874 H 0.27663 0.91139 0.20367 0.0
H2875 H 0.24824 0.88342 0.18424 0.0
C2876 C 0.223 0.79688 0.1243 0.0
C2877 C 0.23222 0.81461 0.11544 0.0
C2878 C 0.21701 0.79907 0.13916 0.0
C2879 C 0.21984 0.81898 0.14538 0.0
C2880 C 0.22929 0.83675 0.13663 0.0
C2881 C 0.23539 0.8346 0.12183 0.0
C2882 C 0.21293 0.82135 0.16096 0.0
C2883 C 0.22818 0.83763 0.17227 0.0
C2884 C 0.19157 0.80764 0.16477 0.0
C2885 C 0.17438 0.7908 0.15315 0.0
C2886 C 0.16905 0.79627 0.1388 0.0
C2887 C 0.15304 0.78027 0.12783 0.0
C2888 C 0.14212 0.75876 0.13112 0.0
C2889 C 0.14713 0.75322 0.14543 0.0
C2890 C 0.16315 0.76916 0.15644 0.0
C2891 C 0.18939 0.85391 0.22516 0.0
C2892 C 0.18064 0.83733 0.23505 0.0
C2893 C 0.19603 0.85053 0.21086 0.0
C2894 C 0.19408 0.83051 0.20613 0.0
C2895 C 0.18512 0.81384 0.21588 0.0
C2896 C 0.17858 0.81725 0.23024 0.0
C2897 C 0.2013 0.82701 0.19097 0.0
C2898 C 0.18612 0.81052 0.17976 0.0
C2899 C 0.22271 0.84053 0.18724 0.0
C2900 C 0.23983 0.8574 0.19889 0.0
C2901 C 0.2446 0.85205 0.21348 0.0
C2902 C 0.26065 0.86803 0.22444 0.0
C2903 C 0.27216 0.8894 0.22091 0.0
C2904 C 0.26768 0.89483 0.2064 0.0
C2905 C 0.25162 0.87892 0.1954 0.0
H2906 H 0.28459 0.90175 0.22941 0.0
H2907 H 0.12974 0.74639 0.12261 0.0
H2908 H 0.22865 0.40931 0.12383 0.0
H2909 H 0.22379 0.39554 0.14941 0.0
H2910 H 0.20882 0.44396 0.16626 0.0
H2911 H 0.21458 0.45843 0.14092 0.0
H2912 H 0.23183 0.43786 0.18886 0.0
H2913 H 0.16851 0.3922 0.15313 0.0
H2914 H 0.1483 0.36895 0.12883 0.0
H2915 H 0.17063 0.32509 0.13958 0.0
H2916 H 0.19124 0.34825 0.16386 0.0
H2917 H 0.17328 0.38467 0.25207 0.0
H2918 H 0.18426 0.40208 0.22807 0.0
H2919 H 0.20006 0.35403 0.2118 0.0
H2920 H 0.18922 0.3366 0.23574 0.0
H2921 H 0.17734 0.36028 0.18911 0.0
H2922 H 0.23977 0.40599 0.22574 0.0
H2923 H 0.25866 0.42908 0.25036 0.0
H2924 H 0.23676 0.47283 0.23825 0.0
H2925 H 0.21748 0.44983 0.21364 0.0
C2926 C 0.22485 0.4174 0.13307 0.0
C2927 C 0.2218 0.43488 0.1302 0.0
C2928 C 0.22182 0.40933 0.14767 0.0
C2929 C 0.21545 0.41838 0.15971 0.0
C2930 C 0.21355 0.43656 0.15716 0.0
C2931 C 0.21667 0.4447 0.14259 0.0
C2932 C 0.20963 0.40825 0.17462 0.0
C2933 C 0.21977 0.42095 0.18891 0.0
C2934 C 0.19408 0.3861 0.17477 0.0
C2935 C 0.18159 0.37207 0.16023 0.0
C2936 C 0.16923 0.37767 0.15026 0.0
C2937 C 0.15769 0.36451 0.13649 0.0
C2938 C 0.15822 0.34559 0.13264 0.0
C2939 C 0.17026 0.33977 0.14257 0.0
C2940 C 0.18186 0.3529 0.15634 0.0
C2941 C 0.1793 0.37792 0.24346 0.0
C2942 C 0.18029 0.35916 0.24587 0.0
C2943 C 0.18558 0.38791 0.22972 0.0
C2944 C 0.19319 0.3795 0.21813 0.0
C2945 C 0.19419 0.36081 0.22051 0.0
C2946 C 0.18788 0.3508 0.23421 0.0
C2947 C 0.19964 0.38983 0.20336 0.0
C2948 C 0.18951 0.37717 0.18908 0.0
C2949 C 0.2151 0.41201 0.20326 0.0
C2950 C 0.22702 0.42608 0.21791 0.0
C2951 C 0.23888 0.42047 0.22837 0.0
C2952 C 0.24967 0.43354 0.24231 0.0
C2953 C 0.24887 0.45238 0.24588 0.0
C2954 C 0.23735 0.45822 0.23548 0.0
C2955 C 0.22651 0.44519 0.22152 0.0
H2956 H 0.2572 0.46246 0.2567 0.0
H2957 H 0.14927 0.33541 0.12198 0.0
H2958 H 0.81674 0.60348 0.91266 0.0
H2959 H 0.82755 0.61812 0.88773 0.0
H2960 H 0.76163 0.57801 0.86668 0.0
H2961 H 0.75088 0.5627 0.89138 0.0
H2962 H 0.78903 0.57901 0.84678 0.0
H2963 H 0.7822 0.63175 0.87883 0.0
H2964 H 0.78912 0.65643 0.90236 0.0
H2965 H 0.85701 0.69135 0.89626 0.0
H2966 H 0.85053 0.66667 0.87279 0.0
H2967 H 0.79682 0.63695 0.78072 0.0
H2968 H 0.78696 0.61989 0.80495 0.0
H2969 H 0.85324 0.65931 0.82546 0.0
H2970 H 0.86324 0.67637 0.80126 0.0
H2971 H 0.82579 0.65845 0.84554 0.0
H2972 H 0.83176 0.60528 0.81281 0.0
H2973 H 0.8238 0.5807 0.78899 0.0
H2974 H 0.75621 0.54676 0.79605 0.0
H2975 H 0.76374 0.57131 0.81983 0.0
C2976 C 0.8046 0.59748 0.90267 0.0
C2977 C 0.78288 0.582 0.90411 0.0
C2978 C 0.81076 0.60606 0.88844 0.0
C2979 C 0.79534 0.59948 0.87535 0.0
C2980 C 0.77383 0.58347 0.8766 0.0
C2981 C 0.76766 0.57486 0.8908 0.0
C2982 C 0.80146 0.60964 0.86049 0.0
C2983 C 0.79686 0.59637 0.8465 0.0
C2984 C 0.81197 0.63233 0.86007 0.0
C2985 C 0.81591 0.64722 0.87415 0.0
C2986 C 0.79863 0.64458 0.88257 0.0
C2987 C 0.80247 0.65859 0.89589 0.0
C2988 C 0.8235 0.67541 0.90083 0.0
C2989 C 0.84073 0.67829 0.89244 0.0
C2990 C 0.83698 0.66431 0.87912 0.0
C2991 C 0.80937 0.64184 0.79032 0.0
C2992 C 0.83086 0.65805 0.78899 0.0
C2993 C 0.80369 0.63207 0.80419 0.0
C2994 C 0.81939 0.63813 0.81702 0.0
C2995 C 0.84081 0.65437 0.81576 0.0
C2996 C 0.8465 0.66417 0.80191 0.0
C2997 C 0.81348 0.62783 0.83185 0.0
C2998 C 0.81805 0.64109 0.84583 0.0
C2999 C 0.80282 0.60514 0.83223 0.0
C3000 C 0.79829 0.59025 0.81802 0.0
C3001 C 0.81518 0.59266 0.80923 0.0
C3002 C 0.81075 0.57872 0.79575 0.0
C3003 C 0.78951 0.56221 0.79099 0.0
C3004 C 0.77266 0.55957 0.79974 0.0
C3005 C 0.777 0.57347 0.81323 0.0
H3006 H 0.78611 0.55144 0.78055 0.0
H3007 H 0.82644 0.68624 0.91114 0.0
H3008 H 0.42721 0.18793 0.91263 0.0
H3009 H 0.41534 0.1866 0.88518 0.0
H3010 H 0.36531 0.19931 0.89896 0.0
H3011 H 0.37679 0.20014 0.92647 0.0
H3012 H 0.3497 0.16626 0.87606 0.0
H3013 H 0.40991 0.23834 0.88506 0.0
H3014 H 0.4476 0.26677 0.89372 0.0
H3015 H 0.47098 0.2384 0.86042 0.0
H3016 H 0.43343 0.2096 0.85171 0.0
H3017 H 0.32034 0.18154 0.79974 0.0
H3018 H 0.3334 0.18829 0.82752 0.0
H3019 H 0.38496 0.17618 0.81701 0.0
H3020 H 0.37194 0.1693 0.78923 0.0
H3021 H 0.39947 0.21074 0.83855 0.0
H3022 H 0.33972 0.13764 0.83073 0.0
H3023 H 0.30214 0.10888 0.82213 0.0
H3024 H 0.27808 0.13902 0.85336 0.0
H3025 H 0.31553 0.16815 0.86199 0.0
C3026 C 0.41365 0.19039 0.90981 0.0
C3027 C 0.40291 0.1941 0.92172 0.0
C3028 C 0.40701 0.18983 0.89413 0.0
C3029 C 0.38957 0.19306 0.89003 0.0
C3030 C 0.37886 0.19686 0.90187 0.0
C3031 C 0.38554 0.19748 0.91758 0.0
C3032 C 0.38203 0.19166 0.87335 0.0
C3033 C 0.36048 0.17626 0.86791 0.0
C3034 C 0.39624 0.20436 0.86265 0.0
C3035 C 0.41885 0.22169 0.86783 0.0
C3036 C 0.4231 0.23806 0.87967 0.0
C3037 C 0.44444 0.25426 0.88457 0.0
C3038 C 0.46168 0.25436 0.87765 0.0
C3039 C 0.45761 0.23829 0.86578 0.0
C3040 C 0.4363 0.22203 0.86084 0.0
C3041 C 0.33442 0.18025 0.80335 0.0
C3042 C 0.34501 0.17475 0.79228 0.0
C3043 C 0.34189 0.18416 0.81922 0.0
C3044 C 0.36 0.18249 0.82436 0.0
C3045 C 0.37097 0.17759 0.81331 0.0
C3046 C 0.36353 0.17371 0.79743 0.0
C3047 C 0.36719 0.18527 0.84127 0.0
C3048 C 0.38866 0.20088 0.84674 0.0
C3049 C 0.35293 0.17274 0.85201 0.0
C3050 C 0.33041 0.1552 0.84688 0.0
C3051 C 0.3264 0.13823 0.83568 0.0
C3052 C 0.30513 0.12184 0.83081 0.0
C3053 C 0.28773 0.12216 0.83716 0.0
C3054 C 0.29157 0.13882 0.84843 0.0
C3055 C 0.31282 0.15527 0.85332 0.0
H3056 H 0.27127 0.10945 0.83338 0.0
H3057 H 0.47819 0.26693 0.88146 0.0
H3058 H 0.7835 0.17341 0.90618 0.0
H3059 H 0.78583 0.16135 0.87953 0.0
H3060 H 0.79277 0.22022 0.86375 0.0
H3061 H 0.78992 0.23208 0.89022 0.0
H3062 H 0.76854 0.18623 0.84183 0.0
H3063 H 0.83697 0.21605 0.87397 0.0
H3064 H 0.86094 0.21854 0.89681 0.0
H3065 H 0.84576 0.15333 0.88429 0.0
H3066 H 0.82143 0.15036 0.86147 0.0
H3067 H 0.83179 0.20636 0.77819 0.0
H3068 H 0.81744 0.20703 0.80312 0.0
H3069 H 0.81122 0.14532 0.81048 0.0
H3070 H 0.82579 0.14465 0.78553 0.0
H3071 H 0.83127 0.17519 0.83631 0.0
H3072 H 0.767 0.14795 0.80139 0.0
H3073 H 0.74496 0.14724 0.77798 0.0
H3074 H 0.75289 0.20838 0.79527 0.0
H3075 H 0.77549 0.20976 0.81861 0.0
C3076 C 0.78496 0.18352 0.89695 0.0
C3077 C 0.78678 0.20382 0.90034 0.0
C3078 C 0.78646 0.17669 0.88174 0.0
C3079 C 0.78985 0.19005 0.86967 0.0
C3080 C 0.79026 0.20967 0.87286 0.0
C3081 C 0.78879 0.21651 0.88802 0.0
C3082 C 0.79482 0.18461 0.85409 0.0
C3083 C 0.78227 0.18386 0.84061 0.0
C3084 C 0.8125 0.1811 0.85248 0.0
C3085 C 0.82719 0.1829 0.86614 0.0
C3086 C 0.83861 0.20219 0.87616 0.0
C3087 C 0.85228 0.2037 0.88909 0.0
C3088 C 0.85481 0.18608 0.89203 0.0
C3089 C 0.84374 0.16694 0.88202 0.0
C3090 C 0.83001 0.16534 0.86908 0.0
C3091 C 0.82737 0.19293 0.78511 0.0
C3092 C 0.82998 0.17547 0.77991 0.0
C3093 C 0.819 0.19324 0.7993 0.0
C3094 C 0.81308 0.17614 0.80861 0.0
C3095 C 0.81559 0.15864 0.80345 0.0
C3096 C 0.8238 0.15822 0.78916 0.0
C3097 C 0.80518 0.1771 0.82403 0.0
C3098 C 0.81725 0.17711 0.8375 0.0
C3099 C 0.78713 0.18002 0.82559 0.0
C3100 C 0.77312 0.17904 0.81172 0.0
C3101 C 0.76419 0.16133 0.80017 0.0
C3102 C 0.75158 0.1608 0.7869 0.0
C3103 C 0.74754 0.17776 0.78513 0.0
C3104 C 0.75605 0.19525 0.79665 0.0
C3105 C 0.76877 0.19593 0.8099 0.0
H3106 H 0.73783 0.17735 0.77484 0.0
H3107 H 0.86541 0.18728 0.90204 0.0
H3108 H 0.28406 0.11512 0.45001 0.0
H3109 H 0.29213 0.12241 0.47823 0.0
H3110 H 0.27705 0.17361 0.47772 0.0
H3111 H 0.2681 0.16592 0.44925 0.0
H3112 H 0.31687 0.18466 0.49588 0.0
H3113 H 0.24197 0.12984 0.49101 0.0
H3114 H 0.20986 0.09503 0.48074 0.0
H3115 H 0.23991 0.0611 0.49977 0.0
H3116 H 0.27235 0.09573 0.50997 0.0
H3117 H 0.32914 0.19548 0.5794 0.0
H3118 H 0.31469 0.19165 0.55216 0.0
H3119 H 0.31437 0.13153 0.54399 0.0
H3120 H 0.32832 0.13507 0.57124 0.0
H3121 H 0.2786 0.1273 0.53057 0.0
H3122 H 0.35458 0.18056 0.53227 0.0
H3123 H 0.38812 0.21465 0.54168 0.0
H3124 H 0.35765 0.25071 0.52797 0.0
H3125 H 0.32382 0.21678 0.51865 0.0
C3126 C 0.28195 0.12764 0.45584 0.0
C3127 C 0.27504 0.13969 0.44731 0.0
C3128 C 0.28675 0.13189 0.472 0.0
C3129 C 0.28494 0.14836 0.48007 0.0
C3130 C 0.27846 0.16076 0.47167 0.0
C3131 C 0.27343 0.15638 0.45542 0.0
C3132 C 0.29025 0.15261 0.49725 0.0
C3133 C 0.30824 0.17234 0.50356 0.0
C3134 C 0.27925 0.1363 0.50715 0.0
C3135 C 0.25966 0.11541 0.50118 0.0
C3136 C 0.2418 0.11496 0.49292 0.0
C3137 C 0.22353 0.09526 0.48712 0.0
C3138 C 0.22286 0.07587 0.48958 0.0
C3139 C 0.24045 0.07614 0.49788 0.0
C3140 C 0.25878 0.0958 0.50369 0.0
C3141 C 0.32603 0.18149 0.57175 0.0
C3142 C 0.32989 0.16559 0.57742 0.0
C3143 C 0.3178 0.17933 0.55619 0.0
C3144 C 0.31366 0.16142 0.54594 0.0
C3145 C 0.31734 0.14545 0.55166 0.0
C3146 C 0.32532 0.14748 0.56723 0.0
C3147 C 0.30562 0.15921 0.52923 0.0
C3148 C 0.28707 0.13982 0.52299 0.0
C3149 C 0.31628 0.17575 0.51938 0.0
C3150 C 0.3366 0.19614 0.52494 0.0
C3151 C 0.35498 0.19575 0.53137 0.0
C3152 C 0.37405 0.21505 0.53667 0.0
C3153 C 0.37499 0.23483 0.53547 0.0
C3154 C 0.35688 0.23537 0.52892 0.0
C3155 C 0.33776 0.21612 0.52363 0.0
H3156 H 0.38977 0.24975 0.53957 0.0
H3157 H 0.2087 0.06063 0.48508 0.0
H3158 H 0.88305 0.1109 0.45014 0.0
H3159 H 0.87341 0.11435 0.47647 0.0
H3160 H 0.90373 0.18335 0.47557 0.0
H3161 H 0.91349 0.18002 0.44927 0.0
H3162 H 0.91364 0.17425 0.50326 0.0
H3163 H 0.84807 0.14995 0.46936 0.0
H3164 H 0.81865 0.12583 0.44894 0.0
H3165 H 0.80006 0.07277 0.47674 0.0
H3166 H 0.82958 0.09653 0.49725 0.0
H3167 H 0.86426 0.1985 0.5644 0.0
H3168 H 0.87553 0.19332 0.53904 0.0
H3169 H 0.84797 0.12536 0.54374 0.0
H3170 H 0.83636 0.13038 0.56906 0.0
H3171 H 0.83691 0.13274 0.51461 0.0
H3172 H 0.90173 0.15774 0.54906 0.0
H3173 H 0.93103 0.18215 0.56945 0.0
H3174 H 0.95088 0.23426 0.54059 0.0
H3175 H 0.92147 0.21024 0.52012 0.0
C3176 C 0.8876 0.1268 0.45552 0.0
C3177 C 0.89898 0.14517 0.44755 0.0
C3178 C 0.88208 0.12876 0.47059 0.0
C3179 C 0.88757 0.14909 0.47796 0.0
C3180 C 0.89932 0.16749 0.47016 0.0
C3181 C 0.90494 0.16556 0.45512 0.0
C3182 C 0.88088 0.15121 0.49371 0.0
C3183 C 0.89682 0.16535 0.50568 0.0
C3184 C 0.85901 0.13925 0.49703 0.0
C3185 C 0.84117 0.12496 0.48476 0.0
C3186 C 0.83781 0.1331 0.47106 0.0
C3187 C 0.82111 0.1195 0.45948 0.0
C3188 C 0.80754 0.09777 0.46152 0.0
C3189 C 0.81061 0.0896 0.47517 0.0
C3190 C 0.82731 0.10313 0.48678 0.0
C3191 C 0.86049 0.18242 0.56001 0.0
C3192 C 0.8494 0.16485 0.56876 0.0
C3193 C 0.86711 0.17952 0.54556 0.0
C3194 C 0.86276 0.15898 0.53953 0.0
C3195 C 0.85156 0.14136 0.54817 0.0
C3196 C 0.84506 0.14429 0.56269 0.0
C3197 C 0.86964 0.15587 0.52409 0.0
C3198 C 0.85373 0.14156 0.5122 0.0
C3199 C 0.89153 0.16773 0.52083 0.0
C3200 C 0.90925 0.18223 0.53311 0.0
C3201 C 0.91222 0.17445 0.54711 0.0
C3202 C 0.92887 0.18821 0.55868 0.0
C3203 C 0.94277 0.20976 0.55633 0.0
C3204 C 0.94008 0.21757 0.5424 0.0
C3205 C 0.92343 0.20389 0.53081 0.0
H3206 H 0.95566 0.22038 0.5653 0.0
H3207 H 0.79461 0.08726 0.45254 0.0
H3208 H 0.84349 0.73816 0.45597 0.0
H3209 H 0.83925 0.72591 0.48193 0.0
H3210 H 0.90872 0.76174 0.49331 0.0
H3211 H 0.91311 0.77408 0.46705 0.0
H3212 H 0.89114 0.72249 0.50422 0.0
H3213 H 0.8772 0.78098 0.50737 0.0
H3214 H 0.86053 0.80229 0.49919 0.0
H3215 H 0.79734 0.7494 0.50467 0.0
H3216 H 0.8136 0.72764 0.51266 0.0
H3217 H 0.87924 0.70888 0.58546 0.0
H3218 H 0.8888 0.72506 0.56085 0.0
H3219 H 0.82116 0.69106 0.54289 0.0
H3220 H 0.81145 0.6752 0.56757 0.0
H3221 H 0.84117 0.7328 0.53654 0.0
H3222 H 0.85543 0.67372 0.53172 0.0
H3223 H 0.87239 0.65264 0.53985 0.0
H3224 H 0.93565 0.70757 0.5379 0.0
H3225 H 0.91905 0.72907 0.52995 0.0
C3226 C 0.85791 0.74363 0.46401 0.0
C3227 C 0.87864 0.75745 0.45952 0.0
C3228 C 0.85545 0.73657 0.47888 0.0
C3229 C 0.87361 0.74327 0.48975 0.0
C3230 C 0.89443 0.75648 0.48517 0.0
C3231 C 0.89694 0.76351 0.47017 0.0
C3232 C 0.87056 0.73641 0.50584 0.0
C3233 C 0.88053 0.7251 0.51141 0.0
C3234 C 0.85647 0.73951 0.51518 0.0
C3235 C 0.84662 0.75262 0.51051 0.0
C3236 C 0.85974 0.77383 0.50673 0.0
C3237 C 0.85036 0.786 0.50214 0.0
C3238 C 0.82789 0.77719 0.50139 0.0
C3239 C 0.81475 0.7562 0.50526 0.0
C3240 C 0.82404 0.74395 0.50984 0.0
C3241 C 0.86638 0.70498 0.57633 0.0
C3242 C 0.84456 0.69067 0.5785 0.0
C3243 C 0.87189 0.7141 0.5622 0.0
C3244 C 0.85573 0.70912 0.54993 0.0
C3245 C 0.83393 0.6951 0.55216 0.0
C3246 C 0.82842 0.68591 0.56624 0.0
C3247 C 0.86139 0.71852 0.53479 0.0
C3248 C 0.85193 0.73036 0.52941 0.0
C3249 C 0.87602 0.71599 0.52569 0.0
C3250 C 0.886 0.70306 0.53041 0.0
C3251 C 0.87296 0.68135 0.53315 0.0
C3252 C 0.88251 0.66932 0.5377 0.0
C3253 C 0.90509 0.67878 0.53944 0.0
C3254 C 0.91816 0.70027 0.53657 0.0
C3255 C 0.9087 0.71238 0.53204 0.0
H3256 H 0.91245 0.66944 0.54296 0.0
H3257 H 0.82066 0.78663 0.49782 0.0
loop_
_geom_bond_atom_site_label_1
_geom_bond_atom_site_label_2
_geom_bond_distance
_geom_bond_site_symmetry_2
_ccdc_geom_bond_type
H0 C3 0.929 . S
H1 C6 0.929 . S
H2 C8 0.930 . S
C3 H0 0.929 . S
C3 C4 1.398 . S
C3 C5 1.396 . S
C4 C3 1.398 . S
C4 C8 1.407 . S
C5 C3 1.396 . S
C5 C6 1.394 . S
C6 H1 0.929 . S
C6 C5 1.394 . S
C6 C7 1.382 . S
C7 C6 1.382 . S
C7 C8 1.392 . S
C7 N9 1.420 . S
C8 H2 0.930 . S
C8 C4 1.407 . S
C8 C7 1.392 . S
N9 C7 1.420 . S
N9 C10 1.244 . S
C10 N9 1.244 . S
H11 C14 0.929 . S
H12 C17 0.929 . S
H13 C19 0.930 . S
C14 H11 0.929 . S
C14 C15 1.398 . S
C14 C16 1.396 . S
C15 C14 1.398 . S
C15 C19 1.407 . S
C16 C14 1.396 . S
C16 C17 1.394 . S
C17 H12 0.929 . S
C17 C16 1.394 . S
C17 C18 1.382 . S
C18 C17 1.382 . S
C18 C19 1.392 . S
C18 N20 1.420 . S
C19 H13 0.930 . S
C19 C15 1.407 . S
C19 C18 1.392 . S
N20 C18 1.420 . S
N20 C21 1.244 . S
C21 N20 1.244 . S
H22 C25 0.929 . S
H23 C28 0.929 . S
H24 C30 0.930 . S
C25 H22 0.929 . S
C25 C26 1.398 . S
C25 C27 1.396 . S
C26 C25 1.398 . S
C26 C30 1.407 . S
C27 C25 1.396 . S
C27 C28 1.394 . S
C28 H23 0.929 . S
C28 C27 1.394 . S
C28 C29 1.382 . S
C29 C28 1.382 . S
C29 C30 1.392 . S
C29 N31 1.420 . S
C30 H24 0.930 . S
C30 C26 1.407 . S
C30 C29 1.392 . S
N31 C29 1.420 . S
N31 C32 1.244 . S
C32 N31 1.244 . S
H33 C36 0.929 . S
H34 C39 0.929 . S
H35 C41 0.930 . S
C36 H33 0.929 . S
C36 C37 1.398 . S
C36 C38 1.396 . S
C37 C36 1.398 . S
C37 C41 1.407 . S
C38 C36 1.396 . S
C38 C39 1.394 . S
C39 H34 0.929 . S
C39 C38 1.394 . S
C39 C40 1.382 . S
C40 C39 1.382 . S
C40 C41 1.392 . S
C40 N42 1.420 . S
C41 H35 0.930 . S
C41 C37 1.407 . S
C41 C40 1.392 . S
N42 C40 1.420 . S
N42 C43 1.244 . S
C43 N42 1.244 . S
H44 C47 0.929 . S
H45 C50 0.929 . S
H46 C52 0.930 . S
C47 H44 0.929 . S
C47 C48 1.398 . S
C47 C49 1.396 . S
C48 C47 1.398 . S
C48 C52 1.407 . S
C49 C47 1.396 . S
C49 C50 1.394 . S
C50 H45 0.929 . S
C50 C49 1.394 . S
C50 C51 1.382 . S
C51 C50 1.382 . S
C51 C52 1.392 . S
C51 N53 1.420 . S
C52 H46 0.930 . S
C52 C48 1.407 . S
C52 C51 1.392 . S
N53 C51 1.420 . S
N53 C54 1.244 . S
C54 N53 1.244 . S
H55 C58 0.929 . S
H56 C61 0.929 . S
H57 C63 0.930 . S
C58 H55 0.929 . S
C58 C59 1.398 . S
C58 C60 1.396 . S
C59 C58 1.398 . S
C59 C63 1.407 . S
C60 C58 1.396 . S
C60 C61 1.394 . S
C61 H56 0.929 . S
C61 C60 1.394 . S
C61 C62 1.382 . S
C62 C61 1.382 . S
C62 C63 1.392 . S
C62 N64 1.420 . S
C63 H57 0.930 . S
C63 C59 1.407 . S
C63 C62 1.392 . S
N64 C62 1.420 . S
N64 C65 1.244 . S
C65 N64 1.244 . S
H66 C69 0.929 . S
H67 C72 0.929 . S
H68 C74 0.930 . S
C69 H66 0.929 . S
C69 C70 1.398 . S
C69 C71 1.396 . S
C70 C69 1.398 . S
C70 C74 1.407 . S
C71 C69 1.396 . S
C71 C72 1.394 . S
C72 H67 0.929 . S
C72 C71 1.394 . S
C72 C73 1.382 . S
C73 C72 1.382 . S
C73 C74 1.392 . S
C73 N75 1.420 . S
C74 H68 0.930 . S
C74 C70 1.407 . S
C74 C73 1.392 . S
N75 C73 1.420 . S
N75 C76 1.244 . S
C76 N75 1.244 . S
H77 C80 0.929 . S
H78 C83 0.929 . S
H79 C85 0.930 . S
C80 H77 0.929 . S
C80 C81 1.398 . S
C80 C82 1.396 . S
C81 C80 1.398 . S
C81 C85 1.407 . S
C82 C80 1.396 . S
C82 C83 1.394 . S
C83 H78 0.929 . S
C83 C82 1.394 . S
C83 C84 1.382 . S
C84 C83 1.382 . S
C84 C85 1.392 . S
C84 N86 1.420 . S
C85 H79 0.930 . S
C85 C81 1.407 . S
C85 C84 1.392 . S
N86 C84 1.420 . S
N86 C87 1.244 . S
C87 N86 1.244 . S
H88 C91 0.929 . S
H89 C94 0.929 . S
H90 C96 0.930 . S
C91 H88 0.929 . S
C91 C92 1.398 . S
C91 C93 1.396 . S
C92 C91 1.398 . S
C92 C96 1.407 . S
C93 C91 1.396 . S
C93 C94 1.394 . S
C94 H89 0.929 . S
C94 C93 1.394 . S
C94 C95 1.382 . S
C95 C94 1.382 . S
C95 C96 1.392 . S
C95 N97 1.420 . S
C96 H90 0.930 . S
C96 C92 1.407 . S
C96 C95 1.392 . S
N97 C95 1.420 . S
N97 C98 1.244 . S
C98 N97 1.244 . S
H99 C102 0.929 . S
H100 C105 0.929 . S
H101 C107 0.930 . S
C102 H99 0.929 . S
C102 C103 1.398 . S
C102 C104 1.396 . S
C103 C102 1.398 . S
C103 C107 1.407 . S
C104 C102 1.396 . S
C104 C105 1.394 . S
C105 H100 0.929 . S
C105 C104 1.394 . S
C105 C106 1.382 . S
C106 C105 1.382 . S
C106 C107 1.392 . S
C106 N108 1.420 . S
C107 H101 0.930 . S
C107 C103 1.407 . S
C107 C106 1.392 . S
N108 C106 1.420 . S
N108 C109 1.244 . S
C109 N108 1.244 . S
H110 C113 0.929 . S
H111 C116 0.929 . S
H112 C118 0.930 . S
C113 H110 0.929 . S
C113 C114 1.398 . S
C113 C115 1.396 . S
C114 C113 1.398 . S
C114 C118 1.407 . S
C115 C113 1.396 . S
C115 C116 1.394 . S
C116 H111 0.929 . S
C116 C115 1.394 . S
C116 C117 1.382 . S
C117 C116 1.382 . S
C117 C118 1.392 . S
C117 N119 1.420 . S
C118 H112 0.930 . S
C118 C114 1.407 . S
C118 C117 1.392 . S
N119 C117 1.420 . S
N119 C120 1.244 . S
C120 N119 1.244 . S
H121 C124 0.929 . S
H122 C127 0.929 . S
H123 C129 0.930 . S
C124 H121 0.929 . S
C124 C125 1.398 . S
C124 C126 1.396 . S
C125 C124 1.398 . S
C125 C129 1.407 . S
C126 C124 1.396 . S
C126 C127 1.394 . S
C127 H122 0.929 . S
C127 C126 1.394 . S
C127 C128 1.382 . S
C128 C127 1.382 . S
C128 C129 1.392 . S
C128 N130 1.420 . S
C129 H123 0.930 . S
C129 C125 1.407 . S
C129 C128 1.392 . S
N130 C128 1.420 . S
N130 C131 1.244 . S
C131 N130 1.244 . S
H132 C135 0.929 . S
H133 C138 0.929 . S
H134 C140 0.930 . S
C135 H132 0.929 . S
C135 C136 1.398 . S
C135 C137 1.396 . S
C136 C135 1.398 . S
C136 C140 1.407 . S
C137 C135 1.396 . S
C137 C138 1.394 . S
C138 H133 0.929 . S
C138 C137 1.394 . S
C138 C139 1.382 . S
C139 C138 1.382 . S
C139 C140 1.392 . S
C139 N141 1.420 . S
C140 H134 0.930 . S
C140 C136 1.407 . S
C140 C139 1.392 . S
N141 C139 1.420 . S
N141 C142 1.244 . S
C142 N141 1.244 . S
H143 C146 0.929 . S
H144 C149 0.929 . S
H145 C151 0.930 . S
C146 H143 0.929 . S
C146 C147 1.398 . S
C146 C148 1.396 . S
C147 C146 1.398 . S
C147 C151 1.407 . S
C148 C146 1.396 . S
C148 C149 1.394 . S
C149 H144 0.929 . S
C149 C148 1.394 . S
C149 C150 1.382 . S
C150 C149 1.382 . S
C150 C151 1.392 . S
C150 N152 1.420 . S
C151 H145 0.930 . S
C151 C147 1.407 . S
C151 C150 1.392 . S
N152 C150 1.420 . S
N152 C153 1.244 . S
C153 N152 1.244 . S
H154 C157 0.929 . S
H155 C160 0.929 . S
H156 C162 0.930 . S
C157 H154 0.929 . S
C157 C158 1.398 . S
C157 C159 1.396 . S
C158 C157 1.398 . S
C158 C162 1.407 . S
C159 C157 1.396 . S
C159 C160 1.394 . S
C160 H155 0.929 . S
C160 C159 1.394 . S
C160 C161 1.382 . S
C161 C160 1.382 . S
C161 C162 1.392 . S
C161 N163 1.420 . S
C162 H156 0.930 . S
C162 C158 1.407 . S
C162 C161 1.392 . S
N163 C161 1.420 . S
N163 C164 1.244 . S
C164 N163 1.244 . S
H165 C168 0.929 . S
H166 C171 0.929 . S
H167 C173 0.930 . S
C168 H165 0.929 . S
C168 C169 1.398 . S
C168 C170 1.396 . S
C169 C168 1.398 . S
C169 C173 1.407 . S
C170 C168 1.396 . S
C170 C171 1.394 . S
C171 H166 0.929 . S
C171 C170 1.394 . S
C171 C172 1.382 . S
C172 C171 1.382 . S
C172 C173 1.392 . S
C172 N174 1.420 . S
C173 H167 0.930 . S
C173 C169 1.407 . S
C173 C172 1.392 . S
N174 C172 1.420 . S
N174 C175 1.244 . S
C175 N174 1.244 . S
H176 C179 0.929 . S
H177 C182 0.929 . S
H178 C184 0.930 . S
C179 H176 0.929 . S
C179 C180 1.398 . S
C179 C181 1.396 . S
C180 C179 1.398 . S
C180 C184 1.407 . S
C181 C179 1.396 . S
C181 C182 1.394 . S
C182 H177 0.929 . S
C182 C181 1.394 . S
C182 C183 1.382 . S
C183 C182 1.382 . S
C183 C184 1.392 . S
C183 N185 1.420 . S
C184 H178 0.930 . S
C184 C180 1.407 . S
C184 C183 1.392 . S
N185 C183 1.420 . S
N185 C186 1.244 . S
C186 N185 1.244 . S
H187 C190 0.929 . S
H188 C193 0.929 . S
H189 C195 0.930 . S
C190 H187 0.929 . S
C190 C191 1.398 . S
C190 C192 1.396 . S
C191 C190 1.398 . S
C191 C195 1.407 . S
C192 C190 1.396 . S
C192 C193 1.394 . S
C193 H188 0.929 . S
C193 C192 1.394 . S
C193 C194 1.382 . S
C194 C193 1.382 . S
C194 C195 1.392 . S
C194 N196 1.420 . S
C195 H189 0.930 . S
C195 C191 1.407 . S
C195 C194 1.392 . S
N196 C194 1.420 . S
N196 C197 1.244 . S
C197 N196 1.244 . S
Tb198 C208 2.825 1_565 S
Tb198 O209 2.347 1_566 S
Tb198 O212 2.366 1_565 S
Tb198 O217 2.418 . S
Tb198 O218 2.384 1_556 S
Tb198 O221 2.479 . S
Tb198 O222 2.471 1_565 S
Eu199 O210 2.418 . S
Eu199 O211 2.384 . S
Eu199 O214 2.479 . S
Eu199 O215 2.471 1_545 S
Eu199 O216 2.347 1_545 S
Eu199 O219 2.366 1_545 S
Eu199 C229 2.825 . S
C200 O216 1.259 . S
C200 O217 1.265 1_554 S
C201 O218 1.255 . S
C201 O219 1.265 . S
C202 C204 1.380 . S
C202 C205 1.374 . S
C202 C208 1.507 . S
C203 C204 1.384 . S
C203 C207 1.387 . S
C203 H230 0.937 . S
C204 C202 1.380 . S
C204 C203 1.384 . S
C204 H231 0.931 1_545 S
C205 C202 1.374 . S
C205 C206 1.390 . S
C205 H232 0.930 . S
C206 C205 1.390 . S
C206 C207 1.391 . S
C206 H233 0.930 . S
C207 C203 1.387 . S
C207 C206 1.391 . S
C208 Tb198 2.825 1_545 S
C208 C202 1.507 . S
C208 O221 1.238 1_545 S
C208 O222 1.247 . S
O209 Tb198 2.347 1_544 S
O209 C213 1.259 . S
O210 Eu199 2.418 . S
O210 C213 1.265 . S
O211 Eu199 2.384 . S
O211 C220 1.255 . S
O212 Tb198 2.366 1_545 S
O212 C220 1.265 1_556 S
C213 O209 1.259 . S
C213 O210 1.265 . S
O214 Eu199 2.479 . S
O214 C229 1.238 . S
O215 Eu199 2.471 1_565 S
O215 C229 1.247 1_565 S
O216 Eu199 2.347 1_565 S
O216 C200 1.259 . S
O217 Tb198 2.418 . S
O217 C200 1.265 1_556 S
O218 Tb198 2.384 1_554 S
O218 C201 1.255 . S
O219 Eu199 2.366 1_565 S
O219 C201 1.265 . S
C220 O211 1.255 . S
C220 O212 1.265 1_554 S
O221 Tb198 2.479 . S
O221 C208 1.238 1_565 S
O222 Tb198 2.471 1_545 S
O222 C208 1.247 . S
C223 C226 1.380 1_565 S
C223 C227 1.374 . S
C223 C229 1.507 1_565 S
C224 C225 1.387 1_565 S
C224 C228 1.391 . S
C225 C224 1.387 1_545 S
C225 C226 1.384 . S
C225 H234 0.930 . S
C226 C223 1.380 1_545 S
C226 C225 1.384 . S
C226 H235 0.931 . S
C227 C223 1.374 . S
C227 C228 1.390 . S
C227 H236 0.930 . S
C228 C224 1.391 . S
C228 C227 1.390 . S
C228 H237 0.930 . S
C229 Eu199 2.825 . S
C229 O214 1.238 . S
C229 O215 1.247 1_545 S
C229 C223 1.507 1_545 S
H230 C203 0.937 . S
H231 C204 0.931 1_565 S
H232 C205 0.930 . S
H233 C206 0.930 . S
H234 C225 0.930 . S
H235 C226 0.931 . S
H236 C227 0.930 . S
H237 C228 0.930 . S
Tb238 C248 2.825 . S
Tb238 O249 2.347 1_456 S
Tb238 O252 2.366 1_455 S
Tb238 O257 2.418 . S
Tb238 O258 2.384 1_556 S
Tb238 O261 2.479 . S
Tb238 O262 2.471 1_455 S
Eu239 O250 2.418 . S
Eu239 O251 2.384 . S
Eu239 O254 2.479 . S
Eu239 O255 2.471 1_655 S
Eu239 O256 2.347 1_655 S
Eu239 O259 2.366 1_655 S
Eu239 C269 2.825 1_655 S
C240 O256 1.259 . S
C240 O257 1.265 1_554 S
C241 O258 1.255 . S
C241 O259 1.265 . S
C242 C244 1.380 1_655 S
C242 C245 1.374 . S
C242 C248 1.507 1_655 S
C243 C244 1.384 1_655 S
C243 C247 1.387 . S
C243 H270 0.930 1_655 S
C244 C242 1.380 1_455 S
C244 C243 1.384 1_455 S
C244 H271 0.931 . S
C245 C242 1.374 . S
C245 C246 1.390 . S
C245 H272 0.930 . S
C246 C245 1.390 . S
C246 C247 1.391 . S
C246 H273 0.930 . S
C247 C243 1.387 . S
C247 C246 1.391 . S
C248 Tb238 2.825 . S
C248 C242 1.507 1_455 S
C248 O261 1.238 . S
C248 O262 1.247 1_455 S
O249 Tb238 2.347 1_654 S
O249 C253 1.259 . S
O250 Eu239 2.418 . S
O250 C253 1.265 . S
O251 Eu239 2.384 . S
O251 C260 1.255 1_554 S
O252 Tb238 2.366 1_655 S
O252 C260 1.265 . S
C253 O249 1.259 . S
C253 O250 1.265 . S
O254 Eu239 2.479 . S
O254 C269 1.238 1_655 S
O255 Eu239 2.471 1_455 S
O255 C269 1.247 . S
O256 Eu239 2.347 1_455 S
O256 C240 1.259 . S
O257 Tb238 2.418 . S
O257 C240 1.265 1_556 S
O258 Tb238 2.384 1_554 S
O258 C241 1.255 . S
O259 Eu239 2.366 1_455 S
O259 C241 1.265 . S
C260 O251 1.255 1_556 S
C260 O252 1.265 . S
O261 Tb238 2.479 . S
O261 C248 1.238 . S
O262 Tb238 2.471 1_655 S
O262 C248 1.247 1_655 S
C263 C266 1.380 . S
C263 C267 1.374 . S
C263 C269 1.507 . S
C264 C265 1.387 . S
C264 C268 1.391 . S
C265 C264 1.387 . S
C265 C266 1.384 . S
C265 H274 0.930 . S
C266 C263 1.380 . S
C266 C265 1.384 . S
C266 H275 0.931 1_455 S
C267 C263 1.374 . S
C267 C268 1.390 . S
C267 H276 0.930 . S
C268 C264 1.391 . S
C268 C267 1.390 . S
C268 H277 0.930 . S
C269 Eu239 2.825 1_455 S
C269 O254 1.238 1_455 S
C269 O255 1.247 . S
C269 C263 1.507 . S
H270 C243 0.930 1_455 S
H271 C244 0.931 . S
H272 C245 0.930 . S
H273 C246 0.930 . S
H274 C265 0.930 . S
H275 C266 0.931 1_655 S
H276 C267 0.930 . S
H277 C268 0.930 . S
Tb278 C288 2.825 . S
Tb278 O289 2.347 . S
Tb278 O292 2.366 . S
Tb278 O297 2.418 . S
Tb278 O298 2.384 . S
Tb278 O301 2.479 . S
Tb278 O302 2.471 . S
Eu279 O290 2.418 1_556 S
Eu279 O291 2.384 1_556 S
Eu279 O294 2.479 . S
Eu279 O295 2.471 . S
Eu279 O296 2.347 1_556 S
Eu279 O299 2.366 . S
Eu279 C309 2.825 . S
C280 O296 1.259 . S
C280 O297 1.265 . S
C281 O298 1.255 . S
C281 O299 1.265 1_554 S
C282 C284 1.380 . S
C282 C285 1.374 . S
C282 C288 1.507 . S
C283 C284 1.384 . S
C283 C287 1.387 . S
C283 H310 0.930 . S
C284 C282 1.380 . S
C284 C283 1.384 . S
C284 H311 0.931 . S
C285 C282 1.374 . S
C285 C286 1.390 . S
C285 H312 0.930 . S
C286 C285 1.390 . S
C286 C287 1.391 . S
C286 H313 0.930 . S
C287 C283 1.387 . S
C287 C286 1.391 . S
C288 Tb278 2.825 . S
C288 C282 1.507 . S
C288 O301 1.238 . S
C288 O302 1.247 . S
O289 Tb278 2.347 . S
O289 C293 1.259 . S
O290 Eu279 2.418 1_554 S
O290 C293 1.265 . S
O291 Eu279 2.384 1_554 S
O291 C300 1.255 . S
O292 Tb278 2.366 . S
O292 C300 1.265 . S
C293 O289 1.259 . S
C293 O290 1.265 . S
O294 Eu279 2.479 . S
O294 C309 1.238 . S
O295 Eu279 2.471 . S
O295 C309 1.247 . S
O296 Eu279 2.347 1_554 S
O296 C280 1.259 . S
O297 Tb278 2.418 . S
O297 C280 1.265 . S
O298 Tb278 2.384 . S
O298 C281 1.255 . S
O299 Eu279 2.366 . S
O299 C281 1.265 1_556 S
C300 O291 1.255 . S
C300 O292 1.265 . S
O301 Tb278 2.479 . S
O301 C288 1.238 . S
O302 Tb278 2.471 . S
O302 C288 1.247 . S
C303 C306 1.380 . S
C303 C307 1.374 . S
C303 C309 1.507 . S
C304 C305 1.387 . S
C304 C308 1.391 . S
C305 C304 1.387 . S
C305 C306 1.384 . S
C305 H314 0.930 . S
C306 C303 1.380 . S
C306 C305 1.384 . S
C306 H315 0.931 . S
C307 C303 1.374 . S
C307 C308 1.390 . S
C307 H316 0.930 . S
C308 C304 1.391 . S
C308 C307 1.390 . S
C308 H317 0.930 . S
C309 Eu279 2.825 . S
C309 O294 1.238 . S
C309 O295 1.247 . S
C309 C303 1.507 . S
H310 C283 0.930 . S
H311 C284 0.931 . S
H312 C285 0.930 . S
H313 C286 0.930 . S
H314 C305 0.930 . S
H315 C306 0.931 . S
H316 C307 0.930 . S
H317 C308 0.930 . S
Tb318 C328 2.825 . S
Tb318 O329 2.347 . S
Tb318 O332 2.366 . S
Tb318 O337 2.418 . S
Tb318 O338 2.384 . S
Tb318 O341 2.479 . S
Tb318 O342 2.471 . S
Eu319 O330 2.418 . S
Eu319 O331 2.384 . S
Eu319 O334 2.479 . S
Eu319 O335 2.471 . S
Eu319 O336 2.347 . S
Eu319 O339 2.366 . S
Eu319 C349 2.825 . S
C320 O336 1.259 . S
C320 O337 1.265 . S
C321 O338 1.255 . S
C321 O339 1.265 . S
C322 C324 1.380 . S
C322 C325 1.374 . S
C322 C328 1.507 . S
C323 C324 1.384 . S
C323 C327 1.387 . S
C323 H350 0.930 . S
C324 C322 1.380 . S
C324 C323 1.384 . S
C324 H351 0.931 . S
C325 C322 1.374 . S
C325 C326 1.390 . S
C325 H352 0.930 . S
C326 C325 1.390 . S
C326 C327 1.391 . S
C326 H353 0.930 . S
C327 C323 1.387 . S
C327 C326 1.391 . S
C328 Tb318 2.825 . S
C328 C322 1.507 . S
C328 O341 1.238 . S
C328 O342 1.247 . S
O329 Tb318 2.347 . S
O329 C333 1.259 . S
O330 Eu319 2.418 . S
O330 C333 1.265 . S
O331 Eu319 2.384 . S
O331 C340 1.255 . S
O332 Tb318 2.366 . S
O332 C340 1.265 . S
C333 O329 1.259 . S
C333 O330 1.265 . S
O334 Eu319 2.479 . S
O334 C349 1.238 . S
O335 Eu319 2.471 . S
O335 C349 1.247 . S
O336 Eu319 2.347 . S
O336 C320 1.259 . S
O337 Tb318 2.418 . S
O337 C320 1.265 . S
O338 Tb318 2.384 . S
O338 C321 1.255 . S
O339 Eu319 2.366 . S
O339 C321 1.265 . S
C340 O331 1.255 . S
C340 O332 1.265 . S
O341 Tb318 2.479 . S
O341 C328 1.238 . S
O342 Tb318 2.471 . S
O342 C328 1.247 . S
C343 C346 1.380 . S
C343 C347 1.374 . S
C343 C349 1.507 . S
C344 C345 1.387 . S
C344 C348 1.391 . S
C345 C344 1.387 . S
C345 C346 1.384 . S
C345 H354 0.930 . S
C346 C343 1.380 . S
C346 C345 1.384 . S
C346 H355 0.931 . S
C347 C343 1.374 . S
C347 C348 1.390 . S
C347 H356 0.930 . S
C348 C344 1.391 . S
C348 C347 1.390 . S
C348 H357 0.930 . S
C349 Eu319 2.825 . S
C349 O334 1.238 . S
C349 O335 1.247 . S
C349 C343 1.507 . S
H350 C323 0.930 . S
H351 C324 0.931 . S
H352 C325 0.930 . S
H353 C326 0.930 . S
H354 C345 0.930 . S
H355 C346 0.931 . S
H356 C347 0.930 . S
H357 C348 0.930 . S
Tb358 C368 2.825 . S
Tb358 O369 2.347 . S
Tb358 O372 2.366 . S
Tb358 O377 2.418 . S
Tb358 O378 2.384 . S
Tb358 O381 2.479 . S
Tb358 O382 2.471 . S
Eu359 O370 2.418 . S
Eu359 O371 2.384 . S
Eu359 O374 2.479 . S
Eu359 O375 2.471 . S
Eu359 O376 2.347 . S
Eu359 O379 2.366 . S
Eu359 C389 2.825 . S
C360 O376 1.259 . S
C360 O377 1.265 . S
C361 O378 1.255 . S
C361 O379 1.265 . S
C362 C364 1.380 . S
C362 C365 1.374 . S
C362 C368 1.507 . S
C363 C364 1.384 . S
C363 C367 1.387 . S
C363 H390 0.930 . S
C364 C362 1.380 . S
C364 C363 1.384 . S
C364 H391 0.931 . S
C365 C362 1.374 . S
C365 C366 1.390 . S
C365 H392 0.930 . S
C366 C365 1.390 . S
C366 C367 1.391 . S
C366 H393 0.930 . S
C367 C363 1.387 . S
C367 C366 1.391 . S
C368 Tb358 2.825 . S
C368 C362 1.507 . S
C368 O381 1.238 . S
C368 O382 1.247 . S
O369 Tb358 2.347 . S
O369 C373 1.259 . S
O370 Eu359 2.418 . S
O370 C373 1.265 . S
O371 Eu359 2.384 . S
O371 C380 1.255 . S
O372 Tb358 2.366 . S
O372 C380 1.265 . S
C373 O369 1.259 . S
C373 O370 1.265 . S
O374 Eu359 2.479 . S
O374 C389 1.238 . S
O375 Eu359 2.471 . S
O375 C389 1.247 . S
O376 Eu359 2.347 . S
O376 C360 1.259 . S
O377 Tb358 2.418 . S
O377 C360 1.265 . S
O378 Tb358 2.384 . S
O378 C361 1.255 . S
O379 Eu359 2.366 . S
O379 C361 1.265 . S
C380 O371 1.255 . S
C380 O372 1.265 . S
O381 Tb358 2.479 . S
O381 C368 1.238 . S
O382 Tb358 2.471 . S
O382 C368 1.247 . S
C383 C386 1.380 . S
C383 C387 1.374 . S
C383 C389 1.507 . S
C384 C385 1.387 . S
C384 C388 1.391 . S
C385 C384 1.387 . S
C385 C386 1.384 . S
C385 H394 0.930 . S
C386 C383 1.380 . S
C386 C385 1.384 . S
C386 H395 0.931 . S
C387 C383 1.374 . S
C387 C388 1.390 . S
C387 H396 0.930 . S
C388 C384 1.391 . S
C388 C387 1.390 . S
C388 H397 0.930 . S
C389 Eu359 2.825 . S
C389 O374 1.238 . S
C389 O375 1.247 . S
C389 C383 1.507 . S
H390 C363 0.930 . S
H391 C364 0.931 . S
H392 C365 0.930 . S
H393 C366 0.930 . S
H394 C385 0.930 . S
H395 C386 0.931 . S
H396 C387 0.930 . S
H397 C388 0.930 . S
Tb398 C408 2.825 . S
Tb398 O409 2.347 . S
Tb398 O412 2.366 . S
Tb398 O417 2.418 . S
Tb398 O418 2.384 . S
Tb398 O421 2.479 . S
Tb398 O422 2.471 . S
Eu399 O410 2.418 . S
Eu399 O411 2.384 . S
Eu399 O414 2.479 . S
Eu399 O415 2.471 . S
Eu399 O416 2.347 . S
Eu399 O419 2.366 . S
Eu399 C429 2.825 . S
C400 O416 1.259 . S
C400 O417 1.265 . S
C401 O418 1.255 . S
C401 O419 1.265 . S
C402 C404 1.380 . S
C402 C405 1.374 . S
C402 C408 1.507 . S
C403 C404 1.384 . S
C403 C407 1.387 . S
C403 H430 0.930 . S
C404 C402 1.380 . S
C404 C403 1.384 . S
C404 H431 0.931 . S
C405 C402 1.374 . S
C405 C406 1.390 . S
C405 H432 0.930 . S
C406 C405 1.390 . S
C406 C407 1.391 . S
C406 H433 0.930 . S
C407 C403 1.387 . S
C407 C406 1.391 . S
C408 Tb398 2.825 . S
C408 C402 1.507 . S
C408 O421 1.238 . S
C408 O422 1.247 . S
O409 Tb398 2.347 . S
O409 C413 1.259 . S
O410 Eu399 2.418 . S
O410 C413 1.265 . S
O411 Eu399 2.384 . S
O411 C420 1.255 . S
O412 Tb398 2.366 . S
O412 C420 1.265 . S
C413 O409 1.259 . S
C413 O410 1.265 . S
O414 Eu399 2.479 . S
O414 C429 1.238 . S
O415 Eu399 2.471 . S
O415 C429 1.247 . S
O416 Eu399 2.347 . S
O416 C400 1.259 . S
O417 Tb398 2.418 . S
O417 C400 1.265 . S
O418 Tb398 2.384 . S
O418 C401 1.255 . S
O419 Eu399 2.366 . S
O419 C401 1.265 . S
C420 O411 1.255 . S
C420 O412 1.265 . S
O421 Tb398 2.479 . S
O421 C408 1.238 . S
O422 Tb398 2.471 . S
O422 C408 1.247 . S
C423 C426 1.380 . S
C423 C427 1.374 . S
C423 C429 1.507 . S
C424 C425 1.387 . S
C424 C428 1.391 . S
C425 C424 1.387 . S
C425 C426 1.384 . S
C425 H434 0.930 . S
C426 C423 1.380 . S
C426 C425 1.384 . S
C426 H435 0.931 . S
C427 C423 1.374 . S
C427 C428 1.390 . S
C427 H436 0.930 . S
C428 C424 1.391 . S
C428 C427 1.390 . S
C428 H437 0.930 . S
C429 Eu399 2.825 . S
C429 O414 1.238 . S
C429 O415 1.247 . S
C429 C423 1.507 . S
H430 C403 0.930 . S
H431 C404 0.931 . S
H432 C405 0.930 . S
H433 C406 0.930 . S
H434 C425 0.930 . S
H435 C426 0.931 . S
H436 C427 0.930 . S
H437 C428 0.930 . S
Tb438 C448 2.825 . S
Tb438 O449 2.347 . S
Tb438 O452 2.366 . S
Tb438 O457 2.418 . S
Tb438 O458 2.384 . S
Tb438 O461 2.479 . S
Tb438 O462 2.471 . S
Eu439 O450 2.418 . S
Eu439 O451 2.384 . S
Eu439 O454 2.479 . S
Eu439 O455 2.471 . S
Eu439 O456 2.347 . S
Eu439 O459 2.366 . S
Eu439 C469 2.825 . S
C440 O456 1.259 . S
C440 O457 1.265 . S
C441 O458 1.255 . S
C441 O459 1.265 . S
C442 C444 1.380 . S
C442 C445 1.374 . S
C442 C448 1.507 . S
C443 C444 1.384 . S
C443 C447 1.387 . S
C443 H470 0.930 . S
C444 C442 1.380 . S
C444 C443 1.384 . S
C444 H471 0.931 . S
C445 C442 1.374 . S
C445 C446 1.390 . S
C445 H472 0.930 . S
C446 C445 1.390 . S
C446 C447 1.391 . S
C446 H473 0.930 . S
C447 C443 1.387 . S
C447 C446 1.391 . S
C448 Tb438 2.825 . S
C448 C442 1.507 . S
C448 O461 1.238 . S
C448 O462 1.247 . S
O449 Tb438 2.347 . S
O449 C453 1.259 . S
O450 Eu439 2.418 . S
O450 C453 1.265 . S
O451 Eu439 2.384 . S
O451 C460 1.255 . S
O452 Tb438 2.366 . S
O452 C460 1.265 . S
C453 O449 1.259 . S
C453 O450 1.265 . S
O454 Eu439 2.479 . S
O454 C469 1.238 . S
O455 Eu439 2.471 . S
O455 C469 1.247 . S
O456 Eu439 2.347 . S
O456 C440 1.259 . S
O457 Tb438 2.418 . S
O457 C440 1.265 . S
O458 Tb438 2.384 . S
O458 C441 1.255 . S
O459 Eu439 2.366 . S
O459 C441 1.265 . S
C460 O451 1.255 . S
C460 O452 1.265 . S
O461 Tb438 2.479 . S
O461 C448 1.238 . S
O462 Tb438 2.471 . S
O462 C448 1.247 . S
C463 C466 1.380 . S
C463 C467 1.374 . S
C463 C469 1.507 . S
C464 C465 1.387 . S
C464 C468 1.391 . S
C465 C464 1.387 . S
C465 C466 1.384 . S
C465 H474 0.930 . S
C466 C463 1.380 . S
C466 C465 1.384 . S
C466 H475 0.931 . S
C467 C463 1.374 . S
C467 C468 1.390 . S
C467 H476 0.930 . S
C468 C464 1.391 . S
C468 C467 1.390 . S
C468 H477 0.930 . S
C469 Eu439 2.825 . S
C469 O454 1.238 . S
C469 O455 1.247 . S
C469 C463 1.507 . S
H470 C443 0.930 . S
H471 C444 0.931 . S
H472 C445 0.930 . S
H473 C446 0.930 . S
H474 C465 0.930 . S
H475 C466 0.931 . S
H476 C467 0.930 . S
H477 C468 0.930 . S
Tb478 C488 2.825 . S
Tb478 O489 2.347 . S
Tb478 O492 2.366 . S
Tb478 O497 2.418 . S
Tb478 O498 2.384 . S
Tb478 O501 2.479 . S
Tb478 O502 2.471 . S
Eu479 O490 2.418 . S
Eu479 O491 2.384 . S
Eu479 O494 2.479 . S
Eu479 O495 2.471 . S
Eu479 O496 2.347 . S
Eu479 O499 2.366 . S
Eu479 C509 2.825 . S
C480 O496 1.259 . S
C480 O497 1.265 . S
C481 O498 1.255 . S
C481 O499 1.265 . S
C482 C484 1.380 . S
C482 C485 1.374 . S
C482 C488 1.507 . S
C483 C484 1.384 . S
C483 C487 1.387 . S
C483 H510 0.930 . S
C484 C482 1.380 . S
C484 C483 1.384 . S
C484 H511 0.931 . S
C485 C482 1.374 . S
C485 C486 1.390 . S
C485 H512 0.930 . S
C486 C485 1.390 . S
C486 C487 1.391 . S
C486 H513 0.930 . S
C487 C483 1.387 . S
C487 C486 1.391 . S
C488 Tb478 2.825 . S
C488 C482 1.507 . S
C488 O501 1.238 . S
C488 O502 1.247 . S
O489 Tb478 2.347 . S
O489 C493 1.259 . S
O490 Eu479 2.418 . S
O490 C493 1.265 . S
O491 Eu479 2.384 . S
O491 C500 1.255 . S
O492 Tb478 2.366 . S
O492 C500 1.265 . S
C493 O489 1.259 . S
C493 O490 1.265 . S
O494 Eu479 2.479 . S
O494 C509 1.238 . S
O495 Eu479 2.471 . S
O495 C509 1.247 . S
O496 Eu479 2.347 . S
O496 C480 1.259 . S
O497 Tb478 2.418 . S
O497 C480 1.265 . S
O498 Tb478 2.384 . S
O498 C481 1.255 . S
O499 Eu479 2.366 . S
O499 C481 1.265 . S
C500 O491 1.255 . S
C500 O492 1.265 . S
O501 Tb478 2.479 . S
O501 C488 1.238 . S
O502 Tb478 2.471 . S
O502 C488 1.247 . S
C503 C506 1.380 . S
C503 C507 1.374 . S
C503 C509 1.507 . S
C504 C505 1.387 . S
C504 C508 1.391 . S
C505 C504 1.387 . S
C505 C506 1.384 . S
C505 H514 0.930 . S
C506 C503 1.380 . S
C506 C505 1.384 . S
C506 H515 0.931 . S
C507 C503 1.374 . S
C507 C508 1.390 . S
C507 H516 0.930 . S
C508 C504 1.391 . S
C508 C507 1.390 . S
C508 H517 0.930 . S
C509 Eu479 2.825 . S
C509 O494 1.238 . S
C509 O495 1.247 . S
C509 C503 1.507 . S
H510 C483 0.930 . S
H511 C484 0.931 . S
H512 C485 0.930 . S
H513 C486 0.930 . S
H514 C505 0.930 . S
H515 C506 0.931 . S
H516 C507 0.930 . S
H517 C508 0.930 . S
Tb518 C528 2.825 . S
Tb518 O529 2.347 . S
Tb518 O532 2.366 . S
Tb518 O537 2.418 . S
Tb518 O538 2.384 . S
Tb518 O541 2.479 . S
Tb518 O542 2.471 . S
Eu519 O530 2.418 . S
Eu519 O531 2.384 . S
Eu519 O534 2.479 . S
Eu519 O535 2.471 . S
Eu519 O536 2.347 . S
Eu519 O539 2.366 . S
Eu519 C549 2.825 . S
C520 O536 1.259 . S
C520 O537 1.265 . S
C521 O538 1.255 . S
C521 O539 1.265 . S
C522 C524 1.380 . S
C522 C525 1.374 . S
C522 C528 1.507 . S
C523 C524 1.384 . S
C523 C527 1.387 . S
C523 H550 0.930 . S
C524 C522 1.380 . S
C524 C523 1.384 . S
C524 H551 0.931 . S
C525 C522 1.374 . S
C525 C526 1.390 . S
C525 H552 0.930 . S
C526 C525 1.390 . S
C526 C527 1.391 . S
C526 H553 0.930 . S
C527 C523 1.387 . S
C527 C526 1.391 . S
C528 Tb518 2.825 . S
C528 C522 1.507 . S
C528 O541 1.238 . S
C528 O542 1.247 . S
O529 Tb518 2.347 . S
O529 C533 1.259 . S
O530 Eu519 2.418 . S
O530 C533 1.265 . S
O531 Eu519 2.384 . S
O531 C540 1.255 . S
O532 Tb518 2.366 . S
O532 C540 1.265 . S
C533 O529 1.259 . S
C533 O530 1.265 . S
O534 Eu519 2.479 . S
O534 C549 1.238 . S
O535 Eu519 2.471 . S
O535 C549 1.247 . S
O536 Eu519 2.347 . S
O536 C520 1.259 . S
O537 Tb518 2.418 . S
O537 C520 1.265 . S
O538 Tb518 2.384 . S
O538 C521 1.255 . S
O539 Eu519 2.366 . S
O539 C521 1.265 . S
C540 O531 1.255 . S
C540 O532 1.265 . S
O541 Tb518 2.479 . S
O541 C528 1.238 . S
O542 Tb518 2.471 . S
O542 C528 1.247 . S
C543 C546 1.380 . S
C543 C547 1.374 . S
C543 C549 1.507 . S
C544 C545 1.387 . S
C544 C548 1.391 . S
C545 C544 1.387 . S
C545 C546 1.384 . S
C545 H554 0.930 . S
C546 C543 1.380 . S
C546 C545 1.384 . S
C546 H555 0.931 . S
C547 C543 1.374 . S
C547 C548 1.390 . S
C547 H556 0.930 . S
C548 C544 1.391 . S
C548 C547 1.390 . S
C548 H557 0.930 . S
C549 Eu519 2.825 . S
C549 O534 1.238 . S
C549 O535 1.247 . S
C549 C543 1.507 . S
H550 C523 0.930 . S
H551 C524 0.931 . S
H552 C525 0.930 . S
H553 C526 0.930 . S
H554 C545 0.930 . S
H555 C546 0.931 . S
H556 C547 0.930 . S
H557 C548 0.930 . S
H558 C576 0.951 . S
H559 C578 0.951 . S
H560 C580 0.950 . S
H561 C581 0.950 . S
H562 C583 0.950 . S
H563 C586 0.950 . S
H564 C587 0.950 . S
H565 C589 0.950 . S
H566 C590 0.950 . S
H567 C591 0.951 . S
H568 C593 0.951 . S
H569 C595 0.950 . S
H570 C596 0.950 . S
H571 C598 0.950 . S
H572 C601 0.950 . S
H573 C602 0.950 . S
H574 C604 0.950 . S
H575 C605 0.950 . S
C576 H558 0.951 . S
C576 C577 1.366 . S
C576 C578 1.388 . S
C577 C576 1.366 . S
C577 C581 1.385 . S
C578 H559 0.951 . S
C578 C576 1.388 . S
C578 C579 1.366 . S
C579 C578 1.366 . S
C579 C580 1.414 . S
C579 C582 1.499 . S
C580 H560 0.950 . S
C580 C579 1.414 . S
C580 C581 1.374 . S
C581 H561 0.950 . S
C581 C577 1.385 . S
C581 C580 1.374 . S
C582 C579 1.499 . S
C582 C583 1.373 . S
C582 C584 1.389 . S
C583 H562 0.950 . S
C583 C582 1.373 . S
C583 C599 1.377 . S
C584 C582 1.389 . S
C584 C585 1.524 . S
C584 C598 1.377 . S
C585 C584 1.524 . S
C585 C586 1.397 . S
C585 C590 1.363 . S
C586 H563 0.950 . S
C586 C585 1.397 . S
C586 C587 1.334 1_554 S
C587 H564 0.950 . S
C587 C586 1.334 1_556 S
C587 C588 1.287 . S
C588 C587 1.287 . S
C588 C589 1.524 . S
C588 H607 0.913 . S
C589 H565 0.950 . S
C589 C588 1.524 . S
C589 C590 1.415 1_556 S
C590 H566 0.950 . S
C590 C585 1.363 . S
C590 C589 1.415 1_554 S
C591 H567 0.951 . S
C591 C592 1.366 . S
C591 C593 1.388 . S
C592 C591 1.366 . S
C592 C596 1.385 . S
C593 H568 0.951 . S
C593 C591 1.388 . S
C593 C594 1.366 . S
C594 C593 1.366 . S
C594 C595 1.414 . S
C594 C597 1.499 . S
C595 H569 0.950 . S
C595 C594 1.414 . S
C595 C596 1.374 . S
C596 H570 0.950 . S
C596 C592 1.385 . S
C596 C595 1.374 . S
C597 C594 1.499 . S
C597 C598 1.373 . S
C597 C599 1.389 . S
C598 H571 0.950 . S
C598 C584 1.377 . S
C598 C597 1.373 . S
C599 C583 1.377 . S
C599 C597 1.389 . S
C599 C600 1.524 . S
C600 C599 1.524 . S
C600 C601 1.397 . S
C600 C605 1.363 . S
C601 H572 0.950 . S
C601 C600 1.397 . S
C601 C602 1.334 . S
C602 H573 0.950 . S
C602 C601 1.334 . S
C602 C603 1.287 . S
C603 C602 1.287 . S
C603 C604 1.524 . S
C603 H606 0.999 . S
C604 H574 0.950 . S
C604 C603 1.524 . S
C604 C605 1.415 . S
C605 H575 0.950 . S
C605 C600 1.363 . S
C605 C604 1.415 . S
H606 C603 0.999 . S
H607 C588 0.913 . S
H608 C626 0.951 . S
H609 C628 0.951 . S
H610 C630 0.950 . S
H611 C631 0.950 . S
H612 C633 0.950 . S
H613 C636 0.950 . S
H614 C637 0.950 . S
H615 C639 0.950 . S
H616 C640 0.950 . S
H617 C641 0.951 . S
H618 C643 0.951 . S
H619 C645 0.950 . S
H620 C646 0.950 . S
H621 C648 0.950 . S
H622 C651 0.950 . S
H623 C652 0.950 . S
H624 C654 0.950 . S
H625 C655 0.950 . S
C626 H608 0.951 . S
C626 C627 1.366 . S
C626 C628 1.388 . S
C627 C626 1.366 . S
C627 C631 1.385 . S
C628 H609 0.951 . S
C628 C626 1.388 . S
C628 C629 1.366 . S
C629 C628 1.366 . S
C629 C630 1.414 . S
C629 C632 1.499 . S
C630 H610 0.950 . S
C630 C629 1.414 . S
C630 C631 1.374 . S
C631 H611 0.950 . S
C631 C627 1.385 . S
C631 C630 1.374 . S
C632 C629 1.499 . S
C632 C633 1.373 . S
C632 C634 1.389 . S
C633 H612 0.950 . S
C633 C632 1.373 . S
C633 C649 1.377 . S
C634 C632 1.389 . S
C634 C635 1.524 . S
C634 C648 1.377 . S
C635 C634 1.524 . S
C635 C636 1.397 . S
C635 C640 1.363 . S
C636 H613 0.950 . S
C636 C635 1.397 . S
C636 C637 1.334 . S
C637 H614 0.950 . S
C637 C636 1.334 . S
C637 C638 1.287 . S
C638 C637 1.287 . S
C638 C639 1.524 . S
C638 H657 0.913 . S
C639 H615 0.950 . S
C639 C638 1.524 . S
C639 C640 1.415 . S
C640 H616 0.950 . S
C640 C635 1.363 . S
C640 C639 1.415 . S
C641 H617 0.951 . S
C641 C642 1.366 . S
C641 C643 1.388 . S
C642 C641 1.366 . S
C642 C646 1.385 . S
C643 H618 0.951 . S
C643 C641 1.388 . S
C643 C644 1.366 . S
C644 C643 1.366 . S
C644 C645 1.414 . S
C644 C647 1.499 . S
C645 H619 0.950 . S
C645 C644 1.414 . S
C645 C646 1.374 . S
C646 H620 0.950 . S
C646 C642 1.385 . S
C646 C645 1.374 . S
C647 C644 1.499 . S
C647 C648 1.373 . S
C647 C649 1.389 . S
C648 H621 0.950 . S
C648 C634 1.377 . S
C648 C647 1.373 . S
C649 C633 1.377 . S
C649 C647 1.389 . S
C649 C650 1.524 . S
C650 C649 1.524 . S
C650 C651 1.397 . S
C650 C655 1.363 . S
C651 H622 0.950 . S
C651 C650 1.397 . S
C651 C652 1.334 . S
C652 H623 0.950 . S
C652 C651 1.334 . S
C652 C653 1.287 . S
C653 C652 1.287 . S
C653 C654 1.524 . S
C653 H656 0.999 . S
C654 H624 0.950 . S
C654 C653 1.524 . S
C654 C655 1.415 . S
C655 H625 0.950 . S
C655 C650 1.363 . S
C655 C654 1.415 . S
H656 C653 0.999 . S
H657 C638 0.913 . S
H658 C676 0.951 . S
H659 C678 0.951 . S
H660 C680 0.950 . S
H661 C681 0.950 . S
H662 C683 0.950 . S
H663 C686 0.950 . S
H664 C687 0.950 . S
H665 C689 0.950 . S
H666 C690 0.950 . S
H667 C691 0.951 . S
H668 C693 0.951 . S
H669 C695 0.950 . S
H670 C696 0.950 . S
H671 C698 0.950 . S
H672 C701 0.950 1_554 S
H673 C702 0.950 . S
H674 C704 0.950 . S
H675 C705 0.950 . S
C676 H658 0.951 . S
C676 C677 1.366 . S
C676 C678 1.388 . S
C677 C676 1.366 . S
C677 C681 1.385 . S
C678 H659 0.951 . S
C678 C676 1.388 . S
C678 C679 1.366 . S
C679 C678 1.366 . S
C679 C680 1.414 . S
C679 C682 1.499 . S
C680 H660 0.950 . S
C680 C679 1.414 . S
C680 C681 1.374 . S
C681 H661 0.950 . S
C681 C677 1.385 . S
C681 C680 1.374 . S
C682 C679 1.499 . S
C682 C683 1.373 . S
C682 C684 1.389 . S
C683 H662 0.950 . S
C683 C682 1.373 . S
C683 C699 1.377 . S
C684 C682 1.389 . S
C684 C685 1.524 . S
C684 C698 1.377 . S
C685 C684 1.524 . S
C685 C686 1.397 . S
C685 C690 1.363 . S
C686 H663 0.950 . S
C686 C685 1.397 . S
C686 C687 1.334 . S
C687 H664 0.950 . S
C687 C686 1.334 . S
C687 C688 1.287 . S
C688 C687 1.287 . S
C688 C689 1.524 . S
C688 H707 0.913 . S
C689 H665 0.950 . S
C689 C688 1.524 . S
C689 C690 1.415 . S
C690 H666 0.950 . S
C690 C685 1.363 . S
C690 C689 1.415 . S
C691 H667 0.951 . S
C691 C692 1.366 . S
C691 C693 1.388 . S
C692 C691 1.366 . S
C692 C696 1.385 . S
C693 H668 0.951 . S
C693 C691 1.388 . S
C693 C694 1.366 . S
C694 C693 1.366 . S
C694 C695 1.414 . S
C694 C697 1.499 . S
C695 H669 0.950 . S
C695 C694 1.414 . S
C695 C696 1.374 . S
C696 H670 0.950 . S
C696 C692 1.385 . S
C696 C695 1.374 . S
C697 C694 1.499 . S
C697 C698 1.373 . S
C697 C699 1.389 . S
C698 H671 0.950 . S
C698 C684 1.377 . S
C698 C697 1.373 . S
C699 C683 1.377 . S
C699 C697 1.389 . S
C699 C700 1.577 . S
C700 C699 1.577 . S
C700 C701 1.395 1_554 S
C700 C705 1.316 1_554 S
C701 H672 0.950 1_556 S
C701 C700 1.395 1_556 S
C701 C702 1.334 . S
C702 H673 0.950 . S
C702 C701 1.334 . S
C702 C703 1.287 . S
C703 C702 1.287 . S
C703 C704 1.524 . S
C703 H706 0.999 . S
C704 H674 0.950 . S
C704 C703 1.524 . S
C704 C705 1.415 . S
C705 H675 0.950 . S
C705 C700 1.316 1_556 S
C705 C704 1.415 . S
H706 C703 0.999 . S
H707 C688 0.913 . S
H708 C726 0.951 . S
H709 C728 0.951 . S
H710 C730 0.950 . S
H711 C731 0.950 . S
H712 C733 0.950 . S
H713 C736 0.950 . S
H714 C737 0.950 . S
H715 C739 0.950 . S
H716 C740 0.950 . S
H717 C741 0.952 . S
H718 C743 0.951 . S
H719 C745 0.950 . S
H720 C746 0.950 . S
H721 C748 0.950 . S
H722 C751 0.950 . S
H723 C752 0.950 . S
H724 C754 0.950 . S
H725 C755 0.950 . S
C726 H708 0.951 . S
C726 C727 1.366 . S
C726 C728 1.388 . S
C727 C726 1.366 . S
C727 C731 1.385 . S
C728 H709 0.951 . S
C728 C726 1.388 . S
C728 C729 1.366 . S
C729 C728 1.366 . S
C729 C730 1.414 . S
C729 C732 1.499 . S
C730 H710 0.950 . S
C730 C729 1.414 . S
C730 C731 1.374 . S
C731 H711 0.950 . S
C731 C727 1.385 . S
C731 C730 1.374 . S
C732 C729 1.499 . S
C732 C733 1.373 . S
C732 C734 1.389 . S
C733 H712 0.950 . S
C733 C732 1.373 . S
C733 C749 1.377 . S
C734 C732 1.389 . S
C734 C735 1.524 . S
C734 C748 1.377 . S
C735 C734 1.524 . S
C735 C736 1.397 . S
C735 C740 1.363 . S
C736 H713 0.950 . S
C736 C735 1.397 . S
C736 C737 1.334 . S
C737 H714 0.950 . S
C737 C736 1.334 . S
C737 C738 1.287 . S
C738 C737 1.287 . S
C738 C739 1.524 . S
C738 H757 0.913 . S
C739 H715 0.950 . S
C739 C738 1.524 . S
C739 C740 1.415 . S
C740 H716 0.950 . S
C740 C735 1.363 . S
C740 C739 1.415 . S
C741 H717 0.952 . S
C741 C742 1.364 1_554 S
C741 C743 1.387 1_554 S
C742 C741 1.364 1_556 S
C742 C746 1.388 . S
C743 H718 0.951 . S
C743 C741 1.387 1_556 S
C743 C744 1.366 . S
C744 C743 1.366 . S
C744 C745 1.414 . S
C744 C747 1.499 . S
C745 H719 0.950 . S
C745 C744 1.414 . S
C745 C746 1.374 . S
C746 H720 0.950 . S
C746 C742 1.388 . S
C746 C745 1.374 . S
C747 C744 1.499 . S
C747 C748 1.373 . S
C747 C749 1.389 . S
C748 H721 0.950 . S
C748 C734 1.377 . S
C748 C747 1.373 . S
C749 C733 1.377 . S
C749 C747 1.389 . S
C749 C750 1.524 1_556 S
C750 C749 1.524 1_554 S
C750 C751 1.397 . S
C750 C755 1.363 . S
C751 H722 0.950 . S
C751 C750 1.397 . S
C751 C752 1.334 . S
C752 H723 0.950 . S
C752 C751 1.334 . S
C752 C753 1.287 . S
C753 C752 1.287 . S
C753 C754 1.524 . S
C753 H756 0.999 . S
C754 H724 0.950 . S
C754 C753 1.524 . S
C754 C755 1.415 . S
C755 H725 0.950 . S
C755 C750 1.363 . S
C755 C754 1.415 . S
H756 C753 0.999 . S
H757 C738 0.913 . S
H758 C776 0.951 . S
H759 C778 0.951 . S
H760 C780 0.950 . S
H761 C781 0.950 . S
H762 C783 0.950 . S
H763 C786 0.950 . S
H764 C787 0.950 . S
H765 C789 0.950 . S
H766 C790 0.950 . S
H767 C791 0.951 . S
H768 C793 0.951 1_554 S
H769 C795 0.950 . S
H770 C796 0.950 . S
H771 C798 0.950 . S
H772 C801 0.950 . S
H773 C802 0.950 . S
H774 C804 0.950 . S
H775 C805 0.950 . S
C776 H758 0.951 . S
C776 C777 1.366 . S
C776 C778 1.388 . S
C777 C776 1.366 . S
C777 C781 1.385 . S
C778 H759 0.951 . S
C778 C776 1.388 . S
C778 C779 1.366 . S
C779 C778 1.366 . S
C779 C780 1.414 . S
C779 C782 1.499 . S
C780 H760 0.950 . S
C780 C779 1.414 . S
C780 C781 1.374 . S
C781 H761 0.950 . S
C781 C777 1.385 . S
C781 C780 1.374 . S
C782 C779 1.499 . S
C782 C783 1.373 . S
C782 C784 1.389 . S
C783 H762 0.950 . S
C783 C782 1.373 . S
C783 C799 1.377 . S
C784 C782 1.389 . S
C784 C785 1.524 . S
C784 C798 1.377 . S
C785 C784 1.524 . S
C785 C786 1.397 . S
C785 C790 1.363 . S
C786 H763 0.950 . S
C786 C785 1.397 . S
C786 C787 1.334 . S
C787 H764 0.950 . S
C787 C786 1.334 . S
C787 C788 1.287 . S
C788 C787 1.287 . S
C788 C789 1.524 . S
C788 H807 0.913 . S
C789 H765 0.950 . S
C789 C788 1.524 . S
C789 C790 1.415 . S
C790 H766 0.950 . S
C790 C785 1.363 . S
C790 C789 1.415 . S
C791 H767 0.951 . S
C791 C792 1.366 1_554 S
C791 C793 1.388 1_554 S
C792 C791 1.366 1_556 S
C792 C796 1.385 . S
C793 H768 0.951 1_556 S
C793 C791 1.388 1_556 S
C793 C794 1.366 . S
C794 C793 1.366 . S
C794 C795 1.414 . S
C794 C797 1.499 . S
C795 H769 0.950 . S
C795 C794 1.414 . S
C795 C796 1.374 . S
C796 H770 0.950 . S
C796 C792 1.385 . S
C796 C795 1.374 . S
C797 C794 1.499 . S
C797 C798 1.373 . S
C797 C799 1.389 . S
C798 H771 0.950 . S
C798 C784 1.377 . S
C798 C797 1.373 . S
C799 C783 1.377 . S
C799 C797 1.389 . S
C799 C800 1.524 1_556 S
C800 C799 1.524 1_554 S
C800 C801 1.397 . S
C800 C805 1.363 . S
C801 H772 0.950 . S
C801 C800 1.397 . S
C801 C802 1.334 . S
C802 H773 0.950 . S
C802 C801 1.334 . S
C802 C803 1.287 . S
C803 C802 1.287 . S
C803 C804 1.524 . S
C803 H806 0.999 . S
C804 H774 0.950 . S
C804 C803 1.524 . S
C804 C805 1.415 . S
C805 H775 0.950 . S
C805 C800 1.363 . S
C805 C804 1.415 . S
H806 C803 0.999 . S
H807 C788 0.913 . S
H808 C826 0.951 . S
H809 C828 0.951 . S
H810 C830 0.950 1_554 S
H811 C831 0.953 1_554 S
H812 C833 0.950 . S
H813 C836 0.950 . S
H814 C837 0.950 . S
H815 C839 0.950 . S
H816 C840 0.950 . S
H817 C841 0.951 . S
H818 C843 0.951 . S
H819 C845 0.950 . S
H820 C846 0.950 . S
H821 C848 0.950 . S
H822 C851 0.950 . S
H823 C852 0.950 . S
H824 C854 0.950 . S
H825 C855 0.950 . S
C826 H808 0.951 . S
C826 C827 1.366 . S
C826 C828 1.388 . S
C827 C826 1.366 . S
C827 C831 1.385 . S
C828 H809 0.951 . S
C828 C826 1.388 . S
C828 C829 1.366 . S
C829 C828 1.366 . S
C829 C830 1.414 . S
C829 C832 1.499 . S
C830 H810 0.950 1_556 S
C830 C829 1.414 . S
C830 C831 1.374 . S
C831 H811 0.953 1_556 S
C831 C827 1.385 . S
C831 C830 1.374 . S
C832 C829 1.499 . S
C832 C833 1.373 1_556 S
C832 C834 1.389 . S
C833 H812 0.950 . S
C833 C832 1.373 1_554 S
C833 C849 1.377 . S
C834 C832 1.389 . S
C834 C835 1.524 . S
C834 C848 1.377 . S
C835 C834 1.524 . S
C835 C836 1.397 . S
C835 C840 1.363 . S
C836 H813 0.950 . S
C836 C835 1.397 . S
C836 C837 1.334 . S
C837 H814 0.950 . S
C837 C836 1.334 . S
C837 C838 1.287 . S
C838 C837 1.287 . S
C838 C839 1.524 . S
C838 H857 0.913 . S
C839 H815 0.950 . S
C839 C838 1.524 . S
C839 C840 1.415 . S
C840 H816 0.950 . S
C840 C835 1.363 . S
C840 C839 1.415 . S
C841 H817 0.951 . S
C841 C842 1.366 . S
C841 C843 1.388 . S
C842 C841 1.366 . S
C842 C846 1.385 1_554 S
C843 H818 0.951 . S
C843 C841 1.388 . S
C843 C844 1.366 1_554 S
C844 C843 1.366 1_556 S
C844 C845 1.414 . S
C844 C847 1.499 . S
C845 H819 0.950 . S
C845 C844 1.414 . S
C845 C846 1.374 . S
C846 H820 0.950 . S
C846 C842 1.385 1_556 S
C846 C845 1.374 . S
C847 C844 1.499 . S
C847 C848 1.373 . S
C847 C849 1.389 1_556 S
C848 H821 0.950 . S
C848 C834 1.377 . S
C848 C847 1.373 . S
C849 C833 1.377 . S
C849 C847 1.389 1_554 S
C849 C850 1.524 . S
C850 C849 1.524 . S
C850 C851 1.397 . S
C850 C855 1.363 . S
C851 H822 0.950 . S
C851 C850 1.397 . S
C851 C852 1.334 . S
C852 H823 0.950 . S
C852 C851 1.334 . S
C852 C853 1.287 . S
C853 C852 1.287 . S
C853 C854 1.524 . S
C853 H856 0.999 . S
C854 H824 0.950 . S
C854 C853 1.524 . S
C854 C855 1.415 . S
C855 H825 0.950 . S
C855 C850 1.363 . S
C855 C854 1.415 . S
H856 C853 0.999 . S
H857 C838 0.913 . S
H858 C876 0.951 . S
H859 C878 0.951 . S
H860 C880 0.950 . S
H861 C881 0.950 . S
H862 C883 0.950 . S
H863 C886 0.950 . S
H864 C887 0.950 . S
H865 C889 0.950 . S
H866 C890 0.950 . S
H867 C891 0.951 . S
H868 C893 0.951 . S
H869 C895 0.950 . S
H870 C896 0.950 1_554 S
H871 C898 0.950 . S
H872 C901 0.950 . S
H873 C902 0.950 . S
H874 C904 0.950 . S
H875 C905 0.950 1_556 S
C876 H858 0.951 . S
C876 C877 1.366 . S
C876 C878 1.388 . S
C877 C876 1.366 . S
C877 C881 1.385 . S
C878 H859 0.951 . S
C878 C876 1.388 . S
C878 C879 1.366 . S
C879 C878 1.366 . S
C879 C880 1.414 . S
C879 C882 1.499 . S
C880 H860 0.950 . S
C880 C879 1.414 . S
C880 C881 1.374 . S
C881 H861 0.950 . S
C881 C877 1.385 . S
C881 C880 1.374 . S
C882 C879 1.499 . S
C882 C883 1.373 . S
C882 C884 1.389 . S
C883 H862 0.950 . S
C883 C882 1.373 . S
C883 C899 1.377 . S
C884 C882 1.389 . S
C884 C885 1.524 . S
C884 C898 1.377 . S
C885 C884 1.524 . S
C885 C886 1.397 . S
C885 C890 1.363 . S
C886 H863 0.950 . S
C886 C885 1.397 . S
C886 C887 1.334 . S
C887 H864 0.950 . S
C887 C886 1.334 . S
C887 C888 1.287 . S
C888 C887 1.287 . S
C888 C889 1.524 . S
C888 H907 0.913 . S
C889 H865 0.950 . S
C889 C888 1.524 . S
C889 C890 1.415 . S
C890 H866 0.950 . S
C890 C885 1.363 . S
C890 C889 1.415 . S
C891 H867 0.951 . S
C891 C892 1.366 . S
C891 C893 1.388 . S
C892 C891 1.366 . S
C892 C896 1.385 . S
C893 H868 0.951 . S
C893 C891 1.388 . S
C893 C894 1.366 . S
C894 C893 1.366 . S
C894 C895 1.414 . S
C894 C897 1.499 . S
C895 H869 0.950 . S
C895 C894 1.414 . S
C895 C896 1.374 . S
C896 H870 0.950 1_556 S
C896 C892 1.385 . S
C896 C895 1.374 . S
C897 C894 1.499 . S
C897 C898 1.373 . S
C897 C899 1.389 . S
C898 H871 0.950 . S
C898 C884 1.377 . S
C898 C897 1.373 . S
C899 C883 1.377 . S
C899 C897 1.389 . S
C899 C900 1.524 1_556 S
C900 C899 1.524 1_554 S
C900 C901 1.397 . S
C900 C905 1.363 . S
C901 H872 0.950 . S
C901 C900 1.397 . S
C901 C902 1.334 . S
C902 H873 0.950 . S
C902 C901 1.334 . S
C902 C903 1.287 . S
C903 C902 1.287 . S
C903 C904 1.524 . S
C903 H906 0.999 . S
C904 H874 0.950 . S
C904 C903 1.524 . S
C904 C905 1.415 . S
C905 H875 0.950 1_554 S
C905 C900 1.363 . S
C905 C904 1.415 . S
H906 C903 0.999 . S
H907 C888 0.913 . S
H908 C926 0.951 . S
H909 C928 0.951 . S
H910 C930 0.950 . S
H911 C931 0.950 . S
H912 C933 0.950 . S
H913 C936 0.950 . S
H914 C937 0.950 . S
H915 C939 0.950 . S
H916 C940 0.950 . S
H917 C941 0.951 1_554 S
H918 C943 0.974 . S
H919 C945 0.950 . S
H920 C946 0.950 . S
H921 C948 0.950 . S
H922 C951 0.988 . S
H923 C952 0.950 . S
H924 C954 0.950 . S
H925 C955 0.950 . S
C926 H908 0.951 . S
C926 C927 1.366 . S
C926 C928 1.388 . S
C927 C926 1.366 . S
C927 C931 1.385 . S
C928 H909 0.951 . S
C928 C926 1.388 . S
C928 C929 1.366 . S
C929 C928 1.366 . S
C929 C930 1.414 . S
C929 C932 1.499 . S
C930 H910 0.950 . S
C930 C929 1.414 . S
C930 C931 1.374 . S
C931 H911 0.950 . S
C931 C927 1.385 . S
C931 C930 1.374 . S
C932 C929 1.499 . S
C932 C933 1.373 . S
C932 C934 1.389 . S
C933 H912 0.950 . S
C933 C932 1.373 . S
C933 C949 1.377 . S
C934 C932 1.389 . S
C934 C935 1.524 . S
C934 C948 1.377 . S
C935 C934 1.524 . S
C935 C936 1.397 . S
C935 C940 1.363 . S
C936 H913 0.950 . S
C936 C935 1.397 . S
C936 C937 1.334 . S
C937 H914 0.950 . S
C937 C936 1.334 . S
C937 C938 1.287 . S
C938 C937 1.287 . S
C938 C939 1.524 . S
C938 H957 0.913 . S
C939 H915 0.950 . S
C939 C938 1.524 . S
C939 C940 1.415 . S
C940 H916 0.950 . S
C940 C935 1.363 . S
C940 C939 1.415 . S
C941 H917 0.951 1_556 S
C941 C942 1.366 . S
C941 C943 1.388 . S
C942 C941 1.366 . S
C942 C946 1.385 . S
C943 H918 0.974 . S
C943 C941 1.388 . S
C943 C944 1.366 . S
C944 C943 1.366 . S
C944 C945 1.414 . S
C944 C947 1.499 . S
C945 H919 0.950 . S
C945 C944 1.414 . S
C945 C946 1.374 . S
C946 H920 0.950 . S
C946 C942 1.385 . S
C946 C945 1.374 . S
C947 C944 1.499 . S
C947 C948 1.373 . S
C947 C949 1.389 . S
C948 H921 0.950 . S
C948 C934 1.377 . S
C948 C947 1.373 . S
C949 C933 1.377 . S
C949 C947 1.389 . S
C949 C950 1.524 1_556 S
C950 C949 1.524 1_554 S
C950 C951 1.397 . S
C950 C955 1.363 . S
C951 H922 0.988 . S
C951 C950 1.397 . S
C951 C952 1.334 . S
C952 H923 0.950 . S
C952 C951 1.334 . S
C952 C953 1.287 . S
C953 C952 1.287 . S
C953 C954 1.524 . S
C953 H956 0.999 . S
C954 H924 0.950 . S
C954 C953 1.524 . S
C954 C955 1.415 . S
C955 H925 0.950 . S
C955 C950 1.363 . S
C955 C954 1.415 . S
H956 C953 0.999 . S
H957 C938 0.913 . S
H958 C976 0.951 . S
H959 C978 0.951 . S
H960 C980 0.950 . S
H961 C981 0.919 1_554 S
H962 C983 0.950 . S
H963 C986 0.950 . S
H964 C987 0.950 . S
H965 C989 0.950 . S
H966 C990 0.950 . S
H967 C991 0.951 . S
H968 C993 0.951 . S
H969 C995 0.950 . S
H970 C996 0.950 . S
H971 C998 0.955 1_554 S
H972 C1001 0.950 . S
H973 C1002 0.950 . S
H974 C1004 0.956 . S
H975 C1005 0.950 . S
C976 H958 0.951 . S
C976 C977 1.366 . S
C976 C978 1.388 . S
C977 C976 1.366 . S
C977 C981 1.419 . S
C978 H959 0.951 . S
C978 C976 1.388 . S
C978 C979 1.366 . S
C979 C978 1.366 . S
C979 C980 1.414 1_556 S
C979 C982 1.499 . S
C980 H960 0.950 . S
C980 C979 1.414 1_554 S
C980 C981 1.372 1_554 S
C981 H961 0.919 1_556 S
C981 C977 1.419 . S
C981 C980 1.372 1_556 S
C982 C979 1.499 . S
C982 C983 1.373 . S
C982 C984 1.389 . S
C983 H962 0.950 . S
C983 C982 1.373 . S
C983 C999 1.377 . S
C984 C982 1.389 . S
C984 C985 1.520 1_556 S
C984 C998 1.376 . S
C985 C984 1.520 1_554 S
C985 C986 1.435 . S
C985 C990 1.334 1_554 S
C986 H963 0.950 . S
C986 C985 1.435 . S
C986 C987 1.334 . S
C987 H964 0.950 . S
C987 C986 1.334 . S
C987 C988 1.287 . S
C988 C987 1.287 . S
C988 C989 1.524 1_554 S
C988 H1007 0.913 . S
C989 H965 0.950 . S
C989 C988 1.524 1_556 S
C989 C990 1.415 . S
C990 H966 0.950 . S
C990 C985 1.334 1_556 S
C990 C989 1.415 . S
C991 H967 0.951 . S
C991 C992 1.366 . S
C991 C993 1.388 . S
C992 C991 1.366 . S
C992 C996 1.385 1_554 S
C993 H968 0.951 . S
C993 C991 1.388 . S
C993 C994 1.366 . S
C994 C993 1.366 . S
C994 C995 1.414 1_554 S
C994 C997 1.499 1_554 S
C995 H969 0.950 . S
C995 C994 1.414 1_556 S
C995 C996 1.374 . S
C996 H970 0.950 . S
C996 C992 1.385 1_556 S
C996 C995 1.374 . S
C997 C994 1.499 1_556 S
C997 C998 1.374 . S
C997 C999 1.389 . S
C998 H971 0.955 1_556 S
C998 C984 1.376 . S
C998 C997 1.374 . S
C999 C983 1.377 . S
C999 C997 1.389 . S
C999 C1000 1.524 . S
C1000 C999 1.524 . S
C1000 C1001 1.397 . S
C1000 C1005 1.363 1_556 S
C1001 H972 0.950 . S
C1001 C1000 1.397 . S
C1001 C1002 1.334 . S
C1002 H973 0.950 . S
C1002 C1001 1.334 . S
C1002 C1003 1.287 . S
C1003 C1002 1.287 . S
C1003 C1004 1.515 1_556 S
C1003 H1006 0.999 . S
C1004 H974 0.956 . S
C1004 C1003 1.515 1_554 S
C1004 C1005 1.416 . S
C1005 H975 0.950 . S
C1005 C1000 1.363 1_554 S
C1005 C1004 1.416 . S
H1006 C1003 0.999 . S
H1007 C988 0.913 . S
H1008 C1026 0.951 . S
H1009 C1028 0.951 . S
H1010 C1030 0.950 . S
H1011 C1031 0.950 . S
H1012 C1033 0.950 . S
H1013 C1036 0.950 . S
H1014 C1037 0.950 . S
H1015 C1039 0.950 . S
H1016 C1040 0.950 . S
H1017 C1041 0.951 . S
H1018 C1043 0.951 . S
H1019 C1045 0.950 . S
H1020 C1046 0.950 . S
H1021 C1048 0.950 . S
H1022 C1051 0.950 1_556 S
H1023 C1052 0.950 . S
H1024 C1054 0.950 . S
H1025 C1055 0.950 . S
C1026 H1008 0.951 . S
C1026 C1027 1.366 . S
C1026 C1028 1.388 . S
C1027 C1026 1.366 . S
C1027 C1031 1.385 . S
C1028 H1009 0.951 . S
C1028 C1026 1.388 . S
C1028 C1029 1.366 . S
C1029 C1028 1.366 . S
C1029 C1030 1.414 . S
C1029 C1032 1.499 . S
C1030 H1010 0.950 . S
C1030 C1029 1.414 . S
C1030 C1031 1.374 . S
C1031 H1011 0.950 . S
C1031 C1027 1.385 . S
C1031 C1030 1.374 . S
C1032 C1029 1.499 . S
C1032 C1033 1.373 . S
C1032 C1034 1.389 . S
C1033 H1012 0.950 . S
C1033 C1032 1.373 . S
C1033 C1049 1.377 . S
C1034 C1032 1.389 . S
C1034 C1035 1.524 . S
C1034 C1048 1.377 . S
C1035 C1034 1.524 . S
C1035 C1036 1.397 . S
C1035 C1040 1.363 . S
C1036 H1013 0.950 . S
C1036 C1035 1.397 . S
C1036 C1037 1.334 . S
C1037 H1014 0.950 . S
C1037 C1036 1.334 . S
C1037 C1038 1.287 . S
C1038 C1037 1.287 . S
C1038 C1039 1.524 . S
C1038 H1057 0.913 . S
C1039 H1015 0.950 . S
C1039 C1038 1.524 . S
C1039 C1040 1.415 . S
C1040 H1016 0.950 . S
C1040 C1035 1.363 . S
C1040 C1039 1.415 . S
C1041 H1017 0.951 . S
C1041 C1042 1.366 . S
C1041 C1043 1.388 . S
C1042 C1041 1.366 . S
C1042 C1046 1.385 . S
C1043 H1018 0.951 . S
C1043 C1041 1.388 . S
C1043 C1044 1.366 . S
C1044 C1043 1.366 . S
C1044 C1045 1.414 . S
C1044 C1047 1.499 . S
C1045 H1019 0.950 . S
C1045 C1044 1.414 . S
C1045 C1046 1.374 . S
C1046 H1020 0.950 . S
C1046 C1042 1.385 . S
C1046 C1045 1.374 . S
C1047 C1044 1.499 . S
C1047 C1048 1.373 . S
C1047 C1049 1.389 . S
C1048 H1021 0.950 . S
C1048 C1034 1.377 . S
C1048 C1047 1.373 . S
C1049 C1033 1.377 . S
C1049 C1047 1.389 . S
C1049 C1050 1.524 . S
C1050 C1049 1.524 . S
C1050 C1051 1.397 . S
C1050 C1055 1.363 . S
C1051 H1022 0.950 1_554 S
C1051 C1050 1.397 . S
C1051 C1052 1.334 1_554 S
C1052 H1023 0.950 . S
C1052 C1051 1.334 1_556 S
C1052 C1053 1.286 . S
C1053 C1052 1.286 . S
C1053 C1054 1.525 1_556 S
C1053 H1056 0.998 . S
C1054 H1024 0.950 . S
C1054 C1053 1.525 1_554 S
C1054 C1055 1.415 . S
C1055 H1025 0.950 . S
C1055 C1050 1.363 . S
C1055 C1054 1.415 . S
H1056 C1053 0.998 . S
H1057 C1038 0.913 . S
H1058 C1076 0.951 . S
H1059 C1078 0.951 . S
H1060 C1080 0.950 . S
H1061 C1081 0.950 . S
H1062 C1083 0.950 . S
H1063 C1086 0.950 . S
H1064 C1087 0.950 . S
H1065 C1089 0.950 1_556 S
H1066 C1090 0.950 . S
H1067 C1091 0.951 . S
H1068 C1093 0.951 . S
H1069 C1095 0.950 . S
H1070 C1096 0.950 . S
H1071 C1098 0.950 . S
H1072 C1101 0.950 . S
H1073 C1102 0.950 . S
H1074 C1104 0.950 . S
H1075 C1105 0.950 . S
C1076 H1058 0.951 . S
C1076 C1077 1.366 . S
C1076 C1078 1.388 . S
C1077 C1076 1.366 . S
C1077 C1081 1.385 . S
C1078 H1059 0.951 . S
C1078 C1076 1.388 . S
C1078 C1079 1.366 . S
C1079 C1078 1.366 . S
C1079 C1080 1.414 . S
C1079 C1082 1.499 . S
C1080 H1060 0.950 . S
C1080 C1079 1.414 . S
C1080 C1081 1.374 . S
C1081 H1061 0.950 . S
C1081 C1077 1.385 . S
C1081 C1080 1.374 . S
C1082 C1079 1.499 . S
C1082 C1083 1.373 . S
C1082 C1084 1.389 . S
C1083 H1062 0.950 . S
C1083 C1082 1.373 . S
C1083 C1099 1.377 . S
C1084 C1082 1.389 . S
C1084 C1085 1.524 . S
C1084 C1098 1.377 . S
C1085 C1084 1.524 . S
C1085 C1086 1.397 . S
C1085 C1090 1.363 . S
C1086 H1063 0.950 . S
C1086 C1085 1.397 . S
C1086 C1087 1.334 . S
C1087 H1064 0.950 . S
C1087 C1086 1.334 . S
C1087 C1088 1.287 . S
C1088 C1087 1.287 . S
C1088 C1089 1.524 . S
C1088 H1107 0.913 1_554 S
C1089 H1065 0.950 1_554 S
C1089 C1088 1.524 . S
C1089 C1090 1.415 . S
C1090 H1066 0.950 . S
C1090 C1085 1.363 . S
C1090 C1089 1.415 . S
C1091 H1067 0.951 . S
C1091 C1092 1.366 . S
C1091 C1093 1.388 . S
C1092 C1091 1.366 . S
C1092 C1096 1.385 . S
C1093 H1068 0.951 . S
C1093 C1091 1.388 . S
C1093 C1094 1.366 . S
C1094 C1093 1.366 . S
C1094 C1095 1.414 . S
C1094 C1097 1.499 . S
C1095 H1069 0.950 . S
C1095 C1094 1.414 . S
C1095 C1096 1.374 . S
C1096 H1070 0.950 . S
C1096 C1092 1.385 . S
C1096 C1095 1.374 . S
C1097 C1094 1.499 . S
C1097 C1098 1.373 . S
C1097 C1099 1.389 . S
C1098 H1071 0.950 . S
C1098 C1084 1.377 . S
C1098 C1097 1.373 . S
C1099 C1083 1.377 . S
C1099 C1097 1.389 . S
C1099 C1100 1.524 . S
C1100 C1099 1.524 . S
C1100 C1101 1.397 . S
C1100 C1105 1.363 . S
C1101 H1072 0.950 . S
C1101 C1100 1.397 . S
C1101 C1102 1.334 . S
C1102 H1073 0.950 . S
C1102 C1101 1.334 . S
C1102 C1103 1.287 . S
C1103 C1102 1.287 . S
C1103 C1104 1.524 . S
C1103 H1106 0.999 . S
C1104 H1074 0.950 . S
C1104 C1103 1.524 . S
C1104 C1105 1.415 . S
C1105 H1075 0.950 . S
C1105 C1100 1.363 . S
C1105 C1104 1.415 . S
H1106 C1103 0.999 . S
H1107 C1088 0.913 1_556 S
H1108 C1126 0.951 . S
H1109 C1128 0.951 . S
H1110 C1130 0.950 . S
H1111 C1131 0.950 . S
H1112 C1133 0.950 . S
H1113 C1136 0.950 . S
H1114 C1137 0.950 . S
H1115 C1139 0.950 . S
H1116 C1140 0.950 . S
H1117 C1141 0.951 1_556 S
H1118 C1143 0.951 . S
H1119 C1145 0.950 . S
H1120 C1146 0.950 . S
H1121 C1148 0.950 . S
H1122 C1151 0.950 1_554 S
H1123 C1152 0.950 . S
H1124 C1154 0.950 . S
H1125 C1155 0.950 . S
C1126 H1108 0.951 . S
C1126 C1127 1.366 . S
C1126 C1128 1.388 . S
C1127 C1126 1.366 . S
C1127 C1131 1.385 . S
C1128 H1109 0.951 . S
C1128 C1126 1.388 . S
C1128 C1129 1.366 . S
C1129 C1128 1.366 . S
C1129 C1130 1.414 . S
C1129 C1132 1.499 . S
C1130 H1110 0.950 . S
C1130 C1129 1.414 . S
C1130 C1131 1.374 . S
C1131 H1111 0.950 . S
C1131 C1127 1.385 . S
C1131 C1130 1.374 . S
C1132 C1129 1.499 . S
C1132 C1133 1.373 . S
C1132 C1134 1.389 . S
C1133 H1112 0.950 . S
C1133 C1132 1.373 . S
C1133 C1149 1.377 . S
C1134 C1132 1.389 . S
C1134 C1135 1.524 . S
C1134 C1148 1.377 . S
C1135 C1134 1.524 . S
C1135 C1136 1.397 . S
C1135 C1140 1.363 . S
C1136 H1113 0.950 . S
C1136 C1135 1.397 . S
C1136 C1137 1.334 . S
C1137 H1114 0.950 . S
C1137 C1136 1.334 . S
C1137 C1138 1.287 . S
C1138 C1137 1.287 . S
C1138 C1139 1.524 . S
C1138 H1157 0.913 . S
C1139 H1115 0.950 . S
C1139 C1138 1.524 . S
C1139 C1140 1.415 . S
C1140 H1116 0.950 . S
C1140 C1135 1.363 . S
C1140 C1139 1.415 . S
C1141 H1117 0.951 1_554 S
C1141 C1142 1.366 . S
C1141 C1143 1.388 . S
C1142 C1141 1.366 . S
C1142 C1146 1.385 . S
C1143 H1118 0.951 . S
C1143 C1141 1.388 . S
C1143 C1144 1.366 . S
C1144 C1143 1.366 . S
C1144 C1145 1.414 . S
C1144 C1147 1.499 . S
C1145 H1119 0.950 . S
C1145 C1144 1.414 . S
C1145 C1146 1.374 . S
C1146 H1120 0.950 . S
C1146 C1142 1.385 . S
C1146 C1145 1.374 . S
C1147 C1144 1.499 . S
C1147 C1148 1.373 . S
C1147 C1149 1.389 . S
C1148 H1121 0.950 . S
C1148 C1134 1.377 . S
C1148 C1147 1.373 . S
C1149 C1133 1.377 . S
C1149 C1147 1.389 . S
C1149 C1150 1.524 1_554 S
C1150 C1149 1.524 1_556 S
C1150 C1151 1.397 . S
C1150 C1155 1.363 . S
C1151 H1122 0.950 1_556 S
C1151 C1150 1.397 . S
C1151 C1152 1.334 . S
C1152 H1123 0.950 . S
C1152 C1151 1.334 . S
C1152 C1153 1.287 . S
C1153 C1152 1.287 . S
C1153 C1154 1.524 . S
C1153 H1156 0.999 . S
C1154 H1124 0.950 . S
C1154 C1153 1.524 . S
C1154 C1155 1.415 . S
C1155 H1125 0.950 . S
C1155 C1150 1.363 . S
C1155 C1154 1.415 . S
H1156 C1153 0.999 . S
H1157 C1138 0.913 . S
H1158 C1176 0.951 . S
H1159 C1178 0.951 . S
H1160 C1180 0.950 . S
H1161 C1181 0.950 . S
H1162 C1183 0.950 . S
H1163 C1186 0.950 . S
H1164 C1187 0.950 . S
H1165 C1189 0.950 . S
H1166 C1190 0.950 . S
H1167 C1191 0.951 . S
H1168 C1193 0.951 . S
H1169 C1195 0.950 . S
H1170 C1196 0.950 . S
H1171 C1198 0.950 . S
H1172 C1201 0.950 . S
H1173 C1202 0.950 . S
H1174 C1204 0.950 . S
H1175 C1205 0.950 . S
C1176 H1158 0.951 . S
C1176 C1177 1.366 . S
C1176 C1178 1.388 . S
C1177 C1176 1.366 . S
C1177 C1181 1.385 . S
C1178 H1159 0.951 . S
C1178 C1176 1.388 . S
C1178 C1179 1.366 . S
C1179 C1178 1.366 . S
C1179 C1180 1.414 . S
C1179 C1182 1.499 . S
C1180 H1160 0.950 . S
C1180 C1179 1.414 . S
C1180 C1181 1.374 . S
C1181 H1161 0.950 . S
C1181 C1177 1.385 . S
C1181 C1180 1.374 . S
C1182 C1179 1.499 . S
C1182 C1183 1.373 . S
C1182 C1184 1.389 . S
C1183 H1162 0.950 . S
C1183 C1182 1.373 . S
C1183 C1199 1.377 1_655 S
C1184 C1182 1.389 . S
C1184 C1185 1.524 . S
C1184 C1198 1.377 1_655 S
C1185 C1184 1.524 . S
C1185 C1186 1.397 . S
C1185 C1190 1.363 . S
C1186 H1163 0.950 . S
C1186 C1185 1.397 . S
C1186 C1187 1.334 . S
C1187 H1164 0.950 . S
C1187 C1186 1.334 . S
C1187 C1188 1.287 . S
C1188 C1187 1.287 . S
C1188 C1189 1.524 . S
C1188 H1207 0.913 . S
C1189 H1165 0.950 . S
C1189 C1188 1.524 . S
C1189 C1190 1.415 . S
C1190 H1166 0.950 . S
C1190 C1185 1.363 . S
C1190 C1189 1.415 . S
C1191 H1167 0.951 . S
C1191 C1192 1.366 . S
C1191 C1193 1.388 . S
C1192 C1191 1.366 . S
C1192 C1196 1.385 . S
C1193 H1168 0.951 . S
C1193 C1191 1.388 . S
C1193 C1194 1.366 . S
C1194 C1193 1.366 . S
C1194 C1195 1.414 . S
C1194 C1197 1.499 . S
C1195 H1169 0.950 . S
C1195 C1194 1.414 . S
C1195 C1196 1.374 . S
C1196 H1170 0.950 . S
C1196 C1192 1.385 . S
C1196 C1195 1.374 . S
C1197 C1194 1.499 . S
C1197 C1198 1.373 . S
C1197 C1199 1.389 . S
C1198 H1171 0.950 . S
C1198 C1184 1.377 1_455 S
C1198 C1197 1.373 . S
C1199 C1183 1.377 1_455 S
C1199 C1197 1.389 . S
C1199 C1200 1.524 . S
C1200 C1199 1.524 . S
C1200 C1201 1.397 . S
C1200 C1205 1.363 . S
C1201 H1172 0.950 . S
C1201 C1200 1.397 . S
C1201 C1202 1.334 . S
C1202 H1173 0.950 . S
C1202 C1201 1.334 . S
C1202 C1203 1.287 . S
C1203 C1202 1.287 . S
C1203 C1204 1.524 . S
C1203 H1206 0.999 . S
C1204 H1174 0.950 . S
C1204 C1203 1.524 . S
C1204 C1205 1.415 . S
C1205 H1175 0.950 . S
C1205 C1200 1.363 . S
C1205 C1204 1.415 . S
H1206 C1203 0.999 . S
H1207 C1188 0.913 . S
H1208 C1226 0.951 . S
H1209 C1228 0.951 . S
H1210 C1230 0.950 . S
H1211 C1231 0.950 . S
H1212 C1233 0.950 . S
H1213 C1236 0.950 . S
H1214 C1237 0.950 . S
H1215 C1239 0.950 . S
H1216 C1240 0.950 . S
H1217 C1241 0.951 . S
H1218 C1243 0.951 . S
H1219 C1245 0.950 . S
H1220 C1246 0.950 . S
H1221 C1248 0.950 . S
H1222 C1251 0.950 . S
H1223 C1252 0.950 . S
H1224 C1254 0.950 . S
H1225 C1255 0.950 . S
C1226 H1208 0.951 . S
C1226 C1227 1.366 . S
C1226 C1228 1.388 . S
C1227 C1226 1.366 . S
C1227 C1231 1.385 . S
C1228 H1209 0.951 . S
C1228 C1226 1.388 . S
C1228 C1229 1.366 . S
C1229 C1228 1.366 . S
C1229 C1230 1.414 . S
C1229 C1232 1.499 . S
C1230 H1210 0.950 . S
C1230 C1229 1.414 . S
C1230 C1231 1.374 . S
C1231 H1211 0.950 . S
C1231 C1227 1.385 . S
C1231 C1230 1.374 . S
C1232 C1229 1.499 . S
C1232 C1233 1.373 . S
C1232 C1234 1.389 . S
C1233 H1212 0.950 . S
C1233 C1232 1.373 . S
C1233 C1249 1.377 . S
C1234 C1232 1.389 . S
C1234 C1235 1.524 . S
C1234 C1248 1.377 . S
C1235 C1234 1.524 . S
C1235 C1236 1.397 . S
C1235 C1240 1.363 . S
C1236 H1213 0.950 . S
C1236 C1235 1.397 . S
C1236 C1237 1.334 . S
C1237 H1214 0.950 . S
C1237 C1236 1.334 . S
C1237 C1238 1.287 . S
C1238 C1237 1.287 . S
C1238 C1239 1.524 . S
C1238 H1257 0.913 . S
C1239 H1215 0.950 . S
C1239 C1238 1.524 . S
C1239 C1240 1.415 . S
C1240 H1216 0.950 . S
C1240 C1235 1.363 . S
C1240 C1239 1.415 . S
C1241 H1217 0.951 . S
C1241 C1242 1.366 . S
C1241 C1243 1.388 . S
C1242 C1241 1.366 . S
C1242 C1246 1.385 . S
C1243 H1218 0.951 . S
C1243 C1241 1.388 . S
C1243 C1244 1.366 . S
C1244 C1243 1.366 . S
C1244 C1245 1.414 . S
C1244 C1247 1.499 . S
C1245 H1219 0.950 . S
C1245 C1244 1.414 . S
C1245 C1246 1.374 . S
C1246 H1220 0.950 . S
C1246 C1242 1.385 . S
C1246 C1245 1.374 . S
C1247 C1244 1.499 . S
C1247 C1248 1.373 . S
C1247 C1249 1.389 . S
C1248 H1221 0.950 . S
C1248 C1234 1.377 . S
C1248 C1247 1.373 . S
C1249 C1233 1.377 . S
C1249 C1247 1.389 . S
C1249 C1250 1.524 . S
C1250 C1249 1.524 . S
C1250 C1251 1.397 . S
C1250 C1255 1.363 . S
C1251 H1222 0.950 . S
C1251 C1250 1.397 . S
C1251 C1252 1.334 . S
C1252 H1223 0.950 . S
C1252 C1251 1.334 . S
C1252 C1253 1.287 . S
C1253 C1252 1.287 . S
C1253 C1254 1.524 . S
C1253 H1256 0.999 . S
C1254 H1224 0.950 . S
C1254 C1253 1.524 . S
C1254 C1255 1.415 . S
C1255 H1225 0.950 . S
C1255 C1250 1.363 . S
C1255 C1254 1.415 . S
H1256 C1253 0.999 . S
H1257 C1238 0.913 . S
H1258 C1276 0.951 . S
H1259 C1278 0.951 . S
H1260 C1280 0.950 . S
H1261 C1281 0.950 . S
H1262 C1283 0.950 . S
H1263 C1286 0.950 . S
H1264 C1287 0.950 . S
H1265 C1289 0.950 . S
H1266 C1290 0.950 . S
H1267 C1291 0.951 . S
H1268 C1293 0.951 . S
H1269 C1295 0.950 . S
H1270 C1296 0.950 . S
H1271 C1298 0.950 . S
H1272 C1301 0.950 . S
H1273 C1302 0.950 . S
H1274 C1304 0.950 . S
H1275 C1305 0.950 . S
C1276 H1258 0.951 . S
C1276 C1277 1.366 . S
C1276 C1278 1.388 . S
C1277 C1276 1.366 . S
C1277 C1281 1.385 . S
C1278 H1259 0.951 . S
C1278 C1276 1.388 . S
C1278 C1279 1.366 . S
C1279 C1278 1.366 . S
C1279 C1280 1.414 . S
C1279 C1282 1.499 . S
C1280 H1260 0.950 . S
C1280 C1279 1.414 . S
C1280 C1281 1.374 . S
C1281 H1261 0.950 . S
C1281 C1277 1.385 . S
C1281 C1280 1.374 . S
C1282 C1279 1.499 . S
C1282 C1283 1.373 . S
C1282 C1284 1.389 . S
C1283 H1262 0.950 . S
C1283 C1282 1.373 . S
C1283 C1299 1.377 . S
C1284 C1282 1.389 . S
C1284 C1285 1.524 . S
C1284 C1298 1.377 . S
C1285 C1284 1.524 . S
C1285 C1286 1.397 . S
C1285 C1290 1.363 . S
C1286 H1263 0.950 . S
C1286 C1285 1.397 . S
C1286 C1287 1.334 . S
C1287 H1264 0.950 . S
C1287 C1286 1.334 . S
C1287 C1288 1.287 . S
C1288 C1287 1.287 . S
C1288 C1289 1.524 . S
C1288 H1307 0.913 . S
C1289 H1265 0.950 . S
C1289 C1288 1.524 . S
C1289 C1290 1.415 . S
C1290 H1266 0.950 . S
C1290 C1285 1.363 . S
C1290 C1289 1.415 . S
C1291 H1267 0.951 . S
C1291 C1292 1.366 . S
C1291 C1293 1.388 . S
C1292 C1291 1.366 . S
C1292 C1296 1.385 . S
C1293 H1268 0.951 . S
C1293 C1291 1.388 . S
C1293 C1294 1.366 . S
C1294 C1293 1.366 . S
C1294 C1295 1.414 . S
C1294 C1297 1.499 . S
C1295 H1269 0.950 . S
C1295 C1294 1.414 . S
C1295 C1296 1.374 . S
C1296 H1270 0.950 . S
C1296 C1292 1.385 . S
C1296 C1295 1.374 . S
C1297 C1294 1.499 . S
C1297 C1298 1.373 1_565 S
C1297 C1299 1.389 1_565 S
C1298 H1271 0.950 . S
C1298 C1284 1.377 . S
C1298 C1297 1.373 1_545 S
C1299 C1283 1.377 . S
C1299 C1297 1.389 1_545 S
C1299 C1300 1.524 1_545 S
C1300 C1299 1.524 1_565 S
C1300 C1301 1.397 . S
C1300 C1305 1.363 . S
C1301 H1272 0.950 . S
C1301 C1300 1.397 . S
C1301 C1302 1.334 . S
C1302 H1273 0.950 . S
C1302 C1301 1.334 . S
C1302 C1303 1.287 . S
C1303 C1302 1.287 . S
C1303 C1304 1.524 . S
C1303 H1306 0.999 . S
C1304 H1274 0.950 . S
C1304 C1303 1.524 . S
C1304 C1305 1.415 . S
C1305 H1275 0.950 . S
C1305 C1300 1.363 . S
C1305 C1304 1.415 . S
H1306 C1303 0.999 . S
H1307 C1288 0.913 . S
H1308 C1326 0.951 . S
H1309 C1328 0.951 . S
H1310 C1330 0.950 . S
H1311 C1331 0.950 . S
H1312 C1333 0.950 . S
H1313 C1336 0.950 . S
H1314 C1337 0.950 . S
H1315 C1339 0.950 . S
H1316 C1340 0.950 . S
H1317 C1341 0.951 . S
H1318 C1343 0.951 . S
H1319 C1345 0.950 . S
H1320 C1346 0.950 . S
H1321 C1348 0.950 . S
H1322 C1351 0.950 . S
H1323 C1352 0.950 . S
H1324 C1354 0.950 . S
H1325 C1355 0.950 . S
C1326 H1308 0.951 . S
C1326 C1327 1.366 . S
C1326 C1328 1.388 . S
C1327 C1326 1.366 . S
C1327 C1331 1.385 . S
C1328 H1309 0.951 . S
C1328 C1326 1.388 . S
C1328 C1329 1.366 . S
C1329 C1328 1.366 . S
C1329 C1330 1.414 . S
C1329 C1332 1.499 . S
C1330 H1310 0.950 . S
C1330 C1329 1.414 . S
C1330 C1331 1.374 . S
C1331 H1311 0.950 . S
C1331 C1327 1.385 . S
C1331 C1330 1.374 . S
C1332 C1329 1.499 . S
C1332 C1333 1.373 . S
C1332 C1334 1.389 . S
C1333 H1312 0.950 . S
C1333 C1332 1.373 . S
C1333 C1349 1.377 . S
C1334 C1332 1.389 . S
C1334 C1335 1.524 . S
C1334 C1348 1.377 . S
C1335 C1334 1.524 . S
C1335 C1336 1.397 . S
C1335 C1340 1.363 . S
C1336 H1313 0.950 . S
C1336 C1335 1.397 . S
C1336 C1337 1.334 . S
C1337 H1314 0.950 . S
C1337 C1336 1.334 . S
C1337 C1338 1.287 . S
C1338 C1337 1.287 . S
C1338 C1339 1.524 . S
C1338 H1357 0.913 . S
C1339 H1315 0.950 . S
C1339 C1338 1.524 . S
C1339 C1340 1.415 . S
C1340 H1316 0.950 . S
C1340 C1335 1.363 . S
C1340 C1339 1.415 . S
C1341 H1317 0.951 . S
C1341 C1342 1.366 . S
C1341 C1343 1.388 . S
C1342 C1341 1.366 . S
C1342 C1346 1.385 . S
C1343 H1318 0.951 . S
C1343 C1341 1.388 . S
C1343 C1344 1.366 . S
C1344 C1343 1.366 . S
C1344 C1345 1.414 . S
C1344 C1347 1.499 . S
C1345 H1319 0.950 . S
C1345 C1344 1.414 . S
C1345 C1346 1.374 . S
C1346 H1320 0.950 . S
C1346 C1342 1.385 . S
C1346 C1345 1.374 . S
C1347 C1344 1.499 . S
C1347 C1348 1.373 . S
C1347 C1349 1.389 . S
C1348 H1321 0.950 . S
C1348 C1334 1.377 . S
C1348 C1347 1.373 . S
C1349 C1333 1.377 . S
C1349 C1347 1.389 . S
C1349 C1350 1.524 . S
C1350 C1349 1.524 . S
C1350 C1351 1.397 . S
C1350 C1355 1.363 . S
C1351 H1322 0.950 . S
C1351 C1350 1.397 . S
C1351 C1352 1.334 . S
C1352 H1323 0.950 . S
C1352 C1351 1.334 . S
C1352 C1353 1.287 . S
C1353 C1352 1.287 . S
C1353 C1354 1.524 . S
C1353 H1356 0.999 . S
C1354 H1324 0.950 . S
C1354 C1353 1.524 . S
C1354 C1355 1.415 . S
C1355 H1325 0.950 . S
C1355 C1350 1.363 . S
C1355 C1354 1.415 . S
H1356 C1353 0.999 . S
H1357 C1338 0.913 . S
H1358 C1376 0.951 . S
H1359 C1378 0.951 . S
H1360 C1380 0.950 . S
H1361 C1381 0.950 . S
H1362 C1383 0.950 . S
H1363 C1386 0.950 . S
H1364 C1387 0.950 . S
H1365 C1389 0.950 . S
H1366 C1390 0.950 . S
H1367 C1391 0.951 . S
H1368 C1393 0.951 . S
H1369 C1395 0.950 . S
H1370 C1396 0.950 . S
H1371 C1398 0.950 . S
H1372 C1401 0.950 . S
H1373 C1402 0.950 . S
H1374 C1404 0.950 . S
H1375 C1405 0.950 . S
C1376 H1358 0.951 . S
C1376 C1377 1.366 . S
C1376 C1378 1.388 . S
C1377 C1376 1.366 . S
C1377 C1381 1.385 . S
C1378 H1359 0.951 . S
C1378 C1376 1.388 . S
C1378 C1379 1.366 . S
C1379 C1378 1.366 . S
C1379 C1380 1.414 . S
C1379 C1382 1.499 . S
C1380 H1360 0.950 . S
C1380 C1379 1.414 . S
C1380 C1381 1.374 . S
C1381 H1361 0.950 . S
C1381 C1377 1.385 . S
C1381 C1380 1.374 . S
C1382 C1379 1.499 . S
C1382 C1383 1.373 . S
C1382 C1384 1.389 . S
C1383 H1362 0.950 . S
C1383 C1382 1.373 . S
C1383 C1399 1.377 . S
C1384 C1382 1.389 . S
C1384 C1385 1.524 . S
C1384 C1398 1.377 . S
C1385 C1384 1.524 . S
C1385 C1386 1.397 . S
C1385 C1390 1.363 . S
C1386 H1363 0.950 . S
C1386 C1385 1.397 . S
C1386 C1387 1.334 . S
C1387 H1364 0.950 . S
C1387 C1386 1.334 . S
C1387 C1388 1.287 . S
C1388 C1387 1.287 . S
C1388 C1389 1.524 . S
C1388 H1407 0.913 . S
C1389 H1365 0.950 . S
C1389 C1388 1.524 . S
C1389 C1390 1.415 . S
C1390 H1366 0.950 . S
C1390 C1385 1.363 . S
C1390 C1389 1.415 . S
C1391 H1367 0.951 . S
C1391 C1392 1.366 . S
C1391 C1393 1.388 . S
C1392 C1391 1.366 . S
C1392 C1396 1.385 . S
C1393 H1368 0.951 . S
C1393 C1391 1.388 . S
C1393 C1394 1.366 . S
C1394 C1393 1.366 . S
C1394 C1395 1.414 . S
C1394 C1397 1.499 . S
C1395 H1369 0.950 . S
C1395 C1394 1.414 . S
C1395 C1396 1.374 . S
C1396 H1370 0.950 . S
C1396 C1392 1.385 . S
C1396 C1395 1.374 . S
C1397 C1394 1.499 . S
C1397 C1398 1.373 . S
C1397 C1399 1.389 . S
C1398 H1371 0.950 . S
C1398 C1384 1.377 . S
C1398 C1397 1.373 . S
C1399 C1383 1.377 . S
C1399 C1397 1.389 . S
C1399 C1400 1.524 . S
C1400 C1399 1.524 . S
C1400 C1401 1.397 . S
C1400 C1405 1.363 . S
C1401 H1372 0.950 . S
C1401 C1400 1.397 . S
C1401 C1402 1.334 . S
C1402 H1373 0.950 . S
C1402 C1401 1.334 . S
C1402 C1403 1.287 . S
C1403 C1402 1.287 . S
C1403 C1404 1.524 . S
C1403 H1406 0.999 . S
C1404 H1374 0.950 . S
C1404 C1403 1.524 . S
C1404 C1405 1.415 . S
C1405 H1375 0.950 . S
C1405 C1400 1.363 . S
C1405 C1404 1.415 . S
H1406 C1403 0.999 . S
H1407 C1388 0.913 . S
H1408 C1426 0.951 . S
H1409 C1428 0.951 . S
H1410 C1430 0.950 . S
H1411 C1431 0.950 . S
H1412 C1433 0.950 . S
H1413 C1436 0.950 . S
H1414 C1437 0.950 . S
H1415 C1439 0.950 . S
H1416 C1440 0.950 . S
H1417 C1441 0.951 . S
H1418 C1443 0.951 . S
H1419 C1445 0.950 . S
H1420 C1446 0.950 . S
H1421 C1448 0.950 . S
H1422 C1451 0.950 . S
H1423 C1452 0.950 . S
H1424 C1454 0.950 . S
H1425 C1455 0.950 . S
C1426 H1408 0.951 . S
C1426 C1427 1.366 . S
C1426 C1428 1.388 . S
C1427 C1426 1.366 . S
C1427 C1431 1.385 . S
C1428 H1409 0.951 . S
C1428 C1426 1.388 . S
C1428 C1429 1.366 . S
C1429 C1428 1.366 . S
C1429 C1430 1.414 . S
C1429 C1432 1.499 . S
C1430 H1410 0.950 . S
C1430 C1429 1.414 . S
C1430 C1431 1.374 . S
C1431 H1411 0.950 . S
C1431 C1427 1.385 . S
C1431 C1430 1.374 . S
C1432 C1429 1.499 . S
C1432 C1433 1.373 . S
C1432 C1434 1.389 . S
C1433 H1412 0.950 . S
C1433 C1432 1.373 . S
C1433 C1449 1.377 . S
C1434 C1432 1.389 . S
C1434 C1435 1.524 . S
C1434 C1448 1.377 . S
C1435 C1434 1.524 . S
C1435 C1436 1.397 . S
C1435 C1440 1.363 . S
C1436 H1413 0.950 . S
C1436 C1435 1.397 . S
C1436 C1437 1.334 . S
C1437 H1414 0.950 . S
C1437 C1436 1.334 . S
C1437 C1438 1.287 . S
C1438 C1437 1.287 . S
C1438 C1439 1.524 . S
C1438 H1457 0.913 . S
C1439 H1415 0.950 . S
C1439 C1438 1.524 . S
C1439 C1440 1.415 . S
C1440 H1416 0.950 . S
C1440 C1435 1.363 . S
C1440 C1439 1.415 . S
C1441 H1417 0.951 . S
C1441 C1442 1.366 . S
C1441 C1443 1.388 . S
C1442 C1441 1.366 . S
C1442 C1446 1.385 . S
C1443 H1418 0.951 . S
C1443 C1441 1.388 . S
C1443 C1444 1.366 . S
C1444 C1443 1.366 . S
C1444 C1445 1.414 . S
C1444 C1447 1.499 . S
C1445 H1419 0.950 . S
C1445 C1444 1.414 . S
C1445 C1446 1.374 . S
C1446 H1420 0.950 . S
C1446 C1442 1.385 . S
C1446 C1445 1.374 . S
C1447 C1444 1.499 . S
C1447 C1448 1.373 . S
C1447 C1449 1.389 . S
C1448 H1421 0.950 . S
C1448 C1434 1.377 . S
C1448 C1447 1.373 . S
C1449 C1433 1.377 . S
C1449 C1447 1.389 . S
C1449 C1450 1.524 . S
C1450 C1449 1.524 . S
C1450 C1451 1.397 . S
C1450 C1455 1.363 . S
C1451 H1422 0.950 . S
C1451 C1450 1.397 . S
C1451 C1452 1.334 . S
C1452 H1423 0.950 . S
C1452 C1451 1.334 . S
C1452 C1453 1.287 . S
C1453 C1452 1.287 . S
C1453 C1454 1.524 . S
C1453 H1456 0.999 . S
C1454 H1424 0.950 . S
C1454 C1453 1.524 . S
C1454 C1455 1.415 . S
C1455 H1425 0.950 . S
C1455 C1450 1.363 . S
C1455 C1454 1.415 . S
H1456 C1453 0.999 . S
H1457 C1438 0.913 . S
H1458 C1476 0.951 . S
H1459 C1478 0.951 . S
H1460 C1480 0.950 . S
H1461 C1481 0.950 . S
H1462 C1483 0.950 . S
H1463 C1486 0.950 . S
H1464 C1487 0.950 . S
H1465 C1489 0.950 . S
H1466 C1490 0.950 . S
H1467 C1491 0.951 . S
H1468 C1493 0.951 . S
H1469 C1495 0.950 . S
H1470 C1496 0.950 . S
H1471 C1498 0.950 . S
H1472 C1501 0.950 . S
H1473 C1502 0.950 . S
H1474 C1504 0.950 . S
H1475 C1505 0.950 . S
C1476 H1458 0.951 . S
C1476 C1477 1.366 . S
C1476 C1478 1.388 . S
C1477 C1476 1.366 . S
C1477 C1481 1.385 . S
C1478 H1459 0.951 . S
C1478 C1476 1.388 . S
C1478 C1479 1.366 . S
C1479 C1478 1.366 . S
C1479 C1480 1.414 . S
C1479 C1482 1.499 . S
C1480 H1460 0.950 . S
C1480 C1479 1.414 . S
C1480 C1481 1.374 . S
C1481 H1461 0.950 . S
C1481 C1477 1.385 . S
C1481 C1480 1.374 . S
C1482 C1479 1.499 . S
C1482 C1483 1.373 . S
C1482 C1484 1.389 . S
C1483 H1462 0.950 . S
C1483 C1482 1.373 . S
C1483 C1499 1.377 . S
C1484 C1482 1.389 . S
C1484 C1485 1.524 . S
C1484 C1498 1.377 . S
C1485 C1484 1.524 . S
C1485 C1486 1.397 . S
C1485 C1490 1.363 . S
C1486 H1463 0.950 . S
C1486 C1485 1.397 . S
C1486 C1487 1.334 . S
C1487 H1464 0.950 . S
C1487 C1486 1.334 . S
C1487 C1488 1.287 . S
C1488 C1487 1.287 . S
C1488 C1489 1.524 . S
C1488 H1507 0.913 . S
C1489 H1465 0.950 . S
C1489 C1488 1.524 . S
C1489 C1490 1.415 . S
C1490 H1466 0.950 . S
C1490 C1485 1.363 . S
C1490 C1489 1.415 . S
C1491 H1467 0.951 . S
C1491 C1492 1.366 . S
C1491 C1493 1.388 . S
C1492 C1491 1.366 . S
C1492 C1496 1.385 . S
C1493 H1468 0.951 . S
C1493 C1491 1.388 . S
C1493 C1494 1.366 . S
C1494 C1493 1.366 . S
C1494 C1495 1.414 . S
C1494 C1497 1.499 . S
C1495 H1469 0.950 . S
C1495 C1494 1.414 . S
C1495 C1496 1.374 . S
C1496 H1470 0.950 . S
C1496 C1492 1.385 . S
C1496 C1495 1.374 . S
C1497 C1494 1.499 . S
C1497 C1498 1.373 . S
C1497 C1499 1.389 . S
C1498 H1471 0.950 . S
C1498 C1484 1.377 . S
C1498 C1497 1.373 . S
C1499 C1483 1.377 . S
C1499 C1497 1.389 . S
C1499 C1500 1.524 . S
C1500 C1499 1.524 . S
C1500 C1501 1.397 . S
C1500 C1505 1.363 . S
C1501 H1472 0.950 . S
C1501 C1500 1.397 . S
C1501 C1502 1.334 . S
C1502 H1473 0.950 . S
C1502 C1501 1.334 . S
C1502 C1503 1.287 . S
C1503 C1502 1.287 . S
C1503 C1504 1.524 . S
C1503 H1506 0.999 . S
C1504 H1474 0.950 . S
C1504 C1503 1.524 . S
C1504 C1505 1.415 . S
C1505 H1475 0.950 . S
C1505 C1500 1.363 . S
C1505 C1504 1.415 . S
H1506 C1503 0.999 . S
H1507 C1488 0.913 . S
H1508 C1526 0.951 . S
H1509 C1528 0.951 . S
H1510 C1530 0.950 . S
H1511 C1531 0.950 . S
H1512 C1533 0.950 . S
H1513 C1536 0.950 . S
H1514 C1537 0.950 . S
H1515 C1539 0.950 . S
H1516 C1540 0.950 . S
H1517 C1541 0.951 . S
H1518 C1543 0.951 . S
H1519 C1545 0.950 . S
H1520 C1546 0.950 . S
H1521 C1548 0.950 . S
H1522 C1551 0.950 . S
H1523 C1552 0.950 . S
H1524 C1554 0.950 . S
H1525 C1555 0.950 . S
C1526 H1508 0.951 . S
C1526 C1527 1.366 . S
C1526 C1528 1.388 . S
C1527 C1526 1.366 . S
C1527 C1531 1.385 . S
C1528 H1509 0.951 . S
C1528 C1526 1.388 . S
C1528 C1529 1.366 . S
C1529 C1528 1.366 . S
C1529 C1530 1.414 . S
C1529 C1532 1.499 . S
C1530 H1510 0.950 . S
C1530 C1529 1.414 . S
C1530 C1531 1.374 . S
C1531 H1511 0.950 . S
C1531 C1527 1.385 . S
C1531 C1530 1.374 . S
C1532 C1529 1.499 . S
C1532 C1533 1.373 . S
C1532 C1534 1.389 . S
C1533 H1512 0.950 . S
C1533 C1532 1.373 . S
C1533 C1549 1.377 . S
C1534 C1532 1.389 . S
C1534 C1535 1.524 . S
C1534 C1548 1.377 . S
C1535 C1534 1.524 . S
C1535 C1536 1.397 . S
C1535 C1540 1.363 . S
C1536 H1513 0.950 . S
C1536 C1535 1.397 . S
C1536 C1537 1.334 . S
C1537 H1514 0.950 . S
C1537 C1536 1.334 . S
C1537 C1538 1.287 . S
C1538 C1537 1.287 . S
C1538 C1539 1.524 . S
C1538 H1557 0.913 . S
C1539 H1515 0.950 . S
C1539 C1538 1.524 . S
C1539 C1540 1.415 . S
C1540 H1516 0.950 . S
C1540 C1535 1.363 . S
C1540 C1539 1.415 . S
C1541 H1517 0.951 . S
C1541 C1542 1.366 . S
C1541 C1543 1.388 . S
C1542 C1541 1.366 . S
C1542 C1546 1.385 . S
C1543 H1518 0.951 . S
C1543 C1541 1.388 . S
C1543 C1544 1.366 . S
C1544 C1543 1.366 . S
C1544 C1545 1.414 . S
C1544 C1547 1.499 . S
C1545 H1519 0.950 . S
C1545 C1544 1.414 . S
C1545 C1546 1.374 . S
C1546 H1520 0.950 . S
C1546 C1542 1.385 . S
C1546 C1545 1.374 . S
C1547 C1544 1.499 . S
C1547 C1548 1.373 . S
C1547 C1549 1.389 . S
C1548 H1521 0.950 . S
C1548 C1534 1.377 . S
C1548 C1547 1.373 . S
C1549 C1533 1.377 . S
C1549 C1547 1.389 . S
C1549 C1550 1.524 . S
C1550 C1549 1.524 . S
C1550 C1551 1.397 . S
C1550 C1555 1.363 . S
C1551 H1522 0.950 . S
C1551 C1550 1.397 . S
C1551 C1552 1.334 . S
C1552 H1523 0.950 . S
C1552 C1551 1.334 . S
C1552 C1553 1.287 . S
C1553 C1552 1.287 . S
C1553 C1554 1.524 . S
C1553 H1556 0.999 . S
C1554 H1524 0.950 . S
C1554 C1553 1.524 . S
C1554 C1555 1.415 . S
C1555 H1525 0.950 . S
C1555 C1550 1.363 . S
C1555 C1554 1.415 . S
H1556 C1553 0.999 . S
H1557 C1538 0.913 . S
H1558 C1576 0.951 . S
H1559 C1578 0.951 . S
H1560 C1580 0.950 . S
H1561 C1581 0.950 . S
H1562 C1583 0.950 . S
H1563 C1586 0.950 . S
H1564 C1587 0.950 . S
H1565 C1589 0.950 . S
H1566 C1590 0.950 . S
H1567 C1591 0.951 . S
H1568 C1593 0.951 . S
H1569 C1595 0.950 . S
H1570 C1596 0.950 . S
H1571 C1598 0.950 . S
H1572 C1601 0.950 . S
H1573 C1602 0.950 . S
H1574 C1604 0.950 . S
H1575 C1605 0.950 . S
C1576 H1558 0.951 . S
C1576 C1577 1.366 . S
C1576 C1578 1.388 . S
C1577 C1576 1.366 . S
C1577 C1581 1.385 . S
C1578 H1559 0.951 . S
C1578 C1576 1.388 . S
C1578 C1579 1.366 . S
C1579 C1578 1.366 . S
C1579 C1580 1.414 . S
C1579 C1582 1.499 . S
C1580 H1560 0.950 . S
C1580 C1579 1.414 . S
C1580 C1581 1.374 . S
C1581 H1561 0.950 . S
C1581 C1577 1.385 . S
C1581 C1580 1.374 . S
C1582 C1579 1.499 . S
C1582 C1583 1.373 . S
C1582 C1584 1.389 . S
C1583 H1562 0.950 . S
C1583 C1582 1.373 . S
C1583 C1599 1.377 . S
C1584 C1582 1.389 . S
C1584 C1585 1.524 . S
C1584 C1598 1.377 . S
C1585 C1584 1.524 . S
C1585 C1586 1.397 . S
C1585 C1590 1.363 . S
C1586 H1563 0.950 . S
C1586 C1585 1.397 . S
C1586 C1587 1.334 . S
C1587 H1564 0.950 . S
C1587 C1586 1.334 . S
C1587 C1588 1.287 . S
C1588 C1587 1.287 . S
C1588 C1589 1.524 . S
C1588 H1607 0.913 . S
C1589 H1565 0.950 . S
C1589 C1588 1.524 . S
C1589 C1590 1.415 . S
C1590 H1566 0.950 . S
C1590 C1585 1.363 . S
C1590 C1589 1.415 . S
C1591 H1567 0.951 . S
C1591 C1592 1.366 . S
C1591 C1593 1.388 . S
C1592 C1591 1.366 . S
C1592 C1596 1.385 . S
C1593 H1568 0.951 . S
C1593 C1591 1.388 . S
C1593 C1594 1.366 . S
C1594 C1593 1.366 . S
C1594 C1595 1.414 . S
C1594 C1597 1.499 . S
C1595 H1569 0.950 . S
C1595 C1594 1.414 . S
C1595 C1596 1.374 . S
C1596 H1570 0.950 . S
C1596 C1592 1.385 . S
C1596 C1595 1.374 . S
C1597 C1594 1.499 . S
C1597 C1598 1.373 . S
C1597 C1599 1.389 . S
C1598 H1571 0.950 . S
C1598 C1584 1.377 . S
C1598 C1597 1.373 . S
C1599 C1583 1.377 . S
C1599 C1597 1.389 . S
C1599 C1600 1.524 . S
C1600 C1599 1.524 . S
C1600 C1601 1.397 . S
C1600 C1605 1.363 . S
C1601 H1572 0.950 . S
C1601 C1600 1.397 . S
C1601 C1602 1.334 . S
C1602 H1573 0.950 . S
C1602 C1601 1.334 . S
C1602 C1603 1.287 . S
C1603 C1602 1.287 . S
C1603 C1604 1.524 . S
C1603 H1606 0.999 . S
C1604 H1574 0.950 . S
C1604 C1603 1.524 . S
C1604 C1605 1.415 . S
C1605 H1575 0.950 . S
C1605 C1600 1.363 . S
C1605 C1604 1.415 . S
H1606 C1603 0.999 . S
H1607 C1588 0.913 . S
H1608 C1626 0.951 . S
H1609 C1628 0.951 . S
H1610 C1630 0.950 . S
H1611 C1631 0.950 . S
H1612 C1633 0.950 . S
H1613 C1636 0.946 1_545 S
H1614 C1637 0.950 . S
H1615 C1639 0.950 . S
H1616 C1640 0.950 . S
H1617 C1641 0.951 . S
H1618 C1643 0.951 . S
H1619 C1645 0.950 . S
H1620 C1646 0.950 . S
H1621 C1648 0.950 . S
H1622 C1651 0.950 . S
H1623 C1652 0.950 . S
H1624 C1654 0.950 . S
H1625 C1655 0.950 . S
C1626 H1608 0.951 . S
C1626 C1627 1.366 . S
C1626 C1628 1.388 . S
C1627 C1626 1.366 . S
C1627 C1631 1.385 . S
C1628 H1609 0.951 . S
C1628 C1626 1.388 . S
C1628 C1629 1.366 . S
C1629 C1628 1.366 . S
C1629 C1630 1.414 . S
C1629 C1632 1.499 1_545 S
C1630 H1610 0.950 . S
C1630 C1629 1.414 . S
C1630 C1631 1.374 . S
C1631 H1611 0.950 . S
C1631 C1627 1.385 . S
C1631 C1630 1.374 . S
C1632 C1629 1.499 1_565 S
C1632 C1633 1.373 . S
C1632 C1634 1.389 . S
C1633 H1612 0.950 . S
C1633 C1632 1.373 . S
C1633 C1649 1.377 . S
C1634 C1632 1.389 . S
C1634 C1635 1.524 . S
C1634 C1648 1.377 . S
C1635 C1634 1.524 . S
C1635 C1636 1.400 . S
C1635 C1640 1.363 . S
C1636 H1613 0.946 1_565 S
C1636 C1635 1.400 . S
C1636 C1637 1.335 1_565 S
C1637 H1614 0.950 . S
C1637 C1636 1.335 1_545 S
C1637 C1638 1.315 . S
C1638 C1637 1.315 . S
C1638 C1639 1.500 1_545 S
C1638 H1657 0.912 . S
C1639 H1615 0.950 . S
C1639 C1638 1.500 1_565 S
C1639 C1640 1.415 . S
C1640 H1616 0.950 . S
C1640 C1635 1.363 . S
C1640 C1639 1.415 . S
C1641 H1617 0.951 . S
C1641 C1642 1.366 . S
C1641 C1643 1.388 . S
C1642 C1641 1.366 . S
C1642 C1646 1.385 . S
C1643 H1618 0.951 . S
C1643 C1641 1.388 . S
C1643 C1644 1.366 . S
C1644 C1643 1.366 . S
C1644 C1645 1.414 . S
C1644 C1647 1.499 . S
C1645 H1619 0.950 . S
C1645 C1644 1.414 . S
C1645 C1646 1.374 . S
C1646 H1620 0.950 . S
C1646 C1642 1.385 . S
C1646 C1645 1.374 . S
C1647 C1644 1.499 . S
C1647 C1648 1.373 . S
C1647 C1649 1.389 . S
C1648 H1621 0.950 . S
C1648 C1634 1.377 . S
C1648 C1647 1.373 . S
C1649 C1633 1.377 . S
C1649 C1647 1.389 . S
C1649 C1650 1.524 . S
C1650 C1649 1.524 . S
C1650 C1651 1.397 . S
C1650 C1655 1.363 . S
C1651 H1622 0.950 . S
C1651 C1650 1.397 . S
C1651 C1652 1.334 . S
C1652 H1623 0.950 . S
C1652 C1651 1.334 . S
C1652 C1653 1.287 . S
C1653 C1652 1.287 . S
C1653 C1654 1.524 . S
C1653 H1656 0.999 . S
C1654 H1624 0.950 . S
C1654 C1653 1.524 . S
C1654 C1655 1.415 . S
C1655 H1625 0.950 . S
C1655 C1650 1.363 . S
C1655 C1654 1.415 . S
H1656 C1653 0.999 . S
H1657 C1638 0.912 . S
H1658 C1676 0.951 . S
H1659 C1678 0.953 . S
H1660 C1680 0.950 . S
H1661 C1681 0.950 . S
H1662 C1683 0.950 . S
H1663 C1686 0.950 . S
H1664 C1687 0.950 . S
H1665 C1689 0.948 . S
H1666 C1690 0.950 . S
H1667 C1691 0.951 . S
H1668 C1693 0.951 . S
H1669 C1695 0.950 . S
H1670 C1696 0.950 . S
H1671 C1698 0.950 . S
H1672 C1701 0.950 . S
H1673 C1702 0.950 . S
H1674 C1704 0.950 . S
H1675 C1705 0.950 . S
C1676 H1658 0.951 . S
C1676 C1677 1.366 . S
C1676 C1678 1.388 . S
C1677 C1676 1.366 . S
C1677 C1681 1.385 . S
C1678 H1659 0.953 . S
C1678 C1676 1.388 . S
C1678 C1679 1.366 1_655 S
C1679 C1678 1.366 1_455 S
C1679 C1680 1.414 . S
C1679 C1682 1.499 . S
C1680 H1660 0.950 . S
C1680 C1679 1.414 . S
C1680 C1681 1.374 1_455 S
C1681 H1661 0.950 . S
C1681 C1677 1.385 . S
C1681 C1680 1.374 1_655 S
C1682 C1679 1.499 . S
C1682 C1683 1.373 . S
C1682 C1684 1.389 . S
C1683 H1662 0.950 . S
C1683 C1682 1.373 . S
C1683 C1699 1.377 . S
C1684 C1682 1.389 . S
C1684 C1685 1.524 . S
C1684 C1698 1.377 . S
C1685 C1684 1.524 . S
C1685 C1686 1.397 . S
C1685 C1690 1.363 . S
C1686 H1663 0.950 . S
C1686 C1685 1.397 . S
C1686 C1687 1.334 1_455 S
C1687 H1664 0.950 . S
C1687 C1686 1.334 1_655 S
C1687 C1688 1.287 . S
C1688 C1687 1.287 . S
C1688 C1689 1.523 . S
C1688 H1707 0.913 . S
C1689 H1665 0.948 . S
C1689 C1688 1.523 . S
C1689 C1690 1.417 1_655 S
C1690 H1666 0.950 . S
C1690 C1685 1.363 . S
C1690 C1689 1.417 1_455 S
C1691 H1667 0.951 . S
C1691 C1692 1.366 . S
C1691 C1693 1.388 . S
C1692 C1691 1.366 . S
C1692 C1696 1.385 . S
C1693 H1668 0.951 . S
C1693 C1691 1.388 . S
C1693 C1694 1.366 . S
C1694 C1693 1.366 . S
C1694 C1695 1.414 . S
C1694 C1697 1.499 . S
C1695 H1669 0.950 . S
C1695 C1694 1.414 . S
C1695 C1696 1.374 . S
C1696 H1670 0.950 . S
C1696 C1692 1.385 . S
C1696 C1695 1.374 . S
C1697 C1694 1.499 . S
C1697 C1698 1.373 . S
C1697 C1699 1.389 . S
C1698 H1671 0.950 . S
C1698 C1684 1.377 . S
C1698 C1697 1.373 . S
C1699 C1683 1.377 . S
C1699 C1697 1.389 . S
C1699 C1700 1.524 . S
C1700 C1699 1.524 . S
C1700 C1701 1.397 . S
C1700 C1705 1.363 . S
C1701 H1672 0.950 . S
C1701 C1700 1.397 . S
C1701 C1702 1.334 . S
C1702 H1673 0.950 . S
C1702 C1701 1.334 . S
C1702 C1703 1.287 . S
C1703 C1702 1.287 . S
C1703 C1704 1.524 . S
C1703 H1706 0.999 . S
C1704 H1674 0.950 . S
C1704 C1703 1.524 . S
C1704 C1705 1.415 . S
C1705 H1675 0.950 . S
C1705 C1700 1.363 . S
C1705 C1704 1.415 . S
H1706 C1703 0.999 . S
H1707 C1688 0.913 . S
H1708 C1726 0.951 . S
H1709 C1728 0.951 . S
H1710 C1730 0.950 . S
H1711 C1731 0.950 . S
H1712 C1733 0.950 . S
H1713 C1736 0.950 . S
H1714 C1737 0.950 . S
H1715 C1739 0.950 . S
H1716 C1740 0.950 . S
H1717 C1741 0.951 . S
H1718 C1743 0.951 . S
H1719 C1745 0.950 . S
H1720 C1746 0.950 . S
H1721 C1748 0.950 . S
H1722 C1751 0.950 . S
H1723 C1752 0.950 . S
H1724 C1754 0.950 . S
H1725 C1755 0.950 . S
C1726 H1708 0.951 . S
C1726 C1727 1.366 . S
C1726 C1728 1.388 . S
C1727 C1726 1.366 . S
C1727 C1731 1.385 . S
C1728 H1709 0.951 . S
C1728 C1726 1.388 . S
C1728 C1729 1.366 . S
C1729 C1728 1.366 . S
C1729 C1730 1.414 . S
C1729 C1732 1.499 . S
C1730 H1710 0.950 . S
C1730 C1729 1.414 . S
C1730 C1731 1.374 . S
C1731 H1711 0.950 . S
C1731 C1727 1.385 . S
C1731 C1730 1.374 . S
C1732 C1729 1.499 . S
C1732 C1733 1.373 . S
C1732 C1734 1.389 . S
C1733 H1712 0.950 . S
C1733 C1732 1.373 . S
C1733 C1749 1.377 . S
C1734 C1732 1.389 . S
C1734 C1735 1.524 . S
C1734 C1748 1.377 . S
C1735 C1734 1.524 . S
C1735 C1736 1.397 . S
C1735 C1740 1.363 . S
C1736 H1713 0.950 . S
C1736 C1735 1.397 . S
C1736 C1737 1.334 . S
C1737 H1714 0.950 . S
C1737 C1736 1.334 . S
C1737 C1738 1.287 . S
C1738 C1737 1.287 . S
C1738 C1739 1.524 . S
C1738 H1757 0.913 . S
C1739 H1715 0.950 . S
C1739 C1738 1.524 . S
C1739 C1740 1.415 . S
C1740 H1716 0.950 . S
C1740 C1735 1.363 . S
C1740 C1739 1.415 . S
C1741 H1717 0.951 . S
C1741 C1742 1.366 . S
C1741 C1743 1.388 . S
C1742 C1741 1.366 . S
C1742 C1746 1.385 . S
C1743 H1718 0.951 . S
C1743 C1741 1.388 . S
C1743 C1744 1.366 . S
C1744 C1743 1.366 . S
C1744 C1745 1.414 . S
C1744 C1747 1.499 . S
C1745 H1719 0.950 . S
C1745 C1744 1.414 . S
C1745 C1746 1.374 . S
C1746 H1720 0.950 . S
C1746 C1742 1.385 . S
C1746 C1745 1.374 . S
C1747 C1744 1.499 . S
C1747 C1748 1.373 . S
C1747 C1749 1.389 . S
C1748 H1721 0.950 . S
C1748 C1734 1.377 . S
C1748 C1747 1.373 . S
C1749 C1733 1.377 . S
C1749 C1747 1.389 . S
C1749 C1750 1.524 . S
C1750 C1749 1.524 . S
C1750 C1751 1.397 . S
C1750 C1755 1.363 . S
C1751 H1722 0.950 . S
C1751 C1750 1.397 . S
C1751 C1752 1.334 . S
C1752 H1723 0.950 . S
C1752 C1751 1.334 . S
C1752 C1753 1.287 . S
C1753 C1752 1.287 . S
C1753 C1754 1.524 . S
C1753 H1756 0.999 . S
C1754 H1724 0.950 . S
C1754 C1753 1.524 . S
C1754 C1755 1.415 . S
C1755 H1725 0.950 . S
C1755 C1750 1.363 . S
C1755 C1754 1.415 . S
H1756 C1753 0.999 . S
H1757 C1738 0.913 . S
H1758 C1776 0.951 . S
H1759 C1778 0.951 . S
H1760 C1780 0.950 . S
H1761 C1781 0.950 . S
H1762 C1783 0.950 . S
H1763 C1786 0.950 . S
H1764 C1787 0.950 . S
H1765 C1789 0.950 . S
H1766 C1790 0.950 . S
H1767 C1791 0.951 . S
H1768 C1793 0.951 . S
H1769 C1795 0.950 . S
H1770 C1796 0.950 . S
H1771 C1798 0.950 . S
H1772 C1801 0.950 . S
H1773 C1802 0.950 . S
H1774 C1804 0.950 . S
H1775 C1805 0.950 . S
C1776 H1758 0.951 . S
C1776 C1777 1.366 . S
C1776 C1778 1.388 . S
C1777 C1776 1.366 . S
C1777 C1781 1.385 . S
C1778 H1759 0.951 . S
C1778 C1776 1.388 . S
C1778 C1779 1.366 . S
C1779 C1778 1.366 . S
C1779 C1780 1.414 . S
C1779 C1782 1.499 . S
C1780 H1760 0.950 . S
C1780 C1779 1.414 . S
C1780 C1781 1.374 . S
C1781 H1761 0.950 . S
C1781 C1777 1.385 . S
C1781 C1780 1.374 . S
C1782 C1779 1.499 . S
C1782 C1783 1.373 . S
C1782 C1784 1.389 . S
C1783 H1762 0.950 . S
C1783 C1782 1.373 . S
C1783 C1799 1.377 . S
C1784 C1782 1.389 . S
C1784 C1785 1.524 . S
C1784 C1798 1.377 . S
C1785 C1784 1.524 . S
C1785 C1786 1.397 . S
C1785 C1790 1.363 . S
C1786 H1763 0.950 . S
C1786 C1785 1.397 . S
C1786 C1787 1.334 . S
C1787 H1764 0.950 . S
C1787 C1786 1.334 . S
C1787 C1788 1.287 . S
C1788 C1787 1.287 . S
C1788 C1789 1.524 . S
C1788 H1807 0.913 . S
C1789 H1765 0.950 . S
C1789 C1788 1.524 . S
C1789 C1790 1.415 . S
C1790 H1766 0.950 . S
C1790 C1785 1.363 . S
C1790 C1789 1.415 . S
C1791 H1767 0.951 . S
C1791 C1792 1.366 . S
C1791 C1793 1.388 . S
C1792 C1791 1.366 . S
C1792 C1796 1.385 . S
C1793 H1768 0.951 . S
C1793 C1791 1.388 . S
C1793 C1794 1.366 . S
C1794 C1793 1.366 . S
C1794 C1795 1.414 . S
C1794 C1797 1.499 . S
C1795 H1769 0.950 . S
C1795 C1794 1.414 . S
C1795 C1796 1.374 . S
C1796 H1770 0.950 . S
C1796 C1792 1.385 . S
C1796 C1795 1.374 . S
C1797 C1794 1.499 . S
C1797 C1798 1.373 . S
C1797 C1799 1.389 . S
C1798 H1771 0.950 . S
C1798 C1784 1.377 . S
C1798 C1797 1.373 . S
C1799 C1783 1.377 . S
C1799 C1797 1.389 . S
C1799 C1800 1.524 . S
C1800 C1799 1.524 . S
C1800 C1801 1.397 . S
C1800 C1805 1.363 . S
C1801 H1772 0.950 . S
C1801 C1800 1.397 . S
C1801 C1802 1.334 . S
C1802 H1773 0.950 . S
C1802 C1801 1.334 . S
C1802 C1803 1.287 . S
C1803 C1802 1.287 . S
C1803 C1804 1.524 . S
C1803 H1806 0.999 . S
C1804 H1774 0.950 . S
C1804 C1803 1.524 . S
C1804 C1805 1.415 . S
C1805 H1775 0.950 . S
C1805 C1800 1.363 . S
C1805 C1804 1.415 . S
H1806 C1803 0.999 . S
H1807 C1788 0.913 . S
H1808 C1826 0.951 . S
H1809 C1828 0.951 . S
H1810 C1830 0.950 . S
H1811 C1831 0.950 . S
H1812 C1833 0.950 . S
H1813 C1836 0.950 . S
H1814 C1837 0.950 . S
H1815 C1839 0.950 . S
H1816 C1840 0.950 . S
H1817 C1841 0.951 . S
H1818 C1843 0.951 . S
H1819 C1845 0.950 . S
H1820 C1846 0.950 . S
H1821 C1848 0.950 . S
H1822 C1851 0.950 . S
H1823 C1852 0.950 . S
H1824 C1854 0.950 . S
H1825 C1855 0.950 . S
C1826 H1808 0.951 . S
C1826 C1827 1.366 . S
C1826 C1828 1.388 . S
C1827 C1826 1.366 . S
C1827 C1831 1.385 . S
C1828 H1809 0.951 . S
C1828 C1826 1.388 . S
C1828 C1829 1.366 . S
C1829 C1828 1.366 . S
C1829 C1830 1.414 . S
C1829 C1832 1.499 . S
C1830 H1810 0.950 . S
C1830 C1829 1.414 . S
C1830 C1831 1.374 . S
C1831 H1811 0.950 . S
C1831 C1827 1.385 . S
C1831 C1830 1.374 . S
C1832 C1829 1.499 . S
C1832 C1833 1.373 . S
C1832 C1834 1.389 . S
C1833 H1812 0.950 . S
C1833 C1832 1.373 . S
C1833 C1849 1.377 . S
C1834 C1832 1.389 . S
C1834 C1835 1.524 . S
C1834 C1848 1.377 . S
C1835 C1834 1.524 . S
C1835 C1836 1.397 . S
C1835 C1840 1.363 . S
C1836 H1813 0.950 . S
C1836 C1835 1.397 . S
C1836 C1837 1.334 . S
C1837 H1814 0.950 . S
C1837 C1836 1.334 . S
C1837 C1838 1.287 . S
C1838 C1837 1.287 . S
C1838 C1839 1.524 . S
C1838 H1857 0.913 . S
C1839 H1815 0.950 . S
C1839 C1838 1.524 . S
C1839 C1840 1.415 . S
C1840 H1816 0.950 . S
C1840 C1835 1.363 . S
C1840 C1839 1.415 . S
C1841 H1817 0.951 . S
C1841 C1842 1.366 . S
C1841 C1843 1.388 . S
C1842 C1841 1.366 . S
C1842 C1846 1.385 . S
C1843 H1818 0.951 . S
C1843 C1841 1.388 . S
C1843 C1844 1.366 . S
C1844 C1843 1.366 . S
C1844 C1845 1.414 . S
C1844 C1847 1.499 . S
C1845 H1819 0.950 . S
C1845 C1844 1.414 . S
C1845 C1846 1.374 . S
C1846 H1820 0.950 . S
C1846 C1842 1.385 . S
C1846 C1845 1.374 . S
C1847 C1844 1.499 . S
C1847 C1848 1.373 . S
C1847 C1849 1.389 . S
C1848 H1821 0.950 . S
C1848 C1834 1.377 . S
C1848 C1847 1.373 . S
C1849 C1833 1.377 . S
C1849 C1847 1.389 . S
C1849 C1850 1.524 . S
C1850 C1849 1.524 . S
C1850 C1851 1.397 . S
C1850 C1855 1.363 . S
C1851 H1822 0.950 . S
C1851 C1850 1.397 . S
C1851 C1852 1.334 . S
C1852 H1823 0.950 . S
C1852 C1851 1.334 . S
C1852 C1853 1.287 . S
C1853 C1852 1.287 . S
C1853 C1854 1.524 . S
C1853 H1856 0.999 . S
C1854 H1824 0.950 . S
C1854 C1853 1.524 . S
C1854 C1855 1.415 . S
C1855 H1825 0.950 . S
C1855 C1850 1.363 . S
C1855 C1854 1.415 . S
H1856 C1853 0.999 . S
H1857 C1838 0.913 . S
H1858 C1876 0.951 . S
H1859 C1878 0.951 . S
H1860 C1880 0.950 . S
H1861 C1881 0.950 . S
H1862 C1883 0.950 . S
H1863 C1886 0.950 . S
H1864 C1887 0.950 . S
H1865 C1889 0.950 . S
H1866 C1890 0.950 . S
H1867 C1891 0.951 . S
H1868 C1893 0.951 . S
H1869 C1895 0.950 . S
H1870 C1896 0.950 . S
H1871 C1898 0.950 . S
H1872 C1901 0.950 . S
H1873 C1902 0.950 . S
H1874 C1904 0.950 . S
H1875 C1905 0.950 . S
C1876 H1858 0.951 . S
C1876 C1877 1.366 . S
C1876 C1878 1.388 . S
C1877 C1876 1.366 . S
C1877 C1881 1.385 . S
C1878 H1859 0.951 . S
C1878 C1876 1.388 . S
C1878 C1879 1.366 . S
C1879 C1878 1.366 . S
C1879 C1880 1.414 . S
C1879 C1882 1.499 . S
C1880 H1860 0.950 . S
C1880 C1879 1.414 . S
C1880 C1881 1.374 . S
C1881 H1861 0.950 . S
C1881 C1877 1.385 . S
C1881 C1880 1.374 . S
C1882 C1879 1.499 . S
C1882 C1883 1.373 . S
C1882 C1884 1.389 . S
C1883 H1862 0.950 . S
C1883 C1882 1.373 . S
C1883 C1899 1.377 . S
C1884 C1882 1.389 . S
C1884 C1885 1.524 . S
C1884 C1898 1.377 . S
C1885 C1884 1.524 . S
C1885 C1886 1.397 . S
C1885 C1890 1.363 . S
C1886 H1863 0.950 . S
C1886 C1885 1.397 . S
C1886 C1887 1.334 . S
C1887 H1864 0.950 . S
C1887 C1886 1.334 . S
C1887 C1888 1.287 . S
C1888 C1887 1.287 . S
C1888 C1889 1.524 . S
C1888 H1907 0.913 . S
C1889 H1865 0.950 . S
C1889 C1888 1.524 . S
C1889 C1890 1.415 . S
C1890 H1866 0.950 . S
C1890 C1885 1.363 . S
C1890 C1889 1.415 . S
C1891 H1867 0.951 . S
C1891 C1892 1.366 . S
C1891 C1893 1.388 . S
C1892 C1891 1.366 . S
C1892 C1896 1.385 . S
C1893 H1868 0.951 . S
C1893 C1891 1.388 . S
C1893 C1894 1.366 . S
C1894 C1893 1.366 . S
C1894 C1895 1.414 . S
C1894 C1897 1.499 . S
C1895 H1869 0.950 . S
C1895 C1894 1.414 . S
C1895 C1896 1.374 . S
C1896 H1870 0.950 . S
C1896 C1892 1.385 . S
C1896 C1895 1.374 . S
C1897 C1894 1.499 . S
C1897 C1898 1.373 . S
C1897 C1899 1.389 . S
C1898 H1871 0.950 . S
C1898 C1884 1.377 . S
C1898 C1897 1.373 . S
C1899 C1883 1.377 . S
C1899 C1897 1.389 . S
C1899 C1900 1.524 . S
C1900 C1899 1.524 . S
C1900 C1901 1.397 . S
C1900 C1905 1.363 . S
C1901 H1872 0.950 . S
C1901 C1900 1.397 . S
C1901 C1902 1.334 . S
C1902 H1873 0.950 . S
C1902 C1901 1.334 . S
C1902 C1903 1.287 . S
C1903 C1902 1.287 . S
C1903 C1904 1.524 . S
C1903 H1906 0.999 . S
C1904 H1874 0.950 . S
C1904 C1903 1.524 . S
C1904 C1905 1.415 . S
C1905 H1875 0.950 . S
C1905 C1900 1.363 . S
C1905 C1904 1.415 . S
H1906 C1903 0.999 . S
H1907 C1888 0.913 . S
H1908 C1926 0.951 . S
H1909 C1928 0.951 . S
H1910 C1930 0.950 . S
H1911 C1931 0.950 . S
H1912 C1933 0.950 . S
H1913 C1936 0.950 . S
H1914 C1937 0.950 . S
H1915 C1939 0.950 . S
H1916 C1940 0.953 . S
H1917 C1941 0.951 . S
H1918 C1943 0.951 . S
H1919 C1945 0.950 . S
H1920 C1946 0.950 . S
H1921 C1948 0.950 . S
H1922 C1951 0.950 . S
H1923 C1952 0.950 . S
H1924 C1954 0.950 . S
H1925 C1955 0.950 . S
C1926 H1908 0.951 . S
C1926 C1927 1.366 . S
C1926 C1928 1.388 . S
C1927 C1926 1.366 . S
C1927 C1931 1.385 . S
C1928 H1909 0.951 . S
C1928 C1926 1.388 . S
C1928 C1929 1.366 . S
C1929 C1928 1.366 . S
C1929 C1930 1.414 . S
C1929 C1932 1.499 . S
C1930 H1910 0.950 . S
C1930 C1929 1.414 . S
C1930 C1931 1.374 . S
C1931 H1911 0.950 . S
C1931 C1927 1.385 . S
C1931 C1930 1.374 . S
C1932 C1929 1.499 . S
C1932 C1933 1.373 . S
C1932 C1934 1.389 . S
C1933 H1912 0.950 . S
C1933 C1932 1.373 . S
C1933 C1949 1.385 . S
C1934 C1932 1.389 . S
C1934 C1935 1.524 . S
C1934 C1948 1.377 1_565 S
C1935 C1934 1.524 . S
C1935 C1936 1.397 . S
C1935 C1940 1.363 . S
C1936 H1913 0.950 . S
C1936 C1935 1.397 . S
C1936 C1937 1.334 . S
C1937 H1914 0.950 . S
C1937 C1936 1.334 . S
C1937 C1938 1.287 . S
C1938 C1937 1.287 . S
C1938 C1939 1.524 . S
C1938 H1957 0.913 . S
C1939 H1915 0.950 . S
C1939 C1938 1.524 . S
C1939 C1940 1.415 . S
C1940 H1916 0.953 . S
C1940 C1935 1.363 . S
C1940 C1939 1.415 . S
C1941 H1917 0.951 . S
C1941 C1942 1.366 . S
C1941 C1943 1.388 . S
C1942 C1941 1.366 . S
C1942 C1946 1.385 . S
C1943 H1918 0.951 . S
C1943 C1941 1.388 . S
C1943 C1944 1.366 . S
C1944 C1943 1.366 . S
C1944 C1945 1.414 . S
C1944 C1947 1.499 . S
C1945 H1919 0.950 . S
C1945 C1944 1.414 . S
C1945 C1946 1.374 . S
C1946 H1920 0.950 . S
C1946 C1942 1.385 . S
C1946 C1945 1.374 . S
C1947 C1944 1.499 . S
C1947 C1948 1.373 . S
C1947 C1949 1.378 1_545 S
C1948 H1921 0.950 . S
C1948 C1934 1.377 1_545 S
C1948 C1947 1.373 . S
C1949 C1933 1.385 . S
C1949 C1947 1.378 1_565 S
C1949 C1950 1.529 1_565 S
C1950 C1949 1.529 1_545 S
C1950 C1951 1.397 . S
C1950 C1955 1.363 1_545 S
C1951 H1922 0.950 . S
C1951 C1950 1.397 . S
C1951 C1952 1.334 . S
C1952 H1923 0.950 . S
C1952 C1951 1.334 . S
C1952 C1953 1.287 . S
C1953 C1952 1.287 . S
C1953 C1954 1.524 1_545 S
C1953 H1956 0.999 . S
C1954 H1924 0.950 . S
C1954 C1953 1.524 1_565 S
C1954 C1955 1.415 . S
C1955 H1925 0.950 . S
C1955 C1950 1.363 1_565 S
C1955 C1954 1.415 . S
H1956 C1953 0.999 . S
H1957 C1938 0.913 . S
H1958 C1976 0.951 . S
H1959 C1978 0.951 . S
H1960 C1980 0.950 . S
H1961 C1981 0.950 . S
H1962 C1983 0.950 . S
H1963 C1986 0.950 . S
H1964 C1987 0.950 . S
H1965 C1989 0.950 . S
H1966 C1990 0.950 . S
H1967 C1991 0.951 . S
H1968 C1993 0.951 . S
H1969 C1995 0.950 . S
H1970 C1996 0.950 . S
H1971 C1998 0.950 . S
H1972 C2001 0.950 . S
H1973 C2002 0.950 . S
H1974 C2004 0.950 . S
H1975 C2005 0.950 . S
C1976 H1958 0.951 . S
C1976 C1977 1.366 . S
C1976 C1978 1.388 . S
C1977 C1976 1.366 . S
C1977 C1981 1.385 . S
C1978 H1959 0.951 . S
C1978 C1976 1.388 . S
C1978 C1979 1.366 . S
C1979 C1978 1.366 . S
C1979 C1980 1.414 . S
C1979 C1982 1.499 . S
C1980 H1960 0.950 . S
C1980 C1979 1.414 . S
C1980 C1981 1.374 . S
C1981 H1961 0.950 . S
C1981 C1977 1.385 . S
C1981 C1980 1.374 . S
C1982 C1979 1.499 . S
C1982 C1983 1.373 . S
C1982 C1984 1.389 . S
C1983 H1962 0.950 . S
C1983 C1982 1.373 . S
C1983 C1999 1.377 1_455 S
C1984 C1982 1.389 . S
C1984 C1985 1.524 . S
C1984 C1998 1.377 1_455 S
C1985 C1984 1.524 . S
C1985 C1986 1.397 . S
C1985 C1990 1.363 . S
C1986 H1963 0.950 . S
C1986 C1985 1.397 . S
C1986 C1987 1.334 . S
C1987 H1964 0.950 . S
C1987 C1986 1.334 . S
C1987 C1988 1.287 . S
C1988 C1987 1.287 . S
C1988 C1989 1.524 . S
C1988 H2007 0.913 . S
C1989 H1965 0.950 . S
C1989 C1988 1.524 . S
C1989 C1990 1.415 . S
C1990 H1966 0.950 . S
C1990 C1985 1.363 . S
C1990 C1989 1.415 . S
C1991 H1967 0.951 . S
C1991 C1992 1.366 . S
C1991 C1993 1.388 . S
C1992 C1991 1.366 . S
C1992 C1996 1.385 . S
C1993 H1968 0.951 . S
C1993 C1991 1.388 . S
C1993 C1994 1.366 . S
C1994 C1993 1.366 . S
C1994 C1995 1.414 . S
C1994 C1997 1.499 . S
C1995 H1969 0.950 . S
C1995 C1994 1.414 . S
C1995 C1996 1.374 . S
C1996 H1970 0.950 . S
C1996 C1992 1.385 . S
C1996 C1995 1.374 . S
C1997 C1994 1.499 . S
C1997 C1998 1.373 . S
C1997 C1999 1.389 . S
C1998 H1971 0.950 . S
C1998 C1984 1.377 1_655 S
C1998 C1997 1.373 . S
C1999 C1983 1.377 1_655 S
C1999 C1997 1.389 . S
C1999 C2000 1.524 . S
C2000 C1999 1.524 . S
C2000 C2001 1.397 . S
C2000 C2005 1.363 . S
C2001 H1972 0.950 . S
C2001 C2000 1.397 . S
C2001 C2002 1.334 . S
C2002 H1973 0.950 . S
C2002 C2001 1.334 . S
C2002 C2003 1.287 . S
C2003 C2002 1.287 . S
C2003 C2004 1.524 . S
C2003 H2006 0.999 . S
C2004 H1974 0.950 . S
C2004 C2003 1.524 . S
C2004 C2005 1.415 . S
C2005 H1975 0.950 . S
C2005 C2000 1.363 . S
C2005 C2004 1.415 . S
H2006 C2003 0.999 . S
H2007 C1988 0.913 . S
H2008 C2026 0.951 . S
H2009 C2028 0.951 . S
H2010 C2030 0.950 . S
H2011 C2031 0.950 . S
H2012 C2033 0.950 . S
H2013 C2036 0.950 . S
H2014 C2037 0.950 . S
H2015 C2039 0.950 . S
H2016 C2040 0.950 . S
H2017 C2041 0.951 . S
H2018 C2043 0.951 . S
H2019 C2045 0.950 . S
H2020 C2046 0.950 . S
H2021 C2048 0.950 . S
H2022 C2051 0.950 . S
H2023 C2052 0.950 . S
H2024 C2054 0.950 . S
H2025 C2055 0.950 . S
C2026 H2008 0.951 . S
C2026 C2027 1.366 . S
C2026 C2028 1.388 . S
C2027 C2026 1.366 . S
C2027 C2031 1.385 . S
C2028 H2009 0.951 . S
C2028 C2026 1.388 . S
C2028 C2029 1.366 . S
C2029 C2028 1.366 . S
C2029 C2030 1.414 . S
C2029 C2032 1.499 . S
C2030 H2010 0.950 . S
C2030 C2029 1.414 . S
C2030 C2031 1.374 . S
C2031 H2011 0.950 . S
C2031 C2027 1.385 . S
C2031 C2030 1.374 . S
C2032 C2029 1.499 . S
C2032 C2033 1.373 . S
C2032 C2034 1.389 . S
C2033 H2012 0.950 . S
C2033 C2032 1.373 . S
C2033 C2049 1.377 . S
C2034 C2032 1.389 . S
C2034 C2035 1.524 . S
C2034 C2048 1.377 . S
C2035 C2034 1.524 . S
C2035 C2036 1.397 . S
C2035 C2040 1.363 . S
C2036 H2013 0.950 . S
C2036 C2035 1.397 . S
C2036 C2037 1.334 . S
C2037 H2014 0.950 . S
C2037 C2036 1.334 . S
C2037 C2038 1.287 . S
C2038 C2037 1.287 . S
C2038 C2039 1.524 . S
C2038 H2057 0.913 . S
C2039 H2015 0.950 . S
C2039 C2038 1.524 . S
C2039 C2040 1.415 . S
C2040 H2016 0.950 . S
C2040 C2035 1.363 . S
C2040 C2039 1.415 . S
C2041 H2017 0.951 . S
C2041 C2042 1.366 . S
C2041 C2043 1.388 . S
C2042 C2041 1.366 . S
C2042 C2046 1.385 . S
C2043 H2018 0.951 . S
C2043 C2041 1.388 . S
C2043 C2044 1.366 . S
C2044 C2043 1.366 . S
C2044 C2045 1.414 . S
C2044 C2047 1.499 . S
C2045 H2019 0.950 . S
C2045 C2044 1.414 . S
C2045 C2046 1.374 . S
C2046 H2020 0.950 . S
C2046 C2042 1.385 . S
C2046 C2045 1.374 . S
C2047 C2044 1.499 . S
C2047 C2048 1.373 . S
C2047 C2049 1.389 . S
C2048 H2021 0.950 . S
C2048 C2034 1.377 . S
C2048 C2047 1.373 . S
C2049 C2033 1.377 . S
C2049 C2047 1.389 . S
C2049 C2050 1.524 . S
C2050 C2049 1.524 . S
C2050 C2051 1.397 . S
C2050 C2055 1.363 . S
C2051 H2022 0.950 . S
C2051 C2050 1.397 . S
C2051 C2052 1.334 . S
C2052 H2023 0.950 . S
C2052 C2051 1.334 . S
C2052 C2053 1.287 . S
C2053 C2052 1.287 . S
C2053 C2054 1.524 . S
C2053 H2056 0.999 . S
C2054 H2024 0.950 . S
C2054 C2053 1.524 . S
C2054 C2055 1.415 . S
C2055 H2025 0.950 . S
C2055 C2050 1.363 . S
C2055 C2054 1.415 . S
H2056 C2053 0.999 . S
H2057 C2038 0.913 . S
H2058 C2076 0.951 . S
H2059 C2078 0.951 . S
H2060 C2080 0.950 . S
H2061 C2081 0.950 . S
H2062 C2083 0.950 . S
H2063 C2086 0.950 . S
H2064 C2087 0.950 . S
H2065 C2089 0.950 . S
H2066 C2090 0.950 . S
H2067 C2091 0.951 . S
H2068 C2093 0.951 . S
H2069 C2095 0.950 . S
H2070 C2096 0.950 . S
H2071 C2098 0.950 . S
H2072 C2101 0.950 . S
H2073 C2102 0.950 . S
H2074 C2104 0.950 . S
H2075 C2105 0.950 . S
C2076 H2058 0.951 . S
C2076 C2077 1.366 . S
C2076 C2078 1.388 . S
C2077 C2076 1.366 . S
C2077 C2081 1.385 . S
C2078 H2059 0.951 . S
C2078 C2076 1.388 . S
C2078 C2079 1.366 . S
C2079 C2078 1.366 . S
C2079 C2080 1.414 . S
C2079 C2082 1.499 1_455 S
C2080 H2060 0.950 . S
C2080 C2079 1.414 . S
C2080 C2081 1.374 . S
C2081 H2061 0.950 . S
C2081 C2077 1.385 . S
C2081 C2080 1.374 . S
C2082 C2079 1.499 1_655 S
C2082 C2083 1.373 . S
C2082 C2084 1.389 . S
C2083 H2062 0.950 . S
C2083 C2082 1.373 . S
C2083 C2099 1.377 . S
C2084 C2082 1.389 . S
C2084 C2085 1.524 . S
C2084 C2098 1.377 . S
C2085 C2084 1.524 . S
C2085 C2086 1.397 1_655 S
C2085 C2090 1.363 . S
C2086 H2063 0.950 . S
C2086 C2085 1.397 1_455 S
C2086 C2087 1.334 . S
C2087 H2064 0.950 . S
C2087 C2086 1.334 . S
C2087 C2088 1.287 . S
C2088 C2087 1.287 . S
C2088 C2089 1.524 1_455 S
C2088 H2107 0.913 . S
C2089 H2065 0.950 . S
C2089 C2088 1.524 1_655 S
C2089 C2090 1.415 . S
C2090 H2066 0.950 . S
C2090 C2085 1.363 . S
C2090 C2089 1.415 . S
C2091 H2067 0.951 . S
C2091 C2092 1.366 . S
C2091 C2093 1.388 . S
C2092 C2091 1.366 . S
C2092 C2096 1.385 . S
C2093 H2068 0.951 . S
C2093 C2091 1.388 . S
C2093 C2094 1.366 . S
C2094 C2093 1.366 . S
C2094 C2095 1.414 . S
C2094 C2097 1.499 . S
C2095 H2069 0.950 . S
C2095 C2094 1.414 . S
C2095 C2096 1.374 . S
C2096 H2070 0.950 . S
C2096 C2092 1.385 . S
C2096 C2095 1.374 . S
C2097 C2094 1.499 . S
C2097 C2098 1.373 . S
C2097 C2099 1.389 . S
C2098 H2071 0.950 . S
C2098 C2084 1.377 . S
C2098 C2097 1.373 . S
C2099 C2083 1.377 . S
C2099 C2097 1.389 . S
C2099 C2100 1.524 . S
C2100 C2099 1.524 . S
C2100 C2101 1.397 . S
C2100 C2105 1.363 . S
C2101 H2072 0.950 . S
C2101 C2100 1.397 . S
C2101 C2102 1.334 . S
C2102 H2073 0.950 . S
C2102 C2101 1.334 . S
C2102 C2103 1.287 . S
C2103 C2102 1.287 . S
C2103 C2104 1.524 . S
C2103 H2106 0.999 . S
C2104 H2074 0.950 . S
C2104 C2103 1.524 . S
C2104 C2105 1.415 . S
C2105 H2075 0.950 . S
C2105 C2100 1.363 . S
C2105 C2104 1.415 . S
H2106 C2103 0.999 . S
H2107 C2088 0.913 . S
H2108 C2126 0.951 . S
H2109 C2128 0.951 . S
H2110 C2130 0.950 . S
H2111 C2131 0.950 . S
H2112 C2133 0.950 . S
H2113 C2136 0.950 . S
H2114 C2137 0.950 . S
H2115 C2139 0.950 . S
H2116 C2140 0.950 . S
H2117 C2141 0.951 . S
H2118 C2143 0.951 . S
H2119 C2145 0.950 . S
H2120 C2146 0.950 . S
H2121 C2148 0.950 . S
H2122 C2151 0.950 . S
H2123 C2152 0.950 . S
H2124 C2154 0.950 . S
H2125 C2155 0.950 . S
C2126 H2108 0.951 . S
C2126 C2127 1.366 . S
C2126 C2128 1.388 . S
C2127 C2126 1.366 . S
C2127 C2131 1.385 . S
C2128 H2109 0.951 . S
C2128 C2126 1.388 . S
C2128 C2129 1.366 . S
C2129 C2128 1.366 . S
C2129 C2130 1.414 . S
C2129 C2132 1.499 . S
C2130 H2110 0.950 . S
C2130 C2129 1.414 . S
C2130 C2131 1.374 . S
C2131 H2111 0.950 . S
C2131 C2127 1.385 . S
C2131 C2130 1.374 . S
C2132 C2129 1.499 . S
C2132 C2133 1.373 . S
C2132 C2134 1.389 . S
C2133 H2112 0.950 . S
C2133 C2132 1.373 . S
C2133 C2149 1.377 . S
C2134 C2132 1.389 . S
C2134 C2135 1.524 . S
C2134 C2148 1.377 . S
C2135 C2134 1.524 . S
C2135 C2136 1.397 . S
C2135 C2140 1.363 . S
C2136 H2113 0.950 . S
C2136 C2135 1.397 . S
C2136 C2137 1.334 . S
C2137 H2114 0.950 . S
C2137 C2136 1.334 . S
C2137 C2138 1.287 . S
C2138 C2137 1.287 . S
C2138 C2139 1.524 . S
C2138 H2157 0.913 . S
C2139 H2115 0.950 . S
C2139 C2138 1.524 . S
C2139 C2140 1.415 . S
C2140 H2116 0.950 . S
C2140 C2135 1.363 . S
C2140 C2139 1.415 . S
C2141 H2117 0.951 . S
C2141 C2142 1.366 . S
C2141 C2143 1.388 . S
C2142 C2141 1.366 . S
C2142 C2146 1.385 . S
C2143 H2118 0.951 . S
C2143 C2141 1.388 . S
C2143 C2144 1.366 . S
C2144 C2143 1.366 . S
C2144 C2145 1.414 . S
C2144 C2147 1.499 . S
C2145 H2119 0.950 . S
C2145 C2144 1.414 . S
C2145 C2146 1.374 . S
C2146 H2120 0.950 . S
C2146 C2142 1.385 . S
C2146 C2145 1.374 . S
C2147 C2144 1.499 . S
C2147 C2148 1.373 . S
C2147 C2149 1.389 . S
C2148 H2121 0.950 . S
C2148 C2134 1.377 . S
C2148 C2147 1.373 . S
C2149 C2133 1.377 . S
C2149 C2147 1.389 . S
C2149 C2150 1.524 . S
C2150 C2149 1.524 . S
C2150 C2151 1.397 . S
C2150 C2155 1.363 . S
C2151 H2122 0.950 . S
C2151 C2150 1.397 . S
C2151 C2152 1.334 . S
C2152 H2123 0.950 . S
C2152 C2151 1.334 . S
C2152 C2153 1.287 . S
C2153 C2152 1.287 . S
C2153 C2154 1.524 . S
C2153 H2156 0.999 . S
C2154 H2124 0.950 . S
C2154 C2153 1.524 . S
C2154 C2155 1.415 . S
C2155 H2125 0.950 . S
C2155 C2150 1.363 . S
C2155 C2154 1.415 . S
H2156 C2153 0.999 . S
H2157 C2138 0.913 . S
H2158 C2176 0.951 . S
H2159 C2178 0.951 . S
H2160 C2180 0.950 . S
H2161 C2181 0.950 . S
H2162 C2183 0.950 . S
H2163 C2186 0.950 . S
H2164 C2187 0.952 . S
H2165 C2189 0.950 . S
H2166 C2190 0.950 . S
H2167 C2191 0.951 . S
H2168 C2193 0.951 . S
H2169 C2195 0.950 . S
H2170 C2196 0.950 . S
H2171 C2198 0.950 . S
H2172 C2201 0.950 . S
H2173 C2202 0.950 . S
H2174 C2204 0.950 . S
H2175 C2205 0.950 . S
C2176 H2158 0.951 . S
C2176 C2177 1.366 . S
C2176 C2178 1.388 . S
C2177 C2176 1.366 . S
C2177 C2181 1.385 . S
C2178 H2159 0.951 . S
C2178 C2176 1.388 . S
C2178 C2179 1.366 . S
C2179 C2178 1.366 . S
C2179 C2180 1.414 . S
C2179 C2182 1.499 1_565 S
C2180 H2160 0.950 . S
C2180 C2179 1.414 . S
C2180 C2181 1.374 . S
C2181 H2161 0.950 . S
C2181 C2177 1.385 . S
C2181 C2180 1.374 . S
C2182 C2179 1.499 1_545 S
C2182 C2183 1.373 . S
C2182 C2184 1.389 . S
C2183 H2162 0.950 . S
C2183 C2182 1.373 . S
C2183 C2199 1.377 . S
C2184 C2182 1.389 . S
C2184 C2185 1.524 . S
C2184 C2198 1.377 . S
C2185 C2184 1.524 . S
C2185 C2186 1.397 . S
C2185 C2190 1.363 . S
C2186 H2163 0.950 . S
C2186 C2185 1.397 . S
C2186 C2187 1.333 1_545 S
C2187 H2164 0.952 . S
C2187 C2186 1.333 1_565 S
C2187 C2188 1.287 1_565 S
C2188 C2187 1.287 1_545 S
C2188 C2189 1.524 . S
C2188 H2207 0.949 . S
C2189 H2165 0.950 . S
C2189 C2188 1.524 . S
C2189 C2190 1.415 . S
C2190 H2166 0.950 . S
C2190 C2185 1.363 . S
C2190 C2189 1.415 . S
C2191 H2167 0.951 . S
C2191 C2192 1.366 . S
C2191 C2193 1.388 . S
C2192 C2191 1.366 . S
C2192 C2196 1.385 . S
C2193 H2168 0.951 . S
C2193 C2191 1.388 . S
C2193 C2194 1.366 . S
C2194 C2193 1.366 . S
C2194 C2195 1.414 . S
C2194 C2197 1.499 . S
C2195 H2169 0.950 . S
C2195 C2194 1.414 . S
C2195 C2196 1.374 . S
C2196 H2170 0.950 . S
C2196 C2192 1.385 . S
C2196 C2195 1.374 . S
C2197 C2194 1.499 . S
C2197 C2198 1.373 . S
C2197 C2199 1.389 . S
C2198 H2171 0.950 . S
C2198 C2184 1.377 . S
C2198 C2197 1.373 . S
C2199 C2183 1.377 . S
C2199 C2197 1.389 . S
C2199 C2200 1.524 . S
C2200 C2199 1.524 . S
C2200 C2201 1.397 . S
C2200 C2205 1.363 . S
C2201 H2172 0.950 . S
C2201 C2200 1.397 . S
C2201 C2202 1.334 . S
C2202 H2173 0.950 . S
C2202 C2201 1.334 . S
C2202 C2203 1.287 . S
C2203 C2202 1.287 . S
C2203 C2204 1.524 . S
C2203 H2206 0.999 . S
C2204 H2174 0.950 . S
C2204 C2203 1.524 . S
C2204 C2205 1.415 . S
C2205 H2175 0.950 . S
C2205 C2200 1.363 . S
C2205 C2204 1.415 . S
H2206 C2203 0.999 . S
H2207 C2188 0.949 . S
H2208 C2226 0.951 . S
H2209 C2228 0.951 . S
H2210 C2230 0.950 . S
H2211 C2231 0.950 . S
H2212 C2233 0.950 . S
H2213 C2236 0.950 . S
H2214 C2237 0.950 . S
H2215 C2239 0.950 . S
H2216 C2240 0.950 . S
H2217 C2241 0.951 . S
H2218 C2243 0.951 . S
H2219 C2245 0.950 . S
H2220 C2246 0.950 . S
H2221 C2248 0.950 . S
H2222 C2251 0.950 . S
H2223 C2252 0.950 . S
H2224 C2254 0.950 . S
H2225 C2255 0.950 . S
C2226 H2208 0.951 . S
C2226 C2227 1.366 . S
C2226 C2228 1.388 . S
C2227 C2226 1.366 . S
C2227 C2231 1.385 . S
C2228 H2209 0.951 . S
C2228 C2226 1.388 . S
C2228 C2229 1.366 . S
C2229 C2228 1.366 . S
C2229 C2230 1.414 . S
C2229 C2232 1.499 . S
C2230 H2210 0.950 . S
C2230 C2229 1.414 . S
C2230 C2231 1.374 . S
C2231 H2211 0.950 . S
C2231 C2227 1.385 . S
C2231 C2230 1.374 . S
C2232 C2229 1.499 . S
C2232 C2233 1.373 . S
C2232 C2234 1.389 . S
C2233 H2212 0.950 . S
C2233 C2232 1.373 . S
C2233 C2249 1.377 . S
C2234 C2232 1.389 . S
C2234 C2235 1.524 . S
C2234 C2248 1.377 . S
C2235 C2234 1.524 . S
C2235 C2236 1.397 . S
C2235 C2240 1.363 . S
C2236 H2213 0.950 . S
C2236 C2235 1.397 . S
C2236 C2237 1.334 . S
C2237 H2214 0.950 . S
C2237 C2236 1.334 . S
C2237 C2238 1.287 . S
C2238 C2237 1.287 . S
C2238 C2239 1.524 . S
C2238 H2257 0.913 . S
C2239 H2215 0.950 . S
C2239 C2238 1.524 . S
C2239 C2240 1.415 . S
C2240 H2216 0.950 . S
C2240 C2235 1.363 . S
C2240 C2239 1.415 . S
C2241 H2217 0.951 . S
C2241 C2242 1.366 . S
C2241 C2243 1.388 . S
C2242 C2241 1.366 . S
C2242 C2246 1.385 . S
C2243 H2218 0.951 . S
C2243 C2241 1.388 . S
C2243 C2244 1.366 . S
C2244 C2243 1.366 . S
C2244 C2245 1.414 . S
C2244 C2247 1.499 . S
C2245 H2219 0.950 . S
C2245 C2244 1.414 . S
C2245 C2246 1.374 . S
C2246 H2220 0.950 . S
C2246 C2242 1.385 . S
C2246 C2245 1.374 . S
C2247 C2244 1.499 . S
C2247 C2248 1.373 . S
C2247 C2249 1.389 . S
C2248 H2221 0.950 . S
C2248 C2234 1.377 . S
C2248 C2247 1.373 . S
C2249 C2233 1.377 . S
C2249 C2247 1.389 . S
C2249 C2250 1.524 . S
C2250 C2249 1.524 . S
C2250 C2251 1.397 . S
C2250 C2255 1.363 . S
C2251 H2222 0.950 . S
C2251 C2250 1.397 . S
C2251 C2252 1.334 . S
C2252 H2223 0.950 . S
C2252 C2251 1.334 . S
C2252 C2253 1.287 . S
C2253 C2252 1.287 . S
C2253 C2254 1.524 . S
C2253 H2256 0.999 . S
C2254 H2224 0.950 . S
C2254 C2253 1.524 . S
C2254 C2255 1.415 . S
C2255 H2225 0.950 . S
C2255 C2250 1.363 . S
C2255 C2254 1.415 . S
H2256 C2253 0.999 . S
H2257 C2238 0.913 . S
H2258 C2276 0.951 . S
H2259 C2278 0.951 . S
H2260 C2280 0.950 . S
H2261 C2281 0.950 . S
H2262 C2283 0.950 . S
H2263 C2286 0.950 . S
H2264 C2287 0.950 . S
H2265 C2289 0.950 . S
H2266 C2290 0.950 . S
H2267 C2291 0.951 . S
H2268 C2293 0.951 . S
H2269 C2295 0.950 . S
H2270 C2296 0.950 . S
H2271 C2298 0.950 . S
H2272 C2301 0.950 . S
H2273 C2302 0.950 . S
H2274 C2304 0.950 . S
H2275 C2305 0.950 . S
C2276 H2258 0.951 . S
C2276 C2277 1.366 . S
C2276 C2278 1.388 . S
C2277 C2276 1.366 . S
C2277 C2281 1.385 . S
C2278 H2259 0.951 . S
C2278 C2276 1.388 . S
C2278 C2279 1.366 . S
C2279 C2278 1.366 . S
C2279 C2280 1.414 . S
C2279 C2282 1.499 . S
C2280 H2260 0.950 . S
C2280 C2279 1.414 . S
C2280 C2281 1.374 . S
C2281 H2261 0.950 . S
C2281 C2277 1.385 . S
C2281 C2280 1.374 . S
C2282 C2279 1.499 . S
C2282 C2283 1.373 . S
C2282 C2284 1.389 . S
C2283 H2262 0.950 . S
C2283 C2282 1.373 . S
C2283 C2299 1.377 . S
C2284 C2282 1.389 . S
C2284 C2285 1.524 . S
C2284 C2298 1.377 . S
C2285 C2284 1.524 . S
C2285 C2286 1.397 . S
C2285 C2290 1.363 . S
C2286 H2263 0.950 . S
C2286 C2285 1.397 . S
C2286 C2287 1.334 . S
C2287 H2264 0.950 . S
C2287 C2286 1.334 . S
C2287 C2288 1.287 . S
C2288 C2287 1.287 . S
C2288 C2289 1.524 . S
C2288 H2307 0.913 . S
C2289 H2265 0.950 . S
C2289 C2288 1.524 . S
C2289 C2290 1.415 . S
C2290 H2266 0.950 . S
C2290 C2285 1.363 . S
C2290 C2289 1.415 . S
C2291 H2267 0.951 . S
C2291 C2292 1.366 . S
C2291 C2293 1.388 . S
C2292 C2291 1.366 . S
C2292 C2296 1.385 . S
C2293 H2268 0.951 . S
C2293 C2291 1.388 . S
C2293 C2294 1.366 . S
C2294 C2293 1.366 . S
C2294 C2295 1.414 . S
C2294 C2297 1.499 . S
C2295 H2269 0.950 . S
C2295 C2294 1.414 . S
C2295 C2296 1.374 . S
C2296 H2270 0.950 . S
C2296 C2292 1.385 . S
C2296 C2295 1.374 . S
C2297 C2294 1.499 . S
C2297 C2298 1.373 . S
C2297 C2299 1.389 . S
C2298 H2271 0.950 . S
C2298 C2284 1.377 . S
C2298 C2297 1.373 . S
C2299 C2283 1.377 . S
C2299 C2297 1.389 . S
C2299 C2300 1.524 . S
C2300 C2299 1.524 . S
C2300 C2301 1.397 . S
C2300 C2305 1.363 . S
C2301 H2272 0.950 . S
C2301 C2300 1.397 . S
C2301 C2302 1.334 . S
C2302 H2273 0.950 . S
C2302 C2301 1.334 . S
C2302 C2303 1.287 . S
C2303 C2302 1.287 . S
C2303 C2304 1.524 . S
C2303 H2306 0.999 . S
C2304 H2274 0.950 . S
C2304 C2303 1.524 . S
C2304 C2305 1.415 . S
C2305 H2275 0.950 . S
C2305 C2300 1.363 . S
C2305 C2304 1.415 . S
H2306 C2303 0.999 . S
H2307 C2288 0.913 . S
H2308 C2326 0.951 . S
H2309 C2328 0.951 . S
H2310 C2330 0.950 . S
H2311 C2331 0.950 . S
H2312 C2333 0.950 . S
H2313 C2336 0.950 . S
H2314 C2337 0.950 . S
H2315 C2339 0.950 . S
H2316 C2340 0.950 . S
H2317 C2341 0.951 . S
H2318 C2343 0.951 . S
H2319 C2345 0.950 . S
H2320 C2346 0.950 . S
H2321 C2348 0.950 . S
H2322 C2351 0.950 . S
H2323 C2352 0.950 . S
H2324 C2354 0.950 . S
H2325 C2355 0.950 . S
C2326 H2308 0.951 . S
C2326 C2327 1.366 . S
C2326 C2328 1.388 . S
C2327 C2326 1.366 . S
C2327 C2331 1.385 . S
C2328 H2309 0.951 . S
C2328 C2326 1.388 . S
C2328 C2329 1.366 . S
C2329 C2328 1.366 . S
C2329 C2330 1.414 . S
C2329 C2332 1.499 . S
C2330 H2310 0.950 . S
C2330 C2329 1.414 . S
C2330 C2331 1.374 . S
C2331 H2311 0.950 . S
C2331 C2327 1.385 . S
C2331 C2330 1.374 . S
C2332 C2329 1.499 . S
C2332 C2333 1.373 . S
C2332 C2334 1.389 . S
C2333 H2312 0.950 . S
C2333 C2332 1.373 . S
C2333 C2349 1.377 . S
C2334 C2332 1.389 . S
C2334 C2335 1.524 . S
C2334 C2348 1.377 . S
C2335 C2334 1.524 . S
C2335 C2336 1.397 . S
C2335 C2340 1.363 . S
C2336 H2313 0.950 . S
C2336 C2335 1.397 . S
C2336 C2337 1.334 . S
C2337 H2314 0.950 . S
C2337 C2336 1.334 . S
C2337 C2338 1.287 . S
C2338 C2337 1.287 . S
C2338 C2339 1.524 . S
C2338 H2357 0.913 . S
C2339 H2315 0.950 . S
C2339 C2338 1.524 . S
C2339 C2340 1.415 . S
C2340 H2316 0.950 . S
C2340 C2335 1.363 . S
C2340 C2339 1.415 . S
C2341 H2317 0.951 . S
C2341 C2342 1.366 . S
C2341 C2343 1.388 . S
C2342 C2341 1.366 . S
C2342 C2346 1.385 . S
C2343 H2318 0.951 . S
C2343 C2341 1.388 . S
C2343 C2344 1.366 . S
C2344 C2343 1.366 . S
C2344 C2345 1.414 . S
C2344 C2347 1.499 . S
C2345 H2319 0.950 . S
C2345 C2344 1.414 . S
C2345 C2346 1.374 . S
C2346 H2320 0.950 . S
C2346 C2342 1.385 . S
C2346 C2345 1.374 . S
C2347 C2344 1.499 . S
C2347 C2348 1.373 . S
C2347 C2349 1.389 . S
C2348 H2321 0.950 . S
C2348 C2334 1.377 . S
C2348 C2347 1.373 . S
C2349 C2333 1.377 . S
C2349 C2347 1.389 . S
C2349 C2350 1.524 . S
C2350 C2349 1.524 . S
C2350 C2351 1.397 . S
C2350 C2355 1.363 . S
C2351 H2322 0.950 . S
C2351 C2350 1.397 . S
C2351 C2352 1.334 . S
C2352 H2323 0.950 . S
C2352 C2351 1.334 . S
C2352 C2353 1.287 . S
C2353 C2352 1.287 . S
C2353 C2354 1.524 . S
C2353 H2356 0.999 . S
C2354 H2324 0.950 . S
C2354 C2353 1.524 . S
C2354 C2355 1.415 . S
C2355 H2325 0.950 . S
C2355 C2350 1.363 . S
C2355 C2354 1.415 . S
H2356 C2353 0.999 . S
H2357 C2338 0.913 . S
H2358 C2376 0.951 . S
H2359 C2378 0.951 . S
H2360 C2380 0.950 . S
H2361 C2381 0.950 . S
H2362 C2383 0.950 . S
H2363 C2386 0.950 . S
H2364 C2387 0.950 . S
H2365 C2389 0.950 . S
H2366 C2390 0.950 . S
H2367 C2391 0.951 1_545 S
H2368 C2393 0.951 . S
H2369 C2395 0.950 . S
H2370 C2396 0.950 . S
H2371 C2398 0.950 . S
H2372 C2401 0.950 . S
H2373 C2402 0.950 . S
H2374 C2404 0.950 . S
H2375 C2405 0.966 1_545 S
C2376 H2358 0.951 . S
C2376 C2377 1.366 . S
C2376 C2378 1.388 . S
C2377 C2376 1.366 . S
C2377 C2381 1.385 . S
C2378 H2359 0.951 . S
C2378 C2376 1.388 . S
C2378 C2379 1.366 . S
C2379 C2378 1.366 . S
C2379 C2380 1.414 . S
C2379 C2382 1.499 . S
C2380 H2360 0.950 . S
C2380 C2379 1.414 . S
C2380 C2381 1.374 . S
C2381 H2361 0.950 . S
C2381 C2377 1.385 . S
C2381 C2380 1.374 . S
C2382 C2379 1.499 . S
C2382 C2383 1.373 . S
C2382 C2384 1.389 . S
C2383 H2362 0.950 . S
C2383 C2382 1.373 . S
C2383 C2399 1.377 . S
C2384 C2382 1.389 . S
C2384 C2385 1.524 . S
C2384 C2398 1.377 . S
C2385 C2384 1.524 . S
C2385 C2386 1.397 . S
C2385 C2390 1.363 . S
C2386 H2363 0.950 . S
C2386 C2385 1.397 . S
C2386 C2387 1.334 . S
C2387 H2364 0.950 . S
C2387 C2386 1.334 . S
C2387 C2388 1.287 . S
C2388 C2387 1.287 . S
C2388 C2389 1.524 . S
C2388 H2407 0.913 . S
C2389 H2365 0.950 . S
C2389 C2388 1.524 . S
C2389 C2390 1.415 . S
C2390 H2366 0.950 . S
C2390 C2385 1.363 . S
C2390 C2389 1.415 . S
C2391 H2367 0.951 1_565 S
C2391 C2392 1.366 . S
C2391 C2393 1.388 . S
C2392 C2391 1.366 . S
C2392 C2396 1.385 . S
C2393 H2368 0.951 . S
C2393 C2391 1.388 . S
C2393 C2394 1.366 . S
C2394 C2393 1.366 . S
C2394 C2395 1.414 . S
C2394 C2397 1.499 . S
C2395 H2369 0.950 . S
C2395 C2394 1.414 . S
C2395 C2396 1.374 . S
C2396 H2370 0.950 . S
C2396 C2392 1.385 . S
C2396 C2395 1.374 . S
C2397 C2394 1.499 . S
C2397 C2398 1.373 . S
C2397 C2399 1.389 . S
C2398 H2371 0.950 . S
C2398 C2384 1.377 . S
C2398 C2397 1.373 . S
C2399 C2383 1.377 . S
C2399 C2397 1.389 . S
C2399 C2400 1.524 . S
C2400 C2399 1.524 . S
C2400 C2401 1.397 . S
C2400 C2405 1.363 . S
C2401 H2372 0.950 . S
C2401 C2400 1.397 . S
C2401 C2402 1.334 . S
C2402 H2373 0.950 . S
C2402 C2401 1.334 . S
C2402 C2403 1.287 1_565 S
C2403 C2402 1.287 1_545 S
C2403 C2404 1.524 . S
C2403 H2406 0.999 . S
C2404 H2374 0.950 . S
C2404 C2403 1.524 . S
C2404 C2405 1.415 1_545 S
C2405 H2375 0.966 1_565 S
C2405 C2400 1.363 . S
C2405 C2404 1.415 1_565 S
H2406 C2403 0.999 . S
H2407 C2388 0.913 . S
H2408 C2426 0.951 . S
H2409 C2428 0.951 . S
H2410 C2430 0.950 . S
H2411 C2431 0.950 . S
H2412 C2433 0.950 . S
H2413 C2436 0.950 . S
H2414 C2437 0.950 . S
H2415 C2439 0.950 . S
H2416 C2440 0.950 . S
H2417 C2441 0.951 . S
H2418 C2443 0.951 . S
H2419 C2445 0.950 . S
H2420 C2446 0.950 . S
H2421 C2448 0.950 . S
H2422 C2451 0.950 . S
H2423 C2452 0.950 . S
H2424 C2454 0.950 . S
H2425 C2455 0.950 . S
C2426 H2408 0.951 . S
C2426 C2427 1.366 . S
C2426 C2428 1.388 . S
C2427 C2426 1.366 . S
C2427 C2431 1.385 . S
C2428 H2409 0.951 . S
C2428 C2426 1.388 . S
C2428 C2429 1.366 . S
C2429 C2428 1.366 . S
C2429 C2430 1.414 . S
C2429 C2432 1.499 . S
C2430 H2410 0.950 . S
C2430 C2429 1.414 . S
C2430 C2431 1.374 . S
C2431 H2411 0.950 . S
C2431 C2427 1.385 . S
C2431 C2430 1.374 . S
C2432 C2429 1.499 . S
C2432 C2433 1.373 . S
C2432 C2434 1.389 . S
C2433 H2412 0.950 . S
C2433 C2432 1.373 . S
C2433 C2449 1.377 . S
C2434 C2432 1.389 . S
C2434 C2435 1.524 . S
C2434 C2448 1.377 . S
C2435 C2434 1.524 . S
C2435 C2436 1.397 . S
C2435 C2440 1.363 . S
C2436 H2413 0.950 . S
C2436 C2435 1.397 . S
C2436 C2437 1.334 . S
C2437 H2414 0.950 . S
C2437 C2436 1.334 . S
C2437 C2438 1.287 . S
C2438 C2437 1.287 . S
C2438 C2439 1.524 . S
C2438 H2457 0.913 . S
C2439 H2415 0.950 . S
C2439 C2438 1.524 . S
C2439 C2440 1.415 . S
C2440 H2416 0.950 . S
C2440 C2435 1.363 . S
C2440 C2439 1.415 . S
C2441 H2417 0.951 . S
C2441 C2442 1.366 . S
C2441 C2443 1.388 . S
C2442 C2441 1.366 . S
C2442 C2446 1.385 . S
C2443 H2418 0.951 . S
C2443 C2441 1.388 . S
C2443 C2444 1.366 . S
C2444 C2443 1.366 . S
C2444 C2445 1.414 . S
C2444 C2447 1.499 . S
C2445 H2419 0.950 . S
C2445 C2444 1.414 . S
C2445 C2446 1.374 . S
C2446 H2420 0.950 . S
C2446 C2442 1.385 . S
C2446 C2445 1.374 . S
C2447 C2444 1.499 . S
C2447 C2448 1.373 . S
C2447 C2449 1.389 . S
C2448 H2421 0.950 . S
C2448 C2434 1.377 . S
C2448 C2447 1.373 . S
C2449 C2433 1.377 . S
C2449 C2447 1.389 . S
C2449 C2450 1.524 . S
C2450 C2449 1.524 . S
C2450 C2451 1.397 . S
C2450 C2455 1.363 . S
C2451 H2422 0.950 . S
C2451 C2450 1.397 . S
C2451 C2452 1.334 . S
C2452 H2423 0.950 . S
C2452 C2451 1.334 . S
C2452 C2453 1.287 . S
C2453 C2452 1.287 . S
C2453 C2454 1.524 . S
C2453 H2456 0.999 . S
C2454 H2424 0.950 . S
C2454 C2453 1.524 . S
C2454 C2455 1.415 . S
C2455 H2425 0.950 . S
C2455 C2450 1.363 . S
C2455 C2454 1.415 . S
H2456 C2453 0.999 . S
H2457 C2438 0.913 . S
H2458 C2476 0.951 . S
H2459 C2478 0.951 . S
H2460 C2480 0.950 . S
H2461 C2481 0.950 . S
H2462 C2483 0.950 . S
H2463 C2486 0.950 . S
H2464 C2487 0.950 . S
H2465 C2489 0.950 . S
H2466 C2490 0.950 . S
H2467 C2491 0.951 . S
H2468 C2493 0.951 . S
H2469 C2495 0.950 . S
H2470 C2496 0.950 . S
H2471 C2498 0.950 . S
H2472 C2501 0.950 . S
H2473 C2502 0.950 . S
H2474 C2504 0.950 . S
H2475 C2505 0.950 . S
C2476 H2458 0.951 . S
C2476 C2477 1.366 . S
C2476 C2478 1.388 . S
C2477 C2476 1.366 . S
C2477 C2481 1.385 . S
C2478 H2459 0.951 . S
C2478 C2476 1.388 . S
C2478 C2479 1.366 . S
C2479 C2478 1.366 . S
C2479 C2480 1.414 . S
C2479 C2482 1.499 . S
C2480 H2460 0.950 . S
C2480 C2479 1.414 . S
C2480 C2481 1.374 . S
C2481 H2461 0.950 . S
C2481 C2477 1.385 . S
C2481 C2480 1.374 . S
C2482 C2479 1.499 . S
C2482 C2483 1.373 . S
C2482 C2484 1.389 . S
C2483 H2462 0.950 . S
C2483 C2482 1.373 . S
C2483 C2499 1.377 . S
C2484 C2482 1.389 . S
C2484 C2485 1.524 . S
C2484 C2498 1.377 . S
C2485 C2484 1.524 . S
C2485 C2486 1.397 . S
C2485 C2490 1.363 . S
C2486 H2463 0.950 . S
C2486 C2485 1.397 . S
C2486 C2487 1.334 . S
C2487 H2464 0.950 . S
C2487 C2486 1.334 . S
C2487 C2488 1.287 . S
C2488 C2487 1.287 . S
C2488 C2489 1.524 . S
C2488 H2507 0.913 . S
C2489 H2465 0.950 . S
C2489 C2488 1.524 . S
C2489 C2490 1.415 . S
C2490 H2466 0.950 . S
C2490 C2485 1.363 . S
C2490 C2489 1.415 . S
C2491 H2467 0.951 . S
C2491 C2492 1.366 . S
C2491 C2493 1.388 . S
C2492 C2491 1.366 . S
C2492 C2496 1.385 . S
C2493 H2468 0.951 . S
C2493 C2491 1.388 . S
C2493 C2494 1.366 . S
C2494 C2493 1.366 . S
C2494 C2495 1.414 . S
C2494 C2497 1.499 . S
C2495 H2469 0.950 . S
C2495 C2494 1.414 . S
C2495 C2496 1.374 . S
C2496 H2470 0.950 . S
C2496 C2492 1.385 . S
C2496 C2495 1.374 . S
C2497 C2494 1.499 . S
C2497 C2498 1.373 . S
C2497 C2499 1.389 . S
C2498 H2471 0.950 . S
C2498 C2484 1.377 . S
C2498 C2497 1.373 . S
C2499 C2483 1.377 . S
C2499 C2497 1.389 . S
C2499 C2500 1.524 . S
C2500 C2499 1.524 . S
C2500 C2501 1.397 . S
C2500 C2505 1.363 . S
C2501 H2472 0.950 . S
C2501 C2500 1.397 . S
C2501 C2502 1.334 . S
C2502 H2473 0.950 . S
C2502 C2501 1.334 . S
C2502 C2503 1.287 . S
C2503 C2502 1.287 . S
C2503 C2504 1.524 . S
C2503 H2506 0.999 . S
C2504 H2474 0.950 . S
C2504 C2503 1.524 . S
C2504 C2505 1.415 . S
C2505 H2475 0.950 . S
C2505 C2500 1.363 . S
C2505 C2504 1.415 . S
H2506 C2503 0.999 . S
H2507 C2488 0.913 . S
H2508 C2526 0.951 . S
H2509 C2528 0.951 . S
H2510 C2530 0.950 . S
H2511 C2531 0.950 . S
H2512 C2533 0.950 . S
H2513 C2536 0.950 . S
H2514 C2537 0.950 . S
H2515 C2539 0.950 . S
H2516 C2540 0.950 . S
H2517 C2541 0.951 . S
H2518 C2543 0.951 . S
H2519 C2545 0.950 . S
H2520 C2546 0.950 . S
H2521 C2548 0.950 . S
H2522 C2551 0.944 1_655 S
H2523 C2552 0.950 . S
H2524 C2554 0.950 . S
H2525 C2555 0.950 . S
C2526 H2508 0.951 . S
C2526 C2527 1.366 . S
C2526 C2528 1.388 . S
C2527 C2526 1.366 . S
C2527 C2531 1.385 . S
C2528 H2509 0.951 . S
C2528 C2526 1.388 . S
C2528 C2529 1.366 . S
C2529 C2528 1.366 . S
C2529 C2530 1.414 . S
C2529 C2532 1.499 . S
C2530 H2510 0.950 . S
C2530 C2529 1.414 . S
C2530 C2531 1.374 . S
C2531 H2511 0.950 . S
C2531 C2527 1.385 . S
C2531 C2530 1.374 . S
C2532 C2529 1.499 . S
C2532 C2533 1.373 . S
C2532 C2534 1.389 . S
C2533 H2512 0.950 . S
C2533 C2532 1.373 . S
C2533 C2549 1.377 . S
C2534 C2532 1.389 . S
C2534 C2535 1.524 . S
C2534 C2548 1.377 . S
C2535 C2534 1.524 . S
C2535 C2536 1.397 . S
C2535 C2540 1.363 . S
C2536 H2513 0.950 . S
C2536 C2535 1.397 . S
C2536 C2537 1.334 . S
C2537 H2514 0.950 . S
C2537 C2536 1.334 . S
C2537 C2538 1.287 . S
C2538 C2537 1.287 . S
C2538 C2539 1.524 . S
C2538 H2557 0.913 . S
C2539 H2515 0.950 . S
C2539 C2538 1.524 . S
C2539 C2540 1.415 . S
C2540 H2516 0.950 . S
C2540 C2535 1.363 . S
C2540 C2539 1.415 . S
C2541 H2517 0.951 . S
C2541 C2542 1.366 . S
C2541 C2543 1.388 . S
C2542 C2541 1.366 . S
C2542 C2546 1.385 . S
C2543 H2518 0.951 . S
C2543 C2541 1.388 . S
C2543 C2544 1.366 . S
C2544 C2543 1.366 . S
C2544 C2545 1.414 . S
C2544 C2547 1.499 . S
C2545 H2519 0.950 . S
C2545 C2544 1.414 . S
C2545 C2546 1.374 . S
C2546 H2520 0.950 . S
C2546 C2542 1.385 . S
C2546 C2545 1.374 . S
C2547 C2544 1.499 . S
C2547 C2548 1.373 . S
C2547 C2549 1.389 . S
C2548 H2521 0.950 . S
C2548 C2534 1.377 . S
C2548 C2547 1.373 . S
C2549 C2533 1.377 . S
C2549 C2547 1.389 . S
C2549 C2550 1.524 1_655 S
C2550 C2549 1.524 1_455 S
C2550 C2551 1.393 . S
C2550 C2555 1.363 . S
C2551 H2522 0.944 1_455 S
C2551 C2550 1.393 . S
C2551 C2552 1.342 . S
C2552 H2523 0.950 . S
C2552 C2551 1.342 . S
C2552 C2553 1.287 . S
C2553 C2552 1.287 . S
C2553 C2554 1.524 . S
C2553 H2556 0.999 . S
C2554 H2524 0.950 . S
C2554 C2553 1.524 . S
C2554 C2555 1.415 . S
C2555 H2525 0.950 . S
C2555 C2550 1.363 . S
C2555 C2554 1.415 . S
H2556 C2553 0.999 . S
H2557 C2538 0.913 . S
H2558 C2576 0.951 . S
H2559 C2578 0.951 . S
H2560 C2580 0.950 . S
H2561 C2581 0.950 . S
H2562 C2583 0.950 . S
H2563 C2586 0.950 . S
H2564 C2587 0.950 . S
H2565 C2589 0.950 . S
H2566 C2590 0.950 . S
H2567 C2591 0.951 . S
H2568 C2593 0.951 . S
H2569 C2595 0.950 . S
H2570 C2596 0.950 . S
H2571 C2598 0.950 . S
H2572 C2601 0.950 . S
H2573 C2602 0.950 . S
H2574 C2604 0.950 . S
H2575 C2605 0.950 . S
C2576 H2558 0.951 . S
C2576 C2577 1.366 . S
C2576 C2578 1.388 . S
C2577 C2576 1.366 . S
C2577 C2581 1.385 . S
C2578 H2559 0.951 . S
C2578 C2576 1.388 . S
C2578 C2579 1.366 . S
C2579 C2578 1.366 . S
C2579 C2580 1.414 . S
C2579 C2582 1.499 . S
C2580 H2560 0.950 . S
C2580 C2579 1.414 . S
C2580 C2581 1.374 . S
C2581 H2561 0.950 . S
C2581 C2577 1.385 . S
C2581 C2580 1.374 . S
C2582 C2579 1.499 . S
C2582 C2583 1.373 . S
C2582 C2584 1.389 . S
C2583 H2562 0.950 . S
C2583 C2582 1.373 . S
C2583 C2599 1.377 . S
C2584 C2582 1.389 . S
C2584 C2585 1.524 . S
C2584 C2598 1.377 . S
C2585 C2584 1.524 . S
C2585 C2586 1.397 . S
C2585 C2590 1.363 . S
C2586 H2563 0.950 . S
C2586 C2585 1.397 . S
C2586 C2587 1.334 . S
C2587 H2564 0.950 . S
C2587 C2586 1.334 . S
C2587 C2588 1.287 . S
C2588 C2587 1.287 . S
C2588 C2589 1.524 . S
C2588 H2607 0.913 . S
C2589 H2565 0.950 . S
C2589 C2588 1.524 . S
C2589 C2590 1.415 . S
C2590 H2566 0.950 . S
C2590 C2585 1.363 . S
C2590 C2589 1.415 . S
C2591 H2567 0.951 . S
C2591 C2592 1.366 . S
C2591 C2593 1.388 . S
C2592 C2591 1.366 . S
C2592 C2596 1.385 . S
C2593 H2568 0.951 . S
C2593 C2591 1.388 . S
C2593 C2594 1.366 . S
C2594 C2593 1.366 . S
C2594 C2595 1.414 . S
C2594 C2597 1.499 . S
C2595 H2569 0.950 . S
C2595 C2594 1.414 . S
C2595 C2596 1.374 . S
C2596 H2570 0.950 . S
C2596 C2592 1.385 . S
C2596 C2595 1.374 . S
C2597 C2594 1.499 . S
C2597 C2598 1.373 . S
C2597 C2599 1.389 . S
C2598 H2571 0.950 . S
C2598 C2584 1.377 . S
C2598 C2597 1.373 . S
C2599 C2583 1.377 . S
C2599 C2597 1.389 . S
C2599 C2600 1.524 . S
C2600 C2599 1.524 . S
C2600 C2601 1.397 . S
C2600 C2605 1.363 . S
C2601 H2572 0.950 . S
C2601 C2600 1.397 . S
C2601 C2602 1.334 . S
C2602 H2573 0.950 . S
C2602 C2601 1.334 . S
C2602 C2603 1.287 . S
C2603 C2602 1.287 . S
C2603 C2604 1.524 . S
C2603 H2606 0.999 . S
C2604 H2574 0.950 . S
C2604 C2603 1.524 . S
C2604 C2605 1.415 . S
C2605 H2575 0.950 . S
C2605 C2600 1.363 . S
C2605 C2604 1.415 . S
H2606 C2603 0.999 . S
H2607 C2588 0.913 . S
H2608 C2626 0.951 . S
H2609 C2628 0.951 . S
H2610 C2630 0.950 . S
H2611 C2631 0.950 . S
H2612 C2633 0.950 . S
H2613 C2636 0.950 . S
H2614 C2637 0.950 . S
H2615 C2639 0.950 1_565 S
H2616 C2640 0.950 . S
H2617 C2641 0.951 . S
H2618 C2643 0.951 . S
H2619 C2645 0.950 . S
H2620 C2646 0.950 . S
H2621 C2648 0.950 . S
H2622 C2651 0.950 . S
H2623 C2652 0.950 . S
H2624 C2654 0.950 . S
H2625 C2655 0.950 . S
C2626 H2608 0.951 . S
C2626 C2627 1.366 . S
C2626 C2628 1.388 . S
C2627 C2626 1.366 . S
C2627 C2631 1.385 . S
C2628 H2609 0.951 . S
C2628 C2626 1.388 . S
C2628 C2629 1.366 . S
C2629 C2628 1.366 . S
C2629 C2630 1.414 . S
C2629 C2632 1.499 . S
C2630 H2610 0.950 . S
C2630 C2629 1.414 . S
C2630 C2631 1.374 . S
C2631 H2611 0.950 . S
C2631 C2627 1.385 . S
C2631 C2630 1.374 . S
C2632 C2629 1.499 . S
C2632 C2633 1.373 . S
C2632 C2634 1.389 . S
C2633 H2612 0.950 . S
C2633 C2632 1.373 . S
C2633 C2649 1.377 . S
C2634 C2632 1.389 . S
C2634 C2635 1.524 . S
C2634 C2648 1.377 . S
C2635 C2634 1.524 . S
C2635 C2636 1.397 . S
C2635 C2640 1.363 . S
C2636 H2613 0.950 . S
C2636 C2635 1.397 . S
C2636 C2637 1.334 . S
C2637 H2614 0.950 . S
C2637 C2636 1.334 . S
C2637 C2638 1.287 . S
C2638 C2637 1.287 . S
C2638 C2639 1.524 . S
C2638 H2657 0.913 . S
C2639 H2615 0.950 1_545 S
C2639 C2638 1.524 . S
C2639 C2640 1.415 . S
C2640 H2616 0.950 . S
C2640 C2635 1.363 . S
C2640 C2639 1.415 . S
C2641 H2617 0.951 . S
C2641 C2642 1.366 . S
C2641 C2643 1.388 . S
C2642 C2641 1.366 . S
C2642 C2646 1.385 . S
C2643 H2618 0.951 . S
C2643 C2641 1.388 . S
C2643 C2644 1.366 . S
C2644 C2643 1.366 . S
C2644 C2645 1.414 . S
C2644 C2647 1.499 . S
C2645 H2619 0.950 . S
C2645 C2644 1.414 . S
C2645 C2646 1.374 . S
C2646 H2620 0.950 . S
C2646 C2642 1.385 . S
C2646 C2645 1.374 . S
C2647 C2644 1.499 . S
C2647 C2648 1.373 . S
C2647 C2649 1.389 . S
C2648 H2621 0.950 . S
C2648 C2634 1.377 . S
C2648 C2647 1.373 . S
C2649 C2633 1.377 . S
C2649 C2647 1.389 . S
C2649 C2650 1.524 . S
C2650 C2649 1.524 . S
C2650 C2651 1.397 . S
C2650 C2655 1.363 . S
C2651 H2622 0.950 . S
C2651 C2650 1.397 . S
C2651 C2652 1.334 . S
C2652 H2623 0.950 . S
C2652 C2651 1.334 . S
C2652 C2653 1.287 . S
C2653 C2652 1.287 . S
C2653 C2654 1.524 . S
C2653 H2656 0.999 . S
C2654 H2624 0.950 . S
C2654 C2653 1.524 . S
C2654 C2655 1.415 . S
C2655 H2625 0.950 . S
C2655 C2650 1.363 . S
C2655 C2654 1.415 . S
H2656 C2653 0.999 . S
H2657 C2638 0.913 . S
H2658 C2676 0.951 . S
H2659 C2678 0.951 . S
H2660 C2680 0.950 . S
H2661 C2681 0.950 . S
H2662 C2683 0.950 . S
H2663 C2686 0.950 . S
H2664 C2687 0.950 . S
H2665 C2689 0.950 . S
H2666 C2690 0.950 . S
H2667 C2691 0.951 . S
H2668 C2693 0.951 . S
H2669 C2695 0.950 . S
H2670 C2696 0.950 . S
H2671 C2698 0.950 . S
H2672 C2701 0.950 . S
H2673 C2702 0.950 . S
H2674 C2704 0.950 . S
H2675 C2705 0.950 . S
C2676 H2658 0.951 . S
C2676 C2677 1.366 . S
C2676 C2678 1.388 . S
C2677 C2676 1.366 . S
C2677 C2681 1.385 . S
C2678 H2659 0.951 . S
C2678 C2676 1.388 . S
C2678 C2679 1.366 . S
C2679 C2678 1.366 . S
C2679 C2680 1.414 . S
C2679 C2682 1.499 . S
C2680 H2660 0.950 . S
C2680 C2679 1.414 . S
C2680 C2681 1.374 . S
C2681 H2661 0.950 . S
C2681 C2677 1.385 . S
C2681 C2680 1.374 . S
C2682 C2679 1.499 . S
C2682 C2683 1.373 . S
C2682 C2684 1.389 . S
C2683 H2662 0.950 . S
C2683 C2682 1.373 . S
C2683 C2699 1.377 . S
C2684 C2682 1.389 . S
C2684 C2685 1.524 . S
C2684 C2698 1.377 . S
C2685 C2684 1.524 . S
C2685 C2686 1.397 . S
C2685 C2690 1.363 . S
C2686 H2663 0.950 . S
C2686 C2685 1.397 . S
C2686 C2687 1.334 . S
C2687 H2664 0.950 . S
C2687 C2686 1.334 . S
C2687 C2688 1.287 . S
C2688 C2687 1.287 . S
C2688 C2689 1.524 . S
C2688 H2707 0.913 . S
C2689 H2665 0.950 . S
C2689 C2688 1.524 . S
C2689 C2690 1.415 . S
C2690 H2666 0.950 . S
C2690 C2685 1.363 . S
C2690 C2689 1.415 . S
C2691 H2667 0.951 . S
C2691 C2692 1.366 . S
C2691 C2693 1.388 . S
C2692 C2691 1.366 . S
C2692 C2696 1.385 . S
C2693 H2668 0.951 . S
C2693 C2691 1.388 . S
C2693 C2694 1.366 . S
C2694 C2693 1.366 . S
C2694 C2695 1.414 . S
C2694 C2697 1.499 . S
C2695 H2669 0.950 . S
C2695 C2694 1.414 . S
C2695 C2696 1.374 . S
C2696 H2670 0.950 . S
C2696 C2692 1.385 . S
C2696 C2695 1.374 . S
C2697 C2694 1.499 . S
C2697 C2698 1.373 . S
C2697 C2699 1.389 . S
C2698 H2671 0.950 . S
C2698 C2684 1.377 . S
C2698 C2697 1.373 . S
C2699 C2683 1.377 . S
C2699 C2697 1.389 . S
C2699 C2700 1.524 . S
C2700 C2699 1.524 . S
C2700 C2701 1.397 . S
C2700 C2705 1.363 . S
C2701 H2672 0.950 . S
C2701 C2700 1.397 . S
C2701 C2702 1.334 . S
C2702 H2673 0.950 . S
C2702 C2701 1.334 . S
C2702 C2703 1.287 . S
C2703 C2702 1.287 . S
C2703 C2704 1.524 . S
C2703 H2706 0.999 . S
C2704 H2674 0.950 . S
C2704 C2703 1.524 . S
C2704 C2705 1.415 . S
C2705 H2675 0.950 . S
C2705 C2700 1.363 . S
C2705 C2704 1.415 . S
H2706 C2703 0.999 . S
H2707 C2688 0.913 . S
H2708 C2726 0.951 . S
H2709 C2728 0.951 . S
H2710 C2730 0.950 . S
H2711 C2731 0.950 . S
H2712 C2733 0.950 . S
H2713 C2736 0.950 . S
H2714 C2737 0.950 . S
H2715 C2739 0.950 . S
H2716 C2740 0.950 . S
H2717 C2741 0.951 . S
H2718 C2743 0.951 . S
H2719 C2745 0.950 . S
H2720 C2746 0.950 . S
H2721 C2748 0.950 . S
H2722 C2751 0.950 . S
H2723 C2752 0.950 . S
H2724 C2754 0.950 . S
H2725 C2755 0.950 . S
C2726 H2708 0.951 . S
C2726 C2727 1.366 . S
C2726 C2728 1.388 . S
C2727 C2726 1.366 . S
C2727 C2731 1.385 . S
C2728 H2709 0.951 . S
C2728 C2726 1.388 . S
C2728 C2729 1.366 . S
C2729 C2728 1.366 . S
C2729 C2730 1.414 . S
C2729 C2732 1.499 . S
C2730 H2710 0.950 . S
C2730 C2729 1.414 . S
C2730 C2731 1.374 . S
C2731 H2711 0.950 . S
C2731 C2727 1.385 . S
C2731 C2730 1.374 . S
C2732 C2729 1.499 . S
C2732 C2733 1.373 . S
C2732 C2734 1.389 . S
C2733 H2712 0.950 . S
C2733 C2732 1.373 . S
C2733 C2749 1.377 . S
C2734 C2732 1.389 . S
C2734 C2735 1.524 . S
C2734 C2748 1.377 . S
C2735 C2734 1.524 . S
C2735 C2736 1.397 . S
C2735 C2740 1.363 . S
C2736 H2713 0.950 . S
C2736 C2735 1.397 . S
C2736 C2737 1.334 . S
C2737 H2714 0.950 . S
C2737 C2736 1.334 . S
C2737 C2738 1.287 . S
C2738 C2737 1.287 . S
C2738 C2739 1.524 . S
C2738 H2757 0.913 . S
C2739 H2715 0.950 . S
C2739 C2738 1.524 . S
C2739 C2740 1.415 . S
C2740 H2716 0.950 . S
C2740 C2735 1.363 . S
C2740 C2739 1.415 . S
C2741 H2717 0.951 . S
C2741 C2742 1.366 . S
C2741 C2743 1.388 . S
C2742 C2741 1.366 . S
C2742 C2746 1.385 . S
C2743 H2718 0.951 . S
C2743 C2741 1.388 . S
C2743 C2744 1.366 . S
C2744 C2743 1.366 . S
C2744 C2745 1.414 . S
C2744 C2747 1.499 . S
C2745 H2719 0.950 . S
C2745 C2744 1.414 . S
C2745 C2746 1.374 . S
C2746 H2720 0.950 . S
C2746 C2742 1.385 . S
C2746 C2745 1.374 . S
C2747 C2744 1.499 . S
C2747 C2748 1.373 . S
C2747 C2749 1.389 . S
C2748 H2721 0.950 . S
C2748 C2734 1.377 . S
C2748 C2747 1.373 . S
C2749 C2733 1.377 . S
C2749 C2747 1.389 . S
C2749 C2750 1.524 . S
C2750 C2749 1.524 . S
C2750 C2751 1.397 . S
C2750 C2755 1.363 . S
C2751 H2722 0.950 . S
C2751 C2750 1.397 . S
C2751 C2752 1.334 . S
C2752 H2723 0.950 . S
C2752 C2751 1.334 . S
C2752 C2753 1.287 . S
C2753 C2752 1.287 . S
C2753 C2754 1.524 . S
C2753 H2756 0.999 . S
C2754 H2724 0.950 . S
C2754 C2753 1.524 . S
C2754 C2755 1.415 . S
C2755 H2725 0.950 . S
C2755 C2750 1.363 . S
C2755 C2754 1.415 . S
H2756 C2753 0.999 . S
H2757 C2738 0.913 . S
H2758 C2776 0.951 . S
H2759 C2778 0.951 . S
H2760 C2780 0.950 . S
H2761 C2781 0.950 . S
H2762 C2783 0.950 . S
H2763 C2786 0.950 . S
H2764 C2787 0.950 . S
H2765 C2789 0.950 . S
H2766 C2790 0.950 . S
H2767 C2791 0.951 . S
H2768 C2793 0.951 . S
H2769 C2795 0.950 . S
H2770 C2796 0.950 . S
H2771 C2798 0.950 . S
H2772 C2801 0.950 . S
H2773 C2802 0.950 . S
H2774 C2804 0.950 . S
H2775 C2805 0.950 . S
C2776 H2758 0.951 . S
C2776 C2777 1.366 . S
C2776 C2778 1.388 . S
C2777 C2776 1.366 . S
C2777 C2781 1.385 . S
C2778 H2759 0.951 . S
C2778 C2776 1.388 . S
C2778 C2779 1.366 . S
C2779 C2778 1.366 . S
C2779 C2780 1.414 . S
C2779 C2782 1.499 . S
C2780 H2760 0.950 . S
C2780 C2779 1.414 . S
C2780 C2781 1.374 . S
C2781 H2761 0.950 . S
C2781 C2777 1.385 . S
C2781 C2780 1.374 . S
C2782 C2779 1.499 . S
C2782 C2783 1.373 . S
C2782 C2784 1.389 . S
C2783 H2762 0.950 . S
C2783 C2782 1.373 . S
C2783 C2799 1.377 . S
C2784 C2782 1.389 . S
C2784 C2785 1.524 . S
C2784 C2798 1.377 . S
C2785 C2784 1.524 . S
C2785 C2786 1.397 . S
C2785 C2790 1.363 . S
C2786 H2763 0.950 . S
C2786 C2785 1.397 . S
C2786 C2787 1.334 . S
C2787 H2764 0.950 . S
C2787 C2786 1.334 . S
C2787 C2788 1.287 . S
C2788 C2787 1.287 . S
C2788 C2789 1.524 . S
C2788 H2807 0.913 . S
C2789 H2765 0.950 . S
C2789 C2788 1.524 . S
C2789 C2790 1.415 . S
C2790 H2766 0.950 . S
C2790 C2785 1.363 . S
C2790 C2789 1.415 . S
C2791 H2767 0.951 . S
C2791 C2792 1.366 . S
C2791 C2793 1.388 . S
C2792 C2791 1.366 . S
C2792 C2796 1.385 . S
C2793 H2768 0.951 . S
C2793 C2791 1.388 . S
C2793 C2794 1.366 . S
C2794 C2793 1.366 . S
C2794 C2795 1.414 . S
C2794 C2797 1.499 . S
C2795 H2769 0.950 . S
C2795 C2794 1.414 . S
C2795 C2796 1.374 . S
C2796 H2770 0.950 . S
C2796 C2792 1.385 . S
C2796 C2795 1.374 . S
C2797 C2794 1.499 . S
C2797 C2798 1.373 . S
C2797 C2799 1.389 . S
C2798 H2771 0.950 . S
C2798 C2784 1.377 . S
C2798 C2797 1.373 . S
C2799 C2783 1.377 . S
C2799 C2797 1.389 . S
C2799 C2800 1.524 . S
C2800 C2799 1.524 . S
C2800 C2801 1.397 . S
C2800 C2805 1.363 . S
C2801 H2772 0.950 . S
C2801 C2800 1.397 . S
C2801 C2802 1.334 . S
C2802 H2773 0.950 . S
C2802 C2801 1.334 . S
C2802 C2803 1.287 . S
C2803 C2802 1.287 . S
C2803 C2804 1.524 . S
C2803 H2806 0.999 . S
C2804 H2774 0.950 . S
C2804 C2803 1.524 . S
C2804 C2805 1.415 . S
C2805 H2775 0.950 . S
C2805 C2800 1.363 . S
C2805 C2804 1.415 . S
H2806 C2803 0.999 . S
H2807 C2788 0.913 . S
H2808 C2826 0.951 . S
H2809 C2828 0.951 . S
H2810 C2830 0.950 . S
H2811 C2831 0.950 . S
H2812 C2833 0.950 . S
H2813 C2836 0.950 . S
H2814 C2837 0.950 . S
H2815 C2839 0.950 . S
H2816 C2840 0.950 . S
H2817 C2841 0.951 . S
H2818 C2843 0.951 . S
H2819 C2845 0.950 . S
H2820 C2846 0.950 . S
H2821 C2848 0.950 . S
H2822 C2851 0.950 . S
H2823 C2852 0.950 . S
H2824 C2854 0.950 . S
H2825 C2855 0.950 . S
C2826 H2808 0.951 . S
C2826 C2827 1.366 . S
C2826 C2828 1.388 . S
C2827 C2826 1.366 . S
C2827 C2831 1.385 . S
C2828 H2809 0.951 . S
C2828 C2826 1.388 . S
C2828 C2829 1.366 . S
C2829 C2828 1.366 . S
C2829 C2830 1.414 . S
C2829 C2832 1.499 . S
C2830 H2810 0.950 . S
C2830 C2829 1.414 . S
C2830 C2831 1.374 . S
C2831 H2811 0.950 . S
C2831 C2827 1.385 . S
C2831 C2830 1.374 . S
C2832 C2829 1.499 . S
C2832 C2833 1.373 . S
C2832 C2834 1.389 . S
C2833 H2812 0.950 . S
C2833 C2832 1.373 . S
C2833 C2849 1.377 . S
C2834 C2832 1.389 . S
C2834 C2835 1.524 . S
C2834 C2848 1.377 . S
C2835 C2834 1.524 . S
C2835 C2836 1.397 . S
C2835 C2840 1.363 . S
C2836 H2813 0.950 . S
C2836 C2835 1.397 . S
C2836 C2837 1.334 . S
C2837 H2814 0.950 . S
C2837 C2836 1.334 . S
C2837 C2838 1.287 . S
C2838 C2837 1.287 . S
C2838 C2839 1.524 . S
C2838 H2857 0.913 . S
C2839 H2815 0.950 . S
C2839 C2838 1.524 . S
C2839 C2840 1.415 . S
C2840 H2816 0.950 . S
C2840 C2835 1.363 . S
C2840 C2839 1.415 . S
C2841 H2817 0.951 . S
C2841 C2842 1.366 . S
C2841 C2843 1.388 . S
C2842 C2841 1.366 . S
C2842 C2846 1.385 . S
C2843 H2818 0.951 . S
C2843 C2841 1.388 . S
C2843 C2844 1.366 . S
C2844 C2843 1.366 . S
C2844 C2845 1.414 . S
C2844 C2847 1.499 . S
C2845 H2819 0.950 . S
C2845 C2844 1.414 . S
C2845 C2846 1.374 . S
C2846 H2820 0.950 . S
C2846 C2842 1.385 . S
C2846 C2845 1.374 . S
C2847 C2844 1.499 . S
C2847 C2848 1.373 . S
C2847 C2849 1.389 . S
C2848 H2821 0.950 . S
C2848 C2834 1.377 . S
C2848 C2847 1.373 . S
C2849 C2833 1.377 . S
C2849 C2847 1.389 . S
C2849 C2850 1.524 . S
C2850 C2849 1.524 . S
C2850 C2851 1.397 . S
C2850 C2855 1.363 . S
C2851 H2822 0.950 . S
C2851 C2850 1.397 . S
C2851 C2852 1.334 . S
C2852 H2823 0.950 . S
C2852 C2851 1.334 . S
C2852 C2853 1.287 . S
C2853 C2852 1.287 . S
C2853 C2854 1.524 . S
C2853 H2856 0.999 . S
C2854 H2824 0.950 . S
C2854 C2853 1.524 . S
C2854 C2855 1.415 . S
C2855 H2825 0.950 . S
C2855 C2850 1.363 . S
C2855 C2854 1.415 . S
H2856 C2853 0.999 . S
H2857 C2838 0.913 . S
H2858 C2876 0.951 . S
H2859 C2878 0.951 . S
H2860 C2880 0.950 . S
H2861 C2881 0.950 . S
H2862 C2883 0.950 . S
H2863 C2886 0.950 . S
H2864 C2887 0.950 . S
H2865 C2889 0.950 . S
H2866 C2890 0.950 . S
H2867 C2891 0.951 . S
H2868 C2893 0.951 . S
H2869 C2895 0.950 . S
H2870 C2896 0.950 . S
H2871 C2898 0.950 . S
H2872 C2901 0.950 . S
H2873 C2902 0.950 . S
H2874 C2904 0.950 . S
H2875 C2905 0.950 . S
C2876 H2858 0.951 . S
C2876 C2877 1.366 . S
C2876 C2878 1.388 . S
C2877 C2876 1.366 . S
C2877 C2881 1.385 . S
C2878 H2859 0.951 . S
C2878 C2876 1.388 . S
C2878 C2879 1.366 . S
C2879 C2878 1.366 . S
C2879 C2880 1.414 . S
C2879 C2882 1.499 . S
C2880 H2860 0.950 . S
C2880 C2879 1.414 . S
C2880 C2881 1.374 . S
C2881 H2861 0.950 . S
C2881 C2877 1.385 . S
C2881 C2880 1.374 . S
C2882 C2879 1.499 . S
C2882 C2883 1.373 . S
C2882 C2884 1.389 . S
C2883 H2862 0.950 . S
C2883 C2882 1.373 . S
C2883 C2899 1.377 . S
C2884 C2882 1.389 . S
C2884 C2885 1.524 . S
C2884 C2898 1.377 . S
C2885 C2884 1.524 . S
C2885 C2886 1.397 . S
C2885 C2890 1.363 . S
C2886 H2863 0.950 . S
C2886 C2885 1.397 . S
C2886 C2887 1.334 . S
C2887 H2864 0.950 . S
C2887 C2886 1.334 . S
C2887 C2888 1.287 . S
C2888 C2887 1.287 . S
C2888 C2889 1.524 . S
C2888 H2907 0.913 . S
C2889 H2865 0.950 . S
C2889 C2888 1.524 . S
C2889 C2890 1.415 . S
C2890 H2866 0.950 . S
C2890 C2885 1.363 . S
C2890 C2889 1.415 . S
C2891 H2867 0.951 . S
C2891 C2892 1.366 . S
C2891 C2893 1.388 . S
C2892 C2891 1.366 . S
C2892 C2896 1.385 . S
C2893 H2868 0.951 . S
C2893 C2891 1.388 . S
C2893 C2894 1.366 . S
C2894 C2893 1.366 . S
C2894 C2895 1.414 . S
C2894 C2897 1.499 . S
C2895 H2869 0.950 . S
C2895 C2894 1.414 . S
C2895 C2896 1.374 . S
C2896 H2870 0.950 . S
C2896 C2892 1.385 . S
C2896 C2895 1.374 . S
C2897 C2894 1.499 . S
C2897 C2898 1.373 . S
C2897 C2899 1.389 . S
C2898 H2871 0.950 . S
C2898 C2884 1.377 . S
C2898 C2897 1.373 . S
C2899 C2883 1.377 . S
C2899 C2897 1.389 . S
C2899 C2900 1.524 . S
C2900 C2899 1.524 . S
C2900 C2901 1.397 . S
C2900 C2905 1.363 . S
C2901 H2872 0.950 . S
C2901 C2900 1.397 . S
C2901 C2902 1.334 . S
C2902 H2873 0.950 . S
C2902 C2901 1.334 . S
C2902 C2903 1.287 . S
C2903 C2902 1.287 . S
C2903 C2904 1.524 . S
C2903 H2906 0.999 . S
C2904 H2874 0.950 . S
C2904 C2903 1.524 . S
C2904 C2905 1.415 . S
C2905 H2875 0.950 . S
C2905 C2900 1.363 . S
C2905 C2904 1.415 . S
H2906 C2903 0.999 . S
H2907 C2888 0.913 . S
H2908 C2926 0.951 . S
H2909 C2928 0.951 . S
H2910 C2930 0.950 . S
H2911 C2931 0.950 . S
H2912 C2933 0.950 . S
H2913 C2936 0.950 . S
H2914 C2937 0.950 . S
H2915 C2939 0.950 . S
H2916 C2940 0.950 . S
H2917 C2941 0.951 . S
H2918 C2943 0.951 . S
H2919 C2945 0.950 . S
H2920 C2946 0.950 . S
H2921 C2948 0.950 . S
H2922 C2951 0.950 . S
H2923 C2952 0.950 . S
H2924 C2954 0.950 . S
H2925 C2955 0.950 . S
C2926 H2908 0.951 . S
C2926 C2927 1.366 . S
C2926 C2928 1.388 . S
C2927 C2926 1.366 . S
C2927 C2931 1.385 . S
C2928 H2909 0.951 . S
C2928 C2926 1.388 . S
C2928 C2929 1.366 . S
C2929 C2928 1.366 . S
C2929 C2930 1.414 . S
C2929 C2932 1.499 . S
C2930 H2910 0.950 . S
C2930 C2929 1.414 . S
C2930 C2931 1.374 . S
C2931 H2911 0.950 . S
C2931 C2927 1.385 . S
C2931 C2930 1.374 . S
C2932 C2929 1.499 . S
C2932 C2933 1.373 . S
C2932 C2934 1.389 . S
C2933 H2912 0.950 . S
C2933 C2932 1.373 . S
C2933 C2949 1.377 . S
C2934 C2932 1.389 . S
C2934 C2935 1.524 . S
C2934 C2948 1.377 . S
C2935 C2934 1.524 . S
C2935 C2936 1.397 . S
C2935 C2940 1.363 . S
C2936 H2913 0.950 . S
C2936 C2935 1.397 . S
C2936 C2937 1.334 . S
C2937 H2914 0.950 . S
C2937 C2936 1.334 . S
C2937 C2938 1.287 . S
C2938 C2937 1.287 . S
C2938 C2939 1.524 . S
C2938 H2957 0.913 . S
C2939 H2915 0.950 . S
C2939 C2938 1.524 . S
C2939 C2940 1.415 . S
C2940 H2916 0.950 . S
C2940 C2935 1.363 . S
C2940 C2939 1.415 . S
C2941 H2917 0.951 . S
C2941 C2942 1.366 . S
C2941 C2943 1.388 . S
C2942 C2941 1.366 . S
C2942 C2946 1.385 . S
C2943 H2918 0.951 . S
C2943 C2941 1.388 . S
C2943 C2944 1.366 . S
C2944 C2943 1.366 . S
C2944 C2945 1.414 . S
C2944 C2947 1.499 . S
C2945 H2919 0.950 . S
C2945 C2944 1.414 . S
C2945 C2946 1.374 . S
C2946 H2920 0.950 . S
C2946 C2942 1.385 . S
C2946 C2945 1.374 . S
C2947 C2944 1.499 . S
C2947 C2948 1.373 . S
C2947 C2949 1.389 . S
C2948 H2921 0.950 . S
C2948 C2934 1.377 . S
C2948 C2947 1.373 . S
C2949 C2933 1.377 . S
C2949 C2947 1.389 . S
C2949 C2950 1.524 . S
C2950 C2949 1.524 . S
C2950 C2951 1.397 . S
C2950 C2955 1.363 . S
C2951 H2922 0.950 . S
C2951 C2950 1.397 . S
C2951 C2952 1.334 . S
C2952 H2923 0.950 . S
C2952 C2951 1.334 . S
C2952 C2953 1.287 . S
C2953 C2952 1.287 . S
C2953 C2954 1.524 . S
C2953 H2956 0.999 . S
C2954 H2924 0.950 . S
C2954 C2953 1.524 . S
C2954 C2955 1.415 . S
C2955 H2925 0.950 . S
C2955 C2950 1.363 . S
C2955 C2954 1.415 . S
H2956 C2953 0.999 . S
H2957 C2938 0.913 . S
H2958 C2976 0.951 . S
H2959 C2978 0.951 . S
H2960 C2980 0.950 . S
H2961 C2981 0.950 . S
H2962 C2983 0.950 . S
H2963 C2986 0.950 . S
H2964 C2987 0.950 . S
H2965 C2989 0.950 . S
H2966 C2990 0.950 . S
H2967 C2991 0.951 . S
H2968 C2993 0.951 . S
H2969 C2995 0.950 . S
H2970 C2996 0.950 . S
H2971 C2998 0.950 . S
H2972 C3001 0.950 . S
H2973 C3002 0.950 . S
H2974 C3004 0.950 . S
H2975 C3005 0.950 . S
C2976 H2958 0.951 . S
C2976 C2977 1.366 . S
C2976 C2978 1.388 . S
C2977 C2976 1.366 . S
C2977 C2981 1.385 . S
C2978 H2959 0.951 . S
C2978 C2976 1.388 . S
C2978 C2979 1.366 . S
C2979 C2978 1.366 . S
C2979 C2980 1.414 . S
C2979 C2982 1.499 . S
C2980 H2960 0.950 . S
C2980 C2979 1.414 . S
C2980 C2981 1.374 . S
C2981 H2961 0.950 . S
C2981 C2977 1.385 . S
C2981 C2980 1.374 . S
C2982 C2979 1.499 . S
C2982 C2983 1.373 . S
C2982 C2984 1.389 . S
C2983 H2962 0.950 . S
C2983 C2982 1.373 . S
C2983 C2999 1.377 . S
C2984 C2982 1.389 . S
C2984 C2985 1.524 . S
C2984 C2998 1.377 . S
C2985 C2984 1.524 . S
C2985 C2986 1.397 . S
C2985 C2990 1.363 . S
C2986 H2963 0.950 . S
C2986 C2985 1.397 . S
C2986 C2987 1.334 . S
C2987 H2964 0.950 . S
C2987 C2986 1.334 . S
C2987 C2988 1.287 . S
C2988 C2987 1.287 . S
C2988 C2989 1.524 . S
C2988 H3007 0.913 . S
C2989 H2965 0.950 . S
C2989 C2988 1.524 . S
C2989 C2990 1.415 . S
C2990 H2966 0.950 . S
C2990 C2985 1.363 . S
C2990 C2989 1.415 . S
C2991 H2967 0.951 . S
C2991 C2992 1.366 . S
C2991 C2993 1.388 . S
C2992 C2991 1.366 . S
C2992 C2996 1.385 . S
C2993 H2968 0.951 . S
C2993 C2991 1.388 . S
C2993 C2994 1.366 . S
C2994 C2993 1.366 . S
C2994 C2995 1.414 . S
C2994 C2997 1.499 . S
C2995 H2969 0.950 . S
C2995 C2994 1.414 . S
C2995 C2996 1.374 . S
C2996 H2970 0.950 . S
C2996 C2992 1.385 . S
C2996 C2995 1.374 . S
C2997 C2994 1.499 . S
C2997 C2998 1.373 . S
C2997 C2999 1.389 . S
C2998 H2971 0.950 . S
C2998 C2984 1.377 . S
C2998 C2997 1.373 . S
C2999 C2983 1.377 . S
C2999 C2997 1.389 . S
C2999 C3000 1.524 . S
C3000 C2999 1.524 . S
C3000 C3001 1.397 . S
C3000 C3005 1.363 . S
C3001 H2972 0.950 . S
C3001 C3000 1.397 . S
C3001 C3002 1.334 . S
C3002 H2973 0.950 . S
C3002 C3001 1.334 . S
C3002 C3003 1.287 . S
C3003 C3002 1.287 . S
C3003 C3004 1.524 . S
C3003 H3006 0.999 . S
C3004 H2974 0.950 . S
C3004 C3003 1.524 . S
C3004 C3005 1.415 . S
C3005 H2975 0.950 . S
C3005 C3000 1.363 . S
C3005 C3004 1.415 . S
H3006 C3003 0.999 . S
H3007 C2988 0.913 . S
H3008 C3026 0.951 . S
H3009 C3028 0.951 . S
H3010 C3030 0.950 . S
H3011 C3031 0.950 . S
H3012 C3033 0.950 . S
H3013 C3036 0.950 . S
H3014 C3037 0.950 . S
H3015 C3039 0.950 . S
H3016 C3040 0.950 . S
H3017 C3041 0.951 . S
H3018 C3043 0.951 . S
H3019 C3045 0.950 . S
H3020 C3046 0.950 . S
H3021 C3048 0.950 . S
H3022 C3051 0.950 . S
H3023 C3052 0.950 . S
H3024 C3054 0.950 . S
H3025 C3055 0.950 . S
C3026 H3008 0.951 . S
C3026 C3027 1.366 . S
C3026 C3028 1.388 . S
C3027 C3026 1.366 . S
C3027 C3031 1.385 . S
C3028 H3009 0.951 . S
C3028 C3026 1.388 . S
C3028 C3029 1.366 . S
C3029 C3028 1.366 . S
C3029 C3030 1.414 . S
C3029 C3032 1.499 . S
C3030 H3010 0.950 . S
C3030 C3029 1.414 . S
C3030 C3031 1.374 . S
C3031 H3011 0.950 . S
C3031 C3027 1.385 . S
C3031 C3030 1.374 . S
C3032 C3029 1.499 . S
C3032 C3033 1.373 . S
C3032 C3034 1.389 . S
C3033 H3012 0.950 . S
C3033 C3032 1.373 . S
C3033 C3049 1.377 . S
C3034 C3032 1.389 . S
C3034 C3035 1.524 . S
C3034 C3048 1.377 . S
C3035 C3034 1.524 . S
C3035 C3036 1.397 . S
C3035 C3040 1.363 . S
C3036 H3013 0.950 . S
C3036 C3035 1.397 . S
C3036 C3037 1.334 . S
C3037 H3014 0.950 . S
C3037 C3036 1.334 . S
C3037 C3038 1.287 . S
C3038 C3037 1.287 . S
C3038 C3039 1.524 . S
C3038 H3057 0.913 . S
C3039 H3015 0.950 . S
C3039 C3038 1.524 . S
C3039 C3040 1.415 . S
C3040 H3016 0.950 . S
C3040 C3035 1.363 . S
C3040 C3039 1.415 . S
C3041 H3017 0.951 . S
C3041 C3042 1.366 . S
C3041 C3043 1.388 . S
C3042 C3041 1.366 . S
C3042 C3046 1.385 . S
C3043 H3018 0.951 . S
C3043 C3041 1.388 . S
C3043 C3044 1.366 . S
C3044 C3043 1.366 . S
C3044 C3045 1.414 . S
C3044 C3047 1.499 . S
C3045 H3019 0.950 . S
C3045 C3044 1.414 . S
C3045 C3046 1.374 . S
C3046 H3020 0.950 . S
C3046 C3042 1.385 . S
C3046 C3045 1.374 . S
C3047 C3044 1.499 . S
C3047 C3048 1.373 . S
C3047 C3049 1.389 . S
C3048 H3021 0.950 . S
C3048 C3034 1.377 . S
C3048 C3047 1.373 . S
C3049 C3033 1.377 . S
C3049 C3047 1.389 . S
C3049 C3050 1.524 . S
C3050 C3049 1.524 . S
C3050 C3051 1.397 . S
C3050 C3055 1.363 . S
C3051 H3022 0.950 . S
C3051 C3050 1.397 . S
C3051 C3052 1.334 . S
C3052 H3023 0.950 . S
C3052 C3051 1.334 . S
C3052 C3053 1.287 . S
C3053 C3052 1.287 . S
C3053 C3054 1.524 . S
C3053 H3056 0.999 . S
C3054 H3024 0.950 . S
C3054 C3053 1.524 . S
C3054 C3055 1.415 . S
C3055 H3025 0.950 . S
C3055 C3050 1.363 . S
C3055 C3054 1.415 . S
H3056 C3053 0.999 . S
H3057 C3038 0.913 . S
H3058 C3076 0.951 . S
H3059 C3078 0.951 . S
H3060 C3080 0.950 . S
H3061 C3081 0.950 . S
H3062 C3083 0.950 . S
H3063 C3086 0.950 . S
H3064 C3087 0.950 . S
H3065 C3089 0.950 . S
H3066 C3090 0.950 . S
H3067 C3091 0.951 . S
H3068 C3093 0.951 . S
H3069 C3095 0.950 . S
H3070 C3096 0.950 . S
H3071 C3098 0.950 . S
H3072 C3101 0.950 . S
H3073 C3102 0.950 . S
H3074 C3104 0.950 . S
H3075 C3105 0.950 . S
C3076 H3058 0.951 . S
C3076 C3077 1.366 . S
C3076 C3078 1.388 . S
C3077 C3076 1.366 . S
C3077 C3081 1.385 . S
C3078 H3059 0.951 . S
C3078 C3076 1.388 . S
C3078 C3079 1.366 . S
C3079 C3078 1.366 . S
C3079 C3080 1.414 . S
C3079 C3082 1.499 . S
C3080 H3060 0.950 . S
C3080 C3079 1.414 . S
C3080 C3081 1.374 . S
C3081 H3061 0.950 . S
C3081 C3077 1.385 . S
C3081 C3080 1.374 . S
C3082 C3079 1.499 . S
C3082 C3083 1.373 . S
C3082 C3084 1.389 . S
C3083 H3062 0.950 . S
C3083 C3082 1.373 . S
C3083 C3099 1.377 . S
C3084 C3082 1.389 . S
C3084 C3085 1.524 . S
C3084 C3098 1.377 . S
C3085 C3084 1.524 . S
C3085 C3086 1.397 . S
C3085 C3090 1.363 . S
C3086 H3063 0.950 . S
C3086 C3085 1.397 . S
C3086 C3087 1.334 . S
C3087 H3064 0.950 . S
C3087 C3086 1.334 . S
C3087 C3088 1.287 . S
C3088 C3087 1.287 . S
C3088 C3089 1.524 . S
C3088 H3107 0.913 . S
C3089 H3065 0.950 . S
C3089 C3088 1.524 . S
C3089 C3090 1.415 . S
C3090 H3066 0.950 . S
C3090 C3085 1.363 . S
C3090 C3089 1.415 . S
C3091 H3067 0.951 . S
C3091 C3092 1.366 . S
C3091 C3093 1.388 . S
C3092 C3091 1.366 . S
C3092 C3096 1.385 . S
C3093 H3068 0.951 . S
C3093 C3091 1.388 . S
C3093 C3094 1.366 . S
C3094 C3093 1.366 . S
C3094 C3095 1.414 . S
C3094 C3097 1.499 . S
C3095 H3069 0.950 . S
C3095 C3094 1.414 . S
C3095 C3096 1.374 . S
C3096 H3070 0.950 . S
C3096 C3092 1.385 . S
C3096 C3095 1.374 . S
C3097 C3094 1.499 . S
C3097 C3098 1.373 . S
C3097 C3099 1.389 . S
C3098 H3071 0.950 . S
C3098 C3084 1.377 . S
C3098 C3097 1.373 . S
C3099 C3083 1.377 . S
C3099 C3097 1.389 . S
C3099 C3100 1.524 . S
C3100 C3099 1.524 . S
C3100 C3101 1.397 . S
C3100 C3105 1.363 . S
C3101 H3072 0.950 . S
C3101 C3100 1.397 . S
C3101 C3102 1.334 . S
C3102 H3073 0.950 . S
C3102 C3101 1.334 . S
C3102 C3103 1.287 . S
C3103 C3102 1.287 . S
C3103 C3104 1.524 . S
C3103 H3106 0.999 . S
C3104 H3074 0.950 . S
C3104 C3103 1.524 . S
C3104 C3105 1.415 . S
C3105 H3075 0.950 . S
C3105 C3100 1.363 . S
C3105 C3104 1.415 . S
H3106 C3103 0.999 . S
H3107 C3088 0.913 . S
H3108 C3126 0.951 . S
H3109 C3128 0.951 . S
H3110 C3130 0.950 . S
H3111 C3131 0.950 . S
H3112 C3133 0.950 . S
H3113 C3136 0.950 . S
H3114 C3137 0.950 . S
H3115 C3139 0.950 . S
H3116 C3140 0.950 . S
H3117 C3141 0.951 . S
H3118 C3143 0.951 . S
H3119 C3145 0.950 . S
H3120 C3146 0.950 . S
H3121 C3148 0.950 . S
H3122 C3151 0.950 . S
H3123 C3152 0.950 . S
H3124 C3154 0.950 . S
H3125 C3155 0.950 . S
C3126 H3108 0.951 . S
C3126 C3127 1.366 . S
C3126 C3128 1.388 . S
C3127 C3126 1.366 . S
C3127 C3131 1.385 . S
C3128 H3109 0.951 . S
C3128 C3126 1.388 . S
C3128 C3129 1.366 . S
C3129 C3128 1.366 . S
C3129 C3130 1.414 . S
C3129 C3132 1.499 . S
C3130 H3110 0.950 . S
C3130 C3129 1.414 . S
C3130 C3131 1.374 . S
C3131 H3111 0.950 . S
C3131 C3127 1.385 . S
C3131 C3130 1.374 . S
C3132 C3129 1.499 . S
C3132 C3133 1.373 . S
C3132 C3134 1.389 . S
C3133 H3112 0.950 . S
C3133 C3132 1.373 . S
C3133 C3149 1.377 . S
C3134 C3132 1.389 . S
C3134 C3135 1.524 . S
C3134 C3148 1.377 . S
C3135 C3134 1.524 . S
C3135 C3136 1.397 . S
C3135 C3140 1.363 . S
C3136 H3113 0.950 . S
C3136 C3135 1.397 . S
C3136 C3137 1.334 . S
C3137 H3114 0.950 . S
C3137 C3136 1.334 . S
C3137 C3138 1.287 . S
C3138 C3137 1.287 . S
C3138 C3139 1.524 . S
C3138 H3157 0.913 . S
C3139 H3115 0.950 . S
C3139 C3138 1.524 . S
C3139 C3140 1.415 . S
C3140 H3116 0.950 . S
C3140 C3135 1.363 . S
C3140 C3139 1.415 . S
C3141 H3117 0.951 . S
C3141 C3142 1.366 . S
C3141 C3143 1.388 . S
C3142 C3141 1.366 . S
C3142 C3146 1.385 . S
C3143 H3118 0.951 . S
C3143 C3141 1.388 . S
C3143 C3144 1.366 . S
C3144 C3143 1.366 . S
C3144 C3145 1.414 . S
C3144 C3147 1.499 . S
C3145 H3119 0.950 . S
C3145 C3144 1.414 . S
C3145 C3146 1.374 . S
C3146 H3120 0.950 . S
C3146 C3142 1.385 . S
C3146 C3145 1.374 . S
C3147 C3144 1.499 . S
C3147 C3148 1.373 . S
C3147 C3149 1.389 . S
C3148 H3121 0.950 . S
C3148 C3134 1.377 . S
C3148 C3147 1.373 . S
C3149 C3133 1.377 . S
C3149 C3147 1.389 . S
C3149 C3150 1.524 . S
C3150 C3149 1.524 . S
C3150 C3151 1.397 . S
C3150 C3155 1.363 . S
C3151 H3122 0.950 . S
C3151 C3150 1.397 . S
C3151 C3152 1.334 . S
C3152 H3123 0.950 . S
C3152 C3151 1.334 . S
C3152 C3153 1.287 . S
C3153 C3152 1.287 . S
C3153 C3154 1.524 . S
C3153 H3156 0.999 . S
C3154 H3124 0.950 . S
C3154 C3153 1.524 . S
C3154 C3155 1.415 . S
C3155 H3125 0.950 . S
C3155 C3150 1.363 . S
C3155 C3154 1.415 . S
H3156 C3153 0.999 . S
H3157 C3138 0.913 . S
H3158 C3176 0.951 . S
H3159 C3178 0.951 . S
H3160 C3180 0.950 . S
H3161 C3181 0.950 . S
H3162 C3183 0.950 . S
H3163 C3186 0.950 . S
H3164 C3187 0.950 . S
H3165 C3189 0.950 . S
H3166 C3190 0.950 . S
H3167 C3191 0.951 . S
H3168 C3193 0.951 . S
H3169 C3195 0.950 . S
H3170 C3196 0.950 . S
H3171 C3198 0.950 . S
H3172 C3201 0.950 . S
H3173 C3202 0.950 . S
H3174 C3204 0.950 . S
H3175 C3205 0.950 . S
C3176 H3158 0.951 . S
C3176 C3177 1.366 . S
C3176 C3178 1.388 . S
C3177 C3176 1.366 . S
C3177 C3181 1.385 . S
C3178 H3159 0.951 . S
C3178 C3176 1.388 . S
C3178 C3179 1.366 . S
C3179 C3178 1.366 . S
C3179 C3180 1.414 . S
C3179 C3182 1.499 . S
C3180 H3160 0.950 . S
C3180 C3179 1.414 . S
C3180 C3181 1.374 . S
C3181 H3161 0.950 . S
C3181 C3177 1.385 . S
C3181 C3180 1.374 . S
C3182 C3179 1.499 . S
C3182 C3183 1.373 . S
C3182 C3184 1.389 . S
C3183 H3162 0.950 . S
C3183 C3182 1.373 . S
C3183 C3199 1.377 . S
C3184 C3182 1.389 . S
C3184 C3185 1.524 . S
C3184 C3198 1.377 . S
C3185 C3184 1.524 . S
C3185 C3186 1.397 . S
C3185 C3190 1.363 . S
C3186 H3163 0.950 . S
C3186 C3185 1.397 . S
C3186 C3187 1.334 . S
C3187 H3164 0.950 . S
C3187 C3186 1.334 . S
C3187 C3188 1.287 . S
C3188 C3187 1.287 . S
C3188 C3189 1.524 . S
C3188 H3207 0.913 . S
C3189 H3165 0.950 . S
C3189 C3188 1.524 . S
C3189 C3190 1.415 . S
C3190 H3166 0.950 . S
C3190 C3185 1.363 . S
C3190 C3189 1.415 . S
C3191 H3167 0.951 . S
C3191 C3192 1.366 . S
C3191 C3193 1.388 . S
C3192 C3191 1.366 . S
C3192 C3196 1.385 . S
C3193 H3168 0.951 . S
C3193 C3191 1.388 . S
C3193 C3194 1.366 . S
C3194 C3193 1.366 . S
C3194 C3195 1.414 . S
C3194 C3197 1.499 . S
C3195 H3169 0.950 . S
C3195 C3194 1.414 . S
C3195 C3196 1.374 . S
C3196 H3170 0.950 . S
C3196 C3192 1.385 . S
C3196 C3195 1.374 . S
C3197 C3194 1.499 . S
C3197 C3198 1.373 . S
C3197 C3199 1.389 . S
C3198 H3171 0.950 . S
C3198 C3184 1.377 . S
C3198 C3197 1.373 . S
C3199 C3183 1.377 . S
C3199 C3197 1.389 . S
C3199 C3200 1.524 . S
C3200 C3199 1.524 . S
C3200 C3201 1.397 . S
C3200 C3205 1.363 . S
C3201 H3172 0.950 . S
C3201 C3200 1.397 . S
C3201 C3202 1.334 . S
C3202 H3173 0.950 . S
C3202 C3201 1.334 . S
C3202 C3203 1.287 . S
C3203 C3202 1.287 . S
C3203 C3204 1.524 . S
C3203 H3206 0.999 . S
C3204 H3174 0.950 . S
C3204 C3203 1.524 . S
C3204 C3205 1.415 . S
C3205 H3175 0.950 . S
C3205 C3200 1.363 . S
C3205 C3204 1.415 . S
H3206 C3203 0.999 . S
H3207 C3188 0.913 . S
H3208 C3226 0.951 . S
H3209 C3228 0.951 . S
H3210 C3230 0.950 . S
H3211 C3231 0.950 . S
H3212 C3233 0.950 . S
H3213 C3236 0.950 . S
H3214 C3237 0.950 . S
H3215 C3239 0.950 . S
H3216 C3240 0.950 . S
H3217 C3241 0.951 . S
H3218 C3243 0.951 . S
H3219 C3245 0.950 . S
H3220 C3246 0.950 . S
H3221 C3248 0.950 . S
H3222 C3251 0.950 . S
H3223 C3252 0.950 . S
H3224 C3254 0.950 . S
H3225 C3255 0.950 . S
C3226 H3208 0.951 . S
C3226 C3227 1.366 . S
C3226 C3228 1.388 . S
C3227 C3226 1.366 . S
C3227 C3231 1.385 . S
C3228 H3209 0.951 . S
C3228 C3226 1.388 . S
C3228 C3229 1.366 . S
C3229 C3228 1.366 . S
C3229 C3230 1.414 . S
C3229 C3232 1.499 . S
C3230 H3210 0.950 . S
C3230 C3229 1.414 . S
C3230 C3231 1.374 . S
C3231 H3211 0.950 . S
C3231 C3227 1.385 . S
C3231 C3230 1.374 . S
C3232 C3229 1.499 . S
C3232 C3233 1.373 . S
C3232 C3234 1.389 . S
C3233 H3212 0.950 . S
C3233 C3232 1.373 . S
C3233 C3249 1.377 . S
C3234 C3232 1.389 . S
C3234 C3235 1.524 . S
C3234 C3248 1.377 . S
C3235 C3234 1.524 . S
C3235 C3236 1.397 . S
C3235 C3240 1.363 . S
C3236 H3213 0.950 . S
C3236 C3235 1.397 . S
C3236 C3237 1.334 . S
C3237 H3214 0.950 . S
C3237 C3236 1.334 . S
C3237 C3238 1.287 . S
C3238 C3237 1.287 . S
C3238 C3239 1.524 . S
C3238 H3257 0.913 . S
C3239 H3215 0.950 . S
C3239 C3238 1.524 . S
C3239 C3240 1.415 . S
C3240 H3216 0.950 . S
C3240 C3235 1.363 . S
C3240 C3239 1.415 . S
C3241 H3217 0.951 . S
C3241 C3242 1.366 . S
C3241 C3243 1.388 . S
C3242 C3241 1.366 . S
C3242 C3246 1.385 . S
C3243 H3218 0.951 . S
C3243 C3241 1.388 . S
C3243 C3244 1.366 . S
C3244 C3243 1.366 . S
C3244 C3245 1.414 . S
C3244 C3247 1.499 . S
C3245 H3219 0.950 . S
C3245 C3244 1.414 . S
C3245 C3246 1.374 . S
C3246 H3220 0.950 . S
C3246 C3242 1.385 . S
C3246 C3245 1.374 . S
C3247 C3244 1.499 . S
C3247 C3248 1.373 . S
C3247 C3249 1.389 . S
C3248 H3221 0.950 . S
C3248 C3234 1.377 . S
C3248 C3247 1.373 . S
C3249 C3233 1.377 . S
C3249 C3247 1.389 . S
C3249 C3250 1.524 . S
C3250 C3249 1.524 . S
C3250 C3251 1.397 . S
C3250 C3255 1.363 . S
C3251 H3222 0.950 . S
C3251 C3250 1.397 . S
C3251 C3252 1.334 . S
C3252 H3223 0.950 . S
C3252 C3251 1.334 . S
C3252 C3253 1.287 . S
C3253 C3252 1.287 . S
C3253 C3254 1.524 . S
C3253 H3256 0.999 . S
C3254 H3224 0.950 . S
C3254 C3253 1.524 . S
C3254 C3255 1.415 . S
C3255 H3225 0.950 . S
C3255 C3250 1.363 . S
C3255 C3254 1.415 . S
H3256 C3253 0.999 . S
H3257 C3238 0.913 . S
C577 C147 1.693 . S
C592 C201 1.700 . S
C627 C158 1.852 . S
C642 C241 1.851 . S
C677 C136 1.610 . S
C692 C293 1.600 . S
C727 C125 1.466 . S
C742 C253 1.443 1_556 S
C792 C281 1.493 1_556 S
C777 C103 1.494 . S
C827 C114 1.311 . S
C842 C213 1.307 . S
C892 C220 1.685 1_556 S
C877 C131 1.668 . S
C942 C260 1.715 . S
C927 C109 1.706 . S
C977 C120 1.674 . S
C992 C280 1.694 . S
C1027 C153 1.492 . S
C1042 C240 1.498 . S
C1077 C164 1.437 . S
C1092 C300 1.441 . S
C1142 C200 1.430 . S
C1127 C142 1.412 . S
C1192 C321 1.701 . S
C1177 C15 1.693 . S
C1227 C26 1.853 . S
C1242 C361 1.851 . S
C1277 C4 1.610 . S
C1292 C413 1.599 . S
C1327 C191 1.466 . S
C1342 C373 1.447 . S
C1377 C169 1.494 . S
C1392 C401 1.493 . S
C1427 C180 1.311 . S
C1442 C333 1.307 . S
C1477 C197 1.668 . S
C1492 C340 1.685 . S
C1527 C175 1.706 . S
C1542 C380 1.715 . S
C1592 C400 1.695 . S
C1577 C186 1.675 . S
C1627 C21 1.492 . S
C1642 C360 1.497 . S
C1692 C420 1.442 . S
C1677 C32 1.437 . S
C1727 C10 1.411 . S
C1742 C320 1.429 . S
C1792 C441 1.701 . S
C1777 C81 1.693 . S
C1827 C92 1.852 . S
C1842 C481 1.851 . S
C1892 C533 1.599 . S
C1877 C70 1.610 . S
C1942 C493 1.447 . S
C1927 C59 1.466 . S
C1992 C521 1.492 . S
C1977 C37 1.493 . S
C2027 C48 1.311 . S
C2042 C453 1.307 . S
C2077 C65 1.668 . S
C2092 C460 1.685 . S
C2127 C43 1.706 . S
C2142 C500 1.715 . S
C2192 C520 1.695 . S
C2177 C54 1.674 . S
C2227 C87 1.492 . S
C2242 C480 1.497 . S
C2277 C98 1.438 . S
C2292 C540 1.442 . S
C2327 C76 1.412 . S
C2342 C440 1.430 . S
C2377 C170 1.409 . S
C2392 C224 1.390 . S
C2442 C264 1.971 . S
C2427 C181 1.999 . S
C2477 C192 1.566 . S
C2492 C287 1.581 . S
C2527 C71 1.841 . S
C2542 C247 1.845 . S
C2577 C82 1.692 . S
C2592 C304 1.677 . S
C2642 C207 1.246 . S
C2627 C93 1.238 . S
C2677 C38 1.410 . S
C2692 C344 1.390 . S
C2727 C49 1.999 . S
C2742 C384 1.971 . S
C2777 C60 1.566 . S
C2792 C407 1.581 . S
C2827 C137 1.842 . S
C2842 C367 1.845 . S
C2892 C424 1.677 . S
C2877 C148 1.693 . S
C2927 C159 1.238 . S
C2942 C327 1.246 . S
C2977 C104 1.410 . S
C2992 C464 1.391 . S
C3027 C115 1.999 . S
C3042 C504 1.971 . S
C3092 C527 1.581 . S
C3077 C126 1.567 . S
C3127 C5 1.842 . S
C3142 C487 1.846 . S
C3177 C16 1.692 . S
C3192 C544 1.677 . S
C3227 C27 1.238 . S
C3242 C447 1.246 . S
