# Generated by pormake.
# Topology anh, (6,3)-cn, num edge types: 1
# Building blocks:
#     Node 0, Type 0, BuildingBlock: VOLQOD_clean_sbu_1, # of connection points: 6
#     Node 1, Type 0, BuildingBlock: VOLQOD_clean_sbu_1, # of connection points: 6
#     Node 2, Type 0, BuildingBlock: VOLQOD_clean_sbu_1, # of connection points: 6
#     Node 3, Type 1, BuildingBlock: BELTOD_clean_linker_0, # of connection points: 3
#     Node 4, Type 1, BuildingBlock: BELTOD_clean_linker_0, # of connection points: 3
#     Node 5, Type 1, BuildingBlock: BELTOD_clean_linker_0, # of connection points: 3
#     Node 6, Type 1, BuildingBlock: BELTOD_clean_linker_0, # of connection points: 3
#     Node 7, Type 1, BuildingBlock: BELTOD_clean_linker_0, # of connection points: 3
#     Node 8, Type 1, BuildingBlock: BELTOD_clean_linker_0, # of connection points: 3
#     Edge 9, Type (0, 1), None
#     Edge 10, Type (0, 1), None
#     Edge 11, Type (0, 1), None
#     Edge 12, Type (0, 1), None
#     Edge 13, Type (0, 1), None
#     Edge 14, Type (0, 1), None
#     Edge 15, Type (0, 1), None
#     Edge 16, Type (0, 1), None
#     Edge 17, Type (0, 1), None
#     Edge 18, Type (0, 1), None
#     Edge 19, Type (0, 1), None
#     Edge 20, Type (0, 1), None
#     Edge 21, Type (0, 1), None
#     Edge 22, Type (0, 1), None
#     Edge 23, Type (0, 1), None
#     Edge 24, Type (0, 1), None
#     Edge 25, Type (0, 1), None
#     Edge 26, Type (0, 1), None
# Relax obj value: 0.162
# Max RMSD: 0.227
# Mean RMSD: 0.108
data_MOF--net-anh--node1-VOLQOD_clean_sbu_1--node2-BELTOD_clean_linker_0--edge1-none
_symmetry_space_group_name_H-M    P1
_symmetry_Int_Tables_number       1
_symmetry_cell_setting            triclinic
loop_
_symmetry_equiv_pos_as_xyz
'x, y, z'
_cell_length_a     18.068511
_cell_length_b     17.811647
_cell_length_c     35.864866
_cell_angle_alpha  87.590549
_cell_angle_beta   90.141195
_cell_angle_gamma 120.89283
loop_
_atom_site_label
_atom_site_type_symbol
_atom_site_fract_x
_atom_site_fract_y
_atom_site_fract_z
_atom_type_partial_charge
O0 O -0.03623 0.55202 0.24667 0.0
Zn1 Zn -0.02978 0.59932 0.19337 0.0
O2 O -0.01318 0.52787 0.15791 0.0
Zn3 Zn 0.89189 0.47545 0.12437 0.0
Zn4 Zn -0.00686 0.43447 0.18463 0.0
Zn5 Zn 0.09025 0.59823 0.12766 0.0
O6 O 0.93032 0.48751 0.07052 0.0
O7 O 0.06661 0.59579 0.07264 0.0
O8 O 0.86024 0.60212 0.18155 0.0
O9 O 0.82603 0.53549 0.12765 0.0
O10 O 0.80646 0.34997 0.14106 0.0
O11 O 0.88142 0.31979 0.18174 0.0
O12 O 0.09457 0.42598 0.16751 0.0
O13 O 0.07849 0.72113 0.19231 0.0
O14 O 0.16978 0.55195 0.13446 0.0
O15 O 0.15601 0.72021 0.1445 0.0
C16 C -0.01165 0.50103 0.26003 0.0
C17 C 0.00122 0.54358 0.0541 0.0
C18 C 0.81203 0.2972 0.16435 0.0
C19 C 0.81448 0.57776 0.15235 0.0
C20 C 0.16265 0.4825 0.14948 0.0
C21 C 0.14639 0.7589 0.17143 0.0
O22 O 0.00784 0.45781 0.23891 0.0
O23 O 0.45855 0.03896 0.41261 0.0
Zn24 Zn 0.41303 0.0223 0.4659 0.0
O25 O 0.48787 0.00507 0.50011 0.0
Zn26 Zn 0.54949 0.10344 0.53005 0.0
Zn27 Zn 0.57208 -0.00899 0.47255 0.0
Zn28 Zn 0.41855 0.90679 0.53468 0.0
O29 O 0.55074 0.06987 0.58374 0.0
O30 O 0.4314 0.93912 0.58893 0.0
O31 O 0.39943 0.1249 0.48088 0.0
O32 O 0.48965 0.16889 0.5284 0.0
O33 O 0.66902 0.18488 0.51024 0.0
O34 O 0.69123 0.10044 0.47381 0.0
O35 O 0.57195 0.88163 0.49151 0.0
O36 O 0.29794 0.90832 0.46621 0.0
O37 O 0.45989 0.82364 0.53139 0.0
O38 O 0.29574 0.83687 0.51884 0.0
C39 C 0.50305 0.01011 0.39806 0.0
C40 C 0.49417 0.00488 0.60377 0.0
C41 C 0.7177 0.17378 0.48851 0.0
C42 C 0.43436 0.17395 0.5083 0.0
C43 C 0.51949 0.82014 0.51431 0.0
C44 C 0.25995 0.84167 0.48893 0.0
O45 O 0.54223 -0.01874 0.41822 0.0
O46 O 0.40455 0.43447 0.75014 0.0
Zn47 Zn 0.36454 0.38775 0.80371 0.0
O48 O 0.45437 0.4619 0.83865 0.0
Zn49 Zn 0.41247 0.51422 0.87218 0.0
Zn50 Zn 0.55442 0.55571 0.81148 0.0
Zn51 Zn 0.48845 0.39361 0.86938 0.0
O52 O 0.43841 0.50264 0.92612 0.0
O53 O 0.46845 0.39679 0.92429 0.0
O54 O 0.25122 0.38452 0.81564 0.0
O55 O 0.28605 0.45434 0.86876 0.0
O56 O 0.45364 0.63946 0.85577 0.0
O57 O 0.55803 0.6703 0.8146 0.0
O58 O 0.66563 0.5647 0.82806 0.0
O59 O 0.35072 0.26576 0.80577 0.0
O60 O 0.61447 0.44016 0.86211 0.0
O61 O 0.43096 0.27117 0.85379 0.0
C62 C 0.4798 0.48739 0.73633 0.0
C63 C 0.45422 0.44785 0.94268 0.0
C64 C 0.51173 0.6925 0.83233 0.0
C65 C 0.23095 0.41056 0.84449 0.0
C66 C 0.67711 0.50885 0.84646 0.0
C67 C 0.38153 0.23 0.82736 0.0
O68 O 0.54351 0.53235 0.75709 0.0
P69 P 0.49659 0.96875 0.23001 0.0
H70 H 0.43462 0.96105 0.15435 0.0
H71 H 0.28999 0.87424 0.12982 0.0
H72 H 0.18288 0.81684 0.24207 0.0
H73 H 0.32685 0.90181 0.26631 0.0
H74 H 0.67692 0.02302 0.2252 0.0
H75 H 0.80432 0.15372 0.19851 0.0
H76 H 0.64304 0.25133 0.15708 0.0
H77 H 0.51567 0.12052 0.1846 0.0
H78 H 0.5615 0.90867 0.29166 0.0
H79 H 0.45056 0.07169 0.2764 0.0
O80 O 0.50732 0.88248 0.22365 0.0
H81 H 0.56397 0.92458 0.35872 0.0
H82 H 0.45132 0.08706 0.34414 0.0
C83 C 0.39211 0.93911 0.21215 0.0
C84 C 0.37979 0.93359 0.17356 0.0
C85 C 0.29682 0.88374 0.15955 0.0
C86 C 0.22488 0.83778 0.18402 0.0
C87 C 0.23658 0.85185 0.22239 0.0
C88 C 0.31965 0.90085 0.23637 0.0
C89 C 0.58689 0.06165 0.20643 0.0
C90 C 0.66881 0.0719 0.20983 0.0
C91 C 0.7416 0.14659 0.19451 0.0
C92 C 0.73379 0.21254 0.17536 0.0
C93 C 0.65106 0.20096 0.17109 0.0
C94 C 0.57819 0.12645 0.18694 0.0
C95 C 0.50356 -0.01304 0.27922 0.0
C96 C 0.53746 0.94789 0.30279 0.0
C97 C 0.53908 0.95735 0.34124 0.0
C98 C 0.50664 0.00609 0.35694 0.0
C99 C 0.47575 0.04815 0.33301 0.0
C100 C 0.47528 0.0395 0.29435 0.0
P101 P 0.54772 0.51022 0.56839 0.0
H102 H 0.52168 0.46092 0.49091 0.0
H103 H 0.47209 0.31826 0.46463 0.0
H104 H 0.37387 0.19181 0.57317 0.0
H105 H 0.42622 0.33248 0.59957 0.0
H106 H 0.67622 0.68309 0.53582 0.0
H107 H 0.66514 0.80906 0.51381 0.0
H108 H 0.38914 0.65586 0.53301 0.0
H109 H 0.40036 0.53006 0.55397 0.0
H110 H 0.66076 0.56333 0.63242 0.0
H111 H 0.38897 0.45079 0.6132 0.0
O112 O 0.64831 0.53153 0.56197 0.0
H113 H 0.63401 0.55429 0.69937 0.0
H114 H 0.36117 0.43982 0.68067 0.0
C115 C 0.47803 0.40786 0.54725 0.0
C116 C 0.4853 0.40208 0.50864 0.0
C117 C 0.4558 0.32046 0.49346 0.0
C118 C 0.41887 0.24441 0.51693 0.0
C119 C 0.40091 0.24959 0.55445 0.0
C120 C 0.43166 0.33078 0.56968 0.0
C121 C 0.53894 0.59756 0.54664 0.0
C122 C 0.61315 0.67616 0.53452 0.0
C123 C 0.60691 0.74803 0.5219 0.0
C124 C 0.52654 0.7423 0.52212 0.0
C125 C 0.45212 0.66228 0.53297 0.0
C126 C 0.4583 0.59034 0.54493 0.0
C127 C 0.5267 0.50603 0.61782 0.0
C128 C 0.59516 0.5364 0.64258 0.0
C129 C 0.5797 0.53141 0.68097 0.0
C130 C 0.49523 0.49545 0.69542 0.0
C131 C 0.4268 0.46693 0.67045 0.0
C132 C 0.44267 0.47343 0.6319 0.0
P133 P 0.02772 0.56501 0.88376 0.0
H134 H 0.08003 0.54089 0.81044 0.0
H135 H 0.16313 0.4734 0.7932 0.0
H136 H 0.122 0.35464 0.90429 0.0
H137 H 0.03858 0.42073 0.92131 0.0
H138 H -0.02833 0.68703 0.86154 0.0
H139 H 0.82947 0.66493 0.84718 0.0
H140 H 0.72157 0.3848 0.85493 0.0
H141 H 0.86438 0.40747 0.86804 0.0
H142 H 0.15142 0.66301 0.94122 0.0
H143 H 0.88708 0.45128 0.93723 0.0
O144 O 0.1069 0.66516 0.86982 0.0
H145 H 0.14147 0.65475 0.00933 0.0
H146 H 0.87625 0.44282 0.00506 0.0
C147 C 0.05541 0.48802 0.86743 0.0
C148 C 0.08521 0.49671 0.8305 0.0
C149 C 0.13165 0.45705 0.82048 0.0
C150 C 0.1491 0.40913 0.84749 0.0
C151 C 0.10882 0.39078 0.88289 0.0
C152 C 0.06212 0.42988 0.8928 0.0
C153 C 0.9284 0.54877 0.86541 0.0
C154 C 0.91785 0.62094 0.85902 0.0
C155 C 0.83663 0.60834 0.851 0.0
C156 C 0.76461 0.52326 0.85037 0.0
C157 C 0.77603 0.45116 0.8556 0.0
C158 C 0.85755 0.46392 0.86277 0.0
C159 C 0.01944 0.55931 0.93403 0.0
C160 C 0.09098 0.61525 0.95495 0.0
C161 C 0.08519 0.61022 0.99396 0.0
C162 C 0.00776 0.54852 0.01275 0.0
C163 C 0.93666 0.49158 0.99158 0.0
C164 C 0.94264 0.49669 0.95262 0.0
P165 P 0.05081 0.48856 0.4266 0.0
H166 H 0.0731 0.54305 0.50341 0.0
H167 H 0.1584 0.68719 0.52934 0.0
H168 H 0.19613 0.80849 0.41858 0.0
H169 H 0.11344 0.66534 0.39306 0.0
H170 H -0.01658 0.30195 0.42646 0.0
H171 H 0.84979 0.17436 0.45099 0.0
H172 H 0.77714 0.34671 0.49901 0.0
H173 H 0.91007 0.47361 0.47369 0.0
H174 H 0.10402 0.43225 0.36202 0.0
H175 H 0.94585 0.5429 0.38389 0.0
O176 O 0.13234 0.47053 0.43163 0.0
H177 H 0.07888 0.43669 0.29556 0.0
H178 H 0.92161 0.54962 0.31671 0.0
C179 C 0.08569 0.59286 0.44634 0.0
C180 C 0.09672 0.60084 0.48495 0.0
C181 C 0.14561 0.68354 0.49974 0.0
C182 C 0.18501 0.7597 0.47603 0.0
C183 C 0.1666 0.75161 0.43779 0.0
C184 C 0.11871 0.66897 0.42303 0.0
C185 C -0.04287 0.39702 0.44884 0.0
C186 C 0.9392 0.31206 0.44281 0.0
C187 C 0.86278 0.23918 0.45681 0.0
C188 C 0.80297 0.25017 0.47717 0.0
C189 C 0.82228 0.33578 0.48384 0.0
C190 C 0.89831 0.40861 0.4694 0.0
C191 C 0.02876 0.48954 0.3777 0.0
C192 C 0.0641 0.45796 0.35247 0.0
C193 C 0.04926 0.46019 0.31439 0.0
C194 C -0.00103 0.49448 0.30076 0.0
C195 C -0.03855 0.52381 0.32629 0.0
C196 C -0.02474 0.52008 0.3646 0.0
P197 P 0.52573 0.0247 0.77277 0.0
H198 H 0.47542 0.03738 0.84822 0.0
H199 H 0.41557 0.12255 0.87113 0.0
H200 H 0.35099 0.16013 0.75855 0.0
H201 H 0.40962 0.07413 0.73597 0.0
H202 H 0.64645 0.96489 0.76964 0.0
H203 H 0.64329 0.83319 0.79387 0.0
H204 H 0.39355 0.74193 0.84557 0.0
H205 H 0.39697 0.87395 0.82065 0.0
H206 H 0.62543 0.14728 0.71114 0.0
H207 H 0.4071 0.88433 0.72509 0.0
O208 O 0.62258 0.10983 0.782 0.0
H209 H 0.61268 0.14009 0.6438 0.0
H210 H 0.39314 0.87628 0.65704 0.0
C211 C 0.44794 0.04986 0.79041 0.0
C212 C 0.44436 0.06001 0.82872 0.0
C213 C 0.41011 0.10901 0.84176 0.0
C214 C 0.38029 0.14994 0.81653 0.0
C215 C 0.37351 0.12982 0.77875 0.0
C216 C 0.40779 0.08071 0.76575 0.0
C217 C 0.52227 0.9293 0.79357 0.0
C218 C 0.59144 0.91692 0.78657 0.0
C219 C 0.58967 0.8417 0.80053 0.0
C220 C 0.51853 0.77727 0.82191 0.0
C221 C 0.44994 0.7909 0.82966 0.0
C222 C 0.4515 0.86612 0.81529 0.0
C223 C 0.51815 0.01577 0.723 0.0
C224 C 0.57517 0.08745 0.69963 0.0
C225 C 0.5675 0.08326 0.661 0.0
C226 C 0.50193 0.00744 0.6449 0.0
C227 C 0.44444 0.93556 0.6685 0.0
C228 C 0.45249 0.93985 0.70733 0.0
P229 P 0.45497 0.42423 0.11298 0.0
H230 H 0.53191 0.44656 0.1863 0.0
H231 H 0.6834 0.51357 0.20356 0.0
H232 H 0.76178 0.63504 0.09291 0.0
H233 H 0.61136 0.56969 0.07592 0.0
H234 H 0.27523 0.30313 0.13451 0.0
H235 H 0.156 0.32612 0.14842 0.0
H236 H 0.33293 0.60605 0.14113 0.0
H237 H 0.45228 0.58244 0.12847 0.0
H238 H 0.48427 0.32938 0.05586 0.0
H239 H 0.42685 0.53606 0.05924 0.0
O240 O 0.43217 0.32387 0.12697 0.0
H241 H 0.48471 0.33877 0.9877 0.0
H242 H 0.42664 0.54565 0.99142 0.0
C243 C 0.5605 0.50084 0.12953 0.0
C244 C 0.58167 0.49122 0.16637 0.0
C245 C 0.66828 0.53055 0.1764 0.0
C246 C 0.73399 0.57897 0.14945 0.0
C247 C 0.71215 0.59834 0.11421 0.0
C248 C 0.62584 0.55968 0.10432 0.0
C249 C 0.3725 0.44117 0.13094 0.0
C250 C 0.28871 0.36936 0.13701 0.0
C251 C 0.22059 0.38249 0.14475 0.0
C252 C 0.23523 0.46778 0.14541 0.0
C253 C 0.31981 0.53956 0.14041 0.0
C254 C 0.3881 0.52625 0.13354 0.0
C255 C 0.45327 0.4303 0.06272 0.0
C256 C 0.47092 0.37619 0.04197 0.0
C257 C 0.47146 0.38193 0.00296 0.0
C258 C 0.45503 0.44257 0.98402 0.0
C259 C 0.4389 0.49776 0.00503 0.0
C260 C 0.43847 0.49194 0.04398 0.0
loop_
_geom_bond_atom_site_label_1
_geom_bond_atom_site_label_2
_geom_bond_distance
_geom_bond_site_symmetry_2
_ccdc_geom_bond_type
O0 Zn1 1.953 . S
O0 C16 1.225 1_655 S
Zn1 O0 1.953 . S
Zn1 O2 1.949 1_655 S
Zn1 O8 1.919 . S
Zn1 O13 1.924 1_655 S
O2 Zn1 1.949 1_455 S
O2 Zn3 1.923 1_455 S
O2 Zn4 1.950 . S
O2 Zn5 1.945 . S
Zn3 O2 1.923 1_655 S
Zn3 O6 1.933 . S
Zn3 O9 1.941 . S
Zn3 O10 1.965 . S
Zn4 O2 1.950 . S
Zn4 O11 1.938 1_455 S
Zn4 O12 1.906 . S
Zn4 O22 1.953 . S
Zn5 O2 1.945 . S
Zn5 O7 1.932 . S
Zn5 O14 1.977 . S
Zn5 O15 1.910 . S
O6 Zn3 1.933 . S
O6 C17 1.226 1_655 S
O7 Zn5 1.932 . S
O7 C17 1.307 . S
O8 Zn1 1.919 . S
O8 C19 1.253 . S
O9 Zn3 1.941 . S
O9 C19 1.283 . S
O10 Zn3 1.965 . S
O10 C18 1.303 . S
O11 Zn4 1.938 1_655 S
O11 C18 1.247 . S
O12 Zn4 1.906 . S
O12 C20 1.304 . S
O13 Zn1 1.924 1_455 S
O13 C21 1.311 . S
O14 Zn5 1.977 . S
O14 C20 1.272 . S
O15 Zn5 1.910 . S
O15 C21 1.231 . S
C16 O0 1.225 1_455 S
C16 O22 1.298 . S
C17 O6 1.226 1_455 S
C17 O7 1.307 . S
C18 O10 1.303 . S
C18 O11 1.247 . S
C19 O8 1.253 . S
C19 O9 1.283 . S
C20 O12 1.304 . S
C20 O14 1.272 . S
C21 O13 1.311 . S
C21 O15 1.231 . S
O22 Zn4 1.953 . S
O22 C16 1.298 . S
O23 Zn24 1.953 . S
O23 C39 1.225 . S
Zn24 O23 1.953 . S
Zn24 O25 1.949 . S
Zn24 O31 1.919 . S
Zn24 O36 1.924 1_545 S
O25 Zn24 1.949 . S
O25 Zn26 1.923 . S
O25 Zn27 1.950 1_545 S
O25 Zn28 1.945 1_545 S
Zn26 O25 1.923 . S
Zn26 O29 1.933 . S
Zn26 O32 1.941 . S
Zn26 O33 1.965 . S
Zn27 O25 1.950 1_565 S
Zn27 O34 1.938 1_565 S
Zn27 O35 1.906 . S
Zn27 O45 1.953 . S
Zn28 O25 1.945 1_565 S
Zn28 O30 1.932 . S
Zn28 O37 1.977 . S
Zn28 O38 1.910 . S
O29 Zn26 1.933 . S
O29 C40 1.226 . S
O30 Zn28 1.932 . S
O30 C40 1.307 1_565 S
O31 Zn24 1.919 . S
O31 C42 1.253 . S
O32 Zn26 1.941 . S
O32 C42 1.283 . S
O33 Zn26 1.965 . S
O33 C41 1.303 . S
O34 Zn27 1.938 1_545 S
O34 C41 1.247 . S
O35 Zn27 1.906 . S
O35 C43 1.304 . S
O36 Zn24 1.924 1_565 S
O36 C44 1.311 . S
O37 Zn28 1.977 . S
O37 C43 1.272 . S
O38 Zn28 1.910 . S
O38 C44 1.231 . S
C39 O23 1.225 . S
C39 O45 1.298 1_545 S
C40 O29 1.226 . S
C40 O30 1.307 1_545 S
C41 O33 1.303 . S
C41 O34 1.247 . S
C42 O31 1.253 . S
C42 O32 1.283 . S
C43 O35 1.304 . S
C43 O37 1.272 . S
C44 O36 1.311 . S
C44 O38 1.231 . S
O45 Zn27 1.953 . S
O45 C39 1.298 1_565 S
O46 Zn47 1.953 . S
O46 C62 1.225 . S
Zn47 O46 1.953 . S
Zn47 O48 1.949 . S
Zn47 O54 1.919 . S
Zn47 O59 1.924 . S
O48 Zn47 1.949 . S
O48 Zn49 1.923 . S
O48 Zn50 1.950 . S
O48 Zn51 1.945 . S
Zn49 O48 1.923 . S
Zn49 O52 1.933 . S
Zn49 O55 1.941 . S
Zn49 O56 1.965 . S
Zn50 O48 1.950 . S
Zn50 O57 1.938 . S
Zn50 O58 1.906 . S
Zn50 O68 1.953 . S
Zn51 O48 1.945 . S
Zn51 O53 1.932 . S
Zn51 O60 1.977 . S
Zn51 O61 1.910 . S
O52 Zn49 1.933 . S
O52 C63 1.226 . S
O53 Zn51 1.932 . S
O53 C63 1.307 . S
O54 Zn47 1.919 . S
O54 C65 1.253 . S
O55 Zn49 1.941 . S
O55 C65 1.283 . S
O56 Zn49 1.965 . S
O56 C64 1.303 . S
O57 Zn50 1.938 . S
O57 C64 1.247 . S
O58 Zn50 1.906 . S
O58 C66 1.304 . S
O59 Zn47 1.924 . S
O59 C67 1.311 . S
O60 Zn51 1.977 . S
O60 C66 1.272 . S
O61 Zn51 1.910 . S
O61 C67 1.231 . S
C62 O46 1.225 . S
C62 O68 1.298 . S
C63 O52 1.226 . S
C63 O53 1.307 . S
C64 O56 1.303 . S
C64 O57 1.247 . S
C65 O54 1.253 . S
C65 O55 1.283 . S
C66 O58 1.304 . S
C66 O60 1.272 . S
C67 O59 1.311 . S
C67 O61 1.231 . S
O68 Zn50 1.953 . S
O68 C62 1.298 . S
P69 O80 1.490 . S
P69 C83 1.812 . S
P69 C89 1.803 1_565 S
P69 C95 1.819 . S
H70 C84 0.941 . S
H71 C85 0.939 . S
H72 C87 0.940 . S
H73 C88 0.940 . S
H74 C90 0.939 . S
H75 C91 0.942 . S
H76 C93 0.940 . S
H77 C94 0.939 . S
H78 C96 0.941 . S
H79 C100 0.939 . S
O80 P69 1.490 . S
H81 C97 0.939 . S
H82 C99 0.940 . S
C83 P69 1.812 . S
C83 C84 1.389 . S
C83 C88 1.391 . S
C84 H70 0.941 . S
C84 C83 1.389 . S
C84 C85 1.397 . S
C85 H71 0.939 . S
C85 C84 1.397 . S
C85 C86 1.378 . S
C86 C85 1.378 . S
C86 C87 1.378 . S
C87 H72 0.940 . S
C87 C86 1.378 . S
C87 C88 1.396 . S
C88 H73 0.940 . S
C88 C83 1.391 . S
C88 C87 1.396 . S
C89 P69 1.803 1_545 S
C89 C90 1.378 . S
C89 C94 1.400 . S
C90 H74 0.939 . S
C90 C89 1.378 . S
C90 C91 1.361 . S
C91 H75 0.942 . S
C91 C90 1.361 . S
C91 C92 1.369 . S
C92 C91 1.369 . S
C92 C93 1.404 . S
C93 H76 0.940 . S
C93 C92 1.404 . S
C93 C94 1.389 . S
C94 H77 0.939 . S
C94 C89 1.400 . S
C94 C93 1.389 . S
C95 P69 1.819 . S
C95 C96 1.391 . S
C95 C100 1.391 1_565 S
C96 H78 0.941 . S
C96 C95 1.391 . S
C96 C97 1.396 . S
C97 H81 0.939 . S
C97 C96 1.396 . S
C97 C98 1.397 1_565 S
C98 C97 1.397 1_545 S
C98 C99 1.385 . S
C99 H82 0.940 . S
C99 C98 1.385 . S
C99 C100 1.388 . S
C100 H79 0.939 . S
C100 C95 1.391 1_545 S
C100 C99 1.388 . S
P101 O112 1.490 . S
P101 C115 1.812 . S
P101 C121 1.803 . S
P101 C127 1.819 . S
H102 C116 0.941 . S
H103 C117 0.939 . S
H104 C119 0.940 . S
H105 C120 0.940 . S
H106 C122 0.939 . S
H107 C123 0.942 . S
H108 C125 0.940 . S
H109 C126 0.939 . S
H110 C128 0.941 . S
H111 C132 0.939 . S
O112 P101 1.490 . S
H113 C129 0.939 . S
H114 C131 0.940 . S
C115 P101 1.812 . S
C115 C116 1.389 . S
C115 C120 1.391 . S
C116 H102 0.941 . S
C116 C115 1.389 . S
C116 C117 1.397 . S
C117 H103 0.939 . S
C117 C116 1.397 . S
C117 C118 1.378 . S
C118 C117 1.378 . S
C118 C119 1.378 . S
C119 H104 0.940 . S
C119 C118 1.378 . S
C119 C120 1.396 . S
C120 H105 0.940 . S
C120 C115 1.391 . S
C120 C119 1.396 . S
C121 P101 1.803 . S
C121 C122 1.378 . S
C121 C126 1.400 . S
C122 H106 0.939 . S
C122 C121 1.378 . S
C122 C123 1.361 . S
C123 H107 0.942 . S
C123 C122 1.361 . S
C123 C124 1.369 . S
C124 C123 1.369 . S
C124 C125 1.404 . S
C125 H108 0.940 . S
C125 C124 1.404 . S
C125 C126 1.389 . S
C126 H109 0.939 . S
C126 C121 1.400 . S
C126 C125 1.389 . S
C127 P101 1.819 . S
C127 C128 1.391 . S
C127 C132 1.391 . S
C128 H110 0.941 . S
C128 C127 1.391 . S
C128 C129 1.396 . S
C129 H113 0.939 . S
C129 C128 1.396 . S
C129 C130 1.397 . S
C130 C129 1.397 . S
C130 C131 1.385 . S
C131 H114 0.940 . S
C131 C130 1.385 . S
C131 C132 1.388 . S
C132 H111 0.939 . S
C132 C127 1.391 . S
C132 C131 1.388 . S
P133 O144 1.490 . S
P133 C147 1.812 . S
P133 C153 1.803 1_455 S
P133 C159 1.819 . S
H134 C148 0.941 . S
H135 C149 0.939 . S
H136 C151 0.940 . S
H137 C152 0.940 . S
H138 C154 0.939 . S
H139 C155 0.942 . S
H140 C157 0.940 . S
H141 C158 0.939 . S
H142 C160 0.941 . S
H143 C164 0.939 . S
O144 P133 1.490 . S
H145 C161 0.939 . S
H146 C163 0.940 . S
C147 P133 1.812 . S
C147 C148 1.389 . S
C147 C152 1.391 . S
C148 H134 0.941 . S
C148 C147 1.389 . S
C148 C149 1.397 . S
C149 H135 0.939 . S
C149 C148 1.397 . S
C149 C150 1.378 . S
C150 C149 1.378 . S
C150 C151 1.378 . S
C151 H136 0.940 . S
C151 C150 1.378 . S
C151 C152 1.396 . S
C152 H137 0.940 . S
C152 C147 1.391 . S
C152 C151 1.396 . S
C153 P133 1.803 1_655 S
C153 C154 1.378 . S
C153 C158 1.400 . S
C154 H138 0.939 . S
C154 C153 1.378 . S
C154 C155 1.361 . S
C155 H139 0.942 . S
C155 C154 1.361 . S
C155 C156 1.369 . S
C156 C155 1.369 . S
C156 C157 1.404 . S
C157 H140 0.940 . S
C157 C156 1.404 . S
C157 C158 1.389 . S
C158 H141 0.939 . S
C158 C153 1.400 . S
C158 C157 1.389 . S
C159 P133 1.819 . S
C159 C160 1.391 . S
C159 C164 1.391 1_455 S
C160 H142 0.941 . S
C160 C159 1.391 . S
C160 C161 1.396 1_556 S
C161 H145 0.939 . S
C161 C160 1.396 1_554 S
C161 C162 1.397 . S
C162 C161 1.397 . S
C162 C163 1.385 1_455 S
C163 H146 0.940 . S
C163 C162 1.385 1_655 S
C163 C164 1.388 1_554 S
C164 H143 0.939 . S
C164 C159 1.391 1_655 S
C164 C163 1.388 1_556 S
P165 O176 1.490 . S
P165 C179 1.812 . S
P165 C185 1.803 1_455 S
P165 C191 1.819 . S
H166 C180 0.941 . S
H167 C181 0.939 . S
H168 C183 0.940 . S
H169 C184 0.940 . S
H170 C186 0.939 . S
H171 C187 0.942 . S
H172 C189 0.940 . S
H173 C190 0.939 . S
H174 C192 0.941 . S
H175 C196 0.939 . S
O176 P165 1.490 . S
H177 C193 0.939 . S
H178 C195 0.940 . S
C179 P165 1.812 . S
C179 C180 1.389 . S
C179 C184 1.391 . S
C180 H166 0.941 . S
C180 C179 1.389 . S
C180 C181 1.397 . S
C181 H167 0.939 . S
C181 C180 1.397 . S
C181 C182 1.378 . S
C182 C181 1.378 . S
C182 C183 1.378 . S
C183 H168 0.940 . S
C183 C182 1.378 . S
C183 C184 1.396 . S
C184 H169 0.940 . S
C184 C179 1.391 . S
C184 C183 1.396 . S
C185 P165 1.803 1_655 S
C185 C186 1.378 . S
C185 C190 1.400 . S
C186 H170 0.939 . S
C186 C185 1.378 . S
C186 C187 1.361 . S
C187 H171 0.942 . S
C187 C186 1.361 . S
C187 C188 1.369 . S
C188 C187 1.369 . S
C188 C189 1.404 . S
C189 H172 0.940 . S
C189 C188 1.404 . S
C189 C190 1.389 . S
C190 H173 0.939 . S
C190 C185 1.400 . S
C190 C189 1.389 . S
C191 P165 1.819 . S
C191 C192 1.391 . S
C191 C196 1.391 1_455 S
C192 H174 0.941 . S
C192 C191 1.391 . S
C192 C193 1.396 . S
C193 H177 0.939 . S
C193 C192 1.396 . S
C193 C194 1.397 . S
C194 C193 1.397 . S
C194 C195 1.385 1_455 S
C195 H178 0.940 . S
C195 C194 1.385 1_655 S
C195 C196 1.388 . S
C196 H175 0.939 . S
C196 C191 1.391 1_655 S
C196 C195 1.388 . S
P197 O208 1.490 . S
P197 C211 1.812 . S
P197 C217 1.803 1_545 S
P197 C223 1.819 . S
H198 C212 0.941 . S
H199 C213 0.939 . S
H200 C215 0.940 . S
H201 C216 0.940 . S
H202 C218 0.939 . S
H203 C219 0.942 . S
H204 C221 0.940 . S
H205 C222 0.939 . S
H206 C224 0.941 . S
H207 C228 0.939 . S
O208 P197 1.490 . S
H209 C225 0.939 . S
H210 C227 0.940 . S
C211 P197 1.812 . S
C211 C212 1.389 . S
C211 C216 1.391 . S
C212 H198 0.941 . S
C212 C211 1.389 . S
C212 C213 1.397 . S
C213 H199 0.939 . S
C213 C212 1.397 . S
C213 C214 1.378 . S
C214 C213 1.378 . S
C214 C215 1.378 . S
C215 H200 0.940 . S
C215 C214 1.378 . S
C215 C216 1.396 . S
C216 H201 0.940 . S
C216 C211 1.391 . S
C216 C215 1.396 . S
C217 P197 1.803 1_565 S
C217 C218 1.378 . S
C217 C222 1.400 . S
C218 H202 0.939 . S
C218 C217 1.378 . S
C218 C219 1.361 . S
C219 H203 0.942 . S
C219 C218 1.361 . S
C219 C220 1.369 . S
C220 C219 1.369 . S
C220 C221 1.404 . S
C221 H204 0.940 . S
C221 C220 1.404 . S
C221 C222 1.389 . S
C222 H205 0.939 . S
C222 C217 1.400 . S
C222 C221 1.389 . S
C223 P197 1.819 . S
C223 C224 1.391 . S
C223 C228 1.391 1_545 S
C224 H206 0.941 . S
C224 C223 1.391 . S
C224 C225 1.396 . S
C225 H209 0.939 . S
C225 C224 1.396 . S
C225 C226 1.397 . S
C226 C225 1.397 . S
C226 C227 1.385 1_545 S
C227 H210 0.940 . S
C227 C226 1.385 1_565 S
C227 C228 1.388 . S
C228 H207 0.939 . S
C228 C223 1.391 1_565 S
C228 C227 1.388 . S
P229 O240 1.490 . S
P229 C243 1.812 . S
P229 C249 1.803 . S
P229 C255 1.819 . S
H230 C244 0.941 . S
H231 C245 0.939 . S
H232 C247 0.940 . S
H233 C248 0.940 . S
H234 C250 0.939 . S
H235 C251 0.942 . S
H236 C253 0.940 . S
H237 C254 0.939 . S
H238 C256 0.941 . S
H239 C260 0.939 . S
O240 P229 1.490 . S
H241 C257 0.939 . S
H242 C259 0.940 . S
C243 P229 1.812 . S
C243 C244 1.389 . S
C243 C248 1.391 . S
C244 H230 0.941 . S
C244 C243 1.389 . S
C244 C245 1.397 . S
C245 H231 0.939 . S
C245 C244 1.397 . S
C245 C246 1.378 . S
C246 C245 1.378 . S
C246 C247 1.378 . S
C247 H232 0.940 . S
C247 C246 1.378 . S
C247 C248 1.396 . S
C248 H233 0.940 . S
C248 C243 1.391 . S
C248 C247 1.396 . S
C249 P229 1.803 . S
C249 C250 1.378 . S
C249 C254 1.400 . S
C250 H234 0.939 . S
C250 C249 1.378 . S
C250 C251 1.361 . S
C251 H235 0.942 . S
C251 C250 1.361 . S
C251 C252 1.369 . S
C252 C251 1.369 . S
C252 C253 1.404 . S
C253 H236 0.940 . S
C253 C252 1.404 . S
C253 C254 1.389 . S
C254 H237 0.939 . S
C254 C249 1.400 . S
C254 C253 1.389 . S
C255 P229 1.819 . S
C255 C256 1.391 . S
C255 C260 1.391 . S
C256 H238 0.941 . S
C256 C255 1.391 . S
C256 C257 1.396 1_554 S
C257 H241 0.939 . S
C257 C256 1.396 1_556 S
C257 C258 1.397 . S
C258 C257 1.397 . S
C258 C259 1.385 . S
C259 H242 0.940 . S
C259 C258 1.385 . S
C259 C260 1.388 1_556 S
C260 H239 0.939 . S
C260 C255 1.391 . S
C260 C259 1.388 1_554 S
C20 C252 1.212 . S
C41 C188 1.486 . S
C64 C220 1.574 . S
C19 C246 1.734 . S
C182 C44 1.770 . S
C214 C67 1.689 . S
C43 C124 1.243 . S
C66 C156 1.215 . S
C21 C86 1.757 . S
C118 C42 1.649 . S
C150 C65 1.733 . S
C18 C92 1.501 . S
C162 C17 1.480 . S
C39 C98 1.451 . S
C62 C130 1.513 . S
C226 C40 1.403 . S
C258 C63 1.481 . S
C16 C194 1.447 . S
