# Generated by pormake.
# Topology pto, (3,4)-cn, num edge types: 1
# Building blocks:
#     Node 0, Type 0, BuildingBlock: OLANEW_clean_sbu_2, # of connection points: 3
#     Node 1, Type 0, BuildingBlock: OLANEW_clean_sbu_2, # of connection points: 3
#     Node 2, Type 0, BuildingBlock: OLANEW_clean_sbu_2, # of connection points: 3
#     Node 3, Type 0, BuildingBlock: OLANEW_clean_sbu_2, # of connection points: 3
#     Node 4, Type 0, BuildingBlock: OLANEW_clean_sbu_2, # of connection points: 3
#     Node 5, Type 0, BuildingBlock: OLANEW_clean_sbu_2, # of connection points: 3
#     Node 6, Type 0, BuildingBlock: OLANEW_clean_sbu_2, # of connection points: 3
#     Node 7, Type 0, BuildingBlock: OLANEW_clean_sbu_2, # of connection points: 3
#     Node 8, Type 1, BuildingBlock: MUDLON_clean_linker_0, # of connection points: 4
#     Node 9, Type 1, BuildingBlock: MUDLON_clean_linker_0, # of connection points: 4
#     Node 10, Type 1, BuildingBlock: MUDLON_clean_linker_0, # of connection points: 4
#     Node 11, Type 1, BuildingBlock: MUDLON_clean_linker_0, # of connection points: 4
#     Node 12, Type 1, BuildingBlock: MUDLON_clean_linker_0, # of connection points: 4
#     Node 13, Type 1, BuildingBlock: MUDLON_clean_linker_0, # of connection points: 4
#     Edge 14, Type (0, 1), BuildingBlock: UVAHIK_clean_linker_0, # of connection points: 2
#     Edge 15, Type (0, 1), BuildingBlock: UVAHIK_clean_linker_0, # of connection points: 2
#     Edge 16, Type (0, 1), BuildingBlock: UVAHIK_clean_linker_0, # of connection points: 2
#     Edge 17, Type (0, 1), BuildingBlock: UVAHIK_clean_linker_0, # of connection points: 2
#     Edge 18, Type (0, 1), BuildingBlock: UVAHIK_clean_linker_0, # of connection points: 2
#     Edge 19, Type (0, 1), BuildingBlock: UVAHIK_clean_linker_0, # of connection points: 2
#     Edge 20, Type (0, 1), BuildingBlock: UVAHIK_clean_linker_0, # of connection points: 2
#     Edge 21, Type (0, 1), BuildingBlock: UVAHIK_clean_linker_0, # of connection points: 2
#     Edge 22, Type (0, 1), BuildingBlock: UVAHIK_clean_linker_0, # of connection points: 2
#     Edge 23, Type (0, 1), BuildingBlock: UVAHIK_clean_linker_0, # of connection points: 2
#     Edge 24, Type (0, 1), BuildingBlock: UVAHIK_clean_linker_0, # of connection points: 2
#     Edge 25, Type (0, 1), BuildingBlock: UVAHIK_clean_linker_0, # of connection points: 2
#     Edge 26, Type (0, 1), BuildingBlock: UVAHIK_clean_linker_0, # of connection points: 2
#     Edge 27, Type (0, 1), BuildingBlock: UVAHIK_clean_linker_0, # of connection points: 2
#     Edge 28, Type (0, 1), BuildingBlock: UVAHIK_clean_linker_0, # of connection points: 2
#     Edge 29, Type (0, 1), BuildingBlock: UVAHIK_clean_linker_0, # of connection points: 2
#     Edge 30, Type (0, 1), BuildingBlock: UVAHIK_clean_linker_0, # of connection points: 2
#     Edge 31, Type (0, 1), BuildingBlock: UVAHIK_clean_linker_0, # of connection points: 2
#     Edge 32, Type (0, 1), BuildingBlock: UVAHIK_clean_linker_0, # of connection points: 2
#     Edge 33, Type (0, 1), BuildingBlock: UVAHIK_clean_linker_0, # of connection points: 2
#     Edge 34, Type (0, 1), BuildingBlock: UVAHIK_clean_linker_0, # of connection points: 2
#     Edge 35, Type (0, 1), BuildingBlock: UVAHIK_clean_linker_0, # of connection points: 2
#     Edge 36, Type (0, 1), BuildingBlock: UVAHIK_clean_linker_0, # of connection points: 2
#     Edge 37, Type (0, 1), BuildingBlock: UVAHIK_clean_linker_0, # of connection points: 2
# Relax obj value: 0.009
# Max RMSD: 0.128
# Mean RMSD: 0.067
data_MOF--net-pto--node1-OLANEW_clean_sbu_2--node2-MUDLON_clean_linker_0--edge1-UVAHIK_clean_linker_0
_symmetry_space_group_name_H-M    P1
_symmetry_Int_Tables_number       1
_symmetry_cell_setting            triclinic
loop_
_symmetry_equiv_pos_as_xyz
'x, y, z'
_cell_length_a     48.287715
_cell_length_b     86.322003
_cell_length_c     67.62438
_cell_angle_alpha  92.676192
_cell_angle_beta   88.995983
_cell_angle_gamma 106.27607
loop_
_atom_site_label
_atom_site_type_symbol
_atom_site_fract_x
_atom_site_fract_y
_atom_site_fract_z
_atom_type_partial_charge
O0 O 0.33456 0.31742 0.30895 0.0
Cd1 Cd 0.31551 0.31229 0.34239 0.0
O2 O 0.33033 0.34177 0.31423 0.0
Cd3 Cd 0.32907 0.36646 0.30956 0.0
O4 O 0.319 0.38933 0.31546 0.0
C5 C 0.31337 0.39778 0.30201 0.0
O6 O 0.31454 0.39296 0.28337 0.0
C7 C 0.33732 0.33141 0.30265 0.0
C8 C 0.33499 0.289 0.36046 0.0
O9 O 0.31198 0.28503 0.34999 0.0
O10 O 0.34891 0.30399 0.36223 0.0
O11 O 0.24375 0.84856 0.75874 0.0
Cd12 Cd 0.21201 0.84751 0.73078 0.0
O13 O 0.25878 0.82805 0.74714 0.0
Cd14 Cd 0.2303 0.82144 0.72158 0.0
O15 O 0.20749 0.80302 0.69982 0.0
C16 C 0.18809 0.79118 0.70645 0.0
O17 O 0.18176 0.79131 0.72542 0.0
C18 C 0.25976 0.83924 0.76025 0.0
C19 C 0.23557 0.87457 0.70871 0.0
O20 O 0.21844 0.87511 0.72325 0.0
O21 O 0.241 0.86111 0.70431 0.0
O22 O 0.80096 0.77573 0.3345 0.0
Cd23 Cd 0.78427 0.75166 0.31249 0.0
O24 O 0.79112 0.79127 0.31237 0.0
Cd25 Cd 0.77528 0.77232 0.2895 0.0
O26 O 0.75536 0.76362 0.26091 0.0
C27 C 0.76332 0.77342 0.2471 0.0
O28 O 0.78336 0.78704 0.25088 0.0
C29 C 0.80036 0.78963 0.32941 0.0
C30 C 0.80861 0.72711 0.32144 0.0
O31 O 0.82061 0.73767 0.30891 0.0
O32 O 0.78513 0.7282 0.32976 0.0
O33 O 0.71229 0.28048 0.6163 0.0
Cd34 Cd 0.67957 0.25346 0.61999 0.0
O35 O 0.71895 0.2819 0.64831 0.0
Cd36 Cd 0.73318 0.29365 0.67717 0.0
O37 O 0.73441 0.30179 0.70825 0.0
C38 C 0.73414 0.31613 0.71322 0.0
O39 O 0.73454 0.32633 0.69932 0.0
C40 C 0.72426 0.2884 0.63166 0.0
C41 C 0.70595 0.22923 0.61017 0.0
O42 O 0.69324 0.23499 0.59704 0.0
O43 O 0.70623 0.23497 0.62802 0.0
O44 O 0.70435 0.75954 0.60782 0.0
Cd45 Cd 0.68258 0.73096 0.61387 0.0
O46 O 0.70956 0.76504 0.63968 0.0
Cd47 Cd 0.71647 0.7802 0.66698 0.0
O48 O 0.71144 0.79077 0.6963 0.0
C49 C 0.68564 0.78952 0.70178 0.0
O50 O 0.66457 0.78248 0.68952 0.0
C51 C 0.71209 0.7699 0.62209 0.0
C52 C 0.72085 0.71208 0.61039 0.0
O53 O 0.70818 0.71515 0.59517 0.0
O54 O 0.71571 0.71813 0.62727 0.0
O55 O 0.83593 0.27876 0.32709 0.0
Cd56 Cd 0.81456 0.25419 0.30676 0.0
O57 O 0.79819 0.28796 0.32387 0.0
Cd58 Cd 0.7764 0.26991 0.30139 0.0
O59 O 0.75629 0.2695 0.27262 0.0
C60 C 0.766 0.28261 0.26376 0.0
O61 O 0.78704 0.29404 0.27207 0.0
C62 C 0.82289 0.28943 0.33124 0.0
C63 C 0.8162 0.22626 0.32542 0.0
O64 O 0.8372 0.2338 0.31453 0.0
O65 O 0.79442 0.23193 0.3275 0.0
O66 O 0.19649 0.32833 0.77911 0.0
Cd67 Cd 0.15625 0.32636 0.75685 0.0
O68 O 0.21593 0.31698 0.75509 0.0
Cd69 Cd 0.24661 0.30492 0.74197 0.0
O70 O 0.27044 0.29019 0.72586 0.0
C71 C 0.26835 0.27599 0.73126 0.0
O72 O 0.2525 0.2707 0.74685 0.0
C73 C 0.21698 0.32287 0.77275 0.0
C74 C 0.14977 0.35603 0.74643 0.0
O75 O 0.13688 0.34896 0.76165 0.0
O76 O 0.16615 0.3492 0.73634 0.0
O77 O 0.37859 0.83691 0.32553 0.0
Cd78 Cd 0.36589 0.8315 0.36013 0.0
O79 O 0.33613 0.83922 0.31727 0.0
Cd80 Cd 0.31692 0.82904 0.34492 0.0
O81 O 0.29524 0.80808 0.36185 0.0
C82 C 0.30226 0.79524 0.35724 0.0
O83 O 0.32242 0.7958 0.34376 0.0
C84 C 0.3622 0.84012 0.31277 0.0
C85 C 0.37697 0.8606 0.38234 0.0
O86 O 0.39682 0.85359 0.37896 0.0
O87 O 0.35174 0.85374 0.37543 0.0
H88 H 0.04631 0.46736 0.42919 0.0
N89 N 0.05353 0.49198 0.40578 0.0
H90 H 0.01098 0.44076 0.42579 0.0
H91 H 0.00833 0.48318 0.37945 0.0
H92 H 0.97328 0.45674 0.37589 0.0
H93 H 0.05863 0.48239 0.367 0.0
H94 H 0.10192 0.47862 0.35094 0.0
H95 H 0.10643 0.49978 0.42062 0.0
H96 H 0.15042 0.49673 0.40438 0.0
H97 H 0.04817 0.51079 0.43682 0.0
H98 H 0.04422 0.50753 0.37312 0.0
H99 H 0.04094 0.53768 0.43693 0.0
H100 H 0.03545 0.53399 0.37302 0.0
H101 H 0.99538 0.61776 0.4272 0.0
H102 H 0.95761 0.62752 0.41282 0.0
H103 H 0.97441 0.60778 0.35544 0.0
H104 H 0.01203 0.59793 0.37004 0.0
H105 H 0.05954 0.61574 0.37444 0.0
H106 H 0.10213 0.63871 0.37237 0.0
H107 H 0.10516 0.64396 0.43617 0.0
H108 H 0.06237 0.62058 0.43818 0.0
H109 H 0.00669 0.58081 0.43299 0.0
H110 H 0.00823 0.55271 0.43163 0.0
H111 H 0.06007 0.56151 0.37834 0.0
N112 N 0.03106 0.60374 0.40836 0.0
H113 H 0.05701 0.58911 0.37926 0.0
C114 C 0.03002 0.47732 0.40473 0.0
C115 C 0.03005 0.46517 0.41776 0.0
C116 C 0.01004 0.44998 0.41569 0.0
C117 C 0.98944 0.44663 0.4005 0.0
C118 C 0.98868 0.459 0.38788 0.0
C119 C 0.00884 0.47418 0.3899 0.0
C120 C 0.07926 0.49113 0.39519 0.0
C121 C 0.07856 0.48563 0.37525 0.0
C122 C 0.1035 0.48362 0.366 0.0
C123 C 0.12969 0.48724 0.3764 0.0
C124 C 0.13053 0.4935 0.39605 0.0
C125 C 0.10551 0.49536 0.40532 0.0
C126 C 0.04654 0.50711 0.40508 0.0
C127 C 0.04512 0.51578 0.42289 0.0
C128 C 0.04081 0.53111 0.42288 0.0
C129 C 0.03755 0.53808 0.40496 0.0
C130 C 0.03829 0.52915 0.38708 0.0
C131 C 0.04296 0.51388 0.38712 0.0
C132 C 0.00657 0.60725 0.39974 0.0
C133 C 0.99045 0.61527 0.41161 0.0
C134 C 0.96887 0.62078 0.40337 0.0
C135 C 0.96313 0.61847 0.38297 0.0
C136 C 0.97858 0.60987 0.37116 0.0
C137 C 3e-05 0.60421 0.37949 0.0
C138 C 0.05788 0.61625 0.40657 0.0
C139 C 0.06962 0.62148 0.38804 0.0
C140 C 0.09405 0.63468 0.38685 0.0
C141 C 0.107 0.6431 0.40411 0.0
C142 C 0.09555 0.63772 0.42263 0.0
C143 C 0.07129 0.62436 0.4238 0.0
C144 C 0.03205 0.58719 0.40652 0.0
C145 C 0.01821 0.57658 0.42098 0.0
C146 C 0.0193 0.56056 0.42022 0.0
C147 C 0.03456 0.55481 0.40499 0.0
C148 C 0.04786 0.5654 0.39019 0.0
C149 C 0.04643 0.58137 0.39084 0.0
H150 H 0.96266 0.47568 0.63841 0.0
N151 N 0.99883 0.48524 0.60685 0.0
H152 H 0.92118 0.45191 0.63906 0.0
H153 H 0.97427 0.46646 0.57606 0.0
H154 H 0.93228 0.4426 0.57651 0.0
H155 H 0.03461 0.46753 0.59857 0.0
H156 H 0.06477 0.4587 0.62163 0.0
H157 H 0.00966 0.49662 0.64526 0.0
H158 H 0.04045 0.48823 0.66848 0.0
H159 H 0.96211 0.50093 0.62518 0.0
H160 H 0.03439 0.507 0.58508 0.0
H161 H 0.96075 0.52834 0.61998 0.0
H162 H 0.03447 0.53492 0.58072 0.0
H163 H 0.9739 0.61008 0.61886 0.0
H164 H 0.93201 0.62031 0.62229 0.0
H165 H 0.90789 0.60404 0.56191 0.0
H166 H 0.95112 0.59465 0.55832 0.0
H167 H 0.01809 0.62266 0.56182 0.0
H168 H 0.05413 0.6479 0.57173 0.0
H169 H 0.05912 0.62937 0.62941 0.0
H170 H 0.02366 0.60434 0.61943 0.0
H171 H 0.98003 0.5829 0.61952 0.0
H172 H 0.9829 0.55586 0.62598 0.0
H173 H 0.00884 0.55001 0.56515 0.0
N174 N 0.99312 0.59832 0.5845 0.0
H175 H 0.00763 0.5775 0.55931 0.0
C176 C 0.97162 0.47287 0.6071 0.0
C177 C 0.95589 0.46877 0.62473 0.0
C178 C 0.93204 0.45515 0.62507 0.0
C179 C 0.92354 0.4453 0.60786 0.0
C180 C 0.93852 0.44984 0.59007 0.0
C181 C 0.96231 0.46351 0.58973 0.0
C182 C 0.01994 0.48267 0.62015 0.0
C183 C 0.03635 0.47235 0.61372 0.0
C184 C 0.05367 0.46739 0.62694 0.0
C185 C 0.055 0.4727 0.64698 0.0
C186 C 0.03962 0.48373 0.65322 0.0
C187 C 0.02218 0.48866 0.63993 0.0
C188 C 0.9981 0.50173 0.60514 0.0
C189 C 0.97786 0.50814 0.61532 0.0
C190 C 0.97731 0.52401 0.61249 0.0
C191 C 0.99734 0.53392 0.59976 0.0
C192 C 0.01818 0.52759 0.59021 0.0
C193 C 0.01838 0.51167 0.5928 0.0
C194 C 0.96594 0.60183 0.58813 0.0
C195 C 0.9595 0.60853 0.60641 0.0
C196 C 0.93525 0.6143 0.6084 0.0
C197 C 0.91664 0.61325 0.59229 0.0
C198 C 0.9221 0.60546 0.57448 0.0
C199 C 0.9466 0.59991 0.57243 0.0
C200 C 0.01807 0.61155 0.58974 0.0
C201 C 0.02758 0.62393 0.57641 0.0
C202 C 0.04795 0.63836 0.58216 0.0
C203 C 0.05929 0.64068 0.60141 0.0
C204 C 0.05103 0.62791 0.6144 0.0
C205 C 0.03058 0.61351 0.60866 0.0
C206 C 0.99404 0.5823 0.58892 0.0
C207 C 0.98667 0.57588 0.60765 0.0
C208 C 0.98802 0.56028 0.61126 0.0
C209 C 0.99622 0.55066 0.59613 0.0
C210 C 0.00311 0.55712 0.57734 0.0
C211 C 0.00221 0.57278 0.57387 0.0
H212 H 0.31358 0.13553 0.56367 0.0
N213 N 0.3565 0.14046 0.53758 0.0
H214 H 0.30999 0.15208 0.5935 0.0
H215 H 0.39939 0.16596 0.55292 0.0
H216 H 0.39611 0.1825 0.5827 0.0
H217 H 0.40826 0.15478 0.52003 0.0
H218 H 0.41569 0.17214 0.49157 0.0
H219 H 0.31646 0.14727 0.51616 0.0
H220 H 0.32354 0.16464 0.4879 0.0
H221 H 0.33286 0.11177 0.52029 0.0
H222 H 0.40687 0.13857 0.55429 0.0
H223 H 0.34995 0.08771 0.52042 0.0
H224 H 0.42327 0.11437 0.55564 0.0
H225 H 0.37192 0.01621 0.54423 0.0
H226 H 0.34774 0.99827 0.56956 0.0
H227 H 0.4107 0.02473 0.6125 0.0
H228 H 0.43565 0.04253 0.58655 0.0
H229 H 0.46312 0.02617 0.54374 0.0
H230 H 0.46631 0.00584 0.51796 0.0
H231 H 0.39414 0.0143 0.48785 0.0
H232 H 0.391 0.03449 0.5135 0.0
H233 H 0.36659 0.04367 0.54572 0.0
H234 H 0.35279 0.06823 0.54234 0.0
H235 H 0.4427 0.0953 0.53853 0.0
N236 N 0.42195 0.04094 0.5483 0.0
H237 H 0.45648 0.07047 0.54318 0.0
C238 C 0.35653 0.14953 0.55602 0.0
C239 C 0.33178 0.14564 0.56795 0.0
C240 C 0.32985 0.15507 0.58499 0.0
C241 C 0.35274 0.16866 0.59041 0.0
C242 C 0.37798 0.17224 0.57877 0.0
C243 C 0.37992 0.16274 0.56176 0.0
C244 C 0.36172 0.14979 0.52014 0.0
C245 C 0.38972 0.1568 0.51295 0.0
C246 C 0.39392 0.16674 0.49675 0.0
C247 C 0.3702 0.16973 0.48745 0.0
C248 C 0.34224 0.16238 0.49449 0.0
C249 C 0.33812 0.15254 0.51068 0.0
C250 C 0.36816 0.12683 0.53756 0.0
C251 C 0.35273 0.11238 0.5279 0.0
C252 C 0.36246 0.09863 0.52814 0.0
C253 C 0.38777 0.09895 0.53836 0.0
C254 C 0.40378 0.11365 0.54753 0.0
C255 C 0.39423 0.1275 0.54698 0.0
C256 C 0.40593 0.03074 0.56343 0.0
C257 C 0.38065 0.01826 0.55904 0.0
C258 C 0.36656 0.00805 0.57367 0.0
C259 C 0.3772 0.01006 0.59312 0.0
C260 C 0.40211 0.02274 0.59762 0.0
C261 C 0.41629 0.03297 0.58288 0.0
C262 C 0.42691 0.03188 0.53071 0.0
C263 C 0.44856 0.02397 0.53126 0.0
C264 C 0.4502 0.01229 0.51664 0.0
C265 C 0.43026 0.00837 0.50104 0.0
C266 C 0.40991 0.01714 0.49963 0.0
C267 C 0.40813 0.02874 0.51437 0.0
C268 C 0.4128 0.0552 0.54507 0.0
C269 C 0.38349 0.05481 0.54434 0.0
C270 C 0.37554 0.06896 0.5421 0.0
C271 C 0.39659 0.08385 0.54013 0.0
C272 C 0.42588 0.08414 0.54034 0.0
C273 C 0.43383 0.06996 0.54285 0.0
H274 H 0.50216 0.77946 0.09284 0.0
N275 N 0.51044 0.80593 0.0724 0.0
H276 H 0.53832 0.7697 0.10915 0.0
H277 H 0.56964 0.81851 0.06955 0.0
H278 H 0.60571 0.80822 0.08435 0.0
H279 H 0.53613 0.82924 0.10041 0.0
H280 H 0.5119 0.83983 0.12761 0.0
H281 H 0.45397 0.80012 0.07822 0.0
H282 H 0.42936 0.81092 0.10524 0.0
H283 H 0.4973 0.79196 0.03674 0.0
H284 H 0.53764 0.8379 0.06631 0.0
H285 H 0.50825 0.80431 0.00466 0.0
H286 H 0.54939 0.85023 0.03445 0.0
H287 H 0.53356 0.82582 0.91993 0.0
H288 H 0.5579 0.81706 0.89173 0.0
H289 H 0.62624 0.86177 0.89659 0.0
H290 H 0.60186 0.87035 0.92552 0.0
H291 H 0.54108 0.87946 0.92031 0.0
H292 H 0.4976 0.87945 0.90215 0.0
H293 H 0.45393 0.83271 0.92432 0.0
H294 H 0.49735 0.83268 0.94212 0.0
H295 H 0.55792 0.82607 0.95138 0.0
H296 H 0.54898 0.81511 0.98371 0.0
H297 H 0.52817 0.85821 0.00611 0.0
N298 N 0.55003 0.8553 0.94002 0.0
H299 H 0.53789 0.86954 0.97343 0.0
C300 C 0.53285 0.79966 0.07988 0.0
C301 C 0.52479 0.78569 0.09085 0.0
C302 C 0.54558 0.78007 0.10004 0.0
C303 C 0.57511 0.78818 0.0982 0.0
C304 C 0.58321 0.80183 0.08653 0.0
C305 C 0.5624 0.80766 0.07775 0.0
C306 C 0.49674 0.81375 0.08736 0.0
C307 C 0.51281 0.82534 0.10119 0.0
C308 C 0.49889 0.83146 0.11669 0.0
C309 C 0.46869 0.82614 0.11866 0.0
C310 C 0.45267 0.81508 0.1043 0.0
C311 C 0.46662 0.80897 0.08882 0.0
C312 C 0.51646 0.81392 0.0539 0.0
C313 C 0.50849 0.80471 0.03628 0.0
C314 C 0.51503 0.81177 0.018 0.0
C315 C 0.52992 0.82825 0.01697 0.0
C316 C 0.53763 0.83755 0.03469 0.0
C317 C 0.53092 0.83048 0.05298 0.0
C318 C 0.56594 0.84883 0.92498 0.0
C319 C 0.55395 0.83371 0.91521 0.0
C320 C 0.56785 0.82873 0.89893 0.0
C321 C 0.59379 0.83883 0.89169 0.0
C322 C 0.60636 0.85367 0.90187 0.0
C323 C 0.5925 0.8586 0.91836 0.0
C324 C 0.52264 0.85612 0.93248 0.0
C325 C 0.52188 0.86941 0.92159 0.0
C326 C 0.49702 0.8694 0.91129 0.0
C327 C 0.47248 0.856 0.91167 0.0
C328 C 0.47267 0.8431 0.92354 0.0
C329 C 0.49747 0.84312 0.93383 0.0
C330 C 0.54813 0.84876 0.95956 0.0
C331 C 0.55149 0.83338 0.96295 0.0
C332 C 0.54622 0.82696 0.98166 0.0
C333 C 0.53735 0.83563 0.99746 0.0
C334 C 0.53509 0.85121 0.99431 0.0
C335 C 0.54058 0.85769 0.97562 0.0
H336 H 0.80618 0.07683 0.50167 0.0
N337 N 0.86265 0.07715 0.49585 0.0
H338 H 0.78858 0.09389 0.52539 0.0
H339 H 0.89173 0.09486 0.52593 0.0
H340 H 0.87408 0.11189 0.55021 0.0
H341 H 0.89936 0.10184 0.47911 0.0
H342 H 0.89114 0.11571 0.45005 0.0
H343 H 0.81782 0.06598 0.4698 0.0
H344 H 0.80936 0.07973 0.44061 0.0
H345 H 0.81474 0.05147 0.50144 0.0
H346 H 0.9069 0.06479 0.49272 0.0
H347 H 0.81431 0.02329 0.50441 0.0
H348 H 0.9067 0.03662 0.49572 0.0
H349 H 0.8092 0.95196 0.51562 0.0
H350 H 0.7829 0.93142 0.53793 0.0
H351 H 0.8634 0.93155 0.56507 0.0
H352 H 0.88928 0.95254 0.54314 0.0
H353 H 0.90752 0.94788 0.50314 0.0
H354 H 0.90517 0.92709 0.4768 0.0
H355 H 0.82513 0.93385 0.45655 0.0
H356 H 0.82809 0.95486 0.48258 0.0
H357 H 0.83548 0.98016 0.53394 0.0
H358 H 0.83242 0.00712 0.52837 0.0
H359 H 0.8898 0.01016 0.47818 0.0
N360 N 0.86805 0.96323 0.51229 0.0
H361 H 0.89312 0.9831 0.48363 0.0
C362 C 0.85044 0.0846 0.51198 0.0
C363 C 0.82106 0.08408 0.51249 0.0
C364 C 0.81095 0.09386 0.52617 0.0
C365 C 0.82998 0.10438 0.53961 0.0
C366 C 0.85896 0.1041 0.53987 0.0
C367 C 0.86904 0.09431 0.52615 0.0
C368 C 0.85928 0.08297 0.47667 0.0
C369 C 0.88004 0.09673 0.47043 0.0
C370 C 0.87529 0.10461 0.45381 0.0
C371 C 0.84948 0.09888 0.44308 0.0
C372 C 0.82929 0.08455 0.44872 0.0
C373 C 0.83417 0.07662 0.46535 0.0
C374 C 0.86102 0.0603 0.49697 0.0
C375 C 0.83489 0.04838 0.50014 0.0
C376 C 0.83467 0.03225 0.50189 0.0
C377 C 0.86046 0.02772 0.5003 0.0
C378 C 0.88641 0.03965 0.49678 0.0
C379 C 0.88662 0.05575 0.49516 0.0
C380 C 0.85132 0.95384 0.52778 0.0
C381 C 0.82107 0.94787 0.52672 0.0
C382 C 0.80609 0.936 0.5394 0.0
C383 C 0.82103 0.92961 0.55314 0.0
C384 C 0.85107 0.93627 0.55488 0.0
C385 C 0.86597 0.94827 0.54235 0.0
C386 C 0.86805 0.95287 0.49487 0.0
C387 C 0.88983 0.94507 0.49273 0.0
C388 C 0.88827 0.93311 0.47783 0.0
C389 C 0.86479 0.92869 0.46473 0.0
C390 C 0.84359 0.93703 0.46631 0.0
C391 C 0.84517 0.949 0.48125 0.0
C392 C 0.86347 0.97883 0.50856 0.0
C393 C 0.84678 0.98617 0.52127 0.0
C394 C 0.84508 0.00179 0.51818 0.0
C395 C 0.86061 0.01072 0.50272 0.0
C396 C 0.87753 0.00359 0.49022 0.0
C397 C 0.87913 0.98798 0.49322 0.0
H398 H 0.53571 0.31976 0.0981 0.0
N399 N 0.55092 0.34732 0.07701 0.0
H400 H 0.56769 0.30934 0.11766 0.0
H401 H 0.60815 0.35778 0.07849 0.0
H402 H 0.6408 0.3469 0.09725 0.0
H403 H 0.55248 0.37055 0.10439 0.0
H404 H 0.51534 0.37192 0.12885 0.0
H405 H 0.49456 0.32789 0.07688 0.0
H406 H 0.45721 0.32957 0.10059 0.0
H407 H 0.53006 0.31639 0.06139 0.0
H408 H 0.56002 0.36634 0.04646 0.0
H409 H 0.52145 0.30832 0.02661 0.0
H410 H 0.55318 0.35835 0.01132 0.0
H411 H 0.53499 0.29158 0.90868 0.0
H412 H 0.57611 0.29668 0.88592 0.0
H413 H 0.60532 0.34596 0.90942 0.0
H414 H 0.5637 0.34081 0.93178 0.0
H415 H 0.51722 0.33917 0.91394 0.0
H416 H 0.47647 0.34172 0.89485 0.0
H417 H 0.42675 0.29429 0.91168 0.0
H418 H 0.46794 0.29173 0.93072 0.0
H419 H 0.53687 0.2971 0.962 0.0
H420 H 0.54496 0.30553 0.99687 0.0
H421 H 0.51902 0.34852 0.98642 0.0
N422 N 0.52017 0.31254 0.93359 0.0
H423 H 0.51289 0.34049 0.95149 0.0
C424 C 0.56956 0.3398 0.08708 0.0
C425 C 0.5586 0.32575 0.09777 0.0
C426 C 0.57705 0.31968 0.10884 0.0
C427 C 0.60691 0.32734 0.10924 0.0
C428 C 0.61789 0.3409 0.09769 0.0
C429 C 0.59935 0.34708 0.08683 0.0
C430 C 0.52665 0.34918 0.08876 0.0
C431 C 0.53151 0.36177 0.10327 0.0
C432 C 0.51017 0.36255 0.1172 0.0
C433 C 0.4833 0.35075 0.11682 0.0
C434 C 0.47784 0.33867 0.10155 0.0
C435 C 0.49928 0.3378 0.08776 0.0
C436 C 0.54543 0.34206 0.05654 0.0
C437 C 0.53489 0.32565 0.0506 0.0
C438 C 0.53026 0.32103 0.03059 0.0
C439 C 0.53667 0.33265 0.01601 0.0
C440 C 0.54745 0.34905 0.02206 0.0
C441 C 0.55159 0.35367 0.04212 0.0
C442 C 0.54627 0.31572 0.9219 0.0
C443 C 0.55052 0.3034 0.90906 0.0
C444 C 0.57413 0.30634 0.89617 0.0
C445 C 0.59406 0.32174 0.89587 0.0
C446 C 0.59022 0.33401 0.90916 0.0
C447 C 0.56653 0.33105 0.92205 0.0
C448 C 0.49573 0.31509 0.9236 0.0
C449 C 0.49762 0.32931 0.91361 0.0
C450 C 0.4743 0.33076 0.90265 0.0
C451 C 0.44854 0.31815 0.90164 0.0
C452 C 0.4463 0.30423 0.91227 0.0
C453 C 0.46975 0.30273 0.92309 0.0
C454 C 0.52391 0.31795 0.95414 0.0
C455 C 0.53297 0.30833 0.96731 0.0
C456 C 0.53734 0.31314 0.98727 0.0
C457 C 0.53239 0.32766 0.99462 0.0
C458 C 0.52339 0.33736 0.98133 0.0
C459 C 0.5195 0.33265 0.96127 0.0
C460 C 0.29305 0.42028 0.29303 0.0
C461 C 0.30277 0.41192 0.30753 0.0
C462 C 0.28011 0.43246 0.29852 0.0
C463 C 0.26744 0.45844 0.34142 0.0
H464 H 0.19478 0.45433 0.31522 0.0
C465 C 0.17293 0.47671 0.37863 0.0
C466 C 0.15539 0.4834 0.36727 0.0
C467 C 0.19542 0.47163 0.36981 0.0
C468 C 0.21529 0.4559 0.32245 0.0
H469 H 0.3079 0.41038 0.33914 0.0
H470 H 0.28504 0.43133 0.34867 0.0
H471 H 0.2267 0.43888 0.30226 0.0
H472 H 0.14883 0.49073 0.33786 0.0
H473 H 0.18788 0.48154 0.32239 0.0
H474 H 0.25525 0.47492 0.36216 0.0
C475 C 0.28762 0.42866 0.33305 0.0
C476 C 0.23364 0.44704 0.315 0.0
C477 C 0.30054 0.41652 0.32758 0.0
C478 C 0.16157 0.48537 0.34698 0.0
C479 C 0.18399 0.48017 0.33812 0.0
C480 C 0.24901 0.46724 0.34892 0.0
C481 C 0.27667 0.43654 0.31862 0.0
C482 C 0.25956 0.44786 0.32472 0.0
C483 C 0.20085 0.47301 0.3494 0.0
C484 C 0.22238 0.46572 0.33982 0.0
H485 H 0.29464 0.41711 0.27745 0.0
H486 H 0.27225 0.43846 0.28703 0.0
H487 H 0.28751 0.45959 0.34903 0.0
H488 H 0.16855 0.47472 0.3942 0.0
H489 H 0.2077 0.46591 0.37885 0.0
C490 C 0.15339 0.76379 0.7011 0.0
C491 C 0.17491 0.77674 0.69356 0.0
C492 C 0.14256 0.74956 0.68963 0.0
C493 C 0.13667 0.73216 0.63835 0.0
H494 H 0.12325 0.69188 0.66499 0.0
C495 C 0.06956 0.67079 0.60439 0.0
C496 C 0.07737 0.65679 0.60864 0.0
C497 C 0.0843 0.68578 0.61306 0.0
C498 C 0.12724 0.70299 0.65723 0.0
H499 H 0.20138 0.78508 0.6678 0.0
H500 H 0.18261 0.76014 0.64781 0.0
H501 H 0.14282 0.71736 0.68345 0.0
H502 H 0.10777 0.64768 0.62444 0.0
H503 H 0.13375 0.6739 0.63944 0.0
H504 H 0.12134 0.71772 0.61204 0.0
C505 C 0.17396 0.76105 0.66256 0.0
C506 C 0.13805 0.71763 0.6679 0.0
C507 C 0.18477 0.77532 0.67405 0.0
C508 C 0.10101 0.65822 0.6211 0.0
C509 C 0.11583 0.67323 0.62972 0.0
C510 C 0.12585 0.71749 0.62764 0.0
C511 C 0.15305 0.74791 0.67035 0.0
C512 C 0.14256 0.73239 0.65866 0.0
C513 C 0.10723 0.68713 0.62614 0.0
C514 C 0.12074 0.70273 0.63701 0.0
H515 H 0.14515 0.76452 0.71601 0.0
H516 H 0.12601 0.73981 0.69592 0.0
H517 H 0.13979 0.74332 0.6308 0.0
H518 H 0.05116 0.67007 0.5951 0.0
H519 H 0.07683 0.69617 0.61017 0.0
C520 C 0.80911 0.70317 0.34087 0.0
C521 C 0.82157 0.71412 0.32628 0.0
C522 C 0.82173 0.69115 0.3458 0.0
C523 C 0.87265 0.66864 0.3277 0.0
H524 H 0.88112 0.66249 0.38346 0.0
C525 C 0.95053 0.63498 0.35687 0.0
C526 C 0.94271 0.62613 0.374 0.0
C527 C 0.93307 0.64396 0.34982 0.0
C528 C 0.87849 0.6638 0.36781 0.0
H529 H 0.85682 0.72085 0.30519 0.0
H530 H 0.87891 0.69991 0.31387 0.0
H531 H 0.85584 0.68159 0.37358 0.0
H532 H 0.90964 0.61894 0.39648 0.0
H533 H 0.87886 0.63438 0.38402 0.0
H534 H 0.89555 0.65094 0.32195 0.0
C535 C 0.85924 0.70055 0.32138 0.0
C536 C 0.86404 0.6748 0.36215 0.0
C537 C 0.84669 0.71262 0.31651 0.0
C538 C 0.9164 0.62584 0.3834 0.0
C539 C 0.89885 0.63473 0.3763 0.0
C540 C 0.88703 0.65758 0.33336 0.0
C541 C 0.84703 0.68976 0.33619 0.0
C542 C 0.86118 0.67747 0.34205 0.0
C543 C 0.90731 0.64422 0.3597 0.0
C544 C 0.89036 0.65513 0.3535 0.0
H545 H 0.7897 0.70395 0.34863 0.0
H546 H 0.81163 0.68291 0.35711 0.0
H547 H 0.87045 0.67028 0.31208 0.0
H548 H 0.97085 0.63561 0.34944 0.0
H549 H 0.94044 0.65126 0.33715 0.0
C550 C 0.76678 0.3111 0.64279 0.0
C551 C 0.74327 0.305 0.63 0.0
C552 C 0.78522 0.32663 0.64068 0.0
C553 C 0.79033 0.36582 0.61901 0.0
H554 H 0.87277 0.37156 0.6218 0.0
C555 C 0.87554 0.4285 0.62019 0.0
C556 C 0.90071 0.4297 0.60889 0.0
C557 C 0.85529 0.41351 0.62243 0.0
C558 C 0.84981 0.37014 0.62086 0.0
H559 H 0.72073 0.31029 0.60486 0.0
H560 H 0.753 0.33739 0.60111 0.0
H561 H 0.83941 0.34501 0.62675 0.0
H562 H 0.92419 0.4161 0.5909 0.0
H563 H 0.88872 0.39004 0.59457 0.0
H564 H 0.80083 0.39095 0.61288 0.0
C565 C 0.75694 0.33027 0.61296 0.0
C566 C 0.8307 0.35497 0.62393 0.0
C567 C 0.7386 0.31472 0.61502 0.0
C568 C 0.90488 0.41564 0.59952 0.0
C569 C 0.88474 0.40067 0.60183 0.0
C570 C 0.80947 0.38104 0.61605 0.0
C571 C 0.78055 0.33637 0.6257 0.0
C572 C 0.80075 0.35262 0.62296 0.0
C573 C 0.85991 0.3994 0.61351 0.0
C574 C 0.83943 0.38333 0.61683 0.0
H575 H 0.77148 0.30372 0.65406 0.0
H576 H 0.80319 0.331 0.65076 0.0
H577 H 0.76736 0.36441 0.61832 0.0
H578 H 0.87164 0.43914 0.62748 0.0
H579 H 0.83644 0.41291 0.6316 0.0
C580 C 0.32907 0.26027 0.36873 0.0
C581 C 0.34467 0.27666 0.37067 0.0
C582 C 0.33721 0.24872 0.37926 0.0
C583 C 0.37515 0.24494 0.42447 0.0
H584 H 0.36867 0.20177 0.40248 0.0
C585 C 0.39566 0.19602 0.47245 0.0
C586 C 0.37432 0.18111 0.47115 0.0
C587 C 0.39715 0.20757 0.45835 0.0
C588 C 0.37052 0.21376 0.40884 0.0
H589 H 0.38162 0.29371 0.38471 0.0
H590 H 0.39589 0.27352 0.40303 0.0
H591 H 0.3616 0.22238 0.38113 0.0
H592 H 0.33906 0.16622 0.45335 0.0
H593 H 0.34126 0.18643 0.42901 0.0
H594 H 0.3832 0.23627 0.45227 0.0
C595 C 0.37716 0.26964 0.39353 0.0
C596 C 0.36646 0.22556 0.39662 0.0
C597 C 0.36905 0.28119 0.38297 0.0
C598 C 0.35548 0.17769 0.45491 0.0
C599 C 0.35697 0.18921 0.44082 0.0
C600 C 0.37917 0.23315 0.43668 0.0
C601 C 0.36113 0.2533 0.39197 0.0
C602 C 0.36821 0.2412 0.40439 0.0
C603 C 0.37737 0.20444 0.44263 0.0
C604 C 0.37639 0.21735 0.4291 0.0
H605 H 0.31019 0.25638 0.35937 0.0
H606 H 0.32418 0.23627 0.37792 0.0
H607 H 0.37627 0.2568 0.43098 0.0
H608 H 0.41041 0.19906 0.48483 0.0
H609 H 0.41337 0.21911 0.46001 0.0
C610 C 0.28564 0.85537 0.78967 0.0
C611 C 0.27996 0.84145 0.77703 0.0
C612 C 0.3057 0.85762 0.80498 0.0
C613 C 0.36768 0.84366 0.82016 0.0
H614 H 0.35509 0.86202 0.87185 0.0
C615 C 0.43651 0.84032 0.88688 0.0
C616 C 0.448 0.85472 0.89817 0.0
C617 C 0.41523 0.83932 0.87285 0.0
C618 C 0.35894 0.85701 0.85742 0.0
H619 H 0.29016 0.81875 0.77096 0.0
H620 H 0.32443 0.82248 0.79781 0.0
H621 H 0.31915 0.85902 0.8458 0.0
H622 H 0.44556 0.87921 0.90403 0.0
H623 H 0.408 0.87741 0.87937 0.0
H624 H 0.40713 0.84137 0.83184 0.0
C625 C 0.31406 0.83188 0.79563 0.0
C626 C 0.33845 0.85532 0.8425 0.0
C627 C 0.29425 0.82969 0.78028 0.0
C628 C 0.43717 0.86799 0.89547 0.0
C629 C 0.41561 0.86693 0.88148 0.0
C630 C 0.38796 0.84523 0.83507 0.0
C631 C 0.32034 0.84596 0.80801 0.0
C632 C 0.34245 0.84845 0.82375 0.0
C633 C 0.40485 0.85267 0.8698 0.0
C634 C 0.38367 0.85174 0.8539 0.0
H635 H 0.27502 0.86467 0.78752 0.0
H636 H 0.3102 0.86866 0.81415 0.0
H637 H 0.37185 0.83872 0.80577 0.0
H638 H 0.44466 0.82996 0.88842 0.0
H639 H 0.40709 0.82812 0.86419 0.0
C640 C 0.80755 0.81904 0.33777 0.0
C641 C 0.8098 0.80392 0.34325 0.0
C642 C 0.81569 0.83251 0.35082 0.0
C643 C 0.82692 0.8441 0.40387 0.0
H644 H 0.86543 0.88625 0.38417 0.0
C645 C 0.86723 0.90054 0.45603 0.0
C646 C 0.8615 0.91478 0.45029 0.0
C647 C 0.86279 0.88711 0.44289 0.0
C648 C 0.85449 0.87458 0.38986 0.0
H649 H 0.82274 0.79119 0.36675 0.0
H650 H 0.83732 0.81483 0.38951 0.0
H651 H 0.8547 0.86253 0.36151 0.0
H652 H 0.84719 0.92618 0.42607 0.0
H653 H 0.83912 0.90265 0.40316 0.0
H654 H 0.8266 0.85617 0.43221 0.0
C655 C 0.82886 0.81617 0.37516 0.0
C656 C 0.84832 0.86099 0.37689 0.0
C657 C 0.82065 0.80264 0.36208 0.0
C658 C 0.85161 0.91536 0.43099 0.0
C659 C 0.84726 0.90193 0.41781 0.0
C660 C 0.83315 0.85769 0.41685 0.0
C661 C 0.82638 0.83126 0.3697 0.0
C662 C 0.83425 0.8456 0.3837 0.0
C663 C 0.85257 0.8876 0.42367 0.0
C664 C 0.84681 0.87311 0.40997 0.0
H665 H 0.79918 0.82047 0.32342 0.0
H666 H 0.81304 0.84387 0.34624 0.0
H667 H 0.81567 0.83247 0.40956 0.0
H668 H 0.87451 0.89961 0.47088 0.0
H669 H 0.86736 0.87632 0.4478 0.0
C670 C 0.72552 0.33567 0.7396 0.0
C671 C 0.72989 0.3206 0.73423 0.0
C672 C 0.7179 0.33908 0.75902 0.0
C673 C 0.71266 0.32489 0.81044 0.0
H674 H 0.64564 0.34126 0.81359 0.0
C675 C 0.63203 0.31352 0.87549 0.0
C676 C 0.61754 0.32514 0.8808 0.0
C677 C 0.65141 0.31582 0.85959 0.0
C678 C 0.66473 0.33702 0.81312 0.0
H679 H 0.7314 0.29767 0.74534 0.0
H680 H 0.71786 0.30354 0.77908 0.0
H681 H 0.67 0.34035 0.78203 0.0
H682 H 0.6132 0.34869 0.87414 0.0
H683 H 0.64756 0.35289 0.84674 0.0
H684 H 0.70676 0.32111 0.8415 0.0
C685 C 0.72048 0.31278 0.76835 0.0
C686 C 0.67872 0.33649 0.79497 0.0
C687 C 0.72804 0.30937 0.74894 0.0
C688 C 0.62408 0.33952 0.87053 0.0
C689 C 0.64354 0.34185 0.85466 0.0
C690 C 0.69868 0.32546 0.82864 0.0
C691 C 0.71458 0.32751 0.7735 0.0
C692 C 0.70243 0.33007 0.79332 0.0
C693 C 0.65684 0.32984 0.84867 0.0
C694 C 0.67414 0.33118 0.83009 0.0
H695 H 0.727 0.34465 0.72866 0.0
H696 H 0.7139 0.35063 0.7626 0.0
H697 H 0.73113 0.3201 0.80969 0.0
H698 H 0.62782 0.30241 0.8833 0.0
H699 H 0.66108 0.30626 0.85532 0.0
C700 C 0.2656 0.88815 0.68052 0.0
C701 C 0.24939 0.8892 0.69773 0.0
C702 C 0.27954 0.90204 0.67055 0.0
C703 C 0.28031 0.94475 0.66532 0.0
H704 H 0.3553 0.94785 0.64171 0.0
C705 C 0.3793 0.99259 0.62146 0.0
C706 C 0.36287 0.99846 0.60825 0.0
C707 C 0.36587 0.98044 0.63426 0.0
C708 C 0.33457 0.94732 0.64845 0.0
H709 H 0.23507 0.90564 0.71798 0.0
H710 H 0.25986 0.9299 0.70086 0.0
H711 H 0.33132 0.92435 0.66029 0.0
H712 H 0.3193 0.99678 0.59897 0.0
H713 H 0.29603 0.97528 0.62073 0.0
H714 H 0.28389 0.96792 0.65387 0.0
C715 C 0.26138 0.91833 0.69481 0.0
C716 C 0.32058 0.93369 0.65885 0.0
C717 C 0.24725 0.90442 0.70469 0.0
C718 C 0.33265 0.99235 0.60872 0.0
C719 C 0.31925 0.98014 0.62141 0.0
C720 C 0.2944 0.95845 0.65503 0.0
C721 C 0.27781 0.91733 0.67766 0.0
C722 C 0.29311 0.93214 0.66722 0.0
C723 C 0.33572 0.97382 0.6341 0.0
C724 C 0.32157 0.95982 0.64627 0.0
H725 H 0.26755 0.87659 0.67472 0.0
H726 H 0.29151 0.90076 0.65718 0.0
H727 H 0.25909 0.94393 0.67143 0.0
H728 H 0.40262 0.99695 0.62142 0.0
H729 H 0.37919 0.97606 0.64408 0.0
C730 C 0.72621 0.75622 0.22366 0.0
C731 C 0.7481 0.77056 0.2279 0.0
C732 C 0.70987 0.75442 0.20638 0.0
C733 C 0.70615 0.77357 0.15828 0.0
H734 H 0.62354 0.75662 0.16581 0.0
C735 C 0.62161 0.79468 0.1171 0.0
C736 C 0.59721 0.78305 0.10933 0.0
C737 C 0.64161 0.79012 0.12845 0.0
C738 C 0.64659 0.76111 0.16336 0.0
H739 H 0.7708 0.79397 0.21691 0.0
H740 H 0.74201 0.79109 0.18731 0.0
H741 H 0.65625 0.75389 0.19162 0.0
H742 H 0.57541 0.75733 0.1071 0.0
H743 H 0.60985 0.74954 0.12783 0.0
H744 H 0.69614 0.78177 0.13057 0.0
C745 C 0.73767 0.78103 0.19699 0.0
C746 C 0.66539 0.75951 0.17811 0.0
C747 C 0.7541 0.78276 0.21412 0.0
C748 C 0.5936 0.76668 0.11309 0.0
C749 C 0.6134 0.76216 0.12481 0.0
C750 C 0.68733 0.77537 0.14369 0.0
C751 C 0.71497 0.76697 0.19305 0.0
C752 C 0.69539 0.76618 0.17603 0.0
C753 C 0.63749 0.77387 0.13265 0.0
C754 C 0.65738 0.76955 0.14636 0.0
H755 H 0.72122 0.74654 0.23392 0.0
H756 H 0.69287 0.74333 0.20368 0.0
H757 H 0.72913 0.77849 0.15593 0.0
H758 H 0.62491 0.80743 0.11504 0.0
H759 H 0.65976 0.79942 0.13463 0.0
C760 C 0.73234 0.20939 0.61942 0.0
C761 C 0.71989 0.21636 0.60482 0.0
C762 C 0.74556 0.19726 0.61426 0.0
C763 C 0.77906 0.18087 0.57193 0.0
H764 H 0.76508 0.14243 0.60239 0.0
C765 C 0.83776 0.13279 0.55313 0.0
C766 C 0.82024 0.11675 0.55165 0.0
C767 C 0.82731 0.14497 0.56202 0.0
C768 C 0.76916 0.1531 0.59375 0.0
H769 H 0.71142 0.21601 0.57338 0.0
H770 H 0.73439 0.19488 0.56441 0.0
H771 H 0.74267 0.16369 0.61266 0.0
H772 H 0.77857 0.10078 0.55945 0.0
H773 H 0.76013 0.12212 0.57474 0.0
H774 H 0.80491 0.17021 0.55274 0.0
C775 C 0.73419 0.19888 0.57982 0.0
C776 C 0.75654 0.16532 0.59971 0.0
C777 C 0.72088 0.21093 0.58498 0.0
C778 C 0.79249 0.11305 0.56015 0.0
C779 C 0.78203 0.12525 0.56908 0.0
C780 C 0.79175 0.16873 0.56603 0.0
C781 C 0.74674 0.19194 0.59439 0.0
C782 C 0.76111 0.17925 0.58872 0.0
C783 C 0.79907 0.14141 0.56964 0.0
C784 C 0.78679 0.15464 0.57677 0.0
H785 H 0.73193 0.21331 0.63485 0.0
H786 H 0.75524 0.19223 0.62579 0.0
H787 H 0.78327 0.19155 0.56328 0.0
H788 H 0.85913 0.13612 0.54658 0.0
H789 H 0.84112 0.15726 0.56248 0.0
C790 C 0.34659 0.32234 0.26822 0.0
C791 C 0.34781 0.33508 0.28221 0.0
C792 C 0.35736 0.32545 0.24908 0.0
C793 C 0.40869 0.3566 0.22078 0.0
H794 H 0.37362 0.32883 0.17592 0.0
C795 C 0.45849 0.36451 0.14234 0.0
C796 C 0.4622 0.35022 0.13326 0.0
C797 C 0.44094 0.36394 0.15912 0.0
C798 C 0.38362 0.3367 0.18831 0.0
H799 H 0.36227 0.36109 0.28706 0.0
H800 H 0.3798 0.36659 0.25346 0.0
H801 H 0.34946 0.32567 0.20807 0.0
H802 H 0.44978 0.32408 0.13463 0.0
H803 H 0.41892 0.32311 0.16355 0.0
H804 H 0.443 0.36748 0.201 0.0
C805 C 0.3706 0.35415 0.25733 0.0
C806 C 0.36987 0.33486 0.20675 0.0
C807 C 0.36001 0.35102 0.27656 0.0
C808 C 0.44705 0.33533 0.14094 0.0
C809 C 0.42937 0.33475 0.15759 0.0
C810 C 0.42232 0.35852 0.20229 0.0
C811 C 0.3696 0.34139 0.24339 0.0
C812 C 0.38257 0.34453 0.22333 0.0
C813 C 0.42654 0.34905 0.16708 0.0
C814 C 0.41025 0.34835 0.18598 0.0
H815 H 0.3375 0.3099 0.27209 0.0
H816 H 0.35675 0.31529 0.23892 0.0
H817 H 0.41932 0.36414 0.23323 0.0
H818 H 0.46946 0.37618 0.13664 0.0
H819 H 0.43888 0.37514 0.16602 0.0
C820 C 0.74935 0.69546 0.62544 0.0
C821 C 0.74046 0.70164 0.60855 0.0
C822 C 0.76729 0.68526 0.62362 0.0
C823 C 0.82114 0.67486 0.59105 0.0
H824 H 0.80225 0.63465 0.6183 0.0
C825 C 0.88703 0.62938 0.57725 0.0
C826 C 0.89319 0.6214 0.59358 0.0
C827 C 0.86696 0.63828 0.57884 0.0
C828 C 0.80808 0.64593 0.61079 0.0
H829 H 0.74363 0.7021 0.57653 0.0
H830 H 0.77535 0.6845 0.57342 0.0
H831 H 0.77077 0.65236 0.62197 0.0
H832 H 0.88194 0.61608 0.62423 0.0
H833 H 0.84792 0.63219 0.62726 0.0
H834 H 0.85879 0.66882 0.58028 0.0
C835 C 0.76833 0.68752 0.58804 0.0
C836 C 0.78998 0.65603 0.61286 0.0
C837 C 0.7501 0.69754 0.58983 0.0
C838 C 0.87813 0.62225 0.61142 0.0
C839 C 0.85828 0.63134 0.61308 0.0
C840 C 0.83941 0.66488 0.58917 0.0
C841 C 0.77701 0.68122 0.6049 0.0
C842 C 0.79629 0.67056 0.60294 0.0
C843 C 0.85276 0.63968 0.59688 0.0
C844 C 0.83307 0.65023 0.59892 0.0
H845 H 0.74223 0.69838 0.64007 0.0
H846 H 0.77386 0.68068 0.63687 0.0
H847 H 0.82673 0.68611 0.58346 0.0
H848 H 0.89839 0.62922 0.56333 0.0
H849 H 0.86286 0.64424 0.56592 0.0
C850 C 0.86581 0.30715 0.34967 0.0
C851 C 0.83725 0.3043 0.34314 0.0
C852 C 0.88037 0.32205 0.35876 0.0
C853 C 0.88015 0.36453 0.35985 0.0
H854 H 0.93273 0.36956 0.40388 0.0
C855 C 0.94079 0.42757 0.39239 0.0
C856 C 0.96998 0.43005 0.39707 0.0
C857 C 0.92301 0.412 0.38802 0.0
C858 C 0.91829 0.36836 0.39147 0.0
H859 H 0.80113 0.31459 0.34205 0.0
H860 H 0.82645 0.34043 0.35795 0.0
H861 H 0.90458 0.34254 0.39253 0.0
H862 H 0.0034 0.41811 0.40087 0.0
H863 H 0.97259 0.39103 0.39302 0.0
H864 H 0.89426 0.39022 0.35835 0.0
C865 C 0.83774 0.33126 0.35575 0.0
C866 C 0.90214 0.35288 0.385 0.0
C867 C 0.82319 0.3164 0.34673 0.0
C868 C 0.98088 0.41659 0.39762 0.0
C869 C 0.96317 0.40104 0.39314 0.0
C870 C 0.89636 0.37998 0.36622 0.0
C871 C 0.86669 0.3344 0.36146 0.0
C872 C 0.88299 0.3508 0.36905 0.0
C873 C 0.93408 0.39855 0.38808 0.0
C874 C 0.91578 0.3821 0.38204 0.0
H875 H 0.87728 0.2981 0.34715 0.0
H876 H 0.90272 0.32412 0.3629 0.0
H877 H 0.86597 0.36333 0.34729 0.0
H878 H 0.93168 0.43769 0.39209 0.0
H879 H 0.90059 0.41051 0.38452 0.0
C880 C 0.12479 0.37783 0.75026 0.0
C881 C 0.14479 0.37123 0.74012 0.0
C882 C 0.11819 0.39137 0.74329 0.0
C883 C 0.14262 0.42518 0.70946 0.0
H884 H 0.06088 0.42111 0.70545 0.0
C885 C 0.09582 0.46165 0.65618 0.0
C886 C 0.07015 0.4655 0.66146 0.0
C887 C 0.10754 0.4526 0.66854 0.0
C888 C 0.08383 0.42268 0.70681 0.0
H889 H 0.1744 0.37405 0.71518 0.0
H890 H 0.16275 0.39761 0.70299 0.0
H891 H 0.07666 0.40076 0.72208 0.0
H892 H 0.03765 0.46361 0.6845 0.0
H893 H 0.05865 0.44838 0.70632 0.0
H894 H 0.14973 0.447 0.69385 0.0
C895 C 0.15231 0.39239 0.71639 0.0
C896 C 0.09287 0.41095 0.71633 0.0
C897 C 0.15885 0.37882 0.72331 0.0
C898 C 0.05752 0.46096 0.67997 0.0
C899 C 0.06934 0.45201 0.69238 0.0
C900 C 0.13357 0.43698 0.7 0.0
C901 C 0.13151 0.39863 0.72609 0.0
C902 C 0.12233 0.41193 0.71751 0.0
C903 C 0.09398 0.44728 0.68654 0.0
C904 C 0.10402 0.43574 0.69829 0.0
H905 H 0.11369 0.37233 0.76332 0.0
H906 H 0.10234 0.39602 0.75123 0.0
H907 H 0.1655 0.42636 0.71034 0.0
H908 H 0.10639 0.46519 0.64218 0.0
H909 H 0.12645 0.44914 0.66349 0.0
C910 C 0.2923 0.76526 0.35842 0.0
C911 C 0.28629 0.77958 0.36538 0.0
C912 C 0.27566 0.75028 0.36461 0.0
C913 C 0.22438 0.73003 0.40273 0.0
H914 H 0.19679 0.69751 0.36067 0.0
C915 C 0.13063 0.67219 0.41348 0.0
C916 C 0.13122 0.65802 0.40261 0.0
C917 C 0.15186 0.6867 0.41053 0.0
C918 C 0.20468 0.7063 0.37269 0.0
H919 H 0.2588 0.78943 0.38498 0.0
H920 H 0.22971 0.76319 0.39584 0.0
H921 H 0.22979 0.72343 0.35289 0.0
H922 H 0.15524 0.64768 0.38093 0.0
H923 H 0.19273 0.67287 0.3761 0.0
H924 H 0.19922 0.71286 0.42255 0.0
C925 C 0.24737 0.7636 0.38559 0.0
C926 C 0.22356 0.7212 0.3682 0.0
C927 C 0.26395 0.77862 0.3793 0.0
C928 C 0.15407 0.65848 0.38932 0.0
C929 C 0.17545 0.67294 0.3865 0.0
C930 C 0.20562 0.71504 0.40727 0.0
C931 C 0.25271 0.74927 0.378 0.0
C932 C 0.2335 0.73326 0.38313 0.0
C933 C 0.17427 0.68732 0.39675 0.0
C934 C 0.19538 0.70301 0.39227 0.0
H935 H 0.30945 0.76555 0.34778 0.0
H936 H 0.28055 0.73945 0.35873 0.0
H937 H 0.2319 0.73905 0.41457 0.0
H938 H 0.11308 0.67222 0.42367 0.0
H939 H 0.15001 0.69754 0.4185 0.0
C940 C 0.71214 0.79285 0.60104 0.0
C941 C 0.72194 0.78729 0.61802 0.0
C942 C 0.72115 0.8092 0.59688 0.0
C943 C 0.77949 0.84654 0.60697 0.0
H944 H 0.72579 0.86649 0.58378 0.0
C945 C 0.81418 0.91287 0.58342 0.0
C946 C 0.80595 0.91501 0.56409 0.0
C947 C 0.80214 0.89831 0.59268 0.0
C948 C 0.74104 0.86108 0.59023 0.0
H949 H 0.75007 0.79443 0.64345 0.0
H950 H 0.76523 0.82311 0.63653 0.0
H951 H 0.70847 0.83899 0.59502 0.0
H952 H 0.77817 0.90347 0.53956 0.0
H953 H 0.75693 0.87839 0.55581 0.0
H954 H 0.81214 0.86859 0.60184 0.0
C955 C 0.7504 0.81481 0.62648 0.0
C956 C 0.73115 0.84531 0.59662 0.0
C957 C 0.74133 0.79841 0.63064 0.0
C958 C 0.78464 0.90246 0.55458 0.0
C959 C 0.77249 0.888 0.56389 0.0
C960 C 0.78937 0.86235 0.60063 0.0
C961 C 0.74033 0.8204 0.60956 0.0
C962 C 0.75037 0.83772 0.60466 0.0
C963 C 0.78144 0.88565 0.58289 0.0
C964 C 0.77036 0.86966 0.5918 0.0
H965 H 0.69732 0.78456 0.59095 0.0
H966 H 0.71345 0.813 0.5835 0.0
H967 H 0.79493 0.84101 0.61291 0.0
H968 H 0.83022 0.92235 0.5913 0.0
H969 H 0.80922 0.89691 0.60744 0.0
C970 C 0.76145 0.30108 0.23745 0.0
C971 C 0.75236 0.28574 0.24549 0.0
C972 C 0.74715 0.30473 0.22133 0.0
C973 C 0.6991 0.28765 0.17958 0.0
H974 H 0.6774 0.32758 0.18611 0.0
C975 C 0.62123 0.30534 0.12619 0.0
C976 C 0.62613 0.32182 0.12258 0.0
C977 C 0.63778 0.30039 0.14007 0.0
C978 C 0.68368 0.31653 0.18383 0.0
H979 H 0.72186 0.26195 0.24233 0.0
H980 H 0.69691 0.26836 0.21391 0.0
H981 H 0.70439 0.31979 0.21201 0.0
H982 H 0.653 0.34595 0.13053 0.0
H983 H 0.68256 0.3373 0.15387 0.0
H984 H 0.67867 0.2845 0.15123 0.0
C985 C 0.71512 0.27753 0.22022 0.0
C986 C 0.69906 0.31204 0.19875 0.0
C987 C 0.72933 0.2739 0.23651 0.0
C988 C 0.64871 0.33315 0.13269 0.0
C989 C 0.66541 0.32819 0.14638 0.0
C990 C 0.68391 0.29223 0.1645 0.0
C991 C 0.72355 0.2931 0.21276 0.0
C992 C 0.70702 0.2976 0.19678 0.0
C993 C 0.65979 0.31179 0.15058 0.0
C994 C 0.67609 0.30678 0.16642 0.0
H995 H 0.77921 0.31047 0.2439 0.0
H996 H 0.75437 0.31676 0.2157 0.0
H997 H 0.70512 0.27649 0.17766 0.0
H998 H 0.60436 0.29623 0.11846 0.0
H999 H 0.63272 0.28766 0.14297 0.0
C1000 C 0.27752 0.24907 0.72442 0.0
C1001 C 0.28187 0.26519 0.71937 0.0
C1002 C 0.28853 0.23853 0.71244 0.0
C1003 C 0.3413 0.23697 0.67249 0.0
H1004 H 0.28855 0.19486 0.65973 0.0
C1005 C 0.35817 0.19638 0.60568 0.0
C1006 C 0.34949 0.17954 0.60742 0.0
C1007 C 0.35284 0.20663 0.62098 0.0
C1008 C 0.30379 0.20644 0.66338 0.0
H1009 H 0.30203 0.28302 0.69808 0.0
H1010 H 0.32109 0.26461 0.67712 0.0
H1011 H 0.27412 0.21316 0.68355 0.0
H1012 H 0.32965 0.16029 0.62699 0.0
H1013 H 0.32057 0.17818 0.65381 0.0
H1014 H 0.37084 0.2303 0.65209 0.0
C1015 C 0.30933 0.26014 0.69043 0.0
C1016 C 0.29548 0.21695 0.67704 0.0
C1017 C 0.29824 0.27067 0.70239 0.0
C1018 C 0.33621 0.1732 0.62509 0.0
C1019 C 0.33097 0.18345 0.64043 0.0
C1020 C 0.34967 0.22642 0.65885 0.0
C1021 C 0.30423 0.24389 0.69516 0.0
C1022 C 0.31399 0.2324 0.6816 0.0
C1023 C 0.33876 0.20028 0.63843 0.0
C1024 C 0.33087 0.2111 0.65396 0.0
H1025 H 0.26514 0.24447 0.73746 0.0
H1026 H 0.28457 0.22614 0.71663 0.0
H1027 H 0.3562 0.24871 0.67588 0.0
H1028 H 0.36809 0.20164 0.59215 0.0
H1029 H 0.35877 0.21949 0.6188 0.0
C1030 C 0.40105 0.8435 0.28701 0.0
C1031 C 0.37295 0.8438 0.29238 0.0
C1032 C 0.41033 0.84526 0.26737 0.0
C1033 C 0.42929 0.85484 0.22576 0.0
H1034 H 0.37493 0.82973 0.18686 0.0
C1035 C 0.4631 0.84708 0.14443 0.0
C1036 C 0.45424 0.83114 0.13643 0.0
C1037 C 0.45114 0.8513 0.16217 0.0
C1038 C 0.39037 0.83682 0.19753 0.0
H1039 H 0.33305 0.84704 0.28144 0.0
H1040 H 0.34942 0.85032 0.24714 0.0
H1041 H 0.35899 0.83268 0.22081 0.0
H1042 H 0.42561 0.8072 0.14069 0.0
H1043 H 0.40493 0.81449 0.17151 0.0
H1044 H 0.46106 0.8582 0.20273 0.0
C1045 C 0.36409 0.84843 0.25811 0.0
C1046 C 0.38114 0.83869 0.21696 0.0
C1047 C 0.35477 0.84662 0.27778 0.0
C1048 C 0.43257 0.81965 0.14624 0.0
C1049 C 0.42068 0.82385 0.16395 0.0
C1050 C 0.43854 0.85293 0.20634 0.0
C1051 C 0.39178 0.84743 0.2526 0.0
C1052 C 0.40067 0.84738 0.23144 0.0
C1053 C 0.4301 0.83965 0.17229 0.0
C1054 C 0.41936 0.84354 0.19212 0.0
H1055 H 0.41565 0.84136 0.29787 0.0
H1056 H 0.43165 0.84421 0.26365 0.0
H1057 H 0.44477 0.86182 0.23648 0.0
H1058 H 0.4795 0.85626 0.13708 0.0
H1059 H 0.4586 0.86363 0.16807 0.0
C1060 C 0.84195 0.20599 0.33408 0.0
C1061 C 0.81721 0.21153 0.33546 0.0
C1062 C 0.8432 0.19233 0.34396 0.0
C1063 C 0.81031 0.16762 0.38594 0.0
H1064 H 0.84893 0.13734 0.36261 0.0
C1065 C 0.81537 0.11141 0.42663 0.0
C1066 C 0.84273 0.10872 0.42733 0.0
C1067 C 0.81006 0.12237 0.41364 0.0
C1068 C 0.83818 0.14573 0.36935 0.0
H1069 H 0.77413 0.20684 0.34797 0.0
H1070 H 0.77616 0.1829 0.36497 0.0
H1071 H 0.84377 0.15964 0.34342 0.0
H1072 H 0.88545 0.11474 0.41414 0.0
H1073 H 0.87629 0.13399 0.3916 0.0
H1074 H 0.805 0.15385 0.41192 0.0
C1075 C 0.79481 0.18927 0.35653 0.0
C1076 C 0.83528 0.15853 0.35838 0.0
C1077 C 0.79359 0.20296 0.3467 0.0
C1078 C 0.86424 0.11667 0.41409 0.0
C1079 C 0.8589 0.1276 0.40105 0.0
C1080 C 0.81315 0.15481 0.39687 0.0
C1081 C 0.81971 0.18385 0.35541 0.0
C1082 C 0.82155 0.16973 0.36662 0.0
C1083 C 0.83196 0.13086 0.40101 0.0
C1084 C 0.82734 0.1438 0.38878 0.0
H1085 H 0.86055 0.21233 0.32558 0.0
H1086 H 0.86287 0.18865 0.34298 0.0
H1087 H 0.80005 0.17615 0.39289 0.0
H1088 H 0.79839 0.10561 0.43674 0.0
H1089 H 0.78895 0.12445 0.41377 0.0
C1090 C 0.26897 0.32506 0.77871 0.0
C1091 C 0.24082 0.32276 0.78605 0.0
C1092 C 0.29142 0.32487 0.79139 0.0
C1093 C 0.31125 0.32844 0.84466 0.0
H1094 H 0.37028 0.30874 0.82574 0.0
C1095 C 0.39594 0.31481 0.89576 0.0
C1096 C 0.42459 0.31924 0.88886 0.0
C1097 C 0.37342 0.31556 0.88344 0.0
C1098 C 0.35406 0.31439 0.83117 0.0
H1099 H 0.21401 0.31869 0.81237 0.0
H1100 H 0.25294 0.31792 0.83446 0.0
H1101 H 0.33109 0.3093 0.80382 0.0
H1102 H 0.4521 0.32773 0.86365 0.0
H1103 H 0.41275 0.32896 0.84213 0.0
H1104 H 0.3341 0.3332 0.87218 0.0
C1105 C 0.25793 0.32015 0.819 0.0
C1106 C 0.33163 0.31477 0.81859 0.0
C1107 C 0.23556 0.32049 0.80634 0.0
C1108 C 0.43026 0.3244 0.86942 0.0
C1109 C 0.40774 0.32496 0.85706 0.0
C1110 C 0.33354 0.3279 0.8573 0.0
C1111 C 0.28616 0.32231 0.81169 0.0
C1112 C 0.30998 0.32185 0.82514 0.0
C1113 C 0.37909 0.32052 0.86392 0.0
C1114 C 0.35522 0.32093 0.85064 0.0
H1115 H 0.27381 0.32737 0.76326 0.0
H1116 H 0.31298 0.32698 0.7853 0.0
H1117 H 0.29527 0.33423 0.85013 0.0
H1118 H 0.39099 0.31086 0.91071 0.0
H1119 H 0.35151 0.31197 0.88907 0.0
C1120 C 0.36042 0.88231 0.40068 0.0
C1121 C 0.38308 0.87622 0.39375 0.0
C1122 C 0.36622 0.89701 0.41159 0.0
C1123 C 0.42179 0.93528 0.42123 0.0
H1124 H 0.38055 0.93705 0.47065 0.0
C1125 C 0.42454 0.99451 0.46717 0.0
C1126 C 0.42851 0.99402 0.48765 0.0
C1127 C 0.42039 0.98048 0.455 0.0
C1128 C 0.39227 0.93672 0.4569 0.0
H1129 H 0.42962 0.8809 0.39255 0.0
H1130 H 0.43971 0.90669 0.41143 0.0
H1131 H 0.37008 0.91184 0.45058 0.0
H1132 H 0.43134 0.97852 0.51142 0.0
H1133 H 0.424 0.95409 0.49021 0.0
H1134 H 0.44391 0.96024 0.42759 0.0
C1135 C 0.41749 0.90005 0.40843 0.0
C1136 C 0.38611 0.92234 0.44535 0.0
C1137 C 0.41168 0.88524 0.39775 0.0
C1138 C 0.42871 0.97932 0.49566 0.0
C1139 C 0.42421 0.9653 0.48356 0.0
C1140 C 0.42767 0.94975 0.43267 0.0
C1141 C 0.39481 0.90603 0.41555 0.0
C1142 C 0.40093 0.92145 0.42747 0.0
C1143 C 0.41966 0.9657 0.46317 0.0
C1144 C 0.41313 0.95056 0.45069 0.0
H1145 H 0.33816 0.87565 0.39783 0.0
H1146 H 0.34834 0.9014 0.4168 0.0
H1147 H 0.43339 0.93493 0.40744 0.0
H1148 H 0.42433 0.00569 0.46062 0.0
H1149 H 0.41683 0.98109 0.43932 0.0
C1150 C 0.7013 0.80237 0.7354 0.0
C1151 C 0.67913 0.79522 0.72184 0.0
C1152 C 0.69473 0.80717 0.75456 0.0
C1153 C 0.63524 0.79917 0.79102 0.0
H1154 H 0.67606 0.84068 0.81539 0.0
C1155 C 0.58821 0.82695 0.85706 0.0
C1156 C 0.60643 0.83417 0.87292 0.0
C1157 C 0.59949 0.82215 0.83948 0.0
C1158 C 0.66476 0.82896 0.80888 0.0
H1159 H 0.63274 0.78783 0.71765 0.0
H1160 H 0.62138 0.79628 0.75085 0.0
H1161 H 0.69145 0.8324 0.78285 0.0
H1162 H 0.65099 0.84234 0.88252 0.0
H1163 H 0.67084 0.834 0.85149 0.0
H1164 H 0.60829 0.79579 0.81677 0.0
C1165 C 0.64381 0.79795 0.74684 0.0
C1166 C 0.67354 0.82422 0.79026 0.0
C1167 C 0.65035 0.7932 0.72774 0.0
C1168 C 0.63639 0.83685 0.87056 0.0
C1169 C 0.64775 0.83207 0.85283 0.0
C1170 C 0.62649 0.80389 0.80953 0.0
C1171 C 0.66588 0.80484 0.76054 0.0
C1172 C 0.65845 0.80942 0.78097 0.0
C1173 C 0.62932 0.8245 0.83721 0.0
C1174 C 0.64073 0.81898 0.81848 0.0
H1175 H 0.72371 0.8041 0.73129 0.0
H1176 H 0.71219 0.81239 0.76482 0.0
H1177 H 0.62361 0.78752 0.78447 0.0
H1178 H 0.56512 0.82512 0.85814 0.0
H1179 H 0.58479 0.81671 0.82755 0.0
loop_
_geom_bond_atom_site_label_1
_geom_bond_atom_site_label_2
_geom_bond_distance
_geom_bond_site_symmetry_2
_ccdc_geom_bond_type
O0 Cd1 2.300 . S
O0 C7 1.275 . S
Cd1 O0 2.300 . S
Cd1 O9 2.381 . S
Cd1 O10 2.378 . S
O2 Cd3 2.385 . S
O2 C7 1.255 . S
Cd3 O2 2.385 . S
Cd3 O4 2.317 . S
O4 Cd3 2.317 . S
O4 C5 1.232 . S
C5 O4 1.232 . S
C5 O6 1.218 . S
O6 C5 1.218 . S
C7 O0 1.275 . S
C7 O2 1.255 . S
C8 O9 1.258 . S
C8 O10 1.256 . S
O9 Cd1 2.381 . S
O9 C8 1.258 . S
O10 Cd1 2.378 . S
O10 C8 1.256 . S
O11 Cd12 2.300 . S
O11 C18 1.275 . S
Cd12 O11 2.300 . S
Cd12 O20 2.381 . S
Cd12 O21 2.378 . S
O13 Cd14 2.385 . S
O13 C18 1.255 . S
Cd14 O13 2.385 . S
Cd14 O15 2.317 . S
O15 Cd14 2.317 . S
O15 C16 1.232 . S
C16 O15 1.232 . S
C16 O17 1.218 . S
O17 C16 1.218 . S
C18 O11 1.275 . S
C18 O13 1.255 . S
C19 O20 1.258 . S
C19 O21 1.256 . S
O20 Cd12 2.381 . S
O20 C19 1.258 . S
O21 Cd12 2.378 . S
O21 C19 1.256 . S
O22 Cd23 2.300 . S
O22 C29 1.275 . S
Cd23 O22 2.300 . S
Cd23 O31 2.381 . S
Cd23 O32 2.378 . S
O24 Cd25 2.385 . S
O24 C29 1.255 . S
Cd25 O24 2.385 . S
Cd25 O26 2.317 . S
O26 Cd25 2.317 . S
O26 C27 1.232 . S
C27 O26 1.232 . S
C27 O28 1.218 . S
O28 C27 1.218 . S
C29 O22 1.275 . S
C29 O24 1.255 . S
C30 O31 1.258 . S
C30 O32 1.256 . S
O31 Cd23 2.381 . S
O31 C30 1.258 . S
O32 Cd23 2.378 . S
O32 C30 1.256 . S
O33 Cd34 2.300 . S
O33 C40 1.275 . S
Cd34 O33 2.300 . S
Cd34 O42 2.381 . S
Cd34 O43 2.378 . S
O35 Cd36 2.385 . S
O35 C40 1.255 . S
Cd36 O35 2.385 . S
Cd36 O37 2.317 . S
O37 Cd36 2.317 . S
O37 C38 1.232 . S
C38 O37 1.232 . S
C38 O39 1.218 . S
O39 C38 1.218 . S
C40 O33 1.275 . S
C40 O35 1.255 . S
C41 O42 1.258 . S
C41 O43 1.256 . S
O42 Cd34 2.381 . S
O42 C41 1.258 . S
O43 Cd34 2.378 . S
O43 C41 1.256 . S
O44 Cd45 2.300 . S
O44 C51 1.275 . S
Cd45 O44 2.300 . S
Cd45 O53 2.381 . S
Cd45 O54 2.378 . S
O46 Cd47 2.385 . S
O46 C51 1.255 . S
Cd47 O46 2.385 . S
Cd47 O48 2.317 . S
O48 Cd47 2.317 . S
O48 C49 1.232 . S
C49 O48 1.232 . S
C49 O50 1.218 . S
O50 C49 1.218 . S
C51 O44 1.275 . S
C51 O46 1.255 . S
C52 O53 1.258 . S
C52 O54 1.256 . S
O53 Cd45 2.381 . S
O53 C52 1.258 . S
O54 Cd45 2.378 . S
O54 C52 1.256 . S
O55 Cd56 2.300 . S
O55 C62 1.275 . S
Cd56 O55 2.300 . S
Cd56 O64 2.381 . S
Cd56 O65 2.378 . S
O57 Cd58 2.385 . S
O57 C62 1.255 . S
Cd58 O57 2.385 . S
Cd58 O59 2.317 . S
O59 Cd58 2.317 . S
O59 C60 1.232 . S
C60 O59 1.232 . S
C60 O61 1.218 . S
O61 C60 1.218 . S
C62 O55 1.275 . S
C62 O57 1.255 . S
C63 O64 1.258 . S
C63 O65 1.256 . S
O64 Cd56 2.381 . S
O64 C63 1.258 . S
O65 Cd56 2.378 . S
O65 C63 1.256 . S
O66 Cd67 2.300 . S
O66 C73 1.275 . S
Cd67 O66 2.300 . S
Cd67 O75 2.381 . S
Cd67 O76 2.378 . S
O68 Cd69 2.385 . S
O68 C73 1.255 . S
Cd69 O68 2.385 . S
Cd69 O70 2.317 . S
O70 Cd69 2.317 . S
O70 C71 1.232 . S
C71 O70 1.232 . S
C71 O72 1.218 . S
O72 C71 1.218 . S
C73 O66 1.275 . S
C73 O68 1.255 . S
C74 O75 1.258 . S
C74 O76 1.256 . S
O75 Cd67 2.381 . S
O75 C74 1.258 . S
O76 Cd67 2.378 . S
O76 C74 1.256 . S
O77 Cd78 2.300 . S
O77 C84 1.275 . S
Cd78 O77 2.300 . S
Cd78 O86 2.381 . S
Cd78 O87 2.378 . S
O79 Cd80 2.385 . S
O79 C84 1.255 . S
Cd80 O79 2.385 . S
Cd80 O81 2.317 . S
O81 Cd80 2.317 . S
O81 C82 1.232 . S
C82 O81 1.232 . S
C82 O83 1.218 . S
O83 C82 1.218 . S
C84 O77 1.275 . S
C84 O79 1.255 . S
C85 O86 1.258 . S
C85 O87 1.256 . S
O86 Cd78 2.381 . S
O86 C85 1.258 . S
O87 Cd78 2.378 . S
O87 C85 1.256 . S
H88 C115 0.929 . S
N89 C114 1.433 . S
N89 C120 1.435 . S
N89 C126 1.423 . S
H90 C116 0.930 . S
H91 C119 0.931 . S
H92 C118 0.929 . S
H93 C121 0.930 . S
H94 C122 0.932 . S
H95 C125 0.929 . S
H96 C124 0.931 . S
H97 C127 0.929 . S
H98 C131 0.932 . S
H99 C128 0.931 . S
H100 C130 0.929 . S
H101 C133 0.929 . S
H102 C134 0.930 . S
H103 C136 0.929 . S
H104 C137 0.931 . S
H105 C139 0.930 . S
H106 C140 0.932 . S
H107 C142 0.931 . S
H108 C143 0.929 . S
H109 C145 0.929 . S
H110 C146 0.931 . S
H111 C148 0.929 . S
N112 C132 1.433 . S
N112 C138 1.435 . S
N112 C144 1.423 . S
H113 C149 0.932 . S
C114 N89 1.433 . S
C114 C115 1.363 . S
C114 C119 1.370 . S
C115 H88 0.929 . S
C115 C114 1.363 . S
C115 C116 1.385 1_455 S
C116 H90 0.930 . S
C116 C115 1.385 1_655 S
C116 C117 1.357 . S
C117 C116 1.357 . S
C117 C118 1.406 . S
C118 H92 0.929 . S
C118 C117 1.406 . S
C118 C119 1.391 1_655 S
C119 H91 0.931 . S
C119 C114 1.370 . S
C119 C118 1.391 1_455 S
C120 N89 1.435 . S
C120 C121 1.358 . S
C120 C125 1.371 . S
C121 H93 0.930 . S
C121 C120 1.358 . S
C121 C122 1.405 . S
C122 H94 0.932 . S
C122 C121 1.405 . S
C122 C123 1.383 . S
C123 C122 1.383 . S
C123 C124 1.393 . S
C124 H96 0.931 . S
C124 C123 1.393 . S
C124 C125 1.382 . S
C125 H95 0.929 . S
C125 C120 1.371 . S
C125 C124 1.382 . S
C126 N89 1.423 . S
C126 C127 1.362 . S
C126 C131 1.388 . S
C127 H97 0.929 . S
C127 C126 1.362 . S
C127 C128 1.376 . S
C128 H99 0.931 . S
C128 C127 1.376 . S
C128 C129 1.396 . S
C129 C128 1.396 . S
C129 C130 1.348 . S
C129 C147 1.472 . S
C130 H100 0.929 . S
C130 C129 1.348 . S
C130 C131 1.443 . S
C131 H98 0.932 . S
C131 C126 1.388 . S
C131 C130 1.443 . S
C132 N112 1.433 . S
C132 C133 1.363 . S
C132 C137 1.370 . S
C133 H101 0.929 . S
C133 C132 1.363 . S
C133 C134 1.385 1_455 S
C134 H102 0.930 . S
C134 C133 1.385 1_655 S
C134 C135 1.357 . S
C135 C134 1.357 . S
C135 C136 1.406 . S
C136 H103 0.929 . S
C136 C135 1.406 . S
C136 C137 1.391 1_655 S
C137 H104 0.931 . S
C137 C132 1.370 . S
C137 C136 1.391 1_455 S
C138 N112 1.435 . S
C138 C139 1.358 . S
C138 C143 1.371 . S
C139 H105 0.930 . S
C139 C138 1.358 . S
C139 C140 1.405 . S
C140 H106 0.932 . S
C140 C139 1.405 . S
C140 C141 1.383 . S
C141 C140 1.383 . S
C141 C142 1.393 . S
C142 H107 0.931 . S
C142 C141 1.393 . S
C142 C143 1.382 . S
C143 H108 0.929 . S
C143 C138 1.371 . S
C143 C142 1.382 . S
C144 N112 1.423 . S
C144 C145 1.362 . S
C144 C149 1.388 . S
C145 H109 0.929 . S
C145 C144 1.362 . S
C145 C146 1.376 . S
C146 H110 0.931 . S
C146 C145 1.376 . S
C146 C147 1.396 . S
C147 C129 1.472 . S
C147 C146 1.396 . S
C147 C148 1.348 . S
C148 H111 0.929 . S
C148 C147 1.348 . S
C148 C149 1.443 . S
C149 H113 0.932 . S
C149 C144 1.388 . S
C149 C148 1.443 . S
H150 C177 0.929 . S
N151 C176 1.433 1_455 S
N151 C182 1.435 . S
N151 C188 1.423 . S
H152 C178 0.930 . S
H153 C181 0.931 . S
H154 C180 0.929 . S
H155 C183 0.930 . S
H156 C184 0.932 . S
H157 C187 0.929 . S
H158 C186 0.931 . S
H159 C189 0.929 . S
H160 C193 0.932 . S
H161 C190 0.931 . S
H162 C192 0.929 . S
H163 C195 0.929 . S
H164 C196 0.930 . S
H165 C198 0.929 . S
H166 C199 0.931 . S
H167 C201 0.930 . S
H168 C202 0.932 . S
H169 C204 0.931 . S
H170 C205 0.929 . S
H171 C207 0.929 . S
H172 C208 0.931 . S
H173 C210 0.929 . S
N174 C194 1.433 1_455 S
N174 C200 1.435 . S
N174 C206 1.423 . S
H175 C211 0.932 . S
C176 N151 1.433 1_655 S
C176 C177 1.363 . S
C176 C181 1.370 . S
C177 H150 0.929 . S
C177 C176 1.363 . S
C177 C178 1.385 . S
C178 H152 0.930 . S
C178 C177 1.385 . S
C178 C179 1.357 . S
C179 C178 1.357 . S
C179 C180 1.406 . S
C180 H154 0.929 . S
C180 C179 1.406 . S
C180 C181 1.391 . S
C181 H153 0.931 . S
C181 C176 1.370 . S
C181 C180 1.391 . S
C182 N151 1.435 . S
C182 C183 1.358 . S
C182 C187 1.371 . S
C183 H155 0.930 . S
C183 C182 1.358 . S
C183 C184 1.405 . S
C184 H156 0.932 . S
C184 C183 1.405 . S
C184 C185 1.383 . S
C185 C184 1.383 . S
C185 C186 1.393 . S
C186 H158 0.931 . S
C186 C185 1.393 . S
C186 C187 1.382 . S
C187 H157 0.929 . S
C187 C182 1.371 . S
C187 C186 1.382 . S
C188 N151 1.423 . S
C188 C189 1.362 1_455 S
C188 C193 1.388 . S
C189 H159 0.929 . S
C189 C188 1.362 1_655 S
C189 C190 1.376 . S
C190 H161 0.931 . S
C190 C189 1.376 . S
C190 C191 1.396 1_655 S
C191 C190 1.396 1_455 S
C191 C192 1.348 . S
C191 C209 1.472 . S
C192 H162 0.929 . S
C192 C191 1.348 . S
C192 C193 1.443 . S
C193 H160 0.932 . S
C193 C188 1.388 . S
C193 C192 1.443 . S
C194 N174 1.433 1_655 S
C194 C195 1.363 . S
C194 C199 1.370 . S
C195 H163 0.929 . S
C195 C194 1.363 . S
C195 C196 1.385 . S
C196 H164 0.930 . S
C196 C195 1.385 . S
C196 C197 1.357 . S
C197 C196 1.357 . S
C197 C198 1.406 . S
C198 H165 0.929 . S
C198 C197 1.406 . S
C198 C199 1.391 . S
C199 H166 0.931 . S
C199 C194 1.370 . S
C199 C198 1.391 . S
C200 N174 1.435 . S
C200 C201 1.358 . S
C200 C205 1.371 . S
C201 H167 0.930 . S
C201 C200 1.358 . S
C201 C202 1.405 . S
C202 H168 0.932 . S
C202 C201 1.405 . S
C202 C203 1.383 . S
C203 C202 1.383 . S
C203 C204 1.393 . S
C204 H169 0.931 . S
C204 C203 1.393 . S
C204 C205 1.382 . S
C205 H170 0.929 . S
C205 C200 1.371 . S
C205 C204 1.382 . S
C206 N174 1.423 . S
C206 C207 1.362 1_455 S
C206 C211 1.388 . S
C207 H171 0.929 . S
C207 C206 1.362 1_655 S
C207 C208 1.376 . S
C208 H172 0.931 . S
C208 C207 1.376 . S
C208 C209 1.396 1_655 S
C209 C191 1.472 . S
C209 C208 1.396 1_455 S
C209 C210 1.348 . S
C210 H173 0.929 . S
C210 C209 1.348 . S
C210 C211 1.443 . S
C211 H175 0.932 . S
C211 C206 1.388 . S
C211 C210 1.443 . S
H212 C239 0.929 . S
N213 C238 1.433 . S
N213 C244 1.435 . S
N213 C250 1.423 . S
H214 C240 0.930 . S
H215 C243 0.931 . S
H216 C242 0.929 . S
H217 C245 0.930 . S
H218 C246 0.932 . S
H219 C249 0.929 . S
H220 C248 0.931 . S
H221 C251 0.929 . S
H222 C255 0.932 . S
H223 C252 0.931 . S
H224 C254 0.929 . S
H225 C257 0.929 . S
H226 C258 0.930 . S
H227 C260 0.929 . S
H228 C261 0.931 . S
H229 C263 0.930 . S
H230 C264 0.932 . S
H231 C266 0.931 . S
H232 C267 0.929 . S
H233 C269 0.929 . S
H234 C270 0.931 . S
H235 C272 0.929 . S
N236 C256 1.433 . S
N236 C262 1.435 . S
N236 C268 1.423 . S
H237 C273 0.932 . S
C238 N213 1.433 . S
C238 C239 1.363 . S
C238 C243 1.370 . S
C239 H212 0.929 . S
C239 C238 1.363 . S
C239 C240 1.385 . S
C240 H214 0.930 . S
C240 C239 1.385 . S
C240 C241 1.357 . S
C241 C240 1.357 . S
C241 C242 1.406 . S
C242 H216 0.929 . S
C242 C241 1.406 . S
C242 C243 1.391 . S
C243 H215 0.931 . S
C243 C238 1.370 . S
C243 C242 1.391 . S
C244 N213 1.435 . S
C244 C245 1.358 . S
C244 C249 1.371 . S
C245 H217 0.930 . S
C245 C244 1.358 . S
C245 C246 1.405 . S
C246 H218 0.932 . S
C246 C245 1.405 . S
C246 C247 1.383 . S
C247 C246 1.383 . S
C247 C248 1.393 . S
C248 H220 0.931 . S
C248 C247 1.393 . S
C248 C249 1.382 . S
C249 H219 0.929 . S
C249 C244 1.371 . S
C249 C248 1.382 . S
C250 N213 1.423 . S
C250 C251 1.362 . S
C250 C255 1.388 . S
C251 H221 0.929 . S
C251 C250 1.362 . S
C251 C252 1.376 . S
C252 H223 0.931 . S
C252 C251 1.376 . S
C252 C253 1.396 . S
C253 C252 1.396 . S
C253 C254 1.348 . S
C253 C271 1.472 . S
C254 H224 0.929 . S
C254 C253 1.348 . S
C254 C255 1.443 . S
C255 H222 0.932 . S
C255 C250 1.388 . S
C255 C254 1.443 . S
C256 N236 1.433 . S
C256 C257 1.363 . S
C256 C261 1.370 . S
C257 H225 0.929 . S
C257 C256 1.363 . S
C257 C258 1.385 . S
C258 H226 0.930 . S
C258 C257 1.385 . S
C258 C259 1.357 . S
C259 C258 1.357 . S
C259 C260 1.406 . S
C260 H227 0.929 . S
C260 C259 1.406 . S
C260 C261 1.391 . S
C261 H228 0.931 . S
C261 C256 1.370 . S
C261 C260 1.391 . S
C262 N236 1.435 . S
C262 C263 1.358 . S
C262 C267 1.371 . S
C263 H229 0.930 . S
C263 C262 1.358 . S
C263 C264 1.405 . S
C264 H230 0.932 . S
C264 C263 1.405 . S
C264 C265 1.383 . S
C265 C264 1.383 . S
C265 C266 1.393 . S
C266 H231 0.931 . S
C266 C265 1.393 . S
C266 C267 1.382 . S
C267 H232 0.929 . S
C267 C262 1.371 . S
C267 C266 1.382 . S
C268 N236 1.423 . S
C268 C269 1.362 . S
C268 C273 1.388 . S
C269 H233 0.929 . S
C269 C268 1.362 . S
C269 C270 1.376 . S
C270 H234 0.931 . S
C270 C269 1.376 . S
C270 C271 1.396 . S
C271 C253 1.472 . S
C271 C270 1.396 . S
C271 C272 1.348 . S
C272 H235 0.929 . S
C272 C271 1.348 . S
C272 C273 1.443 . S
C273 H237 0.932 . S
C273 C268 1.388 . S
C273 C272 1.443 . S
H274 C301 0.929 . S
N275 C300 1.433 . S
N275 C306 1.435 . S
N275 C312 1.423 . S
H276 C302 0.930 . S
H277 C305 0.931 . S
H278 C304 0.929 . S
H279 C307 0.930 . S
H280 C308 0.932 . S
H281 C311 0.929 . S
H282 C310 0.931 . S
H283 C313 0.929 . S
H284 C317 0.932 . S
H285 C314 0.931 . S
H286 C316 0.929 . S
H287 C319 0.929 . S
H288 C320 0.930 . S
H289 C322 0.929 . S
H290 C323 0.931 . S
H291 C325 0.930 . S
H292 C326 0.932 . S
H293 C328 0.931 . S
H294 C329 0.929 . S
H295 C331 0.929 . S
H296 C332 0.931 . S
H297 C334 0.942 . S
N298 C318 1.433 . S
N298 C324 1.435 . S
N298 C330 1.423 . S
H299 C335 0.932 . S
C300 N275 1.433 . S
C300 C301 1.363 . S
C300 C305 1.370 . S
C301 H274 0.929 . S
C301 C300 1.363 . S
C301 C302 1.385 . S
C302 H276 0.930 . S
C302 C301 1.385 . S
C302 C303 1.357 . S
C303 C302 1.357 . S
C303 C304 1.406 . S
C304 H278 0.929 . S
C304 C303 1.406 . S
C304 C305 1.391 . S
C305 H277 0.931 . S
C305 C300 1.370 . S
C305 C304 1.391 . S
C306 N275 1.435 . S
C306 C307 1.358 . S
C306 C311 1.371 . S
C307 H279 0.930 . S
C307 C306 1.358 . S
C307 C308 1.405 . S
C308 H280 0.932 . S
C308 C307 1.405 . S
C308 C309 1.383 . S
C309 C308 1.383 . S
C309 C310 1.393 . S
C310 H282 0.931 . S
C310 C309 1.393 . S
C310 C311 1.382 . S
C311 H281 0.929 . S
C311 C306 1.371 . S
C311 C310 1.382 . S
C312 N275 1.423 . S
C312 C313 1.362 . S
C312 C317 1.388 . S
C313 H283 0.929 . S
C313 C312 1.362 . S
C313 C314 1.376 . S
C314 H285 0.931 . S
C314 C313 1.376 . S
C314 C315 1.396 . S
C315 C314 1.396 . S
C315 C316 1.348 . S
C315 C333 1.493 . S
C316 H286 0.929 . S
C316 C315 1.348 . S
C316 C317 1.443 . S
C317 H284 0.932 . S
C317 C312 1.388 . S
C317 C316 1.443 . S
C318 N298 1.433 . S
C318 C319 1.363 . S
C318 C323 1.370 . S
C319 H287 0.929 . S
C319 C318 1.363 . S
C319 C320 1.385 . S
C320 H288 0.930 . S
C320 C319 1.385 . S
C320 C321 1.357 . S
C321 C320 1.357 . S
C321 C322 1.406 . S
C322 H289 0.929 . S
C322 C321 1.406 . S
C322 C323 1.391 . S
C323 H290 0.931 . S
C323 C318 1.370 . S
C323 C322 1.391 . S
C324 N298 1.435 . S
C324 C325 1.358 . S
C324 C329 1.371 . S
C325 H291 0.930 . S
C325 C324 1.358 . S
C325 C326 1.405 . S
C326 H292 0.932 . S
C326 C325 1.405 . S
C326 C327 1.383 . S
C327 C326 1.383 . S
C327 C328 1.393 . S
C328 H293 0.931 . S
C328 C327 1.393 . S
C328 C329 1.382 . S
C329 H294 0.929 . S
C329 C324 1.371 . S
C329 C328 1.382 . S
C330 N298 1.423 . S
C330 C331 1.362 . S
C330 C335 1.388 . S
C331 H295 0.929 . S
C331 C330 1.362 . S
C331 C332 1.376 . S
C332 H296 0.931 . S
C332 C331 1.376 . S
C332 C333 1.384 1_556 S
C333 C315 1.493 . S
C333 C332 1.384 1_554 S
C333 C334 1.338 1_554 S
C334 H297 0.942 . S
C334 C333 1.338 1_556 S
C334 C335 1.443 . S
C335 H299 0.932 . S
C335 C330 1.388 . S
C335 C334 1.443 . S
H336 C363 0.929 . S
N337 C362 1.433 . S
N337 C368 1.435 . S
N337 C374 1.423 . S
H338 C364 0.930 . S
H339 C367 0.931 . S
H340 C366 0.929 . S
H341 C369 0.930 . S
H342 C370 0.932 . S
H343 C373 0.929 . S
H344 C372 0.931 . S
H345 C375 0.929 . S
H346 C379 0.932 . S
H347 C376 0.931 . S
H348 C378 0.929 . S
H349 C381 0.929 . S
H350 C382 0.930 . S
H351 C384 0.929 . S
H352 C385 0.931 . S
H353 C387 0.930 . S
H354 C388 0.932 . S
H355 C390 0.931 . S
H356 C391 0.929 . S
H357 C393 0.929 . S
H358 C394 0.931 . S
H359 C396 0.929 1_545 S
N360 C380 1.433 . S
N360 C386 1.435 . S
N360 C392 1.423 . S
H361 C397 0.932 . S
C362 N337 1.433 . S
C362 C363 1.363 . S
C362 C367 1.370 . S
C363 H336 0.929 . S
C363 C362 1.363 . S
C363 C364 1.385 . S
C364 H338 0.930 . S
C364 C363 1.385 . S
C364 C365 1.357 . S
C365 C364 1.357 . S
C365 C366 1.406 . S
C366 H340 0.929 . S
C366 C365 1.406 . S
C366 C367 1.391 . S
C367 H339 0.931 . S
C367 C362 1.370 . S
C367 C366 1.391 . S
C368 N337 1.435 . S
C368 C369 1.358 . S
C368 C373 1.371 . S
C369 H341 0.930 . S
C369 C368 1.358 . S
C369 C370 1.405 . S
C370 H342 0.932 . S
C370 C369 1.405 . S
C370 C371 1.383 . S
C371 C370 1.383 . S
C371 C372 1.393 . S
C372 H344 0.931 . S
C372 C371 1.393 . S
C372 C373 1.382 . S
C373 H343 0.929 . S
C373 C368 1.371 . S
C373 C372 1.382 . S
C374 N337 1.423 . S
C374 C375 1.362 . S
C374 C379 1.388 . S
C375 H345 0.929 . S
C375 C374 1.362 . S
C375 C376 1.376 . S
C376 H347 0.931 . S
C376 C375 1.376 . S
C376 C377 1.396 . S
C377 C376 1.396 . S
C377 C378 1.348 . S
C377 C395 1.472 . S
C378 H348 0.929 . S
C378 C377 1.348 . S
C378 C379 1.443 . S
C379 H346 0.932 . S
C379 C374 1.388 . S
C379 C378 1.443 . S
C380 N360 1.433 . S
C380 C381 1.363 . S
C380 C385 1.370 . S
C381 H349 0.929 . S
C381 C380 1.363 . S
C381 C382 1.385 . S
C382 H350 0.930 . S
C382 C381 1.385 . S
C382 C383 1.357 . S
C383 C382 1.357 . S
C383 C384 1.406 . S
C384 H351 0.929 . S
C384 C383 1.406 . S
C384 C385 1.391 . S
C385 H352 0.931 . S
C385 C380 1.370 . S
C385 C384 1.391 . S
C386 N360 1.435 . S
C386 C387 1.358 . S
C386 C391 1.371 . S
C387 H353 0.930 . S
C387 C386 1.358 . S
C387 C388 1.405 . S
C388 H354 0.932 . S
C388 C387 1.405 . S
C388 C389 1.383 . S
C389 C388 1.383 . S
C389 C390 1.393 . S
C390 H355 0.931 . S
C390 C389 1.393 . S
C390 C391 1.382 . S
C391 H356 0.929 . S
C391 C386 1.371 . S
C391 C390 1.382 . S
C392 N360 1.423 . S
C392 C393 1.362 . S
C392 C397 1.388 . S
C393 H357 0.929 . S
C393 C392 1.362 . S
C393 C394 1.376 . S
C394 H358 0.931 . S
C394 C393 1.376 . S
C394 C395 1.396 1_565 S
C395 C377 1.472 . S
C395 C394 1.396 1_545 S
C395 C396 1.348 1_545 S
C396 H359 0.929 1_565 S
C396 C395 1.348 1_565 S
C396 C397 1.443 . S
C397 H361 0.932 . S
C397 C392 1.388 . S
C397 C396 1.443 . S
H398 C425 0.929 . S
N399 C424 1.433 . S
N399 C430 1.435 . S
N399 C436 1.423 . S
H400 C426 0.930 . S
H401 C429 0.931 . S
H402 C428 0.929 . S
H403 C431 0.930 . S
H404 C432 0.932 . S
H405 C435 0.929 . S
H406 C434 0.931 . S
H407 C437 0.929 . S
H408 C441 0.932 . S
H409 C438 0.931 . S
H410 C440 0.929 . S
H411 C443 0.929 . S
H412 C444 0.930 . S
H413 C446 0.929 . S
H414 C447 0.931 . S
H415 C449 0.930 . S
H416 C450 0.932 . S
H417 C452 0.931 . S
H418 C453 0.929 . S
H419 C455 0.929 . S
H420 C456 0.931 . S
H421 C458 0.962 . S
N422 C442 1.433 . S
N422 C448 1.435 . S
N422 C454 1.423 . S
H423 C459 0.932 . S
C424 N399 1.433 . S
C424 C425 1.363 . S
C424 C429 1.370 . S
C425 H398 0.929 . S
C425 C424 1.363 . S
C425 C426 1.385 . S
C426 H400 0.930 . S
C426 C425 1.385 . S
C426 C427 1.357 . S
C427 C426 1.357 . S
C427 C428 1.406 . S
C428 H402 0.929 . S
C428 C427 1.406 . S
C428 C429 1.391 . S
C429 H401 0.931 . S
C429 C424 1.370 . S
C429 C428 1.391 . S
C430 N399 1.435 . S
C430 C431 1.358 . S
C430 C435 1.371 . S
C431 H403 0.930 . S
C431 C430 1.358 . S
C431 C432 1.405 . S
C432 H404 0.932 . S
C432 C431 1.405 . S
C432 C433 1.383 . S
C433 C432 1.383 . S
C433 C434 1.393 . S
C434 H406 0.931 . S
C434 C433 1.393 . S
C434 C435 1.382 . S
C435 H405 0.929 . S
C435 C430 1.371 . S
C435 C434 1.382 . S
C436 N399 1.423 . S
C436 C437 1.362 . S
C436 C441 1.388 . S
C437 H407 0.929 . S
C437 C436 1.362 . S
C437 C438 1.376 . S
C438 H409 0.931 . S
C438 C437 1.376 . S
C438 C439 1.396 . S
C439 C438 1.396 . S
C439 C440 1.348 . S
C439 C457 1.501 . S
C440 H410 0.929 . S
C440 C439 1.348 . S
C440 C441 1.443 . S
C441 H408 0.932 . S
C441 C436 1.388 . S
C441 C440 1.443 . S
C442 N422 1.433 . S
C442 C443 1.363 . S
C442 C447 1.370 . S
C443 H411 0.929 . S
C443 C442 1.363 . S
C443 C444 1.385 . S
C444 H412 0.930 . S
C444 C443 1.385 . S
C444 C445 1.357 . S
C445 C444 1.357 . S
C445 C446 1.406 . S
C446 H413 0.929 . S
C446 C445 1.406 . S
C446 C447 1.391 . S
C447 H414 0.931 . S
C447 C442 1.370 . S
C447 C446 1.391 . S
C448 N422 1.435 . S
C448 C449 1.358 . S
C448 C453 1.371 . S
C449 H415 0.930 . S
C449 C448 1.358 . S
C449 C450 1.405 . S
C450 H416 0.932 . S
C450 C449 1.405 . S
C450 C451 1.383 . S
C451 C450 1.383 . S
C451 C452 1.393 . S
C452 H417 0.931 . S
C452 C451 1.393 . S
C452 C453 1.382 . S
C453 H418 0.929 . S
C453 C448 1.371 . S
C453 C452 1.382 . S
C454 N422 1.423 . S
C454 C455 1.362 . S
C454 C459 1.388 . S
C455 H419 0.929 . S
C455 C454 1.362 . S
C455 C456 1.376 . S
C456 H420 0.931 . S
C456 C455 1.376 . S
C456 C457 1.380 1_556 S
C457 C439 1.501 . S
C457 C456 1.380 1_554 S
C457 C458 1.334 1_554 S
C458 H421 0.962 . S
C458 C457 1.334 1_556 S
C458 C459 1.443 . S
C459 H423 0.932 . S
C459 C454 1.388 . S
C459 C458 1.443 . S
C460 C461 1.349 . S
C460 C462 1.327 . S
C460 H485 0.950 . S
C461 C460 1.349 . S
C461 C477 1.349 . S
C462 C460 1.327 . S
C462 C481 1.429 . S
C462 H486 0.950 . S
C463 C480 1.574 . S
C463 C482 1.368 . S
C463 H487 0.949 . S
H464 C468 0.949 . S
C465 C466 1.349 . S
C465 C467 1.327 . S
C465 H488 0.950 . S
C466 C465 1.349 . S
C466 C478 1.349 . S
C467 C465 1.327 . S
C467 C483 1.429 . S
C467 H489 0.950 . S
C468 H464 0.949 . S
C468 C476 1.574 . S
C468 C484 1.368 . S
H469 C477 0.950 . S
H470 C475 0.950 . S
H471 C476 0.949 . S
H472 C478 0.950 . S
H473 C479 0.950 . S
H474 C480 0.949 . S
C475 H470 0.950 . S
C475 C477 1.327 . S
C475 C481 1.429 . S
C476 C468 1.574 . S
C476 H471 0.949 . S
C476 C482 1.368 . S
C477 C461 1.349 . S
C477 H469 0.950 . S
C477 C475 1.327 . S
C478 C466 1.349 . S
C478 H472 0.950 . S
C478 C479 1.327 . S
C479 H473 0.950 . S
C479 C478 1.327 . S
C479 C483 1.429 . S
C480 C463 1.574 . S
C480 H474 0.949 . S
C480 C484 1.368 . S
C481 C462 1.429 . S
C481 C475 1.429 . S
C481 C482 1.523 . S
C482 C463 1.368 . S
C482 C476 1.368 . S
C482 C481 1.523 . S
C483 C467 1.429 . S
C483 C479 1.429 . S
C483 C484 1.523 . S
C484 C468 1.368 . S
C484 C480 1.368 . S
C484 C483 1.523 . S
H485 C460 0.950 . S
H486 C462 0.950 . S
H487 C463 0.949 . S
H488 C465 0.950 . S
H489 C467 0.950 . S
C490 C491 1.349 . S
C490 C492 1.327 . S
C490 H515 0.950 . S
C491 C490 1.349 . S
C491 C507 1.349 . S
C492 C490 1.327 . S
C492 C511 1.429 . S
C492 H516 0.950 . S
C493 C510 1.574 . S
C493 C512 1.368 . S
C493 H517 0.949 . S
H494 C498 0.949 . S
C495 C496 1.349 . S
C495 C497 1.327 . S
C495 H518 0.950 . S
C496 C495 1.349 . S
C496 C508 1.349 . S
C497 C495 1.327 . S
C497 C513 1.429 . S
C497 H519 0.950 . S
C498 H494 0.949 . S
C498 C506 1.574 . S
C498 C514 1.368 . S
H499 C507 0.950 . S
H500 C505 0.950 . S
H501 C506 0.949 . S
H502 C508 0.950 . S
H503 C509 0.950 . S
H504 C510 0.949 . S
C505 H500 0.950 . S
C505 C507 1.327 . S
C505 C511 1.429 . S
C506 C498 1.574 . S
C506 H501 0.949 . S
C506 C512 1.368 . S
C507 C491 1.349 . S
C507 H499 0.950 . S
C507 C505 1.327 . S
C508 C496 1.349 . S
C508 H502 0.950 . S
C508 C509 1.327 . S
C509 H503 0.950 . S
C509 C508 1.327 . S
C509 C513 1.429 . S
C510 C493 1.574 . S
C510 H504 0.949 . S
C510 C514 1.368 . S
C511 C492 1.429 . S
C511 C505 1.429 . S
C511 C512 1.523 . S
C512 C493 1.368 . S
C512 C506 1.368 . S
C512 C511 1.523 . S
C513 C497 1.429 . S
C513 C509 1.429 . S
C513 C514 1.523 . S
C514 C498 1.368 . S
C514 C510 1.368 . S
C514 C513 1.523 . S
H515 C490 0.950 . S
H516 C492 0.950 . S
H517 C493 0.949 . S
H518 C495 0.950 . S
H519 C497 0.950 . S
C520 C521 1.349 . S
C520 C522 1.327 . S
C520 H545 0.950 . S
C521 C520 1.349 . S
C521 C537 1.349 . S
C522 C520 1.327 . S
C522 C541 1.429 . S
C522 H546 0.950 . S
C523 C540 1.574 . S
C523 C542 1.368 . S
C523 H547 0.949 . S
H524 C528 0.949 . S
C525 C526 1.349 . S
C525 C527 1.327 . S
C525 H548 0.950 . S
C526 C525 1.349 . S
C526 C538 1.349 . S
C527 C525 1.327 . S
C527 C543 1.429 . S
C527 H549 0.950 . S
C528 H524 0.949 . S
C528 C536 1.574 . S
C528 C544 1.368 . S
H529 C537 0.950 . S
H530 C535 0.950 . S
H531 C536 0.949 . S
H532 C538 0.950 . S
H533 C539 0.950 . S
H534 C540 0.949 . S
C535 H530 0.950 . S
C535 C537 1.327 . S
C535 C541 1.429 . S
C536 C528 1.574 . S
C536 H531 0.949 . S
C536 C542 1.368 . S
C537 C521 1.349 . S
C537 H529 0.950 . S
C537 C535 1.327 . S
C538 C526 1.349 . S
C538 H532 0.950 . S
C538 C539 1.327 . S
C539 H533 0.950 . S
C539 C538 1.327 . S
C539 C543 1.429 . S
C540 C523 1.574 . S
C540 H534 0.949 . S
C540 C544 1.368 . S
C541 C522 1.429 . S
C541 C535 1.429 . S
C541 C542 1.523 . S
C542 C523 1.368 . S
C542 C536 1.368 . S
C542 C541 1.523 . S
C543 C527 1.429 . S
C543 C539 1.429 . S
C543 C544 1.523 . S
C544 C528 1.368 . S
C544 C540 1.368 . S
C544 C543 1.523 . S
H545 C520 0.950 . S
H546 C522 0.950 . S
H547 C523 0.949 . S
H548 C525 0.950 . S
H549 C527 0.950 . S
C550 C551 1.349 . S
C550 C552 1.327 . S
C550 H575 0.950 . S
C551 C550 1.349 . S
C551 C567 1.349 . S
C552 C550 1.327 . S
C552 C571 1.429 . S
C552 H576 0.950 . S
C553 C570 1.574 . S
C553 C572 1.368 . S
C553 H577 0.949 . S
H554 C558 0.949 . S
C555 C556 1.349 . S
C555 C557 1.327 . S
C555 H578 0.950 . S
C556 C555 1.349 . S
C556 C568 1.349 . S
C557 C555 1.327 . S
C557 C573 1.429 . S
C557 H579 0.950 . S
C558 H554 0.949 . S
C558 C566 1.574 . S
C558 C574 1.368 . S
H559 C567 0.950 . S
H560 C565 0.950 . S
H561 C566 0.949 . S
H562 C568 0.950 . S
H563 C569 0.950 . S
H564 C570 0.949 . S
C565 H560 0.950 . S
C565 C567 1.327 . S
C565 C571 1.429 . S
C566 C558 1.574 . S
C566 H561 0.949 . S
C566 C572 1.368 . S
C567 C551 1.349 . S
C567 H559 0.950 . S
C567 C565 1.327 . S
C568 C556 1.349 . S
C568 H562 0.950 . S
C568 C569 1.327 . S
C569 H563 0.950 . S
C569 C568 1.327 . S
C569 C573 1.429 . S
C570 C553 1.574 . S
C570 H564 0.949 . S
C570 C574 1.368 . S
C571 C552 1.429 . S
C571 C565 1.429 . S
C571 C572 1.523 . S
C572 C553 1.368 . S
C572 C566 1.368 . S
C572 C571 1.523 . S
C573 C557 1.429 . S
C573 C569 1.429 . S
C573 C574 1.523 . S
C574 C558 1.368 . S
C574 C570 1.368 . S
C574 C573 1.523 . S
H575 C550 0.950 . S
H576 C552 0.950 . S
H577 C553 0.949 . S
H578 C555 0.950 . S
H579 C557 0.950 . S
C580 C581 1.349 . S
C580 C582 1.327 . S
C580 H605 0.950 . S
C581 C580 1.349 . S
C581 C597 1.349 . S
C582 C580 1.327 . S
C582 C601 1.429 . S
C582 H606 0.950 . S
C583 C600 1.574 . S
C583 C602 1.368 . S
C583 H607 0.949 . S
H584 C588 0.949 . S
C585 C586 1.349 . S
C585 C587 1.327 . S
C585 H608 0.950 . S
C586 C585 1.349 . S
C586 C598 1.349 . S
C587 C585 1.327 . S
C587 C603 1.429 . S
C587 H609 0.950 . S
C588 H584 0.949 . S
C588 C596 1.574 . S
C588 C604 1.368 . S
H589 C597 0.950 . S
H590 C595 0.950 . S
H591 C596 0.949 . S
H592 C598 0.950 . S
H593 C599 0.950 . S
H594 C600 0.949 . S
C595 H590 0.950 . S
C595 C597 1.327 . S
C595 C601 1.429 . S
C596 C588 1.574 . S
C596 H591 0.949 . S
C596 C602 1.368 . S
C597 C581 1.349 . S
C597 H589 0.950 . S
C597 C595 1.327 . S
C598 C586 1.349 . S
C598 H592 0.950 . S
C598 C599 1.327 . S
C599 H593 0.950 . S
C599 C598 1.327 . S
C599 C603 1.429 . S
C600 C583 1.574 . S
C600 H594 0.949 . S
C600 C604 1.368 . S
C601 C582 1.429 . S
C601 C595 1.429 . S
C601 C602 1.523 . S
C602 C583 1.368 . S
C602 C596 1.368 . S
C602 C601 1.523 . S
C603 C587 1.429 . S
C603 C599 1.429 . S
C603 C604 1.523 . S
C604 C588 1.368 . S
C604 C600 1.368 . S
C604 C603 1.523 . S
H605 C580 0.950 . S
H606 C582 0.950 . S
H607 C583 0.949 . S
H608 C585 0.950 . S
H609 C587 0.950 . S
C610 C611 1.349 . S
C610 C612 1.327 . S
C610 H635 0.950 . S
C611 C610 1.349 . S
C611 C627 1.349 . S
C612 C610 1.327 . S
C612 C631 1.429 . S
C612 H636 0.950 . S
C613 C630 1.574 . S
C613 C632 1.368 . S
C613 H637 0.949 . S
H614 C618 0.949 . S
C615 C616 1.349 . S
C615 C617 1.327 . S
C615 H638 0.950 . S
C616 C615 1.349 . S
C616 C628 1.349 . S
C617 C615 1.327 . S
C617 C633 1.429 . S
C617 H639 0.950 . S
C618 H614 0.949 . S
C618 C626 1.574 . S
C618 C634 1.368 . S
H619 C627 0.950 . S
H620 C625 0.950 . S
H621 C626 0.949 . S
H622 C628 0.950 . S
H623 C629 0.950 . S
H624 C630 0.949 . S
C625 H620 0.950 . S
C625 C627 1.327 . S
C625 C631 1.429 . S
C626 C618 1.574 . S
C626 H621 0.949 . S
C626 C632 1.368 . S
C627 C611 1.349 . S
C627 H619 0.950 . S
C627 C625 1.327 . S
C628 C616 1.349 . S
C628 H622 0.950 . S
C628 C629 1.327 . S
C629 H623 0.950 . S
C629 C628 1.327 . S
C629 C633 1.429 . S
C630 C613 1.574 . S
C630 H624 0.949 . S
C630 C634 1.368 . S
C631 C612 1.429 . S
C631 C625 1.429 . S
C631 C632 1.523 . S
C632 C613 1.368 . S
C632 C626 1.368 . S
C632 C631 1.523 . S
C633 C617 1.429 . S
C633 C629 1.429 . S
C633 C634 1.523 . S
C634 C618 1.368 . S
C634 C630 1.368 . S
C634 C633 1.523 . S
H635 C610 0.950 . S
H636 C612 0.950 . S
H637 C613 0.949 . S
H638 C615 0.950 . S
H639 C617 0.950 . S
C640 C641 1.349 . S
C640 C642 1.327 . S
C640 H665 0.950 . S
C641 C640 1.349 . S
C641 C657 1.349 . S
C642 C640 1.327 . S
C642 C661 1.429 . S
C642 H666 0.950 . S
C643 C660 1.574 . S
C643 C662 1.368 . S
C643 H667 0.949 . S
H644 C648 0.949 . S
C645 C646 1.349 . S
C645 C647 1.327 . S
C645 H668 0.950 . S
C646 C645 1.349 . S
C646 C658 1.349 . S
C647 C645 1.327 . S
C647 C663 1.429 . S
C647 H669 0.950 . S
C648 H644 0.949 . S
C648 C656 1.574 . S
C648 C664 1.368 . S
H649 C657 0.950 . S
H650 C655 0.950 . S
H651 C656 0.949 . S
H652 C658 0.950 . S
H653 C659 0.950 . S
H654 C660 0.949 . S
C655 H650 0.950 . S
C655 C657 1.327 . S
C655 C661 1.429 . S
C656 C648 1.574 . S
C656 H651 0.949 . S
C656 C662 1.368 . S
C657 C641 1.349 . S
C657 H649 0.950 . S
C657 C655 1.327 . S
C658 C646 1.349 . S
C658 H652 0.950 . S
C658 C659 1.327 . S
C659 H653 0.950 . S
C659 C658 1.327 . S
C659 C663 1.429 . S
C660 C643 1.574 . S
C660 H654 0.949 . S
C660 C664 1.368 . S
C661 C642 1.429 . S
C661 C655 1.429 . S
C661 C662 1.523 . S
C662 C643 1.368 . S
C662 C656 1.368 . S
C662 C661 1.523 . S
C663 C647 1.429 . S
C663 C659 1.429 . S
C663 C664 1.523 . S
C664 C648 1.368 . S
C664 C660 1.368 . S
C664 C663 1.523 . S
H665 C640 0.950 . S
H666 C642 0.950 . S
H667 C643 0.949 . S
H668 C645 0.950 . S
H669 C647 0.950 . S
C670 C671 1.349 . S
C670 C672 1.327 . S
C670 H695 0.950 . S
C671 C670 1.349 . S
C671 C687 1.349 . S
C672 C670 1.327 . S
C672 C691 1.429 . S
C672 H696 0.950 . S
C673 C690 1.574 . S
C673 C692 1.368 . S
C673 H697 0.949 . S
H674 C678 0.949 . S
C675 C676 1.349 . S
C675 C677 1.327 . S
C675 H698 0.950 . S
C676 C675 1.349 . S
C676 C688 1.349 . S
C677 C675 1.327 . S
C677 C693 1.429 . S
C677 H699 0.950 . S
C678 H674 0.949 . S
C678 C686 1.574 . S
C678 C694 1.368 . S
H679 C687 0.950 . S
H680 C685 0.950 . S
H681 C686 0.949 . S
H682 C688 0.950 . S
H683 C689 0.950 . S
H684 C690 0.949 . S
C685 H680 0.950 . S
C685 C687 1.327 . S
C685 C691 1.429 . S
C686 C678 1.574 . S
C686 H681 0.949 . S
C686 C692 1.368 . S
C687 C671 1.349 . S
C687 H679 0.950 . S
C687 C685 1.327 . S
C688 C676 1.349 . S
C688 H682 0.950 . S
C688 C689 1.327 . S
C689 H683 0.950 . S
C689 C688 1.327 . S
C689 C693 1.429 . S
C690 C673 1.574 . S
C690 H684 0.949 . S
C690 C694 1.368 . S
C691 C672 1.429 . S
C691 C685 1.429 . S
C691 C692 1.523 . S
C692 C673 1.368 . S
C692 C686 1.368 . S
C692 C691 1.523 . S
C693 C677 1.429 . S
C693 C689 1.429 . S
C693 C694 1.523 . S
C694 C678 1.368 . S
C694 C690 1.368 . S
C694 C693 1.523 . S
H695 C670 0.950 . S
H696 C672 0.950 . S
H697 C673 0.949 . S
H698 C675 0.950 . S
H699 C677 0.950 . S
C700 C701 1.349 . S
C700 C702 1.327 . S
C700 H725 0.950 . S
C701 C700 1.349 . S
C701 C717 1.349 . S
C702 C700 1.327 . S
C702 C721 1.429 . S
C702 H726 0.950 . S
C703 C720 1.574 . S
C703 C722 1.368 . S
C703 H727 0.949 . S
H704 C708 0.949 . S
C705 C706 1.349 . S
C705 C707 1.327 . S
C705 H728 0.950 . S
C706 C705 1.349 . S
C706 C718 1.349 . S
C707 C705 1.327 . S
C707 C723 1.429 1_545 S
C707 H729 0.950 . S
C708 H704 0.949 . S
C708 C716 1.574 . S
C708 C724 1.368 . S
H709 C717 0.950 . S
H710 C715 0.950 . S
H711 C716 0.949 . S
H712 C718 0.950 . S
H713 C719 0.950 . S
H714 C720 0.949 . S
C715 H710 0.950 . S
C715 C717 1.327 . S
C715 C721 1.429 . S
C716 C708 1.574 . S
C716 H711 0.949 . S
C716 C722 1.368 . S
C717 C701 1.349 . S
C717 H709 0.950 . S
C717 C715 1.327 . S
C718 C706 1.349 . S
C718 H712 0.950 . S
C718 C719 1.327 1_545 S
C719 H713 0.950 . S
C719 C718 1.327 1_565 S
C719 C723 1.429 . S
C720 C703 1.574 . S
C720 H714 0.949 . S
C720 C724 1.368 . S
C721 C702 1.429 . S
C721 C715 1.429 . S
C721 C722 1.523 . S
C722 C703 1.368 . S
C722 C716 1.368 . S
C722 C721 1.523 . S
C723 C707 1.429 1_565 S
C723 C719 1.429 . S
C723 C724 1.523 . S
C724 C708 1.368 . S
C724 C720 1.368 . S
C724 C723 1.523 . S
H725 C700 0.950 . S
H726 C702 0.950 . S
H727 C703 0.949 . S
H728 C705 0.950 . S
H729 C707 0.950 . S
C730 C731 1.349 . S
C730 C732 1.327 . S
C730 H755 0.950 . S
C731 C730 1.349 . S
C731 C747 1.349 . S
C732 C730 1.327 . S
C732 C751 1.429 . S
C732 H756 0.950 . S
C733 C750 1.574 . S
C733 C752 1.368 . S
C733 H757 0.949 . S
H734 C738 0.949 . S
C735 C736 1.349 . S
C735 C737 1.327 . S
C735 H758 0.950 . S
C736 C735 1.349 . S
C736 C748 1.349 . S
C737 C735 1.327 . S
C737 C753 1.429 . S
C737 H759 0.950 . S
C738 H734 0.949 . S
C738 C746 1.574 . S
C738 C754 1.368 . S
H739 C747 0.950 . S
H740 C745 0.950 . S
H741 C746 0.949 . S
H742 C748 0.950 . S
H743 C749 0.950 . S
H744 C750 0.949 . S
C745 H740 0.950 . S
C745 C747 1.327 . S
C745 C751 1.429 . S
C746 C738 1.574 . S
C746 H741 0.949 . S
C746 C752 1.368 . S
C747 C731 1.349 . S
C747 H739 0.950 . S
C747 C745 1.327 . S
C748 C736 1.349 . S
C748 H742 0.950 . S
C748 C749 1.327 . S
C749 H743 0.950 . S
C749 C748 1.327 . S
C749 C753 1.429 . S
C750 C733 1.574 . S
C750 H744 0.949 . S
C750 C754 1.368 . S
C751 C732 1.429 . S
C751 C745 1.429 . S
C751 C752 1.523 . S
C752 C733 1.368 . S
C752 C746 1.368 . S
C752 C751 1.523 . S
C753 C737 1.429 . S
C753 C749 1.429 . S
C753 C754 1.523 . S
C754 C738 1.368 . S
C754 C750 1.368 . S
C754 C753 1.523 . S
H755 C730 0.950 . S
H756 C732 0.950 . S
H757 C733 0.949 . S
H758 C735 0.950 . S
H759 C737 0.950 . S
C760 C761 1.349 . S
C760 C762 1.327 . S
C760 H785 0.950 . S
C761 C760 1.349 . S
C761 C777 1.349 . S
C762 C760 1.327 . S
C762 C781 1.429 . S
C762 H786 0.950 . S
C763 C780 1.574 . S
C763 C782 1.368 . S
C763 H787 0.949 . S
H764 C768 0.949 . S
C765 C766 1.349 . S
C765 C767 1.327 . S
C765 H788 0.950 . S
C766 C765 1.349 . S
C766 C778 1.349 . S
C767 C765 1.327 . S
C767 C783 1.429 . S
C767 H789 0.950 . S
C768 H764 0.949 . S
C768 C776 1.574 . S
C768 C784 1.368 . S
H769 C777 0.950 . S
H770 C775 0.950 . S
H771 C776 0.949 . S
H772 C778 0.950 . S
H773 C779 0.950 . S
H774 C780 0.949 . S
C775 H770 0.950 . S
C775 C777 1.327 . S
C775 C781 1.429 . S
C776 C768 1.574 . S
C776 H771 0.949 . S
C776 C782 1.368 . S
C777 C761 1.349 . S
C777 H769 0.950 . S
C777 C775 1.327 . S
C778 C766 1.349 . S
C778 H772 0.950 . S
C778 C779 1.327 . S
C779 H773 0.950 . S
C779 C778 1.327 . S
C779 C783 1.429 . S
C780 C763 1.574 . S
C780 H774 0.949 . S
C780 C784 1.368 . S
C781 C762 1.429 . S
C781 C775 1.429 . S
C781 C782 1.523 . S
C782 C763 1.368 . S
C782 C776 1.368 . S
C782 C781 1.523 . S
C783 C767 1.429 . S
C783 C779 1.429 . S
C783 C784 1.523 . S
C784 C768 1.368 . S
C784 C780 1.368 . S
C784 C783 1.523 . S
H785 C760 0.950 . S
H786 C762 0.950 . S
H787 C763 0.949 . S
H788 C765 0.950 . S
H789 C767 0.950 . S
C790 C791 1.349 . S
C790 C792 1.327 . S
C790 H815 0.950 . S
C791 C790 1.349 . S
C791 C807 1.349 . S
C792 C790 1.327 . S
C792 C811 1.429 . S
C792 H816 0.950 . S
C793 C810 1.574 . S
C793 C812 1.368 . S
C793 H817 0.949 . S
H794 C798 0.949 . S
C795 C796 1.349 . S
C795 C797 1.327 . S
C795 H818 0.950 . S
C796 C795 1.349 . S
C796 C808 1.349 . S
C797 C795 1.327 . S
C797 C813 1.429 . S
C797 H819 0.950 . S
C798 H794 0.949 . S
C798 C806 1.574 . S
C798 C814 1.368 . S
H799 C807 0.950 . S
H800 C805 0.950 . S
H801 C806 0.949 . S
H802 C808 0.950 . S
H803 C809 0.950 . S
H804 C810 0.949 . S
C805 H800 0.950 . S
C805 C807 1.327 . S
C805 C811 1.429 . S
C806 C798 1.574 . S
C806 H801 0.949 . S
C806 C812 1.368 . S
C807 C791 1.349 . S
C807 H799 0.950 . S
C807 C805 1.327 . S
C808 C796 1.349 . S
C808 H802 0.950 . S
C808 C809 1.327 . S
C809 H803 0.950 . S
C809 C808 1.327 . S
C809 C813 1.429 . S
C810 C793 1.574 . S
C810 H804 0.949 . S
C810 C814 1.368 . S
C811 C792 1.429 . S
C811 C805 1.429 . S
C811 C812 1.523 . S
C812 C793 1.368 . S
C812 C806 1.368 . S
C812 C811 1.523 . S
C813 C797 1.429 . S
C813 C809 1.429 . S
C813 C814 1.523 . S
C814 C798 1.368 . S
C814 C810 1.368 . S
C814 C813 1.523 . S
H815 C790 0.950 . S
H816 C792 0.950 . S
H817 C793 0.949 . S
H818 C795 0.950 . S
H819 C797 0.950 . S
C820 C821 1.349 . S
C820 C822 1.327 . S
C820 H845 0.950 . S
C821 C820 1.349 . S
C821 C837 1.349 . S
C822 C820 1.327 . S
C822 C841 1.429 . S
C822 H846 0.950 . S
C823 C840 1.574 . S
C823 C842 1.368 . S
C823 H847 0.949 . S
H824 C828 0.949 . S
C825 C826 1.349 . S
C825 C827 1.327 . S
C825 H848 0.950 . S
C826 C825 1.349 . S
C826 C838 1.349 . S
C827 C825 1.327 . S
C827 C843 1.429 . S
C827 H849 0.950 . S
C828 H824 0.949 . S
C828 C836 1.574 . S
C828 C844 1.368 . S
H829 C837 0.950 . S
H830 C835 0.950 . S
H831 C836 0.949 . S
H832 C838 0.950 . S
H833 C839 0.950 . S
H834 C840 0.949 . S
C835 H830 0.950 . S
C835 C837 1.327 . S
C835 C841 1.429 . S
C836 C828 1.574 . S
C836 H831 0.949 . S
C836 C842 1.368 . S
C837 C821 1.349 . S
C837 H829 0.950 . S
C837 C835 1.327 . S
C838 C826 1.349 . S
C838 H832 0.950 . S
C838 C839 1.327 . S
C839 H833 0.950 . S
C839 C838 1.327 . S
C839 C843 1.429 . S
C840 C823 1.574 . S
C840 H834 0.949 . S
C840 C844 1.368 . S
C841 C822 1.429 . S
C841 C835 1.429 . S
C841 C842 1.523 . S
C842 C823 1.368 . S
C842 C836 1.368 . S
C842 C841 1.523 . S
C843 C827 1.429 . S
C843 C839 1.429 . S
C843 C844 1.523 . S
C844 C828 1.368 . S
C844 C840 1.368 . S
C844 C843 1.523 . S
H845 C820 0.950 . S
H846 C822 0.950 . S
H847 C823 0.949 . S
H848 C825 0.950 . S
H849 C827 0.950 . S
C850 C851 1.349 . S
C850 C852 1.327 . S
C850 H875 0.950 . S
C851 C850 1.349 . S
C851 C867 1.349 . S
C852 C850 1.327 . S
C852 C871 1.429 . S
C852 H876 0.950 . S
C853 C870 1.574 . S
C853 C872 1.368 . S
C853 H877 0.949 . S
H854 C858 0.949 . S
C855 C856 1.349 . S
C855 C857 1.327 . S
C855 H878 0.950 . S
C856 C855 1.349 . S
C856 C868 1.349 . S
C857 C855 1.327 . S
C857 C873 1.429 . S
C857 H879 0.950 . S
C858 H854 0.949 . S
C858 C866 1.574 . S
C858 C874 1.368 . S
H859 C867 0.950 . S
H860 C865 0.950 . S
H861 C866 0.949 . S
H862 C868 0.950 . S
H863 C869 0.950 . S
H864 C870 0.949 . S
C865 H860 0.950 . S
C865 C867 1.327 . S
C865 C871 1.429 . S
C866 C858 1.574 . S
C866 H861 0.949 . S
C866 C872 1.368 . S
C867 C851 1.349 . S
C867 H859 0.950 . S
C867 C865 1.327 . S
C868 C856 1.349 . S
C868 H862 0.950 . S
C868 C869 1.327 . S
C869 H863 0.950 . S
C869 C868 1.327 . S
C869 C873 1.429 . S
C870 C853 1.574 . S
C870 H864 0.949 . S
C870 C874 1.368 . S
C871 C852 1.429 . S
C871 C865 1.429 . S
C871 C872 1.523 . S
C872 C853 1.368 . S
C872 C866 1.368 . S
C872 C871 1.523 . S
C873 C857 1.429 . S
C873 C869 1.429 . S
C873 C874 1.523 . S
C874 C858 1.368 . S
C874 C870 1.368 . S
C874 C873 1.523 . S
H875 C850 0.950 . S
H876 C852 0.950 . S
H877 C853 0.949 . S
H878 C855 0.950 . S
H879 C857 0.950 . S
C880 C881 1.349 . S
C880 C882 1.327 . S
C880 H905 0.950 . S
C881 C880 1.349 . S
C881 C897 1.349 . S
C882 C880 1.327 . S
C882 C901 1.429 . S
C882 H906 0.950 . S
C883 C900 1.574 . S
C883 C902 1.368 . S
C883 H907 0.949 . S
H884 C888 0.949 . S
C885 C886 1.349 . S
C885 C887 1.327 . S
C885 H908 0.950 . S
C886 C885 1.349 . S
C886 C898 1.349 . S
C887 C885 1.327 . S
C887 C903 1.429 . S
C887 H909 0.950 . S
C888 H884 0.949 . S
C888 C896 1.574 . S
C888 C904 1.368 . S
H889 C897 0.950 . S
H890 C895 0.950 . S
H891 C896 0.949 . S
H892 C898 0.950 . S
H893 C899 0.950 . S
H894 C900 0.949 . S
C895 H890 0.950 . S
C895 C897 1.327 . S
C895 C901 1.429 . S
C896 C888 1.574 . S
C896 H891 0.949 . S
C896 C902 1.368 . S
C897 C881 1.349 . S
C897 H889 0.950 . S
C897 C895 1.327 . S
C898 C886 1.349 . S
C898 H892 0.950 . S
C898 C899 1.327 . S
C899 H893 0.950 . S
C899 C898 1.327 . S
C899 C903 1.429 . S
C900 C883 1.574 . S
C900 H894 0.949 . S
C900 C904 1.368 . S
C901 C882 1.429 . S
C901 C895 1.429 . S
C901 C902 1.523 . S
C902 C883 1.368 . S
C902 C896 1.368 . S
C902 C901 1.523 . S
C903 C887 1.429 . S
C903 C899 1.429 . S
C903 C904 1.523 . S
C904 C888 1.368 . S
C904 C900 1.368 . S
C904 C903 1.523 . S
H905 C880 0.950 . S
H906 C882 0.950 . S
H907 C883 0.949 . S
H908 C885 0.950 . S
H909 C887 0.950 . S
C910 C911 1.349 . S
C910 C912 1.327 . S
C910 H935 0.950 . S
C911 C910 1.349 . S
C911 C927 1.349 . S
C912 C910 1.327 . S
C912 C931 1.429 . S
C912 H936 0.950 . S
C913 C930 1.574 . S
C913 C932 1.368 . S
C913 H937 0.949 . S
H914 C918 0.949 . S
C915 C916 1.349 . S
C915 C917 1.327 . S
C915 H938 0.950 . S
C916 C915 1.349 . S
C916 C928 1.349 . S
C917 C915 1.327 . S
C917 C933 1.429 . S
C917 H939 0.950 . S
C918 H914 0.949 . S
C918 C926 1.574 . S
C918 C934 1.368 . S
H919 C927 0.950 . S
H920 C925 0.950 . S
H921 C926 0.949 . S
H922 C928 0.950 . S
H923 C929 0.950 . S
H924 C930 0.949 . S
C925 H920 0.950 . S
C925 C927 1.327 . S
C925 C931 1.429 . S
C926 C918 1.574 . S
C926 H921 0.949 . S
C926 C932 1.368 . S
C927 C911 1.349 . S
C927 H919 0.950 . S
C927 C925 1.327 . S
C928 C916 1.349 . S
C928 H922 0.950 . S
C928 C929 1.327 . S
C929 H923 0.950 . S
C929 C928 1.327 . S
C929 C933 1.429 . S
C930 C913 1.574 . S
C930 H924 0.949 . S
C930 C934 1.368 . S
C931 C912 1.429 . S
C931 C925 1.429 . S
C931 C932 1.523 . S
C932 C913 1.368 . S
C932 C926 1.368 . S
C932 C931 1.523 . S
C933 C917 1.429 . S
C933 C929 1.429 . S
C933 C934 1.523 . S
C934 C918 1.368 . S
C934 C930 1.368 . S
C934 C933 1.523 . S
H935 C910 0.950 . S
H936 C912 0.950 . S
H937 C913 0.949 . S
H938 C915 0.950 . S
H939 C917 0.950 . S
C940 C941 1.349 . S
C940 C942 1.327 . S
C940 H965 0.950 . S
C941 C940 1.349 . S
C941 C957 1.349 . S
C942 C940 1.327 . S
C942 C961 1.429 . S
C942 H966 0.950 . S
C943 C960 1.574 . S
C943 C962 1.368 . S
C943 H967 0.949 . S
H944 C948 0.949 . S
C945 C946 1.349 . S
C945 C947 1.327 . S
C945 H968 0.950 . S
C946 C945 1.349 . S
C946 C958 1.349 . S
C947 C945 1.327 . S
C947 C963 1.429 . S
C947 H969 0.950 . S
C948 H944 0.949 . S
C948 C956 1.574 . S
C948 C964 1.368 . S
H949 C957 0.950 . S
H950 C955 0.950 . S
H951 C956 0.949 . S
H952 C958 0.950 . S
H953 C959 0.950 . S
H954 C960 0.949 . S
C955 H950 0.950 . S
C955 C957 1.327 . S
C955 C961 1.429 . S
C956 C948 1.574 . S
C956 H951 0.949 . S
C956 C962 1.368 . S
C957 C941 1.349 . S
C957 H949 0.950 . S
C957 C955 1.327 . S
C958 C946 1.349 . S
C958 H952 0.950 . S
C958 C959 1.327 . S
C959 H953 0.950 . S
C959 C958 1.327 . S
C959 C963 1.429 . S
C960 C943 1.574 . S
C960 H954 0.949 . S
C960 C964 1.368 . S
C961 C942 1.429 . S
C961 C955 1.429 . S
C961 C962 1.523 . S
C962 C943 1.368 . S
C962 C956 1.368 . S
C962 C961 1.523 . S
C963 C947 1.429 . S
C963 C959 1.429 . S
C963 C964 1.523 . S
C964 C948 1.368 . S
C964 C960 1.368 . S
C964 C963 1.523 . S
H965 C940 0.950 . S
H966 C942 0.950 . S
H967 C943 0.949 . S
H968 C945 0.950 . S
H969 C947 0.950 . S
C970 C971 1.349 . S
C970 C972 1.327 . S
C970 H995 0.950 . S
C971 C970 1.349 . S
C971 C987 1.349 . S
C972 C970 1.327 . S
C972 C991 1.429 . S
C972 H996 0.950 . S
C973 C990 1.574 . S
C973 C992 1.368 . S
C973 H997 0.949 . S
H974 C978 0.949 . S
C975 C976 1.349 . S
C975 C977 1.327 . S
C975 H998 0.950 . S
C976 C975 1.349 . S
C976 C988 1.349 . S
C977 C975 1.327 . S
C977 C993 1.429 . S
C977 H999 0.950 . S
C978 H974 0.949 . S
C978 C986 1.574 . S
C978 C994 1.368 . S
H979 C987 0.950 . S
H980 C985 0.950 . S
H981 C986 0.949 . S
H982 C988 0.950 . S
H983 C989 0.950 . S
H984 C990 0.949 . S
C985 H980 0.950 . S
C985 C987 1.327 . S
C985 C991 1.429 . S
C986 C978 1.574 . S
C986 H981 0.949 . S
C986 C992 1.368 . S
C987 C971 1.349 . S
C987 H979 0.950 . S
C987 C985 1.327 . S
C988 C976 1.349 . S
C988 H982 0.950 . S
C988 C989 1.327 . S
C989 H983 0.950 . S
C989 C988 1.327 . S
C989 C993 1.429 . S
C990 C973 1.574 . S
C990 H984 0.949 . S
C990 C994 1.368 . S
C991 C972 1.429 . S
C991 C985 1.429 . S
C991 C992 1.523 . S
C992 C973 1.368 . S
C992 C986 1.368 . S
C992 C991 1.523 . S
C993 C977 1.429 . S
C993 C989 1.429 . S
C993 C994 1.523 . S
C994 C978 1.368 . S
C994 C990 1.368 . S
C994 C993 1.523 . S
H995 C970 0.950 . S
H996 C972 0.950 . S
H997 C973 0.949 . S
H998 C975 0.950 . S
H999 C977 0.950 . S
C1000 C1001 1.349 . S
C1000 C1002 1.327 . S
C1000 H1025 0.950 . S
C1001 C1000 1.349 . S
C1001 C1017 1.349 . S
C1002 C1000 1.327 . S
C1002 C1021 1.429 . S
C1002 H1026 0.950 . S
C1003 C1020 1.574 . S
C1003 C1022 1.368 . S
C1003 H1027 0.949 . S
H1004 C1008 0.949 . S
C1005 C1006 1.349 . S
C1005 C1007 1.327 . S
C1005 H1028 0.950 . S
C1006 C1005 1.349 . S
C1006 C1018 1.349 . S
C1007 C1005 1.327 . S
C1007 C1023 1.429 . S
C1007 H1029 0.950 . S
C1008 H1004 0.949 . S
C1008 C1016 1.574 . S
C1008 C1024 1.368 . S
H1009 C1017 0.950 . S
H1010 C1015 0.950 . S
H1011 C1016 0.949 . S
H1012 C1018 0.950 . S
H1013 C1019 0.950 . S
H1014 C1020 0.949 . S
C1015 H1010 0.950 . S
C1015 C1017 1.327 . S
C1015 C1021 1.429 . S
C1016 C1008 1.574 . S
C1016 H1011 0.949 . S
C1016 C1022 1.368 . S
C1017 C1001 1.349 . S
C1017 H1009 0.950 . S
C1017 C1015 1.327 . S
C1018 C1006 1.349 . S
C1018 H1012 0.950 . S
C1018 C1019 1.327 . S
C1019 H1013 0.950 . S
C1019 C1018 1.327 . S
C1019 C1023 1.429 . S
C1020 C1003 1.574 . S
C1020 H1014 0.949 . S
C1020 C1024 1.368 . S
C1021 C1002 1.429 . S
C1021 C1015 1.429 . S
C1021 C1022 1.523 . S
C1022 C1003 1.368 . S
C1022 C1016 1.368 . S
C1022 C1021 1.523 . S
C1023 C1007 1.429 . S
C1023 C1019 1.429 . S
C1023 C1024 1.523 . S
C1024 C1008 1.368 . S
C1024 C1020 1.368 . S
C1024 C1023 1.523 . S
H1025 C1000 0.950 . S
H1026 C1002 0.950 . S
H1027 C1003 0.949 . S
H1028 C1005 0.950 . S
H1029 C1007 0.950 . S
C1030 C1031 1.349 . S
C1030 C1032 1.327 . S
C1030 H1055 0.950 . S
C1031 C1030 1.349 . S
C1031 C1047 1.349 . S
C1032 C1030 1.327 . S
C1032 C1051 1.429 . S
C1032 H1056 0.950 . S
C1033 C1050 1.574 . S
C1033 C1052 1.368 . S
C1033 H1057 0.949 . S
H1034 C1038 0.949 . S
C1035 C1036 1.349 . S
C1035 C1037 1.327 . S
C1035 H1058 0.950 . S
C1036 C1035 1.349 . S
C1036 C1048 1.349 . S
C1037 C1035 1.327 . S
C1037 C1053 1.429 . S
C1037 H1059 0.950 . S
C1038 H1034 0.949 . S
C1038 C1046 1.574 . S
C1038 C1054 1.368 . S
H1039 C1047 0.950 . S
H1040 C1045 0.950 . S
H1041 C1046 0.949 . S
H1042 C1048 0.950 . S
H1043 C1049 0.950 . S
H1044 C1050 0.949 . S
C1045 H1040 0.950 . S
C1045 C1047 1.327 . S
C1045 C1051 1.429 . S
C1046 C1038 1.574 . S
C1046 H1041 0.949 . S
C1046 C1052 1.368 . S
C1047 C1031 1.349 . S
C1047 H1039 0.950 . S
C1047 C1045 1.327 . S
C1048 C1036 1.349 . S
C1048 H1042 0.950 . S
C1048 C1049 1.327 . S
C1049 H1043 0.950 . S
C1049 C1048 1.327 . S
C1049 C1053 1.429 . S
C1050 C1033 1.574 . S
C1050 H1044 0.949 . S
C1050 C1054 1.368 . S
C1051 C1032 1.429 . S
C1051 C1045 1.429 . S
C1051 C1052 1.523 . S
C1052 C1033 1.368 . S
C1052 C1046 1.368 . S
C1052 C1051 1.523 . S
C1053 C1037 1.429 . S
C1053 C1049 1.429 . S
C1053 C1054 1.523 . S
C1054 C1038 1.368 . S
C1054 C1050 1.368 . S
C1054 C1053 1.523 . S
H1055 C1030 0.950 . S
H1056 C1032 0.950 . S
H1057 C1033 0.949 . S
H1058 C1035 0.950 . S
H1059 C1037 0.950 . S
C1060 C1061 1.349 . S
C1060 C1062 1.327 . S
C1060 H1085 0.950 . S
C1061 C1060 1.349 . S
C1061 C1077 1.349 . S
C1062 C1060 1.327 . S
C1062 C1081 1.429 . S
C1062 H1086 0.950 . S
C1063 C1080 1.574 . S
C1063 C1082 1.368 . S
C1063 H1087 0.949 . S
H1064 C1068 0.949 . S
C1065 C1066 1.349 . S
C1065 C1067 1.327 . S
C1065 H1088 0.950 . S
C1066 C1065 1.349 . S
C1066 C1078 1.349 . S
C1067 C1065 1.327 . S
C1067 C1083 1.429 . S
C1067 H1089 0.950 . S
C1068 H1064 0.949 . S
C1068 C1076 1.574 . S
C1068 C1084 1.368 . S
H1069 C1077 0.950 . S
H1070 C1075 0.950 . S
H1071 C1076 0.949 . S
H1072 C1078 0.950 . S
H1073 C1079 0.950 . S
H1074 C1080 0.949 . S
C1075 H1070 0.950 . S
C1075 C1077 1.327 . S
C1075 C1081 1.429 . S
C1076 C1068 1.574 . S
C1076 H1071 0.949 . S
C1076 C1082 1.368 . S
C1077 C1061 1.349 . S
C1077 H1069 0.950 . S
C1077 C1075 1.327 . S
C1078 C1066 1.349 . S
C1078 H1072 0.950 . S
C1078 C1079 1.327 . S
C1079 H1073 0.950 . S
C1079 C1078 1.327 . S
C1079 C1083 1.429 . S
C1080 C1063 1.574 . S
C1080 H1074 0.949 . S
C1080 C1084 1.368 . S
C1081 C1062 1.429 . S
C1081 C1075 1.429 . S
C1081 C1082 1.523 . S
C1082 C1063 1.368 . S
C1082 C1076 1.368 . S
C1082 C1081 1.523 . S
C1083 C1067 1.429 . S
C1083 C1079 1.429 . S
C1083 C1084 1.523 . S
C1084 C1068 1.368 . S
C1084 C1080 1.368 . S
C1084 C1083 1.523 . S
H1085 C1060 0.950 . S
H1086 C1062 0.950 . S
H1087 C1063 0.949 . S
H1088 C1065 0.950 . S
H1089 C1067 0.950 . S
C1090 C1091 1.349 . S
C1090 C1092 1.327 . S
C1090 H1115 0.950 . S
C1091 C1090 1.349 . S
C1091 C1107 1.349 . S
C1092 C1090 1.327 . S
C1092 C1111 1.429 . S
C1092 H1116 0.950 . S
C1093 C1110 1.574 . S
C1093 C1112 1.368 . S
C1093 H1117 0.949 . S
H1094 C1098 0.949 . S
C1095 C1096 1.349 . S
C1095 C1097 1.327 . S
C1095 H1118 0.950 . S
C1096 C1095 1.349 . S
C1096 C1108 1.349 . S
C1097 C1095 1.327 . S
C1097 C1113 1.429 . S
C1097 H1119 0.950 . S
C1098 H1094 0.949 . S
C1098 C1106 1.574 . S
C1098 C1114 1.368 . S
H1099 C1107 0.950 . S
H1100 C1105 0.950 . S
H1101 C1106 0.949 . S
H1102 C1108 0.950 . S
H1103 C1109 0.950 . S
H1104 C1110 0.949 . S
C1105 H1100 0.950 . S
C1105 C1107 1.327 . S
C1105 C1111 1.429 . S
C1106 C1098 1.574 . S
C1106 H1101 0.949 . S
C1106 C1112 1.368 . S
C1107 C1091 1.349 . S
C1107 H1099 0.950 . S
C1107 C1105 1.327 . S
C1108 C1096 1.349 . S
C1108 H1102 0.950 . S
C1108 C1109 1.327 . S
C1109 H1103 0.950 . S
C1109 C1108 1.327 . S
C1109 C1113 1.429 . S
C1110 C1093 1.574 . S
C1110 H1104 0.949 . S
C1110 C1114 1.368 . S
C1111 C1092 1.429 . S
C1111 C1105 1.429 . S
C1111 C1112 1.523 . S
C1112 C1093 1.368 . S
C1112 C1106 1.368 . S
C1112 C1111 1.523 . S
C1113 C1097 1.429 . S
C1113 C1109 1.429 . S
C1113 C1114 1.523 . S
C1114 C1098 1.368 . S
C1114 C1110 1.368 . S
C1114 C1113 1.523 . S
H1115 C1090 0.950 . S
H1116 C1092 0.950 . S
H1117 C1093 0.949 . S
H1118 C1095 0.950 . S
H1119 C1097 0.950 . S
C1120 C1121 1.349 . S
C1120 C1122 1.327 . S
C1120 H1145 0.950 . S
C1121 C1120 1.349 . S
C1121 C1137 1.349 . S
C1122 C1120 1.327 . S
C1122 C1141 1.429 . S
C1122 H1146 0.950 . S
C1123 C1140 1.574 . S
C1123 C1142 1.368 . S
C1123 H1147 0.949 . S
H1124 C1128 0.949 . S
C1125 C1126 1.349 . S
C1125 C1127 1.327 1_545 S
C1125 H1148 0.950 . S
C1126 C1125 1.349 . S
C1126 C1138 1.349 1_545 S
C1127 C1125 1.327 1_565 S
C1127 C1143 1.429 . S
C1127 H1149 0.950 . S
C1128 H1124 0.949 . S
C1128 C1136 1.574 . S
C1128 C1144 1.368 . S
H1129 C1137 0.950 . S
H1130 C1135 0.950 . S
H1131 C1136 0.949 . S
H1132 C1138 0.950 . S
H1133 C1139 0.950 . S
H1134 C1140 0.949 . S
C1135 H1130 0.950 . S
C1135 C1137 1.327 . S
C1135 C1141 1.429 . S
C1136 C1128 1.574 . S
C1136 H1131 0.949 . S
C1136 C1142 1.368 . S
C1137 C1121 1.349 . S
C1137 H1129 0.950 . S
C1137 C1135 1.327 . S
C1138 C1126 1.349 1_565 S
C1138 H1132 0.950 . S
C1138 C1139 1.327 . S
C1139 H1133 0.950 . S
C1139 C1138 1.327 . S
C1139 C1143 1.429 . S
C1140 C1123 1.574 . S
C1140 H1134 0.949 . S
C1140 C1144 1.368 . S
C1141 C1122 1.429 . S
C1141 C1135 1.429 . S
C1141 C1142 1.523 . S
C1142 C1123 1.368 . S
C1142 C1136 1.368 . S
C1142 C1141 1.523 . S
C1143 C1127 1.429 . S
C1143 C1139 1.429 . S
C1143 C1144 1.523 . S
C1144 C1128 1.368 . S
C1144 C1140 1.368 . S
C1144 C1143 1.523 . S
H1145 C1120 0.950 . S
H1146 C1122 0.950 . S
H1147 C1123 0.949 . S
H1148 C1125 0.950 . S
H1149 C1127 0.950 . S
C1150 C1151 1.349 . S
C1150 C1152 1.327 . S
C1150 H1175 0.950 . S
C1151 C1150 1.349 . S
C1151 C1167 1.349 . S
C1152 C1150 1.327 . S
C1152 C1171 1.429 . S
C1152 H1176 0.950 . S
C1153 C1170 1.574 . S
C1153 C1172 1.368 . S
C1153 H1177 0.949 . S
H1154 C1158 0.949 . S
C1155 C1156 1.349 . S
C1155 C1157 1.327 . S
C1155 H1178 0.950 . S
C1156 C1155 1.349 . S
C1156 C1168 1.349 . S
C1157 C1155 1.327 . S
C1157 C1173 1.429 . S
C1157 H1179 0.950 . S
C1158 H1154 0.949 . S
C1158 C1166 1.574 . S
C1158 C1174 1.368 . S
H1159 C1167 0.950 . S
H1160 C1165 0.950 . S
H1161 C1166 0.949 . S
H1162 C1168 0.950 . S
H1163 C1169 0.950 . S
H1164 C1170 0.949 . S
C1165 H1160 0.950 . S
C1165 C1167 1.327 . S
C1165 C1171 1.429 . S
C1166 C1158 1.574 . S
C1166 H1161 0.949 . S
C1166 C1172 1.368 . S
C1167 C1151 1.349 . S
C1167 H1159 0.950 . S
C1167 C1165 1.327 . S
C1168 C1156 1.349 . S
C1168 H1162 0.950 . S
C1168 C1169 1.327 . S
C1169 H1163 0.950 . S
C1169 C1168 1.327 . S
C1169 C1173 1.429 . S
C1170 C1153 1.574 . S
C1170 H1164 0.949 . S
C1170 C1174 1.368 . S
C1171 C1152 1.429 . S
C1171 C1165 1.429 . S
C1171 C1172 1.523 . S
C1172 C1153 1.368 . S
C1172 C1166 1.368 . S
C1172 C1171 1.523 . S
C1173 C1157 1.429 . S
C1173 C1169 1.429 . S
C1173 C1174 1.523 . S
C1174 C1158 1.368 . S
C1174 C1170 1.368 . S
C1174 C1173 1.523 . S
H1175 C1150 0.950 . S
H1176 C1152 0.950 . S
H1177 C1153 0.949 . S
H1178 C1155 0.950 . S
H1179 C1157 0.950 . S
C466 C123 1.374 . S
C461 C5 1.255 . S
C496 C203 1.606 . S
C491 C16 1.414 . S
C526 C135 1.696 . S
C521 C30 1.805 . S
C556 C179 1.864 . S
C551 C40 1.984 . S
C586 C247 1.180 . S
C581 C8 1.211 . S
C616 C327 1.411 . S
C611 C18 1.385 . S
C641 C29 1.873 . S
C646 C389 1.865 . S
C676 C445 1.596 . S
C671 C38 1.429 . S
C706 C259 1.250 . S
C701 C19 1.361 . S
C731 C27 1.537 . S
C736 C303 1.581 . S
C766 C365 1.800 . S
C761 C41 1.944 . S
C796 C433 1.417 . S
C791 C7 1.434 . S
C821 C52 1.924 . S
C826 C197 1.787 . S
C856 C117 1.551 . S
C851 C62 1.609 . S
C881 C74 1.483 . S
C886 C185 1.432 . S
C911 C82 1.071 . S
C916 C141 1.237 . S
C946 C383 2.044 . S
C941 C51 2.105 . S
C976 C427 1.577 . S
C971 C60 1.476 . S
C1006 C241 1.318 . S
C1001 C71 1.193 . S
C1031 C84 1.373 . S
C1036 C309 1.377 . S
C1066 C371 1.814 . S
C1061 C63 1.857 . S
C1096 C451 1.423 . S
C1091 C73 1.411 . S
C1126 C265 1.284 . S
C1121 C85 1.327 . S
C1151 C49 1.455 . S
C1156 C321 1.630 . S
