# Generated by pormake.
# Topology ssb, (4,4)-cn, num edge types: 1
# Building blocks:
#     Node 0, Type 0, BuildingBlock: KUFVIS_clean_linker_0, # of connection points: 4
#     Node 1, Type 0, BuildingBlock: KUFVIS_clean_linker_0, # of connection points: 4
#     Node 2, Type 0, BuildingBlock: KUFVIS_clean_linker_0, # of connection points: 4
#     Node 3, Type 0, BuildingBlock: KUFVIS_clean_linker_0, # of connection points: 4
#     Node 4, Type 0, BuildingBlock: KUFVIS_clean_linker_0, # of connection points: 4
#     Node 5, Type 0, BuildingBlock: KUFVIS_clean_linker_0, # of connection points: 4
#     Node 6, Type 0, BuildingBlock: KUFVIS_clean_linker_0, # of connection points: 4
#     Node 7, Type 0, BuildingBlock: KUFVIS_clean_linker_0, # of connection points: 4
#     Node 8, Type 1, BuildingBlock: NAWXER_clean_sbu_0, # of connection points: 4
#     Node 9, Type 1, BuildingBlock: NAWXER_clean_sbu_0, # of connection points: 4
#     Node 10, Type 1, BuildingBlock: NAWXER_clean_sbu_0, # of connection points: 4
#     Node 11, Type 1, BuildingBlock: NAWXER_clean_sbu_0, # of connection points: 4
#     Node 12, Type 1, BuildingBlock: NAWXER_clean_sbu_0, # of connection points: 4
#     Node 13, Type 1, BuildingBlock: NAWXER_clean_sbu_0, # of connection points: 4
#     Node 14, Type 1, BuildingBlock: NAWXER_clean_sbu_0, # of connection points: 4
#     Node 15, Type 1, BuildingBlock: NAWXER_clean_sbu_0, # of connection points: 4
#     Edge 16, Type (0, 1), BuildingBlock: AJUNOK_clean_linker_0, # of connection points: 2
#     Edge 17, Type (0, 1), BuildingBlock: AJUNOK_clean_linker_0, # of connection points: 2
#     Edge 18, Type (0, 1), BuildingBlock: AJUNOK_clean_linker_0, # of connection points: 2
#     Edge 19, Type (0, 1), BuildingBlock: AJUNOK_clean_linker_0, # of connection points: 2
#     Edge 20, Type (0, 1), BuildingBlock: AJUNOK_clean_linker_0, # of connection points: 2
#     Edge 21, Type (0, 1), BuildingBlock: AJUNOK_clean_linker_0, # of connection points: 2
#     Edge 22, Type (0, 1), BuildingBlock: AJUNOK_clean_linker_0, # of connection points: 2
#     Edge 23, Type (0, 1), BuildingBlock: AJUNOK_clean_linker_0, # of connection points: 2
#     Edge 24, Type (0, 1), BuildingBlock: AJUNOK_clean_linker_0, # of connection points: 2
#     Edge 25, Type (0, 1), BuildingBlock: AJUNOK_clean_linker_0, # of connection points: 2
#     Edge 26, Type (0, 1), BuildingBlock: AJUNOK_clean_linker_0, # of connection points: 2
#     Edge 27, Type (0, 1), BuildingBlock: AJUNOK_clean_linker_0, # of connection points: 2
#     Edge 28, Type (0, 1), BuildingBlock: AJUNOK_clean_linker_0, # of connection points: 2
#     Edge 29, Type (0, 1), BuildingBlock: AJUNOK_clean_linker_0, # of connection points: 2
#     Edge 30, Type (0, 1), BuildingBlock: AJUNOK_clean_linker_0, # of connection points: 2
#     Edge 31, Type (0, 1), BuildingBlock: AJUNOK_clean_linker_0, # of connection points: 2
#     Edge 32, Type (0, 1), BuildingBlock: AJUNOK_clean_linker_0, # of connection points: 2
#     Edge 33, Type (0, 1), BuildingBlock: AJUNOK_clean_linker_0, # of connection points: 2
#     Edge 34, Type (0, 1), BuildingBlock: AJUNOK_clean_linker_0, # of connection points: 2
#     Edge 35, Type (0, 1), BuildingBlock: AJUNOK_clean_linker_0, # of connection points: 2
#     Edge 36, Type (0, 1), BuildingBlock: AJUNOK_clean_linker_0, # of connection points: 2
#     Edge 37, Type (0, 1), BuildingBlock: AJUNOK_clean_linker_0, # of connection points: 2
#     Edge 38, Type (0, 1), BuildingBlock: AJUNOK_clean_linker_0, # of connection points: 2
#     Edge 39, Type (0, 1), BuildingBlock: AJUNOK_clean_linker_0, # of connection points: 2
#     Edge 40, Type (0, 1), BuildingBlock: AJUNOK_clean_linker_0, # of connection points: 2
#     Edge 41, Type (0, 1), BuildingBlock: AJUNOK_clean_linker_0, # of connection points: 2
#     Edge 42, Type (0, 1), BuildingBlock: AJUNOK_clean_linker_0, # of connection points: 2
#     Edge 43, Type (0, 1), BuildingBlock: AJUNOK_clean_linker_0, # of connection points: 2
#     Edge 44, Type (0, 1), BuildingBlock: AJUNOK_clean_linker_0, # of connection points: 2
#     Edge 45, Type (0, 1), BuildingBlock: AJUNOK_clean_linker_0, # of connection points: 2
#     Edge 46, Type (0, 1), BuildingBlock: AJUNOK_clean_linker_0, # of connection points: 2
#     Edge 47, Type (0, 1), BuildingBlock: AJUNOK_clean_linker_0, # of connection points: 2
# Relax obj value: 0.000
# Max RMSD: 0.051
# Mean RMSD: 0.025
data_MOF--net-ssb--node1-NAWXER_clean_sbu_0--node2-KUFVIS_clean_linker_0--edge1-AJUNOK_clean_linker_0
_symmetry_space_group_name_H-M    P1
_symmetry_Int_Tables_number       1
_symmetry_cell_setting            triclinic
loop_
_symmetry_equiv_pos_as_xyz
'x, y, z'
_cell_length_a     33.731862
_cell_length_b     34.019434
_cell_length_c     27.820688
_cell_angle_alpha  89.951452
_cell_angle_beta   90.018223
_cell_angle_gamma 89.957261
loop_
_atom_site_label
_atom_site_type_symbol
_atom_site_fract_x
_atom_site_fract_y
_atom_site_fract_z
_atom_type_partial_charge
H0 H 0.19391 0.23875 0.46734 0.0
H1 H 0.26465 0.22091 0.34067 0.0
H2 H 0.21019 0.33375 0.36827 0.0
H3 H 0.20221 0.3283 0.2857 0.0
H4 H 0.29563 0.33904 0.18252 0.0
H5 H 0.31302 0.26671 0.30767 0.0
C6 C 0.20719 0.25009 0.43464 0.0
C7 C 0.19937 0.28892 0.42077 0.0
C8 C 0.23078 0.2253 0.4063 0.0
C9 C 0.24737 0.24021 0.36346 0.0
C10 C 0.23999 0.27941 0.34894 0.0
C11 C 0.21609 0.30353 0.37833 0.0
C12 C 0.25556 0.29504 0.30237 0.0
C13 C 0.23198 0.32068 0.27439 0.0
C14 C 0.24635 0.33638 0.23127 0.0
C15 C 0.28455 0.32655 0.2158 0.0
C16 C 0.30885 0.30147 0.2429 0.0
C17 C 0.29409 0.28546 0.28609 0.0
H18 H 0.73053 0.30874 0.1563 0.0
H19 H 0.83986 0.28999 0.23215 0.0
H20 H 0.73439 0.22348 0.26862 0.0
H21 H 0.77693 0.17767 0.28691 0.0
H22 H 0.8663 0.17208 0.39517 0.0
H23 H 0.85608 0.27654 0.30999 0.0
C24 C 0.7474 0.29326 0.18359 0.0
C25 C 0.7287 0.26409 0.21076 0.0
C26 C 0.78734 0.30296 0.19123 0.0
C27 C 0.80887 0.28289 0.22715 0.0
C28 C 0.79064 0.25315 0.25524 0.0
C29 C 0.75011 0.24464 0.24675 0.0
C30 C 0.81329 0.23048 0.29291 0.0
C31 C 0.80106 0.19198 0.30555 0.0
C32 C 0.81957 0.17131 0.34286 0.0
C33 C 0.85237 0.18778 0.36565 0.0
C34 C 0.86634 0.22501 0.35314 0.0
C35 C 0.84624 0.24692 0.31762 0.0
H36 H 0.78911 0.80185 0.43852 0.0
H37 H 0.78901 0.71594 0.32731 0.0
H38 H 0.68548 0.78933 0.35036 0.0
H39 H 0.66987 0.77227 0.27564 0.0
H40 H 0.66216 0.66803 0.19009 0.0
H41 H 0.7483 0.67298 0.30164 0.0
C42 C 0.77339 0.78689 0.40987 0.0
C43 C 0.73531 0.79955 0.39667 0.0
C44 C 0.79202 0.75585 0.38589 0.0
C45 C 0.77287 0.73826 0.34678 0.0
C46 C 0.73369 0.74882 0.33359 0.0
C47 C 0.71538 0.78021 0.35888 0.0
C48 C 0.71237 0.72629 0.2945 0.0
C49 C 0.68006 0.74272 0.26847 0.0
C50 C 0.6609 0.72091 0.23213 0.0
C51 C 0.67519 0.68367 0.2202 0.0
C52 C 0.70737 0.66717 0.24416 0.0
C53 C 0.72488 0.68771 0.2822 0.0
H54 H 0.21132 0.84585 0.38539 0.0
H55 H 0.31151 0.83168 0.29305 0.0
H56 H 0.20668 0.76014 0.27216 0.0
H57 H 0.25554 0.7172 0.24344 0.0
H58 H 0.33199 0.72975 0.12084 0.0
H59 H 0.31089 0.82894 0.21178 0.0
C60 C 0.22505 0.83116 0.35505 0.0
C61 C 0.20469 0.80105 0.33122 0.0
C62 C 0.26314 0.84246 0.34094 0.0
C63 C 0.28168 0.82301 0.30279 0.0
C64 C 0.2616 0.79335 0.27683 0.0
C65 C 0.223 0.78232 0.29181 0.0
C66 C 0.28056 0.77536 0.23331 0.0
C67 C 0.27399 0.73557 0.22086 0.0
C68 C 0.29226 0.71894 0.18005 0.0
C69 C 0.3175 0.74237 0.15202 0.0
C70 C 0.32476 0.78175 0.16387 0.0
C71 C 0.3059 0.79816 0.20398 0.0
H72 H 0.30951 0.66876 0.88658 0.0
H73 H 0.21066 0.68407 0.79235 0.0
H74 H 0.31629 0.75479 0.77356 0.0
H75 H 0.26656 0.7986 0.74393 0.0
H76 H 0.19136 0.78474 0.62035 0.0
H77 H 0.21476 0.68549 0.71054 0.0
C78 C 0.29627 0.68369 0.85605 0.0
C79 C 0.31724 0.71357 0.83254 0.0
C80 C 0.25826 0.67281 0.84127 0.0
C81 C 0.24041 0.6925 0.80279 0.0
C82 C 0.26114 0.72199 0.77722 0.0
C83 C 0.29959 0.73268 0.79291 0.0
C84 C 0.24301 0.73982 0.73312 0.0
C85 C 0.24866 0.77989 0.72112 0.0
C86 C 0.22979 0.79632 0.68054 0.0
C87 C 0.206 0.77226 0.65156 0.0
C88 C 0.20009 0.73256 0.66273 0.0
C89 C 0.21892 0.71645 0.70301 0.0
H90 H 0.33063 0.27767 0.96913 0.0
H91 H 0.31377 0.18139 0.87243 0.0
H92 H 0.25788 0.29346 0.84367 0.0
H93 H 0.2106 0.24904 0.80924 0.0
H94 H 0.22639 0.17138 0.68877 0.0
H95 H 0.31999 0.18389 0.79109 0.0
C96 C 0.31703 0.26582 0.93691 0.0
C97 C 0.29259 0.28996 0.90873 0.0
C98 C 0.32516 0.22697 0.92353 0.0
C99 C 0.30784 0.21172 0.88178 0.0
C100 C 0.28335 0.2353 0.85225 0.0
C101 C 0.27569 0.27452 0.86636 0.0
C102 C 0.26747 0.21903 0.80605 0.0
C103 C 0.22915 0.22901 0.789 0.0
C104 C 0.21396 0.21155 0.74686 0.0
C105 C 0.2377 0.18496 0.72129 0.0
C106 C 0.27549 0.17475 0.73759 0.0
C107 C 0.29044 0.19197 0.77941 0.0
H108 H 0.65891 0.34722 0.89395 0.0
H109 H 0.74931 0.34017 0.78752 0.0
H110 H 0.67083 0.24093 0.81332 0.0
H111 H 0.68982 0.2212 0.741 0.0
H112 H 0.79829 0.20427 0.66365 0.0
H113 H 0.79151 0.29639 0.76707 0.0
C114 C 0.67311 0.33106 0.86505 0.0
C115 C 0.65964 0.29343 0.85376 0.0
C116 C 0.70581 0.34736 0.84198 0.0
C117 C 0.7251 0.32589 0.80599 0.0
C118 C 0.71339 0.2869 0.79455 0.0
C119 C 0.68035 0.27083 0.81953 0.0
C120 C 0.7366 0.26329 0.75809 0.0
C121 C 0.71996 0.23036 0.73404 0.0
C122 C 0.74271 0.2083 0.70121 0.0
C123 C 0.78128 0.22054 0.6901 0.0
C124 C 0.79838 0.25305 0.71274 0.0
C125 C 0.77647 0.27337 0.74756 0.0
H126 H 0.72926 0.7097 0.92851 0.0
H127 H 0.83967 0.72682 0.85435 0.0
H128 H 0.73639 0.79737 0.81958 0.0
H129 H 0.77946 0.84113 0.79925 0.0
H130 H 0.86825 0.84345 0.69034 0.0
H131 H 0.8573 0.74075 0.77814 0.0
C132 C 0.74689 0.72522 0.902 0.0
C133 C 0.72946 0.75595 0.87614 0.0
C134 C 0.78639 0.71397 0.89381 0.0
C135 C 0.80882 0.73457 0.85917 0.0
C136 C 0.79169 0.76549 0.83193 0.0
C137 C 0.7515 0.77532 0.84077 0.0
C138 C 0.81499 0.78759 0.79434 0.0
C139 C 0.80329 0.8261 0.7809 0.0
C140 C 0.82176 0.84579 0.74284 0.0
C141 C 0.85439 0.8286 0.72052 0.0
C142 C 0.8682 0.79158 0.73417 0.0
C143 C 0.84781 0.77041 0.77005 0.0
C144 C 0.95478 0.28921 0.6372 0.0
C145 C 0.07056 0.32157 0.53803 0.0
O146 O 0.96931 0.32323 0.63017 0.0
Zn147 Zn 0.01367 0.30761 0.58885 0.0
O148 O 0.97192 0.25929 0.61858 0.0
Zn149 Zn 0.0215 0.2466 0.57445 0.0
O150 O 0.05549 0.21533 0.61499 0.0
O151 O 0.0551 0.27766 0.63639 0.0
O152 O 0.06287 0.28489 0.54133 0.0
O153 O 0.04912 0.34674 0.55977 0.0
O154 O 0.98318 0.2862 0.52537 0.0
O155 O 0.99768 0.22322 0.51841 0.0
C156 C 0.06837 0.24255 0.64208 0.0
C157 C 0.98021 0.25366 0.50234 0.0
C158 C 0.7159 0.06637 0.59216 0.0
C159 C 0.70897 0.94538 0.49444 0.0
O160 O 0.74949 0.05188 0.58008 0.0
Zn161 Zn 0.77302 1.00449 0.53877 0.0
O162 O 0.68418 0.05048 0.57673 0.0
Zn163 Zn 0.71026 0.00745 0.54095 0.0
O164 O 0.73863 0.97449 0.59889 0.0
O165 O 0.80325 0.97853 0.5867 0.0
O166 O 0.67962 0.9661 0.508 0.0
O167 O 0.74425 0.95661 0.50407 0.0
O168 O 0.80171 0.02941 0.4882 0.0
O169 O 0.73737 0.03934 0.48235 0.0
C170 C 0.77431 0.96636 0.61184 0.0
C171 C 0.77263 0.04502 0.46647 0.0
C172 C 0.97908 0.75962 0.58333 0.0
C173 C 0.06118 0.7663 0.4378 0.0
O174 O 0.99486 0.78991 0.56448 0.0
Zn175 Zn 0.01689 0.76487 0.50825 0.0
O176 O 0.98238 0.72625 0.56228 0.0
Zn177 Zn 0.01103 0.70276 0.49902 0.0
O178 O 0.04915 0.66669 0.52924 0.0
O179 O 0.0613 0.7299 0.54121 0.0
O180 O 0.04928 0.73131 0.44726 0.0
O181 O 0.04788 0.7948 0.46261 0.0
O182 O 0.96528 0.7482 0.46995 0.0
O183 O 0.96563 0.68366 0.46196 0.0
C184 C 0.07065 0.69381 0.547 0.0
C185 C 0.94908 0.7167 0.4545 0.0
C186 C 0.31342 0.05124 0.61142 0.0
C187 C 0.30402 0.9658 0.4702 0.0
O188 O 0.34277 0.03738 0.58821 0.0
Zn189 Zn 0.31133 0.00799 0.54112 0.0
O190 O 0.27801 0.04309 0.59847 0.0
Zn191 Zn 0.24779 0.01113 0.54458 0.0
O192 O 0.21916 0.97197 0.58162 0.0
O193 O 0.28371 0.96258 0.58377 0.0
O194 O 0.27075 0.97726 0.48723 0.0
O195 O 0.33617 0.97632 0.49041 0.0
O196 O 0.28494 0.05601 0.50157 0.0
O197 O 0.22017 0.05293 0.51067 0.0
C198 C 0.24868 0.95187 0.5961 0.0
C199 C 0.25038 0.07015 0.49304 0.0
C200 C 0.45537 0.81896 0.04871 0.0
C201 C 0.57259 0.79131 0.94842 0.0
O202 O 0.47674 0.84549 1.02933 0.0
Zn203 Zn 0.5139 0.80858 0.99818 0.0
O204 O 0.46403 0.7827 0.04332 0.0
Zn205 Zn 0.50632 0.7464 1.00942 0.0
O206 O 0.53093 0.72197 0.06471 0.0
O207 O 0.5442 0.78533 0.05995 0.0
O208 O 0.55527 0.76108 0.96585 0.0
O209 O 0.55883 0.82536 0.95766 0.0
O210 O 0.47391 0.77992 0.94871 0.0
O211 O 0.47283 0.71671 0.96633 0.0
C212 C 0.54815 0.75227 0.08154 0.0
C213 C 0.46049 0.74525 0.94074 0.0
C214 C 0.2692 0.56312 0.09698 0.0
C215 C 0.27048 0.4455 0.99307 0.0
O216 O 0.29917 0.5432 0.08359 0.0
Zn217 Zn 0.27164 0.50405 0.04506 0.0
O218 O 0.23457 0.55213 0.08355 0.0
Zn219 Zn 0.20814 0.50686 1.0402 0.0
O220 O 0.17617 0.47668 0.08591 0.0
O221 O 0.24078 0.46987 0.09653 0.0
O222 O 0.23567 0.45931 1.00094 0.0
O223 O 0.30034 0.46303 1.01113 0.0
O224 O 0.24923 0.53806 0.9873 0.0
O225 O 0.18374 0.53849 0.98917 0.0
C226 C 0.20519 0.46145 0.10848 0.0
C227 C 0.21607 0.54934 0.96967 0.0
C228 C 0.54571 0.26439 1.00279 0.0
C229 C 0.45672 0.27277 0.14177 0.0
O230 O 0.52763 0.29449 1.01879 0.0
Zn231 Zn 0.50405 0.27062 0.0747 0.0
O232 O 0.54332 0.23177 1.02577 0.0
Zn233 Zn 0.51342 0.20947 0.08884 0.0
O234 O 0.47831 0.16997 0.05948 0.0
O235 O 0.4635 0.23169 0.04159 0.0
O236 O 0.47139 0.23826 0.13601 0.0
O237 O 0.46894 0.30073 0.11525 0.0
O238 O 0.55352 0.25893 0.11927 0.0
O239 O 0.55816 0.19509 0.13067 0.0
C240 C 0.45632 0.19495 1.0381 0.0
C241 C 0.57137 0.22957 0.13823 0.0
C242 C 0.75485 0.54372 0.11785 0.0
C243 C 0.75254 0.47121 0.96772 0.0
O244 O 0.79012 0.5379 0.10189 0.0
Zn245 Zn 0.81691 0.50728 0.04137 0.0
O246 O 0.7255 0.52977 0.09498 0.0
Zn247 Zn 0.75429 0.50733 0.04296 0.0
O248 O 0.78123 0.45724 0.07592 0.0
O249 O 0.84622 0.46474 0.0734 0.0
O250 O 0.72397 0.48491 0.99218 0.0
O251 O 0.7883 0.47673 0.98212 0.0
O252 O 0.84504 0.54987 1.00797 0.0
O253 O 0.78007 0.55767 1.00919 0.0
C254 C 0.81608 0.44466 0.08569 0.0
C255 C 0.81454 0.57022 0.99767 0.0
C256 C 0.17489 0.3153 0.49906 0.0
C257 C 0.17028 0.31209 0.44895 0.0
C258 C 0.14273 0.32527 0.52856 0.0
C259 C 0.10505 0.33234 0.50885 0.0
H260 H 0.20254 0.30661 0.51584 0.0
H261 H 0.14633 0.32308 0.56719 0.0
S262 S 0.07874 0.33277 0.37972 0.0
N263 N 0.12632 0.32125 0.38064 0.0
N264 N 0.06585 0.33965 0.43638 0.0
C265 C 0.10112 0.33328 0.45869 0.0
C266 C 0.13384 0.32325 0.42857 0.0
C267 C 0.82873 0.1027 0.37241 0.0
C268 C 0.80307 0.13431 0.36267 0.0
C269 C 0.81753 0.0724 0.40359 0.0
C270 C 0.78016 0.07245 0.42607 0.0
H271 H 0.85869 0.1028 0.35833 0.0
H272 H 0.83916 0.04987 0.41205 0.0
S273 S 0.70021 0.14597 0.40734 0.0
N274 N 0.73734 0.16199 0.37402 0.0
N275 N 0.71584 0.10464 0.4321 0.0
C276 C 0.7529 0.10204 0.4132 0.0
C277 C 0.76446 0.13306 0.38154 0.0
C278 C 0.86364 0.73885 0.37044 0.0
C279 C 0.83141 0.74148 0.40252 0.0
C280 C 0.90173 0.72843 0.38678 0.0
C281 C 0.90848 0.71947 0.43541 0.0
H282 H 0.85973 0.7465 0.33293 0.0
H283 H 0.92626 0.72876 0.36165 0.0
S284 S 0.83396 0.71938 0.53313 0.0
N285 N 0.80869 0.73219 0.48471 0.0
N286 N 0.88008 0.71257 0.515 0.0
C287 C 0.87636 0.72053 0.46733 0.0
C288 C 0.83783 0.73147 0.45097 0.0
C289 C 0.26239 0.9129 0.36343 0.0
C290 C 0.28173 0.87638 0.36536 0.0
C291 C 0.2728 0.94328 0.39474 0.0
C292 C 0.30294 0.93832 0.42917 0.0
H293 H 0.23734 0.91713 0.33957 0.0
H294 H 0.25531 0.97003 0.3941 0.0
S295 S 0.36536 0.8496 0.44523 0.0
N296 N 0.33465 0.83784 0.40122 0.0
N297 N 0.3544 0.8953 0.46046 0.0
C298 C 0.32475 0.9031 0.42883 0.0
C299 C 0.31402 0.87195 0.39681 0.0
C300 C 0.17492 0.70913 0.58334 0.0
C301 C 0.17154 0.70939 0.63373 0.0
C302 C 0.14301 0.69765 0.55432 0.0
C303 C 0.10677 0.686 0.57474 0.0
H304 H 0.20123 0.72088 0.56625 0.0
H305 H 0.14534 0.7018 0.51578 0.0
S306 S 0.0843 0.67721 0.70448 0.0
N307 N 0.13054 0.69313 0.70275 0.0
N308 N 0.07047 0.67182 0.64789 0.0
C309 C 0.10432 0.68249 0.62487 0.0
C310 C 0.13682 0.69412 0.65452 0.0
C311 C 0.31649 0.15024 0.66909 0.0
C312 C 0.29693 0.14282 0.71276 0.0
C313 C 0.32721 0.1192 0.63838 0.0
C314 C 0.31807 0.08006 0.6503 0.0
H315 H 0.32085 0.18022 0.65705 0.0
H316 H 0.33904 0.12615 0.60317 0.0
S317 S 0.27011 0.0454 0.76226 0.0
N318 N 0.27195 0.09369 0.7682 0.0
N319 N 0.29109 0.0355 0.71 0.0
C320 C 0.30111 0.07229 0.69536 0.0
C321 C 0.29073 0.10371 0.72676 0.0
C322 C 0.86945 0.23607 0.69732 0.0
C323 C 0.83962 0.26485 0.70004 0.0
C324 C 0.90716 0.24496 0.67937 0.0
C325 C 0.91682 0.28308 0.66337 0.0
H326 H 0.86326 0.20605 0.70798 0.0
H327 H 0.92856 0.22131 0.67669 0.0
S328 S 0.85 0.36977 0.66577 0.0
N329 N 0.82274 0.33358 0.68752 0.0
N330 N 0.8939 0.35048 0.65407 0.0
C331 C 0.88794 0.31272 0.66824 0.0
C332 C 0.84931 0.30356 0.68649 0.0
C333 C 0.83111 0.91288 0.70879 0.0
C334 C 0.80522 0.88219 0.72144 0.0
C335 C 0.81988 0.94154 0.67541 0.0
C336 C 0.78215 0.94089 0.6539 0.0
H337 H 0.86129 0.91306 0.72216 0.0
H338 H 0.84167 0.9632 0.66462 0.0
S339 S 0.70122 0.8704 0.68071 0.0
N340 N 0.73876 0.85527 0.71405 0.0
N341 N 0.71709 0.91003 0.65234 0.0
C342 C 0.75459 0.91273 0.66988 0.0
C343 C 0.76625 0.88318 0.70354 0.0
C344 C 0.89602 0.74455 0.67391 0.0
C345 C 0.9021 0.77562 0.70633 0.0
C346 C 0.92249 0.73803 0.63564 0.0
C347 C 0.95536 0.76289 0.62806 0.0
H348 H 0.86917 0.72718 0.67588 0.0
H349 H 0.91567 0.71502 0.61009 0.0
S350 S 0.98774 0.84391 0.70794 0.0
N351 N 0.94623 0.82777 0.73244 0.0
N352 N 0.99529 0.8162 0.66009 0.0
C353 C 0.96335 0.79195 0.66252 0.0
C354 C 0.93694 0.79804 0.70183 0.0
C355 C 0.27207 0.854 0.65718 0.0
C356 C 0.23438 0.83848 0.66709 0.0
C357 C 0.27639 0.89131 0.63601 0.0
C358 C 0.24317 0.91469 0.62399 0.0
H359 H 0.29833 0.83638 0.66359 0.0
H360 H 0.30607 0.90122 0.62745 0.0
S361 S 0.13808 0.88916 0.64889 0.0
N362 N 0.16344 0.85065 0.66794 0.0
N363 N 0.17131 0.92053 0.62824 0.0
C364 C 0.2054 0.90029 0.63648 0.0
C365 C 0.20108 0.86231 0.65795 0.0
C366 C 0.16168 0.25845 0.71701 0.0
C367 C 0.17323 0.21989 0.7287 0.0
C368 C 0.12649 0.26577 0.69124 0.0
C369 C 0.10164 0.23477 0.67609 0.0
H370 H 0.18102 0.2829 0.72548 0.0
H371 H 0.11987 0.29578 0.68098 0.0
S372 S 0.11566 0.12907 0.70479 0.0
N373 N 0.1547 0.1509 0.72859 0.0
N374 N 0.08909 0.16444 0.67991 0.0
C375 C 0.11167 0.19636 0.69049 0.0
C376 C 0.14727 0.189 0.71685 0.0
C377 C 0.75192 0.13677 0.68739 0.0
C378 C 0.72871 0.17059 0.6801 0.0
C379 C 0.74573 0.10261 0.66051 0.0
C380 C 0.71583 0.10055 0.62533 0.0
H381 H 0.77649 0.13741 0.7125 0.0
H382 H 0.76562 0.078 0.66611 0.0
S383 S 0.6447 0.1799 0.59495 0.0
N384 N 0.67299 0.19929 0.63728 0.0
N385 N 0.66086 0.13447 0.58691 0.0
C386 C 0.69059 0.1332 0.61977 0.0
C387 C 0.69716 0.16838 0.64713 0.0
C388 C 0.89471 0.27019 0.4152 0.0
C389 C 0.90049 0.2402 0.38119 0.0
C390 C 0.9219 0.2759 0.45298 0.0
C391 C 0.95533 0.25135 0.45835 0.0
H392 H 0.86762 0.28732 0.41475 0.0
H393 H 0.91529 0.298 0.47982 0.0
S394 S 0.9868 0.17293 0.37402 0.0
N395 N 0.94453 0.18923 0.35162 0.0
N396 N 0.99515 0.19943 0.42269 0.0
C397 C 0.96286 0.22335 0.42239 0.0
C398 C 0.9356 0.21799 0.38374 0.0
C399 C 0.70781 0.86836 0.39649 0.0
C400 C 0.71793 0.83406 0.42219 0.0
C401 C 0.70114 0.90427 0.42046 0.0
C402 C 0.70393 0.90684 0.47081 0.0
H403 H 0.70801 0.86812 0.35756 0.0
H404 H 0.6965 0.93064 0.39932 0.0
S405 S 0.72472 0.82489 0.55485 0.0
N406 N 0.72627 0.80439 0.50108 0.0
N407 N 0.71429 0.87174 0.54562 0.0
C408 C 0.71123 0.8723 0.49692 0.0
C409 C 0.71796 0.83591 0.47274 0.0
C410 C 0.13678 0.81949 0.36025 0.0
C411 C 0.16455 0.78987 0.34913 0.0
C412 C 0.10231 0.81123 0.38658 0.0
C413 C 0.09387 0.77291 0.40263 0.0
H414 H 0.14268 0.84974 0.35037 0.0
H415 H 0.08291 0.83542 0.396 0.0
S416 S 0.1554 0.68417 0.37959 0.0
N417 N 0.18011 0.7203 0.35367 0.0
N418 N 0.11506 0.70441 0.40235 0.0
C419 C 0.1201 0.74251 0.389 0.0
C420 C 0.15542 0.75106 0.3624 0.0
C421 C 0.20362 0.16139 0.43715 0.0
C422 C 0.23652 0.18371 0.42199 0.0
C423 C 0.20829 0.12424 0.45841 0.0
C424 C 0.2461 0.10768 0.46554 0.0
H425 H 0.17394 0.1732 0.43361 0.0
H426 H 0.18197 0.10892 0.47053 0.0
S427 S 0.34185 0.1532 0.42931 0.0
N428 N 0.30806 0.18589 0.41353 0.0
N429 N 0.31715 0.11599 0.45287 0.0
C430 C 0.27923 0.12902 0.44856 0.0
C431 C 0.27435 0.16695 0.42688 0.0
C432 C 0.67892 0.80471 0.90556 0.0
C433 C 0.68783 0.76737 0.88656 0.0
C434 C 0.64065 0.81357 0.92279 0.0
C435 C 0.61016 0.78533 0.92144 0.0
H436 H 0.70216 0.82644 0.90942 0.0
H437 H 0.63561 0.84181 0.93967 0.0
S438 S 0.61716 0.68562 0.86758 0.0
N439 N 0.66229 0.70386 0.86224 0.0
N440 N 0.59056 0.72027 0.89377 0.0
C441 C 0.61825 0.74894 0.89924 0.0
C442 C 0.65704 0.74 0.88206 0.0
C443 C 0.2581 0.60222 0.86306 0.0
C444 C 0.23916 0.63893 0.86522 0.0
C445 C 0.24745 0.5718 0.89427 0.0
C446 C 0.21741 0.57693 0.92874 0.0
H447 H 0.2831 0.59786 0.83918 0.0
H448 H 0.26467 0.54489 0.89354 0.0
S449 S 0.15608 0.66628 0.94551 0.0
N450 N 0.1868 0.6779 0.90145 0.0
N451 N 0.16653 0.62037 0.96043 0.0
C452 C 0.19599 0.61239 0.92864 0.0
C453 C 0.207 0.64357 0.89677 0.0
C454 C 0.35134 0.20156 1.0017 0.0
C455 C 0.35497 0.20432 0.95143 0.0
C456 C 0.38398 0.19154 1.03045 0.0
C457 C 0.42128 0.18404 1.00988 0.0
H458 H 0.32405 0.21049 1.01911 0.0
H459 H 0.3811 0.19401 0.06915 0.0
S460 S 0.44511 0.18256 0.88007 0.0
N461 N 0.39762 0.19438 0.88211 0.0
N462 N 0.45904 0.17604 0.93645 0.0
C463 C 0.42424 0.18279 0.95963 0.0
C464 C 0.391 0.19282 0.93025 0.0
C465 C 0.75975 0.38511 0.88211 0.0
C466 C 0.72186 0.38476 0.86101 0.0
C467 C 0.77084 0.41511 0.91401 0.0
C468 C 0.74424 0.44548 0.92602 0.0
H469 H 0.77962 0.3604 0.87718 0.0
H470 H 0.79919 0.41276 0.9321 0.0
S471 S 0.6448 0.46183 0.87251 0.0
N472 N 0.66035 0.42033 0.84821 0.0
N473 N 0.68087 0.47655 0.90838 0.0
C474 C 0.70783 0.44738 0.90146 0.0
C475 C 0.69675 0.41707 0.8688 0.0
C476 C 0.67637 0.21556 0.18589 0.0
C477 C 0.68671 0.25387 0.20034 0.0
C478 C 0.63813 0.20707 0.16841 0.0
C479 C 0.609 0.23663 0.16485 0.0
H480 H 0.69855 0.19252 0.18578 0.0
H481 H 0.63208 0.17771 0.1553 0.0
S482 S 0.61971 0.34007 0.20585 0.0
N483 N 0.6637 0.32027 0.2154 0.0
N484 N 0.59206 0.30464 0.18311 0.0
C485 C 0.61839 0.27436 0.18247 0.0
C486 C 0.65718 0.28291 0.20002 0.0
C487 C 0.69914 0.59855 0.21458 0.0
C488 C 0.72444 0.63033 0.22464 0.0
C489 C 0.71047 0.56891 0.18256 0.0
C490 C 0.74761 0.56983 0.15956 0.0
H491 H 0.66924 0.59819 0.22883 0.0
H492 H 0.68903 0.54635 0.1737 0.0
S493 S 0.82674 0.64391 0.17903 0.0
N494 N 0.78971 0.65891 0.21325 0.0
N495 N 0.81145 0.60282 0.15351 0.0
C496 C 0.77463 0.59942 0.17289 0.0
C497 C 0.76294 0.62977 0.20542 0.0
C498 C 0.35079 0.80562 0.08491 0.0
C499 C 0.35414 0.80439 0.13529 0.0
C500 C 0.38293 0.81698 0.05613 0.0
C501 C 0.41949 0.82745 0.07672 0.0
H502 H 0.32419 0.7948 0.06755 0.0
H503 H 0.38044 0.81357 1.0175 0.0
S504 S 0.44217 0.83338 0.20668 0.0
N505 N 0.39557 0.81854 0.20462 0.0
N506 N 0.45612 0.8394 0.15023 0.0
C507 C 0.42203 0.82989 0.12696 0.0
C508 C 0.38926 0.81848 0.15638 0.0
C509 C 0.21737 0.40345 0.22174 0.0
C510 C 0.22327 0.36544 0.20316 0.0
C511 C 0.20638 0.43472 0.19147 0.0
C512 C 0.20003 0.4286 0.14213 0.0
H513 H 0.22479 0.40974 0.25884 0.0
H514 H 0.2061 0.46429 0.20591 0.0
S515 S 0.20749 0.33391 0.07718 0.0
N516 N 0.21881 0.32286 0.13338 0.0
N517 N 0.19732 0.38142 0.07689 0.0
C518 C 0.20243 0.39014 0.12416 0.0
C519 C 0.21425 0.35854 0.15463 0.0
C520 C 0.37379 0.32432 0.20931 0.0
C521 C 0.34967 0.29308 0.2251 0.0
C522 C 0.40939 0.31746 0.18468 0.0
C523 C 0.42255 0.27902 0.17488 0.0
H524 H 0.36431 0.35445 0.21455 0.0
H525 H 0.42598 0.34258 0.17177 0.0
S526 S 0.3715 0.18689 0.21157 0.0
N527 N 0.34237 0.22232 0.2315 0.0
N528 N 0.40947 0.20911 0.1858 0.0
C529 C 0.39978 0.24745 0.19292 0.0
C530 C 0.36335 0.25454 0.21791 0.0
C531 C 0.82084 0.36885 0.18502 0.0
C532 C 0.80496 0.33541 0.16218 0.0
C533 C 0.82807 0.40375 0.1591 0.0
C534 C 0.81975 0.40612 0.10964 0.0
H535 H 0.82488 0.36901 0.22365 0.0
H536 H 0.83744 0.42975 0.17847 0.0
S537 S 0.78364 0.32547 1.03184 0.0
N538 N 0.78606 0.30572 0.08603 0.0
N539 N 0.79865 0.37139 1.03805 0.0
C540 C 0.80675 0.37217 0.08591 0.0
C541 C 0.79973 0.33673 0.11197 0.0
C542 C 0.59385 0.71238 0.19623 0.0
C543 C 0.62757 0.73625 0.20267 0.0
C544 C 0.56757 0.7186 0.15796 0.0
C545 C 0.5736 0.74931 0.12498 0.0
H546 H 0.58927 0.687 0.21913 0.0
H547 H 0.5431 0.69834 0.15329 0.0
S548 S 0.65517 0.82258 0.12878 0.0
N549 N 0.66407 0.79333 0.17496 0.0
N550 N 0.61404 0.80602 0.10373 0.0
C551 C 0.60551 0.77527 0.13316 0.0
C552 C 0.63259 0.76857 0.17193 0.0
C553 C 0.31792 0.65319 0.15298 0.0
C554 C 0.2855 0.6772 0.16561 0.0
C555 C 0.31242 0.61573 0.13287 0.0
C556 C 0.2742 0.60063 0.12428 0.0
H557 H 0.34793 0.66389 0.15755 0.0
H558 H 0.33843 0.5991 0.1225 0.0
S559 S 0.1793 0.65081 0.15409 0.0
N560 N 0.21386 0.68246 0.17034 0.0
N561 N 0.20321 0.61209 0.13315 0.0
C562 C 0.24148 0.62368 0.13886 0.0
C563 C 0.24718 0.66186 0.15942 0.0
C564 C 0.3845 0.69378 0.86222 0.0
C565 C 0.35738 0.72397 0.85098 0.0
C566 C 0.4188 0.70123 0.88921 0.0
C567 C 0.42769 0.73928 0.90569 0.0
H568 H 0.3782 0.66371 0.85192 0.0
H569 H 0.43776 0.67668 0.89863 0.0
S570 S 0.36788 0.82921 0.88275 0.0
N571 N 0.34285 0.79371 0.85605 0.0
N572 N 0.40767 0.80813 0.90587 0.0
C573 C 0.40213 0.77022 0.89201 0.0
C574 C 0.36695 0.76249 0.8648 0.0
C575 C 0.31867 0.35484 0.93781 0.0
C576 C 0.2861 0.33149 0.92406 0.0
C577 C 0.31341 0.39214 0.9584 0.0
C578 C 0.2753 0.40778 0.96623 0.0
H579 H 0.34859 0.34376 0.93361 0.0
H580 H 0.33951 0.40834 0.9694 0.0
S581 S 0.18013 0.35894 0.93455 0.0
N582 N 0.2145 0.32707 0.91826 0.0
N583 N 0.20425 0.39722 0.95629 0.0
C584 C 0.24244 0.38526 0.95086 0.0
C585 C 0.24792 0.3472 0.92992 0.0
C586 C 0.63117 0.24824 0.91576 0.0
C587 C 0.62552 0.27848 0.88201 0.0
C588 C 0.60399 0.24244 0.95345 0.0
C589 C 0.57067 0.26712 0.95899 0.0
H590 H 0.65814 0.23094 0.91515 0.0
H591 H 0.61048 0.2201 0.98009 0.0
S592 S 0.53953 0.34622 0.87525 0.0
N593 N 0.58169 0.32983 0.85273 0.0
N594 N 0.53109 0.31949 0.92375 0.0
C595 C 0.56325 0.29541 0.92328 0.0
C596 C 0.59051 0.30086 0.88468 0.0
C597 C 0.79474 0.67695 0.97114 0.0
C598 C 0.80276 0.67997 0.92153 0.0
C599 C 0.80146 0.64189 0.99637 0.0
C600 C 0.81739 0.60873 0.9734 0.0
H601 H 0.78113 0.70126 0.99011 0.0
H602 H 0.79239 0.64013 1.0337 0.0
S603 S 0.84673 0.60169 0.84546 0.0
N604 N 0.82968 0.647 0.85116 0.0
N605 N 0.84343 0.58146 0.89934 0.0
C606 C 0.82826 0.61198 0.92486 0.0
C607 C 0.82084 0.64759 0.89878 0.0
loop_
_geom_bond_atom_site_label_1
_geom_bond_atom_site_label_2
_geom_bond_distance
_geom_bond_site_symmetry_2
_ccdc_geom_bond_type
H0 C6 0.930 . S
H1 C9 0.931 . S
H2 C11 0.931 . S
H3 C13 0.930 . S
H4 C15 0.930 . S
H5 C17 0.931 . S
C6 H0 0.930 . S
C6 C7 1.380 . S
C6 C8 1.394 . S
C7 C6 1.380 . S
C7 C11 1.382 . S
C8 C6 1.394 . S
C8 C9 1.400 . S
C9 H1 0.931 . S
C9 C8 1.400 . S
C9 C10 1.375 . S
C10 C9 1.375 . S
C10 C11 1.415 . S
C10 C12 1.501 . S
C11 H2 0.931 . S
C11 C7 1.382 . S
C11 C10 1.415 . S
C12 C10 1.501 . S
C12 C13 1.384 . S
C12 C17 1.408 . S
C13 H3 0.930 . S
C13 C12 1.384 . S
C13 C14 1.389 . S
C14 C13 1.389 . S
C14 C15 1.405 . S
C15 H4 0.930 . S
C15 C14 1.405 . S
C15 C16 1.364 . S
C16 C15 1.364 . S
C16 C17 1.400 . S
C17 H5 0.931 . S
C17 C12 1.408 . S
C17 C16 1.400 . S
H18 C24 0.930 . S
H19 C27 0.931 . S
H20 C29 0.931 . S
H21 C31 0.930 . S
H22 C33 0.930 . S
H23 C35 0.931 . S
C24 H18 0.930 . S
C24 C25 1.380 . S
C24 C26 1.394 . S
C25 C24 1.380 . S
C25 C29 1.382 . S
C26 C24 1.394 . S
C26 C27 1.400 . S
C27 H19 0.931 . S
C27 C26 1.400 . S
C27 C28 1.375 . S
C28 C27 1.375 . S
C28 C29 1.415 . S
C28 C30 1.501 . S
C29 H20 0.931 . S
C29 C25 1.382 . S
C29 C28 1.415 . S
C30 C28 1.501 . S
C30 C31 1.384 . S
C30 C35 1.408 . S
C31 H21 0.930 . S
C31 C30 1.384 . S
C31 C32 1.389 . S
C32 C31 1.389 . S
C32 C33 1.405 . S
C33 H22 0.930 . S
C33 C32 1.405 . S
C33 C34 1.364 . S
C34 C33 1.364 . S
C34 C35 1.400 . S
C35 H23 0.931 . S
C35 C30 1.408 . S
C35 C34 1.400 . S
H36 C42 0.930 . S
H37 C45 0.931 . S
H38 C47 0.931 . S
H39 C49 0.930 . S
H40 C51 0.930 . S
H41 C53 0.931 . S
C42 H36 0.930 . S
C42 C43 1.380 . S
C42 C44 1.394 . S
C43 C42 1.380 . S
C43 C47 1.382 . S
C44 C42 1.394 . S
C44 C45 1.400 . S
C45 H37 0.931 . S
C45 C44 1.400 . S
C45 C46 1.375 . S
C46 C45 1.375 . S
C46 C47 1.415 . S
C46 C48 1.501 . S
C47 H38 0.931 . S
C47 C43 1.382 . S
C47 C46 1.415 . S
C48 C46 1.501 . S
C48 C49 1.384 . S
C48 C53 1.408 . S
C49 H39 0.930 . S
C49 C48 1.384 . S
C49 C50 1.389 . S
C50 C49 1.389 . S
C50 C51 1.405 . S
C51 H40 0.930 . S
C51 C50 1.405 . S
C51 C52 1.364 . S
C52 C51 1.364 . S
C52 C53 1.400 . S
C53 H41 0.931 . S
C53 C48 1.408 . S
C53 C52 1.400 . S
H54 C60 0.930 . S
H55 C63 0.931 . S
H56 C65 0.931 . S
H57 C67 0.930 . S
H58 C69 0.930 . S
H59 C71 0.931 . S
C60 H54 0.930 . S
C60 C61 1.380 . S
C60 C62 1.394 . S
C61 C60 1.380 . S
C61 C65 1.382 . S
C62 C60 1.394 . S
C62 C63 1.400 . S
C63 H55 0.931 . S
C63 C62 1.400 . S
C63 C64 1.375 . S
C64 C63 1.375 . S
C64 C65 1.415 . S
C64 C66 1.501 . S
C65 H56 0.931 . S
C65 C61 1.382 . S
C65 C64 1.415 . S
C66 C64 1.501 . S
C66 C67 1.384 . S
C66 C71 1.408 . S
C67 H57 0.930 . S
C67 C66 1.384 . S
C67 C68 1.389 . S
C68 C67 1.389 . S
C68 C69 1.405 . S
C69 H58 0.930 . S
C69 C68 1.405 . S
C69 C70 1.364 . S
C70 C69 1.364 . S
C70 C71 1.400 . S
C71 H59 0.931 . S
C71 C66 1.408 . S
C71 C70 1.400 . S
H72 C78 0.930 . S
H73 C81 0.931 . S
H74 C83 0.931 . S
H75 C85 0.930 . S
H76 C87 0.930 . S
H77 C89 0.931 . S
C78 H72 0.930 . S
C78 C79 1.380 . S
C78 C80 1.394 . S
C79 C78 1.380 . S
C79 C83 1.382 . S
C80 C78 1.394 . S
C80 C81 1.400 . S
C81 H73 0.931 . S
C81 C80 1.400 . S
C81 C82 1.375 . S
C82 C81 1.375 . S
C82 C83 1.415 . S
C82 C84 1.501 . S
C83 H74 0.931 . S
C83 C79 1.382 . S
C83 C82 1.415 . S
C84 C82 1.501 . S
C84 C85 1.384 . S
C84 C89 1.408 . S
C85 H75 0.930 . S
C85 C84 1.384 . S
C85 C86 1.389 . S
C86 C85 1.389 . S
C86 C87 1.405 . S
C87 H76 0.930 . S
C87 C86 1.405 . S
C87 C88 1.364 . S
C88 C87 1.364 . S
C88 C89 1.400 . S
C89 H77 0.931 . S
C89 C84 1.408 . S
C89 C88 1.400 . S
H90 C96 0.930 . S
H91 C99 0.931 . S
H92 C101 0.931 . S
H93 C103 0.930 . S
H94 C105 0.930 . S
H95 C107 0.931 . S
C96 H90 0.930 . S
C96 C97 1.380 . S
C96 C98 1.394 . S
C97 C96 1.380 . S
C97 C101 1.382 . S
C98 C96 1.394 . S
C98 C99 1.400 . S
C99 H91 0.931 . S
C99 C98 1.400 . S
C99 C100 1.375 . S
C100 C99 1.375 . S
C100 C101 1.415 . S
C100 C102 1.501 . S
C101 H92 0.931 . S
C101 C97 1.382 . S
C101 C100 1.415 . S
C102 C100 1.501 . S
C102 C103 1.384 . S
C102 C107 1.408 . S
C103 H93 0.930 . S
C103 C102 1.384 . S
C103 C104 1.389 . S
C104 C103 1.389 . S
C104 C105 1.405 . S
C105 H94 0.930 . S
C105 C104 1.405 . S
C105 C106 1.364 . S
C106 C105 1.364 . S
C106 C107 1.400 . S
C107 H95 0.931 . S
C107 C102 1.408 . S
C107 C106 1.400 . S
H108 C114 0.930 . S
H109 C117 0.931 . S
H110 C119 0.931 . S
H111 C121 0.930 . S
H112 C123 0.930 . S
H113 C125 0.931 . S
C114 H108 0.930 . S
C114 C115 1.380 . S
C114 C116 1.394 . S
C115 C114 1.380 . S
C115 C119 1.382 . S
C116 C114 1.394 . S
C116 C117 1.400 . S
C117 H109 0.931 . S
C117 C116 1.400 . S
C117 C118 1.375 . S
C118 C117 1.375 . S
C118 C119 1.415 . S
C118 C120 1.501 . S
C119 H110 0.931 . S
C119 C115 1.382 . S
C119 C118 1.415 . S
C120 C118 1.501 . S
C120 C121 1.384 . S
C120 C125 1.408 . S
C121 H111 0.930 . S
C121 C120 1.384 . S
C121 C122 1.389 . S
C122 C121 1.389 . S
C122 C123 1.405 . S
C123 H112 0.930 . S
C123 C122 1.405 . S
C123 C124 1.364 . S
C124 C123 1.364 . S
C124 C125 1.400 . S
C125 H113 0.931 . S
C125 C120 1.408 . S
C125 C124 1.400 . S
H126 C132 0.930 . S
H127 C135 0.931 . S
H128 C137 0.931 . S
H129 C139 0.930 . S
H130 C141 0.930 . S
H131 C143 0.931 . S
C132 H126 0.930 . S
C132 C133 1.380 . S
C132 C134 1.394 . S
C133 C132 1.380 . S
C133 C137 1.382 . S
C134 C132 1.394 . S
C134 C135 1.400 . S
C135 H127 0.931 . S
C135 C134 1.400 . S
C135 C136 1.375 . S
C136 C135 1.375 . S
C136 C137 1.415 . S
C136 C138 1.501 . S
C137 H128 0.931 . S
C137 C133 1.382 . S
C137 C136 1.415 . S
C138 C136 1.501 . S
C138 C139 1.384 . S
C138 C143 1.408 . S
C139 H129 0.930 . S
C139 C138 1.384 . S
C139 C140 1.389 . S
C140 C139 1.389 . S
C140 C141 1.405 . S
C141 H130 0.930 . S
C141 C140 1.405 . S
C141 C142 1.364 . S
C142 C141 1.364 . S
C142 C143 1.400 . S
C143 H131 0.931 . S
C143 C138 1.408 . S
C143 C142 1.400 . S
C144 O146 1.247 . S
C144 O148 1.258 . S
C145 O152 1.247 . S
C145 O153 1.258 . S
O146 C144 1.247 . S
O146 Zn147 2.028 1_655 S
Zn147 O146 2.028 1_455 S
Zn147 O151 2.035 . S
Zn147 O153 2.035 . S
Zn147 O154 2.028 1_455 S
O148 C144 1.258 . S
O148 Zn149 2.035 1_655 S
Zn149 O148 2.035 1_455 S
Zn149 O150 2.028 . S
Zn149 O152 2.028 . S
Zn149 O155 2.035 1_455 S
O150 Zn149 2.028 . S
O150 C156 1.247 . S
O151 Zn147 2.035 . S
O151 C156 1.258 . S
O152 C145 1.247 . S
O152 Zn149 2.028 . S
O153 C145 1.258 . S
O153 Zn147 2.035 . S
O154 Zn147 2.028 1_655 S
O154 C157 1.247 . S
O155 Zn149 2.035 1_655 S
O155 C157 1.258 . S
C156 O150 1.247 . S
C156 O151 1.258 . S
C157 O154 1.247 . S
C157 O155 1.258 . S
C158 O160 1.247 . S
C158 O162 1.258 . S
C159 O166 1.247 . S
C159 O167 1.258 . S
O160 C158 1.247 . S
O160 Zn161 2.028 . S
Zn161 O160 2.028 . S
Zn161 O165 2.035 1_545 S
Zn161 O167 2.035 1_545 S
Zn161 O168 2.028 . S
O162 C158 1.258 . S
O162 Zn163 2.055 . S
Zn163 O162 2.055 . S
Zn163 O164 2.008 1_545 S
Zn163 O166 2.008 1_545 S
Zn163 O169 2.055 . S
O164 Zn163 2.008 1_565 S
O164 C170 1.247 . S
O165 Zn161 2.035 1_565 S
O165 C170 1.258 . S
O166 C159 1.247 . S
O166 Zn163 2.008 1_565 S
O167 C159 1.258 . S
O167 Zn161 2.035 1_565 S
O168 Zn161 2.028 . S
O168 C171 1.247 . S
O169 Zn163 2.055 . S
O169 C171 1.258 . S
C170 O164 1.247 . S
C170 O165 1.258 . S
C171 O168 1.247 . S
C171 O169 1.258 . S
C172 O174 1.247 . S
C172 O176 1.258 . S
C173 O180 1.247 . S
C173 O181 1.258 . S
O174 C172 1.247 . S
O174 Zn175 2.028 1_655 S
Zn175 O174 2.028 1_455 S
Zn175 O179 2.035 . S
Zn175 O181 2.035 . S
Zn175 O182 2.028 1_455 S
O176 C172 1.258 . S
O176 Zn177 2.035 1_655 S
Zn177 O176 2.035 1_455 S
Zn177 O178 2.028 . S
Zn177 O180 2.028 . S
Zn177 O183 2.035 1_455 S
O178 Zn177 2.028 . S
O178 C184 1.247 . S
O179 Zn175 2.035 . S
O179 C184 1.258 . S
O180 C173 1.247 . S
O180 Zn177 2.028 . S
O181 C173 1.258 . S
O181 Zn175 2.035 . S
O182 Zn175 2.028 1_655 S
O182 C185 1.247 . S
O183 Zn177 2.035 1_655 S
O183 C185 1.258 . S
C184 O178 1.247 . S
C184 O179 1.258 . S
C185 O182 1.247 . S
C185 O183 1.258 . S
C186 O188 1.247 . S
C186 O190 1.258 . S
C187 O194 1.247 . S
C187 O195 1.258 . S
O188 C186 1.247 . S
O188 Zn189 2.028 . S
Zn189 O188 2.028 . S
Zn189 O193 2.035 1_545 S
Zn189 O195 2.035 1_545 S
Zn189 O196 2.028 . S
O190 C186 1.258 . S
O190 Zn191 2.047 . S
Zn191 O190 2.047 . S
Zn191 O192 2.017 1_545 S
Zn191 O194 2.017 1_545 S
Zn191 O197 2.047 . S
O192 Zn191 2.017 1_565 S
O192 C198 1.247 . S
O193 Zn189 2.035 1_565 S
O193 C198 1.258 . S
O194 C187 1.247 . S
O194 Zn191 2.017 1_565 S
O195 C187 1.258 . S
O195 Zn189 2.035 1_565 S
O196 Zn189 2.028 . S
O196 C199 1.247 . S
O197 Zn191 2.047 . S
O197 C199 1.258 . S
C198 O192 1.247 . S
C198 O193 1.258 . S
C199 O196 1.247 . S
C199 O197 1.258 . S
C200 O202 1.247 . S
C200 O204 1.258 . S
C201 O208 1.247 . S
C201 O209 1.258 . S
O202 C200 1.247 . S
O202 Zn203 2.028 . S
Zn203 O202 2.028 . S
Zn203 O207 2.035 . S
Zn203 O209 2.035 1_554 S
Zn203 O210 2.028 1_554 S
O204 C200 1.258 . S
O204 Zn205 2.035 . S
Zn205 O204 2.035 . S
Zn205 O206 2.028 . S
Zn205 O208 2.028 1_554 S
Zn205 O211 2.035 1_554 S
O206 Zn205 2.028 . S
O206 C212 1.247 . S
O207 Zn203 2.035 . S
O207 C212 1.258 . S
O208 C201 1.247 . S
O208 Zn205 2.028 1_556 S
O209 C201 1.258 . S
O209 Zn203 2.035 1_556 S
O210 Zn203 2.028 1_556 S
O210 C213 1.247 . S
O211 Zn205 2.035 1_556 S
O211 C213 1.258 . S
C212 O206 1.247 . S
C212 O207 1.258 . S
C213 O210 1.247 . S
C213 O211 1.258 . S
C214 O216 1.247 . S
C214 O218 1.258 . S
C215 O222 1.247 . S
C215 O223 1.258 . S
O216 C214 1.247 . S
O216 Zn217 2.044 . S
Zn217 O216 2.044 . S
Zn217 O221 2.051 . S
Zn217 O223 2.019 1_554 S
Zn217 O224 2.012 1_554 S
O218 C214 1.258 . S
O218 Zn219 2.035 . S
Zn219 O218 2.035 . S
Zn219 O220 2.028 . S
Zn219 O222 2.028 1_554 S
Zn219 O225 2.035 1_554 S
O220 Zn219 2.028 . S
O220 C226 1.247 . S
O221 Zn217 2.051 . S
O221 C226 1.258 . S
O222 C215 1.247 . S
O222 Zn219 2.028 1_556 S
O223 C215 1.258 . S
O223 Zn217 2.019 1_556 S
O224 Zn217 2.012 1_556 S
O224 C227 1.247 . S
O225 Zn219 2.035 1_556 S
O225 C227 1.258 . S
C226 O220 1.247 . S
C226 O221 1.258 . S
C227 O224 1.247 . S
C227 O225 1.258 . S
C228 O230 1.247 . S
C228 O232 1.258 . S
C229 O236 1.247 . S
C229 O237 1.258 . S
O230 C228 1.247 . S
O230 Zn231 2.028 1_556 S
Zn231 O230 2.028 1_554 S
Zn231 O235 2.035 1_554 S
Zn231 O237 2.035 . S
Zn231 O238 2.028 . S
O232 C228 1.258 . S
O232 Zn233 2.035 1_556 S
Zn233 O232 2.035 1_554 S
Zn233 O234 2.028 1_554 S
Zn233 O236 2.028 . S
Zn233 O239 2.035 . S
O234 Zn233 2.028 1_556 S
O234 C240 1.247 . S
O235 Zn231 2.035 1_556 S
O235 C240 1.258 . S
O236 C229 1.247 . S
O236 Zn233 2.028 . S
O237 C229 1.258 . S
O237 Zn231 2.035 . S
O238 Zn231 2.028 . S
O238 C241 1.247 . S
O239 Zn233 2.035 . S
O239 C241 1.258 . S
C240 O234 1.247 . S
C240 O235 1.258 . S
C241 O238 1.247 . S
C241 O239 1.258 . S
C242 O244 1.247 . S
C242 O246 1.258 . S
C243 O250 1.247 . S
C243 O251 1.258 . S
O244 C242 1.247 . S
O244 Zn245 2.037 . S
Zn245 O244 2.037 . S
Zn245 O249 2.044 . S
Zn245 O251 2.026 1_554 S
Zn245 O252 2.019 1_554 S
O246 C242 1.258 . S
O246 Zn247 2.047 . S
Zn247 O246 2.047 . S
Zn247 O248 2.040 . S
Zn247 O250 2.016 1_554 S
Zn247 O253 2.023 1_554 S
O248 Zn247 2.040 . S
O248 C254 1.247 . S
O249 Zn245 2.044 . S
O249 C254 1.258 . S
O250 C243 1.247 . S
O250 Zn247 2.016 1_556 S
O251 C243 1.258 . S
O251 Zn245 2.026 1_556 S
O252 Zn245 2.019 1_556 S
O252 C255 1.247 . S
O253 Zn247 2.023 1_556 S
O253 C255 1.258 . S
C254 O248 1.247 . S
C254 O249 1.258 . S
C255 O252 1.247 . S
C255 O253 1.258 . S
C256 C257 1.369 . S
C256 C258 1.419 . S
C256 H260 0.930 . S
C257 C256 1.369 . S
C257 C266 1.429 . S
C258 C256 1.419 . S
C258 C259 1.363 . S
C258 H261 0.929 . S
C259 C258 1.363 . S
C259 C265 1.428 . S
H260 C256 0.930 . S
H261 C258 0.929 . S
S262 N263 1.613 . S
S262 N264 1.610 . S
N263 S262 1.613 . S
N263 C266 1.350 . S
N264 S262 1.610 . S
N264 C265 1.351 . S
C265 C259 1.428 . S
C265 N264 1.351 . S
C265 C266 1.434 . S
C266 C257 1.429 . S
C266 N263 1.350 . S
C266 C265 1.434 . S
C267 C268 1.369 . S
C267 C269 1.419 . S
C267 H271 0.930 . S
C268 C267 1.369 . S
C268 C277 1.429 . S
C269 C267 1.419 . S
C269 C270 1.363 . S
C269 H272 0.929 . S
C270 C269 1.363 . S
C270 C276 1.428 . S
H271 C267 0.930 . S
H272 C269 0.929 . S
S273 N274 1.613 . S
S273 N275 1.610 . S
N274 S273 1.613 . S
N274 C277 1.350 . S
N275 S273 1.610 . S
N275 C276 1.351 . S
C276 C270 1.428 . S
C276 N275 1.351 . S
C276 C277 1.434 . S
C277 C268 1.429 . S
C277 N274 1.350 . S
C277 C276 1.434 . S
C278 C279 1.369 . S
C278 C280 1.419 . S
C278 H282 0.930 . S
C279 C278 1.369 . S
C279 C288 1.429 . S
C280 C278 1.419 . S
C280 C281 1.363 . S
C280 H283 0.929 . S
C281 C280 1.363 . S
C281 C287 1.428 . S
H282 C278 0.930 . S
H283 C280 0.929 . S
S284 N285 1.613 . S
S284 N286 1.610 . S
N285 S284 1.613 . S
N285 C288 1.350 . S
N286 S284 1.610 . S
N286 C287 1.351 . S
C287 C281 1.428 . S
C287 N286 1.351 . S
C287 C288 1.434 . S
C288 C279 1.429 . S
C288 N285 1.350 . S
C288 C287 1.434 . S
C289 C290 1.369 . S
C289 C291 1.419 . S
C289 H293 0.930 . S
C290 C289 1.369 . S
C290 C299 1.429 . S
C291 C289 1.419 . S
C291 C292 1.363 . S
C291 H294 0.929 . S
C292 C291 1.363 . S
C292 C298 1.428 . S
H293 C289 0.930 . S
H294 C291 0.929 . S
S295 N296 1.613 . S
S295 N297 1.610 . S
N296 S295 1.613 . S
N296 C299 1.350 . S
N297 S295 1.610 . S
N297 C298 1.351 . S
C298 C292 1.428 . S
C298 N297 1.351 . S
C298 C299 1.434 . S
C299 C290 1.429 . S
C299 N296 1.350 . S
C299 C298 1.434 . S
C300 C301 1.369 . S
C300 C302 1.419 . S
C300 H304 0.930 . S
C301 C300 1.369 . S
C301 C310 1.429 . S
C302 C300 1.419 . S
C302 C303 1.363 . S
C302 H305 0.929 . S
C303 C302 1.363 . S
C303 C309 1.428 . S
H304 C300 0.930 . S
H305 C302 0.929 . S
S306 N307 1.613 . S
S306 N308 1.610 . S
N307 S306 1.613 . S
N307 C310 1.350 . S
N308 S306 1.610 . S
N308 C309 1.351 . S
C309 C303 1.428 . S
C309 N308 1.351 . S
C309 C310 1.434 . S
C310 C301 1.429 . S
C310 N307 1.350 . S
C310 C309 1.434 . S
C311 C312 1.369 . S
C311 C313 1.419 . S
C311 H315 0.930 . S
C312 C311 1.369 . S
C312 C321 1.429 . S
C313 C311 1.419 . S
C313 C314 1.363 . S
C313 H316 0.929 . S
C314 C313 1.363 . S
C314 C320 1.428 . S
H315 C311 0.930 . S
H316 C313 0.929 . S
S317 N318 1.613 . S
S317 N319 1.610 . S
N318 S317 1.613 . S
N318 C321 1.350 . S
N319 S317 1.610 . S
N319 C320 1.351 . S
C320 C314 1.428 . S
C320 N319 1.351 . S
C320 C321 1.434 . S
C321 C312 1.429 . S
C321 N318 1.350 . S
C321 C320 1.434 . S
C322 C323 1.369 . S
C322 C324 1.419 . S
C322 H326 0.930 . S
C323 C322 1.369 . S
C323 C332 1.429 . S
C324 C322 1.419 . S
C324 C325 1.363 . S
C324 H327 0.929 . S
C325 C324 1.363 . S
C325 C331 1.428 . S
H326 C322 0.930 . S
H327 C324 0.929 . S
S328 N329 1.613 . S
S328 N330 1.610 . S
N329 S328 1.613 . S
N329 C332 1.350 . S
N330 S328 1.610 . S
N330 C331 1.351 . S
C331 C325 1.428 . S
C331 N330 1.351 . S
C331 C332 1.434 . S
C332 C323 1.429 . S
C332 N329 1.350 . S
C332 C331 1.434 . S
C333 C334 1.369 . S
C333 C335 1.419 . S
C333 H337 0.930 . S
C334 C333 1.369 . S
C334 C343 1.429 . S
C335 C333 1.419 . S
C335 C336 1.363 . S
C335 H338 0.929 . S
C336 C335 1.363 . S
C336 C342 1.428 . S
H337 C333 0.930 . S
H338 C335 0.929 . S
S339 N340 1.613 . S
S339 N341 1.610 . S
N340 S339 1.613 . S
N340 C343 1.350 . S
N341 S339 1.610 . S
N341 C342 1.351 . S
C342 C336 1.428 . S
C342 N341 1.351 . S
C342 C343 1.434 . S
C343 C334 1.429 . S
C343 N340 1.350 . S
C343 C342 1.434 . S
C344 C345 1.369 . S
C344 C346 1.419 . S
C344 H348 0.930 . S
C345 C344 1.369 . S
C345 C354 1.429 . S
C346 C344 1.419 . S
C346 C347 1.363 . S
C346 H349 0.929 . S
C347 C346 1.363 . S
C347 C353 1.428 . S
H348 C344 0.930 . S
H349 C346 0.929 . S
S350 N351 1.613 . S
S350 N352 1.610 . S
N351 S350 1.613 . S
N351 C354 1.350 . S
N352 S350 1.610 . S
N352 C353 1.351 . S
C353 C347 1.428 . S
C353 N352 1.351 . S
C353 C354 1.434 . S
C354 C345 1.429 . S
C354 N351 1.350 . S
C354 C353 1.434 . S
C355 C356 1.369 . S
C355 C357 1.419 . S
C355 H359 0.930 . S
C356 C355 1.369 . S
C356 C365 1.429 . S
C357 C355 1.419 . S
C357 C358 1.363 . S
C357 H360 0.929 . S
C358 C357 1.363 . S
C358 C364 1.428 . S
H359 C355 0.930 . S
H360 C357 0.929 . S
S361 N362 1.613 . S
S361 N363 1.610 . S
N362 S361 1.613 . S
N362 C365 1.350 . S
N363 S361 1.610 . S
N363 C364 1.351 . S
C364 C358 1.428 . S
C364 N363 1.351 . S
C364 C365 1.434 . S
C365 C356 1.429 . S
C365 N362 1.350 . S
C365 C364 1.434 . S
C366 C367 1.369 . S
C366 C368 1.419 . S
C366 H370 0.930 . S
C367 C366 1.369 . S
C367 C376 1.429 . S
C368 C366 1.419 . S
C368 C369 1.363 . S
C368 H371 0.929 . S
C369 C368 1.363 . S
C369 C375 1.428 . S
H370 C366 0.930 . S
H371 C368 0.929 . S
S372 N373 1.613 . S
S372 N374 1.610 . S
N373 S372 1.613 . S
N373 C376 1.350 . S
N374 S372 1.610 . S
N374 C375 1.351 . S
C375 C369 1.428 . S
C375 N374 1.351 . S
C375 C376 1.434 . S
C376 C367 1.429 . S
C376 N373 1.350 . S
C376 C375 1.434 . S
C377 C378 1.369 . S
C377 C379 1.419 . S
C377 H381 0.930 . S
C378 C377 1.369 . S
C378 C387 1.429 . S
C379 C377 1.419 . S
C379 C380 1.363 . S
C379 H382 0.929 . S
C380 C379 1.363 . S
C380 C386 1.428 . S
H381 C377 0.930 . S
H382 C379 0.929 . S
S383 N384 1.613 . S
S383 N385 1.610 . S
N384 S383 1.613 . S
N384 C387 1.350 . S
N385 S383 1.610 . S
N385 C386 1.351 . S
C386 C380 1.428 . S
C386 N385 1.351 . S
C386 C387 1.434 . S
C387 C378 1.429 . S
C387 N384 1.350 . S
C387 C386 1.434 . S
C388 C389 1.369 . S
C388 C390 1.419 . S
C388 H392 0.930 . S
C389 C388 1.369 . S
C389 C398 1.429 . S
C390 C388 1.419 . S
C390 C391 1.363 . S
C390 H393 0.929 . S
C391 C390 1.363 . S
C391 C397 1.428 . S
H392 C388 0.930 . S
H393 C390 0.929 . S
S394 N395 1.613 . S
S394 N396 1.610 . S
N395 S394 1.613 . S
N395 C398 1.350 . S
N396 S394 1.610 . S
N396 C397 1.351 . S
C397 C391 1.428 . S
C397 N396 1.351 . S
C397 C398 1.434 . S
C398 C389 1.429 . S
C398 N395 1.350 . S
C398 C397 1.434 . S
C399 C400 1.369 . S
C399 C401 1.419 . S
C399 H403 0.930 . S
C400 C399 1.369 . S
C400 C409 1.429 . S
C401 C399 1.419 . S
C401 C402 1.363 . S
C401 H404 0.929 . S
C402 C401 1.363 . S
C402 C408 1.428 . S
H403 C399 0.930 . S
H404 C401 0.929 . S
S405 N406 1.613 . S
S405 N407 1.610 . S
N406 S405 1.613 . S
N406 C409 1.350 . S
N407 S405 1.610 . S
N407 C408 1.351 . S
C408 C402 1.428 . S
C408 N407 1.351 . S
C408 C409 1.434 . S
C409 C400 1.429 . S
C409 N406 1.350 . S
C409 C408 1.434 . S
C410 C411 1.369 . S
C410 C412 1.419 . S
C410 H414 0.930 . S
C411 C410 1.369 . S
C411 C420 1.429 . S
C412 C410 1.419 . S
C412 C413 1.363 . S
C412 H415 0.929 . S
C413 C412 1.363 . S
C413 C419 1.428 . S
H414 C410 0.930 . S
H415 C412 0.929 . S
S416 N417 1.613 . S
S416 N418 1.610 . S
N417 S416 1.613 . S
N417 C420 1.350 . S
N418 S416 1.610 . S
N418 C419 1.351 . S
C419 C413 1.428 . S
C419 N418 1.351 . S
C419 C420 1.434 . S
C420 C411 1.429 . S
C420 N417 1.350 . S
C420 C419 1.434 . S
C421 C422 1.369 . S
C421 C423 1.419 . S
C421 H425 0.930 . S
C422 C421 1.369 . S
C422 C431 1.429 . S
C423 C421 1.419 . S
C423 C424 1.363 . S
C423 H426 0.929 . S
C424 C423 1.363 . S
C424 C430 1.428 . S
H425 C421 0.930 . S
H426 C423 0.929 . S
S427 N428 1.613 . S
S427 N429 1.610 . S
N428 S427 1.613 . S
N428 C431 1.350 . S
N429 S427 1.610 . S
N429 C430 1.351 . S
C430 C424 1.428 . S
C430 N429 1.351 . S
C430 C431 1.434 . S
C431 C422 1.429 . S
C431 N428 1.350 . S
C431 C430 1.434 . S
C432 C433 1.369 . S
C432 C434 1.419 . S
C432 H436 0.930 . S
C433 C432 1.369 . S
C433 C442 1.429 . S
C434 C432 1.419 . S
C434 C435 1.363 . S
C434 H437 0.929 . S
C435 C434 1.363 . S
C435 C441 1.428 . S
H436 C432 0.930 . S
H437 C434 0.929 . S
S438 N439 1.613 . S
S438 N440 1.610 . S
N439 S438 1.613 . S
N439 C442 1.350 . S
N440 S438 1.610 . S
N440 C441 1.351 . S
C441 C435 1.428 . S
C441 N440 1.351 . S
C441 C442 1.434 . S
C442 C433 1.429 . S
C442 N439 1.350 . S
C442 C441 1.434 . S
C443 C444 1.369 . S
C443 C445 1.419 . S
C443 H447 0.930 . S
C444 C443 1.369 . S
C444 C453 1.429 . S
C445 C443 1.419 . S
C445 C446 1.363 . S
C445 H448 0.929 . S
C446 C445 1.363 . S
C446 C452 1.428 . S
H447 C443 0.930 . S
H448 C445 0.929 . S
S449 N450 1.613 . S
S449 N451 1.610 . S
N450 S449 1.613 . S
N450 C453 1.350 . S
N451 S449 1.610 . S
N451 C452 1.351 . S
C452 C446 1.428 . S
C452 N451 1.351 . S
C452 C453 1.434 . S
C453 C444 1.429 . S
C453 N450 1.350 . S
C453 C452 1.434 . S
C454 C455 1.369 . S
C454 C456 1.419 . S
C454 H458 0.930 . S
C455 C454 1.369 . S
C455 C464 1.429 . S
C456 C454 1.419 . S
C456 C457 1.363 . S
C456 H459 0.929 . S
C457 C456 1.363 . S
C457 C463 1.428 . S
H458 C454 0.930 . S
H459 C456 0.929 . S
S460 N461 1.613 . S
S460 N462 1.610 . S
N461 S460 1.613 . S
N461 C464 1.350 . S
N462 S460 1.610 . S
N462 C463 1.351 . S
C463 C457 1.428 . S
C463 N462 1.351 . S
C463 C464 1.434 . S
C464 C455 1.429 . S
C464 N461 1.350 . S
C464 C463 1.434 . S
C465 C466 1.369 . S
C465 C467 1.419 . S
C465 H469 0.930 . S
C466 C465 1.369 . S
C466 C475 1.429 . S
C467 C465 1.419 . S
C467 C468 1.363 . S
C467 H470 0.929 . S
C468 C467 1.363 . S
C468 C474 1.428 . S
H469 C465 0.930 . S
H470 C467 0.929 . S
S471 N472 1.613 . S
S471 N473 1.610 . S
N472 S471 1.613 . S
N472 C475 1.350 . S
N473 S471 1.610 . S
N473 C474 1.351 . S
C474 C468 1.428 . S
C474 N473 1.351 . S
C474 C475 1.434 . S
C475 C466 1.429 . S
C475 N472 1.350 . S
C475 C474 1.434 . S
C476 C477 1.369 . S
C476 C478 1.419 . S
C476 H480 0.930 . S
C477 C476 1.369 . S
C477 C486 1.429 . S
C478 C476 1.419 . S
C478 C479 1.363 . S
C478 H481 0.929 . S
C479 C478 1.363 . S
C479 C485 1.428 . S
H480 C476 0.930 . S
H481 C478 0.929 . S
S482 N483 1.613 . S
S482 N484 1.610 . S
N483 S482 1.613 . S
N483 C486 1.350 . S
N484 S482 1.610 . S
N484 C485 1.351 . S
C485 C479 1.428 . S
C485 N484 1.351 . S
C485 C486 1.434 . S
C486 C477 1.429 . S
C486 N483 1.350 . S
C486 C485 1.434 . S
C487 C488 1.369 . S
C487 C489 1.419 . S
C487 H491 0.930 . S
C488 C487 1.369 . S
C488 C497 1.429 . S
C489 C487 1.419 . S
C489 C490 1.363 . S
C489 H492 0.929 . S
C490 C489 1.363 . S
C490 C496 1.428 . S
H491 C487 0.930 . S
H492 C489 0.929 . S
S493 N494 1.613 . S
S493 N495 1.610 . S
N494 S493 1.613 . S
N494 C497 1.350 . S
N495 S493 1.610 . S
N495 C496 1.351 . S
C496 C490 1.428 . S
C496 N495 1.351 . S
C496 C497 1.434 . S
C497 C488 1.429 . S
C497 N494 1.350 . S
C497 C496 1.434 . S
C498 C499 1.369 . S
C498 C500 1.419 . S
C498 H502 0.930 . S
C499 C498 1.369 . S
C499 C508 1.429 . S
C500 C498 1.419 . S
C500 C501 1.363 . S
C500 H503 0.929 . S
C501 C500 1.363 . S
C501 C507 1.428 . S
H502 C498 0.930 . S
H503 C500 0.929 . S
S504 N505 1.613 . S
S504 N506 1.610 . S
N505 S504 1.613 . S
N505 C508 1.350 . S
N506 S504 1.610 . S
N506 C507 1.351 . S
C507 C501 1.428 . S
C507 N506 1.351 . S
C507 C508 1.434 . S
C508 C499 1.429 . S
C508 N505 1.350 . S
C508 C507 1.434 . S
C509 C510 1.369 . S
C509 C511 1.419 . S
C509 H513 0.930 . S
C510 C509 1.369 . S
C510 C519 1.429 . S
C511 C509 1.419 . S
C511 C512 1.363 . S
C511 H514 0.929 . S
C512 C511 1.363 . S
C512 C518 1.428 . S
H513 C509 0.930 . S
H514 C511 0.929 . S
S515 N516 1.613 . S
S515 N517 1.610 . S
N516 S515 1.613 . S
N516 C519 1.350 . S
N517 S515 1.610 . S
N517 C518 1.351 . S
C518 C512 1.428 . S
C518 N517 1.351 . S
C518 C519 1.434 . S
C519 C510 1.429 . S
C519 N516 1.350 . S
C519 C518 1.434 . S
C520 C521 1.369 . S
C520 C522 1.419 . S
C520 H524 0.930 . S
C521 C520 1.369 . S
C521 C530 1.429 . S
C522 C520 1.419 . S
C522 C523 1.363 . S
C522 H525 0.929 . S
C523 C522 1.363 . S
C523 C529 1.428 . S
H524 C520 0.930 . S
H525 C522 0.929 . S
S526 N527 1.613 . S
S526 N528 1.610 . S
N527 S526 1.613 . S
N527 C530 1.350 . S
N528 S526 1.610 . S
N528 C529 1.351 . S
C529 C523 1.428 . S
C529 N528 1.351 . S
C529 C530 1.434 . S
C530 C521 1.429 . S
C530 N527 1.350 . S
C530 C529 1.434 . S
C531 C532 1.369 . S
C531 C533 1.419 . S
C531 H535 0.930 . S
C532 C531 1.369 . S
C532 C541 1.429 . S
C533 C531 1.419 . S
C533 C534 1.363 . S
C533 H536 0.929 . S
C534 C533 1.363 . S
C534 C540 1.428 . S
H535 C531 0.930 . S
H536 C533 0.929 . S
S537 N538 1.613 . S
S537 N539 1.610 . S
N538 S537 1.613 . S
N538 C541 1.350 . S
N539 S537 1.610 . S
N539 C540 1.351 . S
C540 C534 1.428 . S
C540 N539 1.351 . S
C540 C541 1.434 . S
C541 C532 1.429 . S
C541 N538 1.350 . S
C541 C540 1.434 . S
C542 C543 1.369 . S
C542 C544 1.419 . S
C542 H546 0.930 . S
C543 C542 1.369 . S
C543 C552 1.429 . S
C544 C542 1.419 . S
C544 C545 1.363 . S
C544 H547 0.929 . S
C545 C544 1.363 . S
C545 C551 1.428 . S
H546 C542 0.930 . S
H547 C544 0.929 . S
S548 N549 1.613 . S
S548 N550 1.610 . S
N549 S548 1.613 . S
N549 C552 1.350 . S
N550 S548 1.610 . S
N550 C551 1.351 . S
C551 C545 1.428 . S
C551 N550 1.351 . S
C551 C552 1.434 . S
C552 C543 1.429 . S
C552 N549 1.350 . S
C552 C551 1.434 . S
C553 C554 1.369 . S
C553 C555 1.419 . S
C553 H557 0.930 . S
C554 C553 1.369 . S
C554 C563 1.429 . S
C555 C553 1.419 . S
C555 C556 1.363 . S
C555 H558 0.929 . S
C556 C555 1.363 . S
C556 C562 1.428 . S
H557 C553 0.930 . S
H558 C555 0.929 . S
S559 N560 1.613 . S
S559 N561 1.610 . S
N560 S559 1.613 . S
N560 C563 1.350 . S
N561 S559 1.610 . S
N561 C562 1.351 . S
C562 C556 1.428 . S
C562 N561 1.351 . S
C562 C563 1.434 . S
C563 C554 1.429 . S
C563 N560 1.350 . S
C563 C562 1.434 . S
C564 C565 1.369 . S
C564 C566 1.419 . S
C564 H568 0.930 . S
C565 C564 1.369 . S
C565 C574 1.429 . S
C566 C564 1.419 . S
C566 C567 1.363 . S
C566 H569 0.929 . S
C567 C566 1.363 . S
C567 C573 1.428 . S
H568 C564 0.930 . S
H569 C566 0.929 . S
S570 N571 1.613 . S
S570 N572 1.610 . S
N571 S570 1.613 . S
N571 C574 1.350 . S
N572 S570 1.610 . S
N572 C573 1.351 . S
C573 C567 1.428 . S
C573 N572 1.351 . S
C573 C574 1.434 . S
C574 C565 1.429 . S
C574 N571 1.350 . S
C574 C573 1.434 . S
C575 C576 1.369 . S
C575 C577 1.419 . S
C575 H579 0.930 . S
C576 C575 1.369 . S
C576 C585 1.429 . S
C577 C575 1.419 . S
C577 C578 1.363 . S
C577 H580 0.929 . S
C578 C577 1.363 . S
C578 C584 1.428 . S
H579 C575 0.930 . S
H580 C577 0.929 . S
S581 N582 1.613 . S
S581 N583 1.610 . S
N582 S581 1.613 . S
N582 C585 1.350 . S
N583 S581 1.610 . S
N583 C584 1.351 . S
C584 C578 1.428 . S
C584 N583 1.351 . S
C584 C585 1.434 . S
C585 C576 1.429 . S
C585 N582 1.350 . S
C585 C584 1.434 . S
C586 C587 1.369 . S
C586 C588 1.419 . S
C586 H590 0.930 . S
C587 C586 1.369 . S
C587 C596 1.429 . S
C588 C586 1.419 . S
C588 C589 1.363 . S
C588 H591 0.929 . S
C589 C588 1.363 . S
C589 C595 1.428 . S
H590 C586 0.930 . S
H591 C588 0.929 . S
S592 N593 1.613 . S
S592 N594 1.610 . S
N593 S592 1.613 . S
N593 C596 1.350 . S
N594 S592 1.610 . S
N594 C595 1.351 . S
C595 C589 1.428 . S
C595 N594 1.351 . S
C595 C596 1.434 . S
C596 C587 1.429 . S
C596 N593 1.350 . S
C596 C595 1.434 . S
C597 C598 1.369 . S
C597 C599 1.419 . S
C597 H601 0.930 . S
C598 C597 1.369 . S
C598 C607 1.429 . S
C599 C597 1.419 . S
C599 C600 1.363 . S
C599 H602 0.929 . S
C600 C599 1.363 . S
C600 C606 1.428 . S
H601 C597 0.930 . S
H602 C599 0.929 . S
S603 N604 1.613 . S
S603 N605 1.610 . S
N604 S603 1.613 . S
N604 C607 1.350 . S
N605 S603 1.610 . S
N605 C606 1.351 . S
C606 C600 1.428 . S
C606 N605 1.351 . S
C606 C607 1.434 . S
C607 C598 1.429 . S
C607 N604 1.350 . S
C607 C606 1.434 . S
C259 C145 1.509 . S
C257 C7 1.438 . S
C270 C171 1.509 . S
C268 C32 1.447 . S
C281 C185 1.505 . S
C279 C44 1.443 . S
C292 C187 1.504 . S
C290 C62 1.448 . S
C301 C88 1.447 . S
C303 C184 1.506 . S
C314 C186 1.506 . S
C312 C106 1.436 . S
C325 C144 1.507 . S
C323 C124 1.445 . S
C336 C170 1.508 . S
C334 C140 1.452 . S
C347 C172 1.503 . S
C345 C142 1.445 . S
C358 C198 1.502 . S
C356 C86 1.445 . S
C369 C156 1.504 . S
C367 C104 1.451 . S
C380 C158 1.504 . S
C378 C122 1.453 . S
C391 C157 1.504 . S
C389 C34 1.439 . S
C402 C159 1.506 . S
C400 C43 1.439 . S
C413 C173 1.501 . S
C411 C61 1.443 . S
C424 C199 1.499 . S
C422 C8 1.449 . S
C435 C201 1.506 . S
C433 C133 1.448 . S
C444 C80 1.449 . S
C446 C227 1.507 . S
C455 C98 1.444 . S
C457 C240 1.505 . S
C466 C116 1.447 . S
C468 C243 1.504 . S
C477 C25 1.447 . S
C479 C241 1.507 . S
C488 C52 1.443 . S
C490 C242 1.506 . S
C499 C70 1.444 . S
C501 C200 1.506 . S
C512 C226 1.509 . S
C510 C14 1.446 . S
C523 C229 1.502 . S
C521 C16 1.447 . S
C532 C26 1.441 . S
C534 C254 1.502 . S
C543 C50 1.451 . S
C545 C212 1.503 . S
C554 C68 1.446 . S
C556 C214 1.505 . S
C567 C213 1.503 . S
C565 C79 1.449 . S
C578 C215 1.504 . S
C576 C97 1.447 . S
C587 C115 1.443 . S
C589 C228 1.503 . S
C600 C255 1.499 . S
C598 C134 1.449 . S
