# Generated by pormake.
# Topology zzz, (3,6)-cn, num edge types: 1
# Building blocks:
#     Node 0, Type 0, BuildingBlock: CUQRIR_clean_linker_1, # of connection points: 3
#     Node 1, Type 0, BuildingBlock: CUQRIR_clean_linker_1, # of connection points: 3
#     Node 2, Type 0, BuildingBlock: CUQRIR_clean_linker_1, # of connection points: 3
#     Node 3, Type 0, BuildingBlock: CUQRIR_clean_linker_1, # of connection points: 3
#     Node 4, Type 0, BuildingBlock: CUQRIR_clean_linker_1, # of connection points: 3
#     Node 5, Type 0, BuildingBlock: CUQRIR_clean_linker_1, # of connection points: 3
#     Node 6, Type 0, BuildingBlock: CUQRIR_clean_linker_1, # of connection points: 3
#     Node 7, Type 0, BuildingBlock: CUQRIR_clean_linker_1, # of connection points: 3
#     Node 8, Type 1, BuildingBlock: MIFKUJ_clean_sbu_0, # of connection points: 6
#     Node 9, Type 1, BuildingBlock: MIFKUJ_clean_sbu_0, # of connection points: 6
#     Node 10, Type 1, BuildingBlock: MIFKUJ_clean_sbu_0, # of connection points: 6
#     Node 11, Type 1, BuildingBlock: MIFKUJ_clean_sbu_0, # of connection points: 6
#     Edge 12, Type (0, 1), BuildingBlock: MIFKUJ_clean_linker_0, # of connection points: 2
#     Edge 13, Type (0, 1), BuildingBlock: MIFKUJ_clean_linker_0, # of connection points: 2
#     Edge 14, Type (0, 1), BuildingBlock: MIFKUJ_clean_linker_0, # of connection points: 2
#     Edge 15, Type (0, 1), BuildingBlock: MIFKUJ_clean_linker_0, # of connection points: 2
#     Edge 16, Type (0, 1), BuildingBlock: MIFKUJ_clean_linker_0, # of connection points: 2
#     Edge 17, Type (0, 1), BuildingBlock: MIFKUJ_clean_linker_0, # of connection points: 2
#     Edge 18, Type (0, 1), BuildingBlock: MIFKUJ_clean_linker_0, # of connection points: 2
#     Edge 19, Type (0, 1), BuildingBlock: MIFKUJ_clean_linker_0, # of connection points: 2
#     Edge 20, Type (0, 1), BuildingBlock: MIFKUJ_clean_linker_0, # of connection points: 2
#     Edge 21, Type (0, 1), BuildingBlock: MIFKUJ_clean_linker_0, # of connection points: 2
#     Edge 22, Type (0, 1), BuildingBlock: MIFKUJ_clean_linker_0, # of connection points: 2
#     Edge 23, Type (0, 1), BuildingBlock: MIFKUJ_clean_linker_0, # of connection points: 2
#     Edge 24, Type (0, 1), BuildingBlock: MIFKUJ_clean_linker_0, # of connection points: 2
#     Edge 25, Type (0, 1), BuildingBlock: MIFKUJ_clean_linker_0, # of connection points: 2
#     Edge 26, Type (0, 1), BuildingBlock: MIFKUJ_clean_linker_0, # of connection points: 2
#     Edge 27, Type (0, 1), BuildingBlock: MIFKUJ_clean_linker_0, # of connection points: 2
#     Edge 28, Type (0, 1), BuildingBlock: MIFKUJ_clean_linker_0, # of connection points: 2
#     Edge 29, Type (0, 1), BuildingBlock: MIFKUJ_clean_linker_0, # of connection points: 2
#     Edge 30, Type (0, 1), BuildingBlock: MIFKUJ_clean_linker_0, # of connection points: 2
#     Edge 31, Type (0, 1), BuildingBlock: MIFKUJ_clean_linker_0, # of connection points: 2
#     Edge 32, Type (0, 1), BuildingBlock: MIFKUJ_clean_linker_0, # of connection points: 2
#     Edge 33, Type (0, 1), BuildingBlock: MIFKUJ_clean_linker_0, # of connection points: 2
#     Edge 34, Type (0, 1), BuildingBlock: MIFKUJ_clean_linker_0, # of connection points: 2
#     Edge 35, Type (0, 1), BuildingBlock: MIFKUJ_clean_linker_0, # of connection points: 2
# Relax obj value: 0.119
# Max RMSD: 0.116
# Mean RMSD: 0.092
data_MOF--net-zzz--node1-MIFKUJ_clean_sbu_0--node2-CUQRIR_clean_linker_1--edge1-MIFKUJ_clean_linker_0
_symmetry_space_group_name_H-M    P1
_symmetry_Int_Tables_number       1
_symmetry_cell_setting            triclinic
loop_
_symmetry_equiv_pos_as_xyz
'x, y, z'
_cell_length_a     62.966644
_cell_length_b     62.597001
_cell_length_c     18.767374
_cell_angle_alpha  90.255961
_cell_angle_beta   89.938226
_cell_angle_gamma 89.855327
loop_
_atom_site_label
_atom_site_type_symbol
_atom_site_fract_x
_atom_site_fract_y
_atom_site_fract_z
_atom_type_partial_charge
C0 C 0.72997 0.51029 0.16938 0.0
N1 N 0.75128 0.50733 0.16589 0.0
N2 N 0.72153 0.51072 0.10285 0.0
C3 C 0.71738 0.51126 0.23711 0.0
C4 C 0.73839 0.5078 0.05921 0.0
N5 N 0.75639 0.50568 0.09743 0.0
C6 C 0.73714 0.507 0.97917 0.0
H7 H 0.71563 0.49483 0.25826 0.0
H8 H 0.70136 0.51811 0.22776 0.0
H9 H 0.72593 0.5209 0.27763 0.0
H10 H 0.72383 0.517 0.95947 0.0
H11 H 0.73423 0.49027 0.96214 0.0
H12 H 0.75221 0.5125 0.95473 0.0
C13 C 0.97431 0.72537 0.186 0.0
N14 N 0.9734 0.74674 0.17484 0.0
N15 N 0.96994 0.71453 0.12488 0.0
C16 C 0.98134 0.71519 0.25416 0.0
C17 C 0.96675 0.7301 0.07627 0.0
N18 N 0.96895 0.74958 0.10644 0.0
C19 C 0.96328 0.72615 0.99796 0.0
H20 H 0.99895 0.71517 0.25607 0.0
H21 H 0.97567 0.69844 0.25726 0.0
H22 H 0.97539 0.7245 0.30057 0.0
H23 H 0.95203 0.71276 0.98993 0.0
H24 H 0.97862 0.72156 0.97297 0.0
H25 H 0.95698 0.74058 0.97106 0.0
C26 C 0.77641 0.0011 0.17544 0.0
N27 N 0.75512 0.00382 0.16838 0.0
N28 N 0.78642 0.00546 0.11308 0.0
C29 C 0.7871 0.99288 0.24122 0.0
C30 C 0.77056 0.01085 0.06825 0.0
N31 N 0.75161 0.00977 0.10156 0.0
C32 C 0.77373 0.01715 0.99166 0.0
H33 H 0.78674 0.00552 0.28283 0.0
H34 H 0.80386 0.98834 0.23053 0.0
H35 H 0.77827 0.97892 0.26212 0.0
H36 H 0.77347 0.00258 0.95781 0.0
H37 H 0.78933 0.02502 0.98445 0.0
H38 H 0.76093 0.02808 0.97368 0.0
C39 C 0.55783 0.77614 0.13194 0.0
N40 N 0.55688 0.75462 0.13274 0.0
N41 N 0.55851 0.78338 0.06403 0.0
C42 C 0.55637 0.79005 0.19711 0.0
C43 C 0.5576 0.76538 0.02372 0.0
N44 N 0.55651 0.74788 0.06557 0.0
C45 C 0.5556 0.76513 0.94382 0.0
H46 H 0.53942 0.79199 0.21204 0.0
H47 H 0.56324 0.80606 0.1869 0.0
H48 H 0.56471 0.7824 0.24243 0.0
H49 H 0.56767 0.77573 0.91968 0.0
H50 H 0.53971 0.77132 0.92877 0.0
H51 H 0.5577 0.74881 0.92164 0.0
C52 C 0.28057 0.49223 0.06396 0.0
N53 N 0.25906 0.49207 0.06633 0.0
N54 N 0.2887 0.49755 0.12874 0.0
C55 C 0.29361 0.48745 0.9987 0.0
C56 C 0.27127 0.50054 0.17036 0.0
N57 N 0.25333 0.49729 0.13226 0.0
C58 C 0.27183 0.5074 0.24747 0.0
H59 H 0.29794 0.47027 0.99866 0.0
H60 H 0.30846 0.49696 0.99899 0.0
H61 H 0.28461 0.49076 0.94924 0.0
H62 H 0.27207 0.5251 0.25017 0.0
H63 H 0.28623 0.50113 0.27429 0.0
H64 H 0.25776 0.50194 0.27743 0.0
C65 C 0.03589 0.27566 0.04168 0.0
N66 N 0.03782 0.25422 0.0507 0.0
N67 N 0.03911 0.28607 0.10436 0.0
C68 C 0.03057 0.28645 0.9728 0.0
C69 C 0.04269 0.27027 0.15169 0.0
N70 N 0.04198 0.25102 0.11922 0.0
C71 C 0.04399 0.27359 0.23106 0.0
H72 H 0.03703 0.30293 0.97201 0.0
H73 H 0.01304 0.28746 0.96762 0.0
H74 H 0.0369 0.27718 0.92691 0.0
H75 H 0.02785 0.27709 0.25191 0.0
H76 H 0.05422 0.2875 0.24358 0.0
H77 H 0.05034 0.25928 0.25847 0.0
C78 C 0.23443 0.00365 0.05981 0.0
N79 N 0.25496 0.99705 0.06333 0.0
N80 N 0.2239 0.99825 0.12017 0.0
C81 C 0.22461 0.01482 0.99746 0.0
C82 C 0.23864 0.98832 0.16046 0.0
N83 N 0.25741 0.98742 0.12584 0.0
C84 C 0.23491 0.98072 0.23544 0.0
H85 H 0.22794 0.03217 0.00187 0.0
H86 H 0.20714 0.01253 0.99678 0.0
H87 H 0.23163 0.00889 0.94682 0.0
H88 H 0.22218 0.99016 0.26171 0.0
H89 H 0.24958 0.98192 0.26785 0.0
H90 H 0.22988 0.96376 0.23372 0.0
C91 C 0.46101 0.22366 0.04159 0.0
N92 N 0.45744 0.24473 0.0526 0.0
N93 N 0.45746 0.21255 0.10217 0.0
C94 C 0.47079 0.21442 0.97535 0.0
C95 C 0.45183 0.2277 0.15022 0.0
N96 N 0.45205 0.24728 0.12048 0.0
C97 C 0.4483 0.22359 0.22828 0.0
H98 H 0.46622 0.19741 0.96873 0.0
H99 H 0.48834 0.21529 0.98 0.0
H100 H 0.46587 0.22368 0.92783 0.0
H101 H 0.46377 0.22407 0.25649 0.0
H102 H 0.44122 0.20756 0.23625 0.0
H103 H 0.43778 0.23602 0.25181 0.0
Zn104 Zn 0.99834 0.02426 0.58109 0.0
Zn105 Zn 0.01051 0.97627 0.64236 0.0
C106 C 0.9961 0.05737 0.67829 0.0
O107 O 0.97728 0.05609 0.64837 0.0
C108 C 0.01263 0.94616 0.52926 0.0
O109 O 0.0325 0.94769 0.54991 0.0
O110 O 0.99368 0.04775 0.50995 0.0
O111 O 0.01976 0.0058 0.52749 0.0
O112 O 0.03802 0.99047 0.6128 0.0
C113 C 0.01155 0.05689 0.50121 0.0
O114 O 0.02834 0.0489 0.53307 0.0
O115 O 0.00964 0.04271 0.66409 0.0
C116 C 0.99798 0.94366 0.72445 0.0
O117 O 0.98106 0.95065 0.6908 0.0
O118 O 0.01567 0.9529 0.7135 0.0
O119 O 0.98875 0.99415 0.69628 0.0
O120 O 0.97072 0.01088 0.61305 0.0
O121 O 0.99893 0.95863 0.55774 0.0
C122 C 0.03729 0.9988 0.55128 0.0
C123 C 0.97154 0.00247 0.67449 0.0
Zn124 Zn 0.4808 0.98968 0.57304 0.0
Zn125 Zn 0.52567 0.01205 0.63098 0.0
C126 C 0.4506 0.98639 0.68336 0.0
O127 O 0.45524 0.9663 0.66971 0.0
C128 C 0.5545 0.0108 0.51272 0.0
O129 O 0.54829 0.03081 0.50912 0.0
O130 O 0.4604 0.97414 0.5099 0.0
O131 O 0.49175 0.01327 0.51046 0.0
O132 O 0.50818 0.03511 0.58474 0.0
C133 C 0.44697 0.9867 0.4818 0.0
O134 O 0.44815 0.00726 0.49558 0.0
O135 O 0.46109 0.00085 0.65136 0.0
C136 C 0.5607 0.01128 0.71376 0.0
O137 O 0.55771 0.99138 0.6936 0.0
O138 O 0.54724 0.02541 0.69554 0.0
O139 O 0.51145 0.99035 0.69458 0.0
O140 O 0.50141 0.96804 0.61092 0.0
O141 O 0.54534 0.9984 0.5567 0.0
C142 C 0.4986 0.03175 0.52622 0.0
C143 C 0.50887 0.97134 0.67268 0.0
Zn144 Zn 0.50947 0.46882 0.59422 0.0
Zn145 Zn 0.50716 0.53598 0.61967 0.0
C146 C 0.51172 0.43841 0.70198 0.0
O147 O 0.53129 0.43852 0.67755 0.0
C148 C 0.50332 0.56952 0.51926 0.0
O149 O 0.48328 0.56547 0.53284 0.0
O150 O 0.51073 0.44688 0.51727 0.0
O151 O 0.4882 0.49127 0.56463 0.0
O152 O 0.47983 0.52525 0.57626 0.0
C153 C 0.49232 0.43925 0.50667 0.0
O154 O 0.4761 0.44729 0.54197 0.0
O155 O 0.49845 0.45177 0.67705 0.0
C156 C 0.4887 0.56371 0.72964 0.0
O157 O 0.47408 0.56809 0.682 0.0
O158 O 0.50306 0.55013 0.71477 0.0
O159 O 0.52909 0.5129 0.63428 0.0
O160 O 0.5384 0.47933 0.62255 0.0
O161 O 0.51761 0.55861 0.55069 0.0
C162 C 0.476 0.50688 0.55055 0.0
C163 C 0.54275 0.49816 0.64302 0.0
Zn164 Zn 0.03396 0.51118 0.57675 0.0
Zn165 Zn 0.98066 0.49016 0.63389 0.0
C166 C 0.07025 0.51153 0.65907 0.0
O167 O 0.06706 0.53152 0.64082 0.0
C168 C 0.94745 0.48063 0.53443 0.0
O169 O 0.95191 0.46128 0.55685 0.0
O170 O 0.05182 0.5261 0.50353 0.0
O171 O 0.01677 0.48946 0.51968 0.0
O172 O 0.00219 0.46824 0.59911 0.0
C173 C 0.04955 0.52413 0.43661 0.0
O174 O 0.03284 0.5141 0.41151 0.0
O175 O 0.05666 0.49759 0.63975 0.0
C176 C 0.95019 0.49062 0.73656 0.0
O177 O 0.94925 0.50968 0.70795 0.0
O178 O 0.96332 0.47701 0.71214 0.0
O179 O 0.99031 0.51839 0.67628 0.0
O180 O 0.01971 0.53364 0.63716 0.0
O181 O 0.95874 0.49613 0.55661 0.0
C182 C 0.01184 0.47084 0.54038 0.0
C183 C 0.00336 0.53382 0.67673 0.0
H184 H 0.207 0.03393 0.17651 0.0
H185 H 0.17359 0.03579 0.2443 0.0
H186 H 0.1592 0.97107 0.18073 0.0
H187 H 0.19285 0.96927 0.11482 0.0
H188 H 0.1319 0.03156 0.22609 0.0
H189 H 0.14034 0.94394 0.3169 0.0
H190 H 0.16844 0.91708 0.33717 0.0
H191 H 0.2135 0.96705 0.37731 0.0
H192 H 0.18571 0.99419 0.35682 0.0
H193 H 0.03795 0.00359 0.40719 0.0
H194 H 0.06862 0.00496 0.32843 0.0
H195 H 0.1103 0.99724 0.50897 0.0
H196 H 0.07938 0.99482 0.58809 0.0
H197 H 0.12501 0.97473 0.40819 0.0
H198 H 0.10358 0.04836 0.41712 0.0
H199 H 0.07916 0.07908 0.40922 0.0
H200 H 0.0644 0.06241 0.19272 0.0
H201 H 0.0891 0.03177 0.19896 0.0
C202 C 0.19619 0.02051 0.17501 0.0
C203 C 0.20212 0.00159 0.13998 0.0
C204 C 0.17725 0.02145 0.21411 0.0
C205 C 0.16408 0.0034 0.21889 0.0
C206 C 0.16927 0.98507 0.17897 0.0
C207 C 0.18825 0.98412 0.14044 0.0
C208 C 0.14594 0.00311 0.2698 0.0
C209 C 0.13035 0.0191 0.26572 0.0
C210 C 0.14416 0.98724 0.32305 0.0
C211 C 0.161 0.97105 0.33471 0.0
C212 C 0.15625 0.94917 0.32997 0.0
C213 C 0.17214 0.93391 0.34132 0.0
C214 C 0.19277 0.94036 0.35812 0.0
C215 C 0.19755 0.96209 0.36376 0.0
C216 C 0.18177 0.97741 0.35201 0.0
C217 C 0.05364 0.00217 0.43034 0.0
C218 C 0.05622 0.99916 0.50411 0.0
C219 C 0.07124 0.00317 0.38511 0.0
C220 C 0.09192 0.00175 0.41259 0.0
C221 C 0.09455 0.99848 0.48627 0.0
C222 C 0.07687 0.99709 0.53155 0.0
C223 C 0.11069 0.00305 0.36415 0.0
C224 C 0.12644 0.9872 0.36853 0.0
C225 C 0.11295 0.01944 0.31272 0.0
C226 C 0.09799 0.03769 0.30878 0.0
C227 C 0.09502 0.05119 0.36799 0.0
C228 C 0.08116 0.0686 0.36376 0.0
C229 C 0.07005 0.07256 0.30076 0.0
C230 C 0.07296 0.05926 0.24155 0.0
C231 C 0.08699 0.04195 0.24526 0.0
H232 H 0.05925 0.08597 0.29769 0.0
H233 H 0.20504 0.92853 0.36701 0.0
H234 H 0.49255 0.20412 0.17648 0.0
H235 H 0.50183 0.17007 0.23135 0.0
H236 H 0.44918 0.14002 0.12303 0.0
H237 H 0.43942 0.17473 0.07091 0.0
H238 H 0.44714 0.13136 0.25596 0.0
H239 H 0.50341 0.12705 0.08772 0.0
H240 H 0.53418 0.13931 0.01774 0.0
H241 H 0.57004 0.14811 0.21006 0.0
H242 H 0.53939 0.1362 0.28134 0.0
H243 H 0.47463 0.03106 0.40531 0.0
H244 H 0.46973 0.05957 0.31888 0.0
H245 H 0.51138 0.1003 0.44063 0.0
H246 H 0.51637 0.07177 0.52825 0.0
H247 H 0.51903 0.10046 0.29012 0.0
H248 H 0.46071 0.10819 0.45634 0.0
H249 H 0.4299 0.09522 0.52468 0.0
H250 H 0.39795 0.07887 0.32997 0.0
H251 H 0.42873 0.09148 0.26047 0.0
C252 C 0.4834 0.19003 0.16317 0.0
C253 C 0.46536 0.19176 0.11992 0.0
C254 C 0.48873 0.17056 0.19406 0.0
C255 C 0.47634 0.15234 0.18093 0.0
C256 C 0.459 0.15384 0.1339 0.0
C257 C 0.4535 0.1735 0.10373 0.0
C258 C 0.47998 0.13267 0.22325 0.0
C259 C 0.4628 0.12431 0.26186 0.0
C260 C 0.50049 0.12373 0.23264 0.0
C261 C 0.51903 0.13084 0.18993 0.0
C262 C 0.51781 0.13173 0.11516 0.0
C263 C 0.53524 0.1386 0.07524 0.0
C264 C 0.55404 0.14451 0.10944 0.0
C265 C 0.55546 0.14352 0.18364 0.0
C266 C 0.53808 0.13668 0.22382 0.0
C267 C 0.48277 0.04606 0.41402 0.0
C268 C 0.49577 0.0492 0.47412 0.0
C269 C 0.47995 0.06232 0.3644 0.0
C270 C 0.49011 0.08202 0.37364 0.0
C271 C 0.50342 0.08515 0.4327 0.0
C272 C 0.50613 0.06891 0.48287 0.0
C273 C 0.48628 0.09953 0.32261 0.0
C274 C 0.50339 0.10741 0.28286 0.0
C275 C 0.4657 0.10795 0.31157 0.0
C276 C 0.44711 0.10056 0.35327 0.0
C277 C 0.44719 0.10167 0.42813 0.0
C278 C 0.42971 0.09442 0.46706 0.0
C279 C 0.412 0.08617 0.4317 0.0
C280 C 0.4117 0.08523 0.35729 0.0
C281 C 0.42914 0.09244 0.31811 0.0
H282 H 0.39849 0.08055 0.46194 0.0
H283 H 0.56751 0.14983 0.07843 0.0
H284 H 0.30654 0.53104 0.19688 0.0
H285 H 0.3412 0.53183 0.25364 0.0
H286 H 0.35649 0.47083 0.15749 0.0
H287 H 0.32048 0.46891 0.10874 0.0
H288 H 0.36884 0.46799 0.27829 0.0
H289 H 0.38147 0.52364 0.11435 0.0
H290 H 0.37544 0.55672 0.04634 0.0
H291 H 0.37553 0.59326 0.24047 0.0
H292 H 0.38128 0.56039 0.30979 0.0
H293 H 0.4717 0.47753 0.44289 0.0
H294 H 0.44322 0.47515 0.35475 0.0
H295 H 0.41133 0.52842 0.45543 0.0
H296 H 0.43996 0.53105 0.54282 0.0
H297 H 0.4118 0.5333 0.3153 0.0
H298 H 0.39627 0.4727 0.47433 0.0
H299 H 0.40494 0.4382 0.53064 0.0
H300 H 0.41459 0.40974 0.32443 0.0
H301 H 0.40636 0.44413 0.26709 0.0
C302 C 0.3173 0.51778 0.18824 0.0
C303 C 0.31065 0.49972 0.14973 0.0
C304 C 0.33741 0.51842 0.21943 0.0
C305 C 0.35191 0.50152 0.20954 0.0
C306 C 0.34572 0.48407 0.16669 0.0
C307 C 0.32522 0.48307 0.13782 0.0
C308 C 0.37249 0.50115 0.24954 0.0
C309 C 0.37842 0.48224 0.28469 0.0
C310 C 0.38527 0.51962 0.25884 0.0
C311 C 0.38171 0.53948 0.21734 0.0
C312 C 0.38007 0.5387 0.14261 0.0
C313 C 0.37672 0.55743 0.10381 0.0
C314 C 0.37509 0.57707 0.13906 0.0
C315 C 0.37681 0.57803 0.21321 0.0
C316 C 0.38016 0.55936 0.25228 0.0
C317 C 0.45836 0.48838 0.44733 0.0
C318 C 0.45786 0.50416 0.50093 0.0
C319 C 0.44212 0.48711 0.39649 0.0
C320 C 0.4249 0.50144 0.39877 0.0
C321 C 0.4244 0.51716 0.45243 0.0
C322 C 0.44072 0.51858 0.5027 0.0
C323 C 0.40746 0.50045 0.34516 0.0
C324 C 0.40225 0.51909 0.30748 0.0
C325 C 0.39579 0.48158 0.33154 0.0
C326 C 0.40084 0.46101 0.36652 0.0
C327 C 0.40038 0.45911 0.4411 0.0
C328 C 0.4052 0.43957 0.47318 0.0
C329 C 0.41029 0.42178 0.43117 0.0
C330 C 0.41064 0.42351 0.35698 0.0
C331 C 0.40591 0.44302 0.32468 0.0
H332 H 0.41402 0.40668 0.45611 0.0
H333 H 0.37251 0.59155 0.10892 0.0
H334 H 0.00133 0.30549 0.11994 0.0
H335 H 0.99498 0.33974 0.18116 0.0
H336 H 0.06265 0.34937 0.19766 0.0
H337 H 0.06874 0.31525 0.13589 0.0
H338 H 0.00532 0.34788 0.31376 0.0
H339 H 0.07362 0.40303 0.21358 0.0
H340 H 0.09246 0.41123 0.10177 0.0
H341 H 0.03936 0.38824 0.98054 0.0
H342 H 0.02004 0.38029 0.09153 0.0
H343 H 0.02117 0.42927 0.5711 0.0
H344 H 0.02568 0.39957 0.48704 0.0
H345 H 0.01036 0.44168 0.31266 0.0
H346 H 0.00755 0.47159 0.39611 0.0
H347 H 0.03892 0.41807 0.26864 0.0
H348 H 0.97408 0.40198 0.39346 0.0
H349 H 0.95173 0.39557 0.49927 0.0
H350 H 0.99135 0.34257 0.55802 0.0
H351 H 0.01407 0.34883 0.45305 0.0
C352 C 0.01472 0.31545 0.13423 0.0
C353 C 0.03548 0.30812 0.12242 0.0
C354 C 0.01115 0.33482 0.16992 0.0
C355 C 0.02833 0.34721 0.19414 0.0
C356 C 0.04912 0.34034 0.17872 0.0
C357 C 0.05263 0.32095 0.14319 0.0
C358 C 0.02463 0.36607 0.24137 0.0
C359 C 0.01255 0.36328 0.30357 0.0
C360 C 0.03389 0.38625 0.22811 0.0
C361 C 0.04549 0.39081 0.161 0.0
C362 C 0.06595 0.39976 0.16308 0.0
C363 C 0.07671 0.40438 0.09982 0.0
C364 C 0.06715 0.40017 0.03408 0.0
C365 C 0.04679 0.39139 0.03148 0.0
C366 C 0.03594 0.38679 0.09457 0.0
C367 C 0.01878 0.4321 0.51477 0.0
C368 C 0.01393 0.45268 0.49013 0.0
C369 C 0.02119 0.41509 0.46665 0.0
C370 C 0.01787 0.41811 0.39314 0.0
C371 C 0.01304 0.43877 0.36879 0.0
C372 C 0.01133 0.45589 0.4166 0.0
C373 C 0.01961 0.39993 0.34139 0.0
C374 C 0.0315 0.40276 0.27861 0.0
C375 C 0.00968 0.37993 0.35314 0.0
C376 C 0.99585 0.37597 0.41571 0.0
C377 C 0.97806 0.38901 0.42912 0.0
C378 C 0.96533 0.3854 0.48894 0.0
C379 C 0.97014 0.3687 0.5354 0.0
C380 C 0.98765 0.35551 0.52202 0.0
C381 C 1.00044 0.35906 0.46234 0.0
H382 H 0.96028 0.36594 0.58172 0.0
H383 H 0.07551 0.40376 0.98517 0.0
H384 H 0.81956 0.03166 0.13569 0.0
H385 H 0.85348 0.03053 0.0704 0.0
H386 H 0.83452 0.97126 0.97094 0.0
H387 H 0.80108 0.97232 0.03769 0.0
H388 H 0.87506 0.97014 0.99205 0.0
H389 H 0.82645 0.02052 0.88933 0.0
H390 H 0.80272 0.05194 0.88778 0.0
H391 H 0.85482 0.09251 0.94617 0.0
H392 H 0.87885 0.0613 0.94844 0.0
H393 H 0.93005 0.01347 0.64509 0.0
H394 H 0.89972 0.01279 0.72722 0.0
H395 H 0.94119 0.99297 0.8976 0.0
H396 H 0.97117 0.99285 0.81591 0.0
H397 H 0.88925 0.03339 0.84111 0.0
H398 H 0.91511 0.96143 0.01706 0.0
H399 H 0.93413 0.92709 0.00681 0.0
H400 H 0.92233 0.92576 0.78155 0.0
H401 H 0.90276 0.95984 0.79068 0.0
C402 C 0.8232 0.01802 0.1021 0.0
C403 C 0.80808 0.00189 0.09216 0.0
C404 C 0.84234 0.01752 0.06394 0.0
C405 C 0.84639 0.00103 0.01448 0.0
C406 C 0.83182 0.98416 0.00858 0.0
C407 C 0.81282 0.98463 0.04699 0.0
C408 C 0.86492 0.00193 0.96513 0.0
C409 C 0.87828 0.98404 0.95948 0.0
C410 C 0.86879 0.01981 0.92094 0.0
C411 C 0.85438 0.03856 0.91981 0.0
C412 C 0.83281 0.03613 0.9023 0.0
C413 C 0.81931 0.05389 0.90118 0.0
C414 C 0.82723 0.07419 0.91717 0.0
C415 C 0.84869 0.07677 0.93397 0.0
C416 C 0.86226 0.05906 0.93507 0.0
C417 C 0.93266 0.00894 0.70002 0.0
C418 C 0.95302 0.00305 0.7236 0.0
C419 C 0.91533 0.00859 0.74703 0.0
C420 C 0.91804 0.00246 0.81855 0.0
C421 C 0.93849 0.99721 0.84245 0.0
C422 C 0.9557 0.99729 0.79551 0.0
C423 C 0.89959 0.00162 0.86837 0.0
C424 C 0.88622 0.01954 0.87412 0.0
C425 C 0.89534 0.98349 0.91116 0.0
C426 C 0.90766 0.96333 0.9045 0.0
C427 C 0.91658 0.95382 0.96532 0.0
C428 C 0.92744 0.93439 0.95971 0.0
C429 C 0.92948 0.92429 0.89354 0.0
C430 C 0.92078 0.93365 0.83273 0.0
C431 C 0.9098 0.95303 0.83809 0.0
H432 H 0.93762 0.90912 0.88953 0.0
H433 H 0.81676 0.08792 0.91633 0.0
H434 H 0.58391 0.8065 0.9788 0.0
H435 H 0.57535 0.84103 0.92429 0.0
H436 H 0.51627 0.84293 0.04123 0.0
H437 H 0.52454 0.80796 0.09289 0.0
H438 H 0.5089 0.85183 0.9097 0.0
H439 H 0.5582 0.87684 0.08154 0.0
H440 H 0.5917 0.87835 0.14922 0.0
H441 H 0.62596 0.89258 0.95733 0.0
H442 H 0.5927 0.89084 0.88826 0.0
H443 H 0.52032 0.97284 0.81306 0.0
H444 H 0.5283 0.9428 0.89138 0.0
H445 H 0.51783 0.89893 0.71697 0.0
H446 H 0.50922 0.92882 0.63891 0.0
H447 H 0.5579 0.91351 0.89177 0.0
H448 H 0.49673 0.85317 0.77585 0.0
H449 H 0.46144 0.85383 0.7189 0.0
H450 H 0.44745 0.91376 0.82101 0.0
H451 H 0.48249 0.91328 0.87951 0.0
C452 C 0.56923 0.8145 0.993 0.0
C453 C 0.55485 0.80479 0.03971 0.0
C454 C 0.5644 0.83424 0.96247 0.0
C455 C 0.54521 0.84468 0.97904 0.0
C456 C 0.53115 0.8352 0.02765 0.0
C457 C 0.53593 0.81539 0.05763 0.0
C458 C 0.53916 0.86468 0.94191 0.0
C459 C 0.51959 0.86535 0.90614 0.0
C460 C 0.55288 0.88253 0.93837 0.0
C461 C 0.57296 0.88353 0.97962 0.0
C462 C 0.5729 0.88012 0.05365 0.0
C463 C 0.59184 0.88104 0.09229 0.0
C464 C 0.61095 0.88551 0.05758 0.0
C465 C 0.61114 0.8891 0.98415 0.0
C466 C 0.59224 0.88817 0.94523 0.0
C467 C 0.51963 0.95679 0.79142 0.0
C468 C 0.51395 0.95319 0.71989 0.0
C469 C 0.52428 0.93964 0.83622 0.0
C470 C 0.5234 0.9186 0.81034 0.0
C471 C 0.51818 0.91501 0.73853 0.0
C472 C 0.51333 0.93212 0.69388 0.0
C473 C 0.52792 0.90037 0.85828 0.0
C474 C 0.54718 0.90003 0.89588 0.0
C475 C 0.51365 0.88307 0.86528 0.0
C476 C 0.49233 0.88326 0.83157 0.0
C477 C 0.48607 0.86642 0.78649 0.0
C478 C 0.46612 0.86677 0.75389 0.0
C479 C 0.45224 0.88385 0.76618 0.0
C480 C 0.45824 0.90057 0.81138 0.0
C481 C 0.47815 0.90027 0.84424 0.0
H482 H 0.43682 0.88411 0.74077 0.0
H483 H 0.6256 0.88624 0.08759 0.0
H484 H 0.69764 0.54529 0.07494 0.0
H485 H 0.66479 0.54546 0.00393 0.0
H486 H 0.66478 0.47652 0.00383 0.0
H487 H 0.6976 0.47659 0.07429 0.0
H488 H 0.6648 0.49293 0.87063 0.0
H489 H 0.62604 0.50514 0.08866 0.0
H490 H 0.61642 0.52396 0.19984 0.0
H491 H 0.60193 0.58065 0.08122 0.0
H492 H 0.61176 0.56228 0.96944 0.0
H493 H 0.57079 0.46819 0.69003 0.0
H494 H 0.5999 0.47283 0.77309 0.0
H495 H 0.58852 0.54083 0.77774 0.0
H496 H 0.5584 0.53613 0.69625 0.0
H497 H 0.59486 0.5279 0.90677 0.0
H498 H 0.63309 0.5171 0.69027 0.0
H499 H 0.64317 0.49966 0.57706 0.0
H500 H 0.65997 0.4425 0.68962 0.0
H501 H 0.64974 0.4595 0.80341 0.0
C502 C 0.68997 0.53029 0.0622 0.0
C503 C 0.69972 0.51093 0.08076 0.0
C504 C 0.67134 0.53035 0.0214 0.0
C505 C 0.6623 0.51099 0.99845 0.0
C506 C 0.67142 0.49164 0.02097 0.0
C507 C 0.68997 0.49164 0.06175 0.0
C508 C 0.64518 0.51073 0.94387 0.0
C509 C 0.64938 0.50032 0.87898 0.0
C510 C 0.62545 0.52126 0.95333 0.0
C511 C 0.61988 0.5324 0.02073 0.0
C512 C 0.62104 0.5217 0.08635 0.0
C513 C 0.61549 0.53227 0.14948 0.0
C514 C 0.60861 0.5535 0.14764 0.0
C515 C 0.60727 0.56421 0.08264 0.0
C516 C 0.61283 0.55373 0.01938 0.0
C517 C 0.57459 0.48423 0.70763 0.0
C518 C 0.56227 0.50182 0.68584 0.0
C519 C 0.59139 0.48687 0.75522 0.0
C520 C 0.59676 0.50723 0.78109 0.0
C521 C 0.58477 0.52495 0.75846 0.0
C522 C 0.56765 0.52227 0.71141 0.0
C523 C 0.61431 0.50967 0.83394 0.0
C524 C 0.61029 0.52058 0.89825 0.0
C525 C 0.63439 0.49985 0.82373 0.0
C526 C 0.64049 0.48953 0.75531 0.0
C527 C 0.63879 0.50076 0.69082 0.0
C528 C 0.64455 0.49096 0.62655 0.0
C529 C 0.65217 0.46997 0.62614 0.0
C530 C 0.65406 0.45875 0.69001 0.0
C531 C 0.6483 0.46847 0.75441 0.0
H532 H 0.65663 0.46241 0.57633 0.0
H533 H 0.60427 0.56164 0.19655 0.0
H534 H 0.94033 0.68488 0.0969 0.0
H535 H 0.9464 0.65096 0.03359 0.0
H536 H 0.01401 0.66152 0.04429 0.0
H537 H 0.00772 0.69544 0.10737 0.0
H538 H 0.99997 0.65607 0.90849 0.0
H539 H 0.99037 0.62008 0.13314 0.0
H540 H 0.97159 0.61027 0.24355 0.0
H541 H 0.91939 0.58595 0.1208 0.0
H542 H 0.93771 0.59592 0.00963 0.0
H543 H 0.03255 0.56266 0.72586 0.0
H544 H 0.02716 0.59117 0.81335 0.0
H545 H 0.96077 0.57477 0.82801 0.0
H546 H 0.96626 0.54582 0.74247 0.0
H547 H 0.9741 0.58266 0.9542 0.0
H548 H 0.97941 0.61988 0.7343 0.0
H549 H 0.99492 0.63039 0.61901 0.0
H550 H 0.05047 0.6539 0.7259 0.0
H551 H 0.0354 0.64327 0.84184 0.0
C552 C 0.95645 0.67937 0.08829 0.0
C553 C 0.9736 0.69242 0.10767 0.0
C554 C 0.95994 0.6601 0.05188 0.0
C555 C 0.98068 0.65364 0.03414 0.0
C556 C 0.99788 0.66612 0.05754 0.0
C557 C 0.99435 0.68532 0.09419 0.0
C558 C 0.98434 0.63554 0.9838 0.0
C559 C 0.99468 0.63991 0.91916 0.0
C560 C 0.97648 0.6147 0.99603 0.0
C561 C 0.96535 0.60896 0.063 0.0
C562 C 0.97479 0.61286 0.12966 0.0
C563 C 0.96425 0.60721 0.1924 0.0
C564 C 0.94429 0.59754 0.1892 0.0
C565 C 0.93484 0.59348 0.12322 0.0
C566 C 0.94531 0.59911 0.06033 0.0
C567 C 0.01676 0.56522 0.74728 0.0
C568 C 0.99982 0.55196 0.72678 0.0
C569 C 0.01367 0.58159 0.79735 0.0
C570 C 0.99346 0.58542 0.82687 0.0
C571 C 0.97653 0.57219 0.80635 0.0
C572 C 0.97968 0.55563 0.7571 0.0
C573 C 0.98999 0.60314 0.87918 0.0
C574 C 0.97955 0.59877 0.94378 0.0
C575 C 0.99723 0.62418 0.86627 0.0
C576 C 0.00637 0.63056 0.79667 0.0
C577 C 0.99501 0.62713 0.73317 0.0
C578 C 0.00371 0.63314 0.66772 0.0
C579 C 0.02369 0.64275 0.66511 0.0
C580 C 0.035 0.64642 0.728 0.0
C581 C 0.02639 0.64042 0.7936 0.0
H582 H 0.0304 0.64739 0.61438 0.0
H583 H 0.93617 0.59314 0.23782 0.0
H584 H 0.07245 0.22626 0.1761 0.0
H585 H 0.06709 0.19266 0.24146 0.0
H586 H 0.99946 0.19834 0.20999 0.0
H587 H 0.00501 0.23159 0.14319 0.0
H588 H 0.00815 0.18826 0.34436 0.0
H589 H 0.02568 0.15788 0.11356 0.0
H590 H 0.04676 0.15384 0.0032 0.0
H591 H 0.10245 0.14042 0.12738 0.0
H592 H 0.08151 0.14418 0.23822 0.0
H593 H 0.98074 0.07943 0.42944 0.0
H594 H 0.98546 0.11327 0.36537 0.0
H595 H 0.05193 0.11334 0.42058 0.0
H596 H 0.04741 0.08002 0.48469 0.0
H597 H 0.04346 0.12042 0.27425 0.0
H598 H 0.02122 0.14439 0.50756 0.0
H599 H 0.99691 0.14598 0.61071 0.0
H600 H 0.94741 0.17083 0.47755 0.0
H601 H 0.97118 0.1689 0.37314 0.0
C602 C 0.05656 0.22002 0.18275 0.0
C603 C 0.0391 0.23106 0.15495 0.0
C604 C 0.05347 0.20095 0.21963 0.0
C605 C 0.03285 0.1929 0.2294 0.0
C606 C 0.01544 0.20417 0.20196 0.0
C607 C 0.01857 0.22302 0.16422 0.0
C608 C 0.02931 0.17294 0.26939 0.0
C609 C 0.0157 0.17336 0.32873 0.0
C610 C 0.03936 0.15363 0.24952 0.0
C611 C 0.05216 0.1517 0.18369 0.0
C612 C 0.04248 0.15436 0.11698 0.0
C613 C 0.05436 0.15201 0.0545 0.0
C614 C 0.076 0.14712 0.05826 0.0
C615 C 0.08572 0.14433 0.12454 0.0
C616 C 0.07383 0.14647 0.18718 0.0
C617 C 0.99633 0.08667 0.42763 0.0
C618 C 0.01376 0.07694 0.46118 0.0
C619 C 0.99898 0.10597 0.3914 0.0
C620 C 0.01906 0.11564 0.3884 0.0
C621 C 0.03637 0.10599 0.42205 0.0
C622 C 0.03373 0.0869 0.4584 0.0
C623 C 0.02234 0.13569 0.34924 0.0
C624 C 0.03598 0.13531 0.29019 0.0
C625 C 0.01212 0.15492 0.36919 0.0
C626 C 0.99792 0.15627 0.43226 0.0
C627 C 0.00509 0.14999 0.50005 0.0
C628 C 0.99143 0.15098 0.55879 0.0
C629 C 0.97066 0.15846 0.55065 0.0
C630 C 0.9635 0.165 0.48375 0.0
C631 C 0.97704 0.16395 0.42476 0.0
H632 H 0.96013 0.15923 0.59622 0.0
H633 H 0.08519 0.14536 0.00981 0.0
H634 H 0.29372 0.00951 0.13624 0.0
H635 H 0.32728 0.99711 0.18709 0.0
H636 H 0.29877 0.93621 0.23499 0.0
H637 H 0.26528 0.94841 0.18062 0.0
H638 H 0.32065 0.95736 0.35212 0.0
H639 H 0.33319 0.93291 0.11939 0.0
H640 H 0.33368 0.93339 0.98813 0.0
H641 H 0.37755 0.98566 0.99161 0.0
H642 H 0.37698 0.98596 0.12276 0.0
H643 H 0.4286 0.9471 0.48408 0.0
H644 H 0.39715 0.9356 0.41639 0.0
H645 H 0.3953 0.99674 0.31131 0.0
H646 H 0.42623 0.00837 0.37904 0.0
H647 H 0.38876 0.96069 0.21936 0.0
H648 H 0.36689 0.9897 0.4528 0.0
H649 H 0.3649 0.98933 0.58412 0.0
H650 H 0.33748 0.92663 0.57781 0.0
H651 H 0.33971 0.92645 0.44645 0.0
C652 C 0.29482 0.99336 0.15624 0.0
C653 C 0.27716 0.97981 0.15437 0.0
C654 C 0.31386 0.98631 0.18539 0.0
C655 C 0.31543 0.96571 0.21409 0.0
C656 C 0.29779 0.95212 0.21269 0.0
C657 C 0.27878 0.95907 0.18215 0.0
C658 C 0.33538 0.95927 0.24874 0.0
C659 C 0.33557 0.95734 0.32309 0.0
C660 C 0.35468 0.95926 0.2104 0.0
C661 C 0.35502 0.95945 0.1312 0.0
C662 C 0.34281 0.94467 0.09222 0.0
C663 C 0.34312 0.94479 0.01776 0.0
C664 C 0.35567 0.95955 0.98152 0.0
C665 C 0.36785 0.97427 0.0197 0.0
C666 C 0.36756 0.97428 0.09416 0.0
C667 C 0.42161 0.95789 0.44566 0.0
C668 C 0.42969 0.97863 0.43676 0.0
C669 C 0.40371 0.95134 0.40734 0.0
C670 C 0.39403 0.96536 0.35909 0.0
C671 C 0.40267 0.98569 0.34813 0.0
C672 C 0.42024 0.99235 0.38708 0.0
C673 C 0.37401 0.95992 0.32287 0.0
C674 C 0.37385 0.95971 0.24815 0.0
C675 C 0.35473 0.95784 0.36092 0.0
C676 C 0.35384 0.95788 0.43989 0.0
C677 C 0.36073 0.9757 0.47944 0.0
C678 C 0.35949 0.97563 0.55387 0.0
C679 C 0.35116 0.95792 0.58924 0.0
C680 C 0.34402 0.94028 0.55031 0.0
C681 C 0.3453 0.94025 0.47592 0.0
H682 H 0.35015 0.95788 0.64675 0.0
H683 H 0.35598 0.95955 0.92388 0.0
H684 H 0.48451 0.25633 0.20664 0.0
H685 H 0.4907 0.28973 0.27147 0.0
H686 H 0.43297 0.31596 0.18328 0.0
H687 H 0.42693 0.28223 0.11801 0.0
H688 H 0.46437 0.3446 0.1793 0.0
H689 H 0.43406 0.29938 0.35186 0.0
H690 H 0.4283 0.26738 0.42528 0.0
H691 H 0.49003 0.27491 0.5188 0.0
H692 H 0.49641 0.3067 0.44463 0.0
H693 H 0.45627 0.42822 0.438 0.0
H694 H 0.44947 0.39522 0.37134 0.0
H695 H 0.51386 0.3746 0.40847 0.0
H696 H 0.52089 0.40774 0.475 0.0
H697 H 0.47781 0.34376 0.44 0.0
H698 H 0.50571 0.39125 0.25809 0.0
H699 H 0.50502 0.42676 0.20199 0.0
H700 H 0.44053 0.41662 0.13623 0.0
H701 H 0.44056 0.38135 0.19443 0.0
C702 C 0.47306 0.2692 0.20222 0.0
C703 C 0.45502 0.26682 0.1593 0.0
C704 C 0.47659 0.28821 0.23883 0.0
C705 C 0.46208 0.30514 0.23315 0.0
C706 C 0.44426 0.30298 0.18869 0.0
C707 C 0.44075 0.28384 0.15189 0.0
C708 C 0.46578 0.32506 0.27369 0.0
C709 C 0.4671 0.34441 0.23636 0.0
C710 C 0.46934 0.32479 0.34825 0.0
C711 C 0.46583 0.30532 0.39188 0.0
C712 C 0.44655 0.29407 0.3873 0.0
C713 C 0.44315 0.27598 0.4292 0.0
C714 C 0.45882 0.26908 0.4765 0.0
C715 C 0.47793 0.28024 0.48195 0.0
C716 C 0.48146 0.29829 0.43993 0.0
C717 C 0.46898 0.41669 0.43156 0.0
C718 C 0.48909 0.42044 0.46122 0.0
C719 C 0.46507 0.39794 0.39376 0.0
C720 C 0.48115 0.38264 0.38554 0.0
C721 C 0.5013 0.38632 0.41474 0.0
C722 C 0.50533 0.40526 0.45186 0.0
C723 C 0.47683 0.36292 0.3453 0.0
C724 C 0.47528 0.34372 0.38282 0.0
C725 C 0.47248 0.36341 0.27153 0.0
C726 C 0.47308 0.38372 0.23109 0.0
C727 C 0.49135 0.39661 0.23189 0.0
C728 C 0.49103 0.41676 0.20014 0.0
C729 C 0.4727 0.42398 0.16588 0.0
C730 C 0.4547 0.41102 0.16293 0.0
C731 C 0.45484 0.39096 0.19543 0.0
H732 H 0.47251 0.43958 0.14122 0.0
H733 H 0.45612 0.25512 0.50909 0.0
H734 H 0.22597 0.52541 0.07475 0.0
H735 H 0.18889 0.53113 0.10794 0.0
H736 H 0.19595 0.48564 0.27899 0.0
H737 H 0.232 0.4776 0.23786 0.0
H738 H 0.15975 0.48125 0.23576 0.0
H739 H 0.19883 0.54585 0.29458 0.0
H740 H 0.22162 0.57682 0.26772 0.0
H741 H 0.17601 0.59919 0.11512 0.0
H742 H 0.15306 0.56824 0.14063 0.0
H743 H 0.08654 0.54425 0.4718 0.0
H744 H 0.11975 0.54329 0.40464 0.0
H745 H 0.08793 0.51186 0.2301 0.0
H746 H 0.05458 0.51265 0.29684 0.0
H747 H 0.13471 0.55594 0.2682 0.0
H748 H 0.11417 0.47079 0.19392 0.0
H749 H 0.09241 0.44103 0.23981 0.0
H750 H 0.10478 0.46139 0.45463 0.0
H751 H 0.12645 0.49129 0.4098 0.0
C752 C 0.21937 0.5164 0.11853 0.0
C753 C 0.23183 0.50137 0.15479 0.0
C754 C 0.1983 0.51994 0.13841 0.0
C755 C 0.1897 0.50946 0.19785 0.0
C756 C 0.20215 0.49414 0.23336 0.0
C757 C 0.22287 0.48981 0.21096 0.0
C758 C 0.16795 0.51457 0.22402 0.0
C759 C 0.15441 0.49762 0.24237 0.0
C760 C 0.16071 0.53592 0.23353 0.0
C761 C 0.17433 0.55468 0.21915 0.0
C762 C 0.19371 0.55736 0.2552 0.0
C763 C 0.20665 0.5749 0.24019 0.0
C764 C 0.20028 0.58994 0.18966 0.0
C765 C 0.18093 0.58752 0.15421 0.0
C766 C 0.16794 0.57001 0.16899 0.0
C767 C 0.08644 0.53765 0.41834 0.0
C768 C 0.06799 0.52824 0.39001 0.0
C769 C 0.10543 0.53718 0.38002 0.0
C770 C 0.10626 0.52725 0.31303 0.0
C771 C 0.08755 0.51943 0.28213 0.0
C772 C 0.06851 0.51996 0.32027 0.0
C773 C 0.12706 0.52269 0.27989 0.0
C774 C 0.14022 0.53966 0.26036 0.0
C775 C 0.13432 0.50147 0.27169 0.0
C776 C 0.12185 0.48319 0.29856 0.0
C777 C 0.11231 0.46879 0.25088 0.0
C778 C 0.09994 0.45197 0.2767 0.0
C779 C 0.09721 0.44932 0.35008 0.0
C780 C 0.10686 0.46348 0.39782 0.0
C781 C 0.11913 0.48038 0.37226 0.0
H782 H 0.08761 0.43631 0.36993 0.0
H783 H 0.21034 0.60349 0.17805 0.0
H784 H 0.9462 0.78561 0.12547 0.0
H785 H 0.95218 0.82012 0.06636 0.0
H786 H 0.00426 0.79235 0.94786 0.0
H787 H 0.99835 0.75812 0.0076 0.0
H788 H 0.98756 0.84639 0.06145 0.0
H789 H 0.00161 0.8122 0.77797 0.0
H790 H 0.99095 0.7811 0.70524 0.0
H791 H 0.93384 0.77486 0.82856 0.0
H792 H 0.94396 0.80614 0.90111 0.0
H793 H 0.02761 0.92667 0.81638 0.0
H794 H 0.0235 0.89446 0.88991 0.0
H795 H 0.95995 0.88618 0.80892 0.0
H796 H 0.9637 0.91804 0.73712 0.0
H797 H 0.98277 0.85032 0.79797 0.0
H798 H 0.96778 0.90445 0.97245 0.0
H799 H 0.9739 0.93569 0.05006 0.0
H800 H 0.02635 0.90345 0.14889 0.0
H801 H 0.02077 0.87217 0.07078 0.0
C802 C 0.95881 0.78705 0.08656 0.0
C803 C 0.97157 0.76939 0.0695 0.0
C804 C 0.96231 0.80664 0.05333 0.0
C805 C 0.97853 0.80863 0.00245 0.0
C806 C 0.99149 0.791 0.98631 0.0
C807 C 0.98803 0.77152 0.01973 0.0
C808 C 0.98161 0.82894 0.96446 0.0
C809 C 0.98662 0.84734 0.00382 0.0
C810 C 0.98008 0.83003 0.88948 0.0
C811 C 0.97369 0.81135 0.84551 0.0
C812 C 0.98674 0.80423 0.78938 0.0
C813 C 0.98079 0.78657 0.74818 0.0
C814 C 0.96177 0.77596 0.76246 0.0
C815 C 0.94861 0.78304 0.81775 0.0
C816 C 0.95446 0.80072 0.85896 0.0
C817 C 0.01275 0.91801 0.81485 0.0
C818 C 0.99601 0.92483 0.77089 0.0
C819 C 0.0104 0.89973 0.85698 0.0
C820 C 0.99137 0.88807 0.85494 0.0
C821 C 0.97472 0.89501 0.81139 0.0
C822 C 0.97693 0.91326 0.77032 0.0
C823 C 0.98883 0.86795 0.89475 0.0
C824 C 0.98399 0.84946 0.85557 0.0
C825 C 0.9901 0.86696 0.96994 0.0
C826 C 0.99406 0.88611 0.0148 0.0
C827 C 0.98083 0.90417 0.00983 0.0
C828 C 0.98416 0.92185 0.05413 0.0
C829 C 1.00058 0.9216 0.10412 0.0
C830 C 0.01371 0.90367 0.10989 0.0
C831 C 0.01047 0.88597 0.06555 0.0
H832 H 0.00306 0.93526 0.13865 0.0
H833 H 0.95721 0.76228 0.73056 0.0
H834 H 0.72085 0.03735 0.14196 0.0
H835 H 0.68658 0.04317 0.08168 0.0
H836 H 0.70262 0.99396 0.92874 0.0
H837 H 0.7365 0.98809 0.98951 0.0
H838 H 0.69012 0.03025 0.86446 0.0
H839 H 0.66596 0.98395 0.04906 0.0
H840 H 0.65779 0.97001 0.1686 0.0
H841 H 0.62245 0.02692 0.21755 0.0
H842 H 0.63042 0.04126 0.09825 0.0
H843 H 0.59754 0.98919 0.71308 0.0
H844 H 0.62956 0.99659 0.78118 0.0
H845 H 0.60016 0.05289 0.87125 0.0
H846 H 0.56776 0.04568 0.80177 0.0
H847 H 0.61855 0.02196 0.97121 0.0
H848 H 0.6382 0.06181 0.76285 0.0
H849 H 0.64345 0.06797 0.63432 0.0
H850 H 0.68659 0.01484 0.62347 0.0
H851 H 0.68143 0.00817 0.75167 0.0
C852 C 0.71679 0.02776 0.09582 0.0
C853 C 0.73118 0.01256 0.06913 0.0
C854 C 0.69734 0.03103 0.06164 0.0
C855 C 0.69223 0.01911 1.0005 0.0
C856 C 0.70642 0.00349 0.97534 0.0
C857 C 0.7257 1.00018 0.00964 0.0
C858 C 0.67257 0.02334 0.96021 0.0
C859 C 0.67445 0.02847 0.88779 0.0
C860 C 0.65221 0.02145 0.99123 0.0
C861 C 0.64908 0.01383 0.06515 0.0
C862 C 0.65684 0.99371 0.08585 0.0
C863 C 0.65216 0.98569 0.15343 0.0
C864 C 0.63977 0.99765 0.20078 0.0
C865 C 0.63217 0.01774 0.18096 0.0
C866 C 0.63673 0.02582 0.11335 0.0
C867 C 0.59787 0.00324 0.74703 0.0
C868 C 0.58016 0.0168 0.75274 0.0
C869 C 0.61624 0.00752 0.78539 0.0
C870 C 0.61719 0.02536 0.83053 0.0
C871 C 0.59965 0.03913 0.83609 0.0
C872 C 0.58125 0.03502 0.79657 0.0
C873 C 0.63616 0.02831 0.87529 0.0
C874 C 0.6342 0.0245 0.94855 0.0
C875 C 0.65649 0.03066 0.84453 0.0
C876 C 0.65942 0.03451 0.76704 0.0
C877 C 0.64869 0.05134 0.73299 0.0
C878 C 0.65168 0.05494 0.66017 0.0
C879 C 0.6654 0.04184 0.62084 0.0
C880 C 0.67604 0.02502 0.65408 0.0
C881 C 0.67312 0.02136 0.72685 0.0
H882 H 0.66786 0.04476 0.56466 0.0
H883 H 0.6358 0.99121 0.25236 0.0
H884 H 0.57715 0.7111 0.09423 0.0
H885 H 0.56415 0.67476 0.07267 0.0
H886 H 0.50943 0.70069 0.96425 0.0
H887 H 0.52144 0.73688 0.9927 0.0
H888 H 0.49737 0.66867 0.04057 0.0
H889 H 0.55781 0.68018 0.87805 0.0
H890 H 0.59555 0.68736 0.85194 0.0
H891 H 0.61396 0.63324 0.97772 0.0
H892 H 0.57634 0.62591 0.00513 0.0
H893 H 0.46858 0.60137 0.75986 0.0
H894 H 0.47861 0.62734 0.85059 0.0
H895 H 0.52453 0.58293 0.93542 0.0
H896 H 0.51495 0.55702 0.84324 0.0
H897 H 0.54304 0.61837 0.90449 0.0
H898 H 0.4824 0.60163 0.03996 0.0
H899 H 0.44483 0.59335 0.06409 0.0
H900 H 0.4265 0.65561 0.99092 0.0
H901 H 0.46393 0.66419 0.96547 0.0
C902 C 0.56228 0.70889 0.06635 0.0
C903 C 0.55036 0.72664 0.04438 0.0
C904 C 0.55494 0.68819 0.05352 0.0
C905 C 0.53595 0.68492 0.01577 0.0
C906 C 0.52411 0.70274 0.99349 0.0
C907 C 0.53114 0.72339 0.00836 0.0
C908 C 0.52856 0.66312 0.99673 0.0
C909 C 0.50731 0.65767 0.01054 0.0
C910 C 0.5418 0.64822 0.961 0.0
C911 C 0.56434 0.65267 0.94429 0.0
C912 C 0.56994 0.66991 0.90043 0.0
C913 C 0.59129 0.67399 0.88538 0.0
C914 C 0.60715 0.66081 0.91335 0.0
C915 C 0.60168 0.64348 0.95625 0.0
C916 C 0.58035 0.63935 0.97156 0.0
C917 C 0.48037 0.59687 0.79901 0.0
C918 C 0.49118 0.57727 0.79374 0.0
C919 C 0.48602 0.61171 0.85134 0.0
C920 C 0.50232 0.60709 0.90007 0.0
C921 C 0.51196 0.58686 0.8983 0.0
C922 C 0.50645 0.57208 0.84556 0.0
C923 C 0.51145 0.62449 0.94425 0.0
C924 C 0.53312 0.62905 0.93587 0.0
C925 C 0.49858 0.6385 0.98497 0.0
C926 C 0.47601 0.63353 1.00066 0.0
C927 C 0.47036 0.61353 0.02867 0.0
C928 C 0.44908 0.60878 0.04263 0.0
C929 C 0.43329 0.62394 0.02902 0.0
C930 C 0.43875 0.64389 0.00153 0.0
C931 C 0.46001 0.64873 0.98749 0.0
H932 H 0.41682 0.62022 0.03981 0.0
H933 H 0.62367 0.664 0.90162 0.0
H934 H 0.79131 0.52917 0.12158 0.0
H935 H 0.82724 0.52193 0.07791 0.0
H936 H 0.80418 0.46639 0.96497 0.0
H937 H 0.7685 0.47284 0.01366 0.0
H938 H 0.84239 0.45852 0.01926 0.0
H939 H 0.81071 0.51468 0.88085 0.0
H940 H 0.79273 0.54924 0.8618 0.0
H941 H 0.84497 0.58205 0.95985 0.0
H942 H 0.86313 0.54766 0.98041 0.0
H943 H 0.9227 0.45721 0.74447 0.0
H944 H 0.89186 0.45518 0.82425 0.0
H945 H 0.91409 0.511 0.9376 0.0
H946 H 0.94415 0.51358 0.85585 0.0
H947 H 0.87647 0.51758 0.88654 0.0
H948 H 0.90933 0.46024 0.01715 0.0
H949 H 0.92679 0.42521 0.03138 0.0
H950 H 0.87231 0.39401 0.94161 0.0
H951 H 0.85463 0.42888 0.92595 0.0
C952 C 0.7941 0.51523 0.08859 0.0
C953 C 0.77734 0.50159 0.07042 0.0
C954 C 0.8145 0.51119 0.06317 0.0
C955 C 0.81827 0.49384 0.01714 0.0
C956 C 0.80158 0.4799 1.00023 0.0
C957 C 0.78124 0.48371 0.02702 0.0
C958 C 0.8393 0.49103 0.98338 0.0
C959 C 0.84985 0.47134 0.98975 0.0
C960 C 0.84903 0.50786 0.94557 0.0
C961 C 0.83819 0.52858 0.93272 0.0
C962 C 0.8183 0.52926 0.89875 0.0
C963 C 0.80809 0.54882 0.88764 0.0
C964 C 0.81768 0.56782 0.90974 0.0
C965 C 0.83755 0.56732 0.94284 0.0
C966 C 0.84781 0.5478 0.95418 0.0
C967 C 0.92129 0.46851 0.78814 0.0
C968 C 0.93555 0.48557 0.79449 0.0
C969 C 0.90374 0.46735 0.83373 0.0
C970 C 0.90066 0.483 0.88677 0.0
C971 C 0.91611 0.49884 0.89682 0.0
C972 C 0.93327 0.50028 0.85043 0.0
C973 C 0.87997 0.48518 0.92353 0.0
C974 C 0.86927 0.50477 0.91687 0.0
C975 C 0.87013 0.46818 0.96027 0.0
C976 C 0.88074 0.4472 0.96981 0.0
C977 C 0.90114 0.44593 0.9999 0.0
C978 C 0.91106 0.42609 0.00834 0.0
C979 C 0.90068 0.4074 0.98726 0.0
C980 C 0.88034 0.4085 0.95786 0.0
C981 C 0.87035 0.4283 0.94928 0.0
H982 H 0.90839 0.39206 0.99383 0.0
H983 H 0.80975 0.58295 0.90109 0.0
H984 H 0.00496 0.24721 0.95948 0.0
H985 H 0.99925 0.215 0.88676 0.0
H986 H 0.0594 0.18975 0.95824 0.0
H987 H 0.06547 0.22236 0.0271 0.0
H988 H 0.05407 0.17752 0.82963 0.0
H989 H 0.00704 0.1801 0.03567 0.0
H990 H 0.97774 0.19378 0.11058 0.0
H991 H 0.93437 0.1868 0.9362 0.0
H992 H 0.96332 0.17312 0.86003 0.0
H993 H 0.03273 0.06688 0.75418 0.0
H994 H 0.04141 0.10085 0.81379 0.0
H995 H 0.98129 0.12707 0.74643 0.0
H996 H 0.97228 0.09339 0.6903 0.0
H997 H 0.98702 0.13847 0.87398 0.0
H998 H 0.03085 0.13932 0.66527 0.0
H999 H 0.05789 0.12567 0.58156 0.0
H1000 H 0.10488 0.12802 0.74715 0.0
H1001 H 0.07796 0.14142 0.83212 0.0
C1002 C 0.01717 0.23502 0.95774 0.0
C1003 C 0.03563 0.23717 0.99902 0.0
C1004 C 0.01378 0.21643 0.91718 0.0
C1005 C 0.02854 0.19944 0.91876 0.0
C1006 C 0.04754 0.2023 0.95672 0.0
C1007 C 0.05103 0.22093 0.99622 0.0
C1008 C 0.02395 0.17832 0.88432 0.0
C1009 C 0.03945 0.16893 0.83993 0.0
C1010 C 0.0047 0.16713 0.89601 0.0
C1011 C 0.98741 0.17561 0.94209 0.0
C1012 C 0.99128 0.18145 0.01332 0.0
C1013 C 0.97475 0.18924 0.05597 0.0
C1014 C 0.95427 0.19118 0.02822 0.0
C1015 C 0.95024 0.1853 0.95768 0.0
C1016 C 0.9667 0.17751 0.91476 0.0
C1017 C 0.02133 0.07986 0.7528 0.0
C1018 C 0.00175 0.07726 0.71782 0.0
C1019 C 0.02637 0.09936 0.78633 0.0
C1020 C 0.01209 0.11675 0.7843 0.0
C1021 C 0.99257 0.11401 0.7495 0.0
C1022 C 0.98744 0.09459 0.71717 0.0
C1023 C 0.01697 0.13781 0.81864 0.0
C1024 C 0.00161 0.1471 0.8635 0.0
C1025 C 0.03609 0.14909 0.80609 0.0
C1026 C 0.05233 0.14114 0.75518 0.0
C1027 C 0.0469 0.13678 0.68392 0.0
C1028 C 0.06221 0.12911 0.63624 0.0
C1029 C 0.08309 0.12592 0.65908 0.0
C1030 C 0.0887 0.13046 0.72959 0.0
C1031 C 0.07341 0.1381 0.77752 0.0
H1032 H 0.09494 0.11998 0.62211 0.0
H1033 H 0.94151 0.19722 0.06143 0.0
H1034 H 0.27028 0.03318 0.00337 0.0
H1035 H 0.30231 0.03608 0.92847 0.0
H1036 H 0.30963 0.96753 0.93455 0.0
H1037 H 0.27751 0.96479 0.00679 0.0
H1038 H 0.34184 0.02722 0.95644 0.0
H1039 H 0.33464 0.94755 0.79526 0.0
H1040 H 0.30705 0.92596 0.73615 0.0
H1041 H 0.26702 0.98134 0.71929 0.0
H1042 H 0.29453 0.00335 0.77709 0.0
H1043 H 0.42714 0.95894 0.76305 0.0
H1044 H 0.39322 0.96565 0.82157 0.0
H1045 H 0.39607 0.03186 0.75995 0.0
H1046 H 0.43035 0.02525 0.70084 0.0
H1047 H 0.3573 0.97911 0.75244 0.0
H1048 H 0.36341 0.05967 0.89958 0.0
H1049 H 0.39039 0.08345 0.95215 0.0
H1050 H 0.43164 0.02978 0.9865 0.0
H1051 H 0.40492 0.00567 0.93503 0.0
C1052 C 0.27845 0.01879 0.98647 0.0
C1053 C 0.27139 0.99875 0.00991 0.0
C1054 C 0.29688 0.02043 0.94463 0.0
C1055 C 0.30846 0.00202 0.92523 0.0
C1056 C 0.30095 0.98198 0.9474 0.0
C1057 C 0.28257 0.98038 0.98871 0.0
C1058 C 0.32892 0.00353 0.88504 0.0
C1059 C 0.34506 0.01704 0.91077 0.0
C1060 C 0.3333 0.99022 0.82556 0.0
C1061 C 0.31661 0.97707 0.791 0.0
C1062 C 0.31999 0.95514 0.77869 0.0
C1063 C 0.30437 0.94283 0.74541 0.0
C1064 C 0.28527 0.95226 0.72415 0.0
C1065 C 0.28179 0.97404 0.73599 0.0
C1066 C 0.29739 0.98644 0.76906 0.0
C1067 C 0.42077 0.97503 0.76252 0.0
C1068 C 0.43148 0.99154 0.72687 0.0
C1069 C 0.40129 0.97882 0.7959 0.0
C1070 C 0.39201 0.99922 0.79491 0.0
C1071 C 0.40297 0.01601 0.76173 0.0
C1072 C 0.42258 0.01221 0.72808 0.0
C1073 C 0.37033 0.00218 0.82521 0.0
C1074 C 0.35393 0.98956 0.79728 0.0
C1075 C 0.36571 0.01662 0.88148 0.0
C1076 C 0.38213 0.03085 0.91265 0.0
C1077 C 0.37822 0.05292 0.91848 0.0
C1078 C 0.39349 0.06647 0.94811 0.0
C1079 C 0.41275 0.05814 0.97247 0.0
C1080 C 0.41675 0.03623 0.96738 0.0
C1081 C 0.40153 0.02261 0.93784 0.0
H1082 H 0.42455 0.06866 0.9954 0.0
H1083 H 0.27319 0.94269 0.69841 0.0
H1084 H 0.43076 0.26828 0.97458 0.0
H1085 H 0.43922 0.30175 0.91273 0.0
H1086 H 0.50515 0.2942 0.9706 0.0
H1087 H 0.49642 0.26075 0.03247 0.0
H1088 H 0.49062 0.3333 0.0047 0.0
H1089 H 0.48977 0.288 0.79991 0.0
H1090 H 0.47621 0.26181 0.71277 0.0
H1091 H 0.42379 0.3033 0.66486 0.0
H1092 H 0.43686 0.32962 0.75255 0.0
H1093 H 0.53675 0.41136 0.77796 0.0
H1094 H 0.52591 0.37903 0.84026 0.0
H1095 H 0.46033 0.39267 0.79176 0.0
H1096 H 0.47108 0.42516 0.72891 0.0
H1097 H 0.47303 0.35134 0.75447 0.0
H1098 H 0.47825 0.39861 0.95491 0.0
H1099 H 0.49676 0.42527 0.02881 0.0
H1100 H 0.54471 0.37906 0.08081 0.0
H1101 H 0.52708 0.35238 0.0043 0.0
C1102 C 0.44709 0.2736 0.97195 0.0
C1103 C 0.46308 0.26202 0.00646 0.0
C1104 C 0.45192 0.29266 0.93708 0.0
C1105 C 0.47284 0.30041 0.93675 0.0
C1106 C 0.48892 0.28848 0.97004 0.0
C1107 C 0.48406 0.26937 0.00457 0.0
C1108 C 0.47769 0.3216 0.90572 0.0
C1109 C 0.487 0.33717 0.94973 0.0
C1110 C 0.47248 0.32679 0.83452 0.0
C1111 C 0.46414 0.31066 0.7836 0.0
C1112 C 0.47519 0.29141 0.77157 0.0
C1113 C 0.46763 0.27658 0.72186 0.0
C1114 C 0.44912 0.28085 0.68348 0.0
C1115 C 0.4381 0.29998 0.69477 0.0
C1116 C 0.44558 0.31486 0.74447 0.0
C1117 C 0.51999 0.40768 0.78147 0.0
C1118 C 0.50477 0.42078 0.74847 0.0
C1119 C 0.51382 0.38921 0.81718 0.0
C1120 C 0.49233 0.38348 0.82062 0.0
C1121 C 0.47701 0.39685 0.78959 0.0
C1122 C 0.48316 0.41546 0.75422 0.0
C1123 C 0.48609 0.36293 0.85322 0.0
C1124 C 0.47646 0.3475 0.80961 0.0
C1125 C 0.49134 0.35777 0.92441 0.0
C1126 C 0.50145 0.37354 0.97301 0.0
C1127 C 0.49285 0.39416 0.98146 0.0
C1128 C 0.50324 0.40931 0.02368 0.0
C1129 C 0.52194 0.40388 0.05932 0.0
C1130 C 0.53027 0.38327 0.05296 0.0
C1131 C 0.52013 0.36814 0.0099 0.0
H1132 H 0.52993 0.41563 0.0921 0.0
H1133 H 0.44333 0.26938 0.64485 0.0
H1134 H 0.23078 0.46015 0.05995 0.0
H1135 H 0.19923 0.45887 0.9831 0.0
H1136 H 0.22128 0.51487 0.87249 0.0
H1137 H 0.25276 0.51602 0.94959 0.0
H1138 H 0.18085 0.51909 0.93339 0.0
H1139 H 0.21909 0.46813 0.78661 0.0
H1140 H 0.23905 0.43478 0.76505 0.0
H1141 H 0.18599 0.39808 0.83924 0.0
H1142 H 0.16581 0.43124 0.8622 0.0
H1143 H 0.10587 0.53542 0.66967 0.0
H1144 H 0.13824 0.52772 0.73474 0.0
H1145 H 0.11219 0.4675 0.80314 0.0
H1146 H 0.07956 0.47491 0.73511 0.0
H1147 H 0.1531 0.46269 0.7722 0.0
H1148 H 0.11432 0.51102 0.91754 0.0
H1149 H 0.09342 0.54306 0.94898 0.0
H1150 H 0.14594 0.58312 0.89176 0.0
H1151 H 0.16707 0.55133 0.85893 0.0
C1152 C 0.22922 0.47157 0.0171 0.0
C1153 C 0.24425 0.48794 0.0095 0.0
C1154 C 0.2112 0.47094 0.97359 0.0
C1155 C 0.20791 0.48677 0.92202 0.0
C1156 C 0.22357 0.50243 0.91173 0.0
C1157 C 0.24166 0.50294 0.95491 0.0
C1158 C 0.18718 0.48855 0.88479 0.0
C1159 C 0.17493 0.50693 0.89717 0.0
C1160 C 0.17893 0.4721 0.84092 0.0
C1161 C 0.19102 0.45218 0.82676 0.0
C1162 C 0.21175 0.45296 0.7989 0.0
C1163 C 0.22309 0.43408 0.78631 0.0
C1164 C 0.21382 0.41432 0.80093 0.0
C1165 C 0.19316 0.41339 0.82801 0.0
C1166 C 0.18176 0.43222 0.84075 0.0
C1167 C 0.1069 0.52051 0.69854 0.0
C1168 C 0.08998 0.50589 0.69795 0.0
C1169 C 0.12548 0.51615 0.73606 0.0
C1170 C 0.12753 0.49728 0.77552 0.0
C1171 C 0.11092 0.48227 0.77358 0.0
C1172 C 0.09228 0.48652 0.73488 0.0
C1173 C 0.14707 0.49366 0.81869 0.0
C1174 C 0.15899 0.47489 0.80827 0.0
C1175 C 0.1549 0.50956 0.86581 0.0
C1176 C 0.14222 0.52878 0.88519 0.0
C1177 C 0.12136 0.52667 0.91109 0.0
C1178 C 0.10948 0.54479 0.92926 0.0
C1179 C 0.11833 0.56512 0.92223 0.0
C1180 C 0.1391 0.56736 0.89712 0.0
C1181 C 0.15104 0.5493 0.87878 0.0
H1182 H 0.10911 0.57912 0.93636 0.0
H1183 H 0.22262 0.39973 0.79114 0.0
H1184 H 0.0099 0.76878 0.17938 0.0
H1185 H 0.0157 0.80308 0.24035 0.0
H1186 H 0.95336 0.7988 0.3348 0.0
H1187 H 0.9477 0.76448 0.27297 0.0
H1188 H 0.96048 0.83813 0.27236 0.0
H1189 H 0.99758 0.79188 0.43638 0.0
H1190 H 0.0237 0.76409 0.4682 0.0
H1191 H 0.0741 0.80268 0.38449 0.0
H1192 H 0.04825 0.83059 0.35134 0.0
H1193 H 0.97349 0.92686 0.51463 0.0
H1194 H 0.96579 0.89314 0.4526 0.0
H1195 H 0.03039 0.89056 0.37618 0.0
H1196 H 0.0382 0.9238 0.43892 0.0
H1197 H 0.02128 0.85418 0.43134 0.0
H1198 H 0.98706 0.89874 0.26001 0.0
H1199 H 0.96273 0.92655 0.21522 0.0
H1200 H 0.90939 0.89225 0.29936 0.0
H1201 H 0.93343 0.86429 0.34505 0.0
C1202 C 0.99783 0.7749 0.21524 0.0
C1203 C 0.97861 0.76387 0.22327 0.0
C1204 C 0.00101 0.79455 0.24952 0.0
C1205 C 0.985 0.80356 0.29259 0.0
C1206 C 0.96597 0.7922 0.30207 0.0
C1207 C 0.96284 0.77249 0.26785 0.0
C1208 C 0.98789 0.82512 0.32547 0.0
C1209 C 0.97356 0.84157 0.30818 0.0
C1210 C 0.00538 0.82989 0.37001 0.0
C1211 C 0.02096 0.81326 0.391 0.0
C1212 C 0.01422 0.79439 0.42444 0.0
C1213 C 0.02898 0.77862 0.44274 0.0
C1214 C 0.05054 0.7816 0.42827 0.0
C1215 C 0.0574 0.80039 0.39566 0.0
C1216 C 0.0427 0.8162 0.3772 0.0
C1217 C 0.98589 0.91934 0.48323 0.0
C1218 C 0.00648 0.92802 0.48198 0.0
C1219 C 0.98149 0.90001 0.44773 0.0
C1220 C 0.99753 0.88912 0.4096 0.0
C1221 C 0.01777 0.89841 0.40561 0.0
C1222 C 0.02219 0.91754 0.44137 0.0
C1223 C 0.99387 0.86736 0.37837 0.0
C1224 C 0.00809 0.85082 0.39592 0.0
C1225 C 0.97652 0.86264 0.33296 0.0
C1226 C 0.96205 0.87957 0.3067 0.0
C1227 C 0.97016 0.89724 0.26955 0.0
C1228 C 0.95642 0.91299 0.24379 0.0
C1229 C 0.93454 0.9112 0.25464 0.0
C1230 C 0.92635 0.89363 0.29111 0.0
C1231 C 0.94001 0.87781 0.31684 0.0
H1232 H 0.92393 0.92341 0.23464 0.0
H1233 H 0.06194 0.76937 0.44242 0.0
H1234 H 0.74857 0.02402 0.29372 0.0
H1235 H 0.71668 0.02145 0.36901 0.0
H1236 H 0.69196 0.97256 0.22912 0.0
H1237 H 0.72401 0.97479 0.15618 0.0
H1238 H 0.67897 0.03161 0.33806 0.0
H1239 H 0.65561 0.94229 0.30323 0.0
H1240 H 0.67312 0.90702 0.29751 0.0
H1241 H 0.72618 0.93164 0.41538 0.0
H1242 H 0.70886 0.96696 0.42263 0.0
H1243 H 0.56965 0.02437 0.38505 0.0
H1244 H 0.60548 0.01946 0.33733 0.0
H1245 H 0.62167 0.98021 0.51786 0.0
H1246 H 0.5854 0.98414 0.5636 0.0
H1247 H 0.64161 0.96542 0.40963 0.0
H1248 H 0.63255 0.03474 0.5054 0.0
H1249 H 0.61677 0.07039 0.52337 0.0
H1250 H 0.63174 0.08698 0.30738 0.0
H1251 H 0.64746 0.05137 0.28779 0.0
C1252 C 0.73656 0.01227 0.28094 0.0
C1253 C 0.73865 0.99953 0.21971 0.0
C1254 C 0.71825 0.01095 0.32327 0.0
C1255 C 0.70173 0.9968 0.30505 0.0
C1256 C 0.7044 0.98342 0.24533 0.0
C1257 C 0.72271 0.98468 0.20346 0.0
C1258 C 0.68103 0.99734 0.3441 0.0
C1259 C 0.67088 0.01713 0.35409 0.0
C1260 C 0.67053 0.97853 0.36667 0.0
C1261 C 0.68097 0.95729 0.36313 0.0
C1262 C 0.67095 0.94013 0.3283 0.0
C1263 C 0.68086 0.92015 0.32469 0.0
C1264 C 0.70077 0.9171 0.35595 0.0
C1265 C 0.71079 0.93403 0.39102 0.0
C1266 C 0.70095 0.95404 0.39481 0.0
C1267 C 0.58072 0.01427 0.41359 0.0
C1268 C 0.57472 0.0046 0.47789 0.0
C1269 C 0.60129 0.01165 0.38672 0.0
C1270 C 0.6166 1.0 0.42498 0.0
C1271 C 0.61028 0.98939 0.48742 0.0
C1272 C 0.58949 0.99157 0.51342 0.0
C1273 C 0.63927 0.99965 0.40124 0.0
C1274 C 0.64978 0.97992 0.3943 0.0
C1275 C 0.65033 0.01861 0.38318 0.0
C1276 C 0.64103 0.04021 0.39492 0.0
C1277 C 0.6324 0.04593 0.46156 0.0
C1278 C 0.62348 0.06616 0.47208 0.0
C1279 C 0.62321 0.08093 0.41652 0.0
C1280 C 0.63193 0.07551 0.35037 0.0
C1281 C 0.64087 0.05529 0.33955 0.0
H1282 H 0.61627 0.09659 0.42475 0.0
H1283 H 0.70841 0.90162 0.35307 0.0
H1284 H 0.51796 0.7453 0.18011 0.0
H1285 H 0.50886 0.71457 0.25538 0.0
H1286 H 0.57551 0.7018 0.2871 0.0
H1287 H 0.58444 0.73297 0.21351 0.0
H1288 H 0.54695 0.66831 0.21429 0.0
H1289 H 0.55375 0.71367 0.42382 0.0
H1290 H 0.54527 0.74551 0.4964 0.0
H1291 H 0.47943 0.7278 0.49915 0.0
H1292 H 0.48748 0.69601 0.42565 0.0
H1293 H 0.5425 0.58071 0.46638 0.0
H1294 H 0.55111 0.61255 0.396 0.0
H1295 H 0.48505 0.6308 0.39595 0.0
H1296 H 0.47625 0.59909 0.46462 0.0
H1297 H 0.51287 0.66191 0.45153 0.0
H1298 H 0.50222 0.61949 0.24711 0.0
H1299 H 0.50491 0.59077 0.15733 0.0
H1300 H 0.57118 0.60428 0.12899 0.0
H1301 H 0.56898 0.63293 0.21933 0.0
C1302 C 0.53051 0.73648 0.20632 0.0
C1303 C 0.55181 0.74135 0.19234 0.0
C1304 C 0.52538 0.71891 0.24845 0.0
C1305 C 0.54156 0.70598 0.27621 0.0
C1306 C 0.56287 0.71171 0.26616 0.0
C1307 C 0.56795 0.72952 0.22506 0.0
C1308 C 0.53627 0.68516 0.30786 0.0
C1309 C 0.53997 0.66673 0.26691 0.0
C1310 C 0.52602 0.68351 0.37441 0.0
C1311 C 0.52119 0.70259 0.41863 0.0
C1312 C 0.53743 0.71669 0.43929 0.0
C1313 C 0.53271 0.73469 0.48074 0.0
C1314 C 0.51181 0.73871 0.50221 0.0
C1315 C 0.4956 0.72469 0.48241 0.0
C1316 C 0.50024 0.70667 0.44092 0.0
C1317 C 0.5298 0.59136 0.45046 0.0
C1318 C 0.50875 0.58751 0.4718 0.0
C1319 C 0.53471 0.60943 0.40991 0.0
C1320 C 0.51868 0.62396 0.39092 0.0
C1321 C 0.49761 0.61973 0.41004 0.0
C1322 C 0.49265 0.60161 0.44951 0.0
C1323 C 0.52412 0.64477 0.35891 0.0
C1324 C 0.52022 0.66329 0.39943 0.0
C1325 C 0.53364 0.64652 0.29093 0.0
C1326 C 0.53553 0.62808 0.24128 0.0
C1327 C 0.51749 0.61603 0.22302 0.0
C1328 C 0.51889 0.59987 0.17154 0.0
C1329 C 0.53823 0.59563 0.13769 0.0
C1330 C 0.55623 0.60751 0.15545 0.0
C1331 C 0.55492 0.6237 0.20685 0.0
H1332 H 0.53924 0.58322 0.09749 0.0
H1333 H 0.50819 0.75265 0.53433 0.0
H1334 H 0.77016 0.47076 0.20399 0.0
H1335 H 0.80252 0.46749 0.27601 0.0
H1336 H 0.80004 0.53503 0.32192 0.0
H1337 H 0.76738 0.53806 0.25041 0.0
H1338 H 0.83915 0.52099 0.26344 0.0
H1339 H 0.79213 0.50184 0.45381 0.0
H1340 H 0.76315 0.48179 0.51105 0.0
H1341 H 0.79726 0.42308 0.47814 0.0
H1342 H 0.82633 0.44275 0.41975 0.0
H1343 H 0.92903 0.519 0.49864 0.0
H1344 H 0.89473 0.52466 0.44022 0.0
H1345 H 0.88731 0.45654 0.41563 0.0
H1346 H 0.9213 0.45077 0.47487 0.0
H1347 H 0.85238 0.47279 0.4677 0.0
H1348 H 0.89791 0.48993 0.27228 0.0
H1349 H 0.92678 0.50825 0.20833 0.0
H1350 H 0.89595 0.56867 0.24302 0.0
H1351 H 0.86698 0.55072 0.30801 0.0
C1352 C 0.77609 0.48464 0.2322 0.0
C1353 C 0.76619 0.50455 0.22322 0.0
C1354 C 0.79464 0.48286 0.27263 0.0
C1355 C 0.80374 0.50103 0.3043 0.0
C1356 C 0.79328 0.5208 0.2981 0.0
C1357 C 0.77451 0.52249 0.25836 0.0
C1358 C 0.82493 0.49954 0.33897 0.0
C1359 C 0.84201 0.5108 0.30907 0.0
C1360 C 0.82878 0.48564 0.39674 0.0
C1361 C 0.81132 0.47376 0.43183 0.0
C1362 C 0.79337 0.48463 0.45821 0.0
C1363 C 0.77694 0.47334 0.49098 0.0
C1364 C 0.77834 0.45117 0.49808 0.0
C1365 C 0.79619 0.44025 0.47255 0.0
C1366 C 0.81266 0.45147 0.43967 0.0
C1367 C 0.92024 0.50524 0.47989 0.0
C1368 C 0.92794 0.48442 0.49168 0.0
C1369 C 0.90061 0.5085 0.44632 0.0
C1370 C 0.88836 0.49103 0.42325 0.0
C1371 C 0.89635 0.47029 0.4332 0.0
C1372 C 0.91588 0.46702 0.46691 0.0
C1373 C 0.86677 0.49419 0.39212 0.0
C1374 C 0.84959 0.48317 0.42252 0.0
C1375 C 0.8629 0.50811 0.33417 0.0
C1376 C 0.88041 0.519 0.29588 0.0
C1377 C 0.89739 0.50714 0.26696 0.0
C1378 C 0.91374 0.51745 0.23034 0.0
C1379 C 0.91324 0.53961 0.22186 0.0
C1380 C 0.89634 0.55151 0.2498 0.0
C1381 C 0.87994 0.54127 0.28649 0.0
H1382 H 0.92591 0.54756 0.19349 0.0
H1383 H 0.7656 0.44246 0.5235 0.0
loop_
_geom_bond_atom_site_label_1
_geom_bond_atom_site_label_2
_geom_bond_distance
_geom_bond_site_symmetry_2
_ccdc_geom_bond_type
C0 N1 1.317 . S
C0 N2 1.348 . S
C0 C3 1.485 . S
N1 C0 1.317 . S
N1 N5 1.370 . S
N2 C0 1.348 . S
N2 C4 1.346 1_554 S
C3 C0 1.485 . S
C3 H7 0.960 . S
C3 H8 0.961 . S
C3 H9 0.960 . S
C4 N2 1.346 1_556 S
C4 N5 1.307 1_556 S
C4 C6 1.486 . S
N5 N1 1.370 . S
N5 C4 1.307 1_554 S
C6 C4 1.486 . S
C6 H10 0.960 . S
C6 H11 0.960 . S
C6 H12 0.959 . S
H7 C3 0.960 . S
H8 C3 0.961 . S
H9 C3 0.960 . S
H10 C6 0.960 . S
H11 C6 0.960 . S
H12 C6 0.959 . S
C13 N14 1.317 . S
C13 N15 1.348 . S
C13 C16 1.485 . S
N14 C13 1.317 . S
N14 N18 1.370 . S
N15 C13 1.348 . S
N15 C17 1.346 1_554 S
C16 C13 1.485 . S
C16 H20 0.960 . S
C16 H21 0.961 . S
C16 H22 0.960 . S
C17 N15 1.346 1_556 S
C17 N18 1.307 1_556 S
C17 C19 1.486 . S
N18 N14 1.370 . S
N18 C17 1.307 1_554 S
C19 C17 1.486 . S
C19 H23 0.960 . S
C19 H24 0.960 . S
C19 H25 0.959 . S
H20 C16 0.960 . S
H21 C16 0.961 . S
H22 C16 0.960 . S
H23 C19 0.960 . S
H24 C19 0.960 . S
H25 C19 0.959 . S
C26 N27 1.317 . S
C26 N28 1.350 . S
C26 C29 1.485 . S
N27 C26 1.317 . S
N27 N31 1.371 . S
N28 C26 1.350 . S
N28 C30 1.345 1_564 S
C29 C26 1.485 . S
C29 H33 0.960 1_565 S
C29 H34 0.961 . S
C29 H35 0.960 . S
C30 N28 1.345 1_546 S
C30 N31 1.307 1_546 S
C30 C32 1.485 . S
N31 N27 1.371 . S
N31 C30 1.307 1_564 S
C32 C30 1.485 . S
C32 H36 0.924 1_545 S
C32 H37 0.990 . S
C32 H38 0.967 . S
H33 C29 0.960 1_545 S
H34 C29 0.961 . S
H35 C29 0.960 . S
H36 C32 0.924 1_565 S
H37 C32 0.990 . S
H38 C32 0.967 . S
C39 N40 1.317 . S
C39 N41 1.348 . S
C39 C42 1.485 . S
N40 C39 1.317 . S
N40 N44 1.370 . S
N41 C39 1.348 . S
N41 C43 1.346 1_554 S
C42 C39 1.485 . S
C42 H46 0.960 . S
C42 H47 0.961 . S
C42 H48 0.960 . S
C43 N41 1.346 1_556 S
C43 N44 1.307 1_556 S
C43 C45 1.486 . S
N44 N40 1.370 . S
N44 C43 1.307 1_554 S
C45 C43 1.486 . S
C45 H49 0.960 . S
C45 H50 0.960 . S
C45 H51 0.959 . S
H46 C42 0.960 . S
H47 C42 0.961 . S
H48 C42 0.960 . S
H49 C45 0.960 . S
H50 C45 0.960 . S
H51 C45 0.959 . S
C52 N53 1.317 . S
C52 N54 1.348 . S
C52 C55 1.485 . S
N53 C52 1.317 . S
N53 N57 1.370 . S
N54 C52 1.348 . S
N54 C56 1.346 . S
C55 C52 1.485 . S
C55 H59 0.960 . S
C55 H60 0.961 . S
C55 H61 0.960 . S
C56 N54 1.346 . S
C56 N57 1.307 . S
C56 C58 1.486 . S
N57 N53 1.370 . S
N57 C56 1.307 . S
C58 C56 1.486 . S
C58 H62 0.960 . S
C58 H63 0.960 . S
C58 H64 0.959 . S
H59 C55 0.960 . S
H60 C55 0.961 . S
H61 C55 0.960 . S
H62 C58 0.960 . S
H63 C58 0.960 . S
H64 C58 0.959 . S
C65 N66 1.317 . S
C65 N67 1.348 . S
C65 C68 1.485 . S
N66 C65 1.317 . S
N66 N70 1.370 . S
N67 C65 1.348 . S
N67 C69 1.346 . S
C68 C65 1.485 . S
C68 H72 0.960 . S
C68 H73 0.961 . S
C68 H74 0.960 . S
C69 N67 1.346 . S
C69 N70 1.307 . S
C69 C71 1.486 . S
N70 N66 1.370 . S
N70 C69 1.307 . S
C71 C69 1.486 . S
C71 H75 0.960 . S
C71 H76 0.960 . S
C71 H77 0.959 . S
H72 C68 0.960 . S
H73 C68 0.961 . S
H74 C68 0.960 . S
H75 C71 0.960 . S
H76 C71 0.960 . S
H77 C71 0.959 . S
C78 N79 1.317 . S
C78 N80 1.350 . S
C78 C81 1.485 . S
N79 C78 1.317 . S
N79 N83 1.370 . S
N80 C78 1.350 . S
N80 C82 1.345 1_565 S
C81 C78 1.485 . S
C81 H85 0.960 1_565 S
C81 H86 0.961 . S
C81 H87 0.960 . S
C82 N80 1.345 1_545 S
C82 N83 1.307 1_545 S
C82 C84 1.485 . S
N83 N79 1.370 . S
N83 C82 1.307 1_565 S
C84 C82 1.485 . S
C84 H88 0.913 1_545 S
C84 H89 0.999 . S
C84 H90 0.970 . S
H85 C81 0.960 1_545 S
H86 C81 0.961 . S
H87 C81 0.960 . S
H88 C84 0.913 1_565 S
H89 C84 0.999 . S
H90 C84 0.970 . S
C91 N92 1.317 . S
C91 N93 1.348 . S
C91 C94 1.485 . S
N92 C91 1.317 . S
N92 N96 1.370 . S
N93 C91 1.348 . S
N93 C95 1.346 . S
C94 C91 1.485 . S
C94 H98 0.960 . S
C94 H99 0.961 . S
C94 H100 0.960 . S
C95 N93 1.346 . S
C95 N96 1.307 . S
C95 C97 1.486 . S
N96 N92 1.370 . S
N96 C95 1.307 . S
C97 C95 1.486 . S
C97 H101 0.960 . S
C97 H102 0.960 . S
C97 H103 0.959 . S
H98 C94 0.960 . S
H99 C94 0.961 . S
H100 C94 0.960 . S
H101 C97 0.960 . S
H102 C97 0.960 . S
H103 C97 0.959 . S
Zn104 O110 1.969 1_455 S
Zn104 O111 1.965 . S
Zn104 O115 2.024 . S
Zn104 O120 1.969 1_455 S
Zn105 O112 1.969 . S
Zn105 O118 1.969 . S
Zn105 O119 1.965 1_455 S
Zn105 O121 2.024 1_455 S
C106 O107 1.229 . S
C106 O115 1.058 . S
O107 C106 1.229 . S
C108 O109 1.229 1_655 S
C108 O121 1.058 . S
O109 C108 1.229 1_455 S
O110 Zn104 1.969 1_655 S
O110 C113 1.267 1_655 S
O111 Zn104 1.965 . S
O111 C122 1.260 1_545 S
O112 Zn105 1.969 . S
O112 C122 1.258 . S
C113 O110 1.267 1_455 S
C113 O114 1.228 . S
O114 C113 1.228 . S
O115 Zn104 2.024 . S
O115 C106 1.058 . S
C116 O117 1.228 . S
C116 O118 1.267 1_655 S
O117 C116 1.228 . S
O118 Zn105 1.969 . S
O118 C116 1.267 1_455 S
O119 Zn105 1.965 1_655 S
O119 C123 1.260 1_565 S
O120 Zn104 1.969 1_655 S
O120 C123 1.258 . S
O121 Zn105 2.024 1_655 S
O121 C108 1.058 . S
C122 O111 1.260 1_565 S
C122 O112 1.258 . S
C123 O119 1.260 1_545 S
C123 O120 1.258 . S
Zn124 O130 1.969 . S
Zn124 O131 1.965 1_565 S
Zn124 O135 2.024 1_565 S
Zn124 O140 1.969 . S
Zn125 O132 1.969 . S
Zn125 O138 1.969 . S
Zn125 O139 1.965 1_545 S
Zn125 O141 2.024 1_545 S
C126 O127 1.229 1_545 S
C126 O135 1.058 . S
O127 C126 1.229 1_565 S
C128 O129 1.229 1_565 S
C128 O141 1.058 . S
O129 C128 1.229 1_545 S
O130 Zn124 1.969 . S
O130 C133 1.267 . S
O131 Zn124 1.965 1_545 S
O131 C142 1.260 . S
O132 Zn125 1.969 . S
O132 C142 1.258 . S
C133 O130 1.267 . S
C133 O134 1.228 1_565 S
O134 C133 1.228 1_545 S
O135 Zn124 2.024 1_545 S
O135 C126 1.058 . S
C136 O137 1.228 1_545 S
C136 O138 1.267 . S
O137 C136 1.228 1_565 S
O138 Zn125 1.969 . S
O138 C136 1.267 . S
O139 Zn125 1.965 1_565 S
O139 C143 1.260 . S
O140 Zn124 1.969 . S
O140 C143 1.258 . S
O141 Zn125 2.024 1_565 S
O141 C128 1.058 . S
C142 O131 1.260 . S
C142 O132 1.258 . S
C143 O139 1.260 . S
C143 O140 1.258 . S
Zn144 O150 1.969 . S
Zn144 O151 1.965 . S
Zn144 O155 2.024 . S
Zn144 O160 1.969 . S
Zn145 O152 1.969 . S
Zn145 O158 1.969 . S
Zn145 O159 1.965 . S
Zn145 O161 2.024 . S
C146 O147 1.229 . S
C146 O155 1.058 . S
O147 C146 1.229 . S
C148 O149 1.229 . S
C148 O161 1.058 . S
O149 C148 1.229 . S
O150 Zn144 1.969 . S
O150 C153 1.267 . S
O151 Zn144 1.965 . S
O151 C162 1.260 . S
O152 Zn145 1.969 . S
O152 C162 1.258 . S
C153 O150 1.267 . S
C153 O154 1.228 . S
O154 C153 1.228 . S
O155 Zn144 2.024 . S
O155 C146 1.058 . S
C156 O157 1.228 . S
C156 O158 1.267 . S
O157 C156 1.228 . S
O158 Zn145 1.969 . S
O158 C156 1.267 . S
O159 Zn145 1.965 . S
O159 C163 1.260 . S
O160 Zn144 1.969 . S
O160 C163 1.258 . S
O161 Zn145 2.024 . S
O161 C148 1.058 . S
C162 O151 1.260 . S
C162 O152 1.258 . S
C163 O159 1.260 . S
C163 O160 1.258 . S
Zn164 O170 1.969 . S
Zn164 O171 1.965 . S
Zn164 O175 2.024 . S
Zn164 O180 1.969 . S
Zn165 O172 1.969 . S
Zn165 O178 1.969 . S
Zn165 O179 1.965 . S
Zn165 O181 2.024 . S
C166 O167 1.229 . S
C166 O175 1.058 . S
O167 C166 1.229 . S
C168 O169 1.229 . S
C168 O181 1.058 . S
O169 C168 1.229 . S
O170 Zn164 1.969 . S
O170 C173 1.267 . S
O171 Zn164 1.965 . S
O171 C182 1.260 . S
O172 Zn165 1.969 . S
O172 C182 1.258 1_655 S
C173 O170 1.267 . S
C173 O174 1.228 . S
O174 C173 1.228 . S
O175 Zn164 2.024 . S
O175 C166 1.058 . S
C176 O177 1.228 . S
C176 O178 1.267 . S
O177 C176 1.228 . S
O178 Zn165 1.969 . S
O178 C176 1.267 . S
O179 Zn165 1.965 . S
O179 C183 1.260 1_655 S
O180 Zn164 1.969 . S
O180 C183 1.258 . S
O181 Zn165 2.024 . S
O181 C168 1.058 . S
C182 O171 1.260 . S
C182 O172 1.258 1_455 S
C183 O179 1.260 1_455 S
C183 O180 1.258 . S
H184 C202 0.951 . S
H185 C204 0.951 . S
H186 C206 0.950 . S
H187 C207 0.950 . S
H188 C209 0.950 . S
H189 C212 0.950 . S
H190 C213 0.950 . S
H191 C215 0.950 . S
H192 C216 0.950 . S
H193 C217 0.951 . S
H194 C219 0.951 . S
H195 C221 0.950 . S
H196 C222 0.950 . S
H197 C224 0.950 . S
H198 C227 0.950 . S
H199 C228 0.950 . S
H200 C230 0.950 . S
H201 C231 0.950 . S
C202 H184 0.951 . S
C202 C203 1.365 . S
C202 C204 1.388 . S
C203 C202 1.365 . S
C203 C207 1.385 1_545 S
C204 H185 0.951 . S
C204 C202 1.388 . S
C204 C205 1.366 1_545 S
C205 C204 1.366 1_565 S
C205 C206 1.414 . S
C205 C208 1.499 . S
C206 H186 0.950 . S
C206 C205 1.414 . S
C206 C207 1.374 . S
C207 H187 0.950 . S
C207 C203 1.385 1_565 S
C207 C206 1.374 . S
C208 C205 1.499 . S
C208 C209 1.373 1_565 S
C208 C210 1.389 . S
C209 H188 0.950 . S
C209 C208 1.373 1_545 S
C209 C225 1.377 . S
C210 C208 1.389 . S
C210 C211 1.524 . S
C210 C224 1.377 . S
C211 C210 1.524 . S
C211 C212 1.397 . S
C211 C216 1.363 . S
C212 H189 0.950 . S
C212 C211 1.397 . S
C212 C213 1.334 . S
C213 H190 0.950 . S
C213 C212 1.334 . S
C213 C214 1.287 . S
C214 C213 1.287 . S
C214 C215 1.524 . S
C214 H233 0.913 . S
C215 H191 0.950 . S
C215 C214 1.524 . S
C215 C216 1.415 . S
C216 H192 0.950 . S
C216 C211 1.363 . S
C216 C215 1.415 . S
C217 H193 0.951 . S
C217 C218 1.377 . S
C217 C219 1.388 . S
C218 C217 1.377 . S
C218 C222 1.374 1_565 S
C219 H194 0.951 . S
C219 C217 1.388 . S
C219 C220 1.360 1_565 S
C220 C219 1.360 1_545 S
C220 C221 1.418 . S
C220 C223 1.498 . S
C221 H195 0.950 . S
C221 C220 1.418 . S
C221 C222 1.374 . S
C222 H196 0.950 . S
C222 C218 1.374 1_545 S
C222 C221 1.374 . S
C223 C220 1.498 . S
C223 C224 1.350 1_545 S
C223 C225 1.412 . S
C224 H197 0.950 . S
C224 C210 1.377 . S
C224 C223 1.350 1_565 S
C225 C209 1.377 . S
C225 C223 1.412 . S
C225 C226 1.524 . S
C226 C225 1.524 . S
C226 C227 1.397 . S
C226 C231 1.363 . S
C227 H198 0.950 . S
C227 C226 1.397 . S
C227 C228 1.334 . S
C228 H199 0.950 . S
C228 C227 1.334 . S
C228 C229 1.287 . S
C229 C228 1.287 . S
C229 C230 1.524 . S
C229 H232 0.999 . S
C230 H200 0.950 . S
C230 C229 1.524 . S
C230 C231 1.415 . S
C231 H201 0.950 . S
C231 C226 1.363 . S
C231 C230 1.415 . S
H232 C229 0.999 . S
H233 C214 0.913 . S
H234 C252 0.951 . S
H235 C254 0.951 . S
H236 C256 0.950 . S
H237 C257 0.950 . S
H238 C259 0.950 . S
H239 C262 0.950 . S
H240 C263 0.950 . S
H241 C265 0.950 . S
H242 C266 0.950 . S
H243 C267 0.951 . S
H244 C269 0.951 . S
H245 C271 0.950 . S
H246 C272 0.950 . S
H247 C274 0.950 . S
H248 C277 0.950 . S
H249 C278 0.950 . S
H250 C280 0.950 . S
H251 C281 0.950 . S
C252 H234 0.951 . S
C252 C253 1.366 . S
C252 C254 1.388 . S
C253 C252 1.366 . S
C253 C257 1.385 . S
C254 H235 0.951 . S
C254 C252 1.388 . S
C254 C255 1.366 . S
C255 C254 1.366 . S
C255 C256 1.414 . S
C255 C258 1.499 . S
C256 H236 0.950 . S
C256 C255 1.414 . S
C256 C257 1.374 . S
C257 H237 0.950 . S
C257 C253 1.385 . S
C257 C256 1.374 . S
C258 C255 1.499 . S
C258 C259 1.373 . S
C258 C260 1.389 . S
C259 H238 0.950 . S
C259 C258 1.373 . S
C259 C275 1.377 . S
C260 C258 1.389 . S
C260 C261 1.524 . S
C260 C274 1.377 . S
C261 C260 1.524 . S
C261 C262 1.397 . S
C261 C266 1.363 . S
C262 H239 0.950 . S
C262 C261 1.397 . S
C262 C263 1.334 . S
C263 H240 0.950 . S
C263 C262 1.334 . S
C263 C264 1.287 . S
C264 C263 1.287 . S
C264 C265 1.524 . S
C264 H283 0.913 . S
C265 H241 0.950 . S
C265 C264 1.524 . S
C265 C266 1.415 . S
C266 H242 0.950 . S
C266 C261 1.363 . S
C266 C265 1.415 . S
C267 H243 0.951 . S
C267 C268 1.366 . S
C267 C269 1.388 . S
C268 C267 1.366 . S
C268 C272 1.385 . S
C269 H244 0.951 . S
C269 C267 1.388 . S
C269 C270 1.366 . S
C270 C269 1.366 . S
C270 C271 1.414 . S
C270 C273 1.499 . S
C271 H245 0.950 . S
C271 C270 1.414 . S
C271 C272 1.374 . S
C272 H246 0.950 . S
C272 C268 1.385 . S
C272 C271 1.374 . S
C273 C270 1.499 . S
C273 C274 1.373 . S
C273 C275 1.389 . S
C274 H247 0.950 . S
C274 C260 1.377 . S
C274 C273 1.373 . S
C275 C259 1.377 . S
C275 C273 1.389 . S
C275 C276 1.524 . S
C276 C275 1.524 . S
C276 C277 1.397 . S
C276 C281 1.363 . S
C277 H248 0.950 . S
C277 C276 1.397 . S
C277 C278 1.334 . S
C278 H249 0.950 . S
C278 C277 1.334 . S
C278 C279 1.287 . S
C279 C278 1.287 . S
C279 C280 1.524 . S
C279 H282 0.999 . S
C280 H250 0.950 . S
C280 C279 1.524 . S
C280 C281 1.415 . S
C281 H251 0.950 . S
C281 C276 1.363 . S
C281 C280 1.415 . S
H282 C279 0.999 . S
H283 C264 0.913 . S
H284 C302 0.951 . S
H285 C304 0.951 . S
H286 C306 0.950 . S
H287 C307 0.950 . S
H288 C309 0.950 . S
H289 C312 0.950 . S
H290 C313 0.950 . S
H291 C315 0.950 . S
H292 C316 0.950 . S
H293 C317 0.951 . S
H294 C319 0.951 . S
H295 C321 0.950 . S
H296 C322 0.950 . S
H297 C324 0.950 . S
H298 C327 0.950 . S
H299 C328 0.950 . S
H300 C330 0.950 . S
H301 C331 0.950 . S
C302 H284 0.951 . S
C302 C303 1.366 . S
C302 C304 1.388 . S
C303 C302 1.366 . S
C303 C307 1.385 . S
C304 H285 0.951 . S
C304 C302 1.388 . S
C304 C305 1.366 . S
C305 C304 1.366 . S
C305 C306 1.414 . S
C305 C308 1.499 . S
C306 H286 0.950 . S
C306 C305 1.414 . S
C306 C307 1.374 . S
C307 H287 0.950 . S
C307 C303 1.385 . S
C307 C306 1.374 . S
C308 C305 1.499 . S
C308 C309 1.373 . S
C308 C310 1.389 . S
C309 H288 0.950 . S
C309 C308 1.373 . S
C309 C325 1.377 . S
C310 C308 1.389 . S
C310 C311 1.524 . S
C310 C324 1.377 . S
C311 C310 1.524 . S
C311 C312 1.397 . S
C311 C316 1.363 . S
C312 H289 0.950 . S
C312 C311 1.397 . S
C312 C313 1.334 . S
C313 H290 0.950 . S
C313 C312 1.334 . S
C313 C314 1.287 . S
C314 C313 1.287 . S
C314 C315 1.524 . S
C314 H333 0.913 . S
C315 H291 0.950 . S
C315 C314 1.524 . S
C315 C316 1.415 . S
C316 H292 0.950 . S
C316 C311 1.363 . S
C316 C315 1.415 . S
C317 H293 0.951 . S
C317 C318 1.366 . S
C317 C319 1.388 . S
C318 C317 1.366 . S
C318 C322 1.385 . S
C319 H294 0.951 . S
C319 C317 1.388 . S
C319 C320 1.366 . S
C320 C319 1.366 . S
C320 C321 1.414 . S
C320 C323 1.499 . S
C321 H295 0.950 . S
C321 C320 1.414 . S
C321 C322 1.374 . S
C322 H296 0.950 . S
C322 C318 1.385 . S
C322 C321 1.374 . S
C323 C320 1.499 . S
C323 C324 1.373 . S
C323 C325 1.389 . S
C324 H297 0.950 . S
C324 C310 1.377 . S
C324 C323 1.373 . S
C325 C309 1.377 . S
C325 C323 1.389 . S
C325 C326 1.524 . S
C326 C325 1.524 . S
C326 C327 1.397 . S
C326 C331 1.363 . S
C327 H298 0.950 . S
C327 C326 1.397 . S
C327 C328 1.334 . S
C328 H299 0.950 . S
C328 C327 1.334 . S
C328 C329 1.287 . S
C329 C328 1.287 . S
C329 C330 1.524 . S
C329 H332 0.999 . S
C330 H300 0.950 . S
C330 C329 1.524 . S
C330 C331 1.415 . S
C331 H301 0.950 . S
C331 C326 1.363 . S
C331 C330 1.415 . S
H332 C329 0.999 . S
H333 C314 0.913 . S
H334 C352 0.951 . S
H335 C354 0.951 . S
H336 C356 0.950 . S
H337 C357 0.950 . S
H338 C359 0.950 . S
H339 C362 0.950 . S
H340 C363 0.950 . S
H341 C365 0.950 . S
H342 C366 0.950 . S
H343 C367 0.951 . S
H344 C369 0.951 . S
H345 C371 0.950 1_655 S
H346 C372 0.939 1_655 S
H347 C374 0.950 . S
H348 C377 0.950 . S
H349 C378 0.950 . S
H350 C380 0.950 . S
H351 C381 0.950 . S
C352 H334 0.951 . S
C352 C353 1.366 . S
C352 C354 1.388 . S
C353 C352 1.366 . S
C353 C357 1.385 . S
C354 H335 0.951 . S
C354 C352 1.388 . S
C354 C355 1.366 . S
C355 C354 1.366 . S
C355 C356 1.414 . S
C355 C358 1.499 . S
C356 H336 0.950 . S
C356 C355 1.414 . S
C356 C357 1.374 . S
C357 H337 0.950 . S
C357 C353 1.385 . S
C357 C356 1.374 . S
C358 C355 1.499 . S
C358 C359 1.373 . S
C358 C360 1.389 . S
C359 H338 0.950 . S
C359 C358 1.373 . S
C359 C375 1.377 . S
C360 C358 1.389 . S
C360 C361 1.524 . S
C360 C374 1.377 . S
C361 C360 1.524 . S
C361 C362 1.397 . S
C361 C366 1.363 . S
C362 H339 0.950 . S
C362 C361 1.397 . S
C362 C363 1.334 . S
C363 H340 0.950 . S
C363 C362 1.334 . S
C363 C364 1.287 . S
C364 C363 1.287 . S
C364 C365 1.524 . S
C364 H383 0.913 . S
C365 H341 0.950 . S
C365 C364 1.524 . S
C365 C366 1.415 . S
C366 H342 0.950 . S
C366 C361 1.363 . S
C366 C365 1.415 . S
C367 H343 0.951 . S
C367 C368 1.366 . S
C367 C369 1.388 . S
C368 C367 1.366 . S
C368 C372 1.393 . S
C369 H344 0.951 . S
C369 C367 1.388 . S
C369 C370 1.366 . S
C370 C369 1.366 . S
C370 C371 1.414 . S
C370 C373 1.499 . S
C371 H345 0.950 1_455 S
C371 C370 1.414 . S
C371 C372 1.376 . S
C372 H346 0.939 1_455 S
C372 C368 1.393 . S
C372 C371 1.376 . S
C373 C370 1.499 . S
C373 C374 1.373 . S
C373 C375 1.389 . S
C374 H347 0.950 . S
C374 C360 1.377 . S
C374 C373 1.373 . S
C375 C359 1.377 . S
C375 C373 1.389 . S
C375 C376 1.524 . S
C376 C375 1.524 . S
C376 C377 1.397 1_455 S
C376 C381 1.363 . S
C377 H348 0.950 . S
C377 C376 1.397 1_655 S
C377 C378 1.334 . S
C378 H349 0.950 . S
C378 C377 1.334 . S
C378 C379 1.287 1_655 S
C379 C378 1.287 1_455 S
C379 C380 1.524 . S
C379 H382 1.005 . S
C380 H350 0.950 . S
C380 C379 1.524 . S
C380 C381 1.415 . S
C381 H351 0.950 . S
C381 C376 1.363 . S
C381 C380 1.415 . S
H382 C379 1.005 . S
H383 C364 0.913 . S
H384 C402 0.951 . S
H385 C404 0.951 . S
H386 C406 0.950 . S
H387 C407 0.950 . S
H388 C409 0.950 . S
H389 C412 0.950 . S
H390 C413 0.950 . S
H391 C415 0.950 . S
H392 C416 0.950 . S
H393 C417 0.951 . S
H394 C419 0.951 . S
H395 C421 0.950 . S
H396 C422 0.950 . S
H397 C424 0.950 . S
H398 C427 0.950 . S
H399 C428 0.950 . S
H400 C430 0.950 . S
H401 C431 0.950 . S
C402 H384 0.951 . S
C402 C403 1.367 1_554 S
C402 C404 1.388 1_554 S
C403 C402 1.367 1_556 S
C403 C407 1.386 1_545 S
C404 H385 0.951 . S
C404 C402 1.388 1_556 S
C404 C405 1.366 . S
C405 C404 1.366 . S
C405 C406 1.414 1_545 S
C405 C408 1.500 . S
C406 H386 0.950 . S
C406 C405 1.414 1_565 S
C406 C407 1.374 . S
C407 H387 0.950 . S
C407 C403 1.386 1_565 S
C407 C406 1.374 . S
C408 C405 1.500 . S
C408 C409 1.342 1_545 S
C408 C410 1.421 . S
C409 H388 0.950 . S
C409 C408 1.342 1_565 S
C409 C425 1.377 . S
C410 C408 1.421 . S
C410 C411 1.524 . S
C410 C424 1.377 . S
C411 C410 1.524 . S
C411 C412 1.397 . S
C411 C416 1.363 . S
C412 H389 0.950 . S
C412 C411 1.397 . S
C412 C413 1.334 . S
C413 H390 0.950 . S
C413 C412 1.334 . S
C413 C414 1.287 . S
C414 C413 1.287 . S
C414 C415 1.524 . S
C414 H433 0.913 . S
C415 H391 0.950 . S
C415 C414 1.524 . S
C415 C416 1.415 . S
C416 H392 0.950 . S
C416 C411 1.363 . S
C416 C415 1.415 . S
C417 H393 0.951 . S
C417 C418 1.366 1_565 S
C417 C419 1.388 . S
C418 C417 1.366 1_545 S
C418 C422 1.385 . S
C419 H394 0.951 . S
C419 C417 1.388 . S
C419 C420 1.361 1_565 S
C420 C419 1.361 1_545 S
C420 C421 1.418 . S
C420 C423 1.499 . S
C421 H395 0.950 . S
C421 C420 1.418 . S
C421 C422 1.374 . S
C422 H396 0.950 . S
C422 C418 1.385 . S
C422 C421 1.374 . S
C423 C420 1.499 . S
C423 C424 1.396 . S
C423 C425 1.367 1_545 S
C424 H397 0.950 . S
C424 C410 1.377 . S
C424 C423 1.396 . S
C425 C409 1.377 . S
C425 C423 1.367 1_565 S
C425 C426 1.524 . S
C426 C425 1.524 . S
C426 C427 1.397 . S
C426 C431 1.363 . S
C427 H398 0.950 . S
C427 C426 1.397 . S
C427 C428 1.334 . S
C428 H399 0.950 . S
C428 C427 1.334 . S
C428 C429 1.287 . S
C429 C428 1.287 . S
C429 C430 1.524 . S
C429 H432 0.999 . S
C430 H400 0.950 . S
C430 C429 1.524 . S
C430 C431 1.415 . S
C431 H401 0.950 . S
C431 C426 1.363 . S
C431 C430 1.415 . S
H432 C429 0.999 . S
H433 C414 0.913 . S
H434 C452 0.951 . S
H435 C454 0.951 . S
H436 C456 0.950 . S
H437 C457 0.950 . S
H438 C459 0.950 . S
H439 C462 0.950 . S
H440 C463 0.950 1_554 S
H441 C465 0.950 . S
H442 C466 0.950 . S
H443 C467 0.951 . S
H444 C469 0.951 . S
H445 C471 0.950 . S
H446 C472 0.950 . S
H447 C474 0.950 . S
H448 C477 0.950 . S
H449 C478 0.950 . S
H450 C480 0.950 . S
H451 C481 0.950 . S
C452 H434 0.951 . S
C452 C453 1.366 . S
C452 C454 1.388 . S
C453 C452 1.366 . S
C453 C457 1.385 1_556 S
C454 H435 0.951 . S
C454 C452 1.388 . S
C454 C455 1.366 . S
C455 C454 1.366 . S
C455 C456 1.414 . S
C455 C458 1.499 . S
C456 H436 0.950 . S
C456 C455 1.414 . S
C456 C457 1.374 1_556 S
C457 H437 0.950 . S
C457 C453 1.385 1_554 S
C457 C456 1.374 1_554 S
C458 C455 1.499 . S
C458 C459 1.373 . S
C458 C460 1.389 . S
C459 H438 0.950 . S
C459 C458 1.373 . S
C459 C475 1.377 . S
C460 C458 1.389 . S
C460 C461 1.524 . S
C460 C474 1.377 . S
C461 C460 1.524 . S
C461 C462 1.397 . S
C461 C466 1.363 . S
C462 H439 0.950 . S
C462 C461 1.397 . S
C462 C463 1.334 . S
C463 H440 0.950 1_556 S
C463 C462 1.334 . S
C463 C464 1.287 . S
C464 C463 1.287 . S
C464 C465 1.524 . S
C464 H483 0.913 . S
C465 H441 0.950 . S
C465 C464 1.524 . S
C465 C466 1.415 . S
C466 H442 0.950 . S
C466 C461 1.363 . S
C466 C465 1.415 . S
C467 H443 0.951 . S
C467 C468 1.366 . S
C467 C469 1.388 . S
C468 C467 1.366 . S
C468 C472 1.385 . S
C469 H444 0.951 . S
C469 C467 1.388 . S
C469 C470 1.366 . S
C470 C469 1.366 . S
C470 C471 1.414 . S
C470 C473 1.499 . S
C471 H445 0.950 . S
C471 C470 1.414 . S
C471 C472 1.374 . S
C472 H446 0.950 . S
C472 C468 1.385 . S
C472 C471 1.374 . S
C473 C470 1.499 . S
C473 C474 1.373 . S
C473 C475 1.389 . S
C474 H447 0.950 . S
C474 C460 1.377 . S
C474 C473 1.373 . S
C475 C459 1.377 . S
C475 C473 1.389 . S
C475 C476 1.524 . S
C476 C475 1.524 . S
C476 C477 1.397 . S
C476 C481 1.363 . S
C477 H448 0.950 . S
C477 C476 1.397 . S
C477 C478 1.334 . S
C478 H449 0.950 . S
C478 C477 1.334 . S
C478 C479 1.287 . S
C479 C478 1.287 . S
C479 C480 1.524 . S
C479 H482 0.999 . S
C480 H450 0.950 . S
C480 C479 1.524 . S
C480 C481 1.415 . S
C481 H451 0.950 . S
C481 C476 1.363 . S
C481 C480 1.415 . S
H482 C479 0.999 . S
H483 C464 0.913 . S
H484 C502 0.951 1_554 S
H485 C504 0.951 . S
H486 C506 0.950 . S
H487 C507 0.950 . S
H488 C509 0.950 . S
H489 C512 0.950 . S
H490 C513 0.950 . S
H491 C515 0.950 . S
H492 C516 0.950 . S
H493 C517 0.951 . S
H494 C519 0.951 . S
H495 C521 0.950 . S
H496 C522 0.950 . S
H497 C524 0.950 . S
H498 C527 0.950 . S
H499 C528 0.950 . S
H500 C530 0.950 . S
H501 C531 0.950 . S
C502 H484 0.951 1_556 S
C502 C503 1.366 . S
C502 C504 1.388 . S
C503 C502 1.366 . S
C503 C507 1.385 . S
C504 H485 0.951 . S
C504 C502 1.388 . S
C504 C505 1.366 . S
C505 C504 1.366 . S
C505 C506 1.414 . S
C505 C508 1.499 . S
C506 H486 0.950 . S
C506 C505 1.414 . S
C506 C507 1.374 . S
C507 H487 0.950 . S
C507 C503 1.385 . S
C507 C506 1.374 . S
C508 C505 1.499 . S
C508 C509 1.373 . S
C508 C510 1.389 . S
C509 H488 0.950 . S
C509 C508 1.373 . S
C509 C525 1.377 . S
C510 C508 1.389 . S
C510 C511 1.524 . S
C510 C524 1.377 . S
C511 C510 1.524 . S
C511 C512 1.397 1_556 S
C511 C516 1.363 . S
C512 H489 0.950 . S
C512 C511 1.397 1_554 S
C512 C513 1.334 . S
C513 H490 0.950 . S
C513 C512 1.334 . S
C513 C514 1.287 . S
C514 C513 1.287 . S
C514 C515 1.524 . S
C514 H533 0.913 . S
C515 H491 0.950 . S
C515 C514 1.524 . S
C515 C516 1.415 1_554 S
C516 H492 0.950 . S
C516 C511 1.363 . S
C516 C515 1.415 1_556 S
C517 H493 0.951 . S
C517 C518 1.366 . S
C517 C519 1.388 . S
C518 C517 1.366 . S
C518 C522 1.385 . S
C519 H494 0.951 . S
C519 C517 1.388 . S
C519 C520 1.366 . S
C520 C519 1.366 . S
C520 C521 1.414 . S
C520 C523 1.499 . S
C521 H495 0.950 . S
C521 C520 1.414 . S
C521 C522 1.374 . S
C522 H496 0.950 . S
C522 C518 1.385 . S
C522 C521 1.374 . S
C523 C520 1.499 . S
C523 C524 1.373 . S
C523 C525 1.389 . S
C524 H497 0.950 . S
C524 C510 1.377 . S
C524 C523 1.373 . S
C525 C509 1.377 . S
C525 C523 1.389 . S
C525 C526 1.524 . S
C526 C525 1.524 . S
C526 C527 1.397 . S
C526 C531 1.363 . S
C527 H498 0.950 . S
C527 C526 1.397 . S
C527 C528 1.334 . S
C528 H499 0.950 . S
C528 C527 1.334 . S
C528 C529 1.287 . S
C529 C528 1.287 . S
C529 C530 1.524 . S
C529 H532 0.999 . S
C530 H500 0.950 . S
C530 C529 1.524 . S
C530 C531 1.415 . S
C531 H501 0.950 . S
C531 C526 1.363 . S
C531 C530 1.415 . S
H532 C529 0.999 . S
H533 C514 0.913 . S
H534 C552 0.951 . S
H535 C554 0.951 . S
H536 C556 0.950 1_455 S
H537 C557 0.950 . S
H538 C559 0.950 . S
H539 C562 0.950 . S
H540 C563 0.950 . S
H541 C565 0.950 . S
H542 C566 0.950 . S
H543 C567 0.951 . S
H544 C569 0.951 . S
H545 C571 0.950 . S
H546 C572 0.950 . S
H547 C574 0.950 . S
H548 C577 0.993 . S
H549 C578 0.950 . S
H550 C580 0.950 . S
H551 C581 0.950 . S
C552 H534 0.951 . S
C552 C553 1.366 . S
C552 C554 1.388 . S
C553 C552 1.366 . S
C553 C557 1.385 . S
C554 H535 0.951 . S
C554 C552 1.388 . S
C554 C555 1.366 . S
C555 C554 1.366 . S
C555 C556 1.414 . S
C555 C558 1.499 . S
C556 H536 0.950 1_655 S
C556 C555 1.414 . S
C556 C557 1.374 . S
C557 H537 0.950 . S
C557 C553 1.385 . S
C557 C556 1.374 . S
C558 C555 1.499 . S
C558 C559 1.373 . S
C558 C560 1.389 . S
C559 H538 0.950 . S
C559 C558 1.373 . S
C559 C575 1.377 . S
C560 C558 1.389 . S
C560 C561 1.524 . S
C560 C574 1.377 . S
C561 C560 1.524 . S
C561 C562 1.397 1_556 S
C561 C566 1.363 . S
C562 H539 0.950 . S
C562 C561 1.397 1_554 S
C562 C563 1.334 . S
C563 H540 0.950 . S
C563 C562 1.334 . S
C563 C564 1.287 . S
C564 C563 1.287 . S
C564 C565 1.524 . S
C564 H583 0.913 . S
C565 H541 0.950 . S
C565 C564 1.524 . S
C565 C566 1.415 1_554 S
C566 H542 0.950 . S
C566 C561 1.363 . S
C566 C565 1.415 1_556 S
C567 H543 0.951 . S
C567 C568 1.366 1_455 S
C567 C569 1.388 . S
C568 C567 1.366 1_655 S
C568 C572 1.385 . S
C569 H544 0.951 . S
C569 C567 1.388 . S
C569 C570 1.366 1_455 S
C570 C569 1.366 1_655 S
C570 C571 1.414 . S
C570 C573 1.499 . S
C571 H545 0.950 . S
C571 C570 1.414 . S
C571 C572 1.374 . S
C572 H546 0.950 . S
C572 C568 1.385 . S
C572 C571 1.374 . S
C573 C570 1.499 . S
C573 C574 1.373 . S
C573 C575 1.389 . S
C574 H547 0.950 . S
C574 C560 1.377 . S
C574 C573 1.373 . S
C575 C559 1.377 . S
C575 C573 1.389 . S
C575 C576 1.524 1_655 S
C576 C575 1.524 1_455 S
C576 C577 1.379 1_455 S
C576 C581 1.363 . S
C577 H548 0.993 . S
C577 C576 1.379 1_655 S
C577 C578 1.311 1_655 S
C578 H549 0.950 . S
C578 C577 1.311 1_455 S
C578 C579 1.287 . S
C579 C578 1.287 . S
C579 C580 1.524 . S
C579 H582 0.999 . S
C580 H550 0.950 . S
C580 C579 1.524 . S
C580 C581 1.415 . S
C581 H551 0.950 . S
C581 C576 1.363 . S
C581 C580 1.415 . S
H582 C579 0.999 . S
H583 C564 0.913 . S
H584 C602 0.951 . S
H585 C604 0.951 . S
H586 C606 0.950 . S
H587 C607 0.950 . S
H588 C609 0.950 . S
H589 C612 0.950 . S
H590 C613 0.950 . S
H591 C615 0.950 . S
H592 C616 0.950 . S
H593 C617 0.951 . S
H594 C619 0.951 . S
H595 C621 0.950 . S
H596 C622 0.950 . S
H597 C624 0.950 . S
H598 C627 0.950 . S
H599 C628 0.950 . S
H600 C630 0.950 . S
H601 C631 0.950 . S
C602 H584 0.951 . S
C602 C603 1.366 . S
C602 C604 1.388 . S
C603 C602 1.366 . S
C603 C607 1.385 . S
C604 H585 0.951 . S
C604 C602 1.388 . S
C604 C605 1.366 . S
C605 C604 1.366 . S
C605 C606 1.414 . S
C605 C608 1.499 . S
C606 H586 0.950 . S
C606 C605 1.414 . S
C606 C607 1.374 . S
C607 H587 0.950 . S
C607 C603 1.385 . S
C607 C606 1.374 . S
C608 C605 1.499 . S
C608 C609 1.373 . S
C608 C610 1.389 . S
C609 H588 0.950 . S
C609 C608 1.373 . S
C609 C625 1.377 . S
C610 C608 1.389 . S
C610 C611 1.524 . S
C610 C624 1.377 . S
C611 C610 1.524 . S
C611 C612 1.397 . S
C611 C616 1.363 . S
C612 H589 0.950 . S
C612 C611 1.397 . S
C612 C613 1.334 . S
C613 H590 0.950 . S
C613 C612 1.334 . S
C613 C614 1.287 . S
C614 C613 1.287 . S
C614 C615 1.524 . S
C614 H633 0.913 . S
C615 H591 0.950 . S
C615 C614 1.524 . S
C615 C616 1.415 . S
C616 H592 0.950 . S
C616 C611 1.363 . S
C616 C615 1.415 . S
C617 H593 0.951 . S
C617 C618 1.366 1_655 S
C617 C619 1.388 . S
C618 C617 1.366 1_455 S
C618 C622 1.385 . S
C619 H594 0.951 . S
C619 C617 1.388 . S
C619 C620 1.366 1_655 S
C620 C619 1.366 1_455 S
C620 C621 1.414 . S
C620 C623 1.499 . S
C621 H595 0.950 . S
C621 C620 1.414 . S
C621 C622 1.374 . S
C622 H596 0.950 . S
C622 C618 1.385 . S
C622 C621 1.374 . S
C623 C620 1.499 . S
C623 C624 1.373 . S
C623 C625 1.389 . S
C624 H597 0.950 . S
C624 C610 1.377 . S
C624 C623 1.373 . S
C625 C609 1.377 . S
C625 C623 1.389 . S
C625 C626 1.524 . S
C626 C625 1.524 . S
C626 C627 1.397 . S
C626 C631 1.363 1_455 S
C627 H598 0.950 . S
C627 C626 1.397 . S
C627 C628 1.334 . S
C628 H599 0.950 . S
C628 C627 1.334 . S
C628 C629 1.287 1_455 S
C629 C628 1.287 1_655 S
C629 C630 1.524 . S
C629 H632 0.999 . S
C630 H600 0.950 . S
C630 C629 1.524 . S
C630 C631 1.415 . S
C631 H601 0.950 . S
C631 C626 1.363 1_655 S
C631 C630 1.415 . S
H632 C629 0.999 . S
H633 C614 0.913 . S
H634 C652 0.951 . S
H635 C654 0.951 . S
H636 C656 0.950 . S
H637 C657 0.950 . S
H638 C659 0.950 . S
H639 C662 0.950 . S
H640 C663 0.950 . S
H641 C665 0.950 . S
H642 C666 0.950 . S
H643 C667 0.951 . S
H644 C669 0.951 . S
H645 C671 0.950 . S
H646 C672 0.950 . S
H647 C674 0.944 1_545 S
H648 C677 0.950 . S
H649 C678 0.950 . S
H650 C680 0.950 . S
H651 C681 0.950 . S
C652 H634 0.951 . S
C652 C653 1.370 . S
C652 C654 1.388 . S
C653 C652 1.370 . S
C653 C657 1.380 1_545 S
C654 H635 0.951 . S
C654 C652 1.388 . S
C654 C655 1.366 1_545 S
C655 C654 1.366 1_565 S
C655 C656 1.414 . S
C655 C658 1.499 . S
C656 H636 0.950 . S
C656 C655 1.414 . S
C656 C657 1.374 . S
C657 H637 0.950 . S
C657 C653 1.380 1_565 S
C657 C656 1.374 . S
C658 C655 1.499 . S
C658 C659 1.373 . S
C658 C660 1.398 . S
C659 H638 0.950 . S
C659 C658 1.373 . S
C659 C675 1.377 . S
C660 C658 1.398 . S
C660 C661 1.520 1_565 S
C660 C674 1.376 . S
C661 C660 1.520 1_545 S
C661 C662 1.397 1_545 S
C661 C666 1.363 . S
C662 H639 0.950 . S
C662 C661 1.397 1_565 S
C662 C663 1.334 . S
C663 H640 0.950 . S
C663 C662 1.334 . S
C663 C664 1.287 1_565 S
C664 C663 1.287 1_545 S
C664 C665 1.524 . S
C664 H683 0.913 . S
C665 H641 0.950 . S
C665 C664 1.524 . S
C665 C666 1.415 . S
C666 H642 0.950 . S
C666 C661 1.363 . S
C666 C665 1.415 . S
C667 H643 0.951 . S
C667 C668 1.366 . S
C667 C669 1.388 . S
C668 C667 1.366 . S
C668 C672 1.385 1_565 S
C669 H644 0.951 . S
C669 C667 1.388 . S
C669 C670 1.366 . S
C670 C669 1.366 . S
C670 C671 1.414 1_565 S
C670 C673 1.499 . S
C671 H645 0.950 . S
C671 C670 1.414 1_545 S
C671 C672 1.374 . S
C672 H646 0.950 . S
C672 C668 1.385 1_545 S
C672 C671 1.374 . S
C673 C670 1.499 . S
C673 C674 1.380 . S
C673 C675 1.389 . S
C674 H647 0.944 1_565 S
C674 C660 1.376 . S
C674 C673 1.380 . S
C675 C659 1.377 . S
C675 C673 1.389 . S
C675 C676 1.524 . S
C676 C675 1.524 . S
C676 C677 1.397 1_565 S
C676 C681 1.363 . S
C677 H648 0.950 . S
C677 C676 1.397 1_545 S
C677 C678 1.334 . S
C678 H649 0.950 . S
C678 C677 1.334 . S
C678 C679 1.287 1_545 S
C679 C678 1.287 1_565 S
C679 C680 1.524 . S
C679 H682 0.999 . S
C680 H650 0.950 . S
C680 C679 1.524 . S
C680 C681 1.415 . S
C681 H651 0.950 . S
C681 C676 1.363 . S
C681 C680 1.415 . S
H682 C679 0.999 . S
H683 C664 0.913 . S
H684 C702 0.951 . S
H685 C704 0.951 . S
H686 C706 0.950 . S
H687 C707 0.950 . S
H688 C709 0.950 . S
H689 C712 0.950 . S
H690 C713 0.950 . S
H691 C715 0.950 . S
H692 C716 0.950 . S
H693 C717 0.951 . S
H694 C719 0.951 . S
H695 C721 0.950 . S
H696 C722 0.950 . S
H697 C724 0.950 . S
H698 C727 0.950 . S
H699 C728 0.950 . S
H700 C730 0.950 . S
H701 C731 0.950 . S
C702 H684 0.951 . S
C702 C703 1.366 . S
C702 C704 1.388 . S
C703 C702 1.366 . S
C703 C707 1.385 . S
C704 H685 0.951 . S
C704 C702 1.388 . S
C704 C705 1.366 . S
C705 C704 1.366 . S
C705 C706 1.414 . S
C705 C708 1.499 . S
C706 H686 0.950 . S
C706 C705 1.414 . S
C706 C707 1.374 . S
C707 H687 0.950 . S
C707 C703 1.385 . S
C707 C706 1.374 . S
C708 C705 1.499 . S
C708 C709 1.373 . S
C708 C710 1.389 . S
C709 H688 0.950 . S
C709 C708 1.373 . S
C709 C725 1.377 . S
C710 C708 1.389 . S
C710 C711 1.524 . S
C710 C724 1.377 . S
C711 C710 1.524 . S
C711 C712 1.397 . S
C711 C716 1.363 . S
C712 H689 0.950 . S
C712 C711 1.397 . S
C712 C713 1.334 . S
C713 H690 0.950 . S
C713 C712 1.334 . S
C713 C714 1.287 . S
C714 C713 1.287 . S
C714 C715 1.524 . S
C714 H733 0.913 . S
C715 H691 0.950 . S
C715 C714 1.524 . S
C715 C716 1.415 . S
C716 H692 0.950 . S
C716 C711 1.363 . S
C716 C715 1.415 . S
C717 H693 0.951 . S
C717 C718 1.366 . S
C717 C719 1.388 . S
C718 C717 1.366 . S
C718 C722 1.385 . S
C719 H694 0.951 . S
C719 C717 1.388 . S
C719 C720 1.366 . S
C720 C719 1.366 . S
C720 C721 1.414 . S
C720 C723 1.499 . S
C721 H695 0.950 . S
C721 C720 1.414 . S
C721 C722 1.374 . S
C722 H696 0.950 . S
C722 C718 1.385 . S
C722 C721 1.374 . S
C723 C720 1.499 . S
C723 C724 1.373 . S
C723 C725 1.389 . S
C724 H697 0.950 . S
C724 C710 1.377 . S
C724 C723 1.373 . S
C725 C709 1.377 . S
C725 C723 1.389 . S
C725 C726 1.524 . S
C726 C725 1.524 . S
C726 C727 1.397 . S
C726 C731 1.363 . S
C727 H698 0.950 . S
C727 C726 1.397 . S
C727 C728 1.334 . S
C728 H699 0.950 . S
C728 C727 1.334 . S
C728 C729 1.287 . S
C729 C728 1.287 . S
C729 C730 1.524 . S
C729 H732 0.999 . S
C730 H700 0.950 . S
C730 C729 1.524 . S
C730 C731 1.415 . S
C731 H701 0.950 . S
C731 C726 1.363 . S
C731 C730 1.415 . S
H732 C729 0.999 . S
H733 C714 0.913 . S
H734 C752 0.951 . S
H735 C754 0.951 . S
H736 C756 0.950 . S
H737 C757 0.950 . S
H738 C759 0.950 . S
H739 C762 0.950 . S
H740 C763 0.950 . S
H741 C765 0.950 . S
H742 C766 0.950 . S
H743 C767 0.951 . S
H744 C769 0.951 . S
H745 C771 0.950 . S
H746 C772 0.950 . S
H747 C774 0.950 . S
H748 C777 0.950 . S
H749 C778 0.950 . S
H750 C780 0.950 . S
H751 C781 0.950 . S
C752 H734 0.951 . S
C752 C753 1.366 . S
C752 C754 1.388 . S
C753 C752 1.366 . S
C753 C757 1.385 . S
C754 H735 0.951 . S
C754 C752 1.388 . S
C754 C755 1.366 . S
C755 C754 1.366 . S
C755 C756 1.414 . S
C755 C758 1.499 . S
C756 H736 0.950 . S
C756 C755 1.414 . S
C756 C757 1.374 . S
C757 H737 0.950 . S
C757 C753 1.385 . S
C757 C756 1.374 . S
C758 C755 1.499 . S
C758 C759 1.373 . S
C758 C760 1.389 . S
C759 H738 0.950 . S
C759 C758 1.373 . S
C759 C775 1.377 . S
C760 C758 1.389 . S
C760 C761 1.524 . S
C760 C774 1.377 . S
C761 C760 1.524 . S
C761 C762 1.397 . S
C761 C766 1.363 . S
C762 H739 0.950 . S
C762 C761 1.397 . S
C762 C763 1.334 . S
C763 H740 0.950 . S
C763 C762 1.334 . S
C763 C764 1.287 . S
C764 C763 1.287 . S
C764 C765 1.524 . S
C764 H783 0.913 . S
C765 H741 0.950 . S
C765 C764 1.524 . S
C765 C766 1.415 . S
C766 H742 0.950 . S
C766 C761 1.363 . S
C766 C765 1.415 . S
C767 H743 0.951 . S
C767 C768 1.366 . S
C767 C769 1.388 . S
C768 C767 1.366 . S
C768 C772 1.385 . S
C769 H744 0.951 . S
C769 C767 1.388 . S
C769 C770 1.366 . S
C770 C769 1.366 . S
C770 C771 1.414 . S
C770 C773 1.499 . S
C771 H745 0.950 . S
C771 C770 1.414 . S
C771 C772 1.374 . S
C772 H746 0.950 . S
C772 C768 1.385 . S
C772 C771 1.374 . S
C773 C770 1.499 . S
C773 C774 1.373 . S
C773 C775 1.389 . S
C774 H747 0.950 . S
C774 C760 1.377 . S
C774 C773 1.373 . S
C775 C759 1.377 . S
C775 C773 1.389 . S
C775 C776 1.524 . S
C776 C775 1.524 . S
C776 C777 1.397 . S
C776 C781 1.363 . S
C777 H748 0.950 . S
C777 C776 1.397 . S
C777 C778 1.334 . S
C778 H749 0.950 . S
C778 C777 1.334 . S
C778 C779 1.287 . S
C779 C778 1.287 . S
C779 C780 1.524 . S
C779 H782 0.999 . S
C780 H750 0.950 . S
C780 C779 1.524 . S
C780 C781 1.415 . S
C781 H751 0.950 . S
C781 C776 1.363 . S
C781 C780 1.415 . S
H782 C779 0.999 . S
H783 C764 0.913 . S
H784 C802 0.951 . S
H785 C804 0.951 . S
H786 C806 0.950 1_455 S
H787 C807 0.950 . S
H788 C809 0.950 . S
H789 C812 0.950 . S
H790 C813 0.950 . S
H791 C815 0.950 . S
H792 C816 0.950 . S
H793 C817 0.951 . S
H794 C819 0.951 . S
H795 C821 0.950 . S
H796 C822 0.950 . S
H797 C824 0.950 . S
H798 C827 0.950 . S
H799 C828 0.950 . S
H800 C830 0.950 . S
H801 C831 0.950 1_556 S
C802 H784 0.951 . S
C802 C803 1.366 . S
C802 C804 1.388 . S
C803 C802 1.366 . S
C803 C807 1.385 1_556 S
C804 H785 0.951 . S
C804 C802 1.388 . S
C804 C805 1.366 . S
C805 C804 1.366 . S
C805 C806 1.414 . S
C805 C808 1.499 . S
C806 H786 0.950 1_655 S
C806 C805 1.414 . S
C806 C807 1.374 1_556 S
C807 H787 0.950 . S
C807 C803 1.385 1_554 S
C807 C806 1.374 1_554 S
C808 C805 1.499 . S
C808 C809 1.373 . S
C808 C810 1.389 . S
C809 H788 0.950 . S
C809 C808 1.373 . S
C809 C825 1.377 . S
C810 C808 1.389 . S
C810 C811 1.524 . S
C810 C824 1.377 . S
C811 C810 1.524 . S
C811 C812 1.397 . S
C811 C816 1.363 . S
C812 H789 0.950 . S
C812 C811 1.397 . S
C812 C813 1.334 . S
C813 H790 0.950 . S
C813 C812 1.334 . S
C813 C814 1.287 . S
C814 C813 1.287 . S
C814 C815 1.524 . S
C814 H833 0.913 . S
C815 H791 0.950 . S
C815 C814 1.524 . S
C815 C816 1.415 . S
C816 H792 0.950 . S
C816 C811 1.363 . S
C816 C815 1.415 . S
C817 H793 0.951 . S
C817 C818 1.366 . S
C817 C819 1.388 . S
C818 C817 1.366 . S
C818 C822 1.385 1_455 S
C819 H794 0.951 . S
C819 C817 1.388 . S
C819 C820 1.366 1_455 S
C820 C819 1.366 1_655 S
C820 C821 1.414 . S
C820 C823 1.499 . S
C821 H795 0.950 . S
C821 C820 1.414 . S
C821 C822 1.374 . S
C822 H796 0.950 . S
C822 C818 1.385 1_655 S
C822 C821 1.374 . S
C823 C820 1.499 . S
C823 C824 1.373 . S
C823 C825 1.389 . S
C824 H797 0.950 . S
C824 C810 1.377 . S
C824 C823 1.373 . S
C825 C809 1.377 . S
C825 C823 1.389 . S
C825 C826 1.524 . S
C826 C825 1.524 . S
C826 C827 1.397 . S
C826 C831 1.363 1_656 S
C827 H798 0.950 . S
C827 C826 1.397 . S
C827 C828 1.334 1_556 S
C828 H799 0.950 . S
C828 C827 1.334 1_554 S
C828 C829 1.287 1_655 S
C829 C828 1.287 1_455 S
C829 C830 1.524 . S
C829 H832 0.999 . S
C830 H800 0.950 . S
C830 C829 1.524 . S
C830 C831 1.415 . S
C831 H801 0.950 1_554 S
C831 C826 1.363 1_454 S
C831 C830 1.415 . S
H832 C829 0.999 . S
H833 C814 0.913 . S
H834 C852 0.951 . S
H835 C854 0.951 1_554 S
H836 C856 0.950 . S
H837 C857 0.950 . S
H838 C859 0.950 . S
H839 C862 0.950 . S
H840 C863 0.950 . S
H841 C865 0.950 . S
H842 C866 0.950 . S
H843 C867 0.951 . S
H844 C869 0.951 . S
H845 C871 0.950 . S
H846 C872 0.950 . S
H847 C874 0.950 . S
H848 C877 0.950 . S
H849 C878 0.950 . S
H850 C880 0.950 1_565 S
H851 C881 0.950 . S
C852 H834 0.951 . S
C852 C853 1.363 . S
C852 C854 1.388 1_554 S
C853 C852 1.363 . S
C853 C857 1.387 1_544 S
C854 H835 0.951 1_556 S
C854 C852 1.388 1_556 S
C854 C855 1.366 . S
C855 C854 1.366 . S
C855 C856 1.414 1_545 S
C855 C858 1.499 . S
C856 H836 0.950 . S
C856 C855 1.414 1_565 S
C856 C857 1.374 . S
C857 H837 0.950 . S
C857 C853 1.387 1_566 S
C857 C856 1.374 . S
C858 C855 1.499 . S
C858 C859 1.373 . S
C858 C860 1.389 . S
C859 H838 0.950 . S
C859 C858 1.373 . S
C859 C875 1.377 . S
C860 C858 1.389 . S
C860 C861 1.524 1_546 S
C860 C874 1.377 . S
C861 C860 1.524 1_564 S
C861 C862 1.397 . S
C861 C866 1.363 1_565 S
C862 H839 0.950 . S
C862 C861 1.397 . S
C862 C863 1.334 . S
C863 H840 0.950 . S
C863 C862 1.334 . S
C863 C864 1.287 . S
C864 C863 1.287 . S
C864 C865 1.524 1_565 S
C864 H883 0.913 . S
C865 H841 0.950 . S
C865 C864 1.524 1_545 S
C865 C866 1.415 . S
C866 H842 0.950 . S
C866 C861 1.363 1_545 S
C866 C865 1.415 . S
C867 H843 0.951 . S
C867 C868 1.366 1_565 S
C867 C869 1.388 . S
C868 C867 1.366 1_545 S
C868 C872 1.385 . S
C869 H844 0.951 . S
C869 C867 1.388 . S
C869 C870 1.366 1_565 S
C870 C869 1.366 1_545 S
C870 C871 1.414 . S
C870 C873 1.499 . S
C871 H845 0.950 . S
C871 C870 1.414 . S
C871 C872 1.374 . S
C872 H846 0.950 . S
C872 C868 1.385 . S
C872 C871 1.374 . S
C873 C870 1.499 . S
C873 C874 1.373 . S
C873 C875 1.389 . S
C874 H847 0.950 . S
C874 C860 1.377 . S
C874 C873 1.373 . S
C875 C859 1.377 . S
C875 C873 1.389 . S
C875 C876 1.524 . S
C876 C875 1.524 . S
C876 C877 1.397 . S
C876 C881 1.363 1_545 S
C877 H848 0.950 . S
C877 C876 1.397 . S
C877 C878 1.334 . S
C878 H849 0.950 . S
C878 C877 1.334 . S
C878 C879 1.287 . S
C879 C878 1.287 . S
C879 C880 1.524 . S
C879 H882 0.999 . S
C880 H850 0.950 1_545 S
C880 C879 1.524 . S
C880 C881 1.415 1_545 S
C881 H851 0.950 . S
C881 C876 1.363 1_565 S
C881 C880 1.415 1_565 S
H882 C879 0.999 . S
H883 C864 0.913 . S
H884 C902 0.951 . S
H885 C904 0.951 1_554 S
H886 C906 0.950 . S
H887 C907 0.950 . S
H888 C909 0.950 . S
H889 C912 0.950 . S
H890 C913 0.950 . S
H891 C915 0.950 . S
H892 C916 0.950 . S
H893 C917 0.951 . S
H894 C919 0.951 . S
H895 C921 0.950 . S
H896 C922 0.950 . S
H897 C924 0.950 . S
H898 C927 0.950 . S
H899 C928 0.950 . S
H900 C930 0.950 . S
H901 C931 0.950 . S
C902 H884 0.951 . S
C902 C903 1.366 1_554 S
C902 C904 1.388 1_554 S
C903 C902 1.366 1_556 S
C903 C907 1.385 . S
C904 H885 0.951 1_556 S
C904 C902 1.388 1_556 S
C904 C905 1.366 . S
C905 C904 1.366 . S
C905 C906 1.414 . S
C905 C908 1.499 . S
C906 H886 0.950 . S
C906 C905 1.414 . S
C906 C907 1.374 . S
C907 H887 0.950 . S
C907 C903 1.385 . S
C907 C906 1.374 . S
C908 C905 1.499 . S
C908 C909 1.373 . S
C908 C910 1.389 . S
C909 H888 0.950 . S
C909 C908 1.373 . S
C909 C925 1.377 . S
C910 C908 1.389 . S
C910 C911 1.524 . S
C910 C924 1.377 . S
C911 C910 1.524 . S
C911 C912 1.397 . S
C911 C916 1.363 . S
C912 H889 0.950 . S
C912 C911 1.397 . S
C912 C913 1.334 . S
C913 H890 0.950 . S
C913 C912 1.334 . S
C913 C914 1.287 . S
C914 C913 1.287 . S
C914 C915 1.524 . S
C914 H933 0.913 . S
C915 H891 0.950 . S
C915 C914 1.524 . S
C915 C916 1.415 . S
C916 H892 0.950 . S
C916 C911 1.363 . S
C916 C915 1.415 . S
C917 H893 0.951 . S
C917 C918 1.366 . S
C917 C919 1.388 . S
C918 C917 1.366 . S
C918 C922 1.385 . S
C919 H894 0.951 . S
C919 C917 1.388 . S
C919 C920 1.366 . S
C920 C919 1.366 . S
C920 C921 1.414 . S
C920 C923 1.499 . S
C921 H895 0.950 . S
C921 C920 1.414 . S
C921 C922 1.374 . S
C922 H896 0.950 . S
C922 C918 1.385 . S
C922 C921 1.374 . S
C923 C920 1.499 . S
C923 C924 1.373 . S
C923 C925 1.389 . S
C924 H897 0.950 . S
C924 C910 1.377 . S
C924 C923 1.373 . S
C925 C909 1.377 . S
C925 C923 1.389 . S
C925 C926 1.524 . S
C926 C925 1.524 . S
C926 C927 1.397 . S
C926 C931 1.363 . S
C927 H898 0.950 . S
C927 C926 1.397 . S
C927 C928 1.334 . S
C928 H899 0.950 . S
C928 C927 1.334 . S
C928 C929 1.287 . S
C929 C928 1.287 . S
C929 C930 1.524 . S
C929 H932 0.999 . S
C930 H900 0.950 . S
C930 C929 1.524 . S
C930 C931 1.415 . S
C931 H901 0.950 . S
C931 C926 1.363 . S
C931 C930 1.415 . S
H932 C929 0.999 . S
H933 C914 0.913 . S
H934 C952 0.951 . S
H935 C954 0.951 1_554 S
H936 C956 0.950 . S
H937 C957 0.950 . S
H938 C959 0.950 . S
H939 C962 0.950 . S
H940 C963 0.950 . S
H941 C965 0.950 . S
H942 C966 0.950 . S
H943 C967 0.951 . S
H944 C969 0.951 . S
H945 C971 0.950 . S
H946 C972 0.950 . S
H947 C974 0.950 . S
H948 C977 0.950 . S
H949 C978 0.950 . S
H950 C980 0.950 . S
H951 C981 0.950 . S
C952 H934 0.951 . S
C952 C953 1.366 . S
C952 C954 1.388 1_554 S
C953 C952 1.366 . S
C953 C957 1.385 1_554 S
C954 H935 0.951 1_556 S
C954 C952 1.388 1_556 S
C954 C955 1.366 . S
C955 C954 1.366 . S
C955 C956 1.414 . S
C955 C958 1.499 . S
C956 H936 0.950 . S
C956 C955 1.414 . S
C956 C957 1.374 . S
C957 H937 0.950 . S
C957 C953 1.385 1_556 S
C957 C956 1.374 . S
C958 C955 1.499 . S
C958 C959 1.373 . S
C958 C960 1.389 . S
C959 H938 0.950 . S
C959 C958 1.373 . S
C959 C975 1.377 . S
C960 C958 1.389 . S
C960 C961 1.524 . S
C960 C974 1.377 . S
C961 C960 1.524 . S
C961 C962 1.397 . S
C961 C966 1.363 . S
C962 H939 0.950 . S
C962 C961 1.397 . S
C962 C963 1.334 . S
C963 H940 0.950 . S
C963 C962 1.334 . S
C963 C964 1.287 . S
C964 C963 1.287 . S
C964 C965 1.524 . S
C964 H983 0.913 . S
C965 H941 0.950 . S
C965 C964 1.524 . S
C965 C966 1.415 . S
C966 H942 0.950 . S
C966 C961 1.363 . S
C966 C965 1.415 . S
C967 H943 0.951 . S
C967 C968 1.366 . S
C967 C969 1.388 . S
C968 C967 1.366 . S
C968 C972 1.385 . S
C969 H944 0.951 . S
C969 C967 1.388 . S
C969 C970 1.366 . S
C970 C969 1.366 . S
C970 C971 1.414 . S
C970 C973 1.499 . S
C971 H945 0.950 . S
C971 C970 1.414 . S
C971 C972 1.374 . S
C972 H946 0.950 . S
C972 C968 1.385 . S
C972 C971 1.374 . S
C973 C970 1.499 . S
C973 C974 1.373 . S
C973 C975 1.389 . S
C974 H947 0.950 . S
C974 C960 1.377 . S
C974 C973 1.373 . S
C975 C959 1.377 . S
C975 C973 1.389 . S
C975 C976 1.524 . S
C976 C975 1.524 . S
C976 C977 1.397 . S
C976 C981 1.363 . S
C977 H948 0.950 . S
C977 C976 1.397 . S
C977 C978 1.334 . S
C978 H949 0.950 . S
C978 C977 1.334 . S
C978 C979 1.287 . S
C979 C978 1.287 . S
C979 C980 1.524 . S
C979 H982 0.999 . S
C980 H950 0.950 . S
C980 C979 1.524 . S
C980 C981 1.415 . S
C981 H951 0.950 . S
C981 C976 1.363 . S
C981 C980 1.415 . S
H982 C979 0.999 . S
H983 C964 0.913 . S
H984 C1002 0.951 . S
H985 C1004 0.951 1_556 S
H986 C1006 0.950 . S
H987 C1007 0.950 . S
H988 C1009 0.950 . S
H989 C1012 0.950 . S
H990 C1013 0.950 . S
H991 C1015 0.950 . S
H992 C1016 0.950 . S
H993 C1017 0.951 . S
H994 C1019 0.951 . S
H995 C1021 0.917 1_655 S
H996 C1022 0.950 1_655 S
H997 C1024 0.950 . S
H998 C1027 0.950 . S
H999 C1028 0.950 . S
H1000 C1030 0.950 . S
H1001 C1031 0.950 . S
C1002 H984 0.951 . S
C1002 C1003 1.366 . S
C1002 C1004 1.388 . S
C1003 C1002 1.366 . S
C1003 C1007 1.385 . S
C1004 H985 0.951 1_554 S
C1004 C1002 1.388 . S
C1004 C1005 1.366 . S
C1005 C1004 1.366 . S
C1005 C1006 1.414 . S
C1005 C1008 1.499 1_554 S
C1006 H986 0.950 . S
C1006 C1005 1.414 . S
C1006 C1007 1.374 . S
C1007 H987 0.950 . S
C1007 C1003 1.385 . S
C1007 C1006 1.374 . S
C1008 C1005 1.499 1_556 S
C1008 C1009 1.373 . S
C1008 C1010 1.389 . S
C1009 H988 0.950 . S
C1009 C1008 1.373 . S
C1009 C1025 1.377 . S
C1010 C1008 1.389 . S
C1010 C1011 1.524 1_456 S
C1010 C1024 1.377 . S
C1011 C1010 1.524 1_654 S
C1011 C1012 1.397 1_655 S
C1011 C1016 1.363 1_554 S
C1012 H989 0.950 . S
C1012 C1011 1.397 1_455 S
C1012 C1013 1.334 1_455 S
C1013 H990 0.950 . S
C1013 C1012 1.334 1_655 S
C1013 C1014 1.287 . S
C1014 C1013 1.287 . S
C1014 C1015 1.524 . S
C1014 H1033 0.913 . S
C1015 H991 0.950 . S
C1015 C1014 1.524 . S
C1015 C1016 1.415 1_554 S
C1016 H992 0.950 . S
C1016 C1011 1.363 1_556 S
C1016 C1015 1.415 1_556 S
C1017 H993 0.951 . S
C1017 C1018 1.366 . S
C1017 C1019 1.388 . S
C1018 C1017 1.366 . S
C1018 C1022 1.385 . S
C1019 H994 0.951 . S
C1019 C1017 1.388 . S
C1019 C1020 1.366 . S
C1020 C1019 1.366 . S
C1020 C1021 1.414 . S
C1020 C1023 1.499 . S
C1021 H995 0.917 1_455 S
C1021 C1020 1.414 . S
C1021 C1022 1.374 . S
C1022 H996 0.950 1_455 S
C1022 C1018 1.385 . S
C1022 C1021 1.374 . S
C1023 C1020 1.499 . S
C1023 C1024 1.373 . S
C1023 C1025 1.389 . S
C1024 H997 0.950 . S
C1024 C1010 1.377 . S
C1024 C1023 1.373 . S
C1025 C1009 1.377 . S
C1025 C1023 1.389 . S
C1025 C1026 1.524 . S
C1026 C1025 1.524 . S
C1026 C1027 1.397 . S
C1026 C1031 1.363 . S
C1027 H998 0.950 . S
C1027 C1026 1.397 . S
C1027 C1028 1.334 . S
C1028 H999 0.950 . S
C1028 C1027 1.334 . S
C1028 C1029 1.287 . S
C1029 C1028 1.287 . S
C1029 C1030 1.524 . S
C1029 H1032 0.999 . S
C1030 H1000 0.950 . S
C1030 C1029 1.524 . S
C1030 C1031 1.415 . S
C1031 H1001 0.950 . S
C1031 C1026 1.363 . S
C1031 C1030 1.415 . S
H1032 C1029 0.999 . S
H1033 C1014 0.913 . S
H1034 C1052 0.951 . S
H1035 C1054 0.951 . S
H1036 C1056 0.950 . S
H1037 C1057 0.950 . S
H1038 C1059 0.950 1_554 S
H1039 C1062 0.950 . S
H1040 C1063 0.950 . S
H1041 C1065 0.974 . S
H1042 C1066 0.950 . S
H1043 C1067 0.951 . S
H1044 C1069 0.951 . S
H1045 C1071 0.950 . S
H1046 C1072 0.950 . S
H1047 C1074 0.950 . S
H1048 C1077 0.950 . S
H1049 C1078 0.950 . S
H1050 C1080 0.950 1_565 S
H1051 C1081 0.950 1_565 S
C1052 H1034 0.951 . S
C1052 C1053 1.383 . S
C1052 C1054 1.388 1_554 S
C1053 C1052 1.383 . S
C1053 C1057 1.368 1_545 S
C1054 H1035 0.951 . S
C1054 C1052 1.388 1_556 S
C1054 C1055 1.366 . S
C1055 C1054 1.366 . S
C1055 C1056 1.414 1_546 S
C1055 C1058 1.499 . S
C1056 H1036 0.950 . S
C1056 C1055 1.414 1_564 S
C1056 C1057 1.374 . S
C1057 H1037 0.950 . S
C1057 C1053 1.368 1_565 S
C1057 C1056 1.374 . S
C1058 C1055 1.499 . S
C1058 C1059 1.373 . S
C1058 C1060 1.390 . S
C1059 H1038 0.950 1_556 S
C1059 C1058 1.373 . S
C1059 C1075 1.377 . S
C1060 C1058 1.390 . S
C1060 C1061 1.521 1_545 S
C1060 C1074 1.378 . S
C1061 C1060 1.521 1_565 S
C1061 C1062 1.397 . S
C1061 C1066 1.363 1_565 S
C1062 H1039 0.950 . S
C1062 C1061 1.397 . S
C1062 C1063 1.334 . S
C1063 H1040 0.950 . S
C1063 C1062 1.334 . S
C1063 C1064 1.287 . S
C1064 C1063 1.287 . S
C1064 C1065 1.486 1_565 S
C1064 H1083 0.913 . S
C1065 H1041 0.974 . S
C1065 C1064 1.486 1_545 S
C1065 C1066 1.427 . S
C1066 H1042 0.950 . S
C1066 C1061 1.363 1_545 S
C1066 C1065 1.427 . S
C1067 H1043 0.951 . S
C1067 C1068 1.366 1_565 S
C1067 C1069 1.388 . S
C1068 C1067 1.366 1_545 S
C1068 C1072 1.385 . S
C1069 H1044 0.951 . S
C1069 C1067 1.388 . S
C1069 C1070 1.366 1_565 S
C1070 C1069 1.366 1_545 S
C1070 C1071 1.414 . S
C1070 C1073 1.499 . S
C1071 H1045 0.950 . S
C1071 C1070 1.414 . S
C1071 C1072 1.374 . S
C1072 H1046 0.950 . S
C1072 C1068 1.385 . S
C1072 C1071 1.374 . S
C1073 C1070 1.499 . S
C1073 C1074 1.373 . S
C1073 C1075 1.389 . S
C1074 H1047 0.950 . S
C1074 C1060 1.378 . S
C1074 C1073 1.373 . S
C1075 C1059 1.377 . S
C1075 C1073 1.389 . S
C1075 C1076 1.524 1_556 S
C1076 C1075 1.524 1_554 S
C1076 C1077 1.397 1_554 S
C1076 C1081 1.363 . S
C1077 H1048 0.950 . S
C1077 C1076 1.397 1_556 S
C1077 C1078 1.334 1_556 S
C1078 H1049 0.950 . S
C1078 C1077 1.334 1_554 S
C1078 C1079 1.287 . S
C1079 C1078 1.287 . S
C1079 C1080 1.524 . S
C1079 H1082 0.999 . S
C1080 H1050 0.950 1_545 S
C1080 C1079 1.524 . S
C1080 C1081 1.415 . S
C1081 H1051 0.950 1_545 S
C1081 C1076 1.363 . S
C1081 C1080 1.415 . S
H1082 C1079 0.999 . S
H1083 C1064 0.913 . S
H1084 C1102 0.951 . S
H1085 C1104 0.951 . S
H1086 C1106 0.950 . S
H1087 C1107 0.950 . S
H1088 C1109 0.950 1_554 S
H1089 C1112 0.950 . S
H1090 C1113 0.950 . S
H1091 C1115 0.950 . S
H1092 C1116 0.950 . S
H1093 C1117 0.951 . S
H1094 C1119 0.951 . S
H1095 C1121 0.950 . S
H1096 C1122 0.950 . S
H1097 C1124 0.950 . S
H1098 C1127 0.950 1_556 S
H1099 C1128 0.950 . S
H1100 C1130 0.950 . S
H1101 C1131 0.950 . S
C1102 H1084 0.951 . S
C1102 C1103 1.366 . S
C1102 C1104 1.388 1_554 S
C1103 C1102 1.366 . S
C1103 C1107 1.385 . S
C1104 H1085 0.951 . S
C1104 C1102 1.388 1_556 S
C1104 C1105 1.366 . S
C1105 C1104 1.366 . S
C1105 C1106 1.413 1_556 S
C1105 C1108 1.499 . S
C1106 H1086 0.950 . S
C1106 C1105 1.413 1_554 S
C1106 C1107 1.374 . S
C1107 H1087 0.950 . S
C1107 C1103 1.385 . S
C1107 C1106 1.374 . S
C1108 C1105 1.499 . S
C1108 C1109 1.373 . S
C1108 C1110 1.389 . S
C1109 H1088 0.950 1_556 S
C1109 C1108 1.373 . S
C1109 C1125 1.377 . S
C1110 C1108 1.389 . S
C1110 C1111 1.524 . S
C1110 C1124 1.377 . S
C1111 C1110 1.524 . S
C1111 C1112 1.397 . S
C1111 C1116 1.363 . S
C1112 H1089 0.950 . S
C1112 C1111 1.397 . S
C1112 C1113 1.334 . S
C1113 H1090 0.950 . S
C1113 C1112 1.334 . S
C1113 C1114 1.287 . S
C1114 C1113 1.287 . S
C1114 C1115 1.524 . S
C1114 H1133 0.913 . S
C1115 H1091 0.950 . S
C1115 C1114 1.524 . S
C1115 C1116 1.415 . S
C1116 H1092 0.950 . S
C1116 C1111 1.363 . S
C1116 C1115 1.415 . S
C1117 H1093 0.951 . S
C1117 C1118 1.366 . S
C1117 C1119 1.388 . S
C1118 C1117 1.366 . S
C1118 C1122 1.385 . S
C1119 H1094 0.951 . S
C1119 C1117 1.388 . S
C1119 C1120 1.366 . S
C1120 C1119 1.366 . S
C1120 C1121 1.414 . S
C1120 C1123 1.499 . S
C1121 H1095 0.950 . S
C1121 C1120 1.414 . S
C1121 C1122 1.374 . S
C1122 H1096 0.950 . S
C1122 C1118 1.385 . S
C1122 C1121 1.374 . S
C1123 C1120 1.499 . S
C1123 C1124 1.373 . S
C1123 C1125 1.389 . S
C1124 H1097 0.950 . S
C1124 C1110 1.377 . S
C1124 C1123 1.373 . S
C1125 C1109 1.377 . S
C1125 C1123 1.389 . S
C1125 C1126 1.524 1_556 S
C1126 C1125 1.524 1_554 S
C1126 C1127 1.397 . S
C1126 C1131 1.363 . S
C1127 H1098 0.950 1_554 S
C1127 C1126 1.397 . S
C1127 C1128 1.334 . S
C1128 H1099 0.950 . S
C1128 C1127 1.334 . S
C1128 C1129 1.287 . S
C1129 C1128 1.287 . S
C1129 C1130 1.524 . S
C1129 H1132 0.999 . S
C1130 H1100 0.950 . S
C1130 C1129 1.524 . S
C1130 C1131 1.415 . S
C1131 H1101 0.950 . S
C1131 C1126 1.363 . S
C1131 C1130 1.415 . S
H1132 C1129 0.999 . S
H1133 C1114 0.913 . S
H1134 C1152 0.951 . S
H1135 C1154 0.951 . S
H1136 C1156 0.950 . S
H1137 C1157 0.950 1_556 S
H1138 C1159 0.950 . S
H1139 C1162 0.950 . S
H1140 C1163 0.950 . S
H1141 C1165 0.950 . S
H1142 C1166 0.950 . S
H1143 C1167 0.951 . S
H1144 C1169 0.951 . S
H1145 C1171 0.950 . S
H1146 C1172 0.950 . S
H1147 C1174 0.950 . S
H1148 C1177 0.950 . S
H1149 C1178 0.950 . S
H1150 C1180 0.950 . S
H1151 C1181 0.950 . S
C1152 H1134 0.951 . S
C1152 C1153 1.366 . S
C1152 C1154 1.388 . S
C1153 C1152 1.366 . S
C1153 C1157 1.385 . S
C1154 H1135 0.951 . S
C1154 C1152 1.388 . S
C1154 C1155 1.366 1_554 S
C1155 C1154 1.366 1_556 S
C1155 C1156 1.414 . S
C1155 C1158 1.499 . S
C1156 H1136 0.950 . S
C1156 C1155 1.414 . S
C1156 C1157 1.374 1_556 S
C1157 H1137 0.950 1_554 S
C1157 C1153 1.385 . S
C1157 C1156 1.374 1_554 S
C1158 C1155 1.499 . S
C1158 C1159 1.373 . S
C1158 C1160 1.389 . S
C1159 H1138 0.950 . S
C1159 C1158 1.373 . S
C1159 C1175 1.377 . S
C1160 C1158 1.389 . S
C1160 C1161 1.524 . S
C1160 C1174 1.377 . S
C1161 C1160 1.524 . S
C1161 C1162 1.397 . S
C1161 C1166 1.363 1_556 S
C1162 H1139 0.950 . S
C1162 C1161 1.397 . S
C1162 C1163 1.334 . S
C1163 H1140 0.950 . S
C1163 C1162 1.334 . S
C1163 C1164 1.287 . S
C1164 C1163 1.287 . S
C1164 C1165 1.524 1_556 S
C1164 H1183 0.913 1_556 S
C1165 H1141 0.950 . S
C1165 C1164 1.524 1_554 S
C1165 C1166 1.415 . S
C1166 H1142 0.950 . S
C1166 C1161 1.363 1_554 S
C1166 C1165 1.415 . S
C1167 H1143 0.951 . S
C1167 C1168 1.366 . S
C1167 C1169 1.388 . S
C1168 C1167 1.366 . S
C1168 C1172 1.385 . S
C1169 H1144 0.951 . S
C1169 C1167 1.388 . S
C1169 C1170 1.366 . S
C1170 C1169 1.366 . S
C1170 C1171 1.414 . S
C1170 C1173 1.499 . S
C1171 H1145 0.950 . S
C1171 C1170 1.414 . S
C1171 C1172 1.374 . S
C1172 H1146 0.950 . S
C1172 C1168 1.385 . S
C1172 C1171 1.374 . S
C1173 C1170 1.499 . S
C1173 C1174 1.373 . S
C1173 C1175 1.389 . S
C1174 H1147 0.950 . S
C1174 C1160 1.377 . S
C1174 C1173 1.373 . S
C1175 C1159 1.377 . S
C1175 C1173 1.389 . S
C1175 C1176 1.524 . S
C1176 C1175 1.524 . S
C1176 C1177 1.397 . S
C1176 C1181 1.363 . S
C1177 H1148 0.950 . S
C1177 C1176 1.397 . S
C1177 C1178 1.334 . S
C1178 H1149 0.950 . S
C1178 C1177 1.334 . S
C1178 C1179 1.287 . S
C1179 C1178 1.287 . S
C1179 C1180 1.524 . S
C1179 H1182 0.999 . S
C1180 H1150 0.950 . S
C1180 C1179 1.524 . S
C1180 C1181 1.415 . S
C1181 H1151 0.950 . S
C1181 C1176 1.363 . S
C1181 C1180 1.415 . S
H1182 C1179 0.999 . S
H1183 C1164 0.913 1_554 S
H1184 C1202 0.951 . S
H1185 C1204 0.951 . S
H1186 C1206 0.950 . S
H1187 C1207 0.950 . S
H1188 C1209 0.950 . S
H1189 C1212 0.950 1_655 S
H1190 C1213 0.950 . S
H1191 C1215 0.950 . S
H1192 C1216 0.950 . S
H1193 C1217 0.951 . S
H1194 C1219 0.951 . S
H1195 C1221 0.950 1_455 S
H1196 C1222 0.910 1_455 S
H1197 C1224 0.950 1_455 S
H1198 C1227 0.950 . S
H1199 C1228 0.950 . S
H1200 C1230 0.950 . S
H1201 C1231 0.950 . S
C1202 H1184 0.951 . S
C1202 C1203 1.366 . S
C1202 C1204 1.388 . S
C1203 C1202 1.366 . S
C1203 C1207 1.385 . S
C1204 H1185 0.951 . S
C1204 C1202 1.388 . S
C1204 C1205 1.366 . S
C1205 C1204 1.366 . S
C1205 C1206 1.414 . S
C1205 C1208 1.499 . S
C1206 H1186 0.950 . S
C1206 C1205 1.414 . S
C1206 C1207 1.374 . S
C1207 H1187 0.950 . S
C1207 C1203 1.385 . S
C1207 C1206 1.374 . S
C1208 C1205 1.499 . S
C1208 C1209 1.373 . S
C1208 C1210 1.389 . S
C1209 H1188 0.950 . S
C1209 C1208 1.373 . S
C1209 C1225 1.377 . S
C1210 C1208 1.389 . S
C1210 C1211 1.524 1_655 S
C1210 C1224 1.377 . S
C1211 C1210 1.524 1_455 S
C1211 C1212 1.397 . S
C1211 C1216 1.363 . S
C1212 H1189 0.950 1_455 S
C1212 C1211 1.397 . S
C1212 C1213 1.334 . S
C1213 H1190 0.950 . S
C1213 C1212 1.334 . S
C1213 C1214 1.287 . S
C1214 C1213 1.287 . S
C1214 C1215 1.524 . S
C1214 H1233 0.913 . S
C1215 H1191 0.950 . S
C1215 C1214 1.524 . S
C1215 C1216 1.415 . S
C1216 H1192 0.950 . S
C1216 C1211 1.363 . S
C1216 C1215 1.415 . S
C1217 H1193 0.951 . S
C1217 C1218 1.366 . S
C1217 C1219 1.388 . S
C1218 C1217 1.366 . S
C1218 C1222 1.419 . S
C1219 H1194 0.951 . S
C1219 C1217 1.388 . S
C1219 C1220 1.366 . S
C1220 C1219 1.366 . S
C1220 C1221 1.414 . S
C1220 C1223 1.499 . S
C1221 H1195 0.950 1_655 S
C1221 C1220 1.414 . S
C1221 C1222 1.381 . S
C1222 H1196 0.910 1_655 S
C1222 C1218 1.419 . S
C1222 C1221 1.381 . S
C1223 C1220 1.499 . S
C1223 C1224 1.373 . S
C1223 C1225 1.389 . S
C1224 H1197 0.950 1_655 S
C1224 C1210 1.377 . S
C1224 C1223 1.373 . S
C1225 C1209 1.377 . S
C1225 C1223 1.389 . S
C1225 C1226 1.524 . S
C1226 C1225 1.524 . S
C1226 C1227 1.397 . S
C1226 C1231 1.363 . S
C1227 H1198 0.950 . S
C1227 C1226 1.397 . S
C1227 C1228 1.334 . S
C1228 H1199 0.950 . S
C1228 C1227 1.334 . S
C1228 C1229 1.287 . S
C1229 C1228 1.287 . S
C1229 C1230 1.524 . S
C1229 H1232 0.999 . S
C1230 H1200 0.950 . S
C1230 C1229 1.524 . S
C1230 C1231 1.415 . S
C1231 H1201 0.950 . S
C1231 C1226 1.363 . S
C1231 C1230 1.415 . S
H1232 C1229 0.999 . S
H1233 C1214 0.913 . S
H1234 C1252 0.951 . S
H1235 C1254 0.951 . S
H1236 C1256 0.953 . S
H1237 C1257 0.950 . S
H1238 C1259 0.950 . S
H1239 C1262 0.950 . S
H1240 C1263 0.950 . S
H1241 C1265 0.950 . S
H1242 C1266 0.950 . S
H1243 C1267 0.951 . S
H1244 C1269 0.955 . S
H1245 C1271 0.950 . S
H1246 C1272 0.950 . S
H1247 C1274 0.950 . S
H1248 C1277 0.950 . S
H1249 C1278 0.950 . S
H1250 C1280 0.950 . S
H1251 C1281 0.950 . S
C1252 H1234 0.951 . S
C1252 C1253 1.368 . S
C1252 C1254 1.388 . S
C1253 C1252 1.368 . S
C1253 C1257 1.384 1_565 S
C1254 H1235 0.951 . S
C1254 C1252 1.388 . S
C1254 C1255 1.366 . S
C1255 C1254 1.366 . S
C1255 C1256 1.411 1_565 S
C1255 C1258 1.499 . S
C1256 H1236 0.953 . S
C1256 C1255 1.411 1_545 S
C1256 C1257 1.375 . S
C1257 H1237 0.950 . S
C1257 C1253 1.384 1_545 S
C1257 C1256 1.375 . S
C1258 C1255 1.499 . S
C1258 C1259 1.373 1_565 S
C1258 C1260 1.389 . S
C1259 H1238 0.950 . S
C1259 C1258 1.373 1_545 S
C1259 C1275 1.377 . S
C1260 C1258 1.389 . S
C1260 C1261 1.524 . S
C1260 C1274 1.377 . S
C1261 C1260 1.524 . S
C1261 C1262 1.397 . S
C1261 C1266 1.363 . S
C1262 H1239 0.950 . S
C1262 C1261 1.397 . S
C1262 C1263 1.334 . S
C1263 H1240 0.950 . S
C1263 C1262 1.334 . S
C1263 C1264 1.287 . S
C1264 C1263 1.287 . S
C1264 C1265 1.524 . S
C1264 H1283 0.913 . S
C1265 H1241 0.950 . S
C1265 C1264 1.524 . S
C1265 C1266 1.415 . S
C1266 H1242 0.950 . S
C1266 C1261 1.363 . S
C1266 C1265 1.415 . S
C1267 H1243 0.951 . S
C1267 C1268 1.366 . S
C1267 C1269 1.388 . S
C1268 C1267 1.366 . S
C1268 C1272 1.385 . S
C1269 H1244 0.955 . S
C1269 C1267 1.388 . S
C1269 C1270 1.366 . S
C1270 C1269 1.366 . S
C1270 C1271 1.414 . S
C1270 C1273 1.499 . S
C1271 H1245 0.950 . S
C1271 C1270 1.414 . S
C1271 C1272 1.374 . S
C1272 H1246 0.950 . S
C1272 C1268 1.385 . S
C1272 C1271 1.374 . S
C1273 C1270 1.499 . S
C1273 C1274 1.373 . S
C1273 C1275 1.389 1_565 S
C1274 H1247 0.950 . S
C1274 C1260 1.377 . S
C1274 C1273 1.373 . S
C1275 C1259 1.377 . S
C1275 C1273 1.389 1_545 S
C1275 C1276 1.524 . S
C1276 C1275 1.524 . S
C1276 C1277 1.397 . S
C1276 C1281 1.363 . S
C1277 H1248 0.950 . S
C1277 C1276 1.397 . S
C1277 C1278 1.334 . S
C1278 H1249 0.950 . S
C1278 C1277 1.334 . S
C1278 C1279 1.287 . S
C1279 C1278 1.287 . S
C1279 C1280 1.524 . S
C1279 H1282 0.999 . S
C1280 H1250 0.950 . S
C1280 C1279 1.524 . S
C1280 C1281 1.415 . S
C1281 H1251 0.950 . S
C1281 C1276 1.363 . S
C1281 C1280 1.415 . S
H1282 C1279 0.999 . S
H1283 C1264 0.913 . S
H1284 C1302 0.951 . S
H1285 C1304 0.951 . S
H1286 C1306 0.950 . S
H1287 C1307 0.950 . S
H1288 C1309 0.950 . S
H1289 C1312 0.950 . S
H1290 C1313 0.950 . S
H1291 C1315 0.950 . S
H1292 C1316 0.950 . S
H1293 C1317 0.951 . S
H1294 C1319 0.951 . S
H1295 C1321 0.950 . S
H1296 C1322 0.950 . S
H1297 C1324 0.950 . S
H1298 C1327 0.950 . S
H1299 C1328 0.950 . S
H1300 C1330 0.950 . S
H1301 C1331 0.950 . S
C1302 H1284 0.951 . S
C1302 C1303 1.366 . S
C1302 C1304 1.388 . S
C1303 C1302 1.366 . S
C1303 C1307 1.385 . S
C1304 H1285 0.951 . S
C1304 C1302 1.388 . S
C1304 C1305 1.366 . S
C1305 C1304 1.366 . S
C1305 C1306 1.414 . S
C1305 C1308 1.499 . S
C1306 H1286 0.950 . S
C1306 C1305 1.414 . S
C1306 C1307 1.374 . S
C1307 H1287 0.950 . S
C1307 C1303 1.385 . S
C1307 C1306 1.374 . S
C1308 C1305 1.499 . S
C1308 C1309 1.373 . S
C1308 C1310 1.389 . S
C1309 H1288 0.950 . S
C1309 C1308 1.373 . S
C1309 C1325 1.377 . S
C1310 C1308 1.389 . S
C1310 C1311 1.524 . S
C1310 C1324 1.377 . S
C1311 C1310 1.524 . S
C1311 C1312 1.397 . S
C1311 C1316 1.363 . S
C1312 H1289 0.950 . S
C1312 C1311 1.397 . S
C1312 C1313 1.334 . S
C1313 H1290 0.950 . S
C1313 C1312 1.334 . S
C1313 C1314 1.287 . S
C1314 C1313 1.287 . S
C1314 C1315 1.524 . S
C1314 H1333 0.913 . S
C1315 H1291 0.950 . S
C1315 C1314 1.524 . S
C1315 C1316 1.415 . S
C1316 H1292 0.950 . S
C1316 C1311 1.363 . S
C1316 C1315 1.415 . S
C1317 H1293 0.951 . S
C1317 C1318 1.366 . S
C1317 C1319 1.388 . S
C1318 C1317 1.366 . S
C1318 C1322 1.385 . S
C1319 H1294 0.951 . S
C1319 C1317 1.388 . S
C1319 C1320 1.366 . S
C1320 C1319 1.366 . S
C1320 C1321 1.414 . S
C1320 C1323 1.499 . S
C1321 H1295 0.950 . S
C1321 C1320 1.414 . S
C1321 C1322 1.374 . S
C1322 H1296 0.950 . S
C1322 C1318 1.385 . S
C1322 C1321 1.374 . S
C1323 C1320 1.499 . S
C1323 C1324 1.373 . S
C1323 C1325 1.389 . S
C1324 H1297 0.950 . S
C1324 C1310 1.377 . S
C1324 C1323 1.373 . S
C1325 C1309 1.377 . S
C1325 C1323 1.389 . S
C1325 C1326 1.524 . S
C1326 C1325 1.524 . S
C1326 C1327 1.397 . S
C1326 C1331 1.363 . S
C1327 H1298 0.950 . S
C1327 C1326 1.397 . S
C1327 C1328 1.334 . S
C1328 H1299 0.950 . S
C1328 C1327 1.334 . S
C1328 C1329 1.287 . S
C1329 C1328 1.287 . S
C1329 C1330 1.524 . S
C1329 H1332 0.999 . S
C1330 H1300 0.950 . S
C1330 C1329 1.524 . S
C1330 C1331 1.415 . S
C1331 H1301 0.950 . S
C1331 C1326 1.363 . S
C1331 C1330 1.415 . S
H1332 C1329 0.999 . S
H1333 C1314 0.913 . S
H1334 C1352 0.951 . S
H1335 C1354 0.951 . S
H1336 C1356 0.950 . S
H1337 C1357 0.950 . S
H1338 C1359 0.950 . S
H1339 C1362 0.950 . S
H1340 C1363 0.950 . S
H1341 C1365 0.950 . S
H1342 C1366 0.950 . S
H1343 C1367 0.951 . S
H1344 C1369 0.951 . S
H1345 C1371 0.950 . S
H1346 C1372 0.950 . S
H1347 C1374 0.950 . S
H1348 C1377 0.950 . S
H1349 C1378 0.950 . S
H1350 C1380 0.950 . S
H1351 C1381 0.950 . S
C1352 H1334 0.951 . S
C1352 C1353 1.366 . S
C1352 C1354 1.388 . S
C1353 C1352 1.366 . S
C1353 C1357 1.385 . S
C1354 H1335 0.951 . S
C1354 C1352 1.388 . S
C1354 C1355 1.366 . S
C1355 C1354 1.366 . S
C1355 C1356 1.414 . S
C1355 C1358 1.499 . S
C1356 H1336 0.950 . S
C1356 C1355 1.414 . S
C1356 C1357 1.374 . S
C1357 H1337 0.950 . S
C1357 C1353 1.385 . S
C1357 C1356 1.374 . S
C1358 C1355 1.499 . S
C1358 C1359 1.373 . S
C1358 C1360 1.389 . S
C1359 H1338 0.950 . S
C1359 C1358 1.373 . S
C1359 C1375 1.377 . S
C1360 C1358 1.389 . S
C1360 C1361 1.524 . S
C1360 C1374 1.377 . S
C1361 C1360 1.524 . S
C1361 C1362 1.397 . S
C1361 C1366 1.363 . S
C1362 H1339 0.950 . S
C1362 C1361 1.397 . S
C1362 C1363 1.334 . S
C1363 H1340 0.950 . S
C1363 C1362 1.334 . S
C1363 C1364 1.287 . S
C1364 C1363 1.287 . S
C1364 C1365 1.524 . S
C1364 H1383 0.913 . S
C1365 H1341 0.950 . S
C1365 C1364 1.524 . S
C1365 C1366 1.415 . S
C1366 H1342 0.950 . S
C1366 C1361 1.363 . S
C1366 C1365 1.415 . S
C1367 H1343 0.951 . S
C1367 C1368 1.366 . S
C1367 C1369 1.388 . S
C1368 C1367 1.366 . S
C1368 C1372 1.385 . S
C1369 H1344 0.951 . S
C1369 C1367 1.388 . S
C1369 C1370 1.366 . S
C1370 C1369 1.366 . S
C1370 C1371 1.414 . S
C1370 C1373 1.499 . S
C1371 H1345 0.950 . S
C1371 C1370 1.414 . S
C1371 C1372 1.374 . S
C1372 H1346 0.950 . S
C1372 C1368 1.385 . S
C1372 C1371 1.374 . S
C1373 C1370 1.499 . S
C1373 C1374 1.373 . S
C1373 C1375 1.389 . S
C1374 H1347 0.950 . S
C1374 C1360 1.377 . S
C1374 C1373 1.373 . S
C1375 C1359 1.377 . S
C1375 C1373 1.389 . S
C1375 C1376 1.524 . S
C1376 C1375 1.524 . S
C1376 C1377 1.397 . S
C1376 C1381 1.363 . S
C1377 H1348 0.950 . S
C1377 C1376 1.397 . S
C1377 C1378 1.334 . S
C1378 H1349 0.950 . S
C1378 C1377 1.334 . S
C1378 C1379 1.287 . S
C1379 C1378 1.287 . S
C1379 C1380 1.524 . S
C1379 H1382 0.999 . S
C1380 H1350 0.950 . S
C1380 C1379 1.524 . S
C1380 C1381 1.415 . S
C1381 H1351 0.950 . S
C1381 C1376 1.363 . S
C1381 C1380 1.415 . S
H1382 C1379 0.999 . S
H1383 C1364 0.913 . S
C203 N80 1.488 1_545 S
C218 C122 1.474 . S
C268 C142 1.533 . S
C253 N93 1.537 . S
C318 C162 1.467 . S
C303 N54 1.487 . S
C368 C182 1.533 . S
C353 N67 1.542 . S
C418 C123 1.467 . S
C403 N28 1.486 1_546 S
C453 N41 1.550 1_556 S
C468 C143 1.540 . S
C503 N2 1.486 1_556 S
C518 C163 1.466 . S
C553 N15 1.549 1_556 S
C568 C183 1.533 1_655 S
C618 C113 0.670 . S
C603 N70 0.643 . S
C668 C133 0.666 . S
C653 N83 0.641 1_545 S
C718 C153 0.669 . S
C703 N96 0.650 . S
C753 N57 0.644 . S
C768 C173 0.668 . S
C803 N18 0.648 1_556 S
C818 C116 0.672 1_455 S
C868 C136 0.665 . S
C853 N31 0.642 1_545 S
C918 C156 0.670 . S
C903 N44 0.650 1_556 S
C953 N5 0.644 . S
C968 C176 0.665 . S
C1003 N66 1.563 . S
C1018 C106 1.459 . S
C1053 N79 1.521 1_545 S
C1068 C126 1.417 . S
C1118 C146 1.460 . S
C1103 N92 1.561 . S
C1168 C166 1.416 . S
C1153 N53 1.521 . S
C1203 N14 1.572 . S
C1218 C108 1.466 . S
C1268 C128 1.418 . S
C1253 N27 1.522 . S
C1318 C148 1.460 . S
C1303 N40 1.570 . S
C1353 N1 1.517 . S
C1368 C168 1.414 . S
