# Generated by pormake.
# Topology tsx, (6,3)-cn, num edge types: 1
# Building blocks:
#     Node 0, Type 0, BuildingBlock: VOLQOD_clean_sbu_1, # of connection points: 6
#     Node 1, Type 0, BuildingBlock: VOLQOD_clean_sbu_1, # of connection points: 6
#     Node 2, Type 1, BuildingBlock: PAMTOO_clean_linker_0, # of connection points: 3
#     Node 3, Type 1, BuildingBlock: PAMTOO_clean_linker_0, # of connection points: 3
#     Node 4, Type 1, BuildingBlock: PAMTOO_clean_linker_0, # of connection points: 3
#     Node 5, Type 1, BuildingBlock: PAMTOO_clean_linker_0, # of connection points: 3
#     Edge 6, Type (0, 1), BuildingBlock: FUNLAD_clean_linker_0, # of connection points: 2
#     Edge 7, Type (0, 1), BuildingBlock: FUNLAD_clean_linker_0, # of connection points: 2
#     Edge 8, Type (0, 1), BuildingBlock: FUNLAD_clean_linker_0, # of connection points: 2
#     Edge 9, Type (0, 1), BuildingBlock: FUNLAD_clean_linker_0, # of connection points: 2
#     Edge 10, Type (0, 1), BuildingBlock: FUNLAD_clean_linker_0, # of connection points: 2
#     Edge 11, Type (0, 1), BuildingBlock: FUNLAD_clean_linker_0, # of connection points: 2
#     Edge 12, Type (0, 1), BuildingBlock: FUNLAD_clean_linker_0, # of connection points: 2
#     Edge 13, Type (0, 1), BuildingBlock: FUNLAD_clean_linker_0, # of connection points: 2
#     Edge 14, Type (0, 1), BuildingBlock: FUNLAD_clean_linker_0, # of connection points: 2
#     Edge 15, Type (0, 1), BuildingBlock: FUNLAD_clean_linker_0, # of connection points: 2
#     Edge 16, Type (0, 1), BuildingBlock: FUNLAD_clean_linker_0, # of connection points: 2
#     Edge 17, Type (0, 1), BuildingBlock: FUNLAD_clean_linker_0, # of connection points: 2
# Relax obj value: 0.054
# Max RMSD: 0.114
# Mean RMSD: 0.101
data_MOF--net-tsx--node1-VOLQOD_clean_sbu_1--node2-PAMTOO_clean_linker_0--edge1-FUNLAD_clean_linker_0
_symmetry_space_group_name_H-M    P1
_symmetry_Int_Tables_number       1
_symmetry_cell_setting            triclinic
loop_
_symmetry_equiv_pos_as_xyz
'x, y, z'
_cell_length_a     24.593668
_cell_length_b     25.25701
_cell_length_c     43.298402
_cell_angle_alpha  82.552143
_cell_angle_beta   89.98507
_cell_angle_gamma 90.250088
loop_
_atom_site_label
_atom_site_type_symbol
_atom_site_fract_x
_atom_site_fract_y
_atom_site_fract_z
_atom_type_partial_charge
O0 O 0.08849 0.98078 0.07891 0.0
Zn1 Zn 0.10624 0.98274 0.03313 0.0
O2 O 0.04062 0.99587 0.00767 0.0
Zn3 Zn 0.02378 0.93353 0.98708 0.0
Zn4 Zn 0.97958 0.01102 0.03419 0.0
Zn5 Zn 0.05296 0.05651 0.97571 0.0
O6 O 0.01997 0.95212 0.9404 0.0
O7 O 0.04995 0.0357 0.93241 0.0
O8 O 0.1423 0.91337 0.02569 0.0
O9 O 0.08253 0.87873 0.99539 0.0
O10 O 0.95227 0.90033 0.00171 0.0
O11 O 0.92088 0.95508 0.03367 0.0
O12 O 0.94561 0.08252 0.01933 0.0
O13 O 0.16018 0.04317 0.02308 0.0
O14 O 0.99489 0.11132 0.97752 0.0
O15 O 0.124 0.0928 0.98224 0.0
C16 C 0.04691 0.99504 0.09334 0.0
C17 C 0.03361 0.99351 0.92199 0.0
C18 C 0.91561 0.91366 0.01996 0.0
C19 C 0.12724 0.87605 0.01034 0.0
C20 C 0.95578 0.11728 0.99598 0.0
C21 C 0.16186 0.08371 0.00224 0.0
O22 O 0.00336 0.00988 0.07885 0.0
O23 O 0.56495 0.49138 0.58233 0.0
Zn24 Zn 0.59136 0.49256 0.53797 0.0
O25 O 0.53052 0.50272 0.50857 0.0
Zn26 Zn 0.52285 0.43965 0.48728 0.0
Zn27 Zn 0.46315 0.51369 0.53112 0.0
Zn28 Zn 0.54487 0.56459 0.47749 0.0
O29 O 0.52666 0.45843 0.44074 0.0
O30 O 0.548 0.54457 0.43384 0.0
O31 O 0.63264 0.42452 0.53371 0.0
O32 O 0.58311 0.38792 0.49914 0.0
O33 O 0.45172 0.40217 0.49758 0.0
O34 O 0.40899 0.45446 0.52706 0.0
O35 O 0.42786 0.58377 0.5146 0.0
O36 O 0.64427 0.55412 0.53017 0.0
O37 O 0.4849 0.61811 0.47752 0.0
O38 O 0.61399 0.60229 0.48713 0.0
C39 C 0.51958 0.50279 0.59405 0.0
C40 C 0.53817 0.50108 0.42288 0.0
C41 C 0.41032 0.41286 0.51326 0.0
C42 C 0.6239 0.38693 0.5173 0.0
C43 C 0.44146 0.62094 0.4932 0.0
C44 C 0.64852 0.59418 0.50915 0.0
O45 O 0.47791 0.51393 0.57698 0.0
H46 H 0.11941 0.95707 0.37945 0.0
H47 H 0.98466 0.06298 0.38714 0.0
H48 H 0.07358 0.00025 0.46883 0.0
H49 H 0.96355 0.01663 0.48677 0.0
C50 C 0.9492 0.0368 0.46388 0.0
O51 O 0.9928 0.06093 0.44755 0.0
H52 H 0.93059 0.00571 0.45108 0.0
C53 C 0.0939 0.97957 0.39344 0.0
C54 C 0.10192 0.97482 0.42581 0.0
C55 C 0.05185 0.01127 0.37909 0.0
C56 C 0.01729 0.0382 0.39765 0.0
C57 C 0.02545 0.03421 0.4299 0.0
C58 C 0.06774 0.00286 0.44388 0.0
H59 H 0.05013 0.12383 0.63068 0.0
H60 H 0.95047 0.98387 0.62833 0.0
H61 H 0.01166 0.06893 0.54314 0.0
H62 H 0.89834 0.03222 0.53895 0.0
C63 C 0.89889 0.99764 0.55764 0.0
O64 O 0.95169 0.98855 0.56765 0.0
H65 H 0.87292 0.00738 0.57718 0.0
C66 C 0.02917 0.09617 0.61758 0.0
C67 C 0.03403 0.10222 0.58498 0.0
C68 C -0.00046 0.05349 0.63356 0.0
C69 C 0.97412 0.01672 0.6165 0.0
C70 C 0.97799 0.02289 0.58395 0.0
C71 C 0.00853 0.065 0.56828 0.0
H72 H 0.61811 0.43467 0.88081 0.0
H73 H 0.48564 0.54305 0.88857 0.0
H74 H 0.58311 0.48984 0.96862 0.0
H75 H 0.48234 0.50544 0.98916 0.0
C76 C 0.46242 0.52627 0.96796 0.0
O77 O 0.50178 0.54967 0.94787 0.0
H78 H 0.43908 0.49608 0.95669 0.0
C79 C 0.59335 0.45784 0.89479 0.0
C80 C 0.60533 0.45722 0.92657 0.0
C81 C 0.55021 0.48826 0.8807 0.0
C82 C 0.51957 0.51976 0.89875 0.0
C83 C 0.53212 0.52058 0.9303 0.0
C84 C 0.57512 0.48986 0.94402 0.0
H85 H 0.56782 0.61072 0.12942 0.0
H86 H 0.465 0.47188 0.13127 0.0
H87 H 0.52912 0.54728 0.04439 0.0
H88 H 0.41888 0.50308 0.03726 0.0
C89 C 0.41756 0.47581 0.05953 0.0
O90 O 0.46943 0.46871 0.07134 0.0
H91 H 0.39106 0.49454 0.07592 0.0
C92 C 0.54617 0.58214 0.1173 0.0
C93 C 0.55157 0.58475 0.08481 0.0
C94 C 0.51528 0.54159 0.13447 0.0
C95 C 0.48941 0.50335 0.11864 0.0
C96 C 0.49433 0.50576 0.08626 0.0
C97 C 0.52557 0.54607 0.06942 0.0
C98 C 0.24194 0.12097 0.02832 0.0
C99 C 0.20576 0.12388 0.00301 0.0
C100 C 0.27828 0.1628 0.03117 0.0
C101 C 0.27908 0.20845 0.00876 0.0
C102 C 0.24553 0.20968 0.98248 0.0
C103 C 0.20904 0.16805 0.97969 0.0
C104 C 0.31252 0.25633 0.0125 0.0
C105 C 0.32539 0.27039 0.0406 0.0
C106 C 0.35126 0.32224 0.04493 0.0
C107 C 0.34418 0.34203 0.07353 0.0
C108 C 0.36556 0.39168 0.07822 0.0
C109 C 0.39435 0.42261 0.05433 0.0
H110 H 0.39039 0.33784 0.99952 0.0
C111 C 0.40346 0.40214 0.02618 0.0
C112 C 0.38212 0.35243 0.02145 0.0
H113 H 0.427 0.42466 0.00781 0.0
H114 H 0.24097 0.08726 0.04653 0.0
H115 H 0.30503 0.15951 0.05116 0.0
H116 H 0.24588 0.244 0.96464 0.0
H117 H 0.18222 0.17138 0.9597 0.0
H118 H 0.32135 0.28352 0.99157 0.0
H119 H 0.31194 0.24529 0.0615 0.0
H120 H 0.32126 0.31938 0.09218 0.0
H121 H 0.35925 0.40618 0.10042 0.0
C122 C 0.2163 0.82817 0.02054 0.0
C123 C 0.16336 0.82978 0.00819 0.0
C124 C 0.25152 0.78634 0.01612 0.0
C125 C 0.2343 0.74503 0.99935 0.0
C126 C 0.18099 0.74624 0.98772 0.0
C127 C 0.14596 0.78789 0.9921 0.0
C128 C 0.27064 0.70145 0.99183 0.0
C129 C 0.31894 0.68888 0.00555 0.0
C130 C 0.35462 0.64612 0.99626 0.0
C131 C 0.41082 0.64865 0.00177 0.0
C132 C 0.44574 0.61009 0.99245 0.0
C133 C 0.42502 0.56818 0.97753 0.0
H134 H 0.29068 0.59786 0.97885 0.0
C135 C 0.36876 0.56451 0.97292 0.0
C136 C 0.33386 0.60287 0.98228 0.0
H137 H 0.35167 0.53174 0.9622 0.0
H138 H 0.2311 0.85994 0.03293 0.0
H139 H 0.29242 0.78778 0.02508 0.0
H140 H 0.16647 0.7151 0.97473 0.0
H141 H 0.10545 0.78761 0.98231 0.0
H142 H 0.25669 0.67924 0.97348 0.0
H143 H 0.33416 0.71138 0.02343 0.0
H144 H 0.42789 0.68093 0.01293 0.0
H145 H 0.48895 0.613 0.99682 0.0
C146 C 0.85937 0.83393 0.01093 0.0
C147 C 0.8661 0.88011 0.02555 0.0
C148 C 0.8134 0.80145 0.01689 0.0
C149 C 0.77287 0.81464 0.03754 0.0
C150 C 0.77951 0.86098 0.05192 0.0
C151 C 0.82541 0.89344 0.04595 0.0
C152 C 0.72506 0.7797 0.04641 0.0
C153 C 0.70666 0.74151 0.02991 0.0
C154 C 0.66231 0.70384 0.04138 0.0
C155 C 0.66217 0.65218 0.03266 0.0
C156 C 0.62464 0.61389 0.0457 0.0
C157 C 0.58635 0.62676 0.06761 0.0
H158 H 0.61855 0.75771 0.06779 0.0
C159 C 0.58413 0.67943 0.0747 0.0
C160 C 0.6215 0.71765 0.06164 0.0
H161 H 0.55403 0.69084 0.09085 0.0
H162 H 0.89002 0.82231 0.99517 0.0
H163 H 0.81091 0.76544 0.00592 0.0
H164 H 0.74921 0.87197 0.06809 0.0
H165 H 0.82918 0.92869 0.05763 0.0
H166 H 0.70521 0.78513 0.06817 0.0
H167 H 0.7265 0.73512 0.00834 0.0
H168 H 0.69267 0.64071 0.01675 0.0
H169 H 0.62727 0.57363 0.03974 0.0
C170 C 0.87998 0.17603 0.01026 0.0
C171 C 0.91967 0.16399 0.98887 0.0
C172 C 0.8432 0.21766 0.0022 0.0
C173 C 0.8453 0.24767 0.97249 0.0
C174 C 0.88569 0.23641 0.95148 0.0
C175 C 0.92279 0.19542 0.95964 0.0
C176 C 0.80294 0.28703 0.9614 0.0
C177 C 0.77465 0.31554 0.98005 0.0
C178 C 0.73007 0.35116 0.96741 0.0
C179 C 0.72315 0.40121 0.9776 0.0
C180 C 0.68258 0.4359 0.96453 0.0
C181 C 0.64769 0.42057 0.94145 0.0
H182 H 0.6973 0.29604 0.93765 0.0
C183 C 0.65335 0.36934 0.93245 0.0
C184 C 0.69414 0.3352 0.94515 0.0
H185 H 0.62603 0.35535 0.9156 0.0
H186 H 0.87653 0.15257 0.03297 0.0
H187 H 0.81181 0.22462 0.01871 0.0
H188 H 0.88791 0.25877 0.92839 0.0
H189 H 0.95275 0.18727 0.94255 0.0
H190 H 0.79514 0.29323 0.93646 0.0
H191 H 0.78536 0.31422 0.00447 0.0
H192 H 0.75009 0.41405 0.995 0.0
H193 H 0.67935 0.47504 0.97202 0.0
C194 C 0.69614 0.68008 0.48957 0.0
C195 C 0.69195 0.63431 0.5117 0.0
C196 C 0.73313 0.72072 0.49375 0.0
C197 C 0.76654 0.71665 0.52035 0.0
C198 C 0.76446 0.66963 0.54152 0.0
C199 C 0.72749 0.62898 0.53735 0.0
C200 C 0.80273 0.76091 0.52739 0.0
C201 C 0.79308 0.81268 0.51698 0.0
C202 C 0.82463 0.85806 0.52678 0.0
C203 C 0.82127 0.90813 0.50851 0.0
C204 C 0.84648 0.95293 0.51805 0.0
C205 C 0.8758 0.94861 0.54605 0.0
H206 H 0.85622 0.81658 0.5703 0.0
C207 C 0.87929 0.8987 0.56442 0.0
C208 C 0.8541 0.85379 0.5549 0.0
H209 H 0.90053 0.89474 0.58651 0.0
H210 H 0.66999 0.68518 0.46928 0.0
H211 H 0.73498 0.75525 0.47617 0.0
H212 H 0.7902 0.66508 0.562 0.0
H213 H 0.72575 0.59411 0.55475 0.0
H214 H 0.83629 0.75037 0.54322 0.0
H215 H 0.75937 0.82307 0.50122 0.0
H216 H 0.79824 0.91283 0.487 0.0
H217 H 0.84204 0.99119 0.50387 0.0
C218 C 0.65123 0.29881 0.50178 0.0
C219 C 0.66322 0.34253 0.51771 0.0
C220 C 0.68971 0.25902 0.49963 0.0
C221 C 0.74149 0.26226 0.51308 0.0
C222 C 0.75261 0.30455 0.53027 0.0
C223 C 0.71397 0.34442 0.5325 0.0
C224 C 0.78456 0.22229 0.50957 0.0
C225 C 0.78708 0.195 0.48481 0.0
C226 C 0.8296 0.1551 0.4802 0.0
C227 C 0.81886 0.11811 0.45934 0.0
C228 C 0.85753 0.0801 0.45388 0.0
C229 C 0.90787 0.07834 0.46917 0.0
H230 H 0.89149 0.18282 0.51039 0.0
C231 C 0.91944 0.11605 0.48939 0.0
C232 C 0.88069 0.15403 0.49498 0.0
H233 H 0.95851 0.11599 0.50091 0.0
H234 H 0.61221 0.2955 0.49058 0.0
H235 H 0.6785 0.22586 0.48741 0.0
H236 H 0.79187 0.30757 0.54127 0.0
H237 H 0.72443 0.37737 0.54511 0.0
H238 H 0.81554 0.21666 0.52751 0.0
H239 H 0.75625 0.20168 0.4668 0.0
H240 H 0.78017 0.11835 0.44736 0.0
H241 H 0.84791 0.05178 0.4379 0.0
C242 C 0.31642 0.38664 0.53246 0.0
C243 C 0.36326 0.37564 0.51585 0.0
C244 C 0.2729 0.35055 0.5358 0.0
C245 C 0.27516 0.30263 0.52243 0.0
C246 C 0.32181 0.29189 0.50569 0.0
C247 C 0.36523 0.32801 0.50228 0.0
C248 C 0.23184 0.26114 0.52746 0.0
C249 C 0.18013 0.27139 0.53501 0.0
C250 C 0.13946 0.22869 0.54451 0.0
C251 C 0.09833 0.2388 0.5654 0.0
C252 C 0.06278 0.19821 0.57764 0.0
C253 C 0.06718 0.1467 0.56894 0.0
H254 H 0.17169 0.16916 0.5174 0.0
C255 C 0.10598 0.13737 0.54648 0.0
C256 C 0.14185 0.17796 0.53435 0.0
H257 H 0.11006 0.09812 0.53921 0.0
H258 H 0.31362 0.4228 0.54336 0.0
H259 H 0.23858 0.35974 0.54975 0.0
H260 H 0.32491 0.25511 0.49541 0.0
H261 H 0.40068 0.31812 0.48936 0.0
H262 H 0.24401 0.22033 0.52584 0.0
H263 H 0.16788 0.31216 0.53663 0.0
H264 H 0.09502 0.27769 0.57326 0.0
H265 H 0.03254 0.20681 0.59447 0.0
C266 C 0.35774 0.67323 0.50273 0.0
C267 C 0.40578 0.66799 0.48579 0.0
C268 C 0.32333 0.71686 0.49485 0.0
C269 C 0.33642 0.75629 0.46986 0.0
C270 C 0.38453 0.75109 0.45312 0.0
C271 C 0.41894 0.70769 0.46105 0.0
C272 C 0.29975 0.80154 0.45915 0.0
C273 C 0.26162 0.82055 0.47714 0.0
C274 C 0.2231 0.86351 0.46503 0.0
C275 C 0.17224 0.8658 0.47953 0.0
C276 C 0.13336 0.90304 0.4674 0.0
C277 C 0.14476 0.93894 0.44057 0.0
H278 H 0.27499 0.90275 0.42812 0.0
C279 C 0.19657 0.93845 0.42697 0.0
C280 C 0.23547 0.90142 0.43915 0.0
H281 H 0.20691 0.96655 0.40673 0.0
H282 H 0.34623 0.64323 0.52183 0.0
H283 H 0.28593 0.71845 0.50782 0.0
H284 H 0.39546 0.78062 0.43365 0.0
H285 H 0.45554 0.70501 0.44742 0.0
H286 H 0.30439 0.81926 0.43508 0.0
H287 H 0.25648 0.80269 0.50114 0.0
H288 H 0.16185 0.83754 0.4997 0.0
H289 H 0.09371 0.90242 0.47834 0.0
C290 C 0.0073 0.01786 0.14342 0.0
C291 C 0.04963 0.99556 0.12754 0.0
C292 C 0.01058 0.0199 0.17551 0.0
C293 C 0.05617 -0.0009 0.19261 0.0
C294 C 0.09825 0.97663 0.17666 0.0
C295 C 0.09511 0.97489 0.14458 0.0
C296 C 0.06275 0.00114 0.2267 0.0
C297 C 0.02322 0.0147 0.24582 0.0
C298 C 0.03144 0.01599 0.27983 0.0
C299 C 0.98603 0.01109 0.29974 0.0
C300 C 0.99231 0.01067 0.3319 0.0
C301 C 0.04424 0.0153 0.34483 0.0
H302 H 0.11902 0.02906 0.27823 0.0
C303 C 0.08945 0.02207 0.32483 0.0
C304 C 0.08318 0.02275 0.29273 0.0
H305 H 0.12984 0.02702 0.33405 0.0
H306 H 0.97183 0.03456 0.131 0.0
H307 H 0.97758 0.03865 0.1864 0.0
H308 H 0.134 0.96047 0.18905 0.0
H309 H 0.1285 0.95742 0.13316 0.0
H310 H 0.10208 0.98917 0.23654 0.0
H311 H 0.98251 0.02282 0.23694 0.0
H312 H 0.94562 0.0065 0.29046 0.0
H313 H 0.9567 0.00527 0.34672 0.0
C314 C 0.04474 0.03802 0.86711 0.0
C315 C 0.02909 0.99308 0.88787 0.0
C316 C 0.0391 0.03833 0.83498 0.0
C317 C 0.01712 0.99378 0.82282 0.0
C318 C 0.00266 0.94846 0.84352 0.0
C319 C 0.00835 0.94812 0.87568 0.0
C320 C 0.01037 0.99262 0.78875 0.0
C321 C 0.00407 0.03717 0.76827 0.0
C322 C -0.00071 0.03831 0.73385 0.0
C323 C 0.98788 0.08743 0.71593 0.0
C324 C 0.9865 0.09198 0.68348 0.0
C325 C -0.00361 0.04738 0.66806 0.0
H326 H 0.01772 0.95467 0.7309 0.0
C327 C 0.00628 0.9978 0.68582 0.0
C328 C 0.00805 0.99326 0.71836 0.0
H329 H 0.01464 0.96288 0.6745 0.0
H330 H 0.06146 0.07313 0.87563 0.0
H331 H 0.0528 0.0733 0.81986 0.0
H332 H 0.98629 0.91335 0.83481 0.0
H333 H -0.0039 0.9127 0.89096 0.0
H334 H 0.00876 0.95364 0.78088 0.0
H335 H 0.00169 0.07543 0.77708 0.0
H336 H 0.98084 0.12284 0.72705 0.0
H337 H 0.9782 0.13062 0.67039 0.0
C338 C 0.55796 0.48479 0.64809 0.0
C339 C 0.51553 0.50443 0.62812 0.0
C340 C 0.55469 0.48731 0.6801 0.0
C341 C 0.50889 0.50967 0.69291 0.0
C342 C 0.46683 0.52989 0.67295 0.0
C343 C 0.46982 0.52688 0.64095 0.0
C344 C 0.50503 0.51413 0.72676 0.0
C345 C 0.52755 0.478 0.74859 0.0
C346 C 0.52672 0.4818 0.78258 0.0
C347 C 0.53512 0.43506 0.80327 0.0
C348 C 0.54023 0.43706 0.83518 0.0
C349 C 0.53783 0.48606 0.84725 0.0
H350 H 0.51663 0.56783 0.77947 0.0
C351 C 0.52739 0.53279 0.82676 0.0
C352 C 0.52202 0.53076 0.79469 0.0
H353 H 0.52581 0.57119 0.83532 0.0
H354 H 0.59392 0.46758 0.639 0.0
H355 H 0.58867 0.47275 0.69461 0.0
H356 H 0.43136 0.54778 0.68217 0.0
H357 H 0.43657 0.54281 0.62624 0.0
H358 H 0.48123 0.54668 0.73376 0.0
H359 H 0.54666 0.44288 0.74136 0.0
H360 H 0.53875 0.39681 0.79465 0.0
H361 H 0.5472 0.40016 0.85038 0.0
C362 C 0.54265 0.54798 0.36813 0.0
C363 C 0.53858 0.50025 0.3887 0.0
C364 C 0.54088 0.54725 0.33591 0.0
C365 C 0.53499 0.49867 0.32353 0.0
C366 C 0.53245 0.45094 0.34405 0.0
C367 C 0.53379 0.45168 0.37626 0.0
C368 C 0.53294 0.49615 0.28944 0.0
C369 C 0.51314 0.53604 0.26885 0.0
C370 C 0.51172 0.53524 0.23452 0.0
C371 C 0.50512 0.58388 0.21519 0.0
C372 C 0.50519 0.58577 0.18282 0.0
C373 C 0.51158 0.5389 0.16891 0.0
H374 H 0.51984 0.44936 0.23446 0.0
C375 C 0.51642 0.4899 0.18817 0.0
C376 C 0.51639 0.48799 0.22061 0.0
H377 H 0.5215 0.45307 0.17818 0.0
H378 H 0.54678 0.58607 0.37689 0.0
H379 H 0.54492 0.58474 0.32085 0.0
H380 H 0.52859 0.41294 0.33514 0.0
H381 H 0.53096 0.41409 0.39139 0.0
H382 H 0.54746 0.45975 0.28151 0.0
H383 H 0.49803 0.57182 0.27735 0.0
H384 H 0.5007 0.62084 0.22515 0.0
H385 H 0.50037 0.62407 0.16864 0.0
loop_
_geom_bond_atom_site_label_1
_geom_bond_atom_site_label_2
_geom_bond_distance
_geom_bond_site_symmetry_2
_ccdc_geom_bond_type
O0 Zn1 1.953 1_565 S
O0 C16 1.225 1_565 S
Zn1 O0 1.953 1_545 S
Zn1 O2 1.951 . S
Zn1 O8 1.903 1_545 S
Zn1 O13 1.940 . S
O2 Zn1 1.951 . S
O2 Zn3 1.923 1_544 S
O2 Zn4 1.950 1_455 S
O2 Zn5 1.945 1_554 S
Zn3 O2 1.923 1_566 S
Zn3 O6 1.933 . S
Zn3 O9 1.941 . S
Zn3 O10 1.965 1_455 S
Zn4 O2 1.950 1_655 S
Zn4 O11 1.938 1_545 S
Zn4 O12 1.906 . S
Zn4 O22 1.953 . S
Zn5 O2 1.945 1_556 S
Zn5 O7 1.932 . S
Zn5 O14 1.977 1_455 S
Zn5 O15 1.910 . S
O6 Zn3 1.933 . S
O6 C17 1.226 1_565 S
O7 Zn5 1.932 . S
O7 C17 1.307 . S
O8 Zn1 1.903 1_565 S
O8 C19 1.253 . S
O9 Zn3 1.941 . S
O9 C19 1.283 1_556 S
O10 Zn3 1.965 1_655 S
O10 C18 1.303 1_556 S
O11 Zn4 1.938 1_565 S
O11 C18 1.247 . S
O12 Zn4 1.906 . S
O12 C20 1.304 1_554 S
O13 Zn1 1.940 . S
O13 C21 1.311 . S
O14 Zn5 1.977 1_655 S
O14 C20 1.272 . S
O15 Zn5 1.910 . S
O15 C21 1.231 1_556 S
C16 O0 1.225 1_545 S
C16 O22 1.298 1_455 S
C17 O6 1.226 1_545 S
C17 O7 1.307 . S
C18 O10 1.303 1_554 S
C18 O11 1.247 . S
C19 O8 1.253 . S
C19 O9 1.283 1_554 S
C20 O12 1.304 1_556 S
C20 O14 1.272 . S
C21 O13 1.311 . S
C21 O15 1.231 1_554 S
O22 Zn4 1.953 . S
O22 C16 1.298 1_655 S
O23 Zn24 1.953 . S
O23 C39 1.225 . S
Zn24 O23 1.953 . S
Zn24 O25 1.949 . S
Zn24 O31 1.919 . S
Zn24 O36 1.924 . S
O25 Zn24 1.949 . S
O25 Zn26 1.923 . S
O25 Zn27 1.950 . S
O25 Zn28 1.945 . S
Zn26 O25 1.923 . S
Zn26 O29 1.933 . S
Zn26 O32 1.941 . S
Zn26 O33 1.965 . S
Zn27 O25 1.950 . S
Zn27 O34 1.938 . S
Zn27 O35 1.906 . S
Zn27 O45 1.953 . S
Zn28 O25 1.945 . S
Zn28 O30 1.932 . S
Zn28 O37 1.977 . S
Zn28 O38 1.910 . S
O29 Zn26 1.933 . S
O29 C40 1.226 . S
O30 Zn28 1.932 . S
O30 C40 1.307 . S
O31 Zn24 1.919 . S
O31 C42 1.253 . S
O32 Zn26 1.941 . S
O32 C42 1.283 . S
O33 Zn26 1.965 . S
O33 C41 1.303 . S
O34 Zn27 1.938 . S
O34 C41 1.247 . S
O35 Zn27 1.906 . S
O35 C43 1.304 . S
O36 Zn24 1.924 . S
O36 C44 1.311 . S
O37 Zn28 1.977 . S
O37 C43 1.272 . S
O38 Zn28 1.910 . S
O38 C44 1.231 . S
C39 O23 1.225 . S
C39 O45 1.298 . S
C40 O29 1.226 . S
C40 O30 1.307 . S
C41 O33 1.303 . S
C41 O34 1.247 . S
C42 O31 1.253 . S
C42 O32 1.283 . S
C43 O35 1.304 . S
C43 O37 1.272 . S
C44 O36 1.311 . S
C44 O38 1.231 . S
O45 Zn27 1.953 . S
O45 C39 1.298 . S
H46 C53 0.929 . S
H47 C56 0.930 . S
H48 C58 0.929 . S
H49 C50 0.969 . S
C50 H49 0.969 . S
C50 O51 1.550 . S
C50 H52 0.973 . S
O51 C50 1.550 . S
O51 C57 1.412 . S
H52 C50 0.973 . S
C53 H46 0.929 . S
C53 C54 1.400 . S
C53 C55 1.364 . S
C54 C53 1.400 . S
C54 C58 1.377 . S
C55 C53 1.364 . S
C55 C56 1.374 1_465 S
C56 H47 0.930 . S
C56 C55 1.374 1_645 S
C56 C57 1.383 . S
C57 O51 1.412 . S
C57 C56 1.383 . S
C57 C58 1.394 1_645 S
C58 H48 0.929 . S
C58 C54 1.377 . S
C58 C57 1.394 1_465 S
H59 C66 0.929 . S
H60 C69 0.930 1_655 S
H61 C71 0.929 . S
H62 C63 0.969 . S
C63 H62 0.969 . S
C63 O64 1.550 . S
C63 H65 0.973 . S
O64 C63 1.550 . S
O64 C70 1.412 1_665 S
H65 C63 0.973 . S
C66 H59 0.929 . S
C66 C67 1.400 . S
C66 C68 1.364 . S
C67 C66 1.400 . S
C67 C71 1.377 . S
C68 C66 1.364 . S
C68 C69 1.374 1_545 S
C69 H60 0.930 1_455 S
C69 C68 1.374 1_565 S
C69 C70 1.383 1_565 S
C70 O64 1.412 1_445 S
C70 C69 1.383 1_545 S
C70 C71 1.394 . S
C71 H61 0.929 . S
C71 C67 1.377 . S
C71 C70 1.394 . S
H72 C79 0.929 . S
H73 C82 0.930 . S
H74 C84 0.929 . S
H75 C76 0.969 . S
C76 H75 0.969 . S
C76 O77 1.550 . S
C76 H78 0.973 . S
O77 C76 1.550 . S
O77 C83 1.412 . S
H78 C76 0.973 . S
C79 H72 0.929 . S
C79 C80 1.400 . S
C79 C81 1.364 . S
C80 C79 1.400 . S
C80 C84 1.377 . S
C81 C79 1.364 . S
C81 C82 1.374 . S
C82 H73 0.930 . S
C82 C81 1.374 . S
C82 C83 1.383 . S
C83 O77 1.412 . S
C83 C82 1.383 . S
C83 C84 1.394 . S
C84 H74 0.929 . S
C84 C80 1.377 . S
C84 C83 1.394 . S
H85 C92 0.929 . S
H86 C95 0.930 . S
H87 C97 0.929 . S
H88 C89 0.969 . S
C89 H88 0.969 . S
C89 O90 1.550 . S
C89 H91 0.973 . S
O90 C89 1.550 . S
O90 C96 1.412 . S
H91 C89 0.973 . S
C92 H85 0.929 . S
C92 C93 1.400 . S
C92 C94 1.364 . S
C93 C92 1.400 . S
C93 C97 1.377 . S
C94 C92 1.364 . S
C94 C95 1.374 . S
C95 H86 0.930 . S
C95 C94 1.374 . S
C95 C96 1.383 . S
C96 O90 1.412 . S
C96 C95 1.383 . S
C96 C97 1.394 . S
C97 H87 0.929 . S
C97 C93 1.377 . S
C97 C96 1.394 . S
C98 C99 1.386 . S
C98 C100 1.383 . S
C98 H114 0.951 . S
C99 C98 1.386 . S
C99 C103 1.383 1_554 S
C100 C98 1.383 . S
C100 C101 1.402 . S
C100 H115 0.951 . S
C101 C100 1.402 . S
C101 C102 1.368 1_554 S
C101 C104 1.481 . S
C102 C101 1.368 1_556 S
C102 C103 1.369 . S
C102 H116 0.957 . S
C103 C99 1.383 1_556 S
C103 C102 1.369 . S
C103 H117 0.950 . S
C104 C101 1.481 . S
C104 C105 1.297 . S
C104 H118 0.950 . S
C105 C104 1.297 . S
C105 C106 1.479 . S
C105 H119 0.950 . S
C106 C105 1.479 . S
C106 C107 1.375 . S
C106 C112 1.404 . S
C107 C106 1.375 . S
C107 C108 1.369 . S
C107 H120 0.950 . S
C108 C107 1.369 . S
C108 C109 1.392 . S
C108 H121 0.951 . S
C109 C108 1.392 . S
C109 C111 1.384 . S
H110 C112 0.949 . S
C111 C109 1.384 . S
C111 C112 1.385 . S
C111 H113 0.950 . S
C112 C106 1.404 . S
C112 H110 0.949 . S
C112 C111 1.385 . S
H113 C111 0.950 . S
H114 C98 0.951 . S
H115 C100 0.951 . S
H116 C102 0.957 . S
H117 C103 0.950 . S
H118 C104 0.950 . S
H119 C105 0.950 . S
H120 C107 0.950 . S
H121 C108 0.951 . S
C122 C123 1.386 1_554 S
C122 C124 1.383 . S
C122 H138 0.951 . S
C123 C122 1.386 1_556 S
C123 C127 1.383 . S
C124 C122 1.383 . S
C124 C125 1.402 1_554 S
C124 H139 0.951 . S
C125 C124 1.402 1_556 S
C125 C126 1.375 . S
C125 C128 1.481 . S
C126 C125 1.375 . S
C126 C127 1.367 . S
C126 H140 0.951 . S
C127 C123 1.383 . S
C127 C126 1.367 . S
C127 H141 0.950 . S
C128 C125 1.481 . S
C128 C129 1.297 . S
C128 H142 0.950 . S
C129 C128 1.297 . S
C129 C130 1.479 . S
C129 H143 0.969 . S
C130 C129 1.479 . S
C130 C131 1.375 . S
C130 C136 1.404 . S
C131 C130 1.375 . S
C131 C132 1.369 . S
C131 H144 0.950 1_556 S
C132 C131 1.369 . S
C132 C133 1.392 . S
C132 H145 0.951 . S
C133 C132 1.392 . S
C133 C135 1.384 . S
H134 C136 0.949 . S
C135 C133 1.384 . S
C135 C136 1.385 . S
C135 H137 0.950 . S
C136 C130 1.404 . S
C136 H134 0.949 . S
C136 C135 1.385 . S
H137 C135 0.950 . S
H138 C122 0.951 . S
H139 C124 0.951 . S
H140 C126 0.951 . S
H141 C127 0.950 . S
H142 C128 0.950 . S
H143 C129 0.969 . S
H144 C131 0.950 1_554 S
H145 C132 0.951 . S
C146 C147 1.386 . S
C146 C148 1.383 . S
C146 H162 0.951 . S
C147 C146 1.386 . S
C147 C151 1.383 . S
C148 C146 1.383 . S
C148 C149 1.402 . S
C148 H163 0.951 . S
C149 C148 1.402 . S
C149 C150 1.375 . S
C149 C152 1.481 . S
C150 C149 1.375 . S
C150 C151 1.367 . S
C150 H164 0.951 . S
C151 C147 1.383 . S
C151 C150 1.367 . S
C151 H165 0.950 . S
C152 C149 1.481 . S
C152 C153 1.297 . S
C152 H166 0.950 . S
C153 C152 1.297 . S
C153 C154 1.479 . S
C153 H167 0.950 . S
C154 C153 1.479 . S
C154 C155 1.375 . S
C154 C160 1.404 . S
C155 C154 1.375 . S
C155 C156 1.369 . S
C155 H168 0.950 . S
C156 C155 1.369 . S
C156 C157 1.392 . S
C156 H169 0.951 . S
C157 C156 1.392 . S
C157 C159 1.384 . S
H158 C160 0.949 . S
C159 C157 1.384 . S
C159 C160 1.385 . S
C159 H161 0.950 . S
C160 C154 1.404 . S
C160 H158 0.949 . S
C160 C159 1.385 . S
H161 C159 0.950 . S
H162 C146 0.951 . S
H163 C148 0.951 . S
H164 C150 0.951 . S
H165 C151 0.950 . S
H166 C152 0.950 . S
H167 C153 0.950 . S
H168 C155 0.950 . S
H169 C156 0.951 . S
C170 C171 1.386 . S
C170 C172 1.383 . S
C170 H186 0.951 1_556 S
C171 C170 1.386 . S
C171 C175 1.383 . S
C172 C170 1.383 . S
C172 C173 1.402 . S
C172 H187 0.951 . S
C173 C172 1.402 . S
C173 C174 1.375 . S
C173 C176 1.481 . S
C174 C173 1.375 . S
C174 C175 1.367 . S
C174 H188 0.951 . S
C175 C171 1.383 . S
C175 C174 1.367 . S
C175 H189 0.950 . S
C176 C173 1.481 . S
C176 C177 1.297 . S
C176 H190 0.950 . S
C177 C176 1.297 . S
C177 C178 1.479 . S
C177 H191 0.950 . S
C178 C177 1.479 . S
C178 C179 1.375 . S
C178 C184 1.404 . S
C179 C178 1.375 . S
C179 C180 1.369 . S
C179 H192 0.950 . S
C180 C179 1.369 . S
C180 C181 1.392 . S
C180 H193 0.951 . S
C181 C180 1.392 . S
C181 C183 1.384 . S
H182 C184 0.949 . S
C183 C181 1.384 . S
C183 C184 1.385 . S
C183 H185 0.950 . S
C184 C178 1.404 . S
C184 H182 0.949 . S
C184 C183 1.385 . S
H185 C183 0.950 . S
H186 C170 0.951 1_554 S
H187 C172 0.951 . S
H188 C174 0.951 . S
H189 C175 0.950 . S
H190 C176 0.950 . S
H191 C177 0.950 . S
H192 C179 0.950 . S
H193 C180 0.951 . S
C194 C195 1.386 . S
C194 C196 1.383 . S
C194 H210 0.951 . S
C195 C194 1.386 . S
C195 C199 1.383 . S
C196 C194 1.383 . S
C196 C197 1.402 . S
C196 H211 0.951 . S
C197 C196 1.402 . S
C197 C198 1.375 . S
C197 C200 1.481 . S
C198 C197 1.375 . S
C198 C199 1.367 . S
C198 H212 0.951 . S
C199 C195 1.383 . S
C199 C198 1.367 . S
C199 H213 0.950 . S
C200 C197 1.481 . S
C200 C201 1.297 . S
C200 H214 0.950 . S
C201 C200 1.297 . S
C201 C202 1.479 . S
C201 H215 0.950 . S
C202 C201 1.479 . S
C202 C203 1.375 . S
C202 C208 1.404 . S
C203 C202 1.375 . S
C203 C204 1.369 . S
C203 H216 0.950 . S
C204 C203 1.369 . S
C204 C205 1.392 . S
C204 H217 0.951 . S
C205 C204 1.392 . S
C205 C207 1.384 . S
H206 C208 0.949 . S
C207 C205 1.384 . S
C207 C208 1.385 . S
C207 H209 0.950 . S
C208 C202 1.404 . S
C208 H206 0.949 . S
C208 C207 1.385 . S
H209 C207 0.950 . S
H210 C194 0.951 . S
H211 C196 0.951 . S
H212 C198 0.951 . S
H213 C199 0.950 . S
H214 C200 0.950 . S
H215 C201 0.950 . S
H216 C203 0.950 . S
H217 C204 0.951 . S
C218 C219 1.386 . S
C218 C220 1.383 . S
C218 H234 0.951 . S
C219 C218 1.386 . S
C219 C223 1.383 . S
C220 C218 1.383 . S
C220 C221 1.402 . S
C220 H235 0.951 . S
C221 C220 1.402 . S
C221 C222 1.375 . S
C221 C224 1.481 . S
C222 C221 1.375 . S
C222 C223 1.367 . S
C222 H236 0.951 . S
C223 C219 1.383 . S
C223 C222 1.367 . S
C223 H237 0.950 . S
C224 C221 1.481 . S
C224 C225 1.297 . S
C224 H238 0.950 . S
C225 C224 1.297 . S
C225 C226 1.479 . S
C225 H239 0.950 . S
C226 C225 1.479 . S
C226 C227 1.375 . S
C226 C232 1.404 . S
C227 C226 1.375 . S
C227 C228 1.369 . S
C227 H240 0.950 . S
C228 C227 1.369 . S
C228 C229 1.392 . S
C228 H241 0.951 . S
C229 C228 1.392 . S
C229 C231 1.384 . S
H230 C232 0.949 . S
C231 C229 1.384 . S
C231 C232 1.385 . S
C231 H233 0.950 . S
C232 C226 1.404 . S
C232 H230 0.949 . S
C232 C231 1.385 . S
H233 C231 0.950 . S
H234 C218 0.951 . S
H235 C220 0.951 . S
H236 C222 0.951 . S
H237 C223 0.950 . S
H238 C224 0.950 . S
H239 C225 0.950 . S
H240 C227 0.950 . S
H241 C228 0.951 . S
C242 C243 1.386 . S
C242 C244 1.383 . S
C242 H258 0.951 . S
C243 C242 1.386 . S
C243 C247 1.383 . S
C244 C242 1.383 . S
C244 C245 1.402 . S
C244 H259 0.951 . S
C245 C244 1.402 . S
C245 C246 1.375 . S
C245 C248 1.481 . S
C246 C245 1.375 . S
C246 C247 1.367 . S
C246 H260 0.951 . S
C247 C243 1.383 . S
C247 C246 1.367 . S
C247 H261 0.950 . S
C248 C245 1.481 . S
C248 C249 1.297 . S
C248 H262 0.950 . S
C249 C248 1.297 . S
C249 C250 1.479 . S
C249 H263 0.950 . S
C250 C249 1.479 . S
C250 C251 1.375 . S
C250 C256 1.404 . S
C251 C250 1.375 . S
C251 C252 1.369 . S
C251 H264 0.950 . S
C252 C251 1.369 . S
C252 C253 1.392 . S
C252 H265 0.951 . S
C253 C252 1.392 . S
C253 C255 1.384 . S
H254 C256 0.949 . S
C255 C253 1.384 . S
C255 C256 1.385 . S
C255 H257 0.950 . S
C256 C250 1.404 . S
C256 H254 0.949 . S
C256 C255 1.385 . S
H257 C255 0.950 . S
H258 C242 0.951 . S
H259 C244 0.951 . S
H260 C246 0.951 . S
H261 C247 0.950 . S
H262 C248 0.950 . S
H263 C249 0.950 . S
H264 C251 0.950 . S
H265 C252 0.951 . S
C266 C267 1.386 . S
C266 C268 1.383 . S
C266 H282 0.951 . S
C267 C266 1.386 . S
C267 C271 1.383 . S
C268 C266 1.383 . S
C268 C269 1.402 . S
C268 H283 0.951 . S
C269 C268 1.402 . S
C269 C270 1.375 . S
C269 C272 1.481 . S
C270 C269 1.375 . S
C270 C271 1.367 . S
C270 H284 0.951 . S
C271 C267 1.383 . S
C271 C270 1.367 . S
C271 H285 0.950 . S
C272 C269 1.481 . S
C272 C273 1.297 . S
C272 H286 0.950 . S
C273 C272 1.297 . S
C273 C274 1.479 . S
C273 H287 0.950 . S
C274 C273 1.479 . S
C274 C275 1.375 . S
C274 C280 1.404 . S
C275 C274 1.375 . S
C275 C276 1.369 . S
C275 H288 0.950 . S
C276 C275 1.369 . S
C276 C277 1.392 . S
C276 H289 0.951 . S
C277 C276 1.392 . S
C277 C279 1.384 . S
H278 C280 0.949 . S
C279 C277 1.384 . S
C279 C280 1.385 . S
C279 H281 0.950 . S
C280 C274 1.404 . S
C280 H278 0.949 . S
C280 C279 1.385 . S
H281 C279 0.950 . S
H282 C266 0.951 . S
H283 C268 0.951 . S
H284 C270 0.951 . S
H285 C271 0.950 . S
H286 C272 0.950 . S
H287 C273 0.950 . S
H288 C275 0.950 . S
H289 C276 0.951 . S
C290 C291 1.386 1_645 S
C290 C292 1.383 . S
C290 H306 0.951 . S
C291 C290 1.386 1_465 S
C291 C295 1.383 . S
C292 C290 1.383 . S
C292 C293 1.402 1_645 S
C292 H307 0.951 . S
C293 C292 1.402 1_465 S
C293 C294 1.375 . S
C293 C296 1.481 . S
C294 C293 1.375 . S
C294 C295 1.367 . S
C294 H308 0.951 . S
C295 C291 1.383 . S
C295 C294 1.367 . S
C295 H309 0.950 . S
C296 C293 1.481 . S
C296 C297 1.297 . S
C296 H310 0.950 . S
C297 C296 1.297 . S
C297 C298 1.479 . S
C297 H311 0.950 1_455 S
C298 C297 1.479 . S
C298 C299 1.375 1_465 S
C298 C304 1.404 . S
C299 C298 1.375 1_645 S
C299 C300 1.369 . S
C299 H312 0.950 . S
C300 C299 1.369 . S
C300 C301 1.392 1_645 S
C300 H313 0.951 . S
C301 C300 1.392 1_465 S
C301 C303 1.384 . S
H302 C304 0.949 . S
C303 C301 1.384 . S
C303 C304 1.385 . S
C303 H305 0.950 . S
C304 C298 1.404 . S
C304 H302 0.949 . S
C304 C303 1.385 . S
H305 C303 0.950 . S
H306 C290 0.951 . S
H307 C292 0.951 . S
H308 C294 0.951 . S
H309 C295 0.950 . S
H310 C296 0.950 . S
H311 C297 0.950 1_655 S
H312 C299 0.950 . S
H313 C300 0.951 . S
C314 C315 1.386 . S
C314 C316 1.383 . S
C314 H330 0.951 . S
C315 C314 1.386 . S
C315 C319 1.383 1_545 S
C316 C314 1.383 . S
C316 C317 1.402 . S
C316 H331 0.951 . S
C317 C316 1.402 . S
C317 C318 1.375 1_545 S
C317 C320 1.481 1_545 S
C318 C317 1.375 1_565 S
C318 C319 1.367 . S
C318 H332 0.951 . S
C319 C315 1.383 1_565 S
C319 C318 1.367 . S
C319 H333 0.950 . S
C320 C317 1.481 1_565 S
C320 C321 1.297 1_565 S
C320 H334 0.950 . S
C321 C320 1.297 1_545 S
C321 C322 1.479 . S
C321 H335 0.950 . S
C322 C321 1.479 . S
C322 C323 1.375 . S
C322 C328 1.404 1_545 S
C323 C322 1.375 . S
C323 C324 1.369 . S
C323 H336 0.950 . S
C324 C323 1.369 . S
C324 C325 1.392 . S
C324 H337 0.951 . S
C325 C324 1.392 . S
C325 C327 1.384 1_545 S
H326 C328 0.949 . S
C327 C325 1.384 1_565 S
C327 C328 1.385 . S
C327 H329 0.950 . S
C328 C322 1.404 1_565 S
C328 H326 0.949 . S
C328 C327 1.385 . S
H329 C327 0.950 . S
H330 C314 0.951 . S
H331 C316 0.951 . S
H332 C318 0.951 . S
H333 C319 0.950 . S
H334 C320 0.950 . S
H335 C321 0.950 . S
H336 C323 0.950 . S
H337 C324 0.951 . S
C338 C339 1.386 . S
C338 C340 1.383 . S
C338 H354 0.951 . S
C339 C338 1.386 . S
C339 C343 1.383 . S
C340 C338 1.383 . S
C340 C341 1.402 . S
C340 H355 0.951 . S
C341 C340 1.402 . S
C341 C342 1.375 . S
C341 C344 1.481 . S
C342 C341 1.375 . S
C342 C343 1.367 . S
C342 H356 0.951 . S
C343 C339 1.383 . S
C343 C342 1.367 . S
C343 H357 0.950 . S
C344 C341 1.481 . S
C344 C345 1.297 . S
C344 H358 0.950 . S
C345 C344 1.297 . S
C345 C346 1.479 . S
C345 H359 0.950 . S
C346 C345 1.479 . S
C346 C347 1.375 . S
C346 C352 1.404 . S
C347 C346 1.375 . S
C347 C348 1.369 . S
C347 H360 0.950 . S
C348 C347 1.369 . S
C348 C349 1.392 . S
C348 H361 0.951 . S
C349 C348 1.392 . S
C349 C351 1.384 . S
H350 C352 0.949 . S
C351 C349 1.384 . S
C351 C352 1.385 . S
C351 H353 0.950 . S
C352 C346 1.404 . S
C352 H350 0.949 . S
C352 C351 1.385 . S
H353 C351 0.950 . S
H354 C338 0.951 . S
H355 C340 0.951 . S
H356 C342 0.951 . S
H357 C343 0.950 . S
H358 C344 0.950 . S
H359 C345 0.950 . S
H360 C347 0.950 . S
H361 C348 0.951 . S
C362 C363 1.386 . S
C362 C364 1.383 . S
C362 H378 0.951 . S
C363 C362 1.386 . S
C363 C367 1.383 . S
C364 C362 1.383 . S
C364 C365 1.402 . S
C364 H379 0.951 . S
C365 C364 1.402 . S
C365 C366 1.375 . S
C365 C368 1.481 . S
C366 C365 1.375 . S
C366 C367 1.367 . S
C366 H380 0.951 . S
C367 C363 1.383 . S
C367 C366 1.367 . S
C367 H381 0.950 . S
C368 C365 1.481 . S
C368 C369 1.297 . S
C368 H382 0.950 . S
C369 C368 1.297 . S
C369 C370 1.479 . S
C369 H383 0.950 . S
C370 C369 1.479 . S
C370 C371 1.375 . S
C370 C376 1.404 . S
C371 C370 1.375 . S
C371 C372 1.369 . S
C371 H384 0.950 . S
C372 C371 1.369 . S
C372 C373 1.392 . S
C372 H385 0.951 . S
C373 C372 1.392 . S
C373 C375 1.384 . S
H374 C376 0.949 . S
C375 C373 1.384 . S
C375 C376 1.385 . S
C375 H377 0.950 . S
C376 C370 1.404 . S
C376 H374 0.949 . S
C376 C375 1.385 . S
H377 C375 0.950 . S
H378 C362 0.951 . S
H379 C364 0.951 . S
H380 C366 0.951 . S
H381 C367 0.950 . S
H382 C368 0.950 . S
H383 C369 0.950 . S
H384 C371 0.950 . S
H385 C372 0.951 . S
C109 C89 1.312 . S
C99 C21 1.383 . S
C123 C19 1.384 1_556 S
C133 C76 1.306 . S
C147 C18 1.488 . S
C157 C93 1.477 . S
C171 C20 1.520 . S
C181 C80 1.487 . S
C195 C44 1.404 . S
C205 C63 1.247 . S
C219 C42 1.381 . S
C229 C50 1.355 . S
C253 C67 1.509 . S
C243 C41 1.479 . S
C277 C54 1.509 . S
C267 C43 1.509 . S
C291 C16 1.526 1_565 S
C301 C55 1.509 . S
C315 C17 1.486 . S
C325 C68 1.472 . S
C349 C81 1.498 . S
C339 C39 1.522 . S
C363 C40 1.487 . S
C373 C94 1.469 . S
