# Generated by pormake.
# Topology bwt, (3,3)-cn, num edge types: 1
# Building blocks:
#     Node 0, Type 0, BuildingBlock: WUSLED_clean_sbu_0, # of connection points: 3
#     Node 1, Type 0, BuildingBlock: WUSLED_clean_sbu_0, # of connection points: 3
#     Node 2, Type 0, BuildingBlock: WUSLED_clean_sbu_0, # of connection points: 3
#     Node 3, Type 0, BuildingBlock: WUSLED_clean_sbu_0, # of connection points: 3
#     Node 4, Type 0, BuildingBlock: WUSLED_clean_sbu_0, # of connection points: 3
#     Node 5, Type 0, BuildingBlock: WUSLED_clean_sbu_0, # of connection points: 3
#     Node 6, Type 0, BuildingBlock: WUSLED_clean_sbu_0, # of connection points: 3
#     Node 7, Type 0, BuildingBlock: WUSLED_clean_sbu_0, # of connection points: 3
#     Node 8, Type 0, BuildingBlock: WUSLED_clean_sbu_0, # of connection points: 3
#     Node 9, Type 0, BuildingBlock: WUSLED_clean_sbu_0, # of connection points: 3
#     Node 10, Type 0, BuildingBlock: WUSLED_clean_sbu_0, # of connection points: 3
#     Node 11, Type 0, BuildingBlock: WUSLED_clean_sbu_0, # of connection points: 3
#     Node 12, Type 0, BuildingBlock: WUSLED_clean_sbu_0, # of connection points: 3
#     Node 13, Type 0, BuildingBlock: WUSLED_clean_sbu_0, # of connection points: 3
#     Node 14, Type 0, BuildingBlock: WUSLED_clean_sbu_0, # of connection points: 3
#     Node 15, Type 0, BuildingBlock: WUSLED_clean_sbu_0, # of connection points: 3
#     Node 16, Type 0, BuildingBlock: WUSLED_clean_sbu_0, # of connection points: 3
#     Node 17, Type 0, BuildingBlock: WUSLED_clean_sbu_0, # of connection points: 3
#     Node 18, Type 0, BuildingBlock: WUSLED_clean_sbu_0, # of connection points: 3
#     Node 19, Type 0, BuildingBlock: WUSLED_clean_sbu_0, # of connection points: 3
#     Node 20, Type 0, BuildingBlock: WUSLED_clean_sbu_0, # of connection points: 3
#     Node 21, Type 0, BuildingBlock: WUSLED_clean_sbu_0, # of connection points: 3
#     Node 22, Type 0, BuildingBlock: WUSLED_clean_sbu_0, # of connection points: 3
#     Node 23, Type 0, BuildingBlock: WUSLED_clean_sbu_0, # of connection points: 3
#     Node 24, Type 1, BuildingBlock: QEWDON_clean_linker_0, # of connection points: 3
#     Node 25, Type 1, BuildingBlock: QEWDON_clean_linker_0, # of connection points: 3
#     Node 26, Type 1, BuildingBlock: QEWDON_clean_linker_0, # of connection points: 3
#     Node 27, Type 1, BuildingBlock: QEWDON_clean_linker_0, # of connection points: 3
#     Node 28, Type 1, BuildingBlock: QEWDON_clean_linker_0, # of connection points: 3
#     Node 29, Type 1, BuildingBlock: QEWDON_clean_linker_0, # of connection points: 3
#     Node 30, Type 1, BuildingBlock: QEWDON_clean_linker_0, # of connection points: 3
#     Node 31, Type 1, BuildingBlock: QEWDON_clean_linker_0, # of connection points: 3
#     Node 32, Type 1, BuildingBlock: QEWDON_clean_linker_0, # of connection points: 3
#     Node 33, Type 1, BuildingBlock: QEWDON_clean_linker_0, # of connection points: 3
#     Node 34, Type 1, BuildingBlock: QEWDON_clean_linker_0, # of connection points: 3
#     Node 35, Type 1, BuildingBlock: QEWDON_clean_linker_0, # of connection points: 3
#     Node 36, Type 1, BuildingBlock: QEWDON_clean_linker_0, # of connection points: 3
#     Node 37, Type 1, BuildingBlock: QEWDON_clean_linker_0, # of connection points: 3
#     Node 38, Type 1, BuildingBlock: QEWDON_clean_linker_0, # of connection points: 3
#     Node 39, Type 1, BuildingBlock: QEWDON_clean_linker_0, # of connection points: 3
#     Node 40, Type 1, BuildingBlock: QEWDON_clean_linker_0, # of connection points: 3
#     Node 41, Type 1, BuildingBlock: QEWDON_clean_linker_0, # of connection points: 3
#     Node 42, Type 1, BuildingBlock: QEWDON_clean_linker_0, # of connection points: 3
#     Node 43, Type 1, BuildingBlock: QEWDON_clean_linker_0, # of connection points: 3
#     Node 44, Type 1, BuildingBlock: QEWDON_clean_linker_0, # of connection points: 3
#     Node 45, Type 1, BuildingBlock: QEWDON_clean_linker_0, # of connection points: 3
#     Node 46, Type 1, BuildingBlock: QEWDON_clean_linker_0, # of connection points: 3
#     Node 47, Type 1, BuildingBlock: QEWDON_clean_linker_0, # of connection points: 3
#     Edge 48, Type (0, 1), BuildingBlock: MIFKUJ_clean_linker_0, # of connection points: 2
#     Edge 49, Type (0, 1), BuildingBlock: MIFKUJ_clean_linker_0, # of connection points: 2
#     Edge 50, Type (0, 1), BuildingBlock: MIFKUJ_clean_linker_0, # of connection points: 2
#     Edge 51, Type (0, 1), BuildingBlock: MIFKUJ_clean_linker_0, # of connection points: 2
#     Edge 52, Type (0, 1), BuildingBlock: MIFKUJ_clean_linker_0, # of connection points: 2
#     Edge 53, Type (0, 1), BuildingBlock: MIFKUJ_clean_linker_0, # of connection points: 2
#     Edge 54, Type (0, 1), BuildingBlock: MIFKUJ_clean_linker_0, # of connection points: 2
#     Edge 55, Type (0, 1), BuildingBlock: MIFKUJ_clean_linker_0, # of connection points: 2
#     Edge 56, Type (0, 1), BuildingBlock: MIFKUJ_clean_linker_0, # of connection points: 2
#     Edge 57, Type (0, 1), BuildingBlock: MIFKUJ_clean_linker_0, # of connection points: 2
#     Edge 58, Type (0, 1), BuildingBlock: MIFKUJ_clean_linker_0, # of connection points: 2
#     Edge 59, Type (0, 1), BuildingBlock: MIFKUJ_clean_linker_0, # of connection points: 2
#     Edge 60, Type (0, 1), BuildingBlock: MIFKUJ_clean_linker_0, # of connection points: 2
#     Edge 61, Type (0, 1), BuildingBlock: MIFKUJ_clean_linker_0, # of connection points: 2
#     Edge 62, Type (0, 1), BuildingBlock: MIFKUJ_clean_linker_0, # of connection points: 2
#     Edge 63, Type (0, 1), BuildingBlock: MIFKUJ_clean_linker_0, # of connection points: 2
#     Edge 64, Type (0, 1), BuildingBlock: MIFKUJ_clean_linker_0, # of connection points: 2
#     Edge 65, Type (0, 1), BuildingBlock: MIFKUJ_clean_linker_0, # of connection points: 2
#     Edge 66, Type (0, 1), BuildingBlock: MIFKUJ_clean_linker_0, # of connection points: 2
#     Edge 67, Type (0, 1), BuildingBlock: MIFKUJ_clean_linker_0, # of connection points: 2
#     Edge 68, Type (0, 1), BuildingBlock: MIFKUJ_clean_linker_0, # of connection points: 2
#     Edge 69, Type (0, 1), BuildingBlock: MIFKUJ_clean_linker_0, # of connection points: 2
#     Edge 70, Type (0, 1), BuildingBlock: MIFKUJ_clean_linker_0, # of connection points: 2
#     Edge 71, Type (0, 1), BuildingBlock: MIFKUJ_clean_linker_0, # of connection points: 2
#     Edge 72, Type (0, 1), BuildingBlock: MIFKUJ_clean_linker_0, # of connection points: 2
#     Edge 73, Type (0, 1), BuildingBlock: MIFKUJ_clean_linker_0, # of connection points: 2
#     Edge 74, Type (0, 1), BuildingBlock: MIFKUJ_clean_linker_0, # of connection points: 2
#     Edge 75, Type (0, 1), BuildingBlock: MIFKUJ_clean_linker_0, # of connection points: 2
#     Edge 76, Type (0, 1), BuildingBlock: MIFKUJ_clean_linker_0, # of connection points: 2
#     Edge 77, Type (0, 1), BuildingBlock: MIFKUJ_clean_linker_0, # of connection points: 2
#     Edge 78, Type (0, 1), BuildingBlock: MIFKUJ_clean_linker_0, # of connection points: 2
#     Edge 79, Type (0, 1), BuildingBlock: MIFKUJ_clean_linker_0, # of connection points: 2
#     Edge 80, Type (0, 1), BuildingBlock: MIFKUJ_clean_linker_0, # of connection points: 2
#     Edge 81, Type (0, 1), BuildingBlock: MIFKUJ_clean_linker_0, # of connection points: 2
#     Edge 82, Type (0, 1), BuildingBlock: MIFKUJ_clean_linker_0, # of connection points: 2
#     Edge 83, Type (0, 1), BuildingBlock: MIFKUJ_clean_linker_0, # of connection points: 2
#     Edge 84, Type (0, 1), BuildingBlock: MIFKUJ_clean_linker_0, # of connection points: 2
#     Edge 85, Type (0, 1), BuildingBlock: MIFKUJ_clean_linker_0, # of connection points: 2
#     Edge 86, Type (0, 1), BuildingBlock: MIFKUJ_clean_linker_0, # of connection points: 2
#     Edge 87, Type (0, 1), BuildingBlock: MIFKUJ_clean_linker_0, # of connection points: 2
#     Edge 88, Type (0, 1), BuildingBlock: MIFKUJ_clean_linker_0, # of connection points: 2
#     Edge 89, Type (0, 1), BuildingBlock: MIFKUJ_clean_linker_0, # of connection points: 2
#     Edge 90, Type (0, 1), BuildingBlock: MIFKUJ_clean_linker_0, # of connection points: 2
#     Edge 91, Type (0, 1), BuildingBlock: MIFKUJ_clean_linker_0, # of connection points: 2
#     Edge 92, Type (0, 1), BuildingBlock: MIFKUJ_clean_linker_0, # of connection points: 2
#     Edge 93, Type (0, 1), BuildingBlock: MIFKUJ_clean_linker_0, # of connection points: 2
#     Edge 94, Type (0, 1), BuildingBlock: MIFKUJ_clean_linker_0, # of connection points: 2
#     Edge 95, Type (0, 1), BuildingBlock: MIFKUJ_clean_linker_0, # of connection points: 2
#     Edge 96, Type (0, 1), BuildingBlock: MIFKUJ_clean_linker_0, # of connection points: 2
#     Edge 97, Type (0, 1), BuildingBlock: MIFKUJ_clean_linker_0, # of connection points: 2
#     Edge 98, Type (0, 1), BuildingBlock: MIFKUJ_clean_linker_0, # of connection points: 2
#     Edge 99, Type (0, 1), BuildingBlock: MIFKUJ_clean_linker_0, # of connection points: 2
#     Edge 100, Type (0, 1), BuildingBlock: MIFKUJ_clean_linker_0, # of connection points: 2
#     Edge 101, Type (0, 1), BuildingBlock: MIFKUJ_clean_linker_0, # of connection points: 2
#     Edge 102, Type (0, 1), BuildingBlock: MIFKUJ_clean_linker_0, # of connection points: 2
#     Edge 103, Type (0, 1), BuildingBlock: MIFKUJ_clean_linker_0, # of connection points: 2
#     Edge 104, Type (0, 1), BuildingBlock: MIFKUJ_clean_linker_0, # of connection points: 2
#     Edge 105, Type (0, 1), BuildingBlock: MIFKUJ_clean_linker_0, # of connection points: 2
#     Edge 106, Type (0, 1), BuildingBlock: MIFKUJ_clean_linker_0, # of connection points: 2
#     Edge 107, Type (0, 1), BuildingBlock: MIFKUJ_clean_linker_0, # of connection points: 2
#     Edge 108, Type (0, 1), BuildingBlock: MIFKUJ_clean_linker_0, # of connection points: 2
#     Edge 109, Type (0, 1), BuildingBlock: MIFKUJ_clean_linker_0, # of connection points: 2
#     Edge 110, Type (0, 1), BuildingBlock: MIFKUJ_clean_linker_0, # of connection points: 2
#     Edge 111, Type (0, 1), BuildingBlock: MIFKUJ_clean_linker_0, # of connection points: 2
#     Edge 112, Type (0, 1), BuildingBlock: MIFKUJ_clean_linker_0, # of connection points: 2
#     Edge 113, Type (0, 1), BuildingBlock: MIFKUJ_clean_linker_0, # of connection points: 2
#     Edge 114, Type (0, 1), BuildingBlock: MIFKUJ_clean_linker_0, # of connection points: 2
#     Edge 115, Type (0, 1), BuildingBlock: MIFKUJ_clean_linker_0, # of connection points: 2
#     Edge 116, Type (0, 1), BuildingBlock: MIFKUJ_clean_linker_0, # of connection points: 2
#     Edge 117, Type (0, 1), BuildingBlock: MIFKUJ_clean_linker_0, # of connection points: 2
#     Edge 118, Type (0, 1), BuildingBlock: MIFKUJ_clean_linker_0, # of connection points: 2
#     Edge 119, Type (0, 1), BuildingBlock: MIFKUJ_clean_linker_0, # of connection points: 2
# Relax obj value: 0.074
# Max RMSD: 0.183
# Mean RMSD: 0.072
data_MOF--net-bwt--node1-WUSLED_clean_sbu_0--node2-QEWDON_clean_linker_0--edge1-MIFKUJ_clean_linker_0
_symmetry_space_group_name_H-M    P1
_symmetry_Int_Tables_number       1
_symmetry_cell_setting            triclinic
loop_
_symmetry_equiv_pos_as_xyz
'x, y, z'
_cell_length_a     86.515507
_cell_length_b     86.516273
_cell_length_c     86.531142
_cell_angle_alpha  95.693305
_cell_angle_beta   95.691895
_cell_angle_gamma 95.684569
loop_
_atom_site_label
_atom_site_type_symbol
_atom_site_fract_x
_atom_site_fract_y
_atom_site_fract_z
_atom_type_partial_charge
C0 C 0.24704 0.59712 0.33652 0.0
C1 C 0.25918 0.58982 0.34373 0.0
C2 C 0.27616 0.59748 0.3243 0.0
C3 C 0.2736 0.59001 0.33769 0.0
C4 C 0.26394 0.60484 0.31717 0.0
C5 C 0.24951 0.60466 0.32324 0.0
U6 U 0.22144 0.58333 0.36625 0.0
O7 O 0.20496 0.59499 0.38002 0.0
O8 O 0.19677 0.5736 0.36432 0.0
C9 C 0.19294 0.58501 0.3739 0.0
C10 C 0.2318 0.59667 0.34278 0.0
C11 C 0.17852 0.59175 0.36892 0.0
C12 C 0.16214 0.60379 0.35006 0.0
C13 C 0.17628 0.59796 0.35458 0.0
C14 C 0.15249 0.5974 0.37424 0.0
C15 C 0.15004 0.60355 0.35985 0.0
C16 C 0.16656 0.59159 0.37871 0.0
C17 C 0.24102 0.55862 0.39575 0.0
C18 C 0.22856 0.54738 0.41665 0.0
C19 C 0.25547 0.54361 0.41329 0.0
C20 C 0.25477 0.5523 0.40053 0.0
C21 C 0.2424 0.54107 0.42156 0.0
C22 C 0.22789 0.55611 0.40385 0.0
C23 C 0.24079 0.56776 0.38233 0.0
O24 O 0.22369 0.58282 0.3411 0.0
O25 O 0.23201 0.6041 0.35682 0.0
O26 O 0.23997 0.58281 0.38548 0.0
O27 O 0.23173 0.5615 0.36973 0.0
H28 H 0.25745 0.58388 0.35397 0.0
H29 H 0.28264 0.58404 0.34335 0.0
H30 H 0.26557 0.61087 0.30697 0.0
H31 H 0.24028 0.61038 0.31755 0.0
H32 H 0.16071 0.60856 0.33897 0.0
H33 H 0.18541 0.5982 0.34687 0.0
H34 H 0.14338 0.59675 0.38196 0.0
H35 H 0.16804 0.58678 0.38979 0.0
H36 H 0.21835 0.54576 0.42285 0.0
H37 H 0.26622 0.53873 0.41658 0.0
H38 H 0.26499 0.55408 0.39436 0.0
H39 H 0.21718 0.56095 0.4003 0.0
C40 C 0.26299 0.40103 0.80114 0.0
C41 C 0.25103 0.40696 0.80897 0.0
C42 C 0.23145 0.39336 0.7887 0.0
C43 C 0.23539 0.40312 0.80283 0.0
C44 C 0.24351 0.38738 0.78096 0.0
C45 C 0.25915 0.39119 0.78714 0.0
U46 U 0.29335 0.42648 0.82958 0.0
O47 O 0.31502 0.42119 0.84267 0.0
O48 O 0.31592 0.43892 0.82618 0.0
C49 C 0.3239 0.43085 0.83562 0.0
C50 C 0.27946 0.40553 0.80723 0.0
C51 C 0.33783 0.42485 0.82984 0.0
C52 C 0.35151 0.41372 0.80891 0.0
C53 C 0.33768 0.41809 0.81438 0.0
C54 C 0.36555 0.42234 0.83443 0.0
C55 C 0.36567 0.41607 0.81881 0.0
C56 C 0.35178 0.4267 0.83986 0.0
C57 C 0.28 0.45692 0.85862 0.0
C58 C 0.29831 0.4775 0.87337 0.0
C59 C 0.27122 0.47473 0.87857 0.0
C60 C 0.26808 0.46193 0.86708 0.0
C61 C 0.28633 0.48278 0.88171 0.0
C62 C 0.29518 0.46465 0.86195 0.0
C63 C 0.27642 0.44396 0.84605 0.0
O64 O 0.28504 0.41965 0.80476 0.0
O65 O 0.28342 0.40229 0.82152 0.0
O66 O 0.27993 0.43026 0.84973 0.0
O67 O 0.28059 0.44711 0.83241 0.0
H68 H 0.25381 0.41469 0.81974 0.0
H69 H 0.22642 0.40809 0.80897 0.0
H70 H 0.24086 0.3797 0.77015 0.0
H71 H 0.26825 0.38654 0.78094 0.0
H72 H 0.35121 0.409 0.7968 0.0
H73 H 0.32699 0.41653 0.80647 0.0
H74 H 0.37617 0.42403 0.84244 0.0
H75 H 0.35208 0.43183 0.85185 0.0
H76 H 0.31012 0.48332 0.87567 0.0
H77 H 0.26172 0.47859 0.8847 0.0
H78 H 0.2563 0.45608 0.86464 0.0
H79 H 0.30456 0.46086 0.85559 0.0
C80 C 0.65323 0.99443 0.64112 0.0
C81 C 0.66641 0.00403 0.63813 0.0
C82 C 0.68293 0.99202 0.65693 0.0
C83 C 0.68108 0.00289 0.646 0.0
C84 C 0.66964 0.98243 0.65989 0.0
C85 C 0.65493 0.98364 0.65205 0.0
U86 U 0.63035 0.00664 0.60604 0.0
O87 O 0.60989 0.99518 0.5905 0.0
O88 O 0.60897 0.01835 0.60315 0.0
C89 C 0.60134 0.00657 0.59379 0.0
C90 C 0.6379 0.99531 0.6324 0.0
C91 C 0.58508 0.00214 0.59665 0.0
C92 C 0.56483 0.98475 0.60563 0.0
C93 C 0.58061 0.98878 0.60383 0.0
C94 C 0.55801 0.00748 0.59333 0.0
C95 C 0.55333 0.99399 0.60025 0.0
C96 C 0.57369 0.01147 0.59152 0.0
C97 C 0.65311 0.02626 0.57665 0.0
C98 C 0.6411 0.03006 0.55093 0.0
C99 C 0.66694 0.04295 0.5604 0.0
C100 C 0.66629 0.03618 0.57437 0.0
C101 C 0.65441 0.03984 0.54844 0.0
C102 C 0.64043 0.02338 0.56494 0.0
C103 C 0.65273 0.01898 0.59125 0.0
O104 O 0.63385 0.0095 0.63172 0.0
O105 O 0.63528 0.98661 0.61886 0.0
O106 O 0.64794 0.00394 0.58961 0.0
O107 O 0.64661 0.02687 0.60243 0.0
H108 H 0.66535 0.01238 0.62964 0.0
H109 H 0.69096 0.01062 0.64358 0.0
H110 H 0.67065 0.97378 0.66805 0.0
H111 H 0.6449 0.97604 0.65439 0.0
H112 H 0.5616 0.97427 0.61099 0.0
H113 H 0.58925 0.98143 0.60789 0.0
H114 H 0.54956 0.01508 0.5894 0.0
H115 H 0.57693 0.02185 0.58601 0.0
H116 H 0.63133 0.02724 0.54191 0.0
H117 H 0.67726 0.0506 0.55898 0.0
H118 H 0.67612 0.03863 0.58336 0.0
H119 H 0.6301 0.01581 0.56655 0.0
C120 C 0.84615 0.00764 0.25989 0.0
C121 C 0.83119 0.00552 0.25155 0.0
C122 C 0.81926 0.00802 0.27585 0.0
C123 C 0.81788 0.00579 0.25944 0.0
C124 C 0.83428 0.01019 0.28418 0.0
C125 C 0.84763 0.01002 0.27625 0.0
U126 U 0.86275 0.99283 0.22365 0.0
O127 O 0.88009 0.00347 0.20969 0.0
O128 O 0.88382 0.98151 0.21957 0.0
C129 C 0.8897 0.99289 0.21214 0.0
C130 C 0.86007 0.00646 0.25151 0.0
C131 C 0.90631 0.99879 0.21675 0.0
C132 C 0.93039 1.00019 0.23421 0.0
C133 C 0.91429 0.99579 0.23091 0.0
C134 C 0.93063 0.01124 0.20959 0.0
C135 C 0.93882 0.00774 0.22346 0.0
C136 C 0.91458 0.00676 0.20626 0.0
C137 C 0.832 0.96949 0.19239 0.0
C138 C 0.83688 0.95877 0.16651 0.0
C139 C 0.81124 0.95376 0.17521 0.0
C140 C 0.81656 0.9625 0.18949 0.0
C141 C 0.82128 0.95188 0.16349 0.0
C142 C 0.8422 0.96755 0.18088 0.0
C143 C 0.83706 0.97866 0.20754 0.0
O144 O 0.86415 0.99226 0.24914 0.0
O145 O 0.86026 0.01402 0.23906 0.0
O146 O 0.84186 0.9935 0.20714 0.0
O147 O 0.84585 0.97189 0.21751 0.0
H148 H 0.82979 0.00342 0.2389 0.0
H149 H 0.8065 0.00383 0.25269 0.0
H150 H 0.83571 0.01204 0.29683 0.0
H151 H 0.85907 0.01157 0.28288 0.0
H152 H 0.93631 0.99717 0.24494 0.0
H153 H 0.90821 0.98968 0.23925 0.0
H154 H 0.93666 0.01729 0.20118 0.0
H155 H 0.90866 0.00924 0.1953 0.0
H156 H 0.84486 0.95761 0.15769 0.0
H157 H 0.79927 0.94837 0.17339 0.0
H158 H 0.80858 0.96381 0.19831 0.0
H159 H 0.8542 0.97286 0.18299 0.0
C160 C 0.33449 0.24874 0.59595 0.0
C161 C 0.34159 0.2604 0.58798 0.0
C162 C 0.32351 0.27848 0.5967 0.0
C163 C 0.33615 0.27512 0.58833 0.0
C164 C 0.31649 0.26673 0.60472 0.0
C165 C 0.32193 0.25199 0.60433 0.0
U166 U 0.36354 0.22188 0.58279 0.0
O167 O 0.3759 0.20454 0.59459 0.0
O168 O 0.36071 0.19724 0.57266 0.0
C169 C 0.3696 0.19285 0.58428 0.0
C170 C 0.34016 0.23323 0.59548 0.0
C171 C 0.36387 0.17826 0.59036 0.0
C172 C 0.35215 0.16393 0.60993 0.0
C173 C 0.3566 0.17815 0.60418 0.0
C174 C 0.36194 0.1499 0.58797 0.0
C175 C 0.35497 0.14963 0.60197 0.0
C176 C 0.36634 0.16403 0.58227 0.0
C177 C 0.39488 0.23977 0.55878 0.0
C178 C 0.42272 0.23846 0.5575 0.0
C179 C 0.40627 0.24332 0.53458 0.0
C180 C 0.3933 0.24254 0.54302 0.0
C181 C 0.42116 0.2415 0.54178 0.0
C182 C 0.40972 0.23758 0.56592 0.0
C183 C 0.38118 0.24032 0.56772 0.0
O184 O 0.3386 0.22526 0.58156 0.0
O185 O 0.35393 0.23285 0.60327 0.0
O186 O 0.3836 0.23961 0.58287 0.0
O187 O 0.36817 0.23211 0.56117 0.0
H188 H 0.35136 0.25811 0.58149 0.0
H189 H 0.34196 0.28393 0.5822 0.0
H190 H 0.30662 0.26884 0.61111 0.0
H191 H 0.3163 0.24312 0.61053 0.0
H192 H 0.34686 0.16414 0.62076 0.0
H193 H 0.35456 0.18901 0.61061 0.0
H194 H 0.36398 0.13914 0.58135 0.0
H195 H 0.37187 0.16386 0.57156 0.0
H196 H 0.43402 0.23682 0.56331 0.0
H197 H 0.40471 0.24585 0.52254 0.0
H198 H 0.38203 0.24444 0.53728 0.0
H199 H 0.41137 0.23543 0.57806 0.0
C200 C 0.25551 0.84389 0.00686 0.0
C201 C 0.24787 0.83071 0.01233 0.0
C202 C 0.2699 0.81595 0.00787 0.0
C203 C 0.25502 0.81693 0.01289 0.0
C204 C 0.27765 0.82928 0.00274 0.0
C205 C 0.27055 0.84309 0.00231 0.0
U206 U 0.22148 0.86182 0.98808 0.0
O207 O 0.20699 0.87961 0.99678 0.0
O208 O 0.21987 0.88322 0.97657 0.0
C209 C 0.21094 0.88913 0.98656 0.0
C210 C 0.24753 0.85802 0.00468 0.0
C211 C 0.2153 0.90561 0.99268 0.0
C212 C 0.234 0.92685 0.00577 0.0
C213 C 0.23006 0.91091 1.0007 0.0
C214 C 0.20838 0.93218 0.99502 0.0
C215 C 0.22321 0.93769 0.00291 0.0
C216 C 0.20448 0.91632 0.98999 0.0
C217 C 0.19111 0.83331 0.96153 0.0
C218 C 0.17045 0.84128 0.94393 0.0
C219 C 0.17024 0.81414 0.94877 0.0
C220 C 0.18403 0.81788 0.95883 0.0
C221 C 0.16328 0.82577 0.94116 0.0
C222 C 0.18425 0.84502 0.95407 0.0
C223 C 0.20561 0.83689 0.97216 0.0
O224 O 0.24712 0.86242 0.99054 0.0
O225 O 0.23418 0.8587 0.01067 0.0
O226 O 0.20387 0.84141 0.98677 0.0
O227 O 0.21705 0.84521 0.96682 0.0
H228 H 0.23624 0.83088 0.0159 0.0
H229 H 0.24881 0.80702 0.01718 0.0
H230 H 0.28901 0.82894 0.99857 0.0
H231 H 0.27666 0.85305 0.99798 0.0
H232 H 0.24547 0.93068 0.01192 0.0
H233 H 0.23855 0.90276 0.0029 0.0
H234 H 0.19987 0.94018 0.99235 0.0
H235 H 0.19305 0.91242 0.98375 0.0
H236 H 0.16547 0.85049 0.93819 0.0
H237 H 0.16488 0.80216 0.94718 0.0
H238 H 0.18915 0.80873 0.96457 0.0
H239 H 0.18957 0.85702 0.95607 0.0
C240 C 0.79793 0.26612 0.39813 0.0
C241 C 0.79874 0.25483 0.40867 0.0
C242 C 0.78405 0.23522 0.38911 0.0
C243 C 0.79179 0.23953 0.40423 0.0
C244 C 0.78352 0.24653 0.3785 0.0
C245 C 0.79037 0.26186 0.383 0.0
U246 U 0.82673 0.29558 0.42463 0.0
O247 O 0.84128 0.31645 0.41947 0.0
O248 O 0.82398 0.3187 0.43628 0.0
C249 C 0.83415 0.32599 0.42841 0.0
C250 C 0.8049 0.28233 0.4028 0.0
C251 C 0.82934 0.33998 0.42166 0.0
C252 C 0.80923 0.35526 0.41156 0.0
C253 C 0.81366 0.3412 0.4164 0.0
C254 C 0.83618 0.36675 0.41651 0.0
C255 C 0.82041 0.36831 0.41186 0.0
C256 C 0.84057 0.35274 0.42139 0.0
C257 C 0.8533 0.28138 0.45673 0.0
C258 C 0.86961 0.29968 0.47621 0.0
C259 C 0.87073 0.27183 0.47649 0.0
C260 C 0.85954 0.26894 0.46342 0.0
C261 C 0.8758 0.28723 0.48312 0.0
C262 C 0.85847 0.29678 0.46312 0.0
C263 C 0.84118 0.2782 0.44332 0.0
O264 O 0.80193 0.28848 0.41656 0.0
O265 O 0.81959 0.28532 0.40033 0.0
O266 O 0.84578 0.28113 0.42978 0.0
O267 O 0.82772 0.28331 0.4457 0.0
H268 H 0.80467 0.25786 0.42037 0.0
H269 H 0.79258 0.23104 0.41259 0.0
H270 H 0.77754 0.2436 0.36682 0.0
H271 H 0.78968 0.27042 0.3747 0.0
H272 H 0.79698 0.35607 0.40816 0.0
H273 H 0.80478 0.33146 0.41645 0.0
H274 H 0.84514 0.37645 0.41661 0.0
H275 H 0.85274 0.352 0.42533 0.0
H276 H 0.87343 0.31168 0.4809 0.0
H277 H 0.87515 0.26199 0.48161 0.0
H278 H 0.85564 0.25698 0.45863 0.0
H279 H 0.8538 0.30653 0.45803 0.0
C280 C 0.63332 0.64899 0.99912 0.0
C281 C 0.62528 0.6623 0.99885 0.0
C282 C 0.64967 0.67874 0.99766 0.0
C283 C 0.63335 0.677 0.99806 0.0
C284 C 0.65767 0.66534 0.99813 0.0
C285 C 0.64956 0.65064 0.99882 0.0
U286 U 0.59875 0.62342 0.01032 0.0
O287 O 0.5844 0.60274 0.99755 0.0
O288 O 0.59725 0.6011 0.02046 0.0
C289 C 0.588 0.59374 0.00844 0.0
C290 C 0.62494 0.63341 0.99978 0.0
C291 C 0.59082 0.57766 0.00322 0.0
C292 C 0.60795 0.55728 0.99935 0.0
C293 C 0.60591 0.57312 0.00263 0.0
C294 C 0.57988 0.55058 0.99681 0.0
C295 C 0.59494 0.54582 0.99679 0.0
C296 C 0.57787 0.56633 0.99997 0.0
C297 C 0.56674 0.64106 0.03003 0.0
C298 C 0.54662 0.62396 0.03953 0.0
C299 C 0.54306 0.65115 0.03755 0.0
C300 C 0.55765 0.65348 0.03196 0.0
C301 C 0.53731 0.63634 0.04132 0.0
C302 C 0.56116 0.62629 0.03388 0.0
C303 C 0.58168 0.64334 0.02335 0.0
O304 O 0.62436 0.62902 0.01385 0.0
O305 O 0.61152 0.63026 0.9909 0.0
O306 O 0.58079 0.63965 0.00816 0.0
O307 O 0.59355 0.63802 0.03104 0.0
H308 H 0.61273 0.66132 0.99915 0.0
H309 H 0.62674 0.68696 0.99752 0.0
H310 H 0.67024 0.66622 0.99812 0.0
H311 H 0.656 0.64052 0.99914 0.0
H312 H 0.61969 0.55393 0.99946 0.0
H313 H 0.61607 0.58172 0.00513 0.0
H314 H 0.56964 0.54206 0.99464 0.0
H315 H 0.56613 0.56962 1.00036 0.0
H316 H 0.54265 0.61246 0.04246 0.0
H317 H 0.53612 0.66088 0.03849 0.0
H318 H 0.56172 0.66492 0.0289 0.0
H319 H 0.568 0.61652 0.03237 0.0
C320 C 0.59904 0.34317 0.25356 0.0
C321 C 0.59458 0.35206 0.26652 0.0
C322 C 0.59814 0.33075 0.28248 0.0
C323 C 0.5942 0.34594 0.28086 0.0
C324 C 0.60265 0.32191 0.26945 0.0
C325 C 0.60311 0.32808 0.25512 0.0
U326 U 0.58547 0.37275 0.22772 0.0
O327 O 0.59731 0.38667 0.2115 0.0
O328 O 0.57616 0.37078 0.20293 0.0
C329 C 0.5876 0.38046 0.19932 0.0
C330 C 0.59883 0.34941 0.23832 0.0
C331 C 0.59476 0.37544 0.18519 0.0
C332 C 0.60872 0.35725 0.17014 0.0
C333 C 0.60234 0.36183 0.18394 0.0
C334 C 0.6001 0.3799 0.15888 0.0
C335 C 0.60766 0.36624 0.15743 0.0
C336 C 0.59374 0.38444 0.17262 0.0
C337 C 0.56002 0.40195 0.2462 0.0
C338 C 0.54584 0.42004 0.23211 0.0
C339 C 0.5468 0.4214 0.2603 0.0
C340 C 0.55592 0.40897 0.26027 0.0
C341 C 0.54155 0.42704 0.24623 0.0
C342 C 0.55502 0.40758 0.2321 0.0
C343 C 0.56933 0.38866 0.24657 0.0
O344 O 0.5851 0.34759 0.22998 0.0
O345 O 0.6062 0.3635 0.23858 0.0
O346 O 0.58442 0.39197 0.24614 0.0
O347 O 0.5634 0.3759 0.23757 0.0
H348 H 0.59123 0.36369 0.2655 0.0
H349 H 0.59047 0.35298 0.29058 0.0
H350 H 0.60589 0.31023 0.27035 0.0
H351 H 0.60652 0.32104 0.24523 0.0
H352 H 0.61458 0.34675 0.16947 0.0
H353 H 0.60325 0.35476 0.19357 0.0
H354 H 0.59881 0.38696 0.14927 0.0
H355 H 0.58787 0.39494 0.17338 0.0
H356 H 0.54192 0.42403 0.22106 0.0
H357 H 0.54399 0.4267 0.2714 0.0
H358 H 0.55977 0.4048 0.27126 0.0
H359 H 0.55812 0.40228 0.22111 0.0
C360 C 0.0161 0.25924 0.84652 0.0
C361 C 0.01422 0.25078 0.83162 0.0
C362 C 0.01811 0.27491 0.81956 0.0
C363 C 0.01529 0.25852 0.81829 0.0
C364 C 0.02035 0.28333 0.83455 0.0
C365 C 0.01937 0.27554 0.84792 0.0
U366 U 0.99562 0.22516 0.86228 0.0
O367 O 0.00288 0.20971 0.87973 0.0
O368 O 0.98281 0.22296 0.8828 0.0
C369 C 0.99226 0.21359 0.88883 0.0
C370 C 0.0132 0.25117 0.86033 0.0
C371 C 0.99772 0.21744 0.90552 0.0
C372 C 0.01286 0.23422 0.9271 0.0
C373 C 0.00817 0.23074 0.91104 0.0
C374 C 0.99672 0.21112 0.93212 0.0
C375 C 0.00716 0.22444 0.93784 0.0
C376 C 0.99207 0.20767 0.91613 0.0
C377 C 0.96982 0.19664 0.83093 0.0
C378 C 0.95692 0.17147 0.83533 0.0
C379 C 0.95252 0.18115 0.81009 0.0
C380 C 0.96247 0.19468 0.81561 0.0
C381 C 0.94977 0.16929 0.81981 0.0
C382 C 0.96689 0.18506 0.84085 0.0
C383 C 0.98066 0.21075 0.83613 0.0
O384 O 0.99879 0.25087 0.86397 0.0
O385 O 0.01877 0.23758 0.86072 0.0
O386 O 0.99494 0.20841 0.84133 0.0
O387 O 0.97505 0.22183 0.84468 0.0
H388 H 0.01143 0.2382 0.83024 0.0
H389 H 0.01324 0.25171 0.80694 0.0
H390 H 0.02263 0.29596 0.83591 0.0
H391 H 0.02073 0.28228 0.85931 0.0
H392 H 0.021 0.2445 0.93109 0.0
H393 H 0.01264 0.23841 0.90297 0.0
H394 H 0.99185 0.2035 0.94003 0.0
H395 H 0.98392 0.19741 0.91206 0.0
H396 H 0.95513 0.1625 0.84306 0.0
H397 H 0.947 0.17996 0.79818 0.0
H398 H 0.96453 0.20357 0.80784 0.0
H399 H 0.97247 0.18645 0.85276 0.0
C400 C 0.40401 0.79836 0.26688 0.0
C401 C 0.41046 0.80533 0.25467 0.0
C402 C 0.39779 0.78386 0.2359 0.0
C403 C 0.40733 0.79819 0.23932 0.0
C404 C 0.39133 0.77695 0.24822 0.0
C405 C 0.39443 0.78416 0.26358 0.0
U406 U 0.42941 0.82746 0.29645 0.0
O407 O 0.42369 0.84321 0.31615 0.0
O408 O 0.43969 0.82552 0.32034 0.0
C409 C 0.43184 0.83633 0.32658 0.0
C410 C 0.4077 0.80561 0.28308 0.0
C411 C 0.42389 0.83211 0.34003 0.0
C412 C 0.40449 0.81592 0.3515 0.0
C413 C 0.41121 0.82041 0.33833 0.0
C414 C 0.42289 0.835 0.36807 0.0
C415 C 0.41036 0.82307 0.36655 0.0
C416 C 0.42957 0.83947 0.35493 0.0
C417 C 0.46347 0.85191 0.28243 0.0
C418 C 0.47679 0.8768 0.29477 0.0
C419 C 0.49054 0.85946 0.27869 0.0
C420 C 0.47712 0.84876 0.27577 0.0
C421 C 0.49052 0.87359 0.28822 0.0
C422 C 0.4634 0.86601 0.29199 0.0
C423 C 0.44965 0.84017 0.27949 0.0
O424 O 0.42106 0.80257 0.2901 0.0
O425 O 0.40542 0.82043 0.28541 0.0
O426 O 0.43602 0.84527 0.28114 0.0
O427 O 0.45129 0.827 0.28552 0.0
H428 H 0.41795 0.81629 0.25702 0.0
H429 H 0.4123 0.80395 0.23011 0.0
H430 H 0.38412 0.76583 0.24605 0.0
H431 H 0.38947 0.77856 0.2729 0.0
H432 H 0.39477 0.8068 0.3499 0.0
H433 H 0.4067 0.8146 0.32687 0.0
H434 H 0.42791 0.84056 0.37947 0.0
H435 H 0.43942 0.84846 0.35644 0.0
H436 H 0.47651 0.88752 0.30231 0.0
H437 H 0.50092 0.85674 0.27338 0.0
H438 H 0.47741 0.83795 0.26838 0.0
H439 H 0.45307 0.86866 0.2974 0.0
C440 C 0.00122 0.63337 0.65111 0.0
C441 C 0.00127 0.62539 0.66447 0.0
C442 C 1.00004 0.64977 0.68085 0.0
C443 C 1.00061 0.63349 0.67916 0.0
C444 C 1.0002 0.65773 0.66741 0.0
C445 C 1.00076 0.64959 0.65269 0.0
U446 U 0.01148 0.59812 0.62618 0.0
O447 O 0.99839 0.58365 0.60574 0.0
O448 O 0.02162 0.5957 0.6039 0.0
C449 C 0.00931 0.58681 0.59664 0.0
C450 C 0.00169 0.62486 0.63556 0.0
C451 C 0.00409 0.59004 0.58069 0.0
C452 C 1.00011 0.60784 0.56096 0.0
C453 C 0.00345 0.6053 0.57665 0.0
C454 C 0.99754 0.57991 0.5534 0.0
C455 C 0.99748 0.59516 0.54913 0.0
C456 C 1.00081 0.57739 0.56901 0.0
C457 C 0.03036 0.56621 0.64544 0.0
C458 C 0.03006 0.53993 0.63249 0.0
C459 C 0.04894 0.54908 0.6549 0.0
C460 C 0.04288 0.56351 0.65602 0.0
C461 C 0.04251 0.53704 0.64319 0.0
C462 C 0.02412 0.55439 0.63354 0.0
C463 C 0.02405 0.58143 0.64675 0.0
O464 O 0.01572 0.62377 0.63124 0.0
O465 O 0.99244 0.61167 0.63253 0.0
O466 O 0.00888 0.58099 0.64311 0.0
O467 O 0.03211 0.59267 0.64086 0.0
H468 H 0.00169 0.61286 0.66352 0.0
H469 H 1.00028 0.62691 0.68916 0.0
H470 H 1.00003 0.67028 0.66826 0.0
H471 H 1.00083 0.65596 0.64253 0.0
H472 H 1.00021 0.61973 0.55802 0.0
H473 H 0.00597 0.61523 0.58553 0.0
H474 H 0.99532 0.56989 0.5446 0.0
H475 H 0.00122 0.56553 0.57191 0.0
H476 H 0.02461 0.53091 0.62348 0.0
H477 H 0.05869 0.54739 0.66319 0.0
H478 H 0.04797 0.57256 0.66517 0.0
H479 H 0.01453 0.55627 0.62513 0.0
C480 C 0.74205 0.40352 0.65489 0.0
C481 C 0.72985 0.41134 0.6486 0.0
C482 C 0.71323 0.40203 0.66764 0.0
C483 C 0.71558 0.41062 0.65492 0.0
C484 C 0.72556 0.39428 0.67395 0.0
C485 C 0.73985 0.39504 0.66762 0.0
U486 U 0.76606 0.41637 0.6235 0.0
O487 O 0.79058 0.42613 0.62422 0.0
O488 O 0.7821 0.40407 0.60968 0.0
C489 C 0.79424 0.41411 0.61531 0.0
C490 C 0.7569 0.40399 0.64797 0.0
C491 C 0.80833 0.4073 0.62107 0.0
C492 C 0.82504 0.39879 0.64213 0.0
C493 C 0.81113 0.40449 0.63675 0.0
C494 C 0.83321 0.39818 0.61611 0.0
C495 C 0.8363 0.3957 0.63189 0.0
C496 C 0.81936 0.40395 0.61078 0.0
C497 C 0.74661 0.43969 0.59319 0.0
C498 C 0.76046 0.45119 0.57329 0.0
C499 C 0.7327 0.45294 0.57362 0.0
C500 C 0.73275 0.44472 0.58673 0.0
C501 C 0.74655 0.45628 0.56675 0.0
C502 C 0.76048 0.44292 0.58641 0.0
C503 C 0.74639 0.43124 0.60707 0.0
O504 O 0.75617 0.39607 0.63411 0.0
O505 O 0.76472 0.41794 0.64885 0.0
O506 O 0.75551 0.4379 0.61948 0.0
O507 O 0.74703 0.4161 0.60458 0.0
H508 H 0.73133 0.41789 0.63871 0.0
H509 H 0.70628 0.41653 0.64963 0.0
H510 H 0.72419 0.38771 0.68383 0.0
H511 H 0.74917 0.38895 0.67261 0.0
H512 H 0.82701 0.39683 0.65431 0.0
H513 H 0.80267 0.4069 0.64486 0.0
H514 H 0.84171 0.39612 0.60797 0.0
H515 H 0.81738 0.40606 0.59864 0.0
H516 H 0.77127 0.45343 0.56817 0.0
H517 H 0.72184 0.45687 0.56901 0.0
H518 H 0.72196 0.44235 0.59187 0.0
H519 H 0.77129 0.43906 0.59126 0.0
C520 C 0.73783 0.59656 0.21168 0.0
C521 C 0.7493 0.58989 0.20367 0.0
C522 C 0.76977 0.60366 0.22298 0.0
C523 C 0.76513 0.59343 0.20925 0.0
C524 C 0.75817 0.61029 0.23094 0.0
C525 C 0.74235 0.60677 0.22533 0.0
U526 U 0.70563 0.57147 0.18486 0.0
O527 O 0.68259 0.56091 0.18937 0.0
O528 O 0.68424 0.57758 0.17191 0.0
C529 C 0.675 0.56903 0.17969 0.0
C530 C 0.72115 0.59266 0.20606 0.0
C531 C 0.66196 0.57654 0.18575 0.0
C532 C 0.6512 0.59262 0.20582 0.0
C533 C 0.66406 0.58652 0.19979 0.0
C534 C 0.63417 0.57916 0.18363 0.0
C535 C 0.63606 0.58887 0.19789 0.0
C536 C 0.64699 0.57307 0.17765 0.0
C537 C 0.71708 0.53853 0.1569 0.0
C538 C 0.69849 0.52265 0.1373 0.0
C539 C 0.72442 0.51494 0.1432 0.0
C540 C 0.72815 0.52808 0.1542 0.0
C541 C 0.70953 0.51204 0.13467 0.0
C542 C 0.70222 0.53576 0.14838 0.0
C543 C 0.7211 0.55192 0.16895 0.0
O544 O 0.71708 0.59537 0.19161 0.0
O545 O 0.71491 0.57906 0.20933 0.0
O546 O 0.71675 0.54968 0.18275 0.0
O547 O 0.71836 0.56564 0.16465 0.0
H548 H 0.746 0.58193 0.19311 0.0
H549 H 0.77373 0.58826 0.20271 0.0
H550 H 0.76128 0.61802 0.24167 0.0
H551 H 0.73363 0.61194 0.23171 0.0
H552 H 0.6531 0.60019 0.21673 0.0
H553 H 0.67557 0.58936 0.20618 0.0
H554 H 0.62268 0.57582 0.17733 0.0
H555 H 0.64515 0.56534 0.16683 0.0
H556 H 0.68687 0.52065 0.13105 0.0
H557 H 0.73322 0.50709 0.14132 0.0
H558 H 0.73968 0.53004 0.16069 0.0
H559 H 0.69348 0.54366 0.15042 0.0
C560 C 0.35507 0.00114 0.3623 0.0
C561 C 0.34275 0.99016 0.3648 0.0
C562 C 0.3249 0.00115 0.34635 0.0
C563 C 0.32789 0.99009 0.35684 0.0
C564 C 0.33735 0.012 0.34369 0.0
C565 C 0.35229 0.01198 0.3516 0.0
U566 U 0.37812 0.99578 0.40018 0.0
O567 O 0.39985 0.98527 0.40578 0.0
O568 O 0.39821 0.00979 0.41421 0.0
C569 C 0.40713 0.99835 0.41323 0.0
C570 C 0.37046 0.00192 0.37154 0.0
C571 C 0.42316 0.00251 0.40966 0.0
C572 C 0.44176 0.01284 0.39298 0.0
C573 C 0.42628 0.00906 0.39595 0.0
C574 C 0.45101 0.00352 0.41736 0.0
C575 C 0.45432 0.01011 0.40368 0.0
C576 C 0.43559 0.99978 0.42031 0.0
C577 C 0.35486 0.98256 0.43264 0.0
C578 C 0.36633 0.97262 0.45596 0.0
C579 C 0.3406 0.98153 0.45535 0.0
C580 C 0.34153 0.98511 0.44006 0.0
C581 C 0.353 0.97528 0.46348 0.0
C582 C 0.36729 0.97633 0.44068 0.0
C583 C 0.35568 0.98681 0.41668 0.0
O584 O 0.3729 0.01277 0.38354 0.0
O585 O 0.37489 0.98841 0.3749 0.0
O586 O 0.36203 0.9771 0.40717 0.0
O587 O 0.36039 0.00156 0.41573 0.0
H588 H 0.34455 0.98174 0.3731 0.0
H589 H 0.3187 0.98138 0.359 0.0
H590 H 0.33546 0.0208 0.33585 0.0
H591 H 0.3616 0.02065 0.34962 0.0
H592 H 0.4439 0.01801 0.38239 0.0
H593 H 0.41678 0.01125 0.3876 0.0
H594 H 0.46035 1.00099 0.42571 0.0
H595 H 0.43337 0.99466 0.43092 0.0
H596 H 0.37611 0.96795 0.46199 0.0
H597 H 0.33012 0.98354 0.46078 0.0
H598 H 0.33184 0.98993 0.43403 0.0
H599 H 0.37777 0.97442 0.43518 0.0
C600 C 0.16503 0.99598 0.735 0.0
C601 C 0.17818 0.00513 0.74312 0.0
C602 C 0.19438 0.99619 0.72332 0.0
C603 C 0.19266 0.00527 0.73733 0.0
C604 C 0.18112 0.98714 0.71509 0.0
C605 C 0.16654 0.98702 0.72093 0.0
U606 U 0.14397 0.00795 0.76901 0.0
O607 O 0.12175 0.01774 0.77135 0.0
O608 O 0.12577 0.99566 0.78085 0.0
C609 C 0.11582 0.00585 0.77806 0.0
C610 C 0.15 0.99568 0.74163 0.0
C611 C 0.09972 0.99941 0.77208 0.0
C612 C 0.07873 0.99287 0.75089 0.0
C613 C 0.09452 0.99752 0.75605 0.0
C614 C 0.07334 0.99133 0.77767 0.0
C615 C 0.0679 0.98998 0.76167 0.0
C616 C 0.08909 0.99601 0.7828 0.0
C617 C 0.17103 0.03175 0.80327 0.0
C618 C 0.16413 0.04958 0.82439 0.0
C619 C 0.19007 0.04116 0.82553 0.0
C620 C 0.18597 0.03204 0.81122 0.0
C621 C 0.17931 0.05026 0.83218 0.0
C622 C 0.16002 0.0404 0.81002 0.0
C623 C 0.16765 0.02295 0.78767 0.0
O624 O 0.14917 0.98767 0.75372 0.0
O625 O 0.1447 0.00937 0.74384 0.0
O626 O 0.1594 0.02954 0.7771 0.0
O627 O 0.16363 0.00785 0.78725 0.0
H628 H 0.17724 0.01214 0.75401 0.0
H629 H 0.20253 0.01261 0.74382 0.0
H630 H 0.18206 0.97995 0.70432 0.0
H631 H 0.15651 0.97984 0.71454 0.0
H632 H 0.07495 0.99177 0.73848 0.0
H633 H 0.10259 1.00001 0.74757 0.0
H634 H 0.06532 0.98943 0.78632 0.0
H635 H 0.09288 0.99744 0.79523 0.0
H636 H 0.15559 0.05648 0.82919 0.0
H637 H 0.20173 0.04113 0.83137 0.0
H638 H 0.19459 0.02538 0.80622 0.0
H639 H 0.14838 0.04028 0.80406 0.0
C640 C 0.65574 0.74529 0.39587 0.0
C641 C 0.64723 0.73245 0.40097 0.0
C642 C 0.66803 0.71626 0.39584 0.0
C643 C 0.65329 0.71807 0.40091 0.0
C644 C 0.67659 0.72922 0.3909 0.0
C645 C 0.67047 0.74362 0.39089 0.0
U646 U 0.62484 0.77008 0.40806 0.0
O647 O 0.62581 0.7947 0.41765 0.0
O648 O 0.61117 0.78613 0.39568 0.0
C649 C 0.61657 0.79825 0.40583 0.0
C650 C 0.64926 0.76038 0.39598 0.0
C651 C 0.62152 0.81276 0.39932 0.0
C652 C 0.63975 0.82886 0.38631 0.0
C653 C 0.63515 0.81457 0.39182 0.0
C654 C 0.617 0.83942 0.39558 0.0
C655 C 0.63081 0.84152 0.38835 0.0
C656 C 0.61244 0.82521 0.40101 0.0
C657 C 0.59433 0.75111 0.43154 0.0
C658 C 0.5753 0.76539 0.44406 0.0
C659 C 0.57419 0.73731 0.44419 0.0
C660 C 0.58719 0.73717 0.43582 0.0
C661 C 0.56811 0.75142 0.44846 0.0
C662 C 0.58829 0.76524 0.43563 0.0
C663 C 0.6082 0.7507 0.42306 0.0
O664 O 0.63548 0.75993 0.3879 0.0
O665 O 0.65018 0.76843 0.40981 0.0
O666 O 0.62069 0.75973 0.42966 0.0
O667 O 0.60573 0.75123 0.40791 0.0
H668 H 0.63589 0.73357 0.405 0.0
H669 H 0.6465 0.70841 0.40502 0.0
H670 H 0.68791 0.72817 0.38681 0.0
H671 H 0.67721 0.75343 0.38697 0.0
H672 H 0.65047 0.83014 0.38085 0.0
H673 H 0.6423 0.80503 0.39041 0.0
H674 H 0.60971 0.84882 0.39708 0.0
H675 H 0.60184 0.82397 0.40669 0.0
H676 H 0.57079 0.77643 0.44701 0.0
H677 H 0.56907 0.72638 0.44757 0.0
H678 H 0.59175 0.72618 0.43279 0.0
H679 H 0.59366 0.77611 0.43235 0.0
C680 C 0.73937 0.15931 0.99549 0.0
C681 C 0.74925 0.17282 0.99385 0.0
C682 C 0.72724 0.18829 0.99365 0.0
C683 C 0.74323 0.18712 0.99283 0.0
C684 C 0.71736 0.17477 0.99534 0.0
C685 C 0.72338 0.16039 0.9962 0.0
U686 U 0.77261 0.13921 0.012 0.0
O687 O 0.77393 0.118 0.02388 0.0
O688 O 0.78507 0.1201 0.00232 0.0
C689 C 0.78135 0.11108 0.01305 0.0
C690 C 0.74593 0.14443 0.99749 0.0
C691 C 0.77545 0.09475 0.00736 0.0
C692 C 0.75421 0.07388 1.00019 0.0
C693 C 0.75939 0.08969 0.00475 0.0
C694 C 0.78108 0.06816 1.00036 0.0
C695 C 0.76502 0.0629 0.99807 0.0
C696 C 0.78621 0.08391 0.00497 0.0
C697 C 0.80601 0.16785 0.03508 0.0
C698 C 0.82841 0.16092 0.05114 0.0
C699 C 0.82635 0.18798 0.04703 0.0
C700 C 0.81222 0.18356 0.03769 0.0
C701 C 0.83455 0.17676 0.05401 0.0
C702 C 0.8142 0.15649 0.04175 0.0
C703 C 0.79079 0.16384 0.02572 0.0
O704 O 0.75833 0.14221 0.99025 0.0
O705 O 0.74731 0.14076 0.01191 0.0
O706 O 0.77989 0.15633 0.03254 0.0
O707 O 0.7911 0.15839 0.01105 0.0
H708 H 0.76169 0.1724 0.99358 0.0
H709 H 0.75118 0.19736 0.99179 0.0
H710 H 0.70498 0.17532 0.99594 0.0
H711 H 0.71559 0.15015 0.99762 0.0
H712 H 0.74177 0.07024 0.99835 0.0
H713 H 0.75087 0.09791 0.00644 0.0
H714 H 0.78972 0.06001 0.99904 0.0
H715 H 0.79866 0.0876 0.00695 0.0
H716 H 0.83443 0.15201 0.05639 0.0
H717 H 0.8309 0.20022 0.0487 0.0
H718 H 0.80607 0.19246 0.03256 0.0
H719 H 0.80952 0.14428 0.03983 0.0
C720 C 0.208 0.74315 0.60919 0.0
C721 C 0.20654 0.75362 0.59788 0.0
C722 C 0.21732 0.77542 0.61723 0.0
C723 C 0.21121 0.76958 0.60184 0.0
C724 C 0.21856 0.76485 0.62856 0.0
C725 C 0.21397 0.74886 0.62456 0.0
U726 U 0.18407 0.71023 0.58241 0.0
O727 O 0.19002 0.68759 0.57231 0.0
O728 O 0.17114 0.68835 0.58747 0.0
C729 C 0.17984 0.67955 0.57955 0.0
C730 C 0.20317 0.72631 0.6051 0.0
C731 C 0.18564 0.66647 0.58719 0.0
C732 C 0.20602 0.65518 0.60231 0.0
C733 C 0.2 0.66823 0.59663 0.0
C734 C 0.18309 0.63865 0.5897 0.0
C735 C 0.19776 0.64018 0.59867 0.0
C736 C 0.17712 0.65167 0.58402 0.0
C737 C 0.15825 0.72059 0.54748 0.0
C738 C 0.13948 0.70151 0.53119 0.0
C739 C 0.14675 0.72667 0.52235 0.0
C740 C 0.15675 0.73099 0.53613 0.0
C741 C 0.13801 0.71188 0.51971 0.0
C742 C 0.14958 0.7058 0.54493 0.0
C743 C 0.1692 0.72518 0.56166 0.0
O744 O 0.18849 0.72174 0.60655 0.0
O745 O 0.20783 0.72015 0.59208 0.0
O746 O 0.18345 0.72146 0.56067 0.0
O747 O 0.16387 0.72228 0.5749 0.0
H748 H 0.20186 0.74944 0.58595 0.0
H749 H 0.21025 0.7773 0.59275 0.0
H750 H 0.22294 0.76893 0.64058 0.0
H751 H 0.21505 0.74097 0.63347 0.0
H752 H 0.21725 0.65679 0.60933 0.0
H753 H 0.20672 0.6796 0.59924 0.0
H754 H 0.17651 0.62728 0.58647 0.0
H755 H 0.16604 0.65008 0.5767 0.0
H756 H 0.13304 0.68996 0.5294 0.0
H757 H 0.14576 0.73496 0.5138 0.0
H758 H 0.1634 0.74244 0.53791 0.0
H759 H 0.1507 0.69755 0.5535 0.0
C760 C 0.36584 0.35463 0.00489 0.0
C761 C 0.37443 0.34174 0.00582 0.0
C762 C 0.35044 0.32438 0.00555 0.0
C763 C 0.36682 0.3268 0.00623 0.0
C764 C 0.34182 0.33726 0.00429 0.0
C765 C 0.34949 0.35229 0.00403 0.0
U766 U 0.40142 0.37941 0.99611 0.0
O767 O 0.40489 0.40156 0.98581 0.0
O768 O 0.41593 0.39965 0.00945 0.0
C769 C 0.41358 0.40869 0.99831 0.0
C770 C 0.37401 0.37038 0.00462 0.0
C771 C 0.41087 0.42486 0.00325 0.0
C772 C 0.39386 0.44519 0.00777 0.0
C773 C 0.39582 0.42941 0.00402 0.0
C774 C 0.42193 0.45184 0.01029 0.0
C775 C 0.40691 0.45661 0.01072 0.0
C776 C 0.42387 0.43613 0.00659 0.0
C777 C 0.43389 0.35905 0.97979 0.0
C778 C 0.45811 0.37423 0.97597 0.0
C779 C 0.45491 0.34609 0.96953 0.0
C780 C 0.43985 0.34538 0.97415 0.0
C781 C 0.46425 0.36051 0.97049 0.0
C782 C 0.44303 0.3735 0.98056 0.0
C783 C 0.4183 0.35815 0.98515 0.0
O784 O 0.38672 0.37381 0.01453 0.0
O785 O 0.37585 0.37451 0.99064 0.0
O786 O 0.40768 0.36414 0.97635 0.0
O787 O 0.41812 0.36228 1.00015 0.0
H788 H 0.38705 0.34323 0.00625 0.0
H789 H 0.37376 0.31709 0.00692 0.0
H790 H 0.3292 0.33574 0.00377 0.0
H791 H 0.34266 0.36207 0.0032 0.0
H792 H 0.38212 0.44851 0.0079 0.0
H793 H 0.38564 0.42085 0.00146 0.0
H794 H 0.43223 0.46027 0.01275 0.0
H795 H 0.43558 0.43281 0.00609 0.0
H796 H 0.46496 0.3855 0.97674 0.0
H797 H 0.45939 0.33529 0.96561 0.0
H798 H 0.43294 0.33414 0.97353 0.0
H799 H 0.43855 0.38418 0.98487 0.0
C800 C 0.40467 0.65877 0.74162 0.0
C801 C 0.41131 0.65055 0.72962 0.0
C802 C 0.40461 0.66972 0.712 0.0
C803 C 0.41127 0.65597 0.71494 0.0
C804 C 0.39813 0.67802 0.72415 0.0
C805 C 0.39815 0.67256 0.73885 0.0
U806 U 0.41563 0.62879 0.76836 0.0
O807 O 0.42424 0.63095 0.79333 0.0
O808 O 0.40219 0.61648 0.78463 0.0
C809 C 0.41169 0.6228 0.79693 0.0
C810 C 0.40441 0.65286 0.75693 0.0
C811 C 0.40418 0.62944 0.81032 0.0
C812 C 0.40242 0.6501 0.83113 0.0
C813 C 0.4089 0.64463 0.8177 0.0
C814 C 0.38605 0.62551 0.82969 0.0
C815 C 0.39109 0.64051 0.83743 0.0
C816 C 0.39258 0.62003 0.81635 0.0
C817 C 0.4387 0.59635 0.75228 0.0
C818 C 0.45409 0.5802 0.76778 0.0
C819 C 0.44702 0.57253 0.74008 0.0
C820 C 0.43913 0.58577 0.73902 0.0
C821 C 0.4547 0.56966 0.75445 0.0
C822 C 0.44608 0.59341 0.76672 0.0
C823 C 0.43074 0.61047 0.75069 0.0
O824 O 0.39609 0.63927 0.75679 0.0
O825 O 0.41809 0.65382 0.76526 0.0
O826 O 0.43743 0.6233 0.75912 0.0
O827 O 0.41548 0.60859 0.75067 0.0
H828 H 0.41646 0.63991 0.7316 0.0
H829 H 0.41655 0.64943 0.70591 0.0
H830 H 0.39277 0.68856 0.72221 0.0
H831 H 0.39296 0.67902 0.748 0.0
H832 H 0.4067 0.66164 0.83687 0.0
H833 H 0.41782 0.65219 0.81335 0.0
H834 H 0.37717 0.61791 0.83406 0.0
H835 H 0.38874 0.60828 0.81087 0.0
H836 H 0.45975 0.57821 0.77903 0.0
H837 H 0.44742 0.56471 0.72958 0.0
H838 H 0.4335 0.58786 0.72778 0.0
H839 H 0.44577 0.60137 0.77715 0.0
C840 C 0.00494 0.73616 0.16125 0.0
C841 C 0.00554 0.74633 0.17504 0.0
C842 C 0.00498 0.72435 0.19051 0.0
C843 C 0.00546 0.74049 0.18949 0.0
C844 C 0.00453 0.71415 0.17671 0.0
C845 C 0.00447 0.72002 0.16216 0.0
U846 U 0.01894 0.76971 0.14058 0.0
O847 O 0.02932 0.77178 0.11859 0.0
O848 O 0.0077 0.78229 0.12241 0.0
C849 C 0.0178 0.77894 0.11253 0.0
C850 C 0.00574 0.74259 0.14616 0.0
C851 C 0.01117 0.77345 0.09628 0.0
C852 C 0.00922 0.75524 0.07263 0.0
C853 C 0.01449 0.7593 0.0885 0.0
C854 C 0.99681 0.7791 0.07225 0.0
C855 C 1.00055 0.76524 0.06425 0.0
C856 C 0.00211 0.78317 0.08805 0.0
C857 C 0.04224 0.80323 0.16921 0.0
C858 C 0.05881 0.82563 0.16301 0.0
C859 C 0.05279 0.82391 0.18959 0.0
C860 C 0.04373 0.80968 0.18483 0.0
C861 C 0.0606 0.83197 0.17879 0.0
C862 C 0.0497 0.81132 0.15824 0.0
C863 C 0.03331 0.78781 0.16497 0.0
O864 O 0.99795 0.75473 0.14445 0.0
O865 O 0.01983 0.74445 0.14168 0.0
O866 O 0.04013 0.77742 0.15672 0.0
O867 O 0.01837 0.78771 0.16033 0.0
H868 H 0.00624 0.75886 0.17468 0.0
H869 H 0.00609 0.74866 0.19993 0.0
H870 H 0.00412 0.70165 0.17715 0.0
H871 H 0.00418 0.71201 0.15167 0.0
H872 H 0.01242 0.74454 0.06682 0.0
H873 H 0.02145 0.75155 0.09454 0.0
H874 H 0.98993 0.78695 0.06625 0.0
H875 H 0.9994 0.79413 0.09378 0.0
H876 H 0.06471 0.83156 0.15443 0.0
H877 H 0.05362 0.82863 0.20175 0.0
H878 H 0.03798 0.80362 0.19343 0.0
H879 H 0.04864 0.80648 0.1461 0.0
C880 C 0.61331 0.22018 0.7456 0.0
C881 C 0.602 0.21796 0.75598 0.0
C882 C 0.62028 0.23119 0.77761 0.0
C883 C 0.60544 0.22346 0.77183 0.0
C884 C 0.6316 0.23324 0.76716 0.0
C885 C 0.62812 0.2278 0.75129 0.0
U886 U 0.5876 0.19506 0.71245 0.0
O887 O 0.57887 0.20017 0.68902 0.0
O888 O 0.59374 0.1812 0.69159 0.0
C889 C 0.5865 0.18963 0.68195 0.0
C890 C 0.60975 0.21459 0.72888 0.0
C891 C 0.59485 0.19433 0.66878 0.0
C892 C 0.60376 0.21401 0.65243 0.0
C893 C 0.59791 0.21009 0.66622 0.0
C894 C 0.60433 0.18657 0.64395 0.0
C895 C 0.60665 0.20227 0.64095 0.0
C896 C 0.59845 0.18266 0.65769 0.0
C897 C 0.55182 0.16951 0.7211 0.0
C898 C 0.53019 0.15927 0.70148 0.0
C899 C 0.53347 0.14783 0.72588 0.0
C900 C 0.54674 0.15844 0.7308 0.0
C901 C 0.52501 0.14819 0.7112 0.0
C902 C 0.54353 0.16978 0.70634 0.0
C903 C 0.56579 0.18062 0.72647 0.0
O904 O 0.61125 0.19976 0.72511 0.0
O905 O 0.59696 0.21903 0.72197 0.0
O906 O 0.56522 0.19483 0.72245 0.0
O907 O 0.57925 0.17522 0.7247 0.0
H908 H 0.59052 0.21198 0.75181 0.0
H909 H 0.59654 0.2215 0.77959 0.0
H910 H 0.64309 0.23925 0.77121 0.0
H911 H 0.63699 0.22959 0.74345 0.0
H912 H 0.60528 0.22621 0.65045 0.0
H913 H 0.59526 0.21935 0.67458 0.0
H914 H 0.60669 0.17725 0.63548 0.0
H915 H 0.59619 0.17044 0.6594 0.0
H916 H 0.52404 0.15969 0.69002 0.0
H917 H 0.5297 0.1395 0.73367 0.0
H918 H 0.55301 0.15803 0.74221 0.0
H919 H 0.54737 0.17811 0.69858 0.0
C920 C 0.00653 0.36472 0.35378 0.0
C921 C 0.0057 0.37272 0.34045 0.0
C922 C 0.00508 0.34824 0.32371 0.0
C923 C 0.00505 0.36459 0.32558 0.0
C924 C 0.00595 0.34027 0.33715 0.0
C925 C 0.00666 0.34846 0.35206 0.0
U926 U 1.00054 0.4017 0.37813 0.0
O927 O 0.98995 0.40617 0.39994 0.0
O928 O 0.01443 0.41514 0.39871 0.0
C929 C 0.00295 0.41356 0.4075 0.0
C930 C 0.00694 0.37336 0.36938 0.0
C931 C 0.00711 0.40982 0.42351 0.0
C932 C 0.00599 0.3923 0.44376 0.0
C933 C 0.00329 0.3949 0.42804 0.0
C934 C 0.01683 0.41933 0.45041 0.0
C935 C 0.01252 0.40459 0.45517 0.0
C936 C 0.01413 0.42191 0.43475 0.0
C937 C 0.98691 0.43534 0.35777 0.0
C938 C 0.98086 0.45859 0.37312 0.0
C939 C 0.98101 0.45816 0.34508 0.0
C940 C 0.98494 0.44283 0.3442 0.0
C941 C 0.97896 0.46622 0.35956 0.0
C942 C 0.98485 0.44329 0.37223 0.0
C943 C 0.99134 0.41937 0.35683 0.0
O944 O 0.01767 0.38545 0.37247 0.0
O945 O 0.99323 0.3764 0.37348 0.0
O946 O 0.98176 0.40917 0.36249 0.0
O947 O 0.00613 0.41829 0.36127 0.0
H948 H 0.00555 0.38529 0.34154 0.0
H949 H 0.00468 0.37117 0.31556 0.0
H950 H 0.00581 0.32768 0.33614 0.0
H951 H 0.0072 0.34209 0.36223 0.0
H952 H 0.00244 0.38083 0.44705 0.0
H953 H 0.99786 0.38539 0.41954 0.0
H954 H 0.02213 0.42896 0.45883 0.0
H955 H 0.01718 0.43349 0.43146 0.0
H956 H 0.97955 0.46454 0.38445 0.0
H957 H 0.97947 0.46367 0.33441 0.0
H958 H 0.98649 0.43685 0.33295 0.0
H959 H 0.98643 0.43767 0.38285 0.0
H960 H 0.25249 0.45073 0.56507 0.0
C961 C 0.25257 0.46195 0.57189 0.0
C962 C 0.25497 0.47575 0.56474 0.0
C963 C 0.24962 0.46265 0.58766 0.0
H964 H 0.25574 0.50079 0.56769 0.0
C965 C 0.25457 0.49021 0.57345 0.0
C966 C 0.25127 0.49116 0.58901 0.0
C967 C 0.24886 0.47734 0.59609 0.0
C968 C 0.24622 0.44809 0.5951 0.0
H969 H 0.24629 0.47804 0.60813 0.0
C970 C 0.25571 0.43575 0.59375 0.0
C971 C 0.2526 0.42228 0.6014 0.0
C972 C 0.23338 0.44659 0.60381 0.0
H973 H 0.22573 0.45575 0.60484 0.0
C974 C 0.23011 0.4332 0.61114 0.0
H975 H 0.26575 0.43685 0.58722 0.0
C976 C 0.23964 0.42116 0.61 0.0
H977 H 0.23675 0.41085 0.61574 0.0
H978 H 0.22014 0.43215 0.61774 0.0
H979 H 0.34069 0.63505 0.98354 0.0
C980 C 0.34772 0.62778 0.99019 0.0
C981 C 0.34267 0.61179 0.98986 0.0
C982 C 0.36221 0.63412 0.9984 0.0
H983 H 0.34799 0.59005 0.99813 0.0
C984 C 0.35175 0.60244 0.99846 0.0
C985 C 0.3664 0.60842 0.00614 0.0
C986 C 0.37192 0.62408 0.0055 0.0
C987 C 0.3673 0.65106 0.99896 0.0
H988 H 0.38364 0.62821 0.01069 0.0
C989 C 0.35321 0.66472 1.0001 0.0
C990 C 0.35893 0.68516 1.00038 0.0
C991 C 0.38772 0.65806 0.99765 0.0
H992 H 0.39617 0.64979 0.99633 0.0
C993 C 0.39356 0.67833 0.99827 0.0
H994 H 0.34115 0.6605 1.00078 0.0
C995 C 0.37965 0.69198 0.99973 0.0
H996 H 0.38359 0.70423 0.99977 0.0
H997 H 0.40567 0.68239 0.99757 0.0
H998 H 0.67904 0.06922 0.38263 0.0
C999 C 0.678 0.05656 0.38081 0.0
C1000 C 0.67381 0.04839 0.393 0.0
C1001 C 0.68086 0.04903 0.36651 0.0
H1002 H 0.67221 0.02445 0.38366 0.0
C1003 C 0.6716 0.03225 0.39184 0.0
C1004 C 0.67341 0.02129 0.37682 0.0
C1005 C 0.67909 0.03257 0.36383 0.0
C1006 C 0.6856 0.05872 0.35402 0.0
H1007 H 0.68181 0.02834 0.35243 0.0
C1008 C 0.69579 0.07264 0.35786 0.0
C1009 C 0.69947 0.08247 0.34639 0.0
C1010 C 0.67954 0.05448 0.33831 0.0
H1011 H 0.67143 0.04406 0.33491 0.0
C1012 C 0.68352 0.0639 0.3268 0.0
H1013 H 0.70098 0.07579 0.36981 0.0
C1014 C 0.69332 0.07783 0.33078 0.0
H1015 H 0.69578 0.08513 0.32166 0.0
H1016 H 0.67873 0.06054 0.31476 0.0
H1017 H 0.74918 0.86026 0.00993 0.0
C1018 C 0.74617 0.87088 0.00527 0.0
C1019 C 0.74826 0.88502 0.01512 0.0
C1020 C 0.74048 0.8705 0.98937 0.0
H1021 H 0.74665 0.9098 0.01642 0.0
C1022 C 0.7446 0.89876 0.009 0.0
C1023 C 0.73918 0.89869 0.99323 0.0
C1024 C 0.73718 0.88458 0.9834 0.0
C1025 C 0.73837 0.85554 0.97887 0.0
H1026 H 0.73289 0.8846 0.9712 0.0
C1027 C 0.73171 0.84154 0.98381 0.0
C1028 C 0.72953 0.82747 0.97369 0.0
C1029 C 0.74299 0.85525 0.96373 0.0
H1030 H 0.74837 0.86572 0.95967 0.0
C1031 C 0.74086 0.84141 0.95369 0.0
H1032 H 0.72816 0.84164 0.99548 0.0
C1033 C 0.73414 0.82765 0.95856 0.0
H1034 H 0.73236 0.81718 0.95033 0.0
H1035 H 0.74439 0.84135 0.94203 0.0
H1036 H 0.56423 0.25321 0.45304 0.0
C1037 C 0.57179 0.25138 0.4633 0.0
C1038 C 0.56614 0.25259 0.47804 0.0
C1039 C 0.5869 0.24706 0.46171 0.0
H1040 H 0.57136 0.24968 0.50245 0.0
C1041 C 0.57579 0.24952 0.49114 0.0
C1042 C 0.59077 0.24524 0.48975 0.0
C1043 C 0.5964 0.24419 0.47511 0.0
C1044 C 0.5922 0.24395 0.44595 0.0
H1045 H 0.60795 0.24061 0.47411 0.0
C1046 C 0.58985 0.25413 0.43435 0.0
C1047 C 0.59449 0.2506 0.41934 0.0
C1048 C 0.59933 0.23032 0.44233 0.0
H1049 H 0.60106 0.22212 0.45087 0.0
C1050 C 0.60402 0.22687 0.42755 0.0
H1051 H 0.58435 0.26467 0.43695 0.0
C1052 C 0.60162 0.2369 0.41612 0.0
H1053 H 0.60549 0.23401 0.40476 0.0
H1054 H 0.60949 0.21634 0.42492 0.0
H1055 H 0.00599 0.75426 0.85765 0.0
C1056 C 0.00247 0.75285 0.86914 0.0
C1057 C 0.01188 0.76054 0.88233 0.0
C1058 C 0.98819 0.74411 0.8708 0.0
H1059 H 0.01462 0.76522 0.90735 0.0
C1060 C 0.00717 0.75936 0.8972 0.0
C1061 C 0.99317 0.75058 0.8992 0.0
C1062 C 0.98382 0.74278 0.88598 0.0
C1063 C 0.97732 0.73739 0.85674 0.0
H1064 H 0.97298 0.73599 0.88753 0.0
C1065 C 0.98294 0.73087 0.84303 0.0
C1066 C 0.97257 0.72546 0.82953 0.0
C1067 C 0.96114 0.73817 0.85675 0.0
H1068 H 0.95641 0.74341 0.86689 0.0
C1069 C 0.95085 0.7326 0.8435 0.0
H1070 H 0.99535 0.73018 0.84277 0.0
C1071 C 0.95648 0.72633 0.82998 0.0
H1072 H 0.94821 0.72207 0.81986 0.0
H1073 H 0.93844 0.73328 0.84368 0.0
H1074 H 0.9833 0.33654 0.63377 0.0
C1075 C 0.98906 0.34445 0.62671 0.0
C1076 C 0.98798 0.34008 0.61056 0.0
C1077 C 0.99668 0.35916 0.63334 0.0
H1078 H 0.99509 0.3464 0.58872 0.0
C1079 C 0.99598 0.34966 0.60124 0.0
C1080 C 0.00384 0.36414 0.60753 0.0
C1081 C 0.00357 0.36922 0.62341 0.0
C1082 C 0.99703 0.36405 0.65041 0.0
H1083 H 0.00897 0.38082 0.62784 0.0
C1084 C 0.9963 0.34945 0.66401 0.0
C1085 C 0.99615 0.35514 0.68439 0.0
C1086 C 0.99813 0.3845 0.65771 0.0
H1087 H 0.99821 0.39327 0.64967 0.0
C1088 C 0.9999 0.39027 0.67819 0.0
H1089 H 0.99559 0.3372 0.65976 0.0
C1090 C 0.99869 0.37565 0.69166 0.0
H1091 H 0.99952 0.37929 0.70407 0.0
H1092 H 0.00124 0.40255 0.68253 0.0
H1093 H 0.38087 0.67505 0.06437 0.0
C1094 C 0.3798 0.67475 0.05176 0.0
C1095 C 0.38637 0.66351 0.043 0.0
C1096 C 0.37236 0.68574 0.04423 0.0
H1097 H 0.3879 0.65147 0.02235 0.0
C1098 C 0.38332 0.6619 0.02659 0.0
C1099 C 0.37612 0.67292 0.01623 0.0
C1100 C 0.37283 0.68592 0.02799 0.0
C1101 C 0.36391 0.69737 0.05312 0.0
H1102 H 0.37017 0.69722 0.02499 0.0
C1103 C 0.36937 0.70381 0.06856 0.0
C1104 C 0.3606 0.71395 0.07696 0.0
C1105 C 0.34968 0.70149 0.04619 0.0
H1106 H 0.34488 0.69646 0.03455 0.0
C1107 C 0.34121 0.71184 0.05432 0.0
H1108 H 0.38025 0.70079 0.07415 0.0
C1109 C 0.34657 0.718 0.06961 0.0
H1110 H 0.33973 0.72595 0.07571 0.0
H1111 H 0.33033 0.71494 0.0488 0.0
H1112 H 0.44826 0.56864 0.25248 0.0
C1113 C 0.45933 0.57573 0.25255 0.0
C1114 C 0.47329 0.56906 0.25565 0.0
C1115 C 0.45969 0.59132 0.24899 0.0
H1116 H 0.49834 0.57254 0.25694 0.0
C1117 C 0.48761 0.57797 0.25521 0.0
C1118 C 0.48827 0.59327 0.2512 0.0
C1119 C 0.47429 0.59995 0.24816 0.0
C1120 C 0.44487 0.59827 0.24523 0.0
H1121 H 0.47484 0.61182 0.2451 0.0
C1122 C 0.43202 0.59571 0.25391 0.0
C1123 C 0.41795 0.60213 0.25005 0.0
C1124 C 0.44342 0.60737 0.23268 0.0
H1125 H 0.45292 0.60934 0.2256 0.0
C1126 C 0.42959 0.61383 0.22891 0.0
H1127 H 0.43295 0.5887 0.2636 0.0
C1128 C 0.41695 0.61126 0.23749 0.0
H1129 H 0.40641 0.61657 0.23438 0.0
H1130 H 0.42864 0.62084 0.21923 0.0
H1131 H 0.86438 0.01203 0.75251 0.0
C1132 C 0.87534 0.00792 0.7498 0.0
C1133 C 0.88889 0.01856 0.75135 0.0
C1134 C 0.87597 0.99195 0.74512 0.0
H1135 H 0.91366 0.02123 0.74972 0.0
C1136 C 0.90308 0.01314 0.74803 0.0
C1137 C 0.904 0.99728 0.74349 0.0
C1138 C 0.89042 0.98669 0.74214 0.0
C1139 C 0.86164 0.98072 0.7439 0.0
H1140 H 0.89108 0.97442 0.73859 0.0
C1141 C 0.84734 0.98424 0.7365 0.0
C1142 C 0.83367 0.97378 0.73579 0.0
C1143 C 0.86212 0.96653 0.75046 0.0
H1144 H 0.87289 0.96358 0.75636 0.0
C1145 C 0.8486 0.95614 0.74979 0.0
H1146 H 0.84684 0.99512 0.73134 0.0
C1147 C 0.83445 0.95973 0.74256 0.0
H1148 H 0.82415 0.95141 0.74207 0.0
H1149 H 0.84908 0.94527 0.75493 0.0
H1150 H 0.6353 0.98703 0.34254 0.0
C1151 C 0.62776 0.99449 0.34832 0.0
C1152 C 0.61164 0.99272 0.34341 0.0
C1153 C 0.63394 0.00505 0.36139 0.0
H1154 H 0.58947 1.00055 0.34797 0.0
C1155 C 0.602 0.00219 0.35124 0.0
C1156 C 0.60796 0.01255 0.36438 0.0
C1157 C 0.62394 0.01385 0.3696 0.0
C1158 C 0.65045 0.00546 0.36748 0.0
H1159 H 0.62848 0.0215 0.3801 0.0
C1160 C 0.66518 0.00464 0.35442 0.0
C1161 C 0.68558 0.00331 0.36217 0.0
C1162 C 0.65533 0.00493 0.38789 0.0
H1163 H 0.64634 0.00521 0.39573 0.0
C1164 C 0.67553 0.00358 0.39559 0.0
H1165 H 0.66197 0.00455 0.342 0.0
C1166 C 0.69023 0.00287 0.38271 0.0
H1167 H 0.70211 0.0023 0.38759 0.0
H1168 H 0.67856 0.00333 0.408 0.0
H1169 H 0.06274 0.37719 0.67947 0.0
C1170 C 0.05012 0.37488 0.67755 0.0
C1171 C 0.04201 0.38143 0.66583 0.0
C1172 C 0.04193 0.36575 0.68685 0.0
H1173 H 0.0225 0.38031 0.65077 0.0
C1174 C 0.02593 0.37684 0.66204 0.0
C1175 C 0.01469 0.37027 0.67255 0.0
C1176 C 0.02545 0.36506 0.68542 0.0
C1177 C 0.05044 0.35746 0.69892 0.0
H1178 H 0.02161 0.36072 0.69582 0.0
C1179 C 0.06472 0.36413 0.7074 0.0
C1180 C 0.07261 0.35594 0.71847 0.0
C1181 C 0.04433 0.34241 0.70166 0.0
H1182 H 0.03377 0.33668 0.69494 0.0
C1183 C 0.05195 0.33441 0.71282 0.0
H1184 H 0.06967 0.37572 0.70559 0.0
C1185 C 0.06596 0.34112 0.72124 0.0
H1186 H 0.07187 0.33451 0.72957 0.0
H1187 H 0.04712 0.32282 0.71474 0.0
H1188 H 0.73194 0.54156 0.42033 0.0
C1189 C 0.74075 0.53464 0.41614 0.0
C1190 C 0.7497 0.52695 0.42676 0.0
C1191 C 0.74271 0.53281 0.4001 0.0
H1192 H 0.76675 0.51076 0.4295 0.0
C1193 C 0.76054 0.51736 0.42134 0.0
C1194 C 0.76229 0.51486 0.4054 0.0
C1195 C 0.7535 0.52278 0.39484 0.0
C1196 C 0.73276 0.54048 0.38873 0.0
H1197 H 0.75498 0.52094 0.38252 0.0
C1198 C 0.72891 0.5558 0.39243 0.0
C1199 C 0.71912 0.56279 0.38179 0.0
C1200 C 0.72673 0.53232 0.37416 0.0
H1201 H 0.72913 0.52043 0.37104 0.0
C1202 C 0.71722 0.53926 0.36352 0.0
H1203 H 0.73342 0.56223 0.40361 0.0
C1204 C 0.71342 0.55436 0.36727 0.0
H1205 H 0.7061 0.55949 0.35873 0.0
H1206 H 0.71268 0.53286 0.35234 0.0
H1207 H 0.67059 0.37147 0.00958 0.0
C1208 C 0.65986 0.37644 0.00648 0.0
C1209 C 0.65547 0.38828 0.01691 0.0
C1210 C 0.65065 0.37144 0.99207 0.0
H1211 H 0.63946 0.4054 0.0205 0.0
C1212 C 0.64221 0.3956 0.01281 0.0
C1213 C 0.63359 0.39171 0.9982 0.0
C1214 C 0.63749 0.37937 0.98811 0.0
C1215 C 0.65499 0.35855 0.9809 0.0
H1216 H 0.63026 0.37632 0.97709 0.0
C1217 C 0.66365 0.34664 0.98618 0.0
C1218 C 0.66737 0.33437 0.97563 0.0
C1219 C 0.65041 0.35798 0.96473 0.0
H1220 H 0.64449 0.3671 0.95985 0.0
C1221 C 0.65352 0.34562 0.95437 0.0
H1222 H 0.66748 0.34688 0.99847 0.0
C1223 C 0.66174 0.33384 0.95973 0.0
H1224 H 0.66356 0.32426 0.95132 0.0
H1225 H 0.64956 0.34519 0.94205 0.0
H1226 H 0.30661 0.94581 0.62435 0.0
C1227 C 0.30871 0.95844 0.62604 0.0
C1228 C 0.31677 0.96615 0.61528 0.0
C1229 C 0.30371 0.96704 0.63901 0.0
H1230 H 0.3263 0.98818 0.60897 0.0
C1231 C 0.3202 0.98237 0.61752 0.0
C1232 C 0.31539 0.99122 0.63023 0.0
C1233 C 0.30677 0.98353 0.64071 0.0
C1234 C 0.29597 0.95882 0.65106 0.0
H1235 H 0.30256 0.99036 0.65024 0.0
C1236 C 0.28613 0.94467 0.64697 0.0
C1237 C 0.28 0.93633 0.65856 0.0
C1238 C 0.29912 0.96464 0.66696 0.0
H1239 H 0.30698 0.97515 0.67067 0.0
C1240 C 0.29248 0.95675 0.67841 0.0
H1241 H 0.28361 0.93984 0.63484 0.0
C1242 C 0.28305 0.94264 0.67428 0.0
H1243 H 0.27833 0.93651 0.68339 0.0
H1244 H 0.29493 0.96145 0.69057 0.0
H1245 H 0.26217 0.13836 0.97993 0.0
C1246 C 0.25967 0.12844 0.98636 0.0
C1247 C 0.2464 0.11769 0.98129 0.0
C1248 C 0.27032 0.12581 0.99898 0.0
H1249 H 0.23397 0.0957 0.98499 0.0
C1250 C 0.24362 0.10453 0.98933 0.0
C1251 C 0.25412 0.10167 0.00183 0.0
C1252 C 0.26734 0.11239 0.0067 0.0
C1253 C 0.28541 0.13596 0.00296 0.0
H1254 H 0.27554 0.11002 0.01625 0.0
C1255 C 0.28621 0.15241 0.00358 0.0
C1256 C 0.3007 0.16174 0.0073 0.0
C1257 C 0.2993 0.12902 0.00581 0.0
H1258 H 0.29917 0.11643 0.00503 0.0
C1259 C 0.31362 0.13818 0.00935 0.0
H1260 H 0.2756 0.15792 0.00152 0.0
C1261 C 0.31435 0.15438 0.01009 0.0
H1262 H 0.3257 0.16115 0.01261 0.0
H1263 H 0.32423 0.13267 0.0114 0.0
H1264 H 0.4248 0.73053 0.53537 0.0
C1265 C 0.41938 0.73855 0.52822 0.0
C1266 C 0.42887 0.74902 0.52086 0.0
C1267 C 0.40296 0.73786 0.52569 0.0
H1268 H 0.42919 0.76644 0.50472 0.0
C1269 C 0.42191 0.75891 0.51105 0.0
C1270 C 0.40567 0.75795 0.50792 0.0
C1271 C 0.39621 0.74755 0.51533 0.0
C1272 C 0.39289 0.72633 0.53301 0.0
H1273 H 0.38363 0.7469 0.51281 0.0
C1274 C 0.39663 0.72343 0.54862 0.0
C1275 C 0.38719 0.71235 0.55543 0.0
C1276 C 0.37955 0.71796 0.52429 0.0
H1277 H 0.3765 0.71965 0.51218 0.0
C1278 C 0.3701 0.70708 0.53101 0.0
H1279 H 0.40691 0.72975 0.55545 0.0
C1280 C 0.37385 0.70428 0.54645 0.0
H1281 H 0.3662 0.69587 0.55141 0.0
H1282 H 0.35984 0.70075 0.5242 0.0
H1283 H 0.98352 0.26255 0.13656 0.0
C1284 C 0.99042 0.26021 0.12698 0.0
C1285 C 0.98538 0.24744 0.11561 0.0
C1286 C 0.00375 0.2705 0.12552 0.0
H1287 H 0.98981 0.23568 0.09358 0.0
C1288 C 0.99408 0.24486 0.10292 0.0
C1289 C 0.00738 0.2549 0.10126 0.0
C1290 C 0.01225 0.2676 0.11264 0.0
C1291 C 0.00783 0.28513 0.13644 0.0
H1292 H 0.02249 0.27539 0.11122 0.0
C1293 C 0.00611 0.28542 0.15254 0.0
C1294 C 0.00894 0.29959 0.16243 0.0
C1295 C 0.01273 0.2992 0.13056 0.0
H1296 H 0.0138 0.29955 0.11823 0.0
C1297 C 0.01585 0.31315 0.1404 0.0
H1298 H 0.00233 0.27475 0.15732 0.0
C1299 C 0.01392 0.31339 0.1562 0.0
H1300 H 0.01635 0.3244 0.1636 0.0
H1301 H 0.01959 0.32388 0.13571 0.0
H1302 H 0.01805 0.67383 0.37689 0.0
C1303 C 0.01368 0.66344 0.38182 0.0
C1304 C 0.02329 0.65772 0.39347 0.0
C1305 C 0.99838 0.65615 0.37704 0.0
H1306 H 0.02473 0.64106 0.41022 0.0
C1307 C 0.01758 0.64484 0.40058 0.0
C1308 C 0.00215 0.63805 0.39679 0.0
C1309 C 0.99271 0.64346 0.3848 0.0
C1310 C 0.98821 0.66205 0.36438 0.0
H1311 H 0.98091 0.63785 0.38183 0.0
C1312 C 0.99468 0.66883 0.35193 0.0
C1313 C 0.98507 0.674 0.3398 0.0
C1314 C 0.97187 0.6608 0.36457 0.0
H1315 H 0.96637 0.65621 0.3741 0.0
C1316 C 0.96229 0.66567 0.3525 0.0
H1317 H 0.0072 0.66997 0.35155 0.0
C1318 C 0.96878 0.67213 0.34018 0.0
H1319 H 0.96094 0.67547 0.33085 0.0
H1320 H 0.94974 0.66443 0.3527 0.0
H1321 H 0.62081 0.31073 0.95647 0.0
C1322 C 0.62447 0.31353 0.96881 0.0
C1323 C 0.61821 0.32587 0.97713 0.0
C1324 C 0.63469 0.30425 0.97647 0.0
H1325 H 0.6182 0.33845 1.00005 0.0
C1326 C 0.62317 0.32945 0.99316 0.0
C1327 C 0.63347 0.32061 0.00095 0.0
C1328 C 0.63885 0.30783 0.99271 0.0
C1329 C 0.64019 0.29031 0.96775 0.0
H1330 H 0.6465 0.30092 0.99906 0.0
C1331 C 0.6418 0.28974 0.95159 0.0
C1332 C 0.64586 0.27618 0.94324 0.0
C1333 C 0.64317 0.27707 0.97537 0.0
H1334 H 0.64159 0.2766 0.98757 0.0
C1335 C 0.64775 0.26385 0.96725 0.0
H1336 H 0.63986 0.29976 0.94539 0.0
C1337 C 0.64909 0.26337 0.95132 0.0
H1338 H 0.65207 0.25271 0.9452 0.0
H1339 H 0.64987 0.25375 0.97326 0.0
H1340 H 0.53976 0.42461 0.73241 0.0
C1341 C 0.53287 0.41982 0.74097 0.0
C1342 C 0.52662 0.42999 0.75172 0.0
C1343 C 0.5298 0.40349 0.74087 0.0
H1344 H 0.51234 0.43143 0.77055 0.0
C1345 C 0.51736 0.42361 0.76253 0.0
C1346 C 0.51308 0.40738 0.7619 0.0
C1347 C 0.51972 0.39742 0.75122 0.0
C1348 C 0.53637 0.39276 0.72935 0.0
H1349 H 0.51689 0.3849 0.75086 0.0
C1350 C 0.55208 0.39545 0.72635 0.0
C1351 C 0.55835 0.38506 0.71568 0.0
C1352 C 0.52693 0.37968 0.72132 0.0
H1353 H 0.51474 0.37746 0.72313 0.0
C1354 C 0.53306 0.36944 0.71067 0.0
H1355 H 0.55954 0.40536 0.73263 0.0
C1356 C 0.54865 0.37205 0.70788 0.0
H1357 H 0.55307 0.36399 0.69944 0.0
H1358 H 0.52567 0.35945 0.70451 0.0
H1359 H 0.13862 0.9842 0.26346 0.0
C1360 C 0.12902 0.99076 0.26013 0.0
C1361 C 0.11789 0.98444 0.24757 0.0
C1362 C 0.12739 0.00509 0.26881 0.0
H1363 H 0.09586 0.98721 0.23481 0.0
C1364 C 0.10501 0.99254 0.24377 0.0
C1365 C 0.10304 0.00671 0.25228 0.0
C1366 C 0.11441 0.01307 0.26456 0.0
C1367 C 0.13841 0.01107 0.28305 0.0
H1368 H 0.11292 0.02413 0.27096 0.0
C1369 C 0.15443 0.00876 0.284 0.0
C1370 C 0.16442 0.01368 0.29787 0.0
C1371 C 0.13272 0.01861 0.29618 0.0
H1372 H 0.12047 0.02019 0.29619 0.0
C1373 C 0.14268 0.02389 0.30973 0.0
H1374 H 0.15908 0.00293 0.2741 0.0
C1375 C 0.15838 0.02144 0.31061 0.0
H1376 H 0.16583 0.02562 0.32132 0.0
H1377 H 0.13813 0.02971 0.31969 0.0
H1378 H 0.3833 0.02816 0.67476 0.0
C1379 C 0.38856 0.0219 0.66552 0.0
C1380 C 0.40039 0.02982 0.6583 0.0
C1381 C 0.38434 0.00572 0.66163 0.0
H1382 H 0.41739 0.02723 0.64186 0.0
C1383 C 0.40761 0.02148 0.64681 0.0
C1384 C 0.40377 0.00538 0.64304 0.0
C1385 C 0.39205 0.99756 0.65032 0.0
C1386 C 0.3732 0.99702 0.67055 0.0
H1387 H 0.38934 0.98504 0.64752 0.0
C1388 C 0.35934 0.00304 0.6744 0.0
C1389 C 0.34907 0.99478 0.68316 0.0
C1390 C 0.37666 0.98266 0.67561 0.0
H1391 H 0.38738 0.97788 0.67318 0.0
C1392 C 0.36649 0.9744 0.68413 0.0
H1393 H 0.35657 0.01411 0.67061 0.0
C1394 C 0.35278 0.98035 0.68785 0.0
H1395 H 0.34496 0.9735 0.69423 0.0
H1396 H 0.36924 0.96332 0.68788 0.0
H1397 H 0.94532 0.62296 0.32116 0.0
C1398 C 0.95792 0.62514 0.32184 0.0
C1399 C 0.96692 0.6177 0.33262 0.0
C1400 C 0.96512 0.63533 0.31224 0.0
H1401 H 0.99018 0.61494 0.34249 0.0
C1402 C 0.9832 0.62089 0.33432 0.0
C1403 C 0.99069 0.63064 0.32477 0.0
C1404 C 0.98168 0.63754 0.3135 0.0
C1405 C 0.95541 0.644 0.30141 0.0
H1406 H 0.98766 0.64467 0.30586 0.0
C1407 C 0.94005 0.63795 0.29498 0.0
C1408 C 0.93065 0.64686 0.28589 0.0
C1409 C 0.96121 0.65892 0.29803 0.0
H1410 H 0.97281 0.66403 0.30254 0.0
C1411 C 0.95208 0.66765 0.28886 0.0
H1412 H 0.93526 0.62644 0.29715 0.0
C1413 C 0.93692 0.66171 0.28283 0.0
H1414 H 0.93012 0.66874 0.27566 0.0
H1415 H 0.95679 0.67912 0.28644 0.0
H1416 H 0.13318 0.59956 0.33081 0.0
H1417 H 0.10717 0.60726 0.32364 0.0
H1418 H 0.10611 0.62795 0.37091 0.0
H1419 H 0.13214 0.62049 0.37811 0.0
H1420 H 0.07982 0.60899 0.36079 0.0
H1421 H 0.11041 0.6506 0.34124 0.0
H1422 H 0.1301 0.66221 0.32578 0.0
H1423 H 0.10426 0.63905 0.28349 0.0
H1424 H 0.08451 0.62712 0.29872 0.0
H1425 H 0.00987 0.64069 0.35123 0.0
H1426 H 0.03803 0.64026 0.35572 0.0
H1427 H 0.03866 0.62273 0.30733 0.0
H1428 H 0.01041 0.62443 0.30262 0.0
H1429 H 0.06533 0.6402 0.31751 0.0
H1430 H 0.03551 0.59756 0.33697 0.0
H1431 H 0.01541 0.58627 0.35221 0.0
H1432 H 0.03971 0.61128 0.39442 0.0
H1433 H 0.05993 0.62272 0.37941 0.0
C1434 C 0.12755 0.60601 0.33961 0.0
C1435 C 0.13475 0.60931 0.35507 0.0
C1436 C 0.11265 0.61038 0.3355 0.0
C1437 C 0.10467 0.61821 0.34673 0.0
C1438 C 0.11198 0.62183 0.36206 0.0
C1439 C 0.12686 0.6175 0.36617 0.0
C1440 C 0.08839 0.62192 0.34278 0.0
C1441 C 0.07672 0.61599 0.35146 0.0
C1442 C 0.08421 0.63069 0.33032 0.0
C1443 C 0.09607 0.63784 0.32114 0.0
C1444 C 0.10899 0.64787 0.32866 0.0
C1445 C 0.12015 0.65453 0.31993 0.0
C1446 C 0.11846 0.65133 0.30367 0.0
C1447 C 0.10557 0.6415 0.29609 0.0
C1448 C 0.09439 0.63479 0.30477 0.0
C1449 C 0.01611 0.63738 0.34143 0.0
C1450 C 0.00801 0.63278 0.32656 0.0
C1451 C 0.0322 0.63687 0.34404 0.0
C1452 C 0.04044 0.63094 0.33199 0.0
C1453 C 0.03255 0.62723 0.31685 0.0
C1454 C 0.01644 0.62823 0.31414 0.0
C1455 C 0.05683 0.62736 0.3356 0.0
C1456 C 0.06847 0.63321 0.32684 0.0
C1457 C 0.06102 0.61841 0.34793 0.0
C1458 C 0.04919 0.61105 0.35706 0.0
C1459 C 0.03656 0.60063 0.3495 0.0
C1460 C 0.02515 0.59421 0.35809 0.0
C1461 C 0.02627 0.59806 0.37427 0.0
C1462 C 0.03886 0.60828 0.38189 0.0
C1463 C 0.05033 0.6147 0.37336 0.0
H1464 H 0.0174 0.59309 0.38088 0.0
H1465 H 0.1271 0.6565 0.29694 0.0
H1466 H 0.37136 0.39085 0.79903 0.0
H1467 H 0.39619 0.38578 0.78914 0.0
H1468 H 0.41862 0.42853 0.81528 0.0
H1469 H 0.39388 0.43387 0.8248 0.0
H1470 H 0.42678 0.4258 0.78624 0.0
H1471 H 0.42321 0.39288 0.82802 0.0
H1472 H 0.41094 0.37217 0.84189 0.0
H1473 H 0.4117 0.33862 0.80201 0.0
H1474 H 0.4238 0.35919 0.78781 0.0
H1475 H 0.50743 0.41603 0.7923 0.0
H1476 H 0.48191 0.41303 0.80244 0.0
H1477 H 0.4636 0.38109 0.76199 0.0
H1478 H 0.48869 0.38466 0.75135 0.0
H1479 H 0.45181 0.37776 0.79542 0.0
H1480 H 0.46035 0.40866 0.75344 0.0
H1481 H 0.48542 0.42418 0.74244 0.0
H1482 H 0.47432 0.47105 0.79101 0.0
H1483 H 0.45105 0.44736 0.79655 0.0
C1484 C 0.38157 0.3992 0.80258 0.0
C1485 C 0.38066 0.41271 0.8128 0.0
C1486 C 0.39577 0.39623 0.79702 0.0
C1487 C 0.4093 0.40671 0.80158 0.0
C1488 C 0.40835 0.42026 0.81163 0.0
C1489 C 0.39422 0.42322 0.81719 0.0
C1490 C 0.4245 0.40377 0.79589 0.0
C1491 C 0.43224 0.41531 0.78823 0.0
C1492 C 0.43154 0.38996 0.79829 0.0
C1493 C 0.42423 0.37761 0.80679 0.0
C1494 C 0.42063 0.38112 0.82216 0.0
C1495 C 0.41373 0.3694 0.83009 0.0
C1496 C 0.41049 0.3541 0.82282 0.0
C1497 C 0.41418 0.35048 0.80761 0.0
C1498 C 0.42107 0.36216 0.79962 0.0
C1499 C 0.49807 0.40813 0.78567 0.0
C1500 C 0.49993 0.40131 0.77058 0.0
C1501 C 0.48348 0.40637 0.79153 0.0
C1502 C 0.47056 0.39773 0.78242 0.0
C1503 C 0.47323 0.38841 0.76889 0.0
C1504 C 0.48769 0.39045 0.76282 0.0
C1505 C 0.45424 0.39983 0.78598 0.0
C1506 C 0.44624 0.38813 0.79318 0.0
C1507 C 0.44684 0.41353 0.78305 0.0
C1508 C 0.45454 0.42644 0.77551 0.0
C1509 C 0.46452 0.42004 0.75948 0.0
C1510 C 0.48045 0.42992 0.75215 0.0
C1511 C 0.48852 0.44896 0.75993 0.0
C1512 C 0.47282 0.45991 0.78357 0.0
C1513 C 0.45764 0.4452 0.78673 0.0
H1514 H 0.49825 0.45396 0.75487 0.0
H1515 H 0.40516 0.34504 0.82898 0.0
H1516 H 0.52821 0.99574 0.57894 0.0
H1517 H 0.50057 0.99239 0.58284 0.0
H1518 H 0.51249 0.9793 0.62896 0.0
H1519 H 0.54031 0.98296 0.6253 0.0
H1520 H 0.48494 0.96148 0.61207 0.0
H1521 H 0.50683 0.01503 0.62681 0.0
H1522 H 0.52103 0.04029 0.62303 0.0
H1523 H 0.48801 0.04451 0.58362 0.0
H1524 H 0.47375 0.01914 0.58704 0.0
H1525 H 0.42232 0.98426 0.65313 0.0
H1526 H 0.44536 0.97648 0.6416 0.0
H1527 H 0.43238 0.99961 0.60101 0.0
H1528 H 0.40972 0.0081 0.61304 0.0
H1529 H 0.45972 0.01053 0.61233 0.0
H1530 H 0.43557 0.95837 0.59992 0.0
H1531 H 0.42106 0.93352 0.60441 0.0
H1532 H 0.45742 0.92659 0.63974 0.0
H1533 H 0.47206 0.95151 0.63563 0.0
C1534 C 0.52498 0.99211 0.58991 0.0
C1535 C 0.5365 0.9899 0.60192 0.0
C1536 C 0.50917 0.99008 0.59206 0.0
C1537 C 0.50452 0.98576 0.60624 0.0
C1538 C 0.51587 0.98261 0.61791 0.0
C1539 C 0.53175 0.9847 0.6158 0.0
C1540 C 0.488 0.98601 0.60936 0.0
C1541 C 0.47938 0.97219 0.61227 0.0
C1542 C 0.48071 0.99992 0.6092 0.0
C1543 C 0.48936 0.01509 0.60704 0.0
C1544 C 0.5027 0.02126 0.61723 0.0
C1545 C 0.51074 0.03562 0.61518 0.0
C1546 C 0.50546 0.04397 0.60306 0.0
C1547 C 0.49211 0.03801 0.59298 0.0
C1548 C 0.48405 0.02364 0.59497 0.0
C1549 C 0.42407 0.98711 0.64147 0.0
C1550 C 0.4143 0.99671 0.63391 0.0
C1551 C 0.43725 0.98264 0.63485 0.0
C1552 C 0.44067 0.98741 0.62038 0.0
C1553 C 0.43005 0.99582 0.6122 0.0
C1554 C 0.41706 1.00058 0.61899 0.0
C1555 C 0.4564 0.98598 0.61516 0.0
C1556 C 0.46503 0.99967 0.61193 0.0
C1557 C 0.4636 0.97195 0.61507 0.0
C1558 C 0.45487 0.95689 0.61753 0.0
C1559 C 0.44043 0.95161 0.60873 0.0
C1560 C 0.43219 0.9375 0.61119 0.0
C1561 C 0.4383 0.92849 0.62237 0.0
C1562 C 0.4527 0.93357 0.63108 0.0
C1563 C 0.46099 0.94768 0.62867 0.0
H1564 H 0.4319 0.91757 0.62427 0.0
H1565 H 0.51168 0.05509 0.6015 0.0
H1566 H 0.95699 0.01821 0.25117 0.0
H1567 H 0.98552 0.02195 0.25587 0.0
H1568 H 0.98845 0.00917 0.20686 0.0
H1569 H 0.96003 0.00475 0.20219 0.0
H1570 H 0.00738 0.99406 0.2237 0.0
H1571 H 0.99707 0.04748 0.22422 0.0
H1572 H 0.98494 0.07113 0.23245 0.0
H1573 H 0.00565 0.0707 0.27958 0.0
H1574 H 0.01774 0.04691 0.27167 0.0
H1575 H 0.08766 0.01117 0.2242 0.0
H1576 H 0.06034 0.01609 0.21923 0.0
H1577 H 0.05701 0.02207 0.26881 0.0
H1578 H 0.08433 0.01709 0.27387 0.0
H1579 H 0.03866 0.04166 0.25161 0.0
H1580 H 0.04778 0.98746 0.25097 0.0
H1581 H 0.06074 0.96446 0.2424 0.0
H1582 H 0.04216 0.96679 0.19489 0.0
H1583 H 0.02935 0.99002 0.20316 0.0
C1584 C 0.9637 0.01617 0.24139 0.0
C1585 C 0.95616 0.01117 0.22629 0.0
C1586 C 0.98003 0.01849 0.24407 0.0
C1587 C 0.98917 0.01599 0.2317 0.0
C1588 C 0.98167 0.01123 0.2166 0.0
C1589 C 0.96538 0.00885 0.21392 0.0
C1590 C 0.00652 0.01745 0.23456 0.0
C1591 C 0.01419 0.00459 0.22958 0.0
C1592 C 0.01545 0.03103 0.24257 0.0
C1593 C 0.00818 0.04532 0.24738 0.0
C1594 C 0.99893 0.05235 0.23636 0.0
C1595 C 0.99209 0.06579 0.24097 0.0
C1596 C 0.99449 0.07239 0.25654 0.0
C1597 C 0.00378 0.06557 0.26753 0.0
C1598 C 0.01064 0.05211 0.26299 0.0
C1599 C 0.08121 0.01392 0.23404 0.0
C1600 C 0.08806 0.01353 0.24941 0.0
C1601 C 0.06563 0.01675 0.23119 0.0
C1602 C 0.0566 0.01915 0.24365 0.0
C1603 C 0.06379 0.02021 0.25904 0.0
C1604 C 0.07941 0.0174 0.26191 0.0
C1605 C 0.03935 0.01837 0.24058 0.0
C1606 C 0.03176 0.03124 0.24563 0.0
C1607 C 0.03043 0.00482 0.23259 0.0
C1608 C 0.03773 0.99057 0.22766 0.0
C1609 C 0.04654 0.98313 0.23868 0.0
C1610 C 0.05386 0.97005 0.23388 0.0
C1611 C 0.05231 0.96419 0.2181 0.0
C1612 C 0.04338 0.97136 0.20711 0.0
C1613 C 0.03608 0.98448 0.21184 0.0
H1614 H 0.058 0.95408 0.2144 0.0
H1615 H 0.98918 0.0828 0.26008 0.0
H1616 H 0.32854 0.13985 0.61523 0.0
H1617 H 0.32131 0.11399 0.6234 0.0
H1618 H 0.36497 0.0992 0.61075 0.0
H1619 H 0.37229 0.12492 0.60275 0.0
H1620 H 0.34088 0.07868 0.59804 0.0
H1621 H 0.35817 0.10596 0.64888 0.0
H1622 H 0.35863 0.12656 0.67081 0.0
H1623 H 0.31039 0.11245 0.67513 0.0
H1624 H 0.30958 0.09189 0.65306 0.0
H1625 H 0.34365 0.00719 0.62804 0.0
H1626 H 0.34948 0.0351 0.62633 0.0
H1627 H 0.30237 0.04238 0.63502 0.0
H1628 H 0.29634 0.01421 0.63651 0.0
H1629 H 0.32592 0.06685 0.64986 0.0
H1630 H 0.30891 0.0392 0.59941 0.0
H1631 H 0.30837 0.01888 0.57721 0.0
H1632 H 0.35617 0.03398 0.57201 0.0
H1633 H 0.3571 0.05422 0.59439 0.0
C1634 C 0.3367 0.13117 0.61444 0.0
C1635 C 0.35092 0.13442 0.60816 0.0
C1636 C 0.33255 0.11638 0.6191 0.0
C1637 C 0.34259 0.10462 0.61767 0.0
C1638 C 0.35697 0.10802 0.61186 0.0
C1639 C 0.36111 0.12274 0.60721 0.0
C1640 C 0.33786 0.08846 0.62128 0.0
C1641 C 0.3378 0.07611 0.60945 0.0
C1642 C 0.33333 0.0851 0.63599 0.0
C1643 C 0.33376 0.09751 0.64919 0.0
C1644 C 0.34761 0.10735 0.6544 0.0
C1645 C 0.34795 0.119 0.66688 0.0
C1646 C 0.33453 0.12085 0.67432 0.0
C1647 C 0.32076 0.11102 0.66933 0.0
C1648 C 0.32036 0.09937 0.65684 0.0
C1649 C 0.33455 0.01474 0.62971 0.0
C1650 C 0.31943 0.00846 0.63204 0.0
C1651 C 0.33791 0.03069 0.62879 0.0
C1652 C 0.32627 0.04076 0.63025 0.0
C1653 C 0.31149 0.03478 0.63378 0.0
C1654 C 0.30807 0.01871 0.63464 0.0
C1655 C 0.3293 0.05717 0.62671 0.0
C1656 C 0.32897 0.06949 0.63847 0.0
C1657 C 0.33349 0.06057 0.61191 0.0
C1658 C 0.3331 0.04817 0.59866 0.0
C1659 C 0.31936 0.03809 0.59365 0.0
C1660 C 0.31897 0.02662 0.581 0.0
C1661 C 0.3322 0.02521 0.57315 0.0
C1662 C 0.3459 0.03516 0.57804 0.0
C1663 C 0.34637 0.04662 0.59072 0.0
H1664 H 0.33185 0.01636 0.56332 0.0
H1665 H 0.33482 0.12986 0.68399 0.0
H1666 H 0.25102 0.9552 1.00084 0.0
H1667 H 0.2569 0.98361 0.00571 0.0
H1668 H 0.21081 0.98732 0.01969 0.0
H1669 H 0.20493 0.95892 0.01512 0.0
H1670 H 0.21739 0.00634 0.9976 0.0
H1671 H 0.24251 0.99508 0.04641 0.0
H1672 H 0.26039 0.98217 0.06365 0.0
H1673 H 0.29958 0.00179 0.04249 0.0
H1674 H 0.28191 0.01465 0.02496 0.0
H1675 H 0.22846 0.08787 0.01316 0.0
H1676 H 0.22383 0.06062 0.01857 0.0
H1677 H 0.27059 0.05327 0.00849 0.0
H1678 H 0.27541 0.08064 0.00372 0.0
H1679 H 0.26287 0.03622 0.03062 0.0
H1680 H 0.23815 0.04507 0.98022 0.0
H1681 H 0.22069 0.05768 0.96224 0.0
H1682 H 0.18133 0.04202 0.98537 0.0
H1683 H 0.19855 0.02946 0.00363 0.0
C1684 C 0.24226 0.96201 0.00531 0.0
C1685 C 0.22745 0.95476 0.00747 0.0
C1686 C 0.24563 0.97827 0.00806 0.0
C1687 C 0.2343 0.9876 0.01308 0.0
C1688 C 0.21971 0.98036 0.01575 0.0
C1689 C 0.21635 0.96413 0.01306 0.0
C1690 C 0.2372 0.00491 0.01436 0.0
C1691 C 0.22717 0.0129 0.00505 0.0
C1692 C 0.2502 0.01342 0.02374 0.0
C1693 C 0.26086 0.00572 0.03427 0.0
C1694 C 0.25493 0.99654 0.04534 0.0
C1695 C 0.26503 0.98925 0.05518 0.0
C1696 C 0.28111 0.99113 0.05414 0.0
C1697 C 0.28712 1.00033 0.04327 0.0
C1698 C 0.27707 0.00764 0.03339 0.0
C1699 C 0.23785 0.0805 0.01251 0.0
C1700 C 0.25227 0.0863 0.008 0.0
C1701 C 0.23518 0.06492 0.01548 0.0
C1702 C 0.24673 0.05476 0.01354 0.0
C1703 C 0.26148 0.06084 0.01002 0.0
C1704 C 0.26424 0.07649 0.00732 0.0
C1705 C 0.24307 0.03763 0.01383 0.0
C1706 C 0.25299 0.02967 0.02332 0.0
C1707 C 0.23004 0.02906 0.00448 0.0
C1708 C 0.21966 0.03646 0.99339 0.0
C1709 C 0.22578 0.04439 0.98153 0.0
C1710 C 0.21594 0.05153 0.97129 0.0
C1711 C 0.19994 0.0507 0.9727 0.0
C1712 C 0.19373 0.04268 0.98432 0.0
C1713 C 0.20352 0.03554 0.99461 0.0
H1714 H 0.19235 0.05624 0.96476 0.0
H1715 H 0.28891 0.98548 0.06177 0.0
H1716 H 0.83134 0.39707 0.42711 0.0
H1717 H 0.82281 0.42231 0.42223 0.0
H1718 H 0.78954 0.39996 0.38422 0.0
H1719 H 0.79843 0.37456 0.38871 0.0
H1720 H 0.80361 0.4275 0.37686 0.0
H1721 H 0.77729 0.41019 0.4187 0.0
H1722 H 0.77383 0.40013 0.44396 0.0
H1723 H 0.80255 0.44032 0.46806 0.0
H1724 H 0.8064 0.4505 0.44292 0.0
H1725 H 0.75376 0.49076 0.38227 0.0
H1726 H 0.76588 0.46636 0.37909 0.0
H1727 H 0.80363 0.4858 0.41405 0.0
H1728 H 0.79171 0.51023 0.41712 0.0
H1729 H 0.78617 0.45912 0.42156 0.0
H1730 H 0.81155 0.47637 0.37825 0.0
H1731 H 0.81257 0.48626 0.35257 0.0
H1732 H 0.78267 0.44579 0.33075 0.0
H1733 H 0.78128 0.43576 0.35635 0.0
C1734 C 0.82241 0.39749 0.41752 0.0
C1735 C 0.81557 0.38374 0.4083 0.0
C1736 C 0.81743 0.41195 0.41484 0.0
C1737 C 0.80539 0.41301 0.40299 0.0
C1738 C 0.79881 0.39941 0.39346 0.0
C1739 C 0.80381 0.38488 0.39613 0.0
C1740 C 0.79941 0.4283 0.40105 0.0
C1741 C 0.79962 0.43435 0.38657 0.0
C1742 C 0.79426 0.43727 0.41375 0.0
C1743 C 0.79228 0.43102 0.42889 0.0
C1744 C 0.78302 0.41679 0.42937 0.0
C1745 C 0.78096 0.41109 0.44367 0.0
C1746 C 0.78799 0.41956 0.4576 0.0
C1747 C 0.79712 0.43376 0.45726 0.0
C1748 C 0.79925 0.4395 0.44298 0.0
C1749 C 0.76499 0.49006 0.38878 0.0
C1750 C 0.77172 0.50232 0.40008 0.0
C1751 C 0.77186 0.47609 0.387 0.0
C1752 C 0.78556 0.47424 0.39647 0.0
C1753 C 0.79301 0.48698 0.40671 0.0
C1754 C 0.7862 0.50092 0.40844 0.0
C1755 C 0.79079 0.45853 0.39753 0.0
C1756 C 0.79026 0.45232 0.41186 0.0
C1757 C 0.79535 0.44939 0.38465 0.0
C1758 C 0.79618 0.4554 0.36925 0.0
C1759 C 0.80506 0.46965 0.368 0.0
C1760 C 0.80574 0.47526 0.35345 0.0
C1761 C 0.79765 0.46668 0.34004 0.0
C1762 C 0.78891 0.45244 0.34115 0.0
C1763 C 0.78819 0.44678 0.35568 0.0
H1764 H 0.79819 0.47104 0.32879 0.0
H1765 H 0.78634 0.41515 0.46867 0.0
H1766 H 0.61394 0.53046 0.97833 0.0
H1767 H 0.61697 0.5024 0.9758 0.0
H1768 H 0.5835 0.4951 0.00886 0.0
H1769 H 0.58049 0.52299 0.01147 0.0
H1770 H 0.61048 0.48123 0.01547 0.0
H1771 H 0.57272 0.48412 0.97135 0.0
H1772 H 0.56272 0.49388 0.94689 0.0
H1773 H 0.60132 0.47803 0.92454 0.0
H1774 H 0.61169 0.46837 0.94895 0.0
H1775 H 0.60814 0.40101 0.01139 0.0
H1776 H 0.59673 0.42534 0.00775 0.0
H1777 H 0.62508 0.43289 0.9703 0.0
H1778 H 0.63576 0.40813 0.97336 0.0
H1779 H 0.59942 0.44647 0.96557 0.0
H1780 H 0.63842 0.44535 0.00938 0.0
H1781 H 0.64909 0.43537 0.03353 0.0
H1782 H 0.6098 0.44866 0.05634 0.0
H1783 H 0.59875 0.45847 0.03226 0.0
C1784 C 0.60726 0.52284 0.98505 0.0
C1785 C 0.59692 0.5289 0.99503 0.0
C1786 C 0.6089 0.50683 0.98351 0.0
C1787 C 0.60035 0.49666 0.99205 0.0
C1788 C 0.59015 0.50273 0.00211 0.0
C1789 C 0.58839 0.51865 0.00352 0.0
C1790 C 0.60236 0.47976 0.99098 0.0
C1791 C 0.60787 0.47358 0.0046 0.0
C1792 C 0.5993 0.46989 0.97672 0.0
C1793 C 0.59307 0.47567 0.96203 0.0
C1794 C 0.57916 0.48284 0.96126 0.0
C1795 C 0.57341 0.48833 0.9474 0.0
C1796 C 0.5814 0.48662 0.93418 0.0
C1797 C 0.59515 0.47937 0.93479 0.0
C1798 C 0.60097 0.47388 0.94864 0.0
C1799 C 0.6113 0.40749 0.00189 0.0
C1800 C 0.62285 0.40278 0.9927 0.0
C1801 C 0.60497 0.4215 0.99994 0.0
C1802 C 0.61053 0.43125 0.98917 0.0
C1803 C 0.62075 0.42568 0.97883 0.0
C1804 C 0.62679 0.41147 0.98052 0.0
C1805 C 0.60749 0.44791 0.99009 0.0
C1806 C 0.60193 0.45409 0.97645 0.0
C1807 C 0.61073 0.4579 0.00432 0.0
C1808 C 0.61766 0.45248 0.01896 0.0
C1809 C 0.63203 0.44609 0.01953 0.0
C1810 C 0.63813 0.44044 0.03319 0.0
C1811 C 0.63006 0.44128 0.0464 0.0
C1812 C 0.61598 0.44794 0.04605 0.0
C1813 C 0.6098 0.45355 0.03241 0.0
H1814 H 0.6347 0.4368 0.05693 0.0
H1815 H 0.57693 0.49087 0.92345 0.0
H1816 H 0.60623 0.33666 0.14222 0.0
H1817 H 0.61507 0.32894 0.11689 0.0
H1818 H 0.632 0.37692 0.11338 0.0
H1819 H 0.62334 0.3847 0.13876 0.0
H1820 H 0.61468 0.3641 0.08699 0.0
H1821 H 0.65736 0.34995 0.12028 0.0
H1822 H 0.66997 0.33713 0.14164 0.0
H1823 H 0.65028 0.29217 0.11879 0.0
H1824 H 0.63736 0.30473 0.09739 0.0
H1825 H 0.64592 0.34838 0.01692 0.0
H1826 H 0.64694 0.356 0.04502 0.0
H1827 H 0.62937 0.3089 0.05151 0.0
H1828 H 0.62902 0.30114 0.02342 0.0
H1829 H 0.64884 0.32223 0.07676 0.0
H1830 H 0.60468 0.33626 0.04472 0.0
H1831 H 0.59293 0.34853 0.02253 0.0
H1832 H 0.61532 0.39345 0.04292 0.0
H1833 H 0.62736 0.3814 0.06519 0.0
C1834 C 0.61209 0.34553 0.13621 0.0
C1835 C 0.61402 0.36132 0.14253 0.0
C1836 C 0.61712 0.34111 0.12169 0.0
C1837 C 0.62428 0.35234 0.11324 0.0
C1838 C 0.62646 0.36805 0.11965 0.0
C1839 C 0.62145 0.37249 0.13415 0.0
C1840 C 0.62877 0.34784 0.09739 0.0
C1841 C 0.62237 0.35513 0.08483 0.0
C1842 C 0.63852 0.33589 0.09446 0.0
C1843 C 0.64628 0.3283 0.1073 0.0
C1844 C 0.65561 0.33733 0.11987 0.0
C1845 C 0.66283 0.33011 0.13197 0.0
C1846 C 0.66089 0.31385 0.13159 0.0
C1847 C 0.65175 0.30477 0.11908 0.0
C1848 C 0.64449 0.31193 0.10695 0.0
C1849 C 0.64279 0.33958 0.02445 0.0
C1850 C 0.6373 0.32423 0.01806 0.0
C1851 C 0.64328 0.34393 0.04047 0.0
C1852 C 0.63782 0.33312 0.05031 0.0
C1853 C 0.63355 0.31746 0.04413 0.0
C1854 C 0.63335 0.31303 0.0281 0.0
C1855 C 0.63474 0.33848 0.06646 0.0
C1856 C 0.64129 0.3313 0.07902 0.0
C1857 C 0.62504 0.35049 0.06941 0.0
C1858 C 0.61705 0.3579 0.05654 0.0
C1859 C 0.6071 0.34876 0.04448 0.0
C1860 C 0.6004 0.35566 0.03188 0.0
C1861 C 0.60339 0.37175 0.03131 0.0
C1862 C 0.613 0.38099 0.0434 0.0
C1863 C 0.61974 0.37413 0.05603 0.0
H1864 H 0.5982 0.37703 0.02152 0.0
H1865 H 0.6665 0.30828 0.14096 0.0
H1866 H 0.01041 0.25314 0.9552 0.0
H1867 H 0.01551 0.25881 0.98363 0.0
H1868 H 0.01878 0.20993 0.9877 0.0
H1869 H 0.01395 0.2042 0.95932 0.0
H1870 H 0.99888 0.22182 0.00673 0.0
H1871 H 0.05103 0.23608 0.99493 0.0
H1872 H 0.07143 0.24992 0.98183 0.0
H1873 H 0.05944 0.29404 0.0017 0.0
H1874 H 0.03881 0.28046 0.01474 0.0
H1875 H 0.01706 0.22851 0.08713 0.0
H1876 H 0.02258 0.224 0.05995 0.0
H1877 H 0.01854 0.2725 0.05443 0.0
H1878 H 0.01329 0.2771 0.08171 0.0
H1879 H 0.04013 0.26055 0.03633 0.0
H1880 H 0.9872 0.24676 0.04666 0.0
H1881 H 0.96702 0.23339 0.06039 0.0
H1882 H 0.97993 0.18884 0.04287 0.0
H1883 H 1.00048 0.20196 0.02936 0.0
C1884 C 0.01254 0.24364 0.96211 0.0
C1885 C 0.01166 0.22819 0.95497 0.0
C1886 C 0.01543 0.2469 0.97837 0.0
C1887 C 0.01755 0.23479 0.9878 0.0
C1888 C 0.0171 0.21944 0.98067 0.0
C1889 C 0.01427 0.21618 0.96444 0.0
C1890 C 0.01916 0.23793 0.0051 0.0
C1891 C 0.00808 0.23008 0.0132 0.0
C1892 C 0.03088 0.24905 0.01352 0.0
C1893 C 0.04327 0.25725 0.00569 0.0
C1894 C 0.05265 0.24874 0.9964 0.0
C1895 C 0.06427 0.25653 0.989 0.0
C1896 C 0.0667 0.27285 0.9909 0.0
C1897 C 0.05753 0.2814 1.00022 0.0
C1898 C 0.04588 0.27366 0.00763 0.0
C1899 C 0.01783 0.23829 0.08024 0.0
C1900 C 0.0146 0.25311 0.08644 0.0
C1901 C 0.02095 0.23571 0.06472 0.0
C1902 C 0.02061 0.24784 0.05508 0.0
C1903 C 0.01881 0.26297 0.06165 0.0
C1904 C 0.01583 0.26559 0.07724 0.0
C1905 C 0.01996 0.24431 0.03788 0.0
C1906 C 0.03107 0.25217 0.02982 0.0
C1907 C 0.00818 0.23328 0.02942 0.0
C1908 C 0.99549 0.22535 0.03712 0.0
C1909 C 0.9858 0.23411 0.0458 0.0
C1910 C 0.9743 0.22659 0.05355 0.0
C1911 C 0.9722 0.21028 0.05252 0.0
C1912 C 0.98158 0.20147 0.04369 0.0
C1913 C 0.99317 0.20895 0.03599 0.0
H1914 H 0.9633 0.20448 0.05854 0.0
H1915 H 0.07571 0.27887 0.98517 0.0
H1916 H 0.40506 0.84077 0.39321 0.0
H1917 H 0.39866 0.8315 0.41784 0.0
H1918 H 0.3951 0.78382 0.39674 0.0
H1919 H 0.4018 0.79295 0.37214 0.0
H1920 H 0.37223 0.78938 0.41767 0.0
H1921 H 0.42837 0.79883 0.41589 0.0
H1922 H 0.45262 0.81513 0.41257 0.0
H1923 H 0.44444 0.84833 0.45035 0.0
H1924 H 0.42001 0.83233 0.45374 0.0
H1925 H 0.39134 0.74487 0.47987 0.0
H1926 H 0.38656 0.758 0.45642 0.0
H1927 H 0.4008 0.80269 0.48356 0.0
H1928 H 0.40645 0.78934 0.50685 0.0
H1929 H 0.41589 0.80122 0.46025 0.0
H1930 H 0.36164 0.7905 0.46485 0.0
H1931 H 0.33717 0.77473 0.4684 0.0
H1932 H 0.34067 0.74505 0.42637 0.0
H1933 H 0.36529 0.76051 0.42266 0.0
C1934 C 0.40282 0.82831 0.39376 0.0
C1935 C 0.40418 0.8176 0.38075 0.0
C1936 C 0.39905 0.82305 0.40782 0.0
C1937 C 0.39657 0.80698 0.40914 0.0
C1938 C 0.39693 0.79628 0.39593 0.0
C1939 C 0.40075 0.80153 0.38187 0.0
C1940 C 0.39526 0.8013 0.42461 0.0
C1941 C 0.38175 0.79189 0.42702 0.0
C1942 C 0.40753 0.80496 0.43689 0.0
C1943 C 0.42229 0.81448 0.43494 0.0
C1944 C 0.43169 0.80967 0.4234 0.0
C1945 C 0.44547 0.81884 0.42152 0.0
C1946 C 0.45004 0.83278 0.43121 0.0
C1947 C 0.44087 0.83755 0.44284 0.0
C1948 C 0.42706 0.82843 0.44474 0.0
C1949 C 0.39293 0.75753 0.48087 0.0
C1950 C 0.39907 0.76617 0.4951 0.0
C1951 C 0.39016 0.76506 0.46747 0.0
C1952 C 0.39315 0.7814 0.46816 0.0
C1953 C 0.3984 0.79008 0.48268 0.0
C1954 C 0.4015 0.78251 0.496 0.0
C1955 C 0.39278 0.78916 0.45354 0.0
C1956 C 0.40611 0.79891 0.45116 0.0
C1957 C 0.38024 0.78591 0.44141 0.0
C1958 C 0.36538 0.77662 0.44354 0.0
C1959 C 0.35725 0.78055 0.45641 0.0
C1960 C 0.34334 0.77168 0.45845 0.0
C1961 C 0.33738 0.75889 0.44763 0.0
C1962 C 0.3453 0.75497 0.43474 0.0
C1963 C 0.35922 0.7638 0.43265 0.0
H1964 H 0.32662 0.75203 0.44923 0.0
H1965 H 0.46071 0.83986 0.42974 0.0
H1966 H 0.97949 0.61522 0.53478 0.0
H1967 H 0.97706 0.61949 0.50704 0.0
H1968 H 0.0089 0.58519 0.49798 0.0
H1969 H 0.0115 0.58101 0.52556 0.0
H1970 H 0.0165 0.61233 0.48531 0.0
H1971 H 0.9707 0.57624 0.48682 0.0
H1972 H 0.94586 0.56689 0.49627 0.0
H1973 H 0.9257 0.60755 0.48263 0.0
H1974 H 0.95051 0.61726 0.47328 0.0
H1975 H 0.01242 0.61095 0.40526 0.0
H1976 H 0.00771 0.59958 0.42938 0.0
H1977 H 0.97347 0.63154 0.43791 0.0
H1978 H 0.97779 0.64251 0.41351 0.0
H1979 H 0.96644 0.60495 0.45069 0.0
H1980 H 0.01188 0.64185 0.45042 0.0
H1981 H 0.0365 0.65189 0.44091 0.0
H1982 H 0.05736 0.61112 0.45307 0.0
H1983 H 0.03277 0.60068 0.46237 0.0
C1984 C 0.98596 0.60861 0.52685 0.0
C1985 C 0.99562 0.59772 0.53234 0.0
C1986 C 0.98447 0.61097 0.51101 0.0
C1987 C 0.9927 0.60255 0.50043 0.0
C1988 C 0.00239 0.59175 0.50592 0.0
C1989 C 0.00378 0.58931 0.52167 0.0
C1990 C 0.99176 0.60536 0.48373 0.0
C1991 C 0.00559 0.61049 0.47769 0.0
C1992 C 0.97745 0.60338 0.4739 0.0
C1993 C 0.96252 0.59755 0.4795 0.0
C1994 C 0.96102 0.58326 0.48596 0.0
C1995 C 0.94693 0.57788 0.49127 0.0
C1996 C 0.93422 0.58664 0.49009 0.0
C1997 C 0.93556 0.60078 0.48356 0.0
C1998 C 0.94963 0.60622 0.47824 0.0
C1999 C 0.00338 0.61501 0.41192 0.0
C2000 C 0.99554 0.62764 0.40762 0.0
C2001 C 1.00079 0.60863 0.42577 0.0
C2002 C 0.99062 0.61509 0.4357 0.0
C2003 C 0.98147 0.62647 0.43051 0.0
C2004 C 0.98388 0.63268 0.41651 0.0
C2005 C 0.99123 0.61171 0.45224 0.0
C2006 C 0.97736 0.60665 0.45829 0.0
C2007 C 0.0055 0.61394 0.46219 0.0
C2008 C 0.02041 0.6204 0.45692 0.0
C2009 C 0.02168 0.63498 0.45099 0.0
C2010 C 0.03563 0.64074 0.44563 0.0
C2011 C 0.04844 0.6321 0.44632 0.0
C2012 C 0.04739 0.61776 0.45249 0.0
C2013 C 0.03346 0.61191 0.4578 0.0
H2014 H 0.0592 0.6365 0.44209 0.0
H2015 H 0.92333 0.58245 0.49421 0.0
H2016 H 0.85221 0.37321 0.61801 0.0
H2017 H 0.87834 0.36659 0.62654 0.0
H2018 H 0.88096 0.40003 0.6674 0.0
H2019 H 0.85499 0.40693 0.65879 0.0
H2020 H 0.90666 0.40374 0.65187 0.0
H2021 H 0.87636 0.36111 0.6705 0.0
H2022 H 0.85639 0.33836 0.66824 0.0
H2023 H 0.88048 0.31419 0.63383 0.0
H2024 H 0.90049 0.33689 0.63573 0.0
H2025 H 0.97534 0.38761 0.68922 0.0
H2026 H 0.94968 0.38894 0.68366 0.0
H2027 H 0.94593 0.35313 0.6458 0.0
H2028 H 0.97118 0.34941 0.65066 0.0
H2029 H 0.92071 0.35061 0.65972 0.0
H2030 H 0.94948 0.3924 0.63901 0.0
H2031 H 0.96967 0.41468 0.63973 0.0
H2032 H 0.94866 0.44001 0.67584 0.0
H2033 H 0.92833 0.41778 0.67541 0.0
C2034 C 0.85833 0.3791 0.62885 0.0
C2035 C 0.85154 0.39062 0.63771 0.0
C2036 C 0.8732 0.37521 0.63378 0.0
C2037 C 0.88156 0.38275 0.64766 0.0
C2038 C 0.87469 0.39404 0.65668 0.0
C2039 C 0.8598 0.39788 0.65179 0.0
C2040 C 0.89784 0.37963 0.65229 0.0
C2041 C 0.90969 0.39216 0.65385 0.0
C2042 C 0.90186 0.36443 0.6543 0.0
C2043 C 0.88985 0.35077 0.65316 0.0
C2044 C 0.87733 0.351 0.66236 0.0
C2045 C 0.86602 0.3381 0.66116 0.0
C2046 C 0.86715 0.32485 0.65087 0.0
C2047 C 0.87961 0.32446 0.64178 0.0
C2048 C 0.89095 0.33734 0.64293 0.0
C2049 C 0.97093 0.37938 0.67911 0.0
C2050 C 0.98075 0.36942 0.66964 0.0
C2051 C 0.95497 0.38066 0.67615 0.0
C2052 C 0.94598 0.37196 0.66368 0.0
C2053 C 0.95287 0.36074 0.65523 0.0
C2054 C 0.96878 0.35919 0.65832 0.0
C2055 C 0.92949 0.37476 0.65941 0.0
C2056 C 0.91765 0.36219 0.65783 0.0
C2057 C 0.92544 0.38989 0.65712 0.0
C2058 C 0.93748 0.40338 0.65727 0.0
C2059 C 0.94921 0.40269 0.64716 0.0
C2060 C 0.96068 0.41531 0.64752 0.0
C2061 C 0.96052 0.42873 0.65787 0.0
C2062 C 0.9488 0.42959 0.66785 0.0
C2063 C 0.93727 0.417 0.66753 0.0
H2064 H 0.96944 0.43848 0.65814 0.0
H2065 H 0.85838 0.31488 0.64996 0.0
H2066 H 0.63021 0.59053 0.22852 0.0
H2067 H 0.60625 0.59674 0.23933 0.0
H2068 H 0.58611 0.60497 0.19366 0.0
H2069 H 0.61027 0.59929 0.18284 0.0
H2070 H 0.57761 0.62564 0.21598 0.0
H2071 H 0.57828 0.57025 0.20707 0.0
H2072 H 0.58824 0.54471 0.20908 0.0
H2073 H 0.58774 0.55082 0.25887 0.0
H2074 H 0.57805 0.57656 0.25719 0.0
H2075 H 0.49626 0.60546 0.22484 0.0
H2076 H 0.52285 0.61073 0.21772 0.0
H2077 H 0.54159 0.60313 0.26411 0.0
H2078 H 0.51506 0.59771 0.27115 0.0
H2079 H 0.55139 0.5836 0.24228 0.0
H2080 H 0.54821 0.63876 0.25022 0.0
H2081 H 0.53654 0.66324 0.24687 0.0
H2082 H 0.53992 0.65654 0.19754 0.0
H2083 H 0.55141 0.63189 0.20055 0.0
C2084 C 0.62084 0.594 0.22082 0.0
C2085 C 0.62213 0.59426 0.20476 0.0
C2086 C 0.60708 0.59742 0.227 0.0
C2087 C 0.59428 0.60107 0.21726 0.0
C2088 C 0.5958 0.60212 0.20139 0.0
C2089 C 0.60957 0.59871 0.1952 0.0
C2090 C 0.57899 0.60272 0.22339 0.0
C2091 C 0.57181 0.61643 0.22166 0.0
C2092 C 0.57148 0.59076 0.23094 0.0
C2093 C 0.57765 0.57544 0.23202 0.0
C2094 C 0.58048 0.56624 0.21847 0.0
C2095 C 0.58605 0.55171 0.21955 0.0
C2096 C 0.58867 0.54617 0.2341 0.0
C2097 C 0.58575 0.55515 0.24761 0.0
C2098 C 0.58023 0.56972 0.2466 0.0
C2099 C 0.50606 0.60557 0.23369 0.0
C2100 C 0.50365 0.60111 0.24851 0.0
C2101 C 0.52126 0.60854 0.22961 0.0
C2102 C 0.53424 0.60722 0.24035 0.0
C2103 C 0.53177 0.60414 0.2556 0.0
C2104 C 0.51663 0.60111 0.25964 0.0
C2105 C 0.55005 0.60663 0.23513 0.0
C2106 C 0.55728 0.59298 0.23687 0.0
C2107 C 0.55743 0.61855 0.22745 0.0
C2108 C 0.55056 0.63339 0.2256 0.0
C2109 C 0.54635 0.64243 0.23864 0.0
C2110 C 0.53979 0.65636 0.2368 0.0
C2111 C 0.53746 0.66143 0.22199 0.0
C2112 C 0.54172 0.65259 0.209 0.0
C2113 C 0.54828 0.63865 0.21077 0.0
H2114 H 0.53238 0.67221 0.2206 0.0
H2115 H 0.59293 0.5349 0.23491 0.0
H2116 H 0.47939 0.02292 0.42445 0.0
H2117 H 0.50679 0.027 0.41972 0.0
H2118 H 0.49406 0.0101 0.37107 0.0
H2119 H 0.4667 0.00541 0.37585 0.0
H2120 H 0.51832 0.99687 0.38234 0.0
H2121 H 0.50453 0.04932 0.3834 0.0
H2122 H 0.49412 0.07306 0.39438 0.0
H2123 H 0.52882 0.07746 0.43411 0.0
H2124 H 0.5393 0.05362 0.42346 0.0
H2125 H 0.5899 0.03505 0.35636 0.0
H2126 H 0.56491 0.03935 0.36628 0.0
H2127 H 0.57439 0.00891 0.4018 0.0
H2128 H 0.59954 0.00489 0.39211 0.0
H2129 H 0.55217 0.04703 0.39694 0.0
H2130 H 0.54309 0.98034 0.39354 0.0
H2131 H 0.55324 0.9573 0.38057 0.0
H2132 H 0.56303 0.98275 0.34188 0.0
H2133 H 0.55285 0.00588 0.35456 0.0
C2134 C 0.48241 0.02002 0.41275 0.0
C2135 C 0.47083 0.01376 0.40054 0.0
C2136 C 0.49808 0.02252 0.41003 0.0
C2137 C 0.50249 0.01897 0.39502 0.0
C2138 C 0.49093 0.01295 0.38275 0.0
C2139 C 0.47526 0.01041 0.38547 0.0
C2140 C 0.51921 0.02089 0.39221 0.0
C2141 C 0.52566 0.00786 0.38556 0.0
C2142 C 0.52886 0.03523 0.39631 0.0
C2143 C 0.52261 0.0496 0.4027 0.0
C2144 C 0.50986 0.05528 0.39454 0.0
C2145 C 0.50397 0.06877 0.40069 0.0
C2146 C 0.51078 0.07674 0.41495 0.0
C2147 C 0.52354 0.07126 0.42307 0.0
C2148 C 0.52947 0.05777 0.41698 0.0
C2149 C 0.587 0.03002 0.36682 0.0
C2150 C 0.59661 0.01978 0.3736 0.0
C2151 C 0.57273 0.03241 0.37243 0.0
C2152 C 0.56779 0.02431 0.38464 0.0
C2153 C 0.57805 0.01527 0.39237 0.0
C2154 C 0.59244 0.01308 0.38692 0.0
C2155 C 0.55112 0.023 0.38732 0.0
C2156 C 0.54475 0.03607 0.39388 0.0
C2157 C 0.54142 0.00879 0.3829 0.0
C2158 C 0.54738 0.99487 0.37509 0.0
C2159 C 0.54739 0.981 0.38225 0.0
C2160 C 0.55317 0.96793 0.37496 0.0
C2161 C 0.55886 0.96859 0.36045 0.0
C2162 C 0.55873 0.98229 0.35317 0.0
C2163 C 0.55299 0.99539 0.36042 0.0
H2164 H 0.56332 0.95847 0.35481 0.0
H2165 H 0.5062 0.08718 0.41969 0.0
H2166 H 0.05082 0.00397 0.73983 0.0
H2167 H 0.02246 0.00135 0.73383 0.0
H2168 H 0.0178 0.96684 0.76624 0.0
H2169 H 0.04629 0.96907 0.77204 0.0
H2170 H 0.99605 0.95997 0.73965 0.0
H2171 H 0.01388 0.00293 0.77862 0.0
H2172 H 0.03011 0.02718 0.79006 0.0
H2173 H 0.01215 0.05118 0.7522 0.0
H2174 H 0.99598 0.02699 0.7404 0.0
H2175 H 0.91764 0.97338 0.75593 0.0
H2176 H 0.94506 0.96835 0.75595 0.0
H2177 H 0.95273 0.00466 0.7259 0.0
H2178 H 0.92547 0.00977 0.72598 0.0
H2179 H 0.97296 0.00946 0.7516 0.0
H2180 H 0.95403 0.9659 0.71319 0.0
H2181 H 0.93762 0.94146 0.70271 0.0
H2182 H 0.95703 0.91837 0.74061 0.0
H2183 H 0.97341 0.94275 0.75144 0.0
C2184 C 0.04383 0.99551 0.74539 0.0
C2185 C 0.05084 0.98682 0.75652 0.0
C2186 C 0.02759 0.99411 0.74202 0.0
C2187 C 0.01801 0.98407 0.74976 0.0
C2188 C 0.02497 0.9747 0.76018 0.0
C2189 C 0.04124 0.9761 0.76358 0.0
C2190 C 1.00081 0.98445 0.74797 0.0
C2191 C 0.99095 0.97074 0.74238 0.0
C2192 C 0.99419 0.99852 0.75146 0.0
C2193 C 0.00385 0.01311 0.75854 0.0
C2194 C 0.01349 0.01335 0.77267 0.0
C2195 C 0.02267 0.02708 0.77922 0.0
C2196 C 0.02219 0.0407 0.77184 0.0
C2197 C 0.01252 0.04062 0.75789 0.0
C2198 C 0.00335 0.0269 0.75127 0.0
C2199 C 0.92509 0.97996 0.74899 0.0
C2200 C 0.91949 0.99205 0.74106 0.0
C2201 C 0.94076 0.9771 0.74901 0.0
C2202 C 0.95098 0.98618 0.74097 0.0
C2203 C 0.9451 0.99758 0.73227 0.0
C2204 C 0.92953 1.00048 0.73231 0.0
C2205 C 0.96809 0.98507 0.74289 0.0
C2206 C 0.97799 0.99867 0.74871 0.0
C2207 C 0.97464 0.97088 0.73973 0.0
C2208 C 0.96484 0.9562 0.73321 0.0
C2209 C 0.9547 0.95565 0.71936 0.0
C2210 C 0.94543 0.9418 0.71334 0.0
C2211 C 0.94625 0.92838 0.72101 0.0
C2212 C 0.95639 0.92878 0.73469 0.0
C2213 C 0.96569 0.94261 0.74077 0.0
H2214 H 0.93906 0.91767 0.71633 0.0
H2215 H 0.0293 0.05133 0.77693 0.0
H2216 H 0.63078 0.86999 0.40481 0.0
H2217 H 0.63744 0.89568 0.39656 0.0
H2218 H 0.64932 0.87427 0.35277 0.0
H2219 H 0.64259 0.84826 0.36103 0.0
H2220 H 0.67048 0.89974 0.36499 0.0
H2221 H 0.61545 0.88962 0.35282 0.0
H2222 H 0.58828 0.88124 0.35708 0.0
H2223 H 0.59069 0.91767 0.39502 0.0
H2224 H 0.61797 0.92611 0.39117 0.0
H2225 H 0.67317 0.97935 0.34785 0.0
H2226 H 0.66679 0.95324 0.34535 0.0
H2227 H 0.65371 0.95429 0.39137 0.0
H2228 H 0.65947 0.97998 0.39607 0.0
H2229 H 0.6311 0.93752 0.36908 0.0
H2230 H 0.6879 0.94355 0.38386 0.0
H2231 H 0.71474 0.9526 0.37897 0.0
H2232 H 0.7082 0.92428 0.33469 0.0
H2233 H 0.68121 0.91527 0.33922 0.0
C2234 C 0.63472 0.8707 0.39338 0.0
C2235 C 0.63591 0.85707 0.38348 0.0
C2236 C 0.63854 0.88541 0.38867 0.0
C2237 C 0.64355 0.88691 0.3739 0.0
C2238 C 0.64536 0.87337 0.36417 0.0
C2239 C 0.64155 0.85854 0.36892 0.0
C2240 C 0.64666 0.90275 0.36888 0.0
C2241 C 0.66176 0.90792 0.36553 0.0
C2242 C 0.63528 0.91343 0.36943 0.0
C2243 C 0.61881 0.90844 0.37174 0.0
C2244 C 0.61022 0.89578 0.36214 0.0
C2245 C 0.59479 0.89103 0.36447 0.0
C2246 C 0.58777 0.8989 0.37633 0.0
C2247 C 0.59615 0.91158 0.38584 0.0
C2248 C 0.61159 0.91637 0.38357 0.0
C2249 C 0.66908 0.97597 0.35858 0.0
C2250 C 0.66749 0.98718 0.37278 0.0
C2251 C 0.66529 0.95969 0.35641 0.0
C2252 C 0.6595 0.95179 0.368 0.0
C2253 C 0.65794 0.96027 0.3819 0.0
C2254 C 0.66176 0.97638 0.38423 0.0
C2255 C 0.65509 0.93465 0.36616 0.0
C2256 C 0.63967 0.92923 0.36813 0.0
C2257 C 0.66615 0.92381 0.36426 0.0
C2258 C 0.6825 0.92888 0.3618 0.0
C2259 C 0.69216 0.93933 0.37305 0.0
C2260 C 0.7074 0.94445 0.37034 0.0
C2261 C 0.71316 0.93906 0.35651 0.0
C2262 C 0.70372 0.92847 0.34538 0.0
C2263 C 0.68845 0.92335 0.34801 0.0
H2264 H 0.72495 0.94305 0.35442 0.0
H2265 H 0.57585 0.89519 0.37819 0.0
H2266 H 0.77633 0.04174 0.9775 0.0
H2267 H 0.76916 0.01345 0.97307 0.0
H2268 H 0.73446 0.01735 0.00535 0.0
H2269 H 0.74184 0.04556 0.01014 0.0
H2270 H 0.75279 0.99484 0.01167 0.0
H2271 H 0.72402 0.0096 0.96588 0.0
H2272 H 0.72073 0.02231 0.94167 0.0
H2273 H 0.75353 0.99442 0.92145 0.0
H2274 H 0.75718 0.98168 0.94564 0.0
H2275 H 0.71878 0.91868 0.00234 0.0
H2276 H 0.71992 0.94642 0.99863 0.0
H2277 H 0.75611 0.94093 0.96827 0.0
H2278 H 0.75471 0.91299 0.97172 0.0
H2279 H 0.73696 0.96403 0.96002 0.0
H2280 H 0.76654 0.94986 0.00518 0.0
H2281 H 0.76995 0.93626 0.02879 0.0
H2282 H 0.73712 0.96321 0.05016 0.0
H2283 H 0.73312 0.97666 0.02646 0.0
C2284 C 0.76714 0.03658 0.98362 0.0
C2285 C 0.75969 0.04592 0.99421 0.0
C2286 C 0.76295 0.02042 0.98097 0.0
C2287 C 0.7512 0.01327 0.9888 0.0
C2288 C 0.74353 0.02261 0.99914 0.0
C2289 C 0.74769 0.03876 0.00177 0.0
C2290 C 0.74751 0.99599 0.98697 0.0
C2291 C 0.74908 0.98816 1.0004 0.0
C2292 C 0.74321 0.98719 0.9722 0.0
C2293 C 0.74098 0.99479 0.95763 0.0
C2294 C 0.73063 0.00626 0.95632 0.0
C2295 C 0.72868 0.01345 0.94259 0.0
C2296 C 0.73695 0.0092 0.93005 0.0
C2297 C 0.74715 0.99771 0.93119 0.0
C2298 C 0.74915 0.99049 0.9449 0.0
C2299 C 0.72652 0.92329 0.99439 0.0
C2300 C 0.73668 0.9138 0.98734 0.0
C2301 C 0.72722 0.93912 0.99233 0.0
C2302 C 0.73834 0.94579 0.98345 0.0
C2303 C 0.74748 0.93602 0.9752 0.0
C2304 C 0.74665 0.92008 0.97714 0.0
C2305 C 0.74194 0.96303 0.98474 0.0
C2306 C 0.74055 0.97079 0.97127 0.0
C2307 C 0.7466 0.97182 0.99946 0.0
C2308 C 0.74941 0.96417 0.01397 0.0
C2309 C 0.75997 0.95284 0.01488 0.0
C2310 C 0.76202 0.94514 0.02827 0.0
C2311 C 0.75377 0.94886 0.04097 0.0
C2312 C 0.74349 0.96033 0.04031 0.0
C2313 C 0.74131 0.96798 0.02688 0.0
H2314 H 0.75536 0.94287 0.05133 0.0
H2315 H 0.73543 0.01478 0.91943 0.0
H2316 H 0.2281 0.63408 0.59778 0.0
H2317 H 0.23895 0.60956 0.60149 0.0
H2318 H 0.19431 0.58929 0.6124 0.0
H2319 H 0.18344 0.61401 0.60916 0.0
H2320 H 0.21902 0.57912 0.63029 0.0
H2321 H 0.203 0.58314 0.57635 0.0
H2322 H 0.20179 0.59551 0.55185 0.0
H2323 H 0.25138 0.59543 0.55151 0.0
H2324 H 0.25292 0.58326 0.57616 0.0
H2325 H 0.22631 0.49858 0.60417 0.0
H2326 H 0.21924 0.52486 0.61133 0.0
H2327 H 0.26312 0.54482 0.59827 0.0
H2328 H 0.27014 0.5186 0.59098 0.0
H2329 H 0.23909 0.55546 0.58271 0.0
H2330 H 0.25432 0.54912 0.63635 0.0
H2331 H 0.25442 0.53596 0.66036 0.0
H2332 H 0.20525 0.53919 0.66075 0.0
H2333 H 0.2048 0.55218 0.63661 0.0
C2334 C 0.22067 0.62458 0.60138 0.0
C2335 C 0.20484 0.62599 0.60303 0.0
C2336 C 0.22688 0.61051 0.60339 0.0
C2337 C 0.21738 0.59753 0.60699 0.0
C2338 C 0.20183 0.59915 0.60957 0.0
C2339 C 0.19561 0.61324 0.60756 0.0
C2340 C 0.22327 0.58195 0.60658 0.0
C2341 C 0.22332 0.57386 0.61988 0.0
C2342 C 0.22898 0.57516 0.59302 0.0
C2343 C 0.2281 0.58246 0.57819 0.0
C2344 C 0.21367 0.58589 0.57113 0.0
C2345 C 0.21292 0.59284 0.5572 0.0
C2346 C 0.22651 0.5963 0.55015 0.0
C2347 C 0.24087 0.59277 0.557 0.0
C2348 C 0.24169 0.58585 0.57095 0.0
C2349 C 0.23466 0.50857 0.60335 0.0
C2350 C 0.24872 0.50657 0.59692 0.0
C2351 C 0.2306 0.5236 0.60743 0.0
C2352 C 0.24062 0.53684 0.60527 0.0
C2353 C 0.25517 0.53479 0.59995 0.0
C2354 C 0.25919 0.51982 0.59581 0.0
C2355 C 0.23518 0.55265 0.60653 0.0
C2356 C 0.23502 0.56074 0.59325 0.0
C2357 C 0.22926 0.55929 0.62005 0.0
C2358 C 0.2295 0.5515 0.63458 0.0
C2359 C 0.2435 0.54691 0.64148 0.0
C2360 C 0.24362 0.5395 0.65513 0.0
C2361 C 0.22985 0.5367 0.66205 0.0
C2362 C 0.21591 0.54135 0.65536 0.0
C2363 C 0.21572 0.54875 0.64171 0.0
H2364 H 0.22997 0.53097 0.67262 0.0
H2365 H 0.2259 0.60167 0.53937 0.0
H2366 H 0.38705 0.47032 0.02933 0.0
H2367 H 0.38342 0.49808 0.03349 0.0
H2368 H 0.41865 0.50876 0.00303 0.0
H2369 H 0.42237 0.4811 0.99887 0.0
H2370 H 0.4215 0.53073 0.02779 0.0
H2371 H 0.38007 0.5056 0.98962 0.0
H2372 H 0.35765 0.48637 0.97894 0.0
H2373 H 0.33198 0.50181 0.0165 0.0
H2374 H 0.35433 0.52103 0.02749 0.0
H2375 H 0.39379 0.59919 0.99783 0.0
H2376 H 0.40497 0.57545 0.00468 0.0
H2377 H 0.37093 0.56881 0.03734 0.0
H2378 H 0.35984 0.59248 0.03046 0.0
H2379 H 0.36823 0.54525 0.01406 0.0
H2380 H 0.40914 0.57384 0.04956 0.0
H2381 H 0.43143 0.5938 0.05846 0.0
H2382 H 0.45825 0.57288 0.0245 0.0
H2383 H 0.43599 0.55301 0.01509 0.0
C2384 C 0.394 0.47859 0.02351 0.0
C2385 C 0.40494 0.47349 0.01372 0.0
C2386 C 0.39197 0.49445 0.02594 0.0
C2387 C 0.40069 0.5055 0.01847 0.0
C2388 C 0.41187 0.50048 0.00899 0.0
C2389 C 0.41396 0.48465 0.00662 0.0
C2390 C 0.39751 0.52212 0.01977 0.0
C2391 C 0.40988 0.53396 0.02471 0.0
C2392 C 0.38232 0.52631 0.01596 0.0
C2393 C 0.36895 0.5146 0.00949 0.0
C2394 C 0.36971 0.50478 0.99568 0.0
C2395 C 0.357 0.49391 0.98956 0.0
C2396 C 0.34343 0.49282 0.99708 0.0
C2397 C 0.34252 0.50264 0.01071 0.0
C2398 C 0.3552 0.51352 0.01689 0.0
C2399 C 0.38928 0.59305 0.00703 0.0
C2400 C 0.37605 0.59755 0.01366 0.0
C2401 C 0.39559 0.57947 0.01089 0.0
C2402 C 0.38868 0.5703 0.02144 0.0
C2403 C 0.37639 0.57569 0.02915 0.0
C2404 C 0.37011 0.5892 0.02527 0.0
C2405 C 0.39216 0.55394 0.02219 0.0
C2406 C 0.37983 0.5421 0.01744 0.0
C2407 C 0.40741 0.54987 0.02599 0.0
C2408 C 0.42081 0.56194 0.03154 0.0
C2409 C 0.41972 0.57357 0.04386 0.0
C2410 C 0.43237 0.58485 0.04903 0.0
C2411 C 0.44627 0.58455 0.04211 0.0
C2412 C 0.44749 0.57305 0.0299 0.0
C2413 C 0.43485 0.56178 0.02463 0.0
H2414 H 0.45607 0.59325 0.04618 0.0
H2415 H 0.3336 0.4844 0.99232 0.0
H2416 H 0.3836 0.66971 0.84769 0.0
H2417 H 0.37557 0.67836 0.87325 0.0
H2418 H 0.37734 0.6318 0.88665 0.0
H2419 H 0.38552 0.62315 0.86139 0.0
H2420 H 0.35176 0.64441 0.89585 0.0
H2421 H 0.4076 0.66027 0.89754 0.0
H2422 H 0.43073 0.67446 0.88879 0.0
H2423 H 0.41168 0.71797 0.89825 0.0
H2424 H 0.38832 0.70399 0.90687 0.0
H2425 H 0.37434 0.64486 0.97351 0.0
H2426 H 0.37163 0.64439 0.9476 0.0
H2427 H 0.36265 0.69184 0.94968 0.0
H2428 H 0.3641 0.69433 0.97591 0.0
H2429 H 0.38725 0.68421 0.93125 0.0
H2430 H 0.33488 0.6673 0.93708 0.0
H2431 H 0.31315 0.65216 0.94708 0.0
H2432 H 0.32543 0.6099 0.92338 0.0
H2433 H 0.3478 0.62454 0.91407 0.0
C2434 C 0.38228 0.66132 0.85609 0.0
C2435 C 0.38523 0.64573 0.85247 0.0
C2436 C 0.37762 0.66627 0.87066 0.0
C2437 C 0.37591 0.65573 0.88187 0.0
C2438 C 0.37845 0.6401 0.87813 0.0
C2439 C 0.3831 0.63517 0.86363 0.0
C2440 C 0.37233 0.66094 0.89787 0.0
C2441 C 0.3595 0.65309 0.90364 0.0
C2442 C 0.38212 0.6727 0.90781 0.0
C2443 C 0.39614 0.68108 0.90263 0.0
C2444 C 0.40829 0.67285 0.89762 0.0
C2445 C 0.42145 0.68085 0.89271 0.0
C2446 C 0.42265 0.6971 0.89291 0.0
C2447 C 0.41071 0.70538 0.89806 0.0
C2448 C 0.39751 0.69743 0.90296 0.0
C2449 C 0.37158 0.65622 0.97056 0.0
C2450 C 0.37056 0.67024 0.98217 0.0
C2451 C 0.37004 0.6553 0.9543 0.0
C2452 C 0.36716 0.66805 0.94664 0.0
C2453 C 0.36518 0.68166 0.95547 0.0
C2454 C 0.36631 0.68261 0.9718 0.0
C2455 C 0.3671 0.66713 0.92945 0.0
C2456 C 0.37923 0.6758 0.92342 0.0
C2457 C 0.35673 0.65601 0.91933 0.0
C2458 C 0.34321 0.64707 0.92499 0.0
C2459 C 0.33315 0.65473 0.93422 0.0
C2460 C 0.32072 0.64621 0.93983 0.0
C2461 C 0.31801 0.63004 0.93604 0.0
C2462 C 0.32766 0.62238 0.92654 0.0
C2463 C 0.34027 0.63079 0.92113 0.0
H2464 H 0.30843 0.62346 0.94045 0.0
H2465 H 0.43285 0.70327 0.88911 0.0
H2466 H 0.98982 0.73686 0.0474 0.0
H2467 H 0.98368 0.73127 0.01899 0.0
H2468 H 0.99522 0.78003 0.01393 0.0
H2469 H 0.00147 0.78567 0.04213 0.0
H2470 H 0.969 0.76813 0.99532 0.0
H2471 H 0.0211 0.75314 0.00768 0.0
H2472 H 0.04037 0.73824 0.02088 0.0
H2473 H 0.01436 0.69516 0.99987 0.0
H2474 H 0.99483 0.70983 0.9867 0.0
H2475 H 0.99331 0.77507 0.92148 0.0
H2476 H 0.98934 0.77424 0.94887 0.0
H2477 H 0.97842 0.72415 0.94076 0.0
H2478 H 0.98283 0.72491 0.91318 0.0
H2479 H 0.99955 0.73223 0.96567 0.0
H2480 H 0.95 0.74779 0.94942 0.0
H2481 H 0.93122 0.76297 0.93594 0.0
H2482 H 0.95218 0.80498 0.96392 0.0
H2483 H 0.97124 0.7901 0.97742 0.0
C2484 C 0.99108 0.74638 0.04022 0.0
C2485 C 0.99614 0.76172 0.04707 0.0
C2486 C 0.98751 0.74317 0.02399 0.0
C2487 C 0.98906 0.75522 0.01431 0.0
C2488 C 0.99382 0.77056 0.02115 0.0
C2489 C 0.99736 0.77377 0.03732 0.0
C2490 C 0.98633 0.75198 0.997 0.0
C2491 C 0.97569 0.76031 0.98882 0.0
C2492 C 0.99466 0.74136 0.98851 0.0
C2493 C 0.00642 0.73257 0.99637 0.0
C2494 C 0.01944 0.74049 0.00598 0.0
C2495 C 0.03041 0.73209 0.01344 0.0
C2496 C 0.02856 0.71576 0.01126 0.0
C2497 C 0.01576 0.70781 0.00158 0.0
C2498 C 0.00474 0.71616 0.99411 0.0
C2499 C 0.98991 0.76388 0.92548 0.0
C2500 C 0.9885 0.75004 0.91522 0.0
C2501 C 0.98749 0.76343 0.94113 0.0
C2502 C 0.98343 0.74915 0.94689 0.0
C2503 C 0.98149 0.73531 0.93656 0.0
C2504 C 0.9839 0.73576 0.92081 0.0
C2505 C 0.98257 0.74877 0.96394 0.0
C2506 C 0.99255 0.73978 0.97211 0.0
C2507 C 0.97363 0.75879 0.97241 0.0
C2508 C 0.96211 0.76781 0.96439 0.0
C2509 C 0.95067 0.76028 0.95263 0.0
C2510 C 0.93997 0.76883 0.945 0.0
C2511 C 0.94051 0.78493 0.94906 0.0
C2512 C 0.95176 0.7925 0.96079 0.0
C2513 C 0.9625 0.78401 0.96846 0.0
H2514 H 0.93222 0.79153 0.94312 0.0
H2515 H 0.03707 0.70928 0.01704 0.0
H2516 H 0.62692 0.22673 0.63433 0.0
H2517 H 0.63148 0.23444 0.60851 0.0
H2518 H 0.60009 0.19471 0.58669 0.0
H2519 H 0.59545 0.18699 0.61229 0.0
H2520 H 0.62502 0.19929 0.57059 0.0
H2521 H 0.58777 0.23108 0.59331 0.0
H2522 H 0.57953 0.24972 0.61353 0.0
H2523 H 0.61734 0.28363 0.60689 0.0
H2524 H 0.62592 0.26509 0.58675 0.0
H2525 H 0.58597 0.21747 0.50101 0.0
H2526 H 0.59629 0.21055 0.52642 0.0
H2527 H 0.62491 0.25497 0.5353 0.0
H2528 H 0.61428 0.26196 0.50977 0.0
H2529 H 0.60829 0.25043 0.55869 0.0
H2530 H 0.64173 0.22014 0.5315 0.0
H2531 H 0.64926 0.20146 0.51091 0.0
H2532 H 0.61873 0.16472 0.52539 0.0
H2533 H 0.61083 0.18322 0.54592 0.0
C2534 C 0.62106 0.2196 0.62402 0.0
C2535 C 0.61077 0.20627 0.6254 0.0
C2536 C 0.62372 0.22399 0.60928 0.0
C2537 C 0.61601 0.21523 0.59566 0.0
C2538 C 0.60624 0.2016 0.59701 0.0
C2539 C 0.60362 0.19719 0.6117 0.0
C2540 C 0.61706 0.2207 0.58001 0.0
C2541 C 0.62138 0.21047 0.56795 0.0
C2542 C 0.6128 0.2355 0.57667 0.0
C2543 C 0.60759 0.24665 0.58869 0.0
C2544 C 0.59439 0.24247 0.59625 0.0
C2545 C 0.58965 0.25302 0.60768 0.0
C2546 C 0.59794 0.26783 0.61153 0.0
C2547 C 0.61095 0.27214 0.60392 0.0
C2548 C 0.61576 0.26162 0.5925 0.0
C2549 C 0.59482 0.22552 0.50822 0.0
C2550 C 0.59951 0.24013 0.50349 0.0
C2551 C 0.60076 0.22157 0.52272 0.0
C2552 C 0.61154 0.23216 0.53275 0.0
C2553 C 0.6167 0.24657 0.52772 0.0
C2554 C 0.61073 0.25053 0.51316 0.0
C2555 C 0.61577 0.22881 0.54907 0.0
C2556 C 0.6124 0.23942 0.56131 0.0
C2557 C 0.62087 0.21435 0.55252 0.0
C2558 C 0.62564 0.20312 0.54023 0.0
C2559 C 0.63654 0.20811 0.53024 0.0
C2560 C 0.64089 0.19754 0.51858 0.0
C2561 C 0.63447 0.18192 0.51684 0.0
C2562 C 0.62371 0.17683 0.52676 0.0
C2563 C 0.61931 0.18734 0.53844 0.0
H2564 H 0.63785 0.17376 0.5078 0.0
H2565 H 0.59425 0.27599 0.62038 0.0
H2566 H 0.00599 0.42439 0.47971 0.0
H2567 H 0.00802 0.42044 0.50734 0.0
H2568 H 0.02459 0.37562 0.49653 0.0
H2569 H 0.02261 0.37952 0.46878 0.0
H2570 H 0.00231 0.3734 0.51546 0.0
H2571 H 0.04928 0.40739 0.51443 0.0
H2572 H 0.06531 0.43093 0.50882 0.0
H2573 H 0.04014 0.45975 0.53842 0.0
H2574 H 0.0238 0.43639 0.54404 0.0
H2575 H 0.02714 0.35759 0.59021 0.0
H2576 H 0.03218 0.36844 0.56591 0.0
H2577 H 1.00076 0.40307 0.57517 0.0
H2578 H 0.99541 0.39195 0.59941 0.0
H2579 H 0.03115 0.41141 0.55786 0.0
H2580 H 0.98264 0.37719 0.55662 0.0
H2581 H 0.96723 0.3534 0.5626 0.0
H2582 H 0.99618 0.32489 0.53718 0.0
H2583 H 0.01196 0.34855 0.53133 0.0
C2584 C 0.01031 0.41379 0.48322 0.0
C2585 C 0.01421 0.40229 0.47203 0.0
C2586 C 0.01145 0.41155 0.49904 0.0
C2587 C 0.01664 0.39782 0.50405 0.0
C2588 C 0.02057 0.38632 0.49293 0.0
C2589 C 0.01939 0.38853 0.47708 0.0
C2590 C 0.01724 0.39515 0.52078 0.0
C2591 C 0.00879 0.38165 0.52466 0.0
C2592 C 0.0254 0.40607 0.53289 0.0
C2593 C 0.03521 0.42014 0.52953 0.0
C2594 C 0.04707 0.41876 0.51963 0.0
C2595 C 0.05623 0.43207 0.51647 0.0
C2596 C 0.05372 0.44683 0.52322 0.0
C2597 C 0.04206 0.44831 0.53318 0.0
C2598 C 0.03285 0.43504 0.53637 0.0
C2599 C 0.02189 0.36798 0.5874 0.0
C2600 C 0.01097 0.37405 0.59664 0.0
C2601 C 0.02473 0.37412 0.57353 0.0
C2602 C 0.01675 0.38646 0.56877 0.0
C2603 C 0.00711 0.39363 0.57878 0.0
C2604 C 0.00415 0.38737 0.59265 0.0
C2605 C 0.01627 0.38974 0.55232 0.0
C2606 C 0.0247 0.40327 0.54855 0.0
C2607 C 0.0081 0.37888 0.54026 0.0
C2608 C 0.99859 0.36464 0.5437 0.0
C2609 C 0.98583 0.36585 0.55246 0.0
C2610 C 0.977 0.35239 0.55579 0.0
C2611 C 0.98074 0.33765 0.55029 0.0
C2612 C 0.99331 0.33633 0.54145 0.0
C2613 C 0.0022 0.34975 0.53812 0.0
H2614 H 0.97386 0.32724 0.5528 0.0
H2615 H 0.06083 0.45712 0.52077 0.0
H2616 H 0.22044 0.51892 0.42939 0.0
H2617 H 0.22243 0.50362 0.45171 0.0
H2618 H 0.26851 0.52722 0.46692 0.0
H2619 H 0.26659 0.54254 0.44473 0.0
H2620 H 0.26818 0.49654 0.46876 0.0
H2621 H 0.23683 0.53689 0.48474 0.0
H2622 H 0.21461 0.55263 0.48268 0.0
H2623 H 0.18256 0.51136 0.48233 0.0
H2624 H 0.2046 0.49533 0.48419 0.0
H2625 H 0.2777 0.49069 0.55037 0.0
H2626 H 0.27556 0.49664 0.52325 0.0
H2627 H 0.23159 0.46737 0.51386 0.0
H2628 H 0.23375 0.46139 0.54108 0.0
H2629 H 0.22924 0.49732 0.50713 0.0
H2630 H 0.26209 0.45771 0.49505 0.0
H2631 H 0.28509 0.4432 0.49851 0.0
H2632 H 0.31524 0.4843 0.49291 0.0
H2633 H 0.29243 0.49913 0.48964 0.0
C2634 C 0.23094 0.52094 0.43757 0.0
C2635 C 0.24336 0.53195 0.43526 0.0
C2636 C 0.23208 0.51215 0.45029 0.0
C2637 C 0.24561 0.5143 0.46103 0.0
C2638 C 0.25802 0.52526 0.45873 0.0
C2639 C 0.2569 0.53401 0.44602 0.0
C2640 C 0.24686 0.50531 0.47479 0.0
C2641 C 0.25971 0.49677 0.47721 0.0
C2642 C 0.23562 0.5053 0.48562 0.0
C2643 C 0.22235 0.51489 0.48439 0.0
C2644 C 0.22503 0.53115 0.48406 0.0
C2645 C 0.21248 0.54013 0.48297 0.0
C2646 C 0.19718 0.53299 0.48232 0.0
C2647 C 0.19441 0.51686 0.4828 0.0
C2648 C 0.20693 0.50783 0.48387 0.0
C2649 C 0.26789 0.48507 0.54234 0.0
C2650 C 0.25592 0.47554 0.54774 0.0
C2651 C 0.26666 0.48847 0.52686 0.0
C2652 C 0.2534 0.48246 0.51652 0.0
C2653 C 0.24192 0.4721 0.52164 0.0
C2654 C 0.24323 0.46857 0.53712 0.0
C2655 C 0.25066 0.48868 0.50121 0.0
C2656 C 0.23755 0.4968 0.49854 0.0
C2657 C 0.26177 0.48845 0.49027 0.0
C2658 C 0.27553 0.47956 0.49219 0.0
C2659 C 0.27363 0.46369 0.49467 0.0
C2660 C 0.28664 0.4554 0.49658 0.0
C2661 C 0.30162 0.46283 0.49596 0.0
C2662 C 0.30362 0.47856 0.49339 0.0
C2663 C 0.29065 0.48691 0.49149 0.0
H2664 H 0.31167 0.4564 0.49744 0.0
H2665 H 0.18747 0.53996 0.48148 0.0
H2666 H 0.30324 0.51047 0.87869 0.0
H2667 H 0.30842 0.53379 0.89762 0.0
H2668 H 0.28148 0.51057 0.92965 0.0
H2669 H 0.27645 0.48706 0.91081 0.0
H2670 H 0.28852 0.55261 0.91037 0.0
H2671 H 0.29952 0.52381 0.96756 0.0
H2672 H 0.30943 0.50009 0.97661 0.0
H2673 H 0.33578 0.49548 0.9372 0.0
H2674 H 0.32627 0.5193 0.92809 0.0
H2675 H 0.31709 0.59353 0.9963 0.0
H2676 H 0.30137 0.57329 0.97785 0.0
H2677 H 0.32473 0.59029 0.94015 0.0
H2678 H 0.33997 0.61088 0.95841 0.0
H2679 H 0.31571 0.55125 0.96335 0.0
H2680 H 0.30377 0.57879 0.90529 0.0
H2681 H 0.29499 0.60296 0.89626 0.0
H2682 H 0.27178 0.61085 0.93748 0.0
H2683 H 0.2803 0.58667 0.94671 0.0
C2684 C 0.29853 0.51027 0.88982 0.0
C2685 C 0.2895 0.49689 0.89329 0.0
C2686 C 0.30138 0.52366 0.90056 0.0
C2687 C 0.29539 0.5239 0.91506 0.0
C2688 C 0.28631 0.51059 0.91857 0.0
C2689 C 0.28337 0.49721 0.90777 0.0
C2690 C 0.29879 0.53809 0.9265 0.0
C2691 C 0.29454 0.55236 0.92194 0.0
C2692 C 0.30626 0.53765 0.94173 0.0
C2693 C 0.31194 0.52319 0.947 0.0
C2694 C 0.30742 0.51772 0.96082 0.0
C2695 C 0.31299 0.50427 0.96598 0.0
C2696 C 0.32315 0.49623 0.95743 0.0
C2697 C 0.32783 0.50166 0.94376 0.0
C2698 C 0.32232 0.51512 0.93858 0.0
C2699 C 0.31821 0.59344 0.98393 0.0
C2700 C 0.3296 0.60383 0.97871 0.0
C2701 C 0.30936 0.5818 0.97343 0.0
C2702 C 0.31181 0.58033 0.95757 0.0
C2703 C 0.3223 0.5915 0.9522 0.0
C2704 C 0.331 0.60327 0.96265 0.0
C2705 C 0.30556 0.56588 0.94722 0.0
C2706 C 0.30937 0.55151 0.95192 0.0
C2707 C 0.29779 0.56627 0.93211 0.0
C2708 C 0.29276 0.58094 0.92673 0.0
C2709 C 0.29674 0.58564 0.9124 0.0
C2710 C 0.29181 0.59935 0.90725 0.0
C2711 C 0.28281 0.60842 0.91627 0.0
C2712 C 0.27875 0.60381 0.9305 0.0
C2713 C 0.28369 0.59014 0.93573 0.0
H2714 H 0.27903 0.61904 0.91227 0.0
H2715 H 0.32744 0.48581 0.96141 0.0
H2716 H 0.63135 0.05122 0.53005 0.0
H2717 H 0.63276 0.05958 0.50396 0.0
H2718 H 0.68126 0.05139 0.50631 0.0
H2719 H 0.67991 0.04276 0.53217 0.0
H2720 H 0.67577 0.07853 0.4931 0.0
H2721 H 0.65375 0.02408 0.48829 0.0
H2722 H 0.63446 0.0024 0.49259 0.0
H2723 H 0.59763 0.02473 0.47002 0.0
H2724 H 0.61669 0.04667 0.46579 0.0
H2725 H 0.69524 0.05485 0.41822 0.0
H2726 H 0.68993 0.06123 0.44519 0.0
H2727 H 0.64183 0.06549 0.42911 0.0
H2728 H 0.64717 0.05873 0.40206 0.0
H2729 H 0.64321 0.04535 0.44941 0.0
H2730 H 0.66634 0.09715 0.44926 0.0
H2731 H 0.68583 0.11837 0.44437 0.0
H2732 H 0.72047 0.10152 0.47557 0.0
H2733 H 0.70126 0.08005 0.48047 0.0
C2734 C 0.64232 0.05121 0.52502 0.0
C2735 C 0.65549 0.04621 0.53318 0.0
C2736 C 0.64313 0.05609 0.51016 0.0
C2737 C 0.6571 0.05603 0.50319 0.0
C2738 C 0.6704 0.05163 0.51154 0.0
C2739 C 0.6696 0.04671 0.52635 0.0
C2740 C 0.65769 0.05937 0.48678 0.0
C2741 C 0.66868 0.07131 0.4835 0.0
C2742 C 0.64805 0.05026 0.47433 0.0
C2743 C 0.6366 0.03711 0.47693 0.0
C2744 C 0.64152 0.02444 0.48439 0.0
C2745 C 0.63063 0.01209 0.48679 0.0
C2746 C 0.61482 0.01221 0.48164 0.0
C2747 C 0.60987 0.02467 0.47404 0.0
C2748 C 0.62071 0.03706 0.47164 0.0
C2749 C 0.68372 0.05779 0.42046 0.0
C2750 C 0.67164 0.05654 0.40821 0.0
C2751 C 0.68067 0.06146 0.43585 0.0
C2752 C 0.66549 0.06396 0.43921 0.0
C2753 C 0.65364 0.06369 0.4268 0.0
C2754 C 0.65669 0.05996 0.41138 0.0
C2755 C 0.66163 0.06431 0.45557 0.0
C2756 C 0.65004 0.05296 0.45892 0.0
C2757 C 0.67071 0.07399 0.46803 0.0
C2758 C 0.68234 0.08693 0.46518 0.0
C2759 C 0.67814 0.09789 0.455 0.0
C2760 C 0.68914 0.10998 0.45224 0.0
C2761 C 0.70438 0.11128 0.45964 0.0
C2762 C 0.70865 0.10051 0.46985 0.0
C2763 C 0.6977 0.08839 0.47264 0.0
H2764 H 0.71288 0.12065 0.45749 0.0
H2765 H 0.60641 0.00264 0.48349 0.0
H2766 H 0.79321 0.9528 0.14642 0.0
H2767 H 0.78251 0.93692 0.12216 0.0
H2768 H 0.82501 0.91482 0.12135 0.0
H2769 H 0.83582 0.93063 0.14588 0.0
H2770 H 0.81406 0.92295 0.09235 0.0
H2771 H 0.79385 0.89483 0.13195 0.0
H2772 H 0.78116 0.89153 0.15587 0.0
H2773 H 0.73913 0.90665 0.13452 0.0
H2774 H 0.75164 0.91027 0.11054 0.0
H2775 H 0.77476 0.8733 0.02673 0.0
H2776 H 0.78873 0.87977 0.05306 0.0
H2777 H 0.75168 0.9064 0.0666 0.0
H2778 H 0.73761 0.89967 0.04057 0.0
H2779 H 0.7627 0.89121 0.09019 0.0
H2780 H 0.78432 0.92374 0.053 0.0
H2781 H 0.79694 0.92826 0.02922 0.0
H2782 H 0.83609 0.90548 0.04621 0.0
H2783 H 0.82363 0.90066 0.07 0.0
C2784 C 0.80026 0.94448 0.14118 0.0
C2785 C 0.81529 0.94283 0.1482 0.0
C2786 C 0.79413 0.93543 0.12729 0.0
C2787 C 0.80285 0.92448 0.12013 0.0
C2788 C 0.81806 0.92314 0.12677 0.0
C2789 C 0.82423 0.93222 0.14073 0.0
C2790 C 0.79588 0.91454 0.10569 0.0
C2791 C 0.80301 0.91571 0.09193 0.0
C2792 C 0.78138 0.90524 0.10513 0.0
C2793 C 0.77372 0.9029 0.11947 0.0
C2794 C 0.78193 0.89754 0.13238 0.0
C2795 C 0.77476 0.8956 0.14596 0.0
C2796 C 0.75936 0.89889 0.14673 0.0
C2797 C 0.75106 0.9041 0.13391 0.0
C2798 C 0.75818 0.90607 0.12031 0.0
C2799 C 0.76942 0.88012 0.0355 0.0
C2800 C 0.75517 0.88609 0.03161 0.0
C2801 C 0.77746 0.88394 0.05046 0.0
C2802 C 0.77136 0.89379 0.0617 0.0
C2803 C 0.75663 0.89882 0.05812 0.0
C2804 C 0.74863 0.89502 0.04323 0.0
C2805 C 0.78065 0.89999 0.07677 0.0
C2806 C 0.77393 0.89814 0.09067 0.0
C2807 C 0.79549 0.90872 0.07744 0.0
C2808 C 0.80297 0.91166 0.06317 0.0
C2809 C 0.79557 0.91959 0.0516 0.0
C2810 C 0.80269 0.92222 0.03814 0.0
C2811 C 0.81726 0.91711 0.03619 0.0
C2812 C 0.82478 0.90939 0.04772 0.0
C2813 C 0.8177 0.90671 0.06119 0.0
H2814 H 0.82276 0.91916 0.02576 0.0
H2815 H 0.75383 0.8974 0.15725 0.0
H2816 H 0.42408 0.22963 0.51176 0.0
H2817 H 0.44695 0.2332 0.49736 0.0
H2818 H 0.47252 0.261 0.53768 0.0
H2819 H 0.44966 0.25768 0.55206 0.0
H2820 H 0.47617 0.27426 0.51029 0.0
H2821 H 0.47895 0.22384 0.52948 0.0
H2822 H 0.469 0.19679 0.53277 0.0
H2823 H 0.46384 0.18487 0.48302 0.0
H2824 H 0.47356 0.21194 0.47943 0.0
H2825 H 0.55573 0.2717 0.50085 0.0
H2826 H 0.5291 0.27157 0.50766 0.0
H2827 H 0.51255 0.23973 0.46641 0.0
H2828 H 0.53944 0.23925 0.45994 0.0
H2829 H 0.50202 0.22872 0.49059 0.0
H2830 H 0.50248 0.27836 0.47144 0.0
H2831 H 0.51268 0.30532 0.46814 0.0
H2832 H 0.51171 0.31893 0.51709 0.0
H2833 H 0.5017 0.29199 0.52074 0.0
C2834 C 0.43456 0.23656 0.51753 0.0
C2835 C 0.43509 0.24331 0.53308 0.0
C2836 C 0.44763 0.23853 0.50931 0.0
C2837 C 0.46145 0.24732 0.51648 0.0
C2838 C 0.46196 0.25419 0.53193 0.0
C2839 C 0.44895 0.25215 0.54018 0.0
C2840 C 0.4755 0.2492 0.50801 0.0
C2841 C 0.48191 0.26433 0.50604 0.0
C2842 C 0.48265 0.23621 0.50202 0.0
C2843 C 0.47679 0.21995 0.50418 0.0
C2844 C 0.47555 0.21549 0.51923 0.0
C2845 C 0.46998 0.20015 0.52116 0.0
C2846 C 0.46574 0.18913 0.50811 0.0
C2847 C 0.4671 0.19343 0.49311 0.0
C2848 C 0.47264 0.20876 0.49113 0.0
C2849 C 0.54639 0.26488 0.49307 0.0
C2850 C 0.54972 0.25537 0.47994 0.0
C2851 C 0.5311 0.26492 0.4969 0.0
C2852 C 0.51873 0.25569 0.48753 0.0
C2853 C 0.52189 0.24695 0.47384 0.0
C2854 C 0.53725 0.24681 0.47005 0.0
C2855 C 0.50295 0.25386 0.49303 0.0
C2856 C 0.4962 0.2387 0.49452 0.0
C2857 C 0.49546 0.26685 0.49852 0.0
C2858 C 0.50141 0.28311 0.49637 0.0
C2859 C 0.50453 0.28707 0.48152 0.0
C2860 C 0.51027 0.30236 0.47959 0.0
C2861 C 0.51286 0.31382 0.4924 0.0
C2862 C 0.50969 0.31003 0.50717 0.0
C2863 C 0.50396 0.29476 0.50918 0.0
H2864 H 0.51731 0.32565 0.49088 0.0
H2865 H 0.46144 0.17726 0.50962 0.0
H2866 H 0.13807 0.84259 0.93877 0.0
H2867 H 0.11266 0.8347 0.92367 0.0
H2868 H 0.12893 0.79166 0.90563 0.0
H2869 H 0.15462 0.79978 0.92014 0.0
H2870 H 0.10976 0.80251 0.8835 0.0
H2871 H 0.109 0.79297 0.9374 0.0
H2872 H 0.11262 0.80008 0.96594 0.0
H2873 H 0.07946 0.8336 0.96152 0.0
H2874 H 0.07581 0.82683 0.93291 0.0
H2875 H 0.0385 0.75064 0.87239 0.0
H2876 H 0.06468 0.76512 0.87723 0.0
H2877 H 0.04472 0.80623 0.89491 0.0
H2878 H 0.01869 0.79163 0.89045 0.0
H2879 H 0.06563 0.79845 0.91587 0.0
H2880 H 0.06411 0.80521 0.86161 0.0
H2881 H 0.06038 0.79704 0.83325 0.0
H2882 H 0.09738 0.76768 0.83822 0.0
H2883 H 0.10119 0.77551 0.86665 0.0
C2884 C 0.13639 0.83162 0.93131 0.0
C2885 C 0.14833 0.82172 0.93084 0.0
C2886 C 0.12181 0.82707 0.92276 0.0
C2887 C 0.11883 0.81246 0.91374 0.0
C2888 C 0.13096 0.80294 0.91257 0.0
C2889 C 0.14557 0.80752 0.92103 0.0
C2890 C 0.10276 0.80652 0.90663 0.0
C2891 C 0.10009 0.80154 0.89055 0.0
C2892 C 0.09012 0.80548 0.91581 0.0
C2893 C 0.09227 0.80952 0.93301 0.0
C2894 C 0.10258 0.80194 0.94251 0.0
C2895 C 0.10462 0.8059 0.9587 0.0
C2896 C 0.09632 0.81732 0.96554 0.0
C2897 C 0.08591 0.82478 0.9562 0.0
C2898 C 0.08385 0.82089 0.94001 0.0
C2899 C 0.03972 0.76293 0.87676 0.0
C2900 C 0.02671 0.77009 0.88107 0.0
C2901 C 0.05465 0.7712 0.87953 0.0
C2902 C 0.05668 0.78677 0.88647 0.0
C2903 C 0.04345 0.79423 0.8896 0.0
C2904 C 0.0286 0.78594 0.88698 0.0
C2905 C 0.07249 0.79449 0.89264 0.0
C2906 C 0.07517 0.79967 0.90867 0.0
C2907 C 0.08508 0.79558 0.8834 0.0
C2908 C 0.08284 0.79086 0.8663 0.0
C2909 C 0.07137 0.79692 0.85668 0.0
C2910 C 0.06926 0.79236 0.84058 0.0
C2911 C 0.07862 0.78182 0.83394 0.0
C2912 C 0.09013 0.77584 0.84338 0.0
C2913 C 0.09228 0.78035 0.85949 0.0
H2914 H 0.07697 0.77831 0.82148 0.0
H2915 H 0.09791 0.82036 0.97807 0.0
H2916 H 0.87505 0.30816 0.50877 0.0
H2917 H 0.89398 0.31353 0.53203 0.0
H2918 H 0.92137 0.27865 0.51309 0.0
H2919 H 0.90238 0.27317 0.48974 0.0
H2920 H 0.92 0.27654 0.54341 0.0
H2921 H 0.93285 0.31721 0.51243 0.0
H2922 H 0.92888 0.33885 0.49647 0.0
H2923 H 0.91387 0.36565 0.53559 0.0
H2924 H 0.91753 0.34407 0.55174 0.0
H2925 H 0.99228 0.31583 0.58917 0.0
H2926 H 0.9719 0.30182 0.56963 0.0
H2927 H 0.93674 0.32347 0.59334 0.0
H2928 H 0.95697 0.33715 0.6131 0.0
H2929 H 0.94285 0.33113 0.56062 0.0
H2930 H 0.93166 0.28871 0.5916 0.0
H2931 H 0.93848 0.26703 0.6065 0.0
H2932 H 0.95405 0.24359 0.56573 0.0
H2933 H 0.94754 0.26526 0.55064 0.0
C2934 C 0.88517 0.30171 0.50949 0.0
C2935 C 0.88728 0.29033 0.49734 0.0
C2936 C 0.89597 0.30477 0.52281 0.0
C2937 C 0.90922 0.29664 0.52423 0.0
C2938 C 0.91123 0.28506 0.51226 0.0
C2939 C 0.90037 0.28194 0.49893 0.0
C2940 C 0.92101 0.30045 0.53814 0.0
C2941 C 0.92512 0.28846 0.54708 0.0
C2942 C 0.92771 0.31599 0.54296 0.0
C2943 C 0.92528 0.32893 0.53324 0.0
C2944 C 0.92854 0.32765 0.51759 0.0
C2945 C 0.92638 0.33992 0.50851 0.0
C2946 C 0.92108 0.35359 0.51499 0.0
C2947 C 0.91795 0.35504 0.53058 0.0
C2948 C 0.92007 0.34279 0.5397 0.0
C2949 C 0.98013 0.31693 0.59064 0.0
C2950 C 0.97617 0.32753 0.60263 0.0
C2951 C 0.96852 0.30899 0.57946 0.0
C2952 C 0.95288 0.31173 0.58003 0.0
C2953 C 0.94877 0.32118 0.59278 0.0
C2954 C 0.96032 0.32888 0.60412 0.0
C2955 C 0.94146 0.30733 0.56604 0.0
C2956 C 0.9376 0.31924 0.55698 0.0
C2957 C 0.93535 0.29171 0.56097 0.0
C2958 C 0.93928 0.2787 0.57004 0.0
C2959 C 0.9367 0.27902 0.58585 0.0
C2960 C 0.94047 0.26671 0.59433 0.0
C2961 C 0.94674 0.25396 0.58708 0.0
C2962 C 0.94922 0.25348 0.57134 0.0
C2963 C 0.94548 0.26577 0.56281 0.0
H2964 H 0.94964 0.24444 0.59366 0.0
H2965 H 0.91943 0.36309 0.50795 0.0
H2966 H 0.52302 0.6559 0.0609 0.0
H2967 H 0.49595 0.65295 0.06666 0.0
H2968 H 0.48855 0.60765 0.03967 0.0
H2969 H 0.51545 0.61086 0.0332 0.0
H2970 H 0.46722 0.62467 0.03052 0.0
H2971 H 0.48657 0.61187 0.08017 0.0
H2972 H 0.50391 0.61441 0.10489 0.0
H2973 H 0.48865 0.65906 0.11826 0.0
H2974 H 0.47138 0.65692 0.09353 0.0
H2975 H 0.38859 0.63167 0.03973 0.0
H2976 H 0.41266 0.6194 0.04498 0.0
H2977 H 0.43558 0.66324 0.06838 0.0
H2978 H 0.41178 0.67554 0.06295 0.0
H2979 H 0.4473 0.63885 0.08125 0.0
H2980 H 0.43799 0.65547 0.02894 0.0
H2981 H 0.42414 0.65598 0.00274 0.0
H2982 H 0.42208 0.60599 0.9944 0.0
H2983 H 0.43612 0.60527 0.02051 0.0
C2984 C 0.51568 0.64527 0.05624 0.0
C2985 C 0.52141 0.6337 0.04645 0.0
C2986 C 0.50024 0.64347 0.05978 0.0
C2987 C 0.49021 0.62997 0.05378 0.0
C2988 C 0.49608 0.61811 0.04453 0.0
C2989 C 0.51151 0.61995 0.04091 0.0
C2990 C 0.47321 0.62929 0.05543 0.0
C2991 C 0.46282 0.62722 0.0417 0.0
C2992 C 0.46744 0.63293 0.06996 0.0
C2993 C 0.4777 0.63424 0.08495 0.0
C2994 C 0.48696 0.62227 0.08834 0.0
C2995 C 0.49678 0.62364 0.10236 0.0
C2996 C 0.49739 0.63689 0.11313 0.0
C2997 C 0.48816 0.6488 0.10992 0.0
C2998 C 0.47832 0.6475 0.09591 0.0
C2999 C 0.39866 0.63856 0.04635 0.0
C3000 C 0.39843 0.65467 0.0506 0.0
C3001 C 0.41239 0.63153 0.04936 0.0
C3002 C 0.42603 0.64051 0.05675 0.0
C3003 C 0.42523 0.65609 0.06262 0.0
C3004 C 0.41156 0.66312 0.05956 0.0
C3005 C 0.44159 0.63469 0.05631 0.0
C3006 C 0.45167 0.6356 0.0702 0.0
C3007 C 0.4472 0.63009 0.04193 0.0
C3008 C 0.43784 0.6303 0.02672 0.0
C3009 C 0.43438 0.64458 0.02158 0.0
C3010 C 0.42656 0.64491 0.00672 0.0
C3011 C 0.42203 0.63099 0.99697 0.0
C3012 C 0.42544 0.61674 0.00202 0.0
C3013 C 0.43338 0.61637 0.01683 0.0
H3014 H 0.41596 0.63127 0.98546 0.0
H3015 H 0.505 0.63793 0.12398 0.0
H3016 H 0.54319 0.45196 0.2289 0.0
H3017 H 0.52806 0.47438 0.23052 0.0
H3018 H 0.50303 0.45472 0.26596 0.0
H3019 H 0.51764 0.43199 0.26396 0.0
H3020 H 0.48362 0.46772 0.24644 0.0
H3021 H 0.5345 0.48268 0.27532 0.0
H3022 H 0.56331 0.48678 0.27906 0.0
H3023 H 0.5632 0.51838 0.2438 0.0
H3024 H 0.5344 0.51425 0.23965 0.0
H3025 H 0.48703 0.55642 0.28023 0.0
H3026 H 0.49471 0.52993 0.27981 0.0
H3027 H 0.46923 0.51783 0.23404 0.0
H3028 H 0.46128 0.54429 0.23464 0.0
H3029 H 0.51328 0.52023 0.25946 0.0
H3030 H 0.46201 0.47764 0.22682 0.0
H3031 H 0.43321 0.47397 0.22456 0.0
H3032 H 0.43401 0.49816 0.27048 0.0
H3033 H 0.46281 0.50178 0.2731 0.0
C3034 C 0.53428 0.45227 0.23684 0.0
C3035 C 0.53175 0.44025 0.24643 0.0
C3036 C 0.52572 0.46516 0.23785 0.0
C3037 C 0.51458 0.46635 0.24855 0.0
C3038 C 0.51162 0.45409 0.25768 0.0
C3039 C 0.52011 0.44118 0.25664 0.0
C3040 C 0.50652 0.48065 0.25079 0.0
C3041 C 0.49009 0.47922 0.24927 0.0
C3042 C 0.51495 0.49564 0.25465 0.0
C3043 C 0.53229 0.49801 0.25705 0.0
C3044 C 0.54062 0.49038 0.26826 0.0
C3045 C 0.55695 0.49273 0.27047 0.0
C3046 C 0.56508 0.50279 0.26164 0.0
C3047 C 0.5569 0.51055 0.2506 0.0
C3048 C 0.54057 0.50821 0.24831 0.0
C3049 C 0.48254 0.54787 0.27039 0.0
C3050 C 0.47353 0.55229 0.2575 0.0
C3051 C 0.48703 0.53281 0.27008 0.0
C3052 C 0.48267 0.52193 0.25684 0.0
C3053 C 0.47261 0.52596 0.24445 0.0
C3054 C 0.468 0.54104 0.24482 0.0
C3055 C 0.49036 0.50735 0.25516 0.0
C3056 C 0.50677 0.50874 0.25667 0.0
C3057 C 0.4819 0.49238 0.25144 0.0
C3058 C 0.46458 0.49011 0.25008 0.0
C3059 C 0.45604 0.48212 0.23646 0.0
C3060 C 0.43971 0.48006 0.23511 0.0
C3061 C 0.43178 0.48587 0.24735 0.0
C3062 C 0.44016 0.49371 0.26098 0.0
C3063 C 0.45649 0.4958 0.26239 0.0
H3064 H 0.41914 0.48427 0.24628 0.0
H3065 H 0.57772 0.50462 0.26338 0.0
H3066 H 0.92761 0.15252 0.83399 0.0
H3067 H 0.91171 0.12801 0.82337 0.0
H3068 H 0.93388 0.1283 0.78087 0.0
H3069 H 0.94976 0.15261 0.79137 0.0
H3070 H 0.90275 0.12068 0.77461 0.0
H3071 H 0.94499 0.10573 0.80958 0.0
H3072 H 0.96058 0.10602 0.83509 0.0
H3073 H 0.91946 0.08937 0.85513 0.0
H3074 H 0.90359 0.08917 0.82976 0.0
H3075 H 0.90218 0.04415 0.7397 0.0
H3076 H 0.9064 0.07095 0.75223 0.0
H3077 H 0.87981 0.05748 0.78932 0.0
H3078 H 0.87588 0.03041 0.77693 0.0
H3079 H 0.90739 0.07265 0.80084 0.0
H3080 H 0.86623 0.08273 0.76415 0.0
H3081 H 0.851 0.08193 0.7384 0.0
H3082 H 0.88971 0.10747 0.72135 0.0
H3083 H 0.90527 0.10823 0.74693 0.0
C3084 C 0.92912 0.1473 0.82241 0.0
C3085 C 0.93992 0.15453 0.81351 0.0
C3086 C 0.92 0.13334 0.81634 0.0
C3087 C 0.92164 0.12631 0.80133 0.0
C3088 C 0.93231 0.13358 0.79241 0.0
C3089 C 0.94138 0.1475 0.79844 0.0
C3090 C 0.91268 0.11113 0.79491 0.0
C3091 C 0.90377 0.11016 0.78031 0.0
C3092 C 0.91354 0.09752 0.80263 0.0
C3093 C 0.92308 0.09763 0.81785 0.0
C3094 C 0.93926 0.10225 0.81946 0.0
C3095 C 0.94815 0.10238 0.83389 0.0
C3096 C 0.94101 0.09777 0.84674 0.0
C3097 C 0.92497 0.09298 0.84518 0.0
C3098 C 0.91602 0.09285 0.83078 0.0
C3099 C 0.897 0.04696 0.75038 0.0
C3100 C 0.88878 0.03519 0.75739 0.0
C3101 C 0.89931 0.06231 0.75748 0.0
C3102 C 0.89334 0.06627 0.77168 0.0
C3103 C 0.88447 0.05469 0.77834 0.0
C3104 C 0.88214 0.03927 0.7712 0.0
C3105 C 0.89789 0.08207 0.78023 0.0
C3106 C 0.90599 0.0832 0.79526 0.0
C3107 C 0.89628 0.09582 0.77289 0.0
C3108 C 0.88695 0.09547 0.75747 0.0
C3109 C 0.87154 0.08809 0.75489 0.0
C3110 C 0.86284 0.08766 0.74032 0.0
C3111 C 0.86939 0.09463 0.72824 0.0
C3112 C 0.88465 0.10208 0.73072 0.0
C3113 C 0.8934 0.10254 0.74526 0.0
H3114 H 0.86263 0.09428 0.71697 0.0
H3115 H 0.94791 0.09787 0.8579 0.0
H3116 H 0.52032 0.86732 0.29663 0.0
H3117 H 0.5439 0.88596 0.30262 0.0
H3118 H 0.51668 0.9238 0.29326 0.0
H3119 H 0.49304 0.90521 0.28721 0.0
H3120 H 0.54584 0.92496 0.27984 0.0
H3121 H 0.52598 0.9205 0.33022 0.0
H3122 H 0.51613 0.90507 0.3504 0.0
H3123 H 0.55849 0.88306 0.354 0.0
H3124 H 0.56871 0.89858 0.33401 0.0
H3125 H 0.58819 0.99324 0.31998 0.0
H3126 H 0.57082 0.97087 0.30707 0.0
H3127 H 0.60056 0.93968 0.32812 0.0
H3128 H 0.61753 0.96216 0.34183 0.0
H3129 H 0.57238 0.93249 0.334 0.0
H3130 H 0.59446 0.94145 0.28706 0.0
H3131 H 0.60388 0.95661 0.26653 0.0
H3132 H 0.55768 0.96919 0.25507 0.0
H3133 H 0.54801 0.95428 0.27568 0.0
C3134 C 0.5194 0.8796 0.29571 0.0
C3135 C 0.50485 0.88483 0.29149 0.0
C3136 C 0.53284 0.89022 0.29918 0.0
C3137 C 0.53199 0.90623 0.2984 0.0
C3138 C 0.51755 0.91147 0.29389 0.0
C3139 C 0.50407 0.90087 0.29057 0.0
C3140 C 0.54604 0.91762 0.30288 0.0
C3141 C 0.55165 0.92672 0.29168 0.0
C3142 C 0.55385 0.9195 0.31819 0.0
C3143 C 0.54804 0.9106 0.33059 0.0
C3144 C 0.5332 0.91239 0.33536 0.0
C3145 C 0.52758 0.90368 0.34679 0.0
C3146 C 0.53672 0.89313 0.35352 0.0
C3147 C 0.55151 0.89134 0.34887 0.0
C3148 C 0.55725 0.90013 0.33755 0.0
C3149 C 0.59125 0.98161 0.32154 0.0
C3150 C 0.60415 0.97948 0.33203 0.0
C3151 C 0.58136 0.96878 0.31404 0.0
C3152 C 0.58436 0.95352 0.31656 0.0
C3153 C 0.59797 0.95134 0.32602 0.0
C3154 C 0.60779 0.96421 0.33369 0.0
C3155 C 0.57229 0.94015 0.31098 0.0
C3156 C 0.56691 0.93064 0.32203 0.0
C3157 C 0.56479 0.93787 0.29547 0.0
C3158 C 0.57053 0.9468 0.28299 0.0
C3159 C 0.58632 0.94753 0.28024 0.0
C3160 C 0.59171 0.95607 0.26857 0.0
C3161 C 0.58139 0.96387 0.25952 0.0
C3162 C 0.56566 0.96313 0.26209 0.0
C3163 C 0.56021 0.95461 0.27374 0.0
H3164 H 0.58558 0.97048 0.2505 0.0
H3165 H 0.53232 0.88633 0.36231 0.0
H3166 H 0.05209 0.52111 0.66766 0.0
H3167 H 0.05898 0.49441 0.66657 0.0
H3168 H 0.05218 0.49019 0.61623 0.0
H3169 H 0.04579 0.51715 0.61715 0.0
H3170 H 0.03473 0.46725 0.62908 0.0
H3171 H 0.08794 0.48891 0.6334 0.0
H3172 H 0.11121 0.50687 0.64436 0.0
H3173 H 0.10976 0.48854 0.68859 0.0
H3174 H 0.08633 0.47063 0.67797 0.0
H3175 H 0.04202 0.38774 0.63499 0.0
H3176 H 0.04849 0.41343 0.62615 0.0
H3177 H 0.0642 0.43252 0.67375 0.0
H3178 H 0.05819 0.407 0.68248 0.0
H3179 H 0.08076 0.44747 0.65622 0.0
H3180 H 0.02452 0.43475 0.65603 0.0
H3181 H 0.99855 0.42013 0.6484 0.0
H3182 H 0.00407 0.4233 0.6 0.0
H3183 H 0.03001 0.43824 0.60742 0.0
C3184 C 0.0525 0.51473 0.65633 0.0
C3185 C 0.04826 0.52132 0.6425 0.0
C3186 C 0.05644 0.49942 0.65573 0.0
C3187 C 0.05619 0.49035 0.64131 0.0
C3188 C 0.05247 0.49701 0.62747 0.0
C3189 C 0.04867 0.51238 0.62805 0.0
C3190 C 0.05792 0.47344 0.64088 0.0
C3191 C 0.04499 0.46287 0.6346 0.0
C3192 C 0.07113 0.4678 0.64847 0.0
C3193 C 0.08532 0.47846 0.65488 0.0
C3194 C 0.09252 0.48877 0.64549 0.0
C3195 C 0.10575 0.49894 0.65164 0.0
C3196 C 0.11195 0.49885 0.66717 0.0
C3197 C 0.10495 0.48858 0.67656 0.0
C3198 C 0.0917 0.4784 0.67047 0.0
C3199 C 0.04723 0.39735 0.64348 0.0
C3200 C 0.04946 0.39537 0.65946 0.0
C3201 C 0.05083 0.41206 0.63844 0.0
C3202 C 0.05645 0.42507 0.64934 0.0
C3203 C 0.05987 0.42275 0.66508 0.0
C3204 C 0.05647 0.40808 0.67007 0.0
C3205 C 0.05731 0.44132 0.64489 0.0
C3206 C 0.0707 0.45178 0.65025 0.0
C3207 C 0.04436 0.44701 0.63681 0.0
C3208 C 0.02926 0.4373 0.63225 0.0
C3209 C 0.02026 0.43212 0.64376 0.0
C3210 C 0.00554 0.42379 0.63946 0.0
C3211 C 0.99978 0.42045 0.62369 0.0
C3212 C 0.00864 0.42567 0.61219 0.0
C3213 C 0.02331 0.43413 0.61643 0.0
H3214 H 0.9884 0.41395 0.62035 0.0
H3215 H 0.12219 0.50674 0.67191 0.0
H3216 H 0.72467 0.45269 0.54123 0.0
H3217 H 0.72401 0.46758 0.51868 0.0
H3218 H 0.76755 0.4944 0.53796 0.0
H3219 H 0.76805 0.47982 0.56083 0.0
H3220 H 0.74738 0.51315 0.52665 0.0
H3221 H 0.76705 0.46633 0.50795 0.0
H3222 H 0.76853 0.43806 0.50221 0.0
H3223 H 0.72453 0.43331 0.47352 0.0
H3224 H 0.72271 0.46155 0.47922 0.0
H3225 H 0.76983 0.53593 0.453 0.0
H3226 H 0.76701 0.52748 0.47889 0.0
H3227 H 0.7199 0.5072 0.46287 0.0
H3228 H 0.72261 0.51588 0.43704 0.0
H3229 H 0.74137 0.48597 0.47282 0.0
H3230 H 0.72406 0.535 0.49101 0.0
H3231 H 0.72578 0.56372 0.49583 0.0
H3232 H 0.76919 0.56461 0.52482 0.0
H3233 H 0.76785 0.5359 0.51999 0.0
C3234 C 0.73405 0.46183 0.54074 0.0
C3235 C 0.74641 0.46507 0.55283 0.0
C3236 C 0.73373 0.47025 0.52778 0.0
C3237 C 0.74579 0.48202 0.52657 0.0
C3238 C 0.75812 0.48535 0.53865 0.0
C3239 C 0.75847 0.47691 0.55163 0.0
C3240 C 0.74546 0.49083 0.51269 0.0
C3241 C 0.74622 0.50722 0.51488 0.0
C3242 C 0.74382 0.4831 0.49733 0.0
C3243 C 0.74465 0.46603 0.49418 0.0
C3244 C 0.7576 0.45923 0.50057 0.0
C3245 C 0.75853 0.44322 0.49728 0.0
C3246 C 0.74661 0.43389 0.48755 0.0
C3247 C 0.73374 0.44055 0.48108 0.0
C3248 C 0.73276 0.45656 0.48433 0.0
C3249 C 0.75866 0.5303 0.45527 0.0
C3250 C 0.7464 0.52661 0.44314 0.0
C3251 C 0.75707 0.52544 0.47001 0.0
C3252 C 0.74327 0.51666 0.47273 0.0
C3253 C 0.73061 0.51401 0.46097 0.0
C3254 C 0.73211 0.51908 0.4463 0.0
C3255 C 0.74302 0.50822 0.48678 0.0
C3256 C 0.74232 0.49187 0.4846 0.0
C3257 C 0.74509 0.51603 0.50209 0.0
C3258 C 0.74592 0.5333 0.50502 0.0
C3259 C 0.73405 0.54133 0.4983 0.0
C3260 C 0.73494 0.55761 0.50105 0.0
C3261 C 0.7476 0.56599 0.51059 0.0
C3262 C 0.75939 0.55811 0.51742 0.0
C3263 C 0.75856 0.54183 0.51469 0.0
H3264 H 0.74827 0.57859 0.51271 0.0
H3265 H 0.74737 0.4215 0.48499 0.0
H3266 H 0.69384 0.50973 0.1053 0.0
H3267 H 0.68682 0.48622 0.08678 0.0
H3268 H 0.70889 0.45875 0.11979 0.0
H3269 H 0.71607 0.48223 0.13827 0.0
H3270 H 0.71584 0.45 0.09133 0.0
H3271 H 0.66867 0.4592 0.11442 0.0
H3272 H 0.64724 0.47415 0.12194 0.0
H3273 H 0.63376 0.47917 0.07373 0.0
H3274 H 0.65533 0.46455 0.06597 0.0
H3275 H 0.64883 0.38745 0.04674 0.0
H3276 H 0.6609 0.40539 0.06933 0.0
H3277 H 0.69568 0.4236 0.0414 0.0
H3278 H 0.68375 0.40535 0.01897 0.0
H3279 H 0.66061 0.43532 0.06938 0.0
H3280 H 0.72728 0.44276 0.06483 0.0
H3281 H 0.74804 0.42659 0.05793 0.0
H3282 H 0.72157 0.38605 0.07067 0.0
H3283 H 0.70076 0.402 0.07785 0.0
C3284 C 0.69713 0.49866 0.10863 0.0
C3285 C 0.70545 0.49783 0.12327 0.0
C3286 C 0.69313 0.48523 0.09804 0.0
C3287 C 0.69716 0.47066 0.10196 0.0
C3288 C 0.70568 0.46985 0.11648 0.0
C3289 C 0.70978 0.48329 0.12703 0.0
C3290 C 0.69231 0.45623 0.09105 0.0
C3291 C 0.70375 0.44677 0.08653 0.0
C3292 C 0.67652 0.45187 0.08493 0.0
C3293 C 0.66369 0.46088 0.08963 0.0
C3294 C 0.66123 0.46362 0.10544 0.0
C3295 C 0.64905 0.47204 0.10975 0.0
C3296 C 0.63916 0.47764 0.09833 0.0
C3297 C 0.64144 0.47486 0.08257 0.0
C3298 C 0.65364 0.46651 0.07822 0.0
C3299 C 0.65946 0.3948 0.04571 0.0
C3300 C 0.6655 0.39496 0.03127 0.0
C3301 C 0.66628 0.40515 0.05854 0.0
C3302 C 0.67918 0.41592 0.05708 0.0
C3303 C 0.6859 0.41527 0.04292 0.0
C3304 C 0.67914 0.40479 0.03012 0.0
C3305 C 0.68411 0.42913 0.06949 0.0
C3306 C 0.67268 0.43846 0.07422 0.0
C3307 C 0.69986 0.43325 0.07585 0.0
C3308 C 0.7124 0.42357 0.07175 0.0
C3309 C 0.72592 0.43041 0.06623 0.0
C3310 C 0.73769 0.42127 0.06225 0.0
C3311 C 0.73611 0.40529 0.06382 0.0
C3312 C 0.72276 0.39842 0.06941 0.0
C3313 C 0.71096 0.4075 0.07341 0.0
H3314 H 0.74523 0.39824 0.06073 0.0
H3315 H 0.62972 0.48412 0.10168 0.0
H3316 H 0.36049 0.94897 0.47641 0.0
H3317 H 0.35742 0.94263 0.50304 0.0
H3318 H 0.33999 0.98702 0.51379 0.0
H3319 H 0.3432 0.99348 0.48735 0.0
H3320 H 0.36041 0.98003 0.53773 0.0
H3321 H 0.31498 0.95495 0.50393 0.0
H3322 H 0.30151 0.93736 0.4814 0.0
H3323 H 0.32155 0.8984 0.49934 0.0
H3324 H 0.33531 0.91582 0.52188 0.0
H3325 H 0.29836 0.958 0.58817 0.0
H3326 H 0.30754 0.95356 0.56245 0.0
H3327 H 0.35435 0.95203 0.58434 0.0
H3328 H 0.34517 0.95714 0.61011 0.0
H3329 H 0.32261 0.9348 0.54448 0.0
H3330 H 0.37938 0.97431 0.56474 0.0
H3331 H 0.39124 0.99281 0.58734 0.0
H3332 H 0.34585 0.00507 0.59632 0.0
H3333 H 0.33373 0.98686 0.57361 0.0
C3334 C 0.3562 0.95744 0.48453 0.0
C3335 C 0.35197 0.97167 0.47978 0.0
C3336 C 0.35439 0.95378 0.49969 0.0
C3337 C 0.34839 0.96432 0.51034 0.0
C3338 C 0.34465 0.97873 0.50576 0.0
C3339 C 0.34635 0.98234 0.49061 0.0
C3340 C 0.34524 0.96019 0.52604 0.0
C3341 C 0.3523 0.97003 0.53923 0.0
C3342 C 0.33461 0.94718 0.52798 0.0
C3343 C 0.32632 0.93671 0.51447 0.0
C3344 C 0.31662 0.94265 0.50299 0.0
C3345 C 0.30891 0.93271 0.49024 0.0
C3346 C 0.31072 0.91678 0.48891 0.0
C3347 C 0.32019 0.91075 0.50036 0.0
C3348 C 0.32794 0.92065 0.51313 0.0
C3349 C 0.31045 0.95602 0.58744 0.0
C3350 C 0.32109 0.95783 0.60097 0.0
C3351 C 0.31572 0.95353 0.57277 0.0
C3352 C 0.3317 0.95282 0.57147 0.0
C3353 C 0.34202 0.9528 0.58508 0.0
C3354 C 0.33677 0.95555 0.59977 0.0
C3355 C 0.33765 0.95473 0.55619 0.0
C3356 C 0.33108 0.94453 0.54304 0.0
C3357 C 0.34853 0.96759 0.55426 0.0
C3358 C 0.35566 0.97908 0.56758 0.0
C3359 C 0.37195 0.98103 0.57148 0.0
C3360 C 0.37871 0.99146 0.58431 0.0
C3361 C 0.36929 1.00006 0.59329 0.0
C3362 C 0.35311 0.99834 0.58939 0.0
C3363 C 0.34629 0.988 0.57651 0.0
H3364 H 0.37453 0.00808 0.60326 0.0
H3365 H 0.30474 0.9091 0.47903 0.0
H3366 H 0.16274 0.05531 0.85741 0.0
H3367 H 0.17181 0.07106 0.8824 0.0
H3368 H 0.21591 0.08417 0.86537 0.0
H3369 H 0.20691 0.06869 0.84042 0.0
H3370 H 0.21964 0.0728 0.89342 0.0
H3371 H 0.18967 0.11029 0.86996 0.0
H3372 H 0.16594 0.11943 0.85737 0.0
H3373 H 0.142 0.11112 0.89742 0.0
H3374 H 0.16554 0.10171 0.91017 0.0
H3375 H 0.25688 0.12455 0.95375 0.0
H3376 H 0.24273 0.11807 0.92776 0.0
H3377 H 0.20061 0.10459 0.94815 0.0
H3378 H 0.21459 0.1116 0.9743 0.0
H3379 H 0.19466 0.11635 0.91892 0.0
H3380 H 0.22341 0.07828 0.94207 0.0
H3381 H 0.24676 0.06906 0.95539 0.0
H3382 H 0.272 0.07717 0.91615 0.0
H3383 H 0.24893 0.08685 0.90277 0.0
C3384 C 0.17427 0.06175 0.85891 0.0
C3385 C 0.18417 0.06059 0.84699 0.0
C3386 C 0.17943 0.07075 0.87319 0.0
C3387 C 0.19454 0.07879 0.87573 0.0
C3388 C 0.20425 0.07799 0.86369 0.0
C3389 C 0.19911 0.06905 0.84947 0.0
C3390 C 0.20076 0.0872 0.89122 0.0
C3391 C 0.21428 0.08247 0.89886 0.0
C3392 C 0.19346 0.09945 0.89858 0.0
C3393 C 0.17932 0.10514 0.89095 0.0
C3394 C 0.17931 0.11028 0.87603 0.0
C3395 C 0.1659 0.11553 0.86887 0.0
C3396 C 0.15246 0.11581 0.87657 0.0
C3397 C 0.15241 0.11087 0.89146 0.0
C3398 C 0.16579 0.10559 0.89866 0.0
C3399 C 0.24445 0.12092 0.95277 0.0
C3400 C 0.23693 0.11833 0.96611 0.0
C3401 C 0.23639 0.11711 0.93788 0.0
C3402 C 0.22074 0.1105 0.93606 0.0
C3403 C 0.21272 0.10957 0.9493 0.0
C3404 C 0.22076 0.11347 0.96423 0.0
C3405 C 0.21372 0.10219 0.9208 0.0
C3406 C 0.20002 0.10676 0.91336 0.0
C3407 C 0.22071 0.08962 0.91362 0.0
C3408 C 0.23449 0.08344 0.92148 0.0
C3409 C 0.23397 0.0782 0.93633 0.0
C3410 C 0.24715 0.07289 0.94389 0.0
C3411 C 0.26084 0.07254 0.93662 0.0
C3412 C 0.26138 0.07747 0.92177 0.0
C3413 C 0.24827 0.08289 0.9142 0.0
H3414 H 0.27103 0.06841 0.94249 0.0
H3415 H 0.14208 0.11989 0.87101 0.0
H3416 H 0.56371 0.7722 0.47326 0.0
H3417 H 0.54142 0.77184 0.48863 0.0
H3418 H 0.51954 0.73029 0.45997 0.0
H3419 H 0.54156 0.73082 0.4443 0.0
H3420 H 0.49878 0.75078 0.46503 0.0
H3421 H 0.53785 0.72817 0.49618 0.0
H3422 H 0.56384 0.72709 0.51033 0.0
H3423 H 0.55832 0.76826 0.54042 0.0
H3424 H 0.53238 0.76971 0.5263 0.0
H3425 H 0.44279 0.72367 0.51125 0.0
H3426 H 0.46902 0.72404 0.50286 0.0
H3427 H 0.47911 0.77259 0.5211 0.0
H3428 H 0.45267 0.77238 0.52916 0.0
H3429 H 0.50609 0.74926 0.52251 0.0
H3430 H 0.46784 0.77286 0.48943 0.0
H3431 H 0.44117 0.77269 0.47628 0.0
H3432 H 0.44516 0.72862 0.45025 0.0
H3433 H 0.47176 0.72839 0.46352 0.0
C3434 C 0.55408 0.76308 0.47013 0.0
C3435 C 0.55444 0.7515 0.45759 0.0
C3436 C 0.54142 0.7628 0.47902 0.0
C3437 C 0.52891 0.75092 0.47557 0.0
C3438 C 0.5291 0.73952 0.46288 0.0
C3439 C 0.54175 0.73978 0.45402 0.0
C3440 C 0.51556 0.75035 0.48512 0.0
C3441 C 0.50043 0.75033 0.47757 0.0
C3442 C 0.51767 0.75 0.50154 0.0
C3443 C 0.53325 0.74914 0.51007 0.0
C3444 C 0.54224 0.73707 0.50573 0.0
C3445 C 0.55695 0.73637 0.51376 0.0
C3446 C 0.56275 0.74762 0.52624 0.0
C3447 C 0.55383 0.75957 0.53074 0.0
C3448 C 0.53911 0.76032 0.52273 0.0
C3449 C 0.45086 0.73421 0.51411 0.0
C3450 C 0.4458 0.74799 0.52084 0.0
C3451 C 0.46579 0.73442 0.50927 0.0
C3452 C 0.47589 0.74836 0.51131 0.0
C3453 C 0.47147 0.76172 0.51953 0.0
C3454 C 0.45642 0.76159 0.52412 0.0
C3455 C 0.48954 0.74968 0.50236 0.0
C3456 C 0.5046 0.74981 0.50999 0.0
C3457 C 0.48743 0.75015 0.48601 0.0
C3458 C 0.4717 0.75053 0.47757 0.0
C3459 C 0.46298 0.76308 0.48098 0.0
C3460 C 0.44789 0.76306 0.47351 0.0
C3461 C 0.44146 0.75063 0.46247 0.0
C3462 C 0.45015 0.73823 0.45882 0.0
C3463 C 0.46523 0.73817 0.46632 0.0
H3464 H 0.42976 0.75062 0.45671 0.0
H3465 H 0.57414 0.74707 0.53244 0.0
H3466 H 0.86176 0.16281 0.05493 0.0
H3467 H 0.88696 0.17277 0.06982 0.0
H3468 H 0.86628 0.21203 0.09059 0.0
H3469 H 0.84109 0.20208 0.07598 0.0
H3470 H 0.89242 0.22084 0.07696 0.0
H3471 H 0.87703 0.18401 0.11235 0.0
H3472 H 0.86818 0.15799 0.11958 0.0
H3473 H 0.9092 0.14014 0.10393 0.0
H3474 H 0.9182 0.16601 0.0964 0.0
H3475 H 0.95786 0.25757 0.12359 0.0
H3476 H 0.93181 0.2434 0.11801 0.0
H3477 H 0.95163 0.20218 0.10052 0.0
H3478 H 0.97785 0.21596 0.10705 0.0
H3479 H 0.92573 0.1939 0.11331 0.0
H3480 H 0.94033 0.2287 0.07602 0.0
H3481 H 0.9497 0.25396 0.06736 0.0
H3482 H 0.9106 0.27446 0.08443 0.0
H3483 H 0.90112 0.24939 0.09341 0.0
C3484 C 0.86251 0.17339 0.06292 0.0
C3485 C 0.84947 0.18176 0.06413 0.0
C3486 C 0.87692 0.17906 0.07141 0.0
C3487 C 0.87848 0.19315 0.0813 0.0
C3488 C 0.86534 0.20119 0.08296 0.0
C3489 C 0.85098 0.19552 0.07453 0.0
C3490 C 0.89402 0.20027 0.08889 0.0
C3491 C 0.89957 0.21505 0.08513 0.0
C3492 C 0.90358 0.19246 0.09909 0.0
C3493 C 0.89821 0.17692 0.10367 0.0
C3494 C 0.8841 0.1745 0.11032 0.0
C3495 C 0.87907 0.15979 0.1145 0.0
C3496 C 0.8881 0.14741 0.11218 0.0
C3497 C 0.90221 0.14973 0.10571 0.0
C3498 C 0.90729 0.16443 0.1015 0.0
C3499 C 0.95679 0.24532 0.11914 0.0
C3500 C 0.96999 0.238 0.1155 0.0
C3501 C 0.94183 0.23727 0.11577 0.0
C3502 C 0.93975 0.22189 0.10839 0.0
C3503 C 0.95293 0.21411 0.10604 0.0
C3504 C 0.96792 0.22206 0.10965 0.0
C3505 C 0.92398 0.21458 0.10156 0.0
C3506 C 0.91847 0.19973 0.10529 0.0
C3507 C 0.9145 0.22218 0.09108 0.0
C3508 C 0.9201 0.23722 0.08553 0.0
C3509 C 0.93379 0.23862 0.07802 0.0
C3510 C 0.93912 0.2529 0.07304 0.0
C3511 C 0.93078 0.2658 0.07538 0.0
C3512 C 0.91706 0.26446 0.08265 0.0
C3513 C 0.9117 0.25022 0.08768 0.0
H3514 H 0.93492 0.27684 0.07152 0.0
H3515 H 0.88419 0.13602 0.11542 0.0
H3516 H 0.1082 0.69719 0.51618 0.0
H3517 H 0.09111 0.68929 0.49185 0.0
H3518 H 0.12715 0.708 0.46562 0.0
H3519 H 0.14419 0.71611 0.48995 0.0
H3520 H 0.1 0.71552 0.45423 0.0
H3521 H 0.11949 0.66834 0.46828 0.0
H3522 H 0.12498 0.64751 0.48487 0.0
H3523 H 0.07582 0.63626 0.48702 0.0
H3524 H 0.07005 0.65723 0.47073 0.0
H3525 H 0.05186 0.64713 0.39512 0.0
H3526 H 0.07492 0.65838 0.41286 0.0
H3527 H 0.05075 0.69798 0.42672 0.0
H3528 H 0.02805 0.68704 0.40846 0.0
H3529 H 0.07504 0.66101 0.44218 0.0
H3530 H 0.07524 0.7284 0.44479 0.0
H3531 H 0.07067 0.74829 0.42681 0.0
H3532 H 0.08275 0.71769 0.38877 0.0
H3533 H 0.0876 0.6977 0.40655 0.0
C3534 C 0.1125 0.69954 0.50521 0.0
C3535 C 0.12756 0.70721 0.50497 0.0
C3536 C 0.10273 0.69502 0.49131 0.0
C3537 C 0.10792 0.69785 0.47686 0.0
C3538 C 0.12288 0.70569 0.47661 0.0
C3539 C 0.1326 0.71034 0.49052 0.0
C3540 C 0.09776 0.69259 0.46203 0.0
C3541 C 0.09457 0.70358 0.45155 0.0
C3542 C 0.09088 0.67695 0.45838 0.0
C3543 C 0.09435 0.66448 0.46841 0.0
C3544 C 0.10986 0.66154 0.47243 0.0
C3545 C 0.11302 0.64969 0.48177 0.0
C3546 C 0.10076 0.6406 0.48704 0.0
C3547 C 0.08531 0.64333 0.48297 0.0
C3548 C 0.08209 0.65521 0.4737 0.0
C3549 C 0.05183 0.65858 0.40145 0.0
C3550 C 0.03834 0.66635 0.40035 0.0
C3551 C 0.06491 0.66493 0.41169 0.0
C3552 C 0.06462 0.67904 0.42119 0.0
C3553 C 0.05146 0.68727 0.41933 0.0
C3554 C 0.03847 0.68103 0.40887 0.0
C3555 C 0.077 0.68395 0.43444 0.0
C3556 C 0.08056 0.67291 0.44472 0.0
C3557 C 0.08434 0.69946 0.43776 0.0
C3558 C 0.08168 0.7115 0.427 0.0
C3559 C 0.07701 0.72594 0.43261 0.0
C3560 C 0.07435 0.73723 0.42244 0.0
C3561 C 0.07638 0.73424 0.40665 0.0
C3562 C 0.08113 0.71997 0.40099 0.0
C3563 C 0.08382 0.70865 0.41111 0.0
H3564 H 0.0743 0.74299 0.3988 0.0
H3565 H 0.10323 0.63141 0.49424 0.0
H3566 H 0.47516 0.34456 0.94565 0.0
H3567 H 0.50244 0.34263 0.94128 0.0
H3568 H 0.51756 0.37567 0.98191 0.0
H3569 H 0.49032 0.3776 0.98642 0.0
H3570 H 0.53677 0.37892 0.9575 0.0
H3571 H 0.51476 0.33876 0.98662 0.0
H3572 H 0.49516 0.31735 0.9909 0.0
H3573 H 0.50466 0.29084 0.94892 0.0
H3574 H 0.52415 0.31223 0.94427 0.0
H3575 H 0.61034 0.35576 0.98461 0.0
H3576 H 0.58518 0.36492 0.97841 0.0
H3577 H 0.57125 0.32387 0.94551 0.0
H3578 H 0.59546 0.31359 0.95319 0.0
H3579 H 0.55092 0.3255 0.96341 0.0
H3580 H 0.57653 0.36483 0.9365 0.0
H3581 H 0.59632 0.38644 0.93318 0.0
H3582 H 0.58081 0.41483 0.97092 0.0
H3583 H 0.56121 0.39327 0.97476 0.0
C3584 C 0.48429 0.35154 0.95355 0.0
C3585 C 0.48059 0.36104 0.96652 0.0
C3586 C 0.49985 0.35053 0.95097 0.0
C3587 C 0.512 0.35889 0.96137 0.0
C3588 C 0.50835 0.36918 0.97372 0.0
C3589 C 0.49277 0.37024 0.97629 0.0
C3590 C 0.52832 0.35533 0.96063 0.0
C3591 C 0.53999 0.36727 0.95878 0.0
C3592 C 0.53237 0.34008 0.96213 0.0
C3593 C 0.52077 0.32716 0.965 0.0
C3594 C 0.51258 0.32841 0.97824 0.0
C3595 C 0.5015 0.31628 0.98074 0.0
C3596 C 0.49863 0.30276 0.97016 0.0
C3597 C 0.50687 0.30133 0.95708 0.0
C3598 C 0.51793 0.31345 0.95451 0.0
C3599 C 0.602 0.34859 0.97604 0.0
C3600 C 0.60498 0.3336 0.96987 0.0
C3601 C 0.58762 0.35409 0.97221 0.0
C3602 C 0.57615 0.34509 0.96149 0.0
C3603 C 0.5798 0.33098 0.95397 0.0
C3604 C 0.59391 0.32519 0.95825 0.0
C3605 C 0.55972 0.34901 0.95993 0.0
C3606 C 0.54791 0.33712 0.96164 0.0
C3607 C 0.55567 0.36432 0.95831 0.0
C3608 C 0.56743 0.37736 0.95596 0.0
C3609 C 0.57742 0.37563 0.94418 0.0
C3610 C 0.58863 0.38787 0.94222 0.0
C3611 C 0.58986 0.40198 0.95187 0.0
C3612 C 0.57989 0.40387 0.9635 0.0
C3613 C 0.56872 0.39164 0.96556 0.0
H3614 H 0.59851 0.41146 0.9503 0.0
H3615 H 0.49006 0.29338 0.97212 0.0
H3616 H 0.48383 0.56864 0.76956 0.0
H3617 H 0.49905 0.54625 0.76987 0.0
H3618 H 0.46113 0.51735 0.74151 0.0
H3619 H 0.44575 0.53963 0.74133 0.0
H3620 H 0.47411 0.5024 0.76554 0.0
H3621 H 0.49139 0.53159 0.72467 0.0
H3622 H 0.50169 0.55523 0.71365 0.0
H3623 H 0.54347 0.559 0.74564 0.0
H3624 H 0.53331 0.53548 0.757 0.0
H3625 H 0.51673 0.44443 0.72636 0.0
H3626 H 0.50823 0.47075 0.72759 0.0
H3627 H 0.5312 0.48127 0.77444 0.0
H3628 H 0.53818 0.45438 0.77395 0.0
H3629 H 0.52495 0.50551 0.74321 0.0
H3630 H 0.50921 0.4769 0.7861 0.0
H3631 H 0.50687 0.44846 0.79556 0.0
H3632 H 0.45233 0.4429 0.75443 0.0
H3633 H 0.46311 0.47235 0.74922 0.0
C3634 C 0.47866 0.55747 0.76356 0.0
C3635 C 0.46362 0.5559 0.75536 0.0
C3636 C 0.48741 0.54472 0.76366 0.0
C3637 C 0.48127 0.53019 0.75558 0.0
C3638 C 0.46609 0.52848 0.74777 0.0
C3639 C 0.45737 0.54123 0.74759 0.0
C3640 C 0.49082 0.51686 0.7549 0.0
C3641 C 0.48522 0.50304 0.76068 0.0
C3642 C 0.50536 0.5178 0.74867 0.0
C3643 C 0.51152 0.53188 0.74179 0.0
C3644 C 0.50272 0.53753 0.72944 0.0
C3645 C 0.50854 0.55089 0.72312 0.0
C3646 C 0.52321 0.55864 0.72897 0.0
C3647 C 0.5321 0.553 0.74114 0.0
C3648 C 0.52632 0.53965 0.74751 0.0
C3649 C 0.52031 0.45247 0.7368 0.0
C3650 C 0.52746 0.44712 0.75034 0.0
C3651 C 0.51537 0.46753 0.73751 0.0
C3652 C 0.51773 0.47737 0.75171 0.0
C3653 C 0.52793 0.47327 0.76393 0.0
C3654 C 0.53221 0.45801 0.76354 0.0
C3655 C 0.50851 0.49101 0.75408 0.0
C3656 C 0.514 0.50489 0.74837 0.0
C3657 C 0.49384 0.49017 0.7606 0.0
C3658 C 0.48707 0.47606 0.76713 0.0
C3659 C 0.49935 0.46896 0.78063 0.0
C3660 C 0.49789 0.45115 0.78695 0.0
C3661 C 0.48275 0.43742 0.7805 0.0
C3662 C 0.46349 0.44783 0.76099 0.0
C3663 C 0.46978 0.46672 0.75785 0.0
H3664 H 0.47627 0.43806 0.77504 0.0
H3665 H 0.5277 0.56898 0.72406 0.0
H3666 H 0.08112 0.83873 0.20523 0.0
H3667 H 0.09523 0.86402 0.21571 0.0
H3668 H 0.07697 0.88432 0.17511 0.0
H3669 H 0.06259 0.859 0.16458 0.0
H3670 H 0.10868 0.89527 0.18549 0.0
H3671 H 0.05911 0.88873 0.20627 0.0
H3672 H 0.03866 0.87494 0.21935 0.0
H3673 H 0.07098 0.87592 0.26053 0.0
H3674 H 0.0917 0.88952 0.2476 0.0
H3675 H 0.11172 0.97504 0.21627 0.0
H3676 H 0.10682 0.94825 0.2037 0.0
H3677 H 0.12036 0.9311 0.24766 0.0
H3678 H 0.1246 0.95789 0.26046 0.0
H3679 H 0.09278 0.91774 0.23575 0.0
H3680 H 0.14194 0.92665 0.21569 0.0
H3681 H 0.16219 0.94057 0.20248 0.0
H3682 H 0.13098 0.93556 0.16007 0.0
H3683 H 0.11045 0.92179 0.17307 0.0
C3684 C 0.08012 0.84855 0.1985 0.0
C3685 C 0.07052 0.84692 0.18419 0.0
C3686 C 0.08827 0.86297 0.20446 0.0
C3687 C 0.08698 0.87606 0.19628 0.0
C3688 C 0.07812 0.87433 0.1816 0.0
C3689 C 0.06992 0.85987 0.1756 0.0
C3690 C 0.09386 0.89174 0.20367 0.0
C3691 C 0.10516 0.90029 0.19641 0.0
C3692 C 0.08946 0.89808 0.21808 0.0
C3693 C 0.077 0.88998 0.22591 0.0
C3694 C 0.06189 0.88589 0.21807 0.0
C3695 C 0.05025 0.87813 0.22546 0.0
C3696 C 0.05353 0.87452 0.24075 0.0
C3697 C 0.06846 0.8787 0.24868 0.0
C3698 C 0.08016 0.88644 0.24133 0.0
C3699 C 0.11391 0.96557 0.22321 0.0
C3700 C 0.1184 0.96859 0.2394 0.0
C3701 C 0.11125 0.95025 0.21597 0.0
C3702 C 0.11325 0.93763 0.22471 0.0
C3703 C 0.11873 0.94066 0.24067 0.0
C3704 C 0.1213 0.956 0.24796 0.0
C3705 C 0.10778 0.9214 0.21767 0.0
C3706 C 0.09657 0.91273 0.22494 0.0
C3707 C 0.11228 0.91503 0.20328 0.0
C3708 C 0.12461 0.92329 0.19541 0.0
C3709 C 0.13935 0.92862 0.20358 0.0
C3710 C 0.15089 0.93646 0.19612 0.0
C3711 C 0.14787 0.93897 0.18046 0.0
C3712 C 0.1333 0.93361 0.17221 0.0
C3713 C 0.12172 0.92577 0.17961 0.0
H3714 H 0.15682 0.94505 0.1747 0.0
H3715 H 0.0445 0.86851 0.24645 0.0
H3716 H 0.49683 0.15447 0.69739 0.0
H3717 H 0.47345 0.13606 0.6889 0.0
H3718 H 0.49772 0.09843 0.70493 0.0
H3719 H 0.52118 0.11676 0.71332 0.0
H3720 H 0.48173 0.0905 0.67577 0.0
H3721 H 0.47194 0.11303 0.72624 0.0
H3722 H 0.46941 0.13446 0.74654 0.0
H3723 H 0.43241 0.1499 0.71708 0.0
H3724 H 0.43487 0.12868 0.6965 0.0
H3725 H 0.40829 0.0417 0.68881 0.0
H3726 H 0.42684 0.06462 0.69836 0.0
H3727 H 0.42803 0.07661 0.65128 0.0
H3728 H 0.40923 0.05385 0.64165 0.0
H3729 H 0.43106 0.0973 0.69654 0.0
H3730 H 0.46801 0.08165 0.64626 0.0
H3731 H 0.47117 0.05902 0.62754 0.0
H3732 H 0.45482 0.02768 0.65937 0.0
H3733 H 0.45198 0.05008 0.67844 0.0
C3734 C 0.4972 0.14226 0.69903 0.0
C3735 C 0.51082 0.13705 0.70605 0.0
C3736 C 0.48381 0.13178 0.69427 0.0
C3737 C 0.48383 0.11591 0.69638 0.0
C3738 C 0.49746 0.11064 0.70322 0.0
C3739 C 0.51081 0.12113 0.7081 0.0
C3740 C 0.46966 0.10474 0.69139 0.0
C3741 C 0.47064 0.09204 0.68026 0.0
C3742 C 0.45524 0.10663 0.69741 0.0
C3743 C 0.45371 0.11937 0.70977 0.0
C3744 C 0.46336 0.12108 0.72404 0.0
C3745 C 0.46192 0.13317 0.7356 0.0
C3746 C 0.45078 0.14356 0.73308 0.0
C3747 C 0.44104 0.14186 0.719 0.0
C3748 C 0.44245 0.12979 0.70739 0.0
C3749 C 0.41194 0.04959 0.68056 0.0
C3750 C 0.40747 0.04586 0.66444 0.0
C3751 C 0.42262 0.06265 0.68604 0.0
C3752 C 0.42904 0.07208 0.67547 0.0
C3753 C 0.42336 0.06932 0.65958 0.0
C3754 C 0.41263 0.05633 0.65411 0.0
C3755 C 0.44309 0.08328 0.68072 0.0
C3756 C 0.44211 0.09591 0.69192 0.0
C3757 C 0.45759 0.08119 0.67495 0.0
C3758 C 0.45957 0.06758 0.66369 0.0
C3759 C 0.46515 0.06993 0.64929 0.0
C3760 C 0.46691 0.05714 0.63863 0.0
C3761 C 0.46314 0.04193 0.64225 0.0
C3762 C 0.45769 0.03947 0.65656 0.0
C3763 C 0.45601 0.05221 0.66731 0.0
H3764 H 0.46451 0.03206 0.63398 0.0
H3765 H 0.44968 0.15291 0.74205 0.0
H3766 H 0.99165 0.49002 0.34471 0.0
H3767 H 0.98533 0.51696 0.34611 0.0
H3768 H 0.9516 0.50667 0.37822 0.0
H3769 H 0.95765 0.4795 0.37659 0.0
H3770 H 0.93993 0.52342 0.35605 0.0
H3771 H 0.98571 0.52747 0.39159 0.0
H3772 H 0.01272 0.52411 0.40157 0.0
H3773 H 0.03029 0.55072 0.36648 0.0
H3774 H 0.00339 0.55396 0.35606 0.0
H3775 H 0.97057 0.61435 0.36375 0.0
H3776 H 0.96645 0.58973 0.37519 0.0
H3777 H 0.94496 0.56708 0.33041 0.0
H3778 H 0.94853 0.59176 0.31924 0.0
H3779 H 0.98185 0.56773 0.3669 0.0
H3780 H 0.92567 0.53249 0.33216 0.0
H3781 H 0.89845 0.53677 0.32405 0.0
H3782 H 0.90082 0.57391 0.36128 0.0
H3783 H 0.92799 0.56972 0.36978 0.0
C3784 C 0.98281 0.49345 0.35199 0.0
C3785 C 0.97514 0.48262 0.36053 0.0
C3786 C 0.97932 0.50889 0.35291 0.0
C3787 C 0.96814 0.51387 0.36243 0.0
C3788 C 0.96034 0.50309 0.37088 0.0
C3789 C 0.96387 0.48761 0.37001 0.0
C3790 C 0.96442 0.53027 0.36313 0.0
C3791 C 0.94903 0.53317 0.35854 0.0
C3792 C 0.97623 0.54299 0.3669 0.0
C3793 C 0.99247 0.54084 0.37296 0.0
C3794 C 0.99531 0.53246 0.38588 0.0
C3795 C 0.01062 0.5306 0.39163 0.0
C3796 C 0.02321 0.53716 0.38464 0.0
C3797 C 0.02052 0.54561 0.37187 0.0
C3798 C 0.00524 0.54746 0.36604 0.0
C3799 C 0.96429 0.60425 0.35661 0.0
C3800 C 0.95992 0.60487 0.34063 0.0
C3801 C 0.96201 0.59017 0.3631 0.0
C3802 C 0.95549 0.57646 0.35367 0.0
C3803 C 0.94977 0.57747 0.33806 0.0
C3804 C 0.95183 0.59161 0.33163 0.0
C3805 C 0.95747 0.56091 0.35902 0.0
C3806 C 0.97259 0.55811 0.36473 0.0
C3807 C 0.94537 0.54836 0.35649 0.0
C3808 C 0.92893 0.55081 0.35158 0.0
C3809 C 0.92036 0.54149 0.3387 0.0
C3810 C 0.90494 0.54393 0.33401 0.0
C3811 C 0.89792 0.55562 0.34213 0.0
C3812 C 0.90629 0.56489 0.35498 0.0
C3813 C 0.92171 0.5625 0.35972 0.0
H3814 H 0.88598 0.5575 0.33847 0.0
H3815 H 0.03505 0.53573 0.38913 0.0
H3816 H 0.30566 0.60127 0.34012 0.0
H3817 H 0.33063 0.60054 0.32919 0.0
H3818 H 0.30631 0.59309 0.28263 0.0
H3819 H 0.2813 0.5933 0.29348 0.0
H3820 H 0.32878 0.57389 0.2858 0.0
H3821 H 0.32505 0.62901 0.29812 0.0
H3822 H 0.32199 0.65271 0.31536 0.0
H3823 H 0.36298 0.64588 0.34506 0.0
H3824 H 0.36616 0.622 0.32809 0.0
H3825 H 0.3873 0.59499 0.23838 0.0
H3826 H 0.36451 0.59273 0.25282 0.0
H3827 H 0.39456 0.6007 0.29634 0.0
H3828 H 0.41752 0.60341 0.28188 0.0
H3829 H 0.3706 0.61832 0.29707 0.0
H3830 H 0.37574 0.56453 0.28381 0.0
H3831 H 0.37901 0.54078 0.26675 0.0
H3832 H 0.33572 0.54472 0.2393 0.0
H3833 H 0.33229 0.56864 0.25606 0.0
C3834 C 0.30561 0.59936 0.32755 0.0
C3835 C 0.29144 0.59738 0.31768 0.0
C3836 C 0.31991 0.59908 0.32131 0.0
C3837 C 0.32038 0.5969 0.30507 0.0
C3838 C 0.30626 0.59482 0.2952 0.0
C3839 C 0.29196 0.5951 0.30142 0.0
C3840 C 0.33552 0.59674 0.29828 0.0
C3841 C 0.33786 0.58367 0.28814 0.0
C3842 C 0.34762 0.60926 0.30175 0.0
C3843 C 0.34574 0.62363 0.31193 0.0
C3844 C 0.33334 0.63249 0.30839 0.0
C3845 C 0.33159 0.64597 0.31811 0.0
C3846 C 0.34226 0.65077 0.33132 0.0
C3847 C 0.35472 0.64213 0.33483 0.0
C3848 C 0.3565 0.62863 0.32516 0.0
C3849 C 0.38909 0.59626 0.25103 0.0
C3850 C 0.40424 0.59945 0.25897 0.0
C3851 C 0.37603 0.59482 0.25928 0.0
C3852 C 0.37779 0.59641 0.27568 0.0
C3853 C 0.39291 0.59939 0.28369 0.0
C3854 C 0.40603 0.6008 0.27541 0.0
C3855 C 0.36373 0.5956 0.28433 0.0
C3856 C 0.36159 0.60846 0.29483 0.0
C3857 C 0.35183 0.58287 0.28124 0.0
C3858 C 0.35383 0.56846 0.27113 0.0
C3859 C 0.36698 0.56041 0.27406 0.0
C3860 C 0.36885 0.5469 0.26446 0.0
C3861 C 0.35759 0.54126 0.25193 0.0
C3862 C 0.34443 0.54911 0.249 0.0
C3863 C 0.34251 0.56264 0.25856 0.0
H3864 H 0.35906 0.5308 0.24452 0.0
H3865 H 0.34089 0.66121 0.33883 0.0
H3866 H 0.21946 0.39253 0.7581 0.0
H3867 H 0.19211 0.38708 0.74703 0.0
H3868 H 0.17846 0.3809 0.79282 0.0
H3869 H 0.20586 0.38597 0.80394 0.0
H3870 H 0.16345 0.35832 0.77065 0.0
H3871 H 0.17314 0.41431 0.7771 0.0
H3872 H 0.18723 0.43984 0.77405 0.0
H3873 H 0.17808 0.43034 0.72415 0.0
H3874 H 0.16412 0.40464 0.72689 0.0
H3875 H 0.08253 0.35769 0.74964 0.0
H3876 H 0.109 0.36565 0.7625 0.0
H3877 H 0.12443 0.37585 0.71831 0.0
H3878 H 0.09784 0.36837 0.70552 0.0
H3879 H 0.13837 0.39688 0.74061 0.0
H3880 H 0.12975 0.34064 0.73384 0.0
H3881 H 0.11534 0.31515 0.73651 0.0
H3882 H 0.12257 0.32486 0.78648 0.0
H3883 H 0.13686 0.35051 0.78411 0.0
C3884 C 0.21066 0.38985 0.7658 0.0
C3885 C 0.21484 0.38972 0.78191 0.0
C3886 C 0.19502 0.38688 0.75948 0.0
C3887 C 0.18322 0.38377 0.76913 0.0
C3888 C 0.18736 0.38334 0.78517 0.0
C3889 C 0.20301 0.38636 0.79152 0.0
C3890 C 0.16655 0.38102 0.76248 0.0
C3891 C 0.15789 0.36684 0.76427 0.0
C3892 C 0.1594 0.392 0.75388 0.0
C3893 C 0.1677 0.40749 0.7522 0.0
C3894 C 0.17423 0.41762 0.76547 0.0
C3895 C 0.18218 0.43212 0.7638 0.0
C3896 C 0.18358 0.43669 0.74892 0.0
C3897 C 0.177 0.42678 0.73567 0.0
C3898 C 0.16905 0.41225 0.73728 0.0
C3899 C 0.09156 0.36179 0.74272 0.0
C3900 C 0.08818 0.36233 0.72657 0.0
C3901 C 0.10669 0.36627 0.75006 0.0
C3902 C 0.11882 0.37101 0.74131 0.0
C3903 C 0.1153 0.37219 0.7253 0.0
C3904 C 0.10011 0.36793 0.718 0.0
C3905 C 0.13526 0.37413 0.74868 0.0
C3906 C 0.1439 0.38837 0.74703 0.0
C3907 C 0.14242 0.36316 0.75733 0.0
C3908 C 0.13426 0.34754 0.75879 0.0
C3909 C 0.12822 0.33736 0.7454 0.0
C3910 C 0.12007 0.32289 0.74686 0.0
C3911 C 0.11801 0.3184 0.76166 0.0
C3912 C 0.12417 0.32835 0.77503 0.0
C3913 C 0.13231 0.34285 0.77363 0.0
H3914 H 0.11166 0.30721 0.76276 0.0
H3915 H 0.18974 0.44793 0.74765 0.0
H3916 H 0.71109 0.99381 0.64479 0.0
H3917 H 0.7369 0.992 0.65817 0.0
H3918 H 0.71636 0.98454 0.70063 0.0
H3919 H 0.69053 0.98712 0.68751 0.0
H3920 H 0.74209 0.0042 0.70702 0.0
H3921 H 0.72841 0.95418 0.6771 0.0
H3922 H 0.71986 0.93591 0.65339 0.0
H3923 H 0.75979 0.95352 0.63208 0.0
H3924 H 0.76848 0.97207 0.6556 0.0
H3925 H 0.80505 0.97128 0.74663 0.0
H3926 H 0.77995 0.9758 0.7331 0.0
H3927 H 0.80307 0.98868 0.69359 0.0
H3928 H 0.82826 0.98415 0.7071 0.0
H3929 H 0.77661 0.96697 0.68537 0.0
H3930 H 0.79063 0.01638 0.71623 0.0
H3931 H 0.79904 0.03409 0.74036 0.0
H3932 H 0.75819 0.01678 0.76043 0.0
H3933 H 0.74964 0.99879 0.7365 0.0
C3934 C 0.71204 0.99197 0.65702 0.0
C3935 C 0.69867 0.99061 0.66505 0.0
C3936 C 0.72682 0.99075 0.66462 0.0
C3937 C 0.72858 0.98792 0.68037 0.0
C3938 C 0.7153 0.98667 0.68846 0.0
C3939 C 0.70051 0.98798 0.68089 0.0
C3940 C 0.74427 0.98633 0.68841 0.0
C3941 C 0.74954 0.99591 0.70238 0.0
C3942 C 0.75419 0.97578 0.68219 0.0
C3943 C 0.74901 0.96462 0.66805 0.0
C3944 C 0.7353 0.95425 0.66731 0.0
C3945 C 0.73044 0.94382 0.65391 0.0
C3946 C 0.73925 0.94358 0.64122 0.0
C3947 C 0.75297 0.95374 0.64192 0.0
C3948 C 0.75787 0.9642 0.65528 0.0
C3949 C 0.80478 0.97512 0.73508 0.0
C3950 C 0.8186 0.97735 0.72791 0.0
C3951 C 0.79046 0.97778 0.7274 0.0
C3952 C 0.78966 0.98264 0.71237 0.0
C3953 C 0.80345 0.98496 0.7052 0.0
C3954 C 0.81782 0.98247 0.71295 0.0
C3955 C 0.77434 0.98478 0.70397 0.0
C3956 C 0.76915 0.97529 0.68996 0.0
C3957 C 0.76446 0.99532 0.71021 0.0
C3958 C 0.76957 0.00612 0.72462 0.0
C3959 C 0.78351 0.01624 0.72584 0.0
C3960 C 0.78829 0.02635 0.73947 0.0
C3961 C 0.77918 0.02653 0.75194 0.0
C3962 C 0.76525 0.01661 0.75078 0.0
C3963 C 0.76042 0.00647 0.73718 0.0
H3964 H 0.7829 0.03437 0.76248 0.0
H3965 H 0.73547 0.9355 0.63086 0.0
H3966 H 0.81361 0.99313 0.3015 0.0
H3967 H 0.78979 0.99163 0.31459 0.0
H3968 H 0.76876 0.0201 0.28196 0.0
H3969 H 0.79267 0.02188 0.26896 0.0
H3970 H 0.76357 0.02925 0.31193 0.0
H3971 H 0.75813 0.98167 0.27789 0.0
H3972 H 0.76604 0.95702 0.26596 0.0
H3973 H 0.76924 0.9393 0.31066 0.0
H3974 H 0.76158 0.96396 0.32291 0.0
H3975 H 0.6859 0.01135 0.33206 0.0
H3976 H 0.70773 0.01162 0.31624 0.0
H3977 H 0.73483 0.99082 0.35151 0.0
H3978 H 0.71335 0.9909 0.36765 0.0
H3979 H 0.7357 0.9778 0.31871 0.0
H3980 H 0.74366 0.02591 0.3529 0.0
H3981 H 0.73663 0.05076 0.3653 0.0
H3982 H 0.7287 0.06726 0.32031 0.0
H3983 H 0.73548 0.04236 0.30759 0.0
C3984 C 0.80398 0.99921 0.29721 0.0
C3985 C 0.80502 0.0076 0.28418 0.0
C3986 C 0.79032 0.99822 0.30461 0.0
C3987 C 0.77742 0.00559 0.29912 0.0
C3988 C 0.77853 0.01426 0.28633 0.0
C3989 C 0.79217 0.01519 0.27887 0.0
C3990 C 0.76282 0.00428 0.30681 0.0
C3991 C 0.75733 0.01801 0.31315 0.0
C3992 C 0.75482 0.98959 0.30866 0.0
C3993 C 0.75943 0.97474 0.30135 0.0
C3994 C 0.76066 0.97258 0.2852 0.0
C3995 C 0.76507 0.95859 0.27837 0.0
C3996 C 0.76818 0.94661 0.28755 0.0
C3997 C 0.76685 0.94859 0.30357 0.0
C3998 C 0.76246 0.96257 0.31046 0.0
C3999 C 0.69651 0.00699 0.33663 0.0
C4000 C 0.6981 0.00195 0.35162 0.0
C4001 C 0.70895 0.00706 0.32747 0.0
C4002 C 0.72296 0.00151 0.33287 0.0
C4003 C 0.72418 0.99537 0.34726 0.0
C4004 C 0.7119 0.99567 0.35659 0.0
C4005 C 0.73661 0.00273 0.32385 0.0
C4006 C 0.74189 0.98901 0.3173 0.0
C4007 C 0.74441 0.0174 0.32178 0.0
C4008 C 0.73992 0.03221 0.32929 0.0
C4009 C 0.74021 0.03475 0.34563 0.0
C4010 C 0.73633 0.04885 0.35272 0.0
C4011 C 0.73227 0.06057 0.3436 0.0
C4012 C 0.73189 0.05816 0.32735 0.0
C4013 C 0.73576 0.04405 0.32019 0.0
H4014 H 0.72956 0.07157 0.34916 0.0
H4015 H 0.77159 0.93579 0.28224 0.0
H4016 H 0.31943 0.29639 0.57246 0.0
H4017 H 0.30928 0.3218 0.57288 0.0
H4018 H 0.30404 0.32138 0.62189 0.0
H4019 H 0.3142 0.29599 0.62157 0.0
H4020 H 0.27852 0.32951 0.60677 0.0
H4021 H 0.33352 0.34502 0.6089 0.0
H4022 H 0.35984 0.34491 0.60029 0.0
H4023 H 0.34302 0.35979 0.5564 0.0
H4024 H 0.31654 0.35977 0.56467 0.0
H4025 H 0.26367 0.40679 0.62539 0.0
H4026 H 0.27742 0.38347 0.62389 0.0
H4027 H 0.27818 0.38492 0.57429 0.0
H4028 H 0.26432 0.4084 0.57573 0.0
H4029 H 0.3059 0.37639 0.58861 0.0
H4030 H 0.25085 0.36095 0.58686 0.0
H4031 H 0.22473 0.36134 0.59589 0.0
H4032 H 0.242 0.34632 0.63956 0.0
H4033 H 0.2683 0.34607 0.63087 0.0
C4034 C 0.31631 0.30179 0.58338 0.0
C4035 C 0.31763 0.29412 0.59699 0.0
C4036 C 0.3105 0.31634 0.5836 0.0
C4037 C 0.30602 0.32361 0.59745 0.0
C4038 C 0.30739 0.316 0.61105 0.0
C4039 C 0.31314 0.30145 0.61084 0.0
C4040 C 0.29935 0.33884 0.59768 0.0
C4041 C 0.28463 0.33979 0.60299 0.0
C4042 C 0.30709 0.3522 0.59234 0.0
C4043 C 0.32301 0.35223 0.58735 0.0
C4044 C 0.3354 0.34814 0.59736 0.0
C4045 C 0.35036 0.34813 0.59255 0.0
C4046 C 0.35309 0.3523 0.57779 0.0
C4047 C 0.34088 0.35653 0.56782 0.0
C4048 C 0.3259 0.35655 0.57257 0.0
C4049 C 0.26681 0.4022 0.61416 0.0
C4050 C 0.26268 0.4093 0.60062 0.0
C4051 C 0.2747 0.38888 0.61332 0.0
C4052 C 0.27856 0.38226 0.59893 0.0
C4053 C 0.27525 0.38979 0.58552 0.0
C4054 C 0.26736 0.40321 0.58635 0.0
C4055 C 0.2852 0.36702 0.59788 0.0
C4056 C 0.29983 0.36606 0.59237 0.0
C4057 C 0.27742 0.35363 0.60307 0.0
C4058 C 0.26158 0.35362 0.60826 0.0
C4059 C 0.24911 0.35783 0.59843 0.0
C4060 C 0.23427 0.35802 0.60348 0.0
C4061 C 0.23172 0.35389 0.6183 0.0
C4062 C 0.244 0.34953 0.62809 0.0
C4063 C 0.25887 0.34935 0.6231 0.0
H4064 H 0.22022 0.35405 0.62219 0.0
H4065 H 0.36468 0.35228 0.57409 0.0
H4066 H 0.25541 0.78602 1.00016 0.0
H4067 H 0.26752 0.76162 0.99852 0.0
H4068 H 0.31279 0.78746 0.01238 0.0
H4069 H 0.3008 0.81184 0.01461 0.0
H4070 H 0.31162 0.76627 0.9854 0.0
H4071 H 0.29583 0.76748 0.03775 0.0
H4072 H 0.27677 0.76847 0.05711 0.0
H4073 H 0.25103 0.72623 0.03373 0.0
H4074 H 0.26983 0.72511 0.01409 0.0
H4075 H 0.3646 0.71681 0.00841 0.0
H4076 H 0.34624 0.73599 0.00864 0.0
H4077 H 0.30815 0.69978 0.99453 0.0
H4078 H 0.32668 0.6801 0.99409 0.0
H4079 H 0.30184 0.72324 0.01832 0.0
H4080 H 0.31904 0.72001 0.96786 0.0
H4081 H 0.33837 0.71832 0.94883 0.0
H4082 H 0.36066 0.76376 0.96768 0.0
H4083 H 0.34167 0.76558 0.98706 0.0
C4084 C 0.26791 0.78653 0.00316 0.0
C4085 C 0.27712 0.80097 0.00749 0.0
C4086 C 0.27481 0.77255 0.00212 0.0
C4087 C 0.29104 0.77275 0.00531 0.0
C4088 C 0.30024 0.78708 0.00977 0.0
C4089 C 0.29336 0.80102 0.01096 0.0
C4090 C 0.29864 0.75814 0.00354 0.0
C4091 C 0.30953 0.7569 0.99263 0.0
C4092 C 0.29541 0.74563 0.01254 0.0
C4093 C 0.28412 0.74632 0.02434 0.0
C4094 C 0.28602 0.75849 0.03664 0.0
C4095 C 0.27528 0.75905 0.04769 0.0
C4096 C 0.26267 0.74745 0.04662 0.0
C4097 C 0.26079 0.73523 0.03452 0.0
C4098 C 0.27148 0.73462 0.02344 0.0
C4099 C 0.35242 0.71268 0.0052 0.0
C4100 C 0.34728 0.69673 0.0011 0.0
C4101 C 0.34186 0.72379 0.00547 0.0
C4102 C 0.32587 0.71934 0.00141 0.0
C4103 C 0.32049 0.70343 0.99771 0.0
C4104 C 0.33114 0.6922 0.99749 0.0
C4105 C 0.31516 0.73166 1.00052 0.0
C4106 C 0.30369 0.73248 0.01087 0.0
C4107 C 0.3177 0.74374 0.99087 0.0
C4108 C 0.32895 0.7429 0.97898 0.0
C4109 C 0.32811 0.72961 0.96802 0.0
C4110 C 0.33901 0.72863 0.95716 0.0
C4111 C 0.35074 0.74093 0.95705 0.0
C4112 C 0.35156 0.75425 0.96778 0.0
C4113 C 0.34072 0.75527 0.9787 0.0
H4114 H 0.35917 0.74014 0.94865 0.0
H4115 H 0.25437 0.7479 0.05519 0.0
H4116 H 0.76562 0.21745 0.40598 0.0
H4117 H 0.75269 0.191 0.39838 0.0
H4118 H 0.77218 0.18994 0.35432 0.0
H4119 H 0.78496 0.21655 0.3618 0.0
H4120 H 0.74276 0.17842 0.34962 0.0
H4121 H 0.78653 0.16957 0.38439 0.0
H4122 H 0.80455 0.17326 0.40872 0.0
H4123 H 0.76684 0.15877 0.43463 0.0
H4124 H 0.74854 0.1552 0.41048 0.0
H4125 H 0.72191 0.09629 0.33023 0.0
H4126 H 0.73738 0.12171 0.33711 0.0
H4127 H 0.71533 0.12835 0.37946 0.0
H4128 H 0.69954 0.10318 0.37253 0.0
H4129 H 0.74742 0.13633 0.38425 0.0
H4130 H 0.70363 0.1464 0.34895 0.0
H4131 H 0.68617 0.1424 0.32425 0.0
H4132 H 0.72509 0.15414 0.29884 0.0
H4133 H 0.74283 0.158 0.32339 0.0
C4134 C 0.76728 0.21152 0.39473 0.0
C4135 C 0.77637 0.21906 0.38452 0.0
C4136 C 0.75989 0.19639 0.3904 0.0
C4137 C 0.76165 0.18835 0.37587 0.0
C4138 C 0.77066 0.19588 0.3656 0.0
C4139 C 0.77794 0.21109 0.36988 0.0
C4140 C 0.75376 0.17224 0.37126 0.0
C4141 C 0.74401 0.16916 0.35709 0.0
C4142 C 0.75516 0.16017 0.38109 0.0
C4143 C 0.76614 0.16225 0.39564 0.0
C4144 C 0.78206 0.16728 0.39529 0.0
C4145 C 0.79232 0.16933 0.40905 0.0
C4146 C 0.78683 0.16629 0.42321 0.0
C4147 C 0.77107 0.16114 0.42365 0.0
C4148 C 0.76075 0.15909 0.40992 0.0
C4149 C 0.72024 0.1032 0.34094 0.0
C4150 C 0.7094 0.09766 0.35078 0.0
C4151 C 0.72916 0.1177 0.34489 0.0
C4152 C 0.72743 0.12696 0.35874 0.0
C4153 C 0.71689 0.12136 0.36874 0.0
C4154 C 0.70791 0.10692 0.36477 0.0
C4155 C 0.73637 0.14264 0.36273 0.0
C4156 C 0.7463 0.1456 0.37677 0.0
C4157 C 0.73525 0.15456 0.35273 0.0
C4158 C 0.72458 0.15232 0.33798 0.0
C4159 C 0.70849 0.148 0.33808 0.0
C4160 C 0.69854 0.14578 0.32411 0.0
C4161 C 0.70453 0.14797 0.30997 0.0
C4162 C 0.72047 0.15243 0.30979 0.0
C4163 C 0.73048 0.15464 0.32373 0.0
H4164 H 0.6968 0.14625 0.29917 0.0
H4165 H 0.7948 0.16788 0.43385 0.0
H4166 H 0.67443 0.68577 0.98105 0.0
H4167 H 0.68839 0.71139 0.97933 0.0
H4168 H 0.6582 0.73296 0.00974 0.0
H4169 H 0.64438 0.70733 0.01188 0.0
H4170 H 0.66186 0.74848 0.98377 0.0
H4171 H 0.69485 0.72898 0.02365 0.0
H4172 H 0.7106 0.70982 0.03504 0.0
H4173 H 0.74071 0.71268 0.99861 0.0
H4174 H 0.725 0.7317 0.98687 0.0
H4175 H 0.70505 0.8234 0.99149 0.0
H4176 H 0.69215 0.79881 0.99798 0.0
H4177 H 0.72395 0.77328 0.97285 0.0
H4178 H 0.73743 0.79779 0.9671 0.0
H4179 H 0.71912 0.76019 0.99789 0.0
H4180 H 0.68585 0.77763 0.95679 0.0
H4181 H 0.67013 0.79611 0.94416 0.0
H4182 H 0.64063 0.79636 0.98126 0.0
H4183 H 0.65632 0.77802 0.99422 0.0
C4184 C 0.67087 0.6959 0.98758 0.0
C4185 C 0.65826 0.6944 0.99665 0.0
C4186 C 0.67885 0.71057 0.98653 0.0
C4187 C 0.67443 0.72409 0.9945 0.0
C4188 C 0.6618 0.72269 0.00347 0.0
C4189 C 0.65386 0.70801 0.00461 0.0
C4190 C 0.68281 0.7397 0.99324 0.0
C4191 C 0.67434 0.75114 0.9871 0.0
C4192 C 0.69915 0.74304 0.99722 0.0
C4193 C 0.70866 0.73167 0.0043 0.0
C4194 C 0.70476 0.72543 0.018 0.0
C4195 C 0.71369 0.71462 0.02453 0.0
C4196 C 0.72662 0.71001 0.01753 0.0
C4197 C 0.73068 0.71625 0.00401 0.0
C4198 C 0.72177 0.72706 0.99742 0.0
C4199 C 0.7095 0.81259 0.98759 0.0
C4200 C 0.7222 0.81263 0.97861 0.0
C4201 C 0.70197 0.79849 0.99115 0.0
C4202 C 0.70684 0.78412 0.98563 0.0
C4203 C 0.71987 0.78417 0.97716 0.0
C4204 C 0.72747 0.79823 0.97373 0.0
C4205 C 0.69821 0.76898 0.98827 0.0
C4206 C 0.70662 0.7576 0.99466 0.0
C4207 C 0.68183 0.76562 0.98435 0.0
C4208 C 0.67236 0.77659 0.97655 0.0
C4209 C 0.67608 0.78171 0.96231 0.0
C4210 C 0.66717 0.79215 0.95508 0.0
C4211 C 0.65442 0.79744 0.96193 0.0
C4212 C 0.65053 0.79227 0.97599 0.0
C4213 C 0.65942 0.78185 0.98327 0.0
H4214 H 0.64753 0.80552 0.95631 0.0
H4215 H 0.73352 0.70163 0.02261 0.0
H4216 H 0.58626 0.30129 0.28716 0.0
H4217 H 0.58437 0.29039 0.31199 0.0
H4218 H 0.60562 0.33419 0.33692 0.0
H4219 H 0.60785 0.34509 0.31205 0.0
H4220 H 0.61801 0.30956 0.34854 0.0
H4221 H 0.56709 0.3244 0.33644 0.0
H4222 H 0.54239 0.32604 0.32016 0.0
H4223 H 0.53203 0.27616 0.31648 0.0
H4224 H 0.5568 0.27418 0.33256 0.0
H4225 H 0.60193 0.28236 0.42129 0.0
H4226 H 0.601 0.29879 0.3997 0.0
H4227 H 0.58124 0.25868 0.3677 0.0
H4228 H 0.58201 0.24234 0.38917 0.0
H4229 H 0.56741 0.2848 0.36159 0.0
H4230 H 0.61984 0.27017 0.37129 0.0
H4231 H 0.64468 0.26863 0.38742 0.0
H4232 H 0.65207 0.31872 0.3957 0.0
H4233 H 0.62714 0.32053 0.37978 0.0
C4234 C 0.59066 0.30857 0.29791 0.0
C4235 C 0.5972 0.32407 0.29761 0.0
C4236 C 0.58942 0.30238 0.31211 0.0
C4237 C 0.59467 0.31154 0.32634 0.0
C4238 C 0.60142 0.32694 0.32609 0.0
C4239 C 0.6026 0.33317 0.31188 0.0
C4240 C 0.59328 0.30488 0.3414 0.0
C4241 C 0.6069 0.30442 0.35154 0.0
C4242 C 0.57882 0.29801 0.34525 0.0
C4243 C 0.56387 0.29913 0.33561 0.0
C4244 C 0.55961 0.31376 0.33206 0.0
C4245 C 0.54558 0.31476 0.32288 0.0
C4246 C 0.53566 0.30121 0.31726 0.0
C4247 C 0.53973 0.28664 0.32083 0.0
C4248 C 0.55376 0.28558 0.33 0.0
C4249 C 0.59712 0.27715 0.4097 0.0
C4250 C 0.59217 0.26105 0.40688 0.0
C4251 C 0.5967 0.28651 0.39736 0.0
C4252 C 0.59123 0.27992 0.38204 0.0
C4253 C 0.58554 0.26402 0.3794 0.0
C4254 C 0.58607 0.25468 0.39166 0.0
C4255 C 0.59218 0.28921 0.36854 0.0
C4256 C 0.57848 0.29016 0.35869 0.0
C4257 C 0.60656 0.29656 0.36498 0.0
C4258 C 0.62154 0.29548 0.37452 0.0
C4259 C 0.62669 0.28084 0.37667 0.0
C4260 C 0.6408 0.27993 0.38575 0.0
C4261 C 0.64992 0.29357 0.39262 0.0
C4262 C 0.64497 0.30816 0.39039 0.0
C4263 C 0.63086 0.30914 0.38134 0.0
H4264 H 0.66084 0.29283 0.39965 0.0
H4265 H 0.5248 0.30201 0.31016 0.0
H4266 H 0.03091 0.26743 0.79237 0.0
H4267 H 0.02722 0.27932 0.7679 0.0
H4268 H 1.00007 0.31268 0.7899 0.0
H4269 H 0.00348 0.30072 0.81424 0.0
H4270 H 0.98509 0.29857 0.76261 0.0
H4271 H 0.03648 0.32301 0.78155 0.0
H4272 H 0.06462 0.32541 0.79058 0.0
H4273 H 0.07349 0.30149 0.747 0.0
H4274 H 0.04533 0.29861 0.73782 0.0
H4275 H 0.98362 0.35793 0.71196 0.0
H4276 H 0.98663 0.34139 0.73306 0.0
H4277 H 0.00942 0.30953 0.70373 0.0
H4278 H 0.00642 0.32613 0.68249 0.0
H4279 H 0.02665 0.32023 0.73278 0.0
H4280 H 0.97515 0.29713 0.71342 0.0
H4281 H 0.94728 0.29695 0.70401 0.0
H4282 H 0.93911 0.32004 0.74823 0.0
H4283 H 0.96699 0.32058 0.75785 0.0
C4284 C 0.02425 0.27738 0.79201 0.0
C4285 C 0.01747 0.28312 0.80525 0.0
C4286 C 0.02224 0.28421 0.77805 0.0
C4287 C 0.01338 0.29689 0.77708 0.0
C4288 C 0.00695 0.3029 0.79039 0.0
C4289 C 0.00903 0.29613 0.80434 0.0
C4290 C 0.00994 0.30335 0.762 0.0
C4291 C 0.9942 0.3034 0.75615 0.0
C4292 C 0.02184 0.30921 0.75331 0.0
C4293 C 0.03871 0.31032 0.7591 0.0
C4294 C 0.04437 0.31799 0.77399 0.0
C4295 C 0.06034 0.3195 0.77911 0.0
C4296 C 0.07082 0.31354 0.7694 0.0
C4297 C 0.06535 0.30603 0.75454 0.0
C4298 C 0.04937 0.30444 0.74939 0.0
C4299 C 0.9891 0.3473 0.70991 0.0
C4300 C 0.99502 0.34344 0.69568 0.0
C4301 C 0.99071 0.3378 0.72195 0.0
C4302 C 0.99831 0.32427 0.71997 0.0
C4303 C 0.00352 0.31993 0.70547 0.0
C4304 C 0.00166 0.32935 0.6933 0.0
C4305 C 0.00188 0.31553 0.73353 0.0
C4306 C 0.0176 0.31509 0.73911 0.0
C4307 C 0.99001 0.30937 0.74202 0.0
C4308 C 0.9732 0.30899 0.73632 0.0
C4309 C 0.96744 0.30228 0.72111 0.0
C4310 C 0.95164 0.30209 0.71574 0.0
C4311 C 0.94144 0.30851 0.7255 0.0
C4312 C 0.94702 0.31508 0.74068 0.0
C4313 C 0.96283 0.31531 0.7461 0.0
H4314 H 0.92921 0.30835 0.72133 0.0
H4315 H 0.0832 0.31479 0.77336 0.0
H4316 H 0.4183 0.78174 0.21377 0.0
H4317 H 0.41309 0.76939 0.18687 0.0
H4318 H 0.36527 0.75583 0.19417 0.0
H4319 H 0.37029 0.76839 0.22104 0.0
H4320 H 0.37823 0.73195 0.17913 0.0
H4321 H 0.37388 0.78613 0.17407 0.0
H4322 H 0.38256 0.8144 0.17767 0.0
H4323 H 0.42193 0.80658 0.15251 0.0
H4324 H 0.41361 0.77822 0.14895 0.0
H4325 H 0.34284 0.71513 0.10126 0.0
H4326 H 0.35076 0.72614 0.1283 0.0
H4327 H 0.39783 0.73742 0.1173 0.0
H4328 H 0.38988 0.72657 0.09004 0.0
H4329 H 0.38691 0.76196 0.13418 0.0
H4330 H 0.39015 0.70763 0.13802 0.0
H4331 H 0.38099 0.67948 0.1343 0.0
H4332 H 0.34322 0.68761 0.16166 0.0
H4333 H 0.35203 0.71586 0.16536 0.0
C4334 C 0.40662 0.77629 0.20963 0.0
C4335 C 0.39469 0.77614 0.21957 0.0
C4336 C 0.40368 0.76918 0.19425 0.0
C4337 C 0.38876 0.7618 0.18848 0.0
C4338 C 0.37688 0.76143 0.19841 0.0
C4339 C 0.37979 0.76857 0.21378 0.0
C4340 C 0.38552 0.75447 0.17208 0.0
C4341 C 0.37996 0.73854 0.16929 0.0
C4342 C 0.38818 0.76299 0.15927 0.0
C4343 C 0.39322 0.78004 0.1614 0.0
C4344 C 0.38447 0.79042 0.16943 0.0
C4345 C 0.38931 0.80647 0.17144 0.0
C4346 C 0.40282 0.81228 0.16537 0.0
C4347 C 0.41149 0.80206 0.15723 0.0
C4348 C 0.40671 0.786 0.15521 0.0
C4349 C 0.35488 0.71998 0.10458 0.0
C4350 C 0.36573 0.72005 0.09352 0.0
C4351 C 0.35942 0.72615 0.12007 0.0
C4352 C 0.37491 0.73249 0.12485 0.0
C4353 C 0.38582 0.73254 0.11386 0.0
C4354 C 0.3813 0.72626 0.09834 0.0
C4355 C 0.3795 0.73946 0.14123 0.0
C4356 C 0.38529 0.75533 0.14402 0.0
C4357 C 0.37701 0.73089 0.15404 0.0
C4358 C 0.37168 0.71389 0.15185 0.0
C4359 C 0.37982 0.70344 0.14314 0.0
C4360 C 0.3747 0.68746 0.14105 0.0
C4361 C 0.36151 0.68176 0.14771 0.0
C4362 C 0.35343 0.69204 0.1565 0.0
C4363 C 0.35849 0.70804 0.15861 0.0
H4364 H 0.35758 0.66938 0.14609 0.0
H4365 H 0.40654 0.8247 0.16693 0.0
H4366 H 0.01483 0.64479 0.70924 0.0
H4367 H 0.0124 0.65816 0.73498 0.0
H4368 H 0.98108 0.68779 0.71382 0.0
H4369 H 0.98312 0.67425 0.68806 0.0
H4370 H 0.00307 0.70435 0.73623 0.0
H4371 H 0.9666 0.65799 0.73136 0.0
H4372 H 0.95828 0.62968 0.72666 0.0
H4373 H 0.99057 0.62185 0.76534 0.0
H4374 H 0.99925 0.65012 0.77014 0.0
H4375 H 0.96426 0.73218 0.79992 0.0
H4376 H 0.97184 0.72008 0.77549 0.0
H4377 H 0.00141 0.69205 0.80135 0.0
H4378 H 0.99366 0.70403 0.82594 0.0
H4379 H 0.98263 0.67457 0.7774 0.0
H4380 H 0.01762 0.72144 0.78355 0.0
H4381 H 0.02554 0.74982 0.78827 0.0
H4382 H 0.99591 0.75686 0.74732 0.0
H4383 H 0.98762 0.72853 0.74247 0.0
C4384 C 0.00731 0.65405 0.71003 0.0
C4385 C 0.9991 0.65835 0.69651 0.0
C4386 C 0.006 0.66174 0.72477 0.0
C4387 C 0.99647 0.6739 0.72634 0.0
C4388 C 0.98854 0.67847 0.71288 0.0
C4389 C 0.98978 0.67074 0.69814 0.0
C4390 C 0.9945 0.68166 0.74202 0.0
C4391 C 0.99848 0.69787 0.7452 0.0
C4392 C 0.98889 0.67314 0.75385 0.0
C4393 C 0.98371 0.65615 0.75099 0.0
C4394 C 0.97203 0.65022 0.73877 0.0
C4395 C 0.96723 0.63418 0.73611 0.0
C4396 C 0.97393 0.62396 0.74567 0.0
C4397 C 0.98542 0.62977 0.75793 0.0
C4398 C 0.99028 0.6458 0.76063 0.0
C4399 C 0.97243 0.72348 0.80042 0.0
C4400 C 0.97831 0.719 0.81485 0.0
C4401 C 0.97685 0.71666 0.78645 0.0
C4402 C 0.98727 0.70522 0.78658 0.0
C4403 C 0.99338 0.70088 0.80098 0.0
C4404 C 0.98903 0.7078 0.81501 0.0
C4405 C 0.99108 0.6973 0.7716 0.0
C4406 C 0.98741 0.68105 0.76852 0.0
C4407 C 0.99695 0.7058 0.75986 0.0
C4408 C 0.0019 0.72286 0.76272 0.0
C4409 C 0.01269 0.72904 0.77562 0.0
C4410 C 0.01726 0.74512 0.77831 0.0
C4411 C 0.0112 0.75514 0.76812 0.0
C4412 C 1.00058 0.74909 0.75521 0.0
C4413 C 0.99595 0.73301 0.75247 0.0
H4414 H 0.01477 0.76758 0.77022 0.0
H4415 H 0.97019 0.61155 0.74359 0.0
H4416 H 0.69439 0.42528 0.67283 0.0
H4417 H 0.66857 0.42305 0.68216 0.0
H4418 H 0.67158 0.37417 0.6865 0.0
H4419 H 0.69719 0.37619 0.67673 0.0
H4420 H 0.64376 0.37877 0.67196 0.0
H4421 H 0.67624 0.40122 0.71868 0.0
H4422 H 0.69584 0.42057 0.73454 0.0
H4423 H 0.66669 0.45695 0.72632 0.0
H4424 H 0.647 0.43785 0.71023 0.0
H4425 H 0.57928 0.36351 0.71369 0.0
H4426 H 0.606 0.36727 0.70681 0.0
H4427 H 0.60173 0.41615 0.7037 0.0
H4428 H 0.57495 0.41247 0.71074 0.0
H4429 H 0.63012 0.4122 0.7175 0.0
H4430 H 0.59779 0.3902 0.67084 0.0
H4431 H 0.57814 0.37121 0.65459 0.0
H4432 H 0.607 0.33445 0.66211 0.0
H4433 H 0.62674 0.35318 0.67859 0.0
C4434 C 0.68953 0.41404 0.67572 0.0
C4435 C 0.69786 0.40091 0.67403 0.0
C4436 C 0.67484 0.41282 0.6812 0.0
C4437 C 0.66819 0.39847 0.68517 0.0
C4438 C 0.6765 0.38537 0.68356 0.0
C4439 C 0.6912 0.38658 0.67809 0.0
C4440 C 0.65237 0.39697 0.6905 0.0
C4441 C 0.64085 0.38592 0.68206 0.0
C4442 C 0.64842 0.40664 0.70338 0.0
C4443 C 0.66021 0.41813 0.71313 0.0
C4444 C 0.67406 0.41337 0.72016 0.0
C4445 C 0.68518 0.42429 0.7292 0.0
C4446 C 0.68253 0.43998 0.7314 0.0
C4447 C 0.66874 0.44479 0.72459 0.0
C4448 C 0.65758 0.43392 0.71552 0.0
C4449 C 0.58403 0.37507 0.71153 0.0
C4450 C 0.57495 0.38766 0.71258 0.0
C4451 C 0.5993 0.3772 0.70761 0.0
C4452 C 0.60578 0.39193 0.70444 0.0
C4453 C 0.59696 0.40467 0.70604 0.0
C4454 C 0.58167 0.40256 0.71008 0.0
C4455 C 0.62157 0.39387 0.69905 0.0
C4456 C 0.63305 0.40503 0.70742 0.0
C4457 C 0.62549 0.38436 0.68605 0.0
C4458 C 0.61367 0.37307 0.67607 0.0
C4459 C 0.5999 0.37805 0.66912 0.0
C4460 C 0.58875 0.36733 0.65986 0.0
C4461 C 0.5913 0.35163 0.65735 0.0
C4462 C 0.60503 0.34661 0.66407 0.0
C4463 C 0.61621 0.35727 0.67337 0.0
H4464 H 0.58265 0.34335 0.65017 0.0
H4465 H 0.69116 0.44842 0.73841 0.0
H4466 H 0.79264 0.58379 0.22366 0.0
H4467 H 0.82023 0.58993 0.23362 0.0
H4468 H 0.81259 0.63781 0.24646 0.0
H4469 H 0.78514 0.63192 0.23594 0.0
H4470 H 0.83879 0.63666 0.23307 0.0
H4471 H 0.81593 0.61132 0.27375 0.0
H4472 H 0.80098 0.59007 0.28476 0.0
H4473 H 0.83354 0.55834 0.27101 0.0
H4474 H 0.84858 0.57936 0.25973 0.0
H4475 H 0.90523 0.66317 0.2859 0.0
H4476 H 0.87846 0.65442 0.27462 0.0
H4477 H 0.89168 0.60863 0.2612 0.0
H4478 H 0.9187 0.61739 0.27241 0.0
H4479 H 0.86343 0.60728 0.27354 0.0
H4480 H 0.8871 0.63332 0.23414 0.0
H4481 H 0.90207 0.65486 0.22357 0.0
H4482 H 0.86787 0.68555 0.23523 0.0
H4483 H 0.85281 0.66425 0.24608 0.0
C4484 C 0.79685 0.59567 0.22844 0.0
C4485 C 0.78662 0.60735 0.22903 0.0
C4486 C 0.81261 0.59912 0.23429 0.0
C4487 C 0.81847 0.61429 0.24099 0.0
C4488 C 0.80834 0.62601 0.24141 0.0
C4489 C 0.7926 0.62258 0.23552 0.0
C4490 C 0.83515 0.61802 0.24751 0.0
C4491 C 0.84411 0.63034 0.24204 0.0
C4492 C 0.84226 0.6095 0.25891 0.0
C4493 C 0.83328 0.59687 0.26575 0.0
C4494 C 0.81983 0.59978 0.27297 0.0
C4495 C 0.81135 0.58779 0.27928 0.0
C4496 C 0.81628 0.57285 0.27854 0.0
C4497 C 0.82972 0.5699 0.27154 0.0
C4498 C 0.83824 0.58186 0.2652 0.0
C4499 C 0.9025 0.65125 0.28046 0.0
C4500 C 0.91416 0.64104 0.27986 0.0
C4501 C 0.88717 0.64626 0.27405 0.0
C4502 C 0.88312 0.63095 0.26682 0.0
C4503 C 0.89457 0.62052 0.26667 0.0
C4504 C 0.90998 0.62553 0.27311 0.0
C4505 C 0.86696 0.62606 0.25926 0.0
C4506 C 0.85811 0.61353 0.26451 0.0
C4507 C 0.85992 0.6344 0.24768 0.0
C4508 C 0.86889 0.64721 0.24104 0.0
C4509 C 0.88283 0.64469 0.23455 0.0
C4510 C 0.89132 0.65685 0.2285 0.0
C4511 C 0.88594 0.67157 0.22876 0.0
C4512 C 0.87203 0.67415 0.23504 0.0
C4513 C 0.8635 0.66203 0.24113 0.0
H4514 H 0.89254 0.68097 0.22407 0.0
H4515 H 0.8097 0.56358 0.28343 0.0
H4516 H 0.31573 0.00701 0.31626 0.0
H4517 H 0.28905 0.00785 0.30406 0.0
H4518 H 0.27091 0.99703 0.34685 0.0
H4519 H 0.29738 0.99654 0.35919 0.0
H4520 H 0.25488 0.97921 0.32106 0.0
H4521 H 0.27362 0.03383 0.33714 0.0
H4522 H 0.29166 0.05781 0.3374 0.0
H4523 H 0.28158 0.05647 0.28765 0.0
H4524 H 0.26361 0.03235 0.28708 0.0
H4525 H 0.18023 0.00264 0.32249 0.0
H4526 H 0.20782 0.99894 0.32633 0.0
H4527 H 0.21397 0.01323 0.28076 0.0
H4528 H 0.18619 0.01737 0.27699 0.0
H4529 H 0.23687 0.02755 0.30255 0.0
H4530 H 0.21522 0.97525 0.2868 0.0
H4531 H 0.19709 0.9513 0.28623 0.0
H4532 H 0.21269 0.94771 0.33428 0.0
H4533 H 0.23075 0.97178 0.33523 0.0
C4534 C 0.30607 0.00495 0.32311 0.0
C4535 C 0.30875 0.00163 0.33871 0.0
C4536 C 0.29083 0.00536 0.3161 0.0
C4537 C 0.27799 0.00249 0.32455 0.0
C4538 C 0.28063 0.99914 0.34006 0.0
C4539 C 0.29581 0.9988 0.34708 0.0
C4540 C 0.26172 0.00307 0.31747 0.0
C4541 C 0.25092 0.98979 0.31707 0.0
C4542 C 0.25668 0.01669 0.31169 0.0
C4543 C 0.26743 0.03119 0.31204 0.0
C4544 C 0.27535 0.03858 0.32624 0.0
C4545 C 0.28554 0.0522 0.32645 0.0
C4546 C 0.28781 0.05863 0.31254 0.0
C4547 C 0.27984 0.05146 0.29841 0.0
C4548 C 0.26965 0.03782 0.29814 0.0
C4549 C 0.18742 0.00501 0.31326 0.0
C4550 C 0.18103 0.0104 0.29947 0.0
C4551 C 0.20319 0.00274 0.31541 0.0
C4552 C 0.21296 0.00564 0.30377 0.0
C4553 C 0.20662 0.01085 0.28987 0.0
C4554 C 0.19075 0.01311 0.28769 0.0
C4555 C 0.22989 0.00382 0.30664 0.0
C4556 C 0.24085 0.01685 0.30624 0.0
C4557 C 0.23511 0.98992 0.3116 0.0
C4558 C 0.22429 0.97539 0.3111 0.0
C4559 C 0.21471 0.96942 0.29728 0.0
C4560 C 0.20446 0.95581 0.29689 0.0
C4561 C 0.20373 0.948 0.31022 0.0
C4562 C 0.21327 0.95377 0.32397 0.0
C4563 C 0.22354 0.96739 0.32443 0.0
H4564 H 0.19578 0.93746 0.30989 0.0
H4565 H 0.2957 0.06918 0.31273 0.0
H4566 H 0.2017 0.99693 0.69314 0.0
H4567 H 0.22781 0.99913 0.68426 0.0
H4568 H 0.24846 0.99794 0.73154 0.0
H4569 H 0.22255 0.99554 0.74041 0.0
H4570 H 0.26231 0.02161 0.71932 0.0
H4571 H 0.2476 0.96754 0.70403 0.0
H4572 H 0.23379 0.94268 0.69102 0.0
H4573 H 0.24126 0.95746 0.64618 0.0
H4574 H 0.25479 0.9826 0.6589 0.0
H4575 H 0.33616 0.99423 0.71071 0.0
H4576 H 0.30969 0.99928 0.71548 0.0
H4577 H 0.30178 0.01394 0.66946 0.0
H4578 H 0.32835 0.00876 0.66452 0.0
H4579 H 0.28072 0.98725 0.67733 0.0
H4580 H 0.29954 0.03998 0.6953 0.0
H4581 H 0.31726 0.06149 0.71039 0.0
H4582 H 0.30536 0.04479 0.75326 0.0
H4583 H 0.28774 0.02302 0.73843 0.0
C4584 C 0.2118 0.99688 0.70159 0.0
C4585 C 0.21003 0.99625 0.71752 0.0
C4586 C 0.22672 0.99817 0.6965 0.0
C4587 C 0.24011 0.99879 0.70725 0.0
C4588 C 0.23832 0.99767 0.72305 0.0
C4589 C 0.22348 0.99636 0.72812 0.0
C4590 C 0.25606 0.00139 0.70233 0.0
C4591 C 0.26635 0.01395 0.71024 0.0
C4592 C 0.26127 0.99169 0.69018 0.0
C4593 C 0.25189 0.97717 0.68244 0.0
C4594 C 0.24596 0.96569 0.69139 0.0
C4595 C 0.23827 0.95148 0.68406 0.0
C4596 C 0.23657 0.94853 0.66778 0.0
C4597 C 0.24249 0.9598 0.65879 0.0
C4598 C 0.25013 0.97406 0.66605 0.0
C4599 C 0.32888 0.99869 0.70164 0.0
C4600 C 0.3342 1.00069 0.68705 0.0
C4601 C 0.31381 0.00172 0.70445 0.0
C4602 C 0.30378 0.00683 0.69275 0.0
C4603 C 0.30938 0.00992 0.67858 0.0
C4604 C 0.32455 0.007 0.6758 0.0
C4605 C 0.28701 0.00685 0.69478 0.0
C4606 C 0.27654 0.9949 0.68629 0.0
C4607 C 0.28182 0.01669 0.70673 0.0
C4608 C 0.29238 0.02979 0.71573 0.0
C4609 C 0.3008 0.04081 0.70794 0.0
C4610 C 0.31081 0.05307 0.71645 0.0
C4611 C 0.31246 0.05449 0.73277 0.0
C4612 C 0.30407 0.04367 0.74061 0.0
C4613 C 0.29405 0.03138 0.73216 0.0
H4614 H 0.32021 0.06399 0.73934 0.0
H4615 H 0.23074 0.93746 0.66214 0.0
H4616 H 0.65236 0.68741 0.38602 0.0
H4617 H 0.66241 0.66203 0.38608 0.0
H4618 H 0.70791 0.6847 0.40518 0.0
H4619 H 0.69791 0.71023 0.40507 0.0
H4620 H 0.71054 0.66233 0.38247 0.0
H4621 H 0.68386 0.66553 0.42818 0.0
H4622 H 0.66188 0.66982 0.44361 0.0
H4623 H 0.63352 0.63169 0.41552 0.0
H4624 H 0.65525 0.62731 0.39976 0.0
H4625 H 0.73781 0.58894 0.3959 0.0
H4626 H 0.7305 0.6155 0.40087 0.0
H4627 H 0.68323 0.59939 0.3811 0.0
H4628 H 0.69032 0.57284 0.37653 0.0
H4629 H 0.68348 0.61932 0.40692 0.0
H4630 H 0.70951 0.61789 0.35989 0.0
H4631 H 0.73145 0.61379 0.34435 0.0
H4632 H 0.76116 0.64878 0.37534 0.0
H4633 H 0.73943 0.65294 0.39119 0.0
C4634 C 0.66448 0.687 0.39036 0.0
C4635 C 0.6743 0.70084 0.39564 0.0
C4636 C 0.67021 0.67247 0.3904 0.0
C4637 C 0.68586 0.67142 0.39589 0.0
C4638 C 0.69579 0.68522 0.40094 0.0
C4639 C 0.69006 0.6998 0.40083 0.0
C4640 C 0.69185 0.65589 0.39608 0.0
C4641 C 0.70479 0.65301 0.38807 0.0
C4642 C 0.68424 0.64364 0.4032 0.0
C4643 C 0.67116 0.64617 0.41271 0.0
C4644 C 0.6729 0.65813 0.42522 0.0
C4645 C 0.66049 0.66057 0.43403 0.0
C4646 C 0.64631 0.65105 0.43053 0.0
C4647 C 0.64451 0.63906 0.41821 0.0
C4648 C 0.65688 0.63658 0.40935 0.0
C4649 C 0.72582 0.59103 0.39281 0.0
C4650 C 0.71468 0.5788 0.38568 0.0
C4651 C 0.72169 0.60624 0.39554 0.0
C4652 C 0.70636 0.60949 0.39116 0.0
C4653 C 0.69513 0.5972 0.38452 0.0
C4654 C 0.69924 0.58204 0.38179 0.0
C4655 C 0.70196 0.6257 0.39307 0.0
C4656 C 0.68932 0.6287 0.40148 0.0
C4657 C 0.70987 0.63807 0.38636 0.0
C4658 C 0.72291 0.63559 0.37682 0.0
C4659 C 0.72076 0.62462 0.36346 0.0
C4660 C 0.73315 0.6223 0.35458 0.0
C4661 C 0.7477 0.63098 0.35888 0.0
C4662 C 0.74989 0.64204 0.37204 0.0
C4663 C 0.73754 0.64439 0.38097 0.0
H4664 H 0.75728 0.62918 0.35199 0.0
H4665 H 0.63671 0.65296 0.43736 0.0
H4666 H 0.70744 0.20149 0.01258 0.0
H4667 H 0.69851 0.22746 0.01244 0.0
H4668 H 0.72418 0.23576 0.97322 0.0
H4669 H 0.73336 0.20997 0.97354 0.0
H4670 H 0.72884 0.26051 0.9931 0.0
H4671 H 0.68334 0.22737 0.96961 0.0
H4672 H 0.66189 0.20596 0.96701 0.0
H4673 H 0.64498 0.22612 0.0086 0.0
H4674 H 0.66647 0.24756 0.01156 0.0
H4675 H 0.6878 0.31829 0.95958 0.0
H4676 H 0.69951 0.29511 0.96634 0.0
H4677 H 0.68072 0.29881 0.01067 0.0
H4678 H 0.66901 0.32216 0.00416 0.0
H4679 H 0.67298 0.26916 0.9921 0.0
H4680 H 0.71764 0.30465 0.01205 0.0
H4681 H 0.73808 0.32655 0.01171 0.0
H4682 H 0.75551 0.30199 0.97264 0.0
H4683 H 0.73502 0.28003 0.97259 0.0
C4684 C 0.71102 0.2088 0.00383 0.0
C4685 C 0.72108 0.20369 0.99306 0.0
C4686 C 0.70592 0.22365 0.00375 0.0
C4687 C 0.71056 0.23358 0.99274 0.0
C4688 C 0.72049 0.2284 0.98189 0.0
C4689 C 0.72572 0.21363 0.98207 0.0
C4690 C 0.70531 0.24945 0.9926 0.0
C4691 C 0.71659 0.26234 0.99265 0.0
C4692 C 0.68936 0.25198 0.99247 0.0
C4693 C 0.67666 0.23892 0.99095 0.0
C4694 C 0.67516 0.22713 0.97831 0.0
C4695 C 0.66297 0.21501 0.97674 0.0
C4696 C 0.65212 0.21464 0.98767 0.0
C4697 C 0.65343 0.22639 1.00017 0.0
C4698 C 0.66561 0.23852 0.00181 0.0
C4699 C 0.68603 0.31424 0.97078 0.0
C4700 C 0.67669 0.3218 0.98096 0.0
C4701 C 0.69296 0.30106 0.97469 0.0
C4702 C 0.69083 0.29516 0.98892 0.0
C4703 C 0.6824 0.30314 0.99956 0.0
C4704 C 0.67568 0.31654 0.99576 0.0
C4705 C 0.6964 0.27998 0.99197 0.0
C4706 C 0.6852 0.26726 0.99255 0.0
C4707 C 0.71233 0.27756 0.99225 0.0
C4708 C 0.7247 0.29073 0.99225 0.0
C4709 C 0.72574 0.30397 0.0033 0.0
C4710 C 0.73736 0.31639 0.00319 0.0
C4711 C 0.74807 0.31568 0.99214 0.0
C4712 C 0.7472 0.30253 0.98119 0.0
C4713 C 0.7356 0.29008 0.98124 0.0
H4714 H 0.75706 0.3253 0.99208 0.0
H4715 H 0.64267 0.20526 0.98642 0.0
H4716 H 0.24273 0.78908 0.63715 0.0
H4717 H 0.25112 0.8169 0.64406 0.0
H4718 H 0.21244 0.82823 0.61343 0.0
H4719 H 0.20368 0.80039 0.60673 0.0
H4720 H 0.24074 0.84531 0.60988 0.0
H4721 H 0.21053 0.83281 0.65155 0.0
H4722 H 0.2029 0.81769 0.67282 0.0
H4723 H 0.24889 0.82918 0.6973 0.0
H4724 H 0.25688 0.84419 0.67606 0.0
H4725 H 0.25509 0.92678 0.63637 0.0
H4726 H 0.24217 0.90009 0.62922 0.0
H4727 H 0.2738 0.88339 0.664 0.0
H4728 H 0.28625 0.91 0.67147 0.0
H4729 H 0.24651 0.86939 0.66489 0.0
H4730 H 0.27782 0.87969 0.62324 0.0
H4731 H 0.28677 0.89403 0.60193 0.0
H4732 H 0.24056 0.88595 0.57744 0.0
H4733 H 0.23129 0.87174 0.59871 0.0
C4734 C 0.23585 0.79745 0.63203 0.0
C4735 C 0.22247 0.79243 0.62142 0.0
C4736 C 0.24072 0.81337 0.63594 0.0
C4737 C 0.23233 0.82464 0.62935 0.0
C4738 C 0.21909 0.81972 0.61863 0.0
C4739 C 0.21415 0.80379 0.61477 0.0
C4740 C 0.2375 0.84155 0.63361 0.0
C4741 C 0.24177 0.85067 0.62186 0.0
C4742 C 0.23915 0.84843 0.6493 0.0
C4743 C 0.23433 0.83953 0.66215 0.0
C4744 C 0.21905 0.83202 0.66142 0.0
C4745 C 0.21466 0.82349 0.67347 0.0
C4746 C 0.22541 0.82245 0.68638 0.0
C4747 C 0.24058 0.82999 0.68728 0.0
C4748 C 0.24504 0.83852 0.67525 0.0
C4749 C 0.25919 0.91737 0.64248 0.0
C4750 C 0.27164 0.92042 0.65446 0.0
C4751 C 0.25187 0.90212 0.63836 0.0
C4752 C 0.25714 0.88962 0.6459 0.0
C4753 C 0.26945 0.89278 0.65802 0.0
C4754 C 0.27657 0.908 0.66229 0.0
C4755 C 0.25008 0.8732 0.64119 0.0
C4756 C 0.2454 0.86413 0.65287 0.0
C4757 C 0.24826 0.86632 0.62546 0.0
C4758 C 0.25383 0.87481 0.61264 0.0
C4759 C 0.26955 0.88108 0.61336 0.0
C4760 C 0.27468 0.88917 0.60128 0.0
C4761 C 0.26423 0.89094 0.58836 0.0
C4762 C 0.24863 0.88459 0.58747 0.0
C4763 C 0.24343 0.87651 0.59952 0.0
H4764 H 0.26823 0.89721 0.57902 0.0
H4765 H 0.22199 0.81583 0.69571 0.0
H4766 H 0.35842 0.3034 0.02561 0.0
H4767 H 0.34696 0.27645 0.02555 0.0
H4768 H 0.31327 0.28213 0.98688 0.0
H4769 H 0.32462 0.30933 0.98706 0.0
H4770 H 0.29986 0.26467 0.00722 0.0
H4771 H 0.34534 0.26391 0.98045 0.0
H4772 H 0.37294 0.27038 0.97641 0.0
H4773 H 0.38753 0.2479 0.01661 0.0
H4774 H 0.36 0.24149 0.02104 0.0
H4775 H 0.28597 0.17993 0.98733 0.0
H4776 H 0.29113 0.20833 0.98697 0.0
H4777 H 0.32374 0.21102 0.02845 0.0
H4778 H 0.31844 0.18289 0.02908 0.0
H4779 H 0.33644 0.22408 0.00386 0.0
H4780 H 0.29002 0.2256 0.03055 0.0
H4781 H 0.26217 0.21897 0.03353 0.0
H4782 H 0.24905 0.2394 0.99159 0.0
H4783 H 0.27684 0.24595 0.98824 0.0
C4784 C 0.34855 0.29893 0.01711 0.0
C4785 C 0.34256 0.30842 0.0062 0.0
C4786 C 0.342 0.28352 0.01709 0.0
C4787 C 0.32945 0.27714 0.006 0.0
C4788 C 0.32298 0.28677 0.9955 0.0
C4789 C 0.32947 0.3023 0.99562 0.0
C4790 C 0.32367 0.26025 0.00505 0.0
C4791 C 0.3078 0.25577 0.00625 0.0
C4792 C 0.33402 0.24859 0.00382 0.0
C4793 C 0.3506 0.25234 0.00115 0.0
C4794 C 0.35443 0.26044 0.9885 0.0
C4795 C 0.37007 0.26409 0.98612 0.0
C4796 C 0.38198 0.25958 0.99626 0.0
C4797 C 0.37829 0.25139 0.00877 0.0
C4798 C 0.36267 0.24774 0.01121 0.0
C4799 C 0.29395 0.18664 0.99657 0.0
C4800 C 0.30197 0.17911 0.0081 0.0
C4801 C 0.29692 0.20285 0.99633 0.0
C4802 C 0.30792 0.21176 0.00762 0.0
C4803 C 0.31533 0.20436 0.01954 0.0
C4804 C 0.31232 0.18826 0.01984 0.0
C4805 C 0.31275 0.22854 0.0065 0.0
C4806 C 0.32847 0.23297 0.00476 0.0
C4807 C 0.30221 0.24004 0.00704 0.0
C4808 C 0.28551 0.23609 0.00904 0.0
C4809 C 0.2812 0.22854 0.02188 0.0
C4810 C 0.26542 0.22483 0.02365 0.0
C4811 C 0.25385 0.22871 0.01273 0.0
C4812 C 0.25803 0.23636 1.00002 0.0
C4813 C 0.27379 0.24009 0.99819 0.0
H4814 H 0.24164 0.22584 0.01413 0.0
H4815 H 0.39408 0.26242 0.99441 0.0
H4816 H 0.41055 0.69969 0.70461 0.0
H4817 H 0.40962 0.70855 0.67856 0.0
H4818 H 0.39679 0.66102 0.65774 0.0
H4819 H 0.3977 0.65211 0.68369 0.0
H4820 H 0.4187 0.67548 0.64277 0.0
H4821 H 0.36964 0.68727 0.66079 0.0
H4822 H 0.35304 0.69934 0.6791 0.0
H4823 H 0.37493 0.74489 0.67347 0.0
H4824 H 0.39182 0.73306 0.65528 0.0
H4825 H 0.38584 0.68394 0.56678 0.0
H4826 H 0.39094 0.67853 0.59383 0.0
H4827 H 0.40297 0.72778 0.60831 0.0
H4828 H 0.39737 0.73335 0.58121 0.0
H4829 H 0.38382 0.71478 0.62722 0.0
H4830 H 0.4313 0.70308 0.60732 0.0
H4831 H 0.4478 0.69096 0.58895 0.0
H4832 H 0.42908 0.64532 0.59806 0.0
H4833 H 0.41229 0.65716 0.61632 0.0
C4834 C 0.40743 0.69115 0.69448 0.0
C4835 C 0.40418 0.6752 0.69622 0.0
C4836 C 0.40693 0.69622 0.6796 0.0
C4837 C 0.40301 0.68546 0.66619 0.0
C4838 C 0.39991 0.66953 0.66791 0.0
C4839 C 0.40046 0.66445 0.68276 0.0
C4840 C 0.40203 0.69071 0.65032 0.0
C4841 C 0.41097 0.68397 0.63933 0.0
C4842 C 0.39231 0.70215 0.64596 0.0
C4843 C 0.3821 0.70927 0.65682 0.0
C4844 C 0.37099 0.69985 0.66355 0.0
C4845 C 0.36152 0.70665 0.67389 0.0
C4846 C 0.36296 0.72287 0.67748 0.0
C4847 C 0.37385 0.73233 0.6707 0.0
C4848 C 0.38336 0.72558 0.66037 0.0
C4849 C 0.38952 0.69365 0.57571 0.0
C4850 C 0.39115 0.70909 0.57183 0.0
C4851 C 0.39259 0.69052 0.59116 0.0
C4852 C 0.39751 0.70273 0.60309 0.0
C4853 C 0.39925 0.71817 0.59928 0.0
C4854 C 0.39616 0.72132 0.58378 0.0
C4855 C 0.40028 0.69932 0.61957 0.0
C4856 C 0.39168 0.70641 0.63069 0.0
C4857 C 0.41032 0.6882 0.62405 0.0
C4858 C 0.42045 0.68102 0.61311 0.0
C4859 C 0.43061 0.69046 0.60532 0.0
C4860 C 0.44003 0.68363 0.59494 0.0
C4861 C 0.43947 0.66738 0.59232 0.0
C4862 C 0.4295 0.65791 0.6001 0.0
C4863 C 0.42004 0.66467 0.61048 0.0
H4864 H 0.44677 0.66212 0.58428 0.0
H4865 H 0.35561 0.72811 0.68549 0.0
H4866 H 0.98764 0.7327 0.21399 0.0
H4867 H 0.98879 0.72416 0.24008 0.0
H4868 H 0.02387 0.69415 0.22842 0.0
H4869 H 0.02256 0.70253 0.20208 0.0
H4870 H 0.00354 0.67955 0.24435 0.0
H4871 H 0.03382 0.72913 0.25188 0.0
H4872 H 0.04001 0.75719 0.24961 0.0
H4873 H 0.00144 0.76772 0.27496 0.0
H4874 H 0.99486 0.73969 0.27718 0.0
H4875 H 0.01042 0.66582 0.32506 0.0
H4876 H 0.01888 0.67461 0.30104 0.0
H4877 H 0.98297 0.70579 0.29957 0.0
H4878 H 0.97515 0.69789 0.32413 0.0
H4879 H 0.00949 0.71909 0.29078 0.0
H4880 H 0.97494 0.66726 0.26647 0.0
H4881 H 0.96846 0.639 0.268 0.0
H4882 H 0.01734 0.63343 0.27532 0.0
H4883 H 0.02399 0.66163 0.27374 0.0
C4884 C 0.99563 0.72431 0.21699 0.0
C4885 C 0.0051 0.71838 0.20603 0.0
C4886 C 0.99633 0.71948 0.23193 0.0
C4887 C 0.00669 0.70879 0.23636 0.0
C4888 C 0.01586 0.70249 0.22531 0.0
C4889 C 0.01507 0.70724 0.21026 0.0
C4890 C 0.0077 0.70413 0.25249 0.0
C4891 C 0.00519 0.68821 0.2545 0.0
C4892 C 0.00983 0.71537 0.26582 0.0
C4893 C 0.0138 0.73227 0.26462 0.0
C4894 C 0.0266 0.73741 0.25689 0.0
C4895 C 0.03018 0.75332 0.25562 0.0
C4896 C 0.02111 0.76423 0.26212 0.0
C4897 C 0.00845 0.75925 0.26993 0.0
C4898 C 0.00481 0.74336 0.27122 0.0
C4899 C 0.00448 0.67475 0.31983 0.0
C4900 C 0.99178 0.6808 0.3264 0.0
C4901 C 0.00915 0.67954 0.30586 0.0
C4902 C 1.00114 0.69037 0.2981 0.0
C4903 C 0.98918 0.6972 0.30517 0.0
C4904 C 0.98464 0.69259 0.31921 0.0
C4905 C 0.00487 0.6946 0.28254 0.0
C4906 C 0.00822 0.71046 0.28062 0.0
C4907 C 0.00378 0.68333 0.26934 0.0
C4908 C 0.9999 0.6665 0.27039 0.0
C4909 C 0.98425 0.65998 0.26855 0.0
C4910 C 0.98056 0.64398 0.26934 0.0
C4911 C 0.99248 0.63444 0.27189 0.0
C4912 C 0.00811 0.64084 0.27345 0.0
C4913 C 0.01184 0.6568 0.27258 0.0
H4914 H 0.9896 0.62209 0.27261 0.0
H4915 H 0.0239 0.77654 0.26112 0.0
H4916 H 0.64698 0.22919 0.79682 0.0
H4917 H 0.65279 0.23862 0.82461 0.0
H4918 H 0.6076 0.2557 0.82438 0.0
H4919 H 0.60183 0.24655 0.79652 0.0
H4920 H 0.63087 0.27683 0.84054 0.0
H4921 H 0.61337 0.22209 0.83895 0.0
H4922 H 0.61346 0.19395 0.8309 0.0
H4923 H 0.66087 0.19603 0.85178 0.0
H4924 H 0.66113 0.22425 0.85976 0.0
H4925 H 0.62349 0.28456 0.9221 0.0
H4926 H 0.62089 0.27887 0.89368 0.0
H4927 H 0.66452 0.25855 0.89677 0.0
H4928 H 0.66706 0.26404 0.92526 0.0
H4929 H 0.64318 0.23958 0.87885 0.0
H4930 H 0.66044 0.29411 0.88164 0.0
H4931 H 0.66037 0.32224 0.88976 0.0
H4932 H 0.61386 0.32079 0.86674 0.0
H4933 H 0.61355 0.29259 0.85867 0.0
C4934 C 0.63834 0.23508 0.80265 0.0
C4935 C 0.62392 0.23707 0.79447 0.0
C4936 C 0.64163 0.24037 0.81856 0.0
C4937 C 0.63058 0.24775 0.82661 0.0
C4938 C 0.61629 0.25001 0.81841 0.0
C4939 C 0.61296 0.24466 0.80252 0.0
C4940 C 0.63378 0.25286 0.84364 0.0
C4941 C 0.63341 0.26867 0.84896 0.0
C4942 C 0.63747 0.24229 0.85456 0.0
C4943 C 0.63733 0.22532 0.8498 0.0
C4944 C 0.62386 0.21657 0.84171 0.0
C4945 C 0.62384 0.2006 0.83718 0.0
C4946 C 0.63718 0.19322 0.84078 0.0
C4947 C 0.65056 0.20178 0.84897 0.0
C4948 C 0.65064 0.21776 0.85351 0.0
C4949 C 0.63271 0.27921 0.9167 0.0
C4950 C 0.64548 0.27474 0.92593 0.0
C4951 C 0.63121 0.27594 0.90043 0.0
C4952 C 0.64255 0.26834 0.89302 0.0
C4953 C 0.65559 0.26436 0.90219 0.0
C4954 C 0.65703 0.26752 0.91847 0.0
C4955 C 0.6403 0.2636 0.87585 0.0
C4956 C 0.64078 0.24781 0.87048 0.0
C4957 C 0.63675 0.27422 0.86489 0.0
C4958 C 0.63692 0.2912 0.86967 0.0
C4959 C 0.65015 0.29976 0.87841 0.0
C4960 C 0.65018 0.31572 0.88299 0.0
C4961 C 0.63711 0.32329 0.8788 0.0
C4962 C 0.62397 0.31491 0.86999 0.0
C4963 C 0.62387 0.29894 0.8654 0.0
H4964 H 0.63716 0.33565 0.88236 0.0
H4965 H 0.63714 0.18085 0.83727 0.0
H4966 H 0.98752 0.3537 0.2971 0.0
H4967 H 0.98719 0.34084 0.27072 0.0
H4968 H 0.01963 0.30997 0.2877 0.0
H4969 H 0.02063 0.32336 0.31413 0.0
H4970 H 0.02842 0.32033 0.26223 0.0
H4971 H 0.98051 0.2968 0.27577 0.0
H4972 H 0.95485 0.2955 0.28596 0.0
H4973 H 0.93749 0.32248 0.2503 0.0
H4974 H 0.96311 0.32415 0.24001 0.0
H4975 H 0.01995 0.28124 0.18425 0.0
H4976 H 0.01798 0.28457 0.21252 0.0
H4977 H 0.99057 0.32301 0.20654 0.0
H4978 H 0.99247 0.3197 0.17844 0.0
H4979 H 0.97924 0.30358 0.22749 0.0
H4980 H 0.02895 0.33 0.21713 0.0
H4981 H 0.05471 0.3309 0.20712 0.0
H4982 H 0.06848 0.29702 0.23734 0.0
H4983 H 0.0427 0.29577 0.24737 0.0
C4984 C 0.99467 0.34423 0.29526 0.0
C4985 C 0.00417 0.33965 0.30778 0.0
C4986 C 0.99429 0.33672 0.28016 0.0
C4987 C 0.0032 0.32425 0.27721 0.0
C4988 C 0.01258 0.3195 0.28969 0.0
C4989 C 0.01304 0.32709 0.30482 0.0
C4990 C 0.00328 0.31683 0.26094 0.0
C4991 C 0.01766 0.31632 0.25476 0.0
C4992 C 0.98927 0.31169 0.25108 0.0
C4993 C 0.97379 0.31068 0.25717 0.0
C4994 C 0.97126 0.30255 0.27016 0.0
C4995 C 0.95671 0.30173 0.27595 0.0
C4996 C 0.94456 0.30892 0.2688 0.0
C4997 C 0.94691 0.31692 0.25583 0.0
C4998 C 0.96144 0.31779 0.25 0.0
C4999 C 0.01331 0.29022 0.18898 0.0
C5000 C 0.00649 0.30032 0.17921 0.0
C5001 C 0.01225 0.29216 0.20511 0.0
C5002 C 0.00424 0.30413 0.21164 0.0
C5003 C 0.99681 0.31371 0.20176 0.0
C5004 C 0.99799 0.31188 0.18573 0.0
C5005 C 0.00431 0.3075 0.22881 0.0
C5006 C 0.98997 0.30726 0.23512 0.0
C5007 C 0.01835 0.31182 0.23882 0.0
C5008 C 0.03385 0.31264 0.23285 0.0
C5009 C 0.03743 0.32265 0.22154 0.0
C5010 C 0.05203 0.32324 0.21589 0.0
C5011 C 0.0632 0.31399 0.22156 0.0
C5012 C 0.0598 0.30416 0.23294 0.0
C5013 C 0.0452 0.3035 0.23861 0.0
H5014 H 0.07451 0.31446 0.21717 0.0
H5015 H 0.9333 0.30828 0.2733 0.0
loop_
_geom_bond_atom_site_label_1
_geom_bond_atom_site_label_2
_geom_bond_distance
_geom_bond_site_symmetry_2
_ccdc_geom_bond_type
C0 C1 1.264 . S
C0 C5 1.479 . S
C0 C10 1.465 . S
C1 C0 1.264 . S
C1 C3 1.339 . S
C1 H28 0.931 . S
C2 C3 1.395 . S
C2 C4 1.320 . S
C3 C1 1.339 . S
C3 C2 1.395 . S
C3 H29 0.929 . S
C4 C2 1.320 . S
C4 C5 1.405 . S
C4 H30 0.930 . S
C5 C0 1.479 . S
C5 C4 1.405 . S
C5 H31 0.931 . S
U6 O7 2.454 . S
U6 O8 2.458 . S
U6 C9 2.984 . S
U6 C10 2.847 . S
U6 C23 2.882 . S
U6 O24 2.441 . S
U6 O25 2.420 . S
U6 O26 2.455 . S
U6 O27 2.449 . S
O7 U6 2.454 . S
O7 C9 1.353 . S
O8 U6 2.458 . S
O8 C9 1.286 . S
C9 U6 2.984 . S
C9 O7 1.353 . S
C9 O8 1.286 . S
C9 C11 1.363 . S
C10 C0 1.465 . S
C10 U6 2.847 . S
C10 O24 1.249 . S
C10 O25 1.202 . S
C11 C9 1.363 . S
C11 C13 1.408 . S
C11 C16 1.342 . S
C12 C13 1.310 . S
C12 C15 1.461 . S
C12 H32 0.932 . S
C13 C11 1.408 . S
C13 C12 1.310 . S
C13 H33 0.930 . S
C14 C15 1.474 . S
C14 C16 1.285 . S
C14 H34 0.929 . S
C15 C12 1.461 . S
C15 C14 1.474 . S
C16 C11 1.342 . S
C16 C14 1.285 . S
C16 H35 0.930 . S
C17 C20 1.424 . S
C17 C22 1.245 . S
C17 C23 1.428 . S
C18 C21 1.260 . S
C18 C22 1.477 . S
C18 H36 0.932 . S
C19 C20 1.384 . S
C19 C21 1.479 . S
C19 H37 0.929 . S
C20 C17 1.424 . S
C20 C19 1.384 . S
C20 H38 0.928 . S
C21 C18 1.260 . S
C21 C19 1.479 . S
C22 C17 1.245 . S
C22 C18 1.477 . S
C22 H39 0.932 . S
C23 U6 2.882 . S
C23 C17 1.428 . S
C23 O26 1.301 . S
C23 O27 1.282 . S
O24 U6 2.441 . S
O24 C10 1.249 . S
O25 U6 2.420 . S
O25 C10 1.202 . S
O26 U6 2.455 . S
O26 C23 1.301 . S
O27 U6 2.449 . S
O27 C23 1.282 . S
H28 C1 0.931 . S
H29 C3 0.929 . S
H30 C4 0.930 . S
H31 C5 0.931 . S
H32 C12 0.932 . S
H33 C13 0.930 . S
H34 C14 0.929 . S
H35 C16 0.930 . S
H36 C18 0.932 . S
H37 C19 0.929 . S
H38 C20 0.928 . S
H39 C22 0.932 . S
C40 C41 1.264 . S
C40 C45 1.479 . S
C40 C50 1.465 . S
C41 C40 1.264 . S
C41 C43 1.339 . S
C41 H68 0.931 . S
C42 C43 1.395 . S
C42 C44 1.320 . S
C43 C41 1.339 . S
C43 C42 1.395 . S
C43 H69 0.929 . S
C44 C42 1.320 . S
C44 C45 1.405 . S
C44 H70 0.930 . S
C45 C40 1.479 . S
C45 C44 1.405 . S
C45 H71 0.931 . S
U46 O47 2.454 . S
U46 O48 2.458 . S
U46 C49 2.984 . S
U46 C50 2.847 . S
U46 C63 2.882 . S
U46 O64 2.441 . S
U46 O65 2.420 . S
U46 O66 2.455 . S
U46 O67 2.449 . S
O47 U46 2.454 . S
O47 C49 1.353 . S
O48 U46 2.458 . S
O48 C49 1.286 . S
C49 U46 2.984 . S
C49 O47 1.353 . S
C49 O48 1.286 . S
C49 C51 1.363 . S
C50 C40 1.465 . S
C50 U46 2.847 . S
C50 O64 1.249 . S
C50 O65 1.202 . S
C51 C49 1.363 . S
C51 C53 1.408 . S
C51 C56 1.342 . S
C52 C53 1.310 . S
C52 C55 1.461 . S
C52 H72 0.932 . S
C53 C51 1.408 . S
C53 C52 1.310 . S
C53 H73 0.930 . S
C54 C55 1.474 . S
C54 C56 1.285 . S
C54 H74 0.929 . S
C55 C52 1.461 . S
C55 C54 1.474 . S
C56 C51 1.342 . S
C56 C54 1.285 . S
C56 H75 0.930 . S
C57 C60 1.424 . S
C57 C62 1.245 . S
C57 C63 1.428 . S
C58 C61 1.260 . S
C58 C62 1.477 . S
C58 H76 0.932 . S
C59 C60 1.384 . S
C59 C61 1.479 . S
C59 H77 0.929 . S
C60 C57 1.424 . S
C60 C59 1.384 . S
C60 H78 0.928 . S
C61 C58 1.260 . S
C61 C59 1.479 . S
C62 C57 1.245 . S
C62 C58 1.477 . S
C62 H79 0.932 . S
C63 U46 2.882 . S
C63 C57 1.428 . S
C63 O66 1.301 . S
C63 O67 1.282 . S
O64 U46 2.441 . S
O64 C50 1.249 . S
O65 U46 2.420 . S
O65 C50 1.202 . S
O66 U46 2.455 . S
O66 C63 1.301 . S
O67 U46 2.449 . S
O67 C63 1.282 . S
H68 C41 0.931 . S
H69 C43 0.929 . S
H70 C44 0.930 . S
H71 C45 0.931 . S
H72 C52 0.932 . S
H73 C53 0.930 . S
H74 C54 0.929 . S
H75 C56 0.930 . S
H76 C58 0.932 . S
H77 C59 0.929 . S
H78 C60 0.928 . S
H79 C62 0.932 . S
C80 C81 1.264 . S
C80 C85 1.479 . S
C80 C90 1.465 . S
C81 C80 1.264 . S
C81 C83 1.339 . S
C81 H108 0.931 . S
C82 C83 1.395 . S
C82 C84 1.320 . S
C83 C81 1.339 . S
C83 C82 1.395 . S
C83 H109 0.929 . S
C84 C82 1.320 . S
C84 C85 1.405 . S
C84 H110 0.930 . S
C85 C80 1.479 . S
C85 C84 1.405 . S
C85 H111 0.931 . S
U86 O87 2.454 . S
U86 O88 2.458 . S
U86 C89 2.984 . S
U86 C90 2.847 . S
U86 C103 2.882 . S
U86 O104 2.441 . S
U86 O105 2.420 . S
U86 O106 2.455 . S
U86 O107 2.449 . S
O87 U86 2.454 . S
O87 C89 1.353 . S
O88 U86 2.458 . S
O88 C89 1.286 . S
C89 U86 2.984 . S
C89 O87 1.353 . S
C89 O88 1.286 . S
C89 C91 1.363 . S
C90 C80 1.465 . S
C90 U86 2.847 . S
C90 O104 1.249 . S
C90 O105 1.202 . S
C91 C89 1.363 . S
C91 C93 1.408 . S
C91 C96 1.342 . S
C92 C93 1.310 . S
C92 C95 1.461 . S
C92 H112 0.932 . S
C93 C91 1.408 . S
C93 C92 1.310 . S
C93 H113 0.930 . S
C94 C95 1.474 . S
C94 C96 1.285 . S
C94 H114 0.929 . S
C95 C92 1.461 . S
C95 C94 1.474 . S
C96 C91 1.342 . S
C96 C94 1.285 . S
C96 H115 0.930 . S
C97 C100 1.424 1_565 S
C97 C102 1.245 1_565 S
C97 C103 1.428 . S
C98 C101 1.260 . S
C98 C102 1.477 . S
C98 H116 0.932 . S
C99 C100 1.384 . S
C99 C101 1.479 . S
C99 H117 0.929 . S
C100 C97 1.424 1_545 S
C100 C99 1.384 . S
C100 H118 0.928 . S
C101 C98 1.260 . S
C101 C99 1.479 . S
C102 C97 1.245 1_545 S
C102 C98 1.477 . S
C102 H119 0.932 . S
C103 U86 2.882 . S
C103 C97 1.428 . S
C103 O106 1.301 . S
C103 O107 1.282 . S
O104 U86 2.441 . S
O104 C90 1.249 . S
O105 U86 2.420 . S
O105 C90 1.202 . S
O106 U86 2.455 . S
O106 C103 1.301 . S
O107 U86 2.449 . S
O107 C103 1.282 . S
H108 C81 0.931 . S
H109 C83 0.929 . S
H110 C84 0.930 . S
H111 C85 0.931 . S
H112 C92 0.932 . S
H113 C93 0.930 . S
H114 C94 0.929 . S
H115 C96 0.930 . S
H116 C98 0.932 . S
H117 C99 0.929 . S
H118 C100 0.928 . S
H119 C102 0.932 . S
C120 C121 1.264 . S
C120 C125 1.479 . S
C120 C130 1.465 . S
C121 C120 1.264 . S
C121 C123 1.339 . S
C121 H148 0.931 . S
C122 C123 1.395 . S
C122 C124 1.320 . S
C123 C121 1.339 . S
C123 C122 1.395 . S
C123 H149 0.929 . S
C124 C122 1.320 . S
C124 C125 1.405 . S
C124 H150 0.930 . S
C125 C120 1.479 . S
C125 C124 1.405 . S
C125 H151 0.931 . S
U126 O127 2.454 . S
U126 O128 2.458 . S
U126 C129 2.984 . S
U126 C130 2.847 . S
U126 C143 2.882 1_545 S
U126 O144 2.441 . S
U126 O145 2.420 . S
U126 O146 2.447 1_545 S
U126 O147 2.449 . S
O127 U126 2.454 . S
O127 C129 1.353 . S
O128 U126 2.458 . S
O128 C129 1.286 . S
C129 U126 2.984 . S
C129 O127 1.353 . S
C129 O128 1.286 . S
C129 C131 1.363 . S
C130 C120 1.465 . S
C130 U126 2.847 . S
C130 O144 1.249 . S
C130 O145 1.202 . S
C131 C129 1.363 . S
C131 C133 1.408 . S
C131 C136 1.342 . S
C132 C133 1.310 . S
C132 C135 1.461 . S
C132 H152 0.932 . S
C133 C131 1.408 . S
C133 C132 1.310 . S
C133 H153 0.930 . S
C134 C135 1.474 . S
C134 C136 1.285 . S
C134 H154 0.929 . S
C135 C132 1.461 . S
C135 C134 1.474 . S
C136 C131 1.342 . S
C136 C134 1.285 . S
C136 H155 0.930 . S
C137 C140 1.424 . S
C137 C142 1.245 . S
C137 C143 1.428 . S
C138 C141 1.260 . S
C138 C142 1.477 . S
C138 H156 0.932 . S
C139 C140 1.384 . S
C139 C141 1.479 . S
C139 H157 0.929 . S
C140 C137 1.424 . S
C140 C139 1.384 . S
C140 H158 0.928 . S
C141 C138 1.260 . S
C141 C139 1.479 . S
C142 C137 1.245 . S
C142 C138 1.477 . S
C142 H159 0.932 . S
C143 U126 2.882 1_565 S
C143 C137 1.428 . S
C143 O146 1.305 . S
C143 O147 1.282 1_565 S
O144 U126 2.441 . S
O144 C130 1.249 . S
O145 U126 2.420 . S
O145 C130 1.202 . S
O146 U126 2.447 1_565 S
O146 C143 1.305 . S
O147 U126 2.449 . S
O147 C143 1.282 1_545 S
H148 C121 0.931 . S
H149 C123 0.929 . S
H150 C124 0.930 . S
H151 C125 0.931 . S
H152 C132 0.932 . S
H153 C133 0.930 . S
H154 C134 0.929 . S
H155 C136 0.930 . S
H156 C138 0.932 . S
H157 C139 0.929 . S
H158 C140 0.928 . S
H159 C142 0.932 . S
C160 C161 1.264 . S
C160 C165 1.479 . S
C160 C170 1.465 . S
C161 C160 1.264 . S
C161 C163 1.339 . S
C161 H188 0.931 . S
C162 C163 1.395 . S
C162 C164 1.320 . S
C163 C161 1.339 . S
C163 C162 1.395 . S
C163 H189 0.929 . S
C164 C162 1.320 . S
C164 C165 1.405 . S
C164 H190 0.930 . S
C165 C160 1.479 . S
C165 C164 1.405 . S
C165 H191 0.931 . S
U166 O167 2.454 . S
U166 O168 2.458 . S
U166 C169 2.984 . S
U166 C170 2.847 . S
U166 C183 2.882 . S
U166 O184 2.441 . S
U166 O185 2.420 . S
U166 O186 2.455 . S
U166 O187 2.449 . S
O167 U166 2.454 . S
O167 C169 1.353 . S
O168 U166 2.458 . S
O168 C169 1.286 . S
C169 U166 2.984 . S
C169 O167 1.353 . S
C169 O168 1.286 . S
C169 C171 1.363 . S
C170 C160 1.465 . S
C170 U166 2.847 . S
C170 O184 1.249 . S
C170 O185 1.202 . S
C171 C169 1.363 . S
C171 C173 1.408 . S
C171 C176 1.342 . S
C172 C173 1.310 . S
C172 C175 1.461 . S
C172 H192 0.932 . S
C173 C171 1.408 . S
C173 C172 1.310 . S
C173 H193 0.930 . S
C174 C175 1.474 . S
C174 C176 1.285 . S
C174 H194 0.929 . S
C175 C172 1.461 . S
C175 C174 1.474 . S
C176 C171 1.342 . S
C176 C174 1.285 . S
C176 H195 0.930 . S
C177 C180 1.424 . S
C177 C182 1.245 . S
C177 C183 1.428 . S
C178 C181 1.260 . S
C178 C182 1.477 . S
C178 H196 0.932 . S
C179 C180 1.384 . S
C179 C181 1.479 . S
C179 H197 0.929 . S
C180 C177 1.424 . S
C180 C179 1.384 . S
C180 H198 0.928 . S
C181 C178 1.260 . S
C181 C179 1.479 . S
C182 C177 1.245 . S
C182 C178 1.477 . S
C182 H199 0.932 . S
C183 U166 2.882 . S
C183 C177 1.428 . S
C183 O186 1.301 . S
C183 O187 1.282 . S
O184 U166 2.441 . S
O184 C170 1.249 . S
O185 U166 2.420 . S
O185 C170 1.202 . S
O186 U166 2.455 . S
O186 C183 1.301 . S
O187 U166 2.449 . S
O187 C183 1.282 . S
H188 C161 0.931 . S
H189 C163 0.929 . S
H190 C164 0.930 . S
H191 C165 0.931 . S
H192 C172 0.932 . S
H193 C173 0.930 . S
H194 C174 0.929 . S
H195 C176 0.930 . S
H196 C178 0.932 . S
H197 C179 0.929 . S
H198 C180 0.928 . S
H199 C182 0.932 . S
C200 C201 1.264 . S
C200 C205 1.479 . S
C200 C210 1.465 . S
C201 C200 1.264 . S
C201 C203 1.339 . S
C201 H228 0.931 . S
C202 C203 1.395 . S
C202 C204 1.320 . S
C203 C201 1.339 . S
C203 C202 1.395 . S
C203 H229 0.929 . S
C204 C202 1.320 . S
C204 C205 1.405 . S
C204 H230 0.930 . S
C205 C200 1.479 . S
C205 C204 1.405 . S
C205 H231 0.931 . S
U206 O207 2.454 . S
U206 O208 2.458 . S
U206 C209 2.984 . S
U206 C210 2.847 . S
U206 C223 2.882 1_554 S
U206 O224 2.441 . S
U206 O225 2.420 . S
U206 O226 2.447 1_554 S
U206 O227 2.449 . S
O207 U206 2.454 . S
O207 C209 1.353 . S
O208 U206 2.458 . S
O208 C209 1.286 . S
C209 U206 2.984 . S
C209 O207 1.353 . S
C209 O208 1.286 . S
C209 C211 1.363 . S
C210 C200 1.465 . S
C210 U206 2.847 . S
C210 O224 1.249 . S
C210 O225 1.202 . S
C211 C209 1.363 . S
C211 C213 1.408 . S
C211 C216 1.342 . S
C212 C213 1.310 . S
C212 C215 1.461 . S
C212 H232 0.932 . S
C213 C211 1.408 . S
C213 C212 1.310 . S
C213 H233 0.930 . S
C214 C215 1.474 . S
C214 C216 1.285 . S
C214 H234 0.929 . S
C215 C212 1.461 . S
C215 C214 1.474 . S
C216 C211 1.342 . S
C216 C214 1.285 . S
C216 H235 0.930 . S
C217 C220 1.424 . S
C217 C222 1.245 . S
C217 C223 1.428 . S
C218 C221 1.260 . S
C218 C222 1.477 . S
C218 H236 0.932 . S
C219 C220 1.384 . S
C219 C221 1.479 . S
C219 H237 0.929 . S
C220 C217 1.424 . S
C220 C219 1.384 . S
C220 H238 0.928 . S
C221 C218 1.260 . S
C221 C219 1.479 . S
C222 C217 1.245 . S
C222 C218 1.477 . S
C222 H239 0.932 . S
C223 U206 2.882 1_556 S
C223 C217 1.428 . S
C223 O226 1.305 . S
C223 O227 1.282 1_556 S
O224 U206 2.441 . S
O224 C210 1.249 . S
O225 U206 2.420 . S
O225 C210 1.202 . S
O226 U206 2.447 1_556 S
O226 C223 1.305 . S
O227 U206 2.449 . S
O227 C223 1.282 1_554 S
H228 C201 0.931 . S
H229 C203 0.929 . S
H230 C204 0.930 . S
H231 C205 0.931 . S
H232 C212 0.932 . S
H233 C213 0.930 . S
H234 C214 0.929 . S
H235 C216 0.930 . S
H236 C218 0.932 . S
H237 C219 0.929 . S
H238 C220 0.928 . S
H239 C222 0.932 . S
C240 C241 1.264 . S
C240 C245 1.479 . S
C240 C250 1.465 . S
C241 C240 1.264 . S
C241 C243 1.339 . S
C241 H268 0.931 . S
C242 C243 1.395 . S
C242 C244 1.320 . S
C243 C241 1.339 . S
C243 C242 1.395 . S
C243 H269 0.929 . S
C244 C242 1.320 . S
C244 C245 1.405 . S
C244 H270 0.930 . S
C245 C240 1.479 . S
C245 C244 1.405 . S
C245 H271 0.931 . S
U246 O247 2.454 . S
U246 O248 2.458 . S
U246 C249 2.984 . S
U246 C250 2.847 . S
U246 C263 2.882 . S
U246 O264 2.441 . S
U246 O265 2.420 . S
U246 O266 2.455 . S
U246 O267 2.449 . S
O247 U246 2.454 . S
O247 C249 1.353 . S
O248 U246 2.458 . S
O248 C249 1.286 . S
C249 U246 2.984 . S
C249 O247 1.353 . S
C249 O248 1.286 . S
C249 C251 1.363 . S
C250 C240 1.465 . S
C250 U246 2.847 . S
C250 O264 1.249 . S
C250 O265 1.202 . S
C251 C249 1.363 . S
C251 C253 1.408 . S
C251 C256 1.342 . S
C252 C253 1.310 . S
C252 C255 1.461 . S
C252 H272 0.932 . S
C253 C251 1.408 . S
C253 C252 1.310 . S
C253 H273 0.930 . S
C254 C255 1.474 . S
C254 C256 1.285 . S
C254 H274 0.929 . S
C255 C252 1.461 . S
C255 C254 1.474 . S
C256 C251 1.342 . S
C256 C254 1.285 . S
C256 H275 0.930 . S
C257 C260 1.424 . S
C257 C262 1.245 . S
C257 C263 1.428 . S
C258 C261 1.260 . S
C258 C262 1.477 . S
C258 H276 0.932 . S
C259 C260 1.384 . S
C259 C261 1.479 . S
C259 H277 0.929 . S
C260 C257 1.424 . S
C260 C259 1.384 . S
C260 H278 0.928 . S
C261 C258 1.260 . S
C261 C259 1.479 . S
C262 C257 1.245 . S
C262 C258 1.477 . S
C262 H279 0.932 . S
C263 U246 2.882 . S
C263 C257 1.428 . S
C263 O266 1.301 . S
C263 O267 1.282 . S
O264 U246 2.441 . S
O264 C250 1.249 . S
O265 U246 2.420 . S
O265 C250 1.202 . S
O266 U246 2.455 . S
O266 C263 1.301 . S
O267 U246 2.449 . S
O267 C263 1.282 . S
H268 C241 0.931 . S
H269 C243 0.929 . S
H270 C244 0.930 . S
H271 C245 0.931 . S
H272 C252 0.932 . S
H273 C253 0.930 . S
H274 C254 0.929 . S
H275 C256 0.930 . S
H276 C258 0.932 . S
H277 C259 0.929 . S
H278 C260 0.928 . S
H279 C262 0.932 . S
C280 C281 1.264 . S
C280 C285 1.479 . S
C280 C290 1.465 . S
C281 C280 1.264 . S
C281 C283 1.339 . S
C281 H308 0.931 . S
C282 C283 1.395 . S
C282 C284 1.320 . S
C283 C281 1.339 . S
C283 C282 1.395 . S
C283 H309 0.929 . S
C284 C282 1.320 . S
C284 C285 1.405 . S
C284 H310 0.930 . S
C285 C280 1.479 . S
C285 C284 1.405 . S
C285 H311 0.931 . S
U286 O287 2.454 . S
U286 O288 2.458 . S
U286 C289 2.984 . S
U286 C290 2.847 . S
U286 C303 2.882 . S
U286 O304 2.441 . S
U286 O305 2.420 . S
U286 O306 2.455 . S
U286 O307 2.449 . S
O287 U286 2.454 . S
O287 C289 1.353 . S
O288 U286 2.458 . S
O288 C289 1.286 . S
C289 U286 2.984 . S
C289 O287 1.353 . S
C289 O288 1.286 . S
C289 C291 1.363 . S
C290 C280 1.465 . S
C290 U286 2.847 . S
C290 O304 1.249 . S
C290 O305 1.202 . S
C291 C289 1.363 . S
C291 C293 1.408 . S
C291 C296 1.342 . S
C292 C293 1.310 . S
C292 C295 1.461 . S
C292 H312 0.932 . S
C293 C291 1.408 . S
C293 C292 1.310 . S
C293 H313 0.930 . S
C294 C295 1.474 . S
C294 C296 1.285 . S
C294 H314 0.929 . S
C295 C292 1.461 . S
C295 C294 1.474 . S
C296 C291 1.342 . S
C296 C294 1.285 . S
C296 H315 0.930 . S
C297 C300 1.424 1_556 S
C297 C302 1.245 1_556 S
C297 C303 1.428 . S
C298 C301 1.260 . S
C298 C302 1.477 . S
C298 H316 0.932 . S
C299 C300 1.384 . S
C299 C301 1.479 . S
C299 H317 0.929 . S
C300 C297 1.424 1_554 S
C300 C299 1.384 . S
C300 H318 0.928 . S
C301 C298 1.260 . S
C301 C299 1.479 . S
C302 C297 1.245 1_554 S
C302 C298 1.477 . S
C302 H319 0.932 . S
C303 U286 2.882 . S
C303 C297 1.428 . S
C303 O306 1.301 . S
C303 O307 1.282 . S
O304 U286 2.441 . S
O304 C290 1.249 . S
O305 U286 2.420 . S
O305 C290 1.202 . S
O306 U286 2.455 . S
O306 C303 1.301 . S
O307 U286 2.449 . S
O307 C303 1.282 . S
H308 C281 0.931 . S
H309 C283 0.929 . S
H310 C284 0.930 . S
H311 C285 0.931 . S
H312 C292 0.932 . S
H313 C293 0.930 . S
H314 C294 0.929 . S
H315 C296 0.930 . S
H316 C298 0.932 . S
H317 C299 0.929 . S
H318 C300 0.928 . S
H319 C302 0.932 . S
C320 C321 1.264 . S
C320 C325 1.479 . S
C320 C330 1.465 . S
C321 C320 1.264 . S
C321 C323 1.339 . S
C321 H348 0.931 . S
C322 C323 1.395 . S
C322 C324 1.320 . S
C323 C321 1.339 . S
C323 C322 1.395 . S
C323 H349 0.929 . S
C324 C322 1.320 . S
C324 C325 1.405 . S
C324 H350 0.930 . S
C325 C320 1.479 . S
C325 C324 1.405 . S
C325 H351 0.931 . S
U326 O327 2.454 . S
U326 O328 2.458 . S
U326 C329 2.984 . S
U326 C330 2.847 . S
U326 C343 2.882 . S
U326 O344 2.441 . S
U326 O345 2.420 . S
U326 O346 2.455 . S
U326 O347 2.449 . S
O327 U326 2.454 . S
O327 C329 1.353 . S
O328 U326 2.458 . S
O328 C329 1.286 . S
C329 U326 2.984 . S
C329 O327 1.353 . S
C329 O328 1.286 . S
C329 C331 1.363 . S
C330 C320 1.465 . S
C330 U326 2.847 . S
C330 O344 1.249 . S
C330 O345 1.202 . S
C331 C329 1.363 . S
C331 C333 1.408 . S
C331 C336 1.342 . S
C332 C333 1.310 . S
C332 C335 1.461 . S
C332 H352 0.932 . S
C333 C331 1.408 . S
C333 C332 1.310 . S
C333 H353 0.930 . S
C334 C335 1.474 . S
C334 C336 1.285 . S
C334 H354 0.929 . S
C335 C332 1.461 . S
C335 C334 1.474 . S
C336 C331 1.342 . S
C336 C334 1.285 . S
C336 H355 0.930 . S
C337 C340 1.424 . S
C337 C342 1.245 . S
C337 C343 1.428 . S
C338 C341 1.260 . S
C338 C342 1.477 . S
C338 H356 0.932 . S
C339 C340 1.384 . S
C339 C341 1.479 . S
C339 H357 0.929 . S
C340 C337 1.424 . S
C340 C339 1.384 . S
C340 H358 0.928 . S
C341 C338 1.260 . S
C341 C339 1.479 . S
C342 C337 1.245 . S
C342 C338 1.477 . S
C342 H359 0.932 . S
C343 U326 2.882 . S
C343 C337 1.428 . S
C343 O346 1.301 . S
C343 O347 1.282 . S
O344 U326 2.441 . S
O344 C330 1.249 . S
O345 U326 2.420 . S
O345 C330 1.202 . S
O346 U326 2.455 . S
O346 C343 1.301 . S
O347 U326 2.449 . S
O347 C343 1.282 . S
H348 C321 0.931 . S
H349 C323 0.929 . S
H350 C324 0.930 . S
H351 C325 0.931 . S
H352 C332 0.932 . S
H353 C333 0.930 . S
H354 C334 0.929 . S
H355 C336 0.930 . S
H356 C338 0.932 . S
H357 C339 0.929 . S
H358 C340 0.928 . S
H359 C342 0.932 . S
C360 C361 1.264 . S
C360 C365 1.479 . S
C360 C370 1.465 . S
C361 C360 1.264 . S
C361 C363 1.339 . S
C361 H388 0.931 . S
C362 C363 1.395 . S
C362 C364 1.320 . S
C363 C361 1.339 . S
C363 C362 1.395 . S
C363 H389 0.929 . S
C364 C362 1.320 . S
C364 C365 1.405 . S
C364 H390 0.930 . S
C365 C360 1.479 . S
C365 C364 1.405 . S
C365 H391 0.931 . S
U366 O367 2.454 . S
U366 O368 2.458 . S
U366 C369 2.984 . S
U366 C370 2.847 . S
U366 C383 2.882 1_455 S
U366 O384 2.441 . S
U366 O385 2.420 . S
U366 O386 2.447 1_455 S
U366 O387 2.449 . S
O367 U366 2.454 . S
O367 C369 1.353 . S
O368 U366 2.458 . S
O368 C369 1.286 . S
C369 U366 2.984 . S
C369 O367 1.353 . S
C369 O368 1.286 . S
C369 C371 1.363 . S
C370 C360 1.465 . S
C370 U366 2.847 . S
C370 O384 1.249 . S
C370 O385 1.202 . S
C371 C369 1.363 . S
C371 C373 1.408 . S
C371 C376 1.342 . S
C372 C373 1.310 . S
C372 C375 1.461 . S
C372 H392 0.932 . S
C373 C371 1.408 . S
C373 C372 1.310 . S
C373 H393 0.930 . S
C374 C375 1.474 . S
C374 C376 1.285 . S
C374 H394 0.929 . S
C375 C372 1.461 . S
C375 C374 1.474 . S
C376 C371 1.342 . S
C376 C374 1.285 . S
C376 H395 0.930 . S
C377 C380 1.424 . S
C377 C382 1.245 . S
C377 C383 1.428 . S
C378 C381 1.260 . S
C378 C382 1.477 . S
C378 H396 0.932 . S
C379 C380 1.384 . S
C379 C381 1.479 . S
C379 H397 0.929 . S
C380 C377 1.424 . S
C380 C379 1.384 . S
C380 H398 0.928 . S
C381 C378 1.260 . S
C381 C379 1.479 . S
C382 C377 1.245 . S
C382 C378 1.477 . S
C382 H399 0.932 . S
C383 U366 2.882 1_655 S
C383 C377 1.428 . S
C383 O386 1.305 . S
C383 O387 1.282 1_655 S
O384 U366 2.441 . S
O384 C370 1.249 . S
O385 U366 2.420 . S
O385 C370 1.202 . S
O386 U366 2.447 1_655 S
O386 C383 1.305 . S
O387 U366 2.449 . S
O387 C383 1.282 1_455 S
H388 C361 0.931 . S
H389 C363 0.929 . S
H390 C364 0.930 . S
H391 C365 0.931 . S
H392 C372 0.932 . S
H393 C373 0.930 . S
H394 C374 0.929 . S
H395 C376 0.930 . S
H396 C378 0.932 . S
H397 C379 0.929 . S
H398 C380 0.928 . S
H399 C382 0.932 . S
C400 C401 1.264 . S
C400 C405 1.479 . S
C400 C410 1.465 . S
C401 C400 1.264 . S
C401 C403 1.339 . S
C401 H428 0.931 . S
C402 C403 1.395 . S
C402 C404 1.320 . S
C403 C401 1.339 . S
C403 C402 1.395 . S
C403 H429 0.929 . S
C404 C402 1.320 . S
C404 C405 1.405 . S
C404 H430 0.930 . S
C405 C400 1.479 . S
C405 C404 1.405 . S
C405 H431 0.931 . S
U406 O407 2.454 . S
U406 O408 2.458 . S
U406 C409 2.984 . S
U406 C410 2.847 . S
U406 C423 2.882 . S
U406 O424 2.441 . S
U406 O425 2.420 . S
U406 O426 2.455 . S
U406 O427 2.449 . S
O407 U406 2.454 . S
O407 C409 1.353 . S
O408 U406 2.458 . S
O408 C409 1.286 . S
C409 U406 2.984 . S
C409 O407 1.353 . S
C409 O408 1.286 . S
C409 C411 1.363 . S
C410 C400 1.465 . S
C410 U406 2.847 . S
C410 O424 1.249 . S
C410 O425 1.202 . S
C411 C409 1.363 . S
C411 C413 1.408 . S
C411 C416 1.342 . S
C412 C413 1.310 . S
C412 C415 1.461 . S
C412 H432 0.932 . S
C413 C411 1.408 . S
C413 C412 1.310 . S
C413 H433 0.930 . S
C414 C415 1.474 . S
C414 C416 1.285 . S
C414 H434 0.929 . S
C415 C412 1.461 . S
C415 C414 1.474 . S
C416 C411 1.342 . S
C416 C414 1.285 . S
C416 H435 0.930 . S
C417 C420 1.424 . S
C417 C422 1.245 . S
C417 C423 1.428 . S
C418 C421 1.260 . S
C418 C422 1.477 . S
C418 H436 0.932 . S
C419 C420 1.384 . S
C419 C421 1.479 . S
C419 H437 0.929 . S
C420 C417 1.424 . S
C420 C419 1.384 . S
C420 H438 0.928 . S
C421 C418 1.260 . S
C421 C419 1.479 . S
C422 C417 1.245 . S
C422 C418 1.477 . S
C422 H439 0.932 . S
C423 U406 2.882 . S
C423 C417 1.428 . S
C423 O426 1.301 . S
C423 O427 1.282 . S
O424 U406 2.441 . S
O424 C410 1.249 . S
O425 U406 2.420 . S
O425 C410 1.202 . S
O426 U406 2.455 . S
O426 C423 1.301 . S
O427 U406 2.449 . S
O427 C423 1.282 . S
H428 C401 0.931 . S
H429 C403 0.929 . S
H430 C404 0.930 . S
H431 C405 0.931 . S
H432 C412 0.932 . S
H433 C413 0.930 . S
H434 C414 0.929 . S
H435 C416 0.930 . S
H436 C418 0.932 . S
H437 C419 0.929 . S
H438 C420 0.928 . S
H439 C422 0.932 . S
C440 C441 1.264 . S
C440 C445 1.479 . S
C440 C450 1.465 . S
C441 C440 1.264 . S
C441 C443 1.339 . S
C441 H468 0.931 . S
C442 C443 1.395 . S
C442 C444 1.320 . S
C443 C441 1.339 . S
C443 C442 1.395 . S
C443 H469 0.929 . S
C444 C442 1.320 . S
C444 C445 1.405 . S
C444 H470 0.930 . S
C445 C440 1.479 . S
C445 C444 1.405 . S
C445 H471 0.931 . S
U446 O447 2.454 . S
U446 O448 2.458 . S
U446 C449 2.984 . S
U446 C450 2.847 . S
U446 C463 2.882 . S
U446 O464 2.441 . S
U446 O465 2.420 . S
U446 O466 2.455 . S
U446 O467 2.449 . S
O447 U446 2.454 . S
O447 C449 1.353 . S
O448 U446 2.458 . S
O448 C449 1.286 . S
C449 U446 2.984 . S
C449 O447 1.353 . S
C449 O448 1.286 . S
C449 C451 1.363 . S
C450 C440 1.465 . S
C450 U446 2.847 . S
C450 O464 1.249 . S
C450 O465 1.202 . S
C451 C449 1.363 . S
C451 C453 1.408 . S
C451 C456 1.342 . S
C452 C453 1.310 . S
C452 C455 1.461 . S
C452 H472 0.932 . S
C453 C451 1.408 . S
C453 C452 1.310 . S
C453 H473 0.930 . S
C454 C455 1.474 . S
C454 C456 1.285 . S
C454 H474 0.929 . S
C455 C452 1.461 . S
C455 C454 1.474 . S
C456 C451 1.342 . S
C456 C454 1.285 . S
C456 H475 0.930 . S
C457 C460 1.424 1_655 S
C457 C462 1.245 1_655 S
C457 C463 1.428 . S
C458 C461 1.260 . S
C458 C462 1.477 . S
C458 H476 0.932 . S
C459 C460 1.384 . S
C459 C461 1.479 . S
C459 H477 0.929 . S
C460 C457 1.424 1_455 S
C460 C459 1.384 . S
C460 H478 0.928 . S
C461 C458 1.260 . S
C461 C459 1.479 . S
C462 C457 1.245 1_455 S
C462 C458 1.477 . S
C462 H479 0.932 . S
C463 U446 2.882 . S
C463 C457 1.428 . S
C463 O466 1.301 . S
C463 O467 1.282 . S
O464 U446 2.441 . S
O464 C450 1.249 . S
O465 U446 2.420 . S
O465 C450 1.202 . S
O466 U446 2.455 . S
O466 C463 1.301 . S
O467 U446 2.449 . S
O467 C463 1.282 . S
H468 C441 0.931 . S
H469 C443 0.929 . S
H470 C444 0.930 . S
H471 C445 0.931 . S
H472 C452 0.932 . S
H473 C453 0.930 . S
H474 C454 0.929 . S
H475 C456 0.930 . S
H476 C458 0.932 . S
H477 C459 0.929 . S
H478 C460 0.928 . S
H479 C462 0.932 . S
C480 C481 1.264 . S
C480 C485 1.479 . S
C480 C490 1.465 . S
C481 C480 1.264 . S
C481 C483 1.339 . S
C481 H508 0.931 . S
C482 C483 1.395 . S
C482 C484 1.320 . S
C483 C481 1.339 . S
C483 C482 1.395 . S
C483 H509 0.929 . S
C484 C482 1.320 . S
C484 C485 1.405 . S
C484 H510 0.930 . S
C485 C480 1.479 . S
C485 C484 1.405 . S
C485 H511 0.931 . S
U486 O487 2.454 . S
U486 O488 2.458 . S
U486 C489 2.984 . S
U486 C490 2.847 . S
U486 C503 2.882 . S
U486 O504 2.441 . S
U486 O505 2.420 . S
U486 O506 2.455 . S
U486 O507 2.449 . S
O487 U486 2.454 . S
O487 C489 1.353 . S
O488 U486 2.458 . S
O488 C489 1.286 . S
C489 U486 2.984 . S
C489 O487 1.353 . S
C489 O488 1.286 . S
C489 C491 1.363 . S
C490 C480 1.465 . S
C490 U486 2.847 . S
C490 O504 1.249 . S
C490 O505 1.202 . S
C491 C489 1.363 . S
C491 C493 1.408 . S
C491 C496 1.342 . S
C492 C493 1.310 . S
C492 C495 1.461 . S
C492 H512 0.932 . S
C493 C491 1.408 . S
C493 C492 1.310 . S
C493 H513 0.930 . S
C494 C495 1.474 . S
C494 C496 1.285 . S
C494 H514 0.929 . S
C495 C492 1.461 . S
C495 C494 1.474 . S
C496 C491 1.342 . S
C496 C494 1.285 . S
C496 H515 0.930 . S
C497 C500 1.424 . S
C497 C502 1.245 . S
C497 C503 1.428 . S
C498 C501 1.260 . S
C498 C502 1.477 . S
C498 H516 0.932 . S
C499 C500 1.384 . S
C499 C501 1.479 . S
C499 H517 0.929 . S
C500 C497 1.424 . S
C500 C499 1.384 . S
C500 H518 0.928 . S
C501 C498 1.260 . S
C501 C499 1.479 . S
C502 C497 1.245 . S
C502 C498 1.477 . S
C502 H519 0.932 . S
C503 U486 2.882 . S
C503 C497 1.428 . S
C503 O506 1.301 . S
C503 O507 1.282 . S
O504 U486 2.441 . S
O504 C490 1.249 . S
O505 U486 2.420 . S
O505 C490 1.202 . S
O506 U486 2.455 . S
O506 C503 1.301 . S
O507 U486 2.449 . S
O507 C503 1.282 . S
H508 C481 0.931 . S
H509 C483 0.929 . S
H510 C484 0.930 . S
H511 C485 0.931 . S
H512 C492 0.932 . S
H513 C493 0.930 . S
H514 C494 0.929 . S
H515 C496 0.930 . S
H516 C498 0.932 . S
H517 C499 0.929 . S
H518 C500 0.928 . S
H519 C502 0.932 . S
C520 C521 1.264 . S
C520 C525 1.479 . S
C520 C530 1.465 . S
C521 C520 1.264 . S
C521 C523 1.339 . S
C521 H548 0.931 . S
C522 C523 1.395 . S
C522 C524 1.320 . S
C523 C521 1.339 . S
C523 C522 1.395 . S
C523 H549 0.929 . S
C524 C522 1.320 . S
C524 C525 1.405 . S
C524 H550 0.930 . S
C525 C520 1.479 . S
C525 C524 1.405 . S
C525 H551 0.931 . S
U526 O527 2.454 . S
U526 O528 2.458 . S
U526 C529 2.984 . S
U526 C530 2.847 . S
U526 C543 2.882 . S
U526 O544 2.441 . S
U526 O545 2.420 . S
U526 O546 2.455 . S
U526 O547 2.449 . S
O527 U526 2.454 . S
O527 C529 1.353 . S
O528 U526 2.458 . S
O528 C529 1.286 . S
C529 U526 2.984 . S
C529 O527 1.353 . S
C529 O528 1.286 . S
C529 C531 1.363 . S
C530 C520 1.465 . S
C530 U526 2.847 . S
C530 O544 1.249 . S
C530 O545 1.202 . S
C531 C529 1.363 . S
C531 C533 1.408 . S
C531 C536 1.342 . S
C532 C533 1.310 . S
C532 C535 1.461 . S
C532 H552 0.932 . S
C533 C531 1.408 . S
C533 C532 1.310 . S
C533 H553 0.930 . S
C534 C535 1.474 . S
C534 C536 1.285 . S
C534 H554 0.929 . S
C535 C532 1.461 . S
C535 C534 1.474 . S
C536 C531 1.342 . S
C536 C534 1.285 . S
C536 H555 0.930 . S
C537 C540 1.424 . S
C537 C542 1.245 . S
C537 C543 1.428 . S
C538 C541 1.260 . S
C538 C542 1.477 . S
C538 H556 0.932 . S
C539 C540 1.384 . S
C539 C541 1.479 . S
C539 H557 0.929 . S
C540 C537 1.424 . S
C540 C539 1.384 . S
C540 H558 0.928 . S
C541 C538 1.260 . S
C541 C539 1.479 . S
C542 C537 1.245 . S
C542 C538 1.477 . S
C542 H559 0.932 . S
C543 U526 2.882 . S
C543 C537 1.428 . S
C543 O546 1.301 . S
C543 O547 1.282 . S
O544 U526 2.441 . S
O544 C530 1.249 . S
O545 U526 2.420 . S
O545 C530 1.202 . S
O546 U526 2.455 . S
O546 C543 1.301 . S
O547 U526 2.449 . S
O547 C543 1.282 . S
H548 C521 0.931 . S
H549 C523 0.929 . S
H550 C524 0.930 . S
H551 C525 0.931 . S
H552 C532 0.932 . S
H553 C533 0.930 . S
H554 C534 0.929 . S
H555 C536 0.930 . S
H556 C538 0.932 . S
H557 C539 0.929 . S
H558 C540 0.928 . S
H559 C542 0.932 . S
C560 C561 1.264 . S
C560 C565 1.457 1_565 S
C560 C570 1.465 . S
C561 C560 1.264 . S
C561 C563 1.339 . S
C561 H588 0.931 . S
C562 C563 1.395 1_545 S
C562 C564 1.320 . S
C563 C561 1.339 . S
C563 C562 1.395 1_565 S
C563 H589 0.929 . S
C564 C562 1.320 . S
C564 C565 1.434 . S
C564 H590 0.930 . S
C565 C560 1.457 1_545 S
C565 C564 1.434 . S
C565 H591 0.930 . S
U566 O567 2.454 . S
U566 O568 2.458 . S
U566 C569 2.984 . S
U566 C570 2.847 . S
U566 C583 2.882 . S
U566 O584 2.441 . S
U566 O585 2.420 . S
U566 O586 2.455 . S
U566 O587 2.449 . S
O567 U566 2.454 . S
O567 C569 1.353 . S
O568 U566 2.458 . S
O568 C569 1.286 . S
C569 U566 2.984 . S
C569 O567 1.353 . S
C569 O568 1.286 . S
C569 C571 1.360 1_565 S
C570 C560 1.465 . S
C570 U566 2.847 . S
C570 O584 1.249 . S
C570 O585 1.202 . S
C571 C569 1.360 1_545 S
C571 C573 1.418 . S
C571 C576 1.338 . S
C572 C573 1.310 . S
C572 C575 1.461 . S
C572 H592 0.932 . S
C573 C571 1.418 . S
C573 C572 1.310 . S
C573 H593 0.930 . S
C574 C575 1.474 . S
C574 C576 1.285 . S
C574 H594 0.929 . S
C575 C572 1.461 . S
C575 C574 1.474 . S
C576 C571 1.338 . S
C576 C574 1.285 . S
C576 H595 0.930 . S
C577 C580 1.424 . S
C577 C582 1.245 . S
C577 C583 1.428 . S
C578 C581 1.260 . S
C578 C582 1.477 . S
C578 H596 0.932 . S
C579 C580 1.384 . S
C579 C581 1.479 . S
C579 H597 0.929 . S
C580 C577 1.424 . S
C580 C579 1.384 . S
C580 H598 0.928 . S
C581 C578 1.260 . S
C581 C579 1.479 . S
C582 C577 1.245 . S
C582 C578 1.477 . S
C582 H599 0.932 . S
C583 U566 2.882 . S
C583 C577 1.428 . S
C583 O586 1.301 . S
C583 O587 1.282 . S
O584 U566 2.441 . S
O584 C570 1.249 . S
O585 U566 2.420 . S
O585 C570 1.202 . S
O586 U566 2.455 . S
O586 C583 1.301 . S
O587 U566 2.449 . S
O587 C583 1.282 . S
H588 C561 0.931 . S
H589 C563 0.929 . S
H590 C564 0.930 . S
H591 C565 0.930 . S
H592 C572 0.932 . S
H593 C573 0.930 . S
H594 C574 0.929 . S
H595 C576 0.930 . S
H596 C578 0.932 . S
H597 C579 0.929 . S
H598 C580 0.928 . S
H599 C582 0.932 . S
C600 C601 1.264 . S
C600 C605 1.479 . S
C600 C610 1.457 1_565 S
C601 C600 1.264 . S
C601 C603 1.339 . S
C601 H628 0.931 1_565 S
C602 C603 1.395 . S
C602 C604 1.320 . S
C603 C601 1.339 . S
C603 C602 1.395 . S
C603 H629 0.929 . S
C604 C602 1.320 . S
C604 C605 1.405 . S
C604 H630 0.930 . S
C605 C600 1.479 . S
C605 C604 1.405 . S
C605 H631 0.931 . S
U606 O607 2.454 1_545 S
U606 O608 2.458 . S
U606 C609 2.984 1_545 S
U606 C610 2.852 . S
U606 C623 2.882 . S
U606 O624 2.441 1_545 S
U606 O625 2.420 . S
U606 O626 2.455 . S
U606 O627 2.449 . S
O607 U606 2.454 1_565 S
O607 C609 1.353 . S
O608 U606 2.458 . S
O608 C609 1.286 1_545 S
C609 U606 2.984 1_565 S
C609 O607 1.353 . S
C609 O608 1.286 1_565 S
C609 C611 1.363 . S
C610 C600 1.457 1_545 S
C610 U606 2.852 . S
C610 O624 1.245 1_545 S
C610 O625 1.214 . S
C611 C609 1.363 . S
C611 C613 1.408 . S
C611 C616 1.342 . S
C612 C613 1.310 . S
C612 C615 1.461 . S
C612 H632 0.932 . S
C613 C611 1.408 . S
C613 C612 1.310 . S
C613 H633 0.930 . S
C614 C615 1.474 . S
C614 C616 1.285 . S
C614 H634 0.929 . S
C615 C612 1.461 . S
C615 C614 1.474 . S
C616 C611 1.342 . S
C616 C614 1.285 . S
C616 H635 0.930 . S
C617 C620 1.424 . S
C617 C622 1.245 . S
C617 C623 1.428 . S
C618 C621 1.260 . S
C618 C622 1.477 . S
C618 H636 0.932 . S
C619 C620 1.384 . S
C619 C621 1.479 . S
C619 H637 0.929 . S
C620 C617 1.424 . S
C620 C619 1.384 . S
C620 H638 0.928 . S
C621 C618 1.260 . S
C621 C619 1.479 . S
C622 C617 1.245 . S
C622 C618 1.477 . S
C622 H639 0.932 . S
C623 U606 2.882 . S
C623 C617 1.428 . S
C623 O626 1.301 . S
C623 O627 1.282 . S
O624 U606 2.441 1_565 S
O624 C610 1.245 1_565 S
O625 U606 2.420 . S
O625 C610 1.214 . S
O626 U606 2.455 . S
O626 C623 1.301 . S
O627 U606 2.449 . S
O627 C623 1.282 . S
H628 C601 0.931 1_545 S
H629 C603 0.929 . S
H630 C604 0.930 . S
H631 C605 0.931 . S
H632 C612 0.932 . S
H633 C613 0.930 . S
H634 C614 0.929 . S
H635 C616 0.930 . S
H636 C618 0.932 . S
H637 C619 0.929 . S
H638 C620 0.928 . S
H639 C622 0.932 . S
C640 C641 1.264 . S
C640 C645 1.479 . S
C640 C650 1.465 . S
C641 C640 1.264 . S
C641 C643 1.339 . S
C641 H668 0.931 . S
C642 C643 1.395 . S
C642 C644 1.320 . S
C643 C641 1.339 . S
C643 C642 1.395 . S
C643 H669 0.929 . S
C644 C642 1.320 . S
C644 C645 1.405 . S
C644 H670 0.930 . S
C645 C640 1.479 . S
C645 C644 1.405 . S
C645 H671 0.931 . S
U646 O647 2.454 . S
U646 O648 2.458 . S
U646 C649 2.984 . S
U646 C650 2.847 . S
U646 C663 2.882 . S
U646 O664 2.441 . S
U646 O665 2.420 . S
U646 O666 2.455 . S
U646 O667 2.449 . S
O647 U646 2.454 . S
O647 C649 1.353 . S
O648 U646 2.458 . S
O648 C649 1.286 . S
C649 U646 2.984 . S
C649 O647 1.353 . S
C649 O648 1.286 . S
C649 C651 1.363 . S
C650 C640 1.465 . S
C650 U646 2.847 . S
C650 O664 1.249 . S
C650 O665 1.202 . S
C651 C649 1.363 . S
C651 C653 1.408 . S
C651 C656 1.342 . S
C652 C653 1.310 . S
C652 C655 1.461 . S
C652 H672 0.932 . S
C653 C651 1.408 . S
C653 C652 1.310 . S
C653 H673 0.930 . S
C654 C655 1.474 . S
C654 C656 1.285 . S
C654 H674 0.929 . S
C655 C652 1.461 . S
C655 C654 1.474 . S
C656 C651 1.342 . S
C656 C654 1.285 . S
C656 H675 0.930 . S
C657 C660 1.424 . S
C657 C662 1.245 . S
C657 C663 1.428 . S
C658 C661 1.260 . S
C658 C662 1.477 . S
C658 H676 0.932 . S
C659 C660 1.384 . S
C659 C661 1.479 . S
C659 H677 0.929 . S
C660 C657 1.424 . S
C660 C659 1.384 . S
C660 H678 0.928 . S
C661 C658 1.260 . S
C661 C659 1.479 . S
C662 C657 1.245 . S
C662 C658 1.477 . S
C662 H679 0.932 . S
C663 U646 2.882 . S
C663 C657 1.428 . S
C663 O666 1.301 . S
C663 O667 1.282 . S
O664 U646 2.441 . S
O664 C650 1.249 . S
O665 U646 2.420 . S
O665 C650 1.202 . S
O666 U646 2.455 . S
O666 C663 1.301 . S
O667 U646 2.449 . S
O667 C663 1.282 . S
H668 C641 0.931 . S
H669 C643 0.929 . S
H670 C644 0.930 . S
H671 C645 0.931 . S
H672 C652 0.932 . S
H673 C653 0.930 . S
H674 C654 0.929 . S
H675 C656 0.930 . S
H676 C658 0.932 . S
H677 C659 0.929 . S
H678 C660 0.928 . S
H679 C662 0.932 . S
C680 C681 1.264 . S
C680 C685 1.479 . S
C680 C690 1.457 1_556 S
C681 C680 1.264 . S
C681 C683 1.339 . S
C681 H708 0.931 1_556 S
C682 C683 1.395 . S
C682 C684 1.320 . S
C683 C681 1.339 . S
C683 C682 1.395 . S
C683 H709 0.929 . S
C684 C682 1.320 . S
C684 C685 1.405 . S
C684 H710 0.930 . S
C685 C680 1.479 . S
C685 C684 1.405 . S
C685 H711 0.931 . S
U686 O687 2.454 1_554 S
U686 O688 2.458 . S
U686 C689 2.984 1_554 S
U686 C690 2.852 . S
U686 C703 2.882 . S
U686 O704 2.441 1_554 S
U686 O705 2.420 . S
U686 O706 2.455 . S
U686 O707 2.449 . S
O687 U686 2.454 1_556 S
O687 C689 1.353 . S
O688 U686 2.458 . S
O688 C689 1.286 1_554 S
C689 U686 2.984 1_556 S
C689 O687 1.353 . S
C689 O688 1.286 1_556 S
C689 C691 1.363 . S
C690 C680 1.457 1_554 S
C690 U686 2.852 . S
C690 O704 1.245 1_554 S
C690 O705 1.214 . S
C691 C689 1.363 . S
C691 C693 1.408 . S
C691 C696 1.342 . S
C692 C693 1.310 . S
C692 C695 1.461 . S
C692 H712 0.932 . S
C693 C691 1.408 . S
C693 C692 1.310 . S
C693 H713 0.930 . S
C694 C695 1.474 . S
C694 C696 1.285 . S
C694 H714 0.929 . S
C695 C692 1.461 . S
C695 C694 1.474 . S
C696 C691 1.342 . S
C696 C694 1.285 . S
C696 H715 0.930 . S
C697 C700 1.424 . S
C697 C702 1.245 . S
C697 C703 1.428 . S
C698 C701 1.260 . S
C698 C702 1.477 . S
C698 H716 0.932 . S
C699 C700 1.384 . S
C699 C701 1.479 . S
C699 H717 0.929 . S
C700 C697 1.424 . S
C700 C699 1.384 . S
C700 H718 0.928 . S
C701 C698 1.260 . S
C701 C699 1.479 . S
C702 C697 1.245 . S
C702 C698 1.477 . S
C702 H719 0.932 . S
C703 U686 2.882 . S
C703 C697 1.428 . S
C703 O706 1.301 . S
C703 O707 1.282 . S
O704 U686 2.441 1_556 S
O704 C690 1.245 1_556 S
O705 U686 2.420 . S
O705 C690 1.214 . S
O706 U686 2.455 . S
O706 C703 1.301 . S
O707 U686 2.449 . S
O707 C703 1.282 . S
H708 C681 0.931 1_554 S
H709 C683 0.929 . S
H710 C684 0.930 . S
H711 C685 0.931 . S
H712 C692 0.932 . S
H713 C693 0.930 . S
H714 C694 0.929 . S
H715 C696 0.930 . S
H716 C698 0.932 . S
H717 C699 0.929 . S
H718 C700 0.928 . S
H719 C702 0.932 . S
C720 C721 1.264 . S
C720 C725 1.479 . S
C720 C730 1.465 . S
C721 C720 1.264 . S
C721 C723 1.339 . S
C721 H748 0.931 . S
C722 C723 1.395 . S
C722 C724 1.320 . S
C723 C721 1.339 . S
C723 C722 1.395 . S
C723 H749 0.929 . S
C724 C722 1.320 . S
C724 C725 1.405 . S
C724 H750 0.930 . S
C725 C720 1.479 . S
C725 C724 1.405 . S
C725 H751 0.931 . S
U726 O727 2.454 . S
U726 O728 2.458 . S
U726 C729 2.984 . S
U726 C730 2.847 . S
U726 C743 2.882 . S
U726 O744 2.441 . S
U726 O745 2.420 . S
U726 O746 2.455 . S
U726 O747 2.449 . S
O727 U726 2.454 . S
O727 C729 1.353 . S
O728 U726 2.458 . S
O728 C729 1.286 . S
C729 U726 2.984 . S
C729 O727 1.353 . S
C729 O728 1.286 . S
C729 C731 1.363 . S
C730 C720 1.465 . S
C730 U726 2.847 . S
C730 O744 1.249 . S
C730 O745 1.202 . S
C731 C729 1.363 . S
C731 C733 1.408 . S
C731 C736 1.342 . S
C732 C733 1.310 . S
C732 C735 1.461 . S
C732 H752 0.932 . S
C733 C731 1.408 . S
C733 C732 1.310 . S
C733 H753 0.930 . S
C734 C735 1.474 . S
C734 C736 1.285 . S
C734 H754 0.929 . S
C735 C732 1.461 . S
C735 C734 1.474 . S
C736 C731 1.342 . S
C736 C734 1.285 . S
C736 H755 0.930 . S
C737 C740 1.424 . S
C737 C742 1.245 . S
C737 C743 1.428 . S
C738 C741 1.260 . S
C738 C742 1.477 . S
C738 H756 0.932 . S
C739 C740 1.384 . S
C739 C741 1.479 . S
C739 H757 0.929 . S
C740 C737 1.424 . S
C740 C739 1.384 . S
C740 H758 0.928 . S
C741 C738 1.260 . S
C741 C739 1.479 . S
C742 C737 1.245 . S
C742 C738 1.477 . S
C742 H759 0.932 . S
C743 U726 2.882 . S
C743 C737 1.428 . S
C743 O746 1.301 . S
C743 O747 1.282 . S
O744 U726 2.441 . S
O744 C730 1.249 . S
O745 U726 2.420 . S
O745 C730 1.202 . S
O746 U726 2.455 . S
O746 C743 1.301 . S
O747 U726 2.449 . S
O747 C743 1.282 . S
H748 C721 0.931 . S
H749 C723 0.929 . S
H750 C724 0.930 . S
H751 C725 0.931 . S
H752 C732 0.932 . S
H753 C733 0.930 . S
H754 C734 0.929 . S
H755 C736 0.930 . S
H756 C738 0.932 . S
H757 C739 0.929 . S
H758 C740 0.928 . S
H759 C742 0.932 . S
C760 C761 1.264 . S
C760 C765 1.457 1_556 S
C760 C770 1.465 . S
C761 C760 1.264 . S
C761 C763 1.339 . S
C761 H788 0.931 . S
C762 C763 1.395 1_554 S
C762 C764 1.320 . S
C763 C761 1.339 . S
C763 C762 1.395 1_556 S
C763 H789 0.929 . S
C764 C762 1.320 . S
C764 C765 1.434 . S
C764 H790 0.930 . S
C765 C760 1.457 1_554 S
C765 C764 1.434 . S
C765 H791 0.930 . S
U766 O767 2.454 . S
U766 O768 2.458 . S
U766 C769 2.984 . S
U766 C770 2.847 . S
U766 C783 2.882 . S
U766 O784 2.441 . S
U766 O785 2.420 . S
U766 O786 2.455 . S
U766 O787 2.449 . S
O767 U766 2.454 . S
O767 C769 1.353 . S
O768 U766 2.458 . S
O768 C769 1.286 . S
C769 U766 2.984 . S
C769 O767 1.353 . S
C769 O768 1.286 . S
C769 C771 1.360 1_556 S
C770 C760 1.465 . S
C770 U766 2.847 . S
C770 O784 1.249 . S
C770 O785 1.202 . S
C771 C769 1.360 1_554 S
C771 C773 1.418 . S
C771 C776 1.338 . S
C772 C773 1.310 . S
C772 C775 1.461 . S
C772 H792 0.932 . S
C773 C771 1.418 . S
C773 C772 1.310 . S
C773 H793 0.930 . S
C774 C775 1.474 . S
C774 C776 1.285 . S
C774 H794 0.929 . S
C775 C772 1.461 . S
C775 C774 1.474 . S
C776 C771 1.338 . S
C776 C774 1.285 . S
C776 H795 0.930 . S
C777 C780 1.424 . S
C777 C782 1.245 . S
C777 C783 1.428 . S
C778 C781 1.260 . S
C778 C782 1.477 . S
C778 H796 0.932 . S
C779 C780 1.384 . S
C779 C781 1.479 . S
C779 H797 0.929 . S
C780 C777 1.424 . S
C780 C779 1.384 . S
C780 H798 0.928 . S
C781 C778 1.260 . S
C781 C779 1.479 . S
C782 C777 1.245 . S
C782 C778 1.477 . S
C782 H799 0.932 . S
C783 U766 2.882 . S
C783 C777 1.428 . S
C783 O786 1.301 . S
C783 O787 1.282 . S
O784 U766 2.441 . S
O784 C770 1.249 . S
O785 U766 2.420 . S
O785 C770 1.202 . S
O786 U766 2.455 . S
O786 C783 1.301 . S
O787 U766 2.449 . S
O787 C783 1.282 . S
H788 C761 0.931 . S
H789 C763 0.929 . S
H790 C764 0.930 . S
H791 C765 0.930 . S
H792 C772 0.932 . S
H793 C773 0.930 . S
H794 C774 0.929 . S
H795 C776 0.930 . S
H796 C778 0.932 . S
H797 C779 0.929 . S
H798 C780 0.928 . S
H799 C782 0.932 . S
C800 C801 1.264 . S
C800 C805 1.479 . S
C800 C810 1.465 . S
C801 C800 1.264 . S
C801 C803 1.339 . S
C801 H828 0.931 . S
C802 C803 1.395 . S
C802 C804 1.320 . S
C803 C801 1.339 . S
C803 C802 1.395 . S
C803 H829 0.929 . S
C804 C802 1.320 . S
C804 C805 1.405 . S
C804 H830 0.930 . S
C805 C800 1.479 . S
C805 C804 1.405 . S
C805 H831 0.931 . S
U806 O807 2.454 . S
U806 O808 2.458 . S
U806 C809 2.984 . S
U806 C810 2.847 . S
U806 C823 2.882 . S
U806 O824 2.441 . S
U806 O825 2.420 . S
U806 O826 2.455 . S
U806 O827 2.449 . S
O807 U806 2.454 . S
O807 C809 1.353 . S
O808 U806 2.458 . S
O808 C809 1.286 . S
C809 U806 2.984 . S
C809 O807 1.353 . S
C809 O808 1.286 . S
C809 C811 1.363 . S
C810 C800 1.465 . S
C810 U806 2.847 . S
C810 O824 1.249 . S
C810 O825 1.202 . S
C811 C809 1.363 . S
C811 C813 1.408 . S
C811 C816 1.342 . S
C812 C813 1.310 . S
C812 C815 1.461 . S
C812 H832 0.932 . S
C813 C811 1.408 . S
C813 C812 1.310 . S
C813 H833 0.930 . S
C814 C815 1.474 . S
C814 C816 1.285 . S
C814 H834 0.929 . S
C815 C812 1.461 . S
C815 C814 1.474 . S
C816 C811 1.342 . S
C816 C814 1.285 . S
C816 H835 0.930 . S
C817 C820 1.424 . S
C817 C822 1.245 . S
C817 C823 1.428 . S
C818 C821 1.260 . S
C818 C822 1.477 . S
C818 H836 0.932 . S
C819 C820 1.384 . S
C819 C821 1.479 . S
C819 H837 0.929 . S
C820 C817 1.424 . S
C820 C819 1.384 . S
C820 H838 0.928 . S
C821 C818 1.260 . S
C821 C819 1.479 . S
C822 C817 1.245 . S
C822 C818 1.477 . S
C822 H839 0.932 . S
C823 U806 2.882 . S
C823 C817 1.428 . S
C823 O826 1.301 . S
C823 O827 1.282 . S
O824 U806 2.441 . S
O824 C810 1.249 . S
O825 U806 2.420 . S
O825 C810 1.202 . S
O826 U806 2.455 . S
O826 C823 1.301 . S
O827 U806 2.449 . S
O827 C823 1.282 . S
H828 C801 0.931 . S
H829 C803 0.929 . S
H830 C804 0.930 . S
H831 C805 0.931 . S
H832 C812 0.932 . S
H833 C813 0.930 . S
H834 C814 0.929 . S
H835 C816 0.930 . S
H836 C818 0.932 . S
H837 C819 0.929 . S
H838 C820 0.928 . S
H839 C822 0.932 . S
C840 C841 1.264 . S
C840 C845 1.479 . S
C840 C850 1.457 1_655 S
C841 C840 1.264 . S
C841 C843 1.339 . S
C841 H868 0.931 1_655 S
C842 C843 1.395 . S
C842 C844 1.320 . S
C843 C841 1.339 . S
C843 C842 1.395 . S
C843 H869 0.929 . S
C844 C842 1.320 . S
C844 C845 1.405 . S
C844 H870 0.930 . S
C845 C840 1.479 . S
C845 C844 1.405 . S
C845 H871 0.931 . S
U846 O847 2.454 1_455 S
U846 O848 2.458 . S
U846 C849 2.984 1_455 S
U846 C850 2.852 . S
U846 C863 2.882 . S
U846 O864 2.441 1_455 S
U846 O865 2.420 . S
U846 O866 2.455 . S
U846 O867 2.449 . S
O847 U846 2.454 1_655 S
O847 C849 1.353 . S
O848 U846 2.458 . S
O848 C849 1.286 1_455 S
C849 U846 2.984 1_655 S
C849 O847 1.353 . S
C849 O848 1.286 1_655 S
C849 C851 1.363 . S
C850 C840 1.457 1_455 S
C850 U846 2.852 . S
C850 O864 1.245 1_455 S
C850 O865 1.214 . S
C851 C849 1.363 . S
C851 C853 1.408 . S
C851 C856 1.342 . S
C852 C853 1.310 . S
C852 C855 1.461 . S
C852 H872 0.932 . S
C853 C851 1.408 . S
C853 C852 1.310 . S
C853 H873 0.930 . S
C854 C855 1.474 . S
C854 C856 1.285 . S
C854 H874 0.929 . S
C855 C852 1.461 . S
C855 C854 1.474 . S
C856 C851 1.342 . S
C856 C854 1.285 . S
C856 H875 0.930 . S
C857 C860 1.424 . S
C857 C862 1.245 . S
C857 C863 1.428 . S
C858 C861 1.260 . S
C858 C862 1.477 . S
C858 H876 0.932 . S
C859 C860 1.384 . S
C859 C861 1.479 . S
C859 H877 0.929 . S
C860 C857 1.424 . S
C860 C859 1.384 . S
C860 H878 0.928 . S
C861 C858 1.260 . S
C861 C859 1.479 . S
C862 C857 1.245 . S
C862 C858 1.477 . S
C862 H879 0.932 . S
C863 U846 2.882 . S
C863 C857 1.428 . S
C863 O866 1.301 . S
C863 O867 1.282 . S
O864 U846 2.441 1_655 S
O864 C850 1.245 1_655 S
O865 U846 2.420 . S
O865 C850 1.214 . S
O866 U846 2.455 . S
O866 C863 1.301 . S
O867 U846 2.449 . S
O867 C863 1.282 . S
H868 C841 0.931 1_455 S
H869 C843 0.929 . S
H870 C844 0.930 . S
H871 C845 0.931 . S
H872 C852 0.932 . S
H873 C853 0.930 . S
H874 C854 0.929 . S
H875 C856 0.930 . S
H876 C858 0.932 . S
H877 C859 0.929 . S
H878 C860 0.928 . S
H879 C862 0.932 . S
C880 C881 1.264 . S
C880 C885 1.479 . S
C880 C890 1.465 . S
C881 C880 1.264 . S
C881 C883 1.339 . S
C881 H908 0.931 . S
C882 C883 1.395 . S
C882 C884 1.320 . S
C883 C881 1.339 . S
C883 C882 1.395 . S
C883 H909 0.929 . S
C884 C882 1.320 . S
C884 C885 1.405 . S
C884 H910 0.930 . S
C885 C880 1.479 . S
C885 C884 1.405 . S
C885 H911 0.931 . S
U886 O887 2.454 . S
U886 O888 2.458 . S
U886 C889 2.984 . S
U886 C890 2.847 . S
U886 C903 2.882 . S
U886 O904 2.441 . S
U886 O905 2.420 . S
U886 O906 2.455 . S
U886 O907 2.449 . S
O887 U886 2.454 . S
O887 C889 1.353 . S
O888 U886 2.458 . S
O888 C889 1.286 . S
C889 U886 2.984 . S
C889 O887 1.353 . S
C889 O888 1.286 . S
C889 C891 1.363 . S
C890 C880 1.465 . S
C890 U886 2.847 . S
C890 O904 1.249 . S
C890 O905 1.202 . S
C891 C889 1.363 . S
C891 C893 1.408 . S
C891 C896 1.342 . S
C892 C893 1.310 . S
C892 C895 1.461 . S
C892 H912 0.932 . S
C893 C891 1.408 . S
C893 C892 1.310 . S
C893 H913 0.930 . S
C894 C895 1.474 . S
C894 C896 1.285 . S
C894 H914 0.929 . S
C895 C892 1.461 . S
C895 C894 1.474 . S
C896 C891 1.342 . S
C896 C894 1.285 . S
C896 H915 0.930 . S
C897 C900 1.424 . S
C897 C902 1.245 . S
C897 C903 1.428 . S
C898 C901 1.260 . S
C898 C902 1.477 . S
C898 H916 0.932 . S
C899 C900 1.384 . S
C899 C901 1.479 . S
C899 H917 0.929 . S
C900 C897 1.424 . S
C900 C899 1.384 . S
C900 H918 0.928 . S
C901 C898 1.260 . S
C901 C899 1.479 . S
C902 C897 1.245 . S
C902 C898 1.477 . S
C902 H919 0.932 . S
C903 U886 2.882 . S
C903 C897 1.428 . S
C903 O906 1.301 . S
C903 O907 1.282 . S
O904 U886 2.441 . S
O904 C890 1.249 . S
O905 U886 2.420 . S
O905 C890 1.202 . S
O906 U886 2.455 . S
O906 C903 1.301 . S
O907 U886 2.449 . S
O907 C903 1.282 . S
H908 C881 0.931 . S
H909 C883 0.929 . S
H910 C884 0.930 . S
H911 C885 0.931 . S
H912 C892 0.932 . S
H913 C893 0.930 . S
H914 C894 0.929 . S
H915 C896 0.930 . S
H916 C898 0.932 . S
H917 C899 0.929 . S
H918 C900 0.928 . S
H919 C902 0.932 . S
C920 C921 1.264 . S
C920 C925 1.457 1_655 S
C920 C930 1.465 . S
C921 C920 1.264 . S
C921 C923 1.339 . S
C921 H948 0.931 . S
C922 C923 1.395 1_455 S
C922 C924 1.320 . S
C923 C921 1.339 . S
C923 C922 1.395 1_655 S
C923 H949 0.929 . S
C924 C922 1.320 . S
C924 C925 1.434 . S
C924 H950 0.930 . S
C925 C920 1.457 1_455 S
C925 C924 1.434 . S
C925 H951 0.930 . S
U926 O927 2.454 . S
U926 O928 2.458 . S
U926 C929 2.984 . S
U926 C930 2.847 . S
U926 C943 2.882 . S
U926 O944 2.441 . S
U926 O945 2.420 . S
U926 O946 2.455 . S
U926 O947 2.449 . S
O927 U926 2.454 . S
O927 C929 1.353 . S
O928 U926 2.458 . S
O928 C929 1.286 . S
C929 U926 2.984 . S
C929 O927 1.353 . S
C929 O928 1.286 . S
C929 C931 1.360 1_655 S
C930 C920 1.465 . S
C930 U926 2.847 . S
C930 O944 1.249 . S
C930 O945 1.202 . S
C931 C929 1.360 1_455 S
C931 C933 1.418 . S
C931 C936 1.338 . S
C932 C933 1.310 . S
C932 C935 1.461 . S
C932 H952 0.932 . S
C933 C931 1.418 . S
C933 C932 1.310 . S
C933 H953 0.930 . S
C934 C935 1.474 . S
C934 C936 1.285 . S
C934 H954 0.929 . S
C935 C932 1.461 . S
C935 C934 1.474 . S
C936 C931 1.338 . S
C936 C934 1.285 . S
C936 H955 0.930 . S
C937 C940 1.424 . S
C937 C942 1.245 . S
C937 C943 1.428 . S
C938 C941 1.260 . S
C938 C942 1.477 . S
C938 H956 0.932 . S
C939 C940 1.384 . S
C939 C941 1.479 . S
C939 H957 0.929 . S
C940 C937 1.424 . S
C940 C939 1.384 . S
C940 H958 0.928 . S
C941 C938 1.260 . S
C941 C939 1.479 . S
C942 C937 1.245 . S
C942 C938 1.477 . S
C942 H959 0.932 . S
C943 U926 2.882 . S
C943 C937 1.428 . S
C943 O946 1.301 . S
C943 O947 1.282 . S
O944 U926 2.441 . S
O944 C930 1.249 . S
O945 U926 2.420 . S
O945 C930 1.202 . S
O946 U926 2.455 . S
O946 C943 1.301 . S
O947 U926 2.449 . S
O947 C943 1.282 . S
H948 C921 0.931 . S
H949 C923 0.929 . S
H950 C924 0.930 . S
H951 C925 0.930 . S
H952 C932 0.932 . S
H953 C933 0.930 . S
H954 C934 0.929 . S
H955 C936 0.930 . S
H956 C938 0.932 . S
H957 C939 0.929 . S
H958 C940 0.928 . S
H959 C942 0.932 . S
H960 C961 0.949 . S
C961 H960 0.949 . S
C961 C962 1.395 . S
C961 C963 1.391 . S
C962 C961 1.395 . S
C962 C965 1.390 . S
C963 C961 1.391 . S
C963 C967 1.387 . S
C963 C968 1.491 . S
H964 C965 0.950 . S
C965 C962 1.390 . S
C965 H964 0.950 . S
C965 C966 1.378 . S
C966 C965 1.378 . S
C966 C967 1.409 . S
C967 C963 1.387 . S
C967 C966 1.409 . S
C967 H969 0.951 . S
C968 C963 1.491 . S
C968 C970 1.382 . S
C968 C972 1.404 . S
H969 C967 0.951 . S
C970 C968 1.382 . S
C970 C971 1.390 . S
C970 H975 0.949 . S
C971 C970 1.390 . S
C971 C976 1.399 . S
C972 C968 1.404 . S
C972 H973 0.950 . S
C972 C974 1.375 . S
H973 C972 0.950 . S
C974 C972 1.375 . S
C974 C976 1.382 . S
C974 H978 0.950 . S
H975 C970 0.949 . S
C976 C971 1.399 . S
C976 C974 1.382 . S
C976 H977 0.952 . S
H977 C976 0.952 . S
H978 C974 0.950 . S
H979 C980 0.949 . S
C980 H979 0.949 . S
C980 C981 1.395 . S
C980 C982 1.391 1_556 S
C981 C980 1.395 . S
C981 C984 1.390 . S
C982 C980 1.391 1_554 S
C982 C986 1.387 . S
C982 C987 1.491 . S
H983 C984 0.950 . S
C984 C981 1.390 . S
C984 H983 0.950 . S
C984 C985 1.378 1_556 S
C985 C984 1.378 1_554 S
C985 C986 1.409 . S
C986 C982 1.387 . S
C986 C985 1.409 . S
C986 H988 0.951 . S
C987 C982 1.491 . S
C987 C989 1.382 . S
C987 C991 1.404 . S
H988 C986 0.951 . S
C989 C987 1.382 . S
C989 C990 1.390 . S
C989 H994 0.946 1_554 S
C990 C989 1.390 . S
C990 C995 1.399 . S
C991 C987 1.404 . S
C991 H992 0.950 . S
C991 C993 1.375 . S
H992 C991 0.950 . S
C993 C991 1.375 . S
C993 C995 1.382 . S
C993 H997 0.950 . S
H994 C989 0.946 1_556 S
C995 C990 1.399 . S
C995 C993 1.382 . S
C995 H996 0.952 . S
H996 C995 0.952 . S
H997 C993 0.950 . S
H998 C999 0.949 . S
C999 H998 0.949 . S
C999 C1000 1.395 . S
C999 C1001 1.391 . S
C1000 C999 1.395 . S
C1000 C1003 1.390 . S
C1001 C999 1.391 . S
C1001 C1005 1.387 . S
C1001 C1006 1.491 . S
H1002 C1003 0.950 . S
C1003 C1000 1.390 . S
C1003 H1002 0.950 . S
C1003 C1004 1.378 . S
C1004 C1003 1.378 . S
C1004 C1005 1.409 . S
C1005 C1001 1.387 . S
C1005 C1004 1.409 . S
C1005 H1007 0.951 . S
C1006 C1001 1.491 . S
C1006 C1008 1.382 . S
C1006 C1010 1.404 . S
H1007 C1005 0.951 . S
C1008 C1006 1.382 . S
C1008 C1009 1.390 . S
C1008 H1013 0.949 . S
C1009 C1008 1.390 . S
C1009 C1014 1.399 . S
C1010 C1006 1.404 . S
C1010 H1011 0.950 . S
C1010 C1012 1.375 . S
H1011 C1010 0.950 . S
C1012 C1010 1.375 . S
C1012 C1014 1.382 . S
C1012 H1016 0.950 . S
H1013 C1008 0.949 . S
C1014 C1009 1.399 . S
C1014 C1012 1.382 . S
C1014 H1015 0.952 . S
H1015 C1014 0.952 . S
H1016 C1012 0.950 . S
H1017 C1018 0.949 . S
C1018 H1017 0.949 . S
C1018 C1019 1.395 . S
C1018 C1020 1.391 1_554 S
C1019 C1018 1.395 . S
C1019 C1022 1.390 . S
C1020 C1018 1.391 1_556 S
C1020 C1024 1.387 . S
C1020 C1025 1.491 . S
H1021 C1022 0.950 . S
C1022 C1019 1.390 . S
C1022 H1021 0.950 . S
C1022 C1023 1.378 1_554 S
C1023 C1022 1.378 1_556 S
C1023 C1024 1.409 . S
C1024 C1020 1.387 . S
C1024 C1023 1.409 . S
C1024 H1026 0.951 . S
C1025 C1020 1.491 . S
C1025 C1027 1.382 . S
C1025 C1029 1.404 . S
H1026 C1024 0.951 . S
C1027 C1025 1.382 . S
C1027 C1028 1.390 . S
C1027 H1032 0.949 1_556 S
C1028 C1027 1.390 . S
C1028 C1033 1.399 . S
C1029 C1025 1.404 . S
C1029 H1030 0.950 . S
C1029 C1031 1.375 . S
H1030 C1029 0.950 . S
C1031 C1029 1.375 . S
C1031 C1033 1.382 . S
C1031 H1035 0.950 . S
H1032 C1027 0.949 1_554 S
C1033 C1028 1.399 . S
C1033 C1031 1.382 . S
C1033 H1034 0.952 . S
H1034 C1033 0.952 . S
H1035 C1031 0.950 . S
H1036 C1037 0.949 . S
C1037 H1036 0.949 . S
C1037 C1038 1.395 . S
C1037 C1039 1.391 . S
C1038 C1037 1.395 . S
C1038 C1041 1.390 . S
C1039 C1037 1.391 . S
C1039 C1043 1.387 . S
C1039 C1044 1.491 . S
H1040 C1041 0.950 . S
C1041 C1038 1.390 . S
C1041 H1040 0.950 . S
C1041 C1042 1.378 . S
C1042 C1041 1.378 . S
C1042 C1043 1.409 . S
C1043 C1039 1.387 . S
C1043 C1042 1.409 . S
C1043 H1045 0.951 . S
C1044 C1039 1.491 . S
C1044 C1046 1.382 . S
C1044 C1048 1.404 . S
H1045 C1043 0.951 . S
C1046 C1044 1.382 . S
C1046 C1047 1.390 . S
C1046 H1051 0.949 . S
C1047 C1046 1.390 . S
C1047 C1052 1.399 . S
C1048 C1044 1.404 . S
C1048 H1049 0.950 . S
C1048 C1050 1.375 . S
H1049 C1048 0.950 . S
C1050 C1048 1.375 . S
C1050 C1052 1.382 . S
C1050 H1054 0.950 . S
H1051 C1046 0.949 . S
C1052 C1047 1.399 . S
C1052 C1050 1.382 . S
C1052 H1053 0.952 . S
H1053 C1052 0.952 . S
H1054 C1050 0.950 . S
H1055 C1056 0.949 . S
C1056 H1055 0.949 . S
C1056 C1057 1.395 . S
C1056 C1058 1.391 1_455 S
C1057 C1056 1.395 . S
C1057 C1060 1.390 . S
C1058 C1056 1.391 1_655 S
C1058 C1062 1.387 . S
C1058 C1063 1.491 . S
H1059 C1060 0.950 . S
C1060 C1057 1.390 . S
C1060 H1059 0.950 . S
C1060 C1061 1.378 1_455 S
C1061 C1060 1.378 1_655 S
C1061 C1062 1.409 . S
C1062 C1058 1.387 . S
C1062 C1061 1.409 . S
C1062 H1064 0.951 . S
C1063 C1058 1.491 . S
C1063 C1065 1.382 . S
C1063 C1067 1.404 . S
H1064 C1062 0.951 . S
C1065 C1063 1.382 . S
C1065 C1066 1.390 . S
C1065 H1070 0.949 1_655 S
C1066 C1065 1.390 . S
C1066 C1071 1.399 . S
C1067 C1063 1.404 . S
C1067 H1068 0.950 . S
C1067 C1069 1.375 . S
H1068 C1067 0.950 . S
C1069 C1067 1.375 . S
C1069 C1071 1.382 . S
C1069 H1073 0.950 . S
H1070 C1065 0.949 1_455 S
C1071 C1066 1.399 . S
C1071 C1069 1.382 . S
C1071 H1072 0.952 . S
H1072 C1071 0.952 . S
H1073 C1069 0.950 . S
H1074 C1075 0.949 . S
C1075 H1074 0.949 . S
C1075 C1076 1.395 . S
C1075 C1077 1.391 1_655 S
C1076 C1075 1.395 . S
C1076 C1079 1.390 . S
C1077 C1075 1.391 1_455 S
C1077 C1081 1.387 . S
C1077 C1082 1.491 . S
H1078 C1079 0.950 . S
C1079 C1076 1.390 . S
C1079 H1078 0.950 . S
C1079 C1080 1.378 1_655 S
C1080 C1079 1.378 1_455 S
C1080 C1081 1.409 . S
C1081 C1077 1.387 . S
C1081 C1080 1.409 . S
C1081 H1083 0.951 . S
C1082 C1077 1.491 . S
C1082 C1084 1.382 . S
C1082 C1086 1.404 . S
H1083 C1081 0.951 . S
C1084 C1082 1.382 . S
C1084 C1085 1.390 . S
C1084 H1089 0.946 1_455 S
C1085 C1084 1.390 . S
C1085 C1090 1.399 . S
C1086 C1082 1.404 . S
C1086 H1087 0.950 . S
C1086 C1088 1.375 . S
H1087 C1086 0.950 . S
C1088 C1086 1.375 . S
C1088 C1090 1.382 . S
C1088 H1092 0.950 . S
H1089 C1084 0.946 1_655 S
C1090 C1085 1.399 . S
C1090 C1088 1.382 . S
C1090 H1091 0.952 . S
H1091 C1090 0.952 . S
H1092 C1088 0.950 . S
H1093 C1094 0.949 . S
C1094 H1093 0.949 . S
C1094 C1095 1.395 . S
C1094 C1096 1.391 . S
C1095 C1094 1.395 . S
C1095 C1098 1.390 . S
C1096 C1094 1.391 . S
C1096 C1100 1.387 . S
C1096 C1101 1.491 . S
H1097 C1098 0.950 . S
C1098 C1095 1.390 . S
C1098 H1097 0.950 . S
C1098 C1099 1.378 . S
C1099 C1098 1.378 . S
C1099 C1100 1.409 . S
C1100 C1096 1.387 . S
C1100 C1099 1.409 . S
C1100 H1102 0.951 . S
C1101 C1096 1.491 . S
C1101 C1103 1.382 . S
C1101 C1105 1.404 . S
H1102 C1100 0.951 . S
C1103 C1101 1.382 . S
C1103 C1104 1.390 . S
C1103 H1108 0.949 . S
C1104 C1103 1.390 . S
C1104 C1109 1.399 . S
C1105 C1101 1.404 . S
C1105 H1106 0.950 . S
C1105 C1107 1.375 . S
H1106 C1105 0.950 . S
C1107 C1105 1.375 . S
C1107 C1109 1.382 . S
C1107 H1111 0.950 . S
H1108 C1103 0.949 . S
C1109 C1104 1.399 . S
C1109 C1107 1.382 . S
C1109 H1110 0.952 . S
H1110 C1109 0.952 . S
H1111 C1107 0.950 . S
H1112 C1113 0.949 . S
C1113 H1112 0.949 . S
C1113 C1114 1.395 . S
C1113 C1115 1.391 . S
C1114 C1113 1.395 . S
C1114 C1117 1.390 . S
C1115 C1113 1.391 . S
C1115 C1119 1.387 . S
C1115 C1120 1.491 . S
H1116 C1117 0.950 . S
C1117 C1114 1.390 . S
C1117 H1116 0.950 . S
C1117 C1118 1.378 . S
C1118 C1117 1.378 . S
C1118 C1119 1.409 . S
C1119 C1115 1.387 . S
C1119 C1118 1.409 . S
C1119 H1121 0.951 . S
C1120 C1115 1.491 . S
C1120 C1122 1.382 . S
C1120 C1124 1.404 . S
H1121 C1119 0.951 . S
C1122 C1120 1.382 . S
C1122 C1123 1.390 . S
C1122 H1127 0.949 . S
C1123 C1122 1.390 . S
C1123 C1128 1.399 . S
C1124 C1120 1.404 . S
C1124 H1125 0.950 . S
C1124 C1126 1.375 . S
H1125 C1124 0.950 . S
C1126 C1124 1.375 . S
C1126 C1128 1.382 . S
C1126 H1130 0.950 . S
H1127 C1122 0.949 . S
C1128 C1123 1.399 . S
C1128 C1126 1.382 . S
C1128 H1129 0.952 . S
H1129 C1128 0.952 . S
H1130 C1126 0.950 . S
H1131 C1132 0.949 . S
C1132 H1131 0.949 . S
C1132 C1133 1.395 . S
C1132 C1134 1.391 1_545 S
C1133 C1132 1.395 . S
C1133 C1136 1.390 . S
C1134 C1132 1.391 1_565 S
C1134 C1138 1.387 . S
C1134 C1139 1.491 . S
H1135 C1136 0.950 . S
C1136 C1133 1.390 . S
C1136 H1135 0.950 . S
C1136 C1137 1.378 1_545 S
C1137 C1136 1.378 1_565 S
C1137 C1138 1.409 . S
C1138 C1134 1.387 . S
C1138 C1137 1.409 . S
C1138 H1140 0.951 . S
C1139 C1134 1.491 . S
C1139 C1141 1.382 . S
C1139 C1143 1.404 . S
H1140 C1138 0.951 . S
C1141 C1139 1.382 . S
C1141 C1142 1.390 . S
C1141 H1146 0.949 1_565 S
C1142 C1141 1.390 . S
C1142 C1147 1.399 . S
C1143 C1139 1.404 . S
C1143 H1144 0.950 . S
C1143 C1145 1.375 . S
H1144 C1143 0.950 . S
C1145 C1143 1.375 . S
C1145 C1147 1.382 . S
C1145 H1149 0.950 . S
H1146 C1141 0.949 1_545 S
C1147 C1142 1.399 . S
C1147 C1145 1.382 . S
C1147 H1148 0.952 . S
H1148 C1147 0.952 . S
H1149 C1145 0.950 . S
H1150 C1151 0.949 . S
C1151 H1150 0.949 . S
C1151 C1152 1.395 . S
C1151 C1153 1.391 1_565 S
C1152 C1151 1.395 . S
C1152 C1155 1.390 . S
C1153 C1151 1.391 1_545 S
C1153 C1157 1.387 . S
C1153 C1158 1.491 . S
H1154 C1155 0.950 . S
C1155 C1152 1.390 . S
C1155 H1154 0.950 . S
C1155 C1156 1.378 1_565 S
C1156 C1155 1.378 1_545 S
C1156 C1157 1.409 . S
C1157 C1153 1.387 . S
C1157 C1156 1.409 . S
C1157 H1159 0.951 . S
C1158 C1153 1.491 . S
C1158 C1160 1.382 . S
C1158 C1162 1.404 . S
H1159 C1157 0.951 . S
C1160 C1158 1.382 . S
C1160 C1161 1.390 . S
C1160 H1165 0.946 1_545 S
C1161 C1160 1.390 . S
C1161 C1166 1.399 . S
C1162 C1158 1.404 . S
C1162 H1163 0.950 . S
C1162 C1164 1.375 . S
H1163 C1162 0.950 . S
C1164 C1162 1.375 . S
C1164 C1166 1.382 . S
C1164 H1168 0.950 . S
H1165 C1160 0.946 1_565 S
C1166 C1161 1.399 . S
C1166 C1164 1.382 . S
C1166 H1167 0.952 . S
H1167 C1166 0.952 . S
H1168 C1164 0.950 . S
H1169 C1170 0.949 . S
C1170 H1169 0.949 . S
C1170 C1171 1.395 . S
C1170 C1172 1.391 . S
C1171 C1170 1.395 . S
C1171 C1174 1.390 . S
C1172 C1170 1.391 . S
C1172 C1176 1.387 . S
C1172 C1177 1.491 . S
H1173 C1174 0.950 . S
C1174 C1171 1.390 . S
C1174 H1173 0.950 . S
C1174 C1175 1.378 . S
C1175 C1174 1.378 . S
C1175 C1176 1.409 . S
C1176 C1172 1.387 . S
C1176 C1175 1.409 . S
C1176 H1178 0.951 . S
C1177 C1172 1.491 . S
C1177 C1179 1.382 . S
C1177 C1181 1.404 . S
H1178 C1176 0.951 . S
C1179 C1177 1.382 . S
C1179 C1180 1.390 . S
C1179 H1184 0.949 . S
C1180 C1179 1.390 . S
C1180 C1185 1.399 . S
C1181 C1177 1.404 . S
C1181 H1182 0.950 . S
C1181 C1183 1.375 . S
H1182 C1181 0.950 . S
C1183 C1181 1.375 . S
C1183 C1185 1.382 . S
C1183 H1187 0.950 . S
H1184 C1179 0.949 . S
C1185 C1180 1.399 . S
C1185 C1183 1.382 . S
C1185 H1186 0.952 . S
H1186 C1185 0.952 . S
H1187 C1183 0.950 . S
H1188 C1189 0.949 . S
C1189 H1188 0.949 . S
C1189 C1190 1.395 . S
C1189 C1191 1.391 . S
C1190 C1189 1.395 . S
C1190 C1193 1.390 . S
C1191 C1189 1.391 . S
C1191 C1195 1.387 . S
C1191 C1196 1.491 . S
H1192 C1193 0.950 . S
C1193 C1190 1.390 . S
C1193 H1192 0.950 . S
C1193 C1194 1.378 . S
C1194 C1193 1.378 . S
C1194 C1195 1.409 . S
C1195 C1191 1.387 . S
C1195 C1194 1.409 . S
C1195 H1197 0.951 . S
C1196 C1191 1.491 . S
C1196 C1198 1.382 . S
C1196 C1200 1.404 . S
H1197 C1195 0.951 . S
C1198 C1196 1.382 . S
C1198 C1199 1.390 . S
C1198 H1203 0.949 . S
C1199 C1198 1.390 . S
C1199 C1204 1.399 . S
C1200 C1196 1.404 . S
C1200 H1201 0.950 . S
C1200 C1202 1.375 . S
H1201 C1200 0.950 . S
C1202 C1200 1.375 . S
C1202 C1204 1.382 . S
C1202 H1206 0.950 . S
H1203 C1198 0.949 . S
C1204 C1199 1.399 . S
C1204 C1202 1.382 . S
C1204 H1205 0.952 . S
H1205 C1204 0.952 . S
H1206 C1202 0.950 . S
H1207 C1208 0.949 . S
C1208 H1207 0.949 . S
C1208 C1209 1.395 . S
C1208 C1210 1.391 1_554 S
C1209 C1208 1.395 . S
C1209 C1212 1.390 . S
C1210 C1208 1.391 1_556 S
C1210 C1214 1.387 . S
C1210 C1215 1.491 . S
H1211 C1212 0.950 . S
C1212 C1209 1.390 . S
C1212 H1211 0.950 . S
C1212 C1213 1.378 1_554 S
C1213 C1212 1.378 1_556 S
C1213 C1214 1.409 . S
C1214 C1210 1.387 . S
C1214 C1213 1.409 . S
C1214 H1216 0.951 . S
C1215 C1210 1.491 . S
C1215 C1217 1.382 . S
C1215 C1219 1.404 . S
H1216 C1214 0.951 . S
C1217 C1215 1.382 . S
C1217 C1218 1.390 . S
C1217 H1222 0.949 1_556 S
C1218 C1217 1.390 . S
C1218 C1223 1.399 . S
C1219 C1215 1.404 . S
C1219 H1220 0.950 . S
C1219 C1221 1.375 . S
H1220 C1219 0.950 . S
C1221 C1219 1.375 . S
C1221 C1223 1.382 . S
C1221 H1225 0.950 . S
H1222 C1217 0.949 1_554 S
C1223 C1218 1.399 . S
C1223 C1221 1.382 . S
C1223 H1224 0.952 . S
H1224 C1223 0.952 . S
H1225 C1221 0.950 . S
H1226 C1227 0.949 . S
C1227 H1226 0.949 . S
C1227 C1228 1.395 . S
C1227 C1229 1.391 . S
C1228 C1227 1.395 . S
C1228 C1231 1.390 . S
C1229 C1227 1.391 . S
C1229 C1233 1.387 . S
C1229 C1234 1.491 . S
H1230 C1231 0.950 . S
C1231 C1228 1.390 . S
C1231 H1230 0.950 . S
C1231 C1232 1.378 . S
C1232 C1231 1.378 . S
C1232 C1233 1.409 . S
C1233 C1229 1.387 . S
C1233 C1232 1.409 . S
C1233 H1235 0.951 . S
C1234 C1229 1.491 . S
C1234 C1236 1.382 . S
C1234 C1238 1.404 . S
H1235 C1233 0.951 . S
C1236 C1234 1.382 . S
C1236 C1237 1.390 . S
C1236 H1241 0.949 . S
C1237 C1236 1.390 . S
C1237 C1242 1.399 . S
C1238 C1234 1.404 . S
C1238 H1239 0.950 . S
C1238 C1240 1.375 . S
H1239 C1238 0.950 . S
C1240 C1238 1.375 . S
C1240 C1242 1.382 . S
C1240 H1244 0.950 . S
H1241 C1236 0.949 . S
C1242 C1237 1.399 . S
C1242 C1240 1.382 . S
C1242 H1243 0.952 . S
H1243 C1242 0.952 . S
H1244 C1240 0.950 . S
H1245 C1246 0.949 . S
C1246 H1245 0.949 . S
C1246 C1247 1.395 . S
C1246 C1248 1.391 1_556 S
C1247 C1246 1.395 . S
C1247 C1250 1.390 . S
C1248 C1246 1.391 1_554 S
C1248 C1252 1.387 . S
C1248 C1253 1.491 . S
H1249 C1250 0.950 . S
C1250 C1247 1.390 . S
C1250 H1249 0.950 . S
C1250 C1251 1.378 1_556 S
C1251 C1250 1.378 1_554 S
C1251 C1252 1.409 . S
C1252 C1248 1.387 . S
C1252 C1251 1.409 . S
C1252 H1254 0.951 . S
C1253 C1248 1.491 . S
C1253 C1255 1.382 . S
C1253 C1257 1.404 . S
H1254 C1252 0.951 . S
C1255 C1253 1.382 . S
C1255 C1256 1.390 . S
C1255 H1260 0.949 . S
C1256 C1255 1.390 . S
C1256 C1261 1.399 . S
C1257 C1253 1.404 . S
C1257 H1258 0.950 . S
C1257 C1259 1.375 . S
H1258 C1257 0.950 . S
C1259 C1257 1.375 . S
C1259 C1261 1.382 . S
C1259 H1263 0.950 . S
H1260 C1255 0.949 . S
C1261 C1256 1.399 . S
C1261 C1259 1.382 . S
C1261 H1262 0.952 . S
H1262 C1261 0.952 . S
H1263 C1259 0.950 . S
H1264 C1265 0.949 . S
C1265 H1264 0.949 . S
C1265 C1266 1.395 . S
C1265 C1267 1.391 . S
C1266 C1265 1.395 . S
C1266 C1269 1.390 . S
C1267 C1265 1.391 . S
C1267 C1271 1.387 . S
C1267 C1272 1.491 . S
H1268 C1269 0.950 . S
C1269 C1266 1.390 . S
C1269 H1268 0.950 . S
C1269 C1270 1.378 . S
C1270 C1269 1.378 . S
C1270 C1271 1.409 . S
C1271 C1267 1.387 . S
C1271 C1270 1.409 . S
C1271 H1273 0.951 . S
C1272 C1267 1.491 . S
C1272 C1274 1.382 . S
C1272 C1276 1.404 . S
H1273 C1271 0.951 . S
C1274 C1272 1.382 . S
C1274 C1275 1.390 . S
C1274 H1279 0.949 . S
C1275 C1274 1.390 . S
C1275 C1280 1.399 . S
C1276 C1272 1.404 . S
C1276 H1277 0.950 . S
C1276 C1278 1.375 . S
H1277 C1276 0.950 . S
C1278 C1276 1.375 . S
C1278 C1280 1.382 . S
C1278 H1282 0.950 . S
H1279 C1274 0.949 . S
C1280 C1275 1.399 . S
C1280 C1278 1.382 . S
C1280 H1281 0.952 . S
H1281 C1280 0.952 . S
H1282 C1278 0.950 . S
H1283 C1284 0.949 . S
C1284 H1283 0.949 . S
C1284 C1285 1.395 . S
C1284 C1286 1.391 1_655 S
C1285 C1284 1.395 . S
C1285 C1288 1.390 . S
C1286 C1284 1.391 1_455 S
C1286 C1290 1.387 . S
C1286 C1291 1.491 . S
H1287 C1288 0.950 . S
C1288 C1285 1.390 . S
C1288 H1287 0.950 . S
C1288 C1289 1.378 1_655 S
C1289 C1288 1.378 1_455 S
C1289 C1290 1.409 . S
C1290 C1286 1.387 . S
C1290 C1289 1.409 . S
C1290 H1292 0.951 . S
C1291 C1286 1.491 . S
C1291 C1293 1.382 . S
C1291 C1295 1.404 . S
H1292 C1290 0.951 . S
C1293 C1291 1.382 . S
C1293 C1294 1.390 . S
C1293 H1298 0.949 . S
C1294 C1293 1.390 . S
C1294 C1299 1.399 . S
C1295 C1291 1.404 . S
C1295 H1296 0.950 . S
C1295 C1297 1.375 . S
H1296 C1295 0.950 . S
C1297 C1295 1.375 . S
C1297 C1299 1.382 . S
C1297 H1301 0.950 . S
H1298 C1293 0.949 . S
C1299 C1294 1.399 . S
C1299 C1297 1.382 . S
C1299 H1300 0.952 . S
H1300 C1299 0.952 . S
H1301 C1297 0.950 . S
H1302 C1303 0.949 . S
C1303 H1302 0.949 . S
C1303 C1304 1.395 . S
C1303 C1305 1.391 1_455 S
C1304 C1303 1.395 . S
C1304 C1307 1.390 . S
C1305 C1303 1.391 1_655 S
C1305 C1309 1.387 . S
C1305 C1310 1.491 . S
H1306 C1307 0.950 . S
C1307 C1304 1.390 . S
C1307 H1306 0.950 . S
C1307 C1308 1.378 1_455 S
C1308 C1307 1.378 1_655 S
C1308 C1309 1.409 . S
C1309 C1305 1.387 . S
C1309 C1308 1.409 . S
C1309 H1311 0.951 . S
C1310 C1305 1.491 . S
C1310 C1312 1.382 . S
C1310 C1314 1.404 . S
H1311 C1309 0.951 . S
C1312 C1310 1.382 . S
C1312 C1313 1.390 . S
C1312 H1317 0.949 1_655 S
C1313 C1312 1.390 . S
C1313 C1318 1.399 . S
C1314 C1310 1.404 . S
C1314 H1315 0.950 . S
C1314 C1316 1.375 . S
H1315 C1314 0.950 . S
C1316 C1314 1.375 . S
C1316 C1318 1.382 . S
C1316 H1320 0.950 . S
H1317 C1312 0.949 1_455 S
C1318 C1313 1.399 . S
C1318 C1316 1.382 . S
C1318 H1319 0.952 . S
H1319 C1318 0.952 . S
H1320 C1316 0.950 . S
H1321 C1322 0.949 . S
C1322 H1321 0.949 . S
C1322 C1323 1.395 . S
C1322 C1324 1.391 . S
C1323 C1322 1.395 . S
C1323 C1326 1.390 . S
C1324 C1322 1.391 . S
C1324 C1328 1.387 . S
C1324 C1329 1.491 . S
H1325 C1326 0.950 . S
C1326 C1323 1.390 . S
C1326 H1325 0.950 . S
C1326 C1327 1.378 . S
C1327 C1326 1.378 . S
C1327 C1328 1.409 . S
C1328 C1324 1.387 . S
C1328 C1327 1.409 . S
C1328 H1330 0.951 . S
C1329 C1324 1.491 . S
C1329 C1331 1.382 . S
C1329 C1333 1.404 . S
H1330 C1328 0.951 . S
C1331 C1329 1.382 . S
C1331 C1332 1.390 . S
C1331 H1336 0.949 . S
C1332 C1331 1.390 . S
C1332 C1337 1.399 . S
C1333 C1329 1.404 . S
C1333 H1334 0.950 . S
C1333 C1335 1.375 . S
H1334 C1333 0.950 . S
C1335 C1333 1.375 . S
C1335 C1337 1.382 . S
C1335 H1339 0.950 . S
H1336 C1331 0.949 . S
C1337 C1332 1.399 . S
C1337 C1335 1.382 . S
C1337 H1338 0.952 . S
H1338 C1337 0.952 . S
H1339 C1335 0.950 . S
H1340 C1341 0.949 . S
C1341 H1340 0.949 . S
C1341 C1342 1.395 . S
C1341 C1343 1.391 . S
C1342 C1341 1.395 . S
C1342 C1345 1.390 . S
C1343 C1341 1.391 . S
C1343 C1347 1.387 . S
C1343 C1348 1.491 . S
H1344 C1345 0.950 . S
C1345 C1342 1.390 . S
C1345 H1344 0.950 . S
C1345 C1346 1.378 . S
C1346 C1345 1.378 . S
C1346 C1347 1.409 . S
C1347 C1343 1.387 . S
C1347 C1346 1.409 . S
C1347 H1349 0.951 . S
C1348 C1343 1.491 . S
C1348 C1350 1.382 . S
C1348 C1352 1.404 . S
H1349 C1347 0.951 . S
C1350 C1348 1.382 . S
C1350 C1351 1.390 . S
C1350 H1355 0.949 . S
C1351 C1350 1.390 . S
C1351 C1356 1.399 . S
C1352 C1348 1.404 . S
C1352 H1353 0.950 . S
C1352 C1354 1.375 . S
H1353 C1352 0.950 . S
C1354 C1352 1.375 . S
C1354 C1356 1.382 . S
C1354 H1358 0.950 . S
H1355 C1350 0.949 . S
C1356 C1351 1.399 . S
C1356 C1354 1.382 . S
C1356 H1357 0.952 . S
H1357 C1356 0.952 . S
H1358 C1354 0.950 . S
H1359 C1360 0.949 . S
C1360 H1359 0.949 . S
C1360 C1361 1.395 . S
C1360 C1362 1.391 1_565 S
C1361 C1360 1.395 . S
C1361 C1364 1.390 . S
C1362 C1360 1.391 1_545 S
C1362 C1366 1.387 . S
C1362 C1367 1.491 . S
H1363 C1364 0.950 . S
C1364 C1361 1.390 . S
C1364 H1363 0.950 . S
C1364 C1365 1.378 1_565 S
C1365 C1364 1.378 1_545 S
C1365 C1366 1.409 . S
C1366 C1362 1.387 . S
C1366 C1365 1.409 . S
C1366 H1368 0.951 . S
C1367 C1362 1.491 . S
C1367 C1369 1.382 . S
C1367 C1371 1.404 . S
H1368 C1366 0.951 . S
C1369 C1367 1.382 . S
C1369 C1370 1.390 . S
C1369 H1374 0.949 . S
C1370 C1369 1.390 . S
C1370 C1375 1.399 . S
C1371 C1367 1.404 . S
C1371 H1372 0.950 . S
C1371 C1373 1.375 . S
H1372 C1371 0.950 . S
C1373 C1371 1.375 . S
C1373 C1375 1.382 . S
C1373 H1377 0.950 . S
H1374 C1369 0.949 . S
C1375 C1370 1.399 . S
C1375 C1373 1.382 . S
C1375 H1376 0.952 . S
H1376 C1375 0.952 . S
H1377 C1373 0.950 . S
H1378 C1379 0.949 . S
C1379 H1378 0.949 . S
C1379 C1380 1.395 . S
C1379 C1381 1.391 1_545 S
C1380 C1379 1.395 . S
C1380 C1383 1.390 . S
C1381 C1379 1.391 1_565 S
C1381 C1385 1.387 . S
C1381 C1386 1.491 . S
H1382 C1383 0.950 . S
C1383 C1380 1.390 . S
C1383 H1382 0.950 . S
C1383 C1384 1.378 1_545 S
C1384 C1383 1.378 1_565 S
C1384 C1385 1.409 . S
C1385 C1381 1.387 . S
C1385 C1384 1.409 . S
C1385 H1387 0.951 . S
C1386 C1381 1.491 . S
C1386 C1388 1.382 . S
C1386 C1390 1.404 . S
H1387 C1385 0.951 . S
C1388 C1386 1.382 . S
C1388 C1389 1.390 . S
C1388 H1393 0.949 1_565 S
C1389 C1388 1.390 . S
C1389 C1394 1.399 . S
C1390 C1386 1.404 . S
C1390 H1391 0.950 . S
C1390 C1392 1.375 . S
H1391 C1390 0.950 . S
C1392 C1390 1.375 . S
C1392 C1394 1.382 . S
C1392 H1396 0.950 . S
H1393 C1388 0.949 1_545 S
C1394 C1389 1.399 . S
C1394 C1392 1.382 . S
C1394 H1395 0.952 . S
H1395 C1394 0.952 . S
H1396 C1392 0.950 . S
H1397 C1398 0.949 . S
C1398 H1397 0.949 . S
C1398 C1399 1.395 . S
C1398 C1400 1.391 . S
C1399 C1398 1.395 . S
C1399 C1402 1.390 . S
C1400 C1398 1.391 . S
C1400 C1404 1.387 . S
C1400 C1405 1.491 . S
H1401 C1402 0.950 . S
C1402 C1399 1.390 . S
C1402 H1401 0.950 . S
C1402 C1403 1.378 . S
C1403 C1402 1.378 . S
C1403 C1404 1.409 . S
C1404 C1400 1.387 . S
C1404 C1403 1.409 . S
C1404 H1406 0.951 . S
C1405 C1400 1.491 . S
C1405 C1407 1.382 . S
C1405 C1409 1.404 . S
H1406 C1404 0.951 . S
C1407 C1405 1.382 . S
C1407 C1408 1.390 . S
C1407 H1412 0.949 . S
C1408 C1407 1.390 . S
C1408 C1413 1.399 . S
C1409 C1405 1.404 . S
C1409 H1410 0.950 . S
C1409 C1411 1.375 . S
H1410 C1409 0.950 . S
C1411 C1409 1.375 . S
C1411 C1413 1.382 . S
C1411 H1415 0.950 . S
H1412 C1407 0.949 . S
C1413 C1408 1.399 . S
C1413 C1411 1.382 . S
C1413 H1414 0.952 . S
H1414 C1413 0.952 . S
H1415 C1411 0.950 . S
H1416 C1434 0.951 . S
H1417 C1436 0.951 . S
H1418 C1438 0.950 . S
H1419 C1439 0.950 . S
H1420 C1441 0.950 . S
H1421 C1444 0.950 . S
H1422 C1445 0.950 . S
H1423 C1447 0.950 . S
H1424 C1448 0.950 . S
H1425 C1449 0.951 1_655 S
H1426 C1451 0.951 . S
H1427 C1453 0.950 . S
H1428 C1454 0.942 1_655 S
H1429 C1456 0.950 . S
H1430 C1459 0.950 . S
H1431 C1460 0.950 . S
H1432 C1462 0.950 . S
H1433 C1463 0.950 . S
C1434 H1416 0.951 . S
C1434 C1435 1.366 . S
C1434 C1436 1.388 . S
C1435 C1434 1.366 . S
C1435 C1439 1.385 . S
C1436 H1417 0.951 . S
C1436 C1434 1.388 . S
C1436 C1437 1.366 . S
C1437 C1436 1.366 . S
C1437 C1438 1.414 . S
C1437 C1440 1.499 . S
C1438 H1418 0.950 . S
C1438 C1437 1.414 . S
C1438 C1439 1.374 . S
C1439 H1419 0.950 . S
C1439 C1435 1.385 . S
C1439 C1438 1.374 . S
C1440 C1437 1.499 . S
C1440 C1441 1.373 . S
C1440 C1442 1.389 . S
C1441 H1420 0.950 . S
C1441 C1440 1.373 . S
C1441 C1457 1.377 . S
C1442 C1440 1.389 . S
C1442 C1443 1.524 . S
C1442 C1456 1.377 . S
C1443 C1442 1.524 . S
C1443 C1444 1.397 . S
C1443 C1448 1.363 . S
C1444 H1421 0.950 . S
C1444 C1443 1.397 . S
C1444 C1445 1.334 . S
C1445 H1422 0.950 . S
C1445 C1444 1.334 . S
C1445 C1446 1.287 . S
C1446 C1445 1.287 . S
C1446 C1447 1.524 . S
C1446 H1465 0.913 . S
C1447 H1423 0.950 . S
C1447 C1446 1.524 . S
C1447 C1448 1.415 . S
C1448 H1424 0.950 . S
C1448 C1443 1.363 . S
C1448 C1447 1.415 . S
C1449 H1425 0.951 1_455 S
C1449 C1450 1.366 1_455 S
C1449 C1451 1.388 . S
C1450 C1449 1.366 1_655 S
C1450 C1454 1.385 1_655 S
C1451 H1426 0.951 . S
C1451 C1449 1.388 . S
C1451 C1452 1.366 . S
C1452 C1451 1.366 . S
C1452 C1453 1.414 . S
C1452 C1455 1.499 . S
C1453 H1427 0.950 . S
C1453 C1452 1.414 . S
C1453 C1454 1.374 . S
C1454 H1428 0.942 1_455 S
C1454 C1450 1.385 1_455 S
C1454 C1453 1.374 . S
C1455 C1452 1.499 . S
C1455 C1456 1.373 . S
C1455 C1457 1.389 . S
C1456 H1429 0.950 . S
C1456 C1442 1.377 . S
C1456 C1455 1.373 . S
C1457 C1441 1.377 . S
C1457 C1455 1.389 . S
C1457 C1458 1.524 . S
C1458 C1457 1.524 . S
C1458 C1459 1.397 . S
C1458 C1463 1.363 . S
C1459 H1430 0.950 . S
C1459 C1458 1.397 . S
C1459 C1460 1.334 . S
C1460 H1431 0.950 . S
C1460 C1459 1.334 . S
C1460 C1461 1.287 . S
C1461 C1460 1.287 . S
C1461 C1462 1.524 . S
C1461 H1464 0.999 . S
C1462 H1432 0.950 . S
C1462 C1461 1.524 . S
C1462 C1463 1.415 . S
C1463 H1433 0.950 . S
C1463 C1458 1.363 . S
C1463 C1462 1.415 . S
H1464 C1461 0.999 . S
H1465 C1446 0.913 . S
H1466 C1484 0.951 . S
H1467 C1486 0.951 . S
H1468 C1488 0.950 . S
H1469 C1489 0.950 . S
H1470 C1491 0.950 . S
H1471 C1494 0.950 . S
H1472 C1495 0.950 . S
H1473 C1497 0.950 . S
H1474 C1498 0.950 . S
H1475 C1499 0.951 . S
H1476 C1501 0.951 . S
H1477 C1503 0.950 . S
H1478 C1504 0.950 . S
H1479 C1506 0.950 . S
H1480 C1509 0.950 . S
H1481 C1510 0.950 . S
H1482 C1512 0.950 . S
H1483 C1513 0.950 . S
C1484 H1466 0.951 . S
C1484 C1485 1.366 . S
C1484 C1486 1.388 . S
C1485 C1484 1.366 . S
C1485 C1489 1.385 . S
C1486 H1467 0.951 . S
C1486 C1484 1.388 . S
C1486 C1487 1.366 . S
C1487 C1486 1.366 . S
C1487 C1488 1.414 . S
C1487 C1490 1.499 . S
C1488 H1468 0.950 . S
C1488 C1487 1.414 . S
C1488 C1489 1.374 . S
C1489 H1469 0.950 . S
C1489 C1485 1.385 . S
C1489 C1488 1.374 . S
C1490 C1487 1.499 . S
C1490 C1491 1.373 . S
C1490 C1492 1.389 . S
C1491 H1470 0.950 . S
C1491 C1490 1.373 . S
C1491 C1507 1.377 . S
C1492 C1490 1.389 . S
C1492 C1493 1.524 . S
C1492 C1506 1.377 . S
C1493 C1492 1.524 . S
C1493 C1494 1.397 . S
C1493 C1498 1.363 . S
C1494 H1471 0.950 . S
C1494 C1493 1.397 . S
C1494 C1495 1.334 . S
C1495 H1472 0.950 . S
C1495 C1494 1.334 . S
C1495 C1496 1.287 . S
C1496 C1495 1.287 . S
C1496 C1497 1.524 . S
C1496 H1515 0.913 . S
C1497 H1473 0.950 . S
C1497 C1496 1.524 . S
C1497 C1498 1.415 . S
C1498 H1474 0.950 . S
C1498 C1493 1.363 . S
C1498 C1497 1.415 . S
C1499 H1475 0.951 . S
C1499 C1500 1.366 . S
C1499 C1501 1.388 . S
C1500 C1499 1.366 . S
C1500 C1504 1.385 . S
C1501 H1476 0.951 . S
C1501 C1499 1.388 . S
C1501 C1502 1.366 . S
C1502 C1501 1.366 . S
C1502 C1503 1.414 . S
C1502 C1505 1.499 . S
C1503 H1477 0.950 . S
C1503 C1502 1.414 . S
C1503 C1504 1.374 . S
C1504 H1478 0.950 . S
C1504 C1500 1.385 . S
C1504 C1503 1.374 . S
C1505 C1502 1.499 . S
C1505 C1506 1.373 . S
C1505 C1507 1.389 . S
C1506 H1479 0.950 . S
C1506 C1492 1.377 . S
C1506 C1505 1.373 . S
C1507 C1491 1.377 . S
C1507 C1505 1.389 . S
C1507 C1508 1.524 . S
C1508 C1507 1.524 . S
C1508 C1509 1.397 . S
C1508 C1513 1.363 . S
C1509 H1480 0.950 . S
C1509 C1508 1.397 . S
C1509 C1510 1.334 . S
C1510 H1481 0.950 . S
C1510 C1509 1.334 . S
C1510 C1511 1.287 . S
C1511 C1510 1.287 . S
C1511 C1512 1.524 . S
C1511 H1514 0.999 . S
C1512 H1482 0.950 . S
C1512 C1511 1.524 . S
C1512 C1513 1.415 . S
C1513 H1483 0.950 . S
C1513 C1508 1.363 . S
C1513 C1512 1.415 . S
H1514 C1511 0.999 . S
H1515 C1496 0.913 . S
H1516 C1534 0.951 . S
H1517 C1536 0.951 . S
H1518 C1538 0.950 . S
H1519 C1539 0.950 . S
H1520 C1541 0.950 . S
H1521 C1544 0.950 . S
H1522 C1545 0.950 . S
H1523 C1547 0.950 . S
H1524 C1548 0.950 . S
H1525 C1549 0.951 . S
H1526 C1551 0.951 . S
H1527 C1553 0.950 . S
H1528 C1554 0.950 . S
H1529 C1556 0.950 1_545 S
H1530 C1559 0.950 . S
H1531 C1560 0.950 . S
H1532 C1562 0.950 . S
H1533 C1563 0.950 . S
C1534 H1516 0.951 . S
C1534 C1535 1.366 . S
C1534 C1536 1.388 . S
C1535 C1534 1.366 . S
C1535 C1539 1.385 . S
C1536 H1517 0.951 . S
C1536 C1534 1.388 . S
C1536 C1537 1.366 . S
C1537 C1536 1.366 . S
C1537 C1538 1.414 . S
C1537 C1540 1.499 . S
C1538 H1518 0.950 . S
C1538 C1537 1.414 . S
C1538 C1539 1.374 . S
C1539 H1519 0.950 . S
C1539 C1535 1.385 . S
C1539 C1538 1.374 . S
C1540 C1537 1.499 . S
C1540 C1541 1.373 . S
C1540 C1542 1.387 1_565 S
C1541 H1520 0.950 . S
C1541 C1540 1.373 . S
C1541 C1557 1.377 . S
C1542 C1540 1.387 1_545 S
C1542 C1543 1.527 . S
C1542 C1556 1.376 1_545 S
C1543 C1542 1.527 . S
C1543 C1544 1.397 . S
C1543 C1548 1.363 . S
C1544 H1521 0.950 . S
C1544 C1543 1.397 . S
C1544 C1545 1.334 . S
C1545 H1522 0.950 . S
C1545 C1544 1.334 . S
C1545 C1546 1.287 . S
C1546 C1545 1.287 . S
C1546 C1547 1.524 . S
C1546 H1565 0.913 . S
C1547 H1523 0.950 . S
C1547 C1546 1.524 . S
C1547 C1548 1.415 . S
C1548 H1524 0.950 . S
C1548 C1543 1.363 . S
C1548 C1547 1.415 . S
C1549 H1525 0.951 . S
C1549 C1550 1.366 . S
C1549 C1551 1.388 . S
C1550 C1549 1.366 . S
C1550 C1554 1.385 . S
C1551 H1526 0.951 . S
C1551 C1549 1.388 . S
C1551 C1552 1.366 . S
C1552 C1551 1.366 . S
C1552 C1553 1.414 . S
C1552 C1555 1.499 . S
C1553 H1527 0.950 . S
C1553 C1552 1.414 . S
C1553 C1554 1.374 . S
C1554 H1528 0.950 . S
C1554 C1550 1.385 . S
C1554 C1553 1.374 . S
C1555 C1552 1.499 . S
C1555 C1556 1.373 . S
C1555 C1557 1.389 . S
C1556 H1529 0.950 1_565 S
C1556 C1542 1.376 1_565 S
C1556 C1555 1.373 . S
C1557 C1541 1.377 . S
C1557 C1555 1.389 . S
C1557 C1558 1.524 . S
C1558 C1557 1.524 . S
C1558 C1559 1.397 . S
C1558 C1563 1.363 . S
C1559 H1530 0.950 . S
C1559 C1558 1.397 . S
C1559 C1560 1.334 . S
C1560 H1531 0.950 . S
C1560 C1559 1.334 . S
C1560 C1561 1.287 . S
C1561 C1560 1.287 . S
C1561 C1562 1.524 . S
C1561 H1564 0.999 . S
C1562 H1532 0.950 . S
C1562 C1561 1.524 . S
C1562 C1563 1.415 . S
C1563 H1533 0.950 . S
C1563 C1558 1.363 . S
C1563 C1562 1.415 . S
H1564 C1561 0.999 . S
H1565 C1546 0.913 . S
H1566 C1584 0.951 . S
H1567 C1586 0.951 1_455 S
H1568 C1588 0.950 1_565 S
H1569 C1589 0.952 . S
H1570 C1591 0.950 1_565 S
H1571 C1594 0.950 . S
H1572 C1595 0.950 1_655 S
H1573 C1597 0.950 . S
H1574 C1598 0.950 . S
H1575 C1599 0.951 1_565 S
H1576 C1601 0.951 1_565 S
H1577 C1603 0.950 . S
H1578 C1604 0.950 . S
H1579 C1606 0.950 . S
H1580 C1609 0.950 . S
H1581 C1610 0.950 . S
H1582 C1612 0.950 . S
H1583 C1613 0.950 . S
C1584 H1566 0.951 . S
C1584 C1585 1.366 . S
C1584 C1586 1.388 . S
C1585 C1584 1.366 . S
C1585 C1589 1.385 . S
C1586 H1567 0.951 1_655 S
C1586 C1584 1.388 . S
C1586 C1587 1.366 . S
C1587 C1586 1.366 . S
C1587 C1588 1.414 . S
C1587 C1590 1.499 1_655 S
C1588 H1568 0.950 1_545 S
C1588 C1587 1.414 . S
C1588 C1589 1.374 . S
C1589 H1569 0.952 . S
C1589 C1585 1.385 . S
C1589 C1588 1.374 . S
C1590 C1587 1.499 1_455 S
C1590 C1591 1.373 . S
C1590 C1592 1.389 . S
C1591 H1570 0.950 1_545 S
C1591 C1590 1.373 . S
C1591 C1607 1.383 . S
C1592 C1590 1.389 . S
C1592 C1593 1.524 . S
C1592 C1606 1.377 . S
C1593 C1592 1.524 . S
C1593 C1594 1.397 . S
C1593 C1598 1.363 . S
C1594 H1571 0.950 . S
C1594 C1593 1.397 . S
C1594 C1595 1.334 . S
C1595 H1572 0.950 1_455 S
C1595 C1594 1.334 . S
C1595 C1596 1.287 . S
C1596 C1595 1.287 . S
C1596 C1597 1.524 . S
C1596 H1615 0.913 . S
C1597 H1573 0.950 . S
C1597 C1596 1.524 . S
C1597 C1598 1.415 . S
C1598 H1574 0.950 . S
C1598 C1593 1.363 . S
C1598 C1597 1.415 . S
C1599 H1575 0.951 1_545 S
C1599 C1600 1.366 . S
C1599 C1601 1.388 . S
C1600 C1599 1.366 . S
C1600 C1604 1.385 . S
C1601 H1576 0.951 1_545 S
C1601 C1599 1.388 . S
C1601 C1602 1.366 . S
C1602 C1601 1.366 . S
C1602 C1603 1.414 . S
C1602 C1605 1.499 . S
C1603 H1577 0.950 . S
C1603 C1602 1.414 . S
C1603 C1604 1.374 . S
C1604 H1578 0.950 . S
C1604 C1600 1.385 . S
C1604 C1603 1.374 . S
C1605 C1602 1.499 . S
C1605 C1606 1.373 . S
C1605 C1607 1.415 . S
C1606 H1579 0.950 . S
C1606 C1592 1.377 . S
C1606 C1605 1.373 . S
C1607 C1591 1.383 . S
C1607 C1605 1.415 . S
C1607 C1608 1.492 1_545 S
C1608 C1607 1.492 1_565 S
C1608 C1609 1.397 . S
C1608 C1613 1.363 . S
C1609 H1580 0.950 . S
C1609 C1608 1.397 . S
C1609 C1610 1.334 . S
C1610 H1581 0.950 . S
C1610 C1609 1.334 . S
C1610 C1611 1.287 . S
C1611 C1610 1.287 . S
C1611 C1612 1.524 . S
C1611 H1614 0.999 . S
C1612 H1582 0.950 . S
C1612 C1611 1.524 . S
C1612 C1613 1.415 . S
C1613 H1583 0.950 . S
C1613 C1608 1.363 . S
C1613 C1612 1.415 . S
H1614 C1611 0.999 . S
H1615 C1596 0.913 . S
H1616 C1634 0.951 . S
H1617 C1636 0.951 . S
H1618 C1638 0.950 . S
H1619 C1639 0.950 . S
H1620 C1641 0.950 . S
H1621 C1644 0.950 . S
H1622 C1645 0.950 . S
H1623 C1647 0.950 . S
H1624 C1648 0.950 . S
H1625 C1649 0.948 . S
H1626 C1651 0.951 . S
H1627 C1653 0.950 . S
H1628 C1654 0.950 . S
H1629 C1656 0.950 . S
H1630 C1659 0.950 . S
H1631 C1660 0.950 . S
H1632 C1662 0.950 . S
H1633 C1663 0.950 . S
C1634 H1616 0.951 . S
C1634 C1635 1.366 . S
C1634 C1636 1.388 . S
C1635 C1634 1.366 . S
C1635 C1639 1.385 . S
C1636 H1617 0.951 . S
C1636 C1634 1.388 . S
C1636 C1637 1.366 . S
C1637 C1636 1.366 . S
C1637 C1638 1.414 . S
C1637 C1640 1.499 . S
C1638 H1618 0.950 . S
C1638 C1637 1.414 . S
C1638 C1639 1.374 . S
C1639 H1619 0.950 . S
C1639 C1635 1.385 . S
C1639 C1638 1.374 . S
C1640 C1637 1.499 . S
C1640 C1641 1.373 . S
C1640 C1642 1.389 . S
C1641 H1620 0.950 . S
C1641 C1640 1.373 . S
C1641 C1657 1.377 . S
C1642 C1640 1.389 . S
C1642 C1643 1.524 . S
C1642 C1656 1.377 . S
C1643 C1642 1.524 . S
C1643 C1644 1.397 . S
C1643 C1648 1.363 . S
C1644 H1621 0.950 . S
C1644 C1643 1.397 . S
C1644 C1645 1.334 . S
C1645 H1622 0.950 . S
C1645 C1644 1.334 . S
C1645 C1646 1.287 . S
C1646 C1645 1.287 . S
C1646 C1647 1.524 . S
C1646 H1665 0.913 . S
C1647 H1623 0.950 . S
C1647 C1646 1.524 . S
C1647 C1648 1.415 . S
C1648 H1624 0.950 . S
C1648 C1643 1.363 . S
C1648 C1647 1.415 . S
C1649 H1625 0.948 . S
C1649 C1650 1.365 . S
C1649 C1651 1.391 1_565 S
C1650 C1649 1.365 . S
C1650 C1654 1.385 1_565 S
C1651 H1626 0.951 . S
C1651 C1649 1.391 1_545 S
C1651 C1652 1.366 . S
C1652 C1651 1.366 . S
C1652 C1653 1.414 . S
C1652 C1655 1.499 . S
C1653 H1627 0.950 . S
C1653 C1652 1.414 . S
C1653 C1654 1.374 . S
C1654 H1628 0.950 . S
C1654 C1650 1.385 1_545 S
C1654 C1653 1.374 . S
C1655 C1652 1.499 . S
C1655 C1656 1.373 . S
C1655 C1657 1.389 . S
C1656 H1629 0.950 . S
C1656 C1642 1.377 . S
C1656 C1655 1.373 . S
C1657 C1641 1.377 . S
C1657 C1655 1.389 . S
C1657 C1658 1.524 . S
C1658 C1657 1.524 . S
C1658 C1659 1.397 . S
C1658 C1663 1.363 . S
C1659 H1630 0.950 . S
C1659 C1658 1.397 . S
C1659 C1660 1.334 . S
C1660 H1631 0.950 . S
C1660 C1659 1.334 . S
C1660 C1661 1.287 . S
C1661 C1660 1.287 . S
C1661 C1662 1.524 . S
C1661 H1664 0.999 . S
C1662 H1632 0.950 . S
C1662 C1661 1.524 . S
C1662 C1663 1.415 . S
C1663 H1633 0.950 . S
C1663 C1658 1.363 . S
C1663 C1662 1.415 . S
H1664 C1661 0.999 . S
H1665 C1646 0.913 . S
H1666 C1684 0.951 . S
H1667 C1686 0.951 . S
H1668 C1688 0.950 . S
H1669 C1689 0.950 . S
H1670 C1691 0.950 . S
H1671 C1694 0.950 . S
H1672 C1695 0.950 . S
H1673 C1697 0.950 . S
H1674 C1698 0.950 . S
H1675 C1699 0.951 . S
H1676 C1701 0.951 . S
H1677 C1703 0.950 . S
H1678 C1704 0.950 . S
H1679 C1706 0.950 . S
H1680 C1709 0.950 . S
H1681 C1710 0.950 . S
H1682 C1712 0.950 . S
H1683 C1713 0.950 1_554 S
C1684 H1666 0.951 . S
C1684 C1685 1.366 . S
C1684 C1686 1.388 . S
C1685 C1684 1.366 . S
C1685 C1689 1.385 . S
C1686 H1667 0.951 . S
C1686 C1684 1.388 . S
C1686 C1687 1.366 . S
C1687 C1686 1.366 . S
C1687 C1688 1.414 . S
C1687 C1690 1.499 1_565 S
C1688 H1668 0.950 . S
C1688 C1687 1.414 . S
C1688 C1689 1.374 . S
C1689 H1669 0.950 . S
C1689 C1685 1.385 . S
C1689 C1688 1.374 . S
C1690 C1687 1.499 1_545 S
C1690 C1691 1.373 . S
C1690 C1692 1.389 . S
C1691 H1670 0.950 . S
C1691 C1690 1.373 . S
C1691 C1707 1.377 . S
C1692 C1690 1.389 . S
C1692 C1693 1.524 . S
C1692 C1706 1.377 . S
C1693 C1692 1.524 . S
C1693 C1694 1.397 . S
C1693 C1698 1.363 . S
C1694 H1671 0.950 . S
C1694 C1693 1.397 . S
C1694 C1695 1.334 . S
C1695 H1672 0.950 . S
C1695 C1694 1.334 . S
C1695 C1696 1.287 . S
C1696 C1695 1.287 . S
C1696 C1697 1.524 . S
C1696 H1715 0.913 . S
C1697 H1673 0.950 . S
C1697 C1696 1.524 . S
C1697 C1698 1.415 . S
C1698 H1674 0.950 . S
C1698 C1693 1.363 . S
C1698 C1697 1.415 . S
C1699 H1675 0.951 . S
C1699 C1700 1.366 . S
C1699 C1701 1.388 . S
C1700 C1699 1.366 . S
C1700 C1704 1.385 . S
C1701 H1676 0.951 . S
C1701 C1699 1.388 . S
C1701 C1702 1.366 . S
C1702 C1701 1.366 . S
C1702 C1703 1.414 . S
C1702 C1705 1.499 . S
C1703 H1677 0.950 . S
C1703 C1702 1.414 . S
C1703 C1704 1.374 . S
C1704 H1678 0.950 . S
C1704 C1700 1.385 . S
C1704 C1703 1.374 . S
C1705 C1702 1.499 . S
C1705 C1706 1.373 . S
C1705 C1707 1.389 . S
C1706 H1679 0.950 . S
C1706 C1692 1.377 . S
C1706 C1705 1.373 . S
C1707 C1691 1.377 . S
C1707 C1705 1.389 . S
C1707 C1708 1.524 1_554 S
C1708 C1707 1.524 1_556 S
C1708 C1709 1.397 . S
C1708 C1713 1.363 . S
C1709 H1680 0.950 . S
C1709 C1708 1.397 . S
C1709 C1710 1.334 . S
C1710 H1681 0.950 . S
C1710 C1709 1.334 . S
C1710 C1711 1.287 . S
C1711 C1710 1.287 . S
C1711 C1712 1.524 . S
C1711 H1714 0.999 . S
C1712 H1682 0.950 . S
C1712 C1711 1.524 . S
C1712 C1713 1.415 . S
C1713 H1683 0.950 1_556 S
C1713 C1708 1.363 . S
C1713 C1712 1.415 . S
H1714 C1711 0.999 . S
H1715 C1696 0.913 . S
H1716 C1734 0.951 . S
H1717 C1736 0.951 . S
H1718 C1738 0.950 . S
H1719 C1739 0.950 . S
H1720 C1741 0.950 . S
H1721 C1744 0.950 . S
H1722 C1745 0.950 . S
H1723 C1747 0.950 . S
H1724 C1748 0.950 . S
H1725 C1749 0.951 . S
H1726 C1751 0.951 . S
H1727 C1753 0.950 . S
H1728 C1754 0.950 . S
H1729 C1756 0.950 . S
H1730 C1759 0.950 . S
H1731 C1760 0.950 . S
H1732 C1762 0.950 . S
H1733 C1763 0.950 . S
C1734 H1716 0.951 . S
C1734 C1735 1.366 . S
C1734 C1736 1.388 . S
C1735 C1734 1.366 . S
C1735 C1739 1.385 . S
C1736 H1717 0.951 . S
C1736 C1734 1.388 . S
C1736 C1737 1.366 . S
C1737 C1736 1.366 . S
C1737 C1738 1.414 . S
C1737 C1740 1.499 . S
C1738 H1718 0.950 . S
C1738 C1737 1.414 . S
C1738 C1739 1.374 . S
C1739 H1719 0.950 . S
C1739 C1735 1.385 . S
C1739 C1738 1.374 . S
C1740 C1737 1.499 . S
C1740 C1741 1.373 . S
C1740 C1742 1.389 . S
C1741 H1720 0.950 . S
C1741 C1740 1.373 . S
C1741 C1757 1.377 . S
C1742 C1740 1.389 . S
C1742 C1743 1.524 . S
C1742 C1756 1.377 . S
C1743 C1742 1.524 . S
C1743 C1744 1.397 . S
C1743 C1748 1.363 . S
C1744 H1721 0.950 . S
C1744 C1743 1.397 . S
C1744 C1745 1.334 . S
C1745 H1722 0.950 . S
C1745 C1744 1.334 . S
C1745 C1746 1.287 . S
C1746 C1745 1.287 . S
C1746 C1747 1.524 . S
C1746 H1765 0.913 . S
C1747 H1723 0.950 . S
C1747 C1746 1.524 . S
C1747 C1748 1.415 . S
C1748 H1724 0.950 . S
C1748 C1743 1.363 . S
C1748 C1747 1.415 . S
C1749 H1725 0.951 . S
C1749 C1750 1.366 . S
C1749 C1751 1.388 . S
C1750 C1749 1.366 . S
C1750 C1754 1.385 . S
C1751 H1726 0.951 . S
C1751 C1749 1.388 . S
C1751 C1752 1.366 . S
C1752 C1751 1.366 . S
C1752 C1753 1.414 . S
C1752 C1755 1.499 . S
C1753 H1727 0.950 . S
C1753 C1752 1.414 . S
C1753 C1754 1.374 . S
C1754 H1728 0.950 . S
C1754 C1750 1.385 . S
C1754 C1753 1.374 . S
C1755 C1752 1.499 . S
C1755 C1756 1.373 . S
C1755 C1757 1.389 . S
C1756 H1729 0.950 . S
C1756 C1742 1.377 . S
C1756 C1755 1.373 . S
C1757 C1741 1.377 . S
C1757 C1755 1.389 . S
C1757 C1758 1.524 . S
C1758 C1757 1.524 . S
C1758 C1759 1.397 . S
C1758 C1763 1.363 . S
C1759 H1730 0.950 . S
C1759 C1758 1.397 . S
C1759 C1760 1.334 . S
C1760 H1731 0.950 . S
C1760 C1759 1.334 . S
C1760 C1761 1.287 . S
C1761 C1760 1.287 . S
C1761 C1762 1.524 . S
C1761 H1764 0.999 . S
C1762 H1732 0.950 . S
C1762 C1761 1.524 . S
C1762 C1763 1.415 . S
C1763 H1733 0.950 . S
C1763 C1758 1.363 . S
C1763 C1762 1.415 . S
H1764 C1761 0.999 . S
H1765 C1746 0.913 . S
H1766 C1784 0.951 . S
H1767 C1786 0.951 . S
H1768 C1788 0.936 1_554 S
H1769 C1789 0.950 1_554 S
H1770 C1791 0.950 . S
H1771 C1794 0.950 . S
H1772 C1795 0.950 . S
H1773 C1797 0.950 . S
H1774 C1798 0.950 . S
H1775 C1799 0.951 . S
H1776 C1801 0.951 . S
H1777 C1803 0.950 . S
H1778 C1804 0.950 . S
H1779 C1806 0.950 . S
H1780 C1809 0.950 . S
H1781 C1810 0.950 . S
H1782 C1812 0.950 . S
H1783 C1813 0.950 . S
C1784 H1766 0.951 . S
C1784 C1785 1.366 . S
C1784 C1786 1.388 . S
C1785 C1784 1.366 . S
C1785 C1789 1.385 . S
C1786 H1767 0.951 . S
C1786 C1784 1.388 . S
C1786 C1787 1.366 . S
C1787 C1786 1.366 . S
C1787 C1788 1.414 . S
C1787 C1790 1.499 . S
C1788 H1768 0.936 1_556 S
C1788 C1787 1.414 . S
C1788 C1789 1.374 . S
C1789 H1769 0.950 1_556 S
C1789 C1785 1.385 . S
C1789 C1788 1.374 . S
C1790 C1787 1.499 . S
C1790 C1791 1.373 1_556 S
C1790 C1792 1.389 . S
C1791 H1770 0.950 . S
C1791 C1790 1.373 1_554 S
C1791 C1807 1.377 . S
C1792 C1790 1.389 . S
C1792 C1793 1.524 . S
C1792 C1806 1.377 . S
C1793 C1792 1.524 . S
C1793 C1794 1.397 . S
C1793 C1798 1.363 . S
C1794 H1771 0.950 . S
C1794 C1793 1.397 . S
C1794 C1795 1.334 . S
C1795 H1772 0.950 . S
C1795 C1794 1.334 . S
C1795 C1796 1.287 . S
C1796 C1795 1.287 . S
C1796 C1797 1.524 . S
C1796 H1815 0.913 . S
C1797 H1773 0.950 . S
C1797 C1796 1.524 . S
C1797 C1798 1.415 . S
C1798 H1774 0.950 . S
C1798 C1793 1.363 . S
C1798 C1797 1.415 . S
C1799 H1775 0.951 . S
C1799 C1800 1.366 . S
C1799 C1801 1.388 . S
C1800 C1799 1.366 . S
C1800 C1804 1.385 . S
C1801 H1776 0.951 . S
C1801 C1799 1.388 . S
C1801 C1802 1.366 . S
C1802 C1801 1.366 . S
C1802 C1803 1.414 . S
C1802 C1805 1.499 . S
C1803 H1777 0.950 . S
C1803 C1802 1.414 . S
C1803 C1804 1.374 . S
C1804 H1778 0.950 . S
C1804 C1800 1.385 . S
C1804 C1803 1.374 . S
C1805 C1802 1.499 . S
C1805 C1806 1.373 . S
C1805 C1807 1.389 1_556 S
C1806 H1779 0.950 . S
C1806 C1792 1.377 . S
C1806 C1805 1.373 . S
C1807 C1791 1.377 . S
C1807 C1805 1.389 1_554 S
C1807 C1808 1.524 . S
C1808 C1807 1.524 . S
C1808 C1809 1.397 . S
C1808 C1813 1.363 . S
C1809 H1780 0.950 . S
C1809 C1808 1.397 . S
C1809 C1810 1.334 . S
C1810 H1781 0.950 . S
C1810 C1809 1.334 . S
C1810 C1811 1.287 . S
C1811 C1810 1.287 . S
C1811 C1812 1.524 . S
C1811 H1814 0.999 . S
C1812 H1782 0.950 . S
C1812 C1811 1.524 . S
C1812 C1813 1.415 . S
C1813 H1783 0.950 . S
C1813 C1808 1.363 . S
C1813 C1812 1.415 . S
H1814 C1811 0.999 . S
H1815 C1796 0.913 . S
H1816 C1834 0.951 . S
H1817 C1836 0.951 . S
H1818 C1838 0.950 . S
H1819 C1839 0.950 . S
H1820 C1841 0.950 . S
H1821 C1844 0.950 . S
H1822 C1845 0.950 . S
H1823 C1847 0.950 . S
H1824 C1848 0.950 . S
H1825 C1849 0.934 1_556 S
H1826 C1851 0.951 . S
H1827 C1853 0.950 . S
H1828 C1854 0.950 . S
H1829 C1856 0.950 . S
H1830 C1859 0.950 . S
H1831 C1860 0.950 . S
H1832 C1862 0.950 . S
H1833 C1863 0.950 . S
C1834 H1816 0.951 . S
C1834 C1835 1.366 . S
C1834 C1836 1.388 . S
C1835 C1834 1.366 . S
C1835 C1839 1.385 . S
C1836 H1817 0.951 . S
C1836 C1834 1.388 . S
C1836 C1837 1.366 . S
C1837 C1836 1.366 . S
C1837 C1838 1.414 . S
C1837 C1840 1.499 . S
C1838 H1818 0.950 . S
C1838 C1837 1.414 . S
C1838 C1839 1.374 . S
C1839 H1819 0.950 . S
C1839 C1835 1.385 . S
C1839 C1838 1.374 . S
C1840 C1837 1.499 . S
C1840 C1841 1.373 . S
C1840 C1842 1.389 . S
C1841 H1820 0.950 . S
C1841 C1840 1.373 . S
C1841 C1857 1.377 . S
C1842 C1840 1.389 . S
C1842 C1843 1.524 . S
C1842 C1856 1.377 . S
C1843 C1842 1.524 . S
C1843 C1844 1.397 . S
C1843 C1848 1.363 . S
C1844 H1821 0.950 . S
C1844 C1843 1.397 . S
C1844 C1845 1.334 . S
C1845 H1822 0.950 . S
C1845 C1844 1.334 . S
C1845 C1846 1.287 . S
C1846 C1845 1.287 . S
C1846 C1847 1.524 . S
C1846 H1865 0.913 . S
C1847 H1823 0.950 . S
C1847 C1846 1.524 . S
C1847 C1848 1.415 . S
C1848 H1824 0.950 . S
C1848 C1843 1.363 . S
C1848 C1847 1.415 . S
C1849 H1825 0.934 1_554 S
C1849 C1850 1.361 1_554 S
C1849 C1851 1.409 . S
C1850 C1849 1.361 1_556 S
C1850 C1854 1.385 1_556 S
C1851 H1826 0.951 . S
C1851 C1849 1.409 . S
C1851 C1852 1.366 . S
C1852 C1851 1.366 . S
C1852 C1853 1.414 . S
C1852 C1855 1.499 . S
C1853 H1827 0.950 . S
C1853 C1852 1.414 . S
C1853 C1854 1.374 . S
C1854 H1828 0.950 . S
C1854 C1850 1.385 1_554 S
C1854 C1853 1.374 . S
C1855 C1852 1.499 . S
C1855 C1856 1.373 . S
C1855 C1857 1.389 . S
C1856 H1829 0.950 . S
C1856 C1842 1.377 . S
C1856 C1855 1.373 . S
C1857 C1841 1.377 . S
C1857 C1855 1.389 . S
C1857 C1858 1.524 . S
C1858 C1857 1.524 . S
C1858 C1859 1.397 . S
C1858 C1863 1.363 . S
C1859 H1830 0.950 . S
C1859 C1858 1.397 . S
C1859 C1860 1.334 . S
C1860 H1831 0.950 . S
C1860 C1859 1.334 . S
C1860 C1861 1.287 . S
C1861 C1860 1.287 . S
C1861 C1862 1.524 . S
C1861 H1864 0.999 . S
C1862 H1832 0.950 . S
C1862 C1861 1.524 . S
C1862 C1863 1.415 . S
C1863 H1833 0.950 . S
C1863 C1858 1.363 . S
C1863 C1862 1.415 . S
H1864 C1861 0.999 . S
H1865 C1846 0.913 . S
H1866 C1884 0.951 . S
H1867 C1886 0.951 . S
H1868 C1888 0.950 . S
H1869 C1889 0.950 . S
H1870 C1891 0.950 1_655 S
H1871 C1894 0.950 . S
H1872 C1895 0.950 . S
H1873 C1897 0.950 . S
H1874 C1898 0.950 . S
H1875 C1899 0.951 . S
H1876 C1901 0.951 . S
H1877 C1903 0.950 . S
H1878 C1904 0.950 . S
H1879 C1906 0.950 . S
H1880 C1909 0.950 . S
H1881 C1910 0.950 . S
H1882 C1912 0.950 . S
H1883 C1913 0.950 . S
C1884 H1866 0.951 . S
C1884 C1885 1.366 . S
C1884 C1886 1.388 . S
C1885 C1884 1.366 . S
C1885 C1889 1.385 . S
C1886 H1867 0.951 . S
C1886 C1884 1.388 . S
C1886 C1887 1.366 . S
C1887 C1886 1.366 . S
C1887 C1888 1.414 . S
C1887 C1890 1.499 1_556 S
C1888 H1868 0.950 . S
C1888 C1887 1.414 . S
C1888 C1889 1.374 . S
C1889 H1869 0.950 . S
C1889 C1885 1.385 . S
C1889 C1888 1.374 . S
C1890 C1887 1.499 1_554 S
C1890 C1891 1.373 . S
C1890 C1892 1.389 . S
C1891 H1870 0.950 1_455 S
C1891 C1890 1.373 . S
C1891 C1907 1.377 . S
C1892 C1890 1.389 . S
C1892 C1893 1.524 . S
C1892 C1906 1.377 . S
C1893 C1892 1.524 . S
C1893 C1894 1.397 . S
C1893 C1898 1.363 . S
C1894 H1871 0.950 . S
C1894 C1893 1.397 . S
C1894 C1895 1.334 . S
C1895 H1872 0.950 . S
C1895 C1894 1.334 . S
C1895 C1896 1.287 . S
C1896 C1895 1.287 . S
C1896 C1897 1.524 . S
C1896 H1915 0.913 . S
C1897 H1873 0.950 . S
C1897 C1896 1.524 . S
C1897 C1898 1.415 . S
C1898 H1874 0.950 . S
C1898 C1893 1.363 . S
C1898 C1897 1.415 . S
C1899 H1875 0.951 . S
C1899 C1900 1.366 . S
C1899 C1901 1.388 . S
C1900 C1899 1.366 . S
C1900 C1904 1.385 . S
C1901 H1876 0.951 . S
C1901 C1899 1.388 . S
C1901 C1902 1.366 . S
C1902 C1901 1.366 . S
C1902 C1903 1.414 . S
C1902 C1905 1.499 . S
C1903 H1877 0.950 . S
C1903 C1902 1.414 . S
C1903 C1904 1.374 . S
C1904 H1878 0.950 . S
C1904 C1900 1.385 . S
C1904 C1903 1.374 . S
C1905 C1902 1.499 . S
C1905 C1906 1.373 . S
C1905 C1907 1.389 . S
C1906 H1879 0.950 . S
C1906 C1892 1.377 . S
C1906 C1905 1.373 . S
C1907 C1891 1.377 . S
C1907 C1905 1.389 . S
C1907 C1908 1.524 1_455 S
C1908 C1907 1.524 1_655 S
C1908 C1909 1.397 . S
C1908 C1913 1.363 . S
C1909 H1880 0.950 . S
C1909 C1908 1.397 . S
C1909 C1910 1.334 . S
C1910 H1881 0.950 . S
C1910 C1909 1.334 . S
C1910 C1911 1.287 . S
C1911 C1910 1.287 . S
C1911 C1912 1.524 . S
C1911 H1914 0.999 . S
C1912 H1882 0.950 . S
C1912 C1911 1.524 . S
C1912 C1913 1.415 . S
C1913 H1883 0.950 . S
C1913 C1908 1.363 . S
C1913 C1912 1.415 . S
H1914 C1911 0.999 . S
H1915 C1896 0.913 . S
H1916 C1934 0.951 . S
H1917 C1936 0.951 . S
H1918 C1938 0.950 . S
H1919 C1939 0.950 . S
H1920 C1941 0.950 . S
H1921 C1944 0.950 . S
H1922 C1945 0.950 . S
H1923 C1947 0.950 . S
H1924 C1948 0.950 . S
H1925 C1949 0.951 . S
H1926 C1951 0.951 . S
H1927 C1953 0.950 . S
H1928 C1954 0.950 . S
H1929 C1956 0.950 . S
H1930 C1959 0.950 . S
H1931 C1960 0.950 . S
H1932 C1962 0.950 . S
H1933 C1963 0.950 . S
C1934 H1916 0.951 . S
C1934 C1935 1.366 . S
C1934 C1936 1.388 . S
C1935 C1934 1.366 . S
C1935 C1939 1.385 . S
C1936 H1917 0.951 . S
C1936 C1934 1.388 . S
C1936 C1937 1.366 . S
C1937 C1936 1.366 . S
C1937 C1938 1.414 . S
C1937 C1940 1.499 . S
C1938 H1918 0.950 . S
C1938 C1937 1.414 . S
C1938 C1939 1.374 . S
C1939 H1919 0.950 . S
C1939 C1935 1.385 . S
C1939 C1938 1.374 . S
C1940 C1937 1.499 . S
C1940 C1941 1.373 . S
C1940 C1942 1.389 . S
C1941 H1920 0.950 . S
C1941 C1940 1.373 . S
C1941 C1957 1.377 . S
C1942 C1940 1.389 . S
C1942 C1943 1.524 . S
C1942 C1956 1.377 . S
C1943 C1942 1.524 . S
C1943 C1944 1.397 . S
C1943 C1948 1.363 . S
C1944 H1921 0.950 . S
C1944 C1943 1.397 . S
C1944 C1945 1.334 . S
C1945 H1922 0.950 . S
C1945 C1944 1.334 . S
C1945 C1946 1.287 . S
C1946 C1945 1.287 . S
C1946 C1947 1.524 . S
C1946 H1965 0.913 . S
C1947 H1923 0.950 . S
C1947 C1946 1.524 . S
C1947 C1948 1.415 . S
C1948 H1924 0.950 . S
C1948 C1943 1.363 . S
C1948 C1947 1.415 . S
C1949 H1925 0.951 . S
C1949 C1950 1.366 . S
C1949 C1951 1.388 . S
C1950 C1949 1.366 . S
C1950 C1954 1.385 . S
C1951 H1926 0.951 . S
C1951 C1949 1.388 . S
C1951 C1952 1.366 . S
C1952 C1951 1.366 . S
C1952 C1953 1.414 . S
C1952 C1955 1.499 . S
C1953 H1927 0.950 . S
C1953 C1952 1.414 . S
C1953 C1954 1.374 . S
C1954 H1928 0.950 . S
C1954 C1950 1.385 . S
C1954 C1953 1.374 . S
C1955 C1952 1.499 . S
C1955 C1956 1.373 . S
C1955 C1957 1.389 . S
C1956 H1929 0.950 . S
C1956 C1942 1.377 . S
C1956 C1955 1.373 . S
C1957 C1941 1.377 . S
C1957 C1955 1.389 . S
C1957 C1958 1.524 . S
C1958 C1957 1.524 . S
C1958 C1959 1.397 . S
C1958 C1963 1.363 . S
C1959 H1930 0.950 . S
C1959 C1958 1.397 . S
C1959 C1960 1.334 . S
C1960 H1931 0.950 . S
C1960 C1959 1.334 . S
C1960 C1961 1.287 . S
C1961 C1960 1.287 . S
C1961 C1962 1.524 . S
C1961 H1964 0.999 . S
C1962 H1932 0.950 . S
C1962 C1961 1.524 . S
C1962 C1963 1.415 . S
C1963 H1933 0.950 . S
C1963 C1958 1.363 . S
C1963 C1962 1.415 . S
H1964 C1961 0.999 . S
H1965 C1946 0.913 . S
H1966 C1984 0.951 . S
H1967 C1986 0.951 . S
H1968 C1988 0.950 . S
H1969 C1989 0.950 . S
H1970 C1991 0.950 . S
H1971 C1994 0.950 . S
H1972 C1995 0.950 . S
H1973 C1997 0.950 . S
H1974 C1998 0.950 . S
H1975 C1999 0.947 1_455 S
H1976 C2001 0.951 1_455 S
H1977 C2003 0.950 . S
H1978 C2004 0.950 . S
H1979 C2006 0.950 . S
H1980 C2009 0.950 . S
H1981 C2010 0.950 . S
H1982 C2012 0.950 . S
H1983 C2013 0.950 . S
C1984 H1966 0.951 . S
C1984 C1985 1.366 . S
C1984 C1986 1.388 . S
C1985 C1984 1.366 . S
C1985 C1989 1.385 1_655 S
C1986 H1967 0.951 . S
C1986 C1984 1.388 . S
C1986 C1987 1.366 . S
C1987 C1986 1.366 . S
C1987 C1988 1.414 1_655 S
C1987 C1990 1.499 . S
C1988 H1968 0.950 . S
C1988 C1987 1.414 1_455 S
C1988 C1989 1.374 . S
C1989 H1969 0.950 . S
C1989 C1985 1.385 1_455 S
C1989 C1988 1.374 . S
C1990 C1987 1.499 . S
C1990 C1991 1.373 1_655 S
C1990 C1992 1.389 . S
C1991 H1970 0.950 . S
C1991 C1990 1.373 1_455 S
C1991 C2007 1.377 . S
C1992 C1990 1.389 . S
C1992 C1993 1.524 . S
C1992 C2006 1.377 . S
C1993 C1992 1.524 . S
C1993 C1994 1.397 . S
C1993 C1998 1.363 . S
C1994 H1971 0.950 . S
C1994 C1993 1.397 . S
C1994 C1995 1.334 . S
C1995 H1972 0.950 . S
C1995 C1994 1.334 . S
C1995 C1996 1.287 . S
C1996 C1995 1.287 . S
C1996 C1997 1.524 . S
C1996 H2015 0.913 . S
C1997 H1973 0.950 . S
C1997 C1996 1.524 . S
C1997 C1998 1.415 . S
C1998 H1974 0.950 . S
C1998 C1993 1.363 . S
C1998 C1997 1.415 . S
C1999 H1975 0.947 1_655 S
C1999 C2000 1.366 . S
C1999 C2001 1.388 . S
C2000 C1999 1.366 . S
C2000 C2004 1.385 . S
C2001 H1976 0.951 1_655 S
C2001 C1999 1.388 . S
C2001 C2002 1.366 . S
C2002 C2001 1.366 . S
C2002 C2003 1.414 . S
C2002 C2005 1.499 . S
C2003 H1977 0.950 . S
C2003 C2002 1.414 . S
C2003 C2004 1.374 . S
C2004 H1978 0.950 . S
C2004 C2000 1.385 . S
C2004 C2003 1.374 . S
C2005 C2002 1.499 . S
C2005 C2006 1.373 . S
C2005 C2007 1.389 1_655 S
C2006 H1979 0.950 . S
C2006 C1992 1.377 . S
C2006 C2005 1.373 . S
C2007 C1991 1.377 . S
C2007 C2005 1.389 1_455 S
C2007 C2008 1.524 . S
C2008 C2007 1.524 . S
C2008 C2009 1.397 . S
C2008 C2013 1.363 . S
C2009 H1980 0.950 . S
C2009 C2008 1.397 . S
C2009 C2010 1.334 . S
C2010 H1981 0.950 . S
C2010 C2009 1.334 . S
C2010 C2011 1.287 . S
C2011 C2010 1.287 . S
C2011 C2012 1.524 . S
C2011 H2014 0.999 . S
C2012 H1982 0.950 . S
C2012 C2011 1.524 . S
C2012 C2013 1.415 . S
C2013 H1983 0.950 . S
C2013 C2008 1.363 . S
C2013 C2012 1.415 . S
H2014 C2011 0.999 . S
H2015 C1996 0.913 . S
H2016 C2034 0.951 . S
H2017 C2036 0.951 . S
H2018 C2038 0.950 . S
H2019 C2039 0.950 . S
H2020 C2041 0.950 . S
H2021 C2044 0.950 . S
H2022 C2045 0.950 . S
H2023 C2047 0.950 . S
H2024 C2048 0.950 . S
H2025 C2049 0.949 1_455 S
H2026 C2051 0.951 . S
H2027 C2053 0.950 . S
H2028 C2054 0.950 1_455 S
H2029 C2056 0.950 . S
H2030 C2059 0.950 . S
H2031 C2060 0.950 . S
H2032 C2062 0.950 . S
H2033 C2063 0.950 . S
C2034 H2016 0.951 . S
C2034 C2035 1.366 . S
C2034 C2036 1.388 . S
C2035 C2034 1.366 . S
C2035 C2039 1.385 . S
C2036 H2017 0.951 . S
C2036 C2034 1.388 . S
C2036 C2037 1.366 . S
C2037 C2036 1.366 . S
C2037 C2038 1.414 . S
C2037 C2040 1.499 . S
C2038 H2018 0.950 . S
C2038 C2037 1.414 . S
C2038 C2039 1.374 . S
C2039 H2019 0.950 . S
C2039 C2035 1.385 . S
C2039 C2038 1.374 . S
C2040 C2037 1.499 . S
C2040 C2041 1.373 . S
C2040 C2042 1.389 . S
C2041 H2020 0.950 . S
C2041 C2040 1.373 . S
C2041 C2057 1.377 . S
C2042 C2040 1.389 . S
C2042 C2043 1.524 . S
C2042 C2056 1.377 . S
C2043 C2042 1.524 . S
C2043 C2044 1.397 . S
C2043 C2048 1.363 . S
C2044 H2021 0.950 . S
C2044 C2043 1.397 . S
C2044 C2045 1.334 . S
C2045 H2022 0.950 . S
C2045 C2044 1.334 . S
C2045 C2046 1.287 . S
C2046 C2045 1.287 . S
C2046 C2047 1.524 . S
C2046 H2065 0.913 . S
C2047 H2023 0.950 . S
C2047 C2046 1.524 . S
C2047 C2048 1.415 . S
C2048 H2024 0.950 . S
C2048 C2043 1.363 . S
C2048 C2047 1.415 . S
C2049 H2025 0.949 1_655 S
C2049 C2050 1.366 1_655 S
C2049 C2051 1.388 . S
C2050 C2049 1.366 1_455 S
C2050 C2054 1.385 1_455 S
C2051 H2026 0.951 . S
C2051 C2049 1.388 . S
C2051 C2052 1.366 . S
C2052 C2051 1.366 . S
C2052 C2053 1.414 . S
C2052 C2055 1.499 . S
C2053 H2027 0.950 . S
C2053 C2052 1.414 . S
C2053 C2054 1.374 . S
C2054 H2028 0.950 1_655 S
C2054 C2050 1.385 1_655 S
C2054 C2053 1.374 . S
C2055 C2052 1.499 . S
C2055 C2056 1.373 . S
C2055 C2057 1.389 . S
C2056 H2029 0.950 . S
C2056 C2042 1.377 . S
C2056 C2055 1.373 . S
C2057 C2041 1.377 . S
C2057 C2055 1.389 . S
C2057 C2058 1.524 . S
C2058 C2057 1.524 . S
C2058 C2059 1.397 . S
C2058 C2063 1.363 . S
C2059 H2030 0.950 . S
C2059 C2058 1.397 . S
C2059 C2060 1.334 . S
C2060 H2031 0.950 . S
C2060 C2059 1.334 . S
C2060 C2061 1.287 . S
C2061 C2060 1.287 . S
C2061 C2062 1.524 . S
C2061 H2064 0.999 . S
C2062 H2032 0.950 . S
C2062 C2061 1.524 . S
C2062 C2063 1.415 . S
C2063 H2033 0.950 . S
C2063 C2058 1.363 . S
C2063 C2062 1.415 . S
H2064 C2061 0.999 . S
H2065 C2046 0.913 . S
H2066 C2084 0.951 . S
H2067 C2086 0.951 . S
H2068 C2088 0.950 . S
H2069 C2089 0.950 . S
H2070 C2091 0.950 . S
H2071 C2094 0.950 . S
H2072 C2095 0.950 . S
H2073 C2097 0.950 . S
H2074 C2098 0.950 . S
H2075 C2099 0.951 . S
H2076 C2101 0.951 . S
H2077 C2103 0.950 . S
H2078 C2104 0.950 . S
H2079 C2106 0.950 . S
H2080 C2109 0.950 . S
H2081 C2110 0.950 . S
H2082 C2112 0.950 . S
H2083 C2113 0.950 . S
C2084 H2066 0.951 . S
C2084 C2085 1.366 . S
C2084 C2086 1.388 . S
C2085 C2084 1.366 . S
C2085 C2089 1.385 . S
C2086 H2067 0.951 . S
C2086 C2084 1.388 . S
C2086 C2087 1.366 . S
C2087 C2086 1.366 . S
C2087 C2088 1.414 . S
C2087 C2090 1.499 . S
C2088 H2068 0.950 . S
C2088 C2087 1.414 . S
C2088 C2089 1.374 . S
C2089 H2069 0.950 . S
C2089 C2085 1.385 . S
C2089 C2088 1.374 . S
C2090 C2087 1.499 . S
C2090 C2091 1.373 . S
C2090 C2092 1.389 . S
C2091 H2070 0.950 . S
C2091 C2090 1.373 . S
C2091 C2107 1.377 . S
C2092 C2090 1.389 . S
C2092 C2093 1.524 . S
C2092 C2106 1.377 . S
C2093 C2092 1.524 . S
C2093 C2094 1.397 . S
C2093 C2098 1.363 . S
C2094 H2071 0.950 . S
C2094 C2093 1.397 . S
C2094 C2095 1.334 . S
C2095 H2072 0.950 . S
C2095 C2094 1.334 . S
C2095 C2096 1.287 . S
C2096 C2095 1.287 . S
C2096 C2097 1.524 . S
C2096 H2115 0.913 . S
C2097 H2073 0.950 . S
C2097 C2096 1.524 . S
C2097 C2098 1.415 . S
C2098 H2074 0.950 . S
C2098 C2093 1.363 . S
C2098 C2097 1.415 . S
C2099 H2075 0.951 . S
C2099 C2100 1.366 . S
C2099 C2101 1.388 . S
C2100 C2099 1.366 . S
C2100 C2104 1.385 . S
C2101 H2076 0.951 . S
C2101 C2099 1.388 . S
C2101 C2102 1.366 . S
C2102 C2101 1.366 . S
C2102 C2103 1.414 . S
C2102 C2105 1.499 . S
C2103 H2077 0.950 . S
C2103 C2102 1.414 . S
C2103 C2104 1.374 . S
C2104 H2078 0.950 . S
C2104 C2100 1.385 . S
C2104 C2103 1.374 . S
C2105 C2102 1.499 . S
C2105 C2106 1.373 . S
C2105 C2107 1.389 . S
C2106 H2079 0.950 . S
C2106 C2092 1.377 . S
C2106 C2105 1.373 . S
C2107 C2091 1.377 . S
C2107 C2105 1.389 . S
C2107 C2108 1.524 . S
C2108 C2107 1.524 . S
C2108 C2109 1.397 . S
C2108 C2113 1.363 . S
C2109 H2080 0.950 . S
C2109 C2108 1.397 . S
C2109 C2110 1.334 . S
C2110 H2081 0.950 . S
C2110 C2109 1.334 . S
C2110 C2111 1.287 . S
C2111 C2110 1.287 . S
C2111 C2112 1.524 . S
C2111 H2114 0.999 . S
C2112 H2082 0.950 . S
C2112 C2111 1.524 . S
C2112 C2113 1.415 . S
C2113 H2083 0.950 . S
C2113 C2108 1.363 . S
C2113 C2112 1.415 . S
H2114 C2111 0.999 . S
H2115 C2096 0.913 . S
H2116 C2134 0.951 . S
H2117 C2136 0.951 . S
H2118 C2138 0.950 . S
H2119 C2139 0.950 . S
H2120 C2141 0.939 1_565 S
H2121 C2144 0.950 . S
H2122 C2145 0.950 . S
H2123 C2147 0.950 . S
H2124 C2148 0.950 . S
H2125 C2149 0.951 . S
H2126 C2151 0.951 . S
H2127 C2153 0.950 . S
H2128 C2154 0.950 . S
H2129 C2156 0.950 . S
H2130 C2159 0.950 . S
H2131 C2160 0.950 . S
H2132 C2162 0.950 . S
H2133 C2163 0.950 . S
C2134 H2116 0.951 . S
C2134 C2135 1.366 . S
C2134 C2136 1.388 . S
C2135 C2134 1.366 . S
C2135 C2139 1.385 . S
C2136 H2117 0.951 . S
C2136 C2134 1.388 . S
C2136 C2137 1.366 . S
C2137 C2136 1.366 . S
C2137 C2138 1.414 . S
C2137 C2140 1.499 . S
C2138 H2118 0.950 . S
C2138 C2137 1.414 . S
C2138 C2139 1.374 . S
C2139 H2119 0.950 . S
C2139 C2135 1.385 . S
C2139 C2138 1.374 . S
C2140 C2137 1.499 . S
C2140 C2141 1.386 . S
C2140 C2142 1.389 . S
C2141 H2120 0.939 1_545 S
C2141 C2140 1.386 . S
C2141 C2157 1.377 . S
C2142 C2140 1.389 . S
C2142 C2143 1.524 . S
C2142 C2156 1.377 . S
C2143 C2142 1.524 . S
C2143 C2144 1.397 . S
C2143 C2148 1.363 . S
C2144 H2121 0.950 . S
C2144 C2143 1.397 . S
C2144 C2145 1.334 . S
C2145 H2122 0.950 . S
C2145 C2144 1.334 . S
C2145 C2146 1.287 . S
C2146 C2145 1.287 . S
C2146 C2147 1.524 . S
C2146 H2165 0.913 . S
C2147 H2123 0.950 . S
C2147 C2146 1.524 . S
C2147 C2148 1.415 . S
C2148 H2124 0.950 . S
C2148 C2143 1.363 . S
C2148 C2147 1.415 . S
C2149 H2125 0.951 . S
C2149 C2150 1.366 . S
C2149 C2151 1.388 . S
C2150 C2149 1.366 . S
C2150 C2154 1.385 . S
C2151 H2126 0.951 . S
C2151 C2149 1.388 . S
C2151 C2152 1.366 . S
C2152 C2151 1.366 . S
C2152 C2153 1.414 . S
C2152 C2155 1.499 . S
C2153 H2127 0.950 . S
C2153 C2152 1.414 . S
C2153 C2154 1.374 . S
C2154 H2128 0.950 . S
C2154 C2150 1.385 . S
C2154 C2153 1.374 . S
C2155 C2152 1.499 . S
C2155 C2156 1.373 . S
C2155 C2157 1.406 . S
C2156 H2129 0.950 . S
C2156 C2142 1.377 . S
C2156 C2155 1.373 . S
C2157 C2141 1.377 . S
C2157 C2155 1.406 . S
C2157 C2158 1.503 1_545 S
C2158 C2157 1.503 1_565 S
C2158 C2159 1.397 . S
C2158 C2163 1.363 . S
C2159 H2130 0.950 . S
C2159 C2158 1.397 . S
C2159 C2160 1.334 . S
C2160 H2131 0.950 . S
C2160 C2159 1.334 . S
C2160 C2161 1.287 . S
C2161 C2160 1.287 . S
C2161 C2162 1.524 . S
C2161 H2164 0.999 . S
C2162 H2132 0.950 . S
C2162 C2161 1.524 . S
C2162 C2163 1.415 . S
C2163 H2133 0.950 . S
C2163 C2158 1.363 . S
C2163 C2162 1.415 . S
H2164 C2161 0.999 . S
H2165 C2146 0.913 . S
H2166 C2184 0.951 1_545 S
H2167 C2186 0.951 1_545 S
H2168 C2188 0.950 . S
H2169 C2189 0.950 . S
H2170 C2191 0.950 . S
H2171 C2194 0.950 1_565 S
H2172 C2195 0.950 . S
H2173 C2197 0.950 . S
H2174 C2198 0.950 . S
H2175 C2199 0.951 . S
H2176 C2201 0.951 . S
H2177 C2203 0.991 . S
H2178 C2204 0.950 . S
H2179 C2206 0.950 1_545 S
H2180 C2209 0.950 . S
H2181 C2210 0.950 . S
H2182 C2212 0.950 . S
H2183 C2213 0.950 . S
C2184 H2166 0.951 1_565 S
C2184 C2185 1.366 . S
C2184 C2186 1.388 . S
C2185 C2184 1.366 . S
C2185 C2189 1.385 . S
C2186 H2167 0.951 1_565 S
C2186 C2184 1.388 . S
C2186 C2187 1.366 . S
C2187 C2186 1.366 . S
C2187 C2188 1.414 . S
C2187 C2190 1.499 1_455 S
C2188 H2168 0.950 . S
C2188 C2187 1.414 . S
C2188 C2189 1.374 . S
C2189 H2169 0.950 . S
C2189 C2185 1.385 . S
C2189 C2188 1.374 . S
C2190 C2187 1.499 1_655 S
C2190 C2191 1.373 . S
C2190 C2192 1.389 . S
C2191 H2170 0.950 . S
C2191 C2190 1.373 . S
C2191 C2207 1.377 . S
C2192 C2190 1.389 . S
C2192 C2193 1.524 1_565 S
C2192 C2206 1.377 . S
C2193 C2192 1.524 1_545 S
C2193 C2194 1.397 . S
C2193 C2198 1.363 . S
C2194 H2171 0.950 1_545 S
C2194 C2193 1.397 . S
C2194 C2195 1.334 1_655 S
C2195 H2172 0.950 . S
C2195 C2194 1.334 1_455 S
C2195 C2196 1.287 . S
C2196 C2195 1.287 . S
C2196 C2197 1.524 1_455 S
C2196 H2215 0.913 . S
C2197 H2173 0.950 . S
C2197 C2196 1.524 1_655 S
C2197 C2198 1.415 . S
C2198 H2174 0.950 . S
C2198 C2193 1.363 . S
C2198 C2197 1.415 . S
C2199 H2175 0.951 . S
C2199 C2200 1.366 . S
C2199 C2201 1.388 . S
C2200 C2199 1.366 . S
C2200 C2204 1.385 1_565 S
C2201 H2176 0.951 . S
C2201 C2199 1.388 . S
C2201 C2202 1.366 . S
C2202 C2201 1.366 . S
C2202 C2203 1.367 1_565 S
C2202 C2205 1.499 . S
C2203 H2177 0.991 . S
C2203 C2202 1.367 1_545 S
C2203 C2204 1.382 . S
C2204 H2178 0.950 . S
C2204 C2200 1.385 1_545 S
C2204 C2203 1.382 . S
C2205 C2202 1.499 . S
C2205 C2206 1.373 . S
C2205 C2207 1.389 . S
C2206 H2179 0.950 1_565 S
C2206 C2192 1.377 . S
C2206 C2205 1.373 . S
C2207 C2191 1.377 . S
C2207 C2205 1.389 . S
C2207 C2208 1.524 . S
C2208 C2207 1.524 . S
C2208 C2209 1.397 . S
C2208 C2213 1.363 . S
C2209 H2180 0.950 . S
C2209 C2208 1.397 . S
C2209 C2210 1.334 . S
C2210 H2181 0.950 . S
C2210 C2209 1.334 . S
C2210 C2211 1.287 . S
C2211 C2210 1.287 . S
C2211 C2212 1.524 . S
C2211 H2214 0.999 . S
C2212 H2182 0.950 . S
C2212 C2211 1.524 . S
C2212 C2213 1.415 . S
C2213 H2183 0.950 . S
C2213 C2208 1.363 . S
C2213 C2212 1.415 . S
H2214 C2211 0.999 . S
H2215 C2196 0.913 . S
H2216 C2234 0.951 . S
H2217 C2236 0.951 . S
H2218 C2238 0.950 . S
H2219 C2239 0.950 . S
H2220 C2241 0.950 . S
H2221 C2244 0.950 . S
H2222 C2245 0.950 . S
H2223 C2247 0.950 . S
H2224 C2248 0.950 . S
H2225 C2249 0.951 . S
H2226 C2251 0.951 . S
H2227 C2253 0.950 . S
H2228 C2254 0.982 . S
H2229 C2256 0.950 . S
H2230 C2259 0.950 . S
H2231 C2260 0.950 . S
H2232 C2262 0.950 . S
H2233 C2263 0.950 . S
C2234 H2216 0.951 . S
C2234 C2235 1.366 . S
C2234 C2236 1.388 . S
C2235 C2234 1.366 . S
C2235 C2239 1.385 . S
C2236 H2217 0.951 . S
C2236 C2234 1.388 . S
C2236 C2237 1.366 . S
C2237 C2236 1.366 . S
C2237 C2238 1.414 . S
C2237 C2240 1.499 . S
C2238 H2218 0.950 . S
C2238 C2237 1.414 . S
C2238 C2239 1.374 . S
C2239 H2219 0.950 . S
C2239 C2235 1.385 . S
C2239 C2238 1.374 . S
C2240 C2237 1.499 . S
C2240 C2241 1.373 . S
C2240 C2242 1.389 . S
C2241 H2220 0.950 . S
C2241 C2240 1.373 . S
C2241 C2257 1.377 . S
C2242 C2240 1.389 . S
C2242 C2243 1.524 . S
C2242 C2256 1.377 . S
C2243 C2242 1.524 . S
C2243 C2244 1.397 . S
C2243 C2248 1.363 . S
C2244 H2221 0.950 . S
C2244 C2243 1.397 . S
C2244 C2245 1.334 . S
C2245 H2222 0.950 . S
C2245 C2244 1.334 . S
C2245 C2246 1.287 . S
C2246 C2245 1.287 . S
C2246 C2247 1.524 . S
C2246 H2265 0.913 . S
C2247 H2223 0.950 . S
C2247 C2246 1.524 . S
C2247 C2248 1.415 . S
C2248 H2224 0.950 . S
C2248 C2243 1.363 . S
C2248 C2247 1.415 . S
C2249 H2225 0.951 . S
C2249 C2250 1.366 1_565 S
C2249 C2251 1.388 . S
C2250 C2249 1.366 1_545 S
C2250 C2254 1.401 . S
C2251 H2226 0.951 . S
C2251 C2249 1.388 . S
C2251 C2252 1.366 . S
C2252 C2251 1.366 . S
C2252 C2253 1.414 . S
C2252 C2255 1.499 . S
C2253 H2227 0.950 . S
C2253 C2252 1.414 . S
C2253 C2254 1.327 1_565 S
C2254 H2228 0.982 . S
C2254 C2250 1.401 . S
C2254 C2253 1.327 1_545 S
C2255 C2252 1.499 . S
C2255 C2256 1.373 . S
C2255 C2257 1.389 . S
C2256 H2229 0.950 . S
C2256 C2242 1.377 . S
C2256 C2255 1.373 . S
C2257 C2241 1.377 . S
C2257 C2255 1.389 . S
C2257 C2258 1.524 . S
C2258 C2257 1.524 . S
C2258 C2259 1.397 . S
C2258 C2263 1.363 . S
C2259 H2230 0.950 . S
C2259 C2258 1.397 . S
C2259 C2260 1.334 . S
C2260 H2231 0.950 . S
C2260 C2259 1.334 . S
C2260 C2261 1.287 . S
C2261 C2260 1.287 . S
C2261 C2262 1.524 . S
C2261 H2264 0.999 . S
C2262 H2232 0.950 . S
C2262 C2261 1.524 . S
C2262 C2263 1.415 . S
C2263 H2233 0.950 . S
C2263 C2258 1.363 . S
C2263 C2262 1.415 . S
H2264 C2261 0.999 . S
H2265 C2246 0.913 . S
H2266 C2284 0.951 . S
H2267 C2286 0.951 . S
H2268 C2288 0.950 . S
H2269 C2289 0.950 . S
H2270 C2291 0.950 1_554 S
H2271 C2294 0.950 . S
H2272 C2295 0.950 . S
H2273 C2297 0.950 . S
H2274 C2298 0.950 . S
H2275 C2299 0.951 . S
H2276 C2301 0.951 . S
H2277 C2303 0.950 . S
H2278 C2304 0.950 . S
H2279 C2306 0.950 . S
H2280 C2309 0.950 . S
H2281 C2310 0.950 . S
H2282 C2312 0.950 . S
H2283 C2313 0.950 . S
C2284 H2266 0.951 . S
C2284 C2285 1.366 . S
C2284 C2286 1.388 . S
C2285 C2284 1.366 . S
C2285 C2289 1.385 . S
C2286 H2267 0.951 . S
C2286 C2284 1.388 . S
C2286 C2287 1.366 . S
C2287 C2286 1.366 . S
C2287 C2288 1.414 . S
C2287 C2290 1.499 1_545 S
C2288 H2268 0.950 . S
C2288 C2287 1.414 . S
C2288 C2289 1.374 . S
C2289 H2269 0.950 . S
C2289 C2285 1.385 . S
C2289 C2288 1.374 . S
C2290 C2287 1.499 1_565 S
C2290 C2291 1.373 . S
C2290 C2292 1.389 . S
C2291 H2270 0.950 1_556 S
C2291 C2290 1.373 . S
C2291 C2307 1.377 . S
C2292 C2290 1.389 . S
C2292 C2293 1.524 . S
C2292 C2306 1.377 . S
C2293 C2292 1.524 . S
C2293 C2294 1.397 . S
C2293 C2298 1.363 . S
C2294 H2271 0.950 . S
C2294 C2293 1.397 . S
C2294 C2295 1.334 . S
C2295 H2272 0.950 . S
C2295 C2294 1.334 . S
C2295 C2296 1.287 . S
C2296 C2295 1.287 . S
C2296 C2297 1.524 . S
C2296 H2315 0.913 . S
C2297 H2273 0.950 . S
C2297 C2296 1.524 . S
C2297 C2298 1.415 . S
C2298 H2274 0.950 . S
C2298 C2293 1.363 . S
C2298 C2297 1.415 . S
C2299 H2275 0.951 . S
C2299 C2300 1.366 . S
C2299 C2301 1.388 . S
C2300 C2299 1.366 . S
C2300 C2304 1.385 . S
C2301 H2276 0.951 . S
C2301 C2299 1.388 . S
C2301 C2302 1.366 . S
C2302 C2301 1.366 . S
C2302 C2303 1.414 . S
C2302 C2305 1.499 . S
C2303 H2277 0.950 . S
C2303 C2302 1.414 . S
C2303 C2304 1.374 . S
C2304 H2278 0.950 . S
C2304 C2300 1.385 . S
C2304 C2303 1.374 . S
C2305 C2302 1.499 . S
C2305 C2306 1.373 . S
C2305 C2307 1.389 . S
C2306 H2279 0.950 . S
C2306 C2292 1.377 . S
C2306 C2305 1.373 . S
C2307 C2291 1.377 . S
C2307 C2305 1.389 . S
C2307 C2308 1.524 1_556 S
C2308 C2307 1.524 1_554 S
C2308 C2309 1.397 . S
C2308 C2313 1.363 . S
C2309 H2280 0.950 . S
C2309 C2308 1.397 . S
C2309 C2310 1.334 . S
C2310 H2281 0.950 . S
C2310 C2309 1.334 . S
C2310 C2311 1.287 . S
C2311 C2310 1.287 . S
C2311 C2312 1.524 . S
C2311 H2314 0.999 . S
C2312 H2282 0.950 . S
C2312 C2311 1.524 . S
C2312 C2313 1.415 . S
C2313 H2283 0.950 . S
C2313 C2308 1.363 . S
C2313 C2312 1.415 . S
H2314 C2311 0.999 . S
H2315 C2296 0.913 . S
H2316 C2334 0.951 . S
H2317 C2336 0.951 . S
H2318 C2338 0.950 . S
H2319 C2339 0.950 . S
H2320 C2341 0.950 . S
H2321 C2344 0.950 . S
H2322 C2345 0.950 . S
H2323 C2347 0.950 . S
H2324 C2348 0.950 . S
H2325 C2349 0.951 . S
H2326 C2351 0.951 . S
H2327 C2353 0.950 . S
H2328 C2354 0.950 . S
H2329 C2356 0.950 . S
H2330 C2359 0.950 . S
H2331 C2360 0.950 . S
H2332 C2362 0.950 . S
H2333 C2363 0.950 . S
C2334 H2316 0.951 . S
C2334 C2335 1.366 . S
C2334 C2336 1.388 . S
C2335 C2334 1.366 . S
C2335 C2339 1.385 . S
C2336 H2317 0.951 . S
C2336 C2334 1.388 . S
C2336 C2337 1.366 . S
C2337 C2336 1.366 . S
C2337 C2338 1.414 . S
C2337 C2340 1.499 . S
C2338 H2318 0.950 . S
C2338 C2337 1.414 . S
C2338 C2339 1.374 . S
C2339 H2319 0.950 . S
C2339 C2335 1.385 . S
C2339 C2338 1.374 . S
C2340 C2337 1.499 . S
C2340 C2341 1.373 . S
C2340 C2342 1.389 . S
C2341 H2320 0.950 . S
C2341 C2340 1.373 . S
C2341 C2357 1.377 . S
C2342 C2340 1.389 . S
C2342 C2343 1.524 . S
C2342 C2356 1.377 . S
C2343 C2342 1.524 . S
C2343 C2344 1.397 . S
C2343 C2348 1.363 . S
C2344 H2321 0.950 . S
C2344 C2343 1.397 . S
C2344 C2345 1.334 . S
C2345 H2322 0.950 . S
C2345 C2344 1.334 . S
C2345 C2346 1.287 . S
C2346 C2345 1.287 . S
C2346 C2347 1.524 . S
C2346 H2365 0.913 . S
C2347 H2323 0.950 . S
C2347 C2346 1.524 . S
C2347 C2348 1.415 . S
C2348 H2324 0.950 . S
C2348 C2343 1.363 . S
C2348 C2347 1.415 . S
C2349 H2325 0.951 . S
C2349 C2350 1.366 . S
C2349 C2351 1.388 . S
C2350 C2349 1.366 . S
C2350 C2354 1.385 . S
C2351 H2326 0.951 . S
C2351 C2349 1.388 . S
C2351 C2352 1.366 . S
C2352 C2351 1.366 . S
C2352 C2353 1.414 . S
C2352 C2355 1.499 . S
C2353 H2327 0.950 . S
C2353 C2352 1.414 . S
C2353 C2354 1.374 . S
C2354 H2328 0.950 . S
C2354 C2350 1.385 . S
C2354 C2353 1.374 . S
C2355 C2352 1.499 . S
C2355 C2356 1.373 . S
C2355 C2357 1.389 . S
C2356 H2329 0.950 . S
C2356 C2342 1.377 . S
C2356 C2355 1.373 . S
C2357 C2341 1.377 . S
C2357 C2355 1.389 . S
C2357 C2358 1.524 . S
C2358 C2357 1.524 . S
C2358 C2359 1.397 . S
C2358 C2363 1.363 . S
C2359 H2330 0.950 . S
C2359 C2358 1.397 . S
C2359 C2360 1.334 . S
C2360 H2331 0.950 . S
C2360 C2359 1.334 . S
C2360 C2361 1.287 . S
C2361 C2360 1.287 . S
C2361 C2362 1.524 . S
C2361 H2364 0.999 . S
C2362 H2332 0.950 . S
C2362 C2361 1.524 . S
C2362 C2363 1.415 . S
C2363 H2333 0.950 . S
C2363 C2358 1.363 . S
C2363 C2362 1.415 . S
H2364 C2361 0.999 . S
H2365 C2346 0.913 . S
H2366 C2384 0.951 . S
H2367 C2386 0.951 . S
H2368 C2388 0.950 . S
H2369 C2389 0.950 . S
H2370 C2391 0.950 . S
H2371 C2394 0.950 . S
H2372 C2395 0.950 . S
H2373 C2397 0.950 . S
H2374 C2398 0.950 . S
H2375 C2399 0.951 1_556 S
H2376 C2401 0.950 1_556 S
H2377 C2403 0.950 . S
H2378 C2404 0.950 . S
H2379 C2406 0.950 . S
H2380 C2409 0.950 1_554 S
H2381 C2410 0.950 . S
H2382 C2412 0.950 . S
H2383 C2413 0.950 . S
C2384 H2366 0.951 . S
C2384 C2385 1.366 . S
C2384 C2386 1.388 . S
C2385 C2384 1.366 . S
C2385 C2389 1.385 1_554 S
C2386 H2367 0.951 . S
C2386 C2384 1.388 . S
C2386 C2387 1.366 . S
C2387 C2386 1.366 . S
C2387 C2388 1.414 1_554 S
C2387 C2390 1.499 . S
C2388 H2368 0.950 . S
C2388 C2387 1.414 1_556 S
C2388 C2389 1.374 . S
C2389 H2369 0.950 . S
C2389 C2385 1.385 1_556 S
C2389 C2388 1.374 . S
C2390 C2387 1.499 . S
C2390 C2391 1.373 1_554 S
C2390 C2392 1.389 . S
C2391 H2370 0.950 . S
C2391 C2390 1.373 1_556 S
C2391 C2407 1.377 1_556 S
C2392 C2390 1.389 . S
C2392 C2393 1.524 . S
C2392 C2406 1.377 . S
C2393 C2392 1.524 . S
C2393 C2394 1.397 . S
C2393 C2398 1.363 . S
C2394 H2371 0.950 . S
C2394 C2393 1.397 . S
C2394 C2395 1.334 . S
C2395 H2372 0.950 . S
C2395 C2394 1.334 . S
C2395 C2396 1.287 . S
C2396 C2395 1.287 . S
C2396 C2397 1.524 . S
C2396 H2415 0.913 . S
C2397 H2373 0.950 . S
C2397 C2396 1.524 . S
C2397 C2398 1.415 . S
C2398 H2374 0.950 . S
C2398 C2393 1.363 . S
C2398 C2397 1.415 . S
C2399 H2375 0.951 1_554 S
C2399 C2400 1.366 . S
C2399 C2401 1.388 . S
C2400 C2399 1.366 . S
C2400 C2404 1.385 . S
C2401 H2376 0.950 1_554 S
C2401 C2399 1.388 . S
C2401 C2402 1.366 . S
C2402 C2401 1.366 . S
C2402 C2403 1.414 . S
C2402 C2405 1.499 . S
C2403 H2377 0.950 . S
C2403 C2402 1.414 . S
C2403 C2404 1.374 . S
C2404 H2378 0.950 . S
C2404 C2400 1.385 . S
C2404 C2403 1.374 . S
C2405 C2402 1.499 . S
C2405 C2406 1.373 . S
C2405 C2407 1.403 . S
C2406 H2379 0.950 . S
C2406 C2392 1.377 . S
C2406 C2405 1.373 . S
C2407 C2391 1.377 1_554 S
C2407 C2405 1.403 . S
C2407 C2408 1.510 1_554 S
C2408 C2407 1.510 1_556 S
C2408 C2409 1.397 . S
C2408 C2413 1.363 . S
C2409 H2380 0.950 1_556 S
C2409 C2408 1.397 . S
C2409 C2410 1.334 . S
C2410 H2381 0.950 . S
C2410 C2409 1.334 . S
C2410 C2411 1.287 . S
C2411 C2410 1.287 . S
C2411 C2412 1.524 . S
C2411 H2414 0.999 . S
C2412 H2382 0.950 . S
C2412 C2411 1.524 . S
C2412 C2413 1.415 . S
C2413 H2383 0.950 . S
C2413 C2408 1.363 . S
C2413 C2412 1.415 . S
H2414 C2411 0.999 . S
H2415 C2396 0.913 . S
H2416 C2434 0.951 . S
H2417 C2436 0.951 . S
H2418 C2438 0.950 . S
H2419 C2439 0.950 . S
H2420 C2441 0.950 . S
H2421 C2444 0.950 . S
H2422 C2445 0.950 . S
H2423 C2447 0.950 . S
H2424 C2448 0.950 . S
H2425 C2449 1.007 . S
H2426 C2451 0.951 . S
H2427 C2453 0.950 . S
H2428 C2454 0.950 . S
H2429 C2456 0.950 . S
H2430 C2459 0.950 . S
H2431 C2460 0.950 . S
H2432 C2462 0.950 . S
H2433 C2463 0.950 . S
C2434 H2416 0.951 . S
C2434 C2435 1.366 . S
C2434 C2436 1.388 . S
C2435 C2434 1.366 . S
C2435 C2439 1.385 . S
C2436 H2417 0.951 . S
C2436 C2434 1.388 . S
C2436 C2437 1.366 . S
C2437 C2436 1.366 . S
C2437 C2438 1.414 . S
C2437 C2440 1.499 . S
C2438 H2418 0.950 . S
C2438 C2437 1.414 . S
C2438 C2439 1.374 . S
C2439 H2419 0.950 . S
C2439 C2435 1.385 . S
C2439 C2438 1.374 . S
C2440 C2437 1.499 . S
C2440 C2441 1.373 . S
C2440 C2442 1.389 . S
C2441 H2420 0.950 . S
C2441 C2440 1.373 . S
C2441 C2457 1.377 . S
C2442 C2440 1.389 . S
C2442 C2443 1.524 . S
C2442 C2456 1.377 . S
C2443 C2442 1.524 . S
C2443 C2444 1.397 . S
C2443 C2448 1.363 . S
C2444 H2421 0.950 . S
C2444 C2443 1.397 . S
C2444 C2445 1.334 . S
C2445 H2422 0.950 . S
C2445 C2444 1.334 . S
C2445 C2446 1.287 . S
C2446 C2445 1.287 . S
C2446 C2447 1.524 . S
C2446 H2465 0.913 . S
C2447 H2423 0.950 . S
C2447 C2446 1.524 . S
C2447 C2448 1.415 . S
C2448 H2424 0.950 . S
C2448 C2443 1.363 . S
C2448 C2447 1.415 . S
C2449 H2425 1.007 . S
C2449 C2450 1.384 . S
C2449 C2451 1.318 1_554 S
C2450 C2449 1.384 . S
C2450 C2454 1.385 1_554 S
C2451 H2426 0.951 . S
C2451 C2449 1.318 1_556 S
C2451 C2452 1.366 . S
C2452 C2451 1.366 . S
C2452 C2453 1.414 . S
C2452 C2455 1.499 . S
C2453 H2427 0.950 . S
C2453 C2452 1.414 . S
C2453 C2454 1.374 . S
C2454 H2428 0.950 . S
C2454 C2450 1.385 1_556 S
C2454 C2453 1.374 . S
C2455 C2452 1.499 . S
C2455 C2456 1.373 . S
C2455 C2457 1.389 . S
C2456 H2429 0.950 . S
C2456 C2442 1.377 . S
C2456 C2455 1.373 . S
C2457 C2441 1.377 . S
C2457 C2455 1.389 . S
C2457 C2458 1.524 . S
C2458 C2457 1.524 . S
C2458 C2459 1.397 . S
C2458 C2463 1.363 . S
C2459 H2430 0.950 . S
C2459 C2458 1.397 . S
C2459 C2460 1.334 . S
C2460 H2431 0.950 . S
C2460 C2459 1.334 . S
C2460 C2461 1.287 . S
C2461 C2460 1.287 . S
C2461 C2462 1.524 . S
C2461 H2464 0.999 . S
C2462 H2432 0.950 . S
C2462 C2461 1.524 . S
C2462 C2463 1.415 . S
C2463 H2433 0.950 . S
C2463 C2458 1.363 . S
C2463 C2462 1.415 . S
H2464 C2461 0.999 . S
H2465 C2446 0.913 . S
H2466 C2484 0.951 . S
H2467 C2486 0.950 1_556 S
H2468 C2488 0.950 1_455 S
H2469 C2489 0.950 1_455 S
H2470 C2491 0.950 . S
H2471 C2494 0.950 1_455 S
H2472 C2495 0.950 1_454 S
H2473 C2497 0.950 . S
H2474 C2498 0.950 . S
H2475 C2499 0.908 1_455 S
H2476 C2501 0.951 1_455 S
H2477 C2503 0.950 . S
H2478 C2504 0.950 . S
H2479 C2506 0.950 . S
H2480 C2509 0.950 . S
H2481 C2510 0.950 . S
H2482 C2512 0.950 1_455 S
H2483 C2513 0.950 1_455 S
C2484 H2466 0.951 . S
C2484 C2485 1.366 . S
C2484 C2486 1.388 . S
C2485 C2484 1.366 . S
C2485 C2489 1.385 . S
C2486 H2467 0.950 1_554 S
C2486 C2484 1.388 . S
C2486 C2487 1.366 . S
C2487 C2486 1.366 . S
C2487 C2488 1.414 . S
C2487 C2490 1.499 1_554 S
C2488 H2468 0.950 1_655 S
C2488 C2487 1.414 . S
C2488 C2489 1.374 . S
C2489 H2469 0.950 1_655 S
C2489 C2485 1.385 . S
C2489 C2488 1.374 . S
C2490 C2487 1.499 1_556 S
C2490 C2491 1.373 . S
C2490 C2492 1.389 . S
C2491 H2470 0.950 . S
C2491 C2490 1.373 . S
C2491 C2507 1.377 . S
C2492 C2490 1.389 . S
C2492 C2493 1.524 . S
C2492 C2506 1.377 . S
C2493 C2492 1.524 . S
C2493 C2494 1.397 . S
C2493 C2498 1.363 . S
C2494 H2471 0.950 1_655 S
C2494 C2493 1.397 . S
C2494 C2495 1.334 . S
C2495 H2472 0.950 1_656 S
C2495 C2494 1.334 . S
C2495 C2496 1.287 . S
C2496 C2495 1.287 . S
C2496 C2497 1.524 . S
C2496 H2515 0.913 . S
C2497 H2473 0.950 . S
C2497 C2496 1.524 . S
C2497 C2498 1.415 . S
C2498 H2474 0.950 . S
C2498 C2493 1.363 . S
C2498 C2497 1.415 . S
C2499 H2475 0.908 1_655 S
C2499 C2500 1.400 . S
C2499 C2501 1.399 . S
C2500 C2499 1.400 . S
C2500 C2504 1.385 . S
C2501 H2476 0.951 1_655 S
C2501 C2499 1.399 . S
C2501 C2502 1.366 . S
C2502 C2501 1.366 . S
C2502 C2503 1.414 . S
C2502 C2505 1.499 . S
C2503 H2477 0.950 . S
C2503 C2502 1.414 . S
C2503 C2504 1.374 . S
C2504 H2478 0.950 . S
C2504 C2500 1.385 . S
C2504 C2503 1.374 . S
C2505 C2502 1.499 . S
C2505 C2506 1.373 . S
C2505 C2507 1.389 . S
C2506 H2479 0.950 . S
C2506 C2492 1.377 . S
C2506 C2505 1.373 . S
C2507 C2491 1.377 . S
C2507 C2505 1.389 . S
C2507 C2508 1.524 . S
C2508 C2507 1.524 . S
C2508 C2509 1.397 . S
C2508 C2513 1.363 . S
C2509 H2480 0.950 . S
C2509 C2508 1.397 . S
C2509 C2510 1.334 . S
C2510 H2481 0.950 . S
C2510 C2509 1.334 . S
C2510 C2511 1.287 . S
C2511 C2510 1.287 . S
C2511 C2512 1.524 . S
C2511 H2514 0.999 . S
C2512 H2482 0.950 1_655 S
C2512 C2511 1.524 . S
C2512 C2513 1.415 . S
C2513 H2483 0.950 1_655 S
C2513 C2508 1.363 . S
C2513 C2512 1.415 . S
H2514 C2511 0.999 . S
H2515 C2496 0.913 . S
H2516 C2534 0.951 . S
H2517 C2536 0.951 . S
H2518 C2538 0.950 . S
H2519 C2539 0.950 . S
H2520 C2541 0.950 . S
H2521 C2544 0.950 . S
H2522 C2545 0.950 . S
H2523 C2547 0.950 . S
H2524 C2548 0.950 . S
H2525 C2549 0.951 . S
H2526 C2551 0.951 . S
H2527 C2553 0.950 . S
H2528 C2554 0.950 . S
H2529 C2556 0.950 . S
H2530 C2559 0.950 . S
H2531 C2560 0.950 . S
H2532 C2562 0.950 . S
H2533 C2563 0.950 . S
C2534 H2516 0.951 . S
C2534 C2535 1.366 . S
C2534 C2536 1.388 . S
C2535 C2534 1.366 . S
C2535 C2539 1.385 . S
C2536 H2517 0.951 . S
C2536 C2534 1.388 . S
C2536 C2537 1.366 . S
C2537 C2536 1.366 . S
C2537 C2538 1.414 . S
C2537 C2540 1.499 . S
C2538 H2518 0.950 . S
C2538 C2537 1.414 . S
C2538 C2539 1.374 . S
C2539 H2519 0.950 . S
C2539 C2535 1.385 . S
C2539 C2538 1.374 . S
C2540 C2537 1.499 . S
C2540 C2541 1.373 . S
C2540 C2542 1.389 . S
C2541 H2520 0.950 . S
C2541 C2540 1.373 . S
C2541 C2557 1.377 . S
C2542 C2540 1.389 . S
C2542 C2543 1.524 . S
C2542 C2556 1.377 . S
C2543 C2542 1.524 . S
C2543 C2544 1.397 . S
C2543 C2548 1.363 . S
C2544 H2521 0.950 . S
C2544 C2543 1.397 . S
C2544 C2545 1.334 . S
C2545 H2522 0.950 . S
C2545 C2544 1.334 . S
C2545 C2546 1.287 . S
C2546 C2545 1.287 . S
C2546 C2547 1.524 . S
C2546 H2565 0.913 . S
C2547 H2523 0.950 . S
C2547 C2546 1.524 . S
C2547 C2548 1.415 . S
C2548 H2524 0.950 . S
C2548 C2543 1.363 . S
C2548 C2547 1.415 . S
C2549 H2525 0.951 . S
C2549 C2550 1.366 . S
C2549 C2551 1.388 . S
C2550 C2549 1.366 . S
C2550 C2554 1.385 . S
C2551 H2526 0.951 . S
C2551 C2549 1.388 . S
C2551 C2552 1.366 . S
C2552 C2551 1.366 . S
C2552 C2553 1.414 . S
C2552 C2555 1.499 . S
C2553 H2527 0.950 . S
C2553 C2552 1.414 . S
C2553 C2554 1.374 . S
C2554 H2528 0.950 . S
C2554 C2550 1.385 . S
C2554 C2553 1.374 . S
C2555 C2552 1.499 . S
C2555 C2556 1.373 . S
C2555 C2557 1.389 . S
C2556 H2529 0.950 . S
C2556 C2542 1.377 . S
C2556 C2555 1.373 . S
C2557 C2541 1.377 . S
C2557 C2555 1.389 . S
C2557 C2558 1.524 . S
C2558 C2557 1.524 . S
C2558 C2559 1.397 . S
C2558 C2563 1.363 . S
C2559 H2530 0.950 . S
C2559 C2558 1.397 . S
C2559 C2560 1.334 . S
C2560 H2531 0.950 . S
C2560 C2559 1.334 . S
C2560 C2561 1.287 . S
C2561 C2560 1.287 . S
C2561 C2562 1.524 . S
C2561 H2564 0.999 . S
C2562 H2532 0.950 . S
C2562 C2561 1.524 . S
C2562 C2563 1.415 . S
C2563 H2533 0.950 . S
C2563 C2558 1.363 . S
C2563 C2562 1.415 . S
H2564 C2561 0.999 . S
H2565 C2546 0.913 . S
H2566 C2584 0.969 . S
H2567 C2586 0.951 . S
H2568 C2588 0.950 . S
H2569 C2589 0.950 . S
H2570 C2591 0.950 1_655 S
H2571 C2594 0.950 . S
H2572 C2595 0.950 . S
H2573 C2597 0.950 . S
H2574 C2598 0.950 . S
H2575 C2599 0.951 . S
H2576 C2601 0.951 . S
H2577 C2603 0.950 . S
H2578 C2604 0.950 . S
H2579 C2606 0.950 . S
H2580 C2609 0.950 . S
H2581 C2610 0.950 . S
H2582 C2612 0.950 . S
H2583 C2613 0.950 1_455 S
C2584 H2566 0.969 . S
C2584 C2585 1.366 . S
C2584 C2586 1.388 . S
C2585 C2584 1.366 . S
C2585 C2589 1.385 . S
C2586 H2567 0.951 . S
C2586 C2584 1.388 . S
C2586 C2587 1.366 . S
C2587 C2586 1.366 . S
C2587 C2588 1.414 . S
C2587 C2590 1.499 . S
C2588 H2568 0.950 . S
C2588 C2587 1.414 . S
C2588 C2589 1.374 . S
C2589 H2569 0.950 . S
C2589 C2585 1.385 . S
C2589 C2588 1.374 . S
C2590 C2587 1.499 . S
C2590 C2591 1.373 . S
C2590 C2592 1.389 . S
C2591 H2570 0.950 1_455 S
C2591 C2590 1.373 . S
C2591 C2607 1.377 . S
C2592 C2590 1.389 . S
C2592 C2593 1.524 . S
C2592 C2606 1.377 . S
C2593 C2592 1.524 . S
C2593 C2594 1.397 . S
C2593 C2598 1.363 . S
C2594 H2571 0.950 . S
C2594 C2593 1.397 . S
C2594 C2595 1.334 . S
C2595 H2572 0.950 . S
C2595 C2594 1.334 . S
C2595 C2596 1.287 . S
C2596 C2595 1.287 . S
C2596 C2597 1.524 . S
C2596 H2615 0.913 . S
C2597 H2573 0.950 . S
C2597 C2596 1.524 . S
C2597 C2598 1.415 . S
C2598 H2574 0.950 . S
C2598 C2593 1.363 . S
C2598 C2597 1.415 . S
C2599 H2575 0.951 . S
C2599 C2600 1.366 . S
C2599 C2601 1.388 . S
C2600 C2599 1.366 . S
C2600 C2604 1.385 . S
C2601 H2576 0.951 . S
C2601 C2599 1.388 . S
C2601 C2602 1.366 . S
C2602 C2601 1.366 . S
C2602 C2603 1.414 . S
C2602 C2605 1.499 . S
C2603 H2577 0.950 . S
C2603 C2602 1.414 . S
C2603 C2604 1.374 . S
C2604 H2578 0.950 . S
C2604 C2600 1.385 . S
C2604 C2603 1.374 . S
C2605 C2602 1.499 . S
C2605 C2606 1.373 . S
C2605 C2607 1.389 . S
C2606 H2579 0.950 . S
C2606 C2592 1.377 . S
C2606 C2605 1.373 . S
C2607 C2591 1.377 . S
C2607 C2605 1.389 . S
C2607 C2608 1.524 1_455 S
C2608 C2607 1.524 1_655 S
C2608 C2609 1.397 . S
C2608 C2613 1.363 . S
C2609 H2580 0.950 . S
C2609 C2608 1.397 . S
C2609 C2610 1.334 . S
C2610 H2581 0.950 . S
C2610 C2609 1.334 . S
C2610 C2611 1.287 . S
C2611 C2610 1.287 . S
C2611 C2612 1.524 . S
C2611 H2614 0.999 . S
C2612 H2582 0.950 . S
C2612 C2611 1.524 . S
C2612 C2613 1.415 . S
C2613 H2583 0.950 1_655 S
C2613 C2608 1.363 . S
C2613 C2612 1.415 . S
H2614 C2611 0.999 . S
H2615 C2596 0.913 . S
H2616 C2634 0.951 . S
H2617 C2636 0.951 . S
H2618 C2638 0.950 . S
H2619 C2639 0.950 . S
H2620 C2641 0.950 . S
H2621 C2644 0.950 . S
H2622 C2645 0.950 . S
H2623 C2647 0.950 . S
H2624 C2648 0.950 . S
H2625 C2649 0.951 . S
H2626 C2651 0.951 . S
H2627 C2653 0.950 . S
H2628 C2654 0.950 . S
H2629 C2656 0.950 . S
H2630 C2659 0.950 . S
H2631 C2660 0.950 . S
H2632 C2662 0.950 . S
H2633 C2663 0.950 . S
C2634 H2616 0.951 . S
C2634 C2635 1.366 . S
C2634 C2636 1.388 . S
C2635 C2634 1.366 . S
C2635 C2639 1.385 . S
C2636 H2617 0.951 . S
C2636 C2634 1.388 . S
C2636 C2637 1.366 . S
C2637 C2636 1.366 . S
C2637 C2638 1.414 . S
C2637 C2640 1.499 . S
C2638 H2618 0.950 . S
C2638 C2637 1.414 . S
C2638 C2639 1.374 . S
C2639 H2619 0.950 . S
C2639 C2635 1.385 . S
C2639 C2638 1.374 . S
C2640 C2637 1.499 . S
C2640 C2641 1.373 . S
C2640 C2642 1.389 . S
C2641 H2620 0.950 . S
C2641 C2640 1.373 . S
C2641 C2657 1.377 . S
C2642 C2640 1.389 . S
C2642 C2643 1.524 . S
C2642 C2656 1.377 . S
C2643 C2642 1.524 . S
C2643 C2644 1.397 . S
C2643 C2648 1.363 . S
C2644 H2621 0.950 . S
C2644 C2643 1.397 . S
C2644 C2645 1.334 . S
C2645 H2622 0.950 . S
C2645 C2644 1.334 . S
C2645 C2646 1.287 . S
C2646 C2645 1.287 . S
C2646 C2647 1.524 . S
C2646 H2665 0.913 . S
C2647 H2623 0.950 . S
C2647 C2646 1.524 . S
C2647 C2648 1.415 . S
C2648 H2624 0.950 . S
C2648 C2643 1.363 . S
C2648 C2647 1.415 . S
C2649 H2625 0.951 . S
C2649 C2650 1.366 . S
C2649 C2651 1.388 . S
C2650 C2649 1.366 . S
C2650 C2654 1.385 . S
C2651 H2626 0.951 . S
C2651 C2649 1.388 . S
C2651 C2652 1.366 . S
C2652 C2651 1.366 . S
C2652 C2653 1.414 . S
C2652 C2655 1.499 . S
C2653 H2627 0.950 . S
C2653 C2652 1.414 . S
C2653 C2654 1.374 . S
C2654 H2628 0.950 . S
C2654 C2650 1.385 . S
C2654 C2653 1.374 . S
C2655 C2652 1.499 . S
C2655 C2656 1.373 . S
C2655 C2657 1.389 . S
C2656 H2629 0.950 . S
C2656 C2642 1.377 . S
C2656 C2655 1.373 . S
C2657 C2641 1.377 . S
C2657 C2655 1.389 . S
C2657 C2658 1.524 . S
C2658 C2657 1.524 . S
C2658 C2659 1.397 . S
C2658 C2663 1.363 . S
C2659 H2630 0.950 . S
C2659 C2658 1.397 . S
C2659 C2660 1.334 . S
C2660 H2631 0.950 . S
C2660 C2659 1.334 . S
C2660 C2661 1.287 . S
C2661 C2660 1.287 . S
C2661 C2662 1.524 . S
C2661 H2664 0.999 . S
C2662 H2632 0.950 . S
C2662 C2661 1.524 . S
C2662 C2663 1.415 . S
C2663 H2633 0.950 . S
C2663 C2658 1.363 . S
C2663 C2662 1.415 . S
H2664 C2661 0.999 . S
H2665 C2646 0.913 . S
H2666 C2684 0.951 . S
H2667 C2686 0.951 . S
H2668 C2688 0.950 . S
H2669 C2689 0.950 . S
H2670 C2691 0.950 . S
H2671 C2694 0.950 . S
H2672 C2695 0.950 . S
H2673 C2697 0.950 . S
H2674 C2698 0.950 . S
H2675 C2699 0.951 . S
H2676 C2701 0.951 . S
H2677 C2703 0.950 . S
H2678 C2704 0.950 . S
H2679 C2706 0.950 . S
H2680 C2709 0.950 . S
H2681 C2710 0.950 . S
H2682 C2712 0.950 . S
H2683 C2713 0.950 . S
C2684 H2666 0.951 . S
C2684 C2685 1.366 . S
C2684 C2686 1.388 . S
C2685 C2684 1.366 . S
C2685 C2689 1.385 . S
C2686 H2667 0.951 . S
C2686 C2684 1.388 . S
C2686 C2687 1.366 . S
C2687 C2686 1.366 . S
C2687 C2688 1.414 . S
C2687 C2690 1.499 . S
C2688 H2668 0.950 . S
C2688 C2687 1.414 . S
C2688 C2689 1.374 . S
C2689 H2669 0.950 . S
C2689 C2685 1.385 . S
C2689 C2688 1.374 . S
C2690 C2687 1.499 . S
C2690 C2691 1.373 . S
C2690 C2692 1.389 . S
C2691 H2670 0.950 . S
C2691 C2690 1.373 . S
C2691 C2707 1.377 . S
C2692 C2690 1.389 . S
C2692 C2693 1.524 . S
C2692 C2706 1.377 . S
C2693 C2692 1.524 . S
C2693 C2694 1.397 . S
C2693 C2698 1.363 . S
C2694 H2671 0.950 . S
C2694 C2693 1.397 . S
C2694 C2695 1.334 . S
C2695 H2672 0.950 . S
C2695 C2694 1.334 . S
C2695 C2696 1.287 . S
C2696 C2695 1.287 . S
C2696 C2697 1.524 . S
C2696 H2715 0.913 . S
C2697 H2673 0.950 . S
C2697 C2696 1.524 . S
C2697 C2698 1.415 . S
C2698 H2674 0.950 . S
C2698 C2693 1.363 . S
C2698 C2697 1.415 . S
C2699 H2675 0.951 . S
C2699 C2700 1.366 . S
C2699 C2701 1.388 . S
C2700 C2699 1.366 . S
C2700 C2704 1.385 . S
C2701 H2676 0.951 . S
C2701 C2699 1.388 . S
C2701 C2702 1.366 . S
C2702 C2701 1.366 . S
C2702 C2703 1.414 . S
C2702 C2705 1.499 . S
C2703 H2677 0.950 . S
C2703 C2702 1.414 . S
C2703 C2704 1.374 . S
C2704 H2678 0.950 . S
C2704 C2700 1.385 . S
C2704 C2703 1.374 . S
C2705 C2702 1.499 . S
C2705 C2706 1.373 . S
C2705 C2707 1.389 . S
C2706 H2679 0.950 . S
C2706 C2692 1.377 . S
C2706 C2705 1.373 . S
C2707 C2691 1.377 . S
C2707 C2705 1.389 . S
C2707 C2708 1.524 . S
C2708 C2707 1.524 . S
C2708 C2709 1.397 . S
C2708 C2713 1.363 . S
C2709 H2680 0.950 . S
C2709 C2708 1.397 . S
C2709 C2710 1.334 . S
C2710 H2681 0.950 . S
C2710 C2709 1.334 . S
C2710 C2711 1.287 . S
C2711 C2710 1.287 . S
C2711 C2712 1.524 . S
C2711 H2714 0.999 . S
C2712 H2682 0.950 . S
C2712 C2711 1.524 . S
C2712 C2713 1.415 . S
C2713 H2683 0.950 . S
C2713 C2708 1.363 . S
C2713 C2712 1.415 . S
H2714 C2711 0.999 . S
H2715 C2696 0.913 . S
H2716 C2734 0.951 . S
H2717 C2736 0.951 . S
H2718 C2738 0.950 . S
H2719 C2739 0.950 . S
H2720 C2741 0.950 . S
H2721 C2744 0.950 . S
H2722 C2745 0.950 . S
H2723 C2747 0.950 . S
H2724 C2748 0.950 . S
H2725 C2749 0.951 . S
H2726 C2751 0.951 . S
H2727 C2753 0.950 . S
H2728 C2754 0.950 . S
H2729 C2756 0.950 . S
H2730 C2759 0.950 . S
H2731 C2760 0.950 . S
H2732 C2762 0.950 . S
H2733 C2763 0.950 . S
C2734 H2716 0.951 . S
C2734 C2735 1.366 . S
C2734 C2736 1.388 . S
C2735 C2734 1.366 . S
C2735 C2739 1.385 . S
C2736 H2717 0.951 . S
C2736 C2734 1.388 . S
C2736 C2737 1.366 . S
C2737 C2736 1.366 . S
C2737 C2738 1.414 . S
C2737 C2740 1.499 . S
C2738 H2718 0.950 . S
C2738 C2737 1.414 . S
C2738 C2739 1.374 . S
C2739 H2719 0.950 . S
C2739 C2735 1.385 . S
C2739 C2738 1.374 . S
C2740 C2737 1.499 . S
C2740 C2741 1.373 . S
C2740 C2742 1.389 . S
C2741 H2720 0.950 . S
C2741 C2740 1.373 . S
C2741 C2757 1.377 . S
C2742 C2740 1.389 . S
C2742 C2743 1.524 . S
C2742 C2756 1.377 . S
C2743 C2742 1.524 . S
C2743 C2744 1.397 1_545 S
C2743 C2748 1.363 . S
C2744 H2721 0.950 . S
C2744 C2743 1.397 1_565 S
C2744 C2745 1.334 . S
C2745 H2722 0.950 . S
C2745 C2744 1.334 . S
C2745 C2746 1.287 . S
C2746 C2745 1.287 . S
C2746 C2747 1.524 1_565 S
C2746 H2765 0.913 . S
C2747 H2723 0.950 . S
C2747 C2746 1.524 1_545 S
C2747 C2748 1.415 . S
C2748 H2724 0.950 . S
C2748 C2743 1.363 . S
C2748 C2747 1.415 . S
C2749 H2725 0.951 . S
C2749 C2750 1.366 . S
C2749 C2751 1.388 . S
C2750 C2749 1.366 . S
C2750 C2754 1.385 . S
C2751 H2726 0.951 . S
C2751 C2749 1.388 . S
C2751 C2752 1.366 . S
C2752 C2751 1.366 . S
C2752 C2753 1.414 . S
C2752 C2755 1.499 . S
C2753 H2727 0.950 . S
C2753 C2752 1.414 . S
C2753 C2754 1.374 . S
C2754 H2728 0.950 . S
C2754 C2750 1.385 . S
C2754 C2753 1.374 . S
C2755 C2752 1.499 . S
C2755 C2756 1.373 . S
C2755 C2757 1.389 . S
C2756 H2729 0.950 . S
C2756 C2742 1.377 . S
C2756 C2755 1.373 . S
C2757 C2741 1.377 . S
C2757 C2755 1.389 . S
C2757 C2758 1.524 . S
C2758 C2757 1.524 . S
C2758 C2759 1.397 . S
C2758 C2763 1.363 . S
C2759 H2730 0.950 . S
C2759 C2758 1.397 . S
C2759 C2760 1.334 . S
C2760 H2731 0.950 . S
C2760 C2759 1.334 . S
C2760 C2761 1.287 . S
C2761 C2760 1.287 . S
C2761 C2762 1.524 . S
C2761 H2764 0.999 . S
C2762 H2732 0.950 . S
C2762 C2761 1.524 . S
C2762 C2763 1.415 . S
C2763 H2733 0.950 . S
C2763 C2758 1.363 . S
C2763 C2762 1.415 . S
H2764 C2761 0.999 . S
H2765 C2746 0.913 . S
H2766 C2784 0.951 . S
H2767 C2786 0.951 . S
H2768 C2788 0.950 . S
H2769 C2789 0.950 . S
H2770 C2791 0.950 . S
H2771 C2794 0.950 . S
H2772 C2795 0.950 . S
H2773 C2797 0.950 . S
H2774 C2798 0.950 . S
H2775 C2799 0.951 . S
H2776 C2801 0.951 . S
H2777 C2803 0.950 . S
H2778 C2804 0.950 . S
H2779 C2806 0.950 . S
H2780 C2809 0.950 . S
H2781 C2810 0.950 . S
H2782 C2812 0.950 . S
H2783 C2813 0.950 . S
C2784 H2766 0.951 . S
C2784 C2785 1.366 . S
C2784 C2786 1.388 . S
C2785 C2784 1.366 . S
C2785 C2789 1.385 . S
C2786 H2767 0.951 . S
C2786 C2784 1.388 . S
C2786 C2787 1.366 . S
C2787 C2786 1.366 . S
C2787 C2788 1.414 . S
C2787 C2790 1.499 . S
C2788 H2768 0.950 . S
C2788 C2787 1.414 . S
C2788 C2789 1.374 . S
C2789 H2769 0.950 . S
C2789 C2785 1.385 . S
C2789 C2788 1.374 . S
C2790 C2787 1.499 . S
C2790 C2791 1.373 . S
C2790 C2792 1.389 . S
C2791 H2770 0.950 . S
C2791 C2790 1.373 . S
C2791 C2807 1.377 . S
C2792 C2790 1.389 . S
C2792 C2793 1.524 . S
C2792 C2806 1.377 . S
C2793 C2792 1.524 . S
C2793 C2794 1.397 . S
C2793 C2798 1.363 . S
C2794 H2771 0.950 . S
C2794 C2793 1.397 . S
C2794 C2795 1.334 . S
C2795 H2772 0.950 . S
C2795 C2794 1.334 . S
C2795 C2796 1.287 . S
C2796 C2795 1.287 . S
C2796 C2797 1.524 . S
C2796 H2815 0.913 . S
C2797 H2773 0.950 . S
C2797 C2796 1.524 . S
C2797 C2798 1.415 . S
C2798 H2774 0.950 . S
C2798 C2793 1.363 . S
C2798 C2797 1.415 . S
C2799 H2775 0.951 . S
C2799 C2800 1.366 . S
C2799 C2801 1.388 . S
C2800 C2799 1.366 . S
C2800 C2804 1.385 . S
C2801 H2776 0.951 . S
C2801 C2799 1.388 . S
C2801 C2802 1.366 . S
C2802 C2801 1.366 . S
C2802 C2803 1.414 . S
C2802 C2805 1.499 . S
C2803 H2777 0.950 . S
C2803 C2802 1.414 . S
C2803 C2804 1.374 . S
C2804 H2778 0.950 . S
C2804 C2800 1.385 . S
C2804 C2803 1.374 . S
C2805 C2802 1.499 . S
C2805 C2806 1.373 . S
C2805 C2807 1.389 . S
C2806 H2779 0.950 . S
C2806 C2792 1.377 . S
C2806 C2805 1.373 . S
C2807 C2791 1.377 . S
C2807 C2805 1.389 . S
C2807 C2808 1.524 . S
C2808 C2807 1.524 . S
C2808 C2809 1.397 . S
C2808 C2813 1.363 . S
C2809 H2780 0.950 . S
C2809 C2808 1.397 . S
C2809 C2810 1.334 . S
C2810 H2781 0.950 . S
C2810 C2809 1.334 . S
C2810 C2811 1.287 . S
C2811 C2810 1.287 . S
C2811 C2812 1.524 . S
C2811 H2814 0.999 . S
C2812 H2782 0.950 . S
C2812 C2811 1.524 . S
C2812 C2813 1.415 . S
C2813 H2783 0.950 . S
C2813 C2808 1.363 . S
C2813 C2812 1.415 . S
H2814 C2811 0.999 . S
H2815 C2796 0.913 . S
H2816 C2834 0.951 . S
H2817 C2836 0.951 . S
H2818 C2838 0.950 . S
H2819 C2839 0.950 . S
H2820 C2841 0.950 . S
H2821 C2844 0.950 . S
H2822 C2845 0.950 . S
H2823 C2847 0.950 . S
H2824 C2848 0.950 . S
H2825 C2849 0.951 . S
H2826 C2851 0.951 . S
H2827 C2853 0.950 . S
H2828 C2854 0.950 . S
H2829 C2856 0.950 . S
H2830 C2859 0.950 . S
H2831 C2860 0.950 . S
H2832 C2862 0.950 . S
H2833 C2863 0.950 . S
C2834 H2816 0.951 . S
C2834 C2835 1.366 . S
C2834 C2836 1.388 . S
C2835 C2834 1.366 . S
C2835 C2839 1.385 . S
C2836 H2817 0.951 . S
C2836 C2834 1.388 . S
C2836 C2837 1.366 . S
C2837 C2836 1.366 . S
C2837 C2838 1.414 . S
C2837 C2840 1.499 . S
C2838 H2818 0.950 . S
C2838 C2837 1.414 . S
C2838 C2839 1.374 . S
C2839 H2819 0.950 . S
C2839 C2835 1.385 . S
C2839 C2838 1.374 . S
C2840 C2837 1.499 . S
C2840 C2841 1.373 . S
C2840 C2842 1.389 . S
C2841 H2820 0.950 . S
C2841 C2840 1.373 . S
C2841 C2857 1.377 . S
C2842 C2840 1.389 . S
C2842 C2843 1.524 . S
C2842 C2856 1.377 . S
C2843 C2842 1.524 . S
C2843 C2844 1.397 . S
C2843 C2848 1.363 . S
C2844 H2821 0.950 . S
C2844 C2843 1.397 . S
C2844 C2845 1.334 . S
C2845 H2822 0.950 . S
C2845 C2844 1.334 . S
C2845 C2846 1.287 . S
C2846 C2845 1.287 . S
C2846 C2847 1.524 . S
C2846 H2865 0.913 . S
C2847 H2823 0.950 . S
C2847 C2846 1.524 . S
C2847 C2848 1.415 . S
C2848 H2824 0.950 . S
C2848 C2843 1.363 . S
C2848 C2847 1.415 . S
C2849 H2825 0.951 . S
C2849 C2850 1.366 . S
C2849 C2851 1.388 . S
C2850 C2849 1.366 . S
C2850 C2854 1.385 . S
C2851 H2826 0.951 . S
C2851 C2849 1.388 . S
C2851 C2852 1.366 . S
C2852 C2851 1.366 . S
C2852 C2853 1.414 . S
C2852 C2855 1.499 . S
C2853 H2827 0.950 . S
C2853 C2852 1.414 . S
C2853 C2854 1.374 . S
C2854 H2828 0.950 . S
C2854 C2850 1.385 . S
C2854 C2853 1.374 . S
C2855 C2852 1.499 . S
C2855 C2856 1.373 . S
C2855 C2857 1.389 . S
C2856 H2829 0.950 . S
C2856 C2842 1.377 . S
C2856 C2855 1.373 . S
C2857 C2841 1.377 . S
C2857 C2855 1.389 . S
C2857 C2858 1.524 . S
C2858 C2857 1.524 . S
C2858 C2859 1.397 . S
C2858 C2863 1.363 . S
C2859 H2830 0.950 . S
C2859 C2858 1.397 . S
C2859 C2860 1.334 . S
C2860 H2831 0.950 . S
C2860 C2859 1.334 . S
C2860 C2861 1.287 . S
C2861 C2860 1.287 . S
C2861 C2862 1.524 . S
C2861 H2864 0.999 . S
C2862 H2832 0.950 . S
C2862 C2861 1.524 . S
C2862 C2863 1.415 . S
C2863 H2833 0.950 . S
C2863 C2858 1.363 . S
C2863 C2862 1.415 . S
H2864 C2861 0.999 . S
H2865 C2846 0.913 . S
H2866 C2884 0.951 . S
H2867 C2886 0.951 . S
H2868 C2888 0.950 . S
H2869 C2889 0.950 . S
H2870 C2891 0.950 . S
H2871 C2894 0.950 . S
H2872 C2895 0.950 . S
H2873 C2897 0.950 . S
H2874 C2898 0.950 . S
H2875 C2899 0.951 . S
H2876 C2901 0.951 . S
H2877 C2903 0.950 . S
H2878 C2904 0.950 . S
H2879 C2906 0.950 . S
H2880 C2909 0.950 . S
H2881 C2910 0.950 . S
H2882 C2912 0.950 . S
H2883 C2913 0.950 . S
C2884 H2866 0.951 . S
C2884 C2885 1.366 . S
C2884 C2886 1.388 . S
C2885 C2884 1.366 . S
C2885 C2889 1.385 . S
C2886 H2867 0.951 . S
C2886 C2884 1.388 . S
C2886 C2887 1.366 . S
C2887 C2886 1.366 . S
C2887 C2888 1.414 . S
C2887 C2890 1.499 . S
C2888 H2868 0.950 . S
C2888 C2887 1.414 . S
C2888 C2889 1.374 . S
C2889 H2869 0.950 . S
C2889 C2885 1.385 . S
C2889 C2888 1.374 . S
C2890 C2887 1.499 . S
C2890 C2891 1.373 . S
C2890 C2892 1.389 . S
C2891 H2870 0.950 . S
C2891 C2890 1.373 . S
C2891 C2907 1.377 . S
C2892 C2890 1.389 . S
C2892 C2893 1.524 . S
C2892 C2906 1.377 . S
C2893 C2892 1.524 . S
C2893 C2894 1.397 . S
C2893 C2898 1.363 . S
C2894 H2871 0.950 . S
C2894 C2893 1.397 . S
C2894 C2895 1.334 . S
C2895 H2872 0.950 . S
C2895 C2894 1.334 . S
C2895 C2896 1.287 . S
C2896 C2895 1.287 . S
C2896 C2897 1.524 . S
C2896 H2915 0.913 . S
C2897 H2873 0.950 . S
C2897 C2896 1.524 . S
C2897 C2898 1.415 . S
C2898 H2874 0.950 . S
C2898 C2893 1.363 . S
C2898 C2897 1.415 . S
C2899 H2875 0.951 . S
C2899 C2900 1.366 . S
C2899 C2901 1.388 . S
C2900 C2899 1.366 . S
C2900 C2904 1.385 . S
C2901 H2876 0.951 . S
C2901 C2899 1.388 . S
C2901 C2902 1.366 . S
C2902 C2901 1.366 . S
C2902 C2903 1.414 . S
C2902 C2905 1.499 . S
C2903 H2877 0.950 . S
C2903 C2902 1.414 . S
C2903 C2904 1.374 . S
C2904 H2878 0.950 . S
C2904 C2900 1.385 . S
C2904 C2903 1.374 . S
C2905 C2902 1.499 . S
C2905 C2906 1.373 . S
C2905 C2907 1.389 . S
C2906 H2879 0.950 . S
C2906 C2892 1.377 . S
C2906 C2905 1.373 . S
C2907 C2891 1.377 . S
C2907 C2905 1.389 . S
C2907 C2908 1.524 . S
C2908 C2907 1.524 . S
C2908 C2909 1.397 . S
C2908 C2913 1.363 . S
C2909 H2880 0.950 . S
C2909 C2908 1.397 . S
C2909 C2910 1.334 . S
C2910 H2881 0.950 . S
C2910 C2909 1.334 . S
C2910 C2911 1.287 . S
C2911 C2910 1.287 . S
C2911 C2912 1.524 . S
C2911 H2914 0.999 . S
C2912 H2882 0.950 . S
C2912 C2911 1.524 . S
C2912 C2913 1.415 . S
C2913 H2883 0.950 . S
C2913 C2908 1.363 . S
C2913 C2912 1.415 . S
H2914 C2911 0.999 . S
H2915 C2896 0.913 . S
H2916 C2934 0.951 . S
H2917 C2936 0.951 . S
H2918 C2938 0.950 . S
H2919 C2939 0.950 . S
H2920 C2941 0.950 . S
H2921 C2944 0.950 . S
H2922 C2945 0.950 . S
H2923 C2947 0.950 . S
H2924 C2948 0.950 . S
H2925 C2949 0.951 . S
H2926 C2951 0.951 . S
H2927 C2953 0.950 . S
H2928 C2954 0.950 . S
H2929 C2956 0.950 . S
H2930 C2959 0.950 . S
H2931 C2960 0.950 . S
H2932 C2962 0.950 . S
H2933 C2963 0.950 . S
C2934 H2916 0.951 . S
C2934 C2935 1.366 . S
C2934 C2936 1.388 . S
C2935 C2934 1.366 . S
C2935 C2939 1.385 . S
C2936 H2917 0.951 . S
C2936 C2934 1.388 . S
C2936 C2937 1.366 . S
C2937 C2936 1.366 . S
C2937 C2938 1.414 . S
C2937 C2940 1.499 . S
C2938 H2918 0.950 . S
C2938 C2937 1.414 . S
C2938 C2939 1.374 . S
C2939 H2919 0.950 . S
C2939 C2935 1.385 . S
C2939 C2938 1.374 . S
C2940 C2937 1.499 . S
C2940 C2941 1.373 . S
C2940 C2942 1.389 . S
C2941 H2920 0.950 . S
C2941 C2940 1.373 . S
C2941 C2957 1.377 . S
C2942 C2940 1.389 . S
C2942 C2943 1.524 . S
C2942 C2956 1.377 . S
C2943 C2942 1.524 . S
C2943 C2944 1.397 . S
C2943 C2948 1.363 . S
C2944 H2921 0.950 . S
C2944 C2943 1.397 . S
C2944 C2945 1.334 . S
C2945 H2922 0.950 . S
C2945 C2944 1.334 . S
C2945 C2946 1.287 . S
C2946 C2945 1.287 . S
C2946 C2947 1.524 . S
C2946 H2965 0.913 . S
C2947 H2923 0.950 . S
C2947 C2946 1.524 . S
C2947 C2948 1.415 . S
C2948 H2924 0.950 . S
C2948 C2943 1.363 . S
C2948 C2947 1.415 . S
C2949 H2925 0.951 . S
C2949 C2950 1.366 . S
C2949 C2951 1.388 . S
C2950 C2949 1.366 . S
C2950 C2954 1.385 . S
C2951 H2926 0.951 . S
C2951 C2949 1.388 . S
C2951 C2952 1.366 . S
C2952 C2951 1.366 . S
C2952 C2953 1.414 . S
C2952 C2955 1.499 . S
C2953 H2927 0.950 . S
C2953 C2952 1.414 . S
C2953 C2954 1.374 . S
C2954 H2928 0.950 . S
C2954 C2950 1.385 . S
C2954 C2953 1.374 . S
C2955 C2952 1.499 . S
C2955 C2956 1.373 . S
C2955 C2957 1.389 . S
C2956 H2929 0.950 . S
C2956 C2942 1.377 . S
C2956 C2955 1.373 . S
C2957 C2941 1.377 . S
C2957 C2955 1.389 . S
C2957 C2958 1.524 . S
C2958 C2957 1.524 . S
C2958 C2959 1.397 . S
C2958 C2963 1.363 . S
C2959 H2930 0.950 . S
C2959 C2958 1.397 . S
C2959 C2960 1.334 . S
C2960 H2931 0.950 . S
C2960 C2959 1.334 . S
C2960 C2961 1.287 . S
C2961 C2960 1.287 . S
C2961 C2962 1.524 . S
C2961 H2964 0.999 . S
C2962 H2932 0.950 . S
C2962 C2961 1.524 . S
C2962 C2963 1.415 . S
C2963 H2933 0.950 . S
C2963 C2958 1.363 . S
C2963 C2962 1.415 . S
H2964 C2961 0.999 . S
H2965 C2946 0.913 . S
H2966 C2984 0.951 . S
H2967 C2986 0.951 . S
H2968 C2988 0.950 . S
H2969 C2989 0.950 . S
H2970 C2991 0.950 . S
H2971 C2994 0.950 . S
H2972 C2995 0.950 . S
H2973 C2997 0.950 . S
H2974 C2998 0.950 . S
H2975 C2999 0.951 . S
H2976 C3001 0.951 . S
H2977 C3003 0.950 . S
H2978 C3004 0.950 . S
H2979 C3006 0.950 . S
H2980 C3009 0.948 . S
H2981 C3010 0.950 . S
H2982 C3012 0.950 . S
H2983 C3013 0.972 . S
C2984 H2966 0.951 . S
C2984 C2985 1.366 . S
C2984 C2986 1.388 . S
C2985 C2984 1.366 . S
C2985 C2989 1.385 . S
C2986 H2967 0.951 . S
C2986 C2984 1.388 . S
C2986 C2987 1.366 . S
C2987 C2986 1.366 . S
C2987 C2988 1.414 . S
C2987 C2990 1.499 . S
C2988 H2968 0.950 . S
C2988 C2987 1.414 . S
C2988 C2989 1.374 . S
C2989 H2969 0.950 . S
C2989 C2985 1.385 . S
C2989 C2988 1.374 . S
C2990 C2987 1.499 . S
C2990 C2991 1.373 . S
C2990 C2992 1.389 . S
C2991 H2970 0.950 . S
C2991 C2990 1.373 . S
C2991 C3007 1.377 . S
C2992 C2990 1.389 . S
C2992 C2993 1.524 . S
C2992 C3006 1.377 . S
C2993 C2992 1.524 . S
C2993 C2994 1.397 . S
C2993 C2998 1.363 . S
C2994 H2971 0.950 . S
C2994 C2993 1.397 . S
C2994 C2995 1.334 . S
C2995 H2972 0.950 . S
C2995 C2994 1.334 . S
C2995 C2996 1.287 . S
C2996 C2995 1.287 . S
C2996 C2997 1.524 . S
C2996 H3015 0.913 . S
C2997 H2973 0.950 . S
C2997 C2996 1.524 . S
C2997 C2998 1.415 . S
C2998 H2974 0.950 . S
C2998 C2993 1.363 . S
C2998 C2997 1.415 . S
C2999 H2975 0.951 . S
C2999 C3000 1.366 . S
C2999 C3001 1.388 . S
C3000 C2999 1.366 . S
C3000 C3004 1.385 . S
C3001 H2976 0.951 . S
C3001 C2999 1.388 . S
C3001 C3002 1.366 . S
C3002 C3001 1.366 . S
C3002 C3003 1.414 . S
C3002 C3005 1.499 . S
C3003 H2977 0.950 . S
C3003 C3002 1.414 . S
C3003 C3004 1.374 . S
C3004 H2978 0.950 . S
C3004 C3000 1.385 . S
C3004 C3003 1.374 . S
C3005 C3002 1.499 . S
C3005 C3006 1.373 . S
C3005 C3007 1.389 . S
C3006 H2979 0.950 . S
C3006 C2992 1.377 . S
C3006 C3005 1.373 . S
C3007 C2991 1.377 . S
C3007 C3005 1.389 . S
C3007 C3008 1.524 . S
C3008 C3007 1.524 . S
C3008 C3009 1.394 . S
C3008 C3013 1.376 . S
C3009 H2980 0.948 . S
C3009 C3008 1.394 . S
C3009 C3010 1.338 1_554 S
C3010 H2981 0.950 . S
C3010 C3009 1.338 1_556 S
C3010 C3011 1.287 . S
C3011 C3010 1.287 . S
C3011 C3012 1.524 . S
C3011 H3014 0.999 . S
C3012 H2982 0.950 . S
C3012 C3011 1.524 . S
C3012 C3013 1.383 1_556 S
C3013 H2983 0.972 . S
C3013 C3008 1.376 . S
C3013 C3012 1.383 1_554 S
H3014 C3011 0.999 . S
H3015 C2996 0.913 . S
H3016 C3034 0.951 . S
H3017 C3036 0.951 . S
H3018 C3038 0.950 . S
H3019 C3039 0.950 . S
H3020 C3041 0.950 . S
H3021 C3044 0.950 . S
H3022 C3045 0.950 . S
H3023 C3047 0.950 . S
H3024 C3048 0.950 . S
H3025 C3049 0.951 . S
H3026 C3051 0.951 . S
H3027 C3053 0.950 . S
H3028 C3054 0.950 . S
H3029 C3056 0.950 . S
H3030 C3059 0.950 . S
H3031 C3060 0.950 . S
H3032 C3062 0.950 . S
H3033 C3063 0.950 . S
C3034 H3016 0.951 . S
C3034 C3035 1.366 . S
C3034 C3036 1.388 . S
C3035 C3034 1.366 . S
C3035 C3039 1.385 . S
C3036 H3017 0.951 . S
C3036 C3034 1.388 . S
C3036 C3037 1.366 . S
C3037 C3036 1.366 . S
C3037 C3038 1.414 . S
C3037 C3040 1.499 . S
C3038 H3018 0.950 . S
C3038 C3037 1.414 . S
C3038 C3039 1.374 . S
C3039 H3019 0.950 . S
C3039 C3035 1.385 . S
C3039 C3038 1.374 . S
C3040 C3037 1.499 . S
C3040 C3041 1.373 . S
C3040 C3042 1.389 . S
C3041 H3020 0.950 . S
C3041 C3040 1.373 . S
C3041 C3057 1.377 . S
C3042 C3040 1.389 . S
C3042 C3043 1.524 . S
C3042 C3056 1.377 . S
C3043 C3042 1.524 . S
C3043 C3044 1.397 . S
C3043 C3048 1.363 . S
C3044 H3021 0.950 . S
C3044 C3043 1.397 . S
C3044 C3045 1.334 . S
C3045 H3022 0.950 . S
C3045 C3044 1.334 . S
C3045 C3046 1.287 . S
C3046 C3045 1.287 . S
C3046 C3047 1.524 . S
C3046 H3065 0.913 . S
C3047 H3023 0.950 . S
C3047 C3046 1.524 . S
C3047 C3048 1.415 . S
C3048 H3024 0.950 . S
C3048 C3043 1.363 . S
C3048 C3047 1.415 . S
C3049 H3025 0.951 . S
C3049 C3050 1.366 . S
C3049 C3051 1.388 . S
C3050 C3049 1.366 . S
C3050 C3054 1.385 . S
C3051 H3026 0.951 . S
C3051 C3049 1.388 . S
C3051 C3052 1.366 . S
C3052 C3051 1.366 . S
C3052 C3053 1.414 . S
C3052 C3055 1.499 . S
C3053 H3027 0.950 . S
C3053 C3052 1.414 . S
C3053 C3054 1.374 . S
C3054 H3028 0.950 . S
C3054 C3050 1.385 . S
C3054 C3053 1.374 . S
C3055 C3052 1.499 . S
C3055 C3056 1.373 . S
C3055 C3057 1.389 . S
C3056 H3029 0.950 . S
C3056 C3042 1.377 . S
C3056 C3055 1.373 . S
C3057 C3041 1.377 . S
C3057 C3055 1.389 . S
C3057 C3058 1.524 . S
C3058 C3057 1.524 . S
C3058 C3059 1.397 . S
C3058 C3063 1.363 . S
C3059 H3030 0.950 . S
C3059 C3058 1.397 . S
C3059 C3060 1.334 . S
C3060 H3031 0.950 . S
C3060 C3059 1.334 . S
C3060 C3061 1.287 . S
C3061 C3060 1.287 . S
C3061 C3062 1.524 . S
C3061 H3064 0.999 . S
C3062 H3032 0.950 . S
C3062 C3061 1.524 . S
C3062 C3063 1.415 . S
C3063 H3033 0.950 . S
C3063 C3058 1.363 . S
C3063 C3062 1.415 . S
H3064 C3061 0.999 . S
H3065 C3046 0.913 . S
H3066 C3084 0.951 . S
H3067 C3086 0.951 . S
H3068 C3088 0.950 . S
H3069 C3089 0.950 . S
H3070 C3091 0.950 . S
H3071 C3094 0.950 . S
H3072 C3095 0.950 . S
H3073 C3097 0.950 . S
H3074 C3098 0.950 . S
H3075 C3099 0.951 . S
H3076 C3101 0.951 . S
H3077 C3103 0.950 . S
H3078 C3104 0.950 . S
H3079 C3106 0.950 . S
H3080 C3109 0.950 . S
H3081 C3110 0.950 . S
H3082 C3112 0.950 . S
H3083 C3113 0.950 . S
C3084 H3066 0.951 . S
C3084 C3085 1.366 . S
C3084 C3086 1.388 . S
C3085 C3084 1.366 . S
C3085 C3089 1.385 . S
C3086 H3067 0.951 . S
C3086 C3084 1.388 . S
C3086 C3087 1.366 . S
C3087 C3086 1.366 . S
C3087 C3088 1.414 . S
C3087 C3090 1.499 . S
C3088 H3068 0.950 . S
C3088 C3087 1.414 . S
C3088 C3089 1.374 . S
C3089 H3069 0.950 . S
C3089 C3085 1.385 . S
C3089 C3088 1.374 . S
C3090 C3087 1.499 . S
C3090 C3091 1.373 . S
C3090 C3092 1.389 . S
C3091 H3070 0.950 . S
C3091 C3090 1.373 . S
C3091 C3107 1.377 . S
C3092 C3090 1.389 . S
C3092 C3093 1.524 . S
C3092 C3106 1.377 . S
C3093 C3092 1.524 . S
C3093 C3094 1.397 . S
C3093 C3098 1.363 . S
C3094 H3071 0.950 . S
C3094 C3093 1.397 . S
C3094 C3095 1.334 . S
C3095 H3072 0.950 . S
C3095 C3094 1.334 . S
C3095 C3096 1.287 . S
C3096 C3095 1.287 . S
C3096 C3097 1.524 . S
C3096 H3115 0.913 . S
C3097 H3073 0.950 . S
C3097 C3096 1.524 . S
C3097 C3098 1.415 . S
C3098 H3074 0.950 . S
C3098 C3093 1.363 . S
C3098 C3097 1.415 . S
C3099 H3075 0.951 . S
C3099 C3100 1.366 . S
C3099 C3101 1.388 . S
C3100 C3099 1.366 . S
C3100 C3104 1.385 . S
C3101 H3076 0.951 . S
C3101 C3099 1.388 . S
C3101 C3102 1.366 . S
C3102 C3101 1.366 . S
C3102 C3103 1.414 . S
C3102 C3105 1.499 . S
C3103 H3077 0.950 . S
C3103 C3102 1.414 . S
C3103 C3104 1.374 . S
C3104 H3078 0.950 . S
C3104 C3100 1.385 . S
C3104 C3103 1.374 . S
C3105 C3102 1.499 . S
C3105 C3106 1.373 . S
C3105 C3107 1.389 . S
C3106 H3079 0.950 . S
C3106 C3092 1.377 . S
C3106 C3105 1.373 . S
C3107 C3091 1.377 . S
C3107 C3105 1.389 . S
C3107 C3108 1.524 . S
C3108 C3107 1.524 . S
C3108 C3109 1.397 . S
C3108 C3113 1.363 . S
C3109 H3080 0.950 . S
C3109 C3108 1.397 . S
C3109 C3110 1.334 . S
C3110 H3081 0.950 . S
C3110 C3109 1.334 . S
C3110 C3111 1.287 . S
C3111 C3110 1.287 . S
C3111 C3112 1.524 . S
C3111 H3114 0.999 . S
C3112 H3082 0.950 . S
C3112 C3111 1.524 . S
C3112 C3113 1.415 . S
C3113 H3083 0.950 . S
C3113 C3108 1.363 . S
C3113 C3112 1.415 . S
H3114 C3111 0.999 . S
H3115 C3096 0.913 . S
H3116 C3134 0.951 . S
H3117 C3136 0.951 . S
H3118 C3138 0.950 . S
H3119 C3139 0.950 . S
H3120 C3141 0.950 . S
H3121 C3144 0.950 . S
H3122 C3145 0.950 . S
H3123 C3147 0.950 . S
H3124 C3148 0.950 . S
H3125 C3149 0.951 . S
H3126 C3151 0.951 . S
H3127 C3153 0.950 . S
H3128 C3154 0.950 . S
H3129 C3156 0.950 . S
H3130 C3159 0.950 . S
H3131 C3160 0.950 . S
H3132 C3162 0.950 . S
H3133 C3163 0.950 . S
C3134 H3116 0.951 . S
C3134 C3135 1.366 . S
C3134 C3136 1.388 . S
C3135 C3134 1.366 . S
C3135 C3139 1.385 . S
C3136 H3117 0.951 . S
C3136 C3134 1.388 . S
C3136 C3137 1.366 . S
C3137 C3136 1.366 . S
C3137 C3138 1.414 . S
C3137 C3140 1.499 . S
C3138 H3118 0.950 . S
C3138 C3137 1.414 . S
C3138 C3139 1.374 . S
C3139 H3119 0.950 . S
C3139 C3135 1.385 . S
C3139 C3138 1.374 . S
C3140 C3137 1.499 . S
C3140 C3141 1.373 . S
C3140 C3142 1.389 . S
C3141 H3120 0.950 . S
C3141 C3140 1.373 . S
C3141 C3157 1.377 . S
C3142 C3140 1.389 . S
C3142 C3143 1.524 . S
C3142 C3156 1.377 . S
C3143 C3142 1.524 . S
C3143 C3144 1.397 . S
C3143 C3148 1.363 . S
C3144 H3121 0.950 . S
C3144 C3143 1.397 . S
C3144 C3145 1.334 . S
C3145 H3122 0.950 . S
C3145 C3144 1.334 . S
C3145 C3146 1.287 . S
C3146 C3145 1.287 . S
C3146 C3147 1.524 . S
C3146 H3165 0.913 . S
C3147 H3123 0.950 . S
C3147 C3146 1.524 . S
C3147 C3148 1.415 . S
C3148 H3124 0.950 . S
C3148 C3143 1.363 . S
C3148 C3147 1.415 . S
C3149 H3125 0.951 . S
C3149 C3150 1.366 . S
C3149 C3151 1.388 . S
C3150 C3149 1.366 . S
C3150 C3154 1.385 . S
C3151 H3126 0.951 . S
C3151 C3149 1.388 . S
C3151 C3152 1.366 . S
C3152 C3151 1.366 . S
C3152 C3153 1.414 . S
C3152 C3155 1.499 . S
C3153 H3127 0.950 . S
C3153 C3152 1.414 . S
C3153 C3154 1.374 . S
C3154 H3128 0.950 . S
C3154 C3150 1.385 . S
C3154 C3153 1.374 . S
C3155 C3152 1.499 . S
C3155 C3156 1.373 . S
C3155 C3157 1.389 . S
C3156 H3129 0.950 . S
C3156 C3142 1.377 . S
C3156 C3155 1.373 . S
C3157 C3141 1.377 . S
C3157 C3155 1.389 . S
C3157 C3158 1.524 . S
C3158 C3157 1.524 . S
C3158 C3159 1.397 . S
C3158 C3163 1.363 . S
C3159 H3130 0.950 . S
C3159 C3158 1.397 . S
C3159 C3160 1.334 1_565 S
C3160 H3131 0.950 . S
C3160 C3159 1.334 1_545 S
C3160 C3161 1.287 . S
C3161 C3160 1.287 . S
C3161 C3162 1.524 . S
C3161 H3164 0.999 . S
C3162 H3132 0.950 . S
C3162 C3161 1.524 . S
C3162 C3163 1.415 1_545 S
C3163 H3133 0.950 . S
C3163 C3158 1.363 . S
C3163 C3162 1.415 1_565 S
H3164 C3161 0.999 . S
H3165 C3146 0.913 . S
H3166 C3184 0.951 . S
H3167 C3186 0.951 . S
H3168 C3188 0.950 . S
H3169 C3189 0.950 . S
H3170 C3191 0.950 . S
H3171 C3194 0.950 . S
H3172 C3195 0.950 . S
H3173 C3197 0.950 . S
H3174 C3198 0.950 . S
H3175 C3199 0.951 . S
H3176 C3201 0.951 . S
H3177 C3203 0.950 . S
H3178 C3204 0.950 . S
H3179 C3206 0.950 . S
H3180 C3209 0.950 . S
H3181 C3210 0.950 . S
H3182 C3212 0.951 . S
H3183 C3213 0.950 . S
C3184 H3166 0.951 . S
C3184 C3185 1.366 . S
C3184 C3186 1.388 . S
C3185 C3184 1.366 . S
C3185 C3189 1.385 . S
C3186 H3167 0.951 . S
C3186 C3184 1.388 . S
C3186 C3187 1.366 . S
C3187 C3186 1.366 . S
C3187 C3188 1.414 . S
C3187 C3190 1.499 . S
C3188 H3168 0.950 . S
C3188 C3187 1.414 . S
C3188 C3189 1.374 . S
C3189 H3169 0.950 . S
C3189 C3185 1.385 . S
C3189 C3188 1.374 . S
C3190 C3187 1.499 . S
C3190 C3191 1.373 . S
C3190 C3192 1.389 . S
C3191 H3170 0.950 . S
C3191 C3190 1.373 . S
C3191 C3207 1.377 . S
C3192 C3190 1.389 . S
C3192 C3193 1.524 . S
C3192 C3206 1.377 . S
C3193 C3192 1.524 . S
C3193 C3194 1.397 . S
C3193 C3198 1.363 . S
C3194 H3171 0.950 . S
C3194 C3193 1.397 . S
C3194 C3195 1.334 . S
C3195 H3172 0.950 . S
C3195 C3194 1.334 . S
C3195 C3196 1.287 . S
C3196 C3195 1.287 . S
C3196 C3197 1.524 . S
C3196 H3215 0.913 . S
C3197 H3173 0.950 . S
C3197 C3196 1.524 . S
C3197 C3198 1.415 . S
C3198 H3174 0.950 . S
C3198 C3193 1.363 . S
C3198 C3197 1.415 . S
C3199 H3175 0.951 . S
C3199 C3200 1.366 . S
C3199 C3201 1.388 . S
C3200 C3199 1.366 . S
C3200 C3204 1.385 . S
C3201 H3176 0.951 . S
C3201 C3199 1.388 . S
C3201 C3202 1.366 . S
C3202 C3201 1.366 . S
C3202 C3203 1.414 . S
C3202 C3205 1.499 . S
C3203 H3177 0.950 . S
C3203 C3202 1.414 . S
C3203 C3204 1.374 . S
C3204 H3178 0.950 . S
C3204 C3200 1.385 . S
C3204 C3203 1.374 . S
C3205 C3202 1.499 . S
C3205 C3206 1.373 . S
C3205 C3207 1.389 . S
C3206 H3179 0.950 . S
C3206 C3192 1.377 . S
C3206 C3205 1.373 . S
C3207 C3191 1.377 . S
C3207 C3205 1.389 . S
C3207 C3208 1.524 . S
C3208 C3207 1.524 . S
C3208 C3209 1.397 . S
C3208 C3213 1.363 . S
C3209 H3180 0.950 . S
C3209 C3208 1.397 . S
C3209 C3210 1.334 1_455 S
C3210 H3181 0.950 . S
C3210 C3209 1.334 1_655 S
C3210 C3211 1.287 . S
C3211 C3210 1.287 . S
C3211 C3212 1.552 . S
C3211 H3214 0.999 . S
C3212 H3182 0.951 . S
C3212 C3211 1.552 . S
C3212 C3213 1.389 1_655 S
C3213 H3183 0.950 . S
C3213 C3208 1.363 . S
C3213 C3212 1.389 1_455 S
H3214 C3211 0.999 . S
H3215 C3196 0.913 . S
H3216 C3234 0.951 . S
H3217 C3236 0.951 . S
H3218 C3238 0.950 . S
H3219 C3239 0.950 . S
H3220 C3241 0.950 . S
H3221 C3244 0.950 . S
H3222 C3245 0.950 . S
H3223 C3247 0.950 . S
H3224 C3248 0.950 . S
H3225 C3249 0.951 . S
H3226 C3251 0.951 . S
H3227 C3253 0.950 . S
H3228 C3254 0.950 . S
H3229 C3256 0.950 . S
H3230 C3259 0.950 . S
H3231 C3260 0.950 . S
H3232 C3262 0.950 . S
H3233 C3263 0.950 . S
C3234 H3216 0.951 . S
C3234 C3235 1.366 . S
C3234 C3236 1.388 . S
C3235 C3234 1.366 . S
C3235 C3239 1.385 . S
C3236 H3217 0.951 . S
C3236 C3234 1.388 . S
C3236 C3237 1.366 . S
C3237 C3236 1.366 . S
C3237 C3238 1.414 . S
C3237 C3240 1.499 . S
C3238 H3218 0.950 . S
C3238 C3237 1.414 . S
C3238 C3239 1.374 . S
C3239 H3219 0.950 . S
C3239 C3235 1.385 . S
C3239 C3238 1.374 . S
C3240 C3237 1.499 . S
C3240 C3241 1.373 . S
C3240 C3242 1.389 . S
C3241 H3220 0.950 . S
C3241 C3240 1.373 . S
C3241 C3257 1.377 . S
C3242 C3240 1.389 . S
C3242 C3243 1.524 . S
C3242 C3256 1.377 . S
C3243 C3242 1.524 . S
C3243 C3244 1.397 . S
C3243 C3248 1.363 . S
C3244 H3221 0.950 . S
C3244 C3243 1.397 . S
C3244 C3245 1.334 . S
C3245 H3222 0.950 . S
C3245 C3244 1.334 . S
C3245 C3246 1.287 . S
C3246 C3245 1.287 . S
C3246 C3247 1.524 . S
C3246 H3265 0.913 . S
C3247 H3223 0.950 . S
C3247 C3246 1.524 . S
C3247 C3248 1.415 . S
C3248 H3224 0.950 . S
C3248 C3243 1.363 . S
C3248 C3247 1.415 . S
C3249 H3225 0.951 . S
C3249 C3250 1.366 . S
C3249 C3251 1.388 . S
C3250 C3249 1.366 . S
C3250 C3254 1.385 . S
C3251 H3226 0.951 . S
C3251 C3249 1.388 . S
C3251 C3252 1.366 . S
C3252 C3251 1.366 . S
C3252 C3253 1.414 . S
C3252 C3255 1.499 . S
C3253 H3227 0.950 . S
C3253 C3252 1.414 . S
C3253 C3254 1.374 . S
C3254 H3228 0.950 . S
C3254 C3250 1.385 . S
C3254 C3253 1.374 . S
C3255 C3252 1.499 . S
C3255 C3256 1.373 . S
C3255 C3257 1.389 . S
C3256 H3229 0.950 . S
C3256 C3242 1.377 . S
C3256 C3255 1.373 . S
C3257 C3241 1.377 . S
C3257 C3255 1.389 . S
C3257 C3258 1.524 . S
C3258 C3257 1.524 . S
C3258 C3259 1.397 . S
C3258 C3263 1.363 . S
C3259 H3230 0.950 . S
C3259 C3258 1.397 . S
C3259 C3260 1.334 . S
C3260 H3231 0.950 . S
C3260 C3259 1.334 . S
C3260 C3261 1.287 . S
C3261 C3260 1.287 . S
C3261 C3262 1.524 . S
C3261 H3264 0.999 . S
C3262 H3232 0.950 . S
C3262 C3261 1.524 . S
C3262 C3263 1.415 . S
C3263 H3233 0.950 . S
C3263 C3258 1.363 . S
C3263 C3262 1.415 . S
H3264 C3261 0.999 . S
H3265 C3246 0.913 . S
H3266 C3284 0.951 . S
H3267 C3286 0.951 . S
H3268 C3288 0.950 . S
H3269 C3289 0.950 . S
H3270 C3291 0.950 . S
H3271 C3294 0.950 . S
H3272 C3295 0.950 . S
H3273 C3297 0.950 . S
H3274 C3298 0.950 . S
H3275 C3299 0.951 . S
H3276 C3301 0.951 . S
H3277 C3303 0.950 . S
H3278 C3304 0.950 . S
H3279 C3306 0.950 . S
H3280 C3309 0.950 . S
H3281 C3310 0.950 . S
H3282 C3312 0.950 . S
H3283 C3313 0.950 . S
C3284 H3266 0.951 . S
C3284 C3285 1.366 . S
C3284 C3286 1.388 . S
C3285 C3284 1.366 . S
C3285 C3289 1.385 . S
C3286 H3267 0.951 . S
C3286 C3284 1.388 . S
C3286 C3287 1.366 . S
C3287 C3286 1.366 . S
C3287 C3288 1.414 . S
C3287 C3290 1.499 . S
C3288 H3268 0.950 . S
C3288 C3287 1.414 . S
C3288 C3289 1.374 . S
C3289 H3269 0.950 . S
C3289 C3285 1.385 . S
C3289 C3288 1.374 . S
C3290 C3287 1.499 . S
C3290 C3291 1.373 . S
C3290 C3292 1.389 . S
C3291 H3270 0.950 . S
C3291 C3290 1.373 . S
C3291 C3307 1.377 . S
C3292 C3290 1.389 . S
C3292 C3293 1.524 . S
C3292 C3306 1.377 . S
C3293 C3292 1.524 . S
C3293 C3294 1.397 . S
C3293 C3298 1.363 . S
C3294 H3271 0.950 . S
C3294 C3293 1.397 . S
C3294 C3295 1.334 . S
C3295 H3272 0.950 . S
C3295 C3294 1.334 . S
C3295 C3296 1.287 . S
C3296 C3295 1.287 . S
C3296 C3297 1.524 . S
C3296 H3315 0.913 . S
C3297 H3273 0.950 . S
C3297 C3296 1.524 . S
C3297 C3298 1.415 . S
C3298 H3274 0.950 . S
C3298 C3293 1.363 . S
C3298 C3297 1.415 . S
C3299 H3275 0.951 . S
C3299 C3300 1.366 . S
C3299 C3301 1.388 . S
C3300 C3299 1.366 . S
C3300 C3304 1.385 . S
C3301 H3276 0.951 . S
C3301 C3299 1.388 . S
C3301 C3302 1.366 . S
C3302 C3301 1.366 . S
C3302 C3303 1.414 . S
C3302 C3305 1.499 . S
C3303 H3277 0.950 . S
C3303 C3302 1.414 . S
C3303 C3304 1.374 . S
C3304 H3278 0.950 . S
C3304 C3300 1.385 . S
C3304 C3303 1.374 . S
C3305 C3302 1.499 . S
C3305 C3306 1.373 . S
C3305 C3307 1.389 . S
C3306 H3279 0.950 . S
C3306 C3292 1.377 . S
C3306 C3305 1.373 . S
C3307 C3291 1.377 . S
C3307 C3305 1.389 . S
C3307 C3308 1.524 . S
C3308 C3307 1.524 . S
C3308 C3309 1.397 . S
C3308 C3313 1.363 . S
C3309 H3280 0.950 . S
C3309 C3308 1.397 . S
C3309 C3310 1.334 . S
C3310 H3281 0.950 . S
C3310 C3309 1.334 . S
C3310 C3311 1.287 . S
C3311 C3310 1.287 . S
C3311 C3312 1.524 . S
C3311 H3314 0.999 . S
C3312 H3282 0.950 . S
C3312 C3311 1.524 . S
C3312 C3313 1.415 . S
C3313 H3283 0.950 . S
C3313 C3308 1.363 . S
C3313 C3312 1.415 . S
H3314 C3311 0.999 . S
H3315 C3296 0.913 . S
H3316 C3334 0.951 . S
H3317 C3336 0.951 . S
H3318 C3338 0.950 1_545 S
H3319 C3339 0.950 1_545 S
H3320 C3341 0.950 . S
H3321 C3344 0.950 . S
H3322 C3345 0.950 . S
H3323 C3347 0.950 . S
H3324 C3348 0.950 . S
H3325 C3349 0.951 . S
H3326 C3351 0.951 . S
H3327 C3353 0.950 . S
H3328 C3354 0.950 . S
H3329 C3356 0.950 . S
H3330 C3359 0.950 . S
H3331 C3360 0.950 . S
H3332 C3362 0.950 . S
H3333 C3363 0.950 . S
C3334 H3316 0.951 . S
C3334 C3335 1.366 . S
C3334 C3336 1.388 . S
C3335 C3334 1.366 . S
C3335 C3339 1.385 . S
C3336 H3317 0.951 . S
C3336 C3334 1.388 . S
C3336 C3337 1.366 . S
C3337 C3336 1.366 . S
C3337 C3338 1.414 . S
C3337 C3340 1.499 . S
C3338 H3318 0.950 1_565 S
C3338 C3337 1.414 . S
C3338 C3339 1.374 . S
C3339 H3319 0.950 1_565 S
C3339 C3335 1.385 . S
C3339 C3338 1.374 . S
C3340 C3337 1.499 . S
C3340 C3341 1.373 . S
C3340 C3342 1.389 . S
C3341 H3320 0.950 . S
C3341 C3340 1.373 . S
C3341 C3357 1.377 . S
C3342 C3340 1.389 . S
C3342 C3343 1.524 . S
C3342 C3356 1.377 . S
C3343 C3342 1.524 . S
C3343 C3344 1.397 . S
C3343 C3348 1.363 . S
C3344 H3321 0.950 . S
C3344 C3343 1.397 . S
C3344 C3345 1.334 . S
C3345 H3322 0.950 . S
C3345 C3344 1.334 . S
C3345 C3346 1.287 . S
C3346 C3345 1.287 . S
C3346 C3347 1.524 . S
C3346 H3365 0.913 . S
C3347 H3323 0.950 . S
C3347 C3346 1.524 . S
C3347 C3348 1.415 . S
C3348 H3324 0.950 . S
C3348 C3343 1.363 . S
C3348 C3347 1.415 . S
C3349 H3325 0.951 . S
C3349 C3350 1.366 . S
C3349 C3351 1.388 . S
C3350 C3349 1.366 . S
C3350 C3354 1.385 . S
C3351 H3326 0.951 . S
C3351 C3349 1.388 . S
C3351 C3352 1.366 . S
C3352 C3351 1.366 . S
C3352 C3353 1.414 . S
C3352 C3355 1.499 . S
C3353 H3327 0.950 . S
C3353 C3352 1.414 . S
C3353 C3354 1.374 . S
C3354 H3328 0.950 . S
C3354 C3350 1.385 . S
C3354 C3353 1.374 . S
C3355 C3352 1.499 . S
C3355 C3356 1.373 . S
C3355 C3357 1.389 . S
C3356 H3329 0.950 . S
C3356 C3342 1.377 . S
C3356 C3355 1.373 . S
C3357 C3341 1.377 . S
C3357 C3355 1.389 . S
C3357 C3358 1.524 . S
C3358 C3357 1.524 . S
C3358 C3359 1.397 . S
C3358 C3363 1.363 1_565 S
C3359 H3330 0.950 . S
C3359 C3358 1.397 . S
C3359 C3360 1.334 . S
C3360 H3331 0.950 . S
C3360 C3359 1.334 . S
C3360 C3361 1.287 . S
C3361 C3360 1.287 . S
C3361 C3362 1.524 1_565 S
C3361 H3364 0.999 1_565 S
C3362 H3332 0.950 . S
C3362 C3361 1.524 1_545 S
C3362 C3363 1.415 . S
C3363 H3333 0.950 . S
C3363 C3358 1.363 1_545 S
C3363 C3362 1.415 . S
H3364 C3361 0.999 1_545 S
H3365 C3346 0.913 . S
H3366 C3384 0.951 . S
H3367 C3386 0.951 . S
H3368 C3388 0.950 . S
H3369 C3389 0.950 . S
H3370 C3391 0.950 . S
H3371 C3394 0.950 . S
H3372 C3395 0.950 . S
H3373 C3397 0.950 . S
H3374 C3398 0.950 . S
H3375 C3399 0.951 . S
H3376 C3401 0.951 . S
H3377 C3403 0.950 . S
H3378 C3404 0.950 . S
H3379 C3406 0.950 . S
H3380 C3409 0.950 . S
H3381 C3410 0.950 . S
H3382 C3412 0.950 . S
H3383 C3413 0.950 . S
C3384 H3366 0.951 . S
C3384 C3385 1.366 . S
C3384 C3386 1.388 . S
C3385 C3384 1.366 . S
C3385 C3389 1.385 . S
C3386 H3367 0.951 . S
C3386 C3384 1.388 . S
C3386 C3387 1.366 . S
C3387 C3386 1.366 . S
C3387 C3388 1.414 . S
C3387 C3390 1.499 . S
C3388 H3368 0.950 . S
C3388 C3387 1.414 . S
C3388 C3389 1.374 . S
C3389 H3369 0.950 . S
C3389 C3385 1.385 . S
C3389 C3388 1.374 . S
C3390 C3387 1.499 . S
C3390 C3391 1.373 . S
C3390 C3392 1.389 . S
C3391 H3370 0.950 . S
C3391 C3390 1.373 . S
C3391 C3407 1.377 . S
C3392 C3390 1.389 . S
C3392 C3393 1.524 . S
C3392 C3406 1.377 . S
C3393 C3392 1.524 . S
C3393 C3394 1.397 . S
C3393 C3398 1.363 . S
C3394 H3371 0.950 . S
C3394 C3393 1.397 . S
C3394 C3395 1.334 . S
C3395 H3372 0.950 . S
C3395 C3394 1.334 . S
C3395 C3396 1.287 . S
C3396 C3395 1.287 . S
C3396 C3397 1.524 . S
C3396 H3415 0.913 . S
C3397 H3373 0.950 . S
C3397 C3396 1.524 . S
C3397 C3398 1.415 . S
C3398 H3374 0.950 . S
C3398 C3393 1.363 . S
C3398 C3397 1.415 . S
C3399 H3375 0.951 . S
C3399 C3400 1.366 . S
C3399 C3401 1.388 . S
C3400 C3399 1.366 . S
C3400 C3404 1.385 . S
C3401 H3376 0.951 . S
C3401 C3399 1.388 . S
C3401 C3402 1.366 . S
C3402 C3401 1.366 . S
C3402 C3403 1.414 . S
C3402 C3405 1.499 . S
C3403 H3377 0.950 . S
C3403 C3402 1.414 . S
C3403 C3404 1.374 . S
C3404 H3378 0.950 . S
C3404 C3400 1.385 . S
C3404 C3403 1.374 . S
C3405 C3402 1.499 . S
C3405 C3406 1.373 . S
C3405 C3407 1.389 . S
C3406 H3379 0.950 . S
C3406 C3392 1.377 . S
C3406 C3405 1.373 . S
C3407 C3391 1.377 . S
C3407 C3405 1.389 . S
C3407 C3408 1.524 . S
C3408 C3407 1.524 . S
C3408 C3409 1.397 . S
C3408 C3413 1.363 . S
C3409 H3380 0.950 . S
C3409 C3408 1.397 . S
C3409 C3410 1.334 . S
C3410 H3381 0.950 . S
C3410 C3409 1.334 . S
C3410 C3411 1.287 . S
C3411 C3410 1.287 . S
C3411 C3412 1.524 . S
C3411 H3414 0.999 . S
C3412 H3382 0.950 . S
C3412 C3411 1.524 . S
C3412 C3413 1.415 . S
C3413 H3383 0.950 . S
C3413 C3408 1.363 . S
C3413 C3412 1.415 . S
H3414 C3411 0.999 . S
H3415 C3396 0.913 . S
H3416 C3434 0.951 . S
H3417 C3436 0.951 . S
H3418 C3438 0.950 . S
H3419 C3439 0.950 . S
H3420 C3441 0.950 . S
H3421 C3444 0.950 . S
H3422 C3445 0.950 . S
H3423 C3447 0.950 . S
H3424 C3448 0.950 . S
H3425 C3449 0.951 . S
H3426 C3451 0.951 . S
H3427 C3453 0.950 . S
H3428 C3454 0.950 . S
H3429 C3456 0.950 . S
H3430 C3459 0.950 . S
H3431 C3460 0.950 . S
H3432 C3462 0.950 . S
H3433 C3463 0.950 . S
C3434 H3416 0.951 . S
C3434 C3435 1.366 . S
C3434 C3436 1.388 . S
C3435 C3434 1.366 . S
C3435 C3439 1.385 . S
C3436 H3417 0.951 . S
C3436 C3434 1.388 . S
C3436 C3437 1.366 . S
C3437 C3436 1.366 . S
C3437 C3438 1.414 . S
C3437 C3440 1.499 . S
C3438 H3418 0.950 . S
C3438 C3437 1.414 . S
C3438 C3439 1.374 . S
C3439 H3419 0.950 . S
C3439 C3435 1.385 . S
C3439 C3438 1.374 . S
C3440 C3437 1.499 . S
C3440 C3441 1.373 . S
C3440 C3442 1.389 . S
C3441 H3420 0.950 . S
C3441 C3440 1.373 . S
C3441 C3457 1.377 . S
C3442 C3440 1.389 . S
C3442 C3443 1.524 . S
C3442 C3456 1.377 . S
C3443 C3442 1.524 . S
C3443 C3444 1.397 . S
C3443 C3448 1.363 . S
C3444 H3421 0.950 . S
C3444 C3443 1.397 . S
C3444 C3445 1.334 . S
C3445 H3422 0.950 . S
C3445 C3444 1.334 . S
C3445 C3446 1.287 . S
C3446 C3445 1.287 . S
C3446 C3447 1.524 . S
C3446 H3465 0.913 . S
C3447 H3423 0.950 . S
C3447 C3446 1.524 . S
C3447 C3448 1.415 . S
C3448 H3424 0.950 . S
C3448 C3443 1.363 . S
C3448 C3447 1.415 . S
C3449 H3425 0.951 . S
C3449 C3450 1.366 . S
C3449 C3451 1.388 . S
C3450 C3449 1.366 . S
C3450 C3454 1.385 . S
C3451 H3426 0.951 . S
C3451 C3449 1.388 . S
C3451 C3452 1.366 . S
C3452 C3451 1.366 . S
C3452 C3453 1.414 . S
C3452 C3455 1.499 . S
C3453 H3427 0.950 . S
C3453 C3452 1.414 . S
C3453 C3454 1.374 . S
C3454 H3428 0.950 . S
C3454 C3450 1.385 . S
C3454 C3453 1.374 . S
C3455 C3452 1.499 . S
C3455 C3456 1.373 . S
C3455 C3457 1.389 . S
C3456 H3429 0.950 . S
C3456 C3442 1.377 . S
C3456 C3455 1.373 . S
C3457 C3441 1.377 . S
C3457 C3455 1.389 . S
C3457 C3458 1.524 . S
C3458 C3457 1.524 . S
C3458 C3459 1.397 . S
C3458 C3463 1.363 . S
C3459 H3430 0.950 . S
C3459 C3458 1.397 . S
C3459 C3460 1.334 . S
C3460 H3431 0.950 . S
C3460 C3459 1.334 . S
C3460 C3461 1.287 . S
C3461 C3460 1.287 . S
C3461 C3462 1.524 . S
C3461 H3464 0.999 . S
C3462 H3432 0.950 . S
C3462 C3461 1.524 . S
C3462 C3463 1.415 . S
C3463 H3433 0.950 . S
C3463 C3458 1.363 . S
C3463 C3462 1.415 . S
H3464 C3461 0.999 . S
H3465 C3446 0.913 . S
H3466 C3484 0.951 . S
H3467 C3486 0.951 . S
H3468 C3488 0.950 . S
H3469 C3489 0.950 . S
H3470 C3491 0.950 . S
H3471 C3494 0.950 . S
H3472 C3495 0.950 . S
H3473 C3497 0.950 . S
H3474 C3498 0.950 . S
H3475 C3499 0.951 . S
H3476 C3501 0.951 . S
H3477 C3503 0.950 . S
H3478 C3504 0.950 . S
H3479 C3506 0.950 . S
H3480 C3509 0.950 . S
H3481 C3510 0.950 . S
H3482 C3512 0.950 . S
H3483 C3513 0.950 . S
C3484 H3466 0.951 . S
C3484 C3485 1.366 . S
C3484 C3486 1.388 . S
C3485 C3484 1.366 . S
C3485 C3489 1.385 . S
C3486 H3467 0.951 . S
C3486 C3484 1.388 . S
C3486 C3487 1.366 . S
C3487 C3486 1.366 . S
C3487 C3488 1.414 . S
C3487 C3490 1.499 . S
C3488 H3468 0.950 . S
C3488 C3487 1.414 . S
C3488 C3489 1.374 . S
C3489 H3469 0.950 . S
C3489 C3485 1.385 . S
C3489 C3488 1.374 . S
C3490 C3487 1.499 . S
C3490 C3491 1.373 . S
C3490 C3492 1.389 . S
C3491 H3470 0.950 . S
C3491 C3490 1.373 . S
C3491 C3507 1.377 . S
C3492 C3490 1.389 . S
C3492 C3493 1.524 . S
C3492 C3506 1.377 . S
C3493 C3492 1.524 . S
C3493 C3494 1.397 . S
C3493 C3498 1.363 . S
C3494 H3471 0.950 . S
C3494 C3493 1.397 . S
C3494 C3495 1.334 . S
C3495 H3472 0.950 . S
C3495 C3494 1.334 . S
C3495 C3496 1.287 . S
C3496 C3495 1.287 . S
C3496 C3497 1.524 . S
C3496 H3515 0.913 . S
C3497 H3473 0.950 . S
C3497 C3496 1.524 . S
C3497 C3498 1.415 . S
C3498 H3474 0.950 . S
C3498 C3493 1.363 . S
C3498 C3497 1.415 . S
C3499 H3475 0.951 . S
C3499 C3500 1.366 . S
C3499 C3501 1.388 . S
C3500 C3499 1.366 . S
C3500 C3504 1.385 . S
C3501 H3476 0.951 . S
C3501 C3499 1.388 . S
C3501 C3502 1.366 . S
C3502 C3501 1.366 . S
C3502 C3503 1.414 . S
C3502 C3505 1.499 . S
C3503 H3477 0.950 . S
C3503 C3502 1.414 . S
C3503 C3504 1.374 . S
C3504 H3478 0.950 . S
C3504 C3500 1.385 . S
C3504 C3503 1.374 . S
C3505 C3502 1.499 . S
C3505 C3506 1.373 . S
C3505 C3507 1.389 . S
C3506 H3479 0.950 . S
C3506 C3492 1.377 . S
C3506 C3505 1.373 . S
C3507 C3491 1.377 . S
C3507 C3505 1.389 . S
C3507 C3508 1.524 . S
C3508 C3507 1.524 . S
C3508 C3509 1.397 . S
C3508 C3513 1.363 . S
C3509 H3480 0.950 . S
C3509 C3508 1.397 . S
C3509 C3510 1.334 . S
C3510 H3481 0.950 . S
C3510 C3509 1.334 . S
C3510 C3511 1.287 . S
C3511 C3510 1.287 . S
C3511 C3512 1.524 . S
C3511 H3514 0.999 . S
C3512 H3482 0.950 . S
C3512 C3511 1.524 . S
C3512 C3513 1.415 . S
C3513 H3483 0.950 . S
C3513 C3508 1.363 . S
C3513 C3512 1.415 . S
H3514 C3511 0.999 . S
H3515 C3496 0.913 . S
H3516 C3534 0.951 . S
H3517 C3536 0.951 . S
H3518 C3538 0.950 . S
H3519 C3539 0.950 . S
H3520 C3541 0.950 . S
H3521 C3544 0.950 . S
H3522 C3545 0.950 . S
H3523 C3547 0.950 . S
H3524 C3548 0.950 . S
H3525 C3549 0.951 . S
H3526 C3551 0.951 . S
H3527 C3553 0.950 . S
H3528 C3554 0.950 . S
H3529 C3556 0.950 . S
H3530 C3559 0.950 . S
H3531 C3560 0.973 . S
H3532 C3562 0.950 . S
H3533 C3563 0.950 . S
C3534 H3516 0.951 . S
C3534 C3535 1.366 . S
C3534 C3536 1.388 . S
C3535 C3534 1.366 . S
C3535 C3539 1.385 . S
C3536 H3517 0.951 . S
C3536 C3534 1.388 . S
C3536 C3537 1.366 . S
C3537 C3536 1.366 . S
C3537 C3538 1.414 . S
C3537 C3540 1.499 . S
C3538 H3518 0.950 . S
C3538 C3537 1.414 . S
C3538 C3539 1.374 . S
C3539 H3519 0.950 . S
C3539 C3535 1.385 . S
C3539 C3538 1.374 . S
C3540 C3537 1.499 . S
C3540 C3541 1.373 . S
C3540 C3542 1.389 . S
C3541 H3520 0.950 . S
C3541 C3540 1.373 . S
C3541 C3557 1.377 . S
C3542 C3540 1.389 . S
C3542 C3543 1.524 . S
C3542 C3556 1.377 . S
C3543 C3542 1.524 . S
C3543 C3544 1.397 . S
C3543 C3548 1.363 . S
C3544 H3521 0.950 . S
C3544 C3543 1.397 . S
C3544 C3545 1.334 . S
C3545 H3522 0.950 . S
C3545 C3544 1.334 . S
C3545 C3546 1.287 . S
C3546 C3545 1.287 . S
C3546 C3547 1.524 . S
C3546 H3565 0.913 . S
C3547 H3523 0.950 . S
C3547 C3546 1.524 . S
C3547 C3548 1.415 . S
C3548 H3524 0.950 . S
C3548 C3543 1.363 . S
C3548 C3547 1.415 . S
C3549 H3525 0.951 . S
C3549 C3550 1.366 . S
C3549 C3551 1.388 . S
C3550 C3549 1.366 . S
C3550 C3554 1.385 . S
C3551 H3526 0.951 . S
C3551 C3549 1.388 . S
C3551 C3552 1.366 . S
C3552 C3551 1.366 . S
C3552 C3553 1.414 . S
C3552 C3555 1.499 . S
C3553 H3527 0.950 . S
C3553 C3552 1.414 . S
C3553 C3554 1.374 . S
C3554 H3528 0.950 . S
C3554 C3550 1.385 . S
C3554 C3553 1.374 . S
C3555 C3552 1.499 . S
C3555 C3556 1.373 . S
C3555 C3557 1.389 . S
C3556 H3529 0.950 . S
C3556 C3542 1.377 . S
C3556 C3555 1.373 . S
C3557 C3541 1.377 . S
C3557 C3555 1.389 . S
C3557 C3558 1.524 . S
C3558 C3557 1.524 . S
C3558 C3559 1.397 . S
C3558 C3563 1.363 . S
C3559 H3530 0.950 . S
C3559 C3558 1.397 . S
C3559 C3560 1.334 . S
C3560 H3531 0.973 . S
C3560 C3559 1.334 . S
C3560 C3561 1.287 . S
C3561 C3560 1.287 . S
C3561 C3562 1.524 . S
C3561 H3564 0.999 . S
C3562 H3532 0.950 . S
C3562 C3561 1.524 . S
C3562 C3563 1.415 . S
C3563 H3533 0.950 . S
C3563 C3558 1.363 . S
C3563 C3562 1.415 . S
H3564 C3561 0.999 . S
H3565 C3546 0.913 . S
H3566 C3584 0.951 . S
H3567 C3586 0.951 . S
H3568 C3588 0.967 . S
H3569 C3589 0.950 1_554 S
H3570 C3591 0.950 . S
H3571 C3594 0.950 . S
H3572 C3595 0.954 . S
H3573 C3597 0.950 . S
H3574 C3598 0.950 . S
H3575 C3599 0.951 . S
H3576 C3601 0.951 . S
H3577 C3603 0.950 . S
H3578 C3604 0.950 . S
H3579 C3606 0.950 . S
H3580 C3609 0.950 . S
H3581 C3610 0.950 . S
H3582 C3612 0.950 . S
H3583 C3613 0.950 . S
C3584 H3566 0.951 . S
C3584 C3585 1.366 . S
C3584 C3586 1.388 . S
C3585 C3584 1.366 . S
C3585 C3589 1.385 . S
C3586 H3567 0.951 . S
C3586 C3584 1.388 . S
C3586 C3587 1.366 . S
C3587 C3586 1.366 . S
C3587 C3588 1.414 . S
C3587 C3590 1.499 . S
C3588 H3568 0.967 . S
C3588 C3587 1.414 . S
C3588 C3589 1.374 . S
C3589 H3569 0.950 1_556 S
C3589 C3585 1.385 . S
C3589 C3588 1.374 . S
C3590 C3587 1.499 . S
C3590 C3591 1.373 . S
C3590 C3592 1.389 . S
C3591 H3570 0.950 . S
C3591 C3590 1.373 . S
C3591 C3607 1.377 . S
C3592 C3590 1.389 . S
C3592 C3593 1.524 . S
C3592 C3606 1.377 . S
C3593 C3592 1.524 . S
C3593 C3594 1.397 . S
C3593 C3598 1.363 . S
C3594 H3571 0.950 . S
C3594 C3593 1.397 . S
C3594 C3595 1.334 . S
C3595 H3572 0.954 . S
C3595 C3594 1.334 . S
C3595 C3596 1.287 . S
C3596 C3595 1.287 . S
C3596 C3597 1.524 . S
C3596 H3615 0.913 . S
C3597 H3573 0.950 . S
C3597 C3596 1.524 . S
C3597 C3598 1.415 . S
C3598 H3574 0.950 . S
C3598 C3593 1.363 . S
C3598 C3597 1.415 . S
C3599 H3575 0.951 . S
C3599 C3600 1.366 . S
C3599 C3601 1.388 . S
C3600 C3599 1.366 . S
C3600 C3604 1.385 . S
C3601 H3576 0.951 . S
C3601 C3599 1.388 . S
C3601 C3602 1.366 . S
C3602 C3601 1.366 . S
C3602 C3603 1.414 . S
C3602 C3605 1.499 . S
C3603 H3577 0.950 . S
C3603 C3602 1.414 . S
C3603 C3604 1.374 . S
C3604 H3578 0.950 . S
C3604 C3600 1.385 . S
C3604 C3603 1.374 . S
C3605 C3602 1.499 . S
C3605 C3606 1.373 . S
C3605 C3607 1.389 . S
C3606 H3579 0.950 . S
C3606 C3592 1.377 . S
C3606 C3605 1.373 . S
C3607 C3591 1.377 . S
C3607 C3605 1.389 . S
C3607 C3608 1.524 . S
C3608 C3607 1.524 . S
C3608 C3609 1.397 . S
C3608 C3613 1.363 . S
C3609 H3580 0.950 . S
C3609 C3608 1.397 . S
C3609 C3610 1.334 . S
C3610 H3581 0.950 . S
C3610 C3609 1.334 . S
C3610 C3611 1.287 . S
C3611 C3610 1.287 . S
C3611 C3612 1.524 . S
C3611 H3614 0.999 . S
C3612 H3582 0.950 . S
C3612 C3611 1.524 . S
C3612 C3613 1.415 . S
C3613 H3583 0.950 . S
C3613 C3608 1.363 . S
C3613 C3612 1.415 . S
H3614 C3611 0.999 . S
H3615 C3596 0.913 . S
H3616 C3634 0.951 . S
H3617 C3636 0.951 . S
H3618 C3638 0.950 . S
H3619 C3639 0.950 . S
H3620 C3641 0.950 . S
H3621 C3644 0.950 . S
H3622 C3645 0.950 . S
H3623 C3647 0.950 . S
H3624 C3648 0.950 . S
H3625 C3649 0.951 . S
H3626 C3651 0.951 . S
H3627 C3653 0.950 . S
H3628 C3654 0.950 . S
H3629 C3656 0.950 . S
H3630 C3659 0.950 . S
H3631 C3660 0.950 . S
H3632 C3662 0.950 . S
H3633 C3663 0.950 . S
C3634 H3616 0.951 . S
C3634 C3635 1.366 . S
C3634 C3636 1.388 . S
C3635 C3634 1.366 . S
C3635 C3639 1.385 . S
C3636 H3617 0.951 . S
C3636 C3634 1.388 . S
C3636 C3637 1.366 . S
C3637 C3636 1.366 . S
C3637 C3638 1.414 . S
C3637 C3640 1.499 . S
C3638 H3618 0.950 . S
C3638 C3637 1.414 . S
C3638 C3639 1.374 . S
C3639 H3619 0.950 . S
C3639 C3635 1.385 . S
C3639 C3638 1.374 . S
C3640 C3637 1.499 . S
C3640 C3641 1.373 . S
C3640 C3642 1.389 . S
C3641 H3620 0.950 . S
C3641 C3640 1.373 . S
C3641 C3657 1.377 . S
C3642 C3640 1.389 . S
C3642 C3643 1.524 . S
C3642 C3656 1.377 . S
C3643 C3642 1.524 . S
C3643 C3644 1.397 . S
C3643 C3648 1.363 . S
C3644 H3621 0.950 . S
C3644 C3643 1.397 . S
C3644 C3645 1.334 . S
C3645 H3622 0.950 . S
C3645 C3644 1.334 . S
C3645 C3646 1.287 . S
C3646 C3645 1.287 . S
C3646 C3647 1.524 . S
C3646 H3665 0.913 . S
C3647 H3623 0.950 . S
C3647 C3646 1.524 . S
C3647 C3648 1.415 . S
C3648 H3624 0.950 . S
C3648 C3643 1.363 . S
C3648 C3647 1.415 . S
C3649 H3625 0.951 . S
C3649 C3650 1.366 . S
C3649 C3651 1.388 . S
C3650 C3649 1.366 . S
C3650 C3654 1.385 . S
C3651 H3626 0.951 . S
C3651 C3649 1.388 . S
C3651 C3652 1.366 . S
C3652 C3651 1.366 . S
C3652 C3653 1.414 . S
C3652 C3655 1.499 . S
C3653 H3627 0.950 . S
C3653 C3652 1.414 . S
C3653 C3654 1.374 . S
C3654 H3628 0.950 . S
C3654 C3650 1.385 . S
C3654 C3653 1.374 . S
C3655 C3652 1.499 . S
C3655 C3656 1.373 . S
C3655 C3657 1.389 . S
C3656 H3629 0.950 . S
C3656 C3642 1.377 . S
C3656 C3655 1.373 . S
C3657 C3641 1.377 . S
C3657 C3655 1.389 . S
C3657 C3658 1.524 . S
C3658 C3657 1.524 . S
C3658 C3659 1.397 . S
C3658 C3663 1.363 . S
C3659 H3630 0.950 . S
C3659 C3658 1.397 . S
C3659 C3660 1.334 . S
C3660 H3631 0.950 . S
C3660 C3659 1.334 . S
C3660 C3661 1.287 . S
C3661 C3660 1.287 . S
C3661 C3662 1.524 . S
C3661 H3664 0.999 . S
C3662 H3632 0.950 . S
C3662 C3661 1.524 . S
C3662 C3663 1.415 . S
C3663 H3633 0.950 . S
C3663 C3658 1.363 . S
C3663 C3662 1.415 . S
H3664 C3661 0.999 . S
H3665 C3646 0.913 . S
H3666 C3684 0.951 . S
H3667 C3686 0.951 . S
H3668 C3688 0.950 . S
H3669 C3689 0.950 . S
H3670 C3691 0.950 . S
H3671 C3694 0.950 . S
H3672 C3695 0.950 . S
H3673 C3697 0.950 . S
H3674 C3698 0.950 . S
H3675 C3699 0.951 . S
H3676 C3701 0.951 . S
H3677 C3703 0.950 . S
H3678 C3704 0.950 . S
H3679 C3706 0.950 . S
H3680 C3709 0.950 . S
H3681 C3710 0.950 . S
H3682 C3712 0.950 . S
H3683 C3713 0.950 . S
C3684 H3666 0.951 . S
C3684 C3685 1.366 . S
C3684 C3686 1.388 . S
C3685 C3684 1.366 . S
C3685 C3689 1.385 . S
C3686 H3667 0.951 . S
C3686 C3684 1.388 . S
C3686 C3687 1.366 . S
C3687 C3686 1.366 . S
C3687 C3688 1.414 . S
C3687 C3690 1.499 . S
C3688 H3668 0.950 . S
C3688 C3687 1.414 . S
C3688 C3689 1.374 . S
C3689 H3669 0.950 . S
C3689 C3685 1.385 . S
C3689 C3688 1.374 . S
C3690 C3687 1.499 . S
C3690 C3691 1.373 . S
C3690 C3692 1.389 . S
C3691 H3670 0.950 . S
C3691 C3690 1.373 . S
C3691 C3707 1.377 . S
C3692 C3690 1.389 . S
C3692 C3693 1.524 . S
C3692 C3706 1.377 . S
C3693 C3692 1.524 . S
C3693 C3694 1.397 . S
C3693 C3698 1.363 . S
C3694 H3671 0.950 . S
C3694 C3693 1.397 . S
C3694 C3695 1.334 . S
C3695 H3672 0.950 . S
C3695 C3694 1.334 . S
C3695 C3696 1.287 . S
C3696 C3695 1.287 . S
C3696 C3697 1.524 . S
C3696 H3715 0.913 . S
C3697 H3673 0.950 . S
C3697 C3696 1.524 . S
C3697 C3698 1.415 . S
C3698 H3674 0.950 . S
C3698 C3693 1.363 . S
C3698 C3697 1.415 . S
C3699 H3675 0.951 . S
C3699 C3700 1.366 . S
C3699 C3701 1.388 . S
C3700 C3699 1.366 . S
C3700 C3704 1.385 . S
C3701 H3676 0.951 . S
C3701 C3699 1.388 . S
C3701 C3702 1.366 . S
C3702 C3701 1.366 . S
C3702 C3703 1.414 . S
C3702 C3705 1.499 . S
C3703 H3677 0.950 . S
C3703 C3702 1.414 . S
C3703 C3704 1.374 . S
C3704 H3678 0.950 . S
C3704 C3700 1.385 . S
C3704 C3703 1.374 . S
C3705 C3702 1.499 . S
C3705 C3706 1.373 . S
C3705 C3707 1.389 . S
C3706 H3679 0.950 . S
C3706 C3692 1.377 . S
C3706 C3705 1.373 . S
C3707 C3691 1.377 . S
C3707 C3705 1.389 . S
C3707 C3708 1.524 . S
C3708 C3707 1.524 . S
C3708 C3709 1.397 . S
C3708 C3713 1.363 . S
C3709 H3680 0.950 . S
C3709 C3708 1.397 . S
C3709 C3710 1.334 . S
C3710 H3681 0.950 . S
C3710 C3709 1.334 . S
C3710 C3711 1.287 . S
C3711 C3710 1.287 . S
C3711 C3712 1.524 . S
C3711 H3714 0.999 . S
C3712 H3682 0.950 . S
C3712 C3711 1.524 . S
C3712 C3713 1.415 . S
C3713 H3683 0.950 . S
C3713 C3708 1.363 . S
C3713 C3712 1.415 . S
H3714 C3711 0.999 . S
H3715 C3696 0.913 . S
H3716 C3734 0.951 . S
H3717 C3736 0.951 . S
H3718 C3738 0.950 . S
H3719 C3739 0.950 . S
H3720 C3741 0.950 . S
H3721 C3744 0.950 . S
H3722 C3745 0.950 . S
H3723 C3747 0.950 . S
H3724 C3748 0.950 . S
H3725 C3749 0.951 . S
H3726 C3751 0.951 . S
H3727 C3753 0.950 . S
H3728 C3754 0.950 . S
H3729 C3756 0.950 . S
H3730 C3759 0.950 . S
H3731 C3760 0.950 . S
H3732 C3762 0.898 1_565 S
H3733 C3763 0.950 . S
C3734 H3716 0.951 . S
C3734 C3735 1.366 . S
C3734 C3736 1.388 . S
C3735 C3734 1.366 . S
C3735 C3739 1.385 . S
C3736 H3717 0.951 . S
C3736 C3734 1.388 . S
C3736 C3737 1.366 . S
C3737 C3736 1.366 . S
C3737 C3738 1.414 . S
C3737 C3740 1.499 . S
C3738 H3718 0.950 . S
C3738 C3737 1.414 . S
C3738 C3739 1.374 . S
C3739 H3719 0.950 . S
C3739 C3735 1.385 . S
C3739 C3738 1.374 . S
C3740 C3737 1.499 . S
C3740 C3741 1.373 . S
C3740 C3742 1.389 . S
C3741 H3720 0.950 . S
C3741 C3740 1.373 . S
C3741 C3757 1.377 . S
C3742 C3740 1.389 . S
C3742 C3743 1.524 . S
C3742 C3756 1.377 . S
C3743 C3742 1.524 . S
C3743 C3744 1.397 . S
C3743 C3748 1.363 . S
C3744 H3721 0.950 . S
C3744 C3743 1.397 . S
C3744 C3745 1.334 . S
C3745 H3722 0.950 . S
C3745 C3744 1.334 . S
C3745 C3746 1.287 . S
C3746 C3745 1.287 . S
C3746 C3747 1.524 . S
C3746 H3765 0.913 . S
C3747 H3723 0.950 . S
C3747 C3746 1.524 . S
C3747 C3748 1.415 . S
C3748 H3724 0.950 . S
C3748 C3743 1.363 . S
C3748 C3747 1.415 . S
C3749 H3725 0.951 . S
C3749 C3750 1.366 . S
C3749 C3751 1.388 . S
C3750 C3749 1.366 . S
C3750 C3754 1.385 . S
C3751 H3726 0.951 . S
C3751 C3749 1.388 . S
C3751 C3752 1.366 . S
C3752 C3751 1.366 . S
C3752 C3753 1.414 . S
C3752 C3755 1.499 . S
C3753 H3727 0.950 . S
C3753 C3752 1.414 . S
C3753 C3754 1.374 . S
C3754 H3728 0.950 . S
C3754 C3750 1.385 . S
C3754 C3753 1.374 . S
C3755 C3752 1.499 . S
C3755 C3756 1.373 . S
C3755 C3757 1.389 . S
C3756 H3729 0.950 . S
C3756 C3742 1.377 . S
C3756 C3755 1.373 . S
C3757 C3741 1.377 . S
C3757 C3755 1.389 . S
C3757 C3758 1.524 . S
C3758 C3757 1.524 . S
C3758 C3759 1.397 . S
C3758 C3763 1.363 . S
C3759 H3730 0.950 . S
C3759 C3758 1.397 . S
C3759 C3760 1.334 . S
C3760 H3731 0.950 . S
C3760 C3759 1.334 . S
C3760 C3761 1.287 . S
C3761 C3760 1.287 . S
C3761 C3762 1.549 . S
C3761 H3764 0.999 1_545 S
C3762 H3732 0.898 1_545 S
C3762 C3761 1.549 . S
C3762 C3763 1.451 . S
C3763 H3733 0.950 . S
C3763 C3758 1.363 . S
C3763 C3762 1.451 . S
H3764 C3761 0.999 1_565 S
H3765 C3746 0.913 . S
H3766 C3784 0.951 1_455 S
H3767 C3786 0.948 1_455 S
H3768 C3788 0.950 . S
H3769 C3789 0.950 . S
H3770 C3791 0.950 . S
H3771 C3794 0.911 1_655 S
H3772 C3795 0.950 . S
H3773 C3797 0.950 . S
H3774 C3798 0.950 . S
H3775 C3799 0.951 . S
H3776 C3801 0.951 . S
H3777 C3803 0.950 . S
H3778 C3804 0.950 . S
H3779 C3806 0.950 . S
H3780 C3809 0.950 . S
H3781 C3810 0.950 . S
H3782 C3812 0.950 . S
H3783 C3813 0.950 . S
C3784 H3766 0.951 1_655 S
C3784 C3785 1.366 . S
C3784 C3786 1.388 . S
C3785 C3784 1.366 . S
C3785 C3789 1.385 . S
C3786 H3767 0.948 1_655 S
C3786 C3784 1.388 . S
C3786 C3787 1.366 . S
C3787 C3786 1.366 . S
C3787 C3788 1.414 . S
C3787 C3790 1.499 . S
C3788 H3768 0.950 . S
C3788 C3787 1.414 . S
C3788 C3789 1.374 . S
C3789 H3769 0.950 . S
C3789 C3785 1.385 . S
C3789 C3788 1.374 . S
C3790 C3787 1.499 . S
C3790 C3791 1.373 . S
C3790 C3792 1.389 . S
C3791 H3770 0.950 . S
C3791 C3790 1.373 . S
C3791 C3807 1.377 . S
C3792 C3790 1.389 . S
C3792 C3793 1.464 1_655 S
C3792 C3806 1.377 . S
C3793 C3792 1.464 1_455 S
C3793 C3794 1.394 . S
C3793 C3798 1.425 . S
C3794 H3771 0.911 1_455 S
C3794 C3793 1.394 . S
C3794 C3795 1.368 . S
C3795 H3772 0.950 . S
C3795 C3794 1.368 . S
C3795 C3796 1.287 . S
C3796 C3795 1.287 . S
C3796 C3797 1.524 . S
C3796 H3815 0.913 . S
C3797 H3773 0.950 . S
C3797 C3796 1.524 . S
C3797 C3798 1.415 . S
C3798 H3774 0.950 . S
C3798 C3793 1.425 . S
C3798 C3797 1.415 . S
C3799 H3775 0.951 . S
C3799 C3800 1.366 . S
C3799 C3801 1.388 . S
C3800 C3799 1.366 . S
C3800 C3804 1.385 . S
C3801 H3776 0.951 . S
C3801 C3799 1.388 . S
C3801 C3802 1.366 . S
C3802 C3801 1.366 . S
C3802 C3803 1.414 . S
C3802 C3805 1.499 . S
C3803 H3777 0.950 . S
C3803 C3802 1.414 . S
C3803 C3804 1.374 . S
C3804 H3778 0.950 . S
C3804 C3800 1.385 . S
C3804 C3803 1.374 . S
C3805 C3802 1.499 . S
C3805 C3806 1.373 . S
C3805 C3807 1.389 . S
C3806 H3779 0.950 . S
C3806 C3792 1.377 . S
C3806 C3805 1.373 . S
C3807 C3791 1.377 . S
C3807 C3805 1.389 . S
C3807 C3808 1.524 . S
C3808 C3807 1.524 . S
C3808 C3809 1.397 . S
C3808 C3813 1.363 . S
C3809 H3780 0.950 . S
C3809 C3808 1.397 . S
C3809 C3810 1.334 . S
C3810 H3781 0.950 . S
C3810 C3809 1.334 . S
C3810 C3811 1.287 . S
C3811 C3810 1.287 . S
C3811 C3812 1.524 . S
C3811 H3814 0.999 . S
C3812 H3782 0.950 . S
C3812 C3811 1.524 . S
C3812 C3813 1.415 . S
C3813 H3783 0.950 . S
C3813 C3808 1.363 . S
C3813 C3812 1.415 . S
H3814 C3811 0.999 . S
H3815 C3796 0.913 . S
H3816 C3834 0.951 . S
H3817 C3836 0.951 . S
H3818 C3838 0.950 . S
H3819 C3839 0.950 . S
H3820 C3841 0.950 . S
H3821 C3844 0.950 . S
H3822 C3845 0.950 . S
H3823 C3847 0.950 . S
H3824 C3848 0.950 . S
H3825 C3849 0.951 . S
H3826 C3851 0.951 . S
H3827 C3853 0.950 . S
H3828 C3854 0.950 . S
H3829 C3856 0.950 . S
H3830 C3859 0.950 . S
H3831 C3860 0.950 . S
H3832 C3862 0.950 . S
H3833 C3863 0.950 . S
C3834 H3816 0.951 . S
C3834 C3835 1.366 . S
C3834 C3836 1.388 . S
C3835 C3834 1.366 . S
C3835 C3839 1.385 . S
C3836 H3817 0.951 . S
C3836 C3834 1.388 . S
C3836 C3837 1.366 . S
C3837 C3836 1.366 . S
C3837 C3838 1.414 . S
C3837 C3840 1.499 . S
C3838 H3818 0.950 . S
C3838 C3837 1.414 . S
C3838 C3839 1.374 . S
C3839 H3819 0.950 . S
C3839 C3835 1.385 . S
C3839 C3838 1.374 . S
C3840 C3837 1.499 . S
C3840 C3841 1.373 . S
C3840 C3842 1.389 . S
C3841 H3820 0.950 . S
C3841 C3840 1.373 . S
C3841 C3857 1.377 . S
C3842 C3840 1.389 . S
C3842 C3843 1.524 . S
C3842 C3856 1.377 . S
C3843 C3842 1.524 . S
C3843 C3844 1.397 . S
C3843 C3848 1.363 . S
C3844 H3821 0.950 . S
C3844 C3843 1.397 . S
C3844 C3845 1.334 . S
C3845 H3822 0.950 . S
C3845 C3844 1.334 . S
C3845 C3846 1.287 . S
C3846 C3845 1.287 . S
C3846 C3847 1.524 . S
C3846 H3865 0.913 . S
C3847 H3823 0.950 . S
C3847 C3846 1.524 . S
C3847 C3848 1.415 . S
C3848 H3824 0.950 . S
C3848 C3843 1.363 . S
C3848 C3847 1.415 . S
C3849 H3825 0.951 . S
C3849 C3850 1.366 . S
C3849 C3851 1.388 . S
C3850 C3849 1.366 . S
C3850 C3854 1.385 . S
C3851 H3826 0.951 . S
C3851 C3849 1.388 . S
C3851 C3852 1.366 . S
C3852 C3851 1.366 . S
C3852 C3853 1.414 . S
C3852 C3855 1.499 . S
C3853 H3827 0.950 . S
C3853 C3852 1.414 . S
C3853 C3854 1.374 . S
C3854 H3828 0.950 . S
C3854 C3850 1.385 . S
C3854 C3853 1.374 . S
C3855 C3852 1.499 . S
C3855 C3856 1.373 . S
C3855 C3857 1.389 . S
C3856 H3829 0.950 . S
C3856 C3842 1.377 . S
C3856 C3855 1.373 . S
C3857 C3841 1.377 . S
C3857 C3855 1.389 . S
C3857 C3858 1.524 . S
C3858 C3857 1.524 . S
C3858 C3859 1.397 . S
C3858 C3863 1.363 . S
C3859 H3830 0.950 . S
C3859 C3858 1.397 . S
C3859 C3860 1.334 . S
C3860 H3831 0.950 . S
C3860 C3859 1.334 . S
C3860 C3861 1.287 . S
C3861 C3860 1.287 . S
C3861 C3862 1.524 . S
C3861 H3864 0.999 . S
C3862 H3832 0.950 . S
C3862 C3861 1.524 . S
C3862 C3863 1.415 . S
C3863 H3833 0.950 . S
C3863 C3858 1.363 . S
C3863 C3862 1.415 . S
H3864 C3861 0.999 . S
H3865 C3846 0.913 . S
H3866 C3884 0.951 . S
H3867 C3886 0.951 . S
H3868 C3888 0.950 . S
H3869 C3889 0.950 . S
H3870 C3891 0.950 . S
H3871 C3894 0.950 . S
H3872 C3895 0.950 . S
H3873 C3897 0.950 . S
H3874 C3898 0.950 . S
H3875 C3899 0.951 . S
H3876 C3901 0.951 . S
H3877 C3903 0.950 . S
H3878 C3904 0.950 . S
H3879 C3906 0.950 . S
H3880 C3909 0.950 . S
H3881 C3910 0.950 . S
H3882 C3912 0.950 . S
H3883 C3913 0.950 . S
C3884 H3866 0.951 . S
C3884 C3885 1.366 . S
C3884 C3886 1.388 . S
C3885 C3884 1.366 . S
C3885 C3889 1.385 . S
C3886 H3867 0.951 . S
C3886 C3884 1.388 . S
C3886 C3887 1.366 . S
C3887 C3886 1.366 . S
C3887 C3888 1.414 . S
C3887 C3890 1.499 . S
C3888 H3868 0.950 . S
C3888 C3887 1.414 . S
C3888 C3889 1.374 . S
C3889 H3869 0.950 . S
C3889 C3885 1.385 . S
C3889 C3888 1.374 . S
C3890 C3887 1.499 . S
C3890 C3891 1.373 . S
C3890 C3892 1.389 . S
C3891 H3870 0.950 . S
C3891 C3890 1.373 . S
C3891 C3907 1.377 . S
C3892 C3890 1.389 . S
C3892 C3893 1.524 . S
C3892 C3906 1.377 . S
C3893 C3892 1.524 . S
C3893 C3894 1.397 . S
C3893 C3898 1.363 . S
C3894 H3871 0.950 . S
C3894 C3893 1.397 . S
C3894 C3895 1.334 . S
C3895 H3872 0.950 . S
C3895 C3894 1.334 . S
C3895 C3896 1.287 . S
C3896 C3895 1.287 . S
C3896 C3897 1.524 . S
C3896 H3915 0.913 . S
C3897 H3873 0.950 . S
C3897 C3896 1.524 . S
C3897 C3898 1.415 . S
C3898 H3874 0.950 . S
C3898 C3893 1.363 . S
C3898 C3897 1.415 . S
C3899 H3875 0.951 . S
C3899 C3900 1.366 . S
C3899 C3901 1.388 . S
C3900 C3899 1.366 . S
C3900 C3904 1.385 . S
C3901 H3876 0.951 . S
C3901 C3899 1.388 . S
C3901 C3902 1.366 . S
C3902 C3901 1.366 . S
C3902 C3903 1.414 . S
C3902 C3905 1.499 . S
C3903 H3877 0.950 . S
C3903 C3902 1.414 . S
C3903 C3904 1.374 . S
C3904 H3878 0.950 . S
C3904 C3900 1.385 . S
C3904 C3903 1.374 . S
C3905 C3902 1.499 . S
C3905 C3906 1.373 . S
C3905 C3907 1.389 . S
C3906 H3879 0.950 . S
C3906 C3892 1.377 . S
C3906 C3905 1.373 . S
C3907 C3891 1.377 . S
C3907 C3905 1.389 . S
C3907 C3908 1.524 . S
C3908 C3907 1.524 . S
C3908 C3909 1.397 . S
C3908 C3913 1.363 . S
C3909 H3880 0.950 . S
C3909 C3908 1.397 . S
C3909 C3910 1.334 . S
C3910 H3881 0.950 . S
C3910 C3909 1.334 . S
C3910 C3911 1.287 . S
C3911 C3910 1.287 . S
C3911 C3912 1.524 . S
C3911 H3914 0.999 . S
C3912 H3882 0.950 . S
C3912 C3911 1.524 . S
C3912 C3913 1.415 . S
C3913 H3883 0.950 . S
C3913 C3908 1.363 . S
C3913 C3912 1.415 . S
H3914 C3911 0.999 . S
H3915 C3896 0.913 . S
H3916 C3934 0.951 . S
H3917 C3936 0.951 . S
H3918 C3938 0.950 . S
H3919 C3939 0.950 . S
H3920 C3941 0.950 . S
H3921 C3944 0.950 . S
H3922 C3945 0.950 . S
H3923 C3947 0.950 . S
H3924 C3948 0.950 . S
H3925 C3949 0.951 . S
H3926 C3951 0.951 . S
H3927 C3953 0.950 . S
H3928 C3954 0.950 . S
H3929 C3956 0.950 . S
H3930 C3959 0.950 . S
H3931 C3960 0.950 . S
H3932 C3962 0.950 . S
H3933 C3963 0.950 . S
C3934 H3916 0.951 . S
C3934 C3935 1.366 . S
C3934 C3936 1.388 . S
C3935 C3934 1.366 . S
C3935 C3939 1.385 . S
C3936 H3917 0.951 . S
C3936 C3934 1.388 . S
C3936 C3937 1.366 . S
C3937 C3936 1.366 . S
C3937 C3938 1.414 . S
C3937 C3940 1.499 . S
C3938 H3918 0.950 . S
C3938 C3937 1.414 . S
C3938 C3939 1.374 . S
C3939 H3919 0.950 . S
C3939 C3935 1.385 . S
C3939 C3938 1.374 . S
C3940 C3937 1.499 . S
C3940 C3941 1.373 1_565 S
C3940 C3942 1.389 . S
C3941 H3920 0.950 . S
C3941 C3940 1.373 1_545 S
C3941 C3957 1.377 . S
C3942 C3940 1.389 . S
C3942 C3943 1.524 . S
C3942 C3956 1.377 . S
C3943 C3942 1.524 . S
C3943 C3944 1.397 . S
C3943 C3948 1.363 . S
C3944 H3921 0.950 . S
C3944 C3943 1.397 . S
C3944 C3945 1.334 . S
C3945 H3922 0.950 . S
C3945 C3944 1.334 . S
C3945 C3946 1.287 . S
C3946 C3945 1.287 . S
C3946 C3947 1.524 . S
C3946 H3965 0.913 . S
C3947 H3923 0.950 . S
C3947 C3946 1.524 . S
C3947 C3948 1.415 . S
C3948 H3924 0.950 . S
C3948 C3943 1.363 . S
C3948 C3947 1.415 . S
C3949 H3925 0.951 . S
C3949 C3950 1.366 . S
C3949 C3951 1.388 . S
C3950 C3949 1.366 . S
C3950 C3954 1.385 . S
C3951 H3926 0.951 . S
C3951 C3949 1.388 . S
C3951 C3952 1.366 . S
C3952 C3951 1.366 . S
C3952 C3953 1.414 . S
C3952 C3955 1.499 . S
C3953 H3927 0.950 . S
C3953 C3952 1.414 . S
C3953 C3954 1.374 . S
C3954 H3928 0.950 . S
C3954 C3950 1.385 . S
C3954 C3953 1.374 . S
C3955 C3952 1.499 . S
C3955 C3956 1.373 . S
C3955 C3957 1.389 1_565 S
C3956 H3929 0.950 . S
C3956 C3942 1.377 . S
C3956 C3955 1.373 . S
C3957 C3941 1.377 . S
C3957 C3955 1.389 1_545 S
C3957 C3958 1.524 . S
C3958 C3957 1.524 . S
C3958 C3959 1.397 . S
C3958 C3963 1.363 . S
C3959 H3930 0.950 . S
C3959 C3958 1.397 . S
C3959 C3960 1.334 . S
C3960 H3931 0.950 . S
C3960 C3959 1.334 . S
C3960 C3961 1.287 . S
C3961 C3960 1.287 . S
C3961 C3962 1.524 . S
C3961 H3964 0.999 . S
C3962 H3932 0.950 . S
C3962 C3961 1.524 . S
C3962 C3963 1.415 . S
C3963 H3933 0.950 . S
C3963 C3958 1.363 . S
C3963 C3962 1.415 . S
H3964 C3961 0.999 . S
H3965 C3946 0.913 . S
H3966 C3984 0.951 . S
H3967 C3986 0.951 . S
H3968 C3988 0.950 . S
H3969 C3989 0.950 . S
H3970 C3991 0.950 . S
H3971 C3994 0.950 . S
H3972 C3995 0.950 . S
H3973 C3997 0.950 . S
H3974 C3998 0.950 . S
H3975 C3999 0.951 . S
H3976 C4001 0.951 . S
H3977 C4003 0.932 1_565 S
H3978 C4004 0.950 . S
H3979 C4006 0.950 . S
H3980 C4009 0.950 . S
H3981 C4010 0.950 . S
H3982 C4012 0.950 . S
H3983 C4013 0.950 . S
C3984 H3966 0.951 . S
C3984 C3985 1.366 . S
C3984 C3986 1.388 . S
C3985 C3984 1.366 . S
C3985 C3989 1.385 . S
C3986 H3967 0.951 . S
C3986 C3984 1.388 . S
C3986 C3987 1.366 . S
C3987 C3986 1.366 . S
C3987 C3988 1.414 . S
C3987 C3990 1.499 . S
C3988 H3968 0.950 . S
C3988 C3987 1.414 . S
C3988 C3989 1.374 . S
C3989 H3969 0.950 . S
C3989 C3985 1.385 . S
C3989 C3988 1.374 . S
C3990 C3987 1.499 . S
C3990 C3991 1.373 . S
C3990 C3992 1.354 1_545 S
C3991 H3970 0.950 . S
C3991 C3990 1.373 . S
C3991 C4007 1.377 . S
C3992 C3990 1.354 1_565 S
C3992 C3993 1.560 . S
C3992 C4006 1.379 . S
C3993 C3992 1.560 . S
C3993 C3994 1.397 . S
C3993 C3998 1.363 . S
C3994 H3971 0.950 . S
C3994 C3993 1.397 . S
C3994 C3995 1.334 . S
C3995 H3972 0.950 . S
C3995 C3994 1.334 . S
C3995 C3996 1.287 . S
C3996 C3995 1.287 . S
C3996 C3997 1.524 . S
C3996 H4015 0.913 . S
C3997 H3973 0.950 . S
C3997 C3996 1.524 . S
C3997 C3998 1.415 . S
C3998 H3974 0.950 . S
C3998 C3993 1.363 . S
C3998 C3997 1.415 . S
C3999 H3975 0.951 . S
C3999 C4000 1.366 . S
C3999 C4001 1.388 . S
C4000 C3999 1.366 . S
C4000 C4004 1.385 1_545 S
C4001 H3976 0.951 . S
C4001 C3999 1.388 . S
C4001 C4002 1.366 . S
C4002 C4001 1.366 . S
C4002 C4003 1.434 . S
C4002 C4005 1.499 . S
C4003 H3977 0.932 1_545 S
C4003 C4002 1.434 . S
C4003 C4004 1.372 1_545 S
C4004 H3978 0.950 . S
C4004 C4000 1.385 1_565 S
C4004 C4003 1.372 1_565 S
C4005 C4002 1.499 . S
C4005 C4006 1.373 1_545 S
C4005 C4007 1.389 . S
C4006 H3979 0.950 . S
C4006 C3992 1.379 . S
C4006 C4005 1.373 1_565 S
C4007 C3991 1.377 . S
C4007 C4005 1.389 . S
C4007 C4008 1.524 . S
C4008 C4007 1.524 . S
C4008 C4009 1.397 . S
C4008 C4013 1.363 . S
C4009 H3980 0.950 . S
C4009 C4008 1.397 . S
C4009 C4010 1.334 . S
C4010 H3981 0.950 . S
C4010 C4009 1.334 . S
C4010 C4011 1.287 . S
C4011 C4010 1.287 . S
C4011 C4012 1.524 . S
C4011 H4014 0.999 . S
C4012 H3982 0.950 . S
C4012 C4011 1.524 . S
C4012 C4013 1.415 . S
C4013 H3983 0.950 . S
C4013 C4008 1.363 . S
C4013 C4012 1.415 . S
H4014 C4011 0.999 . S
H4015 C3996 0.913 . S
H4016 C4034 0.951 . S
H4017 C4036 0.951 . S
H4018 C4038 0.950 . S
H4019 C4039 0.950 . S
H4020 C4041 0.950 . S
H4021 C4044 0.950 . S
H4022 C4045 0.950 . S
H4023 C4047 0.950 . S
H4024 C4048 0.950 . S
H4025 C4049 0.951 . S
H4026 C4051 0.951 . S
H4027 C4053 0.950 . S
H4028 C4054 0.950 . S
H4029 C4056 0.950 . S
H4030 C4059 0.950 . S
H4031 C4060 0.950 . S
H4032 C4062 0.950 . S
H4033 C4063 0.950 . S
C4034 H4016 0.951 . S
C4034 C4035 1.366 . S
C4034 C4036 1.388 . S
C4035 C4034 1.366 . S
C4035 C4039 1.385 . S
C4036 H4017 0.951 . S
C4036 C4034 1.388 . S
C4036 C4037 1.366 . S
C4037 C4036 1.366 . S
C4037 C4038 1.414 . S
C4037 C4040 1.499 . S
C4038 H4018 0.950 . S
C4038 C4037 1.414 . S
C4038 C4039 1.374 . S
C4039 H4019 0.950 . S
C4039 C4035 1.385 . S
C4039 C4038 1.374 . S
C4040 C4037 1.499 . S
C4040 C4041 1.373 . S
C4040 C4042 1.389 . S
C4041 H4020 0.950 . S
C4041 C4040 1.373 . S
C4041 C4057 1.377 . S
C4042 C4040 1.389 . S
C4042 C4043 1.524 . S
C4042 C4056 1.377 . S
C4043 C4042 1.524 . S
C4043 C4044 1.397 . S
C4043 C4048 1.363 . S
C4044 H4021 0.950 . S
C4044 C4043 1.397 . S
C4044 C4045 1.334 . S
C4045 H4022 0.950 . S
C4045 C4044 1.334 . S
C4045 C4046 1.287 . S
C4046 C4045 1.287 . S
C4046 C4047 1.524 . S
C4046 H4065 0.913 . S
C4047 H4023 0.950 . S
C4047 C4046 1.524 . S
C4047 C4048 1.415 . S
C4048 H4024 0.950 . S
C4048 C4043 1.363 . S
C4048 C4047 1.415 . S
C4049 H4025 0.951 . S
C4049 C4050 1.366 . S
C4049 C4051 1.388 . S
C4050 C4049 1.366 . S
C4050 C4054 1.385 . S
C4051 H4026 0.951 . S
C4051 C4049 1.388 . S
C4051 C4052 1.366 . S
C4052 C4051 1.366 . S
C4052 C4053 1.414 . S
C4052 C4055 1.499 . S
C4053 H4027 0.950 . S
C4053 C4052 1.414 . S
C4053 C4054 1.374 . S
C4054 H4028 0.950 . S
C4054 C4050 1.385 . S
C4054 C4053 1.374 . S
C4055 C4052 1.499 . S
C4055 C4056 1.373 . S
C4055 C4057 1.389 . S
C4056 H4029 0.950 . S
C4056 C4042 1.377 . S
C4056 C4055 1.373 . S
C4057 C4041 1.377 . S
C4057 C4055 1.389 . S
C4057 C4058 1.524 . S
C4058 C4057 1.524 . S
C4058 C4059 1.397 . S
C4058 C4063 1.363 . S
C4059 H4030 0.950 . S
C4059 C4058 1.397 . S
C4059 C4060 1.334 . S
C4060 H4031 0.950 . S
C4060 C4059 1.334 . S
C4060 C4061 1.287 . S
C4061 C4060 1.287 . S
C4061 C4062 1.524 . S
C4061 H4064 0.999 . S
C4062 H4032 0.950 . S
C4062 C4061 1.524 . S
C4062 C4063 1.415 . S
C4063 H4033 0.950 . S
C4063 C4058 1.363 . S
C4063 C4062 1.415 . S
H4064 C4061 0.999 . S
H4065 C4046 0.913 . S
H4066 C4084 0.951 . S
H4067 C4086 0.951 . S
H4068 C4088 0.950 . S
H4069 C4089 0.950 . S
H4070 C4091 0.950 . S
H4071 C4094 0.950 . S
H4072 C4095 0.950 . S
H4073 C4097 0.950 . S
H4074 C4098 0.950 . S
H4075 C4099 0.951 . S
H4076 C4101 0.951 . S
H4077 C4103 0.947 1_556 S
H4078 C4104 0.950 1_556 S
H4079 C4106 0.950 . S
H4080 C4109 0.950 . S
H4081 C4110 0.950 . S
H4082 C4112 0.950 . S
H4083 C4113 0.985 . S
C4084 H4066 0.951 . S
C4084 C4085 1.366 . S
C4084 C4086 1.388 . S
C4085 C4084 1.366 . S
C4085 C4089 1.385 . S
C4086 H4067 0.951 . S
C4086 C4084 1.388 . S
C4086 C4087 1.366 . S
C4087 C4086 1.366 . S
C4087 C4088 1.414 . S
C4087 C4090 1.499 . S
C4088 H4068 0.950 . S
C4088 C4087 1.414 . S
C4088 C4089 1.374 . S
C4089 H4069 0.950 . S
C4089 C4085 1.385 . S
C4089 C4088 1.374 . S
C4090 C4087 1.499 . S
C4090 C4091 1.373 . S
C4090 C4092 1.389 . S
C4091 H4070 0.950 . S
C4091 C4090 1.373 . S
C4091 C4107 1.377 . S
C4092 C4090 1.389 . S
C4092 C4093 1.524 . S
C4092 C4106 1.377 . S
C4093 C4092 1.524 . S
C4093 C4094 1.397 . S
C4093 C4098 1.363 . S
C4094 H4071 0.950 . S
C4094 C4093 1.397 . S
C4094 C4095 1.334 . S
C4095 H4072 0.950 . S
C4095 C4094 1.334 . S
C4095 C4096 1.287 . S
C4096 C4095 1.287 . S
C4096 C4097 1.524 . S
C4096 H4115 0.913 . S
C4097 H4073 0.950 . S
C4097 C4096 1.524 . S
C4097 C4098 1.415 . S
C4098 H4074 0.950 . S
C4098 C4093 1.363 . S
C4098 C4097 1.415 . S
C4099 H4075 0.951 . S
C4099 C4100 1.366 . S
C4099 C4101 1.388 . S
C4100 C4099 1.366 . S
C4100 C4104 1.385 . S
C4101 H4076 0.951 . S
C4101 C4099 1.388 . S
C4101 C4102 1.366 . S
C4102 C4101 1.366 . S
C4102 C4103 1.414 . S
C4102 C4105 1.499 . S
C4103 H4077 0.947 1_554 S
C4103 C4102 1.414 . S
C4103 C4104 1.374 . S
C4104 H4078 0.950 1_554 S
C4104 C4100 1.385 . S
C4104 C4103 1.374 . S
C4105 C4102 1.499 . S
C4105 C4106 1.373 . S
C4105 C4107 1.389 . S
C4106 H4079 0.950 . S
C4106 C4092 1.377 . S
C4106 C4105 1.373 . S
C4107 C4091 1.377 . S
C4107 C4105 1.389 . S
C4107 C4108 1.524 1_554 S
C4108 C4107 1.524 1_556 S
C4108 C4109 1.397 . S
C4108 C4113 1.358 1_556 S
C4109 H4080 0.950 . S
C4109 C4108 1.397 . S
C4109 C4110 1.334 . S
C4110 H4081 0.950 . S
C4110 C4109 1.334 . S
C4110 C4111 1.287 . S
C4111 C4110 1.287 . S
C4111 C4112 1.524 . S
C4111 H4114 0.999 . S
C4112 H4082 0.950 . S
C4112 C4111 1.524 . S
C4112 C4113 1.387 1_556 S
C4113 H4083 0.985 . S
C4113 C4108 1.358 1_554 S
C4113 C4112 1.387 1_554 S
H4114 C4111 0.999 . S
H4115 C4096 0.913 . S
H4116 C4134 0.951 . S
H4117 C4136 0.951 . S
H4118 C4138 0.950 . S
H4119 C4139 0.950 . S
H4120 C4141 0.950 . S
H4121 C4144 0.950 . S
H4122 C4145 0.950 . S
H4123 C4147 0.950 . S
H4124 C4148 0.950 . S
H4125 C4149 0.951 . S
H4126 C4151 0.951 . S
H4127 C4153 0.950 . S
H4128 C4154 0.950 . S
H4129 C4156 0.950 . S
H4130 C4159 0.950 . S
H4131 C4160 0.950 . S
H4132 C4162 0.950 . S
H4133 C4163 0.950 . S
C4134 H4116 0.951 . S
C4134 C4135 1.366 . S
C4134 C4136 1.388 . S
C4135 C4134 1.366 . S
C4135 C4139 1.385 . S
C4136 H4117 0.951 . S
C4136 C4134 1.388 . S
C4136 C4137 1.366 . S
C4137 C4136 1.366 . S
C4137 C4138 1.414 . S
C4137 C4140 1.499 . S
C4138 H4118 0.950 . S
C4138 C4137 1.414 . S
C4138 C4139 1.374 . S
C4139 H4119 0.950 . S
C4139 C4135 1.385 . S
C4139 C4138 1.374 . S
C4140 C4137 1.499 . S
C4140 C4141 1.373 . S
C4140 C4142 1.389 . S
C4141 H4120 0.950 . S
C4141 C4140 1.373 . S
C4141 C4157 1.377 . S
C4142 C4140 1.389 . S
C4142 C4143 1.524 . S
C4142 C4156 1.377 . S
C4143 C4142 1.524 . S
C4143 C4144 1.397 . S
C4143 C4148 1.363 . S
C4144 H4121 0.950 . S
C4144 C4143 1.397 . S
C4144 C4145 1.334 . S
C4145 H4122 0.950 . S
C4145 C4144 1.334 . S
C4145 C4146 1.287 . S
C4146 C4145 1.287 . S
C4146 C4147 1.524 . S
C4146 H4165 0.913 . S
C4147 H4123 0.950 . S
C4147 C4146 1.524 . S
C4147 C4148 1.415 . S
C4148 H4124 0.950 . S
C4148 C4143 1.363 . S
C4148 C4147 1.415 . S
C4149 H4125 0.951 . S
C4149 C4150 1.366 . S
C4149 C4151 1.388 . S
C4150 C4149 1.366 . S
C4150 C4154 1.385 . S
C4151 H4126 0.951 . S
C4151 C4149 1.388 . S
C4151 C4152 1.366 . S
C4152 C4151 1.366 . S
C4152 C4153 1.414 . S
C4152 C4155 1.499 . S
C4153 H4127 0.950 . S
C4153 C4152 1.414 . S
C4153 C4154 1.374 . S
C4154 H4128 0.950 . S
C4154 C4150 1.385 . S
C4154 C4153 1.374 . S
C4155 C4152 1.499 . S
C4155 C4156 1.373 . S
C4155 C4157 1.389 . S
C4156 H4129 0.950 . S
C4156 C4142 1.377 . S
C4156 C4155 1.373 . S
C4157 C4141 1.377 . S
C4157 C4155 1.389 . S
C4157 C4158 1.524 . S
C4158 C4157 1.524 . S
C4158 C4159 1.397 . S
C4158 C4163 1.363 . S
C4159 H4130 0.950 . S
C4159 C4158 1.397 . S
C4159 C4160 1.334 . S
C4160 H4131 0.950 . S
C4160 C4159 1.334 . S
C4160 C4161 1.287 . S
C4161 C4160 1.287 . S
C4161 C4162 1.524 . S
C4161 H4164 0.999 . S
C4162 H4132 0.950 . S
C4162 C4161 1.524 . S
C4162 C4163 1.415 . S
C4163 H4133 0.950 . S
C4163 C4158 1.363 . S
C4163 C4162 1.415 . S
H4164 C4161 0.999 . S
H4165 C4146 0.913 . S
H4166 C4184 0.951 . S
H4167 C4186 0.951 . S
H4168 C4188 0.950 . S
H4169 C4189 0.950 . S
H4170 C4191 0.950 . S
H4171 C4194 0.907 1_554 S
H4172 C4195 0.893 1_554 S
H4173 C4197 0.950 . S
H4174 C4198 0.950 . S
H4175 C4199 0.951 . S
H4176 C4201 0.951 . S
H4177 C4203 0.950 . S
H4178 C4204 0.950 . S
H4179 C4206 0.950 . S
H4180 C4209 0.950 . S
H4181 C4210 0.950 . S
H4182 C4212 0.950 . S
H4183 C4213 0.950 . S
C4184 H4166 0.951 . S
C4184 C4185 1.366 . S
C4184 C4186 1.388 . S
C4185 C4184 1.366 . S
C4185 C4189 1.385 1_556 S
C4186 H4167 0.951 . S
C4186 C4184 1.388 . S
C4186 C4187 1.366 . S
C4187 C4186 1.366 . S
C4187 C4188 1.414 1_556 S
C4187 C4190 1.499 . S
C4188 H4168 0.950 . S
C4188 C4187 1.414 1_554 S
C4188 C4189 1.374 . S
C4189 H4169 0.950 . S
C4189 C4185 1.385 1_554 S
C4189 C4188 1.374 . S
C4190 C4187 1.499 . S
C4190 C4191 1.373 . S
C4190 C4192 1.389 . S
C4191 H4170 0.950 . S
C4191 C4190 1.373 . S
C4191 C4207 1.377 . S
C4192 C4190 1.389 . S
C4192 C4193 1.524 . S
C4192 C4206 1.377 . S
C4193 C4192 1.524 . S
C4193 C4194 1.440 . S
C4193 C4198 1.363 . S
C4194 H4171 0.907 1_556 S
C4194 C4193 1.440 . S
C4194 C4195 1.335 . S
C4195 H4172 0.893 1_556 S
C4195 C4194 1.335 . S
C4195 C4196 1.347 . S
C4196 C4195 1.347 . S
C4196 C4197 1.524 . S
C4196 H4215 0.913 . S
C4197 H4173 0.950 . S
C4197 C4196 1.524 . S
C4197 C4198 1.415 . S
C4198 H4174 0.950 . S
C4198 C4193 1.363 . S
C4198 C4197 1.415 . S
C4199 H4175 0.951 . S
C4199 C4200 1.366 1_554 S
C4199 C4201 1.388 . S
C4200 C4199 1.366 1_556 S
C4200 C4204 1.385 . S
C4201 H4176 0.951 . S
C4201 C4199 1.388 . S
C4201 C4202 1.366 1_554 S
C4202 C4201 1.366 1_556 S
C4202 C4203 1.414 . S
C4202 C4205 1.499 . S
C4203 H4177 0.950 . S
C4203 C4202 1.414 . S
C4203 C4204 1.374 . S
C4204 H4178 0.950 . S
C4204 C4200 1.385 . S
C4204 C4203 1.374 . S
C4205 C4202 1.499 . S
C4205 C4206 1.373 . S
C4205 C4207 1.389 . S
C4206 H4179 0.950 . S
C4206 C4192 1.377 . S
C4206 C4205 1.373 . S
C4207 C4191 1.377 . S
C4207 C4205 1.389 . S
C4207 C4208 1.524 . S
C4208 C4207 1.524 . S
C4208 C4209 1.397 . S
C4208 C4213 1.363 1_556 S
C4209 H4180 0.950 . S
C4209 C4208 1.397 . S
C4209 C4210 1.334 . S
C4210 H4181 0.950 . S
C4210 C4209 1.334 . S
C4210 C4211 1.287 . S
C4211 C4210 1.287 . S
C4211 C4212 1.524 1_556 S
C4211 H4214 0.999 . S
C4212 H4182 0.950 . S
C4212 C4211 1.524 1_554 S
C4212 C4213 1.415 . S
C4213 H4183 0.950 . S
C4213 C4208 1.363 1_554 S
C4213 C4212 1.415 . S
H4214 C4211 0.999 . S
H4215 C4196 0.913 . S
H4216 C4234 0.951 . S
H4217 C4236 0.951 . S
H4218 C4238 0.950 . S
H4219 C4239 0.950 . S
H4220 C4241 0.950 . S
H4221 C4244 0.950 . S
H4222 C4245 0.950 . S
H4223 C4247 0.950 . S
H4224 C4248 0.950 . S
H4225 C4249 0.951 . S
H4226 C4251 0.951 . S
H4227 C4253 0.950 . S
H4228 C4254 0.950 . S
H4229 C4256 0.950 . S
H4230 C4259 0.950 . S
H4231 C4260 0.950 . S
H4232 C4262 0.950 . S
H4233 C4263 0.950 . S
C4234 H4216 0.951 . S
C4234 C4235 1.366 . S
C4234 C4236 1.388 . S
C4235 C4234 1.366 . S
C4235 C4239 1.385 . S
C4236 H4217 0.951 . S
C4236 C4234 1.388 . S
C4236 C4237 1.366 . S
C4237 C4236 1.366 . S
C4237 C4238 1.414 . S
C4237 C4240 1.499 . S
C4238 H4218 0.950 . S
C4238 C4237 1.414 . S
C4238 C4239 1.374 . S
C4239 H4219 0.950 . S
C4239 C4235 1.385 . S
C4239 C4238 1.374 . S
C4240 C4237 1.499 . S
C4240 C4241 1.373 . S
C4240 C4242 1.389 . S
C4241 H4220 0.950 . S
C4241 C4240 1.373 . S
C4241 C4257 1.377 . S
C4242 C4240 1.389 . S
C4242 C4243 1.524 . S
C4242 C4256 1.377 . S
C4243 C4242 1.524 . S
C4243 C4244 1.397 . S
C4243 C4248 1.363 . S
C4244 H4221 0.950 . S
C4244 C4243 1.397 . S
C4244 C4245 1.334 . S
C4245 H4222 0.950 . S
C4245 C4244 1.334 . S
C4245 C4246 1.287 . S
C4246 C4245 1.287 . S
C4246 C4247 1.524 . S
C4246 H4265 0.913 . S
C4247 H4223 0.950 . S
C4247 C4246 1.524 . S
C4247 C4248 1.415 . S
C4248 H4224 0.950 . S
C4248 C4243 1.363 . S
C4248 C4247 1.415 . S
C4249 H4225 0.951 . S
C4249 C4250 1.366 . S
C4249 C4251 1.388 . S
C4250 C4249 1.366 . S
C4250 C4254 1.385 . S
C4251 H4226 0.951 . S
C4251 C4249 1.388 . S
C4251 C4252 1.366 . S
C4252 C4251 1.366 . S
C4252 C4253 1.414 . S
C4252 C4255 1.499 . S
C4253 H4227 0.950 . S
C4253 C4252 1.414 . S
C4253 C4254 1.374 . S
C4254 H4228 0.950 . S
C4254 C4250 1.385 . S
C4254 C4253 1.374 . S
C4255 C4252 1.499 . S
C4255 C4256 1.373 . S
C4255 C4257 1.389 . S
C4256 H4229 0.950 . S
C4256 C4242 1.377 . S
C4256 C4255 1.373 . S
C4257 C4241 1.377 . S
C4257 C4255 1.389 . S
C4257 C4258 1.524 . S
C4258 C4257 1.524 . S
C4258 C4259 1.397 . S
C4258 C4263 1.363 . S
C4259 H4230 0.950 . S
C4259 C4258 1.397 . S
C4259 C4260 1.334 . S
C4260 H4231 0.950 . S
C4260 C4259 1.334 . S
C4260 C4261 1.287 . S
C4261 C4260 1.287 . S
C4261 C4262 1.524 . S
C4261 H4264 0.999 . S
C4262 H4232 0.950 . S
C4262 C4261 1.524 . S
C4262 C4263 1.415 . S
C4263 H4233 0.950 . S
C4263 C4258 1.363 . S
C4263 C4262 1.415 . S
H4264 C4261 0.999 . S
H4265 C4246 0.913 . S
H4266 C4284 0.951 . S
H4267 C4286 0.951 . S
H4268 C4288 0.950 . S
H4269 C4289 0.950 . S
H4270 C4291 0.906 1_655 S
H4271 C4294 0.950 . S
H4272 C4295 0.950 . S
H4273 C4297 0.950 . S
H4274 C4298 0.950 . S
H4275 C4299 0.951 1_655 S
H4276 C4301 0.955 . S
H4277 C4303 0.950 . S
H4278 C4304 0.950 . S
H4279 C4306 0.950 . S
H4280 C4309 0.950 . S
H4281 C4310 0.950 . S
H4282 C4312 0.950 . S
H4283 C4313 0.950 . S
C4284 H4266 0.951 . S
C4284 C4285 1.366 . S
C4284 C4286 1.388 . S
C4285 C4284 1.366 . S
C4285 C4289 1.385 . S
C4286 H4267 0.951 . S
C4286 C4284 1.388 . S
C4286 C4287 1.366 . S
C4287 C4286 1.366 . S
C4287 C4288 1.414 . S
C4287 C4290 1.499 . S
C4288 H4268 0.950 . S
C4288 C4287 1.414 . S
C4288 C4289 1.374 . S
C4289 H4269 0.950 . S
C4289 C4285 1.385 . S
C4289 C4288 1.374 . S
C4290 C4287 1.499 . S
C4290 C4291 1.423 . S
C4290 C4292 1.389 . S
C4291 H4270 0.906 1_455 S
C4291 C4290 1.423 . S
C4291 C4307 1.373 1_455 S
C4292 C4290 1.389 . S
C4292 C4293 1.524 . S
C4292 C4306 1.377 . S
C4293 C4292 1.524 . S
C4293 C4294 1.397 . S
C4293 C4298 1.363 . S
C4294 H4271 0.950 . S
C4294 C4293 1.397 . S
C4294 C4295 1.334 . S
C4295 H4272 0.950 . S
C4295 C4294 1.334 . S
C4295 C4296 1.287 . S
C4296 C4295 1.287 . S
C4296 C4297 1.524 . S
C4296 H4315 0.913 . S
C4297 H4273 0.950 . S
C4297 C4296 1.524 . S
C4297 C4298 1.415 . S
C4298 H4274 0.950 . S
C4298 C4293 1.363 . S
C4298 C4297 1.415 . S
C4299 H4275 0.951 1_455 S
C4299 C4300 1.366 . S
C4299 C4301 1.388 . S
C4300 C4299 1.366 . S
C4300 C4304 1.385 . S
C4301 H4276 0.955 . S
C4301 C4299 1.388 . S
C4301 C4302 1.366 . S
C4302 C4301 1.366 . S
C4302 C4303 1.414 . S
C4302 C4305 1.499 . S
C4303 H4277 0.950 . S
C4303 C4302 1.414 . S
C4303 C4304 1.374 . S
C4304 H4278 0.950 . S
C4304 C4300 1.385 . S
C4304 C4303 1.374 . S
C4305 C4302 1.499 . S
C4305 C4306 1.373 . S
C4305 C4307 1.389 1_455 S
C4306 H4279 0.950 . S
C4306 C4292 1.377 . S
C4306 C4305 1.373 . S
C4307 C4291 1.373 1_655 S
C4307 C4305 1.389 1_655 S
C4307 C4308 1.524 . S
C4308 C4307 1.524 . S
C4308 C4309 1.397 . S
C4308 C4313 1.363 . S
C4309 H4280 0.950 . S
C4309 C4308 1.397 . S
C4309 C4310 1.334 . S
C4310 H4281 0.950 . S
C4310 C4309 1.334 . S
C4310 C4311 1.287 . S
C4311 C4310 1.287 . S
C4311 C4312 1.524 . S
C4311 H4314 0.999 . S
C4312 H4282 0.950 . S
C4312 C4311 1.524 . S
C4312 C4313 1.415 . S
C4313 H4283 0.950 . S
C4313 C4308 1.363 . S
C4313 C4312 1.415 . S
H4314 C4311 0.999 . S
H4315 C4296 0.913 . S
H4316 C4334 0.951 . S
H4317 C4336 0.951 . S
H4318 C4338 0.950 . S
H4319 C4339 0.950 . S
H4320 C4341 0.950 . S
H4321 C4344 0.950 . S
H4322 C4345 0.950 . S
H4323 C4347 0.950 . S
H4324 C4348 0.950 . S
H4325 C4349 0.951 . S
H4326 C4351 0.951 . S
H4327 C4353 0.950 . S
H4328 C4354 0.950 . S
H4329 C4356 0.950 . S
H4330 C4359 0.950 . S
H4331 C4360 0.950 . S
H4332 C4362 0.950 . S
H4333 C4363 0.950 . S
C4334 H4316 0.951 . S
C4334 C4335 1.366 . S
C4334 C4336 1.388 . S
C4335 C4334 1.366 . S
C4335 C4339 1.385 . S
C4336 H4317 0.951 . S
C4336 C4334 1.388 . S
C4336 C4337 1.366 . S
C4337 C4336 1.366 . S
C4337 C4338 1.414 . S
C4337 C4340 1.499 . S
C4338 H4318 0.950 . S
C4338 C4337 1.414 . S
C4338 C4339 1.374 . S
C4339 H4319 0.950 . S
C4339 C4335 1.385 . S
C4339 C4338 1.374 . S
C4340 C4337 1.499 . S
C4340 C4341 1.373 . S
C4340 C4342 1.389 . S
C4341 H4320 0.950 . S
C4341 C4340 1.373 . S
C4341 C4357 1.377 . S
C4342 C4340 1.389 . S
C4342 C4343 1.524 . S
C4342 C4356 1.377 . S
C4343 C4342 1.524 . S
C4343 C4344 1.397 . S
C4343 C4348 1.363 . S
C4344 H4321 0.950 . S
C4344 C4343 1.397 . S
C4344 C4345 1.334 . S
C4345 H4322 0.950 . S
C4345 C4344 1.334 . S
C4345 C4346 1.287 . S
C4346 C4345 1.287 . S
C4346 C4347 1.524 . S
C4346 H4365 0.913 . S
C4347 H4323 0.950 . S
C4347 C4346 1.524 . S
C4347 C4348 1.415 . S
C4348 H4324 0.950 . S
C4348 C4343 1.363 . S
C4348 C4347 1.415 . S
C4349 H4325 0.951 . S
C4349 C4350 1.366 . S
C4349 C4351 1.388 . S
C4350 C4349 1.366 . S
C4350 C4354 1.385 . S
C4351 H4326 0.951 . S
C4351 C4349 1.388 . S
C4351 C4352 1.366 . S
C4352 C4351 1.366 . S
C4352 C4353 1.414 . S
C4352 C4355 1.499 . S
C4353 H4327 0.950 . S
C4353 C4352 1.414 . S
C4353 C4354 1.374 . S
C4354 H4328 0.950 . S
C4354 C4350 1.385 . S
C4354 C4353 1.374 . S
C4355 C4352 1.499 . S
C4355 C4356 1.373 . S
C4355 C4357 1.389 . S
C4356 H4329 0.950 . S
C4356 C4342 1.377 . S
C4356 C4355 1.373 . S
C4357 C4341 1.377 . S
C4357 C4355 1.389 . S
C4357 C4358 1.524 . S
C4358 C4357 1.524 . S
C4358 C4359 1.397 . S
C4358 C4363 1.363 . S
C4359 H4330 0.950 . S
C4359 C4358 1.397 . S
C4359 C4360 1.334 . S
C4360 H4331 0.950 . S
C4360 C4359 1.334 . S
C4360 C4361 1.287 . S
C4361 C4360 1.287 . S
C4361 C4362 1.524 . S
C4361 H4364 0.999 . S
C4362 H4332 0.950 . S
C4362 C4361 1.524 . S
C4362 C4363 1.415 . S
C4363 H4333 0.950 . S
C4363 C4358 1.363 . S
C4363 C4362 1.415 . S
H4364 C4361 0.999 . S
H4365 C4346 0.913 . S
H4366 C4384 0.951 . S
H4367 C4386 0.951 . S
H4368 C4388 0.950 . S
H4369 C4389 0.950 . S
H4370 C4391 0.950 . S
H4371 C4394 0.950 . S
H4372 C4395 0.950 . S
H4373 C4397 0.950 . S
H4374 C4398 0.950 . S
H4375 C4399 0.951 . S
H4376 C4401 0.951 . S
H4377 C4403 0.950 . S
H4378 C4404 0.950 . S
H4379 C4406 0.950 . S
H4380 C4409 0.950 . S
H4381 C4410 0.950 . S
H4382 C4412 0.950 . S
H4383 C4413 0.950 . S
C4384 H4366 0.951 . S
C4384 C4385 1.366 . S
C4384 C4386 1.388 . S
C4385 C4384 1.366 . S
C4385 C4389 1.385 . S
C4386 H4367 0.951 . S
C4386 C4384 1.388 . S
C4386 C4387 1.366 . S
C4387 C4386 1.366 . S
C4387 C4388 1.414 . S
C4387 C4390 1.499 . S
C4388 H4368 0.950 . S
C4388 C4387 1.414 . S
C4388 C4389 1.374 . S
C4389 H4369 0.950 . S
C4389 C4385 1.385 . S
C4389 C4388 1.374 . S
C4390 C4387 1.499 . S
C4390 C4391 1.373 1_655 S
C4390 C4392 1.389 . S
C4391 H4370 0.950 . S
C4391 C4390 1.373 1_455 S
C4391 C4407 1.377 . S
C4392 C4390 1.389 . S
C4392 C4393 1.524 . S
C4392 C4406 1.377 . S
C4393 C4392 1.524 . S
C4393 C4394 1.397 . S
C4393 C4398 1.363 . S
C4394 H4371 0.950 . S
C4394 C4393 1.397 . S
C4394 C4395 1.334 . S
C4395 H4372 0.950 . S
C4395 C4394 1.334 . S
C4395 C4396 1.287 . S
C4396 C4395 1.287 . S
C4396 C4397 1.524 . S
C4396 H4415 0.913 . S
C4397 H4373 0.950 . S
C4397 C4396 1.524 . S
C4397 C4398 1.415 . S
C4398 H4374 0.950 . S
C4398 C4393 1.363 . S
C4398 C4397 1.415 . S
C4399 H4375 0.951 . S
C4399 C4400 1.366 . S
C4399 C4401 1.388 . S
C4400 C4399 1.366 . S
C4400 C4404 1.385 . S
C4401 H4376 0.951 . S
C4401 C4399 1.388 . S
C4401 C4402 1.366 . S
C4402 C4401 1.366 . S
C4402 C4403 1.414 . S
C4402 C4405 1.499 . S
C4403 H4377 0.950 . S
C4403 C4402 1.414 . S
C4403 C4404 1.374 . S
C4404 H4378 0.950 . S
C4404 C4400 1.385 . S
C4404 C4403 1.374 . S
C4405 C4402 1.499 . S
C4405 C4406 1.373 . S
C4405 C4407 1.389 1_655 S
C4406 H4379 0.950 . S
C4406 C4392 1.377 . S
C4406 C4405 1.373 . S
C4407 C4391 1.377 . S
C4407 C4405 1.389 1_455 S
C4407 C4408 1.524 . S
C4408 C4407 1.524 . S
C4408 C4409 1.397 . S
C4408 C4413 1.363 . S
C4409 H4380 0.950 . S
C4409 C4408 1.397 . S
C4409 C4410 1.334 . S
C4410 H4381 0.950 . S
C4410 C4409 1.334 . S
C4410 C4411 1.287 . S
C4411 C4410 1.287 . S
C4411 C4412 1.524 . S
C4411 H4414 0.999 . S
C4412 H4382 0.950 . S
C4412 C4411 1.524 . S
C4412 C4413 1.415 . S
C4413 H4383 0.950 . S
C4413 C4408 1.363 . S
C4413 C4412 1.415 . S
H4414 C4411 0.999 . S
H4415 C4396 0.913 . S
H4416 C4434 0.951 . S
H4417 C4436 0.951 . S
H4418 C4438 0.950 . S
H4419 C4439 0.950 . S
H4420 C4441 0.950 . S
H4421 C4444 0.950 . S
H4422 C4445 0.950 . S
H4423 C4447 0.950 . S
H4424 C4448 0.950 . S
H4425 C4449 0.951 . S
H4426 C4451 0.951 . S
H4427 C4453 0.950 . S
H4428 C4454 0.950 . S
H4429 C4456 0.950 . S
H4430 C4459 0.950 . S
H4431 C4460 0.950 . S
H4432 C4462 0.950 . S
H4433 C4463 0.950 . S
C4434 H4416 0.951 . S
C4434 C4435 1.366 . S
C4434 C4436 1.388 . S
C4435 C4434 1.366 . S
C4435 C4439 1.385 . S
C4436 H4417 0.951 . S
C4436 C4434 1.388 . S
C4436 C4437 1.366 . S
C4437 C4436 1.366 . S
C4437 C4438 1.414 . S
C4437 C4440 1.499 . S
C4438 H4418 0.950 . S
C4438 C4437 1.414 . S
C4438 C4439 1.374 . S
C4439 H4419 0.950 . S
C4439 C4435 1.385 . S
C4439 C4438 1.374 . S
C4440 C4437 1.499 . S
C4440 C4441 1.373 . S
C4440 C4442 1.389 . S
C4441 H4420 0.950 . S
C4441 C4440 1.373 . S
C4441 C4457 1.377 . S
C4442 C4440 1.389 . S
C4442 C4443 1.524 . S
C4442 C4456 1.377 . S
C4443 C4442 1.524 . S
C4443 C4444 1.397 . S
C4443 C4448 1.363 . S
C4444 H4421 0.950 . S
C4444 C4443 1.397 . S
C4444 C4445 1.334 . S
C4445 H4422 0.950 . S
C4445 C4444 1.334 . S
C4445 C4446 1.287 . S
C4446 C4445 1.287 . S
C4446 C4447 1.524 . S
C4446 H4465 0.913 . S
C4447 H4423 0.950 . S
C4447 C4446 1.524 . S
C4447 C4448 1.415 . S
C4448 H4424 0.950 . S
C4448 C4443 1.363 . S
C4448 C4447 1.415 . S
C4449 H4425 0.951 . S
C4449 C4450 1.366 . S
C4449 C4451 1.388 . S
C4450 C4449 1.366 . S
C4450 C4454 1.385 . S
C4451 H4426 0.951 . S
C4451 C4449 1.388 . S
C4451 C4452 1.366 . S
C4452 C4451 1.366 . S
C4452 C4453 1.414 . S
C4452 C4455 1.499 . S
C4453 H4427 0.950 . S
C4453 C4452 1.414 . S
C4453 C4454 1.374 . S
C4454 H4428 0.950 . S
C4454 C4450 1.385 . S
C4454 C4453 1.374 . S
C4455 C4452 1.499 . S
C4455 C4456 1.373 . S
C4455 C4457 1.389 . S
C4456 H4429 0.950 . S
C4456 C4442 1.377 . S
C4456 C4455 1.373 . S
C4457 C4441 1.377 . S
C4457 C4455 1.389 . S
C4457 C4458 1.524 . S
C4458 C4457 1.524 . S
C4458 C4459 1.397 . S
C4458 C4463 1.363 . S
C4459 H4430 0.950 . S
C4459 C4458 1.397 . S
C4459 C4460 1.334 . S
C4460 H4431 0.950 . S
C4460 C4459 1.334 . S
C4460 C4461 1.287 . S
C4461 C4460 1.287 . S
C4461 C4462 1.524 . S
C4461 H4464 0.999 . S
C4462 H4432 0.950 . S
C4462 C4461 1.524 . S
C4462 C4463 1.415 . S
C4463 H4433 0.950 . S
C4463 C4458 1.363 . S
C4463 C4462 1.415 . S
H4464 C4461 0.999 . S
H4465 C4446 0.913 . S
H4466 C4484 0.951 . S
H4467 C4486 0.951 . S
H4468 C4488 0.950 . S
H4469 C4489 0.950 . S
H4470 C4491 0.950 . S
H4471 C4494 0.950 . S
H4472 C4495 0.950 . S
H4473 C4497 0.950 . S
H4474 C4498 0.950 . S
H4475 C4499 0.951 . S
H4476 C4501 0.951 . S
H4477 C4503 0.950 . S
H4478 C4504 0.950 . S
H4479 C4506 0.950 . S
H4480 C4509 0.950 . S
H4481 C4510 0.950 . S
H4482 C4512 0.950 . S
H4483 C4513 0.950 . S
C4484 H4466 0.951 . S
C4484 C4485 1.366 . S
C4484 C4486 1.388 . S
C4485 C4484 1.366 . S
C4485 C4489 1.385 . S
C4486 H4467 0.951 . S
C4486 C4484 1.388 . S
C4486 C4487 1.366 . S
C4487 C4486 1.366 . S
C4487 C4488 1.414 . S
C4487 C4490 1.499 . S
C4488 H4468 0.950 . S
C4488 C4487 1.414 . S
C4488 C4489 1.374 . S
C4489 H4469 0.950 . S
C4489 C4485 1.385 . S
C4489 C4488 1.374 . S
C4490 C4487 1.499 . S
C4490 C4491 1.373 . S
C4490 C4492 1.389 . S
C4491 H4470 0.950 . S
C4491 C4490 1.373 . S
C4491 C4507 1.377 . S
C4492 C4490 1.389 . S
C4492 C4493 1.524 . S
C4492 C4506 1.377 . S
C4493 C4492 1.524 . S
C4493 C4494 1.397 . S
C4493 C4498 1.363 . S
C4494 H4471 0.950 . S
C4494 C4493 1.397 . S
C4494 C4495 1.334 . S
C4495 H4472 0.950 . S
C4495 C4494 1.334 . S
C4495 C4496 1.287 . S
C4496 C4495 1.287 . S
C4496 C4497 1.524 . S
C4496 H4515 0.913 . S
C4497 H4473 0.950 . S
C4497 C4496 1.524 . S
C4497 C4498 1.415 . S
C4498 H4474 0.950 . S
C4498 C4493 1.363 . S
C4498 C4497 1.415 . S
C4499 H4475 0.951 . S
C4499 C4500 1.366 . S
C4499 C4501 1.388 . S
C4500 C4499 1.366 . S
C4500 C4504 1.385 . S
C4501 H4476 0.951 . S
C4501 C4499 1.388 . S
C4501 C4502 1.366 . S
C4502 C4501 1.366 . S
C4502 C4503 1.414 . S
C4502 C4505 1.499 . S
C4503 H4477 0.950 . S
C4503 C4502 1.414 . S
C4503 C4504 1.374 . S
C4504 H4478 0.950 . S
C4504 C4500 1.385 . S
C4504 C4503 1.374 . S
C4505 C4502 1.499 . S
C4505 C4506 1.373 . S
C4505 C4507 1.389 . S
C4506 H4479 0.950 . S
C4506 C4492 1.377 . S
C4506 C4505 1.373 . S
C4507 C4491 1.377 . S
C4507 C4505 1.389 . S
C4507 C4508 1.524 . S
C4508 C4507 1.524 . S
C4508 C4509 1.397 . S
C4508 C4513 1.363 . S
C4509 H4480 0.950 . S
C4509 C4508 1.397 . S
C4509 C4510 1.334 . S
C4510 H4481 0.950 . S
C4510 C4509 1.334 . S
C4510 C4511 1.287 . S
C4511 C4510 1.287 . S
C4511 C4512 1.524 . S
C4511 H4514 0.999 . S
C4512 H4482 0.950 . S
C4512 C4511 1.524 . S
C4512 C4513 1.415 . S
C4513 H4483 0.950 . S
C4513 C4508 1.363 . S
C4513 C4512 1.415 . S
H4514 C4511 0.999 . S
H4515 C4496 0.913 . S
H4516 C4534 0.951 . S
H4517 C4536 0.951 . S
H4518 C4538 0.950 . S
H4519 C4539 0.950 . S
H4520 C4541 1.004 . S
H4521 C4544 0.950 . S
H4522 C4545 0.950 . S
H4523 C4547 0.950 . S
H4524 C4548 0.950 . S
H4525 C4549 0.951 . S
H4526 C4551 0.951 . S
H4527 C4553 0.950 . S
H4528 C4554 0.950 . S
H4529 C4556 0.950 . S
H4530 C4559 0.950 . S
H4531 C4560 0.950 . S
H4532 C4562 0.950 . S
H4533 C4563 0.950 . S
C4534 H4516 0.951 . S
C4534 C4535 1.366 . S
C4534 C4536 1.388 . S
C4535 C4534 1.366 . S
C4535 C4539 1.385 . S
C4536 H4517 0.951 . S
C4536 C4534 1.388 . S
C4536 C4537 1.366 . S
C4537 C4536 1.366 . S
C4537 C4538 1.414 . S
C4537 C4540 1.499 . S
C4538 H4518 0.950 . S
C4538 C4537 1.414 . S
C4538 C4539 1.374 . S
C4539 H4519 0.950 . S
C4539 C4535 1.385 . S
C4539 C4538 1.374 . S
C4540 C4537 1.499 . S
C4540 C4541 1.332 1_545 S
C4540 C4542 1.389 . S
C4541 H4520 1.004 . S
C4541 C4540 1.332 1_565 S
C4541 C4557 1.370 . S
C4542 C4540 1.389 . S
C4542 C4543 1.524 . S
C4542 C4556 1.377 . S
C4543 C4542 1.524 . S
C4543 C4544 1.397 . S
C4543 C4548 1.363 . S
C4544 H4521 0.950 . S
C4544 C4543 1.397 . S
C4544 C4545 1.334 . S
C4545 H4522 0.950 . S
C4545 C4544 1.334 . S
C4545 C4546 1.287 . S
C4546 C4545 1.287 . S
C4546 C4547 1.524 . S
C4546 H4565 0.913 . S
C4547 H4523 0.950 . S
C4547 C4546 1.524 . S
C4547 C4548 1.415 . S
C4548 H4524 0.950 . S
C4548 C4543 1.363 . S
C4548 C4547 1.415 . S
C4549 H4525 0.951 . S
C4549 C4550 1.366 . S
C4549 C4551 1.388 . S
C4550 C4549 1.366 . S
C4550 C4554 1.385 . S
C4551 H4526 0.951 . S
C4551 C4549 1.388 . S
C4551 C4552 1.366 . S
C4552 C4551 1.366 . S
C4552 C4553 1.414 . S
C4552 C4555 1.499 . S
C4553 H4527 0.950 . S
C4553 C4552 1.414 . S
C4553 C4554 1.374 . S
C4554 H4528 0.950 . S
C4554 C4550 1.385 . S
C4554 C4553 1.374 . S
C4555 C4552 1.499 . S
C4555 C4556 1.373 . S
C4555 C4557 1.389 1_545 S
C4556 H4529 0.950 . S
C4556 C4542 1.377 . S
C4556 C4555 1.373 . S
C4557 C4541 1.370 . S
C4557 C4555 1.389 1_565 S
C4557 C4558 1.524 . S
C4558 C4557 1.524 . S
C4558 C4559 1.397 . S
C4558 C4563 1.363 . S
C4559 H4530 0.950 . S
C4559 C4558 1.397 . S
C4559 C4560 1.334 . S
C4560 H4531 0.950 . S
C4560 C4559 1.334 . S
C4560 C4561 1.287 . S
C4561 C4560 1.287 . S
C4561 C4562 1.524 . S
C4561 H4564 0.999 . S
C4562 H4532 0.950 . S
C4562 C4561 1.524 . S
C4562 C4563 1.415 . S
C4563 H4533 0.950 . S
C4563 C4558 1.363 . S
C4563 C4562 1.415 . S
H4564 C4561 0.999 . S
H4565 C4546 0.913 . S
H4566 C4584 0.951 . S
H4567 C4586 0.951 . S
H4568 C4588 0.950 . S
H4569 C4589 0.950 . S
H4570 C4591 0.950 1_545 S
H4571 C4594 0.950 . S
H4572 C4595 0.950 . S
H4573 C4597 0.950 . S
H4574 C4598 0.950 . S
H4575 C4599 0.947 1_545 S
H4576 C4601 0.951 . S
H4577 C4603 0.950 . S
H4578 C4604 0.950 . S
H4579 C4606 0.950 . S
H4580 C4609 0.950 . S
H4581 C4610 0.950 . S
H4582 C4612 0.950 . S
H4583 C4613 0.950 . S
C4584 H4566 0.951 . S
C4584 C4585 1.366 . S
C4584 C4586 1.388 . S
C4585 C4584 1.366 . S
C4585 C4589 1.385 . S
C4586 H4567 0.951 . S
C4586 C4584 1.388 . S
C4586 C4587 1.366 . S
C4587 C4586 1.366 . S
C4587 C4588 1.414 . S
C4587 C4590 1.499 . S
C4588 H4568 0.950 . S
C4588 C4587 1.414 . S
C4588 C4589 1.374 . S
C4589 H4569 0.950 . S
C4589 C4585 1.385 . S
C4589 C4588 1.374 . S
C4590 C4587 1.499 . S
C4590 C4591 1.373 . S
C4590 C4592 1.389 . S
C4591 H4570 0.950 1_565 S
C4591 C4590 1.373 . S
C4591 C4607 1.377 1_565 S
C4592 C4590 1.389 . S
C4592 C4593 1.524 . S
C4592 C4606 1.377 . S
C4593 C4592 1.524 . S
C4593 C4594 1.397 . S
C4593 C4598 1.363 . S
C4594 H4571 0.950 . S
C4594 C4593 1.397 . S
C4594 C4595 1.334 . S
C4595 H4572 0.950 . S
C4595 C4594 1.334 . S
C4595 C4596 1.287 . S
C4596 C4595 1.287 . S
C4596 C4597 1.524 . S
C4596 H4615 0.913 . S
C4597 H4573 0.950 . S
C4597 C4596 1.524 . S
C4597 C4598 1.415 . S
C4598 H4574 0.950 . S
C4598 C4593 1.363 . S
C4598 C4597 1.415 . S
C4599 H4575 0.947 1_565 S
C4599 C4600 1.366 . S
C4599 C4601 1.388 . S
C4600 C4599 1.366 . S
C4600 C4604 1.385 . S
C4601 H4576 0.951 . S
C4601 C4599 1.388 . S
C4601 C4602 1.366 . S
C4602 C4601 1.366 . S
C4602 C4603 1.414 . S
C4602 C4605 1.499 . S
C4603 H4577 0.950 . S
C4603 C4602 1.414 . S
C4603 C4604 1.374 . S
C4604 H4578 0.950 . S
C4604 C4600 1.385 . S
C4604 C4603 1.374 . S
C4605 C4602 1.499 . S
C4605 C4606 1.373 . S
C4605 C4607 1.389 1_565 S
C4606 H4579 0.950 . S
C4606 C4592 1.377 . S
C4606 C4605 1.373 . S
C4607 C4591 1.377 1_545 S
C4607 C4605 1.389 1_545 S
C4607 C4608 1.524 . S
C4608 C4607 1.524 . S
C4608 C4609 1.397 . S
C4608 C4613 1.363 . S
C4609 H4580 0.950 . S
C4609 C4608 1.397 . S
C4609 C4610 1.334 . S
C4610 H4581 0.950 . S
C4610 C4609 1.334 . S
C4610 C4611 1.287 . S
C4611 C4610 1.287 . S
C4611 C4612 1.524 . S
C4611 H4614 0.999 . S
C4612 H4582 0.950 . S
C4612 C4611 1.524 . S
C4612 C4613 1.415 . S
C4613 H4583 0.950 . S
C4613 C4608 1.363 . S
C4613 C4612 1.415 . S
H4614 C4611 0.999 . S
H4615 C4596 0.913 . S
H4616 C4634 0.951 . S
H4617 C4636 0.951 . S
H4618 C4638 0.950 . S
H4619 C4639 0.950 . S
H4620 C4641 0.950 . S
H4621 C4644 0.950 . S
H4622 C4645 0.950 . S
H4623 C4647 0.950 . S
H4624 C4648 0.950 . S
H4625 C4649 0.951 . S
H4626 C4651 0.951 . S
H4627 C4653 0.950 . S
H4628 C4654 0.950 . S
H4629 C4656 0.950 . S
H4630 C4659 0.950 . S
H4631 C4660 0.950 . S
H4632 C4662 0.950 . S
H4633 C4663 0.950 . S
C4634 H4616 0.951 . S
C4634 C4635 1.366 . S
C4634 C4636 1.388 . S
C4635 C4634 1.366 . S
C4635 C4639 1.385 . S
C4636 H4617 0.951 . S
C4636 C4634 1.388 . S
C4636 C4637 1.366 . S
C4637 C4636 1.366 . S
C4637 C4638 1.414 . S
C4637 C4640 1.499 . S
C4638 H4618 0.950 . S
C4638 C4637 1.414 . S
C4638 C4639 1.374 . S
C4639 H4619 0.950 . S
C4639 C4635 1.385 . S
C4639 C4638 1.374 . S
C4640 C4637 1.499 . S
C4640 C4641 1.373 . S
C4640 C4642 1.389 . S
C4641 H4620 0.950 . S
C4641 C4640 1.373 . S
C4641 C4657 1.377 . S
C4642 C4640 1.389 . S
C4642 C4643 1.524 . S
C4642 C4656 1.377 . S
C4643 C4642 1.524 . S
C4643 C4644 1.397 . S
C4643 C4648 1.363 . S
C4644 H4621 0.950 . S
C4644 C4643 1.397 . S
C4644 C4645 1.334 . S
C4645 H4622 0.950 . S
C4645 C4644 1.334 . S
C4645 C4646 1.287 . S
C4646 C4645 1.287 . S
C4646 C4647 1.524 . S
C4646 H4665 0.913 . S
C4647 H4623 0.950 . S
C4647 C4646 1.524 . S
C4647 C4648 1.415 . S
C4648 H4624 0.950 . S
C4648 C4643 1.363 . S
C4648 C4647 1.415 . S
C4649 H4625 0.951 . S
C4649 C4650 1.366 . S
C4649 C4651 1.388 . S
C4650 C4649 1.366 . S
C4650 C4654 1.385 . S
C4651 H4626 0.951 . S
C4651 C4649 1.388 . S
C4651 C4652 1.366 . S
C4652 C4651 1.366 . S
C4652 C4653 1.414 . S
C4652 C4655 1.499 . S
C4653 H4627 0.950 . S
C4653 C4652 1.414 . S
C4653 C4654 1.374 . S
C4654 H4628 0.950 . S
C4654 C4650 1.385 . S
C4654 C4653 1.374 . S
C4655 C4652 1.499 . S
C4655 C4656 1.373 . S
C4655 C4657 1.389 . S
C4656 H4629 0.950 . S
C4656 C4642 1.377 . S
C4656 C4655 1.373 . S
C4657 C4641 1.377 . S
C4657 C4655 1.389 . S
C4657 C4658 1.524 . S
C4658 C4657 1.524 . S
C4658 C4659 1.397 . S
C4658 C4663 1.363 . S
C4659 H4630 0.950 . S
C4659 C4658 1.397 . S
C4659 C4660 1.334 . S
C4660 H4631 0.950 . S
C4660 C4659 1.334 . S
C4660 C4661 1.287 . S
C4661 C4660 1.287 . S
C4661 C4662 1.524 . S
C4661 H4664 0.999 . S
C4662 H4632 0.950 . S
C4662 C4661 1.524 . S
C4662 C4663 1.415 . S
C4663 H4633 0.950 . S
C4663 C4658 1.363 . S
C4663 C4662 1.415 . S
H4664 C4661 0.999 . S
H4665 C4646 0.913 . S
H4666 C4684 0.900 1_554 S
H4667 C4686 0.951 1_554 S
H4668 C4688 0.950 . S
H4669 C4689 0.950 . S
H4670 C4691 0.950 . S
H4671 C4694 0.950 . S
H4672 C4695 0.950 . S
H4673 C4697 0.950 1_554 S
H4674 C4698 0.950 1_554 S
H4675 C4699 0.951 . S
H4676 C4701 0.951 . S
H4677 C4703 0.950 . S
H4678 C4704 0.950 . S
H4679 C4706 0.950 . S
H4680 C4709 1.008 . S
H4681 C4710 0.950 . S
H4682 C4712 0.950 . S
H4683 C4713 0.950 . S
C4684 H4666 0.900 1_556 S
C4684 C4685 1.366 . S
C4684 C4686 1.388 . S
C4685 C4684 1.366 . S
C4685 C4689 1.385 . S
C4686 H4667 0.951 1_556 S
C4686 C4684 1.388 . S
C4686 C4687 1.366 . S
C4687 C4686 1.366 . S
C4687 C4688 1.414 . S
C4687 C4690 1.499 . S
C4688 H4668 0.950 . S
C4688 C4687 1.414 . S
C4688 C4689 1.374 . S
C4689 H4669 0.950 . S
C4689 C4685 1.385 . S
C4689 C4688 1.374 . S
C4690 C4687 1.499 . S
C4690 C4691 1.373 . S
C4690 C4692 1.389 . S
C4691 H4670 0.950 . S
C4691 C4690 1.373 . S
C4691 C4707 1.377 . S
C4692 C4690 1.389 . S
C4692 C4693 1.524 . S
C4692 C4706 1.377 . S
C4693 C4692 1.524 . S
C4693 C4694 1.397 . S
C4693 C4698 1.363 . S
C4694 H4671 0.950 . S
C4694 C4693 1.397 . S
C4694 C4695 1.334 . S
C4695 H4672 0.950 . S
C4695 C4694 1.334 . S
C4695 C4696 1.287 . S
C4696 C4695 1.287 . S
C4696 C4697 1.524 . S
C4696 H4715 0.913 . S
C4697 H4673 0.950 1_556 S
C4697 C4696 1.524 . S
C4697 C4698 1.415 . S
C4698 H4674 0.950 1_556 S
C4698 C4693 1.363 . S
C4698 C4697 1.415 . S
C4699 H4675 0.951 . S
C4699 C4700 1.366 . S
C4699 C4701 1.388 . S
C4700 C4699 1.366 . S
C4700 C4704 1.385 1_556 S
C4701 H4676 0.951 . S
C4701 C4699 1.388 . S
C4701 C4702 1.366 . S
C4702 C4701 1.366 . S
C4702 C4703 1.414 1_556 S
C4702 C4705 1.499 . S
C4703 H4677 0.950 . S
C4703 C4702 1.414 1_554 S
C4703 C4704 1.374 . S
C4704 H4678 0.950 . S
C4704 C4700 1.385 1_554 S
C4704 C4703 1.374 . S
C4705 C4702 1.499 . S
C4705 C4706 1.373 . S
C4705 C4707 1.389 . S
C4706 H4679 0.950 . S
C4706 C4692 1.377 . S
C4706 C4705 1.373 . S
C4707 C4691 1.377 . S
C4707 C4705 1.389 . S
C4707 C4708 1.524 . S
C4708 C4707 1.524 . S
C4708 C4709 1.343 1_556 S
C4708 C4713 1.363 . S
C4709 H4680 1.008 . S
C4709 C4708 1.343 1_554 S
C4709 C4710 1.334 . S
C4710 H4681 0.950 . S
C4710 C4709 1.334 . S
C4710 C4711 1.287 1_554 S
C4711 C4710 1.287 1_556 S
C4711 C4712 1.524 . S
C4711 H4714 0.999 . S
C4712 H4682 0.950 . S
C4712 C4711 1.524 . S
C4712 C4713 1.415 . S
C4713 H4683 0.950 . S
C4713 C4708 1.363 . S
C4713 C4712 1.415 . S
H4714 C4711 0.999 . S
H4715 C4696 0.913 . S
H4716 C4734 0.951 . S
H4717 C4736 0.951 . S
H4718 C4738 0.950 . S
H4719 C4739 0.950 . S
H4720 C4741 0.950 . S
H4721 C4744 0.950 . S
H4722 C4745 0.950 . S
H4723 C4747 0.950 . S
H4724 C4748 0.950 . S
H4725 C4749 0.951 . S
H4726 C4751 0.951 . S
H4727 C4753 0.950 . S
H4728 C4754 0.950 . S
H4729 C4756 0.950 . S
H4730 C4759 0.950 . S
H4731 C4760 0.950 . S
H4732 C4762 0.950 . S
H4733 C4763 0.950 . S
C4734 H4716 0.951 . S
C4734 C4735 1.366 . S
C4734 C4736 1.388 . S
C4735 C4734 1.366 . S
C4735 C4739 1.385 . S
C4736 H4717 0.951 . S
C4736 C4734 1.388 . S
C4736 C4737 1.366 . S
C4737 C4736 1.366 . S
C4737 C4738 1.414 . S
C4737 C4740 1.499 . S
C4738 H4718 0.950 . S
C4738 C4737 1.414 . S
C4738 C4739 1.374 . S
C4739 H4719 0.950 . S
C4739 C4735 1.385 . S
C4739 C4738 1.374 . S
C4740 C4737 1.499 . S
C4740 C4741 1.373 . S
C4740 C4742 1.389 . S
C4741 H4720 0.950 . S
C4741 C4740 1.373 . S
C4741 C4757 1.377 . S
C4742 C4740 1.389 . S
C4742 C4743 1.524 . S
C4742 C4756 1.377 . S
C4743 C4742 1.524 . S
C4743 C4744 1.397 . S
C4743 C4748 1.363 . S
C4744 H4721 0.950 . S
C4744 C4743 1.397 . S
C4744 C4745 1.334 . S
C4745 H4722 0.950 . S
C4745 C4744 1.334 . S
C4745 C4746 1.287 . S
C4746 C4745 1.287 . S
C4746 C4747 1.524 . S
C4746 H4765 0.913 . S
C4747 H4723 0.950 . S
C4747 C4746 1.524 . S
C4747 C4748 1.415 . S
C4748 H4724 0.950 . S
C4748 C4743 1.363 . S
C4748 C4747 1.415 . S
C4749 H4725 0.951 . S
C4749 C4750 1.366 . S
C4749 C4751 1.388 . S
C4750 C4749 1.366 . S
C4750 C4754 1.385 . S
C4751 H4726 0.951 . S
C4751 C4749 1.388 . S
C4751 C4752 1.366 . S
C4752 C4751 1.366 . S
C4752 C4753 1.414 . S
C4752 C4755 1.499 . S
C4753 H4727 0.950 . S
C4753 C4752 1.414 . S
C4753 C4754 1.374 . S
C4754 H4728 0.950 . S
C4754 C4750 1.385 . S
C4754 C4753 1.374 . S
C4755 C4752 1.499 . S
C4755 C4756 1.373 . S
C4755 C4757 1.389 . S
C4756 H4729 0.950 . S
C4756 C4742 1.377 . S
C4756 C4755 1.373 . S
C4757 C4741 1.377 . S
C4757 C4755 1.389 . S
C4757 C4758 1.524 . S
C4758 C4757 1.524 . S
C4758 C4759 1.397 . S
C4758 C4763 1.363 . S
C4759 H4730 0.950 . S
C4759 C4758 1.397 . S
C4759 C4760 1.334 . S
C4760 H4731 0.950 . S
C4760 C4759 1.334 . S
C4760 C4761 1.287 . S
C4761 C4760 1.287 . S
C4761 C4762 1.524 . S
C4761 H4764 0.999 . S
C4762 H4732 0.950 . S
C4762 C4761 1.524 . S
C4762 C4763 1.415 . S
C4763 H4733 0.950 . S
C4763 C4758 1.363 . S
C4763 C4762 1.415 . S
H4764 C4761 0.999 . S
H4765 C4746 0.913 . S
H4766 C4784 0.951 . S
H4767 C4786 0.951 . S
H4768 C4788 0.950 . S
H4769 C4789 0.950 . S
H4770 C4791 0.950 . S
H4771 C4794 0.950 . S
H4772 C4795 0.950 . S
H4773 C4797 0.952 . S
H4774 C4798 0.950 . S
H4775 C4799 0.951 1_556 S
H4776 C4801 0.951 1_556 S
H4777 C4803 0.950 . S
H4778 C4804 0.950 . S
H4779 C4806 0.950 . S
H4780 C4809 0.950 . S
H4781 C4810 0.950 . S
H4782 C4812 0.950 . S
H4783 C4813 0.950 . S
C4784 H4766 0.951 . S
C4784 C4785 1.366 . S
C4784 C4786 1.388 . S
C4785 C4784 1.366 . S
C4785 C4789 1.385 1_554 S
C4786 H4767 0.951 . S
C4786 C4784 1.388 . S
C4786 C4787 1.366 . S
C4787 C4786 1.366 . S
C4787 C4788 1.414 1_554 S
C4787 C4790 1.499 . S
C4788 H4768 0.950 . S
C4788 C4787 1.414 1_556 S
C4788 C4789 1.374 . S
C4789 H4769 0.950 . S
C4789 C4785 1.385 1_556 S
C4789 C4788 1.374 . S
C4790 C4787 1.499 . S
C4790 C4791 1.373 . S
C4790 C4792 1.389 . S
C4791 H4770 0.950 . S
C4791 C4790 1.373 . S
C4791 C4807 1.377 . S
C4792 C4790 1.389 . S
C4792 C4793 1.495 1_554 S
C4792 C4806 1.377 . S
C4793 C4792 1.495 1_556 S
C4793 C4794 1.466 . S
C4793 C4798 1.331 1_556 S
C4794 H4771 0.950 . S
C4794 C4793 1.466 . S
C4794 C4795 1.334 . S
C4795 H4772 0.950 . S
C4795 C4794 1.334 . S
C4795 C4796 1.287 . S
C4796 C4795 1.287 . S
C4796 C4797 1.520 1_556 S
C4796 H4815 0.913 . S
C4797 H4773 0.952 . S
C4797 C4796 1.520 1_554 S
C4797 C4798 1.417 . S
C4798 H4774 0.950 . S
C4798 C4793 1.331 1_554 S
C4798 C4797 1.417 . S
C4799 H4775 0.951 1_554 S
C4799 C4800 1.366 . S
C4799 C4801 1.388 . S
C4800 C4799 1.366 . S
C4800 C4804 1.385 . S
C4801 H4776 0.951 1_554 S
C4801 C4799 1.388 . S
C4801 C4802 1.366 . S
C4802 C4801 1.366 . S
C4802 C4803 1.414 . S
C4802 C4805 1.499 . S
C4803 H4777 0.950 . S
C4803 C4802 1.414 . S
C4803 C4804 1.374 . S
C4804 H4778 0.950 . S
C4804 C4800 1.385 . S
C4804 C4803 1.374 . S
C4805 C4802 1.499 . S
C4805 C4806 1.373 . S
C4805 C4807 1.389 . S
C4806 H4779 0.950 . S
C4806 C4792 1.377 . S
C4806 C4805 1.373 . S
C4807 C4791 1.377 . S
C4807 C4805 1.389 . S
C4807 C4808 1.524 . S
C4808 C4807 1.524 . S
C4808 C4809 1.397 . S
C4808 C4813 1.363 . S
C4809 H4780 0.950 . S
C4809 C4808 1.397 . S
C4809 C4810 1.334 . S
C4810 H4781 0.950 . S
C4810 C4809 1.334 . S
C4810 C4811 1.287 . S
C4811 C4810 1.287 . S
C4811 C4812 1.524 . S
C4811 H4814 0.999 . S
C4812 H4782 0.950 . S
C4812 C4811 1.524 . S
C4812 C4813 1.415 . S
C4813 H4783 0.950 . S
C4813 C4808 1.363 . S
C4813 C4812 1.415 . S
H4814 C4811 0.999 . S
H4815 C4796 0.913 . S
H4816 C4834 0.951 . S
H4817 C4836 0.951 . S
H4818 C4838 0.950 . S
H4819 C4839 0.950 . S
H4820 C4841 0.950 . S
H4821 C4844 0.950 . S
H4822 C4845 0.950 . S
H4823 C4847 0.950 . S
H4824 C4848 0.950 . S
H4825 C4849 0.951 . S
H4826 C4851 0.951 . S
H4827 C4853 0.950 . S
H4828 C4854 0.950 . S
H4829 C4856 0.950 . S
H4830 C4859 0.950 . S
H4831 C4860 0.950 . S
H4832 C4862 0.950 . S
H4833 C4863 0.950 . S
C4834 H4816 0.951 . S
C4834 C4835 1.366 . S
C4834 C4836 1.388 . S
C4835 C4834 1.366 . S
C4835 C4839 1.385 . S
C4836 H4817 0.951 . S
C4836 C4834 1.388 . S
C4836 C4837 1.366 . S
C4837 C4836 1.366 . S
C4837 C4838 1.414 . S
C4837 C4840 1.499 . S
C4838 H4818 0.950 . S
C4838 C4837 1.414 . S
C4838 C4839 1.374 . S
C4839 H4819 0.950 . S
C4839 C4835 1.385 . S
C4839 C4838 1.374 . S
C4840 C4837 1.499 . S
C4840 C4841 1.373 . S
C4840 C4842 1.389 . S
C4841 H4820 0.950 . S
C4841 C4840 1.373 . S
C4841 C4857 1.377 . S
C4842 C4840 1.389 . S
C4842 C4843 1.524 . S
C4842 C4856 1.377 . S
C4843 C4842 1.524 . S
C4843 C4844 1.397 . S
C4843 C4848 1.363 . S
C4844 H4821 0.950 . S
C4844 C4843 1.397 . S
C4844 C4845 1.334 . S
C4845 H4822 0.950 . S
C4845 C4844 1.334 . S
C4845 C4846 1.287 . S
C4846 C4845 1.287 . S
C4846 C4847 1.524 . S
C4846 H4865 0.913 . S
C4847 H4823 0.950 . S
C4847 C4846 1.524 . S
C4847 C4848 1.415 . S
C4848 H4824 0.950 . S
C4848 C4843 1.363 . S
C4848 C4847 1.415 . S
C4849 H4825 0.951 . S
C4849 C4850 1.366 . S
C4849 C4851 1.388 . S
C4850 C4849 1.366 . S
C4850 C4854 1.385 . S
C4851 H4826 0.951 . S
C4851 C4849 1.388 . S
C4851 C4852 1.366 . S
C4852 C4851 1.366 . S
C4852 C4853 1.414 . S
C4852 C4855 1.499 . S
C4853 H4827 0.950 . S
C4853 C4852 1.414 . S
C4853 C4854 1.374 . S
C4854 H4828 0.950 . S
C4854 C4850 1.385 . S
C4854 C4853 1.374 . S
C4855 C4852 1.499 . S
C4855 C4856 1.373 . S
C4855 C4857 1.389 . S
C4856 H4829 0.950 . S
C4856 C4842 1.377 . S
C4856 C4855 1.373 . S
C4857 C4841 1.377 . S
C4857 C4855 1.389 . S
C4857 C4858 1.524 . S
C4858 C4857 1.524 . S
C4858 C4859 1.397 . S
C4858 C4863 1.363 . S
C4859 H4830 0.950 . S
C4859 C4858 1.397 . S
C4859 C4860 1.334 . S
C4860 H4831 0.950 . S
C4860 C4859 1.334 . S
C4860 C4861 1.287 . S
C4861 C4860 1.287 . S
C4861 C4862 1.524 . S
C4861 H4864 0.999 . S
C4862 H4832 0.950 . S
C4862 C4861 1.524 . S
C4862 C4863 1.415 . S
C4863 H4833 0.950 . S
C4863 C4858 1.363 . S
C4863 C4862 1.415 . S
H4864 C4861 0.999 . S
H4865 C4846 0.913 . S
H4866 C4884 0.951 . S
H4867 C4886 0.951 . S
H4868 C4888 0.950 . S
H4869 C4889 0.950 . S
H4870 C4891 0.950 . S
H4871 C4894 0.950 . S
H4872 C4895 0.950 . S
H4873 C4897 0.950 . S
H4874 C4898 0.950 . S
H4875 C4899 0.948 . S
H4876 C4901 0.951 1_455 S
H4877 C4903 0.950 . S
H4878 C4904 0.950 . S
H4879 C4906 0.950 . S
H4880 C4909 0.950 . S
H4881 C4910 0.950 . S
H4882 C4912 0.950 . S
H4883 C4913 0.950 . S
C4884 H4866 0.951 . S
C4884 C4885 1.366 . S
C4884 C4886 1.388 . S
C4885 C4884 1.366 . S
C4885 C4889 1.385 . S
C4886 H4867 0.951 . S
C4886 C4884 1.388 . S
C4886 C4887 1.366 . S
C4887 C4886 1.366 . S
C4887 C4888 1.414 . S
C4887 C4890 1.499 . S
C4888 H4868 0.950 . S
C4888 C4887 1.414 . S
C4888 C4889 1.374 . S
C4889 H4869 0.950 . S
C4889 C4885 1.385 . S
C4889 C4888 1.374 . S
C4890 C4887 1.499 . S
C4890 C4891 1.373 . S
C4890 C4892 1.389 . S
C4891 H4870 0.950 . S
C4891 C4890 1.373 . S
C4891 C4907 1.377 . S
C4892 C4890 1.389 . S
C4892 C4893 1.524 . S
C4892 C4906 1.377 . S
C4893 C4892 1.524 . S
C4893 C4894 1.397 1_655 S
C4893 C4898 1.363 . S
C4894 H4871 0.950 . S
C4894 C4893 1.397 1_455 S
C4894 C4895 1.334 . S
C4895 H4872 0.950 . S
C4895 C4894 1.334 . S
C4895 C4896 1.287 . S
C4896 C4895 1.287 . S
C4896 C4897 1.524 1_455 S
C4896 H4915 0.913 . S
C4897 H4873 0.950 . S
C4897 C4896 1.524 1_655 S
C4897 C4898 1.415 . S
C4898 H4874 0.950 . S
C4898 C4893 1.363 . S
C4898 C4897 1.415 . S
C4899 H4875 0.948 . S
C4899 C4900 1.369 1_455 S
C4899 C4901 1.388 1_455 S
C4900 C4899 1.369 1_655 S
C4900 C4904 1.385 . S
C4901 H4876 0.951 1_655 S
C4901 C4899 1.388 1_655 S
C4901 C4902 1.366 . S
C4902 C4901 1.366 . S
C4902 C4903 1.414 . S
C4902 C4905 1.499 . S
C4903 H4877 0.950 . S
C4903 C4902 1.414 . S
C4903 C4904 1.374 . S
C4904 H4878 0.950 . S
C4904 C4900 1.385 . S
C4904 C4903 1.374 . S
C4905 C4902 1.499 . S
C4905 C4906 1.373 . S
C4905 C4907 1.389 . S
C4906 H4879 0.950 . S
C4906 C4892 1.377 . S
C4906 C4905 1.373 . S
C4907 C4891 1.377 . S
C4907 C4905 1.389 . S
C4907 C4908 1.524 . S
C4908 C4907 1.524 . S
C4908 C4909 1.397 . S
C4908 C4913 1.363 . S
C4909 H4880 0.950 . S
C4909 C4908 1.397 . S
C4909 C4910 1.334 . S
C4910 H4881 0.950 . S
C4910 C4909 1.334 . S
C4910 C4911 1.287 . S
C4911 C4910 1.287 . S
C4911 C4912 1.524 . S
C4911 H4914 0.999 . S
C4912 H4882 0.950 . S
C4912 C4911 1.524 . S
C4912 C4913 1.415 . S
C4913 H4883 0.950 . S
C4913 C4908 1.363 . S
C4913 C4912 1.415 . S
H4914 C4911 0.999 . S
H4915 C4896 0.913 . S
H4916 C4934 0.951 . S
H4917 C4936 0.951 . S
H4918 C4938 0.950 . S
H4919 C4939 0.950 . S
H4920 C4941 0.950 . S
H4921 C4944 0.950 . S
H4922 C4945 0.950 . S
H4923 C4947 0.950 . S
H4924 C4948 0.950 . S
H4925 C4949 0.951 . S
H4926 C4951 0.951 . S
H4927 C4953 0.950 . S
H4928 C4954 0.950 . S
H4929 C4956 0.950 . S
H4930 C4959 0.950 . S
H4931 C4960 0.950 . S
H4932 C4962 0.950 . S
H4933 C4963 0.950 . S
C4934 H4916 0.951 . S
C4934 C4935 1.366 . S
C4934 C4936 1.388 . S
C4935 C4934 1.366 . S
C4935 C4939 1.385 . S
C4936 H4917 0.951 . S
C4936 C4934 1.388 . S
C4936 C4937 1.366 . S
C4937 C4936 1.366 . S
C4937 C4938 1.414 . S
C4937 C4940 1.499 . S
C4938 H4918 0.950 . S
C4938 C4937 1.414 . S
C4938 C4939 1.374 . S
C4939 H4919 0.950 . S
C4939 C4935 1.385 . S
C4939 C4938 1.374 . S
C4940 C4937 1.499 . S
C4940 C4941 1.373 . S
C4940 C4942 1.389 . S
C4941 H4920 0.950 . S
C4941 C4940 1.373 . S
C4941 C4957 1.377 . S
C4942 C4940 1.389 . S
C4942 C4943 1.524 . S
C4942 C4956 1.377 . S
C4943 C4942 1.524 . S
C4943 C4944 1.397 . S
C4943 C4948 1.363 . S
C4944 H4921 0.950 . S
C4944 C4943 1.397 . S
C4944 C4945 1.334 . S
C4945 H4922 0.950 . S
C4945 C4944 1.334 . S
C4945 C4946 1.287 . S
C4946 C4945 1.287 . S
C4946 C4947 1.524 . S
C4946 H4965 0.913 . S
C4947 H4923 0.950 . S
C4947 C4946 1.524 . S
C4947 C4948 1.415 . S
C4948 H4924 0.950 . S
C4948 C4943 1.363 . S
C4948 C4947 1.415 . S
C4949 H4925 0.951 . S
C4949 C4950 1.366 . S
C4949 C4951 1.388 . S
C4950 C4949 1.366 . S
C4950 C4954 1.385 . S
C4951 H4926 0.951 . S
C4951 C4949 1.388 . S
C4951 C4952 1.366 . S
C4952 C4951 1.366 . S
C4952 C4953 1.414 . S
C4952 C4955 1.499 . S
C4953 H4927 0.950 . S
C4953 C4952 1.414 . S
C4953 C4954 1.374 . S
C4954 H4928 0.950 . S
C4954 C4950 1.385 . S
C4954 C4953 1.374 . S
C4955 C4952 1.499 . S
C4955 C4956 1.373 . S
C4955 C4957 1.389 . S
C4956 H4929 0.950 . S
C4956 C4942 1.377 . S
C4956 C4955 1.373 . S
C4957 C4941 1.377 . S
C4957 C4955 1.389 . S
C4957 C4958 1.524 . S
C4958 C4957 1.524 . S
C4958 C4959 1.397 . S
C4958 C4963 1.363 . S
C4959 H4930 0.950 . S
C4959 C4958 1.397 . S
C4959 C4960 1.334 . S
C4960 H4931 0.950 . S
C4960 C4959 1.334 . S
C4960 C4961 1.287 . S
C4961 C4960 1.287 . S
C4961 C4962 1.524 . S
C4961 H4964 0.999 . S
C4962 H4932 0.950 . S
C4962 C4961 1.524 . S
C4962 C4963 1.415 . S
C4963 H4933 0.950 . S
C4963 C4958 1.363 . S
C4963 C4962 1.415 . S
H4964 C4961 0.999 . S
H4965 C4946 0.913 . S
H4966 C4984 0.951 1_655 S
H4967 C4986 0.951 1_655 S
H4968 C4988 0.950 . S
H4969 C4989 0.950 . S
H4970 C4991 0.950 . S
H4971 C4994 0.950 . S
H4972 C4995 0.950 . S
H4973 C4997 0.950 . S
H4974 C4998 0.950 . S
H4975 C4999 0.951 . S
H4976 C5001 0.951 . S
H4977 C5003 0.986 . S
H4978 C5004 0.950 . S
H4979 C5006 0.950 . S
H4980 C5009 0.950 . S
H4981 C5010 0.950 . S
H4982 C5012 0.950 . S
H4983 C5013 0.950 . S
C4984 H4966 0.951 1_455 S
C4984 C4985 1.366 . S
C4984 C4986 1.388 . S
C4985 C4984 1.366 . S
C4985 C4989 1.385 . S
C4986 H4967 0.951 1_455 S
C4986 C4984 1.388 . S
C4986 C4987 1.366 . S
C4987 C4986 1.366 . S
C4987 C4988 1.414 . S
C4987 C4990 1.499 . S
C4988 H4968 0.950 . S
C4988 C4987 1.414 . S
C4988 C4989 1.374 . S
C4989 H4969 0.950 . S
C4989 C4985 1.385 . S
C4989 C4988 1.374 . S
C4990 C4987 1.499 . S
C4990 C4991 1.373 . S
C4990 C4992 1.389 1_455 S
C4991 H4970 0.950 . S
C4991 C4990 1.373 . S
C4991 C5007 1.377 . S
C4992 C4990 1.389 1_655 S
C4992 C4993 1.524 . S
C4992 C5006 1.377 . S
C4993 C4992 1.524 . S
C4993 C4994 1.397 . S
C4993 C4998 1.363 . S
C4994 H4971 0.950 . S
C4994 C4993 1.397 . S
C4994 C4995 1.334 . S
C4995 H4972 0.950 . S
C4995 C4994 1.334 . S
C4995 C4996 1.287 . S
C4996 C4995 1.287 . S
C4996 C4997 1.524 . S
C4996 H5015 0.913 . S
C4997 H4973 0.950 . S
C4997 C4996 1.524 . S
C4997 C4998 1.415 . S
C4998 H4974 0.950 . S
C4998 C4993 1.363 . S
C4998 C4997 1.415 . S
C4999 H4975 0.951 . S
C4999 C5000 1.366 . S
C4999 C5001 1.388 . S
C5000 C4999 1.366 . S
C5000 C5004 1.385 . S
C5001 H4976 0.951 . S
C5001 C4999 1.388 . S
C5001 C5002 1.366 . S
C5002 C5001 1.366 . S
C5002 C5003 1.414 . S
C5002 C5005 1.499 . S
C5003 H4977 0.986 . S
C5003 C5002 1.414 . S
C5003 C5004 1.374 . S
C5004 H4978 0.950 . S
C5004 C5000 1.385 . S
C5004 C5003 1.374 . S
C5005 C5002 1.499 . S
C5005 C5006 1.373 1_455 S
C5005 C5007 1.389 . S
C5006 H4979 0.950 . S
C5006 C4992 1.377 . S
C5006 C5005 1.373 1_655 S
C5007 C4991 1.377 . S
C5007 C5005 1.389 . S
C5007 C5008 1.524 . S
C5008 C5007 1.524 . S
C5008 C5009 1.397 . S
C5008 C5013 1.363 . S
C5009 H4980 0.950 . S
C5009 C5008 1.397 . S
C5009 C5010 1.334 . S
C5010 H4981 0.950 . S
C5010 C5009 1.334 . S
C5010 C5011 1.287 . S
C5011 C5010 1.287 . S
C5011 C5012 1.524 . S
C5011 H5014 0.999 . S
C5012 H4982 0.950 . S
C5012 C5011 1.524 . S
C5012 C5013 1.415 . S
C5013 H4983 0.950 . S
C5013 C5008 1.363 . S
C5013 C5012 1.415 . S
H5014 C5011 0.999 . S
H5015 C4996 0.913 . S
C1450 C1403 1.685 . S
C1435 C15 1.775 . S
C1500 C1346 1.272 . S
C1485 C55 1.298 . S
C1550 C1384 0.866 . S
C1535 C95 0.919 . S
C1600 C1365 1.504 . S
C1585 C135 1.528 . S
C1650 C1232 1.685 . S
C1635 C175 1.775 . S
C1685 C215 1.528 . S
C1700 C1251 1.504 . S
C1750 C1194 1.271 . S
C1735 C255 1.298 . S
C1785 C295 0.919 . S
C1800 C1213 0.867 . S
C1850 C1327 1.685 . S
C1835 C335 1.775 . S
C1885 C375 1.528 . S
C1900 C1289 1.504 . S
C1935 C415 1.299 . S
C1950 C1270 1.271 . S
C2000 C1308 0.867 . S
C1985 C455 0.918 . S
C2050 C1175 1.690 . S
C2035 C495 1.774 . S
C2085 C535 1.293 . S
C2100 C1118 1.272 . S
C2150 C1156 0.869 . S
C2135 C575 0.919 . S
C2185 C615 1.527 . S
C2200 C1137 1.510 . S
C2250 C1004 1.689 . S
C2235 C655 1.774 . S
C2300 C1023 1.510 . S
C2285 C695 1.526 . S
C2335 C735 1.293 . S
C2350 C966 1.272 . S
C2385 C775 0.919 . S
C2400 C985 0.867 . S
C2435 C815 1.774 . S
C2450 C1099 1.690 . S
C2485 C855 1.526 . S
C2500 C1061 1.509 . S
C2550 C1042 1.273 . S
C2535 C895 1.293 . S
C2585 C935 0.919 . S
C2600 C1080 0.869 . S
C2650 C962 1.555 . S
C2635 C21 1.623 . S
C2700 C981 1.542 . S
C2685 C61 1.661 . S
C2735 C101 0.846 . S
C2750 C1000 0.839 . S
C2785 C141 0.972 . S
C2800 C1019 0.926 . S
C2850 C1038 1.556 . S
C2835 C181 1.623 . S
C2885 C221 0.972 . S
C2900 C1057 0.925 . S
C2950 C1076 1.542 . S
C2935 C261 1.661 . S
C3000 C1095 0.839 . S
C2985 C301 0.843 . S
C3050 C1114 1.556 . S
C3035 C341 1.623 . S
C3085 C381 0.972 . S
C3100 C1133 0.927 . S
C3135 C421 1.665 . S
C3150 C1152 1.539 . S
C3185 C461 0.846 . S
C3200 C1171 0.840 . S
C3235 C501 1.586 . S
C3250 C1190 1.554 . S
C3285 C541 1.561 . S
C3300 C1209 1.536 . S
C3335 C581 0.843 . S
C3350 C1228 0.839 . S
C3385 C621 0.951 . S
C3400 C1247 0.926 . S
C3435 C661 1.587 . S
C3450 C1266 1.556 . S
C3500 C1285 0.933 . S
C3485 C701 0.941 . S
C3550 C1304 1.541 . S
C3535 C741 1.555 . S
C3600 C1323 0.838 . S
C3585 C781 0.842 . S
C3650 C1342 1.556 . S
C3635 C821 1.587 . S
C3685 C861 0.950 . S
C3700 C1361 0.924 . S
C3735 C901 1.560 . S
C3750 C1380 1.537 . S
C3785 C941 0.842 . S
C3800 C1399 0.839 . S
C3835 C2 1.691 . S
C3850 C1123 1.630 . S
C3900 C1180 1.949 . S
C3885 C42 1.979 . S
C3935 C82 1.628 . S
C3950 C1142 1.588 . S
C4000 C1161 1.505 . S
C3985 C122 1.572 . S
C4035 C162 1.691 . S
C4050 C971 1.631 . S
C4085 C202 1.572 . S
C4100 C990 1.505 . S
C4135 C242 1.979 . S
C4150 C1009 1.949 . S
C4185 C282 1.628 . S
C4200 C1028 1.589 . S
C4250 C1047 1.630 . S
C4235 C322 1.691 . S
C4300 C1085 1.505 . S
C4285 C362 1.572 . S
C4335 C402 1.978 . S
C4350 C1104 1.949 . S
C4385 C442 1.629 . S
C4400 C1066 1.588 . S
C4450 C1351 1.604 . S
C4435 C482 1.670 . S
C4500 C1408 1.841 . S
C4485 C522 1.910 . S
C4535 C562 1.624 . S
C4550 C1370 1.496 . S
C4600 C1389 1.456 . S
C4585 C602 1.537 . S
C4635 C642 1.670 . S
C4650 C1199 1.603 . S
C4685 C682 1.537 . S
C4700 C1218 1.457 . S
C4735 C722 1.909 . S
C4750 C1237 1.841 . S
C4800 C1256 1.496 . S
C4785 C762 1.624 . S
C4850 C1275 1.603 . S
C4835 C802 1.670 . S
C4900 C1313 1.457 . S
C4885 C842 1.538 . S
C4935 C882 1.909 . S
C4950 C1332 1.840 . S
C5000 C1294 1.497 . S
C4985 C922 1.625 . S
