# Generated by pormake.
# Topology pth, (4,4)-cn, num edge types: 1
# Building blocks:
#     Node 0, Type 0, BuildingBlock: TATPOV_clean_sbu_0, # of connection points: 4
#     Node 1, Type 0, BuildingBlock: TATPOV_clean_sbu_0, # of connection points: 4
#     Node 2, Type 0, BuildingBlock: TATPOV_clean_sbu_0, # of connection points: 4
#     Node 3, Type 1, BuildingBlock: MUDLON_clean_linker_0, # of connection points: 4
#     Node 4, Type 1, BuildingBlock: MUDLON_clean_linker_0, # of connection points: 4
#     Node 5, Type 1, BuildingBlock: MUDLON_clean_linker_0, # of connection points: 4
#     Edge 6, Type (0, 1), BuildingBlock: XUDNAN_clean_linker_2, # of connection points: 2
#     Edge 7, Type (0, 1), BuildingBlock: XUDNAN_clean_linker_2, # of connection points: 2
#     Edge 8, Type (0, 1), BuildingBlock: XUDNAN_clean_linker_2, # of connection points: 2
#     Edge 9, Type (0, 1), BuildingBlock: XUDNAN_clean_linker_2, # of connection points: 2
#     Edge 10, Type (0, 1), BuildingBlock: XUDNAN_clean_linker_2, # of connection points: 2
#     Edge 11, Type (0, 1), BuildingBlock: XUDNAN_clean_linker_2, # of connection points: 2
#     Edge 12, Type (0, 1), BuildingBlock: XUDNAN_clean_linker_2, # of connection points: 2
#     Edge 13, Type (0, 1), BuildingBlock: XUDNAN_clean_linker_2, # of connection points: 2
#     Edge 14, Type (0, 1), BuildingBlock: XUDNAN_clean_linker_2, # of connection points: 2
#     Edge 15, Type (0, 1), BuildingBlock: XUDNAN_clean_linker_2, # of connection points: 2
#     Edge 16, Type (0, 1), BuildingBlock: XUDNAN_clean_linker_2, # of connection points: 2
#     Edge 17, Type (0, 1), BuildingBlock: XUDNAN_clean_linker_2, # of connection points: 2
# Relax obj value: 0.054
# Max RMSD: 0.166
# Mean RMSD: 0.112
data_MOF--net-pth--node1-TATPOV_clean_sbu_0--node2-MUDLON_clean_linker_0--edge1-XUDNAN_clean_linker_2
_symmetry_space_group_name_H-M    P1
_symmetry_Int_Tables_number       1
_symmetry_cell_setting            triclinic
loop_
_symmetry_equiv_pos_as_xyz
'x, y, z'
_cell_length_a     33.885819
_cell_length_b     33.560747
_cell_length_c     66.362081
_cell_angle_alpha  92.636735
_cell_angle_beta   92.117826
_cell_angle_gamma 120.93215
loop_
_atom_site_label
_atom_site_type_symbol
_atom_site_fract_x
_atom_site_fract_y
_atom_site_fract_z
_atom_type_partial_charge
Zn0 Zn 0.09875 0.00766 0.01969 0.0
Zn1 Zn 0.05932 0.03915 0.04453 0.0
O2 O 0.06687 0.99259 0.06152 0.0
O3 O 0.09667 0.96483 0.04012 0.0
O4 O 0.03331 0.06749 0.06333 0.0
O5 O 0.15451 0.07164 0.01827 0.0
O6 O 0.11719 0.09761 0.0357 0.0
C7 C 0.08083 0.96464 0.05711 0.0
C8 C 0.00763 0.98465 0.00482 0.0
O9 O 0.00846 0.00493 0.02167 0.0
O10 O 0.04266 0.98298 4e-05 0.0
C11 C 0.9936 0.04345 0.06996 0.0
O12 O 0.96905 0.9985 0.06481 0.0
C13 C 0.1519 0.10528 0.026 0.0
Zn14 Zn 0.15708 0.11876 0.35393 0.0
Zn15 Zn 0.08084 0.09713 0.37312 0.0
O16 O 0.13142 0.1128 0.39566 0.0
O17 O 0.194 0.12982 0.38021 0.0
O18 O 0.02913 0.09157 0.38922 0.0
O19 O 0.15584 0.17129 0.34091 0.0
O20 O 0.09077 0.14927 0.35508 0.0
C21 C 0.17371 0.12446 0.39637 0.0
C22 C 0.07886 0.02336 0.34447 0.0
O23 O 0.05767 0.03411 0.35707 0.0
O24 O 0.11979 0.05324 0.34075 0.0
C25 C 0.98829 0.05747 0.39028 0.0
O26 O 0.97474 0.01779 0.37986 0.0
C27 C 0.12143 0.17567 0.34356 0.0
Zn28 Zn 0.0658 0.95926 0.72933 0.0
Zn29 Zn 0.02351 0.99048 0.70415 0.0
O30 O 0.05822 0.97144 0.68516 0.0
O31 O 0.09686 0.95072 0.70518 0.0
O32 O 0.98842 0.0085 0.68519 0.0
O33 O 0.00253 0.9074 0.73651 0.0
O34 O 0.97124 0.93862 0.71832 0.0
C35 C 0.08664 0.95765 0.68764 0.0
C36 C 0.09129 0.0558 0.7387 0.0
O37 O 0.06567 0.0488 0.7228 0.0
O38 O 0.09577 0.02308 0.74495 0.0
C39 C 0.98035 0.04085 0.68945 0.0
O40 O 0.99698 0.06579 0.70683 0.0
C41 C 0.96721 0.9082 0.73018 0.0
H42 H 0.94171 0.67028 0.21938 0.0
N43 N 0.0194 0.66849 0.2112 0.0
H44 H 0.93567 0.71718 0.24721 0.0
H45 H 0.07765 0.70952 0.24352 0.0
H46 H 0.07139 0.75492 0.27177 0.0
H47 H 0.09188 0.74753 0.20145 0.0
H48 H 0.09654 0.79349 0.17289 0.0
H49 H 0.94947 0.64783 0.1828 0.0
H50 H 0.95465 0.69272 0.15372 0.0
H51 H 0.96543 0.60082 0.23667 0.0
H52 H 0.02467 0.62071 0.17867 0.0
H53 H 0.93899 0.51893 0.23241 0.0
H54 H 0.99502 0.53784 0.17378 0.0
H55 H 0.8974 0.26236 0.22778 0.0
H56 H 0.94051 0.25017 0.25462 0.0
H57 H 0.0562 0.3895 0.2501 0.0
H58 H 0.01447 0.40027 0.22272 0.0
H59 H 0.00431 0.3376 0.1904 0.0
H60 H 0.00399 0.28332 0.16475 0.0
H61 H 0.85635 0.21902 0.15378 0.0
H62 H 0.8569 0.27248 0.18031 0.0
H63 H 0.87528 0.36615 0.2178 0.0
H64 H 0.88919 0.44506 0.21662 0.0
H65 H 0.01228 0.48428 0.18521 0.0
N66 N 0.92814 0.33438 0.20506 0.0
H67 H 0.99642 0.40517 0.18543 0.0
C68 C 0.01065 0.68736 0.22929 0.0
C69 C 0.96974 0.68811 0.23096 0.0
C70 C 0.96623 0.71463 0.24694 0.0
C71 C 0.00344 0.74046 0.26146 0.0
C72 C 0.04256 0.73625 0.26057 0.0
C73 C 0.04614 0.71012 0.24458 0.0
C74 C 0.02079 0.69394 0.194 0.0
C75 C 0.06179 0.73553 0.19112 0.0
C76 C 0.0643 0.76181 0.17498 0.0
C77 C 0.02593 0.74643 0.16127 0.0
C78 C 0.98461 0.70507 0.16419 0.0
C79 C 0.98175 0.67936 0.18066 0.0
C80 C 0.99635 0.61804 0.20771 0.0
C81 C 0.97156 0.58786 0.22264 0.0
C82 C 0.956 0.5403 0.22016 0.0
C83 C 0.96462 0.52129 0.20271 0.0
C84 C 0.98818 0.55105 0.18757 0.0
C85 C 0.00454 0.59868 0.19022 0.0
C86 C 0.95213 0.33199 0.22307 0.0
C87 C 0.9318 0.29048 0.23284 0.0
C88 C 0.95651 0.28371 0.24827 0.0
C89 C 0.00214 0.31873 0.25445 0.0
C90 C 0.02155 0.36134 0.24544 0.0
C91 C 0.99718 0.36776 0.22979 0.0
C92 C 0.93034 0.30874 0.18747 0.0
C93 C 0.97194 0.31236 0.18228 0.0
C94 C 0.97171 0.28126 0.16746 0.0
C95 C 0.93003 0.24619 0.15731 0.0
C96 C 0.88896 0.24479 0.16161 0.0
C97 C 0.88919 0.27563 0.17659 0.0
C98 C 0.9347 0.37963 0.20184 0.0
C99 C 0.90465 0.3917 0.21029 0.0
C100 C 0.91303 0.437 0.20979 0.0
C101 C 0.95226 0.47158 0.20106 0.0
C102 C 0.98133 0.45876 0.19182 0.0
C103 C 0.97241 0.41325 0.19202 0.0
H104 H 0.75187 0.08312 0.54366 0.0
N105 N 0.67258 0.00019 0.53194 0.0
H106 H 0.80349 0.09961 0.57353 0.0
H107 H 0.66233 0.94326 0.56059 0.0
H108 H 0.71454 0.95952 0.59059 0.0
H109 H 0.69628 0.94518 0.51298 0.0
H110 H 0.74808 0.96401 0.48573 0.0
H111 H 0.70433 0.07714 0.50988 0.0
H112 H 0.75416 0.09535 0.48198 0.0
H113 H 0.68214 0.08274 0.54737 0.0
H114 H 0.58416 0.94646 0.51913 0.0
H115 H 0.62103 0.0988 0.55164 0.0
H116 H 0.52245 0.96351 0.52214 0.0
H117 H 0.42254 0.09467 0.5934 0.0
H118 H 0.35614 0.05653 0.61396 0.0
H119 H 0.28056 0.95092 0.565 0.0
H120 H 0.34667 0.9897 0.54451 0.0
H121 H 0.39382 0.03291 0.51616 0.0
H122 H 0.35265 0.05244 0.49115 0.0
H123 H 0.3744 0.16773 0.53153 0.0
H124 H 0.41537 0.14779 0.55647 0.0
H125 H 0.50991 0.13266 0.54423 0.0
H126 H 0.56971 0.1159 0.53606 0.0
H127 H 0.47711 0.97098 0.54605 0.0
N128 N 0.42522 0.07424 0.5545 0.0
H129 H 0.417 0.98734 0.5529 0.0
C130 C 0.70282 0.01183 0.54996 0.0
C131 C 0.74299 0.05604 0.5539 0.0
C132 C 0.77251 0.06552 0.57102 0.0
C133 C 0.76295 0.03088 0.58438 0.0
C134 C 0.72282 0.98678 0.58047 0.0
C135 C 0.69294 0.97751 0.56346 0.0
C136 C 0.69625 0.00944 0.51351 0.0
C137 C 0.70813 0.9776 0.50597 0.0
C138 C 0.73764 0.98843 0.49031 0.0
C139 C 0.75575 0.03144 0.48168 0.0
C140 C 0.74167 0.06229 0.4885 0.0
C141 C 0.71258 0.05165 0.50436 0.0
C142 C 0.63773 0.0127 0.53323 0.0
C143 C 0.64755 0.0562 0.54191 0.0
C144 C 0.6123 0.06569 0.54411 0.0
C145 C 0.56644 0.03245 0.53732 0.0
C146 C 0.55706 0.98965 0.52797 0.0
C147 C 0.59232 0.97993 0.52605 0.0
C148 C 0.38971 0.04527 0.56748 0.0
C149 C 0.3921 0.06254 0.58738 0.0
C150 C 0.3541 0.04064 0.59908 0.0
C151 C 0.31285 0.00094 0.59102 0.0
C152 C 0.31156 0.98187 0.57152 0.0
C153 C 0.34951 0.00386 0.55983 0.0
C154 C 0.40773 0.08912 0.53818 0.0
C155 C 0.39062 0.06299 0.51942 0.0
C156 C 0.36714 0.07421 0.50515 0.0
C157 C 0.36001 0.11139 0.50948 0.0
C158 C 0.3789 0.13857 0.52789 0.0
C159 C 0.4026 0.12754 0.54205 0.0
C160 C 0.45886 0.06177 0.54936 0.0
C161 C 0.50245 0.0972 0.54447 0.0
C162 C 0.53676 0.08754 0.53997 0.0
C163 C 0.52865 0.04208 0.54059 0.0
C164 C 0.48462 0.00631 0.54514 0.0
C165 C 0.45 0.01588 0.5493 0.0
H166 H 0.67392 0.73462 0.87255 0.0
N167 N 0.66405 0.64833 0.86923 0.0
H168 H 0.72191 0.79745 0.89858 0.0
H169 H 0.70774 0.64322 0.90213 0.0
H170 H 0.75659 0.70628 0.92801 0.0
H171 H 0.74405 0.66425 0.85719 0.0
H172 H 0.78188 0.70223 0.82759 0.0
H173 H 0.62413 0.66953 0.83787 0.0
H174 H 0.65957 0.70324 0.80699 0.0
H175 H 0.59884 0.67088 0.87843 0.0
H176 H 0.61779 0.55671 0.86116 0.0
H177 H 0.51783 0.61668 0.88226 0.0
H178 H 0.53551 0.50192 0.86354 0.0
H179 H 0.24938 0.34973 0.89647 0.0
H180 H 0.2332 0.31168 0.92778 0.0
H181 H 0.3654 0.42004 0.95492 0.0
H182 H 0.38179 0.45929 0.92374 0.0
H183 H 0.33857 0.35342 0.87511 0.0
H184 H 0.30009 0.29931 0.84551 0.0
H185 H 0.22767 0.37048 0.83101 0.0
H186 H 0.26899 0.42653 0.86014 0.0
H187 H 0.36496 0.51119 0.8735 0.0
H188 H 0.44512 0.56513 0.86659 0.0
H189 H 0.48218 0.46776 0.88768 0.0
N190 N 0.32925 0.4271 0.88727 0.0
H191 H 0.40205 0.41354 0.89342 0.0
C192 C 0.68706 0.68407 0.88558 0.0
C193 C 0.69082 0.72778 0.88492 0.0
C194 C 0.71825 0.76363 0.89974 0.0
C195 C 0.74296 0.75661 0.91519 0.0
C196 C 0.738 0.71254 0.91617 0.0
C197 C 0.71006 0.67655 0.90152 0.0
C198 C 0.68136 0.66381 0.84979 0.0
C199 C 0.72531 0.67224 0.84612 0.0
C200 C 0.74671 0.69368 0.82895 0.0
C201 C 0.72407 0.70613 0.81458 0.0
C202 C 0.6788 0.69535 0.81781 0.0
C203 C 0.65798 0.67524 0.8354 0.0
C204 C 0.61488 0.61773 0.86996 0.0
C205 C 0.58565 0.63416 0.87529 0.0
C206 C 0.53881 0.6029 0.87723 0.0
C207 C 0.51985 0.55462 0.87343 0.0
C208 C 0.54891 0.53863 0.86716 0.0
C209 C 0.59589 0.56987 0.86558 0.0
C210 C 0.31905 0.40551 0.90655 0.0
C211 C 0.2757 0.36535 0.90885 0.0
C212 C 0.2659 0.3438 0.92699 0.0
C213 C 0.29857 0.3623 0.9436 0.0
C214 C 0.34019 0.4043 0.9421 0.0
C215 C 0.34978 0.42635 0.92401 0.0
C216 C 0.30706 0.39453 0.8697 0.0
C217 C 0.31523 0.35806 0.86535 0.0
C218 C 0.29248 0.32656 0.84853 0.0
C219 C 0.26047 0.33023 0.83584 0.0
C220 C 0.25256 0.36691 0.84022 0.0
C221 C 0.27584 0.3988 0.85692 0.0
C222 C 0.37743 0.45869 0.88421 0.0
C223 C 0.39056 0.50171 0.87661 0.0
C224 C 0.43647 0.53253 0.87276 0.0
C225 C 0.47048 0.52109 0.87664 0.0
C226 C 0.45706 0.47761 0.88411 0.0
C227 C 0.41106 0.44652 0.88757 0.0
H228 H 0.03299 0.13675 0.08117 0.0
H229 H 0.91214 0.00135 0.08837 0.0
H230 H 0.88119 0.0389 0.11023 0.0
H231 H 0.04482 0.18457 0.13166 0.0
H232 H 0.06249 0.24227 0.12449 0.0
H233 H 0.07452 0.20489 0.10895 0.0
H234 H 0.03215 0.21452 0.07796 0.0
H235 H 0.01991 0.2519 0.09342 0.0
H236 H 0.97348 0.20075 0.07947 0.0
H237 H 0.86477 0.0908 0.1323 0.0
H238 H 0.86422 0.15298 0.15323 0.0
H239 H 0.99439 0.25513 0.13061 0.0
C240 C -4e-05 0.11494 0.0873 0.0
C241 C 0.97501 0.06603 0.08305 0.0
C242 C 0.9319 0.03885 0.09138 0.0
C243 C 0.91398 0.05987 0.1038 0.0
C244 C 0.93946 0.10812 0.10767 0.0
C245 C 0.98147 0.13534 0.09965 0.0
C246 C 0.00227 0.18638 0.1064 0.0
C247 C 0.04877 0.20564 0.1186 0.0
C248 C 0.00722 0.21507 0.08823 0.0
C249 C 0.96564 0.18355 0.11969 0.0
C250 C 0.92965 0.13812 0.12015 0.0
C251 C 0.8925 0.12659 0.13187 0.0
C252 C 0.89235 0.16234 0.1436 0.0
C253 C 0.92905 0.20927 0.14352 0.0
C254 C 0.96588 0.21975 0.13117 0.0
H255 H 0.90034 0.99078 0.39911 0.0
H256 H 0.0051 0.13712 0.41133 0.0
H257 H 0.95457 0.14714 0.43404 0.0
H258 H 0.80047 0.00576 0.40021 0.0
H259 H 0.76612 0.95291 0.41252 0.0
H260 H 0.80927 0.95747 0.39612 0.0
H261 H 0.84735 0.93673 0.42511 0.0
H262 H 0.80437 0.93212 0.44158 0.0
H263 H 0.8647 0.97096 0.44902 0.0
H264 H 0.89553 0.14081 0.45696 0.0
H265 H 0.83185 0.1182 0.47909 0.0
H266 H 0.76337 0.9765 0.4515 0.0
C267 C 0.91246 0.02502 0.4064 0.0
C268 C 0.95675 0.06314 0.40339 0.0
C269 C 0.97139 0.10731 0.41337 0.0
C270 C 0.94287 0.11346 0.42627 0.0
C271 C 0.89966 0.07519 0.42903 0.0
C272 C 0.88436 0.03183 0.41939 0.0
C273 C 0.83707 0.99615 0.4257 0.0
C274 C 0.80111 0.97695 0.40755 0.0
C275 C 0.83849 0.95667 0.43596 0.0
C276 C 0.82871 0.02611 0.44067 0.0
C277 C 0.86513 0.07163 0.44222 0.0
C278 C 0.86643 0.10541 0.45568 0.0
C279 C 0.82977 0.09223 0.46809 0.0
C280 C 0.79209 0.0456 0.46699 0.0
C281 C 0.79156 0.01238 0.45283 0.0
H282 H 0.93955 0.82622 0.7478 0.0
H283 H 0.89268 0.91896 0.73029 0.0
H284 H 0.82032 0.87142 0.7467 0.0
H285 H 0.82277 0.71718 0.74144 0.0
H286 H 0.83536 0.69327 0.76281 0.0
H287 H 0.88108 0.73147 0.74764 0.0
H288 H 0.92643 0.78534 0.77974 0.0
H289 H 0.88084 0.74762 0.79496 0.0
H290 H 0.8993 0.80852 0.79533 0.0
H291 H 0.75993 0.82224 0.76975 0.0
H292 H 0.71308 0.77163 0.79547 0.0
H293 H 0.79376 0.70429 0.7947 0.0
C294 C 0.91363 0.83593 0.74706 0.0
C295 C 0.92177 0.87632 0.73781 0.0
C296 C 0.88709 0.888 0.73719 0.0
C297 C 0.84585 0.86122 0.74647 0.0
C298 C 0.83934 0.82224 0.75589 0.0
C299 C 0.87184 0.80903 0.7559 0.0
C300 C 0.85729 0.76691 0.76791 0.0
C301 C 0.8486 0.7247 0.75412 0.0
C302 C 0.89309 0.77778 0.78553 0.0
C303 C 0.81273 0.76001 0.77548 0.0
C304 C 0.8029 0.79214 0.76831 0.0
C305 C 0.76638 0.79589 0.77497 0.0
C306 C 0.73961 0.76651 0.78957 0.0
C307 C 0.74903 0.73322 0.79726 0.0
C308 C 0.78546 0.72937 0.78951 0.0
H309 H 0.0755 0.96438 0.0987 0.0
H310 H 0.06851 0.88052 0.04531 0.0
H311 H 0.05109 0.81543 0.06609 0.0
H312 H 0.13241 0.92278 0.13189 0.0
H313 H 0.1023 0.92342 0.15361 0.0
H314 H 0.11303 0.9636 0.13451 0.0
H315 H 0.02561 0.93349 0.13012 0.0
H316 H 0.01458 0.89297 0.1491 0.0
H317 H 0.98527 0.87216 0.12427 0.0
H318 H 0.03066 0.75803 0.0918 0.0
H319 H 0.01801 0.71437 0.12231 0.0
H320 H 0.04411 0.83584 0.15982 0.0
C321 C 0.07042 0.93234 0.09147 0.0
C322 C 0.07333 0.92753 0.07039 0.0
C323 C 0.06681 0.88518 0.06145 0.0
C324 C 0.05657 0.84781 0.07309 0.0
C325 C 0.05364 0.85343 0.09375 0.0
C326 C 0.06116 0.89477 0.103 0.0
C327 C 0.0579 0.89181 0.12568 0.0
C328 C 0.10417 0.92752 0.13709 0.0
C329 C 0.01849 0.89797 0.1327 0.0
C330 C 0.04708 0.84234 0.12759 0.0
C331 C 0.0441 0.82071 0.1089 0.0
C332 C 0.03323 0.77461 0.10657 0.0
C333 C 0.02589 0.75006 0.12388 0.0
C334 C 0.0302 0.77194 0.14321 0.0
C335 C 0.04081 0.81859 0.14511 0.0
H336 H 0.25314 0.123 0.40247 0.0
H337 H 0.14967 0.13472 0.43445 0.0
H338 H 0.18926 0.13775 0.46706 0.0
H339 H 0.26112 0.04672 0.43477 0.0
H340 H 0.32227 0.07138 0.43322 0.0
H341 H 0.28844 0.07464 0.41252 0.0
H342 H 0.34215 0.16443 0.41454 0.0
H343 H 0.3763 0.16146 0.43522 0.0
H344 H 0.35184 0.19787 0.43819 0.0
H345 H 0.23839 0.13627 0.49605 0.0
H346 H 0.29119 0.12686 0.51928 0.0
H347 H 0.36099 0.11366 0.46817 0.0
C348 C 0.2392 0.12702 0.41632 0.0
C349 C 0.19856 0.12908 0.41594 0.0
C350 C 0.18087 0.13328 0.4344 0.0
C351 C 0.20317 0.13515 0.45298 0.0
C352 C 0.24289 0.13248 0.45279 0.0
C353 C 0.26064 0.12834 0.43494 0.0
C354 C 0.30199 0.12307 0.43881 0.0
C355 C 0.29288 0.07616 0.42927 0.0
C356 C 0.34565 0.16416 0.43124 0.0
C357 C 0.30448 0.12437 0.46165 0.0
C358 C 0.27045 0.13039 0.46944 0.0
C359 C 0.26537 0.13189 0.49014 0.0
C360 C 0.29564 0.12673 0.50321 0.0
C361 C 0.33029 0.11976 0.49552 0.0
C362 C 0.33476 0.11882 0.47446 0.0
H363 H 0.13226 0.07777 0.77716 0.0
H364 H 0.1049 0.13835 0.72602 0.0
H365 H 0.1458 0.21556 0.7451 0.0
H366 H 0.11487 0.14523 0.81548 0.0
H367 H 0.15971 0.15043 0.83287 0.0
H368 H 0.12923 0.10039 0.81495 0.0
H369 H 0.20684 0.1175 0.80142 0.0
H370 H 0.23755 0.16767 0.81926 0.0
H371 H 0.24542 0.17395 0.79263 0.0
H372 H 0.19132 0.28658 0.76972 0.0
H373 H 0.23488 0.34498 0.79829 0.0
H374 H 0.2278 0.23615 0.83378 0.0
C375 C 0.135 0.10727 0.76991 0.0
C376 C 0.11563 0.10208 0.75005 0.0
C377 C 0.11952 0.14151 0.74122 0.0
C378 C 0.14274 0.1855 0.75192 0.0
C379 C 0.16148 0.18935 0.77147 0.0
C380 C 0.15754 0.15121 0.78042 0.0
C381 C 0.17968 0.16434 0.80177 0.0
C382 C 0.14372 0.13857 0.81717 0.0
C383 C 0.21975 0.15533 0.80388 0.0
C384 C 0.19697 0.21592 0.80342 0.0
C385 C 0.18637 0.22979 0.78577 0.0
C386 C 0.19947 0.27603 0.78367 0.0
C387 C 0.22396 0.30891 0.80006 0.0
C388 C 0.23482 0.29536 0.8184 0.0
C389 C 0.22084 0.24806 0.81995 0.0
H390 H 0.9258 0.98412 0.65659 0.0
H391 H 0.96677 0.11469 0.69069 0.0
H392 H 0.91521 0.12637 0.66762 0.0
H393 H 0.91742 0.0204 0.60725 0.0
H394 H 0.86757 0.965 0.59847 0.0
H395 H 0.90845 0.96768 0.61743 0.0
H396 H 0.84262 0.92458 0.64124 0.0
H397 H 0.80157 0.92198 0.6224 0.0
H398 H 0.80682 0.94803 0.64747 0.0
H399 H 0.85965 0.12401 0.64049 0.0
H400 H 0.80304 0.10687 0.61181 0.0
H401 H 0.79709 0.97682 0.59632 0.0
C402 C 0.92421 0.01535 0.65916 0.0
C403 C 0.95049 0.04864 0.67539 0.0
C404 C 0.94698 0.08875 0.67834 0.0
C405 C 0.91781 0.09569 0.66532 0.0
C406 C 0.89218 0.06203 0.64954 0.0
C407 C 0.895 0.02259 0.64646 0.0
C408 C 0.86324 0.99126 0.62864 0.0
C409 C 0.89083 0.98579 0.61196 0.0
C410 C 0.82638 0.94365 0.63535 0.0
C411 C 0.84218 0.0193 0.6221 0.0
C412 C 0.85945 0.06011 0.63428 0.0
C413 C 0.84579 0.0921 0.63089 0.0
C414 C 0.81379 0.08216 0.61457 0.0
C415 C 0.79559 0.04045 0.60197 0.0
C416 C 0.80992 0.00864 0.60591 0.0
H417 H 0.9876 0.91934 0.97397 0.0
H418 H 0.92985 0.99087 0.00621 0.0
H419 H 0.85593 0.94261 0.9856 0.0
H420 H 0.92862 0.90327 0.92453 0.0
H421 H 0.92043 0.84622 0.9193 0.0
H422 H 0.96958 0.88961 0.93522 0.0
H423 H 0.94589 0.83268 0.96365 0.0
H424 H 0.89648 0.7893 0.94792 0.0
H425 H 0.88895 0.80802 0.97263 0.0
H426 H 0.7872 0.88382 0.96188 0.0
H427 H 0.72952 0.81818 0.93823 0.0
H428 H 0.83282 0.78411 0.92345 0.0
C429 C 0.95979 0.92562 0.97648 0.0
C430 C 0.96462 0.95922 0.99155 0.0
C431 C 0.92696 0.9655 0.99463 0.0
C432 C 0.88491 0.9383 0.983 0.0
C433 C 0.88113 0.90486 0.9685 0.0
C434 C 0.91765 0.89848 0.96527 0.0
C435 C 0.90424 0.85838 0.94978 0.0
C436 C 0.93238 0.87541 0.9311 0.0
C437 C 0.90918 0.81983 0.95906 0.0
C438 C 0.85426 0.84273 0.9449 0.0
C439 C 0.84154 0.87021 0.95561 0.0
C440 C 0.79683 0.86212 0.95344 0.0
C441 C 0.76438 0.8249 0.94002 0.0
C442 C 0.77679 0.79601 0.92927 0.0
C443 C 0.82232 0.8053 0.93174 0.0
H444 H 0.11768 0.99164 0.31801 0.0
H445 H 0.99069 0.94796 0.34733 0.0
H446 H 0.95628 0.86929 0.32957 0.0
H447 H 0.06603 0.92994 0.27014 0.0
H448 H 0.11035 0.91639 0.26622 0.0
H449 H 0.12379 0.96837 0.28128 0.0
H450 H 0.15438 0.9421 0.31116 0.0
H451 H 0.14082 0.88991 0.29622 0.0
H452 H 0.1174 0.88587 0.32051 0.0
H453 H 0.93638 0.79468 0.30764 0.0
H454 H 0.93372 0.73292 0.28447 0.0
H455 H 0.07465 0.82891 0.27061 0.0
C456 C 0.08256 0.96575 0.32079 0.0
C457 C 0.05688 0.97605 0.33408 0.0
C458 C 0.01105 0.94088 0.3372 0.0
C459 C 0.99127 0.89613 0.32718 0.0
C460 C 0.01786 0.88731 0.31419 0.0
C461 C 0.06255 0.92137 0.31105 0.0
C462 C 0.08439 0.9039 0.29646 0.0
C463 C 0.09685 0.93127 0.2774 0.0
C464 C 0.12674 0.90554 0.30671 0.0
C465 C 0.04513 0.85446 0.2918 0.0
C466 C 0.00686 0.84522 0.30204 0.0
C467 C 0.96629 0.80163 0.29964 0.0
C468 C 0.96502 0.76683 0.28644 0.0
C469 C 0.00421 0.7759 0.27598 0.0
C470 C 0.0445 0.82041 0.27876 0.0
H471 H 0.17001 0.96291 0.6882 0.0
H472 H 0.0572 0.9438 0.64764 0.0
H473 H 0.09985 0.94348 0.6183 0.0
H474 H 0.25738 0.04331 0.6606 0.0
H475 H 0.29687 0.02344 0.66558 0.0
H476 H 0.25487 0.01493 0.68334 0.0
H477 H 0.22377 0.92623 0.68088 0.0
H478 H 0.26589 0.9345 0.66313 0.0
H479 H 0.20548 0.89405 0.65648 0.0
H480 H 0.15716 0.95242 0.59359 0.0
H481 H 0.22636 0.97385 0.57519 0.0
H482 H 0.3031 0.98901 0.63174 0.0
C483 C 0.15376 0.9574 0.67314 0.0
C484 C 0.11007 0.95282 0.67016 0.0
C485 C 0.09054 0.9471 0.65024 0.0
C486 C 0.11441 0.94667 0.6335 0.0
C487 C 0.15784 0.95221 0.63695 0.0
C488 C 0.17741 0.95755 0.65627 0.0
C489 C 0.22639 0.9676 0.65584 0.0
C490 C 0.26089 0.01514 0.66699 0.0
C491 C 0.23061 0.92824 0.6646 0.0
C492 C 0.23171 0.96832 0.63328 0.0
C493 C 0.19148 0.95851 0.62265 0.0
C494 C 0.18863 0.95942 0.60171 0.0
C495 C 0.22812 0.97139 0.59138 0.0
C496 C 0.27012 0.98272 0.60199 0.0
C497 C 0.27152 0.98043 0.6232 0.0
H498 H 0.13483 0.17189 0.01465 0.0
H499 H 0.24473 0.1435 0.02475 0.0
H500 H 0.29921 0.21719 0.01019 0.0
H501 H 0.16088 0.2046 0.96747 0.0
H502 H 0.14625 0.24923 0.96817 0.0
H503 H 0.11923 0.20214 0.98431 0.0
H504 H 0.14713 0.26097 0.01579 0.0
H505 H 0.174 0.3085 -0.00032 0.0
H506 H 0.20756 0.3043 0.02028 0.0
H507 H 0.33812 0.28624 0.98987 0.0
H508 H 0.35687 0.34139 0.96335 0.0
H509 H 0.22024 0.322 0.9643 0.0
C510 C 0.17089 0.18246 0.01466 0.0
C511 C 0.18609 0.15291 0.02125 0.0
C512 C 0.23285 0.16632 0.02009 0.0
C513 C 0.26398 0.20813 0.01191 0.0
C514 C 0.24758 0.23578 0.00477 0.0
C515 C 0.20204 0.22345 0.00603 0.0
C516 C 0.19111 0.25452 0.99416 0.0
C517 C 0.15209 0.2259 0.97755 0.0
C518 C 0.17926 0.28382 0.00833 0.0
C519 C 0.23688 0.28469 0.98522 0.0
C520 C 0.26943 0.27437 0.99204 0.0
C521 C 0.31322 0.29526 0.98473 0.0
C522 C 0.32361 0.32661 0.9697 0.0
C523 C 0.29004 0.33599 0.96188 0.0
C524 C 0.24659 0.31559 0.97013 0.0
H525 H 0.04443 0.18291 0.3398 0.0
H526 H 0.1839 0.24292 0.32084 0.0
H527 H 0.17072 0.29242 0.29862 0.0
H528 H 0.99241 0.17367 0.29263 0.0
H529 H 0.95121 0.18827 0.3012 0.0
H530 H 0.9733 0.16235 0.31786 0.0
H531 H 0.0007 0.23158 0.3447 0.0
H532 H 0.97832 0.25762 0.32817 0.0
H533 H 0.0379 0.29025 0.33779 0.0
H534 H 0.13984 0.3278 0.27553 0.0
H535 H 0.09385 0.34782 0.25341 0.0
H536 H 0.97468 0.26702 0.28787 0.0
C537 C 0.07261 0.2073 0.33137 0.0
C538 C 0.11528 0.20915 0.33212 0.0
C539 C 0.15095 0.24093 0.32055 0.0
C540 C 0.14386 0.26932 0.30792 0.0
C541 C 0.10101 0.26574 0.30712 0.0
C542 C 0.06607 0.23582 0.31863 0.0
C543 C 0.02212 0.23602 0.31375 0.0
C544 C 0.98244 0.18718 0.30589 0.0
C545 C 0.009 0.25501 0.3322 0.0
C546 C 0.03742 0.2695 0.29721 0.0
C547 C 0.08319 0.28662 0.2938 0.0
C548 C 0.10426 0.31551 0.27835 0.0
C549 C 0.07779 0.32693 0.26592 0.0
C550 C 0.03061 0.30956 0.26897 0.0
C551 C 0.01056 0.28095 0.28507 0.0
loop_
_geom_bond_atom_site_label_1
_geom_bond_atom_site_label_2
_geom_bond_distance
_geom_bond_site_symmetry_2
_ccdc_geom_bond_type
Zn0 O3 2.031 . S
Zn0 O5 2.049 1_565 S
Zn0 O10 2.067 . S
Zn1 O2 1.962 . S
Zn1 O4 1.986 . S
Zn1 O6 1.996 . S
Zn1 O9 1.943 . S
O2 Zn1 1.962 . S
O2 C7 1.254 1_545 S
O3 Zn0 2.031 . S
O3 C7 1.269 . S
O4 Zn1 1.986 . S
O4 C11 1.262 . S
O5 Zn0 2.049 1_545 S
O5 C13 1.260 . S
O6 Zn1 1.996 . S
O6 C13 1.257 . S
C7 O2 1.254 1_565 S
C7 O3 1.269 . S
C8 O9 1.249 1_665 S
C8 O10 1.270 1_655 S
O9 Zn1 1.943 . S
O9 C8 1.249 1_445 S
O10 Zn0 2.067 . S
O10 C8 1.270 1_455 S
C11 O4 1.262 . S
C11 O12 1.232 . S
O12 C11 1.232 . S
C13 O5 1.260 . S
C13 O6 1.257 . S
Zn14 O17 2.031 . S
Zn14 O19 2.049 . S
Zn14 O24 2.067 . S
Zn15 O16 1.962 . S
Zn15 O18 1.986 1_455 S
Zn15 O20 1.996 . S
Zn15 O23 1.943 1_455 S
O16 Zn15 1.962 . S
O16 C21 1.254 . S
O17 Zn14 2.031 . S
O17 C21 1.269 . S
O18 Zn15 1.986 1_655 S
O18 C25 1.262 . S
O19 Zn14 2.049 . S
O19 C27 1.260 . S
O20 Zn15 1.996 . S
O20 C27 1.257 . S
C21 O16 1.254 . S
C21 O17 1.269 . S
C22 O23 1.249 1_465 S
C22 O24 1.270 1_565 S
O23 Zn15 1.943 1_655 S
O23 C22 1.249 1_645 S
O24 Zn14 2.067 . S
O24 C22 1.270 1_545 S
C25 O18 1.262 . S
C25 O26 1.232 . S
O26 C25 1.232 . S
C27 O19 1.260 . S
C27 O20 1.257 . S
Zn28 O31 2.031 1_565 S
Zn28 O33 2.049 . S
Zn28 O38 2.067 1_565 S
Zn29 O30 1.962 1_545 S
Zn29 O32 1.986 1_445 S
Zn29 O34 1.996 1_445 S
Zn29 O37 1.943 . S
O30 Zn29 1.962 1_565 S
O30 C35 1.254 . S
O31 Zn28 2.031 1_545 S
O31 C35 1.269 1_545 S
O32 Zn29 1.986 1_665 S
O32 C39 1.262 1_565 S
O33 Zn28 2.049 . S
O33 C41 1.260 1_455 S
O34 Zn29 1.996 1_665 S
O34 C41 1.257 . S
C35 O30 1.254 . S
C35 O31 1.269 1_565 S
C36 O37 1.249 . S
C36 O38 1.270 . S
O37 Zn29 1.943 . S
O37 C36 1.249 . S
O38 Zn28 2.067 1_545 S
O38 C36 1.270 . S
C39 O32 1.262 1_545 S
C39 O40 1.232 . S
O40 C39 1.232 . S
C41 O33 1.260 1_655 S
C41 O34 1.257 . S
H42 C69 0.929 . S
N43 C68 1.433 . S
N43 C74 1.435 . S
N43 C80 1.423 . S
H44 C70 0.930 . S
H45 C73 0.931 . S
H46 C72 0.929 . S
H47 C75 0.930 . S
H48 C76 0.932 . S
H49 C79 0.929 . S
H50 C78 0.931 1_655 S
H51 C81 0.929 . S
H52 C85 0.932 . S
H53 C82 0.931 . S
H54 C84 0.929 . S
H55 C87 0.929 . S
H56 C88 0.930 . S
H57 C90 0.929 . S
H58 C91 0.931 . S
H59 C93 0.930 . S
H60 C94 0.932 . S
H61 C96 0.931 1_655 S
H62 C97 0.929 . S
H63 C99 0.929 . S
H64 C100 0.931 . S
H65 C102 0.929 . S
N66 C86 1.433 . S
N66 C92 1.435 . S
N66 C98 1.423 . S
H67 C103 0.932 . S
C68 N43 1.433 . S
C68 C69 1.363 1_455 S
C68 C73 1.370 . S
C69 H42 0.929 . S
C69 C68 1.363 1_655 S
C69 C70 1.385 . S
C70 H44 0.930 . S
C70 C69 1.385 . S
C70 C71 1.357 1_655 S
C71 C70 1.357 1_455 S
C71 C72 1.406 . S
C72 H46 0.929 . S
C72 C71 1.406 . S
C72 C73 1.391 . S
C73 H45 0.931 . S
C73 C68 1.370 . S
C73 C72 1.391 . S
C74 N43 1.435 . S
C74 C75 1.358 . S
C74 C79 1.371 1_455 S
C75 H47 0.930 . S
C75 C74 1.358 . S
C75 C76 1.405 . S
C76 H48 0.932 . S
C76 C75 1.405 . S
C76 C77 1.383 . S
C77 C76 1.383 . S
C77 C78 1.393 . S
C78 H50 0.931 1_455 S
C78 C77 1.393 . S
C78 C79 1.382 1_455 S
C79 H49 0.929 . S
C79 C74 1.371 1_655 S
C79 C78 1.382 1_655 S
C80 N43 1.423 . S
C80 C81 1.362 1_455 S
C80 C85 1.388 . S
C81 H51 0.929 . S
C81 C80 1.362 1_655 S
C81 C82 1.376 . S
C82 H53 0.931 . S
C82 C81 1.376 . S
C82 C83 1.401 . S
C83 C82 1.401 . S
C83 C84 1.346 1_655 S
C83 C101 1.472 . S
C84 H54 0.929 . S
C84 C83 1.346 1_455 S
C84 C85 1.443 . S
C85 H52 0.932 . S
C85 C80 1.388 . S
C85 C84 1.443 . S
C86 N66 1.433 . S
C86 C87 1.363 1_455 S
C86 C91 1.370 . S
C87 H55 0.929 . S
C87 C86 1.363 1_655 S
C87 C88 1.385 . S
C88 H56 0.930 . S
C88 C87 1.385 . S
C88 C89 1.357 1_655 S
C89 C88 1.357 1_455 S
C89 C90 1.406 . S
C90 H57 0.929 . S
C90 C89 1.406 . S
C90 C91 1.391 . S
C91 H58 0.931 . S
C91 C86 1.370 . S
C91 C90 1.391 . S
C92 N66 1.435 . S
C92 C93 1.358 . S
C92 C97 1.371 1_455 S
C93 H59 0.930 . S
C93 C92 1.358 . S
C93 C94 1.405 . S
C94 H60 0.932 . S
C94 C93 1.405 . S
C94 C95 1.383 . S
C95 C94 1.383 . S
C95 C96 1.393 . S
C96 H61 0.931 1_455 S
C96 C95 1.393 . S
C96 C97 1.382 1_455 S
C97 H62 0.929 . S
C97 C92 1.371 1_655 S
C97 C96 1.382 1_655 S
C98 N66 1.423 . S
C98 C99 1.362 1_455 S
C98 C103 1.388 . S
C99 H63 0.929 . S
C99 C98 1.362 1_655 S
C99 C100 1.376 . S
C100 H64 0.931 . S
C100 C99 1.376 . S
C100 C101 1.397 . S
C101 C83 1.472 . S
C101 C100 1.397 . S
C101 C102 1.343 1_655 S
C102 H65 0.929 . S
C102 C101 1.343 1_455 S
C102 C103 1.443 . S
C103 H67 0.932 . S
C103 C98 1.388 . S
C103 C102 1.443 . S
H104 C131 0.929 . S
N105 C130 1.433 . S
N105 C136 1.435 . S
N105 C142 1.423 . S
H106 C132 0.930 . S
H107 C135 0.931 . S
H108 C134 0.929 1_565 S
H109 C137 0.930 1_565 S
H110 C138 0.932 1_565 S
H111 C141 0.929 . S
H112 C140 0.931 . S
H113 C143 0.929 . S
H114 C147 0.932 . S
H115 C144 0.931 . S
H116 C146 0.929 . S
H117 C149 0.929 . S
H118 C150 0.930 . S
H119 C152 0.929 1_565 S
H120 C153 0.931 . S
H121 C155 0.930 1_565 S
H122 C156 0.932 1_565 S
H123 C158 0.931 . S
H124 C159 0.929 . S
H125 C161 0.929 . S
H126 C162 0.931 . S
H127 C164 0.929 . S
N128 C148 1.433 . S
N128 C154 1.435 . S
N128 C160 1.423 . S
H129 C165 0.932 . S
C130 N105 1.433 . S
C130 C131 1.363 . S
C130 C135 1.370 . S
C131 H104 0.929 . S
C131 C130 1.363 . S
C131 C132 1.385 . S
C132 H106 0.930 . S
C132 C131 1.385 . S
C132 C133 1.357 . S
C133 C132 1.357 . S
C133 C134 1.406 . S
C134 H108 0.929 1_545 S
C134 C133 1.406 . S
C134 C135 1.391 . S
C135 H107 0.931 . S
C135 C130 1.370 . S
C135 C134 1.391 . S
C136 N105 1.435 . S
C136 C137 1.358 . S
C136 C141 1.371 . S
C137 H109 0.930 1_545 S
C137 C136 1.358 . S
C137 C138 1.405 . S
C138 H110 0.932 1_545 S
C138 C137 1.405 . S
C138 C139 1.383 . S
C139 C138 1.383 . S
C139 C140 1.393 . S
C140 H112 0.931 . S
C140 C139 1.393 . S
C140 C141 1.382 . S
C141 H111 0.929 . S
C141 C136 1.371 . S
C141 C140 1.382 . S
C142 N105 1.423 . S
C142 C143 1.362 . S
C142 C147 1.388 . S
C143 H113 0.929 . S
C143 C142 1.362 . S
C143 C144 1.376 . S
C144 H115 0.931 . S
C144 C143 1.376 . S
C144 C145 1.396 . S
C145 C144 1.396 . S
C145 C146 1.348 . S
C145 C163 1.472 . S
C146 H116 0.929 . S
C146 C145 1.348 . S
C146 C147 1.443 . S
C147 H114 0.932 . S
C147 C142 1.388 . S
C147 C146 1.443 . S
C148 N128 1.433 . S
C148 C149 1.363 . S
C148 C153 1.370 . S
C149 H117 0.929 . S
C149 C148 1.363 . S
C149 C150 1.385 . S
C150 H118 0.930 . S
C150 C149 1.385 . S
C150 C151 1.357 . S
C151 C150 1.357 . S
C151 C152 1.406 . S
C152 H119 0.929 1_545 S
C152 C151 1.406 . S
C152 C153 1.391 . S
C153 H120 0.931 . S
C153 C148 1.370 . S
C153 C152 1.391 . S
C154 N128 1.435 . S
C154 C155 1.358 . S
C154 C159 1.371 . S
C155 H121 0.930 1_545 S
C155 C154 1.358 . S
C155 C156 1.405 . S
C156 H122 0.932 1_545 S
C156 C155 1.405 . S
C156 C157 1.383 . S
C157 C156 1.383 . S
C157 C158 1.393 . S
C158 H123 0.931 . S
C158 C157 1.393 . S
C158 C159 1.382 . S
C159 H124 0.929 . S
C159 C154 1.371 . S
C159 C158 1.382 . S
C160 N128 1.423 . S
C160 C161 1.362 . S
C160 C165 1.388 . S
C161 H125 0.929 . S
C161 C160 1.362 . S
C161 C162 1.376 . S
C162 H126 0.931 . S
C162 C161 1.376 . S
C162 C163 1.396 . S
C163 C145 1.472 . S
C163 C162 1.396 . S
C163 C164 1.348 . S
C164 H127 0.929 . S
C164 C163 1.348 . S
C164 C165 1.443 . S
C165 H129 0.932 . S
C165 C160 1.388 . S
C165 C164 1.443 . S
H166 C193 0.929 . S
N167 C192 1.433 . S
N167 C198 1.435 . S
N167 C204 1.423 . S
H168 C194 0.930 . S
H169 C197 0.931 . S
H170 C196 0.929 . S
H171 C199 0.930 . S
H172 C200 0.932 . S
H173 C203 0.929 . S
H174 C202 0.931 . S
H175 C205 0.929 . S
H176 C209 0.932 . S
H177 C206 0.931 . S
H178 C208 0.929 . S
H179 C211 0.929 . S
H180 C212 0.930 . S
H181 C214 0.929 . S
H182 C215 0.931 . S
H183 C217 0.930 . S
H184 C218 0.932 . S
H185 C220 0.931 . S
H186 C221 0.929 . S
H187 C223 0.929 . S
H188 C224 0.931 . S
H189 C226 0.929 . S
N190 C210 1.433 . S
N190 C216 1.435 . S
N190 C222 1.423 . S
H191 C227 0.932 . S
C192 N167 1.433 . S
C192 C193 1.363 . S
C192 C197 1.370 . S
C193 H166 0.929 . S
C193 C192 1.363 . S
C193 C194 1.385 . S
C194 H168 0.930 . S
C194 C193 1.385 . S
C194 C195 1.357 . S
C195 C194 1.357 . S
C195 C196 1.406 . S
C196 H170 0.929 . S
C196 C195 1.406 . S
C196 C197 1.391 . S
C197 H169 0.931 . S
C197 C192 1.370 . S
C197 C196 1.391 . S
C198 N167 1.435 . S
C198 C199 1.358 . S
C198 C203 1.371 . S
C199 H171 0.930 . S
C199 C198 1.358 . S
C199 C200 1.405 . S
C200 H172 0.932 . S
C200 C199 1.405 . S
C200 C201 1.383 . S
C201 C200 1.383 . S
C201 C202 1.393 . S
C202 H174 0.931 . S
C202 C201 1.393 . S
C202 C203 1.382 . S
C203 H173 0.929 . S
C203 C198 1.371 . S
C203 C202 1.382 . S
C204 N167 1.423 . S
C204 C205 1.362 . S
C204 C209 1.388 . S
C205 H175 0.929 . S
C205 C204 1.362 . S
C205 C206 1.376 . S
C206 H177 0.931 . S
C206 C205 1.376 . S
C206 C207 1.396 . S
C207 C206 1.396 . S
C207 C208 1.348 . S
C207 C225 1.472 . S
C208 H178 0.929 . S
C208 C207 1.348 . S
C208 C209 1.443 . S
C209 H176 0.932 . S
C209 C204 1.388 . S
C209 C208 1.443 . S
C210 N190 1.433 . S
C210 C211 1.363 . S
C210 C215 1.370 . S
C211 H179 0.929 . S
C211 C210 1.363 . S
C211 C212 1.385 . S
C212 H180 0.930 . S
C212 C211 1.385 . S
C212 C213 1.357 . S
C213 C212 1.357 . S
C213 C214 1.406 . S
C214 H181 0.929 . S
C214 C213 1.406 . S
C214 C215 1.391 . S
C215 H182 0.931 . S
C215 C210 1.370 . S
C215 C214 1.391 . S
C216 N190 1.435 . S
C216 C217 1.358 . S
C216 C221 1.371 . S
C217 H183 0.930 . S
C217 C216 1.358 . S
C217 C218 1.405 . S
C218 H184 0.932 . S
C218 C217 1.405 . S
C218 C219 1.383 . S
C219 C218 1.383 . S
C219 C220 1.393 . S
C220 H185 0.931 . S
C220 C219 1.393 . S
C220 C221 1.382 . S
C221 H186 0.929 . S
C221 C216 1.371 . S
C221 C220 1.382 . S
C222 N190 1.423 . S
C222 C223 1.362 . S
C222 C227 1.388 . S
C223 H187 0.929 . S
C223 C222 1.362 . S
C223 C224 1.376 . S
C224 H188 0.931 . S
C224 C223 1.376 . S
C224 C225 1.396 . S
C225 C207 1.472 . S
C225 C224 1.396 . S
C225 C226 1.348 . S
C226 H189 0.929 . S
C226 C225 1.348 . S
C226 C227 1.443 . S
C227 H191 0.932 . S
C227 C222 1.388 . S
C227 C226 1.443 . S
H228 C240 0.930 . S
H229 C242 0.930 1_655 S
H230 C243 0.930 . S
H231 C247 0.959 . S
H232 C247 0.959 . S
H233 C247 0.961 . S
H234 C248 0.960 . S
H235 C248 0.961 . S
H236 C248 0.959 1_655 S
H237 C251 0.929 1_655 S
H238 C252 0.931 . S
H239 C254 0.930 . S
C240 H228 0.930 . S
C240 C241 1.399 . S
C240 C245 1.399 . S
C241 C240 1.399 . S
C241 C242 1.376 . S
C242 H229 0.930 1_455 S
C242 C241 1.376 . S
C242 C243 1.388 1_455 S
C243 H230 0.930 . S
C243 C242 1.388 1_655 S
C243 C244 1.390 1_655 S
C244 C243 1.390 1_455 S
C244 C245 1.394 . S
C244 C250 1.465 . S
C245 C240 1.399 . S
C245 C244 1.394 . S
C245 C246 1.516 . S
C246 C245 1.516 . S
C246 C247 1.502 . S
C246 C248 1.561 . S
C246 C249 1.526 . S
C247 H231 0.959 . S
C247 H232 0.959 . S
C247 H233 0.961 . S
C247 C246 1.502 . S
C248 H234 0.960 . S
C248 H235 0.961 . S
C248 H236 0.959 1_455 S
C248 C246 1.561 . S
C249 C246 1.526 . S
C249 C250 1.396 . S
C249 C254 1.390 . S
C250 C244 1.465 . S
C250 C249 1.396 . S
C250 C251 1.399 . S
C251 H237 0.929 1_455 S
C251 C250 1.399 . S
C251 C252 1.385 . S
C252 H238 0.931 . S
C252 C251 1.385 . S
C252 C253 1.389 . S
C253 C252 1.389 . S
C253 C254 1.387 . S
C254 H239 0.930 . S
C254 C249 1.390 . S
C254 C253 1.387 . S
H255 C267 0.930 . S
H256 C269 0.930 . S
H257 C270 0.930 . S
H258 C274 0.959 . S
H259 C274 0.959 . S
H260 C274 0.961 . S
H261 C275 0.960 . S
H262 C275 0.961 . S
H263 C275 0.959 . S
H264 C278 0.929 . S
H265 C279 0.931 . S
H266 C281 0.930 1_565 S
C267 H255 0.930 . S
C267 C268 1.399 1_565 S
C267 C272 1.399 1_565 S
C268 C267 1.399 1_545 S
C268 C269 1.376 . S
C269 H256 0.930 . S
C269 C268 1.376 . S
C269 C270 1.388 . S
C270 H257 0.930 . S
C270 C269 1.388 . S
C270 C271 1.390 . S
C271 C270 1.390 . S
C271 C272 1.394 . S
C271 C277 1.465 . S
C272 C267 1.399 1_545 S
C272 C271 1.394 . S
C272 C273 1.516 1_545 S
C273 C272 1.516 1_565 S
C273 C274 1.502 . S
C273 C275 1.561 . S
C273 C276 1.526 1_565 S
C274 H258 0.959 . S
C274 H259 0.959 . S
C274 H260 0.961 . S
C274 C273 1.502 . S
C275 H261 0.960 . S
C275 H262 0.961 . S
C275 H263 0.959 . S
C275 C273 1.561 . S
C276 C273 1.526 1_545 S
C276 C277 1.396 . S
C276 C281 1.390 . S
C277 C271 1.465 . S
C277 C276 1.396 . S
C277 C278 1.399 . S
C278 H264 0.929 . S
C278 C277 1.399 . S
C278 C279 1.385 . S
C279 H265 0.931 . S
C279 C278 1.385 . S
C279 C280 1.389 . S
C280 C279 1.389 . S
C280 C281 1.387 . S
C281 H266 0.930 1_545 S
C281 C276 1.390 . S
C281 C280 1.387 . S
H282 C294 0.930 . S
H283 C296 0.930 . S
H284 C297 0.930 . S
H285 C301 0.959 . S
H286 C301 0.959 . S
H287 C301 0.961 . S
H288 C302 0.960 . S
H289 C302 0.961 . S
H290 C302 0.959 . S
H291 C305 0.929 . S
H292 C306 0.931 . S
H293 C308 0.930 . S
C294 H282 0.930 . S
C294 C295 1.399 . S
C294 C299 1.399 . S
C295 C294 1.399 . S
C295 C296 1.376 . S
C296 H283 0.930 . S
C296 C295 1.376 . S
C296 C297 1.388 . S
C297 H284 0.930 . S
C297 C296 1.388 . S
C297 C298 1.390 . S
C298 C297 1.390 . S
C298 C299 1.394 . S
C298 C304 1.465 . S
C299 C294 1.399 . S
C299 C298 1.394 . S
C299 C300 1.516 . S
C300 C299 1.516 . S
C300 C301 1.502 . S
C300 C302 1.561 . S
C300 C303 1.526 . S
C301 H285 0.959 . S
C301 H286 0.959 . S
C301 H287 0.961 . S
C301 C300 1.502 . S
C302 H288 0.960 . S
C302 H289 0.961 . S
C302 H290 0.959 . S
C302 C300 1.561 . S
C303 C300 1.526 . S
C303 C304 1.396 . S
C303 C308 1.390 . S
C304 C298 1.465 . S
C304 C303 1.396 . S
C304 C305 1.399 . S
C305 H291 0.929 . S
C305 C304 1.399 . S
C305 C306 1.385 . S
C306 H292 0.931 . S
C306 C305 1.385 . S
C306 C307 1.389 . S
C307 C306 1.389 . S
C307 C308 1.387 . S
C308 H293 0.930 . S
C308 C303 1.390 . S
C308 C307 1.387 . S
H309 C321 0.930 . S
H310 C323 0.930 . S
H311 C324 0.930 . S
H312 C328 0.959 . S
H313 C328 0.959 . S
H314 C328 0.961 . S
H315 C329 0.960 . S
H316 C329 0.961 . S
H317 C329 0.959 . S
H318 C332 0.929 1_655 S
H319 C333 0.931 1_655 S
H320 C335 0.930 . S
C321 H309 0.930 . S
C321 C322 1.399 . S
C321 C326 1.399 . S
C322 C321 1.399 . S
C322 C323 1.376 . S
C323 H310 0.930 . S
C323 C322 1.376 . S
C323 C324 1.388 . S
C324 H311 0.930 . S
C324 C323 1.388 . S
C324 C325 1.390 . S
C325 C324 1.390 . S
C325 C326 1.394 . S
C325 C331 1.465 . S
C326 C321 1.399 . S
C326 C325 1.394 . S
C326 C327 1.516 . S
C327 C326 1.516 . S
C327 C328 1.502 . S
C327 C329 1.561 . S
C327 C330 1.526 . S
C328 H312 0.959 . S
C328 H313 0.959 . S
C328 H314 0.961 . S
C328 C327 1.502 . S
C329 H315 0.960 . S
C329 H316 0.961 . S
C329 H317 0.959 . S
C329 C327 1.561 . S
C330 C327 1.526 . S
C330 C331 1.396 . S
C330 C335 1.390 . S
C331 C325 1.465 . S
C331 C330 1.396 . S
C331 C332 1.399 . S
C332 H318 0.929 1_455 S
C332 C331 1.399 . S
C332 C333 1.385 . S
C333 H319 0.931 1_455 S
C333 C332 1.385 . S
C333 C334 1.389 . S
C334 C333 1.389 . S
C334 C335 1.387 . S
C335 H320 0.930 . S
C335 C330 1.390 . S
C335 C334 1.387 . S
H336 C348 0.930 . S
H337 C350 0.930 . S
H338 C351 0.930 . S
H339 C355 0.959 . S
H340 C355 0.959 . S
H341 C355 0.961 . S
H342 C356 0.960 . S
H343 C356 0.961 . S
H344 C356 0.959 1_545 S
H345 C359 0.929 . S
H346 C360 0.931 . S
H347 C362 0.930 1_565 S
C348 H336 0.930 . S
C348 C349 1.399 . S
C348 C353 1.399 . S
C349 C348 1.399 . S
C349 C350 1.376 . S
C350 H337 0.930 . S
C350 C349 1.376 . S
C350 C351 1.388 . S
C351 H338 0.930 . S
C351 C350 1.388 . S
C351 C352 1.390 . S
C352 C351 1.390 . S
C352 C353 1.394 . S
C352 C358 1.465 . S
C353 C348 1.399 . S
C353 C352 1.394 . S
C353 C354 1.507 1_545 S
C354 C353 1.507 1_565 S
C354 C355 1.507 . S
C354 C356 1.566 . S
C354 C357 1.524 1_565 S
C355 H339 0.959 . S
C355 H340 0.959 . S
C355 H341 0.961 . S
C355 C354 1.507 . S
C356 H342 0.960 . S
C356 H343 0.961 . S
C356 H344 0.959 1_565 S
C356 C354 1.566 . S
C357 C354 1.524 1_545 S
C357 C358 1.396 . S
C357 C362 1.390 . S
C358 C352 1.465 . S
C358 C357 1.396 . S
C358 C359 1.399 . S
C359 H345 0.929 . S
C359 C358 1.399 . S
C359 C360 1.385 . S
C360 H346 0.931 . S
C360 C359 1.385 . S
C360 C361 1.389 . S
C361 C360 1.389 . S
C361 C362 1.387 . S
C362 H347 0.930 1_545 S
C362 C357 1.390 . S
C362 C361 1.387 . S
H363 C375 0.930 . S
H364 C377 0.930 . S
H365 C378 0.930 . S
H366 C382 0.959 . S
H367 C382 0.959 . S
H368 C382 0.961 . S
H369 C383 0.960 . S
H370 C383 0.961 . S
H371 C383 0.959 . S
H372 C386 0.929 . S
H373 C387 0.931 . S
H374 C389 0.930 . S
C375 H363 0.930 . S
C375 C376 1.399 . S
C375 C380 1.399 . S
C376 C375 1.399 . S
C376 C377 1.376 . S
C377 H364 0.930 . S
C377 C376 1.376 . S
C377 C378 1.388 . S
C378 H365 0.930 . S
C378 C377 1.388 . S
C378 C379 1.390 . S
C379 C378 1.390 . S
C379 C380 1.394 . S
C379 C385 1.465 . S
C380 C375 1.399 . S
C380 C379 1.394 . S
C380 C381 1.516 . S
C381 C380 1.516 . S
C381 C382 1.502 . S
C381 C383 1.561 . S
C381 C384 1.526 . S
C382 H366 0.959 . S
C382 H367 0.959 . S
C382 H368 0.961 . S
C382 C381 1.502 . S
C383 H369 0.960 . S
C383 H370 0.961 . S
C383 H371 0.959 . S
C383 C381 1.561 . S
C384 C381 1.526 . S
C384 C385 1.396 . S
C384 C389 1.390 . S
C385 C379 1.465 . S
C385 C384 1.396 . S
C385 C386 1.399 . S
C386 H372 0.929 . S
C386 C385 1.399 . S
C386 C387 1.385 . S
C387 H373 0.931 . S
C387 C386 1.385 . S
C387 C388 1.389 . S
C388 C387 1.389 . S
C388 C389 1.387 . S
C389 H374 0.930 . S
C389 C384 1.390 . S
C389 C388 1.387 . S
H390 C402 0.937 . S
H391 C404 0.930 . S
H392 C405 0.930 . S
H393 C409 0.959 . S
H394 C409 0.959 . S
H395 C409 0.961 . S
H396 C410 0.960 . S
H397 C410 0.961 . S
H398 C410 0.959 . S
H399 C413 0.929 . S
H400 C414 0.931 . S
H401 C416 0.930 . S
C402 H390 0.937 . S
C402 C403 1.396 1_565 S
C402 C407 1.394 1_565 S
C403 C402 1.396 1_545 S
C403 C404 1.376 . S
C404 H391 0.930 . S
C404 C403 1.376 . S
C404 C405 1.388 . S
C405 H392 0.930 . S
C405 C404 1.388 . S
C405 C406 1.390 . S
C406 C405 1.390 . S
C406 C407 1.394 . S
C406 C412 1.465 . S
C407 C402 1.394 1_545 S
C407 C406 1.394 . S
C407 C408 1.516 1_545 S
C408 C407 1.516 1_565 S
C408 C409 1.502 . S
C408 C410 1.561 . S
C408 C411 1.526 1_565 S
C409 H393 0.959 . S
C409 H394 0.959 . S
C409 H395 0.961 . S
C409 C408 1.502 . S
C410 H396 0.960 . S
C410 H397 0.961 . S
C410 H398 0.959 . S
C410 C408 1.561 . S
C411 C408 1.526 1_545 S
C411 C412 1.396 . S
C411 C416 1.390 1_545 S
C412 C406 1.465 . S
C412 C411 1.396 . S
C412 C413 1.399 . S
C413 H399 0.929 . S
C413 C412 1.399 . S
C413 C414 1.385 . S
C414 H400 0.931 . S
C414 C413 1.385 . S
C414 C415 1.389 . S
C415 C414 1.389 . S
C415 C416 1.387 1_545 S
C416 H401 0.930 . S
C416 C411 1.390 1_565 S
C416 C415 1.387 1_565 S
H417 C429 0.930 . S
H418 C431 0.930 . S
H419 C432 0.930 . S
H420 C436 0.959 . S
H421 C436 0.959 . S
H422 C436 0.961 . S
H423 C437 0.960 . S
H424 C437 0.961 . S
H425 C437 0.959 . S
H426 C440 0.929 1_554 S
H427 C441 0.931 . S
H428 C443 0.930 . S
C429 H417 0.930 . S
C429 C430 1.399 1_556 S
C429 C434 1.399 . S
C430 C429 1.399 1_554 S
C430 C431 1.376 . S
C431 H418 0.930 . S
C431 C430 1.376 . S
C431 C432 1.388 . S
C432 H419 0.930 . S
C432 C431 1.388 . S
C432 C433 1.390 1_554 S
C433 C432 1.390 1_556 S
C433 C434 1.394 . S
C433 C439 1.465 . S
C434 C429 1.399 . S
C434 C433 1.394 . S
C434 C435 1.516 . S
C435 C434 1.516 . S
C435 C436 1.502 . S
C435 C437 1.561 . S
C435 C438 1.526 . S
C436 H420 0.959 . S
C436 H421 0.959 . S
C436 H422 0.961 . S
C436 C435 1.502 . S
C437 H423 0.960 . S
C437 H424 0.961 . S
C437 H425 0.959 . S
C437 C435 1.561 . S
C438 C435 1.526 . S
C438 C439 1.396 . S
C438 C443 1.390 . S
C439 C433 1.465 . S
C439 C438 1.396 . S
C439 C440 1.399 . S
C440 H426 0.929 1_556 S
C440 C439 1.399 . S
C440 C441 1.385 . S
C441 H427 0.931 . S
C441 C440 1.385 . S
C441 C442 1.389 . S
C442 C441 1.389 . S
C442 C443 1.387 . S
C443 H428 0.930 . S
C443 C438 1.390 . S
C443 C442 1.387 . S
H444 C456 0.930 . S
H445 C458 0.930 . S
H446 C459 0.930 . S
H447 C463 0.959 1_655 S
H448 C463 0.959 . S
H449 C463 0.961 . S
H450 C464 0.960 . S
H451 C464 0.961 . S
H452 C464 0.959 . S
H453 C467 0.929 . S
H454 C468 0.931 1_655 S
H455 C470 0.930 . S
C456 H444 0.930 . S
C456 C457 1.399 . S
C456 C461 1.399 . S
C457 C456 1.399 . S
C457 C458 1.376 1_455 S
C458 H445 0.930 . S
C458 C457 1.376 1_655 S
C458 C459 1.388 . S
C459 H446 0.930 . S
C459 C458 1.388 . S
C459 C460 1.390 1_655 S
C460 C459 1.390 1_455 S
C460 C461 1.394 . S
C460 C466 1.465 . S
C461 C456 1.399 . S
C461 C460 1.394 . S
C461 C462 1.516 . S
C462 C461 1.516 . S
C462 C463 1.502 . S
C462 C464 1.561 . S
C462 C465 1.526 . S
C463 H447 0.959 1_455 S
C463 H448 0.959 . S
C463 H449 0.961 . S
C463 C462 1.502 . S
C464 H450 0.960 . S
C464 H451 0.961 . S
C464 H452 0.959 . S
C464 C462 1.561 . S
C465 C462 1.526 . S
C465 C466 1.396 . S
C465 C470 1.390 . S
C466 C460 1.465 . S
C466 C465 1.396 . S
C466 C467 1.399 1_455 S
C467 H453 0.929 . S
C467 C466 1.399 1_655 S
C467 C468 1.385 1_655 S
C468 H454 0.931 1_455 S
C468 C467 1.385 1_455 S
C468 C469 1.389 . S
C469 C468 1.389 . S
C469 C470 1.387 . S
C470 H455 0.930 . S
C470 C465 1.390 . S
C470 C469 1.387 . S
H471 C483 0.930 . S
H472 C485 0.930 . S
H473 C486 0.930 . S
H474 C490 0.959 . S
H475 C490 0.959 . S
H476 C490 0.961 . S
H477 C491 0.960 . S
H478 C491 0.961 . S
H479 C491 0.959 . S
H480 C494 0.929 . S
H481 C495 0.931 . S
H482 C497 0.930 . S
C483 H471 0.930 . S
C483 C484 1.399 1_545 S
C483 C488 1.399 . S
C484 C483 1.399 1_565 S
C484 C485 1.376 . S
C485 H472 0.930 . S
C485 C484 1.376 . S
C485 C486 1.388 . S
C486 H473 0.930 . S
C486 C485 1.388 . S
C486 C487 1.390 . S
C487 C486 1.390 . S
C487 C488 1.394 1_565 S
C487 C493 1.465 . S
C488 C483 1.399 . S
C488 C487 1.394 1_545 S
C488 C489 1.516 . S
C489 C488 1.516 . S
C489 C490 1.502 . S
C489 C491 1.561 . S
C489 C492 1.526 . S
C490 H474 0.959 . S
C490 H475 0.959 . S
C490 H476 0.961 . S
C490 C489 1.502 . S
C491 H477 0.960 . S
C491 H478 0.961 . S
C491 H479 0.959 . S
C491 C489 1.561 . S
C492 C489 1.526 . S
C492 C493 1.396 1_545 S
C492 C497 1.390 . S
C493 C487 1.465 . S
C493 C492 1.396 1_565 S
C493 C494 1.399 . S
C494 H480 0.929 . S
C494 C493 1.399 . S
C494 C495 1.385 . S
C495 H481 0.931 . S
C495 C494 1.385 . S
C495 C496 1.389 1_565 S
C496 C495 1.389 1_545 S
C496 C497 1.387 . S
C497 H482 0.930 . S
C497 C492 1.390 . S
C497 C496 1.387 . S
H498 C510 0.930 . S
H499 C512 0.930 . S
H500 C513 0.930 . S
H501 C517 0.959 . S
H502 C517 0.959 . S
H503 C517 0.961 . S
H504 C518 0.960 . S
H505 C518 0.961 . S
H506 C518 0.959 . S
H507 C521 0.929 . S
H508 C522 0.931 . S
H509 C524 0.930 . S
C510 H498 0.930 . S
C510 C511 1.399 1_556 S
C510 C515 1.399 . S
C511 C510 1.399 1_554 S
C511 C512 1.376 . S
C512 H499 0.930 . S
C512 C511 1.376 . S
C512 C513 1.388 . S
C513 H500 0.930 . S
C513 C512 1.388 . S
C513 C514 1.390 1_554 S
C514 C513 1.390 1_556 S
C514 C515 1.394 . S
C514 C520 1.465 . S
C515 C510 1.399 . S
C515 C514 1.394 . S
C515 C516 1.516 . S
C516 C515 1.516 . S
C516 C517 1.502 . S
C516 C518 1.561 . S
C516 C519 1.526 . S
C517 H501 0.959 . S
C517 H502 0.959 . S
C517 H503 0.961 . S
C517 C516 1.502 . S
C518 H504 0.960 . S
C518 H505 0.961 . S
C518 H506 0.959 . S
C518 C516 1.561 . S
C519 C516 1.526 . S
C519 C520 1.396 . S
C519 C524 1.390 . S
C520 C514 1.465 . S
C520 C519 1.396 . S
C520 C521 1.399 . S
C521 H507 0.929 . S
C521 C520 1.399 . S
C521 C522 1.385 . S
C522 H508 0.931 . S
C522 C521 1.385 . S
C522 C523 1.389 . S
C523 C522 1.389 . S
C523 C524 1.387 . S
C524 H509 0.930 . S
C524 C519 1.390 . S
C524 C523 1.387 . S
H525 C537 0.930 1_655 S
H526 C539 0.930 . S
H527 C540 0.930 . S
H528 C544 0.959 . S
H529 C544 0.959 . S
H530 C544 0.961 . S
H531 C545 0.960 . S
H532 C545 0.961 . S
H533 C545 0.959 . S
H534 C548 0.929 . S
H535 C549 0.931 . S
H536 C551 0.930 1_655 S
C537 H525 0.930 1_455 S
C537 C538 1.399 . S
C537 C542 1.399 . S
C538 C537 1.399 . S
C538 C539 1.376 . S
C539 H526 0.930 . S
C539 C538 1.376 . S
C539 C540 1.388 . S
C540 H527 0.930 . S
C540 C539 1.388 . S
C540 C541 1.390 . S
C541 C540 1.390 . S
C541 C542 1.394 . S
C541 C547 1.465 . S
C542 C537 1.399 . S
C542 C541 1.394 . S
C542 C543 1.535 . S
C543 C542 1.535 . S
C543 C544 1.482 1_455 S
C543 C545 1.563 . S
C543 C546 1.529 . S
C544 H528 0.959 . S
C544 H529 0.959 . S
C544 H530 0.961 . S
C544 C543 1.482 1_655 S
C545 H531 0.960 . S
C545 H532 0.961 . S
C545 H533 0.959 . S
C545 C543 1.563 . S
C546 C543 1.529 . S
C546 C547 1.396 . S
C546 C551 1.390 . S
C547 C541 1.465 . S
C547 C546 1.396 . S
C547 C548 1.399 . S
C548 H534 0.929 . S
C548 C547 1.399 . S
C548 C549 1.385 . S
C549 H535 0.931 . S
C549 C548 1.385 . S
C549 C550 1.389 . S
C550 C549 1.389 . S
C550 C551 1.387 . S
C551 H536 0.930 1_455 S
C551 C546 1.390 . S
C551 C550 1.387 . S
C253 C95 1.179 . S
C241 C11 1.198 . S
C268 C25 1.227 . S
C280 C139 1.256 . S
C295 C41 1.242 . S
C307 C201 1.314 . S
C322 C7 1.216 . S
C334 C77 1.233 . S
C361 C157 1.265 . S
C349 C21 1.293 . S
C376 C36 1.296 . S
C388 C219 1.367 . S
C415 C133 1.501 . S
C403 C39 1.616 . S
C430 C8 1.605 . S
C442 C195 1.596 . S
C469 C71 1.636 . S
C457 C22 1.676 . S
C496 C151 1.523 . S
C484 C35 1.602 . S
C523 C213 1.584 . S
C511 C13 1.580 . S
C538 C27 1.627 . S
C550 C89 1.564 . S
