# Generated by pormake.
# Topology anh, (6,3)-cn, num edge types: 1
# Building blocks:
#     Node 0, Type 0, BuildingBlock: PAMTUU_clean_sbu_0, # of connection points: 6
#     Node 1, Type 0, BuildingBlock: PAMTUU_clean_sbu_0, # of connection points: 6
#     Node 2, Type 0, BuildingBlock: PAMTUU_clean_sbu_0, # of connection points: 6
#     Node 3, Type 1, BuildingBlock: CUQRIR_clean_linker_1, # of connection points: 3
#     Node 4, Type 1, BuildingBlock: CUQRIR_clean_linker_1, # of connection points: 3
#     Node 5, Type 1, BuildingBlock: CUQRIR_clean_linker_1, # of connection points: 3
#     Node 6, Type 1, BuildingBlock: CUQRIR_clean_linker_1, # of connection points: 3
#     Node 7, Type 1, BuildingBlock: CUQRIR_clean_linker_1, # of connection points: 3
#     Node 8, Type 1, BuildingBlock: CUQRIR_clean_linker_1, # of connection points: 3
#     Edge 9, Type (0, 1), BuildingBlock: XIVTED_clean_linker_0, # of connection points: 2
#     Edge 10, Type (0, 1), BuildingBlock: XIVTED_clean_linker_0, # of connection points: 2
#     Edge 11, Type (0, 1), BuildingBlock: XIVTED_clean_linker_0, # of connection points: 2
#     Edge 12, Type (0, 1), BuildingBlock: XIVTED_clean_linker_0, # of connection points: 2
#     Edge 13, Type (0, 1), BuildingBlock: XIVTED_clean_linker_0, # of connection points: 2
#     Edge 14, Type (0, 1), BuildingBlock: XIVTED_clean_linker_0, # of connection points: 2
#     Edge 15, Type (0, 1), BuildingBlock: XIVTED_clean_linker_0, # of connection points: 2
#     Edge 16, Type (0, 1), BuildingBlock: XIVTED_clean_linker_0, # of connection points: 2
#     Edge 17, Type (0, 1), BuildingBlock: XIVTED_clean_linker_0, # of connection points: 2
#     Edge 18, Type (0, 1), BuildingBlock: XIVTED_clean_linker_0, # of connection points: 2
#     Edge 19, Type (0, 1), BuildingBlock: XIVTED_clean_linker_0, # of connection points: 2
#     Edge 20, Type (0, 1), BuildingBlock: XIVTED_clean_linker_0, # of connection points: 2
#     Edge 21, Type (0, 1), BuildingBlock: XIVTED_clean_linker_0, # of connection points: 2
#     Edge 22, Type (0, 1), BuildingBlock: XIVTED_clean_linker_0, # of connection points: 2
#     Edge 23, Type (0, 1), BuildingBlock: XIVTED_clean_linker_0, # of connection points: 2
#     Edge 24, Type (0, 1), BuildingBlock: XIVTED_clean_linker_0, # of connection points: 2
#     Edge 25, Type (0, 1), BuildingBlock: XIVTED_clean_linker_0, # of connection points: 2
#     Edge 26, Type (0, 1), BuildingBlock: XIVTED_clean_linker_0, # of connection points: 2
# Relax obj value: 0.317
# Max RMSD: 0.219
# Mean RMSD: 0.167
data_MOF--net-anh--node1-PAMTUU_clean_sbu_0--node2-CUQRIR_clean_linker_1--edge1-XIVTED_clean_linker_0
_symmetry_space_group_name_H-M    P1
_symmetry_Int_Tables_number       1
_symmetry_cell_setting            triclinic
loop_
_symmetry_equiv_pos_as_xyz
'x, y, z'
_cell_length_a     27.895943
_cell_length_b     27.696292
_cell_length_c     47.221116
_cell_angle_alpha  89.863042
_cell_angle_beta   88.92438
_cell_angle_gamma 119.72371
loop_
_atom_site_label
_atom_site_type_symbol
_atom_site_fract_x
_atom_site_fract_y
_atom_site_fract_z
_atom_type_partial_charge
Tb0 Tb 0.21369 0.70122 0.1469 0.0
Tb1 Tb 0.26577 0.63614 0.17758 0.0
C2 C 0.26908 0.65039 0.11311 0.0
C3 C 1.1132 0.71781 0.10696 0.0
C4 C 1.01087 0.65054 0.08206 0.0
C5 C 1.05163 0.69815 0.06768 0.0
C6 C 1.10277 0.73143 0.08002 0.0
C7 C 1.07145 0.67202 0.12193 0.0
C8 C 1.02069 0.63869 0.10959 0.0
C9 C 0.16996 0.74284 0.11654 0.0
O10 O 0.14598 0.61199 0.14749 0.0
O11 O 0.17762 0.57874 0.18252 0.0
O12 O 0.25388 0.6845 0.21067 0.0
O13 O 0.18361 0.69099 0.19009 0.0
O14 O 0.32226 0.60716 0.17564 0.0
O15 O 0.26359 0.58451 0.21078 0.0
O16 O 0.33676 0.72109 0.17236 0.0
O17 O 0.29217 0.77029 0.16248 0.0
O18 O 0.27616 0.69857 0.12041 0.0
O19 O 0.25067 0.61151 0.13277 0.0
C20 C 1.13742 0.57256 0.16628 0.0
O21 O 0.17778 0.75227 0.14363 0.0
O22 O 0.19565 0.71789 0.10655 0.0
C23 C 0.21176 0.69339 0.21243 0.0
C24 C 0.34545 0.58204 0.21904 0.0
C25 C 0.43341 0.57635 0.2437 0.0
C26 C 0.38082 0.52853 0.24202 0.0
C27 C 0.33743 0.53151 0.22977 0.0
C28 C 0.39493 0.63112 0.22407 0.0
C29 C 0.43845 0.62837 0.23682 0.0
C30 C 0.3043 0.58015 0.19971 0.0
C31 C 0.3376 0.76901 0.16898 0.0
H32 H 1.04481 0.70823 0.04649 0.0
H33 H 1.13505 0.76599 0.06798 0.0
H34 H 1.07899 0.66034 0.14258 0.0
H35 H 0.98941 0.603 0.12141 0.0
H36 H 0.37406 0.48749 0.24708 0.0
H37 H 0.29895 0.49334 0.22644 0.0
H38 H 0.40118 0.67081 0.21646 0.0
H39 H 0.47738 0.66649 0.23892 0.0
Tb40 Tb 0.67348 0.09683 0.48933 0.0
Tb41 Tb 0.80276 0.15662 0.50305 0.0
C42 C 0.76269 0.15125 0.44079 0.0
C43 C 0.51727 1.01848 0.48842 0.0
C44 C 0.40892 0.96362 0.51084 0.0
C45 C 0.41952 0.98189 0.48243 0.0
C46 C 0.47316 1.00901 0.47137 0.0
C47 C 0.50719 0.99899 0.51662 0.0
C48 C 0.45301 0.9711 0.52772 0.0
C49 C 0.573 1.05565 0.47727 0.0
O50 O 0.69434 1.02876 0.48839 0.0
O51 O 0.77244 1.06979 0.51477 0.0
O52 O 0.76101 0.14516 0.54452 0.0
O53 O 0.67359 1.07611 0.53322 0.0
O54 O 0.87647 0.15387 0.49928 0.0
O55 O 0.875 0.22294 0.51939 0.0
O56 O 0.78671 0.22545 0.49441 0.0
O57 O 0.69515 0.17892 0.50652 0.0
O58 O 0.71564 0.14335 0.4512 0.0
O59 O 0.79698 0.14492 0.45695 0.0
C60 C 0.73203 1.02507 0.50351 0.0
O61 O 0.60097 0.10098 0.49143 0.0
O62 O 0.60328 1.03429 0.46905 0.0
C63 C 0.71069 0.10573 0.5519 0.0
C64 C 0.94675 0.24398 0.48657 0.0
C65 C 0.99986 0.32993 0.44615 0.0
C66 C 1.01299 0.33996 0.47496 0.0
C67 C 0.98639 0.29722 0.49507 0.0
C68 C 0.93867 0.23261 0.45746 0.0
C69 C 0.96494 0.27531 0.43742 0.0
C70 C 0.90581 0.20517 0.50743 0.0
C71 C 0.74128 0.22613 0.50181 0.0
H72 H 0.38617 0.97525 0.46869 0.0
H73 H 0.48037 1.02423 0.44966 0.0
H74 H 0.54117 1.00673 0.53014 0.0
H75 H 0.44571 0.95677 0.54957 0.0
H76 H 1.03952 0.38182 0.48233 0.0
H77 H 0.99306 0.30693 0.51736 0.0
H78 H 0.90858 0.1918 0.45018 0.0
H79 H 0.95458 0.26644 0.41532 0.0
Tb80 Tb 0.66833 0.56317 0.8275 0.0
Tb81 Tb 0.7305 0.69321 0.84246 0.0
C82 C 0.70666 0.65156 0.78007 0.0
C83 C 0.56005 0.42001 0.80925 0.0
C84 C 0.45293 0.33834 0.79414 0.0
C85 C 0.47959 0.32928 0.81687 0.0
C86 C 0.53249 0.3696 0.82427 0.0
C87 C 0.53314 0.43055 0.78721 0.0
C88 C 0.48 0.38976 0.77957 0.0
C89 C 0.61617 0.46067 0.81773 0.0
O90 O 0.75739 0.58915 0.82333 0.0
O91 O 0.79392 0.66921 0.8494 0.0
O92 O 0.68554 0.64714 0.88072 0.0
O93 O 0.69553 0.57295 0.87055 0.0
O94 O 0.76833 0.77523 0.82714 0.0
O95 O 0.7651 0.75833 0.87183 0.0
O96 O 0.64436 0.67356 0.83583 0.0
O97 O 0.60004 0.57829 0.83991 0.0
O98 O 0.66409 0.60617 0.79001 0.0
O99 O 0.74523 0.68472 0.79736 0.0
C100 C 0.79913 0.62907 0.83717 0.0
O101 O 0.64865 0.49804 0.79903 0.0
O102 O 0.61928 0.48172 0.8427 0.0
C103 C 0.68378 0.601 0.88879 0.0
C104 C 0.75021 0.83102 0.85667 0.0
C105 C 0.6931 0.8893 0.84678 0.0
C106 C 0.75123 0.91652 0.84427 0.0
C107 C 0.77944 0.88728 0.84875 0.0
C108 C 0.69348 0.80579 0.86267 0.0
C109 C 0.66508 0.83439 0.85758 0.0
C110 C 0.77537 0.79596 0.85241 0.0
C111 C 0.59841 0.6252 0.83934 0.0
H112 H 0.46087 0.28977 0.82813 0.0
H113 H 0.55242 0.3609 0.84146 0.0
H114 H 0.55342 0.46974 0.77564 0.0
H115 H 0.46062 0.39786 0.76193 0.0
H116 H 0.7748 0.95941 0.83719 0.0
H117 H 0.82342 0.90751 0.84414 0.0
H118 H 0.67035 0.76242 0.86904 0.0
H119 H 0.62061 0.81149 0.85995 0.0
C120 C 0.73773 0.17379 0.19098 0.0
N121 N 0.77829 0.20792 0.20922 0.0
N122 N 0.69855 0.12587 0.20423 0.0
C123 C 0.73813 0.18498 0.15985 0.0
C124 C 0.71661 0.1322 0.23109 0.0
N125 N 0.76448 0.18085 0.23415 0.0
C126 C 0.68603 1.09127 0.2549 0.0
H127 H 0.7193 0.21161 0.15654 0.0
H128 H 0.71365 0.14567 0.14825 0.0
H129 H 0.78103 0.20711 0.15111 0.0
H130 H 0.64119 1.0666 0.25083 0.0
H131 H 0.69167 0.11264 0.27542 0.0
H132 H 0.70262 1.06237 0.2568 0.0
C133 C 0.7279 0.62324 0.52783 0.0
N134 N 0.72883 0.66152 0.54658 0.0
N135 N 0.73589 0.58394 0.54113 0.0
C136 C 0.72242 0.62572 0.49639 0.0
C137 C 0.74152 0.59958 0.56856 0.0
N138 N 0.73773 0.64626 0.57191 0.0
C139 C 0.74828 0.56756 0.59251 0.0
H140 H 0.67799 0.6061 0.4914 0.0
H141 H 0.7401 0.60277 0.48515 0.0
H142 H 0.74335 0.6695 0.48871 0.0
H143 H 0.79267 0.58757 0.59768 0.0
H144 H 0.73377 0.52373 0.58676 0.0
H145 H 0.72521 0.56817 0.61178 0.0
C146 C 0.19583 0.61814 0.86283 0.0
N147 N 0.23407 0.61927 0.88113 0.0
N148 N 0.15434 0.62194 0.87691 0.0
C149 C 0.20069 0.61668 0.83121 0.0
C150 C 0.16886 0.62494 0.90439 0.0
N151 N 0.21663 0.62368 0.90697 0.0
C152 C 1.1352 0.62739 0.92909 0.0
H153 H 0.24461 0.64092 0.82413 0.0
H154 H 0.17646 0.63329 0.82077 0.0
H155 H 0.18448 0.57294 0.82468 0.0
H156 H 1.13939 0.60611 0.94803 0.0
H157 H 1.09088 0.60793 0.92386 0.0
H158 H 0.15046 0.67157 0.93443 0.0
C159 C 1.03705 0.69579 0.44172 0.0
N160 N 1.04189 0.68564 0.41411 0.0
N161 N 1.06925 0.75048 0.44759 0.0
C162 C 1.00762 0.65083 0.4639 0.0
C163 C 1.09145 0.77367 0.42186 0.0
N164 N 1.07518 0.73438 0.4017 0.0
C165 C 1.13514 0.83353 0.41728 0.0
H166 H 1.00433 0.66848 0.48444 0.0
H167 H 1.03018 0.62763 0.46682 0.0
H168 H 0.96562 0.62078 0.45668 0.0
H169 H 0.17458 0.84036 0.42612 0.0
H170 H 1.12307 0.86112 0.4285 0.0
H171 H 0.14157 0.84518 0.39447 0.0
C172 C 0.4054 0.98862 0.75018 0.0
N173 N 0.45174 0.99059 0.73945 0.0
N174 N 0.39137 1.02094 0.73462 0.0
C175 C 0.37587 0.95801 0.77705 0.0
C176 C 0.43038 1.04127 0.71347 0.0
N177 N 0.46716 1.02336 0.71663 0.0
C178 C 0.43427 1.08142 0.69069 0.0
H179 H 0.36391 0.91357 0.77536 0.0
H180 H 0.33775 0.96021 0.78121 0.0
H181 H 0.40399 0.97546 0.79517 0.0
H182 H 0.44096 0.12059 0.70053 0.0
H183 H 0.39509 1.06325 0.67909 0.0
H184 H 0.46768 1.09104 0.67488 0.0
C185 C 0.62125 0.42125 0.11624 0.0
N186 N 0.62453 0.4268 0.0877 0.0
N187 N 0.57707 0.42356 0.12691 0.0
C188 C 0.66636 0.42315 0.13409 0.0
C189 C 0.55233 0.42878 0.10355 0.0
N190 N 0.58112 0.43076 0.07977 0.0
C191 C 0.50434 0.43922 0.10438 0.0
H192 H 0.67855 0.39312 0.12603 0.0
H193 H 0.65278 0.41288 0.15661 0.0
H194 H 0.70321 0.46533 0.13263 0.0
H195 H 0.51934 0.48323 0.11001 0.0
H196 H 0.47368 0.41253 0.12087 0.0
H197 H 0.48402 0.43087 0.08359 0.0
H198 H 0.53575 0.64211 0.21832 0.0
H199 H 0.65423 0.52029 0.14834 0.0
H200 H 0.4466 0.49395 0.27045 0.0
H201 H 0.49547 0.37718 0.16693 0.0
H202 H 0.64533 0.56449 0.19135 0.0
H203 H 0.59265 0.60668 0.19992 0.0
C204 C 0.5291 0.60303 0.22698 0.0
C205 C 0.4831 0.56929 0.24459 0.0
C206 C 0.61272 0.52315 0.18629 0.0
C207 C 0.54838 0.52754 0.22265 0.0
C208 C 0.61796 0.49784 0.16193 0.0
C209 C 0.5751 0.44547 0.15417 0.0
C210 C 0.56354 0.49645 0.2025 0.0
C211 C 0.52881 0.41797 0.17219 0.0
C212 C 0.56205 0.58245 0.21615 0.0
C213 C 0.47879 0.51969 0.25522 0.0
N214 N 0.52377 0.44424 0.19539 0.0
N215 N 0.50896 0.49879 0.24294 0.0
H216 H 0.92932 0.34172 0.41152 0.0
H217 H 1.12714 0.66784 0.40748 0.0
H218 H 1.09855 0.42641 0.43813 0.0
H219 H 0.95033 0.58795 0.40244 0.0
H220 H 1.12244 0.57813 0.40155 0.0
H221 H 0.94295 0.42882 0.39115 0.0
C222 C 0.96999 0.37822 0.41218 0.0
C223 C 1.01276 0.37722 0.42694 0.0
C224 C 1.08468 0.58017 0.40099 0.0
C225 C 1.02806 0.47688 0.40417 0.0
C226 C 1.08746 0.63133 0.40408 0.0
C227 C 1.03905 0.63478 0.40516 0.0
C228 C 1.03293 0.53192 0.39965 0.0
C229 C 0.98836 0.58643 0.40163 0.0
C230 C 0.97749 0.428 0.40077 0.0
C231 C 1.06431 0.42577 0.42736 0.0
N232 N 0.98644 0.53655 0.39946 0.0
N233 N 1.07029 0.47395 0.41656 0.0
H234 H 0.72324 0.96369 0.80198 0.0
H235 H 0.4285 0.88935 0.75988 0.0
H236 H 0.58897 0.87132 0.86231 0.0
H237 H 0.55612 1.06128 0.75452 0.0
H238 H 0.48845 0.86991 0.78985 0.0
H239 H 0.66512 0.99169 0.77722 0.0
C240 C 0.6822 0.94999 0.81055 0.0
C241 C 0.66128 0.91426 0.83439 0.0
C242 C 0.50304 0.91181 0.78201 0.0
C243 C 0.59381 0.94413 0.8048 0.0
C244 C 0.46904 0.92285 0.76505 0.0
C245 C 0.48755 0.97693 0.75488 0.0
C246 C 0.55624 0.9549 0.78798 0.0
C247 C 0.54094 1.01885 0.76152 0.0
C248 C 0.64889 0.96561 0.79604 0.0
C249 C 0.60678 0.89723 0.8436 0.0
N250 N 0.57381 1.00688 0.77744 0.0
N251 N 0.57453 0.91134 0.82844 0.0
H252 H 0.9573 0.53718 0.08043 0.0
H253 H 0.68 0.53223 0.06899 0.0
H254 H 0.94368 0.6789 0.05379 0.0
H255 H 0.68847 0.38148 0.07374 0.0
H256 H 0.77516 0.58242 0.0523 0.0
H257 H 0.86121 0.47607 0.06799 0.0
C258 C 0.9342 0.55526 0.07148 0.0
C259 C 0.95762 0.61315 0.06894 0.0
C260 C 0.75621 0.53806 0.05612 0.0
C261 C 0.84804 0.54378 0.05474 0.0
C262 C 0.70148 0.50926 0.06531 0.0
C263 C 0.67648 0.45267 0.07236 0.0
C264 C 0.7871 0.51067 0.05536 0.0
C265 C 0.70681 0.42527 0.06857 0.0
C266 C 0.87953 0.52037 0.06417 0.0
C267 C 0.92678 0.63451 0.05649 0.0
N268 N 0.76123 0.45489 0.06097 0.0
N269 N 0.87307 0.59985 0.05043 0.0
H270 H 0.35392 0.86453 0.54009 0.0
H271 H 1.12123 0.70714 0.47665 0.0
H272 H 0.33237 0.99689 0.50607 0.0
H273 H 1.08631 0.84209 0.47669 0.0
H274 H 0.19154 0.75458 0.51102 0.0
H275 H 0.25361 0.80515 0.54306 0.0
C276 C 0.32798 0.88145 0.53386 0.0
C277 C 0.35113 0.93462 0.52156 0.0
C278 C 0.16738 0.77342 0.5048 0.0
C279 C 0.237 0.86629 0.52316 0.0
C280 C 1.12665 0.74582 0.48503 0.0
C281 C 1.09822 0.77099 0.47364 0.0
C282 C 0.18128 0.82768 0.51259 0.0
C283 C 1.1082 0.82194 0.48463 0.0
C284 C 0.27066 0.84728 0.5351 0.0
C285 C 0.31585 0.95511 0.51452 0.0
N286 N 0.15017 0.84951 0.50289 0.0
N287 N 0.26048 0.9204 0.51464 0.0
H288 H 0.36328 0.25918 0.82465 0.0
H289 H 0.31891 1.04181 0.70609 0.0
H290 H 0.42622 0.30726 0.73899 0.0
H291 H 0.3972 1.06359 0.78658 0.0
H292 H 0.29655 0.11471 0.71903 0.0
H293 H 0.30767 0.16313 0.80928 0.0
C294 C 0.36353 0.25007 0.80237 0.0
C295 C 0.40183 0.29052 0.78337 0.0
C296 C 0.31618 0.10115 0.73423 0.0
C297 C 0.33756 0.1816 0.76576 0.0
C298 C 0.3298 1.06047 0.72675 0.0
C299 C 0.36157 1.04787 0.74491 0.0
C300 C 0.3322 0.12696 0.76055 0.0
C301 C 0.37247 1.07142 0.77192 0.0
C302 C 0.3314 0.19534 0.79362 0.0
C303 C 0.39874 0.27698 0.75458 0.0
N304 N 0.35829 0.11014 0.77878 0.0
N305 N 0.36857 0.22302 0.74674 0.0
H306 H 0.80276 1.00556 0.53499 0.0
H307 H 0.6541 0.67303 0.51418 0.0
H308 H 0.65614 0.91711 0.48573 0.0
H309 H 0.7974 0.76681 0.56472 0.0
H310 H 0.65306 0.7596 0.50302 0.0
H311 H 0.80024 0.91815 0.54534 0.0
C312 C 0.76983 0.96785 0.52619 0.0
C313 C 0.72962 0.96979 0.50927 0.0
C314 C 0.68471 0.76133 0.5166 0.0
C315 C 0.72657 0.86716 0.52141 0.0
C316 C 0.68549 0.71175 0.52289 0.0
C317 C 0.72606 0.71211 0.54044 0.0
C318 C 0.72488 0.81236 0.52781 0.0
C319 C 0.76496 0.7639 0.55141 0.0
C320 C 0.76846 0.91744 0.53224 0.0
C321 C 0.68822 0.91844 0.49879 0.0
N322 N 0.76347 0.81137 0.54489 0.0
N323 N 0.68782 0.86963 0.50498 0.0
H324 H 0.82717 0.55003 0.81895 0.0
H325 H 1.13242 0.70598 0.88564 0.0
H326 H 0.89574 0.70601 0.86261 0.0
H327 H 1.067 0.54731 0.84536 0.0
H328 H 1.04788 0.70814 0.87456 0.0
H329 H 0.91416 0.54916 0.82582 0.0
C330 C 0.86034 0.58431 0.82986 0.0
C331 C 0.8531 0.6282 0.84014 0.0
C332 C 1.05179 0.67288 0.86784 0.0
C333 C 0.95428 0.62736 0.84819 0.0
C334 C 1.10047 0.67181 0.87408 0.0
C335 C 1.10747 0.62655 0.86638 0.0
C336 C 1.00852 0.62819 0.8537 0.0
C337 C 1.06403 0.58336 0.8515 0.0
C338 C 0.9103 0.58369 0.83382 0.0
C339 C 0.89843 0.6711 0.8542 0.0
N340 N 1.01664 0.5851 0.84583 0.0
N341 N 0.94631 0.66949 0.85776 0.0
H342 H 0.43939 0.78305 0.18324 0.0
H343 H 0.60581 0.11997 0.18186 0.0
H344 H 0.36143 0.87924 0.16268 0.0
H345 H 0.67743 1.01909 0.20381 0.0
H346 H 0.51796 1.03439 0.17193 0.0
H347 H 0.52691 0.86936 0.18876 0.0
C348 C 0.44035 0.8222 0.17982 0.0
C349 C 0.39192 0.82289 0.17244 0.0
C350 C 0.55303 1.03088 0.1786 0.0
C351 C 0.49416 0.9239 0.17881 0.0
C352 C 0.60347 1.07993 0.18397 0.0
C353 C 0.64958 1.07705 0.19342 0.0
C354 C 0.54819 0.97806 0.1827 0.0
C355 C 0.64336 1.02357 0.19638 0.0
C356 C 0.49084 0.8719 0.18299 0.0
C357 C 0.39705 0.87588 0.16841 0.0
N358 N 0.59412 0.97677 0.19121 0.0
N359 N 0.44677 0.92377 0.17164 0.0
H360 H 0.83091 0.33316 0.5038 0.0
H361 H 0.65131 0.48868 0.52023 0.0
H362 H 0.65299 0.24512 0.50791 0.0
H363 H 0.82397 0.5673 0.53866 0.0
H364 H 0.65239 0.40203 0.50916 0.0
H365 H 0.8305 0.42097 0.51055 0.0
C366 C 0.79166 0.33205 0.506 0.0
C367 C 0.74191 0.28087 0.50534 0.0
C368 C 0.6903 0.43838 0.51527 0.0
C369 C 0.74117 0.38265 0.51287 0.0
C370 C 0.68974 0.48806 0.52128 0.0
C371 C 0.73781 0.53572 0.52996 0.0
C372 C 0.73946 0.436 0.51773 0.0
C373 C 0.78619 0.5319 0.53167 0.0
C374 C 0.79149 0.38249 0.50992 0.0
C375 C 0.69253 0.28301 0.50838 0.0
N376 N 0.78581 0.48335 0.52562 0.0
N377 N 0.69345 0.3326 0.51188 0.0
H378 H 0.49164 0.53468 0.83867 0.0
H379 H 0.33811 0.69916 0.89454 0.0
H380 H 0.57785 0.71171 0.85086 0.0
H381 H 0.25033 0.5424 0.85243 0.0
H382 H 0.42575 0.70095 0.88357 0.0
H383 H 0.40358 0.53293 0.84787 0.0
C384 C 0.49243 0.57335 0.84327 0.0
C385 C 0.54333 0.62356 0.84395 0.0
C386 C 0.38745 0.66607 0.87666 0.0
C387 C 0.4411 0.62153 0.85517 0.0
C388 C 0.33722 0.66496 0.88306 0.0
C389 C 0.28639 0.62062 0.87442 0.0
C390 C 0.38756 0.62191 0.86189 0.0
C391 C 0.28828 0.57761 0.85939 0.0
C392 C 0.44176 0.57225 0.84852 0.0
C393 C 0.54046 0.67197 0.85009 0.0
N394 N 0.33757 0.57909 0.85387 0.0
N395 N 0.49088 0.66967 0.85565 0.0
H396 H 1.0323 0.54058 0.14421 0.0
H397 H 0.8837 0.23995 0.22477 0.0
H398 H 1.11475 0.48045 0.19831 0.0
H399 H 0.79062 0.29859 0.17855 0.0
H400 H 0.96827 0.32764 0.21371 0.0
H401 H 0.94444 0.45329 0.15412 0.0
C402 C 1.03237 0.50934 0.15801 0.0
C403 C 1.08208 0.51901 0.17033 0.0
C404 C 0.92949 0.32169 0.20591 0.0
C405 C 0.9805 0.41785 0.18192 0.0
C406 C 0.88072 0.27136 0.21251 0.0
C407 C 0.82908 0.26102 0.20282 0.0
C408 C 0.92783 0.36319 0.18922 0.0
C409 C 0.82909 0.30376 0.1863 0.0
C410 C 0.98187 0.45929 0.16377 0.0
C411 C 1.07835 0.47608 0.18818 0.0
N412 N 0.87722 0.35245 0.18006 0.0
N413 N 1.02931 0.4283 0.19328 0.0
H414 H 0.22512 0.55041 0.08442 0.0
H415 H 0.21285 0.53711 0.9356 0.0
H416 H 0.32152 0.72789 0.0714 0.0
H417 H 0.27282 0.71274 0.93979 0.0
H418 H 0.23367 0.53639 0.98592 0.0
H419 H 0.22152 0.53851 0.03289 0.0
C420 C 0.2466 0.58676 0.07076 0.0
C421 C 0.27335 0.64021 0.08238 0.0
C422 C 0.24291 0.57534 0.97598 0.0
C423 C 0.26974 0.62726 0.02306 0.0
C424 C 0.23202 0.57579 0.94706 0.0
C425 C 0.24196 0.6252 0.9336 0.0
C426 C 0.26347 0.62482 0.99156 0.0
C427 C 0.26543 0.67405 0.9494 0.0
C428 C 0.24461 0.58005 0.04117 0.0
C429 C 0.29994 0.68583 0.06355 0.0
N430 N 0.27504 0.67258 0.97746 0.0
N431 N 0.29694 0.67832 0.03506 0.0
H432 H 0.71956 0.20028 0.40763 0.0
H433 H 0.82724 0.14767 0.2615 0.0
H434 H 0.83688 0.14179 0.40433 0.0
H435 H 0.75337 0.25119 0.26939 0.0
H436 H 0.83884 0.15092 0.31306 0.0
H437 H 0.73595 0.22289 0.35722 0.0
C438 C 0.74898 0.19224 0.39632 0.0
C439 C 0.77631 0.1683 0.41034 0.0
C440 C 0.82176 0.17451 0.30353 0.0
C441 C 0.79521 0.19415 0.35196 0.0
C442 C 0.81598 0.17336 0.27405 0.0
C443 C 0.79042 0.20022 0.26115 0.0
C444 C 0.8005 0.20164 0.32038 0.0
C445 C 0.77443 0.23108 0.27845 0.0
C446 C 0.7586 0.20559 0.36744 0.0
C447 C 0.81458 0.1598 0.39444 0.0
N448 N 0.77869 0.23005 0.30715 0.0
N449 N 0.82224 0.17187 0.36604 0.0
H450 H 0.79959 0.72335 0.74857 0.0
H451 H 0.64626 0.63214 0.59955 0.0
H452 H 0.62629 0.60547 0.74033 0.0
H453 H 0.82179 0.70451 0.60711 0.0
H454 H 0.63811 0.64273 0.65087 0.0
H455 H 0.80812 0.73534 0.69677 0.0
C456 C 0.76321 0.70045 0.73595 0.0
C457 C 0.71222 0.66296 0.74891 0.0
C458 C 0.67865 0.65764 0.64124 0.0
C459 C 0.72163 0.677 0.68956 0.0
C460 C 0.68327 0.65243 0.61193 0.0
C461 C 0.73481 0.66837 0.59916 0.0
C462 C 0.72603 0.67908 0.65791 0.0
C463 C 0.78151 0.6927 0.61622 0.0
C464 C 0.76816 0.70724 0.70637 0.0
C465 C 0.66656 0.63443 0.73135 0.0
N466 N 0.77604 0.69695 0.64472 0.0
N467 N 0.67235 0.64196 0.70271 0.0
H468 H 0.74481 0.17862 0.59646 0.0
H469 H 0.55409 0.126 0.70604 0.0
H470 H 0.63399 1.00762 0.57538 0.0
H471 H 0.4895 0.95283 0.68805 0.0
H472 H 0.62862 0.15007 0.67111 0.0
H473 H 0.69873 0.16178 0.64308 0.0
C474 C 0.71139 0.13736 0.60186 0.0
C475 C 0.69239 1.09477 0.5819 0.0
C476 C 0.59931 0.10667 0.67511 0.0
C477 C 0.63813 1.07539 0.63463 0.0
C478 C 0.55645 1.09313 0.69485 0.0
C479 C 0.51523 1.0376 0.69908 0.0
C480 C 0.60091 1.06405 0.65967 0.0
C481 C 0.52022 0.99614 0.68482 0.0
C482 C 0.6844 0.12786 0.62834 0.0
C483 C 0.64917 1.04198 0.58995 0.0
N484 N 0.56173 1.01024 0.66538 0.0
N485 N 0.62323 1.03401 0.6155 0.0
H486 H 0.64997 0.64219 0.93348 0.0
H487 H 0.57801 0.37786 0.03202 0.0
H488 H 0.66862 0.50221 0.90882 0.0
H489 H 0.57644 0.52264 0.06361 0.0
H490 H 0.59526 0.41748 0.98415 0.0
H491 H 0.61137 0.59587 0.97951 0.0
C492 C 0.6462 0.60199 0.93775 0.0
C493 C 0.66302 0.57633 0.91732 0.0
C494 C 0.59006 0.44031 0.00139 0.0
C495 C 0.61806 0.52287 0.96945 0.0
C496 C 0.57948 0.41725 0.02856 0.0
C497 C 0.57537 0.4468 0.05154 0.0
C498 C 0.59738 0.49386 -0.0028 0.0
C499 C 0.57832 0.49816 0.04627 0.0
C500 C 0.62387 0.57546 0.9639 0.0
C501 C 0.65667 0.52396 0.92387 0.0
N502 N 0.59011 0.52061 0.01964 0.0
N503 N 0.63479 0.49915 0.94926 0.0
H504 H 1.11747 0.6965 0.22452 0.0
H505 H 0.18302 0.77481 0.38733 0.0
H506 H 0.26567 0.71766 0.2632 0.0
H507 H 1.0202 0.7026 0.3532 0.0
H508 H 0.21978 0.77028 0.3403 0.0
H509 H 1.08699 0.7141 0.26996 0.0
C510 C 0.14383 0.70509 0.24255 0.0
C511 C 0.1942 0.70535 0.24004 0.0
C512 C 0.17616 0.75622 0.343 0.0
C513 C 0.15929 0.72576 0.29228 0.0
C514 C 0.15544 0.75956 0.36963 0.0
C515 C 1.09881 0.74012 0.3737 0.0
C516 C 0.13989 0.73352 0.3204 0.0
C517 C 1.06419 0.71869 0.35056 0.0
C518 C 1.12623 0.71502 0.26853 0.0
C519 C 0.22642 0.71672 0.26422 0.0
N520 N 1.08524 0.71596 0.32485 0.0
N521 N 0.2084 0.72652 0.2894 0.0
loop_
_geom_bond_atom_site_label_1
_geom_bond_atom_site_label_2
_geom_bond_distance
_geom_bond_site_symmetry_2
_ccdc_geom_bond_type
Tb0 C9 2.764 . S
Tb0 O10 2.325 . S
Tb0 O13 2.303 . S
Tb0 O17 2.322 1_655 S
Tb0 O18 2.349 . S
Tb0 O21 2.415 . S
Tb0 O22 2.399 . S
Tb1 O11 2.322 1_455 S
Tb1 O12 2.349 . S
Tb1 O14 2.415 . S
Tb1 O15 2.399 . S
Tb1 O16 2.325 . S
Tb1 O19 2.303 . S
Tb1 C30 2.764 . S
C2 O18 1.261 1_455 S
C2 O19 1.257 . S
C3 C6 1.358 . S
C3 C7 1.332 . S
C3 C9 1.504 . S
C4 C5 1.373 . S
C4 C8 1.308 . S
C5 C4 1.373 . S
C5 C6 1.429 . S
C5 H32 0.932 . S
C6 C3 1.358 . S
C6 C5 1.429 . S
C6 H33 0.930 . S
C7 C3 1.332 . S
C7 C8 1.394 . S
C7 H34 0.932 . S
C8 C4 1.308 . S
C8 C7 1.394 . S
C8 H35 0.929 . S
C9 Tb0 2.764 . S
C9 C3 1.504 . S
C9 O21 1.239 . S
C9 O22 1.263 . S
O10 Tb0 2.325 . S
O10 C20 1.236 . S
O11 Tb1 2.322 1_655 S
O11 C20 1.257 . S
O12 Tb1 2.349 . S
O12 C23 1.261 . S
O13 Tb0 2.303 . S
O13 C23 1.257 1_655 S
O14 Tb1 2.415 . S
O14 C30 1.239 . S
O15 Tb1 2.399 . S
O15 C30 1.263 . S
O16 Tb1 2.325 . S
O16 C31 1.236 . S
O17 Tb0 2.322 1_455 S
O17 C31 1.257 . S
O18 Tb0 2.349 . S
O18 C2 1.261 1_655 S
O19 Tb1 2.303 . S
O19 C2 1.257 . S
C20 O10 1.236 . S
C20 O11 1.257 . S
O21 Tb0 2.415 . S
O21 C9 1.239 . S
O22 Tb0 2.399 . S
O22 C9 1.263 . S
C23 O12 1.261 . S
C23 O13 1.257 1_455 S
C24 C27 1.358 . S
C24 C28 1.332 . S
C24 C30 1.504 . S
C25 C26 1.373 . S
C25 C29 1.308 . S
C26 C25 1.373 . S
C26 C27 1.429 . S
C26 H36 0.932 . S
C27 C24 1.358 . S
C27 C26 1.429 . S
C27 H37 0.930 . S
C28 C24 1.332 . S
C28 C29 1.394 . S
C28 H38 0.932 . S
C29 C25 1.308 . S
C29 C28 1.394 . S
C29 H39 0.929 . S
C30 Tb1 2.764 . S
C30 O14 1.239 . S
C30 O15 1.263 . S
C30 C24 1.504 . S
C31 O16 1.236 . S
C31 O17 1.257 . S
H32 C5 0.932 . S
H33 C6 0.930 . S
H34 C7 0.932 . S
H35 C8 0.929 . S
H36 C26 0.932 . S
H37 C27 0.930 . S
H38 C28 0.932 . S
H39 C29 0.929 . S
Tb40 C49 2.764 . S
Tb40 O50 2.325 . S
Tb40 O53 2.303 1_565 S
Tb40 O57 2.322 1_565 S
Tb40 O58 2.349 1_565 S
Tb40 O61 2.415 . S
Tb40 O62 2.399 . S
Tb41 O51 2.322 1_545 S
Tb41 O52 2.349 . S
Tb41 O54 2.415 . S
Tb41 O55 2.399 . S
Tb41 O56 2.325 . S
Tb41 O59 2.303 . S
Tb41 C70 2.764 . S
C42 O58 1.261 . S
C42 O59 1.257 . S
C43 C46 1.358 . S
C43 C47 1.332 . S
C43 C49 1.504 . S
C44 C45 1.373 . S
C44 C48 1.308 . S
C45 C44 1.373 . S
C45 C46 1.429 . S
C45 H72 0.932 . S
C46 C43 1.358 . S
C46 C45 1.429 . S
C46 H73 0.930 . S
C47 C43 1.332 . S
C47 C48 1.394 . S
C47 H74 0.932 . S
C48 C44 1.308 . S
C48 C47 1.394 . S
C48 H75 0.929 . S
C49 Tb40 2.764 . S
C49 C43 1.504 . S
C49 O61 1.239 . S
C49 O62 1.263 . S
O50 Tb40 2.325 . S
O50 C60 1.236 . S
O51 Tb41 2.322 1_565 S
O51 C60 1.257 . S
O52 Tb41 2.349 . S
O52 C63 1.261 . S
O53 Tb40 2.303 1_545 S
O53 C63 1.257 . S
O54 Tb41 2.415 . S
O54 C70 1.239 . S
O55 Tb41 2.399 . S
O55 C70 1.263 . S
O56 Tb41 2.325 . S
O56 C71 1.236 . S
O57 Tb40 2.322 1_545 S
O57 C71 1.257 . S
O58 Tb40 2.349 1_545 S
O58 C42 1.261 . S
O59 Tb41 2.303 . S
O59 C42 1.257 . S
C60 O50 1.236 . S
C60 O51 1.257 . S
O61 Tb40 2.415 . S
O61 C49 1.239 . S
O62 Tb40 2.399 . S
O62 C49 1.263 . S
C63 O52 1.261 . S
C63 O53 1.257 . S
C64 C67 1.358 . S
C64 C68 1.332 . S
C64 C70 1.504 . S
C65 C66 1.373 . S
C65 C69 1.308 . S
C66 C65 1.373 . S
C66 C67 1.429 . S
C66 H76 0.932 . S
C67 C64 1.358 . S
C67 C66 1.429 . S
C67 H77 0.930 . S
C68 C64 1.332 . S
C68 C69 1.394 . S
C68 H78 0.932 . S
C69 C65 1.308 . S
C69 C68 1.394 . S
C69 H79 0.929 . S
C70 Tb41 2.764 . S
C70 O54 1.239 . S
C70 O55 1.263 . S
C70 C64 1.504 . S
C71 O56 1.236 . S
C71 O57 1.257 . S
H72 C45 0.932 . S
H73 C46 0.930 . S
H74 C47 0.932 . S
H75 C48 0.929 . S
H76 C66 0.932 . S
H77 C67 0.930 . S
H78 C68 0.932 . S
H79 C69 0.929 . S
Tb80 C89 2.764 . S
Tb80 O90 2.325 . S
Tb80 O93 2.303 . S
Tb80 O97 2.322 . S
Tb80 O98 2.349 . S
Tb80 O101 2.415 . S
Tb80 O102 2.399 . S
Tb81 O91 2.322 . S
Tb81 O92 2.349 . S
Tb81 O94 2.415 . S
Tb81 O95 2.399 . S
Tb81 O96 2.325 . S
Tb81 O99 2.303 . S
Tb81 C110 2.764 . S
C82 O98 1.261 . S
C82 O99 1.257 . S
C83 C86 1.358 . S
C83 C87 1.332 . S
C83 C89 1.504 . S
C84 C85 1.373 . S
C84 C88 1.308 . S
C85 C84 1.373 . S
C85 C86 1.429 . S
C85 H112 0.932 . S
C86 C83 1.358 . S
C86 C85 1.429 . S
C86 H113 0.930 . S
C87 C83 1.332 . S
C87 C88 1.394 . S
C87 H114 0.932 . S
C88 C84 1.308 . S
C88 C87 1.394 . S
C88 H115 0.929 . S
C89 Tb80 2.764 . S
C89 C83 1.504 . S
C89 O101 1.239 . S
C89 O102 1.263 . S
O90 Tb80 2.325 . S
O90 C100 1.236 . S
O91 Tb81 2.322 . S
O91 C100 1.257 . S
O92 Tb81 2.349 . S
O92 C103 1.261 . S
O93 Tb80 2.303 . S
O93 C103 1.257 . S
O94 Tb81 2.415 . S
O94 C110 1.239 . S
O95 Tb81 2.399 . S
O95 C110 1.263 . S
O96 Tb81 2.325 . S
O96 C111 1.236 . S
O97 Tb80 2.322 . S
O97 C111 1.257 . S
O98 Tb80 2.349 . S
O98 C82 1.261 . S
O99 Tb81 2.303 . S
O99 C82 1.257 . S
C100 O90 1.236 . S
C100 O91 1.257 . S
O101 Tb80 2.415 . S
O101 C89 1.239 . S
O102 Tb80 2.399 . S
O102 C89 1.263 . S
C103 O92 1.261 . S
C103 O93 1.257 . S
C104 C107 1.358 . S
C104 C108 1.332 . S
C104 C110 1.504 . S
C105 C106 1.373 . S
C105 C109 1.308 . S
C106 C105 1.373 . S
C106 C107 1.429 . S
C106 H116 0.932 . S
C107 C104 1.358 . S
C107 C106 1.429 . S
C107 H117 0.930 . S
C108 C104 1.332 . S
C108 C109 1.394 . S
C108 H118 0.932 . S
C109 C105 1.308 . S
C109 C108 1.394 . S
C109 H119 0.929 . S
C110 Tb81 2.764 . S
C110 O94 1.239 . S
C110 O95 1.263 . S
C110 C104 1.504 . S
C111 O96 1.236 . S
C111 O97 1.257 . S
H112 C85 0.932 . S
H113 C86 0.930 . S
H114 C87 0.932 . S
H115 C88 0.929 . S
H116 C106 0.932 . S
H117 C107 0.930 . S
H118 C108 0.932 . S
H119 C109 0.929 . S
C120 N121 1.317 1_565 S
C120 N122 1.348 . S
C120 C123 1.485 1_565 S
N121 C120 1.317 1_545 S
N121 N125 1.370 . S
N122 C120 1.348 . S
N122 C124 1.346 . S
C123 C120 1.485 1_545 S
C123 H127 0.960 . S
C123 H128 0.961 1_545 S
C123 H129 0.960 . S
C124 N122 1.346 . S
C124 N125 1.307 1_565 S
C124 C126 1.486 . S
N125 N121 1.370 . S
N125 C124 1.307 1_545 S
C126 C124 1.486 . S
C126 H130 0.960 . S
C126 H131 0.960 . S
C126 H132 0.959 . S
H127 C123 0.960 . S
H128 C123 0.961 1_565 S
H129 C123 0.960 . S
H130 C126 0.960 . S
H131 C126 0.960 . S
H132 C126 0.959 . S
C133 N134 1.317 . S
C133 N135 1.348 . S
C133 C136 1.485 . S
N134 C133 1.317 . S
N134 N138 1.370 . S
N135 C133 1.348 . S
N135 C137 1.346 . S
C136 C133 1.485 . S
C136 H140 0.960 . S
C136 H141 0.961 . S
C136 H142 0.960 . S
C137 N135 1.346 . S
C137 N138 1.307 . S
C137 C139 1.486 . S
N138 N134 1.370 . S
N138 C137 1.307 . S
C139 C137 1.486 . S
C139 H143 0.960 . S
C139 H144 0.960 . S
C139 H145 0.959 . S
H140 C136 0.960 . S
H141 C136 0.961 . S
H142 C136 0.960 . S
H143 C139 0.960 . S
H144 C139 0.960 . S
H145 C139 0.959 . S
C146 N147 1.317 . S
C146 N148 1.348 . S
C146 C149 1.485 . S
N147 C146 1.317 . S
N147 N151 1.370 . S
N148 C146 1.348 . S
N148 C150 1.346 . S
C149 C146 1.485 . S
C149 H153 0.960 . S
C149 H154 0.961 . S
C149 H155 0.960 . S
C150 N148 1.346 . S
C150 N151 1.307 . S
C150 C152 1.486 1_455 S
N151 N147 1.370 . S
N151 C150 1.307 . S
C152 C150 1.486 1_655 S
C152 H156 0.960 . S
C152 H157 0.960 . S
C152 H158 0.959 . S
H153 C149 0.960 . S
H154 C149 0.961 . S
H155 C149 0.960 . S
H156 C152 0.960 . S
H157 C152 0.960 . S
H158 C152 0.959 . S
C159 N160 1.317 1_455 S
C159 N161 1.348 . S
C159 C162 1.485 . S
N160 C159 1.317 1_655 S
N160 N164 1.370 1_655 S
N161 C159 1.348 . S
N161 C163 1.346 . S
C162 C159 1.485 . S
C162 H166 0.960 1_455 S
C162 H167 0.961 . S
C162 H168 0.960 1_455 S
C163 N161 1.346 . S
C163 N164 1.307 . S
C163 C165 1.486 . S
N164 N160 1.370 1_455 S
N164 C163 1.307 . S
C165 C163 1.486 . S
C165 H169 0.960 . S
C165 H170 0.960 . S
C165 H171 0.959 . S
H166 C162 0.960 1_655 S
H167 C162 0.961 . S
H168 C162 0.960 1_655 S
H169 C165 0.960 . S
H170 C165 0.960 . S
H171 C165 0.959 . S
C172 N173 1.317 . S
C172 N174 1.348 . S
C172 C175 1.485 . S
N173 C172 1.317 . S
N173 N177 1.370 . S
N174 C172 1.348 . S
N174 C176 1.346 . S
C175 C172 1.485 . S
C175 H179 0.960 . S
C175 H180 0.961 . S
C175 H181 0.960 . S
C176 N174 1.346 . S
C176 N177 1.307 . S
C176 C178 1.486 . S
N177 N173 1.370 . S
N177 C176 1.307 . S
C178 C176 1.486 . S
C178 H182 0.960 . S
C178 H183 0.960 . S
C178 H184 0.959 . S
H179 C175 0.960 . S
H180 C175 0.961 . S
H181 C175 0.960 . S
H182 C178 0.960 . S
H183 C178 0.960 . S
H184 C178 0.959 . S
C185 N186 1.317 . S
C185 N187 1.348 . S
C185 C188 1.485 . S
N186 C185 1.317 . S
N186 N190 1.370 . S
N187 C185 1.348 . S
N187 C189 1.346 . S
C188 C185 1.485 . S
C188 H192 0.960 . S
C188 H193 0.961 . S
C188 H194 0.960 . S
C189 N187 1.346 . S
C189 N190 1.307 . S
C189 C191 1.486 . S
N190 N186 1.370 . S
N190 C189 1.307 . S
C191 C189 1.486 . S
C191 H195 0.960 . S
C191 H196 0.960 . S
C191 H197 0.959 . S
H192 C188 0.960 . S
H193 C188 0.961 . S
H194 C188 0.960 . S
H195 C191 0.960 . S
H196 C191 0.960 . S
H197 C191 0.959 . S
H198 C204 0.930 . S
H199 C208 0.930 . S
H200 C213 0.929 . S
H201 C211 0.929 . S
H202 C206 0.929 . S
H203 C212 0.929 . S
C204 H198 0.930 . S
C204 C205 1.367 . S
C204 C212 1.378 . S
C205 C204 1.367 . S
C205 C213 1.433 . S
C206 H202 0.929 . S
C206 C208 1.378 . S
C206 C210 1.350 . S
C207 C210 1.463 . S
C207 C212 1.350 . S
C207 N215 1.427 . S
C208 H199 0.930 . S
C208 C206 1.378 . S
C208 C209 1.367 . S
C209 C208 1.367 . S
C209 C211 1.433 . S
C210 C206 1.350 . S
C210 C207 1.463 . S
C210 N214 1.427 . S
C211 H201 0.929 . S
C211 C209 1.433 . S
C211 N214 1.384 . S
C212 H203 0.929 . S
C212 C204 1.378 . S
C212 C207 1.350 . S
C213 H200 0.929 . S
C213 C205 1.433 . S
C213 N215 1.384 . S
N214 C210 1.427 . S
N214 C211 1.384 . S
N215 C207 1.427 . S
N215 C213 1.384 . S
H216 C222 0.930 . S
H217 C226 0.930 1_455 S
H218 C231 0.929 . S
H219 C229 0.929 . S
H220 C224 0.929 . S
H221 C230 0.929 . S
C222 H216 0.930 . S
C222 C223 1.367 . S
C222 C230 1.378 . S
C223 C222 1.367 . S
C223 C231 1.433 . S
C224 H220 0.929 . S
C224 C226 1.378 . S
C224 C228 1.350 . S
C225 C228 1.463 . S
C225 C230 1.350 . S
C225 N233 1.427 . S
C226 H217 0.930 1_655 S
C226 C224 1.378 . S
C226 C227 1.367 . S
C227 C226 1.367 . S
C227 C229 1.433 . S
C228 C224 1.350 . S
C228 C225 1.463 . S
C228 N232 1.427 . S
C229 H219 0.929 . S
C229 C227 1.433 . S
C229 N232 1.384 . S
C230 H221 0.929 . S
C230 C222 1.378 . S
C230 C225 1.350 . S
C231 H218 0.929 . S
C231 C223 1.433 . S
C231 N233 1.384 . S
N232 C228 1.427 . S
N232 C229 1.384 . S
N233 C225 1.427 . S
N233 C231 1.384 . S
H234 C240 0.930 . S
H235 C244 0.930 1_545 S
H236 C249 0.929 . S
H237 C247 0.929 . S
H238 C242 0.929 . S
H239 C248 0.929 . S
C240 H234 0.930 . S
C240 C241 1.367 . S
C240 C248 1.378 . S
C241 C240 1.367 . S
C241 C249 1.433 . S
C242 H238 0.929 . S
C242 C244 1.378 . S
C242 C246 1.350 . S
C243 C246 1.463 . S
C243 C248 1.350 . S
C243 N251 1.427 . S
C244 H235 0.930 1_565 S
C244 C242 1.378 . S
C244 C245 1.367 . S
C245 C244 1.367 . S
C245 C247 1.433 . S
C246 C242 1.350 . S
C246 C243 1.463 . S
C246 N250 1.427 . S
C247 H237 0.929 . S
C247 C245 1.433 . S
C247 N250 1.384 . S
C248 H239 0.929 . S
C248 C240 1.378 . S
C248 C243 1.350 . S
C249 H236 0.929 . S
C249 C241 1.433 . S
C249 N251 1.384 . S
N250 C246 1.427 . S
N250 C247 1.384 . S
N251 C243 1.427 . S
N251 C249 1.384 . S
H252 C258 0.930 . S
H253 C262 0.930 . S
H254 C267 0.929 . S
H255 C265 0.929 . S
H256 C260 0.929 . S
H257 C266 0.929 . S
C258 H252 0.930 . S
C258 C259 1.367 . S
C258 C266 1.378 . S
C259 C258 1.367 . S
C259 C267 1.433 . S
C260 H256 0.929 . S
C260 C262 1.378 . S
C260 C264 1.350 . S
C261 C264 1.463 . S
C261 C266 1.350 . S
C261 N269 1.427 . S
C262 H253 0.930 . S
C262 C260 1.378 . S
C262 C263 1.367 . S
C263 C262 1.367 . S
C263 C265 1.433 . S
C264 C260 1.350 . S
C264 C261 1.463 . S
C264 N268 1.427 . S
C265 H255 0.929 . S
C265 C263 1.433 . S
C265 N268 1.384 . S
C266 H257 0.929 . S
C266 C258 1.378 . S
C266 C261 1.350 . S
C267 H254 0.929 . S
C267 C259 1.433 . S
C267 N269 1.384 . S
N268 C264 1.427 . S
N268 C265 1.384 . S
N269 C261 1.427 . S
N269 C267 1.384 . S
H270 C276 0.930 . S
H271 C280 0.930 . S
H272 C285 0.929 . S
H273 C283 0.929 . S
H274 C278 0.929 . S
H275 C284 0.929 . S
C276 H270 0.930 . S
C276 C277 1.367 . S
C276 C284 1.378 . S
C277 C276 1.367 . S
C277 C285 1.433 . S
C278 H274 0.929 . S
C278 C280 1.378 . S
C278 C282 1.350 . S
C279 C282 1.463 . S
C279 C284 1.350 . S
C279 N287 1.427 . S
C280 H271 0.930 . S
C280 C278 1.378 . S
C280 C281 1.367 . S
C281 C280 1.367 . S
C281 C283 1.433 . S
C282 C278 1.350 . S
C282 C279 1.463 . S
C282 N286 1.427 . S
C283 H273 0.929 . S
C283 C281 1.433 . S
C283 N286 1.384 . S
C284 H275 0.929 . S
C284 C276 1.378 . S
C284 C279 1.350 . S
C285 H272 0.929 . S
C285 C277 1.433 . S
C285 N287 1.384 . S
N286 C282 1.427 . S
N286 C283 1.384 . S
N287 C279 1.427 . S
N287 C285 1.384 . S
H288 C294 0.930 . S
H289 C298 0.930 . S
H290 C303 0.929 . S
H291 C301 0.929 . S
H292 C296 0.929 . S
H293 C302 0.929 . S
C294 H288 0.930 . S
C294 C295 1.367 . S
C294 C302 1.378 . S
C295 C294 1.367 . S
C295 C303 1.433 . S
C296 H292 0.929 . S
C296 C298 1.378 . S
C296 C300 1.350 . S
C297 C300 1.463 . S
C297 C302 1.350 . S
C297 N305 1.427 . S
C298 H289 0.930 . S
C298 C296 1.378 . S
C298 C299 1.367 . S
C299 C298 1.367 . S
C299 C301 1.433 . S
C300 C296 1.350 . S
C300 C297 1.463 . S
C300 N304 1.427 . S
C301 H291 0.929 . S
C301 C299 1.433 . S
C301 N304 1.384 . S
C302 H293 0.929 . S
C302 C294 1.378 . S
C302 C297 1.350 . S
C303 H290 0.929 . S
C303 C295 1.433 . S
C303 N305 1.384 . S
N304 C300 1.427 . S
N304 C301 1.384 . S
N305 C297 1.427 . S
N305 C303 1.384 . S
H306 C312 0.930 . S
H307 C316 0.930 . S
H308 C321 0.929 . S
H309 C319 0.929 . S
H310 C314 0.929 . S
H311 C320 0.929 . S
C312 H306 0.930 . S
C312 C313 1.367 . S
C312 C320 1.378 . S
C313 C312 1.367 . S
C313 C321 1.433 . S
C314 H310 0.929 . S
C314 C316 1.378 . S
C314 C318 1.350 . S
C315 C318 1.463 . S
C315 C320 1.350 . S
C315 N323 1.427 . S
C316 H307 0.930 . S
C316 C314 1.378 . S
C316 C317 1.367 . S
C317 C316 1.367 . S
C317 C319 1.433 . S
C318 C314 1.350 . S
C318 C315 1.463 . S
C318 N322 1.427 . S
C319 H309 0.929 . S
C319 C317 1.433 . S
C319 N322 1.384 . S
C320 H311 0.929 . S
C320 C312 1.378 . S
C320 C315 1.350 . S
C321 H308 0.929 . S
C321 C313 1.433 . S
C321 N323 1.384 . S
N322 C318 1.427 . S
N322 C319 1.384 . S
N323 C315 1.427 . S
N323 C321 1.384 . S
H324 C330 0.930 . S
H325 C334 0.930 . S
H326 C339 0.929 . S
H327 C337 0.929 . S
H328 C332 0.929 . S
H329 C338 0.929 . S
C330 H324 0.930 . S
C330 C331 1.367 . S
C330 C338 1.378 . S
C331 C330 1.367 . S
C331 C339 1.433 . S
C332 H328 0.929 . S
C332 C334 1.378 . S
C332 C336 1.350 . S
C333 C336 1.463 . S
C333 C338 1.350 . S
C333 N341 1.427 . S
C334 H325 0.930 . S
C334 C332 1.378 . S
C334 C335 1.367 . S
C335 C334 1.367 . S
C335 C337 1.433 . S
C336 C332 1.350 . S
C336 C333 1.463 . S
C336 N340 1.427 . S
C337 H327 0.929 . S
C337 C335 1.433 . S
C337 N340 1.384 . S
C338 H329 0.929 . S
C338 C330 1.378 . S
C338 C333 1.350 . S
C339 H326 0.929 . S
C339 C331 1.433 . S
C339 N341 1.384 . S
N340 C336 1.427 . S
N340 C337 1.384 . S
N341 C333 1.427 . S
N341 C339 1.384 . S
H342 C348 0.930 . S
H343 C352 0.930 . S
H344 C357 0.929 . S
H345 C355 0.929 . S
H346 C350 0.929 . S
H347 C356 0.929 . S
C348 H342 0.930 . S
C348 C349 1.367 . S
C348 C356 1.378 . S
C349 C348 1.367 . S
C349 C357 1.433 . S
C350 H346 0.929 . S
C350 C352 1.378 . S
C350 C354 1.350 . S
C351 C354 1.463 . S
C351 C356 1.350 . S
C351 N359 1.427 . S
C352 H343 0.930 . S
C352 C350 1.378 . S
C352 C353 1.367 . S
C353 C352 1.367 . S
C353 C355 1.433 . S
C354 C350 1.350 . S
C354 C351 1.463 . S
C354 N358 1.427 . S
C355 H345 0.929 . S
C355 C353 1.433 . S
C355 N358 1.384 . S
C356 H347 0.929 . S
C356 C348 1.378 . S
C356 C351 1.350 . S
C357 H344 0.929 . S
C357 C349 1.433 . S
C357 N359 1.384 . S
N358 C354 1.427 . S
N358 C355 1.384 . S
N359 C351 1.427 . S
N359 C357 1.384 . S
H360 C366 0.930 . S
H361 C370 0.930 . S
H362 C375 0.929 . S
H363 C373 0.929 . S
H364 C368 0.929 . S
H365 C374 0.929 . S
C366 H360 0.930 . S
C366 C367 1.367 . S
C366 C374 1.378 . S
C367 C366 1.367 . S
C367 C375 1.433 . S
C368 H364 0.929 . S
C368 C370 1.378 . S
C368 C372 1.350 . S
C369 C372 1.463 . S
C369 C374 1.350 . S
C369 N377 1.427 . S
C370 H361 0.930 . S
C370 C368 1.378 . S
C370 C371 1.367 . S
C371 C370 1.367 . S
C371 C373 1.433 . S
C372 C368 1.350 . S
C372 C369 1.463 . S
C372 N376 1.427 . S
C373 H363 0.929 . S
C373 C371 1.433 . S
C373 N376 1.384 . S
C374 H365 0.929 . S
C374 C366 1.378 . S
C374 C369 1.350 . S
C375 H362 0.929 . S
C375 C367 1.433 . S
C375 N377 1.384 . S
N376 C372 1.427 . S
N376 C373 1.384 . S
N377 C369 1.427 . S
N377 C375 1.384 . S
H378 C384 0.930 . S
H379 C388 0.930 . S
H380 C393 0.929 . S
H381 C391 0.929 . S
H382 C386 0.929 . S
H383 C392 0.929 . S
C384 H378 0.930 . S
C384 C385 1.367 . S
C384 C392 1.378 . S
C385 C384 1.367 . S
C385 C393 1.433 . S
C386 H382 0.929 . S
C386 C388 1.378 . S
C386 C390 1.350 . S
C387 C390 1.463 . S
C387 C392 1.350 . S
C387 N395 1.427 . S
C388 H379 0.930 . S
C388 C386 1.378 . S
C388 C389 1.367 . S
C389 C388 1.367 . S
C389 C391 1.433 . S
C390 C386 1.350 . S
C390 C387 1.463 . S
C390 N394 1.427 . S
C391 H381 0.929 . S
C391 C389 1.433 . S
C391 N394 1.384 . S
C392 H383 0.929 . S
C392 C384 1.378 . S
C392 C387 1.350 . S
C393 H380 0.929 . S
C393 C385 1.433 . S
C393 N395 1.384 . S
N394 C390 1.427 . S
N394 C391 1.384 . S
N395 C387 1.427 . S
N395 C393 1.384 . S
H396 C402 0.930 . S
H397 C406 0.930 . S
H398 C411 0.929 . S
H399 C409 0.929 . S
H400 C404 0.929 . S
H401 C410 0.929 . S
C402 H396 0.930 . S
C402 C403 1.367 . S
C402 C410 1.378 . S
C403 C402 1.367 . S
C403 C411 1.433 . S
C404 H400 0.929 . S
C404 C406 1.378 . S
C404 C408 1.350 . S
C405 C408 1.463 . S
C405 C410 1.350 . S
C405 N413 1.427 . S
C406 H397 0.930 . S
C406 C404 1.378 . S
C406 C407 1.367 . S
C407 C406 1.367 . S
C407 C409 1.433 . S
C408 C404 1.350 . S
C408 C405 1.463 . S
C408 N412 1.427 . S
C409 H399 0.929 . S
C409 C407 1.433 . S
C409 N412 1.384 . S
C410 H401 0.929 . S
C410 C402 1.378 . S
C410 C405 1.350 . S
C411 H398 0.929 . S
C411 C403 1.433 . S
C411 N413 1.384 . S
N412 C408 1.427 . S
N412 C409 1.384 . S
N413 C405 1.427 . S
N413 C411 1.384 . S
H414 C420 0.930 . S
H415 C424 0.930 1_655 S
H416 C429 0.929 . S
H417 C427 0.929 . S
H418 C422 0.929 1_655 S
H419 C428 0.929 . S
C420 H414 0.930 . S
C420 C421 1.367 . S
C420 C428 1.378 . S
C421 C420 1.367 . S
C421 C429 1.433 1_455 S
C422 H418 0.929 1_455 S
C422 C424 1.378 . S
C422 C426 1.350 . S
C423 C426 1.463 1_554 S
C423 C428 1.350 . S
C423 N431 1.427 1_455 S
C424 H415 0.930 1_455 S
C424 C422 1.378 . S
C424 C425 1.367 . S
C425 C424 1.367 . S
C425 C427 1.433 . S
C426 C422 1.350 . S
C426 C423 1.463 1_556 S
C426 N430 1.427 . S
C427 H417 0.929 . S
C427 C425 1.433 . S
C427 N430 1.384 . S
C428 H419 0.929 . S
C428 C420 1.378 . S
C428 C423 1.350 . S
C429 H416 0.929 . S
C429 C421 1.433 1_655 S
C429 N431 1.384 . S
N430 C426 1.427 . S
N430 C427 1.384 . S
N431 C423 1.427 1_655 S
N431 C429 1.384 . S
H432 C438 0.930 1_565 S
H433 C442 0.930 . S
H434 C447 0.929 . S
H435 C445 0.929 . S
H436 C440 0.929 . S
H437 C446 0.925 1_565 S
C438 H432 0.930 1_545 S
C438 C439 1.367 . S
C438 C446 1.378 . S
C439 C438 1.367 . S
C439 C447 1.433 . S
C440 H436 0.929 . S
C440 C442 1.378 . S
C440 C444 1.350 . S
C441 C444 1.463 . S
C441 C446 1.354 . S
C441 N449 1.427 . S
C442 H433 0.930 . S
C442 C440 1.378 . S
C442 C443 1.367 . S
C443 C442 1.367 . S
C443 C445 1.433 1_545 S
C444 C440 1.350 . S
C444 C441 1.463 . S
C444 N448 1.427 1_545 S
C445 H435 0.929 . S
C445 C443 1.433 1_565 S
C445 N448 1.384 . S
C446 H437 0.925 1_545 S
C446 C438 1.378 . S
C446 C441 1.354 . S
C447 H434 0.929 . S
C447 C439 1.433 . S
C447 N449 1.384 . S
N448 C444 1.427 1_565 S
N448 C445 1.384 . S
N449 C441 1.427 . S
N449 C447 1.384 . S
H450 C456 0.930 . S
H451 C460 0.930 . S
H452 C465 0.929 . S
H453 C463 0.929 . S
H454 C458 0.929 . S
H455 C464 0.929 . S
C456 H450 0.930 . S
C456 C457 1.367 . S
C456 C464 1.378 . S
C457 C456 1.367 . S
C457 C465 1.433 . S
C458 H454 0.929 . S
C458 C460 1.378 . S
C458 C462 1.350 . S
C459 C462 1.463 . S
C459 C464 1.350 . S
C459 N467 1.427 . S
C460 H451 0.930 . S
C460 C458 1.378 . S
C460 C461 1.367 . S
C461 C460 1.367 . S
C461 C463 1.433 . S
C462 C458 1.350 . S
C462 C459 1.463 . S
C462 N466 1.427 . S
C463 H453 0.929 . S
C463 C461 1.433 . S
C463 N466 1.384 . S
C464 H455 0.929 . S
C464 C456 1.378 . S
C464 C459 1.350 . S
C465 H452 0.929 . S
C465 C457 1.433 . S
C465 N467 1.384 . S
N466 C462 1.427 . S
N466 C463 1.384 . S
N467 C459 1.427 . S
N467 C465 1.384 . S
H468 C474 0.930 . S
H469 C478 0.930 . S
H470 C483 0.929 . S
H471 C481 0.929 . S
H472 C476 0.929 . S
H473 C482 0.929 . S
C474 H468 0.930 . S
C474 C475 1.367 . S
C474 C482 1.378 . S
C475 C474 1.367 . S
C475 C483 1.433 1_545 S
C476 H472 0.929 . S
C476 C478 1.378 . S
C476 C480 1.350 1_565 S
C477 C480 1.463 . S
C477 C482 1.350 . S
C477 N485 1.427 1_545 S
C478 H469 0.930 . S
C478 C476 1.378 . S
C478 C479 1.367 1_565 S
C479 C478 1.367 1_545 S
C479 C481 1.433 . S
C480 C476 1.350 1_545 S
C480 C477 1.463 . S
C480 N484 1.427 . S
C481 H471 0.929 . S
C481 C479 1.433 . S
C481 N484 1.384 . S
C482 H473 0.929 . S
C482 C474 1.378 . S
C482 C477 1.350 . S
C483 H470 0.929 . S
C483 C475 1.433 1_565 S
C483 N485 1.384 . S
N484 C480 1.427 . S
N484 C481 1.384 . S
N485 C477 1.427 1_565 S
N485 C483 1.384 . S
H486 C492 0.930 . S
H487 C496 0.930 . S
H488 C501 0.929 . S
H489 C499 0.929 . S
H490 C494 0.929 . S
H491 C500 0.929 . S
C492 H486 0.930 . S
C492 C493 1.367 . S
C492 C500 1.378 . S
C493 C492 1.367 . S
C493 C501 1.433 . S
C494 H490 0.929 . S
C494 C496 1.378 . S
C494 C498 1.346 1_554 S
C495 C498 1.472 . S
C495 C500 1.350 . S
C495 N503 1.427 . S
C496 H487 0.930 . S
C496 C494 1.378 . S
C496 C497 1.367 . S
C497 C496 1.367 . S
C497 C499 1.433 . S
C498 C494 1.346 1_556 S
C498 C495 1.472 . S
C498 N502 1.422 1_556 S
C499 H489 0.929 . S
C499 C497 1.433 . S
C499 N502 1.384 . S
C500 H491 0.929 . S
C500 C492 1.378 . S
C500 C495 1.350 . S
C501 H488 0.929 . S
C501 C493 1.433 . S
C501 N503 1.384 . S
N502 C498 1.422 1_554 S
N502 C499 1.384 . S
N503 C495 1.427 . S
N503 C501 1.384 . S
H504 C510 0.930 . S
H505 C514 0.930 . S
H506 C519 0.929 1_455 S
H507 C517 0.929 . S
H508 C512 0.929 . S
H509 C518 0.929 . S
C510 H504 0.930 . S
C510 C511 1.367 . S
C510 C518 1.378 . S
C511 C510 1.367 . S
C511 C519 1.433 . S
C512 H508 0.929 . S
C512 C514 1.378 . S
C512 C516 1.350 1_455 S
C513 C516 1.463 . S
C513 C518 1.350 . S
C513 N521 1.440 . S
C514 H505 0.930 . S
C514 C512 1.378 . S
C514 C515 1.367 1_455 S
C515 C514 1.367 1_655 S
C515 C517 1.433 . S
C516 C512 1.350 1_655 S
C516 C513 1.463 . S
C516 N520 1.427 . S
C517 H507 0.929 . S
C517 C515 1.433 . S
C517 N520 1.384 . S
C518 H509 0.929 . S
C518 C510 1.378 . S
C518 C513 1.350 . S
C519 H506 0.929 1_655 S
C519 C511 1.433 . S
C519 N521 1.381 . S
N520 C516 1.427 . S
N520 C517 1.384 . S
N521 C513 1.440 . S
N521 C519 1.381 . S
C205 C25 0.230 . S
C209 N187 0.151 . S
C223 C65 0.384 . S
C227 N160 0.369 . S
C241 C105 0.419 . S
C245 N173 0.401 1_565 S
C259 C4 0.558 . S
C263 N186 0.538 . S
C281 N161 0.535 . S
C277 C44 0.544 . S
C299 N174 0.524 . S
C295 C84 0.527 . S
C313 C60 2.866 . S
C317 N134 2.862 . S
C331 C100 2.819 . S
C335 N148 2.769 1_655 S
C349 C31 3.114 . S
C353 N122 3.086 . S
C371 N135 3.109 . S
C367 C71 3.120 . S
C389 N147 3.234 . S
C385 C111 3.202 . S
C403 C20 2.872 . S
C407 N121 2.866 . S
C425 N151 1.776 . S
C421 C2 1.770 . S
C439 C42 1.711 . S
C443 N125 1.784 . S
C457 C82 1.732 . S
C461 N138 1.794 . S
C479 N177 1.238 . S
C475 C63 1.238 . S
C497 N190 1.233 . S
C493 C103 1.231 . S
C511 C23 1.241 1_655 S
C515 N164 1.241 1_655 S
