# Generated by pormake.
# Topology nom, (4,4)-cn, num edge types: 1
# Building blocks:
#     Node 0, Type 0, BuildingBlock: GIZVER_clean_linker_0, # of connection points: 4
#     Node 1, Type 0, BuildingBlock: GIZVER_clean_linker_0, # of connection points: 4
#     Node 2, Type 0, BuildingBlock: GIZVER_clean_linker_0, # of connection points: 4
#     Node 3, Type 0, BuildingBlock: GIZVER_clean_linker_0, # of connection points: 4
#     Node 4, Type 0, BuildingBlock: GIZVER_clean_linker_0, # of connection points: 4
#     Node 5, Type 0, BuildingBlock: GIZVER_clean_linker_0, # of connection points: 4
#     Node 6, Type 1, BuildingBlock: AZAVOO_clean_sbu_0, # of connection points: 4
#     Node 7, Type 1, BuildingBlock: AZAVOO_clean_sbu_0, # of connection points: 4
#     Node 8, Type 1, BuildingBlock: AZAVOO_clean_sbu_0, # of connection points: 4
#     Node 9, Type 1, BuildingBlock: AZAVOO_clean_sbu_0, # of connection points: 4
#     Node 10, Type 1, BuildingBlock: AZAVOO_clean_sbu_0, # of connection points: 4
#     Node 11, Type 1, BuildingBlock: AZAVOO_clean_sbu_0, # of connection points: 4
#     Edge 12, Type (0, 1), BuildingBlock: XIVTED_clean_linker_0, # of connection points: 2
#     Edge 13, Type (0, 1), BuildingBlock: XIVTED_clean_linker_0, # of connection points: 2
#     Edge 14, Type (0, 1), BuildingBlock: XIVTED_clean_linker_0, # of connection points: 2
#     Edge 15, Type (0, 1), BuildingBlock: XIVTED_clean_linker_0, # of connection points: 2
#     Edge 16, Type (0, 1), BuildingBlock: XIVTED_clean_linker_0, # of connection points: 2
#     Edge 17, Type (0, 1), BuildingBlock: XIVTED_clean_linker_0, # of connection points: 2
#     Edge 18, Type (0, 1), BuildingBlock: XIVTED_clean_linker_0, # of connection points: 2
#     Edge 19, Type (0, 1), BuildingBlock: XIVTED_clean_linker_0, # of connection points: 2
#     Edge 20, Type (0, 1), BuildingBlock: XIVTED_clean_linker_0, # of connection points: 2
#     Edge 21, Type (0, 1), BuildingBlock: XIVTED_clean_linker_0, # of connection points: 2
#     Edge 22, Type (0, 1), BuildingBlock: XIVTED_clean_linker_0, # of connection points: 2
#     Edge 23, Type (0, 1), BuildingBlock: XIVTED_clean_linker_0, # of connection points: 2
#     Edge 24, Type (0, 1), BuildingBlock: XIVTED_clean_linker_0, # of connection points: 2
#     Edge 25, Type (0, 1), BuildingBlock: XIVTED_clean_linker_0, # of connection points: 2
#     Edge 26, Type (0, 1), BuildingBlock: XIVTED_clean_linker_0, # of connection points: 2
#     Edge 27, Type (0, 1), BuildingBlock: XIVTED_clean_linker_0, # of connection points: 2
#     Edge 28, Type (0, 1), BuildingBlock: XIVTED_clean_linker_0, # of connection points: 2
#     Edge 29, Type (0, 1), BuildingBlock: XIVTED_clean_linker_0, # of connection points: 2
#     Edge 30, Type (0, 1), BuildingBlock: XIVTED_clean_linker_0, # of connection points: 2
#     Edge 31, Type (0, 1), BuildingBlock: XIVTED_clean_linker_0, # of connection points: 2
#     Edge 32, Type (0, 1), BuildingBlock: XIVTED_clean_linker_0, # of connection points: 2
#     Edge 33, Type (0, 1), BuildingBlock: XIVTED_clean_linker_0, # of connection points: 2
#     Edge 34, Type (0, 1), BuildingBlock: XIVTED_clean_linker_0, # of connection points: 2
#     Edge 35, Type (0, 1), BuildingBlock: XIVTED_clean_linker_0, # of connection points: 2
# Relax obj value: 0.032
# Max RMSD: 0.160
# Mean RMSD: 0.105
data_MOF--net-nom--node1-AZAVOO_clean_sbu_0--node2-GIZVER_clean_linker_0--edge1-XIVTED_clean_linker_0
_symmetry_space_group_name_H-M    P1
_symmetry_Int_Tables_number       1
_symmetry_cell_setting            triclinic
loop_
_symmetry_equiv_pos_as_xyz
'x, y, z'
_cell_length_a     46.465905
_cell_length_b     46.940738
_cell_length_c     45.741752
_cell_angle_alpha  91.809681
_cell_angle_beta   91.439559
_cell_angle_gamma 120.14197
loop_
_atom_site_label
_atom_site_type_symbol
_atom_site_fract_x
_atom_site_fract_y
_atom_site_fract_z
_atom_type_partial_charge
H0 H 0.96346 0.55647 0.35746 0.0
H1 H 0.98509 0.56276 0.26605 0.0
H2 H 0.89314 0.48325 0.29419 0.0
H3 H 1.00773 0.60735 0.33966 0.0
H4 H 0.01285 0.61209 0.30124 0.0
H5 H 0.03179 0.57749 0.3668 0.0
H6 H 0.12095 0.58717 0.33183 0.0
H7 H 0.05612 0.60692 0.27838 0.0
C8 C 0.95685 0.54608 0.33516 0.0
C9 C 0.9261 0.51717 0.32873 0.0
C10 C 0.97846 0.56242 0.31264 0.0
C11 C 0.96913 0.54956 0.28357 0.0
C12 C 0.93821 0.52113 0.2769 0.0
C13 C 0.91736 0.50476 0.29959 0.0
C14 C 0.00969 0.59529 0.31906 0.0
C15 C 0.03988 0.59135 0.32187 0.0
C16 C 0.0477 0.58211 0.34849 0.0
C17 C 0.07671 0.58018 0.35194 0.0
C18 C 0.09767 0.58701 0.32852 0.0
C19 C 0.09077 0.59714 0.30204 0.0
C20 C 0.06149 0.59879 0.29866 0.0
H21 H 0.40613 0.9543 0.50049 0.0
H22 H 0.43923 0.9987 0.41772 0.0
H23 H 0.42772 0.90383 0.43211 0.0
H24 H 0.40698 1.00451 0.49162 0.0
H25 H 0.40544 0.01349 0.45419 0.0
H26 H 0.46133 0.0312 0.52042 0.0
H27 H 0.5372 0.1236 0.49045 0.0
H28 H 0.45359 0.05801 0.43261 0.0
C29 C 0.41529 0.95397 0.479 0.0
C30 C 0.41572 0.92574 0.46841 0.0
C31 C 0.42445 0.98083 0.461 0.0
C32 C 0.43396 0.97908 0.43232 0.0
C33 C 0.4356 0.95151 0.42217 0.0
C34 C 0.42729 0.9255 0.44049 0.0
C35 C 0.42069 0.00967 0.47106 0.0
C36 C 0.45412 0.04083 0.47576 0.0
C37 C 0.47165 0.04816 0.50299 0.0
C38 C 0.50192 0.07779 0.50806 0.0
C39 C 0.51477 0.09999 0.48571 0.0
C40 C 0.49752 0.09341 0.45844 0.0
C41 C 0.46731 0.06344 0.45349 0.0
H42 H 0.41435 0.44735 0.57243 0.0
H43 H 0.44845 0.46474 0.66271 0.0
H44 H 0.4487 0.54242 0.6149 0.0
H45 H 0.40672 0.40201 0.60158 0.0
H46 H 0.41752 0.40881 0.64004 0.0
H47 H 0.46082 0.43344 0.56807 0.0
H48 H 0.53428 0.40839 0.59389 0.0
H49 H 0.45922 0.39616 0.65346 0.0
C50 C 0.42533 0.46421 0.59148 0.0
C51 C 0.43017 0.4962 0.59073 0.0
C52 C 0.43329 0.45336 0.61715 0.0
C53 C 0.44492 0.47434 0.64257 0.0
C54 C 0.44975 0.50645 0.64235 0.0
C55 C 0.4444 0.5176 0.61567 0.0
C56 C 0.4266 0.41841 0.6182 0.0
C57 C 0.45756 0.41681 0.61215 0.0
C58 C 0.47175 0.42533 0.58468 0.0
C59 C 0.49979 0.42291 0.57843 0.0
C60 C 0.51313 0.4111 0.59926 0.0
C61 C 0.49824 0.40062 0.62604 0.0
C62 C 0.47095 0.40437 0.63283 0.0
H63 H 0.96445 0.42456 0.77586 0.0
H64 H 0.01864 0.48785 0.85105 0.0
H65 H 0.92391 0.47537 0.82441 0.0
H66 H 0.01979 0.43609 0.78602 0.0
H67 H 0.02228 0.43364 0.82473 0.0
H68 H 0.05354 0.49116 0.7638 0.0
H69 H 0.14157 0.56332 0.81369 0.0
H70 H 0.06989 0.4754 0.85323 0.0
C71 C 0.9667 0.44219 0.7929 0.0
C72 C 0.93995 0.44767 0.79771 0.0
C73 C 0.99583 0.45778 0.81131 0.0
C74 C 0.99749 0.47784 0.83549 0.0
C75 C 0.9713 0.4837 0.84064 0.0
C76 C 0.94377 0.47026 0.82059 0.0
C77 C 0.02343 0.45004 0.80722 0.0
C78 C 0.05722 0.48107 0.80878 0.0
C79 C 0.06852 0.50015 0.78409 0.0
C80 C 0.09958 0.52951 0.78527 0.0
C81 C 0.11802 0.54036 0.81216 0.0
C82 C 0.10835 0.52053 0.83636 0.0
C83 C 0.07766 0.49092 0.83464 0.0
H84 H 0.63115 0.08786 0.00803 0.0
H85 H 0.57477 0.02509 0.93315 0.0
H86 H 0.57997 0.11809 0.94772 0.0
H87 H 0.62322 0.03371 0.00411 0.0
H88 H 0.62386 0.02283 0.96635 0.0
H89 H 0.56258 0.01309 0.02348 0.0
H90 H 0.49212 0.91356 -0.00635 0.0
H91 H 0.58326 0.96826 0.94938 0.0
C92 C 0.61469 0.08309 -0.01095 0.0
C93 C 0.60795 0.10763 0.97975 0.0
C94 C 0.60151 0.05266 0.97299 0.0
C95 C 0.5829 0.04742 0.9467 0.0
C96 C 0.57546 0.07119 0.93743 0.0
C97 C 0.58637 0.10016 0.95494 0.0
C98 C 0.60857 0.02628 -0.01714 0.0
C99 C 0.57635 0.99432 -0.01408 0.0
C100 C 0.55512 0.99223 0.00811 0.0
C101 C 0.52439 0.96338 0.01053 0.0
C102 C 0.51509 0.93645 -0.00926 0.0
C103 C 0.53617 0.93769 0.96882 0.0
C104 C 0.56686 0.96687 0.9664 0.0
H105 H 0.61958 0.57906 0.11302 0.0
H106 H 0.55768 0.56489 0.18604 0.0
H107 H 0.57666 0.48823 0.15715 0.0
H108 H 0.61264 0.62358 0.13008 0.0
H109 H 0.60373 0.62302 0.16792 0.0
H110 H 0.56358 0.59762 0.09211 0.0
H111 H 0.48046 0.6085 0.11482 0.0
H112 H 0.55347 0.62119 0.18162 0.0
C113 C 0.60331 0.56328 0.12928 0.0
C114 C 0.59981 0.53209 0.13278 0.0
C115 C 0.58762 0.57504 0.14816 0.0
C116 C 0.56835 0.5553 0.17051 0.0
C117 C 0.56396 0.52377 0.17359 0.0
C118 C 0.57904 0.51214 0.15416 0.0
C119 C 0.59365 0.60962 0.14626 0.0
C120 C 0.56174 0.60896 0.13788 0.0
C121 C 0.54972 0.60211 0.10856 0.0
C122 C 0.52014 0.60143 0.10037 0.0
C123 C 0.50245 0.60751 0.12164 0.0
C124 C 0.51441 0.61514 0.15099 0.0
C125 C 0.54396 0.6154 0.15904 0.0
Mg126 Mg 0.62353 0.37846 0.34631 0.0
O127 O 0.60845 0.39731 0.3869 0.0
O128 O 0.63024 0.45187 0.38375 0.0
Mg129 Mg 0.65843 0.46785 0.34196 0.0
C130 C 0.61313 0.42519 0.39684 0.0
C131 C 0.58143 0.30357 0.35646 0.0
O132 O 0.56366 0.3066 0.33531 0.0
O133 O 0.67714 0.40103 0.36539 0.0
O134 O 0.69621 0.45473 0.36062 0.0
O135 O 0.57734 0.37034 0.32227 0.0
O136 O 0.62541 0.41728 0.32394 0.0
C137 C 0.70047 0.43114 0.36828 0.0
C138 C 0.59407 0.40116 0.31653 0.0
O139 O 0.60806 0.32903 0.36643 0.0
Mg140 Mg 0.27367 0.6373 0.57545 0.0
O141 O 0.23177 0.61713 0.53947 0.0
O142 O 0.19686 0.56381 0.54698 0.0
Mg143 Mg 0.21511 0.55038 0.58809 0.0
C144 C 0.20567 0.58943 0.53239 0.0
C145 C 0.32055 0.71066 0.56669 0.0
O146 O 0.32005 0.70936 0.59534 0.0
O147 O 0.2972 0.60977 0.55355 0.0
O148 O 0.26118 0.55789 0.56433 0.0
O149 O 0.2443 0.65155 0.60374 0.0
O150 O 0.24055 0.60263 0.60303 0.0
C151 C 0.28795 0.57908 0.55289 0.0
C152 C 0.2299 0.62171 0.61238 0.0
O153 O 0.30456 0.68393 0.55104 0.0
Mg154 Mg 0.63338 0.24919 0.74763 0.0
O155 O 0.62008 0.21646 0.70553 0.0
O156 O 0.64447 0.18589 0.70866 0.0
Mg157 Mg 0.67213 0.19818 0.75331 0.0
C158 C 0.62613 0.19461 0.69492 0.0
C159 C 0.60402 0.29584 0.74027 0.0
O160 O 0.60453 0.29514 0.76897 0.0
O161 O 0.68684 0.28265 0.73455 0.0
O162 O 0.70953 0.25094 0.74065 0.0
O163 O 0.58806 0.20992 0.76688 0.0
O164 O 0.63739 0.21343 0.7702 0.0
C165 C 0.71188 0.27833 0.73436 0.0
C166 C 0.60597 0.19723 0.77488 0.0
O167 O 0.61526 0.2804 0.72557 0.0
Mg168 Mg 0.40633 0.63907 0.85606 0.0
O169 O 0.42676 0.62242 0.89407 0.0
O170 O 0.40542 0.5679 0.88706 0.0
Mg171 Mg 0.37407 0.55018 0.84425 0.0
C172 C 0.42327 0.59502 0.90199 0.0
C173 C 0.45412 0.70914 0.88422 0.0
O174 O 0.47541 0.69972 0.87711 0.0
O175 O 0.35493 0.61493 0.87581 0.0
O176 O 0.33627 0.56145 0.86535 0.0
O177 O 0.44944 0.64863 0.82918 0.0
O178 O 0.40283 0.60056 0.82948 0.0
C179 C 0.33216 0.5846 0.876 0.0
C180 C 0.43253 0.61783 0.82047 0.0
O181 O 0.4231 0.68899 0.87968 0.0
Mg182 Mg 0.78027 0.41989 0.02304 0.0
O183 O 0.81216 0.43284 0.06593 0.0
O184 O 0.84834 0.41502 0.06064 0.0
Mg185 Mg 0.83875 0.38963 0.01529 0.0
C186 C 0.83631 0.42956 0.07574 0.0
C187 C 0.73304 0.44769 0.03035 0.0
O188 O 0.74134 0.45403 0.00307 0.0
O189 O 0.75013 0.3657 0.03406 0.0
O190 O 0.78686 0.34876 0.02774 0.0
O191 O 0.81777 0.46748 0.00541 0.0
O192 O 0.81911 0.42112 0.00046 0.0
C193 C 0.75785 0.34313 0.03395 0.0
C194 C 0.8331 0.45234 -0.00326 0.0
O195 O 0.7444 0.43258 0.045 0.0
Mg196 Mg 0.37143 0.7747 0.18541 0.0
O197 O 0.39335 0.81168 0.22536 0.0
O198 O 0.44802 0.84413 0.2194 0.0
Mg199 Mg 0.46112 0.82859 0.17651 0.0
C200 C 0.42208 0.83565 0.23394 0.0
C201 C 0.30562 0.71228 0.203 0.0
O202 O 0.31721 0.69743 0.18626 0.0
O203 O 0.39455 0.74484 0.20255 0.0
O204 O 0.44837 0.7791 0.19504 0.0
O205 O 0.36228 0.81069 0.16208 0.0
O206 O 0.40919 0.80929 0.16124 0.0
C207 C 0.42493 0.75183 0.20358 0.0
C208 C 0.39293 0.82399 0.15479 0.0
O209 O 0.3228 0.74337 0.20775 0.0
H210 H 0.11558 0.65574 0.27569 0.0
H211 H 0.26607 0.64516 0.20513 0.0
H212 H 0.12636 0.56988 0.27995 0.0
H213 H 0.26839 0.73645 0.22701 0.0
H214 H 0.21016 0.61472 0.22416 0.0
H215 H 0.16606 0.68263 0.24795 0.0
C216 C 0.12809 0.64222 0.27012 0.0
C217 C 0.11688 0.61059 0.28021 0.0
C218 C 0.22294 0.64141 0.22469 0.0
C219 C 0.17496 0.64143 0.24903 0.0
C220 C 0.25483 0.65879 0.21389 0.0
C221 C 0.27203 0.69341 0.2147 0.0
C222 C 0.208 0.65877 0.23599 0.0
C223 C 0.25621 0.70979 0.2262 0.0
C224 C 0.15713 0.65773 0.25462 0.0
C225 C 0.13437 0.59441 0.27275 0.0
N226 N 0.22509 0.69234 0.23634 0.0
N227 N 0.16271 0.61009 0.25777 0.0
H228 H 0.4607 0.11146 0.42383 0.0
H229 H 0.61651 0.28524 0.39284 0.0
H230 H 0.56205 0.13608 0.44446 0.0
H231 H 0.52078 0.24744 0.34738 0.0
H232 H 0.59668 0.23117 0.41308 0.0
H233 H 0.48173 0.1607 0.39547 0.0
C234 C 0.48734 0.12677 0.42192 0.0
C235 C 0.50962 0.11972 0.43692 0.0
C236 C 0.58011 0.23466 0.3985 0.0
C237 C 0.53385 0.17675 0.40517 0.0
C238 C 0.59136 0.26557 0.38709 0.0
C239 C 0.57022 0.27092 0.36851 0.0
C240 C 0.54735 0.20905 0.39163 0.0
C241 C 0.53792 0.24446 0.36165 0.0
C242 C 0.49935 0.15508 0.40591 0.0
C243 C 0.54393 0.14089 0.43387 0.0
N244 N 0.52737 0.21477 0.37342 0.0
N245 N 0.55499 0.16866 0.41873 0.0
H246 H 0.36896 0.45768 0.56284 0.0
H247 H 0.35515 0.61587 0.54417 0.0
H248 H 0.45413 0.55621 0.56534 0.0
H249 H 0.27209 0.51609 0.53718 0.0
H250 H 0.39313 0.59441 0.53832 0.0
H251 H 0.3358 0.47764 0.53873 0.0
C252 C 0.38112 0.48333 0.55743 0.0
C253 C 0.4142 0.50549 0.5671 0.0
C254 C 0.36654 0.57725 0.53738 0.0
C255 C 0.37575 0.52887 0.54049 0.0
C256 C 0.34482 0.58952 0.54064 0.0
C257 C 0.31044 0.56769 0.542 0.0
C258 C 0.35373 0.54295 0.53559 0.0
C259 C 0.29848 0.53381 0.53706 0.0
C260 C 0.36194 0.49486 0.54392 0.0
C261 C 0.42836 0.53845 0.55929 0.0
N262 N 0.3201 0.52248 0.53464 0.0
N263 N 0.40882 0.54937 0.54725 0.0
H264 H 0.87761 0.42865 0.81795 0.0
H265 H 0.76883 0.27884 0.71879 0.0
H266 H 0.9248 0.41742 0.74145 0.0
H267 H 0.73213 0.34341 0.74535 0.0
H268 H 0.82609 0.32512 0.72695 0.0
H269 H 0.82397 0.39387 0.79348 0.0
C270 C 0.87719 0.41987 0.79572 0.0
C271 C 0.90665 0.42711 0.78176 0.0
C272 C 0.80541 0.32924 0.73013 0.0
C273 C 0.84388 0.3848 0.75425 0.0
C274 C 0.77278 0.3029 0.72559 0.0
C275 C 0.74565 0.30716 0.73178 0.0
C276 C 0.81077 0.35962 0.74168 0.0
C277 C 0.75222 0.33891 0.74044 0.0
C278 C 0.84613 0.39952 0.78188 0.0
C279 C 0.90317 0.41257 0.75345 0.0
N280 N 0.78413 0.3637 0.74594 0.0
N281 N 0.87233 0.39159 0.74082 0.0
H282 H 0.57484 0.91088 0.95415 0.0
H283 H 0.41765 0.73921 0.89534 0.0
H284 H 0.47525 0.89475 0.94232 0.0
H285 H 0.51856 0.75765 0.89783 0.0
H286 H 0.43871 0.79658 0.91182 0.0
H287 H 0.5556 0.85598 0.9313 0.0
C288 C 0.5491 0.89607 0.94621 0.0
C289 C 0.52655 0.90729 0.95041 0.0
C290 C 0.45628 0.78812 0.90871 0.0
C291 C 0.50417 0.84418 0.92489 0.0
C292 C 0.44423 0.75528 0.89944 0.0
C293 C 0.46634 0.74352 0.89528 0.0
C294 C 0.49071 0.80942 0.91401 0.0
C295 C 0.50057 0.76559 0.9008 0.0
C296 C 0.53804 0.86459 0.93343 0.0
C297 C 0.49337 0.88686 0.93997 0.0
N298 N 0.51168 0.79742 0.90996 0.0
N299 N 0.48313 0.85624 0.92799 0.0
H300 H 0.63535 0.50611 0.15622 0.0
H301 H 0.70386 0.47984 0.0051 0.0
H302 H 0.61231 0.53425 0.07386 0.0
H303 H 0.71548 0.44327 0.08738 0.0
H304 H 0.67188 0.50156 0.02926 0.0
H305 H 0.66695 0.48538 0.13089 0.0
C306 C 0.63678 0.50773 0.13267 0.0
C307 C 0.62062 0.52138 0.11703 0.0
C308 C 0.68138 0.48871 0.04196 0.0
C309 C 0.65739 0.49795 0.08776 0.0
C310 C 0.69961 0.47627 0.02821 0.0
C311 C 0.71243 0.45971 0.04426 0.0
C312 C 0.67607 0.48471 0.07199 0.0
C313 C 0.70612 0.45582 0.07411 0.0
C314 C 0.65498 0.49597 0.11821 0.0
C315 C 0.62427 0.52378 0.08669 0.0
N316 N 0.6885 0.4683 0.08698 0.0
N317 N 0.64218 0.51199 0.07297 0.0
H318 H 0.37163 0.86409 0.4462 0.0
H319 H 0.3578 0.77226 0.59375 0.0
H320 H 0.42483 0.9168 0.52669 0.0
H321 H 0.31976 0.72276 0.50864 0.0
H322 H 0.38085 0.82546 0.57101 0.0
H323 H 0.34979 0.81238 0.47033 0.0
C324 C 0.37885 0.86474 0.46903 0.0
C325 C 0.40063 0.89478 0.48433 0.0
C326 C 0.36759 0.80294 0.55735 0.0
C327 C 0.37525 0.8353 0.51235 0.0
C328 C 0.35445 0.77254 0.57027 0.0
C329 C 0.33673 0.74295 0.55307 0.0
C330 C 0.36277 0.80373 0.52704 0.0
C331 C 0.33321 0.74487 0.52278 0.0
C332 C 0.36628 0.83514 0.48283 0.0
C333 C 0.40825 0.89416 0.5141 0.0
N334 N 0.34595 0.77469 0.5108 0.0
N335 N 0.39569 0.86479 0.52717 0.0
H336 H 0.50717 0.34991 0.60934 0.0
H337 H 0.58046 0.33434 0.76413 0.0
H338 H 0.51508 0.41058 0.68537 0.0
H339 H 0.59114 0.29422 0.68156 0.0
H340 H 0.55201 0.35879 0.73791 0.0
H341 H 0.53189 0.3243 0.63806 0.0
C342 C 0.51412 0.35779 0.63222 0.0
C343 C 0.50966 0.38281 0.64491 0.0
C344 C 0.56069 0.34468 0.72563 0.0
C345 C 0.53809 0.35347 0.6781 0.0
C346 C 0.57693 0.33075 0.74053 0.0
C347 C 0.58821 0.31219 0.72501 0.0
C348 C 0.55545 0.33968 0.69509 0.0
C349 C 0.58297 0.30834 0.69447 0.0
C350 C 0.52828 0.34318 0.64861 0.0
C351 C 0.51831 0.39148 0.6748 0.0
N352 N 0.5669 0.32183 0.6806 0.0
N353 N 0.53242 0.37698 0.69043 0.0
H354 H 0.14889 0.57998 0.86627 0.0
H355 H 0.2816 0.52361 0.88883 0.0
H356 H 0.12694 0.47913 0.85976 0.0
H357 H 0.3059 0.62505 0.88529 0.0
H358 H 0.22332 0.50722 0.89421 0.0
H359 H 0.20319 0.59624 0.88975 0.0
C360 C 0.15504 0.56108 0.87073 0.0
C361 C 0.13376 0.5283 0.86032 0.0
C362 C 0.24145 0.53315 0.89281 0.0
C363 C 0.19597 0.54675 0.88671 0.0
C364 C 0.2748 0.54256 0.88968 0.0
C365 C 0.2986 0.57569 0.88579 0.0
C366 C 0.23165 0.55694 0.89169 0.0
C367 C 0.28835 0.59917 0.88773 0.0
C368 C 0.18613 0.5704 0.88397 0.0
C369 C 0.14269 0.50473 0.86712 0.0
N370 N 0.25552 0.58925 0.88992 0.0
N371 N 0.17348 0.51455 0.8792 0.0
H372 H 0.62523 0.16589 0.9534 0.0
H373 H 0.76444 0.29202 0.05361 0.0
H374 H 0.63398 0.12953 0.03709 0.0
H375 H 0.69151 0.31499 0.01932 0.0
H376 H 0.72287 0.23297 0.0471 0.0
H377 H 0.65497 0.22137 0.97472 0.0
C378 C 0.6324 0.16904 0.97646 0.0
C379 C 0.62587 0.14206 -0.00654 0.0
C380 C 0.71584 0.25106 0.04183 0.0
C381 C 0.66247 0.20698 0.01744 0.0
C382 C 0.73948 0.28466 0.0454 0.0
C383 C 0.73147 0.30841 0.03672 0.0
C384 C 0.68449 0.24133 0.02869 0.0
C385 C 0.69876 0.29756 0.02625 0.0
C386 C 0.64987 0.20113 -0.01151 0.0
C387 C 0.63836 0.14912 0.02284 0.0
N388 N 0.67674 0.26477 0.02173 0.0
N389 N 0.6566 0.18098 0.03378 0.0
H390 H 0.4475 0.58985 0.15832 0.0
H391 H 0.4837 0.76155 0.22729 0.0
H392 H 0.54428 0.66802 0.19054 0.0
H393 H 0.38623 0.68457 0.19538 0.0
H394 H 0.50294 0.72188 0.22621 0.0
H395 H 0.42195 0.61796 0.1831 0.0
C396 C 0.46332 0.61259 0.17112 0.0
C397 C 0.49815 0.62698 0.1718 0.0
C398 C 0.47714 0.71338 0.22001 0.0
C399 C 0.46911 0.65936 0.20011 0.0
C400 C 0.46611 0.73605 0.2207 0.0
C401 C 0.43351 0.72645 0.21084 0.0
C402 C 0.45562 0.681 0.20878 0.0
C403 C 0.41166 0.69304 0.20292 0.0
C404 C 0.44872 0.6286 0.18531 0.0
C405 C 0.51737 0.65607 0.18924 0.0
N406 N 0.42333 0.67164 0.20137 0.0
N407 N 0.50265 0.67161 0.2022 0.0
H408 H 0.9073 0.5493 0.3679 0.0
H409 H 0.72809 0.39123 0.36668 0.0
H410 H 0.88506 0.45176 0.33881 0.0
H411 H 0.75105 0.49034 0.39069 0.0
H412 H 0.78766 0.40976 0.37073 0.0
H413 H 0.85403 0.5251 0.39132 0.0
C414 C 0.89175 0.52269 0.36731 0.0
C415 C 0.90023 0.50256 0.35075 0.0
C416 C 0.77959 0.42728 0.37575 0.0
C417 C 0.83868 0.47473 0.37665 0.0
C418 C 0.74554 0.41667 0.37354 0.0
C419 C 0.73468 0.43947 0.37758 0.0
C420 C 0.80278 0.46089 0.382 0.0
C421 C 0.7584 0.47208 0.38663 0.0
C422 C 0.86109 0.50886 0.38044 0.0
C423 C 0.87901 0.46821 0.35073 0.0
N424 N 0.79132 0.48192 0.38803 0.0
N425 N 0.84883 0.45541 0.36281 0.0
H426 H 0.09343 0.53441 0.36724 0.0
H427 H 0.19984 0.63888 0.50806 0.0
H428 H 0.0881 0.61808 0.4017 0.0
H429 H 0.16288 0.53418 0.49874 0.0
H430 H 0.16345 0.63373 0.46608 0.0
H431 H 0.12229 0.53482 0.41312 0.0
C432 C 0.09778 0.55239 0.38476 0.0
C433 C 0.08828 0.57609 0.38098 0.0
C434 C 0.16324 0.6119 0.47338 0.0
C435 C 0.12203 0.57744 0.4327 0.0
C436 C 0.18417 0.61486 0.49711 0.0
C437 C 0.1844 0.58692 0.5068 0.0
C438 C 0.14297 0.58094 0.4589 0.0
C439 C 0.16338 0.55632 0.49199 0.0
C440 C 0.11426 0.5527 0.4108 0.0
C441 C 0.09475 0.59919 0.40405 0.0
N442 N 0.14373 0.55418 0.46855 0.0
N443 N 0.11174 0.59965 0.42882 0.0
H444 H 0.47514 0.08274 0.55882 0.0
H445 H 0.64441 0.16109 0.65661 0.0
H446 H 0.5667 0.09787 0.52357 0.0
H447 H 0.56821 0.18644 0.67025 0.0
H448 H 0.61315 0.12833 0.61215 0.0
H449 H 0.50555 0.10982 0.60536 0.0
C450 C 0.50149 0.09105 0.56119 0.0
C451 C 0.51855 0.08811 0.53753 0.0
C452 C 0.60342 0.14117 0.62492 0.0
C453 C 0.55335 0.11926 0.59024 0.0
C454 C 0.6212 0.15986 0.6502 0.0
C455 C 0.60898 0.17668 0.66701 0.0
C456 C 0.57289 0.13871 0.61684 0.0
C457 C 0.57872 0.17418 0.65776 0.0
C458 C 0.51885 0.1068 0.58754 0.0
C459 C 0.55278 0.09974 0.54144 0.0
N460 N 0.56157 0.15532 0.63341 0.0
N461 N 0.56916 0.1149 0.56734 0.0
H462 H 0.42987 0.55178 0.65476 0.0
H463 H 0.41991 0.55416 0.81456 0.0
H464 H 0.48184 0.50689 0.69495 0.0
H465 H 0.47452 0.64937 0.77741 0.0
H466 H 0.43387 0.52973 0.77287 0.0
H467 H 0.43707 0.58249 0.70019 0.0
C468 C 0.44367 0.54878 0.6726 0.0
C469 C 0.4559 0.52678 0.67021 0.0
C470 C 0.44348 0.55609 0.77442 0.0
C471 C 0.46193 0.56088 0.7234 0.0
C472 C 0.43528 0.56997 0.79793 0.0
C473 C 0.4457 0.6037 0.79909 0.0
C474 C 0.46128 0.57601 0.75175 0.0
C475 C 0.46594 0.62323 0.77722 0.0
C476 C 0.44732 0.56626 0.69878 0.0
C477 C 0.4716 0.52309 0.69545 0.0
N478 N 0.47225 0.60891 0.7539 0.0
N479 N 0.47357 0.53949 0.72125 0.0
H480 H 0.9878 0.47097 0.89446 0.0
H481 H 0.85624 0.50806 0.96601 0.0
H482 H 0.94768 0.52598 0.85336 0.0
H483 H 0.88253 0.43696 -0.00572 0.0
H484 H 0.90379 0.53059 0.93432 0.0
H485 H 0.9658 0.47656 0.9405 0.0
C486 C 0.97543 0.4853 0.89525 0.0
C487 C 0.96867 0.49713 0.86968 0.0
C488 C 0.89949 0.51048 0.94795 0.0
C489 C 0.9423 0.50248 0.9223 0.0
C490 C 0.8724 0.49763 0.96602 0.0
C491 C 0.86488 0.46993 0.98207 0.0
C492 C 0.91921 0.49564 0.94624 0.0
C493 C 0.88672 0.45756 0.98154 0.0
C494 C 0.96248 0.48813 0.9216 0.0
C495 C 0.95244 0.51547 0.87233 0.0
N496 N 0.91264 0.47022 0.9636 0.0
N497 N 0.93897 0.51682 0.898 0.0
H498 H 0.45717 0.93911 0.00976 0.0
H499 H 0.45572 0.87579 0.16604 0.0
H500 H 0.54396 0.97651 0.06839 0.0
H501 H 0.36702 0.84398 0.11126 0.0
H502 H 0.48594 0.92284 0.1359 0.0
H503 H 0.42172 0.91565 0.0511 0.0
C504 C 0.46869 0.94319 0.03155 0.0
C505 C 0.50345 0.95899 0.03567 0.0
C506 C 0.45974 0.90593 0.13061 0.0
C507 C 0.46327 0.93172 0.08284 0.0
C508 C 0.4426 0.87884 0.14766 0.0
C509 C 0.40928 0.85544 0.14034 0.0
C510 C 0.44357 0.90918 0.10568 0.0
C511 C 0.39295 0.8613 0.1172 0.0
C512 C 0.44848 0.92976 0.05513 0.0
C513 C 0.51723 0.96415 0.06427 0.0
N514 N 0.4105 0.88723 0.10017 0.0
N515 N 0.49709 0.9498 0.0867 0.0
H516 H 0.51823 0.45813 0.17689 0.0
H517 H 0.60805 0.46472 0.32609 0.0
H518 H 0.57923 0.54708 0.23041 0.0
H519 H 0.54177 0.37441 0.27629 0.0
H520 H 0.58634 0.49338 0.29774 0.0
H521 H 0.5133 0.42558 0.21908 0.0
C522 C 0.52954 0.47079 0.19785 0.0
C523 C 0.54986 0.50525 0.20006 0.0
C524 C 0.57617 0.46721 0.29316 0.0
C525 C 0.54516 0.46834 0.24809 0.0
C526 C 0.58894 0.45093 0.30913 0.0
C527 C 0.57764 0.4175 0.30268 0.0
C528 C 0.55233 0.45003 0.27019 0.0
C529 C 0.5516 0.40042 0.28149 0.0
C530 C 0.52692 0.45223 0.2219 0.0
C531 C 0.56364 0.52053 0.2277 0.0
N532 N 0.54032 0.41706 0.26549 0.0
N533 N 0.56182 0.50194 0.25048 0.0
H534 H 0.48605 0.94544 0.39977 0.0
H535 H 0.37304 0.84064 0.26158 0.0
H536 H 0.39458 0.94285 0.37544 0.0
H537 H 0.4789 0.87702 0.26683 0.0
H538 H 0.3799 0.87625 0.30457 0.0
H539 H 0.48479 0.92074 0.35138 0.0
C540 C 0.46635 0.94066 0.38377 0.0
C541 C 0.44058 0.9464 0.39124 0.0
C542 C 0.40162 0.87654 0.29617 0.0
C543 C 0.43804 0.91689 0.3367 0.0
C544 C 0.39767 0.85595 0.27186 0.0
C545 C 0.42541 0.85572 0.26072 0.0
C546 C 0.43343 0.8966 0.30969 0.0
C547 C 0.45682 0.87639 0.27472 0.0
C548 C 0.46543 0.92633 0.35633 0.0
C549 C 0.41511 0.93916 0.37018 0.0
N550 N 0.45994 0.89579 0.29863 0.0
N551 N 0.41411 0.92416 0.34398 0.0
H552 H 0.469 0.38879 0.52737 0.0
H553 H 0.63163 0.4783 0.43468 0.0
H554 H 0.56213 0.46888 0.56401 0.0
H555 H 0.55654 0.37578 0.41904 0.0
H556 H 0.60203 0.48122 0.47716 0.0
H557 H 0.49603 0.39072 0.4814 0.0
C558 C 0.49489 0.40739 0.52533 0.0
C559 C 0.51348 0.42887 0.54917 0.0
C560 C 0.59212 0.45813 0.46439 0.0
C561 C 0.54444 0.4309 0.49734 0.0
C562 C 0.60895 0.4564 0.44023 0.0
C563 C 0.5966 0.42667 0.42347 0.0
C564 C 0.56241 0.43013 0.47147 0.0
C565 C 0.5671 0.39906 0.43158 0.0
C566 C 0.51035 0.40821 0.49937 0.0
C567 C 0.54708 0.45211 0.54589 0.0
N568 N 0.55085 0.4015 0.45495 0.0
N569 N 0.56159 0.45249 0.5204 0.0
H570 H 0.16601 0.56303 0.77334 0.0
H571 H 0.1757 0.55982 0.61593 0.0
H572 H 0.06882 0.53437 0.73407 0.0
H573 H 0.22387 0.65809 0.65645 0.0
H574 H 0.13742 0.54028 0.65626 0.0
H575 H 0.19115 0.58964 0.72912 0.0
C576 C 0.14975 0.56289 0.75594 0.0
C577 C 0.11493 0.54685 0.75817 0.0
C578 C 0.15583 0.56625 0.65571 0.0
C579 C 0.14421 0.57582 0.7065 0.0
C580 C 0.17789 0.57731 0.63305 0.0
C581 C 0.20325 0.61045 0.63328 0.0
C582 C 0.15993 0.58839 0.67887 0.0
C583 C 0.20469 0.63231 0.65564 0.0
C584 C 0.16435 0.57787 0.73051 0.0
C585 C 0.09564 0.54613 0.73355 0.0
N586 N 0.18394 0.62068 0.67813 0.0
N587 N 0.11054 0.55998 0.70842 0.0
H588 H 0.52676 0.08402 0.91831 0.0
H589 H 0.63129 0.15623 0.78253 0.0
H590 H 0.59711 0.05695 0.88738 0.0
H591 H 0.54645 0.1667 0.8013 0.0
H592 H 0.61077 0.11001 0.81418 0.0
H593 H 0.52335 0.10264 0.86974 0.0
C594 C 0.54057 0.08092 0.90097 0.0
C595 C 0.56297 0.06985 0.90704 0.0
C596 C 0.59621 0.12194 0.811 0.0
C597 C 0.5599 0.09177 0.85179 0.0
C598 C 0.60812 0.14857 0.793 0.0
C599 C 0.59104 0.16591 0.78986 0.0
C600 C 0.56747 0.11312 0.82659 0.0
C601 C 0.5607 0.15433 0.80351 0.0
C602 C 0.53873 0.09166 0.87326 0.0
C603 C 0.57986 0.06576 0.88376 0.0
N604 N 0.55026 0.12913 0.82187 0.0
N605 N 0.57873 0.07763 0.85735 0.0
H606 H 0.5548 0.63839 0.05546 0.0
H607 H 0.40625 0.54207 0.93526 0.0
H608 H 0.45968 0.55596 0.07534 0.0
H609 H 0.47736 0.64609 0.93206 0.0
H610 H 0.43211 0.54143 0.98226 0.0
H611 H 0.5331 0.63574 0.00527 0.0
C612 C 0.52956 0.61937 0.049 0.0
C613 C 0.50889 0.59732 0.06931 0.0
C614 C 0.44209 0.56431 0.97115 0.0
C615 C 0.48412 0.59417 0.01246 0.0
C616 C 0.42747 0.56472 0.94432 0.0
C617 C 0.43959 0.59425 0.92982 0.0
C618 C 0.46936 0.59348 -0.01668 0.0
C619 C 0.46708 0.62288 0.94265 0.0
C620 C 0.51717 0.61805 0.02058 0.0
C621 C 0.47627 0.57337 0.06019 0.0
N622 N 0.48115 0.62177 0.96869 0.0
N623 N 0.46484 0.57238 0.03235 0.0
H624 H 0.96882 0.50916 0.23134 0.0
H625 H 0.81416 0.45615 0.11759 0.0
H626 H 0.87878 0.50873 0.25288 0.0
H627 H 0.89372 0.43634 0.10095 0.0
H628 H 0.84049 0.48064 0.16569 0.0
H629 H 0.94489 0.488 0.18143 0.0
C630 C 0.94415 0.50478 0.22546 0.0
C631 C 0.92553 0.51023 0.24622 0.0
C632 C 0.85217 0.4709 0.15152 0.0
C633 C 0.89815 0.48629 0.1896 0.0
C634 C 0.83714 0.45691 0.12402 0.0
C635 C 0.85163 0.444 0.1052 0.0
C636 C 0.88206 0.47224 0.16025 0.0
C637 C 0.88151 0.44577 0.11477 0.0
C638 C 0.93044 0.49259 0.19713 0.0
C639 C 0.89369 0.50427 0.23762 0.0
N640 N 0.89576 0.45968 0.14162 0.0
N641 N 0.88101 0.49258 0.21001 0.0
loop_
_geom_bond_atom_site_label_1
_geom_bond_atom_site_label_2
_geom_bond_distance
_geom_bond_site_symmetry_2
_ccdc_geom_bond_type
H0 C8 0.930 . S
H1 C11 0.930 . S
H2 C13 0.930 . S
H3 C14 0.957 1_655 S
H4 C14 0.970 . S
H5 C16 0.930 . S
H6 C18 0.930 . S
H7 C20 0.930 . S
C8 H0 0.930 . S
C8 C9 1.382 . S
C8 C10 1.426 . S
C9 C8 1.382 . S
C9 C13 1.389 . S
C10 C8 1.426 . S
C10 C11 1.375 . S
C10 C14 1.532 1_655 S
C11 H1 0.930 . S
C11 C10 1.375 . S
C11 C12 1.416 . S
C12 C11 1.416 . S
C12 C13 1.371 . S
C13 H2 0.930 . S
C13 C9 1.389 . S
C13 C12 1.371 . S
C14 H3 0.957 1_455 S
C14 H4 0.970 . S
C14 C10 1.532 1_455 S
C14 C15 1.499 . S
C15 C14 1.499 . S
C15 C16 1.370 . S
C15 C20 1.415 . S
C16 H5 0.930 . S
C16 C15 1.370 . S
C16 C17 1.407 . S
C17 C16 1.407 . S
C17 C18 1.365 . S
C18 H6 0.930 . S
C18 C17 1.365 . S
C18 C19 1.393 . S
C19 C18 1.393 . S
C19 C20 1.387 . S
C20 H7 0.930 . S
C20 C15 1.415 . S
C20 C19 1.387 . S
H21 C29 0.930 . S
H22 C32 0.930 . S
H23 C34 0.930 . S
H24 C35 0.970 . S
H25 C35 0.970 . S
H26 C37 0.930 . S
H27 C39 0.930 . S
H28 C41 0.930 . S
C29 H21 0.930 . S
C29 C30 1.382 . S
C29 C31 1.426 . S
C30 C29 1.382 . S
C30 C34 1.389 . S
C31 C29 1.426 . S
C31 C32 1.375 . S
C31 C35 1.532 1_565 S
C32 H22 0.930 . S
C32 C31 1.375 . S
C32 C33 1.416 . S
C33 C32 1.416 . S
C33 C34 1.371 . S
C34 H23 0.930 . S
C34 C30 1.389 . S
C34 C33 1.371 . S
C35 H24 0.970 . S
C35 H25 0.970 . S
C35 C31 1.532 1_545 S
C35 C36 1.499 . S
C36 C35 1.499 . S
C36 C37 1.370 . S
C36 C41 1.415 . S
C37 H26 0.930 . S
C37 C36 1.370 . S
C37 C38 1.407 . S
C38 C37 1.407 . S
C38 C39 1.365 . S
C39 H27 0.930 . S
C39 C38 1.365 . S
C39 C40 1.393 . S
C40 C39 1.393 . S
C40 C41 1.387 . S
C41 H28 0.930 . S
C41 C36 1.415 . S
C41 C40 1.387 . S
H42 C50 0.930 . S
H43 C53 0.930 . S
H44 C55 0.930 . S
H45 C56 0.970 . S
H46 C56 0.970 . S
H47 C58 0.930 . S
H48 C60 0.930 . S
H49 C62 0.930 . S
C50 H42 0.930 . S
C50 C51 1.382 . S
C50 C52 1.426 . S
C51 C50 1.382 . S
C51 C55 1.389 . S
C52 C50 1.426 . S
C52 C53 1.375 . S
C52 C56 1.532 . S
C53 H43 0.930 . S
C53 C52 1.375 . S
C53 C54 1.416 . S
C54 C53 1.416 . S
C54 C55 1.371 . S
C55 H44 0.930 . S
C55 C51 1.389 . S
C55 C54 1.371 . S
C56 H45 0.970 . S
C56 H46 0.970 . S
C56 C52 1.532 . S
C56 C57 1.499 . S
C57 C56 1.499 . S
C57 C58 1.370 . S
C57 C62 1.415 . S
C58 H47 0.930 . S
C58 C57 1.370 . S
C58 C59 1.407 . S
C59 C58 1.407 . S
C59 C60 1.365 . S
C60 H48 0.930 . S
C60 C59 1.365 . S
C60 C61 1.393 . S
C61 C60 1.393 . S
C61 C62 1.387 . S
C62 H49 0.930 . S
C62 C57 1.415 . S
C62 C61 1.387 . S
H63 C71 0.930 . S
H64 C74 0.930 . S
H65 C76 0.930 . S
H66 C77 0.970 . S
H67 C77 0.970 . S
H68 C79 0.930 . S
H69 C81 0.930 . S
H70 C83 0.930 . S
C71 H63 0.930 . S
C71 C72 1.382 . S
C71 C73 1.426 . S
C72 C71 1.382 . S
C72 C76 1.389 . S
C73 C71 1.426 . S
C73 C74 1.375 . S
C73 C77 1.532 1_655 S
C74 H64 0.930 . S
C74 C73 1.375 . S
C74 C75 1.416 . S
C75 C74 1.416 . S
C75 C76 1.371 . S
C76 H65 0.930 . S
C76 C72 1.389 . S
C76 C75 1.371 . S
C77 H66 0.970 . S
C77 H67 0.970 . S
C77 C73 1.532 1_455 S
C77 C78 1.499 . S
C78 C77 1.499 . S
C78 C79 1.370 . S
C78 C83 1.415 . S
C79 H68 0.930 . S
C79 C78 1.370 . S
C79 C80 1.407 . S
C80 C79 1.407 . S
C80 C81 1.365 . S
C81 H69 0.930 . S
C81 C80 1.365 . S
C81 C82 1.393 . S
C82 C81 1.393 . S
C82 C83 1.387 . S
C83 H70 0.930 . S
C83 C78 1.415 . S
C83 C82 1.387 . S
H84 C92 0.930 . S
H85 C95 0.930 . S
H86 C97 0.930 . S
H87 C98 0.970 1_554 S
H88 C98 0.970 . S
H89 C100 0.930 . S
H90 C102 0.930 . S
H91 C104 0.930 . S
C92 H84 0.930 . S
C92 C93 1.382 1_554 S
C92 C94 1.426 1_554 S
C93 C92 1.382 1_556 S
C93 C97 1.389 . S
C94 C92 1.426 1_556 S
C94 C95 1.375 . S
C94 C98 1.532 . S
C95 H85 0.930 . S
C95 C94 1.375 . S
C95 C96 1.416 . S
C96 C95 1.416 . S
C96 C97 1.371 . S
C97 H86 0.930 . S
C97 C93 1.389 . S
C97 C96 1.371 . S
C98 H87 0.970 1_556 S
C98 H88 0.970 . S
C98 C94 1.532 . S
C98 C99 1.499 1_545 S
C99 C98 1.499 1_565 S
C99 C100 1.370 1_556 S
C99 C104 1.415 . S
C100 H89 0.930 . S
C100 C99 1.370 1_554 S
C100 C101 1.407 . S
C101 C100 1.407 . S
C101 C102 1.365 . S
C102 H90 0.930 . S
C102 C101 1.365 . S
C102 C103 1.393 1_554 S
C103 C102 1.393 1_556 S
C103 C104 1.387 . S
C104 H91 0.930 . S
C104 C99 1.415 . S
C104 C103 1.387 . S
H105 C113 0.930 . S
H106 C116 0.930 . S
H107 C118 0.930 . S
H108 C119 0.970 . S
H109 C119 0.970 . S
H110 C121 0.930 . S
H111 C123 0.930 . S
H112 C125 0.930 . S
C113 H105 0.930 . S
C113 C114 1.382 . S
C113 C115 1.426 . S
C114 C113 1.382 . S
C114 C118 1.389 . S
C115 C113 1.426 . S
C115 C116 1.375 . S
C115 C119 1.532 . S
C116 H106 0.930 . S
C116 C115 1.375 . S
C116 C117 1.416 . S
C117 C116 1.416 . S
C117 C118 1.371 . S
C118 H107 0.930 . S
C118 C114 1.389 . S
C118 C117 1.371 . S
C119 H108 0.970 . S
C119 H109 0.970 . S
C119 C115 1.532 . S
C119 C120 1.499 . S
C120 C119 1.499 . S
C120 C121 1.370 . S
C120 C125 1.415 . S
C121 H110 0.930 . S
C121 C120 1.370 . S
C121 C122 1.407 . S
C122 C121 1.407 . S
C122 C123 1.365 . S
C123 H111 0.930 . S
C123 C122 1.365 . S
C123 C124 1.393 . S
C124 C123 1.393 . S
C124 C125 1.387 . S
C125 H112 0.930 . S
C125 C120 1.415 . S
C125 C124 1.387 . S
Mg126 O127 2.028 . S
Mg126 O133 1.986 . S
Mg126 O135 2.114 . S
Mg126 O136 2.251 . S
Mg126 O139 2.010 . S
O127 Mg126 2.028 . S
O127 C130 1.250 . S
O128 Mg129 2.028 . S
O128 C130 1.248 . S
Mg129 O128 2.028 . S
Mg129 O134 2.032 . S
Mg129 O136 2.079 . S
C130 O127 1.250 . S
C130 O128 1.248 . S
C131 O132 1.264 . S
C131 O139 1.249 . S
O132 C131 1.264 . S
O133 Mg126 1.986 . S
O133 C137 1.246 . S
O134 Mg129 2.032 . S
O134 C137 1.259 . S
O135 Mg126 2.114 . S
O135 C138 1.252 . S
O136 Mg126 2.251 . S
O136 Mg129 2.079 . S
O136 C138 1.273 . S
C137 O133 1.246 . S
C137 O134 1.259 . S
C138 O135 1.252 . S
C138 O136 1.273 . S
O139 Mg126 2.010 . S
O139 C131 1.249 . S
Mg140 O141 2.028 . S
Mg140 O147 1.986 . S
Mg140 O149 2.114 . S
Mg140 O150 2.251 . S
Mg140 O153 2.010 . S
O141 Mg140 2.028 . S
O141 C144 1.250 . S
O142 Mg143 2.028 . S
O142 C144 1.248 . S
Mg143 O142 2.028 . S
Mg143 O148 2.032 . S
Mg143 O150 2.079 . S
C144 O141 1.250 . S
C144 O142 1.248 . S
C145 O146 1.264 . S
C145 O153 1.249 . S
O146 C145 1.264 . S
O147 Mg140 1.986 . S
O147 C151 1.246 . S
O148 Mg143 2.032 . S
O148 C151 1.259 . S
O149 Mg140 2.114 . S
O149 C152 1.252 . S
O150 Mg140 2.251 . S
O150 Mg143 2.079 . S
O150 C152 1.273 . S
C151 O147 1.246 . S
C151 O148 1.259 . S
C152 O149 1.252 . S
C152 O150 1.273 . S
O153 Mg140 2.010 . S
O153 C145 1.249 . S
Mg154 O155 2.028 . S
Mg154 O161 1.986 . S
Mg154 O163 2.114 . S
Mg154 O164 2.251 . S
Mg154 O167 2.010 . S
O155 Mg154 2.028 . S
O155 C158 1.250 . S
O156 Mg157 2.028 . S
O156 C158 1.248 . S
Mg157 O156 2.028 . S
Mg157 O162 2.032 . S
Mg157 O164 2.079 . S
C158 O155 1.250 . S
C158 O156 1.248 . S
C159 O160 1.264 . S
C159 O167 1.249 . S
O160 C159 1.264 . S
O161 Mg154 1.986 . S
O161 C165 1.246 . S
O162 Mg157 2.032 . S
O162 C165 1.259 . S
O163 Mg154 2.114 . S
O163 C166 1.252 . S
O164 Mg154 2.251 . S
O164 Mg157 2.079 . S
O164 C166 1.273 . S
C165 O161 1.246 . S
C165 O162 1.259 . S
C166 O163 1.252 . S
C166 O164 1.273 . S
O167 Mg154 2.010 . S
O167 C159 1.249 . S
Mg168 O169 2.028 . S
Mg168 O175 1.986 . S
Mg168 O177 2.114 . S
Mg168 O178 2.251 . S
Mg168 O181 2.010 . S
O169 Mg168 2.028 . S
O169 C172 1.250 . S
O170 Mg171 2.028 . S
O170 C172 1.248 . S
Mg171 O170 2.028 . S
Mg171 O176 2.032 . S
Mg171 O178 2.079 . S
C172 O169 1.250 . S
C172 O170 1.248 . S
C173 O174 1.264 . S
C173 O181 1.249 . S
O174 C173 1.264 . S
O175 Mg168 1.986 . S
O175 C179 1.246 . S
O176 Mg171 2.032 . S
O176 C179 1.259 . S
O177 Mg168 2.114 . S
O177 C180 1.252 . S
O178 Mg168 2.251 . S
O178 Mg171 2.079 . S
O178 C180 1.273 . S
C179 O175 1.246 . S
C179 O176 1.259 . S
C180 O177 1.252 . S
C180 O178 1.273 . S
O181 Mg168 2.010 . S
O181 C173 1.249 . S
Mg182 O183 2.028 . S
Mg182 O189 1.986 . S
Mg182 O191 2.114 . S
Mg182 O192 2.251 . S
Mg182 O195 2.010 . S
O183 Mg182 2.028 . S
O183 C186 1.250 . S
O184 Mg185 2.028 . S
O184 C186 1.248 . S
Mg185 O184 2.028 . S
Mg185 O190 2.032 . S
Mg185 O192 2.079 . S
C186 O183 1.250 . S
C186 O184 1.248 . S
C187 O188 1.264 . S
C187 O195 1.249 . S
O188 C187 1.264 . S
O189 Mg182 1.986 . S
O189 C193 1.246 . S
O190 Mg185 2.032 . S
O190 C193 1.259 . S
O191 Mg182 2.114 . S
O191 C194 1.252 . S
O192 Mg182 2.251 . S
O192 Mg185 2.079 . S
O192 C194 1.273 . S
C193 O189 1.246 . S
C193 O190 1.259 . S
C194 O191 1.252 . S
C194 O192 1.273 . S
O195 Mg182 2.010 . S
O195 C187 1.249 . S
Mg196 O197 2.028 . S
Mg196 O203 1.986 . S
Mg196 O205 2.114 . S
Mg196 O206 2.251 . S
Mg196 O209 2.010 . S
O197 Mg196 2.028 . S
O197 C200 1.250 . S
O198 Mg199 2.028 . S
O198 C200 1.248 . S
Mg199 O198 2.028 . S
Mg199 O204 2.032 . S
Mg199 O206 2.079 . S
C200 O197 1.250 . S
C200 O198 1.248 . S
C201 O202 1.264 . S
C201 O209 1.249 . S
O202 C201 1.264 . S
O203 Mg196 1.986 . S
O203 C207 1.246 . S
O204 Mg199 2.032 . S
O204 C207 1.259 . S
O205 Mg196 2.114 . S
O205 C208 1.252 . S
O206 Mg196 2.251 . S
O206 Mg199 2.079 . S
O206 C208 1.273 . S
C207 O203 1.246 . S
C207 O204 1.259 . S
C208 O205 1.252 . S
C208 O206 1.273 . S
O209 Mg196 2.010 . S
O209 C201 1.249 . S
H210 C216 0.930 . S
H211 C220 0.930 . S
H212 C225 0.929 . S
H213 C223 0.929 . S
H214 C218 0.929 . S
H215 C224 0.929 . S
C216 H210 0.930 . S
C216 C217 1.367 . S
C216 C224 1.378 . S
C217 C216 1.367 . S
C217 C225 1.433 . S
C218 H214 0.929 . S
C218 C220 1.378 . S
C218 C222 1.350 . S
C219 C222 1.463 . S
C219 C224 1.350 . S
C219 N227 1.427 . S
C220 H211 0.930 . S
C220 C218 1.378 . S
C220 C221 1.367 . S
C221 C220 1.367 . S
C221 C223 1.433 . S
C222 C218 1.350 . S
C222 C219 1.463 . S
C222 N226 1.427 . S
C223 H213 0.929 . S
C223 C221 1.433 . S
C223 N226 1.384 . S
C224 H215 0.929 . S
C224 C216 1.378 . S
C224 C219 1.350 . S
C225 H212 0.929 . S
C225 C217 1.433 . S
C225 N227 1.384 . S
N226 C222 1.427 . S
N226 C223 1.384 . S
N227 C219 1.427 . S
N227 C225 1.384 . S
H228 C234 0.930 . S
H229 C238 0.930 . S
H230 C243 0.929 . S
H231 C241 0.929 . S
H232 C236 0.929 . S
H233 C242 0.929 . S
C234 H228 0.930 . S
C234 C235 1.367 . S
C234 C242 1.378 . S
C235 C234 1.367 . S
C235 C243 1.433 . S
C236 H232 0.929 . S
C236 C238 1.378 . S
C236 C240 1.350 . S
C237 C240 1.463 . S
C237 C242 1.350 . S
C237 N245 1.427 . S
C238 H229 0.930 . S
C238 C236 1.378 . S
C238 C239 1.367 . S
C239 C238 1.367 . S
C239 C241 1.433 . S
C240 C236 1.350 . S
C240 C237 1.463 . S
C240 N244 1.427 . S
C241 H231 0.929 . S
C241 C239 1.433 . S
C241 N244 1.384 . S
C242 H233 0.929 . S
C242 C234 1.378 . S
C242 C237 1.350 . S
C243 H230 0.929 . S
C243 C235 1.433 . S
C243 N245 1.384 . S
N244 C240 1.427 . S
N244 C241 1.384 . S
N245 C237 1.427 . S
N245 C243 1.384 . S
H246 C252 0.930 . S
H247 C256 0.930 . S
H248 C261 0.929 . S
H249 C259 0.929 . S
H250 C254 0.929 . S
H251 C260 0.929 . S
C252 H246 0.930 . S
C252 C253 1.367 . S
C252 C260 1.378 . S
C253 C252 1.367 . S
C253 C261 1.433 . S
C254 H250 0.929 . S
C254 C256 1.378 . S
C254 C258 1.350 . S
C255 C258 1.463 . S
C255 C260 1.350 . S
C255 N263 1.427 . S
C256 H247 0.930 . S
C256 C254 1.378 . S
C256 C257 1.367 . S
C257 C256 1.367 . S
C257 C259 1.433 . S
C258 C254 1.350 . S
C258 C255 1.463 . S
C258 N262 1.427 . S
C259 H249 0.929 . S
C259 C257 1.433 . S
C259 N262 1.384 . S
C260 H251 0.929 . S
C260 C252 1.378 . S
C260 C255 1.350 . S
C261 H248 0.929 . S
C261 C253 1.433 . S
C261 N263 1.384 . S
N262 C258 1.427 . S
N262 C259 1.384 . S
N263 C255 1.427 . S
N263 C261 1.384 . S
H264 C270 0.930 . S
H265 C274 0.930 . S
H266 C279 0.929 . S
H267 C277 0.929 . S
H268 C272 0.929 . S
H269 C278 0.929 . S
C270 H264 0.930 . S
C270 C271 1.367 . S
C270 C278 1.378 . S
C271 C270 1.367 . S
C271 C279 1.433 . S
C272 H268 0.929 . S
C272 C274 1.378 . S
C272 C276 1.350 . S
C273 C276 1.463 . S
C273 C278 1.350 . S
C273 N281 1.427 . S
C274 H265 0.930 . S
C274 C272 1.378 . S
C274 C275 1.367 . S
C275 C274 1.367 . S
C275 C277 1.433 . S
C276 C272 1.350 . S
C276 C273 1.463 . S
C276 N280 1.427 . S
C277 H267 0.929 . S
C277 C275 1.433 . S
C277 N280 1.384 . S
C278 H269 0.929 . S
C278 C270 1.378 . S
C278 C273 1.350 . S
C279 H266 0.929 . S
C279 C271 1.433 . S
C279 N281 1.384 . S
N280 C276 1.427 . S
N280 C277 1.384 . S
N281 C273 1.427 . S
N281 C279 1.384 . S
H282 C288 0.930 . S
H283 C292 0.930 . S
H284 C297 0.929 . S
H285 C295 0.929 . S
H286 C290 0.929 . S
H287 C296 0.929 . S
C288 H282 0.930 . S
C288 C289 1.367 . S
C288 C296 1.378 . S
C289 C288 1.367 . S
C289 C297 1.433 . S
C290 H286 0.929 . S
C290 C292 1.378 . S
C290 C294 1.350 . S
C291 C294 1.463 . S
C291 C296 1.350 . S
C291 N299 1.427 . S
C292 H283 0.930 . S
C292 C290 1.378 . S
C292 C293 1.367 . S
C293 C292 1.367 . S
C293 C295 1.433 . S
C294 C290 1.350 . S
C294 C291 1.463 . S
C294 N298 1.427 . S
C295 H285 0.929 . S
C295 C293 1.433 . S
C295 N298 1.384 . S
C296 H287 0.929 . S
C296 C288 1.378 . S
C296 C291 1.350 . S
C297 H284 0.929 . S
C297 C289 1.433 . S
C297 N299 1.384 . S
N298 C294 1.427 . S
N298 C295 1.384 . S
N299 C291 1.427 . S
N299 C297 1.384 . S
H300 C306 0.930 . S
H301 C310 0.930 . S
H302 C315 0.929 . S
H303 C313 0.929 . S
H304 C308 0.929 . S
H305 C314 0.929 . S
C306 H300 0.930 . S
C306 C307 1.367 . S
C306 C314 1.378 . S
C307 C306 1.367 . S
C307 C315 1.433 . S
C308 H304 0.929 . S
C308 C310 1.378 . S
C308 C312 1.350 . S
C309 C312 1.463 . S
C309 C314 1.350 . S
C309 N317 1.427 . S
C310 H301 0.930 . S
C310 C308 1.378 . S
C310 C311 1.367 . S
C311 C310 1.367 . S
C311 C313 1.433 . S
C312 C308 1.350 . S
C312 C309 1.463 . S
C312 N316 1.427 . S
C313 H303 0.929 . S
C313 C311 1.433 . S
C313 N316 1.384 . S
C314 H305 0.929 . S
C314 C306 1.378 . S
C314 C309 1.350 . S
C315 H302 0.929 . S
C315 C307 1.433 . S
C315 N317 1.384 . S
N316 C312 1.427 . S
N316 C313 1.384 . S
N317 C309 1.427 . S
N317 C315 1.384 . S
H318 C324 0.930 . S
H319 C328 0.930 . S
H320 C333 0.929 . S
H321 C331 0.929 . S
H322 C326 0.929 . S
H323 C332 0.929 . S
C324 H318 0.930 . S
C324 C325 1.367 . S
C324 C332 1.378 . S
C325 C324 1.367 . S
C325 C333 1.433 . S
C326 H322 0.929 . S
C326 C328 1.378 . S
C326 C330 1.350 . S
C327 C330 1.463 . S
C327 C332 1.350 . S
C327 N335 1.427 . S
C328 H319 0.930 . S
C328 C326 1.378 . S
C328 C329 1.367 . S
C329 C328 1.367 . S
C329 C331 1.433 . S
C330 C326 1.350 . S
C330 C327 1.463 . S
C330 N334 1.427 . S
C331 H321 0.929 . S
C331 C329 1.433 . S
C331 N334 1.384 . S
C332 H323 0.929 . S
C332 C324 1.378 . S
C332 C327 1.350 . S
C333 H320 0.929 . S
C333 C325 1.433 . S
C333 N335 1.384 . S
N334 C330 1.427 . S
N334 C331 1.384 . S
N335 C327 1.427 . S
N335 C333 1.384 . S
H336 C342 0.930 . S
H337 C346 0.930 . S
H338 C351 0.929 . S
H339 C349 0.929 . S
H340 C344 0.929 . S
H341 C350 0.929 . S
C342 H336 0.930 . S
C342 C343 1.367 . S
C342 C350 1.378 . S
C343 C342 1.367 . S
C343 C351 1.433 . S
C344 H340 0.929 . S
C344 C346 1.378 . S
C344 C348 1.350 . S
C345 C348 1.463 . S
C345 C350 1.350 . S
C345 N353 1.427 . S
C346 H337 0.930 . S
C346 C344 1.378 . S
C346 C347 1.367 . S
C347 C346 1.367 . S
C347 C349 1.433 . S
C348 C344 1.350 . S
C348 C345 1.463 . S
C348 N352 1.427 . S
C349 H339 0.929 . S
C349 C347 1.433 . S
C349 N352 1.384 . S
C350 H341 0.929 . S
C350 C342 1.378 . S
C350 C345 1.350 . S
C351 H338 0.929 . S
C351 C343 1.433 . S
C351 N353 1.384 . S
N352 C348 1.427 . S
N352 C349 1.384 . S
N353 C345 1.427 . S
N353 C351 1.384 . S
H354 C360 0.930 . S
H355 C364 0.930 . S
H356 C369 0.929 . S
H357 C367 0.929 . S
H358 C362 0.929 . S
H359 C368 0.929 . S
C360 H354 0.930 . S
C360 C361 1.367 . S
C360 C368 1.378 . S
C361 C360 1.367 . S
C361 C369 1.433 . S
C362 H358 0.929 . S
C362 C364 1.378 . S
C362 C366 1.350 . S
C363 C366 1.463 . S
C363 C368 1.350 . S
C363 N371 1.427 . S
C364 H355 0.930 . S
C364 C362 1.378 . S
C364 C365 1.367 . S
C365 C364 1.367 . S
C365 C367 1.433 . S
C366 C362 1.350 . S
C366 C363 1.463 . S
C366 N370 1.427 . S
C367 H357 0.929 . S
C367 C365 1.433 . S
C367 N370 1.384 . S
C368 H359 0.929 . S
C368 C360 1.378 . S
C368 C363 1.350 . S
C369 H356 0.929 . S
C369 C361 1.433 . S
C369 N371 1.384 . S
N370 C366 1.427 . S
N370 C367 1.384 . S
N371 C363 1.427 . S
N371 C369 1.384 . S
H372 C378 0.930 . S
H373 C382 0.930 . S
H374 C387 0.929 . S
H375 C385 0.929 . S
H376 C380 0.929 . S
H377 C386 0.910 1_556 S
C378 H372 0.930 . S
C378 C379 1.367 1_556 S
C378 C386 1.372 1_556 S
C379 C378 1.367 1_554 S
C379 C387 1.433 . S
C380 H376 0.929 . S
C380 C382 1.378 . S
C380 C384 1.350 . S
C381 C384 1.463 . S
C381 C386 1.375 . S
C381 N389 1.427 . S
C382 H373 0.930 . S
C382 C380 1.378 . S
C382 C383 1.367 . S
C383 C382 1.367 . S
C383 C385 1.433 . S
C384 C380 1.350 . S
C384 C381 1.463 . S
C384 N388 1.427 . S
C385 H375 0.929 . S
C385 C383 1.433 . S
C385 N388 1.384 . S
C386 H377 0.910 1_554 S
C386 C378 1.372 1_554 S
C386 C381 1.375 . S
C387 H374 0.929 . S
C387 C379 1.433 . S
C387 N389 1.384 . S
N388 C384 1.427 . S
N388 C385 1.384 . S
N389 C381 1.427 . S
N389 C387 1.384 . S
H390 C396 0.930 . S
H391 C400 0.930 . S
H392 C405 0.929 . S
H393 C403 0.929 . S
H394 C398 0.929 . S
H395 C404 0.929 . S
C396 H390 0.930 . S
C396 C397 1.367 . S
C396 C404 1.378 . S
C397 C396 1.367 . S
C397 C405 1.433 . S
C398 H394 0.929 . S
C398 C400 1.378 . S
C398 C402 1.350 . S
C399 C402 1.463 . S
C399 C404 1.350 . S
C399 N407 1.427 . S
C400 H391 0.930 . S
C400 C398 1.378 . S
C400 C401 1.367 . S
C401 C400 1.367 . S
C401 C403 1.433 . S
C402 C398 1.350 . S
C402 C399 1.463 . S
C402 N406 1.427 . S
C403 H393 0.929 . S
C403 C401 1.433 . S
C403 N406 1.384 . S
C404 H395 0.929 . S
C404 C396 1.378 . S
C404 C399 1.350 . S
C405 H392 0.929 . S
C405 C397 1.433 . S
C405 N407 1.384 . S
N406 C402 1.427 . S
N406 C403 1.384 . S
N407 C399 1.427 . S
N407 C405 1.384 . S
H408 C414 0.930 . S
H409 C418 0.930 . S
H410 C423 0.929 . S
H411 C421 0.929 . S
H412 C416 0.929 . S
H413 C422 0.929 . S
C414 H408 0.930 . S
C414 C415 1.367 . S
C414 C422 1.378 . S
C415 C414 1.367 . S
C415 C423 1.433 . S
C416 H412 0.929 . S
C416 C418 1.378 . S
C416 C420 1.350 . S
C417 C420 1.463 . S
C417 C422 1.350 . S
C417 N425 1.427 . S
C418 H409 0.930 . S
C418 C416 1.378 . S
C418 C419 1.367 . S
C419 C418 1.367 . S
C419 C421 1.433 . S
C420 C416 1.350 . S
C420 C417 1.463 . S
C420 N424 1.427 . S
C421 H411 0.929 . S
C421 C419 1.433 . S
C421 N424 1.384 . S
C422 H413 0.929 . S
C422 C414 1.378 . S
C422 C417 1.350 . S
C423 H410 0.929 . S
C423 C415 1.433 . S
C423 N425 1.384 . S
N424 C420 1.427 . S
N424 C421 1.384 . S
N425 C417 1.427 . S
N425 C423 1.384 . S
H426 C432 0.930 . S
H427 C436 0.930 . S
H428 C441 0.929 . S
H429 C439 0.929 . S
H430 C434 0.929 . S
H431 C440 0.929 . S
C432 H426 0.930 . S
C432 C433 1.367 . S
C432 C440 1.378 . S
C433 C432 1.367 . S
C433 C441 1.433 . S
C434 H430 0.929 . S
C434 C436 1.378 . S
C434 C438 1.350 . S
C435 C438 1.463 . S
C435 C440 1.350 . S
C435 N443 1.427 . S
C436 H427 0.930 . S
C436 C434 1.378 . S
C436 C437 1.367 . S
C437 C436 1.367 . S
C437 C439 1.433 . S
C438 C434 1.350 . S
C438 C435 1.463 . S
C438 N442 1.427 . S
C439 H429 0.929 . S
C439 C437 1.433 . S
C439 N442 1.384 . S
C440 H431 0.929 . S
C440 C432 1.378 . S
C440 C435 1.350 . S
C441 H428 0.929 . S
C441 C433 1.433 . S
C441 N443 1.384 . S
N442 C438 1.427 . S
N442 C439 1.384 . S
N443 C435 1.427 . S
N443 C441 1.384 . S
H444 C450 0.930 . S
H445 C454 0.930 . S
H446 C459 0.929 . S
H447 C457 0.929 . S
H448 C452 0.929 . S
H449 C458 0.929 . S
C450 H444 0.930 . S
C450 C451 1.367 . S
C450 C458 1.378 . S
C451 C450 1.367 . S
C451 C459 1.433 . S
C452 H448 0.929 . S
C452 C454 1.378 . S
C452 C456 1.350 . S
C453 C456 1.463 . S
C453 C458 1.350 . S
C453 N461 1.427 . S
C454 H445 0.930 . S
C454 C452 1.378 . S
C454 C455 1.367 . S
C455 C454 1.367 . S
C455 C457 1.433 . S
C456 C452 1.350 . S
C456 C453 1.463 . S
C456 N460 1.427 . S
C457 H447 0.929 . S
C457 C455 1.433 . S
C457 N460 1.384 . S
C458 H449 0.929 . S
C458 C450 1.378 . S
C458 C453 1.350 . S
C459 H446 0.929 . S
C459 C451 1.433 . S
C459 N461 1.384 . S
N460 C456 1.427 . S
N460 C457 1.384 . S
N461 C453 1.427 . S
N461 C459 1.384 . S
H462 C468 0.930 . S
H463 C472 0.930 . S
H464 C477 0.929 . S
H465 C475 0.929 . S
H466 C470 0.929 . S
H467 C476 0.929 . S
C468 H462 0.930 . S
C468 C469 1.367 . S
C468 C476 1.378 . S
C469 C468 1.367 . S
C469 C477 1.433 . S
C470 H466 0.929 . S
C470 C472 1.378 . S
C470 C474 1.350 . S
C471 C474 1.463 . S
C471 C476 1.350 . S
C471 N479 1.427 . S
C472 H463 0.930 . S
C472 C470 1.378 . S
C472 C473 1.367 . S
C473 C472 1.367 . S
C473 C475 1.433 . S
C474 C470 1.350 . S
C474 C471 1.463 . S
C474 N478 1.427 . S
C475 H465 0.929 . S
C475 C473 1.433 . S
C475 N478 1.384 . S
C476 H467 0.929 . S
C476 C468 1.378 . S
C476 C471 1.350 . S
C477 H464 0.929 . S
C477 C469 1.433 . S
C477 N479 1.384 . S
N478 C474 1.427 . S
N478 C475 1.384 . S
N479 C471 1.427 . S
N479 C477 1.384 . S
H480 C486 0.930 . S
H481 C490 0.930 . S
H482 C495 0.929 . S
H483 C493 0.929 1_554 S
H484 C488 0.929 . S
H485 C494 0.929 . S
C486 H480 0.930 . S
C486 C487 1.367 . S
C486 C494 1.378 . S
C487 C486 1.367 . S
C487 C495 1.433 . S
C488 H484 0.929 . S
C488 C490 1.378 . S
C488 C492 1.350 . S
C489 C492 1.463 . S
C489 C494 1.350 . S
C489 N497 1.427 . S
C490 H481 0.930 . S
C490 C488 1.378 . S
C490 C491 1.367 . S
C491 C490 1.367 . S
C491 C493 1.433 . S
C492 C488 1.350 . S
C492 C489 1.463 . S
C492 N496 1.427 . S
C493 H483 0.929 1_556 S
C493 C491 1.433 . S
C493 N496 1.384 . S
C494 H485 0.929 . S
C494 C486 1.378 . S
C494 C489 1.350 . S
C495 H482 0.929 . S
C495 C487 1.433 . S
C495 N497 1.384 . S
N496 C492 1.427 . S
N496 C493 1.384 . S
N497 C489 1.427 . S
N497 C495 1.384 . S
H498 C504 0.930 . S
H499 C508 0.930 . S
H500 C513 0.929 . S
H501 C511 0.929 . S
H502 C506 0.929 . S
H503 C512 0.929 . S
C504 H498 0.930 . S
C504 C505 1.367 . S
C504 C512 1.378 . S
C505 C504 1.367 . S
C505 C513 1.433 . S
C506 H502 0.929 . S
C506 C508 1.378 . S
C506 C510 1.350 . S
C507 C510 1.463 . S
C507 C512 1.350 . S
C507 N515 1.427 . S
C508 H499 0.930 . S
C508 C506 1.378 . S
C508 C509 1.367 . S
C509 C508 1.367 . S
C509 C511 1.433 . S
C510 C506 1.350 . S
C510 C507 1.463 . S
C510 N514 1.427 . S
C511 H501 0.929 . S
C511 C509 1.433 . S
C511 N514 1.384 . S
C512 H503 0.929 . S
C512 C504 1.378 . S
C512 C507 1.350 . S
C513 H500 0.929 . S
C513 C505 1.433 . S
C513 N515 1.384 . S
N514 C510 1.427 . S
N514 C511 1.384 . S
N515 C507 1.427 . S
N515 C513 1.384 . S
H516 C522 0.930 . S
H517 C526 0.930 . S
H518 C531 0.929 . S
H519 C529 0.929 . S
H520 C524 0.929 . S
H521 C530 0.929 . S
C522 H516 0.930 . S
C522 C523 1.367 . S
C522 C530 1.378 . S
C523 C522 1.367 . S
C523 C531 1.433 . S
C524 H520 0.929 . S
C524 C526 1.378 . S
C524 C528 1.350 . S
C525 C528 1.463 . S
C525 C530 1.350 . S
C525 N533 1.427 . S
C526 H517 0.930 . S
C526 C524 1.378 . S
C526 C527 1.367 . S
C527 C526 1.367 . S
C527 C529 1.433 . S
C528 C524 1.350 . S
C528 C525 1.463 . S
C528 N532 1.427 . S
C529 H519 0.929 . S
C529 C527 1.433 . S
C529 N532 1.384 . S
C530 H521 0.929 . S
C530 C522 1.378 . S
C530 C525 1.350 . S
C531 H518 0.929 . S
C531 C523 1.433 . S
C531 N533 1.384 . S
N532 C528 1.427 . S
N532 C529 1.384 . S
N533 C525 1.427 . S
N533 C531 1.384 . S
H534 C540 0.930 . S
H535 C544 0.930 . S
H536 C549 0.929 . S
H537 C547 0.929 . S
H538 C542 0.929 . S
H539 C548 0.929 . S
C540 H534 0.930 . S
C540 C541 1.367 . S
C540 C548 1.378 . S
C541 C540 1.367 . S
C541 C549 1.433 . S
C542 H538 0.929 . S
C542 C544 1.378 . S
C542 C546 1.350 . S
C543 C546 1.463 . S
C543 C548 1.350 . S
C543 N551 1.427 . S
C544 H535 0.930 . S
C544 C542 1.378 . S
C544 C545 1.367 . S
C545 C544 1.367 . S
C545 C547 1.433 . S
C546 C542 1.350 . S
C546 C543 1.463 . S
C546 N550 1.427 . S
C547 H537 0.929 . S
C547 C545 1.433 . S
C547 N550 1.384 . S
C548 H539 0.929 . S
C548 C540 1.378 . S
C548 C543 1.350 . S
C549 H536 0.929 . S
C549 C541 1.433 . S
C549 N551 1.384 . S
N550 C546 1.427 . S
N550 C547 1.384 . S
N551 C543 1.427 . S
N551 C549 1.384 . S
H552 C558 0.930 . S
H553 C562 0.930 . S
H554 C567 0.929 . S
H555 C565 0.929 . S
H556 C560 0.929 . S
H557 C566 0.929 . S
C558 H552 0.930 . S
C558 C559 1.367 . S
C558 C566 1.378 . S
C559 C558 1.367 . S
C559 C567 1.433 . S
C560 H556 0.929 . S
C560 C562 1.378 . S
C560 C564 1.350 . S
C561 C564 1.463 . S
C561 C566 1.350 . S
C561 N569 1.427 . S
C562 H553 0.930 . S
C562 C560 1.378 . S
C562 C563 1.367 . S
C563 C562 1.367 . S
C563 C565 1.433 . S
C564 C560 1.350 . S
C564 C561 1.463 . S
C564 N568 1.427 . S
C565 H555 0.929 . S
C565 C563 1.433 . S
C565 N568 1.384 . S
C566 H557 0.929 . S
C566 C558 1.378 . S
C566 C561 1.350 . S
C567 H554 0.929 . S
C567 C559 1.433 . S
C567 N569 1.384 . S
N568 C564 1.427 . S
N568 C565 1.384 . S
N569 C561 1.427 . S
N569 C567 1.384 . S
H570 C576 0.930 . S
H571 C580 0.930 . S
H572 C585 0.929 . S
H573 C583 0.929 . S
H574 C578 0.929 . S
H575 C584 0.929 . S
C576 H570 0.930 . S
C576 C577 1.367 . S
C576 C584 1.378 . S
C577 C576 1.367 . S
C577 C585 1.433 . S
C578 H574 0.929 . S
C578 C580 1.378 . S
C578 C582 1.350 . S
C579 C582 1.463 . S
C579 C584 1.350 . S
C579 N587 1.427 . S
C580 H571 0.930 . S
C580 C578 1.378 . S
C580 C581 1.367 . S
C581 C580 1.367 . S
C581 C583 1.433 . S
C582 C578 1.350 . S
C582 C579 1.463 . S
C582 N586 1.427 . S
C583 H573 0.929 . S
C583 C581 1.433 . S
C583 N586 1.384 . S
C584 H575 0.929 . S
C584 C576 1.378 . S
C584 C579 1.350 . S
C585 H572 0.929 . S
C585 C577 1.433 . S
C585 N587 1.384 . S
N586 C582 1.427 . S
N586 C583 1.384 . S
N587 C579 1.427 . S
N587 C585 1.384 . S
H588 C594 0.930 . S
H589 C598 0.930 . S
H590 C603 0.929 . S
H591 C601 0.929 . S
H592 C596 0.929 . S
H593 C602 0.929 . S
C594 H588 0.930 . S
C594 C595 1.367 . S
C594 C602 1.378 . S
C595 C594 1.367 . S
C595 C603 1.433 . S
C596 H592 0.929 . S
C596 C598 1.378 . S
C596 C600 1.350 . S
C597 C600 1.463 . S
C597 C602 1.350 . S
C597 N605 1.427 . S
C598 H589 0.930 . S
C598 C596 1.378 . S
C598 C599 1.367 . S
C599 C598 1.367 . S
C599 C601 1.433 . S
C600 C596 1.350 . S
C600 C597 1.463 . S
C600 N604 1.427 . S
C601 H591 0.929 . S
C601 C599 1.433 . S
C601 N604 1.384 . S
C602 H593 0.929 . S
C602 C594 1.378 . S
C602 C597 1.350 . S
C603 H590 0.929 . S
C603 C595 1.433 . S
C603 N605 1.384 . S
N604 C600 1.427 . S
N604 C601 1.384 . S
N605 C597 1.427 . S
N605 C603 1.384 . S
H606 C612 0.930 . S
H607 C616 0.930 . S
H608 C621 0.929 . S
H609 C619 0.929 . S
H610 C614 0.929 . S
H611 C620 0.929 . S
C612 H606 0.930 . S
C612 C613 1.367 . S
C612 C620 1.378 . S
C613 C612 1.367 . S
C613 C621 1.433 . S
C614 H610 0.929 . S
C614 C616 1.378 . S
C614 C618 1.350 1_556 S
C615 C618 1.463 . S
C615 C620 1.350 . S
C615 N623 1.427 . S
C616 H607 0.930 . S
C616 C614 1.378 . S
C616 C617 1.367 . S
C617 C616 1.367 . S
C617 C619 1.433 . S
C618 C614 1.350 1_554 S
C618 C615 1.463 . S
C618 N622 1.427 . S
C619 H609 0.929 . S
C619 C617 1.433 . S
C619 N622 1.384 1_556 S
C620 H611 0.929 . S
C620 C612 1.378 . S
C620 C615 1.350 . S
C621 H608 0.929 . S
C621 C613 1.433 . S
C621 N623 1.384 . S
N622 C618 1.427 . S
N622 C619 1.384 1_554 S
N623 C615 1.427 . S
N623 C621 1.384 . S
H624 C630 0.930 . S
H625 C634 0.930 . S
H626 C639 0.929 . S
H627 C637 0.929 . S
H628 C632 0.929 . S
H629 C638 0.929 . S
C630 H624 0.930 . S
C630 C631 1.367 . S
C630 C638 1.378 . S
C631 C630 1.367 . S
C631 C639 1.433 . S
C632 H628 0.929 . S
C632 C634 1.378 . S
C632 C636 1.350 . S
C633 C636 1.463 . S
C633 C638 1.350 . S
C633 N641 1.427 . S
C634 H625 0.930 . S
C634 C632 1.378 . S
C634 C635 1.367 . S
C635 C634 1.367 . S
C635 C637 1.433 . S
C636 C632 1.350 . S
C636 C633 1.463 . S
C636 N640 1.427 . S
C637 H627 0.929 . S
C637 C635 1.433 . S
C637 N640 1.384 . S
C638 H629 0.929 . S
C638 C630 1.378 . S
C638 C633 1.350 . S
C639 H626 0.929 . S
C639 C631 1.433 . S
C639 N641 1.384 . S
N640 C636 1.427 . S
N640 C637 1.384 . S
N641 C633 1.427 . S
N641 C639 1.384 . S
C221 C201 1.274 . S
C217 C19 1.417 . S
C235 C40 1.447 . S
C239 C131 1.312 . S
C253 C51 1.406 . S
C257 C151 1.524 . S
C271 C72 1.358 . S
C275 C165 1.462 . S
C293 C173 1.262 . S
C289 C103 1.400 . S
C307 C114 1.394 . S
C311 C187 1.267 . S
C325 C30 1.430 . S
C329 C145 1.306 . S
C343 C61 1.393 . S
C347 C159 1.249 . S
C361 C82 1.367 . S
C365 C179 1.441 . S
C383 C193 1.482 . S
C379 C93 1.374 1_554 S
C401 C207 1.476 . S
C397 C124 1.412 . S
C419 C137 1.505 . S
C415 C9 1.404 . S
C433 C17 1.415 . S
C437 C144 1.469 . S
C451 C38 1.405 . S
C455 C158 1.463 . S
C473 C180 1.482 . S
C469 C54 1.386 . S
C487 C75 1.401 . S
C491 C194 1.498 1_556 S
C509 C208 1.459 . S
C505 C101 1.379 . S
C527 C138 1.447 . S
C523 C117 1.365 . S
C545 C200 1.448 . S
C541 C33 1.390 . S
C559 C59 1.404 . S
C563 C130 1.458 . S
C581 C152 1.483 . S
C577 C80 1.389 . S
C595 C96 1.404 . S
C599 C166 1.484 . S
C613 C122 1.439 . S
C617 C172 1.492 . S
C631 C12 1.440 . S
C635 C186 1.494 . S
