# Generated by pormake.
# Topology ptr, (4,4)-cn, num edge types: 1
# Building blocks:
#     Node 0, Type 0, BuildingBlock: QUQFOY_clean_sbu_3, # of connection points: 4
#     Node 1, Type 0, BuildingBlock: QUQFOY_clean_sbu_3, # of connection points: 4
#     Node 2, Type 0, BuildingBlock: QUQFOY_clean_sbu_3, # of connection points: 4
#     Node 3, Type 0, BuildingBlock: QUQFOY_clean_sbu_3, # of connection points: 4
#     Node 4, Type 0, BuildingBlock: QUQFOY_clean_sbu_3, # of connection points: 4
#     Node 5, Type 0, BuildingBlock: QUQFOY_clean_sbu_3, # of connection points: 4
#     Node 6, Type 0, BuildingBlock: QUQFOY_clean_sbu_3, # of connection points: 4
#     Node 7, Type 0, BuildingBlock: QUQFOY_clean_sbu_3, # of connection points: 4
#     Node 8, Type 0, BuildingBlock: QUQFOY_clean_sbu_3, # of connection points: 4
#     Node 9, Type 0, BuildingBlock: QUQFOY_clean_sbu_3, # of connection points: 4
#     Node 10, Type 0, BuildingBlock: QUQFOY_clean_sbu_3, # of connection points: 4
#     Node 11, Type 0, BuildingBlock: QUQFOY_clean_sbu_3, # of connection points: 4
#     Node 12, Type 0, BuildingBlock: QUQFOY_clean_sbu_3, # of connection points: 4
#     Node 13, Type 0, BuildingBlock: QUQFOY_clean_sbu_3, # of connection points: 4
#     Node 14, Type 0, BuildingBlock: QUQFOY_clean_sbu_3, # of connection points: 4
#     Node 15, Type 0, BuildingBlock: QUQFOY_clean_sbu_3, # of connection points: 4
#     Node 16, Type 0, BuildingBlock: QUQFOY_clean_sbu_3, # of connection points: 4
#     Node 17, Type 0, BuildingBlock: QUQFOY_clean_sbu_3, # of connection points: 4
#     Node 18, Type 1, BuildingBlock: MUDLON_clean_linker_0, # of connection points: 4
#     Node 19, Type 1, BuildingBlock: MUDLON_clean_linker_0, # of connection points: 4
#     Node 20, Type 1, BuildingBlock: MUDLON_clean_linker_0, # of connection points: 4
#     Node 21, Type 1, BuildingBlock: MUDLON_clean_linker_0, # of connection points: 4
#     Node 22, Type 1, BuildingBlock: MUDLON_clean_linker_0, # of connection points: 4
#     Node 23, Type 1, BuildingBlock: MUDLON_clean_linker_0, # of connection points: 4
#     Node 24, Type 1, BuildingBlock: MUDLON_clean_linker_0, # of connection points: 4
#     Node 25, Type 1, BuildingBlock: MUDLON_clean_linker_0, # of connection points: 4
#     Node 26, Type 1, BuildingBlock: MUDLON_clean_linker_0, # of connection points: 4
#     Node 27, Type 1, BuildingBlock: MUDLON_clean_linker_0, # of connection points: 4
#     Node 28, Type 1, BuildingBlock: MUDLON_clean_linker_0, # of connection points: 4
#     Node 29, Type 1, BuildingBlock: MUDLON_clean_linker_0, # of connection points: 4
#     Node 30, Type 1, BuildingBlock: MUDLON_clean_linker_0, # of connection points: 4
#     Node 31, Type 1, BuildingBlock: MUDLON_clean_linker_0, # of connection points: 4
#     Node 32, Type 1, BuildingBlock: MUDLON_clean_linker_0, # of connection points: 4
#     Node 33, Type 1, BuildingBlock: MUDLON_clean_linker_0, # of connection points: 4
#     Node 34, Type 1, BuildingBlock: MUDLON_clean_linker_0, # of connection points: 4
#     Node 35, Type 1, BuildingBlock: MUDLON_clean_linker_0, # of connection points: 4
#     Edge 36, Type (0, 1), None
#     Edge 37, Type (0, 1), None
#     Edge 38, Type (0, 1), None
#     Edge 39, Type (0, 1), None
#     Edge 40, Type (0, 1), None
#     Edge 41, Type (0, 1), None
#     Edge 42, Type (0, 1), None
#     Edge 43, Type (0, 1), None
#     Edge 44, Type (0, 1), None
#     Edge 45, Type (0, 1), None
#     Edge 46, Type (0, 1), None
#     Edge 47, Type (0, 1), None
#     Edge 48, Type (0, 1), None
#     Edge 49, Type (0, 1), None
#     Edge 50, Type (0, 1), None
#     Edge 51, Type (0, 1), None
#     Edge 52, Type (0, 1), None
#     Edge 53, Type (0, 1), None
#     Edge 54, Type (0, 1), None
#     Edge 55, Type (0, 1), None
#     Edge 56, Type (0, 1), None
#     Edge 57, Type (0, 1), None
#     Edge 58, Type (0, 1), None
#     Edge 59, Type (0, 1), None
#     Edge 60, Type (0, 1), None
#     Edge 61, Type (0, 1), None
#     Edge 62, Type (0, 1), None
#     Edge 63, Type (0, 1), None
#     Edge 64, Type (0, 1), None
#     Edge 65, Type (0, 1), None
#     Edge 66, Type (0, 1), None
#     Edge 67, Type (0, 1), None
#     Edge 68, Type (0, 1), None
#     Edge 69, Type (0, 1), None
#     Edge 70, Type (0, 1), None
#     Edge 71, Type (0, 1), None
#     Edge 72, Type (0, 1), None
#     Edge 73, Type (0, 1), None
#     Edge 74, Type (0, 1), None
#     Edge 75, Type (0, 1), None
#     Edge 76, Type (0, 1), None
#     Edge 77, Type (0, 1), None
#     Edge 78, Type (0, 1), None
#     Edge 79, Type (0, 1), None
#     Edge 80, Type (0, 1), None
#     Edge 81, Type (0, 1), None
#     Edge 82, Type (0, 1), None
#     Edge 83, Type (0, 1), None
#     Edge 84, Type (0, 1), None
#     Edge 85, Type (0, 1), None
#     Edge 86, Type (0, 1), None
#     Edge 87, Type (0, 1), None
#     Edge 88, Type (0, 1), None
#     Edge 89, Type (0, 1), None
#     Edge 90, Type (0, 1), None
#     Edge 91, Type (0, 1), None
#     Edge 92, Type (0, 1), None
#     Edge 93, Type (0, 1), None
#     Edge 94, Type (0, 1), None
#     Edge 95, Type (0, 1), None
#     Edge 96, Type (0, 1), None
#     Edge 97, Type (0, 1), None
#     Edge 98, Type (0, 1), None
#     Edge 99, Type (0, 1), None
#     Edge 100, Type (0, 1), None
#     Edge 101, Type (0, 1), None
#     Edge 102, Type (0, 1), None
#     Edge 103, Type (0, 1), None
#     Edge 104, Type (0, 1), None
#     Edge 105, Type (0, 1), None
#     Edge 106, Type (0, 1), None
#     Edge 107, Type (0, 1), None
# Relax obj value: 0.028
# Max RMSD: 0.106
# Mean RMSD: 0.067
data_MOF--net-ptr--node1-QUQFOY_clean_sbu_3--node2-MUDLON_clean_linker_0--edge1-none
_symmetry_space_group_name_H-M    P1
_symmetry_Int_Tables_number       1
_symmetry_cell_setting            triclinic
loop_
_symmetry_equiv_pos_as_xyz
'x, y, z'
_cell_length_a     63.044335
_cell_length_b     63.418835
_cell_length_c     37.800189
_cell_angle_alpha  90.299776
_cell_angle_beta   89.506356
_cell_angle_gamma 120.57058
loop_
_atom_site_label
_atom_site_type_symbol
_atom_site_fract_x
_atom_site_fract_y
_atom_site_fract_z
_atom_type_partial_charge
C0 C 0.95112 0.2989 0.9635 0.0
O1 O 0.93508 0.30447 0.97216 0.0
Cd2 Cd 0.94903 0.34323 0.00125 0.0
O3 O 0.97313 0.31185 0.97436 0.0
Cd4 Cd -0.0008 0.34632 0.01367 0.0
C5 C -0.00122 0.38035 0.94691 0.0
O6 O 0.96912 0.34583 0.05618 0.0
O7 O 0.00548 0.37835 0.05458 0.0
O8 O 0.00408 0.31522 0.04175 0.0
C9 C 0.98449 0.36652 0.06938 0.0
O10 O 0.97674 0.37247 0.95735 0.0
C11 C 0.02738 0.32737 0.04377 0.0
O12 O 0.01232 0.37364 0.96225 0.0
O13 O 0.03829 0.34888 0.03079 0.0
C14 C 0.64559 0.69426 0.05507 0.0
O15 O 0.62249 0.6846 0.0515 0.0
Cd16 Cd 0.59956 0.6466 0.01984 0.0
O17 O 0.65686 0.68475 0.04011 0.0
Cd18 Cd 0.64775 0.65004 0.00097 0.0
C19 C 0.61708 0.61269 0.06848 0.0
O20 O 0.61596 0.64801 0.96144 0.0
O21 O 0.6191 0.61566 0.96483 0.0
O22 O 0.68388 0.68103 0.9696 0.0
C23 C 0.61037 0.62715 0.94906 0.0
O24 O 0.5999 0.61647 0.05931 0.0
C25 C 0.69364 0.66801 0.96478 0.0
O26 O 0.638 0.62386 0.05301 0.0
O27 O 0.68235 0.6465 0.97767 0.0
C28 C 0.30195 0.94327 0.04641 0.0
O29 O 0.30877 0.92781 0.04124 0.0
Cd30 Cd 0.34795 0.94182 0.01243 0.0
O31 O 0.31458 0.96477 0.03383 0.0
Cd32 Cd 0.35055 0.99064 0.99645 0.0
C33 C 0.38479 0.99187 0.06469 0.0
O34 O 0.34836 0.95947 0.95578 0.0
O35 O 0.38227 0.99456 0.95531 0.0
O36 O 0.32055 -0.00267 0.96817 0.0
C37 C 0.369 0.97372 0.94113 0.0
O38 O 0.37804 0.97003 0.05534 0.0
C39 C 0.33373 0.02042 0.9658 0.0
O40 O 0.3769 0.00404 0.04843 0.0
O41 O 0.35539 0.03033 0.97836 0.0
C42 C 0.94934 0.63838 0.97715 0.0
O43 O 0.93574 0.6154 0.98107 0.0
Cd44 Cd 0.95192 0.5932 0.01114 0.0
O45 O 0.97068 0.64971 0.99072 0.0
Cd46 Cd -0.00125 0.64336 0.02773 0.0
C47 C 0.00366 0.61205 0.95924 0.0
O48 O 0.96901 0.61155 0.06757 0.0
O49 O 0.00604 0.61762 0.06736 0.0
O50 O 0.00062 0.67785 0.05736 0.0
C51 C 0.98472 0.6072 0.0813 0.0
O52 O 0.98241 0.59513 0.96925 0.0
C53 C 0.02383 0.69044 0.06041 0.0
O54 O 0.01426 0.63278 0.9748 0.0
O55 O 0.03613 0.68129 0.04756 0.0
C56 C 0.31101 0.35535 0.06048 0.0
O57 O 0.32072 0.37826 0.05595 0.0
Cd58 Cd 0.35803 0.40147 0.02212 0.0
O59 O 0.32034 0.34378 0.04596 0.0
Cd60 Cd 0.35501 0.35178 0.00714 0.0
C61 C 0.39355 0.38654 0.07193 0.0
O62 O 0.35459 0.3817 0.96641 0.0
O63 O 0.38633 0.37709 0.96443 0.0
O64 O 0.32364 0.31369 0.98107 0.0
C65 C 0.37439 0.38613 0.95091 0.0
O66 O 0.38916 0.40293 0.0612 0.0
C67 C 0.33745 0.30479 0.97605 0.0
O68 O 0.38256 0.36518 0.05827 0.0
O69 O 0.35953 0.31737 0.98684 0.0
C70 C 0.6976 0.04825 0.97347 0.0
O71 O 0.69026 0.06298 0.98129 0.0
Cd72 Cd 0.65087 0.04662 0.01113 0.0
O73 O 0.68582 0.02638 0.98482 0.0
Cd74 Cd 0.65136 -0.00016 0.02383 0.0
C75 C 0.61453 -0.00329 0.95846 0.0
O76 O 0.6491 0.02799 0.06722 0.0
O77 O 0.61732 0.99145 0.06188 0.0
O78 O 0.68321 0.99606 0.05285 0.0
C79 C 0.62819 0.01146 0.07889 0.0
O80 O 0.62025 0.01796 0.9695 0.0
C81 C 0.67092 0.97298 0.05628 0.0
O82 O 0.6243 0.98533 0.97207 0.0
O83 O 0.64931 0.96182 0.04338 0.0
C84 C 0.62258 0.63714 0.29784 0.0
O85 O 0.60682 0.64347 0.30441 0.0
Cd86 Cd 0.61999 0.68089 0.33715 0.0
O87 O 0.64391 0.64903 0.31129 0.0
Cd88 Cd 0.66844 0.68258 0.3524 0.0
C89 C 0.67137 0.71954 0.28755 0.0
O90 O 0.63718 0.68066 0.39365 0.0
O91 O 0.67272 0.71415 0.39314 0.0
O92 O 0.67218 0.65008 0.37815 0.0
C93 C 0.6518 0.70126 0.40776 0.0
O94 O 0.64952 0.71285 0.29771 0.0
C95 C 0.69512 0.66251 0.38401 0.0
O96 O 0.68324 0.71042 0.30157 0.0
O97 O 0.70639 0.68487 0.37441 0.0
C98 C 0.31146 0.03132 0.3839 0.0
O99 O 0.28845 0.02225 0.38001 0.0
Cd100 Cd 0.26437 0.98458 0.34753 0.0
O101 O 0.32231 0.02129 0.36922 0.0
Cd102 Cd 0.31182 0.98592 0.33112 0.0
C103 C 0.27813 0.94873 0.39756 0.0
O104 O 0.28079 0.98438 0.28968 0.0
O105 O 0.28448 0.95234 0.29401 0.0
O106 O 0.34909 0.01483 0.29972 0.0
C107 C 0.27585 0.96363 0.27749 0.0
O108 O 0.26165 0.95317 0.38712 0.0
C109 C 0.3576 0.00059 0.29676 0.0
O110 O 0.2995 0.95955 0.38339 0.0
O111 O 0.34526 0.97961 0.31109 0.0
C112 C 0.9722 0.27627 0.37993 0.0
O113 O 0.98124 0.26261 0.37485 0.0
Cd114 Cd 0.01981 0.27798 0.34413 0.0
O115 O 0.98261 0.29775 0.367 0.0
Cd116 Cd 0.01789 0.32574 0.32962 0.0
C117 C 0.05402 0.32876 0.3966 0.0
O118 O 0.01865 0.29588 0.28878 0.0
O119 O 0.04985 0.33295 0.28748 0.0
O120 O 0.98661 0.33043 0.301 0.0
C121 C 0.03859 0.31171 0.27392 0.0
O122 O 0.0481 0.30719 0.387 0.0
C123 C -0.00116 0.35359 0.29885 0.0
O124 O 0.04544 0.3405 0.3808 0.0
O125 O 0.02029 0.36441 0.31223 0.0
C126 C 0.61329 0.96666 0.30754 0.0
O127 O 0.59946 0.94366 0.31099 0.0
Cd128 Cd 0.61639 0.92085 0.33747 0.0
O129 O 0.63486 0.97746 0.32037 0.0
Cd130 Cd 0.66308 0.97045 0.35568 0.0
C131 C 0.668 0.94044 0.28519 0.0
O132 O 0.63295 0.93793 0.3948 0.0
O133 O 0.67052 0.94548 0.39631 0.0
O134 O 0.66676 0.00561 0.38588 0.0
C135 C 0.64893 0.9343 0.40932 0.0
O136 O 0.64655 0.92331 0.29403 0.0
C137 C 0.69007 0.0176 0.38772 0.0
O138 O 0.67852 0.9605 0.30241 0.0
O139 O 0.70145 0.00776 0.37399 0.0
C140 C 0.97186 0.68357 0.3954 0.0
O141 O 0.98108 0.70643 0.39098 0.0
Cd142 Cd 0.01812 0.73019 0.3571 0.0
O143 O 0.98158 0.67241 0.38065 0.0
Cd144 Cd 0.01633 0.68101 0.34118 0.0
C145 C 0.05463 0.71585 0.4061 0.0
O146 O 0.01401 0.71014 0.30138 0.0
O147 O 0.04687 0.70762 0.29773 0.0
O148 O 0.9856 0.64229 0.31586 0.0
C149 C 0.03388 0.71576 0.28507 0.0
O150 O 0.04958 0.73193 0.39607 0.0
C151 C -0.0 0.63411 0.31047 0.0
O152 O 0.0442 0.69471 0.39182 0.0
O153 O 0.02217 0.64746 0.32052 0.0
C154 C 0.366 0.38419 0.3062 0.0
O155 O 0.35771 0.39845 0.31164 0.0
Cd156 Cd 0.3198 0.38379 0.34455 0.0
O157 O 0.35528 0.36297 0.31989 0.0
Cd158 Cd 0.32049 0.3372 0.35921 0.0
C159 C 0.2831 0.33336 0.29383 0.0
O160 O 0.31983 0.3666 0.40129 0.0
O161 O 0.28677 0.3309 0.3974 0.0
O162 O 0.35225 0.33317 0.38791 0.0
C163 C 0.29875 0.35111 0.41372 0.0
O164 O 0.28833 0.35449 0.3047 0.0
C165 C 0.33973 0.31017 0.39217 0.0
O166 O 0.29342 0.32249 0.30742 0.0
O167 O 0.31786 0.29911 0.38019 0.0
C168 C 0.28415 0.97367 0.63137 0.0
O169 O 0.27064 0.98284 0.63714 0.0
Cd170 Cd 0.28639 0.02048 0.6701 0.0
O171 O 0.30558 0.98346 0.64457 0.0
Cd172 Cd 0.33368 0.01726 0.68304 0.0
C173 C 0.33776 0.05555 0.61843 0.0
O174 O 0.30402 0.01811 0.72484 0.0
O175 O 0.34142 0.04891 0.72563 0.0
O176 O 0.33666 0.98391 0.70799 0.0
C177 C 0.3201 0.03786 0.73953 0.0
O178 O 0.31671 0.05077 0.62986 0.0
C179 C 0.35975 0.9958 0.71275 0.0
O180 O 0.34845 0.04489 0.63152 0.0
O181 O 0.37137 0.01802 0.70259 0.0
C182 C 0.98316 0.36673 0.71036 0.0
O183 O 0.96094 0.35964 0.70287 0.0
Cd184 Cd 0.93666 0.31981 0.6764 0.0
O185 O 0.9929 0.35458 0.69943 0.0
Cd186 Cd 0.98364 0.31946 0.66102 0.0
C187 C 0.952 0.28587 0.73043 0.0
O188 O 0.95227 0.31641 0.61966 0.0
O189 O 0.95487 0.28394 0.62675 0.0
O190 O 0.01838 0.34885 0.62658 0.0
C191 C 0.94608 0.29487 0.6096 0.0
O192 O 0.93632 0.29163 0.72062 0.0
C193 C 0.02979 0.33718 0.6259 0.0
O194 O 0.97246 0.2942 0.71408 0.0
O195 O 0.01992 0.31691 0.64247 0.0
C196 C 0.64511 0.61336 0.72087 0.0
O197 O 0.65434 0.5997 0.71828 0.0
Cd198 Cd 0.69233 0.61393 0.68642 0.0
O199 O 0.65539 0.63413 0.70577 0.0
Cd200 Cd 0.69095 0.66046 0.66795 0.0
C201 C 0.72761 0.6656 0.73571 0.0
O202 O 0.68891 0.62856 0.62909 0.0
O203 O 0.72201 0.66416 0.62555 0.0
O204 O 0.65915 0.66615 0.64279 0.0
C205 C 0.70882 0.64285 0.6128 0.0
O206 O 0.72269 0.64419 0.7268 0.0
C207 C 0.67278 0.68878 0.63621 0.0
O208 O 0.71777 0.67602 0.71955 0.0
O209 O 0.69528 0.69882 0.64509 0.0
C210 C 0.28537 0.30406 0.63974 0.0
O211 O 0.27205 0.28094 0.64212 0.0
Cd212 Cd 0.28846 0.25849 0.67095 0.0
O213 O 0.30659 0.3152 0.65367 0.0
Cd214 Cd 0.33452 0.30769 0.68902 0.0
C215 C 0.33988 0.27754 0.61912 0.0
O216 O 0.30438 0.27589 0.72856 0.0
O217 O 0.34132 0.28175 0.72909 0.0
O218 O 0.33782 0.34258 0.7193 0.0
C219 C 0.32 0.27171 0.74301 0.0
O220 O 0.31865 0.26025 0.62842 0.0
C221 C 0.36111 0.35468 0.72148 0.0
O222 O 0.35011 0.29786 0.63572 0.0
O223 O 0.37271 0.345 0.70796 0.0
C224 C 0.63257 0.01405 0.72143 0.0
O225 O 0.64063 0.03633 0.71374 0.0
Cd226 Cd 0.67853 0.05982 0.68166 0.0
O227 O 0.64323 0.00298 0.7095 0.0
Cd228 Cd 0.67766 0.00972 0.67049 0.0
C229 C 0.71339 0.04555 0.73608 0.0
O230 O 0.67812 0.03921 0.62831 0.0
O231 O 0.71006 0.03489 0.62897 0.0
O232 O 0.64673 0.97282 0.64208 0.0
C233 C 0.6986 0.04417 0.61456 0.0
O234 O 0.70709 0.06045 0.72478 0.0
C235 C 0.65927 0.9623 0.64038 0.0
O236 O 0.70515 0.02457 0.72179 0.0
O237 O 0.6806 0.97352 0.65416 0.0
C238 C 0.0301 0.71285 0.63772 0.0
O239 O 0.02248 0.72762 0.64355 0.0
Cd240 Cd 0.98463 0.71347 0.67634 0.0
O241 O 0.01903 0.69171 0.65169 0.0
Cd242 Cd 0.98477 0.66728 0.69266 0.0
C243 C 0.94695 0.66202 0.62779 0.0
O244 O 0.98468 0.69747 0.73398 0.0
O245 O 0.95119 0.66216 0.72997 0.0
O246 O 0.01611 0.66259 0.72174 0.0
C247 C 0.96345 0.68231 0.74632 0.0
O248 O 0.95259 0.68347 0.6377 0.0
C249 C 0.00273 0.63981 0.72752 0.0
O250 O 0.95723 0.65126 0.64175 0.0
O251 O 0.98077 0.62924 0.71599 0.0
H252 H 0.23344 0.33675 0.20732 0.0
N253 N 0.23325 0.30294 0.16142 0.0
H254 H 0.25459 0.34927 0.26364 0.0
H255 H 0.25363 0.28147 0.19639 0.0
H256 H 0.27508 0.29399 0.2532 0.0
H257 H 0.24437 0.28431 0.10595 0.0
H258 H 0.27738 0.30632 0.06219 0.0
H259 H 0.2655 0.35269 0.15858 0.0
H260 H 0.29771 0.37465 0.11475 0.0
H261 H 0.22503 0.33943 0.13766 0.0
H262 H 0.18873 0.26411 0.17208 0.0
H263 H 0.18573 0.3361 0.12825 0.0
H264 H 0.14873 0.26108 0.16461 0.0
H265 H 0.08107 0.3365 0.16798 0.0
H266 H 0.06842 0.34463 0.2247 0.0
H267 H 0.02776 0.26712 0.24736 0.0
H268 H 0.0416 0.25906 0.19049 0.0
H269 H 0.02706 0.26579 0.10897 0.0
H270 H 0.00849 0.28071 0.06707 0.0
H271 H 0.07562 0.35128 0.06527 0.0
H272 H 0.09416 0.33606 0.10693 0.0
H273 H 0.11424 0.33217 0.15832 0.0
H274 H 0.15344 0.3342 0.16161 0.0
H275 H 0.11985 0.25982 0.12284 0.0
N276 N 0.06964 0.29157 0.14145 0.0
H277 H 0.07986 0.25753 0.1214 0.0
C278 C 0.24201 0.30813 0.19742 0.0
C279 C 0.24194 0.32689 0.21736 0.0
C280 C 0.25419 0.33412 0.24965 0.0
C281 C 0.2668 0.32282 0.26277 0.0
C282 C 0.26558 0.30309 0.24387 0.0
C283 C 0.25334 0.2959 0.21145 0.0
C284 C 0.25234 0.31667 0.13551 0.0
C285 C 0.25593 0.30403 0.10785 0.0
C286 C 0.27471 0.31663 0.08293 0.0
C287 C 0.28997 0.34222 0.08498 0.0
C288 C 0.28606 0.35497 0.11225 0.0
C289 C 0.26767 0.34233 0.13754 0.0
C290 C 0.21006 0.30179 0.15535 0.0
C291 C 0.20872 0.32206 0.14322 0.0
C292 C 0.18599 0.32024 0.13815 0.0
C293 C 0.16397 0.29837 0.14581 0.0
C294 C 0.16528 0.27811 0.15789 0.0
C295 C 0.18811 0.27984 0.16248 0.0
C296 C 0.06265 0.29707 0.17515 0.0
C297 C 0.06994 0.3212 0.18524 0.0
C298 C 0.06258 0.32586 0.21777 0.0
C299 C 0.04722 0.3065 0.24048 0.0
C300 C 0.03966 0.28237 0.23032 0.0
C301 C 0.04754 0.27775 0.198 0.0
C302 C 0.0618 0.29972 0.11141 0.0
C303 C 0.03798 0.28424 0.09875 0.0
C304 C 0.0274 0.29289 0.07496 0.0
C305 C 0.04048 0.31733 0.06334 0.0
C306 C 0.06506 0.3324 0.0739 0.0
C307 C 0.07568 0.32367 0.09781 0.0
C308 C 0.09384 0.29449 0.13986 0.0
C309 C 0.11505 0.31624 0.15039 0.0
C310 C 0.13773 0.31747 0.15198 0.0
C311 C 0.13989 0.29715 0.14256 0.0
C312 C 0.1188 0.27568 0.13088 0.0
C313 C 0.09601 0.2744 0.12966 0.0
H314 H 0.72244 0.7501 0.18867 0.0
N315 N 0.70034 0.77065 0.15576 0.0
H316 H 0.71066 0.72823 0.24534 0.0
H317 H 0.66651 0.76945 0.20355 0.0
H318 H 0.65478 0.74789 0.25945 0.0
H319 H 0.64994 0.74037 0.15286 0.0
H320 H 0.62704 0.7088 0.10908 0.0
H321 H 0.71813 0.75924 0.09957 0.0
H322 H 0.69516 0.72681 0.05598 0.0
H323 H 0.74199 0.81371 0.158 0.0
H324 H 0.66369 0.78124 0.14314 0.0
H325 H 0.74713 0.85457 0.1523 0.0
H326 H 0.6685 0.82135 0.1387 0.0
H327 H 0.72851 0.97057 0.19728 0.0
H328 H 0.71141 0.97448 0.25375 0.0
H329 H 0.65113 0.89986 0.24318 0.0
H330 H 0.66839 0.89621 0.18714 0.0
H331 H 0.66103 0.91227 0.1336 0.0
H332 H 0.64498 0.92953 0.09126 0.0
H333 H 0.71902 0.98854 0.06981 0.0
H334 H 0.73508 0.97076 0.11169 0.0
H335 H 0.73854 0.92039 0.18745 0.0
H336 H 0.73815 0.88172 0.18502 0.0
H337 H 0.68384 0.85649 0.10211 0.0
N338 N 0.70939 0.93232 0.15354 0.0
H339 H 0.68355 0.89428 0.10531 0.0
C340 C 0.6954 0.76133 0.19153 0.0
C341 C 0.70802 0.75009 0.20447 0.0
C342 C 0.70129 0.73766 0.23684 0.0
C343 C 0.68161 0.73611 0.25671 0.0
C344 C 0.6699 0.74855 0.24466 0.0
C345 C 0.67669 0.76102 0.21249 0.0
C346 C 0.68595 0.75245 0.12939 0.0
C347 C 0.66006 0.73803 0.1315 0.0
C348 C 0.64688 0.7199 0.10633 0.0
C349 C 0.65928 0.71536 0.07905 0.0
C350 C 0.68509 0.72991 0.07672 0.0
C351 C 0.69824 0.7484 0.10154 0.0
C352 C 0.70259 0.79429 0.15098 0.0
C353 C 0.72596 0.81537 0.15342 0.0
C354 C 0.72882 0.83865 0.15035 0.0
C355 C 0.70823 0.84127 0.14491 0.0
C356 C 0.68485 0.82009 0.14211 0.0
C357 C 0.68205 0.79691 0.14494 0.0
C358 C 0.69976 0.93325 0.18796 0.0
C359 C 0.71177 0.95504 0.20749 0.0
C360 C 0.70197 0.95719 0.23972 0.0
C361 C 0.67982 0.93752 0.25295 0.0
C362 C 0.66817 0.91541 0.23377 0.0
C363 C 0.678 0.91329 0.20162 0.0
C364 C 0.69943 0.94023 0.12571 0.0
C365 C 0.6739 0.92864 0.11932 0.0
C366 C 0.66471 0.93843 0.09492 0.0
C367 C 0.68075 0.96035 0.07728 0.0
C368 C 0.70624 0.97157 0.08302 0.0
C369 C 0.71546 0.96147 0.10684 0.0
C370 C 0.71073 0.91043 0.14747 0.0
C371 C 0.72669 0.90657 0.16855 0.0
C372 C 0.72656 0.8845 0.16696 0.0
C373 C 0.71065 0.86582 0.14376 0.0
C374 C 0.6958 0.87022 0.12103 0.0
C375 C 0.6957 0.89215 0.12291 0.0
H376 H 0.0854 0.75112 0.18809 0.0
N377 N 0.06093 0.77114 0.15611 0.0
H378 H 0.0736 0.72751 0.24278 0.0
H379 H 0.02309 0.76138 0.1986 0.0
H380 H 0.01108 0.73771 0.25375 0.0
H381 H 0.01849 0.75079 0.12208 0.0
H382 H 0.00219 0.71616 0.08124 0.0
H383 H 0.08745 0.75208 0.12581 0.0
H384 H 0.07121 0.71719 0.08504 0.0
H385 H 0.09162 0.7985 0.21064 0.0
H386 H 0.08483 0.7964 0.09655 0.0
H387 H 0.13151 0.83518 0.206 0.0
H388 H 0.12505 0.83375 0.09245 0.0
H389 H 0.25495 0.91221 0.18099 0.0
H390 H 0.27548 0.9282 0.23684 0.0
H391 H 0.24598 0.97649 0.24267 0.0
H392 H 0.22445 0.95956 0.18639 0.0
H393 H 0.25061 0.96462 0.10496 0.0
H394 H 0.28321 0.97261 0.06245 0.0
H395 H 0.27157 0.90025 0.08137 0.0
H396 H 0.23888 0.8924 0.12354 0.0
H397 H 0.21343 0.88264 0.18058 0.0
H398 H 0.1735 0.84543 0.18121 0.0
H399 H 0.14498 0.87889 0.11184 0.0
N400 N 0.22576 0.92568 0.1458 0.0
H401 H 0.18542 0.91677 0.11155 0.0
C402 C 0.05503 0.758 0.18926 0.0
C403 C 0.06912 0.74822 0.20215 0.0
C404 C 0.06242 0.73484 0.23357 0.0
C405 C 0.0414 0.73075 0.25256 0.0
C406 C 0.02739 0.74059 0.23971 0.0
C407 C 0.0342 0.7541 0.20833 0.0
C408 C 0.05398 0.7539 0.12721 0.0
C409 C 0.03026 0.7439 0.11343 0.0
C410 C 0.02099 0.72404 0.09026 0.0
C411 C 0.03533 0.71374 0.08033 0.0
C412 C 0.05971 0.72469 0.09234 0.0
C413 C 0.06897 0.74457 0.11574 0.0
C414 C 0.08545 0.79288 0.15368 0.0
C415 C 0.09877 0.80516 0.18438 0.0
C416 C 0.12169 0.8265 0.18189 0.0
C417 C 0.13161 0.83691 0.14885 0.0
C418 C 0.11794 0.82583 0.11825 0.0
C419 C 0.09504 0.80422 0.12066 0.0
C420 C 0.23773 0.93442 0.17956 0.0
C421 C 0.25242 0.92591 0.19427 0.0
C422 C 0.26427 0.93515 0.22638 0.0
C423 C 0.26225 0.95354 0.24422 0.0
C424 C 0.24781 0.96229 0.22949 0.0
C425 C 0.23549 0.95263 0.1975 0.0
C426 C 0.24237 0.9281 0.11754 0.0
C427 C 0.25482 0.95036 0.09938 0.0
C428 C 0.2735 0.95487 0.07521 0.0
C429 C 0.2802 0.93714 0.06882 0.0
C430 C 0.26694 0.91433 0.08581 0.0
C431 C 0.24816 0.90981 0.10996 0.0
C432 C 0.20245 0.90294 0.14644 0.0
C433 C 0.19879 0.88237 0.16565 0.0
C434 C 0.17585 0.86091 0.16597 0.0
C435 C 0.15615 0.85937 0.14679 0.0
C436 C 0.15992 0.8796 0.12677 0.0
C437 C 0.18288 0.90121 0.12675 0.0
H438 H 0.3412 0.23844 0.83591 0.0
N439 N 0.30104 0.22522 0.87852 0.0
H440 H 0.3491 0.25836 0.77819 0.0
H441 H 0.27093 0.23439 0.84188 0.0
H442 H 0.27845 0.25399 0.7838 0.0
H443 H 0.27511 0.233 0.92689 0.0
H444 H 0.29026 0.26709 0.96906 0.0
H445 H 0.34963 0.25914 0.89157 0.0
H446 H 0.36487 0.29231 0.93461 0.0
H447 H 0.34008 0.21969 0.89796 0.0
H448 H 0.26373 0.18046 0.8672 0.0
H449 H 0.34 0.1815 0.90143 0.0
H450 H 0.26379 0.14201 0.86884 0.0
H451 H 0.34528 0.08244 0.84331 0.0
H452 H 0.3534 0.07011 0.78631 0.0
H453 H 0.27515 0.02546 0.76795 0.0
H454 H 0.26709 0.03884 0.82507 0.0
H455 H 0.27306 0.02408 0.90317 0.0
H456 H 0.28714 0.00357 0.94283 0.0
H457 H 0.35936 0.06876 0.94558 0.0
H458 H 0.34487 0.08927 0.9061 0.0
H459 H 0.33934 0.1134 0.85926 0.0
H460 H 0.33953 0.15162 0.86365 0.0
H461 H 0.2652 0.11271 0.90555 0.0
N462 N 0.29994 0.0673 0.87306 0.0
H463 H 0.26477 0.07409 0.89913 0.0
C464 C 0.3055 0.23515 0.84328 0.0
C465 C 0.3274 0.2417 0.82469 0.0
C466 C 0.33185 0.25302 0.79162 0.0
C467 C 0.31444 0.25785 0.7765 0.0
C468 C 0.29222 0.25052 0.79469 0.0
C469 C 0.28789 0.23936 0.82783 0.0
C470 C 0.3111 0.24322 0.90639 0.0
C471 C 0.29475 0.24561 0.92902 0.0
C472 C 0.30342 0.26505 0.95299 0.0
C473 C 0.32874 0.2822 0.95518 0.0
C474 C 0.34529 0.27911 0.93385 0.0
C475 C 0.33654 0.26003 0.90923 0.0
C476 C 0.30169 0.20298 0.88263 0.0
C477 C 0.3232 0.20293 0.89211 0.0
C478 C 0.32321 0.18093 0.89375 0.0
C479 C 0.30191 0.15858 0.88538 0.0
C480 C 0.28042 0.15875 0.87616 0.0
C481 C 0.28036 0.1807 0.87495 0.0
C482 C 0.30546 0.06197 0.83822 0.0
C483 C 0.3298 0.07065 0.82677 0.0
C484 C 0.33445 0.06339 0.79414 0.0
C485 C 0.3149 0.04681 0.77269 0.0
C486 C 0.29057 0.03825 0.78398 0.0
C487 C 0.28594 0.04594 0.8164 0.0
C488 C 0.30786 0.05799 0.90148 0.0
C489 C 0.29172 0.0341 0.91308 0.0
C490 C 0.29989 0.02242 0.93556 0.0
C491 C 0.3245 0.03445 0.94686 0.0
C492 C 0.34034 0.05901 0.93714 0.0
C493 C 0.33207 0.07074 0.91454 0.0
C494 C 0.30175 0.09066 0.87827 0.0
C495 C 0.32302 0.1129 0.8693 0.0
C496 C 0.32322 0.13496 0.87224 0.0
C497 C 0.30231 0.13532 0.88471 0.0
C498 C 0.28145 0.11311 0.89509 0.0
C499 C 0.2812 0.09105 0.89173 0.0
H500 H 0.73964 0.08787 0.8411 0.0
N501 N 0.76933 0.07083 0.86438 0.0
H502 H 0.71686 0.07737 0.78662 0.0
H503 H 0.76714 0.03982 0.8144 0.0
H504 H 0.74316 0.02834 0.75925 0.0
H505 H 0.74524 0.02951 0.90055 0.0
H506 H 0.71454 0.01939 0.94712 0.0
H507 H 0.75932 0.10351 0.8981 0.0
H508 H 0.7283 0.09348 0.94418 0.0
H509 H 0.78143 0.11628 0.83812 0.0
H510 H 0.81094 0.07646 0.89047 0.0
H511 H 0.82196 0.15253 0.83641 0.0
H512 H 0.85209 0.11357 0.88942 0.0
H513 H 0.90303 0.24367 0.82673 0.0
H514 H 0.91186 0.26839 0.7739 0.0
H515 H 0.9797 0.26792 0.75877 0.0
H516 H 0.9706 0.24299 0.81241 0.0
H517 H 0.97325 0.25334 0.89196 0.0
H518 H 0.9819 0.28384 0.93793 0.0
H519 H 0.90656 0.26765 0.93285 0.0
H520 H 0.89803 0.23692 0.88738 0.0
H521 H 0.9014 0.20063 0.80003 0.0
H522 H 0.86274 0.16245 0.8039 0.0
H523 H 0.8733 0.1584 0.91563 0.0
N524 N 0.93185 0.22749 0.8558 0.0
H525 H 0.91221 0.19737 0.91245 0.0
C526 C 0.75555 0.0649 0.83182 0.0
C527 C 0.74098 0.07514 0.82348 0.0
C528 C 0.72789 0.06911 0.79204 0.0
C529 C 0.72841 0.0522 0.76845 0.0
C530 C 0.74254 0.04153 0.7769 0.0
C531 C 0.75621 0.04806 0.80825 0.0
C532 C 0.75445 0.06707 0.89558 0.0
C533 C 0.742 0.04367 0.91056 0.0
C534 C 0.72439 0.03796 0.93708 0.0
C535 C 0.71869 0.05557 0.94902 0.0
C536 C 0.73212 0.07946 0.93538 0.0
C537 C 0.74994 0.08522 0.909 0.0
C538 C 0.79303 0.09317 0.86386 0.0
C539 C 0.79649 0.11507 0.84912 0.0
C540 C 0.8198 0.13599 0.84816 0.0
C541 C 0.84011 0.1357 0.8624 0.0
C542 C 0.83666 0.11418 0.8782 0.0
C543 C 0.81329 0.09305 0.87871 0.0
C544 C 0.93625 0.24148 0.82365 0.0
C545 C 0.91988 0.24897 0.8123 0.0
C546 C 0.9249 0.26299 0.78179 0.0
C547 C 0.94651 0.27015 0.76202 0.0
C548 C 0.96287 0.26267 0.77334 0.0
C549 C 0.95773 0.24845 0.8039 0.0
C550 C 0.9352 0.243 0.88598 0.0
C551 C 0.95855 0.25611 0.90126 0.0
C552 C 0.96341 0.27357 0.92745 0.0
C553 C 0.94496 0.27838 0.93882 0.0
C554 C 0.92122 0.26451 0.92455 0.0
C555 C 0.91635 0.24698 0.8984 0.0
C556 C 0.9092 0.20362 0.85672 0.0
C557 C 0.89547 0.19234 0.82586 0.0
C558 C 0.87331 0.17012 0.82782 0.0
C559 C 0.86475 0.15795 0.86022 0.0
C560 C 0.87934 0.16772 0.89042 0.0
C561 C 0.90145 0.19018 0.8886 0.0
H562 H 0.75892 0.725 0.824 0.0
N563 N 0.77529 0.70411 0.86843 0.0
H564 H 0.73877 0.70916 0.76693 0.0
H565 H 0.77017 0.6637 0.83396 0.0
H566 H 0.75026 0.6478 0.77725 0.0
H567 H 0.74245 0.65596 0.88487 0.0
H568 H 0.70823 0.64095 0.92683 0.0
H569 H 0.76409 0.73047 0.91119 0.0
H570 H 0.72912 0.71546 0.95248 0.0
H571 H 0.81968 0.73565 0.84301 0.0
H572 H 0.7822 0.67261 0.91152 0.0
H573 H 0.8576 0.7344 0.84874 0.0
H574 H 0.81982 0.67199 0.91837 0.0
H575 H 0.97263 0.72334 0.85258 0.0
H576 H 0.98824 0.71876 0.79504 0.0
H577 H 0.91668 0.65616 0.77221 0.0
H578 H 0.90131 0.66101 0.82889 0.0
H579 H 0.90763 0.64425 0.88123 0.0
H580 H 0.91608 0.62067 0.92339 0.0
H581 H 0.96552 0.68722 0.97947 0.0
H582 H 0.9562 0.71078 0.93768 0.0
H583 H 0.92677 0.73543 0.88442 0.0
H584 H 0.89028 0.73973 0.88641 0.0
H585 H 0.84376 0.66091 0.88306 0.0
N586 N 0.92825 0.69442 0.88061 0.0
H587 H 0.87984 0.65685 0.88262 0.0
C588 C 0.76594 0.69557 0.8333 0.0
C589 C 0.75737 0.70834 0.81355 0.0
C590 C 0.74591 0.69927 0.78097 0.0
C591 C 0.74276 0.67713 0.76757 0.0
C592 C 0.75231 0.66488 0.78676 0.0
C593 C 0.76371 0.67394 0.81931 0.0
C594 C 0.75612 0.6945 0.89516 0.0
C595 C 0.74008 0.66914 0.89999 0.0
C596 C 0.72052 0.66052 0.9241 0.0
C597 C 0.71609 0.67704 0.94293 0.0
C598 C 0.73218 0.70233 0.93834 0.0
C599 C 0.75213 0.71093 0.91488 0.0
C600 C 0.7978 0.70426 0.87635 0.0
C601 C 0.81969 0.72186 0.85978 0.0
C602 C 0.84138 0.72118 0.86325 0.0
C603 C 0.84171 0.70292 0.88376 0.0
C604 C 0.82009 0.68596 0.90168 0.0
C605 C 0.79836 0.68645 0.89786 0.0
C606 C 0.93592 0.69254 0.84527 0.0
C607 C 0.9603 0.70889 0.83481 0.0
C608 C 0.96915 0.70625 0.80201 0.0
C609 C 0.95372 0.68699 0.77926 0.0
C610 C 0.92907 0.6711 0.78927 0.0
C611 C 0.92022 0.67387 0.82186 0.0
C612 C 0.93113 0.67946 0.90651 0.0
C613 C 0.9197 0.65383 0.90307 0.0
C614 C 0.92459 0.64026 0.92723 0.0
C615 C 0.94145 0.65209 0.95469 0.0
C616 C 0.95245 0.6776 0.95851 0.0
C617 C 0.94716 0.69108 0.93477 0.0
C618 C 0.90624 0.69595 0.88333 0.0
C619 C 0.90864 0.71914 0.88451 0.0
C620 C 0.88779 0.72154 0.88538 0.0
C621 C 0.86404 0.70066 0.88487 0.0
C622 C 0.86171 0.6774 0.88414 0.0
C623 C 0.88253 0.67504 0.88355 0.0
H624 H 0.69019 0.59215 0.51467 0.0
N625 N 0.73147 0.6179 0.47732 0.0
H626 H 0.6802 0.60221 0.57284 0.0
H627 H 0.76231 0.65692 0.51884 0.0
H628 H 0.75235 0.66744 0.57648 0.0
H629 H 0.75268 0.66722 0.46376 0.0
H630 H 0.73711 0.68604 0.42328 0.0
H631 H 0.69582 0.59544 0.43036 0.0
H632 H 0.67984 0.61417 0.39018 0.0
H633 H 0.74214 0.58811 0.51176 0.0
H634 H 0.77273 0.64669 0.4349 0.0
H635 H 0.78151 0.58963 0.51422 0.0
H636 H 0.81136 0.64748 0.43627 0.0
H637 H 0.91674 0.6094 0.53128 0.0
H638 H 0.93913 0.62266 0.58732 0.0
H639 H 0.91696 0.67657 0.59921 0.0
H640 H 0.8949 0.66339 0.544 0.0
H641 H 0.9256 0.67994 0.49315 0.0
H642 H 0.95731 0.70237 0.44888 0.0
H643 H 0.93967 0.6342 0.39808 0.0
H644 H 0.90706 0.6117 0.44216 0.0
H645 H 0.85205 0.58829 0.4958 0.0
H646 H 0.81122 0.58287 0.48564 0.0
H647 H 0.84439 0.66137 0.4761 0.0
N648 N 0.89514 0.62993 0.49719 0.0
H649 H 0.88457 0.66643 0.48452 0.0
C650 C 0.72678 0.62384 0.51233 0.0
C651 C 0.70385 0.60847 0.52827 0.0
C652 C 0.69824 0.61424 0.56145 0.0
C653 C 0.71546 0.63569 0.57911 0.0
C654 C 0.73866 0.65086 0.56342 0.0
C655 C 0.74433 0.64494 0.5304 0.0
C656 C 0.72538 0.62976 0.45001 0.0
C657 C 0.73711 0.65547 0.4473 0.0
C658 C 0.72829 0.66626 0.42399 0.0
C659 C 0.70724 0.65157 0.40373 0.0
C660 C 0.69611 0.62595 0.40555 0.0
C661 C 0.70521 0.61521 0.42834 0.0
C662 C 0.75429 0.6177 0.47421 0.0
C663 C 0.75717 0.60108 0.4951 0.0
C664 C 0.77967 0.60184 0.49626 0.0
C665 C 0.79978 0.61899 0.4759 0.0
C666 C 0.79648 0.63456 0.45318 0.0
C667 C 0.77409 0.63406 0.45241 0.0
C668 C 0.9042 0.63533 0.53304 0.0
C669 C 0.91626 0.62366 0.54651 0.0
C670 C 0.92905 0.63128 0.57849 0.0
C671 C 0.9301 0.6509 0.59746 0.0
C672 C 0.91674 0.66156 0.58506 0.0
C673 C 0.90393 0.6539 0.55326 0.0
C674 C 0.91369 0.64396 0.47083 0.0
C675 C 0.92807 0.66971 0.4722 0.0
C676 C 0.94628 0.68261 0.44677 0.0
C677 C 0.95091 0.67006 0.41997 0.0
C678 C 0.93648 0.64437 0.41846 0.0
C679 C 0.91791 0.6315 0.44355 0.0
C680 C 0.87147 0.62763 0.49116 0.0
C681 C 0.85039 0.60424 0.49131 0.0
C682 C 0.82711 0.60123 0.48564 0.0
C683 C 0.82448 0.62169 0.47995 0.0
C684 C 0.84568 0.64513 0.47962 0.0
C685 C 0.86887 0.64807 0.48487 0.0
H686 H 0.38798 0.08372 0.51825 0.0
N687 N 0.36749 0.10615 0.48601 0.0
H688 H 0.3759 0.06206 0.5751 0.0
H689 H 0.33468 0.10642 0.53435 0.0
H690 H 0.3228 0.08528 0.59047 0.0
H691 H 0.31701 0.07659 0.48338 0.0
H692 H 0.29351 0.04577 0.43885 0.0
H693 H 0.38467 0.09487 0.42902 0.0
H694 H 0.36113 0.0632 0.38471 0.0
H695 H 0.40969 0.14874 0.48855 0.0
H696 H 0.33161 0.11784 0.47359 0.0
H697 H 0.41578 0.19001 0.48318 0.0
H698 H 0.33734 0.15834 0.46944 0.0
H699 H 0.39945 0.30765 0.52992 0.0
H700 H 0.38297 0.31161 0.58693 0.0
H701 H 0.32297 0.23675 0.57764 0.0
H702 H 0.33955 0.23307 0.52105 0.0
H703 H 0.33112 0.24926 0.46825 0.0
H704 H 0.31432 0.26669 0.42743 0.0
H705 H 0.38801 0.3257 0.40397 0.0
H706 H 0.40478 0.30782 0.4444 0.0
H707 H 0.40865 0.25653 0.51942 0.0
H708 H 0.40757 0.21755 0.51617 0.0
H709 H 0.35334 0.19373 0.4333 0.0
N710 N 0.37984 0.26929 0.48632 0.0
H711 H 0.35375 0.23185 0.43729 0.0
C712 C 0.36232 0.09667 0.52171 0.0
C713 C 0.37409 0.08448 0.53434 0.0
C714 C 0.36719 0.07217 0.56682 0.0
C715 C 0.34823 0.07175 0.58719 0.0
C716 C 0.33737 0.08506 0.57536 0.0
C717 C 0.34425 0.09732 0.54304 0.0
C718 C 0.35279 0.08827 0.45946 0.0
C719 C 0.32688 0.07425 0.46165 0.0
C720 C 0.31337 0.0566 0.43604 0.0
C721 C 0.32546 0.05213 0.40823 0.0
C722 C 0.3513 0.06628 0.40584 0.0
C723 C 0.36477 0.0843 0.43109 0.0
C724 C 0.37033 0.13007 0.48146 0.0
C725 C 0.39392 0.15083 0.48402 0.0
C726 C 0.39732 0.17434 0.48113 0.0
C727 C 0.37705 0.17751 0.47574 0.0
C728 C 0.35346 0.15665 0.4728 0.0
C729 C 0.35013 0.13325 0.47545 0.0
C730 C 0.37076 0.27021 0.52119 0.0
C731 C 0.38293 0.29207 0.54055 0.0
C732 C 0.37349 0.29426 0.57309 0.0
C733 C 0.35158 0.27454 0.58681 0.0
C734 C 0.33985 0.25234 0.56787 0.0
C735 C 0.34929 0.25019 0.53539 0.0
C736 C 0.36938 0.27726 0.45928 0.0
C737 C 0.34373 0.26569 0.45389 0.0
C738 C 0.33411 0.27559 0.43037 0.0
C739 C 0.34985 0.29755 0.4126 0.0
C740 C 0.37544 0.30873 0.41734 0.0
C741 C 0.38507 0.29856 0.44031 0.0
C742 C 0.38088 0.24728 0.47961 0.0
C743 C 0.39666 0.24296 0.50035 0.0
C744 C 0.39614 0.2207 0.49829 0.0
C745 C 0.38002 0.20231 0.4749 0.0
C746 C 0.36543 0.20722 0.45238 0.0
C747 C 0.36572 0.22933 0.45474 0.0
H748 H 0.74451 0.06531 0.51145 0.0
N749 N 0.73179 0.09742 0.48438 0.0
H750 H 0.73066 0.04341 0.56711 0.0
H751 H 0.70265 0.10068 0.53273 0.0
H752 H 0.68762 0.07762 0.58838 0.0
H753 H 0.68864 0.07867 0.45306 0.0
H754 H 0.67026 0.0443 0.4118 0.0
H755 H 0.75671 0.07813 0.44985 0.0
H756 H 0.73841 0.04353 0.40863 0.0
H757 H 0.77671 0.10412 0.50524 0.0
H758 H 0.74152 0.1399 0.4572 0.0
H759 H 0.81576 0.14203 0.50411 0.0
H760 H 0.78132 0.17805 0.45381 0.0
H761 H 0.90306 0.22947 0.53287 0.0
H762 H 0.92526 0.24737 0.58775 0.0
H763 H 0.93207 0.3166 0.56011 0.0
H764 H 0.91017 0.29856 0.50475 0.0
H765 H 0.9045 0.27987 0.42102 0.0
H766 H 0.93752 0.2898 0.37769 0.0
H767 H 0.95928 0.24566 0.43629 0.0
H768 H 0.92733 0.23684 0.48004 0.0
H769 H 0.88703 0.20713 0.46985 0.0
H770 H 0.84775 0.16959 0.46787 0.0
H771 H 0.81078 0.21003 0.48952 0.0
N772 N 0.89498 0.25389 0.47998 0.0
H773 H 0.85061 0.24819 0.4892 0.0
C774 C 0.72508 0.08521 0.51821 0.0
C775 C 0.73271 0.06878 0.52834 0.0
C776 C 0.72461 0.05607 0.56018 0.0
C777 C 0.70812 0.05888 0.58205 0.0
C778 C 0.70035 0.07515 0.57195 0.0
C779 C 0.70897 0.08837 0.54039 0.0
C780 C 0.72386 0.08086 0.45472 0.0
C781 C 0.69978 0.0715 0.44268 0.0
C782 C 0.68931 0.05177 0.41931 0.0
C783 C 0.70279 0.04096 0.40744 0.0
C784 C 0.72755 0.05142 0.41747 0.0
C785 C 0.73804 0.07123 0.44102 0.0
C786 C 0.75584 0.11915 0.48178 0.0
C787 C 0.77725 0.12002 0.49417 0.0
C788 C 0.79988 0.14187 0.49311 0.0
C789 C 0.80183 0.16326 0.47896 0.0
C790 C 0.7805 0.16212 0.46559 0.0
C791 C 0.75777 0.1403 0.46716 0.0
C792 C 0.90512 0.26282 0.51458 0.0
C793 C 0.90911 0.24842 0.53871 0.0
C794 C 0.92184 0.2587 0.5701 0.0
C795 C 0.9306 0.28347 0.5781 0.0
C796 C 0.92558 0.29749 0.55469 0.0
C797 C 0.91307 0.28724 0.52314 0.0
C798 C 0.91314 0.25743 0.45352 0.0
C799 C 0.91624 0.27215 0.4242 0.0
C800 C 0.93504 0.27777 0.39957 0.0
C801 C 0.95075 0.26828 0.40356 0.0
C802 C 0.94717 0.25288 0.43229 0.0
C803 C 0.92884 0.24785 0.45738 0.0
C804 C 0.87194 0.23086 0.47923 0.0
C805 C 0.87069 0.20827 0.47377 0.0
C806 C 0.84798 0.18651 0.47304 0.0
C807 C 0.82595 0.18663 0.47857 0.0
C808 C 0.82727 0.2092 0.48445 0.0
C809 C 0.85002 0.23103 0.4846 0.0
H810 H 0.0056 0.57044 0.16958 0.0
N811 N 0.96515 0.55534 0.21226 0.0
H812 H 0.01385 0.59284 0.11394 0.0
H813 H 0.93487 0.56522 0.1775 0.0
H814 H 0.94274 0.58734 0.12148 0.0
H815 H 0.93862 0.562 0.26085 0.0
H816 H 0.9531 0.59587 0.30324 0.0
H817 H 0.01357 0.58885 0.22706 0.0
H818 H 0.02814 0.62186 0.27021 0.0
H819 H 0.00449 0.54952 0.2285 0.0
H820 H 0.92765 0.51081 0.20041 0.0
H821 H 0.00439 0.51121 0.22955 0.0
H822 H 0.92761 0.47228 0.19974 0.0
H823 H 0.00927 0.4121 0.17242 0.0
H824 H 0.01759 0.39935 0.11582 0.0
H825 H 0.93943 0.35375 0.09772 0.0
H826 H 0.93115 0.36767 0.15423 0.0
H827 H 0.93768 0.35408 0.23288 0.0
H828 H 0.95222 0.33506 0.27467 0.0
H829 H 0.02344 0.40153 0.27697 0.0
H830 H 0.00857 0.42045 0.23524 0.0
H831 H 0.00266 0.44311 0.18547 0.0
H832 H 0.00296 0.48137 0.19034 0.0
H833 H 0.92953 0.44273 0.23538 0.0
N834 N 0.96383 0.39709 0.20174 0.0
H835 H 0.92896 0.40407 0.22861 0.0
C836 C 0.96961 0.56631 0.17772 0.0
C837 C 0.99175 0.57391 0.15917 0.0
C838 C -0.00358 0.58671 0.12733 0.0
C839 C 0.979 0.59199 0.11344 0.0
C840 C 0.95654 0.58359 0.13148 0.0
C841 C 0.95198 0.57094 0.16339 0.0
C842 C 0.97487 0.57258 0.24109 0.0
C843 C 0.95822 0.57466 0.26346 0.0
C844 C 0.96651 0.59401 0.28752 0.0
C845 C 0.99175 0.61143 0.28998 0.0
C846 C 0.00862 0.6085 0.26917 0.0
C847 C 0.00025 0.58946 0.24453 0.0
C848 C 0.96587 0.53306 0.21472 0.0
C849 C 0.98751 0.53284 0.2227 0.0
C850 C 0.9875 0.5108 0.22294 0.0
C851 C 0.966 0.48856 0.21471 0.0
C852 C 0.9444 0.48891 0.20689 0.0
C853 C 0.94439 0.51091 0.20702 0.0
C854 C 0.96946 0.39132 0.16725 0.0
C855 C 0.99385 0.40004 0.15597 0.0
C856 C -0.00138 0.39253 0.1236 0.0
C857 C 0.97915 0.37558 0.10235 0.0
C858 C 0.95478 0.36683 0.11359 0.0
C859 C 0.95003 0.37483 0.14567 0.0
C860 C 0.97198 0.38848 0.23077 0.0
C861 C 0.95622 0.36469 0.24308 0.0
C862 C 0.96463 0.35388 0.26684 0.0
C863 C 0.98909 0.36672 0.27877 0.0
C864 C 0.00451 0.39118 0.26818 0.0
C865 C -0.00396 0.402 0.24426 0.0
C866 C 0.96548 0.42047 0.20609 0.0
C867 C 0.98653 0.44266 0.19619 0.0
C868 C 0.9868 0.46475 0.19942 0.0
C869 C 0.96621 0.46521 0.21307 0.0
C870 C 0.94553 0.44306 0.22405 0.0
C871 C 0.9452 0.42096 0.22045 0.0
H872 H 0.64506 0.58384 0.15918 0.0
N873 N 0.60404 0.56097 0.19825 0.0
H874 H 0.65117 0.60602 0.10356 0.0
H875 H 0.56805 0.56157 0.15877 0.0
H876 H 0.57393 0.58364 0.10379 0.0
H877 H 0.57306 0.57814 0.21557 0.0
H878 H 0.58117 0.61057 0.25779 0.0
H879 H 0.64287 0.5848 0.24012 0.0
H880 H 0.65113 0.61718 0.28275 0.0
H881 H 0.58615 0.52295 0.15216 0.0
H882 H 0.57437 0.54149 0.25808 0.0
H883 H 0.54824 0.48342 0.15737 0.0
H884 H 0.53676 0.5023 0.26274 0.0
H885 H 0.41993 0.3625 0.17011 0.0
H886 H 0.39917 0.35411 0.11284 0.0
H887 H 0.42326 0.43099 0.10266 0.0
H888 H 0.44375 0.43907 0.15941 0.0
H889 H 0.41411 0.42653 0.20944 0.0
H890 H 0.38231 0.41809 0.25332 0.0
H891 H 0.39674 0.3657 0.30369 0.0
H892 H 0.42925 0.37478 0.25997 0.0
H893 H 0.48478 0.40728 0.18897 0.0
H894 H 0.52644 0.44343 0.19062 0.0
H895 H 0.49636 0.48651 0.23164 0.0
N896 N 0.44247 0.40488 0.20491 0.0
H897 H 0.45543 0.45108 0.22982 0.0
C898 C 0.60625 0.57119 0.16332 0.0
C899 C 0.62944 0.58344 0.14678 0.0
C900 C 0.63286 0.59608 0.11505 0.0
C901 C 0.61308 0.59679 0.09939 0.0
C902 C 0.58962 0.58365 0.11524 0.0
C903 C 0.58622 0.57103 0.14684 0.0
C904 C 0.60754 0.57911 0.22455 0.0
C905 C 0.59018 0.58661 0.22999 0.0
C906 C 0.59474 0.60505 0.2544 0.0
C907 C 0.6168 0.61652 0.27359 0.0
C908 C 0.63394 0.60876 0.26838 0.0
C909 C 0.6293 0.59026 0.2441 0.0
C910 C 0.58241 0.53665 0.20322 0.0
C911 C 0.57541 0.51886 0.17632 0.0
C912 C 0.55389 0.49604 0.17947 0.0
C913 C 0.53919 0.49017 0.21004 0.0
C914 C 0.54732 0.50677 0.23835 0.0
C915 C 0.56886 0.52951 0.23531 0.0
C916 C 0.43323 0.40127 0.16923 0.0
C917 C 0.42105 0.37753 0.15508 0.0
C918 C 0.40928 0.37282 0.12236 0.0
C919 C 0.40938 0.39185 0.10331 0.0
C920 C 0.42269 0.41586 0.11672 0.0
C921 C 0.43447 0.42054 0.1493 0.0
C922 C 0.42427 0.40129 0.23146 0.0
C923 C 0.41079 0.41347 0.2301 0.0
C924 C 0.39262 0.40874 0.25538 0.0
C925 C 0.38707 0.39129 0.28196 0.0
C926 C 0.40064 0.37927 0.28348 0.0
C927 C 0.41918 0.3844 0.2586 0.0
C928 C 0.46679 0.42608 0.20945 0.0
C929 C 0.48729 0.42448 0.19876 0.0
C930 C 0.51099 0.4451 0.19954 0.0
C931 C 0.51459 0.46771 0.21142 0.0
C932 C 0.49417 0.46921 0.22291 0.0
C933 C 0.47054 0.44874 0.22176 0.0
H934 H 0.57494 0.979 0.17406 0.0
N935 N 0.58971 0.02119 0.21203 0.0
H936 H 0.59109 0.97546 0.11747 0.0
H937 H 0.62449 0.05723 0.17302 0.0
H938 H 0.64162 0.05365 0.1161 0.0
H939 H 0.62886 0.03849 0.2529 0.0
H940 H 0.63945 0.01567 0.29377 0.0
H941 H 0.55875 0.97337 0.23338 0.0
H942 H 0.56927 0.95033 0.27364 0.0
H943 H 0.54413 0.98628 0.18707 0.0
H944 H 0.58398 0.05702 0.2376 0.0
H945 H 0.50704 0.98876 0.18731 0.0
H946 H 0.54641 0.05965 0.23778 0.0
H947 H 0.42459 0.98514 0.16272 0.0
H948 H 0.40337 0.97027 0.10682 0.0
H949 H 0.40079 0.03675 0.09536 0.0
H950 H 0.42231 0.0516 0.15177 0.0
H951 H 0.42889 0.05773 0.23859 0.0
H952 H 0.39561 0.04648 0.28194 0.0
H953 H 0.36811 0.96998 0.26021 0.0
H954 H 0.40032 0.98124 0.21591 0.0
H955 H 0.43951 0.98998 0.2238 0.0
H956 H 0.47717 0.98899 0.23073 0.0
H957 H 0.51944 0.06314 0.19173 0.0
N958 N 0.43546 0.02804 0.19622 0.0
H959 H 0.48129 0.06414 0.18491 0.0
C960 C 0.59823 0.01856 0.17768 0.0
C961 C 0.58903 0.99554 0.16149 0.0
C962 C 0.59844 0.9935 0.12902 0.0
C963 C 0.61761 0.0143 0.1123 0.0
C964 C 0.62684 0.03732 0.1284 0.0
C965 C 0.61707 0.0394 0.16075 0.0
C966 C 0.59321 0.00781 0.23984 0.0
C967 C 0.61559 0.01938 0.25794 0.0
C968 C 0.6216 0.00623 0.28115 0.0
C969 C 0.60531 0.98103 0.28659 0.0
C970 C 0.58228 0.96966 0.26985 0.0
C971 C 0.57624 0.98292 0.24671 0.0
C972 C 0.56702 0.02152 0.21259 0.0
C973 C 0.545 0.00229 0.19858 0.0
C974 C 0.52363 0.00367 0.1988 0.0
C975 C 0.52382 0.02434 0.21271 0.0
C976 C 0.54579 0.04355 0.22673 0.0
C977 C 0.56716 0.04204 0.22678 0.0
C978 C 0.42509 0.01962 0.16156 0.0
C979 C 0.41986 -0.00325 0.14812 0.0
C980 C 0.40764 0.98822 0.11596 0.0
C981 C 0.40024 0.00225 0.09661 0.0
C982 C 0.40621 0.02545 0.10954 0.0
C983 C 0.4185 0.03399 0.14172 0.0
C984 C 0.41743 0.02049 0.22431 0.0
C985 C 0.41589 0.03856 0.24365 0.0
C986 C 0.39693 0.03211 0.26832 0.0
C987 C 0.37947 0.00736 0.27456 0.0
C988 C 0.38159 0.98918 0.25633 0.0
C989 C 0.40014 0.99566 0.231 0.0
C990 C 0.45746 0.02725 0.20363 0.0
C991 C 0.45669 0.0062 0.21702 0.0
C992 C 0.47834 0.00556 0.22086 0.0
C993 C 0.5012 0.02592 0.21157 0.0
C994 C 0.50208 0.04724 0.19937 0.0
C995 C 0.48036 0.04781 0.19533 0.0
H996 H 0.35302 0.9243 0.842 0.0
N997 N 0.39515 0.95067 0.8067 0.0
H998 H 0.34152 0.93357 0.89963 0.0
H999 H 0.42463 0.98948 0.84948 0.0
H1000 H 0.41323 -0.00085 0.90664 0.0
H1001 H 0.41671 -0.0 0.7931 0.0
H1002 H 0.40161 0.019 0.75217 0.0
H1003 H 0.35985 0.92838 0.75912 0.0
H1004 H 0.3442 0.94733 0.71869 0.0
H1005 H 0.40583 0.92147 0.84288 0.0
H1006 H 0.43709 0.97972 0.76551 0.0
H1007 H 0.44544 0.92365 0.84748 0.0
H1008 H 0.47602 0.98128 0.76924 0.0
H1009 H 0.58111 0.94333 0.86293 0.0
H1010 H 0.60476 0.95668 0.91796 0.0
H1011 H 0.58636 0.01338 0.92945 0.0
H1012 H 0.56305 8e-05 0.87524 0.0
H1013 H 0.58981 0.0142 0.82107 0.0
H1014 H 0.61954 0.03488 0.77376 0.0
H1015 H 0.60072 0.96486 0.7284 0.0
H1016 H 0.56985 0.94408 0.77535 0.0
H1017 H 0.51674 0.92276 0.82957 0.0
H1018 H 0.47577 0.91712 0.81979 0.0
H1019 H 0.50849 0.99556 0.8106 0.0
N1020 N 0.5598 0.96446 0.82961 0.0
H1021 H 0.54882 0.00086 0.81873 0.0
C1022 C 0.38949 0.95623 0.84137 0.0
C1023 C 0.36624 0.94055 0.85621 0.0
C1024 C 0.35976 0.94587 0.88908 0.0
C1025 C 0.37645 0.96715 0.90759 0.0
C1026 C 0.39993 0.98267 0.89296 0.0
C1027 C 0.40644 0.97724 0.8602 0.0
C1028 C 0.38946 0.9626 0.77898 0.0
C1029 C 0.40128 0.98832 0.77634 0.0
C1030 C 0.39271 -0.00079 0.75279 0.0
C1031 C 0.37173 0.98463 0.73233 0.0
C1032 C 0.36045 0.95901 0.73414 0.0
C1033 C 0.36938 0.94815 0.75709 0.0
C1034 C 0.41826 0.9509 0.80495 0.0
C1035 C 0.42108 0.93455 0.82664 0.0
C1036 C 0.44372 0.9357 0.82905 0.0
C1037 C 0.46409 0.95297 0.80922 0.0
C1038 C 0.46092 0.96829 0.78578 0.0
C1039 C 0.43836 0.96736 0.78367 0.0
C1040 C 0.57027 0.97058 0.86465 0.0
C1041 C 0.58182 0.95831 0.87782 0.0
C1042 C 0.59534 0.96599 0.9092 0.0
C1043 C 0.59769 0.98627 0.92791 0.0
C1044 C 0.58514 -0.00219 0.91556 0.0
C1045 C 0.5716 0.9901 0.88435 0.0
C1046 C 0.57728 0.97742 0.80157 0.0
C1047 C 0.59147 0.00318 0.80059 0.0
C1048 C 0.60855 0.01507 0.77342 0.0
C1049 C 0.61231 0.00148 0.74728 0.0
C1050 C 0.5981 0.97578 0.74817 0.0
C1051 C 0.58056 0.9639 0.77492 0.0
C1052 C 0.53596 0.96211 0.82515 0.0
C1053 C 0.51495 0.93867 0.82544 0.0
C1054 C 0.49159 0.93552 0.81994 0.0
C1055 C 0.48881 0.9559 0.81421 0.0
C1056 C 0.50992 0.9794 0.81416 0.0
C1057 C 0.53319 0.98248 0.8193 0.0
H1058 H 0.00058 0.5643 0.86424 0.0
N1059 N 0.04029 0.59915 0.8264 0.0
H1060 H 0.98569 0.57001 0.92064 0.0
H1061 H 0.06152 0.63869 0.86769 0.0
H1062 H 0.04644 0.64477 0.92467 0.0
H1063 H 0.06599 0.63381 0.77891 0.0
H1064 H 0.05034 0.65156 0.73621 0.0
H1065 H 0.99153 0.58325 0.81303 0.0
H1066 H 0.97587 0.60009 0.76958 0.0
H1067 H 0.00391 0.55592 0.79645 0.0
H1068 H 0.07666 0.59117 0.84188 0.0
H1069 H 0.00362 0.51774 0.79274 0.0
H1070 H 0.07622 0.55228 0.83849 0.0
H1071 H 0.98424 0.40842 0.84286 0.0
H1072 H 0.97087 0.38497 0.89692 0.0
H1073 H 0.04659 0.4105 0.92416 0.0
H1074 H 0.06015 0.43506 0.86958 0.0
H1075 H 0.04945 0.41361 0.78403 0.0
H1076 H 0.02909 0.38329 0.73723 0.0
H1077 H 0.96888 0.39748 0.73876 0.0
H1078 H 0.9894 0.42782 0.78497 0.0
H1079 H -0.00284 0.44932 0.84125 0.0
H1080 H 0.00106 0.48921 0.83935 0.0
H1081 H 0.07454 0.52024 0.79603 0.0
N1082 N 0.03193 0.43767 0.81958 0.0
H1083 H 0.0706 0.47964 0.79818 0.0
C1084 C 0.03233 0.60114 0.86158 0.0
C1085 C 0.01105 0.58181 0.87734 0.0
C1086 C 0.00247 0.58515 0.90978 0.0
C1087 C 0.01478 0.60793 0.92718 0.0
C1088 C 0.03653 0.62699 0.91203 0.0
C1089 C 0.04517 0.62358 0.87951 0.0
C1090 C 0.03011 0.60712 0.79899 0.0
C1091 C 0.0463 0.62616 0.7766 0.0
C1092 C 0.03734 0.63623 0.75229 0.0
C1093 C 0.01189 0.62704 0.7495 0.0
C1094 C -0.00446 0.60726 0.77083 0.0
C1095 C 0.00455 0.59764 0.79576 0.0
C1096 C 0.04044 0.57676 0.81964 0.0
C1097 C 0.02004 0.55576 0.80525 0.0
C1098 C 0.01976 0.53368 0.80331 0.0
C1099 C 0.03976 0.53196 0.81572 0.0
C1100 C 0.06059 0.55311 0.82859 0.0
C1101 C 0.06084 0.57527 0.8306 0.0
C1102 C 0.0234 0.42397 0.85221 0.0
C1103 C -0.00183 0.40954 0.86049 0.0
C1104 C 0.99046 0.39597 0.89163 0.0
C1105 C 0.00768 0.39596 0.91498 0.0
C1106 C 0.0329 0.4102 0.90671 0.0
C1107 C 0.04066 0.42423 0.87567 0.0
C1108 C 0.02108 0.42295 0.78833 0.0
C1109 C 0.03213 0.41054 0.77366 0.0
C1110 C 0.0204 0.39318 0.74697 0.0
C1111 C -0.00283 0.38773 0.73455 0.0
C1112 C 0.98668 0.40112 0.74788 0.0
C1113 C -0.00148 0.4186 0.77443 0.0
C1114 C 0.03371 0.4613 0.8198 0.0
C1115 C 0.01421 0.46444 0.83141 0.0
C1116 C 0.01636 0.48739 0.83006 0.0
C1117 C 0.03801 0.50779 0.81722 0.0
C1118 C 0.05766 0.50482 0.80614 0.0
C1119 C 0.05543 0.48172 0.80728 0.0
H1120 H 0.41568 0.40357 0.84401 0.0
N1121 N 0.40233 0.43527 0.81708 0.0
H1122 H 0.40419 0.38356 0.9012 0.0
H1123 H 0.37482 0.43977 0.86696 0.0
H1124 H 0.36218 0.41863 0.92436 0.0
H1125 H 0.35863 0.4151 0.78714 0.0
H1126 H 0.34049 0.38047 0.74634 0.0
H1127 H 0.42762 0.41638 0.78228 0.0
H1128 H 0.40956 0.38152 0.7416 0.0
H1129 H 0.44778 0.44237 0.83548 0.0
H1130 H 0.41107 0.4776 0.7905 0.0
H1131 H 0.48659 0.48045 0.8333 0.0
H1132 H 0.45064 0.51603 0.78623 0.0
H1133 H 0.56865 0.56483 0.86758 0.0
H1134 H 0.58848 0.58025 0.92464 0.0
H1135 H 0.59972 0.65167 0.89966 0.0
H1136 H 0.58027 0.63614 0.84199 0.0
H1137 H 0.57715 0.6186 0.7559 0.0
H1138 H 0.61143 0.62804 0.7153 0.0
H1139 H 0.63012 0.58307 0.77793 0.0
H1140 H 0.59669 0.57448 0.81874 0.0
H1141 H 0.5568 0.54571 0.79913 0.0
H1142 H 0.51761 0.5083 0.79564 0.0
H1143 H 0.48049 0.54783 0.82257 0.0
N1144 N 0.56477 0.592 0.81464 0.0
H1145 H 0.52028 0.58603 0.82396 0.0
C1146 C 0.3965 0.42369 0.85137 0.0
C1147 C 0.40452 0.40756 0.86149 0.0
C1148 C 0.39783 0.39597 0.89428 0.0
C1149 C 0.38238 0.39964 0.91724 0.0
C1150 C 0.37415 0.41554 0.90712 0.0
C1151 C 0.38137 0.42763 0.87452 0.0
C1152 C 0.39429 0.41823 0.78798 0.0
C1153 C 0.37 0.40824 0.77657 0.0
C1154 C 0.35968 0.38837 0.75344 0.0
C1155 C 0.37352 0.37803 0.74122 0.0
C1156 C 0.39842 0.38904 0.75073 0.0
C1157 C 0.40877 0.40901 0.774 0.0
C1158 C 0.4262 0.4571 0.81359 0.0
C1159 C 0.44795 0.45818 0.82481 0.0
C1160 C 0.47042 0.48013 0.82315 0.0
C1161 C 0.47185 0.50143 0.80962 0.0
C1162 C 0.45019 0.50012 0.79741 0.0
C1163 C 0.42762 0.47817 0.79951 0.0
C1164 C 0.57323 0.59949 0.85034 0.0
C1165 C 0.57514 0.58373 0.87444 0.0
C1166 C 0.5865 0.59258 0.90708 0.0
C1167 C 0.59583 0.61723 0.91645 0.0
C1168 C 0.59269 0.63259 0.89316 0.0
C1169 C 0.58162 0.62379 0.86029 0.0
C1170 C 0.58414 0.59579 0.79021 0.0
C1171 C 0.58856 0.61068 0.76062 0.0
C1172 C 0.60809 0.61601 0.73756 0.0
C1173 C 0.62329 0.60612 0.74342 0.0
C1174 C 0.61851 0.59069 0.77254 0.0
C1175 C 0.59939 0.58587 0.79603 0.0
C1176 C 0.5417 0.56911 0.81158 0.0
C1177 C 0.54049 0.54676 0.80387 0.0
C1178 C 0.51782 0.52504 0.80221 0.0
C1179 C 0.4958 0.52491 0.80904 0.0
C1180 C 0.49701 0.54724 0.8166 0.0
C1181 C 0.51973 0.56907 0.81769 0.0
H1182 H 0.67277 0.91601 0.51467 0.0
N1183 N 0.62704 0.88376 0.54194 0.0
H1184 H 0.68169 0.93668 0.45785 0.0
H1185 H 0.595 0.87849 0.49242 0.0
H1186 H 0.60381 0.90012 0.4356 0.0
H1187 H 0.59988 0.89977 0.57197 0.0
H1188 H 0.61319 0.93327 0.61438 0.0
H1189 H 0.67111 0.90602 0.57733 0.0
H1190 H 0.68473 0.93974 0.61967 0.0
H1191 H 0.66696 0.87838 0.52752 0.0
H1192 H 0.59207 0.84078 0.56628 0.0
H1193 H 0.6679 0.84073 0.53056 0.0
H1194 H 0.59324 0.80293 0.57125 0.0
H1195 H 0.66991 0.75743 0.49845 0.0
H1196 H 0.67839 0.74543 0.44099 0.0
H1197 H 0.61124 0.67519 0.44998 0.0
H1198 H 0.60309 0.68735 0.50785 0.0
H1199 H 0.60795 0.69546 0.59295 0.0
H1200 H 0.6252 0.67792 0.63319 0.0
H1201 H 0.6982 0.72851 0.59341 0.0
H1202 H 0.68085 0.7452 0.55245 0.0
H1203 H 0.66981 0.77391 0.56366 0.0
H1204 H 0.66875 0.81149 0.56784 0.0
H1205 H 0.59289 0.77277 0.53366 0.0
N1206 N 0.63157 0.72857 0.54296 0.0
H1207 H 0.59379 0.73475 0.53123 0.0
C1208 C 0.63311 0.89525 0.5076 0.0
C1209 C 0.65758 0.91181 0.49734 0.0
C1210 C 0.66268 0.92378 0.46479 0.0
C1211 C 0.64343 0.91998 0.44227 0.0
C1212 C 0.619 0.90338 0.45245 0.0
C1213 C 0.61394 0.891 0.48474 0.0
C1214 C 0.63444 0.90054 0.57128 0.0
C1215 C 0.61822 0.90806 0.58295 0.0
C1216 C 0.62592 0.92724 0.60709 0.0
C1217 C 0.65012 0.93933 0.62006 0.0
C1218 C 0.66598 0.93079 0.61011 0.0
C1219 C 0.65822 0.91153 0.58581 0.0
C1220 C 0.62917 0.86235 0.54613 0.0
C1221 C 0.65073 0.86212 0.53702 0.0
C1222 C 0.65134 0.84047 0.53916 0.0
C1223 C 0.63058 0.81865 0.55095 0.0
C1224 C 0.60939 0.81922 0.56134 0.0
C1225 C 0.60873 0.84084 0.55881 0.0
C1226 C 0.63586 0.72315 0.50747 0.0
C1227 C 0.65692 0.73955 0.48797 0.0
C1228 C 0.66173 0.73264 0.45508 0.0
C1229 C 0.64555 0.70929 0.44105 0.0
C1230 C 0.62406 0.69329 0.46007 0.0
C1231 C 0.61935 0.70018 0.49304 0.0
C1232 C 0.64296 0.72175 0.56997 0.0
C1233 C 0.62771 0.70308 0.59352 0.0
C1234 C 0.63758 0.69309 0.61634 0.0
C1235 C 0.66303 0.70193 0.61637 0.0
C1236 C 0.67855 0.72157 0.59421 0.0
C1237 C 0.66859 0.73118 0.5708 0.0
C1238 C 0.63167 0.75122 0.54738 0.0
C1239 C 0.65279 0.77321 0.55754 0.0
C1240 C 0.65225 0.79494 0.55961 0.0
C1241 C 0.63075 0.79527 0.55103 0.0
C1242 C 0.60964 0.7732 0.54112 0.0
C1243 C 0.61014 0.75146 0.53947 0.0
H1244 H 0.30248 0.92024 0.49293 0.0
N1245 N 0.26029 0.89802 0.52897 0.0
H1246 H 0.3107 0.94199 0.4365 0.0
H1247 H 0.22564 0.8979 0.48525 0.0
H1248 H 0.23359 0.91942 0.42938 0.0
H1249 H 0.23902 0.92653 0.53617 0.0
H1250 H 0.24881 0.958 0.58057 0.0
H1251 H 0.29126 0.91015 0.58263 0.0
H1252 H 0.30169 0.94229 0.62689 0.0
H1253 H 0.25933 0.85606 0.51886 0.0
H1254 H 0.21312 0.88511 0.5499 0.0
H1255 H 0.22384 0.81431 0.52445 0.0
H1256 H 0.17816 0.84406 0.55534 0.0
H1257 H 0.08518 0.69216 0.49992 0.0
H1258 H 0.06301 0.68397 0.44386 0.0
H1259 H 0.08243 0.75985 0.43912 0.0
H1260 H 0.10449 0.76779 0.49458 0.0
H1261 H 0.08535 0.76148 0.5503 0.0
H1262 H 0.05284 0.75238 0.59342 0.0
H1263 H 0.05443 0.68799 0.62623 0.0
H1264 H 0.08704 0.69729 0.58277 0.0
H1265 H 0.14563 0.74954 0.49209 0.0
H1266 H 0.18436 0.78859 0.49307 0.0
H1267 H 0.16296 0.80681 0.59209 0.0
N1268 N 0.10691 0.73395 0.53654 0.0
H1269 H 0.1246 0.76825 0.5915 0.0
C1270 C 0.26358 0.90754 0.49349 0.0
C1271 C 0.28734 0.91964 0.47872 0.0
C1272 C 0.29197 0.93203 0.44652 0.0
C1273 C 0.27284 0.93265 0.42863 0.0
C1274 C 0.24879 0.91947 0.44259 0.0
C1275 C 0.24418 0.90703 0.47465 0.0
C1276 C 0.26442 0.9158 0.55612 0.0
C1277 C 0.25239 0.92943 0.55615 0.0
C1278 C 0.25795 0.94746 0.58169 0.0
C1279 C 0.27601 0.95262 0.60718 0.0
C1280 C 0.2877 0.93873 0.60751 0.0
C1281 C 0.2818 0.9204 0.58232 0.0
C1282 C 0.23918 0.87383 0.53418 0.0
C1283 C 0.24166 0.85346 0.52715 0.0
C1284 C 0.22142 0.82971 0.53021 0.0
C1285 C 0.19829 0.82596 0.54057 0.0
C1286 C 0.19586 0.84636 0.54797 0.0
C1287 C 0.21601 0.87001 0.54472 0.0
C1288 C 0.0963 0.73042 0.50166 0.0
C1289 C 0.08491 0.70703 0.48638 0.0
C1290 C 0.07232 0.70243 0.45435 0.0
C1291 C 0.0708 0.72122 0.43712 0.0
C1292 C 0.08309 0.74491 0.45176 0.0
C1293 C 0.09566 0.74947 0.48365 0.0
C1294 C 0.0886 0.72991 0.5632 0.0
C1295 C 0.0787 0.74538 0.56667 0.0
C1296 C 0.06023 0.74029 0.59162 0.0
C1297 C 0.05102 0.71946 0.61325 0.0
C1298 C 0.06111 0.70419 0.60996 0.0
C1299 C 0.07974 0.70943 0.58522 0.0
C1300 C 0.13085 0.75628 0.54003 0.0
C1301 C 0.1491 0.76196 0.51397 0.0
C1302 C 0.17141 0.78419 0.51472 0.0
C1303 C 0.17631 0.80104 0.54211 0.0
C1304 C 0.15924 0.79452 0.56994 0.0
C1305 C 0.13696 0.77232 0.56925 0.0
H1306 H 0.2362 0.33015 0.49596 0.0
N1307 N 0.26342 0.36213 0.54853 0.0
H1308 H 0.25164 0.32551 0.43877 0.0
H1309 H 0.30828 0.39053 0.52145 0.0
H1310 H 0.32386 0.3864 0.46364 0.0
H1311 H 0.29128 0.37714 0.60593 0.0
H1312 H 0.30105 0.3527 0.6453 0.0
H1313 H 0.24294 0.31205 0.54648 0.0
H1314 H 0.25207 0.28757 0.58603 0.0
H1315 H 0.21647 0.3256 0.56917 0.0
H1316 H 0.25881 0.40012 0.53153 0.0
H1317 H 0.17938 0.32766 0.56731 0.0
H1318 H 0.22104 0.40185 0.52793 0.0
H1319 H 0.07578 0.31877 0.50849 0.0
H1320 H 0.05397 0.30318 0.4534 0.0
H1321 H 0.08679 0.3769 0.41303 0.0
H1322 H 0.11011 0.3926 0.46841 0.0
H1323 H 0.0881 0.39272 0.54762 0.0
H1324 H 0.05463 0.38039 0.59042 0.0
H1325 H 0.05608 0.31431 0.61237 0.0
H1326 H 0.08976 0.32696 0.56973 0.0
H1327 H 0.1149 0.32753 0.51607 0.0
H1328 H 0.15266 0.32741 0.52434 0.0
H1329 H 0.18862 0.40277 0.55932 0.0
N1330 N 0.10786 0.36688 0.52542 0.0
H1331 H 0.1505 0.40314 0.54902 0.0
C1332 C 0.27125 0.36058 0.51313 0.0
C1333 C 0.25531 0.34256 0.4891 0.0
C1334 C 0.26417 0.33997 0.45638 0.0
C1335 C 0.289 0.35551 0.44685 0.0
C1336 C 0.30463 0.37419 0.47024 0.0
C1337 C 0.29581 0.37657 0.5032 0.0
C1338 C 0.26635 0.34659 0.5734 0.0
C1339 C 0.28241 0.35755 0.60183 0.0
C1340 C 0.28798 0.34357 0.62416 0.0
C1341 C 0.27728 0.31822 0.6187 0.0
C1342 C 0.26043 0.30702 0.59106 0.0
C1343 C 0.25527 0.3211 0.56831 0.0
C1344 C 0.24085 0.36285 0.55035 0.0
C1345 C 0.21806 0.3425 0.56046 0.0
C1346 C 0.19653 0.3436 0.55914 0.0
C1347 C 0.19707 0.36481 0.54707 0.0
C1348 C 0.2199 0.38529 0.53776 0.0
C1349 C 0.24151 0.38431 0.53959 0.0
C1350 C 0.09531 0.35696 0.49235 0.0
C1351 C 0.07907 0.33169 0.48766 0.0
C1352 C 0.0664 0.32274 0.45605 0.0
C1353 C 0.06888 0.33883 0.42883 0.0
C1354 C 0.08469 0.36412 0.43358 0.0
C1355 C 0.09802 0.37306 0.46501 0.0
C1356 C 0.09135 0.36084 0.55524 0.0
C1357 C 0.08156 0.37588 0.56231 0.0
C1358 C 0.06237 0.36871 0.58665 0.0
C1359 C 0.05248 0.34618 0.60441 0.0
C1360 C 0.06324 0.33171 0.59896 0.0
C1361 C 0.08255 0.33897 0.57456 0.0
C1362 C 0.12979 0.36562 0.53135 0.0
C1363 C 0.13071 0.34419 0.52522 0.0
C1364 C 0.15247 0.34401 0.53048 0.0
C1365 C 0.17378 0.36506 0.54259 0.0
C1366 C 0.1727 0.38633 0.54945 0.0
C1367 C 0.15092 0.38655 0.54379 0.0
loop_
_geom_bond_atom_site_label_1
_geom_bond_atom_site_label_2
_geom_bond_distance
_geom_bond_site_symmetry_2
_ccdc_geom_bond_type
C0 O1 1.306 1_556 S
C0 O3 1.160 . S
O1 C0 1.306 1_554 S
O1 Cd2 2.228 . S
Cd2 O1 2.228 . S
Cd2 O6 2.273 . S
Cd2 O10 2.277 1_554 S
O3 C0 1.160 . S
O3 Cd4 2.203 1_656 S
Cd4 O3 2.203 1_454 S
Cd4 O6 2.411 1_455 S
Cd4 O7 2.333 . S
Cd4 O8 2.352 . S
Cd4 O12 2.277 1_554 S
Cd4 O13 2.356 . S
C5 O10 1.209 1_455 S
C5 O12 1.226 . S
O6 Cd2 2.273 . S
O6 Cd4 2.411 1_655 S
O6 C9 1.316 1_655 S
O7 Cd4 2.333 . S
O7 C9 1.223 . S
O8 Cd4 2.352 . S
O8 C11 1.258 . S
C9 O6 1.316 1_455 S
C9 O7 1.223 . S
O10 Cd2 2.277 1_556 S
O10 C5 1.209 1_655 S
C11 O8 1.258 . S
C11 O13 1.282 . S
O12 Cd4 2.277 1_556 S
O12 C5 1.226 . S
O13 Cd4 2.356 . S
O13 C11 1.282 . S
C14 O15 1.306 . S
C14 O17 1.160 . S
O15 C14 1.306 . S
O15 Cd16 2.228 . S
Cd16 O15 2.228 . S
Cd16 O20 2.273 1_554 S
Cd16 O24 2.277 . S
O17 C14 1.160 . S
O17 Cd18 2.203 . S
Cd18 O17 2.203 . S
Cd18 O20 2.411 1_554 S
Cd18 O21 2.333 1_554 S
Cd18 O22 2.352 1_554 S
Cd18 O26 2.277 . S
Cd18 O27 2.356 . S
C19 O24 1.209 . S
C19 O26 1.226 . S
O20 Cd16 2.273 1_556 S
O20 Cd18 2.411 1_556 S
O20 C23 1.320 . S
O21 Cd18 2.333 1_556 S
O21 C23 1.214 . S
O22 Cd18 2.352 1_556 S
O22 C25 1.258 . S
C23 O20 1.320 . S
C23 O21 1.214 . S
O24 Cd16 2.277 . S
O24 C19 1.209 . S
C25 O22 1.258 . S
C25 O27 1.282 1_556 S
O26 Cd18 2.277 . S
O26 C19 1.226 . S
O27 Cd18 2.356 . S
O27 C25 1.282 1_554 S
C28 O29 1.306 . S
C28 O31 1.160 . S
O29 C28 1.306 . S
O29 Cd30 2.228 . S
Cd30 O29 2.228 . S
Cd30 O34 2.273 1_554 S
Cd30 O38 2.277 . S
O31 C28 1.160 . S
O31 Cd32 2.203 1_565 S
Cd32 O31 2.203 1_545 S
Cd32 O34 2.411 1_544 S
Cd32 O35 2.333 1_554 S
Cd32 O36 2.352 1_554 S
Cd32 O40 2.277 . S
Cd32 O41 2.356 . S
C33 O38 1.209 1_545 S
C33 O40 1.226 . S
O34 Cd30 2.273 1_556 S
O34 Cd32 2.411 1_566 S
O34 C37 1.320 1_565 S
O35 Cd32 2.333 1_556 S
O35 C37 1.214 . S
O36 Cd32 2.352 1_556 S
O36 C39 1.258 . S
C37 O34 1.320 1_545 S
C37 O35 1.214 . S
O38 Cd30 2.277 . S
O38 C33 1.209 1_565 S
C39 O36 1.258 . S
C39 O41 1.282 1_556 S
O40 Cd32 2.277 . S
O40 C33 1.226 . S
O41 Cd32 2.356 . S
O41 C39 1.282 1_554 S
C42 O43 1.306 1_556 S
C42 O45 1.160 . S
O43 C42 1.306 1_554 S
O43 Cd44 2.228 . S
Cd44 O43 2.228 . S
Cd44 O48 2.273 . S
Cd44 O52 2.277 1_554 S
O45 C42 1.160 . S
O45 Cd46 2.203 1_656 S
Cd46 O45 2.203 1_454 S
Cd46 O48 2.411 1_455 S
Cd46 O49 2.333 . S
Cd46 O50 2.352 . S
Cd46 O54 2.277 1_554 S
Cd46 O55 2.356 . S
C47 O52 1.209 1_455 S
C47 O54 1.226 . S
O48 Cd44 2.273 . S
O48 Cd46 2.411 1_655 S
O48 C51 1.289 1_655 S
O49 Cd46 2.333 . S
O49 C51 1.238 . S
O50 Cd46 2.352 . S
O50 C53 1.258 . S
C51 O48 1.289 1_455 S
C51 O49 1.238 . S
O52 Cd44 2.277 1_556 S
O52 C47 1.209 1_655 S
C53 O50 1.258 . S
C53 O55 1.282 . S
O54 Cd46 2.277 1_556 S
O54 C47 1.226 . S
O55 Cd46 2.356 . S
O55 C53 1.282 . S
C56 O57 1.306 . S
C56 O59 1.160 . S
O57 C56 1.306 . S
O57 Cd58 2.228 . S
Cd58 O57 2.228 . S
Cd58 O62 2.273 1_554 S
Cd58 O66 2.277 . S
O59 C56 1.160 . S
O59 Cd60 2.203 . S
Cd60 O59 2.203 . S
Cd60 O62 2.411 1_554 S
Cd60 O63 2.333 1_554 S
Cd60 O64 2.352 1_554 S
Cd60 O68 2.277 . S
Cd60 O69 2.356 . S
C61 O66 1.209 . S
C61 O68 1.226 . S
O62 Cd58 2.273 1_556 S
O62 Cd60 2.411 1_556 S
O62 C65 1.320 . S
O63 Cd60 2.333 1_556 S
O63 C65 1.214 . S
O64 Cd60 2.352 1_556 S
O64 C67 1.258 . S
C65 O62 1.320 . S
C65 O63 1.214 . S
O66 Cd58 2.277 . S
O66 C61 1.209 . S
C67 O64 1.258 . S
C67 O69 1.282 1_556 S
O68 Cd60 2.277 . S
O68 C61 1.226 . S
O69 Cd60 2.356 . S
O69 C67 1.282 1_554 S
C70 O71 1.306 1_556 S
C70 O73 1.160 . S
O71 C70 1.306 1_554 S
O71 Cd72 2.228 . S
Cd72 O71 2.228 . S
Cd72 O76 2.273 . S
Cd72 O80 2.277 1_554 S
O73 C70 1.160 . S
O73 Cd74 2.203 1_546 S
Cd74 O73 2.203 1_564 S
Cd74 O76 2.411 1_565 S
Cd74 O77 2.333 . S
Cd74 O78 2.352 . S
Cd74 O82 2.277 1_554 S
Cd74 O83 2.356 . S
C75 O80 1.188 1_565 S
C75 O82 1.255 . S
O76 Cd72 2.273 . S
O76 Cd74 2.411 1_545 S
O76 C79 1.332 . S
O77 Cd74 2.333 . S
O77 C79 1.189 1_565 S
O78 Cd74 2.352 . S
O78 C81 1.258 . S
C79 O76 1.332 . S
C79 O77 1.189 1_545 S
O80 Cd72 2.277 1_556 S
O80 C75 1.188 1_545 S
C81 O78 1.258 . S
C81 O83 1.282 . S
O82 Cd74 2.277 1_556 S
O82 C75 1.255 . S
O83 Cd74 2.356 . S
O83 C81 1.282 . S
C84 O85 1.306 . S
C84 O87 1.160 . S
O85 C84 1.306 . S
O85 Cd86 2.228 . S
Cd86 O85 2.228 . S
Cd86 O90 2.273 . S
Cd86 O94 2.277 . S
O87 C84 1.160 . S
O87 Cd88 2.203 . S
Cd88 O87 2.203 . S
Cd88 O90 2.411 . S
Cd88 O91 2.333 . S
Cd88 O92 2.352 . S
Cd88 O96 2.277 . S
Cd88 O97 2.356 . S
C89 O94 1.209 . S
C89 O96 1.226 . S
O90 Cd86 2.273 . S
O90 Cd88 2.411 . S
O90 C93 1.320 . S
O91 Cd88 2.333 . S
O91 C93 1.214 . S
O92 Cd88 2.352 . S
O92 C95 1.258 . S
C93 O90 1.320 . S
C93 O91 1.214 . S
O94 Cd86 2.277 . S
O94 C89 1.209 . S
C95 O92 1.258 . S
C95 O97 1.282 . S
O96 Cd88 2.277 . S
O96 C89 1.226 . S
O97 Cd88 2.356 . S
O97 C95 1.282 . S
C98 O99 1.306 . S
C98 O101 1.160 . S
O99 C98 1.306 . S
O99 Cd100 2.228 1_545 S
Cd100 O99 2.228 1_565 S
Cd100 O104 2.273 . S
Cd100 O108 2.277 . S
O101 C98 1.160 . S
O101 Cd102 2.203 1_545 S
Cd102 O101 2.203 1_565 S
Cd102 O104 2.411 . S
Cd102 O105 2.333 . S
Cd102 O106 2.352 . S
Cd102 O110 2.277 . S
Cd102 O111 2.356 . S
C103 O108 1.209 . S
C103 O110 1.226 . S
O104 Cd100 2.273 . S
O104 Cd102 2.411 . S
O104 C107 1.320 . S
O105 Cd102 2.333 . S
O105 C107 1.214 . S
O106 Cd102 2.352 . S
O106 C109 1.258 . S
C107 O104 1.320 . S
C107 O105 1.214 . S
O108 Cd100 2.277 . S
O108 C103 1.209 . S
C109 O106 1.258 . S
C109 O111 1.282 . S
O110 Cd102 2.277 . S
O110 C103 1.226 . S
O111 Cd102 2.356 . S
O111 C109 1.282 . S
C112 O113 1.306 . S
C112 O115 1.160 1_655 S
O113 C112 1.306 . S
O113 Cd114 2.228 1_655 S
Cd114 O113 2.228 1_455 S
Cd114 O118 2.273 . S
Cd114 O122 2.277 . S
O115 C112 1.160 1_455 S
O115 Cd116 2.203 . S
Cd116 O115 2.203 . S
Cd116 O118 2.411 . S
Cd116 O119 2.333 . S
Cd116 O120 2.352 . S
Cd116 O124 2.277 . S
Cd116 O125 2.356 . S
C117 O122 1.209 . S
C117 O124 1.226 . S
O118 Cd114 2.273 . S
O118 Cd116 2.411 . S
O118 C121 1.320 . S
O119 Cd116 2.333 . S
O119 C121 1.214 . S
O120 Cd116 2.352 . S
O120 C123 1.258 . S
C121 O118 1.320 . S
C121 O119 1.214 . S
O122 Cd114 2.277 . S
O122 C117 1.209 . S
C123 O120 1.258 . S
C123 O125 1.282 . S
O124 Cd116 2.277 . S
O124 C117 1.226 . S
O125 Cd116 2.356 . S
O125 C123 1.282 . S
C126 O127 1.306 . S
C126 O129 1.160 . S
O127 C126 1.306 . S
O127 Cd128 2.228 . S
Cd128 O127 2.228 . S
Cd128 O132 2.273 . S
Cd128 O136 2.277 . S
O129 C126 1.160 . S
O129 Cd130 2.203 . S
Cd130 O129 2.203 . S
Cd130 O132 2.411 . S
Cd130 O133 2.333 . S
Cd130 O134 2.352 1_565 S
Cd130 O138 2.277 . S
Cd130 O139 2.356 1_565 S
C131 O136 1.209 . S
C131 O138 1.226 . S
O132 Cd128 2.273 . S
O132 Cd130 2.411 . S
O132 C135 1.320 . S
O133 Cd130 2.333 . S
O133 C135 1.214 . S
O134 Cd130 2.352 1_545 S
O134 C137 1.258 . S
C135 O132 1.320 . S
C135 O133 1.214 . S
O136 Cd128 2.277 . S
O136 C131 1.209 . S
C137 O134 1.258 . S
C137 O139 1.282 . S
O138 Cd130 2.277 . S
O138 C131 1.226 . S
O139 Cd130 2.356 1_545 S
O139 C137 1.282 . S
C140 O141 1.306 . S
C140 O143 1.160 . S
O141 C140 1.306 . S
O141 Cd142 2.228 1_655 S
Cd142 O141 2.228 1_455 S
Cd142 O146 2.273 . S
Cd142 O150 2.277 . S
O143 C140 1.160 . S
O143 Cd144 2.203 1_655 S
Cd144 O143 2.203 1_455 S
Cd144 O146 2.411 . S
Cd144 O147 2.333 . S
Cd144 O148 2.352 . S
Cd144 O152 2.277 . S
Cd144 O153 2.356 . S
C145 O150 1.209 . S
C145 O152 1.226 . S
O146 Cd142 2.273 . S
O146 Cd144 2.411 . S
O146 C149 1.320 . S
O147 Cd144 2.333 . S
O147 C149 1.214 . S
O148 Cd144 2.352 . S
O148 C151 1.258 . S
C149 O146 1.320 . S
C149 O147 1.214 . S
O150 Cd142 2.277 . S
O150 C145 1.209 . S
C151 O148 1.258 . S
C151 O153 1.282 . S
O152 Cd144 2.277 . S
O152 C145 1.226 . S
O153 Cd144 2.356 . S
O153 C151 1.282 . S
C154 O155 1.306 . S
C154 O157 1.160 . S
O155 C154 1.306 . S
O155 Cd156 2.228 . S
Cd156 O155 2.228 . S
Cd156 O160 2.273 . S
Cd156 O164 2.277 . S
O157 C154 1.160 . S
O157 Cd158 2.203 . S
Cd158 O157 2.203 . S
Cd158 O160 2.411 . S
Cd158 O161 2.333 . S
Cd158 O162 2.352 . S
Cd158 O166 2.277 . S
Cd158 O167 2.356 . S
C159 O164 1.209 . S
C159 O166 1.226 . S
O160 Cd156 2.273 . S
O160 Cd158 2.411 . S
O160 C163 1.320 . S
O161 Cd158 2.333 . S
O161 C163 1.214 . S
O162 Cd158 2.352 . S
O162 C165 1.258 . S
C163 O160 1.320 . S
C163 O161 1.214 . S
O164 Cd156 2.277 . S
O164 C159 1.209 . S
C165 O162 1.258 . S
C165 O167 1.282 . S
O166 Cd158 2.277 . S
O166 C159 1.226 . S
O167 Cd158 2.356 . S
O167 C165 1.282 . S
C168 O169 1.306 . S
C168 O171 1.160 . S
O169 C168 1.306 . S
O169 Cd170 2.228 1_565 S
Cd170 O169 2.228 1_545 S
Cd170 O174 2.273 . S
Cd170 O178 2.277 . S
O171 C168 1.160 . S
O171 Cd172 2.203 1_565 S
Cd172 O171 2.203 1_545 S
Cd172 O174 2.411 . S
Cd172 O175 2.333 . S
Cd172 O176 2.352 . S
Cd172 O180 2.277 . S
Cd172 O181 2.356 . S
C173 O178 1.209 . S
C173 O180 1.226 . S
O174 Cd170 2.273 . S
O174 Cd172 2.411 . S
O174 C177 1.320 . S
O175 Cd172 2.333 . S
O175 C177 1.214 . S
O176 Cd172 2.352 . S
O176 C179 1.258 . S
C177 O174 1.320 . S
C177 O175 1.214 . S
O178 Cd170 2.277 . S
O178 C173 1.209 . S
C179 O176 1.258 . S
C179 O181 1.282 . S
O180 Cd172 2.277 . S
O180 C173 1.226 . S
O181 Cd172 2.356 . S
O181 C179 1.282 . S
C182 O183 1.306 . S
C182 O185 1.160 . S
O183 C182 1.306 . S
O183 Cd184 2.228 . S
Cd184 O183 2.228 . S
Cd184 O188 2.273 . S
Cd184 O192 2.277 . S
O185 C182 1.160 . S
O185 Cd186 2.203 . S
Cd186 O185 2.203 . S
Cd186 O188 2.411 . S
Cd186 O189 2.333 . S
Cd186 O190 2.352 1_655 S
Cd186 O194 2.277 . S
Cd186 O195 2.356 1_655 S
C187 O192 1.209 . S
C187 O194 1.226 . S
O188 Cd184 2.273 . S
O188 Cd186 2.411 . S
O188 C191 1.320 . S
O189 Cd186 2.333 . S
O189 C191 1.214 . S
O190 Cd186 2.352 1_455 S
O190 C193 1.258 . S
C191 O188 1.320 . S
C191 O189 1.214 . S
O192 Cd184 2.277 . S
O192 C187 1.209 . S
C193 O190 1.258 . S
C193 O195 1.282 . S
O194 Cd186 2.277 . S
O194 C187 1.226 . S
O195 Cd186 2.356 1_455 S
O195 C193 1.282 . S
C196 O197 1.306 . S
C196 O199 1.160 . S
O197 C196 1.306 . S
O197 Cd198 2.228 . S
Cd198 O197 2.228 . S
Cd198 O202 2.273 . S
Cd198 O206 2.277 . S
O199 C196 1.160 . S
O199 Cd200 2.203 . S
Cd200 O199 2.203 . S
Cd200 O202 2.411 . S
Cd200 O203 2.333 . S
Cd200 O204 2.352 . S
Cd200 O208 2.277 . S
Cd200 O209 2.356 . S
C201 O206 1.209 . S
C201 O208 1.226 . S
O202 Cd198 2.273 . S
O202 Cd200 2.411 . S
O202 C205 1.320 . S
O203 Cd200 2.333 . S
O203 C205 1.214 . S
O204 Cd200 2.352 . S
O204 C207 1.258 . S
C205 O202 1.320 . S
C205 O203 1.214 . S
O206 Cd198 2.277 . S
O206 C201 1.209 . S
C207 O204 1.258 . S
C207 O209 1.282 . S
O208 Cd200 2.277 . S
O208 C201 1.226 . S
O209 Cd200 2.356 . S
O209 C207 1.282 . S
C210 O211 1.306 . S
C210 O213 1.160 . S
O211 C210 1.306 . S
O211 Cd212 2.228 . S
Cd212 O211 2.228 . S
Cd212 O216 2.273 . S
Cd212 O220 2.277 . S
O213 C210 1.160 . S
O213 Cd214 2.203 . S
Cd214 O213 2.203 . S
Cd214 O216 2.411 . S
Cd214 O217 2.333 . S
Cd214 O218 2.352 . S
Cd214 O222 2.277 . S
Cd214 O223 2.356 . S
C215 O220 1.209 . S
C215 O222 1.226 . S
O216 Cd212 2.273 . S
O216 Cd214 2.411 . S
O216 C219 1.320 . S
O217 Cd214 2.333 . S
O217 C219 1.214 . S
O218 Cd214 2.352 . S
O218 C221 1.258 . S
C219 O216 1.320 . S
C219 O217 1.214 . S
O220 Cd212 2.277 . S
O220 C215 1.209 . S
C221 O218 1.258 . S
C221 O223 1.282 . S
O222 Cd214 2.277 . S
O222 C215 1.226 . S
O223 Cd214 2.356 . S
O223 C221 1.282 . S
C224 O225 1.306 . S
C224 O227 1.160 . S
O225 C224 1.306 . S
O225 Cd226 2.228 . S
Cd226 O225 2.228 . S
Cd226 O230 2.273 . S
Cd226 O234 2.277 . S
O227 C224 1.160 . S
O227 Cd228 2.203 . S
Cd228 O227 2.203 . S
Cd228 O230 2.411 . S
Cd228 O231 2.333 . S
Cd228 O232 2.352 1_545 S
Cd228 O236 2.277 . S
Cd228 O237 2.356 1_545 S
C229 O234 1.209 . S
C229 O236 1.226 . S
O230 Cd226 2.273 . S
O230 Cd228 2.411 . S
O230 C233 1.320 . S
O231 Cd228 2.333 . S
O231 C233 1.214 . S
O232 Cd228 2.352 1_565 S
O232 C235 1.258 . S
C233 O230 1.320 . S
C233 O231 1.214 . S
O234 Cd226 2.277 . S
O234 C229 1.209 . S
C235 O232 1.258 . S
C235 O237 1.282 . S
O236 Cd228 2.277 . S
O236 C229 1.226 . S
O237 Cd228 2.356 1_565 S
O237 C235 1.282 . S
C238 O239 1.306 . S
C238 O241 1.160 . S
O239 C238 1.306 . S
O239 Cd240 2.228 1_455 S
Cd240 O239 2.228 1_655 S
Cd240 O244 2.273 . S
Cd240 O248 2.277 . S
O241 C238 1.160 . S
O241 Cd242 2.203 1_455 S
Cd242 O241 2.203 1_655 S
Cd242 O244 2.411 . S
Cd242 O245 2.333 . S
Cd242 O246 2.352 . S
Cd242 O250 2.277 . S
Cd242 O251 2.356 . S
C243 O248 1.209 . S
C243 O250 1.226 . S
O244 Cd240 2.273 . S
O244 Cd242 2.411 . S
O244 C247 1.320 . S
O245 Cd242 2.333 . S
O245 C247 1.214 . S
O246 Cd242 2.352 . S
O246 C249 1.258 . S
C247 O244 1.320 . S
C247 O245 1.214 . S
O248 Cd240 2.277 . S
O248 C243 1.209 . S
C249 O246 1.258 . S
C249 O251 1.282 . S
O250 Cd242 2.277 . S
O250 C243 1.226 . S
O251 Cd242 2.356 . S
O251 C249 1.282 . S
H252 C279 0.929 . S
N253 C278 1.433 . S
N253 C284 1.435 . S
N253 C290 1.423 . S
H254 C280 0.930 . S
H255 C283 0.931 . S
H256 C282 0.929 . S
H257 C285 0.930 . S
H258 C286 0.932 . S
H259 C289 0.929 . S
H260 C288 0.931 . S
H261 C291 0.929 . S
H262 C295 0.932 . S
H263 C292 0.931 . S
H264 C294 0.929 . S
H265 C297 0.929 . S
H266 C298 0.930 . S
H267 C300 0.929 . S
H268 C301 0.931 . S
H269 C303 0.930 . S
H270 C304 0.932 . S
H271 C306 0.931 . S
H272 C307 0.929 . S
H273 C309 0.929 . S
H274 C310 0.931 . S
H275 C312 0.929 . S
N276 C296 1.433 . S
N276 C302 1.435 . S
N276 C308 1.423 . S
H277 C313 0.932 . S
C278 N253 1.433 . S
C278 C279 1.363 . S
C278 C283 1.370 . S
C279 H252 0.929 . S
C279 C278 1.363 . S
C279 C280 1.385 . S
C280 H254 0.930 . S
C280 C279 1.385 . S
C280 C281 1.357 . S
C281 C280 1.357 . S
C281 C282 1.406 . S
C282 H256 0.929 . S
C282 C281 1.406 . S
C282 C283 1.391 . S
C283 H255 0.931 . S
C283 C278 1.370 . S
C283 C282 1.391 . S
C284 N253 1.435 . S
C284 C285 1.358 . S
C284 C289 1.371 . S
C285 H257 0.930 . S
C285 C284 1.358 . S
C285 C286 1.405 . S
C286 H258 0.932 . S
C286 C285 1.405 . S
C286 C287 1.383 . S
C287 C286 1.383 . S
C287 C288 1.393 . S
C288 H260 0.931 . S
C288 C287 1.393 . S
C288 C289 1.382 . S
C289 H259 0.929 . S
C289 C284 1.371 . S
C289 C288 1.382 . S
C290 N253 1.423 . S
C290 C291 1.362 . S
C290 C295 1.388 . S
C291 H261 0.929 . S
C291 C290 1.362 . S
C291 C292 1.376 . S
C292 H263 0.931 . S
C292 C291 1.376 . S
C292 C293 1.396 . S
C293 C292 1.396 . S
C293 C294 1.348 . S
C293 C311 1.472 . S
C294 H264 0.929 . S
C294 C293 1.348 . S
C294 C295 1.443 . S
C295 H262 0.932 . S
C295 C290 1.388 . S
C295 C294 1.443 . S
C296 N276 1.433 . S
C296 C297 1.363 . S
C296 C301 1.370 . S
C297 H265 0.929 . S
C297 C296 1.363 . S
C297 C298 1.385 . S
C298 H266 0.930 . S
C298 C297 1.385 . S
C298 C299 1.357 . S
C299 C298 1.357 . S
C299 C300 1.406 . S
C300 H267 0.929 . S
C300 C299 1.406 . S
C300 C301 1.391 . S
C301 H268 0.931 . S
C301 C296 1.370 . S
C301 C300 1.391 . S
C302 N276 1.435 . S
C302 C303 1.358 . S
C302 C307 1.371 . S
C303 H269 0.930 . S
C303 C302 1.358 . S
C303 C304 1.405 . S
C304 H270 0.932 . S
C304 C303 1.405 . S
C304 C305 1.383 . S
C305 C304 1.383 . S
C305 C306 1.393 . S
C306 H271 0.931 . S
C306 C305 1.393 . S
C306 C307 1.382 . S
C307 H272 0.929 . S
C307 C302 1.371 . S
C307 C306 1.382 . S
C308 N276 1.423 . S
C308 C309 1.362 . S
C308 C313 1.388 . S
C309 H273 0.929 . S
C309 C308 1.362 . S
C309 C310 1.376 . S
C310 H274 0.931 . S
C310 C309 1.376 . S
C310 C311 1.396 . S
C311 C293 1.472 . S
C311 C310 1.396 . S
C311 C312 1.348 . S
C312 H275 0.929 . S
C312 C311 1.348 . S
C312 C313 1.443 . S
C313 H277 0.932 . S
C313 C308 1.388 . S
C313 C312 1.443 . S
H314 C341 0.929 . S
N315 C340 1.433 . S
N315 C346 1.435 . S
N315 C352 1.423 . S
H316 C342 0.930 . S
H317 C345 0.931 . S
H318 C344 0.929 . S
H319 C347 0.930 . S
H320 C348 0.932 . S
H321 C351 0.929 . S
H322 C350 0.931 . S
H323 C353 0.929 . S
H324 C357 0.932 . S
H325 C354 0.931 . S
H326 C356 0.929 . S
H327 C359 0.929 . S
H328 C360 0.930 . S
H329 C362 0.929 . S
H330 C363 0.931 . S
H331 C365 0.930 . S
H332 C366 0.932 . S
H333 C368 0.931 . S
H334 C369 0.929 . S
H335 C371 0.929 . S
H336 C372 0.931 . S
H337 C374 0.929 . S
N338 C358 1.433 . S
N338 C364 1.435 . S
N338 C370 1.423 . S
H339 C375 0.932 . S
C340 N315 1.433 . S
C340 C341 1.363 . S
C340 C345 1.370 . S
C341 H314 0.929 . S
C341 C340 1.363 . S
C341 C342 1.385 . S
C342 H316 0.930 . S
C342 C341 1.385 . S
C342 C343 1.357 . S
C343 C342 1.357 . S
C343 C344 1.406 . S
C344 H318 0.929 . S
C344 C343 1.406 . S
C344 C345 1.391 . S
C345 H317 0.931 . S
C345 C340 1.370 . S
C345 C344 1.391 . S
C346 N315 1.435 . S
C346 C347 1.358 . S
C346 C351 1.371 . S
C347 H319 0.930 . S
C347 C346 1.358 . S
C347 C348 1.405 . S
C348 H320 0.932 . S
C348 C347 1.405 . S
C348 C349 1.383 . S
C349 C348 1.383 . S
C349 C350 1.393 . S
C350 H322 0.931 . S
C350 C349 1.393 . S
C350 C351 1.382 . S
C351 H321 0.929 . S
C351 C346 1.371 . S
C351 C350 1.382 . S
C352 N315 1.423 . S
C352 C353 1.362 . S
C352 C357 1.388 . S
C353 H323 0.929 . S
C353 C352 1.362 . S
C353 C354 1.376 . S
C354 H325 0.931 . S
C354 C353 1.376 . S
C354 C355 1.396 . S
C355 C354 1.396 . S
C355 C356 1.348 . S
C355 C373 1.472 . S
C356 H326 0.929 . S
C356 C355 1.348 . S
C356 C357 1.443 . S
C357 H324 0.932 . S
C357 C352 1.388 . S
C357 C356 1.443 . S
C358 N338 1.433 . S
C358 C359 1.363 . S
C358 C363 1.370 . S
C359 H327 0.929 . S
C359 C358 1.363 . S
C359 C360 1.385 . S
C360 H328 0.930 . S
C360 C359 1.385 . S
C360 C361 1.357 . S
C361 C360 1.357 . S
C361 C362 1.406 . S
C362 H329 0.929 . S
C362 C361 1.406 . S
C362 C363 1.391 . S
C363 H330 0.931 . S
C363 C358 1.370 . S
C363 C362 1.391 . S
C364 N338 1.435 . S
C364 C365 1.358 . S
C364 C369 1.371 . S
C365 H331 0.930 . S
C365 C364 1.358 . S
C365 C366 1.405 . S
C366 H332 0.932 . S
C366 C365 1.405 . S
C366 C367 1.383 . S
C367 C366 1.383 . S
C367 C368 1.393 . S
C368 H333 0.931 . S
C368 C367 1.393 . S
C368 C369 1.382 . S
C369 H334 0.929 . S
C369 C364 1.371 . S
C369 C368 1.382 . S
C370 N338 1.423 . S
C370 C371 1.362 . S
C370 C375 1.388 . S
C371 H335 0.929 . S
C371 C370 1.362 . S
C371 C372 1.376 . S
C372 H336 0.931 . S
C372 C371 1.376 . S
C372 C373 1.396 . S
C373 C355 1.472 . S
C373 C372 1.396 . S
C373 C374 1.348 . S
C374 H337 0.929 . S
C374 C373 1.348 . S
C374 C375 1.443 . S
C375 H339 0.932 . S
C375 C370 1.388 . S
C375 C374 1.443 . S
H376 C403 0.929 . S
N377 C402 1.433 . S
N377 C408 1.435 . S
N377 C414 1.423 . S
H378 C404 0.930 . S
H379 C407 0.931 . S
H380 C406 0.929 . S
H381 C409 0.930 . S
H382 C410 0.932 . S
H383 C413 0.929 . S
H384 C412 0.931 . S
H385 C415 0.929 . S
H386 C419 0.932 . S
H387 C416 0.931 . S
H388 C418 0.929 . S
H389 C421 0.929 . S
H390 C422 0.930 . S
H391 C424 0.929 . S
H392 C425 0.931 . S
H393 C427 0.930 . S
H394 C428 0.932 . S
H395 C430 0.931 . S
H396 C431 0.929 . S
H397 C433 0.929 . S
H398 C434 0.931 . S
H399 C436 0.929 . S
N400 C420 1.433 . S
N400 C426 1.435 . S
N400 C432 1.423 . S
H401 C437 0.932 . S
C402 N377 1.433 . S
C402 C403 1.363 . S
C402 C407 1.370 . S
C403 H376 0.929 . S
C403 C402 1.363 . S
C403 C404 1.385 . S
C404 H378 0.930 . S
C404 C403 1.385 . S
C404 C405 1.357 . S
C405 C404 1.357 . S
C405 C406 1.406 . S
C406 H380 0.929 . S
C406 C405 1.406 . S
C406 C407 1.391 . S
C407 H379 0.931 . S
C407 C402 1.370 . S
C407 C406 1.391 . S
C408 N377 1.435 . S
C408 C409 1.358 . S
C408 C413 1.371 . S
C409 H381 0.930 . S
C409 C408 1.358 . S
C409 C410 1.405 . S
C410 H382 0.932 . S
C410 C409 1.405 . S
C410 C411 1.383 . S
C411 C410 1.383 . S
C411 C412 1.393 . S
C412 H384 0.931 . S
C412 C411 1.393 . S
C412 C413 1.382 . S
C413 H383 0.929 . S
C413 C408 1.371 . S
C413 C412 1.382 . S
C414 N377 1.423 . S
C414 C415 1.362 . S
C414 C419 1.388 . S
C415 H385 0.929 . S
C415 C414 1.362 . S
C415 C416 1.376 . S
C416 H387 0.931 . S
C416 C415 1.376 . S
C416 C417 1.396 . S
C417 C416 1.396 . S
C417 C418 1.348 . S
C417 C435 1.472 . S
C418 H388 0.929 . S
C418 C417 1.348 . S
C418 C419 1.443 . S
C419 H386 0.932 . S
C419 C414 1.388 . S
C419 C418 1.443 . S
C420 N400 1.433 . S
C420 C421 1.363 . S
C420 C425 1.370 . S
C421 H389 0.929 . S
C421 C420 1.363 . S
C421 C422 1.385 . S
C422 H390 0.930 . S
C422 C421 1.385 . S
C422 C423 1.357 . S
C423 C422 1.357 . S
C423 C424 1.406 . S
C424 H391 0.929 . S
C424 C423 1.406 . S
C424 C425 1.391 . S
C425 H392 0.931 . S
C425 C420 1.370 . S
C425 C424 1.391 . S
C426 N400 1.435 . S
C426 C427 1.358 . S
C426 C431 1.371 . S
C427 H393 0.930 . S
C427 C426 1.358 . S
C427 C428 1.405 . S
C428 H394 0.932 . S
C428 C427 1.405 . S
C428 C429 1.383 . S
C429 C428 1.383 . S
C429 C430 1.393 . S
C430 H395 0.931 . S
C430 C429 1.393 . S
C430 C431 1.382 . S
C431 H396 0.929 . S
C431 C426 1.371 . S
C431 C430 1.382 . S
C432 N400 1.423 . S
C432 C433 1.362 . S
C432 C437 1.388 . S
C433 H397 0.929 . S
C433 C432 1.362 . S
C433 C434 1.376 . S
C434 H398 0.931 . S
C434 C433 1.376 . S
C434 C435 1.396 . S
C435 C417 1.472 . S
C435 C434 1.396 . S
C435 C436 1.348 . S
C436 H399 0.929 . S
C436 C435 1.348 . S
C436 C437 1.443 . S
C437 H401 0.932 . S
C437 C432 1.388 . S
C437 C436 1.443 . S
H438 C465 0.929 . S
N439 C464 1.433 . S
N439 C470 1.435 . S
N439 C476 1.423 . S
H440 C466 0.930 . S
H441 C469 0.931 . S
H442 C468 0.929 . S
H443 C471 0.930 . S
H444 C472 0.932 . S
H445 C475 0.929 . S
H446 C474 0.931 . S
H447 C477 0.929 . S
H448 C481 0.932 . S
H449 C478 0.931 . S
H450 C480 0.929 . S
H451 C483 0.929 . S
H452 C484 0.930 . S
H453 C486 0.929 . S
H454 C487 0.931 . S
H455 C489 0.930 . S
H456 C490 0.932 . S
H457 C492 0.931 . S
H458 C493 0.929 . S
H459 C495 0.929 . S
H460 C496 0.931 . S
H461 C498 0.929 . S
N462 C482 1.433 . S
N462 C488 1.435 . S
N462 C494 1.423 . S
H463 C499 0.932 . S
C464 N439 1.433 . S
C464 C465 1.363 . S
C464 C469 1.370 . S
C465 H438 0.929 . S
C465 C464 1.363 . S
C465 C466 1.385 . S
C466 H440 0.930 . S
C466 C465 1.385 . S
C466 C467 1.357 . S
C467 C466 1.357 . S
C467 C468 1.406 . S
C468 H442 0.929 . S
C468 C467 1.406 . S
C468 C469 1.391 . S
C469 H441 0.931 . S
C469 C464 1.370 . S
C469 C468 1.391 . S
C470 N439 1.435 . S
C470 C471 1.358 . S
C470 C475 1.371 . S
C471 H443 0.930 . S
C471 C470 1.358 . S
C471 C472 1.405 . S
C472 H444 0.932 . S
C472 C471 1.405 . S
C472 C473 1.383 . S
C473 C472 1.383 . S
C473 C474 1.393 . S
C474 H446 0.931 . S
C474 C473 1.393 . S
C474 C475 1.382 . S
C475 H445 0.929 . S
C475 C470 1.371 . S
C475 C474 1.382 . S
C476 N439 1.423 . S
C476 C477 1.362 . S
C476 C481 1.388 . S
C477 H447 0.929 . S
C477 C476 1.362 . S
C477 C478 1.376 . S
C478 H449 0.931 . S
C478 C477 1.376 . S
C478 C479 1.396 . S
C479 C478 1.396 . S
C479 C480 1.348 . S
C479 C497 1.472 . S
C480 H450 0.929 . S
C480 C479 1.348 . S
C480 C481 1.443 . S
C481 H448 0.932 . S
C481 C476 1.388 . S
C481 C480 1.443 . S
C482 N462 1.433 . S
C482 C483 1.363 . S
C482 C487 1.370 . S
C483 H451 0.929 . S
C483 C482 1.363 . S
C483 C484 1.385 . S
C484 H452 0.930 . S
C484 C483 1.385 . S
C484 C485 1.357 . S
C485 C484 1.357 . S
C485 C486 1.406 . S
C486 H453 0.929 . S
C486 C485 1.406 . S
C486 C487 1.391 . S
C487 H454 0.931 . S
C487 C482 1.370 . S
C487 C486 1.391 . S
C488 N462 1.435 . S
C488 C489 1.358 . S
C488 C493 1.371 . S
C489 H455 0.930 . S
C489 C488 1.358 . S
C489 C490 1.405 . S
C490 H456 0.932 . S
C490 C489 1.405 . S
C490 C491 1.383 . S
C491 C490 1.383 . S
C491 C492 1.393 . S
C492 H457 0.931 . S
C492 C491 1.393 . S
C492 C493 1.382 . S
C493 H458 0.929 . S
C493 C488 1.371 . S
C493 C492 1.382 . S
C494 N462 1.423 . S
C494 C495 1.362 . S
C494 C499 1.388 . S
C495 H459 0.929 . S
C495 C494 1.362 . S
C495 C496 1.376 . S
C496 H460 0.931 . S
C496 C495 1.376 . S
C496 C497 1.396 . S
C497 C479 1.472 . S
C497 C496 1.396 . S
C497 C498 1.348 . S
C498 H461 0.929 . S
C498 C497 1.348 . S
C498 C499 1.443 . S
C499 H463 0.932 . S
C499 C494 1.388 . S
C499 C498 1.443 . S
H500 C527 0.929 . S
N501 C526 1.433 . S
N501 C532 1.435 . S
N501 C538 1.423 . S
H502 C528 0.930 . S
H503 C531 0.931 . S
H504 C530 0.929 . S
H505 C533 0.930 . S
H506 C534 0.932 . S
H507 C537 0.929 . S
H508 C536 0.931 . S
H509 C539 0.929 . S
H510 C543 0.932 . S
H511 C540 0.931 . S
H512 C542 0.929 . S
H513 C545 0.929 . S
H514 C546 0.930 . S
H515 C548 0.929 . S
H516 C549 0.931 . S
H517 C551 0.930 . S
H518 C552 0.932 . S
H519 C554 0.931 . S
H520 C555 0.929 . S
H521 C557 0.929 . S
H522 C558 0.931 . S
H523 C560 0.929 . S
N524 C544 1.433 . S
N524 C550 1.435 . S
N524 C556 1.423 . S
H525 C561 0.932 . S
C526 N501 1.433 . S
C526 C527 1.363 . S
C526 C531 1.370 . S
C527 H500 0.929 . S
C527 C526 1.363 . S
C527 C528 1.385 . S
C528 H502 0.930 . S
C528 C527 1.385 . S
C528 C529 1.357 . S
C529 C528 1.357 . S
C529 C530 1.406 . S
C530 H504 0.929 . S
C530 C529 1.406 . S
C530 C531 1.391 . S
C531 H503 0.931 . S
C531 C526 1.370 . S
C531 C530 1.391 . S
C532 N501 1.435 . S
C532 C533 1.358 . S
C532 C537 1.371 . S
C533 H505 0.930 . S
C533 C532 1.358 . S
C533 C534 1.405 . S
C534 H506 0.932 . S
C534 C533 1.405 . S
C534 C535 1.383 . S
C535 C534 1.383 . S
C535 C536 1.393 . S
C536 H508 0.931 . S
C536 C535 1.393 . S
C536 C537 1.382 . S
C537 H507 0.929 . S
C537 C532 1.371 . S
C537 C536 1.382 . S
C538 N501 1.423 . S
C538 C539 1.362 . S
C538 C543 1.388 . S
C539 H509 0.929 . S
C539 C538 1.362 . S
C539 C540 1.376 . S
C540 H511 0.931 . S
C540 C539 1.376 . S
C540 C541 1.396 . S
C541 C540 1.396 . S
C541 C542 1.348 . S
C541 C559 1.472 . S
C542 H512 0.929 . S
C542 C541 1.348 . S
C542 C543 1.443 . S
C543 H510 0.932 . S
C543 C538 1.388 . S
C543 C542 1.443 . S
C544 N524 1.433 . S
C544 C545 1.363 . S
C544 C549 1.370 . S
C545 H513 0.929 . S
C545 C544 1.363 . S
C545 C546 1.385 . S
C546 H514 0.930 . S
C546 C545 1.385 . S
C546 C547 1.357 . S
C547 C546 1.357 . S
C547 C548 1.406 . S
C548 H515 0.929 . S
C548 C547 1.406 . S
C548 C549 1.391 . S
C549 H516 0.931 . S
C549 C544 1.370 . S
C549 C548 1.391 . S
C550 N524 1.435 . S
C550 C551 1.358 . S
C550 C555 1.371 . S
C551 H517 0.930 . S
C551 C550 1.358 . S
C551 C552 1.405 . S
C552 H518 0.932 . S
C552 C551 1.405 . S
C552 C553 1.383 . S
C553 C552 1.383 . S
C553 C554 1.393 . S
C554 H519 0.931 . S
C554 C553 1.393 . S
C554 C555 1.382 . S
C555 H520 0.929 . S
C555 C550 1.371 . S
C555 C554 1.382 . S
C556 N524 1.423 . S
C556 C557 1.362 . S
C556 C561 1.388 . S
C557 H521 0.929 . S
C557 C556 1.362 . S
C557 C558 1.376 . S
C558 H522 0.931 . S
C558 C557 1.376 . S
C558 C559 1.396 . S
C559 C541 1.472 . S
C559 C558 1.396 . S
C559 C560 1.348 . S
C560 H523 0.929 . S
C560 C559 1.348 . S
C560 C561 1.443 . S
C561 H525 0.932 . S
C561 C556 1.388 . S
C561 C560 1.443 . S
H562 C589 0.929 . S
N563 C588 1.433 . S
N563 C594 1.435 . S
N563 C600 1.423 . S
H564 C590 0.930 . S
H565 C593 0.931 . S
H566 C592 0.929 . S
H567 C595 0.930 . S
H568 C596 0.932 . S
H569 C599 0.929 . S
H570 C598 0.931 1_554 S
H571 C601 0.929 . S
H572 C605 0.932 . S
H573 C602 0.931 . S
H574 C604 0.929 . S
H575 C607 0.929 . S
H576 C608 0.930 . S
H577 C610 0.929 . S
H578 C611 0.931 . S
H579 C613 0.930 . S
H580 C614 0.932 . S
H581 C616 0.902 1_554 S
H582 C617 0.929 . S
H583 C619 0.929 . S
H584 C620 0.931 . S
H585 C622 0.929 . S
N586 C606 1.433 . S
N586 C612 1.435 . S
N586 C618 1.423 . S
H587 C623 0.932 . S
C588 N563 1.433 . S
C588 C589 1.363 . S
C588 C593 1.370 . S
C589 H562 0.929 . S
C589 C588 1.363 . S
C589 C590 1.385 . S
C590 H564 0.930 . S
C590 C589 1.385 . S
C590 C591 1.357 . S
C591 C590 1.357 . S
C591 C592 1.406 . S
C592 H566 0.929 . S
C592 C591 1.406 . S
C592 C593 1.391 . S
C593 H565 0.931 . S
C593 C588 1.370 . S
C593 C592 1.391 . S
C594 N563 1.435 . S
C594 C595 1.358 . S
C594 C599 1.371 . S
C595 H567 0.930 . S
C595 C594 1.358 . S
C595 C596 1.405 . S
C596 H568 0.932 . S
C596 C595 1.405 . S
C596 C597 1.383 . S
C597 C596 1.383 . S
C597 C598 1.393 . S
C598 H570 0.931 1_556 S
C598 C597 1.393 . S
C598 C599 1.382 . S
C599 H569 0.929 . S
C599 C594 1.371 . S
C599 C598 1.382 . S
C600 N563 1.423 . S
C600 C601 1.362 . S
C600 C605 1.388 . S
C601 H571 0.929 . S
C601 C600 1.362 . S
C601 C602 1.376 . S
C602 H573 0.931 . S
C602 C601 1.376 . S
C602 C603 1.396 . S
C603 C602 1.396 . S
C603 C604 1.348 . S
C603 C621 1.472 . S
C604 H574 0.929 . S
C604 C603 1.348 . S
C604 C605 1.443 . S
C605 H572 0.932 . S
C605 C600 1.388 . S
C605 C604 1.443 . S
C606 N586 1.433 . S
C606 C607 1.363 . S
C606 C611 1.370 . S
C607 H575 0.929 . S
C607 C606 1.363 . S
C607 C608 1.385 . S
C608 H576 0.930 . S
C608 C607 1.385 . S
C608 C609 1.357 . S
C609 C608 1.357 . S
C609 C610 1.406 . S
C610 H577 0.929 . S
C610 C609 1.406 . S
C610 C611 1.391 . S
C611 H578 0.931 . S
C611 C606 1.370 . S
C611 C610 1.391 . S
C612 N586 1.435 . S
C612 C613 1.358 . S
C612 C617 1.371 . S
C613 H579 0.930 . S
C613 C612 1.358 . S
C613 C614 1.405 . S
C614 H580 0.932 . S
C614 C613 1.405 . S
C614 C615 1.383 . S
C615 C614 1.383 . S
C615 C616 1.393 . S
C616 H581 0.902 1_556 S
C616 C615 1.393 . S
C616 C617 1.382 . S
C617 H582 0.929 . S
C617 C612 1.371 . S
C617 C616 1.382 . S
C618 N586 1.423 . S
C618 C619 1.362 . S
C618 C623 1.388 . S
C619 H583 0.929 . S
C619 C618 1.362 . S
C619 C620 1.376 . S
C620 H584 0.931 . S
C620 C619 1.376 . S
C620 C621 1.396 . S
C621 C603 1.472 . S
C621 C620 1.396 . S
C621 C622 1.348 . S
C622 H585 0.929 . S
C622 C621 1.348 . S
C622 C623 1.443 . S
C623 H587 0.932 . S
C623 C618 1.388 . S
C623 C622 1.443 . S
H624 C651 0.929 . S
N625 C650 1.433 . S
N625 C656 1.435 . S
N625 C662 1.423 . S
H626 C652 0.930 . S
H627 C655 0.931 . S
H628 C654 0.929 . S
H629 C657 0.930 . S
H630 C658 0.932 . S
H631 C661 0.929 . S
H632 C660 0.931 . S
H633 C663 0.929 . S
H634 C667 0.932 . S
H635 C664 0.931 . S
H636 C666 0.929 . S
H637 C669 0.929 . S
H638 C670 0.930 . S
H639 C672 0.929 . S
H640 C673 0.931 . S
H641 C675 0.930 . S
H642 C676 0.932 . S
H643 C678 0.931 . S
H644 C679 0.929 . S
H645 C681 0.929 . S
H646 C682 0.931 . S
H647 C684 0.929 . S
N648 C668 1.433 . S
N648 C674 1.435 . S
N648 C680 1.423 . S
H649 C685 0.932 . S
C650 N625 1.433 . S
C650 C651 1.363 . S
C650 C655 1.370 . S
C651 H624 0.929 . S
C651 C650 1.363 . S
C651 C652 1.385 . S
C652 H626 0.930 . S
C652 C651 1.385 . S
C652 C653 1.357 . S
C653 C652 1.357 . S
C653 C654 1.406 . S
C654 H628 0.929 . S
C654 C653 1.406 . S
C654 C655 1.391 . S
C655 H627 0.931 . S
C655 C650 1.370 . S
C655 C654 1.391 . S
C656 N625 1.435 . S
C656 C657 1.358 . S
C656 C661 1.371 . S
C657 H629 0.930 . S
C657 C656 1.358 . S
C657 C658 1.405 . S
C658 H630 0.932 . S
C658 C657 1.405 . S
C658 C659 1.383 . S
C659 C658 1.383 . S
C659 C660 1.393 . S
C660 H632 0.931 . S
C660 C659 1.393 . S
C660 C661 1.382 . S
C661 H631 0.929 . S
C661 C656 1.371 . S
C661 C660 1.382 . S
C662 N625 1.423 . S
C662 C663 1.362 . S
C662 C667 1.388 . S
C663 H633 0.929 . S
C663 C662 1.362 . S
C663 C664 1.376 . S
C664 H635 0.931 . S
C664 C663 1.376 . S
C664 C665 1.396 . S
C665 C664 1.396 . S
C665 C666 1.348 . S
C665 C683 1.472 . S
C666 H636 0.929 . S
C666 C665 1.348 . S
C666 C667 1.443 . S
C667 H634 0.932 . S
C667 C662 1.388 . S
C667 C666 1.443 . S
C668 N648 1.433 . S
C668 C669 1.363 . S
C668 C673 1.370 . S
C669 H637 0.929 . S
C669 C668 1.363 . S
C669 C670 1.385 . S
C670 H638 0.930 . S
C670 C669 1.385 . S
C670 C671 1.357 . S
C671 C670 1.357 . S
C671 C672 1.406 . S
C672 H639 0.929 . S
C672 C671 1.406 . S
C672 C673 1.391 . S
C673 H640 0.931 . S
C673 C668 1.370 . S
C673 C672 1.391 . S
C674 N648 1.435 . S
C674 C675 1.358 . S
C674 C679 1.371 . S
C675 H641 0.930 . S
C675 C674 1.358 . S
C675 C676 1.405 . S
C676 H642 0.932 . S
C676 C675 1.405 . S
C676 C677 1.383 . S
C677 C676 1.383 . S
C677 C678 1.393 . S
C678 H643 0.931 . S
C678 C677 1.393 . S
C678 C679 1.382 . S
C679 H644 0.929 . S
C679 C674 1.371 . S
C679 C678 1.382 . S
C680 N648 1.423 . S
C680 C681 1.362 . S
C680 C685 1.388 . S
C681 H645 0.929 . S
C681 C680 1.362 . S
C681 C682 1.376 . S
C682 H646 0.931 . S
C682 C681 1.376 . S
C682 C683 1.396 . S
C683 C665 1.472 . S
C683 C682 1.396 . S
C683 C684 1.348 . S
C684 H647 0.929 . S
C684 C683 1.348 . S
C684 C685 1.443 . S
C685 H649 0.932 . S
C685 C680 1.388 . S
C685 C684 1.443 . S
H686 C713 0.929 . S
N687 C712 1.433 . S
N687 C718 1.435 . S
N687 C724 1.423 . S
H688 C714 0.930 . S
H689 C717 0.931 . S
H690 C716 0.929 . S
H691 C719 0.930 . S
H692 C720 0.932 . S
H693 C723 0.929 . S
H694 C722 0.931 . S
H695 C725 0.929 . S
H696 C729 0.932 . S
H697 C726 0.931 . S
H698 C728 0.929 . S
H699 C731 0.929 . S
H700 C732 0.930 . S
H701 C734 0.929 . S
H702 C735 0.931 . S
H703 C737 0.930 . S
H704 C738 0.932 . S
H705 C740 0.931 . S
H706 C741 0.929 . S
H707 C743 0.929 . S
H708 C744 0.931 . S
H709 C746 0.929 . S
N710 C730 1.433 . S
N710 C736 1.435 . S
N710 C742 1.423 . S
H711 C747 0.932 . S
C712 N687 1.433 . S
C712 C713 1.363 . S
C712 C717 1.370 . S
C713 H686 0.929 . S
C713 C712 1.363 . S
C713 C714 1.385 . S
C714 H688 0.930 . S
C714 C713 1.385 . S
C714 C715 1.357 . S
C715 C714 1.357 . S
C715 C716 1.406 . S
C716 H690 0.929 . S
C716 C715 1.406 . S
C716 C717 1.391 . S
C717 H689 0.931 . S
C717 C712 1.370 . S
C717 C716 1.391 . S
C718 N687 1.435 . S
C718 C719 1.358 . S
C718 C723 1.371 . S
C719 H691 0.930 . S
C719 C718 1.358 . S
C719 C720 1.405 . S
C720 H692 0.932 . S
C720 C719 1.405 . S
C720 C721 1.383 . S
C721 C720 1.383 . S
C721 C722 1.393 . S
C722 H694 0.931 . S
C722 C721 1.393 . S
C722 C723 1.382 . S
C723 H693 0.929 . S
C723 C718 1.371 . S
C723 C722 1.382 . S
C724 N687 1.423 . S
C724 C725 1.362 . S
C724 C729 1.388 . S
C725 H695 0.929 . S
C725 C724 1.362 . S
C725 C726 1.376 . S
C726 H697 0.931 . S
C726 C725 1.376 . S
C726 C727 1.396 . S
C727 C726 1.396 . S
C727 C728 1.348 . S
C727 C745 1.472 . S
C728 H698 0.929 . S
C728 C727 1.348 . S
C728 C729 1.443 . S
C729 H696 0.932 . S
C729 C724 1.388 . S
C729 C728 1.443 . S
C730 N710 1.433 . S
C730 C731 1.363 . S
C730 C735 1.370 . S
C731 H699 0.929 . S
C731 C730 1.363 . S
C731 C732 1.385 . S
C732 H700 0.930 . S
C732 C731 1.385 . S
C732 C733 1.357 . S
C733 C732 1.357 . S
C733 C734 1.406 . S
C734 H701 0.929 . S
C734 C733 1.406 . S
C734 C735 1.391 . S
C735 H702 0.931 . S
C735 C730 1.370 . S
C735 C734 1.391 . S
C736 N710 1.435 . S
C736 C737 1.358 . S
C736 C741 1.371 . S
C737 H703 0.930 . S
C737 C736 1.358 . S
C737 C738 1.405 . S
C738 H704 0.932 . S
C738 C737 1.405 . S
C738 C739 1.383 . S
C739 C738 1.383 . S
C739 C740 1.393 . S
C740 H705 0.931 . S
C740 C739 1.393 . S
C740 C741 1.382 . S
C741 H706 0.929 . S
C741 C736 1.371 . S
C741 C740 1.382 . S
C742 N710 1.423 . S
C742 C743 1.362 . S
C742 C747 1.388 . S
C743 H707 0.929 . S
C743 C742 1.362 . S
C743 C744 1.376 . S
C744 H708 0.931 . S
C744 C743 1.376 . S
C744 C745 1.396 . S
C745 C727 1.472 . S
C745 C744 1.396 . S
C745 C746 1.348 . S
C746 H709 0.929 . S
C746 C745 1.348 . S
C746 C747 1.443 . S
C747 H711 0.932 . S
C747 C742 1.388 . S
C747 C746 1.443 . S
H748 C775 0.929 . S
N749 C774 1.433 . S
N749 C780 1.435 . S
N749 C786 1.423 . S
H750 C776 0.930 . S
H751 C779 0.931 . S
H752 C778 0.929 . S
H753 C781 0.930 . S
H754 C782 0.932 . S
H755 C785 0.929 . S
H756 C784 0.931 . S
H757 C787 0.929 . S
H758 C791 0.932 . S
H759 C788 0.931 . S
H760 C790 0.929 . S
H761 C793 0.929 . S
H762 C794 0.930 . S
H763 C796 0.929 . S
H764 C797 0.931 . S
H765 C799 0.930 . S
H766 C800 0.932 . S
H767 C802 0.931 . S
H768 C803 0.929 . S
H769 C805 0.929 . S
H770 C806 0.931 . S
H771 C808 0.929 . S
N772 C792 1.433 . S
N772 C798 1.435 . S
N772 C804 1.423 . S
H773 C809 0.932 . S
C774 N749 1.433 . S
C774 C775 1.363 . S
C774 C779 1.370 . S
C775 H748 0.929 . S
C775 C774 1.363 . S
C775 C776 1.385 . S
C776 H750 0.930 . S
C776 C775 1.385 . S
C776 C777 1.357 . S
C777 C776 1.357 . S
C777 C778 1.406 . S
C778 H752 0.929 . S
C778 C777 1.406 . S
C778 C779 1.391 . S
C779 H751 0.931 . S
C779 C774 1.370 . S
C779 C778 1.391 . S
C780 N749 1.435 . S
C780 C781 1.358 . S
C780 C785 1.371 . S
C781 H753 0.930 . S
C781 C780 1.358 . S
C781 C782 1.405 . S
C782 H754 0.932 . S
C782 C781 1.405 . S
C782 C783 1.383 . S
C783 C782 1.383 . S
C783 C784 1.393 . S
C784 H756 0.931 . S
C784 C783 1.393 . S
C784 C785 1.382 . S
C785 H755 0.929 . S
C785 C780 1.371 . S
C785 C784 1.382 . S
C786 N749 1.423 . S
C786 C787 1.362 . S
C786 C791 1.388 . S
C787 H757 0.929 . S
C787 C786 1.362 . S
C787 C788 1.376 . S
C788 H759 0.931 . S
C788 C787 1.376 . S
C788 C789 1.396 . S
C789 C788 1.396 . S
C789 C790 1.348 . S
C789 C807 1.472 . S
C790 H760 0.929 . S
C790 C789 1.348 . S
C790 C791 1.443 . S
C791 H758 0.932 . S
C791 C786 1.388 . S
C791 C790 1.443 . S
C792 N772 1.433 . S
C792 C793 1.363 . S
C792 C797 1.370 . S
C793 H761 0.929 . S
C793 C792 1.363 . S
C793 C794 1.385 . S
C794 H762 0.930 . S
C794 C793 1.385 . S
C794 C795 1.357 . S
C795 C794 1.357 . S
C795 C796 1.406 . S
C796 H763 0.929 . S
C796 C795 1.406 . S
C796 C797 1.391 . S
C797 H764 0.931 . S
C797 C792 1.370 . S
C797 C796 1.391 . S
C798 N772 1.435 . S
C798 C799 1.358 . S
C798 C803 1.371 . S
C799 H765 0.930 . S
C799 C798 1.358 . S
C799 C800 1.405 . S
C800 H766 0.932 . S
C800 C799 1.405 . S
C800 C801 1.383 . S
C801 C800 1.383 . S
C801 C802 1.393 . S
C802 H767 0.931 . S
C802 C801 1.393 . S
C802 C803 1.382 . S
C803 H768 0.929 . S
C803 C798 1.371 . S
C803 C802 1.382 . S
C804 N772 1.423 . S
C804 C805 1.362 . S
C804 C809 1.388 . S
C805 H769 0.929 . S
C805 C804 1.362 . S
C805 C806 1.376 . S
C806 H770 0.931 . S
C806 C805 1.376 . S
C806 C807 1.396 . S
C807 C789 1.472 . S
C807 C806 1.396 . S
C807 C808 1.348 . S
C808 H771 0.929 . S
C808 C807 1.348 . S
C808 C809 1.443 . S
C809 H773 0.932 . S
C809 C804 1.388 . S
C809 C808 1.443 . S
H810 C837 0.929 . S
N811 C836 1.433 . S
N811 C842 1.435 . S
N811 C848 1.423 . S
H812 C838 0.930 . S
H813 C841 0.931 . S
H814 C840 0.929 . S
H815 C843 0.930 . S
H816 C844 0.932 . S
H817 C847 0.929 . S
H818 C846 0.931 . S
H819 C849 0.929 . S
H820 C853 0.932 1_655 S
H821 C850 0.931 . S
H822 C852 0.929 . S
H823 C855 0.929 . S
H824 C856 0.930 . S
H825 C858 0.929 . S
H826 C859 0.931 . S
H827 C861 0.930 . S
H828 C862 0.932 . S
H829 C864 0.931 . S
H830 C865 0.929 . S
H831 C867 0.929 . S
H832 C868 0.931 . S
H833 C870 0.929 . S
N834 C854 1.433 . S
N834 C860 1.435 . S
N834 C866 1.423 . S
H835 C871 0.932 1_655 S
C836 N811 1.433 . S
C836 C837 1.363 . S
C836 C841 1.370 1_455 S
C837 H810 0.929 . S
C837 C836 1.363 . S
C837 C838 1.385 . S
C838 H812 0.930 . S
C838 C837 1.385 . S
C838 C839 1.357 1_455 S
C839 C838 1.357 1_655 S
C839 C840 1.406 . S
C840 H814 0.929 . S
C840 C839 1.406 . S
C840 C841 1.391 . S
C841 H813 0.931 . S
C841 C836 1.370 1_655 S
C841 C840 1.391 . S
C842 N811 1.435 . S
C842 C843 1.358 1_455 S
C842 C847 1.371 . S
C843 H815 0.930 . S
C843 C842 1.358 1_655 S
C843 C844 1.405 . S
C844 H816 0.932 . S
C844 C843 1.405 . S
C844 C845 1.383 1_655 S
C845 C844 1.383 1_455 S
C845 C846 1.393 . S
C846 H818 0.931 . S
C846 C845 1.393 . S
C846 C847 1.382 . S
C847 H817 0.929 . S
C847 C842 1.371 . S
C847 C846 1.382 . S
C848 N811 1.423 . S
C848 C849 1.362 . S
C848 C853 1.388 . S
C849 H819 0.929 . S
C849 C848 1.362 . S
C849 C850 1.376 . S
C850 H821 0.931 . S
C850 C849 1.376 . S
C850 C851 1.396 . S
C851 C850 1.396 . S
C851 C852 1.348 . S
C851 C869 1.472 . S
C852 H822 0.929 . S
C852 C851 1.348 . S
C852 C853 1.443 . S
C853 H820 0.932 1_455 S
C853 C848 1.388 . S
C853 C852 1.443 . S
C854 N834 1.433 . S
C854 C855 1.363 . S
C854 C859 1.370 1_455 S
C855 H823 0.929 . S
C855 C854 1.363 . S
C855 C856 1.385 . S
C856 H824 0.930 . S
C856 C855 1.385 . S
C856 C857 1.357 1_455 S
C857 C856 1.357 1_655 S
C857 C858 1.406 . S
C858 H825 0.929 . S
C858 C857 1.406 . S
C858 C859 1.391 . S
C859 H826 0.931 . S
C859 C854 1.370 1_655 S
C859 C858 1.391 . S
C860 N834 1.435 . S
C860 C861 1.358 1_455 S
C860 C865 1.371 . S
C861 H827 0.930 . S
C861 C860 1.358 1_655 S
C861 C862 1.405 . S
C862 H828 0.932 . S
C862 C861 1.405 . S
C862 C863 1.383 1_655 S
C863 C862 1.383 1_455 S
C863 C864 1.393 . S
C864 H829 0.931 . S
C864 C863 1.393 . S
C864 C865 1.382 . S
C865 H830 0.929 . S
C865 C860 1.371 . S
C865 C864 1.382 . S
C866 N834 1.423 . S
C866 C867 1.362 . S
C866 C871 1.388 . S
C867 H831 0.929 . S
C867 C866 1.362 . S
C867 C868 1.376 . S
C868 H832 0.931 . S
C868 C867 1.376 . S
C868 C869 1.396 . S
C869 C851 1.472 . S
C869 C868 1.396 . S
C869 C870 1.348 . S
C870 H833 0.929 . S
C870 C869 1.348 . S
C870 C871 1.443 . S
C871 H835 0.932 1_455 S
C871 C866 1.388 . S
C871 C870 1.443 . S
H872 C899 0.929 . S
N873 C898 1.433 . S
N873 C904 1.435 . S
N873 C910 1.423 . S
H874 C900 0.930 . S
H875 C903 0.931 . S
H876 C902 0.929 . S
H877 C905 0.930 . S
H878 C906 0.932 . S
H879 C909 0.929 . S
H880 C908 0.931 . S
H881 C911 0.929 . S
H882 C915 0.932 . S
H883 C912 0.931 . S
H884 C914 0.929 . S
H885 C917 0.929 . S
H886 C918 0.930 . S
H887 C920 0.929 . S
H888 C921 0.931 . S
H889 C923 0.930 . S
H890 C924 0.932 . S
H891 C926 0.931 . S
H892 C927 0.929 . S
H893 C929 0.929 . S
H894 C930 0.931 . S
H895 C932 0.929 . S
N896 C916 1.433 . S
N896 C922 1.435 . S
N896 C928 1.423 . S
H897 C933 0.932 . S
C898 N873 1.433 . S
C898 C899 1.363 . S
C898 C903 1.370 . S
C899 H872 0.929 . S
C899 C898 1.363 . S
C899 C900 1.385 . S
C900 H874 0.930 . S
C900 C899 1.385 . S
C900 C901 1.357 . S
C901 C900 1.357 . S
C901 C902 1.406 . S
C902 H876 0.929 . S
C902 C901 1.406 . S
C902 C903 1.391 . S
C903 H875 0.931 . S
C903 C898 1.370 . S
C903 C902 1.391 . S
C904 N873 1.435 . S
C904 C905 1.358 . S
C904 C909 1.371 . S
C905 H877 0.930 . S
C905 C904 1.358 . S
C905 C906 1.405 . S
C906 H878 0.932 . S
C906 C905 1.405 . S
C906 C907 1.383 . S
C907 C906 1.383 . S
C907 C908 1.393 . S
C908 H880 0.931 . S
C908 C907 1.393 . S
C908 C909 1.382 . S
C909 H879 0.929 . S
C909 C904 1.371 . S
C909 C908 1.382 . S
C910 N873 1.423 . S
C910 C911 1.362 . S
C910 C915 1.388 . S
C911 H881 0.929 . S
C911 C910 1.362 . S
C911 C912 1.376 . S
C912 H883 0.931 . S
C912 C911 1.376 . S
C912 C913 1.396 . S
C913 C912 1.396 . S
C913 C914 1.348 . S
C913 C931 1.472 . S
C914 H884 0.929 . S
C914 C913 1.348 . S
C914 C915 1.443 . S
C915 H882 0.932 . S
C915 C910 1.388 . S
C915 C914 1.443 . S
C916 N896 1.433 . S
C916 C917 1.363 . S
C916 C921 1.370 . S
C917 H885 0.929 . S
C917 C916 1.363 . S
C917 C918 1.385 . S
C918 H886 0.930 . S
C918 C917 1.385 . S
C918 C919 1.357 . S
C919 C918 1.357 . S
C919 C920 1.406 . S
C920 H887 0.929 . S
C920 C919 1.406 . S
C920 C921 1.391 . S
C921 H888 0.931 . S
C921 C916 1.370 . S
C921 C920 1.391 . S
C922 N896 1.435 . S
C922 C923 1.358 . S
C922 C927 1.371 . S
C923 H889 0.930 . S
C923 C922 1.358 . S
C923 C924 1.405 . S
C924 H890 0.932 . S
C924 C923 1.405 . S
C924 C925 1.383 . S
C925 C924 1.383 . S
C925 C926 1.393 . S
C926 H891 0.931 . S
C926 C925 1.393 . S
C926 C927 1.382 . S
C927 H892 0.929 . S
C927 C922 1.371 . S
C927 C926 1.382 . S
C928 N896 1.423 . S
C928 C929 1.362 . S
C928 C933 1.388 . S
C929 H893 0.929 . S
C929 C928 1.362 . S
C929 C930 1.376 . S
C930 H894 0.931 . S
C930 C929 1.376 . S
C930 C931 1.396 . S
C931 C913 1.472 . S
C931 C930 1.396 . S
C931 C932 1.348 . S
C932 H895 0.929 . S
C932 C931 1.348 . S
C932 C933 1.443 . S
C933 H897 0.932 . S
C933 C928 1.388 . S
C933 C932 1.443 . S
H934 C961 0.929 . S
N935 C960 1.433 . S
N935 C966 1.435 . S
N935 C972 1.423 . S
H936 C962 0.930 . S
H937 C965 0.931 . S
H938 C964 0.929 . S
H939 C967 0.930 . S
H940 C968 0.932 . S
H941 C971 0.929 . S
H942 C970 0.931 . S
H943 C973 0.929 . S
H944 C977 0.932 1_545 S
H945 C974 0.931 . S
H946 C976 0.929 . S
H947 C979 0.929 . S
H948 C980 0.930 . S
H949 C982 0.929 . S
H950 C983 0.931 . S
H951 C985 0.930 . S
H952 C986 0.932 . S
H953 C988 0.931 . S
H954 C989 0.929 . S
H955 C991 0.929 . S
H956 C992 0.931 . S
H957 C994 0.929 . S
N958 C978 1.433 . S
N958 C984 1.435 . S
N958 C990 1.423 . S
H959 C995 0.932 1_545 S
C960 N935 1.433 . S
C960 C961 1.363 . S
C960 C965 1.370 1_565 S
C961 H934 0.929 . S
C961 C960 1.363 . S
C961 C962 1.385 . S
C962 H936 0.930 . S
C962 C961 1.385 . S
C962 C963 1.357 1_565 S
C963 C962 1.357 1_545 S
C963 C964 1.406 . S
C964 H938 0.929 . S
C964 C963 1.406 . S
C964 C965 1.391 . S
C965 H937 0.931 . S
C965 C960 1.370 1_545 S
C965 C964 1.391 . S
C966 N935 1.435 . S
C966 C967 1.358 1_565 S
C966 C971 1.371 . S
C967 H939 0.930 . S
C967 C966 1.358 1_545 S
C967 C968 1.405 . S
C968 H940 0.932 . S
C968 C967 1.405 . S
C968 C969 1.383 1_545 S
C969 C968 1.383 1_565 S
C969 C970 1.393 . S
C970 H942 0.931 . S
C970 C969 1.393 . S
C970 C971 1.382 . S
C971 H941 0.929 . S
C971 C966 1.371 . S
C971 C970 1.382 . S
C972 N935 1.423 . S
C972 C973 1.362 . S
C972 C977 1.388 . S
C973 H943 0.929 . S
C973 C972 1.362 . S
C973 C974 1.376 . S
C974 H945 0.931 . S
C974 C973 1.376 . S
C974 C975 1.396 . S
C975 C974 1.396 . S
C975 C976 1.348 . S
C975 C993 1.472 . S
C976 H946 0.929 . S
C976 C975 1.348 . S
C976 C977 1.443 . S
C977 H944 0.932 1_565 S
C977 C972 1.388 . S
C977 C976 1.443 . S
C978 N958 1.433 . S
C978 C979 1.363 . S
C978 C983 1.370 1_565 S
C979 H947 0.929 . S
C979 C978 1.363 . S
C979 C980 1.385 . S
C980 H948 0.930 . S
C980 C979 1.385 . S
C980 C981 1.357 1_565 S
C981 C980 1.357 1_545 S
C981 C982 1.406 . S
C982 H949 0.929 . S
C982 C981 1.406 . S
C982 C983 1.391 . S
C983 H950 0.931 . S
C983 C978 1.370 1_545 S
C983 C982 1.391 . S
C984 N958 1.435 . S
C984 C985 1.358 1_565 S
C984 C989 1.371 . S
C985 H951 0.930 . S
C985 C984 1.358 1_545 S
C985 C986 1.405 . S
C986 H952 0.932 . S
C986 C985 1.405 . S
C986 C987 1.383 1_545 S
C987 C986 1.383 1_565 S
C987 C988 1.393 . S
C988 H953 0.931 . S
C988 C987 1.393 . S
C988 C989 1.382 . S
C989 H954 0.929 . S
C989 C984 1.371 . S
C989 C988 1.382 . S
C990 N958 1.423 . S
C990 C991 1.362 . S
C990 C995 1.388 . S
C991 H955 0.929 . S
C991 C990 1.362 . S
C991 C992 1.376 . S
C992 H956 0.931 . S
C992 C991 1.376 . S
C992 C993 1.396 . S
C993 C975 1.472 . S
C993 C992 1.396 . S
C993 C994 1.348 . S
C994 H957 0.929 . S
C994 C993 1.348 . S
C994 C995 1.443 . S
C995 H959 0.932 1_565 S
C995 C990 1.388 . S
C995 C994 1.443 . S
H996 C1023 0.929 . S
N997 C1022 1.433 . S
N997 C1028 1.435 . S
N997 C1034 1.423 . S
H998 C1024 0.930 . S
H999 C1027 0.931 . S
H1000 C1026 0.929 . S
H1001 C1029 0.930 . S
H1002 C1030 0.932 . S
H1003 C1033 0.929 . S
H1004 C1032 0.931 . S
H1005 C1035 0.929 . S
H1006 C1039 0.932 . S
H1007 C1036 0.931 . S
H1008 C1038 0.921 1_545 S
H1009 C1041 0.929 . S
H1010 C1042 0.930 . S
H1011 C1044 0.929 . S
H1012 C1045 0.970 . S
H1013 C1047 0.930 . S
H1014 C1048 0.932 . S
H1015 C1050 0.931 . S
H1016 C1051 0.929 . S
H1017 C1053 0.929 . S
H1018 C1054 0.931 . S
H1019 C1056 0.898 1_545 S
N1020 C1040 1.433 . S
N1020 C1046 1.435 . S
N1020 C1052 1.423 . S
H1021 C1057 0.932 . S
C1022 N997 1.433 . S
C1022 C1023 1.363 . S
C1022 C1027 1.370 1_565 S
C1023 H996 0.929 . S
C1023 C1022 1.363 . S
C1023 C1024 1.385 . S
C1024 H998 0.930 . S
C1024 C1023 1.385 . S
C1024 C1025 1.357 . S
C1025 C1024 1.357 . S
C1025 C1026 1.406 1_565 S
C1026 H1000 0.929 . S
C1026 C1025 1.406 1_545 S
C1026 C1027 1.391 . S
C1027 H999 0.931 . S
C1027 C1022 1.370 1_545 S
C1027 C1026 1.391 . S
C1028 N997 1.435 . S
C1028 C1029 1.358 1_565 S
C1028 C1033 1.371 . S
C1029 H1001 0.930 . S
C1029 C1028 1.358 1_545 S
C1029 C1030 1.405 . S
C1030 H1002 0.932 . S
C1030 C1029 1.405 . S
C1030 C1031 1.383 . S
C1031 C1030 1.383 . S
C1031 C1032 1.393 1_545 S
C1032 H1004 0.931 . S
C1032 C1031 1.393 1_565 S
C1032 C1033 1.382 . S
C1033 H1003 0.929 . S
C1033 C1028 1.371 . S
C1033 C1032 1.382 . S
C1034 N997 1.423 . S
C1034 C1035 1.362 . S
C1034 C1039 1.388 1_565 S
C1035 H1005 0.929 . S
C1035 C1034 1.362 . S
C1035 C1036 1.376 . S
C1036 H1007 0.931 . S
C1036 C1035 1.376 . S
C1036 C1037 1.396 . S
C1037 C1036 1.396 . S
C1037 C1038 1.380 . S
C1037 C1055 1.472 . S
C1038 H1008 0.921 1_565 S
C1038 C1037 1.380 . S
C1038 C1039 1.420 1_565 S
C1039 H1006 0.932 . S
C1039 C1034 1.388 1_545 S
C1039 C1038 1.420 1_545 S
C1040 N1020 1.433 . S
C1040 C1041 1.363 . S
C1040 C1045 1.340 1_565 S
C1041 H1009 0.929 . S
C1041 C1040 1.363 . S
C1041 C1042 1.385 . S
C1042 H1010 0.930 . S
C1042 C1041 1.385 . S
C1042 C1043 1.357 . S
C1043 C1042 1.357 . S
C1043 C1044 1.406 1_565 S
C1044 H1011 0.929 . S
C1044 C1043 1.406 1_545 S
C1044 C1045 1.384 . S
C1045 H1012 0.970 . S
C1045 C1040 1.340 1_545 S
C1045 C1044 1.384 . S
C1046 N1020 1.435 . S
C1046 C1047 1.358 1_565 S
C1046 C1051 1.371 . S
C1047 H1013 0.930 . S
C1047 C1046 1.358 1_545 S
C1047 C1048 1.405 . S
C1048 H1014 0.932 . S
C1048 C1047 1.405 . S
C1048 C1049 1.383 . S
C1049 C1048 1.383 . S
C1049 C1050 1.393 1_545 S
C1050 H1015 0.931 . S
C1050 C1049 1.393 1_565 S
C1050 C1051 1.382 . S
C1051 H1016 0.929 . S
C1051 C1046 1.371 . S
C1051 C1050 1.382 . S
C1052 N1020 1.423 . S
C1052 C1053 1.362 . S
C1052 C1057 1.388 1_565 S
C1053 H1017 0.929 . S
C1053 C1052 1.362 . S
C1053 C1054 1.376 . S
C1054 H1018 0.931 . S
C1054 C1053 1.376 . S
C1054 C1055 1.396 . S
C1055 C1037 1.472 . S
C1055 C1054 1.396 . S
C1055 C1056 1.360 . S
C1056 H1019 0.898 1_565 S
C1056 C1055 1.360 . S
C1056 C1057 1.461 1_565 S
C1057 H1021 0.932 . S
C1057 C1052 1.388 1_545 S
C1057 C1056 1.461 1_545 S
H1058 C1085 0.929 . S
N1059 C1084 1.433 . S
N1059 C1090 1.435 . S
N1059 C1096 1.423 . S
H1060 C1086 0.930 . S
H1061 C1089 0.931 . S
H1062 C1088 0.929 . S
H1063 C1091 0.930 . S
H1064 C1092 0.932 . S
H1065 C1095 0.929 . S
H1066 C1094 0.931 . S
H1067 C1097 0.929 . S
H1068 C1101 0.932 1_455 S
H1069 C1098 0.931 . S
H1070 C1100 0.929 . S
H1071 C1103 0.929 . S
H1072 C1104 0.930 . S
H1073 C1106 0.929 . S
H1074 C1107 0.931 . S
H1075 C1109 0.930 . S
H1076 C1110 0.932 . S
H1077 C1112 0.931 . S
H1078 C1113 0.929 . S
H1079 C1115 0.929 . S
H1080 C1116 0.931 . S
H1081 C1118 0.929 . S
N1082 C1102 1.433 . S
N1082 C1108 1.435 . S
N1082 C1114 1.423 . S
H1083 C1119 0.932 1_455 S
C1084 N1059 1.433 . S
C1084 C1085 1.363 . S
C1084 C1089 1.370 1_655 S
C1085 H1058 0.929 . S
C1085 C1084 1.363 . S
C1085 C1086 1.385 . S
C1086 H1060 0.930 . S
C1086 C1085 1.385 . S
C1086 C1087 1.357 1_655 S
C1087 C1086 1.357 1_455 S
C1087 C1088 1.406 . S
C1088 H1062 0.929 . S
C1088 C1087 1.406 . S
C1088 C1089 1.391 . S
C1089 H1061 0.931 . S
C1089 C1084 1.370 1_455 S
C1089 C1088 1.391 . S
C1090 N1059 1.435 . S
C1090 C1091 1.358 1_655 S
C1090 C1095 1.371 . S
C1091 H1063 0.930 . S
C1091 C1090 1.358 1_455 S
C1091 C1092 1.405 . S
C1092 H1064 0.932 . S
C1092 C1091 1.405 . S
C1092 C1093 1.383 1_455 S
C1093 C1092 1.383 1_655 S
C1093 C1094 1.393 . S
C1094 H1066 0.931 . S
C1094 C1093 1.393 . S
C1094 C1095 1.382 . S
C1095 H1065 0.929 . S
C1095 C1090 1.371 . S
C1095 C1094 1.382 . S
C1096 N1059 1.423 . S
C1096 C1097 1.362 . S
C1096 C1101 1.388 . S
C1097 H1067 0.929 . S
C1097 C1096 1.362 . S
C1097 C1098 1.376 . S
C1098 H1069 0.931 . S
C1098 C1097 1.376 . S
C1098 C1099 1.396 . S
C1099 C1098 1.396 . S
C1099 C1100 1.348 . S
C1099 C1117 1.472 . S
C1100 H1070 0.929 . S
C1100 C1099 1.348 . S
C1100 C1101 1.443 . S
C1101 H1068 0.932 1_655 S
C1101 C1096 1.388 . S
C1101 C1100 1.443 . S
C1102 N1082 1.433 . S
C1102 C1103 1.363 . S
C1102 C1107 1.370 1_655 S
C1103 H1071 0.929 . S
C1103 C1102 1.363 . S
C1103 C1104 1.385 . S
C1104 H1072 0.930 . S
C1104 C1103 1.385 . S
C1104 C1105 1.357 1_655 S
C1105 C1104 1.357 1_455 S
C1105 C1106 1.406 . S
C1106 H1073 0.929 . S
C1106 C1105 1.406 . S
C1106 C1107 1.391 . S
C1107 H1074 0.931 . S
C1107 C1102 1.370 1_455 S
C1107 C1106 1.391 . S
C1108 N1082 1.435 . S
C1108 C1109 1.358 1_655 S
C1108 C1113 1.371 . S
C1109 H1075 0.930 . S
C1109 C1108 1.358 1_455 S
C1109 C1110 1.405 . S
C1110 H1076 0.932 . S
C1110 C1109 1.405 . S
C1110 C1111 1.383 1_455 S
C1111 C1110 1.383 1_655 S
C1111 C1112 1.393 . S
C1112 H1077 0.931 . S
C1112 C1111 1.393 . S
C1112 C1113 1.382 . S
C1113 H1078 0.929 . S
C1113 C1108 1.371 . S
C1113 C1112 1.382 . S
C1114 N1082 1.423 . S
C1114 C1115 1.362 . S
C1114 C1119 1.388 . S
C1115 H1079 0.929 . S
C1115 C1114 1.362 . S
C1115 C1116 1.376 . S
C1116 H1080 0.931 . S
C1116 C1115 1.376 . S
C1116 C1117 1.396 . S
C1117 C1099 1.472 . S
C1117 C1116 1.396 . S
C1117 C1118 1.348 . S
C1118 H1081 0.929 . S
C1118 C1117 1.348 . S
C1118 C1119 1.443 . S
C1119 H1083 0.932 1_655 S
C1119 C1114 1.388 . S
C1119 C1118 1.443 . S
H1120 C1147 0.929 . S
N1121 C1146 1.433 . S
N1121 C1152 1.435 . S
N1121 C1158 1.423 . S
H1122 C1148 0.930 . S
H1123 C1151 0.931 . S
H1124 C1150 0.929 . S
H1125 C1153 0.930 . S
H1126 C1154 0.932 . S
H1127 C1157 0.929 . S
H1128 C1156 0.931 . S
H1129 C1159 0.929 . S
H1130 C1163 0.932 . S
H1131 C1160 0.931 . S
H1132 C1162 0.929 . S
H1133 C1165 0.929 . S
H1134 C1166 0.930 . S
H1135 C1168 0.929 . S
H1136 C1169 0.931 . S
H1137 C1171 0.930 . S
H1138 C1172 0.932 . S
H1139 C1174 0.931 . S
H1140 C1175 0.929 . S
H1141 C1177 0.929 . S
H1142 C1178 0.931 . S
H1143 C1180 0.929 . S
N1144 C1164 1.433 . S
N1144 C1170 1.435 . S
N1144 C1176 1.423 . S
H1145 C1181 0.932 . S
C1146 N1121 1.433 . S
C1146 C1147 1.363 . S
C1146 C1151 1.370 . S
C1147 H1120 0.929 . S
C1147 C1146 1.363 . S
C1147 C1148 1.385 . S
C1148 H1122 0.930 . S
C1148 C1147 1.385 . S
C1148 C1149 1.357 . S
C1149 C1148 1.357 . S
C1149 C1150 1.406 . S
C1150 H1124 0.929 . S
C1150 C1149 1.406 . S
C1150 C1151 1.391 . S
C1151 H1123 0.931 . S
C1151 C1146 1.370 . S
C1151 C1150 1.391 . S
C1152 N1121 1.435 . S
C1152 C1153 1.358 . S
C1152 C1157 1.371 . S
C1153 H1125 0.930 . S
C1153 C1152 1.358 . S
C1153 C1154 1.405 . S
C1154 H1126 0.932 . S
C1154 C1153 1.405 . S
C1154 C1155 1.383 . S
C1155 C1154 1.383 . S
C1155 C1156 1.393 . S
C1156 H1128 0.931 . S
C1156 C1155 1.393 . S
C1156 C1157 1.382 . S
C1157 H1127 0.929 . S
C1157 C1152 1.371 . S
C1157 C1156 1.382 . S
C1158 N1121 1.423 . S
C1158 C1159 1.362 . S
C1158 C1163 1.388 . S
C1159 H1129 0.929 . S
C1159 C1158 1.362 . S
C1159 C1160 1.376 . S
C1160 H1131 0.931 . S
C1160 C1159 1.376 . S
C1160 C1161 1.396 . S
C1161 C1160 1.396 . S
C1161 C1162 1.348 . S
C1161 C1179 1.472 . S
C1162 H1132 0.929 . S
C1162 C1161 1.348 . S
C1162 C1163 1.443 . S
C1163 H1130 0.932 . S
C1163 C1158 1.388 . S
C1163 C1162 1.443 . S
C1164 N1144 1.433 . S
C1164 C1165 1.363 . S
C1164 C1169 1.370 . S
C1165 H1133 0.929 . S
C1165 C1164 1.363 . S
C1165 C1166 1.385 . S
C1166 H1134 0.930 . S
C1166 C1165 1.385 . S
C1166 C1167 1.357 . S
C1167 C1166 1.357 . S
C1167 C1168 1.406 . S
C1168 H1135 0.929 . S
C1168 C1167 1.406 . S
C1168 C1169 1.391 . S
C1169 H1136 0.931 . S
C1169 C1164 1.370 . S
C1169 C1168 1.391 . S
C1170 N1144 1.435 . S
C1170 C1171 1.358 . S
C1170 C1175 1.371 . S
C1171 H1137 0.930 . S
C1171 C1170 1.358 . S
C1171 C1172 1.405 . S
C1172 H1138 0.932 . S
C1172 C1171 1.405 . S
C1172 C1173 1.383 . S
C1173 C1172 1.383 . S
C1173 C1174 1.393 . S
C1174 H1139 0.931 . S
C1174 C1173 1.393 . S
C1174 C1175 1.382 . S
C1175 H1140 0.929 . S
C1175 C1170 1.371 . S
C1175 C1174 1.382 . S
C1176 N1144 1.423 . S
C1176 C1177 1.362 . S
C1176 C1181 1.388 . S
C1177 H1141 0.929 . S
C1177 C1176 1.362 . S
C1177 C1178 1.376 . S
C1178 H1142 0.931 . S
C1178 C1177 1.376 . S
C1178 C1179 1.396 . S
C1179 C1161 1.472 . S
C1179 C1178 1.396 . S
C1179 C1180 1.348 . S
C1180 H1143 0.929 . S
C1180 C1179 1.348 . S
C1180 C1181 1.443 . S
C1181 H1145 0.932 . S
C1181 C1176 1.388 . S
C1181 C1180 1.443 . S
H1182 C1209 0.929 . S
N1183 C1208 1.433 . S
N1183 C1214 1.435 . S
N1183 C1220 1.423 . S
H1184 C1210 0.930 . S
H1185 C1213 0.931 . S
H1186 C1212 0.929 . S
H1187 C1215 0.930 . S
H1188 C1216 0.932 . S
H1189 C1219 0.929 . S
H1190 C1218 0.931 . S
H1191 C1221 0.929 . S
H1192 C1225 0.932 . S
H1193 C1222 0.931 . S
H1194 C1224 0.929 . S
H1195 C1227 0.929 . S
H1196 C1228 0.930 . S
H1197 C1230 0.929 . S
H1198 C1231 0.931 . S
H1199 C1233 0.930 . S
H1200 C1234 0.932 . S
H1201 C1236 0.931 . S
H1202 C1237 0.929 . S
H1203 C1239 0.929 . S
H1204 C1240 0.931 . S
H1205 C1242 0.929 . S
N1206 C1226 1.433 . S
N1206 C1232 1.435 . S
N1206 C1238 1.423 . S
H1207 C1243 0.932 . S
C1208 N1183 1.433 . S
C1208 C1209 1.363 . S
C1208 C1213 1.370 . S
C1209 H1182 0.929 . S
C1209 C1208 1.363 . S
C1209 C1210 1.385 . S
C1210 H1184 0.930 . S
C1210 C1209 1.385 . S
C1210 C1211 1.357 . S
C1211 C1210 1.357 . S
C1211 C1212 1.406 . S
C1212 H1186 0.929 . S
C1212 C1211 1.406 . S
C1212 C1213 1.391 . S
C1213 H1185 0.931 . S
C1213 C1208 1.370 . S
C1213 C1212 1.391 . S
C1214 N1183 1.435 . S
C1214 C1215 1.358 . S
C1214 C1219 1.371 . S
C1215 H1187 0.930 . S
C1215 C1214 1.358 . S
C1215 C1216 1.405 . S
C1216 H1188 0.932 . S
C1216 C1215 1.405 . S
C1216 C1217 1.383 . S
C1217 C1216 1.383 . S
C1217 C1218 1.393 . S
C1218 H1190 0.931 . S
C1218 C1217 1.393 . S
C1218 C1219 1.382 . S
C1219 H1189 0.929 . S
C1219 C1214 1.371 . S
C1219 C1218 1.382 . S
C1220 N1183 1.423 . S
C1220 C1221 1.362 . S
C1220 C1225 1.388 . S
C1221 H1191 0.929 . S
C1221 C1220 1.362 . S
C1221 C1222 1.376 . S
C1222 H1193 0.931 . S
C1222 C1221 1.376 . S
C1222 C1223 1.396 . S
C1223 C1222 1.396 . S
C1223 C1224 1.348 . S
C1223 C1241 1.472 . S
C1224 H1194 0.929 . S
C1224 C1223 1.348 . S
C1224 C1225 1.443 . S
C1225 H1192 0.932 . S
C1225 C1220 1.388 . S
C1225 C1224 1.443 . S
C1226 N1206 1.433 . S
C1226 C1227 1.363 . S
C1226 C1231 1.370 . S
C1227 H1195 0.929 . S
C1227 C1226 1.363 . S
C1227 C1228 1.385 . S
C1228 H1196 0.930 . S
C1228 C1227 1.385 . S
C1228 C1229 1.357 . S
C1229 C1228 1.357 . S
C1229 C1230 1.406 . S
C1230 H1197 0.929 . S
C1230 C1229 1.406 . S
C1230 C1231 1.391 . S
C1231 H1198 0.931 . S
C1231 C1226 1.370 . S
C1231 C1230 1.391 . S
C1232 N1206 1.435 . S
C1232 C1233 1.358 . S
C1232 C1237 1.371 . S
C1233 H1199 0.930 . S
C1233 C1232 1.358 . S
C1233 C1234 1.405 . S
C1234 H1200 0.932 . S
C1234 C1233 1.405 . S
C1234 C1235 1.383 . S
C1235 C1234 1.383 . S
C1235 C1236 1.393 . S
C1236 H1201 0.931 . S
C1236 C1235 1.393 . S
C1236 C1237 1.382 . S
C1237 H1202 0.929 . S
C1237 C1232 1.371 . S
C1237 C1236 1.382 . S
C1238 N1206 1.423 . S
C1238 C1239 1.362 . S
C1238 C1243 1.388 . S
C1239 H1203 0.929 . S
C1239 C1238 1.362 . S
C1239 C1240 1.376 . S
C1240 H1204 0.931 . S
C1240 C1239 1.376 . S
C1240 C1241 1.396 . S
C1241 C1223 1.472 . S
C1241 C1240 1.396 . S
C1241 C1242 1.348 . S
C1242 H1205 0.929 . S
C1242 C1241 1.348 . S
C1242 C1243 1.443 . S
C1243 H1207 0.932 . S
C1243 C1238 1.388 . S
C1243 C1242 1.443 . S
H1244 C1271 0.929 . S
N1245 C1270 1.433 . S
N1245 C1276 1.435 . S
N1245 C1282 1.423 . S
H1246 C1272 0.930 . S
H1247 C1275 0.931 . S
H1248 C1274 0.929 . S
H1249 C1277 0.930 . S
H1250 C1278 0.932 . S
H1251 C1281 0.929 . S
H1252 C1280 0.931 . S
H1253 C1283 0.929 . S
H1254 C1287 0.932 . S
H1255 C1284 0.931 . S
H1256 C1286 0.929 . S
H1257 C1289 0.929 . S
H1258 C1290 0.930 . S
H1259 C1292 0.929 . S
H1260 C1293 0.931 . S
H1261 C1295 0.930 . S
H1262 C1296 0.932 . S
H1263 C1298 0.931 . S
H1264 C1299 0.929 . S
H1265 C1301 0.929 . S
H1266 C1302 0.931 . S
H1267 C1304 0.929 . S
N1268 C1288 1.433 . S
N1268 C1294 1.435 . S
N1268 C1300 1.423 . S
H1269 C1305 0.932 . S
C1270 N1245 1.433 . S
C1270 C1271 1.363 . S
C1270 C1275 1.370 . S
C1271 H1244 0.929 . S
C1271 C1270 1.363 . S
C1271 C1272 1.385 . S
C1272 H1246 0.930 . S
C1272 C1271 1.385 . S
C1272 C1273 1.357 . S
C1273 C1272 1.357 . S
C1273 C1274 1.406 . S
C1274 H1248 0.929 . S
C1274 C1273 1.406 . S
C1274 C1275 1.391 . S
C1275 H1247 0.931 . S
C1275 C1270 1.370 . S
C1275 C1274 1.391 . S
C1276 N1245 1.435 . S
C1276 C1277 1.358 . S
C1276 C1281 1.371 . S
C1277 H1249 0.930 . S
C1277 C1276 1.358 . S
C1277 C1278 1.405 . S
C1278 H1250 0.932 . S
C1278 C1277 1.405 . S
C1278 C1279 1.383 . S
C1279 C1278 1.383 . S
C1279 C1280 1.393 . S
C1280 H1252 0.931 . S
C1280 C1279 1.393 . S
C1280 C1281 1.382 . S
C1281 H1251 0.929 . S
C1281 C1276 1.371 . S
C1281 C1280 1.382 . S
C1282 N1245 1.423 . S
C1282 C1283 1.362 . S
C1282 C1287 1.388 . S
C1283 H1253 0.929 . S
C1283 C1282 1.362 . S
C1283 C1284 1.376 . S
C1284 H1255 0.931 . S
C1284 C1283 1.376 . S
C1284 C1285 1.396 . S
C1285 C1284 1.396 . S
C1285 C1286 1.348 . S
C1285 C1303 1.472 . S
C1286 H1256 0.929 . S
C1286 C1285 1.348 . S
C1286 C1287 1.443 . S
C1287 H1254 0.932 . S
C1287 C1282 1.388 . S
C1287 C1286 1.443 . S
C1288 N1268 1.433 . S
C1288 C1289 1.363 . S
C1288 C1293 1.370 . S
C1289 H1257 0.929 . S
C1289 C1288 1.363 . S
C1289 C1290 1.385 . S
C1290 H1258 0.930 . S
C1290 C1289 1.385 . S
C1290 C1291 1.357 . S
C1291 C1290 1.357 . S
C1291 C1292 1.406 . S
C1292 H1259 0.929 . S
C1292 C1291 1.406 . S
C1292 C1293 1.391 . S
C1293 H1260 0.931 . S
C1293 C1288 1.370 . S
C1293 C1292 1.391 . S
C1294 N1268 1.435 . S
C1294 C1295 1.358 . S
C1294 C1299 1.371 . S
C1295 H1261 0.930 . S
C1295 C1294 1.358 . S
C1295 C1296 1.405 . S
C1296 H1262 0.932 . S
C1296 C1295 1.405 . S
C1296 C1297 1.383 . S
C1297 C1296 1.383 . S
C1297 C1298 1.393 . S
C1298 H1263 0.931 . S
C1298 C1297 1.393 . S
C1298 C1299 1.382 . S
C1299 H1264 0.929 . S
C1299 C1294 1.371 . S
C1299 C1298 1.382 . S
C1300 N1268 1.423 . S
C1300 C1301 1.362 . S
C1300 C1305 1.388 . S
C1301 H1265 0.929 . S
C1301 C1300 1.362 . S
C1301 C1302 1.376 . S
C1302 H1266 0.931 . S
C1302 C1301 1.376 . S
C1302 C1303 1.396 . S
C1303 C1285 1.472 . S
C1303 C1302 1.396 . S
C1303 C1304 1.348 . S
C1304 H1267 0.929 . S
C1304 C1303 1.348 . S
C1304 C1305 1.443 . S
C1305 H1269 0.932 . S
C1305 C1300 1.388 . S
C1305 C1304 1.443 . S
H1306 C1333 0.929 . S
N1307 C1332 1.433 . S
N1307 C1338 1.435 . S
N1307 C1344 1.423 . S
H1308 C1334 0.930 . S
H1309 C1337 0.931 . S
H1310 C1336 0.929 . S
H1311 C1339 0.930 . S
H1312 C1340 0.932 . S
H1313 C1343 0.929 . S
H1314 C1342 0.931 . S
H1315 C1345 0.929 . S
H1316 C1349 0.932 . S
H1317 C1346 0.931 . S
H1318 C1348 0.929 . S
H1319 C1351 0.929 . S
H1320 C1352 0.930 . S
H1321 C1354 0.929 . S
H1322 C1355 0.931 . S
H1323 C1357 0.930 . S
H1324 C1358 0.932 . S
H1325 C1360 0.931 . S
H1326 C1361 0.929 . S
H1327 C1363 0.929 . S
H1328 C1364 0.931 . S
H1329 C1366 0.929 . S
N1330 C1350 1.433 . S
N1330 C1356 1.435 . S
N1330 C1362 1.423 . S
H1331 C1367 0.932 . S
C1332 N1307 1.433 . S
C1332 C1333 1.363 . S
C1332 C1337 1.370 . S
C1333 H1306 0.929 . S
C1333 C1332 1.363 . S
C1333 C1334 1.385 . S
C1334 H1308 0.930 . S
C1334 C1333 1.385 . S
C1334 C1335 1.357 . S
C1335 C1334 1.357 . S
C1335 C1336 1.406 . S
C1336 H1310 0.929 . S
C1336 C1335 1.406 . S
C1336 C1337 1.391 . S
C1337 H1309 0.931 . S
C1337 C1332 1.370 . S
C1337 C1336 1.391 . S
C1338 N1307 1.435 . S
C1338 C1339 1.358 . S
C1338 C1343 1.371 . S
C1339 H1311 0.930 . S
C1339 C1338 1.358 . S
C1339 C1340 1.405 . S
C1340 H1312 0.932 . S
C1340 C1339 1.405 . S
C1340 C1341 1.383 . S
C1341 C1340 1.383 . S
C1341 C1342 1.393 . S
C1342 H1314 0.931 . S
C1342 C1341 1.393 . S
C1342 C1343 1.382 . S
C1343 H1313 0.929 . S
C1343 C1338 1.371 . S
C1343 C1342 1.382 . S
C1344 N1307 1.423 . S
C1344 C1345 1.362 . S
C1344 C1349 1.388 . S
C1345 H1315 0.929 . S
C1345 C1344 1.362 . S
C1345 C1346 1.376 . S
C1346 H1317 0.931 . S
C1346 C1345 1.376 . S
C1346 C1347 1.396 . S
C1347 C1346 1.396 . S
C1347 C1348 1.348 . S
C1347 C1365 1.472 . S
C1348 H1318 0.929 . S
C1348 C1347 1.348 . S
C1348 C1349 1.443 . S
C1349 H1316 0.932 . S
C1349 C1344 1.388 . S
C1349 C1348 1.443 . S
C1350 N1330 1.433 . S
C1350 C1351 1.363 . S
C1350 C1355 1.370 . S
C1351 H1319 0.929 . S
C1351 C1350 1.363 . S
C1351 C1352 1.385 . S
C1352 H1320 0.930 . S
C1352 C1351 1.385 . S
C1352 C1353 1.357 . S
C1353 C1352 1.357 . S
C1353 C1354 1.406 . S
C1354 H1321 0.929 . S
C1354 C1353 1.406 . S
C1354 C1355 1.391 . S
C1355 H1322 0.931 . S
C1355 C1350 1.370 . S
C1355 C1354 1.391 . S
C1356 N1330 1.435 . S
C1356 C1357 1.358 . S
C1356 C1361 1.371 . S
C1357 H1323 0.930 . S
C1357 C1356 1.358 . S
C1357 C1358 1.405 . S
C1358 H1324 0.932 . S
C1358 C1357 1.405 . S
C1358 C1359 1.383 . S
C1359 C1358 1.383 . S
C1359 C1360 1.393 . S
C1360 H1325 0.931 . S
C1360 C1359 1.393 . S
C1360 C1361 1.382 . S
C1361 H1326 0.929 . S
C1361 C1356 1.371 . S
C1361 C1360 1.382 . S
C1362 N1330 1.423 . S
C1362 C1363 1.362 . S
C1362 C1367 1.388 . S
C1363 H1327 0.929 . S
C1363 C1362 1.362 . S
C1363 C1364 1.376 . S
C1364 H1328 0.931 . S
C1364 C1363 1.376 . S
C1364 C1365 1.396 . S
C1365 C1347 1.472 . S
C1365 C1364 1.396 . S
C1365 C1366 1.348 . S
C1366 H1329 0.929 . S
C1366 C1365 1.348 . S
C1366 C1367 1.443 . S
C1367 H1331 0.932 . S
C1367 C1362 1.388 . S
C1367 C1366 1.443 . S
C9 C857 1.798 1_455 S
C19 C901 2.053 . S
C981 C33 1.829 . S
C37 C1025 1.971 1_545 S
C5 C1105 1.854 . S
C23 C1167 2.022 . S
C47 C1087 1.815 . S
C1149 C65 1.976 . S
C1043 C75 1.933 . S
C79 C963 1.828 . S
C839 C51 1.861 1_655 S
C61 C919 2.110 . S
C93 C1229 2.077 . S
C103 C1273 2.159 . S
C1353 C117 2.032 . S
C121 C299 2.067 . S
C89 C343 2.216 . S
C107 C423 2.115 . S
C131 C361 2.143 . S
C149 C405 2.061 . S
C281 C159 2.010 . S
C1335 C163 2.093 . S
C1211 C135 2.133 . S
C1291 C145 2.219 . S
C177 C485 2.034 . S
C187 C547 2.017 . S
C201 C591 2.147 . S
C205 C653 2.249 . S
C715 C173 2.234 . S
C795 C191 2.135 . S
C733 C215 2.186 . S
C777 C233 2.087 . S
C243 C671 2.157 . S
C609 C247 2.192 . S
C219 C467 2.112 . S
C529 C229 2.082 . S
C305 C11 1.638 . S
C14 C349 1.804 . S
C429 C28 1.858 . S
C491 C39 1.851 . S
C553 C0 1.717 . S
C597 C25 1.689 . S
C42 C615 1.914 . S
C67 C473 1.720 . S
C70 C535 1.613 . S
C81 C367 1.726 . S
C411 C53 1.770 . S
C56 C287 1.809 . S
C659 C95 1.702 . S
C98 C721 1.829 . S
C112 C801 1.862 . S
C863 C123 1.512 . S
C84 C907 1.744 . S
C109 C987 1.355 . S
C126 C969 1.522 . S
C151 C845 1.440 . S
C925 C154 1.649 . S
C165 C739 1.717 . S
C137 C783 1.755 . S
C677 C140 1.930 . S
C1031 C179 1.463 . S
C182 C1111 1.418 . S
C196 C1173 1.793 . S
C1235 C207 1.832 . S
C1279 C168 1.805 . S
C193 C1359 1.636 . S
C210 C1341 1.809 . S
C235 C1217 1.753 . S
C1297 C238 1.707 . S
C1093 C249 1.338 . S
C1155 C221 1.698 . S
C224 C1049 1.624 . S
