# Generated by pormake.
# Topology zzz, (3,6)-cn, num edge types: 1
# Building blocks:
#     Node 0, Type 0, BuildingBlock: KAKCAD_clean_linker_0, # of connection points: 3
#     Node 1, Type 0, BuildingBlock: KAKCAD_clean_linker_0, # of connection points: 3
#     Node 2, Type 0, BuildingBlock: KAKCAD_clean_linker_0, # of connection points: 3
#     Node 3, Type 0, BuildingBlock: KAKCAD_clean_linker_0, # of connection points: 3
#     Node 4, Type 0, BuildingBlock: KAKCAD_clean_linker_0, # of connection points: 3
#     Node 5, Type 0, BuildingBlock: KAKCAD_clean_linker_0, # of connection points: 3
#     Node 6, Type 0, BuildingBlock: KAKCAD_clean_linker_0, # of connection points: 3
#     Node 7, Type 0, BuildingBlock: KAKCAD_clean_linker_0, # of connection points: 3
#     Node 8, Type 1, BuildingBlock: BETDIP_clean_sbu_0, # of connection points: 6
#     Node 9, Type 1, BuildingBlock: BETDIP_clean_sbu_0, # of connection points: 6
#     Node 10, Type 1, BuildingBlock: BETDIP_clean_sbu_0, # of connection points: 6
#     Node 11, Type 1, BuildingBlock: BETDIP_clean_sbu_0, # of connection points: 6
#     Edge 12, Type (0, 1), BuildingBlock: KIFKEQ_clean_linker_1, # of connection points: 2
#     Edge 13, Type (0, 1), BuildingBlock: KIFKEQ_clean_linker_1, # of connection points: 2
#     Edge 14, Type (0, 1), BuildingBlock: KIFKEQ_clean_linker_1, # of connection points: 2
#     Edge 15, Type (0, 1), BuildingBlock: KIFKEQ_clean_linker_1, # of connection points: 2
#     Edge 16, Type (0, 1), BuildingBlock: KIFKEQ_clean_linker_1, # of connection points: 2
#     Edge 17, Type (0, 1), BuildingBlock: KIFKEQ_clean_linker_1, # of connection points: 2
#     Edge 18, Type (0, 1), BuildingBlock: KIFKEQ_clean_linker_1, # of connection points: 2
#     Edge 19, Type (0, 1), BuildingBlock: KIFKEQ_clean_linker_1, # of connection points: 2
#     Edge 20, Type (0, 1), BuildingBlock: KIFKEQ_clean_linker_1, # of connection points: 2
#     Edge 21, Type (0, 1), BuildingBlock: KIFKEQ_clean_linker_1, # of connection points: 2
#     Edge 22, Type (0, 1), BuildingBlock: KIFKEQ_clean_linker_1, # of connection points: 2
#     Edge 23, Type (0, 1), BuildingBlock: KIFKEQ_clean_linker_1, # of connection points: 2
#     Edge 24, Type (0, 1), BuildingBlock: KIFKEQ_clean_linker_1, # of connection points: 2
#     Edge 25, Type (0, 1), BuildingBlock: KIFKEQ_clean_linker_1, # of connection points: 2
#     Edge 26, Type (0, 1), BuildingBlock: KIFKEQ_clean_linker_1, # of connection points: 2
#     Edge 27, Type (0, 1), BuildingBlock: KIFKEQ_clean_linker_1, # of connection points: 2
#     Edge 28, Type (0, 1), BuildingBlock: KIFKEQ_clean_linker_1, # of connection points: 2
#     Edge 29, Type (0, 1), BuildingBlock: KIFKEQ_clean_linker_1, # of connection points: 2
#     Edge 30, Type (0, 1), BuildingBlock: KIFKEQ_clean_linker_1, # of connection points: 2
#     Edge 31, Type (0, 1), BuildingBlock: KIFKEQ_clean_linker_1, # of connection points: 2
#     Edge 32, Type (0, 1), BuildingBlock: KIFKEQ_clean_linker_1, # of connection points: 2
#     Edge 33, Type (0, 1), BuildingBlock: KIFKEQ_clean_linker_1, # of connection points: 2
#     Edge 34, Type (0, 1), BuildingBlock: KIFKEQ_clean_linker_1, # of connection points: 2
#     Edge 35, Type (0, 1), BuildingBlock: KIFKEQ_clean_linker_1, # of connection points: 2
# Relax obj value: 0.435
# Max RMSD: 0.264
# Mean RMSD: 0.241
data_MOF--net-zzz--node1-BETDIP_clean_sbu_0--node2-KAKCAD_clean_linker_0--edge1-KIFKEQ_clean_linker_1
_symmetry_space_group_name_H-M    P1
_symmetry_Int_Tables_number       1
_symmetry_cell_setting            triclinic
loop_
_symmetry_equiv_pos_as_xyz
'x, y, z'
_cell_length_a     60.48544
_cell_length_b     60.400507
_cell_length_c     18.817095
_cell_angle_alpha  89.908074
_cell_angle_beta   89.798542
_cell_angle_gamma 90.073746
loop_
_atom_site_label
_atom_site_type_symbol
_atom_site_fract_x
_atom_site_fract_y
_atom_site_fract_z
_atom_type_partial_charge
C0 C 0.76163 0.42199 0.04903 0.0
C1 C 0.78003 0.40983 0.07255 0.0
C2 C 0.74908 0.43441 0.09689 0.0
C3 C 0.75424 0.43443 0.16978 0.0
C4 C 0.77057 0.41975 0.19425 0.0
C5 C 0.7835 0.40779 0.14619 0.0
C6 C 0.74518 0.45199 0.21731 0.0
C7 C 0.72397 0.46069 0.20666 0.0
C8 C 0.71706 0.48008 0.24147 0.0
C9 C 0.73147 0.49054 0.28998 0.0
C10 C 0.75232 0.48111 0.30449 0.0
C11 C 0.75898 0.46211 0.26759 0.0
C12 C 0.76843 0.49096 0.3547 0.0
C13 C 0.78205 0.50853 0.3327 0.0
C14 C 0.77396 0.4793 0.41681 0.0
C15 C 0.79331 0.48433 0.4542 0.0
C16 C 0.80781 0.50095 0.42974 0.0
C17 C 0.69541 0.48968 0.22062 0.0
C18 C 0.69454 0.50994 0.18406 0.0
C19 C 0.67623 0.47654 0.2241 0.0
C20 C 0.65699 0.48284 0.18825 0.0
C21 C 0.65656 0.50232 0.1472 0.0
C22 C 0.67534 0.51615 0.14742 0.0
C23 C 0.80154 0.51348 0.36981 0.0
H24 H 0.75793 0.42332 0.99292 0.0
H25 H 0.73657 0.44532 0.07553 0.0
H26 H 0.77446 0.41865 0.25028 0.0
H27 H 0.79736 0.3985 0.16687 0.0
H28 H 0.71303 0.45296 0.16851 0.0
H29 H 0.77562 0.45601 0.27572 0.0
H30 H 0.72649 0.50567 0.31635 0.0
H31 H 0.77842 0.51742 0.28409 0.0
H32 H 0.76401 0.46532 0.43382 0.0
H33 H 0.79763 0.47418 0.49956 0.0
H34 H 0.70918 0.52022 0.17968 0.0
H35 H 0.67655 0.46071 0.25128 0.0
H36 H 0.81215 0.52656 0.34991 0.0
H37 H 0.67548 0.53138 0.11696 0.0
H38 H 0.64294 0.4717 0.18894 0.0
C39 C 0.08664 0.75458 0.0445 0.0
C40 C 0.10072 0.77161 0.06804 0.0
C41 C 0.07296 0.74334 0.09245 0.0
C42 C 0.07357 0.74834 0.16544 0.0
C43 C 0.08988 0.76306 0.18981 0.0
C44 C 0.10309 0.77476 0.14175 0.0
C45 C 0.05564 0.74055 0.21405 0.0
C46 C 0.04534 0.72003 0.20385 0.0
C47 C 0.02645 0.71403 0.24287 0.0
C48 C 0.01806 0.72856 0.29533 0.0
C49 C 0.02899 0.74884 0.30894 0.0
C50 C 0.04735 0.75469 0.26691 0.0
C51 C 0.02182 0.76484 0.365 0.0
C52 C 1.00019 0.77329 0.36752 0.0
C53 C 0.03786 0.77435 0.40954 0.0
C54 C 0.03291 0.79271 0.45179 0.0
C55 C 0.01164 0.80214 0.45171 0.0
C56 C 0.01568 0.69279 0.22364 0.0
C57 C 0.99861 0.6927 0.1733 0.0
C58 C 0.02629 0.67277 0.23986 0.0
C59 C 0.02087 0.65328 0.20347 0.0
C60 C 1.00492 0.65342 0.14904 0.0
C61 C 0.99325 0.67324 0.13647 0.0
C62 C 0.99515 0.79173 0.41039 0.0
H63 H 0.08494 0.75101 0.98842 0.0
H64 H 0.06082 0.73197 0.07124 0.0
H65 H 0.09152 0.76667 0.24591 0.0
H66 H 0.11375 0.78756 0.16272 0.0
H67 H 0.05165 0.70876 0.16387 0.0
H68 H 0.05465 0.77093 0.27386 0.0
H69 H 1.00351 0.72399 0.32572 0.0
H70 H 0.9875 0.76643 0.33358 0.0
H71 H 0.05468 0.76822 0.409 0.0
H72 H 0.04624 0.80017 0.48163 0.0
H73 H 0.99061 0.70806 0.1584 0.0
H74 H 0.03982 0.6725 0.27745 0.0
H75 H 0.97845 0.79814 0.40969 0.0
H76 H 0.98103 0.67417 0.09467 0.0
H77 H 0.02992 0.63832 0.21585 0.0
C78 C 0.74728 0.07978 0.0668 0.0
C79 C 0.72923 0.09229 0.09152 0.0
C80 C 0.75925 0.0664 0.11339 0.0
C81 C 0.75394 0.06581 0.18626 0.0
C82 C 0.73823 0.08095 0.21223 0.0
C83 C 0.72581 0.09382 0.1654 0.0
C84 C 0.76206 0.04737 0.23209 0.0
C85 C 0.78279 0.03765 0.22018 0.0
C86 C 0.78872 0.01777 0.2538 0.0
C87 C 0.77391 1.00774 0.30237 0.0
C88 C 0.75354 0.01805 0.31796 0.0
C89 C 0.7478 0.03758 0.28219 0.0
C90 C 0.73706 1.00872 0.3685 0.0
C91 C 0.72353 0.99094 0.34817 0.0
C92 C 0.73141 0.02081 0.42961 0.0
C93 C 0.71207 0.01596 0.46776 0.0
C94 C 0.6977 0.99906 0.44511 0.0
C95 C 0.80994 1.00747 0.23235 0.0
C96 C 0.81011 0.99079 0.18051 0.0
C97 C 0.82994 0.01773 0.25065 0.0
C98 C 0.84959 0.01225 0.21526 0.0
C99 C 0.84963 0.99665 0.15959 0.0
C100 C 0.82973 0.98544 0.14447 0.0
C101 C 0.70403 0.98617 0.38602 0.0
H102 H 0.75105 0.07887 0.01059 0.0
H103 H 0.77137 0.05523 0.09091 0.0
H104 H 0.73433 0.08171 0.26838 0.0
H105 H 0.71228 0.10337 0.18722 0.0
H106 H 0.79418 0.0451 0.18245 0.0
H107 H 0.73147 0.04443 0.29117 0.0
H108 H 0.77823 0.99226 0.32791 0.0
H109 H 0.72727 0.98167 0.30039 0.0
H110 H 0.74132 0.03492 0.44541 0.0
H111 H 0.70771 0.02641 0.51236 0.0
H112 H 0.79478 0.98304 0.16427 0.0
H113 H 0.83014 0.03089 0.28971 0.0
H114 H 0.69349 0.97288 0.3675 0.0
H115 H 0.82892 0.97352 0.10165 0.0
H116 H 0.8646 0.0209 0.22972 0.0
C117 C 0.48032 0.71363 0.47212 0.0
C118 C 0.4979 0.69964 0.45278 0.0
C119 C 0.47572 0.73274 0.43252 0.0
C120 C 0.48883 0.73854 0.37347 0.0
C121 C 0.50738 0.7255 0.35725 0.0
C122 C 0.5118 0.70618 0.39625 0.0
C123 C 0.48024 0.75454 0.32022 0.0
C124 C 0.49227 0.77336 0.29746 0.0
C125 C 0.48419 0.78647 0.24098 0.0
C126 C 0.46465 0.78025 0.20634 0.0
C127 C 0.45282 0.76153 0.22809 0.0
C128 C 0.46037 0.74914 0.28603 0.0
C129 C 0.4349 0.7525 0.18354 0.0
C130 C 0.41473 0.74586 0.21381 0.0
C131 C 0.43946 0.74712 0.11262 0.0
C132 C 0.42529 0.73324 0.07504 0.0
C133 C 0.40599 0.72469 0.10727 0.0
C134 C 0.49599 0.80621 0.21352 0.0
C135 C 0.49142 0.82716 0.24209 0.0
C136 C 0.5074 0.80483 0.14861 0.0
C137 C 0.51311 0.82404 0.11099 0.0
C138 C 0.5073 0.8451 0.13711 0.0
C139 C 0.49706 0.84642 0.20438 0.0
C140 C 0.4002 0.73241 0.17553 0.0
H141 H 0.4692 0.70905 0.51494 0.0
H142 H 0.46111 0.74231 0.44541 0.0
H143 H 0.5175 0.72935 0.31126 0.0
H144 H 0.5256 0.69588 0.3804 0.0
H145 H 0.50781 0.77755 0.32258 0.0
H146 H 0.45165 0.73412 0.30102 0.0
H147 H 0.45893 0.78971 0.16094 0.0
H148 H 0.4108 0.75008 0.26834 0.0
H149 H 0.45501 0.75196 0.08827 0.0
H150 H 0.43069 0.72774 0.02316 0.0
H151 H 0.48221 0.8286 0.29136 0.0
H152 H 0.5106 0.78884 0.12473 0.0
H153 H 0.38516 0.72691 0.20142 0.0
H154 H 0.49258 0.86233 0.22659 0.0
H155 H 0.52074 0.82228 0.05916 0.0
C156 C 0.22752 0.60677 0.24038 0.0
C157 C 0.22413 0.60304 0.3135 0.0
C158 C 0.24055 0.59228 0.20039 0.0
C159 C 0.25081 0.57411 0.23305 0.0
C160 C 0.24926 0.57166 0.30704 0.0
C161 C 0.23599 0.5859 0.34684 0.0
C162 C 0.26069 0.5562 0.18991 0.0
C163 C 0.28117 0.54718 0.20805 0.0
C164 C 0.28957 0.52842 0.17286 0.0
C165 C 0.27656 0.51822 0.11956 0.0
C166 C 0.25594 0.52749 0.10042 0.0
C167 C 0.2484 0.54653 0.13532 0.0
C168 C 0.24088 0.51752 0.04713 0.0
C169 C 0.23856 0.52764 0.98035 0.0
C170 C 0.2248 0.5022 0.06931 0.0
C171 C 0.20612 0.49801 0.02733 0.0
C172 C 0.20302 0.50915 0.96217 0.0
C173 C 0.31156 0.5198 0.1959 0.0
C174 C 0.32881 0.53483 0.20937 0.0
C175 C 0.31459 0.49749 0.21476 0.0
C176 C 0.3338 0.49079 0.25091 0.0
C177 C 0.35035 0.50627 0.26942 0.0
C178 C 0.34775 0.52827 0.246 0.0
C179 C 0.21997 0.52338 0.93813 0.0
H180 H 0.21908 0.62011 0.21323 0.0
H181 H 0.2418 0.59468 0.14344 0.0
H182 H 0.25692 0.5577 0.33347 0.0
H183 H 0.23367 0.58224 0.40271 0.0
H184 H 0.29041 0.55459 0.25123 0.0
H185 H 0.23227 0.55319 0.1222 0.0
H186 H 0.28244 0.50345 0.093 0.0
H187 H 0.25047 0.53991 0.96278 0.0
H188 H 0.22585 0.4947 0.12154 0.0
H189 H 0.19344 0.48713 0.04835 0.0
H190 H 0.32714 0.55211 0.19482 0.0
H191 H 0.30163 0.48548 0.2052 0.0
H192 H 0.21848 0.53196 0.88782 0.0
H193 H 0.35972 0.54091 0.25926 0.0
H194 H 0.3353 0.47357 0.26617 0.0
C195 C 0.03225 0.25597 0.43188 0.0
C196 C 0.04148 0.23484 0.44104 0.0
C197 C 0.03151 0.26565 0.36462 0.0
C198 C 0.04056 0.25471 0.30519 0.0
C199 C 0.05195 0.23477 0.31589 0.0
C200 C 0.05226 0.22485 0.38285 0.0
C201 C 0.0362 0.26305 0.23217 0.0
C202 C 0.03456 0.28579 0.21965 0.0
C203 C 0.02681 0.29404 0.15484 0.0
C204 C 0.02191 0.27917 0.09898 0.0
C205 C 0.02466 0.2561 0.10967 0.0
C206 C 0.03145 0.24835 0.1765 0.0
C207 C 0.02005 0.23919 0.05411 0.0
C208 C 1.00077 0.22625 0.05867 0.0
C209 C 0.03704 0.23233 0.00813 0.0
C210 C 0.0352 0.21243 0.96993 0.0
C211 C 0.01634 0.19884 0.97695 0.0
C212 C 0.02233 0.31817 0.15306 0.0
C213 C 1.00246 0.32574 0.18331 0.0
C214 C 0.04026 0.3329 0.14852 0.0
C215 C 0.03906 0.35394 0.17982 0.0
C216 C 0.02 0.36061 0.21752 0.0
C217 C 1.0013 0.34668 0.21527 0.0
C218 C 0.99885 0.20642 0.0202 0.0
H219 H 0.02426 0.2644 0.47571 0.0
H220 H 0.02252 0.28103 0.35888 0.0
H221 H 0.05967 0.2262 0.27183 0.0
H222 H 0.0595 0.20853 0.38724 0.0
H223 H 0.03847 0.29735 0.26185 0.0
H224 H 0.03231 0.23064 0.18547 0.0
H225 H 0.01581 0.28537 0.04871 0.0
H226 H 0.9877 0.23081 0.09529 0.0
H227 H 0.0523 0.24169 1.00497 0.0
H228 H 0.0489 0.20735 0.93657 0.0
H229 H 0.9886 0.31451 0.18944 0.0
H230 H 0.05593 0.32734 0.12699 0.0
H231 H 0.98418 0.1964 0.0278 0.0
H232 H 0.98634 0.35098 0.24377 0.0
H233 H 0.05363 0.36436 0.17854 0.0
C234 C 0.27339 0.08227 0.35514 0.0
C235 C 0.2884 0.09811 0.32828 0.0
C236 C 0.25616 0.07446 0.31312 0.0
C237 C 0.25371 0.08214 0.24325 0.0
C238 C 0.26646 0.10024 0.22029 0.0
C239 C 0.28348 0.10841 0.263 0.0
C240 C 0.24233 0.06777 0.19131 0.0
C241 C 0.22169 0.05852 0.20696 0.0
C242 C 0.2135 0.04055 0.16771 0.0
C243 C 0.22647 0.0316 0.11191 0.0
C244 C 0.24691 0.04157 0.09361 0.0
C245 C 0.2544 0.05971 0.13333 0.0
C246 C 0.26221 0.0327 0.0383 0.0
C247 C 0.27153 0.01152 0.04538 0.0
C248 C 0.27136 0.04731 0.98792 0.0
C249 C 0.29035 0.04162 0.94946 0.0
C250 C 0.30079 0.02105 0.96005 0.0
C251 C 0.19216 0.03078 0.19144 0.0
C252 C 0.19177 0.01035 0.2271 0.0
C253 C 0.17319 0.04418 0.19348 0.0
C254 C 0.15473 0.038 0.23406 0.0
C255 C 0.15489 0.01837 0.27439 0.0
C256 C 0.17333 1.00422 0.2683 0.0
C257 C 0.29061 1.00575 1.00666 0.0
H258 H 0.2763 0.07385 0.40501 0.0
H259 H 0.24654 0.06052 0.33232 0.0
H260 H 0.26456 0.10672 0.16693 0.0
H261 H 0.29404 0.12132 0.24176 0.0
H262 H 0.21249 0.06456 0.25255 0.0
H263 H 0.27074 0.06639 0.12268 0.0
H264 H 0.2207 0.01722 0.08303 0.0
H265 H 0.26503 1.00002 0.08445 0.0
H266 H 0.26467 0.06384 0.98186 0.0
H267 H 0.29762 0.05401 0.91491 0.0
H268 H 0.20631 0.9999 0.2274 0.0
H269 H 0.17322 0.06018 0.16738 0.0
H270 H 0.29784 0.98959 0.01535 0.0
H271 H 0.17392 0.98884 0.29791 0.0
H272 H 0.14099 0.04942 0.23775 0.0
C273 C 0.49536 0.29318 0.01675 0.0
C274 C 0.51212 0.30315 0.97546 0.0
C275 C 0.49986 0.27414 0.05752 0.0
C276 C 0.52112 0.26472 0.05701 0.0
C277 C 0.53713 0.2736 0.01056 0.0
C278 C 0.53275 0.29264 0.9708 0.0
C279 C 0.52835 0.24924 0.11426 0.0
C280 C 0.51745 0.22908 0.13056 0.0
C281 C 0.52552 0.21539 0.18593 0.0
C282 C 0.54361 0.22262 0.2265 0.0
C283 C 0.5541 0.2427 0.21181 0.0
C284 C 0.5466 0.25569 0.15532 0.0
C285 C 0.57138 0.25147 0.25955 0.0
C286 C 0.56716 0.25308 0.33271 0.0
C287 C 0.59066 0.2611 0.23149 0.0
C288 C 0.60437 0.2739 0.27464 0.0
C289 C 0.59877 0.27765 0.34626 0.0
C290 C 0.51565 0.19355 0.20478 0.0
C291 C 0.49358 0.19169 0.22735 0.0
C292 C 0.52972 0.17525 0.21338 0.0
C293 C 0.52255 0.15627 0.24907 0.0
C294 C 0.50092 0.15481 0.27669 0.0
C295 C 0.48626 0.17248 0.2628 0.0
C296 C 0.58069 0.2661 0.37568 0.0
H297 H 0.4793 0.30097 0.02131 0.0
H298 H 0.48727 0.26783 0.0933 0.0
H299 H 0.55364 0.26667 0.00875 0.0
H300 H 0.54588 0.29978 0.93881 0.0
H301 H 0.5033 0.22388 0.09962 0.0
H302 H 0.55441 0.27159 0.14539 0.0
H303 H 0.54941 0.21267 0.27072 0.0
H304 H 0.55236 0.24584 0.35561 0.0
H305 H 0.59443 0.25975 0.17533 0.0
H306 H 0.61848 0.28213 0.25071 0.0
H307 H 0.4824 0.20558 0.22178 0.0
H308 H 0.54684 0.17622 0.19654 0.0
H309 H 0.57569 0.26868 0.43035 0.0
H310 H 0.46934 0.17188 0.28162 0.0
H311 H 0.53458 0.14339 0.25888 0.0
Tb312 Tb 0.02142 0.99146 0.78766 0.0
Tb313 Tb 0.99158 1.0052 0.67666 0.0
C314 C 0.04137 0.97222 0.88703 0.0
C315 C 0.05605 0.95284 0.89043 0.0
C316 C 0.05124 0.93351 0.85228 0.0
C317 C 0.0655 0.91541 0.85502 0.0
C318 C 0.08499 0.9163 0.89558 0.0
C319 C 0.09 0.9359 0.93251 0.0
C320 C 0.07562 0.954 0.92996 0.0
C321 C 0.04208 1.00641 0.6724 0.0
C322 C 1.00304 0.95545 0.67497 0.0
C323 C 0.97445 0.02783 0.58048 0.0
C324 C 0.97829 0.05169 0.5689 0.0
C325 C 0.99989 0.05955 0.55701 0.0
C326 C 1.00475 0.08193 0.56474 0.0
C327 C 0.98816 0.09696 0.58429 0.0
C328 C 0.96627 0.08943 0.59136 0.0
C329 C 0.96138 0.06693 0.58381 0.0
C330 C 0.97121 0.98958 0.79086 0.0
C331 C 0.00984 0.04082 0.78641 0.0
O332 O 0.02059 0.96853 0.87149 0.0
O333 O 0.04941 0.98921 0.85264 0.0
O334 O 0.0251 0.99434 0.67422 0.0
O335 O 0.04857 1.00952 0.73687 0.0
O336 O 0.01294 0.9594 0.73663 0.0
O337 O 0.99451 0.97172 0.63711 0.0
O338 O 0.99145 0.01485 0.56958 0.0
O339 O 0.96412 0.02298 0.63966 0.0
O340 O 0.98788 1.00219 0.79002 0.0
O341 O 0.96513 0.98586 0.72595 0.0
O342 O 1.00434 0.03677 0.71972 0.0
O343 O 0.01391 0.02415 0.82976 0.0
H344 H 0.03636 0.93224 0.82089 0.0
H345 H 0.06084 0.90046 0.82708 0.0
H346 H 0.10494 0.93721 0.96376 0.0
H347 H 0.07977 0.96891 0.95898 0.0
H348 H 0.01339 0.04832 0.54558 0.0
H349 H 0.02165 0.0874 0.55698 0.0
H350 H 0.95315 0.10075 0.60602 0.0
H351 H 0.94465 0.06127 0.59378 0.0
Tb352 Tb 0.50767 0.01581 0.77535 0.0
Tb353 Tb 0.49249 0.98916 0.65455 0.0
C354 C 0.52714 0.03128 0.88187 0.0
C355 C 0.54713 0.04491 0.89125 0.0
C356 C 0.56728 0.03899 0.85934 0.0
C357 C 0.58585 0.0525 0.86671 0.0
C358 C 0.58469 0.07223 0.90617 0.0
C359 C 0.56445 0.07819 0.93776 0.0
C360 C 0.54585 0.06464 0.93029 0.0
C361 C 0.49396 0.03977 0.66576 0.0
C362 C 0.54322 0.99797 0.66087 0.0
C363 C 0.47162 0.97795 0.5458 0.0
C364 C 0.45269 0.98953 0.51314 0.0
C365 C 0.45608 1.00251 0.45196 0.0
C366 C 0.4402 0.0179 0.4307 0.0
C367 C 0.42069 0.02055 0.47035 0.0
C368 C 0.41659 1.00651 0.5284 0.0
C369 C 0.43236 0.99099 0.54924 0.0
C370 C 0.5063 0.96522 0.76344 0.0
C371 C 0.45788 1.00723 0.76721 0.0
O372 O 0.52996 0.01097 0.85897 0.0
O373 O 0.51066 0.04121 0.85043 0.0
O374 O 0.50485 0.02203 0.66325 0.0
O375 O 0.49202 0.04552 0.73159 0.0
O376 O 0.53937 1.00827 0.72194 0.0
O377 O 0.52696 0.98972 0.62249 0.0
O378 O 0.49017 0.98904 0.54365 0.0
O379 O 0.46828 0.96884 0.60819 0.0
O380 O 0.49525 0.98288 0.76652 0.0
O381 O 0.50822 0.95945 0.69739 0.0
O382 O 0.46198 1.00396 0.69883 0.0
O383 O 0.47444 1.00831 0.81246 0.0
H384 H 0.56878 0.02385 0.82904 0.0
H385 H 0.60128 0.04716 0.84299 0.0
H386 H 0.563 0.09332 0.96824 0.0
H387 H 0.53041 0.06961 0.95489 0.0
H388 H 0.47158 1.00171 0.42305 0.0
H389 H 0.44365 0.02846 0.3854 0.0
H390 H 0.40139 1.00791 0.55869 0.0
H391 H 0.42906 0.98098 0.59586 0.0
Tb392 Tb 0.48506 0.50716 0.77551 0.0
Tb393 Tb 0.51523 0.49567 0.66362 0.0
C394 C 0.46498 0.52326 0.88076 0.0
C395 C 0.44943 0.54129 0.89544 0.0
C396 C 0.44746 0.55944 0.84936 0.0
C397 C 0.43367 0.57716 0.8672 0.0
C398 C 0.42156 0.57686 0.93121 0.0
C399 C 0.42273 0.55802 0.97511 0.0
C400 C 0.43662 0.54044 0.95744 0.0
C401 C 0.46478 0.49316 0.65868 0.0
C402 C 0.50079 0.54466 0.66554 0.0
C403 C 0.53654 0.47768 0.56457 0.0
C404 C 0.54986 0.45723 0.55965 0.0
C405 C 0.53972 0.43631 0.55811 0.0
C406 C 0.55252 0.41715 0.55434 0.0
C407 C 0.57576 0.41842 0.55239 0.0
C408 C 0.58588 0.43937 0.55453 0.0
C409 C 0.57305 0.45857 0.55777 0.0
C410 C 0.535 0.51017 0.78072 0.0
C411 C 0.49989 0.45823 0.77226 0.0
O412 O 0.48504 0.52901 0.86194 0.0
O413 O 0.45729 0.50703 0.84243 0.0
O414 O 0.48144 0.50566 0.66128 0.0
O415 O 0.45845 0.4891 0.72295 0.0
O416 O 0.49272 0.54019 0.72968 0.0
O417 O 0.50766 0.5285 0.6239 0.0
O418 O 0.51517 0.47538 0.57324 0.0
O419 O 0.54464 0.49321 0.60502 0.0
O420 O 0.51884 0.49707 0.7776 0.0
O421 O 0.5409 0.51506 0.71664 0.0
O422 O 0.5065 0.46267 0.70671 0.0
O423 O 0.4942 0.47455 0.81498 0.0
H424 H 0.45701 0.56016 0.80069 0.0
H425 H 0.4333 0.59148 0.83253 0.0
H426 H 0.41334 0.55713 0.02416 0.0
H427 H 0.43772 0.52636 0.99304 0.0
H428 H 0.52189 0.43466 0.55931 0.0
H429 H 0.54411 0.40135 0.55102 0.0
H430 H 0.60371 0.44096 0.55356 0.0
H431 H 0.5813 0.47449 0.55894 0.0
Tb432 Tb 1.00059 0.488 0.74296 0.0
Tb433 Tb 0.01141 0.52126 0.6393 0.0
C434 C 0.98373 0.46491 0.84062 0.0
C435 C 0.9633 0.45193 0.84962 0.0
C436 C 0.94292 0.46002 0.82561 0.0
C437 C 0.92374 0.44744 0.83411 0.0
C438 C 0.92452 0.42658 0.86728 0.0
C439 C 0.94499 0.41843 0.89085 0.0
C440 C 0.96424 0.43099 0.88182 0.0
C441 C 0.01538 0.47133 0.62123 0.0
C442 C 0.96286 0.50536 0.63777 0.0
C443 C 0.028 0.54474 0.54225 0.0
C444 C 0.04673 0.56003 0.53746 0.0
C445 C 0.05166 0.57016 0.47244 0.0
C446 C 0.06987 0.58424 0.46639 0.0
C447 C 0.08348 0.5884 0.52543 0.0
C448 C 0.0781 0.57862 0.59116 0.0
C449 C 0.05981 0.56456 0.59716 0.0
C450 C 0.9969 0.53797 0.76153 0.0
C451 C 0.04936 0.50369 0.74362 0.0
O452 O 0.98159 0.48644 0.83623 0.0
O453 O 0.99775 0.45721 0.79401 0.0
O454 O 1.0022 0.48734 0.62821 0.0
O455 O 0.02016 0.46387 0.68369 0.0
O456 O 0.96748 0.49618 0.69998 0.0
O457 O 0.97889 0.51345 0.59779 0.0
O458 O 0.03296 0.52388 0.55204 0.0
O459 O 0.01179 0.55119 0.58314 0.0
O460 O 0.01 0.52195 0.75387 0.0
O461 O 0.99214 0.54551 0.69923 0.0
O462 O 0.04456 0.51334 0.68226 0.0
O463 O 0.0335 0.49499 0.78304 0.0
H464 H 0.94174 0.47621 0.80125 0.0
H465 H 0.90816 0.4544 0.81674 0.0
H466 H 0.94609 0.40241 0.91651 0.0
H467 H 0.97985 0.42443 0.90041 0.0
H468 H 0.04165 0.56684 0.42599 0.0
H469 H 0.07379 0.59113 0.41469 0.0
H470 H 0.0882 0.58158 0.63762 0.0
H471 H 0.05604 0.55701 0.64803 0.0
H472 H 0.15961 1.00319 0.41052 0.0
H473 H 0.10987 0.02446 0.26127 0.0
H474 H 0.13148 0.99995 0.50285 0.0
H475 H 0.08167 0.02163 0.35462 0.0
H476 H 0.03506 0.99342 0.53416 0.0
H477 H 0.06146 0.99504 0.43476 0.0
H478 H 0.10924 0.0265 0.57155 0.0
H479 H 0.08304 0.02486 0.67005 0.0
C480 C 0.14261 1.00684 0.39695 0.0
C481 C 0.13708 0.01409 0.32818 0.0
C482 C 0.12649 1.00527 0.45031 0.0
C483 C 0.10432 0.01079 0.43654 0.0
C484 C 0.09857 0.01722 0.36711 0.0
C485 C 0.11477 0.01897 0.3137 0.0
C486 C 0.05115 1.00083 0.5426 0.0
C487 C 0.05702 1.00888 0.61007 0.0
C488 C 0.06626 1.00178 0.48572 0.0
C489 C 0.08761 0.01062 0.49535 0.0
C490 C 0.09314 0.01916 0.56249 0.0
C491 C 0.07805 0.01837 0.61892 0.0
H492 H 0.51501 0.11132 0.27218 0.0
H493 H 0.47287 0.15524 0.39277 0.0
H494 H 0.51097 0.08327 0.36309 0.0
H495 H 0.46693 0.1263 0.48015 0.0
H496 H 0.48595 0.08404 0.67171 0.0
H497 H 0.48443 0.11031 0.57425 0.0
H498 H 0.4921 0.05657 0.42435 0.0
H499 H 0.49541 0.03066 0.52307 0.0
C500 C 0.5046 0.11498 0.31755 0.0
C501 C 0.49476 0.13598 0.32527 0.0
C502 C 0.50193 0.09858 0.3696 0.0
C503 C 0.48888 0.10238 0.43053 0.0
C504 C 0.4777 0.1228 0.43553 0.0
C505 C 0.48076 0.13939 0.38418 0.0
C506 C 0.48724 0.07784 0.61786 0.0
C507 C 0.49096 0.05525 0.60519 0.0
C508 C 0.48613 0.09294 0.56146 0.0
C509 C 0.4882 0.08584 0.49038 0.0
C510 C 0.49097 0.06297 0.47791 0.0
C511 C 0.49262 0.04795 0.5346 0.0
H512 H 0.35126 0.47527 0.37753 0.0
H513 H 0.39274 0.52361 0.27206 0.0
H514 H 0.38019 0.46862 0.46347 0.0
H515 H 0.42065 0.51873 0.3624 0.0
H516 H 0.47412 0.50038 0.5177 0.0
H517 H 0.44837 0.49981 0.41788 0.0
H518 H 0.39502 0.48369 0.56297 0.0
H519 H 0.42101 0.48281 0.66051 0.0
C520 C 0.36655 0.48444 0.37199 0.0
C521 C 0.36924 0.50028 0.31763 0.0
C522 C 0.38313 0.48094 0.42269 0.0
C523 C 0.40282 0.49349 0.42188 0.0
C524 C 0.40592 0.50859 0.36557 0.0
C525 C 0.38956 0.51172 0.31396 0.0
C526 C 0.45692 0.49642 0.52766 0.0
C527 C 0.44962 0.49166 0.59694 0.0
C528 C 0.44201 0.49628 0.47051 0.0
C529 C 0.41931 0.49181 0.48143 0.0
C530 C 0.41227 0.48674 0.55111 0.0
C531 C 0.42722 0.48643 0.60769 0.0
H532 H 0.0548 0.37557 0.29773 0.0
H533 H 0.98641 0.39001 0.25108 0.0
H534 H 0.05499 0.40445 0.38702 0.0
H535 H 0.98631 0.41824 0.34379 0.0
H536 H 0.99706 0.47828 0.48928 0.0
H537 H 0.99916 0.45393 0.38525 0.0
H538 H 0.04066 0.40892 0.50339 0.0
H539 H 0.03894 0.43338 0.60573 0.0
C540 C 0.03984 0.3851 0.30543 0.0
C541 C 0.02057 0.38024 0.26654 0.0
C542 C 0.03986 0.40152 0.3579 0.0
C543 C 0.02058 0.41358 0.37386 0.0
C544 C 1.00153 0.40942 0.33309 0.0
C545 C 1.00152 0.393 0.28023 0.0
C546 C 1.00683 0.46329 0.49247 0.0
C547 C 0.01783 0.45776 0.55578 0.0
C548 C 1.0079 0.44923 0.43304 0.0
C549 C 0.02009 0.42935 0.43545 0.0
C550 C 0.03141 0.42418 0.49863 0.0
C551 C 0.03032 0.43818 0.55774 0.0
H552 H 0.8651 0.95842 0.09606 0.0
H553 H 0.87959 0.0282 0.11666 0.0
H554 H 0.89599 0.95461 0.01297 0.0
H555 H 0.91052 0.02424 0.03509 0.0
H556 H 0.93254 0.96643 0.79645 0.0
H557 H 0.90487 0.96642 0.8912 0.0
H558 H 0.94725 1.00795 0.01855 0.0
H559 H 0.97488 1.00809 0.92319 0.0
C560 C 0.87486 0.97294 0.08328 0.0
C561 C 0.8697 0.99363 0.11356 0.0
C562 C 0.89262 0.97073 0.03563 0.0
C563 C 0.90581 0.98911 0.01723 0.0
C564 C 0.90101 1.00963 0.04886 0.0
C565 C 0.88321 0.01187 0.09604 0.0
C566 C 0.93607 0.97532 0.84507 0.0
C567 C 0.95582 0.98739 0.85212 0.0
C568 C 0.92024 0.97523 0.89961 0.0
C569 C 0.92371 0.98732 0.96248 0.0
C570 C 0.94388 0.99872 0.97049 0.0
C571 C 0.95979 0.99869 0.91606 0.0
H572 H 0.54203 0.85618 0.04891 0.0
H573 H 0.47815 0.87937 0.11963 0.0
H574 H 0.54411 0.88677 0.96421 0.0
H575 H 0.48015 0.9098 0.035 0.0
H576 H 0.49503 0.97107 0.90348 0.0
H577 H 0.49767 0.94397 1.00001 0.0
H578 H 0.52679 0.89692 0.85453 0.0
H579 H 0.52457 0.92412 0.75913 0.0
C580 C 0.52847 0.86785 0.0467 0.0
C581 C 0.50989 0.86518 0.09117 0.0
C582 C 0.52963 0.8854 0.99796 0.0
C583 C 0.51222 0.90076 0.99212 0.0
C584 C 0.49403 0.89854 0.03843 0.0
C585 C 0.49289 0.88103 0.08722 0.0
C586 C 0.5022 0.955 0.89252 0.0
C587 C 0.50946 0.94967 0.82363 0.0
C588 C 0.5036 0.93941 0.94769 0.0
C589 C 0.51235 0.91813 0.93526 0.0
C590 C 0.52022 0.91316 0.86662 0.0
C591 C 0.5188 0.92872 0.81163 0.0
H592 H 0.61202 0.49841 0.17563 0.0
H593 H 0.65797 0.51581 0.00867 0.0
H594 H 0.58127 0.50271 0.09288 0.0
H595 H 0.62756 0.51949 0.92565 0.0
H596 H 0.56918 0.53894 0.79539 0.0
H597 H 0.59702 0.53987 0.88857 0.0
H598 H 0.56412 0.4855 0.99512 0.0
H599 H 0.53571 0.4854 0.90313 0.0
C600 C 0.61555 0.50322 0.12128 0.0
C601 C 0.63749 0.50687 0.099 0.0
C602 C 0.59791 0.50557 0.07358 0.0
C603 C 0.60174 0.51142 1.00204 0.0
C604 C 0.62372 0.51543 0.98037 0.0
C605 C 0.64128 0.51329 0.02816 0.0
C606 C 0.56776 0.5274 0.83933 0.0
C607 C 0.55034 0.51204 0.84176 0.0
C608 C 0.58386 0.52777 0.89258 0.0
C609 C 0.58319 0.51253 0.94934 0.0
C610 C 0.56521 0.49766 0.95293 0.0
C611 C 0.54891 0.49751 0.89998 0.0
H612 H 0.96661 0.63734 0.08834 0.0
H613 H 0.03686 0.62505 0.09934 0.0
H614 H 0.96288 0.60749 1.0018 0.0
H615 H 0.03308 0.59524 0.01366 0.0
H616 H 0.01833 0.53274 0.88906 0.0
H617 H 0.01868 0.55847 0.98962 0.0
H618 H 0.97279 0.60095 0.87902 0.0
H619 H 0.97224 0.57514 0.77964 0.0
C620 C 0.98126 0.62827 0.07268 0.0
C621 C 1.00204 0.63376 0.10123 0.0
C622 C 0.97911 0.6111 0.02294 0.0
C623 C 0.99768 0.5989 1.00033 0.0
C624 C 0.01833 0.60396 0.03045 0.0
C625 C 0.02048 0.62113 0.07996 0.0
C626 C 1.00808 0.54742 0.88686 0.0
C627 C 0.99534 0.55196 0.82626 0.0
C628 C 1.0084 0.56227 0.94424 0.0
C629 C 0.99587 0.58195 0.94253 0.0
C630 C 0.98247 0.58593 0.88286 0.0
C631 C 0.98224 0.57117 0.82556 0.0
H632 H 0.06719 0.20349 0.50749 0.0
H633 H 1.00335 0.23545 0.52046 0.0
H634 H 0.0528 0.17252 0.5752 0.0
H635 H 0.98962 0.20542 0.59331 0.0
H636 H 0.96647 0.1336 0.53747 0.0
H637 H 0.97956 0.1715 0.54024 0.0
H638 H 0.03586 0.15125 0.66577 0.0
H639 H 0.02298 0.11302 0.66043 0.0
C640 C 0.05035 0.20434 0.52705 0.0
C641 C 0.03616 0.22143 0.50519 0.0
C642 C 0.04213 0.18667 0.56702 0.0
C643 C 0.0197 0.18606 0.58701 0.0
C644 C 1.00674 0.20503 0.57622 0.0
C645 C 0.01479 0.22246 0.53499 0.0
C646 C 0.98133 0.13734 0.56715 0.0
C647 C 0.99397 0.12037 0.59723 0.0
C648 C 0.9888 0.15916 0.56948 0.0
C649 C 0.009 0.16446 0.60259 0.0
C650 C 0.02052 0.14769 0.63854 0.0
C651 C 0.01319 0.12581 0.63527 0.0
H652 H 0.30135 0.09377 0.46856 0.0
H653 H 0.32769 0.10486 0.25733 0.0
H654 H 0.33702 0.07995 0.50612 0.0
H655 H 0.36372 0.09337 0.2971 0.0
H656 H 0.40326 0.02981 0.3408 0.0
H657 H 0.37493 0.05681 0.31256 0.0
H658 H 0.37479 0.07907 0.53113 0.0
H659 H 0.40259 0.05114 0.55949 0.0
C660 C 0.31485 0.09401 0.43064 0.0
C661 C 0.31112 0.09934 0.35883 0.0
C662 C 0.33552 0.08632 0.45257 0.0
C663 C 0.35306 0.08454 0.40359 0.0
C664 C 0.35029 0.09352 0.33531 0.0
C665 C 0.32952 0.10061 0.31286 0.0
C666 C 0.39733 0.04068 0.38245 0.0
C667 C 0.40481 0.03824 0.45234 0.0
C668 C 0.38124 0.05639 0.36631 0.0
C669 C 0.3725 0.07029 0.41956 0.0
C670 C 0.38083 0.06847 0.48901 0.0
C671 C 0.39672 0.05248 0.50531 0.0
H672 H 0.60857 0.28091 0.48906 0.0
H673 H 0.6099 0.31803 0.29247 0.0
H674 H 0.61266 0.31539 0.55551 0.0
H675 H 0.6139 0.35192 0.3578 0.0
H676 H 0.61294 0.41286 0.47046 0.0
H677 H 0.62986 0.37805 0.43552 0.0
H678 H 0.58469 0.34275 0.5737 0.0
H679 H 0.56888 0.3776 0.6123 0.0
C680 C 0.61037 0.2963 0.45993 0.0
C681 C 0.60839 0.2967 0.38547 0.0
C682 C 0.6127 0.31604 0.49799 0.0
C683 C 0.61308 0.33651 0.46219 0.0
C684 C 0.61381 0.33656 0.38751 0.0
C685 C 0.61149 0.31692 0.34965 0.0
C686 C 0.60718 0.39777 0.49555 0.0
C687 C 0.58908 0.39797 0.54264 0.0
C688 C 0.61679 0.37775 0.475 0.0
C689 C 0.60828 0.35753 0.50022 0.0
C690 C 0.59173 0.35794 0.55294 0.0
C691 C 0.58233 0.37795 0.57417 0.0
H692 H 0.18373 0.61428 0.26024 0.0
H693 H 0.22181 0.61569 0.45431 0.0
H694 H 0.15038 0.62086 0.32715 0.0
H695 H 0.18784 0.62178 0.5221 0.0
H696 H 0.12404 0.57836 0.57937 0.0
H697 H 0.15941 0.59285 0.53996 0.0
H698 H 0.12601 0.64098 0.40864 0.0
H699 H 0.09037 0.62644 0.44857 0.0
C700 C 0.18523 0.61694 0.3169 0.0
C701 C 0.20551 0.61387 0.35191 0.0
C702 C 0.16592 0.62073 0.35555 0.0
C703 C 0.16639 0.62139 0.43015 0.0
C704 C 0.18695 0.62091 0.46469 0.0
C705 C 0.20637 0.61732 0.42583 0.0
C706 C 0.12417 0.5926 0.54432 0.0
C707 C 0.10441 0.60091 0.51575 0.0
C708 C 0.14452 0.60101 0.52183 0.0
C709 C 0.14552 0.61785 0.47022 0.0
C710 C 0.12574 0.62774 0.44754 0.0
C711 C 0.10536 0.61934 0.4701 0.0
H712 H 0.08128 0.78606 0.94511 0.0
H713 H 0.13903 0.79671 0.07603 0.0
H714 H 0.08795 0.82062 0.8855 0.0
H715 H 0.14498 0.83234 0.01747 0.0
H716 H 0.09616 0.88544 0.79461 0.0
H717 H 0.11016 0.84815 0.8167 0.0
H718 H 0.11891 0.86432 0.03828 0.0
H719 H 0.10459 0.90118 0.01687 0.0
C720 C 0.09599 0.79519 0.95953 0.0
C721 C 0.1092 0.78869 0.01741 0.0
C722 C 0.09979 0.81524 0.92496 0.0
C723 C 0.1167 0.82944 0.94789 0.0
C724 C 0.13156 0.82185 0.99966 0.0
C725 C 0.12799 0.80152 0.03358 0.0
C726 C 0.1015 0.88115 0.84775 0.0
C727 C 0.09868 0.89609 0.90437 0.0
C728 C 0.1097 0.85989 0.86017 0.0
C729 C 0.11536 0.85324 0.92932 0.0
C730 C 0.11488 0.86898 0.98424 0.0
C731 C 0.10656 0.89017 0.97195 0.0
H732 H 0.71629 0.07223 0.96814 0.0
H733 H 0.70137 0.12856 0.10183 0.0
H734 H 0.68166 0.07682 0.90787 0.0
H735 H 0.6658 0.13252 0.0421 0.0
H736 H 0.59809 0.09137 0.03016 0.0
H737 H 0.63454 0.10588 0.05711 0.0
H738 H 0.65411 0.09724 0.83792 0.0
H739 H 0.61739 0.08277 0.81065 0.0
C740 C 0.70615 0.08623 0.98307 0.0
C741 C 0.71159 0.09967 0.04157 0.0
C742 C 0.68606 0.08882 0.94817 0.0
C743 C 0.67077 0.10475 0.97118 0.0
C744 C 0.67713 0.11981 0.02419 0.0
C745 C 0.69746 0.11742 0.05865 0.0
C746 C 0.60986 0.0933 0.98707 0.0
C747 C 0.60501 0.08544 0.91862 0.0
C748 C 0.63078 0.10174 1.00248 0.0
C749 C 0.64731 0.10245 0.94978 0.0
C750 C 0.64179 0.09659 0.8798 0.0
C751 C 0.62084 0.08817 0.86436 0.0
H752 H 0.40103 0.71358 0.96544 0.0
H753 H 0.38553 0.69018 0.1774 0.0
H754 H 0.39693 0.67621 0.9207 0.0
H755 H 0.37901 0.6536 0.13111 0.0
H756 H 0.42162 0.594 0.06437 0.0
H757 H 0.40769 0.62932 0.10299 0.0
H758 H 0.38113 0.64141 0.89333 0.0
H759 H 0.39566 0.60563 0.85406 0.0
C760 C 0.39609 0.7007 1.00232 0.0
C761 C 0.3949 0.70488 0.07586 0.0
C762 C 0.39333 0.67922 0.97624 0.0
C763 C 0.38862 0.66163 0.02297 0.0
C764 C 0.38362 0.66659 0.09417 0.0
C765 C 0.38703 0.68787 0.1206 0.0
C766 C 0.41224 0.60381 0.02687 0.0
C767 C 0.40985 0.59701 0.95604 0.0
C768 C 0.40408 0.62418 0.04918 0.0
C769 C 0.39317 0.63836 1.0014 0.0
C770 C 0.38967 0.63104 0.93135 0.0
C771 C 0.398 0.61058 0.90882 0.0
H772 H 0.79303 0.43157 0.95205 0.0
H773 H 0.80792 0.37357 0.07827 0.0
H774 H 0.82713 0.42708 0.88776 0.0
H775 H 0.84286 0.36948 0.014 0.0
H776 H 0.9124 0.40619 0.99083 0.0
H777 H 0.8756 0.39363 0.02409 0.0
H778 H 0.85257 0.40706 0.81124 0.0
H779 H 0.88952 0.41985 0.7781 0.0
C780 C 0.80307 0.41727 0.96445 0.0
C781 C 0.79773 0.40316 0.02161 0.0
C782 C 0.82284 0.41472 0.92726 0.0
C783 C 0.83791 0.39812 0.94644 0.0
C784 C 0.83172 0.38268 0.99889 0.0
C785 C 0.81174 0.3851 0.03586 0.0
C786 C 0.89969 0.40576 0.95044 0.0
C787 C 0.90371 0.41443 0.8823 0.0
C788 C 0.87856 0.39845 0.96942 0.0
C789 C 0.86107 0.39964 0.92055 0.0
C790 C 0.86563 0.40632 0.8504 0.0
C791 C 0.88674 0.41371 0.83151 0.0
H792 H 0.98106 0.17772 0.91331 0.0
H793 H 0.04975 0.16821 0.96664 0.0
H794 H 0.97939 0.13995 0.8671 0.0
H795 H 0.04823 0.13074 0.91899 0.0
H796 H 0.03087 0.05669 0.90489 0.0
H797 H 0.0324 0.0948 0.94801 0.0
H798 H 0.99205 0.11588 0.77169 0.0
H799 H 0.99072 0.07774 0.7284 0.0
C800 C 0.99585 0.16765 0.91496 0.0
C801 C 0.01555 0.17619 0.9439 0.0
C802 C 0.99494 0.14598 0.88785 0.0
C803 C 0.01364 0.13209 0.88949 0.0
C804 C 0.03339 0.14075 0.91757 0.0
C805 C 0.03434 0.16244 0.94413 0.0
C806 C 0.02239 0.06946 0.87515 0.0
C807 C 0.01082 0.06412 0.81275 0.0
C808 C 0.02338 0.0914 0.89964 0.0
C809 C 0.01254 0.10863 0.86308 0.0
C810 C 1.00064 0.10316 0.80131 0.0
C811 C 0.99999 0.08128 0.77614 0.0
H812 H 0.31656 0.03373 0.82817 0.0
H813 H 0.33603 0.99862 0.01804 0.0
H814 H 0.354 0.03056 0.78196 0.0
H815 H 0.37309 0.99419 0.96981 0.0
H816 H 0.44349 0.01209 0.90469 0.0
H817 H 0.40565 0.01438 0.94835 0.0
H818 H 0.3815 1.00768 0.73355 0.0
H819 H 0.41942 1.00646 0.68997 0.0
C820 C 0.32872 0.02514 0.85997 0.0
C821 C 0.32307 0.01661 0.92739 0.0
C822 C 0.35027 0.02308 0.83291 0.0
C823 C 0.36687 0.01225 0.8721 0.0
C824 C 0.36101 1.00304 0.9384 0.0
C825 C 0.3395 1.00524 0.96568 0.0
C826 C 0.43013 0.01117 0.86665 0.0
C827 C 0.43463 1.00893 0.7936 0.0
C828 C 0.4083 0.01227 0.89185 0.0
C829 C 0.39024 0.01103 0.84485 0.0
C830 C 0.39481 1.00892 0.77166 0.0
C831 C 0.41666 1.00798 0.74648 0.0
H832 H 0.48019 0.31762 0.88202 0.0
H833 H 0.53761 0.33938 0.99799 0.0
H834 H 0.47657 0.3549 0.82975 0.0
H835 H 0.53371 0.37649 0.94754 0.0
H836 H 0.50068 0.445 0.91098 0.0
H837 H 0.50274 0.40735 0.95799 0.0
H838 H 0.50239 0.38133 0.7447 0.0
H839 H 0.50084 0.41921 0.69703 0.0
C840 C 0.49194 0.33037 0.89644 0.0
C841 C 0.50924 0.32559 0.94379 0.0
C842 C 0.48996 0.35162 0.86636 0.0
C843 C 0.50487 0.36859 0.88463 0.0
C844 C 0.52194 0.36379 0.93265 0.0
C845 C 0.52421 0.34254 0.96129 0.0
C846 C 0.50096 0.4313 0.8739 0.0
C847 C 0.50061 0.43516 0.80016 0.0
C848 C 0.5022 0.40973 0.90094 0.0
C849 C 0.50266 0.3914 0.85506 0.0
C850 C 0.50188 0.39515 0.78131 0.0
C851 C 0.50112 0.41682 0.75409 0.0
H852 H 0.17614 0.47253 0.9452 0.0
H853 H 0.18062 0.54189 0.89051 0.0
H854 H 0.13989 0.47063 0.88902 0.0
H855 H 0.14459 0.53987 0.83381 0.0
H856 H 0.08609 0.52437 0.68702 0.0
H857 H 0.12371 0.52481 0.73428 0.0
H858 H 0.10258 0.48383 0.91012 0.0
H859 H 0.06521 0.48315 0.86268 0.0
C860 C 0.16948 0.48739 0.92124 0.0
C861 C 0.18152 0.50736 0.92275 0.0
C862 C 0.14862 0.4863 0.88892 0.0
C863 C 0.13915 0.50512 0.85692 0.0
C864 C 0.1514 0.52494 0.85691 0.0
C865 C 0.1722 0.52606 0.88944 0.0
C866 C 0.08948 0.51537 0.73559 0.0
C867 C 0.07251 0.50374 0.77093 0.0
C868 C 0.11108 0.51572 0.76296 0.0
C869 C 0.11632 0.50432 0.82613 0.0
C870 C 0.09935 0.49253 0.8609 0.0
C871 C 0.07779 0.49229 0.83383 0.0
H872 H 0.02956 0.81648 0.57846 0.0
H873 H 0.98421 0.8367 0.41386 0.0
H874 H 0.02679 0.85279 0.63238 0.0
H875 H 0.97999 0.87245 0.47121 0.0
H876 H 0.99734 0.94294 0.53674 0.0
H877 H 0.99789 0.90588 0.48694 0.0
H878 H 1.00708 0.8786 0.69737 0.0
H879 H 1.00749 0.91595 0.74645 0.0
C880 C 0.01881 0.82856 0.55386 0.0
C881 C 1.0074 0.82348 0.49071 0.0
C882 C 0.01693 0.84945 0.58572 0.0
C883 C 1.0033 0.86597 0.55627 0.0
C884 C 0.99109 0.86053 0.49496 0.0
C885 C 0.9932 0.83971 0.46253 0.0
C886 C 0.99941 0.92903 0.5725 0.0
C887 C 1.00252 0.93252 0.64567 0.0
C888 C 0.99956 0.90761 0.5439 0.0
C889 C 1.00248 0.88889 0.58769 0.0
C890 C 1.00522 0.89243 0.66128 0.0
C891 C 1.00538 0.91393 0.68974 0.0
H892 H 0.65785 0.99192 0.38011 0.0
H893 H 0.68692 1.00058 0.58737 0.0
H894 H 0.62122 0.99072 0.43375 0.0
H895 H 0.65023 0.99901 0.64155 0.0
H896 H 0.57998 0.021 0.70447 0.0
H897 H 0.6172 0.01984 0.65462 0.0
H898 H 0.59606 0.97029 0.50395 0.0
H899 H 0.55876 0.97193 0.55269 0.0
C900 C 0.65649 0.99311 0.43738 0.0
C901 C 0.67545 0.99631 0.47927 0.0
C902 C 0.63538 0.99244 0.46835 0.0
C903 C 0.63255 0.99482 0.5423 0.0
C904 C 0.65159 0.99753 0.58438 0.0
C905 C 0.67271 0.99833 0.5533 0.0
C906 C 0.5833 1.00971 0.66117 0.0
C907 C 0.56627 0.99656 0.63279 0.0
C908 C 0.60475 1.00897 0.63254 0.0
C909 C 0.60984 0.99499 0.57486 0.0
C910 C 0.59283 0.98158 0.54738 0.0
C911 C 0.57137 0.98242 0.5757 0.0
H912 H 0.49604 0.68889 0.59493 0.0
H913 H 0.50448 0.65991 0.38729 0.0
H914 H 0.49785 0.65212 0.64888 0.0
H915 H 0.50541 0.62321 0.44011 0.0
H916 H 0.52437 0.56052 0.55265 0.0
H917 H 0.52541 0.59791 0.50539 0.0
H918 H 0.47892 0.61877 0.66691 0.0
H919 H 0.47887 0.5814 0.71636 0.0
C920 C 0.49827 0.67464 0.5608 0.0
C921 C 0.50032 0.6774 0.48682 0.0
C922 C 0.49914 0.65347 0.59165 0.0
C923 C 0.50178 0.63441 0.54925 0.0
C924 C 0.50389 0.63732 0.47517 0.0
C925 C 0.50332 0.65846 0.44457 0.0
C926 C 0.51438 0.57308 0.57828 0.0
C927 C 0.5014 0.56783 0.63814 0.0
C928 C 0.51485 0.59462 0.55075 0.0
C929 C 0.50206 0.6116 0.58143 0.0
C930 C 0.48924 0.60637 0.642 0.0
C931 C 0.48905 0.58481 0.67025 0.0
H932 H 0.81898 0.50027 0.57164 0.0
H933 H 0.8475 0.50719 0.36218 0.0
H934 H 0.85586 0.50218 0.62377 0.0
H935 H 0.88425 0.50871 0.41374 0.0
H936 H 0.94662 0.52963 0.52714 0.0
H937 H 0.90922 0.53015 0.4802 0.0
H938 H 0.88929 0.48181 0.63748 0.0
H939 H 0.9267 0.48179 0.68554 0.0
C940 C 0.83311 0.5022 0.53666 0.0
C941 C 0.83016 0.50371 0.46262 0.0
C942 C 0.85432 0.50319 0.56655 0.0
C943 C 0.87324 0.50557 0.52324 0.0
C944 C 0.8702 0.5073 0.44924 0.0
C945 C 0.84901 0.50645 0.41947 0.0
C946 C 0.93427 0.51911 0.5519 0.0
C947 C 0.93976 0.50568 0.61036 0.0
C948 C 0.91275 0.51932 0.52464 0.0
C949 C 0.89604 0.50595 0.55454 0.0
C950 C 0.90151 0.49261 0.61349 0.0
C951 C 0.92306 0.49253 0.64109 0.0
loop_
_geom_bond_atom_site_label_1
_geom_bond_atom_site_label_2
_geom_bond_distance
_geom_bond_site_symmetry_2
_ccdc_geom_bond_type
C0 C1 1.386 . S
C0 C2 1.397 . S
C0 H24 0.931 . S
C1 C0 1.386 . S
C1 C5 1.397 . S
C2 C0 1.397 . S
C2 C3 1.384 . S
C2 H25 0.930 . S
C3 C2 1.384 . S
C3 C4 1.377 . S
C3 C6 1.481 . S
C4 C3 1.377 . S
C4 C5 1.389 . S
C4 H26 0.929 . S
C5 C1 1.397 . S
C5 C4 1.389 . S
C5 H27 0.931 . S
C6 C3 1.481 . S
C6 C7 1.387 . S
C6 C11 1.390 . S
C7 C6 1.387 . S
C7 C8 1.401 . S
C7 H28 0.930 . S
C8 C7 1.401 . S
C8 C9 1.376 . S
C8 C17 1.511 . S
C9 C8 1.376 . S
C9 C10 1.392 . S
C9 H30 0.931 . S
C10 C9 1.392 . S
C10 C11 1.361 . S
C10 C12 1.500 . S
C11 C6 1.390 . S
C11 C10 1.361 . S
C11 H29 0.931 . S
C12 C10 1.500 . S
C12 C13 1.371 . S
C12 C14 1.365 . S
C13 C12 1.371 . S
C13 C23 1.386 . S
C13 H31 0.931 . S
C14 C12 1.365 . S
C14 C15 1.409 . S
C14 H32 0.929 . S
C15 C14 1.409 . S
C15 C16 1.380 . S
C15 H33 0.930 . S
C16 C15 1.380 . S
C16 C23 1.357 . S
C17 C8 1.511 . S
C17 C18 1.341 . S
C17 C19 1.371 . S
C18 C17 1.341 . S
C18 C22 1.394 . S
C18 H34 0.930 . S
C19 C17 1.371 . S
C19 C20 1.392 . S
C19 H35 0.931 . S
C20 C19 1.392 . S
C20 C21 1.331 . S
C20 H38 0.932 . S
C21 C20 1.331 . S
C21 C22 1.336 . S
C22 C18 1.394 . S
C22 C21 1.336 . S
C22 H37 0.929 . S
C23 C13 1.386 . S
C23 C16 1.357 . S
C23 H36 0.928 . S
H24 C0 0.931 . S
H25 C2 0.930 . S
H26 C4 0.929 . S
H27 C5 0.931 . S
H28 C7 0.930 . S
H29 C11 0.931 . S
H30 C9 0.931 . S
H31 C13 0.931 . S
H32 C14 0.929 . S
H33 C15 0.930 . S
H34 C18 0.930 . S
H35 C19 0.931 . S
H36 C23 0.928 . S
H37 C22 0.929 . S
H38 C20 0.932 . S
C39 C40 1.394 . S
C39 C41 1.397 . S
C39 H63 0.931 . S
C40 C39 1.394 . S
C40 C44 1.389 1_655 S
C41 C39 1.397 . S
C41 C42 1.389 . S
C41 H64 0.930 . S
C42 C41 1.389 . S
C42 C43 1.373 1_655 S
C42 C45 1.480 . S
C43 C42 1.373 1_455 S
C43 C44 1.389 . S
C43 H65 0.929 . S
C44 C40 1.389 1_455 S
C44 C43 1.389 . S
C44 H66 0.931 . S
C45 C42 1.480 . S
C45 C46 1.388 . S
C45 C50 1.390 . S
C46 C45 1.388 . S
C46 C47 1.402 . S
C46 H67 0.930 . S
C47 C46 1.402 . S
C47 C48 1.376 . S
C47 C56 1.513 . S
C48 C47 1.376 . S
C48 C49 1.392 . S
C48 H69 0.934 . S
C49 C48 1.392 . S
C49 C50 1.361 . S
C49 C51 1.499 1_655 S
C50 C45 1.390 . S
C50 C49 1.361 . S
C50 H68 0.931 . S
C51 C49 1.499 1_455 S
C51 C52 1.362 1_455 S
C51 C53 1.374 . S
C52 C51 1.362 1_655 S
C52 C62 1.386 . S
C52 H70 0.931 . S
C53 C51 1.374 . S
C53 C54 1.409 . S
C53 H71 0.929 . S
C54 C53 1.409 . S
C54 C55 1.379 . S
C54 H72 0.930 . S
C55 C54 1.379 . S
C55 C62 1.359 1_455 S
C56 C47 1.513 . S
C56 C57 1.341 . S
C56 C58 1.371 1_655 S
C57 C56 1.341 . S
C57 C61 1.394 . S
C57 H73 0.930 . S
C58 C56 1.371 1_455 S
C58 C59 1.392 . S
C58 H74 0.931 . S
C59 C58 1.392 . S
C59 C60 1.322 1_455 S
C59 H77 0.932 . S
C60 C59 1.322 1_655 S
C60 C61 1.345 . S
C61 C57 1.394 . S
C61 C60 1.345 . S
C61 H76 0.929 . S
C62 C52 1.386 . S
C62 C55 1.359 1_655 S
C62 H75 0.928 . S
H63 C39 0.931 . S
H64 C41 0.930 . S
H65 C43 0.929 . S
H66 C44 0.931 . S
H67 C46 0.930 . S
H68 C50 0.931 . S
H69 C48 0.934 . S
H70 C52 0.931 . S
H71 C53 0.929 . S
H72 C54 0.930 . S
H73 C57 0.930 . S
H74 C58 0.931 . S
H75 C62 0.928 . S
H76 C61 0.929 . S
H77 C59 0.932 . S
C78 C79 1.394 . S
C78 C80 1.397 . S
C78 H102 0.931 . S
C79 C78 1.394 . S
C79 C83 1.389 1_565 S
C80 C78 1.397 . S
C80 C81 1.389 . S
C80 H103 0.930 . S
C81 C80 1.389 . S
C81 C82 1.373 1_565 S
C81 C84 1.481 . S
C82 C81 1.373 1_545 S
C82 C83 1.389 . S
C82 H104 0.929 . S
C83 C79 1.389 1_545 S
C83 C82 1.389 . S
C83 H105 0.931 . S
C84 C81 1.481 . S
C84 C85 1.388 . S
C84 C89 1.390 . S
C85 C84 1.388 . S
C85 C86 1.402 . S
C85 H106 0.930 . S
C86 C85 1.402 . S
C86 C87 1.376 . S
C86 C95 1.513 . S
C87 C86 1.376 . S
C87 C88 1.391 . S
C87 H108 0.934 . S
C88 C87 1.391 . S
C88 C89 1.361 . S
C88 C90 1.499 1_565 S
C89 C84 1.390 . S
C89 C88 1.361 . S
C89 H107 0.931 . S
C90 C88 1.499 1_545 S
C90 C91 1.362 1_545 S
C90 C92 1.374 . S
C91 C90 1.362 1_565 S
C91 C101 1.386 . S
C91 H109 0.931 . S
C92 C90 1.374 . S
C92 C93 1.409 . S
C92 H110 0.929 . S
C93 C92 1.409 . S
C93 C94 1.379 . S
C93 H111 0.930 . S
C94 C93 1.379 . S
C94 C101 1.359 1_545 S
C95 C86 1.513 . S
C95 C96 1.341 . S
C95 C97 1.371 1_565 S
C96 C95 1.341 . S
C96 C100 1.394 . S
C96 H112 0.930 . S
C97 C95 1.371 1_545 S
C97 C98 1.392 . S
C97 H113 0.931 . S
C98 C97 1.392 . S
C98 C99 1.322 1_545 S
C98 H116 0.932 . S
C99 C98 1.322 1_565 S
C99 C100 1.345 . S
C100 C96 1.394 . S
C100 C99 1.345 . S
C100 H115 0.929 . S
C101 C91 1.386 . S
C101 C94 1.359 1_565 S
C101 H114 0.928 . S
H102 C78 0.931 . S
H103 C80 0.930 . S
H104 C82 0.929 . S
H105 C83 0.931 . S
H106 C85 0.930 . S
H107 C89 0.931 . S
H108 C87 0.934 . S
H109 C91 0.931 . S
H110 C92 0.929 . S
H111 C93 0.930 . S
H112 C96 0.930 . S
H113 C97 0.931 . S
H114 C101 0.928 . S
H115 C100 0.929 . S
H116 C98 0.932 . S
C117 C118 1.386 . S
C117 C119 1.397 . S
C117 H141 0.931 . S
C118 C117 1.386 . S
C118 C122 1.397 . S
C119 C117 1.397 . S
C119 C120 1.384 . S
C119 H142 0.930 . S
C120 C119 1.384 . S
C120 C121 1.377 . S
C120 C123 1.481 . S
C121 C120 1.377 . S
C121 C122 1.389 . S
C121 H143 0.929 . S
C122 C118 1.397 . S
C122 C121 1.389 . S
C122 H144 0.931 . S
C123 C120 1.481 . S
C123 C124 1.387 . S
C123 C128 1.390 . S
C124 C123 1.387 . S
C124 C125 1.401 . S
C124 H145 0.930 . S
C125 C124 1.401 . S
C125 C126 1.376 . S
C125 C134 1.511 . S
C126 C125 1.376 . S
C126 C127 1.392 . S
C126 H147 0.931 . S
C127 C126 1.392 . S
C127 C128 1.361 . S
C127 C129 1.500 . S
C128 C123 1.390 . S
C128 C127 1.361 . S
C128 H146 0.931 . S
C129 C127 1.500 . S
C129 C130 1.371 . S
C129 C131 1.365 . S
C130 C129 1.371 . S
C130 C140 1.386 . S
C130 H148 0.931 . S
C131 C129 1.365 . S
C131 C132 1.409 . S
C131 H149 0.929 . S
C132 C131 1.409 . S
C132 C133 1.380 . S
C132 H150 0.930 . S
C133 C132 1.380 . S
C133 C140 1.357 . S
C134 C125 1.511 . S
C134 C135 1.341 . S
C134 C136 1.371 . S
C135 C134 1.341 . S
C135 C139 1.394 . S
C135 H151 0.930 . S
C136 C134 1.371 . S
C136 C137 1.392 . S
C136 H152 0.931 . S
C137 C136 1.392 . S
C137 C138 1.331 . S
C137 H155 0.932 . S
C138 C137 1.331 . S
C138 C139 1.336 . S
C139 C135 1.394 . S
C139 C138 1.336 . S
C139 H154 0.929 . S
C140 C130 1.386 . S
C140 C133 1.357 . S
C140 H153 0.928 . S
H141 C117 0.931 . S
H142 C119 0.930 . S
H143 C121 0.929 . S
H144 C122 0.931 . S
H145 C124 0.930 . S
H146 C128 0.931 . S
H147 C126 0.931 . S
H148 C130 0.931 . S
H149 C131 0.929 . S
H150 C132 0.930 . S
H151 C135 0.930 . S
H152 C136 0.931 . S
H153 C140 0.928 . S
H154 C139 0.929 . S
H155 C137 0.932 . S
C156 C157 1.386 . S
C156 C158 1.397 . S
C156 H180 0.931 . S
C157 C156 1.386 . S
C157 C161 1.397 . S
C158 C156 1.397 . S
C158 C159 1.384 . S
C158 H181 0.930 . S
C159 C158 1.384 . S
C159 C160 1.377 . S
C159 C162 1.481 . S
C160 C159 1.377 . S
C160 C161 1.389 . S
C160 H182 0.929 . S
C161 C157 1.397 . S
C161 C160 1.389 . S
C161 H183 0.931 . S
C162 C159 1.481 . S
C162 C163 1.387 . S
C162 C167 1.390 . S
C163 C162 1.387 . S
C163 C164 1.401 . S
C163 H184 0.930 . S
C164 C163 1.401 . S
C164 C165 1.364 1_554 S
C164 C173 1.511 . S
C165 C164 1.364 1_556 S
C165 C166 1.395 . S
C165 H186 0.941 . S
C166 C165 1.395 . S
C166 C167 1.361 1_556 S
C166 C168 1.500 . S
C167 C162 1.390 . S
C167 C166 1.361 1_554 S
C167 H185 0.931 . S
C168 C166 1.500 . S
C168 C169 1.371 . S
C168 C170 1.365 . S
C169 C168 1.371 . S
C169 C179 1.386 . S
C169 H187 0.931 . S
C170 C168 1.365 . S
C170 C171 1.409 . S
C170 H188 0.929 . S
C171 C170 1.409 . S
C171 C172 1.380 . S
C171 H189 0.930 . S
C172 C171 1.380 . S
C172 C179 1.357 . S
C173 C164 1.511 . S
C173 C174 1.341 . S
C173 C175 1.371 . S
C174 C173 1.341 . S
C174 C178 1.394 . S
C174 H190 0.930 . S
C175 C173 1.371 . S
C175 C176 1.392 . S
C175 H191 0.931 1_554 S
C176 C175 1.392 . S
C176 C177 1.331 . S
C176 H194 0.932 . S
C177 C176 1.331 . S
C177 C178 1.336 . S
C178 C174 1.394 . S
C178 C177 1.336 . S
C178 H193 0.929 . S
C179 C169 1.386 . S
C179 C172 1.357 . S
C179 H192 0.928 . S
H180 C156 0.931 . S
H181 C158 0.930 . S
H182 C160 0.929 . S
H183 C161 0.931 . S
H184 C163 0.930 . S
H185 C167 0.931 . S
H186 C165 0.941 . S
H187 C169 0.931 . S
H188 C170 0.929 . S
H189 C171 0.930 . S
H190 C174 0.930 . S
H191 C175 0.931 1_556 S
H192 C179 0.928 . S
H193 C178 0.929 . S
H194 C176 0.932 . S
C195 C196 1.387 . S
C195 C197 1.397 . S
C195 H219 0.931 . S
C196 C195 1.387 . S
C196 C200 1.396 1_655 S
C197 C195 1.397 . S
C197 C198 1.381 . S
C197 H220 0.930 . S
C198 C197 1.381 . S
C198 C199 1.380 1_655 S
C198 C201 1.480 . S
C199 C198 1.380 1_455 S
C199 C200 1.389 . S
C199 H221 0.929 . S
C200 C196 1.396 1_455 S
C200 C199 1.389 . S
C200 H222 0.931 . S
C201 C198 1.480 . S
C201 C202 1.388 . S
C201 C206 1.390 . S
C202 C201 1.388 . S
C202 C203 1.402 . S
C202 H223 0.930 . S
C203 C202 1.402 . S
C203 C204 1.376 . S
C203 C212 1.512 . S
C204 C203 1.376 . S
C204 C205 1.392 1_654 S
C204 H225 0.933 1_554 S
C205 C204 1.392 1_456 S
C205 C206 1.361 1_456 S
C205 C207 1.499 . S
C206 C201 1.390 . S
C206 C205 1.361 1_654 S
C206 H224 0.931 . S
C207 C205 1.499 . S
C207 C208 1.357 1_455 S
C207 C209 1.380 . S
C208 C207 1.357 1_655 S
C208 C218 1.386 . S
C208 H226 0.931 . S
C209 C207 1.380 . S
C209 C210 1.409 . S
C209 H227 0.929 . S
C210 C209 1.409 . S
C210 C211 1.384 . S
C210 H228 0.930 . S
C211 C210 1.384 . S
C211 C218 1.353 1_455 S
C212 C203 1.512 . S
C212 C213 1.341 . S
C212 C214 1.371 1_655 S
C213 C212 1.341 . S
C213 C217 1.394 . S
C213 H229 0.930 . S
C214 C212 1.371 1_455 S
C214 C215 1.392 . S
C214 H230 0.931 1_554 S
C215 C214 1.392 . S
C215 C216 1.326 1_455 S
C215 H233 0.932 . S
C216 C215 1.326 1_655 S
C216 C217 1.341 . S
C217 C213 1.394 . S
C217 C216 1.341 . S
C217 H232 0.929 . S
C218 C208 1.386 . S
C218 C211 1.353 1_655 S
C218 H231 0.928 . S
H219 C195 0.931 . S
H220 C197 0.930 . S
H221 C199 0.929 . S
H222 C200 0.931 . S
H223 C202 0.930 . S
H224 C206 0.931 . S
H225 C204 0.933 1_556 S
H226 C208 0.931 . S
H227 C209 0.929 . S
H228 C210 0.930 . S
H229 C213 0.930 . S
H230 C214 0.931 1_556 S
H231 C218 0.928 . S
H232 C217 0.929 . S
H233 C215 0.932 . S
C234 C235 1.387 . S
C234 C236 1.397 . S
C234 H258 0.931 . S
C235 C234 1.387 . S
C235 C239 1.396 1_565 S
C236 C234 1.397 . S
C236 C237 1.381 . S
C236 H259 0.930 . S
C237 C236 1.381 . S
C237 C238 1.380 1_565 S
C237 C240 1.480 . S
C238 C237 1.380 1_545 S
C238 C239 1.389 . S
C238 H260 0.929 . S
C239 C235 1.396 1_545 S
C239 C238 1.389 . S
C239 H261 0.931 . S
C240 C237 1.480 . S
C240 C241 1.388 . S
C240 C245 1.390 . S
C241 C240 1.388 . S
C241 C242 1.402 . S
C241 H262 0.930 . S
C242 C241 1.402 . S
C242 C243 1.377 . S
C242 C251 1.512 . S
C243 C242 1.377 . S
C243 C244 1.391 1_564 S
C243 H264 0.932 1_554 S
C244 C243 1.391 1_546 S
C244 C245 1.361 1_546 S
C244 C246 1.499 . S
C245 C240 1.390 . S
C245 C244 1.361 1_564 S
C245 H263 0.931 . S
C246 C244 1.499 . S
C246 C247 1.357 1_545 S
C246 C248 1.380 . S
C247 C246 1.357 1_565 S
C247 C257 1.386 . S
C247 H265 0.931 . S
C248 C246 1.380 . S
C248 C249 1.409 . S
C248 H266 0.929 . S
C249 C248 1.409 . S
C249 C250 1.384 . S
C249 H267 0.930 . S
C250 C249 1.384 . S
C250 C257 1.353 1_545 S
C251 C242 1.512 . S
C251 C252 1.341 . S
C251 C253 1.371 1_565 S
C252 C251 1.341 . S
C252 C256 1.394 . S
C252 H268 0.930 . S
C253 C251 1.371 1_545 S
C253 C254 1.392 . S
C253 H269 0.931 1_554 S
C254 C253 1.392 . S
C254 C255 1.326 1_545 S
C254 H272 0.932 . S
C255 C254 1.326 1_565 S
C255 C256 1.341 . S
C256 C252 1.394 . S
C256 C255 1.341 . S
C256 H271 0.929 . S
C257 C247 1.386 . S
C257 C250 1.353 1_565 S
C257 H270 0.928 . S
H258 C234 0.931 . S
H259 C236 0.930 . S
H260 C238 0.929 . S
H261 C239 0.931 . S
H262 C241 0.930 . S
H263 C245 0.931 . S
H264 C243 0.932 1_556 S
H265 C247 0.931 . S
H266 C248 0.929 . S
H267 C249 0.930 . S
H268 C252 0.930 . S
H269 C253 0.931 1_556 S
H270 C257 0.928 . S
H271 C256 0.929 . S
H272 C254 0.932 . S
C273 C274 1.386 . S
C273 C275 1.397 . S
C273 H297 0.931 . S
C274 C273 1.386 . S
C274 C278 1.397 . S
C275 C273 1.397 . S
C275 C276 1.384 . S
C275 H298 0.930 . S
C276 C275 1.384 . S
C276 C277 1.377 . S
C276 C279 1.481 . S
C277 C276 1.377 . S
C277 C278 1.389 . S
C277 H299 0.929 . S
C278 C274 1.397 . S
C278 C277 1.389 . S
C278 H300 0.931 . S
C279 C276 1.481 . S
C279 C280 1.387 . S
C279 C284 1.390 1_556 S
C280 C279 1.387 . S
C280 C281 1.402 1_556 S
C280 H301 0.929 . S
C281 C280 1.402 1_554 S
C281 C282 1.376 . S
C281 C290 1.511 . S
C282 C281 1.376 . S
C282 C283 1.392 . S
C282 H303 0.931 . S
C283 C282 1.392 . S
C283 C284 1.361 . S
C283 C285 1.500 . S
C284 C279 1.390 1_554 S
C284 C283 1.361 . S
C284 H302 0.931 . S
C285 C283 1.500 . S
C285 C286 1.371 . S
C285 C287 1.365 . S
C286 C285 1.371 . S
C286 C296 1.386 . S
C286 H304 0.931 . S
C287 C285 1.365 . S
C287 C288 1.409 . S
C287 H305 0.929 . S
C288 C287 1.409 . S
C288 C289 1.380 . S
C288 H306 0.930 . S
C289 C288 1.380 . S
C289 C296 1.357 . S
C290 C281 1.511 . S
C290 C291 1.341 . S
C290 C292 1.371 . S
C291 C290 1.341 . S
C291 C295 1.394 . S
C291 H307 0.930 1_554 S
C292 C290 1.371 . S
C292 C293 1.392 . S
C292 H308 0.931 . S
C293 C292 1.392 . S
C293 C294 1.331 . S
C293 H311 0.932 . S
C294 C293 1.331 . S
C294 C295 1.336 . S
C295 C291 1.394 . S
C295 C294 1.336 . S
C295 H310 0.929 . S
C296 C286 1.386 . S
C296 C289 1.357 . S
C296 H309 0.928 . S
H297 C273 0.931 . S
H298 C275 0.930 . S
H299 C277 0.929 . S
H300 C278 0.931 . S
H301 C280 0.929 . S
H302 C284 0.931 . S
H303 C282 0.931 . S
H304 C286 0.931 . S
H305 C287 0.929 . S
H306 C288 0.930 . S
H307 C291 0.930 1_556 S
H308 C292 0.931 . S
H309 C296 0.928 . S
H310 C295 0.929 . S
H311 C293 0.932 . S
Tb312 C314 2.809 . S
Tb312 O332 2.484 . S
Tb312 O333 2.440 . S
Tb312 O334 2.658 1_565 S
Tb312 O335 2.409 . S
Tb312 O336 2.378 . S
Tb312 O340 2.325 1_455 S
Tb312 O343 2.341 1_565 S
Tb313 C323 2.809 . S
Tb313 O334 2.325 1_655 S
Tb313 O337 2.341 1_545 S
Tb313 O338 2.484 . S
Tb313 O339 2.440 . S
Tb313 O340 2.658 1_545 S
Tb313 O341 2.409 . S
Tb313 O342 2.378 . S
C314 Tb312 2.809 . S
C314 C315 1.514 . S
C314 O332 1.248 . S
C314 O333 1.266 . S
C315 C314 1.514 . S
C315 C316 1.359 . S
C315 C320 1.348 . S
C316 C315 1.359 . S
C316 C317 1.380 . S
C316 H344 0.929 1_455 S
C317 C316 1.380 . S
C317 C318 1.347 . S
C317 H345 0.931 1_455 S
C318 C317 1.347 . S
C318 C319 1.369 . S
C319 C318 1.369 . S
C319 C320 1.408 . S
C319 H346 0.930 . S
C320 C315 1.348 . S
C320 C319 1.408 . S
C320 H347 0.930 . S
C321 O334 1.281 1_565 S
C321 O335 1.254 . S
C322 O336 1.236 1_655 S
C322 O337 1.266 . S
C323 Tb313 2.809 . S
C323 C324 1.514 . S
C323 O338 1.248 . S
C323 O339 1.266 . S
C324 C323 1.514 . S
C324 C325 1.359 . S
C324 C329 1.348 . S
C325 C324 1.359 . S
C325 C326 1.380 . S
C325 H348 0.929 1_655 S
C326 C325 1.380 . S
C326 C327 1.347 . S
C326 H349 0.931 1_655 S
C327 C326 1.347 . S
C327 C328 1.369 . S
C328 C327 1.369 . S
C328 C329 1.408 . S
C328 H350 0.930 . S
C329 C324 1.348 . S
C329 C328 1.408 . S
C329 H351 0.930 . S
C330 O340 1.281 1_545 S
C330 O341 1.254 . S
C331 O342 1.236 1_455 S
C331 O343 1.266 . S
O332 Tb312 2.484 . S
O332 C314 1.248 . S
O333 Tb312 2.440 . S
O333 C314 1.266 . S
O334 Tb312 2.658 1_545 S
O334 Tb313 2.325 1_455 S
O334 C321 1.281 1_545 S
O335 Tb312 2.409 . S
O335 C321 1.254 . S
O336 Tb312 2.378 . S
O336 C322 1.236 1_455 S
O337 Tb313 2.341 1_565 S
O337 C322 1.266 . S
O338 Tb313 2.484 . S
O338 C323 1.248 . S
O339 Tb313 2.440 . S
O339 C323 1.266 . S
O340 Tb312 2.325 1_655 S
O340 Tb313 2.658 1_565 S
O340 C330 1.281 1_565 S
O341 Tb313 2.409 . S
O341 C330 1.254 . S
O342 Tb313 2.378 . S
O342 C331 1.236 1_655 S
O343 Tb312 2.341 1_545 S
O343 C331 1.266 . S
H344 C316 0.929 1_655 S
H345 C317 0.931 1_655 S
H346 C319 0.930 . S
H347 C320 0.930 . S
H348 C325 0.929 1_455 S
H349 C326 0.931 1_455 S
H350 C328 0.930 . S
H351 C329 0.930 . S
Tb352 C354 2.809 . S
Tb352 O372 2.484 . S
Tb352 O373 2.440 . S
Tb352 O374 2.658 . S
Tb352 O375 2.409 . S
Tb352 O376 2.378 . S
Tb352 O380 2.325 1_545 S
Tb352 O383 2.341 . S
Tb353 C363 2.809 . S
Tb353 O374 2.325 1_565 S
Tb353 O377 2.341 . S
Tb353 O378 2.484 . S
Tb353 O379 2.440 . S
Tb353 O380 2.658 . S
Tb353 O381 2.409 . S
Tb353 O382 2.378 . S
C354 Tb352 2.809 . S
C354 C355 1.514 . S
C354 O372 1.248 . S
C354 O373 1.266 . S
C355 C354 1.514 . S
C355 C356 1.359 . S
C355 C360 1.348 . S
C356 C355 1.359 . S
C356 C357 1.380 . S
C356 H384 0.929 1_545 S
C357 C356 1.380 . S
C357 C358 1.347 . S
C357 H385 0.931 1_545 S
C358 C357 1.347 . S
C358 C359 1.369 . S
C359 C358 1.369 . S
C359 C360 1.408 . S
C359 H386 0.930 . S
C360 C355 1.348 . S
C360 C359 1.408 . S
C360 H387 0.930 . S
C361 O374 1.281 . S
C361 O375 1.254 . S
C362 O376 1.236 1_565 S
C362 O377 1.266 . S
C363 Tb353 2.809 . S
C363 C364 1.514 . S
C363 O378 1.248 . S
C363 O379 1.266 . S
C364 C363 1.514 . S
C364 C365 1.359 . S
C364 C369 1.348 . S
C365 C364 1.359 . S
C365 C366 1.380 . S
C365 H388 0.929 1_565 S
C366 C365 1.380 . S
C366 C367 1.347 . S
C366 H389 0.931 1_565 S
C367 C366 1.347 . S
C367 C368 1.369 . S
C368 C367 1.369 . S
C368 C369 1.408 . S
C368 H390 0.930 . S
C369 C364 1.348 . S
C369 C368 1.408 . S
C369 H391 0.930 . S
C370 O380 1.281 . S
C370 O381 1.254 . S
C371 O382 1.236 1_545 S
C371 O383 1.266 . S
O372 Tb352 2.484 . S
O372 C354 1.248 . S
O373 Tb352 2.440 . S
O373 C354 1.266 . S
O374 Tb352 2.658 . S
O374 Tb353 2.325 1_545 S
O374 C361 1.281 . S
O375 Tb352 2.409 . S
O375 C361 1.254 . S
O376 Tb352 2.378 . S
O376 C362 1.236 1_545 S
O377 Tb353 2.341 . S
O377 C362 1.266 . S
O378 Tb353 2.484 . S
O378 C363 1.248 . S
O379 Tb353 2.440 . S
O379 C363 1.266 . S
O380 Tb352 2.325 1_565 S
O380 Tb353 2.658 . S
O380 C370 1.281 . S
O381 Tb353 2.409 . S
O381 C370 1.254 . S
O382 Tb353 2.378 . S
O382 C371 1.236 1_565 S
O383 Tb352 2.341 . S
O383 C371 1.266 . S
H384 C356 0.929 1_565 S
H385 C357 0.931 1_565 S
H386 C359 0.930 . S
H387 C360 0.930 . S
H388 C365 0.929 1_545 S
H389 C366 0.931 1_545 S
H390 C368 0.930 . S
H391 C369 0.930 . S
Tb392 C394 2.809 . S
Tb392 O412 2.484 . S
Tb392 O413 2.440 . S
Tb392 O414 2.658 . S
Tb392 O415 2.409 . S
Tb392 O416 2.378 . S
Tb392 O420 2.325 . S
Tb392 O423 2.341 . S
Tb393 C403 2.809 . S
Tb393 O414 2.325 . S
Tb393 O417 2.341 . S
Tb393 O418 2.484 . S
Tb393 O419 2.440 . S
Tb393 O420 2.658 . S
Tb393 O421 2.409 . S
Tb393 O422 2.378 . S
C394 Tb392 2.809 . S
C394 C395 1.514 . S
C394 O412 1.248 . S
C394 O413 1.266 . S
C395 C394 1.514 . S
C395 C396 1.359 . S
C395 C400 1.348 . S
C396 C395 1.359 . S
C396 C397 1.380 . S
C396 H424 0.929 . S
C397 C396 1.380 . S
C397 C398 1.347 . S
C397 H425 0.931 . S
C398 C397 1.347 . S
C398 C399 1.369 . S
C399 C398 1.369 . S
C399 C400 1.408 . S
C399 H426 0.930 . S
C400 C395 1.348 . S
C400 C399 1.408 . S
C400 H427 0.930 . S
C401 O414 1.281 . S
C401 O415 1.254 . S
C402 O416 1.236 . S
C402 O417 1.266 . S
C403 Tb393 2.809 . S
C403 C404 1.514 . S
C403 O418 1.248 . S
C403 O419 1.266 . S
C404 C403 1.514 . S
C404 C405 1.359 . S
C404 C409 1.348 . S
C405 C404 1.359 . S
C405 C406 1.380 . S
C405 H428 0.929 . S
C406 C405 1.380 . S
C406 C407 1.347 . S
C406 H429 0.931 . S
C407 C406 1.347 . S
C407 C408 1.369 . S
C408 C407 1.369 . S
C408 C409 1.408 . S
C408 H430 0.930 . S
C409 C404 1.348 . S
C409 C408 1.408 . S
C409 H431 0.930 . S
C410 O420 1.281 . S
C410 O421 1.254 . S
C411 O422 1.236 . S
C411 O423 1.266 . S
O412 Tb392 2.484 . S
O412 C394 1.248 . S
O413 Tb392 2.440 . S
O413 C394 1.266 . S
O414 Tb392 2.658 . S
O414 Tb393 2.325 . S
O414 C401 1.281 . S
O415 Tb392 2.409 . S
O415 C401 1.254 . S
O416 Tb392 2.378 . S
O416 C402 1.236 . S
O417 Tb393 2.341 . S
O417 C402 1.266 . S
O418 Tb393 2.484 . S
O418 C403 1.248 . S
O419 Tb393 2.440 . S
O419 C403 1.266 . S
O420 Tb392 2.325 . S
O420 Tb393 2.658 . S
O420 C410 1.281 . S
O421 Tb393 2.409 . S
O421 C410 1.254 . S
O422 Tb393 2.378 . S
O422 C411 1.236 . S
O423 Tb392 2.341 . S
O423 C411 1.266 . S
H424 C396 0.929 . S
H425 C397 0.931 . S
H426 C399 0.930 . S
H427 C400 0.930 . S
H428 C405 0.929 . S
H429 C406 0.931 . S
H430 C408 0.930 . S
H431 C409 0.930 . S
Tb432 C434 2.809 . S
Tb432 O452 2.484 . S
Tb432 O453 2.440 . S
Tb432 O454 2.658 1_655 S
Tb432 O455 2.409 . S
Tb432 O456 2.378 . S
Tb432 O460 2.325 . S
Tb432 O463 2.341 1_655 S
Tb433 C443 2.809 . S
Tb433 O454 2.325 . S
Tb433 O457 2.341 1_455 S
Tb433 O458 2.484 . S
Tb433 O459 2.440 . S
Tb433 O460 2.658 1_455 S
Tb433 O461 2.409 . S
Tb433 O462 2.378 . S
C434 Tb432 2.809 . S
C434 C435 1.514 . S
C434 O452 1.248 . S
C434 O453 1.266 . S
C435 C434 1.514 . S
C435 C436 1.359 . S
C435 C440 1.348 . S
C436 C435 1.359 . S
C436 C437 1.380 . S
C436 H464 0.929 . S
C437 C436 1.380 . S
C437 C438 1.347 . S
C437 H465 0.931 . S
C438 C437 1.347 . S
C438 C439 1.369 . S
C439 C438 1.369 . S
C439 C440 1.408 . S
C439 H466 0.930 . S
C440 C435 1.348 . S
C440 C439 1.408 . S
C440 H467 0.930 . S
C441 O454 1.275 1_655 S
C441 O455 1.261 . S
C442 O456 1.236 . S
C442 O457 1.266 . S
C443 Tb433 2.809 . S
C443 C444 1.514 . S
C443 O458 1.248 . S
C443 O459 1.266 . S
C444 C443 1.514 . S
C444 C445 1.359 . S
C444 C449 1.348 . S
C445 C444 1.359 . S
C445 C446 1.380 . S
C445 H468 0.929 . S
C446 C445 1.380 . S
C446 C447 1.347 . S
C446 H469 0.931 . S
C447 C446 1.347 . S
C447 C448 1.369 . S
C448 C447 1.369 . S
C448 C449 1.408 . S
C448 H470 0.930 . S
C449 C444 1.348 . S
C449 C448 1.408 . S
C449 H471 0.930 . S
C450 O460 1.272 1_455 S
C450 O461 1.267 . S
C451 O462 1.236 . S
C451 O463 1.266 . S
O452 Tb432 2.484 . S
O452 C434 1.248 . S
O453 Tb432 2.440 . S
O453 C434 1.266 . S
O454 Tb432 2.658 1_455 S
O454 Tb433 2.325 . S
O454 C441 1.275 1_455 S
O455 Tb432 2.409 . S
O455 C441 1.261 . S
O456 Tb432 2.378 . S
O456 C442 1.236 . S
O457 Tb433 2.341 1_655 S
O457 C442 1.266 . S
O458 Tb433 2.484 . S
O458 C443 1.248 . S
O459 Tb433 2.440 . S
O459 C443 1.266 . S
O460 Tb432 2.325 . S
O460 Tb433 2.658 1_655 S
O460 C450 1.272 1_655 S
O461 Tb433 2.409 . S
O461 C450 1.267 . S
O462 Tb433 2.378 . S
O462 C451 1.236 . S
O463 Tb432 2.341 1_455 S
O463 C451 1.266 . S
H464 C436 0.929 . S
H465 C437 0.931 . S
H466 C439 0.930 . S
H467 C440 0.930 . S
H468 C445 0.929 . S
H469 C446 0.931 . S
H470 C448 0.930 . S
H471 C449 0.930 . S
H472 C480 0.950 . S
H473 C485 0.950 . S
H474 C482 0.950 . S
H475 C484 0.950 . S
H476 C486 0.950 . S
H477 C488 0.950 . S
H478 C490 0.950 . S
H479 C491 0.950 . S
C480 H472 0.950 . S
C480 C481 1.370 1_565 S
C480 C482 1.391 . S
C481 C480 1.370 1_545 S
C481 C485 1.411 . S
C482 H474 0.950 . S
C482 C480 1.391 . S
C482 C483 1.390 1_565 S
C483 C482 1.390 1_545 S
C483 C484 1.410 . S
C483 C489 1.490 1_545 S
C484 H475 0.950 . S
C484 C483 1.410 . S
C484 C485 1.391 . S
C485 H473 0.950 . S
C485 C481 1.411 . S
C485 C484 1.391 . S
C486 H476 0.950 . S
C486 C487 1.379 1_545 S
C486 C488 1.391 . S
C487 C486 1.379 1_565 S
C487 C491 1.400 . S
C488 H477 0.950 . S
C488 C486 1.391 . S
C488 C489 1.400 1_545 S
C489 C483 1.490 1_565 S
C489 C488 1.400 1_565 S
C489 C490 1.399 . S
C490 H478 0.950 . S
C490 C489 1.399 . S
C490 C491 1.391 . S
C491 H479 0.950 . S
C491 C487 1.400 . S
C491 C490 1.391 . S
H492 C500 0.950 . S
H493 C505 0.950 . S
H494 C502 0.950 . S
H495 C504 0.950 . S
H496 C506 0.950 . S
H497 C508 0.950 . S
H498 C510 0.950 . S
H499 C511 0.950 . S
C500 H492 0.950 . S
C500 C501 1.386 . S
C500 C502 1.391 . S
C501 C500 1.386 . S
C501 C505 1.393 . S
C502 H494 0.950 . S
C502 C500 1.391 . S
C502 C503 1.400 . S
C503 C502 1.400 . S
C503 C504 1.398 . S
C503 C509 1.491 . S
C504 H495 0.950 . S
C504 C503 1.398 . S
C504 C505 1.391 . S
C505 H493 0.950 . S
C505 C501 1.393 . S
C505 C504 1.391 . S
C506 H496 0.950 . S
C506 C507 1.386 . S
C506 C508 1.391 . S
C507 C506 1.386 . S
C507 C511 1.393 . S
C508 H497 0.950 . S
C508 C506 1.391 . S
C508 C509 1.400 . S
C509 C503 1.491 . S
C509 C508 1.400 . S
C509 C510 1.398 . S
C510 H498 0.950 . S
C510 C509 1.398 . S
C510 C511 1.391 . S
C511 H499 0.950 . S
C511 C507 1.393 . S
C511 C510 1.391 . S
H512 C520 0.950 . S
H513 C525 0.950 . S
H514 C522 0.950 . S
H515 C524 0.950 . S
H516 C526 0.950 . S
H517 C528 0.950 . S
H518 C530 0.950 . S
H519 C531 0.950 . S
C520 H512 0.950 . S
C520 C521 1.386 . S
C520 C522 1.391 . S
C521 C520 1.386 . S
C521 C525 1.393 . S
C522 H514 0.950 . S
C522 C520 1.391 . S
C522 C523 1.400 . S
C523 C522 1.400 . S
C523 C524 1.398 . S
C523 C529 1.491 . S
C524 H515 0.950 . S
C524 C523 1.398 . S
C524 C525 1.391 . S
C525 H513 0.950 . S
C525 C521 1.393 . S
C525 C524 1.391 . S
C526 H516 0.950 . S
C526 C527 1.386 . S
C526 C528 1.391 . S
C527 C526 1.386 . S
C527 C531 1.393 . S
C528 H517 0.950 . S
C528 C526 1.391 . S
C528 C529 1.400 . S
C529 C523 1.491 . S
C529 C528 1.400 . S
C529 C530 1.398 . S
C530 H518 0.950 . S
C530 C529 1.398 . S
C530 C531 1.391 . S
C531 H519 0.950 . S
C531 C527 1.393 . S
C531 C530 1.391 . S
H532 C540 0.950 . S
H533 C545 0.950 . S
H534 C542 0.950 . S
H535 C544 0.950 . S
H536 C546 0.950 . S
H537 C548 0.950 . S
H538 C550 0.950 . S
H539 C551 0.950 . S
C540 H532 0.950 . S
C540 C541 1.405 . S
C540 C542 1.391 . S
C541 C540 1.405 . S
C541 C545 1.374 1_455 S
C542 H534 0.950 . S
C542 C540 1.391 . S
C542 C543 1.429 . S
C543 C542 1.429 . S
C543 C544 1.370 1_455 S
C543 C549 1.491 . S
C544 H535 0.950 . S
C544 C543 1.370 1_655 S
C544 C545 1.391 . S
C545 H533 0.950 . S
C545 C541 1.374 1_655 S
C545 C544 1.391 . S
C546 H536 0.950 . S
C546 C547 1.351 1_655 S
C546 C548 1.391 . S
C547 C546 1.351 1_455 S
C547 C551 1.427 . S
C548 H537 0.950 . S
C548 C546 1.391 . S
C548 C549 1.376 1_655 S
C549 C543 1.491 . S
C549 C548 1.376 1_455 S
C549 C550 1.422 . S
C550 H538 0.950 . S
C550 C549 1.422 . S
C550 C551 1.391 . S
C551 H539 0.950 . S
C551 C547 1.427 . S
C551 C550 1.391 . S
H552 C560 0.950 . S
H553 C565 0.950 . S
H554 C562 0.950 . S
H555 C564 0.950 . S
H556 C566 0.950 . S
H557 C568 0.950 . S
H558 C570 0.950 1_554 S
H559 C571 0.950 . S
C560 H552 0.950 . S
C560 C561 1.399 . S
C560 C562 1.391 . S
C561 C560 1.399 . S
C561 C565 1.380 1_565 S
C562 H554 0.950 . S
C562 C560 1.391 . S
C562 C563 1.407 . S
C563 C562 1.407 . S
C563 C564 1.392 1_565 S
C563 C569 1.490 1_565 S
C564 H555 0.950 . S
C564 C563 1.392 1_545 S
C564 C565 1.391 . S
C565 H553 0.950 . S
C565 C561 1.380 1_545 S
C565 C564 1.391 . S
C566 H556 0.950 . S
C566 C567 1.397 . S
C566 C568 1.391 . S
C567 C566 1.397 . S
C567 C571 1.383 1_545 S
C568 H557 0.950 . S
C568 C566 1.391 . S
C568 C569 1.405 1_556 S
C569 C563 1.490 1_545 S
C569 C568 1.405 1_554 S
C569 C570 1.394 1_544 S
C570 H558 0.950 1_556 S
C570 C569 1.394 1_566 S
C570 C571 1.391 . S
C571 H559 0.950 . S
C571 C567 1.383 1_565 S
C571 C570 1.391 . S
H572 C580 0.950 . S
H573 C585 0.950 . S
H574 C582 0.950 . S
H575 C584 0.950 . S
H576 C586 0.950 . S
H577 C588 0.950 1_554 S
H578 C590 0.950 . S
H579 C591 0.950 . S
C580 H572 0.950 . S
C580 C581 1.386 . S
C580 C582 1.391 . S
C581 C580 1.386 . S
C581 C585 1.393 . S
C582 H574 0.950 . S
C582 C580 1.391 . S
C582 C583 1.400 . S
C583 C582 1.400 . S
C583 C584 1.398 . S
C583 C589 1.491 . S
C584 H575 0.950 . S
C584 C583 1.398 . S
C584 C585 1.391 . S
C585 H573 0.950 . S
C585 C581 1.393 . S
C585 C584 1.391 . S
C586 H576 0.950 . S
C586 C587 1.386 . S
C586 C588 1.391 . S
C587 C586 1.386 . S
C587 C591 1.393 . S
C588 H577 0.950 1_556 S
C588 C586 1.391 . S
C588 C589 1.400 1_556 S
C589 C583 1.491 . S
C589 C588 1.400 1_554 S
C589 C590 1.398 1_554 S
C590 H578 0.950 . S
C590 C589 1.398 1_556 S
C590 C591 1.391 . S
C591 H579 0.950 . S
C591 C587 1.393 . S
C591 C590 1.391 . S
H592 C600 0.950 . S
H593 C605 0.950 . S
H594 C602 0.950 . S
H595 C604 0.950 . S
H596 C606 0.950 . S
H597 C608 0.950 . S
H598 C610 0.950 1_554 S
H599 C611 0.950 . S
C600 H592 0.950 . S
C600 C601 1.386 . S
C600 C602 1.391 . S
C601 C600 1.386 . S
C601 C605 1.393 . S
C602 H594 0.950 . S
C602 C600 1.391 . S
C602 C603 1.400 . S
C603 C602 1.400 . S
C603 C604 1.398 . S
C603 C609 1.491 . S
C604 H595 0.950 . S
C604 C603 1.398 . S
C604 C605 1.391 . S
C605 H593 0.950 . S
C605 C601 1.393 . S
C605 C604 1.391 . S
C606 H596 0.950 . S
C606 C607 1.386 . S
C606 C608 1.391 . S
C607 C606 1.386 . S
C607 C611 1.393 . S
C608 H597 0.950 . S
C608 C606 1.391 . S
C608 C609 1.400 1_556 S
C609 C603 1.491 . S
C609 C608 1.400 1_554 S
C609 C610 1.398 1_554 S
C610 H598 0.950 1_556 S
C610 C609 1.398 1_556 S
C610 C611 1.391 . S
C611 H599 0.950 . S
C611 C607 1.393 . S
C611 C610 1.391 . S
H612 C620 0.950 . S
H613 C625 0.950 . S
H614 C622 0.950 . S
H615 C624 0.950 . S
H616 C626 0.950 . S
H617 C628 0.950 . S
H618 C630 0.950 . S
H619 C631 0.950 . S
C620 H612 0.950 . S
C620 C621 1.392 . S
C620 C622 1.391 . S
C621 C620 1.392 . S
C621 C625 1.386 1_655 S
C622 H614 0.950 . S
C622 C620 1.391 . S
C622 C623 1.424 . S
C623 C622 1.424 . S
C623 C624 1.374 1_655 S
C623 C629 1.491 . S
C624 H615 0.950 . S
C624 C623 1.374 1_455 S
C624 C625 1.391 . S
C625 H613 0.950 . S
C625 C621 1.386 1_455 S
C625 C624 1.391 . S
C626 H616 0.950 . S
C626 C627 1.386 1_455 S
C626 C628 1.391 . S
C627 C626 1.386 1_655 S
C627 C631 1.393 . S
C628 H617 0.950 . S
C628 C626 1.391 . S
C628 C629 1.367 1_456 S
C629 C623 1.491 . S
C629 C628 1.367 1_654 S
C629 C630 1.432 1_554 S
C630 H618 0.950 . S
C630 C629 1.432 1_556 S
C630 C631 1.391 . S
C631 H619 0.950 . S
C631 C627 1.393 . S
C631 C630 1.391 . S
H632 C640 0.950 . S
H633 C645 0.950 . S
H634 C642 0.950 . S
H635 C644 0.950 . S
H636 C646 0.950 . S
H637 C648 0.950 . S
H638 C650 0.950 1_455 S
H639 C651 0.945 1_455 S
C640 H632 0.950 . S
C640 C641 1.386 . S
C640 C642 1.391 . S
C641 C640 1.386 . S
C641 C645 1.393 1_455 S
C642 H634 0.950 . S
C642 C640 1.391 . S
C642 C643 1.400 1_455 S
C643 C642 1.400 1_655 S
C643 C644 1.398 . S
C643 C649 1.491 . S
C644 H635 0.950 . S
C644 C643 1.398 . S
C644 C645 1.391 . S
C645 H633 0.950 . S
C645 C641 1.393 1_655 S
C645 C644 1.391 . S
C646 H636 0.950 . S
C646 C647 1.386 . S
C646 C648 1.391 . S
C647 C646 1.386 . S
C647 C651 1.393 . S
C648 H637 0.950 . S
C648 C646 1.391 . S
C648 C649 1.400 . S
C649 C643 1.491 . S
C649 C648 1.400 . S
C649 C650 1.398 . S
C650 H638 0.950 1_655 S
C650 C649 1.398 . S
C650 C651 1.391 . S
C651 H639 0.945 1_655 S
C651 C647 1.393 . S
C651 C650 1.391 . S
H652 C660 0.950 . S
H653 C665 0.950 . S
H654 C662 0.950 . S
H655 C664 0.950 . S
H656 C666 0.950 . S
H657 C668 0.950 1_545 S
H658 C670 0.950 . S
H659 C671 0.950 . S
C660 H652 0.950 . S
C660 C661 1.386 1_565 S
C660 C662 1.391 . S
C661 C660 1.386 1_545 S
C661 C665 1.393 . S
C662 H654 0.950 . S
C662 C660 1.391 . S
C662 C663 1.400 . S
C663 C662 1.400 . S
C663 C664 1.398 1_565 S
C663 C669 1.491 . S
C664 H655 0.950 . S
C664 C663 1.398 1_545 S
C664 C665 1.391 . S
C665 H653 0.950 . S
C665 C661 1.393 . S
C665 C664 1.391 . S
C666 H656 0.950 . S
C666 C667 1.386 . S
C666 C668 1.391 . S
C667 C666 1.386 . S
C667 C671 1.393 . S
C668 H657 0.950 1_565 S
C668 C666 1.391 . S
C668 C669 1.400 . S
C669 C663 1.491 . S
C669 C668 1.400 . S
C669 C670 1.398 . S
C670 H658 0.950 . S
C670 C669 1.398 . S
C670 C671 1.391 . S
C671 H659 0.950 . S
C671 C667 1.393 . S
C671 C670 1.391 . S
H672 C680 0.950 . S
H673 C685 0.950 . S
H674 C682 0.950 . S
H675 C684 0.950 . S
H676 C686 0.950 . S
H677 C688 0.950 . S
H678 C690 0.950 . S
H679 C691 0.950 . S
C680 H672 0.950 . S
C680 C681 1.386 . S
C680 C682 1.391 . S
C681 C680 1.386 . S
C681 C685 1.393 . S
C682 H674 0.950 . S
C682 C680 1.391 . S
C682 C683 1.400 . S
C683 C682 1.400 . S
C683 C684 1.398 . S
C683 C689 1.491 . S
C684 H675 0.950 . S
C684 C683 1.398 . S
C684 C685 1.391 . S
C685 H673 0.950 . S
C685 C681 1.393 . S
C685 C684 1.391 . S
C686 H676 0.950 . S
C686 C687 1.386 . S
C686 C688 1.391 . S
C687 C686 1.386 . S
C687 C691 1.393 . S
C688 H677 0.950 . S
C688 C686 1.391 . S
C688 C689 1.400 . S
C689 C683 1.491 . S
C689 C688 1.400 . S
C689 C690 1.398 . S
C690 H678 0.950 . S
C690 C689 1.398 . S
C690 C691 1.391 . S
C691 H679 0.950 . S
C691 C687 1.393 . S
C691 C690 1.391 . S
H692 C700 0.950 . S
H693 C705 0.950 . S
H694 C702 0.950 . S
H695 C704 0.950 . S
H696 C706 0.950 . S
H697 C708 0.950 . S
H698 C710 0.950 . S
H699 C711 0.950 . S
C700 H692 0.950 . S
C700 C701 1.386 . S
C700 C702 1.391 . S
C701 C700 1.386 . S
C701 C705 1.393 . S
C702 H694 0.950 . S
C702 C700 1.391 . S
C702 C703 1.400 . S
C703 C702 1.400 . S
C703 C704 1.398 . S
C703 C709 1.491 . S
C704 H695 0.950 . S
C704 C703 1.398 . S
C704 C705 1.391 . S
C705 H693 0.950 . S
C705 C701 1.393 . S
C705 C704 1.391 . S
C706 H696 0.950 . S
C706 C707 1.386 . S
C706 C708 1.391 . S
C707 C706 1.386 . S
C707 C711 1.393 . S
C708 H697 0.950 . S
C708 C706 1.391 . S
C708 C709 1.400 . S
C709 C703 1.491 . S
C709 C708 1.400 . S
C709 C710 1.398 . S
C710 H698 0.950 . S
C710 C709 1.398 . S
C710 C711 1.391 . S
C711 H699 0.950 . S
C711 C707 1.393 . S
C711 C710 1.391 . S
H712 C720 0.950 . S
H713 C725 0.950 . S
H714 C722 0.950 . S
H715 C724 0.950 1_556 S
H716 C726 0.950 . S
H717 C728 0.950 . S
H718 C730 0.950 . S
H719 C731 0.950 . S
C720 H712 0.950 . S
C720 C721 1.386 1_455 S
C720 C722 1.391 . S
C721 C720 1.386 1_655 S
C721 C725 1.393 . S
C722 H714 0.950 . S
C722 C720 1.391 . S
C722 C723 1.400 . S
C723 C722 1.400 . S
C723 C724 1.398 . S
C723 C729 1.491 . S
C724 H715 0.950 1_554 S
C724 C723 1.398 . S
C724 C725 1.391 1_455 S
C725 H713 0.950 . S
C725 C721 1.393 . S
C725 C724 1.391 1_655 S
C726 H716 0.950 . S
C726 C727 1.386 . S
C726 C728 1.391 . S
C727 C726 1.386 . S
C727 C731 1.393 1_556 S
C728 H717 0.950 . S
C728 C726 1.391 . S
C728 C729 1.400 1_556 S
C729 C723 1.491 . S
C729 C728 1.400 1_554 S
C729 C730 1.398 . S
C730 H718 0.950 . S
C730 C729 1.398 . S
C730 C731 1.391 . S
C731 H719 0.950 . S
C731 C727 1.393 1_554 S
C731 C730 1.391 . S
H732 C740 0.950 . S
H733 C745 0.950 . S
H734 C742 0.950 . S
H735 C744 0.950 . S
H736 C746 0.950 . S
H737 C748 0.950 . S
H738 C750 0.950 1_565 S
H739 C751 0.915 1_565 S
C740 H732 0.950 . S
C740 C741 1.386 . S
C740 C742 1.391 . S
C741 C740 1.386 . S
C741 C745 1.393 1_565 S
C742 H734 0.950 . S
C742 C740 1.391 . S
C742 C743 1.400 1_565 S
C743 C742 1.400 1_545 S
C743 C744 1.398 . S
C743 C749 1.491 . S
C744 H735 0.950 . S
C744 C743 1.398 . S
C744 C745 1.391 . S
C745 H733 0.950 . S
C745 C741 1.393 1_545 S
C745 C744 1.391 . S
C746 H736 0.950 . S
C746 C747 1.386 . S
C746 C748 1.391 1_556 S
C747 C746 1.386 . S
C747 C751 1.393 . S
C748 H737 0.950 . S
C748 C746 1.391 1_554 S
C748 C749 1.400 . S
C749 C743 1.491 . S
C749 C748 1.400 . S
C749 C750 1.398 1_554 S
C750 H738 0.950 1_545 S
C750 C749 1.398 1_556 S
C750 C751 1.391 . S
C751 H739 0.915 1_545 S
C751 C747 1.393 . S
C751 C750 1.391 . S
H752 C760 0.950 . S
H753 C765 0.950 . S
H754 C762 0.950 1_556 S
H755 C764 0.950 . S
H756 C766 0.950 . S
H757 C768 0.950 . S
H758 C770 0.950 . S
H759 C771 0.950 . S
C760 H752 0.950 . S
C760 C761 1.386 . S
C760 C762 1.391 . S
C761 C760 1.386 . S
C761 C765 1.393 . S
C762 H754 0.950 1_554 S
C762 C760 1.391 . S
C762 C763 1.400 . S
C763 C762 1.400 . S
C763 C764 1.398 . S
C763 C769 1.491 . S
C764 H755 0.950 . S
C764 C763 1.398 . S
C764 C765 1.391 . S
C765 H753 0.950 . S
C765 C761 1.393 . S
C765 C764 1.391 . S
C766 H756 0.950 . S
C766 C767 1.386 1_554 S
C766 C768 1.391 . S
C767 C766 1.386 1_556 S
C767 C771 1.393 . S
C768 H757 0.950 . S
C768 C766 1.391 . S
C768 C769 1.400 . S
C769 C763 1.491 . S
C769 C768 1.400 . S
C769 C770 1.398 1_554 S
C770 H758 0.950 . S
C770 C769 1.398 1_556 S
C770 C771 1.391 . S
C771 H759 0.950 . S
C771 C767 1.393 . S
C771 C770 1.391 . S
H772 C780 0.950 . S
H773 C785 0.950 . S
H774 C782 0.950 . S
H775 C784 0.950 . S
H776 C786 0.950 1_554 S
H777 C788 0.950 . S
H778 C790 0.950 . S
H779 C791 0.950 . S
C780 H772 0.950 . S
C780 C781 1.386 . S
C780 C782 1.391 . S
C781 C780 1.386 . S
C781 C785 1.393 . S
C782 H774 0.950 . S
C782 C780 1.391 . S
C782 C783 1.400 . S
C783 C782 1.400 . S
C783 C784 1.398 . S
C783 C789 1.491 . S
C784 H775 0.950 . S
C784 C783 1.398 . S
C784 C785 1.391 . S
C785 H773 0.950 . S
C785 C781 1.393 . S
C785 C784 1.391 . S
C786 H776 0.950 1_556 S
C786 C787 1.386 . S
C786 C788 1.391 1_556 S
C787 C786 1.386 . S
C787 C791 1.393 . S
C788 H777 0.950 . S
C788 C786 1.391 1_554 S
C788 C789 1.400 . S
C789 C783 1.491 . S
C789 C788 1.400 . S
C789 C790 1.398 1_554 S
C790 H778 0.950 . S
C790 C789 1.398 1_556 S
C790 C791 1.391 . S
C791 H779 0.950 . S
C791 C787 1.393 . S
C791 C790 1.391 . S
H792 C800 0.950 . S
H793 C805 0.950 . S
H794 C802 0.950 . S
H795 C804 0.950 . S
H796 C806 0.950 . S
H797 C808 0.950 . S
H798 C810 0.950 . S
H799 C811 0.950 . S
C800 H792 0.950 . S
C800 C801 1.386 1_655 S
C800 C802 1.391 . S
C801 C800 1.386 1_455 S
C801 C805 1.393 . S
C802 H794 0.950 . S
C802 C800 1.391 . S
C802 C803 1.400 1_655 S
C803 C802 1.400 1_455 S
C803 C804 1.398 . S
C803 C809 1.491 . S
C804 H795 0.950 . S
C804 C803 1.398 . S
C804 C805 1.391 . S
C805 H793 0.950 . S
C805 C801 1.393 . S
C805 C804 1.391 . S
C806 H796 0.950 . S
C806 C807 1.386 . S
C806 C808 1.391 . S
C807 C806 1.386 . S
C807 C811 1.393 1_455 S
C808 H797 0.950 . S
C808 C806 1.391 . S
C808 C809 1.400 . S
C809 C803 1.491 . S
C809 C808 1.400 . S
C809 C810 1.398 1_455 S
C810 H798 0.950 . S
C810 C809 1.398 1_655 S
C810 C811 1.391 . S
C811 H799 0.950 . S
C811 C807 1.393 1_655 S
C811 C810 1.391 . S
H812 C820 0.950 . S
H813 C825 0.954 . S
H814 C822 0.950 . S
H815 C824 0.944 1_565 S
H816 C826 0.948 . S
H817 C828 0.950 1_565 S
H818 C830 0.950 . S
H819 C831 0.950 . S
C820 H812 0.950 . S
C820 C821 1.386 . S
C820 C822 1.391 . S
C821 C820 1.386 . S
C821 C825 1.390 1_545 S
C822 H814 0.950 . S
C822 C820 1.391 . S
C822 C823 1.400 . S
C823 C822 1.400 . S
C823 C824 1.409 . S
C823 C829 1.491 . S
C824 H815 0.944 1_545 S
C824 C823 1.409 . S
C824 C825 1.388 1_545 S
C825 H813 0.954 . S
C825 C821 1.390 1_565 S
C825 C824 1.388 1_565 S
C826 H816 0.948 . S
C826 C827 1.386 . S
C826 C828 1.391 . S
C827 C826 1.386 . S
C827 C831 1.393 . S
C828 H817 0.950 1_545 S
C828 C826 1.391 . S
C828 C829 1.400 . S
C829 C823 1.491 . S
C829 C828 1.400 . S
C829 C830 1.398 . S
C830 H818 0.950 . S
C830 C829 1.398 . S
C830 C831 1.391 . S
C831 H819 0.950 . S
C831 C827 1.393 . S
C831 C830 1.391 . S
H832 C840 0.950 . S
H833 C845 0.950 . S
H834 C842 0.950 . S
H835 C844 0.950 . S
H836 C846 0.950 . S
H837 C848 0.950 . S
H838 C850 0.950 . S
H839 C851 0.950 . S
C840 H832 0.950 . S
C840 C841 1.386 . S
C840 C842 1.391 . S
C841 C840 1.386 . S
C841 C845 1.393 . S
C842 H834 0.950 . S
C842 C840 1.391 . S
C842 C843 1.400 . S
C843 C842 1.400 . S
C843 C844 1.398 . S
C843 C849 1.491 . S
C844 H835 0.950 . S
C844 C843 1.398 . S
C844 C845 1.391 . S
C845 H833 0.950 . S
C845 C841 1.393 . S
C845 C844 1.391 . S
C846 H836 0.950 . S
C846 C847 1.386 . S
C846 C848 1.391 . S
C847 C846 1.386 . S
C847 C851 1.393 . S
C848 H837 0.950 . S
C848 C846 1.391 . S
C848 C849 1.400 . S
C849 C843 1.491 . S
C849 C848 1.400 . S
C849 C850 1.398 . S
C850 H838 0.950 . S
C850 C849 1.398 . S
C850 C851 1.391 . S
C851 H839 0.950 . S
C851 C847 1.393 . S
C851 C850 1.391 . S
H852 C860 0.950 . S
H853 C865 0.950 . S
H854 C862 0.950 . S
H855 C864 0.950 . S
H856 C866 0.950 . S
H857 C868 0.950 . S
H858 C870 0.950 . S
H859 C871 0.950 . S
C860 H852 0.950 . S
C860 C861 1.386 . S
C860 C862 1.391 . S
C861 C860 1.386 . S
C861 C865 1.393 . S
C862 H854 0.950 . S
C862 C860 1.391 . S
C862 C863 1.400 . S
C863 C862 1.400 . S
C863 C864 1.398 . S
C863 C869 1.491 . S
C864 H855 0.950 . S
C864 C863 1.398 . S
C864 C865 1.391 . S
C865 H853 0.950 . S
C865 C861 1.393 . S
C865 C864 1.391 . S
C866 H856 0.950 . S
C866 C867 1.386 . S
C866 C868 1.391 . S
C867 C866 1.386 . S
C867 C871 1.393 . S
C868 H857 0.950 . S
C868 C866 1.391 . S
C868 C869 1.400 . S
C869 C863 1.491 . S
C869 C868 1.400 . S
C869 C870 1.398 . S
C870 H858 0.950 . S
C870 C869 1.398 . S
C870 C871 1.391 . S
C871 H859 0.950 . S
C871 C867 1.393 . S
C871 C870 1.391 . S
H872 C880 0.950 . S
H873 C885 0.950 . S
H874 C882 0.950 . S
H875 C884 0.950 . S
H876 C886 0.950 . S
H877 C888 0.950 . S
H878 C890 0.950 . S
H879 C891 0.950 . S
C880 H872 0.950 . S
C880 C881 1.386 1_455 S
C880 C882 1.391 . S
C881 C880 1.386 1_655 S
C881 C885 1.393 . S
C882 H874 0.950 . S
C882 C880 1.391 . S
C882 C883 1.400 1_455 S
C883 C882 1.400 1_655 S
C883 C884 1.398 . S
C883 C889 1.491 . S
C884 H875 0.950 . S
C884 C883 1.398 . S
C884 C885 1.391 . S
C885 H873 0.950 . S
C885 C881 1.393 . S
C885 C884 1.391 . S
C886 H876 0.950 . S
C886 C887 1.386 . S
C886 C888 1.391 . S
C887 C886 1.386 . S
C887 C891 1.393 1_655 S
C888 H877 0.950 . S
C888 C886 1.391 . S
C888 C889 1.400 . S
C889 C883 1.491 . S
C889 C888 1.400 . S
C889 C890 1.398 1_655 S
C890 H878 0.950 . S
C890 C889 1.398 1_455 S
C890 C891 1.391 . S
C891 H879 0.950 . S
C891 C887 1.393 1_455 S
C891 C890 1.391 . S
H892 C900 0.950 . S
H893 C905 0.950 . S
H894 C902 0.950 . S
H895 C904 0.950 . S
H896 C906 0.950 . S
H897 C908 0.950 . S
H898 C910 0.950 . S
H899 C911 0.950 . S
C900 H892 0.950 . S
C900 C901 1.386 . S
C900 C902 1.391 . S
C901 C900 1.386 . S
C901 C905 1.393 1_565 S
C902 H894 0.950 . S
C902 C900 1.391 . S
C902 C903 1.400 . S
C903 C902 1.400 . S
C903 C904 1.398 1_565 S
C903 C909 1.491 . S
C904 H895 0.950 . S
C904 C903 1.398 1_545 S
C904 C905 1.391 . S
C905 H893 0.950 . S
C905 C901 1.393 1_545 S
C905 C904 1.391 . S
C906 H896 0.950 . S
C906 C907 1.386 1_545 S
C906 C908 1.391 . S
C907 C906 1.386 1_565 S
C907 C911 1.393 . S
C908 H897 0.950 . S
C908 C906 1.391 . S
C908 C909 1.400 1_545 S
C909 C903 1.491 . S
C909 C908 1.400 1_565 S
C909 C910 1.398 . S
C910 H898 0.950 . S
C910 C909 1.398 . S
C910 C911 1.391 . S
C911 H899 0.950 . S
C911 C907 1.393 . S
C911 C910 1.391 . S
H912 C920 0.950 . S
H913 C925 0.950 . S
H914 C922 0.950 . S
H915 C924 0.950 . S
H916 C926 0.950 . S
H917 C928 0.950 . S
H918 C930 0.950 . S
H919 C931 0.950 . S
C920 H912 0.950 . S
C920 C921 1.386 . S
C920 C922 1.391 . S
C921 C920 1.386 . S
C921 C925 1.393 . S
C922 H914 0.950 . S
C922 C920 1.391 . S
C922 C923 1.400 . S
C923 C922 1.400 . S
C923 C924 1.398 . S
C923 C929 1.491 . S
C924 H915 0.950 . S
C924 C923 1.398 . S
C924 C925 1.391 . S
C925 H913 0.950 . S
C925 C921 1.393 . S
C925 C924 1.391 . S
C926 H916 0.950 . S
C926 C927 1.386 . S
C926 C928 1.391 . S
C927 C926 1.386 . S
C927 C931 1.393 . S
C928 H917 0.950 . S
C928 C926 1.391 . S
C928 C929 1.400 . S
C929 C923 1.491 . S
C929 C928 1.400 . S
C929 C930 1.398 . S
C930 H918 0.950 . S
C930 C929 1.398 . S
C930 C931 1.391 . S
C931 H919 0.950 . S
C931 C927 1.393 . S
C931 C930 1.391 . S
H932 C940 0.950 . S
H933 C945 0.950 . S
H934 C942 0.950 . S
H935 C944 0.950 . S
H936 C946 0.950 . S
H937 C948 0.950 . S
H938 C950 0.950 . S
H939 C951 0.950 . S
C940 H932 0.950 . S
C940 C941 1.386 . S
C940 C942 1.391 . S
C941 C940 1.386 . S
C941 C945 1.393 . S
C942 H934 0.950 . S
C942 C940 1.391 . S
C942 C943 1.400 . S
C943 C942 1.400 . S
C943 C944 1.398 . S
C943 C949 1.491 . S
C944 H935 0.950 . S
C944 C943 1.398 . S
C944 C945 1.391 . S
C945 H933 0.950 . S
C945 C941 1.393 . S
C945 C944 1.391 . S
C946 H936 0.950 . S
C946 C947 1.386 . S
C946 C948 1.391 . S
C947 C946 1.386 . S
C947 C951 1.393 . S
C948 H937 0.950 . S
C948 C946 1.391 . S
C948 C949 1.400 . S
C949 C943 1.491 . S
C949 C948 1.400 . S
C949 C950 1.398 . S
C950 H938 0.950 . S
C950 C949 1.398 . S
C950 C951 1.391 . S
C951 H939 0.950 . S
C951 C947 1.393 . S
C951 C950 1.391 . S
C481 C255 2.146 1_545 S
C487 C321 2.336 . S
C507 C361 2.368 . S
C501 C294 2.132 . S
C527 C401 2.362 . S
C521 C177 2.185 . S
C547 C441 2.351 1_455 S
C541 C216 2.175 1_455 S
C567 C330 2.339 . S
C561 C99 2.145 . S
C581 C138 2.142 . S
C587 C370 2.373 . S
C601 C21 2.171 . S
C607 C410 2.360 . S
C621 C60 2.149 . S
C627 C450 2.349 1_655 S
C647 C327 0.399 . S
C641 C196 0.416 1_455 S
C667 C367 0.382 . S
C661 C235 0.363 1_545 S
C687 C407 0.353 . S
C681 C289 0.366 . S
C701 C157 0.418 . S
C707 C447 0.417 . S
C721 C40 0.377 . S
C727 C318 0.362 . S
C747 C358 0.408 . S
C741 C79 0.367 . S
C767 C398 0.412 . S
C761 C133 0.368 . S
C781 C1 0.350 . S
C787 C438 0.406 . S
C801 C211 2.843 . S
C807 C331 3.215 . S
C821 C250 2.790 . S
C827 C371 3.176 . S
C847 C411 3.167 . S
C841 C274 2.780 . S
C867 C451 3.199 . S
C861 C172 2.798 . S
C881 C55 2.827 1_655 S
C887 C322 3.231 . S
C907 C362 3.186 . S
C901 C94 2.806 1_565 S
C927 C402 3.175 . S
C921 C118 2.789 . S
C941 C16 2.806 . S
C947 C442 3.203 . S
