# Generated by pormake.
# Topology rtl, (3,6)-cn, num edge types: 1
# Building blocks:
#     Node 0, Type 0, BuildingBlock: BETDIP_clean_linker_0, # of connection points: 3
#     Node 1, Type 0, BuildingBlock: BETDIP_clean_linker_0, # of connection points: 3
#     Node 2, Type 0, BuildingBlock: BETDIP_clean_linker_0, # of connection points: 3
#     Node 3, Type 0, BuildingBlock: BETDIP_clean_linker_0, # of connection points: 3
#     Node 4, Type 1, BuildingBlock: KUMJIN_clean_sbu_1, # of connection points: 6
#     Node 5, Type 1, BuildingBlock: KUMJIN_clean_sbu_1, # of connection points: 6
#     Edge 6, Type (0, 1), BuildingBlock: ZUJKAS_clean_linker_0, # of connection points: 2
#     Edge 7, Type (0, 1), BuildingBlock: ZUJKAS_clean_linker_0, # of connection points: 2
#     Edge 8, Type (0, 1), BuildingBlock: ZUJKAS_clean_linker_0, # of connection points: 2
#     Edge 9, Type (0, 1), BuildingBlock: ZUJKAS_clean_linker_0, # of connection points: 2
#     Edge 10, Type (0, 1), BuildingBlock: ZUJKAS_clean_linker_0, # of connection points: 2
#     Edge 11, Type (0, 1), BuildingBlock: ZUJKAS_clean_linker_0, # of connection points: 2
#     Edge 12, Type (0, 1), BuildingBlock: ZUJKAS_clean_linker_0, # of connection points: 2
#     Edge 13, Type (0, 1), BuildingBlock: ZUJKAS_clean_linker_0, # of connection points: 2
#     Edge 14, Type (0, 1), BuildingBlock: ZUJKAS_clean_linker_0, # of connection points: 2
#     Edge 15, Type (0, 1), BuildingBlock: ZUJKAS_clean_linker_0, # of connection points: 2
#     Edge 16, Type (0, 1), BuildingBlock: ZUJKAS_clean_linker_0, # of connection points: 2
#     Edge 17, Type (0, 1), BuildingBlock: ZUJKAS_clean_linker_0, # of connection points: 2
# Relax obj value: 0.051
# Max RMSD: 0.207
# Mean RMSD: 0.154
data_MOF--net-rtl--node1-KUMJIN_clean_sbu_1--node2-BETDIP_clean_linker_0--edge1-ZUJKAS_clean_linker_0
_symmetry_space_group_name_H-M    P1
_symmetry_Int_Tables_number       1
_symmetry_cell_setting            triclinic
loop_
_symmetry_equiv_pos_as_xyz
'x, y, z'
_cell_length_a     45.53806
_cell_length_b     45.361138
_cell_length_c     34.202801
_cell_angle_alpha  80.808799
_cell_angle_beta   100.02032
_cell_angle_gamma 91.024731
loop_
_atom_site_label
_atom_site_type_symbol
_atom_site_fract_x
_atom_site_fract_y
_atom_site_fract_z
_atom_type_partial_charge
H0 H 0.24559 0.84665 0.96182 0.0
H1 H 0.26245 0.84225 0.09032 0.0
H2 H 0.19872 0.90553 0.01745 0.0
H3 H 0.28155 0.79754 0.08989 0.0
C4 C 0.29001 0.79838 0.06198 0.0
C5 C 0.24135 0.855 0.9883 0.0
C6 C 0.22007 0.87777 0.98469 0.0
C7 C 0.25661 0.84187 0.02604 0.0
C8 C 0.25064 0.85175 0.0609 0.0
C9 C 0.22972 0.87475 0.0578 0.0
C10 C 0.21484 0.88779 0.01969 0.0
N11 N 0.27784 0.81898 0.02738 0.0
H12 H 0.68615 0.74086 0.68486 0.0
H13 H 0.68444 0.74667 0.55766 0.0
H14 H 0.62828 0.68392 0.61723 0.0
H15 H 0.7357 0.75087 0.58211 0.0
C16 C 0.7341 0.76875 0.59937 0.0
C17 C 0.67717 0.73378 0.6564 0.0
C18 C 0.65553 0.71131 0.65479 0.0
C19 C 0.68839 0.74599 0.62166 0.0
C20 C 0.67669 0.73654 0.58485 0.0
C21 C 0.65483 0.71431 0.58275 0.0
C22 C 0.64447 0.70173 0.61804 0.0
N23 N 0.71191 0.76713 0.62427 0.0
H24 H 0.77131 0.18426 0.96532 0.0
H25 H 0.78252 0.18006 0.09366 0.0
H26 H 0.83221 0.12033 0.04303 0.0
H27 H 0.73139 0.19308 0.0752 0.0
C28 C 0.73262 0.21079 0.05008 0.0
C29 C 0.78154 0.17411 0.99537 0.0
C30 C 0.80243 0.15089 1.00058 0.0
C31 C 0.77329 0.18391 0.02879 0.0
C32 C 0.78748 0.17138 0.06781 0.0
C33 C 0.8093 0.14877 0.07332 0.0
C34 C 0.81592 0.13814 0.0394 0.0
N35 N 0.7516 0.20717 0.02227 0.0
H36 H 0.33936 0.28253 0.38994 0.0
H37 H 0.33937 0.28091 0.51584 0.0
H38 H 0.40727 0.3281 0.46061 0.0
H39 H 0.3061 0.24935 0.51251 0.0
C40 C 0.30006 0.24286 0.48314 0.0
C41 C 0.34962 0.28851 0.41858 0.0
C42 C 0.37364 0.30859 0.42068 0.0
C43 C 0.33796 0.27686 0.45332 0.0
C44 C 0.3497 0.28692 0.48984 0.0
C45 C 0.37451 0.30579 0.493 0.0
C46 C 0.3871 0.31506 0.45848 0.0
N47 N 0.31414 0.25582 0.45038 0.0
Eu48 Eu 0.03232 0.98004 0.50471 0.0
C49 C 0.96774 0.10423 0.49655 0.0
N50 N 0.99456 0.09313 0.51744 0.0
C51 C 0.0174 0.14055 0.5016 0.0
C52 C 0.96504 0.13408 0.47676 0.0
C53 C 0.01902 0.11099 0.52116 0.0
C54 C 0.99038 0.1521 0.47909 0.0
C55 C 0.91437 0.09764 0.47626 0.0
C56 C 0.94256 0.08604 0.49598 0.0
C57 C 0.91186 0.12719 0.456 0.0
C58 C 0.9371 0.1453 0.45614 0.0
Eu59 Eu 0.993 0.04408 0.55218 0.0
N60 N 0.94548 0.05728 0.51538 0.0
C61 C 0.88934 0.07942 0.47836 0.0
C62 C 0.92114 0.03979 0.51873 0.0
C63 C 0.8927 0.05051 0.50013 0.0
H64 H 0.03956 0.10304 0.54036 0.0
H65 H 0.87341 0.03652 0.50266 0.0
H66 H 0.98789 0.91939 0.50784 0.0
H67 H 0.1522 0.98614 0.55278 0.0
H68 H 0.92357 0.01788 0.53643 0.0
H69 H 0.86729 0.08763 0.46388 0.0
H70 H 0.10188 1.00501 0.5198 0.0
H71 H 0.03687 0.1546 0.50461 0.0
H72 H 0.89039 0.13641 0.44058 0.0
H73 H 0.93467 0.16818 0.44082 0.0
H74 H 0.99003 0.86705 0.54116 0.0
H75 H 0.98914 0.17517 0.46443 0.0
H76 H 0.15861 0.93435 0.58941 0.0
N77 N 0.03165 0.92942 0.53497 0.0
C78 C 0.05825 0.91796 0.55605 0.0
C79 C 0.00922 0.88126 0.54627 0.0
C80 C 0.06099 0.88769 0.57413 0.0
C81 C 0.00773 0.91124 0.52832 0.0
C82 C 0.03585 0.86951 0.56976 0.0
N83 N 0.08016 0.96517 0.53976 0.0
C84 C 0.10446 0.98281 0.53675 0.0
C85 C 0.11156 0.92424 0.57669 0.0
C86 C 0.0833 0.93608 0.55762 0.0
C87 C 0.13652 0.94266 0.57532 0.0
C88 C 0.13298 0.97197 0.55483 0.0
H89 H 0.03706 0.84614 0.5831 0.0
H90 H 0.09131 0.85307 0.60895 0.0
H91 H 0.13556 0.88502 0.61104 0.0
O92 O 0.05571 0.99224 0.45351 0.0
O93 O 0.04854 0.98096 0.57141 0.0
O94 O 0.0284 0.01856 0.59848 0.0
O95 O 0.03757 0.94793 0.46554 0.0
O96 O 0.0437 0.02928 0.49468 0.0
O97 O 0.04237 0.04951 0.55147 0.0
O98 O 0.96371 0.04157 0.59711 0.0
O99 O 0.98485 0.04576 0.48376 0.0
O100 O 0.98869 0.99826 0.46745 0.0
O101 O 0.99433 0.07832 0.59033 0.0
O102 O 0.97969 0.99549 0.56532 0.0
O103 O 0.98376 0.9719 0.51137 0.0
C104 C 0.04567 0.99516 0.60133 0.0
C105 C 0.04701 0.96369 0.39992 0.0
C106 C 0.06681 0.95402 0.34148 0.0
C107 C 0.03763 0.95331 0.32015 0.0
C108 C 0.01791 0.96305 0.37832 0.0
C109 C 0.01331 0.95786 0.33852 0.0
C110 C 0.07143 0.95927 0.38137 0.0
C111 C 0.05614 0.04488 0.52223 0.0
C112 C 0.05253 0.96586 0.44285 0.0
C113 C 0.08887 0.87622 0.59471 0.0
C114 C 0.11409 0.89441 0.59585 0.0
C115 C 0.9797 0.02629 0.45861 0.0
C116 C 0.98113 0.06424 0.65443 0.0
C117 C 0.96368 0.06763 0.71698 0.0
C118 C 0.9932 0.0646 0.73759 0.0
C119 C 0.01057 0.06111 0.67547 0.0
C120 C 0.95771 0.06753 0.67533 0.0
C121 C 0.01651 0.0614 0.71687 0.0
C122 C 0.96984 0.97669 0.54061 0.0
C123 C 0.97454 0.06555 0.61056 0.0
H124 H 0.0337 0.94897 0.28943 0.0
H125 H 0.99887 0.96597 0.39245 0.0
H126 H 0.99085 0.95701 0.32202 0.0
H127 H 0.09395 0.95931 0.39817 0.0
H128 H 0.9982 0.0651 0.76963 0.0
H129 H 0.02895 0.05876 0.65987 0.0
H130 H 0.93495 0.07017 0.65924 0.0
H131 H 0.03926 0.05934 0.73288 0.0
Eu132 Eu 0.48281 0.49719 0.99443 0.0
C133 C 0.60617 0.54987 0.05452 0.0
N134 N 0.59469 0.5235 0.06981 0.0
C135 C 0.64136 0.49866 0.0741 0.0
C136 C 0.63571 0.5513 0.04712 0.0
C137 C 0.61188 0.49824 0.08059 0.0
C138 C 0.65328 0.52525 0.05704 0.0
C139 C 0.59927 0.60279 0.02842 0.0
C140 C 0.58809 0.57544 0.04552 0.0
C141 C 0.6286 0.60417 0.02067 0.0
C142 C 0.64678 0.57855 0.0301 0.0
Eu143 Eu 0.54525 0.52527 0.08052 0.0
N144 N 0.55956 0.57347 0.0529 0.0
C145 C 0.58064 0.62804 0.01963 0.0
C146 C 0.54182 0.59831 0.04603 0.0
C147 C 0.5519 0.62582 0.02878 0.0
H148 H 0.60304 0.47779 0.09468 0.0
H149 H 0.53759 0.64539 0.02292 0.0
H150 H 0.42621 0.54719 0.98502 0.0
H151 H 0.47976 0.37588 0.02142 0.0
H152 H 0.52012 0.59732 0.05441 0.0
H153 H 0.58838 0.64942 0.00635 0.0
H154 H 0.50177 0.42559 1.00433 0.0
H155 H 0.6549 0.47853 0.08244 0.0
H156 H 0.63751 0.625 0.00751 0.0
H157 H 0.6694 0.58004 0.02409 0.0
H158 H 0.37534 0.54779 0.99943 0.0
H159 H 0.67612 0.52548 0.05197 0.0
H160 H 0.42889 0.37216 0.03798 0.0
N161 N 0.43355 0.50082 0.0072 0.0
C162 C 0.42036 0.47437 0.01839 0.0
C163 C 0.38793 0.52706 0.00569 0.0
C164 C 0.39059 0.47348 0.02505 0.0
C165 C 0.41726 0.52677 0.99873 0.0
C166 C 0.37466 0.50035 0.01945 0.0
N167 N 0.46434 0.4493 0.0133 0.0
C168 C 0.47979 0.42401 0.01228 0.0
C169 C 0.4224 0.42008 0.0302 0.0
C170 C 0.43597 0.44789 0.02079 0.0
C171 C 0.43855 0.39394 0.03087 0.0
C172 C 0.4673 0.39594 0.02161 0.0
H173 H 0.35174 0.50059 0.02413 0.0
H174 H 0.35451 0.44477 0.04092 0.0
H175 H 0.3824 0.39806 0.04561 0.0
O176 O 0.49258 0.48146 0.93944 0.0
O177 O 0.48915 0.47103 0.05792 0.0
O178 O 0.50123 0.50765 0.09654 0.0
O179 O 0.44956 0.50174 0.94068 0.0
O180 O 0.52959 0.47736 0.00467 0.0
O181 O 0.54782 0.47646 0.07284 0.0
O182 O 0.55741 0.55208 0.12885 0.0
O183 O 0.55327 0.52866 0.01584 0.0
O184 O 0.50694 0.54037 0.97923 0.0
O185 O 0.56732 0.50402 0.14024 0.0
O186 O 0.49949 0.54672 0.07161 0.0
O187 O 0.47912 0.54523 0.00495 0.0
C188 C 0.4903 0.48127 0.09193 0.0
C189 C 0.45504 0.48905 0.8772 0.0
C190 C 0.44806 0.46389 0.81858 0.0
C191 C 0.43027 0.48794 0.79654 0.0
C192 C 0.43711 0.51287 0.85466 0.0
C193 C 0.42483 0.51227 0.81454 0.0
C194 C 0.46053 0.46442 0.85905 0.0
C195 C 0.54691 0.46604 0.0387 0.0
C196 C 0.46586 0.48929 0.92021 0.0
C197 C 0.3773 0.44583 0.03559 0.0
C198 C 0.39314 0.41921 0.03813 0.0
C199 C 0.53601 0.54228 0.98348 0.0
C200 C 0.58192 0.53124 0.19681 0.0
C201 C 0.59023 0.55793 0.25451 0.0
C202 C 0.60669 0.53336 0.27747 0.0
C203 C 0.59853 0.50697 0.22054 0.0
C204 C 0.57792 0.55697 0.21396 0.0
C205 C 0.61086 0.50811 0.26054 0.0
C206 C 0.47996 0.55575 0.03888 0.0
C207 C 0.56863 0.52909 0.15467 0.0
H208 H 0.42023 0.48763 0.76545 0.0
H209 H 0.43234 0.53187 0.86822 0.0
H210 H 0.41083 0.53058 0.79747 0.0
H211 H 0.47385 0.44566 0.87637 0.0
H212 H 0.61637 0.53376 0.30866 0.0
H213 H 0.60203 0.48702 0.20819 0.0
H214 H 0.56511 0.5759 0.19621 0.0
H215 H 0.62363 0.48929 0.27855 0.0
H216 H 0.28788 0.20064 0.43264 0.0
H217 H 0.24673 0.16434 0.43198 0.0
H218 H 0.21402 0.20358 0.52314 0.0
H219 H 0.25511 0.23899 0.52465 0.0
H220 H 0.2329 0.12456 0.51315 0.0
H221 H 0.14184 0.19925 0.42241 0.0
H222 H 0.18057 0.2049 0.41768 0.0
H223 H 0.16718 0.21477 0.46025 0.0
C224 C 0.27159 0.20166 0.452 0.0
C225 C 0.27438 0.22265 0.47851 0.0
C226 C 0.24831 0.18092 0.45179 0.0
C227 C 0.22736 0.1815 0.4774 0.0
C228 C 0.2299 0.20289 0.50308 0.0
H229 H 0.0909 0.07678 0.5741 0.0
H230 H 0.13367 0.10814 0.56126 0.0
C231 C 0.25332 0.22307 0.50387 0.0
C232 C 0.20317 0.15939 0.4789 0.0
H233 H 0.12738 0.15358 0.45825 0.0
C234 C 0.20986 0.13066 0.50061 0.0
C235 C 0.1732 0.16764 0.46284 0.0
C236 C 0.16508 0.19825 0.43923 0.0
C237 C 0.18709 0.11021 0.50771 0.0
C238 C 0.15709 0.1188 0.49259 0.0
C239 C 0.15048 0.14718 0.46983 0.0
C240 C 0.13215 0.09885 0.50088 0.0
C241 C 0.19499 0.07972 0.53183 0.0
C242 C 0.11726 0.08337 0.4711 0.0
C243 C 0.0928 0.06555 0.47822 0.0
C244 C 0.08266 0.06308 0.51522 0.0
C245 C 0.09797 0.07838 0.54519 0.0
C246 C 0.12246 0.09618 0.53801 0.0
H247 H 0.21946 0.07559 0.53881 0.0
H248 H 0.18632 0.0776 0.56054 0.0
H249 H 0.18423 0.06221 0.51508 0.0
H250 H 0.12449 0.08524 0.44226 0.0
H251 H 0.08166 0.05399 0.45452 0.0
H252 H 0.30963 0.75053 0.11815 0.0
H253 H 0.34348 0.71048 0.11263 0.0
H254 H 0.35254 0.75384 0.99366 0.0
H255 H 0.3188 0.79387 0.99891 0.0
H256 H 0.33344 0.67339 0.04911 0.0
H257 H 0.43996 0.73602 0.05498 0.0
H258 H 0.40831 0.74852 0.07355 0.0
H259 H 0.40833 0.75332 0.02045 0.0
C260 C 0.31904 0.75157 0.09096 0.0
C261 C 0.31152 0.77517 0.05896 0.0
C262 C 0.33829 0.72875 0.08784 0.0
C263 C 0.3506 0.72939 0.05286 0.0
C264 C 0.3435 0.75317 0.02107 0.0
H265 H 0.45909 0.59996 0.97669 0.0
H266 H 0.42718 0.64266 0.97846 0.0
C267 C 0.3241 0.77591 0.02406 0.0
C268 C 0.36976 0.70445 0.04897 0.0
H269 H 0.44095 0.68637 0.04206 0.0
C270 C 0.35694 0.67619 0.04762 0.0
C271 C 0.40035 0.70832 0.04683 0.0
C272 C 0.41525 0.7381 0.04929 0.0
C273 C 0.37399 0.65161 0.04413 0.0
C274 C 0.40459 0.65543 0.04241 0.0
C275 C 0.41739 0.6837 0.04331 0.0
C276 C 0.42384 0.62993 0.04121 0.0
C277 C 0.3593 0.62168 0.04214 0.0
C278 C 0.43252 0.60898 0.07601 0.0
C279 C 0.45083 0.58484 0.07517 0.0
C280 C 0.46043 0.58116 0.03939 0.0
C281 C 0.45168 0.60217 0.00452 0.0
C282 C 0.43364 0.62655 0.00552 0.0
H283 H 0.33459 0.62346 0.03737 0.0
H284 H 0.36582 0.61146 0.01744 0.0
H285 H 0.36697 0.60642 0.07075 0.0
H286 H 0.42518 0.6114 0.10382 0.0
H287 H 0.45724 0.56889 0.1024 0.0
H288 H 0.73798 0.8202 0.63416 0.0
H289 H 0.77487 0.86026 0.62705 0.0
H290 H 0.81687 0.81157 0.55293 0.0
H291 H 0.78025 0.77193 0.55959 0.0
H292 H 0.8407 0.85497 0.64587 0.0
H293 H 0.79861 0.89542 0.48441 0.0
H294 H 0.77642 0.87287 0.51655 0.0
H295 H 0.80474 0.85579 0.49673 0.0
C296 C 0.75513 0.8181 0.61645 0.0
C297 C 0.75624 0.79303 0.59724 0.0
C298 C 0.77614 0.84096 0.61239 0.0
C299 C 0.79829 0.83906 0.58892 0.0
C300 C 0.79964 0.81376 0.57052 0.0
H301 H 0.94081 0.93572 0.49654 0.0
H302 H 0.90011 0.90326 0.51243 0.0
C303 C 0.77878 0.79107 0.5745 0.0
C304 C 0.82042 0.86312 0.58351 0.0
H305 H 0.84675 0.91159 0.51098 0.0
C306 C 0.842 0.86767 0.61654 0.0
C307 C 0.82198 0.8795 0.54517 0.0
C308 C 0.79906 0.8759 0.5087 0.0
C309 C 0.86623 0.88684 0.61186 0.0
C310 C 0.86826 0.90284 0.57313 0.0
C311 C 0.84566 0.89923 0.54057 0.0
C312 C 0.89412 0.9222 0.5649 0.0
C313 C 0.89005 0.88825 0.64821 0.0
C314 C 0.90464 0.944 0.5887 0.0
C315 C 0.9295 0.96118 0.58128 0.0
C316 C 0.94355 0.95814 0.54854 0.0
C317 C 0.93178 0.93769 0.52323 0.0
C318 C 0.90789 0.91948 0.53185 0.0
H319 H 0.88984 0.86818 0.67151 0.0
H320 H 0.91262 0.89016 0.64002 0.0
H321 H 0.88579 0.90795 0.66199 0.0
H322 H 0.89365 0.94792 0.61303 0.0
H323 H 0.93734 0.97725 0.6009 0.0
H324 H 0.73152 0.26263 0.99517 0.0
H325 H 0.70013 0.30708 0.98969 0.0
H326 H 0.6575 0.26279 0.08586 0.0
H327 H 0.6891 0.21865 0.09196 0.0
H328 H 0.63654 0.31462 0.97615 0.0
H329 H 0.68937 0.33982 0.1258 0.0
H330 H 0.70571 0.31408 0.10031 0.0
H331 H 0.67547 0.30249 0.12658 0.0
C332 C 0.71539 0.26237 0.01503 0.0
C333 C 0.71291 0.23731 0.04433 0.0
C334 C 0.69746 0.28774 0.01183 0.0
C335 C 0.67689 0.28842 0.03789 0.0
C336 C 0.67369 0.26299 0.06607 0.0
H337 H 0.55732 0.41527 0.09346 0.0
H338 H 0.58851 0.37242 0.09058 0.0
C339 C 0.69166 0.23777 0.06943 0.0
C340 C 0.65918 0.31583 0.03655 0.0
H341 H 0.64552 0.36723 0.09413 0.0
C342 C 0.63856 0.32631 1.00178 0.0
C343 C 0.66193 0.33101 0.07004 0.0
C344 C 0.6845 0.32149 0.10769 0.0
C345 C 0.61972 0.35089 1.00018 0.0
C346 C 0.62222 0.36589 0.03397 0.0
C347 C 0.64338 0.3557 0.06834 0.0
C348 C 0.60287 0.39179 0.03494 0.0
C349 C 0.59666 0.35973 0.96284 0.0
C350 C 0.60076 0.41715 0.00498 0.0
C351 C 0.58236 0.44123 0.00613 0.0
C352 C 0.56658 0.44083 0.038 0.0
C353 C 0.5694 0.41604 0.06869 0.0
C354 C 0.58717 0.3916 0.06697 0.0
H355 H 0.59161 0.34095 0.94555 0.0
H356 H 0.57556 0.36728 0.97037 0.0
H357 H 0.6054 0.37832 0.94295 0.0
H358 H 0.61348 0.41846 0.98082 0.0
H359 H 0.58084 0.46042 0.98248 0.0
H360 H 0.21524 0.83973 0.12423 0.0
H361 H 0.19523 0.85626 0.17935 0.0
H362 H 0.20672 0.94811 0.12823 0.0
H363 H 0.2263 0.93173 0.07284 0.0
H364 H 0.21655 0.89379 0.23738 0.0
H365 H 0.11705 0.94232 0.12958 0.0
H366 H 0.14291 0.91755 0.11628 0.0
H367 H 0.15219 0.95608 0.11779 0.0
C368 C 0.21402 0.86342 0.12525 0.0
C369 C 0.22201 0.88449 0.09414 0.0
C370 C 0.20254 0.87283 0.15663 0.0
C371 C 0.19899 0.9034 0.15741 0.0
C372 C 0.20869 0.92442 0.12771 0.0
H373 H 0.09435 0.99425 0.29288 0.0
H374 H 0.1318 0.98391 0.25302 0.0
C375 C 0.21992 0.91506 0.09619 0.0
C376 C 0.18332 0.91325 0.18766 0.0
H377 H 0.12009 0.94877 0.19692 0.0
C378 C 0.1955 0.90591 0.22864 0.0
C379 C 0.15587 0.92905 0.17609 0.0
C380 C 0.14103 0.93653 0.1326 0.0
C381 C 0.18099 0.91411 0.25844 0.0
C382 C 0.1533 0.92951 0.24685 0.0
C383 C 0.14141 0.93715 0.20581 0.0
C384 C 0.1351 0.93657 0.2763 0.0
C385 C 0.1956 0.90643 0.30192 0.0
C386 C 0.125 0.91355 0.30327 0.0
C387 C 0.10378 0.91953 0.32614 0.0
C388 C 0.09222 0.94853 0.32205 0.0
C389 C 0.10312 0.97176 0.29641 0.0
C390 C 0.12445 0.96584 0.27375 0.0
H391 H 0.22017 0.90409 0.30491 0.0
H392 H 0.19072 0.92365 0.31966 0.0
H393 H 0.18695 0.88472 0.31502 0.0
H394 H 0.13229 0.89071 0.3051 0.0
H395 H 0.09542 0.90131 0.34563 0.0
H396 H 0.67488 0.658 0.69859 0.0
H397 H 0.65533 0.63029 0.75625 0.0
H398 H 0.59362 0.70253 0.75055 0.0
H399 H 0.61331 0.73028 0.69285 0.0
H400 H 0.65082 0.64823 0.83296 0.0
H401 H 0.54064 0.62699 0.74339 0.0
H402 H 0.5726 0.63886 0.72038 0.0
H403 H 0.55207 0.66534 0.73914 0.0
C404 C 0.65737 0.66799 0.71007 0.0
C405 C 0.64559 0.69619 0.6917 0.0
C406 C 0.6462 0.6522 0.74283 0.0
C407 C 0.62279 0.6642 0.75734 0.0
C408 C 0.61143 0.69272 0.73948 0.0
H409 H 0.51296 0.59231 0.93345 0.0
H410 H 0.5351 0.62231 0.88014 0.0
C411 C 0.62277 0.70862 0.70684 0.0
C412 C 0.61007 0.64663 0.79083 0.0
H413 H 0.54711 0.61088 0.81344 0.0
C414 C 0.62814 0.64004 0.82882 0.0
C415 C 0.58048 0.63604 0.78525 0.0
C416 C 0.5603 0.6419 0.74481 0.0
C417 C 0.61724 0.62369 0.86173 0.0
C418 C 0.5877 0.61269 0.85613 0.0
C419 C 0.56971 0.61924 0.81792 0.0
C420 C 0.5748 0.59467 0.8894 0.0
C421 C 0.6373 0.61927 0.90233 0.0
C422 C 0.58956 0.56899 0.91246 0.0
C423 C 0.57729 0.55233 0.94368 0.0
C424 C 0.54947 0.56034 0.95142 0.0
C425 C 0.53438 0.58557 0.92791 0.0
C426 C 0.54703 0.60269 0.89744 0.0
H427 H 0.6546 0.63682 0.90423 0.0
H428 H 0.62441 0.61957 0.92698 0.0
H429 H 0.64902 0.59741 0.90713 0.0
H430 H 0.61043 0.56157 0.90608 0.0
H431 H 0.5892 0.53274 0.96111 0.0
H432 H 0.869 0.13654 0.094 0.0
H433 H 0.89693 0.11512 0.15955 0.0
H434 H 0.81688 0.11446 0.211 0.0
H435 H 0.78837 0.1349 0.14483 0.0
H436 H 0.9062 0.13654 0.2312 0.0
H437 H 0.84655 0.02851 0.24586 0.0
H438 H 0.84291 0.05401 0.19899 0.0
H439 H 0.82288 0.06095 0.23755 0.0
C440 C 0.85717 0.13147 0.11908 0.0
C441 C 0.8263 0.13699 0.11396 0.0
C442 C 0.87326 0.11946 0.15666 0.0
C443 C 0.85894 0.11267 0.19006 0.0
C444 C 0.82828 0.11891 0.18544 0.0
H445 H 0.92098 0.0405 0.43984 0.0
H446 H 0.89263 0.06254 0.37472 0.0
C447 C 0.81208 0.1309 0.14771 0.0
C448 C 0.87636 0.09923 0.22956 0.0
H449 H 0.88205 0.03732 0.30205 0.0
C450 C 0.901 0.1148 0.24663 0.0
C451 C 0.86956 0.07082 0.24962 0.0
C452 C 0.84421 0.05242 0.23199 0.0
C453 C 0.91877 0.10292 0.28344 0.0
C454 C 0.91197 0.07454 0.30343 0.0
C455 C 0.88729 0.05901 0.2865 0.0
C456 C 0.92948 0.06107 0.34277 0.0
C457 C 0.94427 0.12107 0.30122 0.0
C458 C 0.95949 0.05247 0.34645 0.0
C459 C 0.97579 0.04029 0.3841 0.0
C460 C 0.96225 0.03666 0.4184 0.0
C461 C 0.93209 0.04426 0.41427 0.0
C462 C 0.91583 0.05645 0.37691 0.0
H463 H 0.94329 0.1446 0.28573 0.0
H464 H 0.9442 0.12091 0.33371 0.0
H465 H 0.96569 0.11105 0.29835 0.0
H466 H 0.97028 0.05527 0.32029 0.0
H467 H 0.99904 0.03427 0.38657 0.0
H468 H 0.40328 0.35889 0.50292 0.0
H469 H 0.42266 0.37728 0.56451 0.0
H470 H 0.38723 0.30076 0.63267 0.0
H471 H 0.37201 0.27949 0.5717 0.0
H472 H 0.39553 0.39596 0.61208 0.0
H473 H 0.46387 0.30116 0.70343 0.0
H474 H 0.4488 0.30154 0.65102 0.0
H475 H 0.42582 0.29109 0.68887 0.0
C476 C 0.40068 0.34498 0.53085 0.0
C477 C 0.3863 0.31717 0.53153 0.0
C478 C 0.41138 0.35599 0.56636 0.0
C479 C 0.40699 0.34027 0.60366 0.0
C480 C 0.39199 0.31292 0.60463 0.0
H481 H 0.42034 0.41034 0.82732 0.0
H482 H 0.41411 0.37552 0.77836 0.0
C483 C 0.38248 0.30114 0.5692 0.0
C484 C 0.41643 0.35386 0.64068 0.0
H485 H 0.45478 0.34129 0.73734 0.0
C486 C 0.40876 0.38393 0.6392 0.0
C487 C 0.43343 0.33822 0.67652 0.0
C488 C 0.44369 0.30632 0.67996 0.0
C489 C 0.41784 0.39888 0.67194 0.0
C490 C 0.4348 0.38331 0.70755 0.0
C491 C 0.44192 0.35309 0.70978 0.0
C492 C 0.44478 0.39858 0.74255 0.0
C493 C 0.40917 0.43135 0.66816 0.0
C494 C 0.46535 0.42189 0.73971 0.0
C495 C 0.46878 0.44174 0.76738 0.0
C496 C 0.45202 0.43822 0.79851 0.0
C497 C 0.43374 0.41315 0.80375 0.0
C498 C 0.43013 0.39337 0.77582 0.0
H499 H 0.39119 0.43831 0.642 0.0
H500 H 0.4016 0.43581 0.69583 0.0
H501 H 0.4289 0.44545 0.66397 0.0
H502 H 0.47692 0.42612 0.71427 0.0
H503 H 0.48275 0.46112 0.76271 0.0
H504 H 0.68771 0.70152 0.52779 0.0
H505 H 0.67021 0.68156 0.4656 0.0
H506 H 0.58006 0.68114 0.48854 0.0
H507 H 0.59734 0.70161 0.55069 0.0
H508 H 0.63879 0.6258 0.4629 0.0
H509 H 0.5739 0.72236 0.36836 0.0
H510 H 0.60223 0.72654 0.41117 0.0
H511 H 0.56656 0.71159 0.41871 0.0
C512 C 0.66407 0.6977 0.5193 0.0
C513 C 0.64389 0.70326 0.54414 0.0
C514 C 0.65414 0.68617 0.48383 0.0
C515 C 0.62381 0.68022 0.47221 0.0
C516 C 0.6035 0.68602 0.49664 0.0
H517 H 0.54905 0.56529 0.30078 0.0
H518 H 0.55282 0.59947 0.35035 0.0
C519 C 0.61345 0.69742 0.53231 0.0
C520 C 0.61397 0.66601 0.43599 0.0
H521 H 0.57345 0.6776 0.3406 0.0
C522 C 0.62447 0.6371 0.43622 0.0
C523 C 0.59524 0.68084 0.40126 0.0
C524 C 0.58388 0.71214 0.39945 0.0
C525 C 0.61682 0.62262 0.40263 0.0
C526 C 0.59834 0.63746 0.36776 0.0
C527 C 0.5876 0.66632 0.36745 0.0
C528 C 0.59096 0.62295 0.33145 0.0
C529 C 0.6287 0.59151 0.40433 0.0
C530 C 0.61034 0.62579 0.30335 0.0
C531 C 0.60813 0.60638 0.27497 0.0
C532 C 0.58645 0.58398 0.27431 0.0
C533 C 0.5656 0.58274 0.30034 0.0
C534 C 0.56779 0.60217 0.32867 0.0
H535 H 0.64305 0.58313 0.43361 0.0
H536 H 0.60983 0.57592 0.39939 0.0
H537 H 0.64186 0.59125 0.37994 0.0
H538 H 0.62855 0.64149 0.30535 0.0
H539 H 0.62477 0.60734 0.25571 0.0
H540 H 0.83572 0.18122 0.94953 0.0
H541 H 0.85683 0.16218 0.89692 0.0
H542 H 0.81201 0.07848 0.9217 0.0
H543 H 0.79129 0.09736 0.97497 0.0
H544 H 0.89252 0.10224 0.91727 0.0
H545 H 0.79506 0.11028 0.7922 0.0
H546 H 0.79819 0.134 0.83046 0.0
H547 H 0.79004 0.09519 0.84268 0.0
C548 C 0.82997 0.15901 0.94309 0.0
C549 C 0.81177 0.14076 0.96573 0.0
C550 C 0.84206 0.14814 0.91329 0.0
C551 C 0.83575 0.11906 0.90538 0.0
C552 C 0.81687 0.10106 0.92723 0.0
H553 H 0.94093 0.02627 0.76991 0.0
H554 H 0.90571 0.03513 0.81391 0.0
C555 C 0.80509 0.1118 0.95747 0.0
C556 C 0.85075 0.10706 0.87622 0.0
H557 H 0.84081 0.09359 0.77936 0.0
C558 C 0.88121 0.10002 0.88726 0.0
C559 C 0.83575 0.10417 0.83726 0.0
C560 C 0.80295 0.11134 0.82456 0.0
C561 C 0.89735 0.09083 0.85989 0.0
C562 C 0.8826 0.08878 0.82048 0.0
C563 C 0.85195 0.09519 0.80965 0.0
C564 C 0.8995 0.08209 0.7897 0.0
C565 C 0.93032 0.08439 0.87272 0.0
C566 C 0.90672 0.10535 0.76074 0.0
C567 C 0.92656 0.10027 0.73553 0.0
C568 C 0.93947 0.0719 0.73915 0.0
C569 C 0.93119 0.04832 0.76683 0.0
C570 C 0.91116 0.05334 0.79181 0.0
H571 H 0.93888 0.08951 0.90333 0.0
H572 H 0.93476 0.06042 0.87264 0.0
H573 H 0.94295 0.09768 0.85111 0.0
H574 H 0.89809 0.12772 0.75896 0.0
H575 H 0.93291 0.11877 0.71455 0.0
H576 H 0.37866 0.28792 0.34995 0.0
H577 H 0.39814 0.31526 0.29183 0.0
H578 H 0.41195 0.39271 0.35084 0.0
H579 H 0.39149 0.36655 0.40761 0.0
H580 H 0.37713 0.38039 0.2457 0.0
H581 H 0.49583 0.36677 0.32078 0.0
H582 H 0.46718 0.34108 0.3346 0.0
H583 H 0.46961 0.37711 0.35016 0.0
C584 C 0.38552 0.31086 0.35035 0.0
C585 C 0.38406 0.3247 0.38401 0.0
C586 C 0.39678 0.32637 0.31725 0.0
C587 C 0.40691 0.35579 0.31752 0.0
C588 C 0.40468 0.36987 0.35039 0.0
H589 H 0.48647 0.49533 0.16617 0.0
H590 H 0.46655 0.46431 0.221 0.0
C591 C 0.39318 0.35466 0.38301 0.0
C592 C 0.41997 0.37226 0.28379 0.0
H593 H 0.48565 0.40068 0.25958 0.0
C594 C 0.40087 0.38454 0.24842 0.0
C595 C 0.45089 0.37797 0.28787 0.0
C596 C 0.47224 0.36495 0.32526 0.0
C597 C 0.41193 0.40285 0.21715 0.0
C598 C 0.44284 0.40864 0.2213 0.0
C599 C 0.46195 0.39621 0.25659 0.0
C600 C 0.45573 0.42711 0.18882 0.0
C601 C 0.39047 0.41653 0.18023 0.0
C602 C 0.45697 0.41608 0.15317 0.0
C603 C 0.46885 0.43343 0.12226 0.0
C604 C 0.47902 0.4625 0.1258 0.0
C605 C 0.47835 0.47326 0.16204 0.0
C606 C 0.46699 0.45559 0.19341 0.0
H607 H 0.36692 0.41459 0.18487 0.0
H608 H 0.39554 0.44049 0.17167 0.0
H609 H 0.39292 0.40496 0.1547 0.0
H610 H 0.44891 0.39392 0.14937 0.0
H611 H 0.47023 0.42386 0.09574 0.0
H612 H 0.23897 0.88938 0.91155 0.0
H613 H 0.20939 0.90959 0.84611 0.0
H614 H 0.13237 0.91582 0.9019 0.0
H615 H 0.16107 0.89441 0.96698 0.0
H616 H 0.14592 0.88376 0.8113 0.0
H617 H 0.15107 1.0028 0.83395 0.0
H618 H 0.17975 0.97583 0.85892 0.0
H619 H 0.14437 0.97494 0.87524 0.0
C620 C 0.21566 0.89471 0.90993 0.0
C621 C 0.20252 0.89041 0.94476 0.0
C622 C 0.1989 0.90643 0.87256 0.0
C623 C 0.16889 0.91437 0.86951 0.0
C624 C 0.15564 0.91007 0.90393 0.0
H625 H 0.03123 0.99665 0.67534 0.0
H626 H 0.06072 0.97675 0.74123 0.0
C627 C 0.17221 0.89806 0.94115 0.0
C628 C 0.15107 0.92682 0.83028 0.0
H629 H 0.12021 0.99172 0.77526 0.0
C630 C 0.14036 0.90735 0.80322 0.0
C631 C 0.14379 0.95754 0.82029 0.0
C632 C 0.15538 0.97919 0.8484 0.0
C633 C 0.12215 0.91787 0.76627 0.0
C634 C 0.11498 0.94868 0.75611 0.0
C635 C 0.12567 0.96811 0.7833 0.0
C636 C 0.09731 0.9613 0.71672 0.0
C637 C 0.11031 0.89588 0.73871 0.0
C638 C 0.10856 0.96001 0.68146 0.0
C639 C 0.09196 0.9716 0.64417 0.0
C640 C 0.06375 0.98445 0.64118 0.0
C641 C 0.05287 0.98665 0.67665 0.0
C642 C 0.06959 0.9752 0.71421 0.0
H643 H 0.11148 0.87257 0.75501 0.0
H644 H 0.08682 0.90127 0.72435 0.0
H645 H 0.12389 0.89705 0.71452 0.0
H646 H 0.13032 0.95023 0.68279 0.0
H647 H 0.10151 0.97106 0.61779 0.0
loop_
_geom_bond_atom_site_label_1
_geom_bond_atom_site_label_2
_geom_bond_distance
_geom_bond_site_symmetry_2
_ccdc_geom_bond_type
H0 C5 0.930 . S
H1 C8 0.930 . S
H2 C10 0.930 . S
H3 C4 1.016 . S
C4 H3 1.016 . S
C4 N11 1.286 . S
C5 H0 0.930 . S
C5 C6 1.397 . S
C5 C7 1.361 1_556 S
C6 C5 1.397 . S
C6 C10 1.390 1_556 S
C7 C5 1.361 1_554 S
C7 C8 1.393 . S
C7 N11 1.413 . S
C8 H1 0.930 . S
C8 C7 1.393 . S
C8 C9 1.399 . S
C9 C8 1.399 . S
C9 C10 1.381 . S
C10 H2 0.930 . S
C10 C6 1.390 1_554 S
C10 C9 1.381 . S
N11 C4 1.286 . S
N11 C7 1.413 . S
H12 C17 0.930 . S
H13 C20 0.930 . S
H14 C22 0.930 . S
H15 C16 1.016 . S
C16 H15 1.016 . S
C16 N23 1.286 . S
C17 H12 0.930 . S
C17 C18 1.397 . S
C17 C19 1.361 . S
C18 C17 1.397 . S
C18 C22 1.390 . S
C19 C17 1.361 . S
C19 C20 1.393 . S
C19 N23 1.413 . S
C20 H13 0.930 . S
C20 C19 1.393 . S
C20 C21 1.399 . S
C21 C20 1.399 . S
C21 C22 1.381 . S
C22 H14 0.930 . S
C22 C18 1.390 . S
C22 C21 1.381 . S
N23 C16 1.286 . S
N23 C19 1.413 . S
H24 C29 0.930 . S
H25 C32 0.930 . S
H26 C34 0.930 . S
H27 C28 1.016 . S
C28 H27 1.016 . S
C28 N35 1.286 . S
C29 H24 0.930 . S
C29 C30 1.397 . S
C29 C31 1.361 1_556 S
C30 C29 1.397 . S
C30 C34 1.390 1_556 S
C31 C29 1.361 1_554 S
C31 C32 1.393 . S
C31 N35 1.413 . S
C32 H25 0.930 . S
C32 C31 1.393 . S
C32 C33 1.399 . S
C33 C32 1.399 . S
C33 C34 1.381 . S
C34 H26 0.930 . S
C34 C30 1.390 1_554 S
C34 C33 1.381 . S
N35 C28 1.286 . S
N35 C31 1.413 . S
H36 C41 0.930 . S
H37 C44 0.930 . S
H38 C46 0.930 . S
H39 C40 1.016 . S
C40 H39 1.016 . S
C40 N47 1.286 . S
C41 H36 0.930 . S
C41 C42 1.397 . S
C41 C43 1.361 . S
C42 C41 1.397 . S
C42 C46 1.390 . S
C43 C41 1.361 . S
C43 C44 1.393 . S
C43 N47 1.413 . S
C44 H37 0.930 . S
C44 C43 1.393 . S
C44 C45 1.399 . S
C45 C44 1.399 . S
C45 C46 1.381 . S
C46 H38 0.930 . S
C46 C42 1.390 . S
C46 C45 1.381 . S
N47 C40 1.286 . S
N47 C43 1.413 . S
Eu48 N77 2.600 . S
Eu48 N83 2.562 . S
Eu48 O92 2.462 . S
Eu48 O93 2.373 . S
Eu48 O95 2.432 . S
Eu48 O96 2.291 1_565 S
Eu48 O100 2.335 1_465 S
Eu48 O103 2.372 1_455 S
Eu48 C112 2.787 . S
C49 N50 1.365 . S
C49 C52 1.405 . S
C49 C56 1.448 . S
N50 C49 1.365 . S
N50 C53 1.319 1_655 S
N50 Eu59 2.600 . S
C51 C53 1.397 . S
C51 C54 1.367 1_455 S
C51 H71 0.931 . S
C52 C49 1.405 . S
C52 C54 1.403 . S
C52 C58 1.439 . S
C53 N50 1.319 1_455 S
C53 C51 1.397 . S
C53 H64 0.930 . S
C54 C51 1.367 1_655 S
C54 C52 1.403 . S
C54 H75 0.929 . S
C55 C56 1.430 . S
C55 C57 1.387 . S
C55 C61 1.404 . S
C56 C49 1.448 . S
C56 C55 1.430 . S
C56 N60 1.351 . S
C57 C55 1.387 . S
C57 C58 1.374 . S
C57 H72 0.931 . S
C58 C52 1.439 . S
C58 C57 1.374 . S
C58 H73 0.931 . S
Eu59 N50 2.600 . S
Eu59 N60 2.562 . S
Eu59 O94 2.335 1_655 S
Eu59 O97 2.372 1_655 S
Eu59 O98 2.462 . S
Eu59 O99 2.373 . S
Eu59 O101 2.432 . S
Eu59 O102 2.291 1_545 S
Eu59 C123 2.787 . S
N60 C56 1.351 . S
N60 Eu59 2.562 . S
N60 C62 1.325 . S
C61 C55 1.404 . S
C61 C63 1.366 . S
C61 H69 0.930 . S
C62 N60 1.325 . S
C62 C63 1.416 . S
C62 H68 0.929 . S
C63 C61 1.366 . S
C63 C62 1.416 . S
C63 H65 0.930 . S
H64 C53 0.930 . S
H65 C63 0.930 . S
H66 C81 0.930 1_655 S
H67 C88 0.930 . S
H68 C62 0.929 . S
H69 C61 0.930 . S
H70 C84 0.929 . S
H71 C51 0.931 . S
H72 C57 0.931 . S
H73 C58 0.931 . S
H74 C79 0.931 1_655 S
H75 C54 0.929 . S
H76 C87 0.930 . S
N77 Eu48 2.600 . S
N77 C78 1.365 . S
N77 C81 1.319 . S
C78 N77 1.365 . S
C78 C80 1.405 . S
C78 C86 1.448 . S
C79 H74 0.931 1_455 S
C79 C81 1.397 . S
C79 C82 1.367 . S
C80 C78 1.405 . S
C80 C82 1.403 . S
C80 C113 1.439 . S
C81 H66 0.930 1_455 S
C81 N77 1.319 . S
C81 C79 1.397 . S
C82 C79 1.367 . S
C82 C80 1.403 . S
C82 H89 0.929 . S
N83 Eu48 2.562 . S
N83 C84 1.325 . S
N83 C86 1.351 . S
C84 H70 0.929 . S
C84 N83 1.325 . S
C84 C88 1.416 . S
C85 C86 1.430 . S
C85 C87 1.404 . S
C85 C114 1.387 . S
C86 C78 1.448 . S
C86 N83 1.351 . S
C86 C85 1.430 . S
C87 H76 0.930 . S
C87 C85 1.404 . S
C87 C88 1.366 . S
C88 H67 0.930 . S
C88 C84 1.416 . S
C88 C87 1.366 . S
H89 C82 0.929 . S
H90 C113 0.931 . S
H91 C114 0.931 . S
O92 Eu48 2.462 . S
O92 C112 1.252 . S
O93 Eu48 2.373 . S
O93 C104 1.249 . S
O94 Eu59 2.335 1_455 S
O94 C104 1.264 1_545 S
O95 Eu48 2.432 . S
O95 C112 1.268 . S
O96 Eu48 2.291 1_545 S
O96 C111 1.255 . S
O97 Eu59 2.372 1_455 S
O97 C111 1.257 . S
O98 Eu59 2.462 . S
O98 C123 1.252 . S
O99 Eu59 2.373 . S
O99 C115 1.249 . S
O100 Eu48 2.335 1_645 S
O100 C115 1.264 . S
O101 Eu59 2.432 . S
O101 C123 1.268 . S
O102 Eu59 2.291 1_565 S
O102 C122 1.255 . S
O103 Eu48 2.372 1_655 S
O103 C122 1.257 . S
C104 O93 1.249 . S
C104 O94 1.264 1_565 S
C105 C108 1.382 . S
C105 C110 1.390 . S
C105 C112 1.506 . S
C106 C107 1.398 . S
C106 C110 1.392 . S
C107 C106 1.398 . S
C107 C109 1.372 . S
C107 H124 0.931 . S
C108 C105 1.382 . S
C108 C109 1.390 . S
C108 H125 0.931 . S
C109 C107 1.372 . S
C109 C108 1.390 . S
C109 H126 0.929 . S
C110 C105 1.390 . S
C110 C106 1.392 . S
C110 H127 0.930 . S
C111 O96 1.255 . S
C111 O97 1.257 . S
C112 Eu48 2.787 . S
C112 O92 1.252 . S
C112 O95 1.268 . S
C112 C105 1.506 . S
C113 C80 1.439 . S
C113 H90 0.931 . S
C113 C114 1.374 . S
C114 C85 1.387 . S
C114 H91 0.931 . S
C114 C113 1.374 . S
C115 O99 1.249 . S
C115 O100 1.264 . S
C116 C119 1.382 . S
C116 C120 1.390 . S
C116 C123 1.506 . S
C117 C118 1.398 . S
C117 C120 1.392 . S
C118 C117 1.398 . S
C118 C121 1.372 . S
C118 H128 0.931 . S
C119 C116 1.382 . S
C119 C121 1.390 . S
C119 H129 0.931 . S
C120 C116 1.390 . S
C120 C117 1.392 . S
C120 H130 0.930 . S
C121 C118 1.372 . S
C121 C119 1.390 . S
C121 H131 0.929 . S
C122 O102 1.255 . S
C122 O103 1.257 . S
C123 Eu59 2.787 . S
C123 O98 1.252 . S
C123 O101 1.268 . S
C123 C116 1.506 . S
H124 C107 0.931 . S
H125 C108 0.931 . S
H126 C109 0.929 . S
H127 C110 0.930 . S
H128 C118 0.931 . S
H129 C119 0.931 . S
H130 C120 0.930 . S
H131 C121 0.929 . S
Eu132 N161 2.602 . S
Eu132 N167 2.562 1_556 S
Eu132 O176 2.462 . S
Eu132 O177 2.373 1_556 S
Eu132 O179 2.432 . S
Eu132 O180 2.291 1_556 S
Eu132 O184 2.335 . S
Eu132 O187 2.372 1_556 S
Eu132 C196 2.787 . S
C133 N134 1.365 . S
C133 C136 1.405 . S
C133 C140 1.448 . S
N134 C133 1.365 . S
N134 C137 1.319 . S
N134 Eu143 2.600 . S
C135 C137 1.397 . S
C135 C138 1.367 . S
C135 H155 0.931 . S
C136 C133 1.405 . S
C136 C138 1.403 . S
C136 C142 1.439 . S
C137 N134 1.319 . S
C137 C135 1.397 . S
C137 H148 0.930 . S
C138 C135 1.367 . S
C138 C136 1.403 . S
C138 H159 0.929 . S
C139 C140 1.430 . S
C139 C141 1.387 . S
C139 C145 1.404 . S
C140 C133 1.448 . S
C140 C139 1.430 . S
C140 N144 1.351 . S
C141 C139 1.387 . S
C141 C142 1.374 . S
C141 H156 0.931 . S
C142 C136 1.439 . S
C142 C141 1.374 . S
C142 H157 0.931 . S
Eu143 N134 2.600 . S
Eu143 N144 2.562 . S
Eu143 O178 2.335 . S
Eu143 O181 2.372 . S
Eu143 O182 2.462 . S
Eu143 O183 2.373 . S
Eu143 O185 2.432 . S
Eu143 O186 2.291 . S
Eu143 C207 2.787 . S
N144 C140 1.351 . S
N144 Eu143 2.562 . S
N144 C146 1.325 . S
C145 C139 1.404 . S
C145 C147 1.366 . S
C145 H153 0.930 . S
C146 N144 1.325 . S
C146 C147 1.416 . S
C146 H152 0.929 . S
C147 C145 1.366 . S
C147 C146 1.416 . S
C147 H149 0.930 . S
H148 C137 0.930 . S
H149 C147 0.930 . S
H150 C165 0.930 . S
H151 C172 0.930 . S
H152 C146 0.929 . S
H153 C145 0.930 . S
H154 C168 0.929 . S
H155 C135 0.931 . S
H156 C141 0.931 . S
H157 C142 0.931 . S
H158 C163 0.931 . S
H159 C138 0.929 . S
H160 C171 0.930 . S
N161 Eu132 2.602 . S
N161 C162 1.362 1_556 S
N161 C165 1.318 . S
C162 N161 1.362 1_554 S
C162 C164 1.405 . S
C162 C170 1.448 . S
C163 H158 0.931 . S
C163 C165 1.397 . S
C163 C166 1.367 1_556 S
C164 C162 1.405 . S
C164 C166 1.403 . S
C164 C197 1.439 . S
C165 H150 0.930 . S
C165 N161 1.318 . S
C165 C163 1.397 . S
C166 C163 1.367 1_554 S
C166 C164 1.403 . S
C166 H173 0.929 . S
N167 Eu132 2.562 1_554 S
N167 C168 1.325 . S
N167 C170 1.351 . S
C168 H154 0.929 . S
C168 N167 1.325 . S
C168 C172 1.416 . S
C169 C170 1.430 . S
C169 C171 1.404 . S
C169 C198 1.387 . S
C170 C162 1.448 . S
C170 N167 1.351 . S
C170 C169 1.430 . S
C171 H160 0.930 . S
C171 C169 1.404 . S
C171 C172 1.366 . S
C172 H151 0.930 . S
C172 C168 1.416 . S
C172 C171 1.366 . S
H173 C166 0.929 . S
H174 C197 0.931 . S
H175 C198 0.931 . S
O176 Eu132 2.462 . S
O176 C196 1.252 . S
O177 Eu132 2.373 1_554 S
O177 C188 1.249 . S
O178 Eu143 2.335 . S
O178 C188 1.264 . S
O179 Eu132 2.432 . S
O179 C196 1.268 . S
O180 Eu132 2.291 1_554 S
O180 C195 1.255 . S
O181 Eu143 2.372 . S
O181 C195 1.257 . S
O182 Eu143 2.462 . S
O182 C207 1.252 . S
O183 Eu143 2.373 . S
O183 C199 1.249 1_554 S
O184 Eu132 2.335 . S
O184 C199 1.264 . S
O185 Eu143 2.432 . S
O185 C207 1.268 . S
O186 Eu143 2.291 . S
O186 C206 1.255 . S
O187 Eu132 2.372 1_554 S
O187 C206 1.257 . S
C188 O177 1.249 . S
C188 O178 1.264 . S
C189 C192 1.382 . S
C189 C194 1.390 . S
C189 C196 1.506 . S
C190 C191 1.398 . S
C190 C194 1.392 . S
C191 C190 1.398 . S
C191 C193 1.372 . S
C191 H208 0.931 . S
C192 C189 1.382 . S
C192 C193 1.390 . S
C192 H209 0.931 . S
C193 C191 1.372 . S
C193 C192 1.390 . S
C193 H210 0.929 . S
C194 C189 1.390 . S
C194 C190 1.392 . S
C194 H211 0.930 . S
C195 O180 1.255 . S
C195 O181 1.257 . S
C196 Eu132 2.787 . S
C196 O176 1.252 . S
C196 O179 1.268 . S
C196 C189 1.506 . S
C197 C164 1.439 . S
C197 H174 0.931 . S
C197 C198 1.374 . S
C198 C169 1.387 . S
C198 H175 0.931 . S
C198 C197 1.374 . S
C199 O183 1.249 1_556 S
C199 O184 1.264 . S
C200 C203 1.382 . S
C200 C204 1.390 . S
C200 C207 1.506 . S
C201 C202 1.398 . S
C201 C204 1.392 . S
C202 C201 1.398 . S
C202 C205 1.372 . S
C202 H212 0.931 . S
C203 C200 1.382 . S
C203 C205 1.390 . S
C203 H213 0.931 . S
C204 C200 1.390 . S
C204 C201 1.392 . S
C204 H214 0.930 . S
C205 C202 1.372 . S
C205 C203 1.390 . S
C205 H215 0.929 . S
C206 O186 1.255 . S
C206 O187 1.257 . S
C207 Eu143 2.787 . S
C207 O182 1.252 . S
C207 O185 1.268 . S
C207 C200 1.506 . S
H208 C191 0.931 . S
H209 C192 0.931 . S
H210 C193 0.929 . S
H211 C194 0.930 . S
H212 C202 0.931 . S
H213 C203 0.931 . S
H214 C204 0.930 . S
H215 C205 0.929 . S
H216 C224 0.929 . S
H217 C226 0.930 . S
H218 C228 0.930 . S
H219 C231 0.929 . S
H220 C234 0.930 . S
H221 C236 0.960 . S
H222 C236 0.960 . S
H223 C236 0.960 . S
C224 H216 0.929 . S
C224 C225 1.377 . S
C224 C226 1.384 . S
C225 C224 1.377 . S
C225 C231 1.390 . S
C226 H217 0.930 . S
C226 C224 1.384 . S
C226 C227 1.372 . S
C227 C226 1.372 . S
C227 C228 1.400 . S
C227 C232 1.490 . S
C228 H218 0.930 . S
C228 C227 1.400 . S
C228 C231 1.386 . S
H229 C245 0.930 . S
H230 C246 0.931 . S
C231 H219 0.929 . S
C231 C225 1.390 . S
C231 C228 1.386 . S
C232 C227 1.490 . S
C232 C234 1.395 . S
C232 C235 1.403 . S
H233 C239 0.930 . S
C234 H220 0.930 . S
C234 C232 1.395 . S
C234 C237 1.403 . S
C235 C232 1.403 . S
C235 C236 1.524 . S
C235 C239 1.400 . S
C236 H221 0.960 . S
C236 H222 0.960 . S
C236 H223 0.960 . S
C236 C235 1.524 . S
C237 C234 1.403 . S
C237 C238 1.392 . S
C237 C241 1.495 . S
C238 C237 1.392 . S
C238 C239 1.385 . S
C238 C240 1.478 . S
C239 H233 0.930 . S
C239 C235 1.400 . S
C239 C238 1.385 . S
C240 C238 1.478 . S
C240 C242 1.381 . S
C240 C246 1.383 . S
C241 C237 1.495 . S
C241 H247 0.959 . S
C241 H248 0.961 . S
C241 H249 0.960 . S
C242 C240 1.381 . S
C242 C243 1.394 . S
C242 H250 0.930 . S
C243 C242 1.394 . S
C243 C244 1.383 . S
C243 H251 0.929 . S
C244 C243 1.383 . S
C244 C245 1.377 . S
C245 H229 0.930 . S
C245 C244 1.377 . S
C245 C246 1.379 . S
C246 H230 0.931 . S
C246 C240 1.383 . S
C246 C245 1.379 . S
H247 C241 0.959 . S
H248 C241 0.961 . S
H249 C241 0.960 . S
H250 C242 0.930 . S
H251 C243 0.929 . S
H252 C260 0.929 . S
H253 C262 0.930 . S
H254 C264 0.930 1_556 S
H255 C267 0.929 1_556 S
H256 C270 0.930 . S
H257 C272 0.960 . S
H258 C272 0.960 . S
H259 C272 0.960 . S
C260 H252 0.929 . S
C260 C261 1.377 . S
C260 C262 1.384 . S
C261 C260 1.377 . S
C261 C267 1.390 . S
C262 H253 0.930 . S
C262 C260 1.384 . S
C262 C263 1.372 . S
C263 C262 1.372 . S
C263 C264 1.400 . S
C263 C268 1.490 . S
C264 H254 0.930 1_554 S
C264 C263 1.400 . S
C264 C267 1.386 . S
H265 C281 0.930 1_556 S
H266 C282 0.931 1_556 S
C267 H255 0.929 1_554 S
C267 C261 1.390 . S
C267 C264 1.386 . S
C268 C263 1.490 . S
C268 C270 1.395 . S
C268 C271 1.403 . S
H269 C275 0.930 . S
C270 H256 0.930 . S
C270 C268 1.395 . S
C270 C273 1.403 . S
C271 C268 1.403 . S
C271 C272 1.524 . S
C271 C275 1.400 . S
C272 H257 0.960 . S
C272 H258 0.960 . S
C272 H259 0.960 . S
C272 C271 1.524 . S
C273 C270 1.403 . S
C273 C274 1.392 . S
C273 C277 1.495 . S
C274 C273 1.392 . S
C274 C275 1.385 . S
C274 C276 1.478 . S
C275 H269 0.930 . S
C275 C271 1.400 . S
C275 C274 1.385 . S
C276 C274 1.478 . S
C276 C278 1.381 . S
C276 C282 1.383 . S
C277 C273 1.495 . S
C277 H283 0.959 . S
C277 H284 0.961 . S
C277 H285 0.960 . S
C278 C276 1.381 . S
C278 C279 1.394 . S
C278 H286 0.930 . S
C279 C278 1.394 . S
C279 C280 1.383 . S
C279 H287 0.929 . S
C280 C279 1.383 . S
C280 C281 1.377 . S
C281 H265 0.930 1_554 S
C281 C280 1.377 . S
C281 C282 1.379 . S
C282 H266 0.931 1_554 S
C282 C276 1.383 . S
C282 C281 1.379 . S
H283 C277 0.959 . S
H284 C277 0.961 . S
H285 C277 0.960 . S
H286 C278 0.930 . S
H287 C279 0.929 . S
H288 C296 0.929 . S
H289 C298 0.930 . S
H290 C300 0.930 . S
H291 C303 0.929 . S
H292 C306 0.930 . S
H293 C308 0.960 . S
H294 C308 0.960 . S
H295 C308 0.960 . S
C296 H288 0.929 . S
C296 C297 1.377 . S
C296 C298 1.384 . S
C297 C296 1.377 . S
C297 C303 1.390 . S
C298 H289 0.930 . S
C298 C296 1.384 . S
C298 C299 1.372 . S
C299 C298 1.372 . S
C299 C300 1.400 . S
C299 C304 1.490 . S
C300 H290 0.930 . S
C300 C299 1.400 . S
C300 C303 1.386 . S
H301 C317 0.930 . S
H302 C318 0.931 . S
C303 H291 0.929 . S
C303 C297 1.390 . S
C303 C300 1.386 . S
C304 C299 1.490 . S
C304 C306 1.395 . S
C304 C307 1.403 . S
H305 C311 0.930 . S
C306 H292 0.930 . S
C306 C304 1.395 . S
C306 C309 1.403 . S
C307 C304 1.403 . S
C307 C308 1.524 . S
C307 C311 1.400 . S
C308 H293 0.960 . S
C308 H294 0.960 . S
C308 H295 0.960 . S
C308 C307 1.524 . S
C309 C306 1.403 . S
C309 C310 1.392 . S
C309 C313 1.495 . S
C310 C309 1.392 . S
C310 C311 1.385 . S
C310 C312 1.478 . S
C311 H305 0.930 . S
C311 C307 1.400 . S
C311 C310 1.385 . S
C312 C310 1.478 . S
C312 C314 1.381 . S
C312 C318 1.383 . S
C313 C309 1.495 . S
C313 H319 0.959 . S
C313 H320 0.961 . S
C313 H321 0.960 . S
C314 C312 1.381 . S
C314 C315 1.394 . S
C314 H322 0.930 . S
C315 C314 1.394 . S
C315 C316 1.383 . S
C315 H323 0.929 . S
C316 C315 1.383 . S
C316 C317 1.377 . S
C317 H301 0.930 . S
C317 C316 1.377 . S
C317 C318 1.379 . S
C318 H302 0.931 . S
C318 C312 1.383 . S
C318 C317 1.379 . S
H319 C313 0.959 . S
H320 C313 0.961 . S
H321 C313 0.960 . S
H322 C314 0.930 . S
H323 C315 0.929 . S
H324 C332 0.929 . S
H325 C334 0.930 . S
H326 C336 0.930 . S
H327 C339 0.929 . S
H328 C342 0.930 . S
H329 C344 0.960 . S
H330 C344 0.960 . S
H331 C344 0.960 . S
C332 H324 0.929 . S
C332 C333 1.377 1_556 S
C332 C334 1.384 . S
C333 C332 1.377 1_554 S
C333 C339 1.390 . S
C334 H325 0.930 . S
C334 C332 1.384 . S
C334 C335 1.372 1_556 S
C335 C334 1.372 1_554 S
C335 C336 1.400 . S
C335 C340 1.490 . S
C336 H326 0.930 . S
C336 C335 1.400 . S
C336 C339 1.386 . S
H337 C353 0.930 . S
H338 C354 0.931 . S
C339 H327 0.929 . S
C339 C333 1.390 . S
C339 C336 1.386 . S
C340 C335 1.490 . S
C340 C342 1.395 1_554 S
C340 C343 1.403 . S
H341 C347 0.930 . S
C342 H328 0.930 . S
C342 C340 1.395 1_556 S
C342 C345 1.403 . S
C343 C340 1.403 . S
C343 C344 1.524 . S
C343 C347 1.400 . S
C344 H329 0.960 . S
C344 H330 0.960 . S
C344 H331 0.960 . S
C344 C343 1.524 . S
C345 C342 1.403 . S
C345 C346 1.392 1_556 S
C345 C349 1.495 . S
C346 C345 1.392 1_554 S
C346 C347 1.385 . S
C346 C348 1.478 . S
C347 H341 0.930 . S
C347 C343 1.400 . S
C347 C346 1.385 . S
C348 C346 1.478 . S
C348 C350 1.379 1_554 S
C348 C354 1.383 . S
C349 C345 1.495 . S
C349 H355 0.959 . S
C349 H356 0.961 . S
C349 H357 0.960 . S
C350 C348 1.379 1_556 S
C350 C351 1.393 1_556 S
C350 H358 0.933 . S
C351 C350 1.393 1_554 S
C351 C352 1.383 . S
C351 H359 0.929 1_554 S
C352 C351 1.383 . S
C352 C353 1.377 . S
C353 H337 0.930 . S
C353 C352 1.377 . S
C353 C354 1.379 . S
C354 H338 0.931 . S
C354 C348 1.383 . S
C354 C353 1.379 . S
H355 C349 0.959 . S
H356 C349 0.961 . S
H357 C349 0.960 . S
H358 C350 0.933 . S
H359 C351 0.929 1_556 S
H360 C368 0.929 . S
H361 C370 0.930 . S
H362 C372 0.930 . S
H363 C375 0.929 . S
H364 C378 0.930 . S
H365 C380 0.960 . S
H366 C380 0.960 . S
H367 C380 0.960 . S
C368 H360 0.929 . S
C368 C369 1.377 . S
C368 C370 1.384 . S
C369 C368 1.377 . S
C369 C375 1.390 . S
C370 H361 0.930 . S
C370 C368 1.384 . S
C370 C371 1.372 . S
C371 C370 1.372 . S
C371 C372 1.400 . S
C371 C376 1.490 . S
C372 H362 0.930 . S
C372 C371 1.400 . S
C372 C375 1.386 . S
H373 C389 0.930 . S
H374 C390 0.931 . S
C375 H363 0.929 . S
C375 C369 1.390 . S
C375 C372 1.386 . S
C376 C371 1.490 . S
C376 C378 1.395 . S
C376 C379 1.403 . S
H377 C383 0.930 . S
C378 H364 0.930 . S
C378 C376 1.395 . S
C378 C381 1.403 . S
C379 C376 1.403 . S
C379 C380 1.524 . S
C379 C383 1.400 . S
C380 H365 0.960 . S
C380 H366 0.960 . S
C380 H367 0.960 . S
C380 C379 1.524 . S
C381 C378 1.403 . S
C381 C382 1.392 . S
C381 C385 1.495 . S
C382 C381 1.392 . S
C382 C383 1.385 . S
C382 C384 1.478 . S
C383 H377 0.930 . S
C383 C379 1.400 . S
C383 C382 1.385 . S
C384 C382 1.478 . S
C384 C386 1.381 . S
C384 C390 1.383 . S
C385 C381 1.495 . S
C385 H391 0.959 . S
C385 H392 0.961 . S
C385 H393 0.960 . S
C386 C384 1.381 . S
C386 C387 1.394 . S
C386 H394 0.930 . S
C387 C386 1.394 . S
C387 C388 1.383 . S
C387 H395 0.929 . S
C388 C387 1.383 . S
C388 C389 1.377 . S
C389 H373 0.930 . S
C389 C388 1.377 . S
C389 C390 1.379 . S
C390 H374 0.931 . S
C390 C384 1.383 . S
C390 C389 1.379 . S
H391 C385 0.959 . S
H392 C385 0.961 . S
H393 C385 0.960 . S
H394 C386 0.930 . S
H395 C387 0.929 . S
H396 C404 0.929 . S
H397 C406 0.930 . S
H398 C408 0.930 . S
H399 C411 0.929 . S
H400 C414 0.930 . S
H401 C416 0.960 . S
H402 C416 0.960 . S
H403 C416 0.960 . S
C404 H396 0.929 . S
C404 C405 1.377 . S
C404 C406 1.384 . S
C405 C404 1.377 . S
C405 C411 1.390 . S
C406 H397 0.930 . S
C406 C404 1.384 . S
C406 C407 1.372 . S
C407 C406 1.372 . S
C407 C408 1.400 . S
C407 C412 1.490 . S
C408 H398 0.930 . S
C408 C407 1.400 . S
C408 C411 1.386 . S
H409 C425 0.930 . S
H410 C426 0.931 . S
C411 H399 0.929 . S
C411 C405 1.390 . S
C411 C408 1.386 . S
C412 C407 1.490 . S
C412 C414 1.395 . S
C412 C415 1.403 . S
H413 C419 0.930 . S
C414 H400 0.930 . S
C414 C412 1.395 . S
C414 C417 1.403 . S
C415 C412 1.403 . S
C415 C416 1.524 . S
C415 C419 1.400 . S
C416 H401 0.960 . S
C416 H402 0.960 . S
C416 H403 0.960 . S
C416 C415 1.524 . S
C417 C414 1.403 . S
C417 C418 1.392 . S
C417 C421 1.495 . S
C418 C417 1.392 . S
C418 C419 1.385 . S
C418 C420 1.478 . S
C419 H413 0.930 . S
C419 C415 1.400 . S
C419 C418 1.385 . S
C420 C418 1.478 . S
C420 C422 1.381 . S
C420 C426 1.383 . S
C421 C417 1.495 . S
C421 H427 0.959 . S
C421 H428 0.961 . S
C421 H429 0.960 . S
C422 C420 1.381 . S
C422 C423 1.394 . S
C422 H430 0.930 . S
C423 C422 1.394 . S
C423 C424 1.383 . S
C423 H431 0.929 . S
C424 C423 1.383 . S
C424 C425 1.377 . S
C425 H409 0.930 . S
C425 C424 1.377 . S
C425 C426 1.379 . S
C426 H410 0.931 . S
C426 C420 1.383 . S
C426 C425 1.379 . S
H427 C421 0.959 . S
H428 C421 0.961 . S
H429 C421 0.960 . S
H430 C422 0.930 . S
H431 C423 0.929 . S
H432 C440 0.929 . S
H433 C442 0.930 . S
H434 C444 0.930 . S
H435 C447 0.929 . S
H436 C450 0.930 . S
H437 C452 0.960 . S
H438 C452 0.960 . S
H439 C452 0.960 . S
C440 H432 0.929 . S
C440 C441 1.377 . S
C440 C442 1.384 . S
C441 C440 1.377 . S
C441 C447 1.390 . S
C442 H433 0.930 . S
C442 C440 1.384 . S
C442 C443 1.372 . S
C443 C442 1.372 . S
C443 C444 1.400 . S
C443 C448 1.490 . S
C444 H434 0.930 . S
C444 C443 1.400 . S
C444 C447 1.386 . S
H445 C461 0.930 . S
H446 C462 0.931 . S
C447 H435 0.929 . S
C447 C441 1.390 . S
C447 C444 1.386 . S
C448 C443 1.490 . S
C448 C450 1.395 . S
C448 C451 1.403 . S
H449 C455 0.930 . S
C450 H436 0.930 . S
C450 C448 1.395 . S
C450 C453 1.403 . S
C451 C448 1.403 . S
C451 C452 1.524 . S
C451 C455 1.400 . S
C452 H437 0.960 . S
C452 H438 0.960 . S
C452 H439 0.960 . S
C452 C451 1.524 . S
C453 C450 1.403 . S
C453 C454 1.392 . S
C453 C457 1.495 . S
C454 C453 1.392 . S
C454 C455 1.385 . S
C454 C456 1.478 . S
C455 H449 0.930 . S
C455 C451 1.400 . S
C455 C454 1.385 . S
C456 C454 1.478 . S
C456 C458 1.381 . S
C456 C462 1.383 . S
C457 C453 1.495 . S
C457 H463 0.959 . S
C457 H464 0.961 . S
C457 H465 0.960 . S
C458 C456 1.381 . S
C458 C459 1.394 . S
C458 H466 0.930 . S
C459 C458 1.394 . S
C459 C460 1.383 . S
C459 H467 0.929 . S
C460 C459 1.383 . S
C460 C461 1.377 . S
C461 H445 0.930 . S
C461 C460 1.377 . S
C461 C462 1.379 . S
C462 H446 0.931 . S
C462 C456 1.383 . S
C462 C461 1.379 . S
H463 C457 0.959 . S
H464 C457 0.961 . S
H465 C457 0.960 . S
H466 C458 0.930 . S
H467 C459 0.929 . S
H468 C476 0.929 . S
H469 C478 0.930 . S
H470 C480 0.930 . S
H471 C483 0.929 . S
H472 C486 0.930 . S
H473 C488 0.960 . S
H474 C488 0.960 . S
H475 C488 0.960 . S
C476 H468 0.929 . S
C476 C477 1.377 . S
C476 C478 1.384 . S
C477 C476 1.377 . S
C477 C483 1.390 . S
C478 H469 0.930 . S
C478 C476 1.384 . S
C478 C479 1.372 . S
C479 C478 1.372 . S
C479 C480 1.400 . S
C479 C484 1.490 . S
C480 H470 0.930 . S
C480 C479 1.400 . S
C480 C483 1.386 . S
H481 C497 0.930 . S
H482 C498 0.931 . S
C483 H471 0.929 . S
C483 C477 1.390 . S
C483 C480 1.386 . S
C484 C479 1.490 . S
C484 C486 1.395 . S
C484 C487 1.403 . S
H485 C491 0.930 . S
C486 H472 0.930 . S
C486 C484 1.395 . S
C486 C489 1.403 . S
C487 C484 1.403 . S
C487 C488 1.524 . S
C487 C491 1.400 . S
C488 H473 0.960 . S
C488 H474 0.960 . S
C488 H475 0.960 . S
C488 C487 1.524 . S
C489 C486 1.403 . S
C489 C490 1.392 . S
C489 C493 1.495 . S
C490 C489 1.392 . S
C490 C491 1.385 . S
C490 C492 1.478 . S
C491 H485 0.930 . S
C491 C487 1.400 . S
C491 C490 1.385 . S
C492 C490 1.478 . S
C492 C494 1.381 . S
C492 C498 1.383 . S
C493 C489 1.495 . S
C493 H499 0.959 . S
C493 H500 0.961 . S
C493 H501 0.960 . S
C494 C492 1.381 . S
C494 C495 1.394 . S
C494 H502 0.930 . S
C495 C494 1.394 . S
C495 C496 1.383 . S
C495 H503 0.929 . S
C496 C495 1.383 . S
C496 C497 1.377 . S
C497 H481 0.930 . S
C497 C496 1.377 . S
C497 C498 1.379 . S
C498 H482 0.931 . S
C498 C492 1.383 . S
C498 C497 1.379 . S
H499 C493 0.959 . S
H500 C493 0.961 . S
H501 C493 0.960 . S
H502 C494 0.930 . S
H503 C495 0.929 . S
H504 C512 0.929 . S
H505 C514 0.930 . S
H506 C516 0.930 . S
H507 C519 0.929 . S
H508 C522 0.930 . S
H509 C524 0.960 . S
H510 C524 0.960 . S
H511 C524 0.960 . S
C512 H504 0.929 . S
C512 C513 1.377 . S
C512 C514 1.384 . S
C513 C512 1.377 . S
C513 C519 1.390 . S
C514 H505 0.930 . S
C514 C512 1.384 . S
C514 C515 1.372 . S
C515 C514 1.372 . S
C515 C516 1.400 . S
C515 C520 1.490 . S
C516 H506 0.930 . S
C516 C515 1.400 . S
C516 C519 1.386 . S
H517 C533 0.930 . S
H518 C534 0.931 . S
C519 H507 0.929 . S
C519 C513 1.390 . S
C519 C516 1.386 . S
C520 C515 1.490 . S
C520 C522 1.395 . S
C520 C523 1.403 . S
H521 C527 0.930 . S
C522 H508 0.930 . S
C522 C520 1.395 . S
C522 C525 1.403 . S
C523 C520 1.403 . S
C523 C524 1.524 . S
C523 C527 1.400 . S
C524 H509 0.960 . S
C524 H510 0.960 . S
C524 H511 0.960 . S
C524 C523 1.524 . S
C525 C522 1.403 . S
C525 C526 1.392 . S
C525 C529 1.495 . S
C526 C525 1.392 . S
C526 C527 1.385 . S
C526 C528 1.478 . S
C527 H521 0.930 . S
C527 C523 1.400 . S
C527 C526 1.385 . S
C528 C526 1.478 . S
C528 C530 1.381 . S
C528 C534 1.383 . S
C529 C525 1.495 . S
C529 H535 0.959 . S
C529 H536 0.961 . S
C529 H537 0.960 . S
C530 C528 1.381 . S
C530 C531 1.394 . S
C530 H538 0.930 . S
C531 C530 1.394 . S
C531 C532 1.383 . S
C531 H539 0.929 . S
C532 C531 1.383 . S
C532 C533 1.377 . S
C533 H517 0.930 . S
C533 C532 1.377 . S
C533 C534 1.379 . S
C534 H518 0.931 . S
C534 C528 1.383 . S
C534 C533 1.379 . S
H535 C529 0.959 . S
H536 C529 0.961 . S
H537 C529 0.960 . S
H538 C530 0.930 . S
H539 C531 0.929 . S
H540 C548 0.929 . S
H541 C550 0.930 . S
H542 C552 0.930 . S
H543 C555 0.929 . S
H544 C558 0.930 . S
H545 C560 0.960 . S
H546 C560 0.960 . S
H547 C560 0.960 . S
C548 H540 0.929 . S
C548 C549 1.377 . S
C548 C550 1.384 . S
C549 C548 1.377 . S
C549 C555 1.390 . S
C550 H541 0.930 . S
C550 C548 1.384 . S
C550 C551 1.372 . S
C551 C550 1.372 . S
C551 C552 1.400 . S
C551 C556 1.490 . S
C552 H542 0.930 . S
C552 C551 1.400 . S
C552 C555 1.386 . S
H553 C569 0.930 . S
H554 C570 0.931 . S
C555 H543 0.929 . S
C555 C549 1.390 . S
C555 C552 1.386 . S
C556 C551 1.490 . S
C556 C558 1.395 . S
C556 C559 1.403 . S
H557 C563 0.930 . S
C558 H544 0.930 . S
C558 C556 1.395 . S
C558 C561 1.403 . S
C559 C556 1.403 . S
C559 C560 1.524 . S
C559 C563 1.400 . S
C560 H545 0.960 . S
C560 H546 0.960 . S
C560 H547 0.960 . S
C560 C559 1.524 . S
C561 C558 1.403 . S
C561 C562 1.392 . S
C561 C565 1.495 . S
C562 C561 1.392 . S
C562 C563 1.385 . S
C562 C564 1.478 . S
C563 H557 0.930 . S
C563 C559 1.400 . S
C563 C562 1.385 . S
C564 C562 1.478 . S
C564 C566 1.381 . S
C564 C570 1.383 . S
C565 C561 1.495 . S
C565 H571 0.959 . S
C565 H572 0.961 . S
C565 H573 0.960 . S
C566 C564 1.381 . S
C566 C567 1.394 . S
C566 H574 0.930 . S
C567 C566 1.394 . S
C567 C568 1.383 . S
C567 H575 0.929 . S
C568 C567 1.383 . S
C568 C569 1.377 . S
C569 H553 0.930 . S
C569 C568 1.377 . S
C569 C570 1.379 . S
C570 H554 0.931 . S
C570 C564 1.383 . S
C570 C569 1.379 . S
H571 C565 0.959 . S
H572 C565 0.961 . S
H573 C565 0.960 . S
H574 C566 0.930 . S
H575 C567 0.929 . S
H576 C584 0.929 . S
H577 C586 0.930 . S
H578 C588 0.930 . S
H579 C591 0.929 . S
H580 C594 0.930 . S
H581 C596 0.960 . S
H582 C596 0.960 . S
H583 C596 0.960 . S
C584 H576 0.929 . S
C584 C585 1.377 . S
C584 C586 1.384 . S
C585 C584 1.377 . S
C585 C591 1.390 . S
C586 H577 0.930 . S
C586 C584 1.384 . S
C586 C587 1.372 . S
C587 C586 1.372 . S
C587 C588 1.400 . S
C587 C592 1.490 . S
C588 H578 0.930 . S
C588 C587 1.400 . S
C588 C591 1.386 . S
H589 C605 0.930 . S
H590 C606 0.931 . S
C591 H579 0.929 . S
C591 C585 1.390 . S
C591 C588 1.386 . S
C592 C587 1.490 . S
C592 C594 1.395 . S
C592 C595 1.403 . S
H593 C599 0.930 . S
C594 H580 0.930 . S
C594 C592 1.395 . S
C594 C597 1.403 . S
C595 C592 1.403 . S
C595 C596 1.524 . S
C595 C599 1.400 . S
C596 H581 0.960 . S
C596 H582 0.960 . S
C596 H583 0.960 . S
C596 C595 1.524 . S
C597 C594 1.403 . S
C597 C598 1.392 . S
C597 C601 1.495 . S
C598 C597 1.392 . S
C598 C599 1.385 . S
C598 C600 1.478 . S
C599 H593 0.930 . S
C599 C595 1.400 . S
C599 C598 1.385 . S
C600 C598 1.478 . S
C600 C602 1.381 . S
C600 C606 1.383 . S
C601 C597 1.495 . S
C601 H607 0.959 . S
C601 H608 0.961 . S
C601 H609 0.960 . S
C602 C600 1.381 . S
C602 C603 1.394 . S
C602 H610 0.930 . S
C603 C602 1.394 . S
C603 C604 1.383 . S
C603 H611 0.929 . S
C604 C603 1.383 . S
C604 C605 1.377 . S
C605 H589 0.930 . S
C605 C604 1.377 . S
C605 C606 1.379 . S
C606 H590 0.931 . S
C606 C600 1.383 . S
C606 C605 1.379 . S
H607 C601 0.959 . S
H608 C601 0.961 . S
H609 C601 0.960 . S
H610 C602 0.930 . S
H611 C603 0.929 . S
H612 C620 0.929 . S
H613 C622 0.930 . S
H614 C624 0.930 . S
H615 C627 0.929 . S
H616 C630 0.930 . S
H617 C632 0.960 . S
H618 C632 0.960 . S
H619 C632 0.960 . S
C620 H612 0.929 . S
C620 C621 1.377 . S
C620 C622 1.384 . S
C621 C620 1.377 . S
C621 C627 1.390 . S
C622 H613 0.930 . S
C622 C620 1.384 . S
C622 C623 1.372 . S
C623 C622 1.372 . S
C623 C624 1.400 . S
C623 C628 1.490 . S
C624 H614 0.930 . S
C624 C623 1.400 . S
C624 C627 1.386 . S
H625 C641 0.930 . S
H626 C642 0.931 . S
C627 H615 0.929 . S
C627 C621 1.390 . S
C627 C624 1.386 . S
C628 C623 1.490 . S
C628 C630 1.395 . S
C628 C631 1.403 . S
H629 C635 0.930 . S
C630 H616 0.930 . S
C630 C628 1.395 . S
C630 C633 1.403 . S
C631 C628 1.403 . S
C631 C632 1.524 . S
C631 C635 1.400 . S
C632 H617 0.960 . S
C632 H618 0.960 . S
C632 H619 0.960 . S
C632 C631 1.524 . S
C633 C630 1.403 . S
C633 C634 1.392 . S
C633 C637 1.495 . S
C634 C633 1.392 . S
C634 C635 1.385 . S
C634 C636 1.478 . S
C635 H629 0.930 . S
C635 C631 1.400 . S
C635 C634 1.385 . S
C636 C634 1.478 . S
C636 C638 1.381 . S
C636 C642 1.383 . S
C637 C633 1.495 . S
C637 H643 0.959 . S
C637 H644 0.961 . S
C637 H645 0.960 . S
C638 C636 1.381 . S
C638 C639 1.394 . S
C638 H646 0.930 . S
C639 C638 1.394 . S
C639 C640 1.383 . S
C639 H647 0.929 . S
C640 C639 1.383 . S
C640 C641 1.377 . S
C641 H625 0.930 . S
C641 C640 1.377 . S
C641 C642 1.379 . S
C642 H626 0.931 . S
C642 C636 1.383 . S
C642 C641 1.379 . S
H643 C637 0.959 . S
H644 C637 0.961 . S
H645 C637 0.960 . S
H646 C638 0.930 . S
H647 C639 0.929 . S
C244 C111 1.673 . S
C225 C40 1.693 . S
C261 C4 1.692 . S
C280 C206 1.664 . S
C297 C16 1.692 . S
C316 C122 1.708 . S
C333 C28 1.660 . S
C352 C195 1.669 . S
C388 C106 1.463 . S
C369 C9 1.631 . S
C424 C199 1.725 . S
C405 C18 1.733 . S
C441 C33 1.653 . S
C460 C115 1.657 . S
C477 C45 1.625 . S
C496 C190 1.422 . S
C532 C201 1.375 . S
C513 C21 1.580 . S
C568 C117 1.397 . S
C549 C30 1.584 . S
C604 C188 1.648 . S
C585 C42 1.652 . S
C621 C6 1.588 . S
C640 C104 1.589 . S
