# Generated by pormake.
# Topology zzz, (3,6)-cn, num edge types: 1
# Building blocks:
#     Node 0, Type 0, BuildingBlock: QEWDON_clean_linker_0, # of connection points: 3
#     Node 1, Type 0, BuildingBlock: QEWDON_clean_linker_0, # of connection points: 3
#     Node 2, Type 0, BuildingBlock: QEWDON_clean_linker_0, # of connection points: 3
#     Node 3, Type 0, BuildingBlock: QEWDON_clean_linker_0, # of connection points: 3
#     Node 4, Type 0, BuildingBlock: QEWDON_clean_linker_0, # of connection points: 3
#     Node 5, Type 0, BuildingBlock: QEWDON_clean_linker_0, # of connection points: 3
#     Node 6, Type 0, BuildingBlock: QEWDON_clean_linker_0, # of connection points: 3
#     Node 7, Type 0, BuildingBlock: QEWDON_clean_linker_0, # of connection points: 3
#     Node 8, Type 1, BuildingBlock: NUHQIS_clean_sbu_0, # of connection points: 6
#     Node 9, Type 1, BuildingBlock: NUHQIS_clean_sbu_0, # of connection points: 6
#     Node 10, Type 1, BuildingBlock: NUHQIS_clean_sbu_0, # of connection points: 6
#     Node 11, Type 1, BuildingBlock: NUHQIS_clean_sbu_0, # of connection points: 6
#     Edge 12, Type (0, 1), BuildingBlock: UVAHIK_clean_linker_0, # of connection points: 2
#     Edge 13, Type (0, 1), BuildingBlock: UVAHIK_clean_linker_0, # of connection points: 2
#     Edge 14, Type (0, 1), BuildingBlock: UVAHIK_clean_linker_0, # of connection points: 2
#     Edge 15, Type (0, 1), BuildingBlock: UVAHIK_clean_linker_0, # of connection points: 2
#     Edge 16, Type (0, 1), BuildingBlock: UVAHIK_clean_linker_0, # of connection points: 2
#     Edge 17, Type (0, 1), BuildingBlock: UVAHIK_clean_linker_0, # of connection points: 2
#     Edge 18, Type (0, 1), BuildingBlock: UVAHIK_clean_linker_0, # of connection points: 2
#     Edge 19, Type (0, 1), BuildingBlock: UVAHIK_clean_linker_0, # of connection points: 2
#     Edge 20, Type (0, 1), BuildingBlock: UVAHIK_clean_linker_0, # of connection points: 2
#     Edge 21, Type (0, 1), BuildingBlock: UVAHIK_clean_linker_0, # of connection points: 2
#     Edge 22, Type (0, 1), BuildingBlock: UVAHIK_clean_linker_0, # of connection points: 2
#     Edge 23, Type (0, 1), BuildingBlock: UVAHIK_clean_linker_0, # of connection points: 2
#     Edge 24, Type (0, 1), BuildingBlock: UVAHIK_clean_linker_0, # of connection points: 2
#     Edge 25, Type (0, 1), BuildingBlock: UVAHIK_clean_linker_0, # of connection points: 2
#     Edge 26, Type (0, 1), BuildingBlock: UVAHIK_clean_linker_0, # of connection points: 2
#     Edge 27, Type (0, 1), BuildingBlock: UVAHIK_clean_linker_0, # of connection points: 2
#     Edge 28, Type (0, 1), BuildingBlock: UVAHIK_clean_linker_0, # of connection points: 2
#     Edge 29, Type (0, 1), BuildingBlock: UVAHIK_clean_linker_0, # of connection points: 2
#     Edge 30, Type (0, 1), BuildingBlock: UVAHIK_clean_linker_0, # of connection points: 2
#     Edge 31, Type (0, 1), BuildingBlock: UVAHIK_clean_linker_0, # of connection points: 2
#     Edge 32, Type (0, 1), BuildingBlock: UVAHIK_clean_linker_0, # of connection points: 2
#     Edge 33, Type (0, 1), BuildingBlock: UVAHIK_clean_linker_0, # of connection points: 2
#     Edge 34, Type (0, 1), BuildingBlock: UVAHIK_clean_linker_0, # of connection points: 2
#     Edge 35, Type (0, 1), BuildingBlock: UVAHIK_clean_linker_0, # of connection points: 2
# Relax obj value: 0.125
# Max RMSD: 0.128
# Mean RMSD: 0.094
data_MOF--net-zzz--node1-NUHQIS_clean_sbu_0--node2-QEWDON_clean_linker_0--edge1-UVAHIK_clean_linker_0
_symmetry_space_group_name_H-M    P1
_symmetry_Int_Tables_number       1
_symmetry_cell_setting            triclinic
loop_
_symmetry_equiv_pos_as_xyz
'x, y, z'
_cell_length_a     72.000513
_cell_length_b     71.868809
_cell_length_c     17.123122
_cell_angle_alpha  90.033894
_cell_angle_beta   90.027568
_cell_angle_gamma 89.969718
loop_
_atom_site_label
_atom_site_type_symbol
_atom_site_fract_x
_atom_site_fract_y
_atom_site_fract_z
_atom_type_partial_charge
H0 H 0.75729 0.51998 0.15889 0.0
C1 C 0.76742 0.52073 0.20544 0.0
C2 C 0.78587 0.51636 0.18757 0.0
C3 C 0.76241 0.5268 0.28112 0.0
H4 H 0.81396 0.51511 0.23003 0.0
C5 C 0.79964 0.51835 0.24445 0.0
C6 C 0.79523 0.52416 0.31997 0.0
C7 C 0.77658 0.52795 0.33894 0.0
C8 C 0.74279 0.53294 0.29767 0.0
H9 H 0.77337 0.53206 0.39819 0.0
C10 C 0.72754 0.52637 0.25277 0.0
C11 C 0.70944 0.53342 0.26421 0.0
C12 C 0.73922 0.54638 0.35577 0.0
H13 H 0.7503 0.55242 0.38999 0.0
C14 C 0.72124 0.55288 0.36912 0.0
H15 H 0.72955 0.51572 0.20892 0.0
C16 C 0.70649 0.54656 0.32364 0.0
H17 H 0.69283 0.55243 0.33354 0.0
H18 H 0.71881 0.56326 0.41377 0.0
H19 H 0.03131 0.74889 0.19383 0.0
C20 C 0.02752 0.75993 0.23379 0.0
C21 C 0.03353 0.778 0.21722 0.0
C22 C 0.01718 0.75618 0.30208 0.0
H23 H 0.03458 0.8064 0.25569 0.0
C24 C 0.02979 0.79246 0.26938 0.0
C25 C 0.01966 0.78934 0.3378 0.0
C26 C 0.01294 0.77128 0.35299 0.0
C27 C 0.01173 0.73652 0.32176 0.0
H28 H 1.00472 0.76907 0.40504 0.0
C29 C 1.00895 0.72282 0.26299 0.0
C30 C 1.005 0.70413 0.28265 0.0
C31 C 1.01017 0.73101 0.40044 0.0
H32 H 0.01279 0.74067 0.44765 0.0
C33 C 1.00583 0.7127 0.42 0.0
H34 H 1.00968 0.72659 0.20191 0.0
C35 C 1.00333 0.69936 0.36192 0.0
H36 H 1.00059 0.68514 0.37936 0.0
H37 H 1.0048 0.70873 0.48081 0.0
H38 H 0.76469 0.01455 0.17915 0.0
C39 C 0.75476 0.01321 0.22616 0.0
C40 C 0.73827 0.02358 0.22194 0.0
C41 C 0.75811 1.0008 0.28858 0.0
H42 H 0.71158 0.02847 0.27551 0.0
C43 C 0.72479 0.02129 0.28021 0.0
C44 C 0.72739 1.00879 0.34162 0.0
C45 C 0.7441 0.99871 0.34638 0.0
C46 C 0.77572 0.98949 0.29058 0.0
H47 H 0.74602 0.98938 0.39528 0.0
C48 C 0.7922 0.99575 0.2534 0.0
C49 C 0.80835 0.98463 0.25171 0.0
C50 C 0.77606 0.97192 0.32711 0.0
H51 H 0.76377 0.96611 0.35395 0.0
C52 C 0.79219 0.96116 0.3277 0.0
H53 H 0.79272 1.0093 0.22609 0.0
C54 C 0.8082 0.96741 0.29028 0.0
H55 H 0.82034 0.95849 0.2896 0.0
H56 H 0.79217 0.94769 0.35595 0.0
H57 H 0.50092 0.77079 0.15454 0.0
C58 C 0.50213 0.76169 0.20473 0.0
C59 C 0.49029 0.74631 0.21034 0.0
C60 C 0.51604 0.76476 0.2613 0.0
H61 H 0.48379 0.72131 0.27286 0.0
C62 C 0.49238 0.73371 0.27195 0.0
C63 C 0.50648 0.73587 0.32763 0.0
C64 C 0.51813 0.75161 0.32265 0.0
C65 C 0.52918 0.78082 0.25241 0.0
H66 H 0.52883 0.75347 0.36638 0.0
C67 C 0.52338 0.79804 0.21991 0.0
C68 C 0.53613 0.81277 0.20846 0.0
C69 C 0.54796 0.77871 0.27338 0.0
H70 H 0.55316 0.76566 0.29617 0.0
C71 C 0.56054 0.79322 0.26289 0.0
H72 H 0.50894 0.8001 0.20445 0.0
C73 C 0.55475 0.81004 0.23058 0.0
H74 H 0.56504 0.8208 0.22132 0.0
H75 H 0.57497 0.7913 0.27873 0.0
H76 H 0.27554 0.53493 0.20151 0.0
C77 C 0.26436 0.53075 0.16304 0.0
C78 C 0.24673 0.53845 0.1753 0.0
C79 C 0.2676 0.5183 0.10062 0.0
H80 H 0.21848 0.5397 0.1345 0.0
C81 C 0.23222 0.53402 0.12409 0.0
C82 C 0.23487 0.5218 0.06152 0.0
C83 C 0.25247 0.51359 0.05101 0.0
C84 C 0.28687 0.51107 0.08553 0.0
H85 H 0.25429 0.50379 0.00361 0.0
C86 C 0.30007 0.50911 0.14662 0.0
C87 C 0.31856 0.50368 0.13098 0.0
C88 C 0.29259 0.50702 0.00872 0.0
H89 H 0.28332 0.50884 0.95962 0.0
C90 C 0.31068 0.50113 0.99329 0.0
H91 H 0.29606 0.51166 0.20656 0.0
C92 C 0.32359 0.49956 0.05358 0.0
H93 H 0.33769 0.49562 0.03906 0.0
H94 H 0.31485 0.49819 0.93382 0.0
H95 H 0.03437 0.27372 0.20361 0.0
C96 C 0.02972 0.26272 0.16504 0.0
C97 C 0.03051 0.24441 0.19171 0.0
C98 C 0.02342 0.26669 0.08877 0.0
H99 H 0.02629 0.2156 0.16398 0.0
C100 C 0.02531 0.22979 0.14261 0.0
C101 C 0.01936 0.23307 0.06617 0.0
C102 C 0.01842 0.2516 0.0391 0.0
C103 C 0.02276 0.28651 0.06135 0.0
H104 H 0.01348 0.25414 0.98035 0.0
C105 C 0.01931 0.30134 0.11416 0.0
C106 C 0.02011 0.32008 0.08965 0.0
C107 C 0.02647 0.29087 0.98282 0.0
H108 H 0.02961 0.28008 0.94073 0.0
C109 C 0.02683 0.30933 0.95779 0.0
H110 H 0.01586 0.29836 0.17438 0.0
C111 C 0.02382 0.32381 0.01056 0.0
H112 H 0.02486 0.33798 0.98953 0.0
H113 H 0.02988 0.31246 0.8973 0.0
H114 H 0.24831 0.9947 0.22991 0.0
C115 C 0.25915 0.99941 0.19084 0.0
C116 C 0.27754 0.99476 0.20839 0.0
C117 C 0.25484 1.00969 0.1229 0.0
H118 H 0.30591 0.99538 0.16976 0.0
C119 C 0.29175 0.99953 0.15662 0.0
C120 C 0.28796 1.00907 0.08732 0.0
C121 C 0.26958 0.01471 0.07176 0.0
C122 C 0.23495 0.0142 0.10392 0.0
H123 H 0.26686 0.02256 0.01907 0.0
C124 C 0.22143 0.01647 0.16348 0.0
C125 C 0.20256 0.01956 0.14508 0.0
C126 C 0.2291 0.01543 0.02558 0.0
H127 H 0.23869 0.01321 0.97785 0.0
C128 C 0.21056 0.01896 0.00719 0.0
H129 H 0.22549 0.016 0.22431 0.0
C130 C 0.19738 0.02095 0.06618 0.0
H131 H 0.183 0.02307 0.04982 0.0
H132 H 0.2063 0.01977 0.94664 0.0
H133 H 0.49593 0.25549 0.20725 0.0
C134 C 0.49599 0.26477 0.15745 0.0
C135 C 0.48563 0.28124 0.16175 0.0
C136 C 0.50719 0.2609 0.09181 0.0
H137 H 0.4793 0.3073 0.10586 0.0
C138 C 0.48647 0.29408 0.10034 0.0
C139 C 0.49818 0.29121 0.03647 0.0
C140 C 0.50835 0.27449 0.03165 0.0
C141 C 0.51863 0.2434 0.0898 0.0
H142 H 0.51719 0.2723 0.98138 0.0
C143 C 0.51262 0.22688 0.12754 0.0
C144 C 0.52386 0.21075 0.12854 0.0
C145 C 0.53609 0.2433 0.05277 0.0
H146 H 0.54161 0.25568 0.02546 0.0
C147 C 0.54707 0.22731 0.05243 0.0
H148 H 0.49914 0.22638 0.15545 0.0
C149 C 0.54107 0.2112 0.08996 0.0
H150 H 0.55017 0.19919 0.09037 0.0
H151 H 0.56049 0.22752 0.02401 0.0
Tb152 Tb 0.01881 1.00284 0.79015 0.0
Eu153 Eu 0.9963 0.01614 0.63449 0.0
C154 C 0.03993 0.01252 0.63764 0.0
C155 C 1.01092 0.04596 0.76307 0.0
C156 C 0.04604 0.9712 0.909 0.0
C157 C 0.06643 0.94746 0.85426 0.0
C158 C 0.06039 0.96595 0.85753 0.0
C159 C 0.03855 0.95782 0.95962 0.0
C160 C 0.04436 0.93934 0.9554 0.0
C161 C 0.05801 0.93394 0.90139 0.0
C162 C 0.03687 0.98953 0.90264 0.0
O163 O 0.99098 1.01072 0.8288 0.0
O164 O 0.97467 1.00483 0.71655 0.0
O165 O 1.00176 0.98562 0.61458 0.0
O166 O 1.00835 0.97686 0.74053 0.0
C167 C 0.97524 1.0071 0.79266 0.0
O168 O 0.97494 0.03294 0.57743 0.0
O169 O 0.99321 0.01573 0.50767 0.0
O170 O 0.0264 0.024 0.62109 0.0
O171 O 0.03743 0.99958 0.69047 0.0
O172 O 0.02168 0.03321 0.79502 0.0
O173 O 0.99865 0.04178 0.70915 0.0
C174 C 1.00462 0.97268 0.66739 0.0
O175 O 0.04389 1.00134 0.85285 0.0
O176 O 0.01881 0.98889 0.89766 0.0
C177 C 0.98971 0.04718 0.47164 0.0
C178 C 1.00555 0.08268 0.44886 0.0
C179 C 0.9861 0.08029 0.44791 0.0
C180 C 0.97825 0.0627 0.45999 0.0
C181 C 1.00905 0.04931 0.46541 0.0
C182 C 0.01687 0.06682 0.45508 0.0
C183 C 0.98227 0.03024 0.50863 0.0
H184 H 0.07701 0.94356 0.81235 0.0
H185 H 0.06641 0.9759 0.81737 0.0
H186 H 0.02749 0.96148 0.99974 0.0
H187 H 0.03786 0.92913 0.99305 0.0
H188 H 0.9769 0.09209 0.44095 0.0
H189 H 0.96331 0.06143 0.46507 0.0
H190 H 0.01832 0.03764 0.4744 0.0
H191 H 0.03185 0.06791 0.45707 0.0
Tb192 Tb 0.51064 0.02618 0.74851 0.0
Eu193 Eu 0.49723 0.99919 0.60651 0.0
C194 C 0.50176 0.04262 0.58459 0.0
C195 C 0.4679 0.01757 0.72854 0.0
C196 C 0.54452 0.04821 0.8705 0.0
C197 C 0.57164 0.06687 0.90171 0.0
C198 C 0.55232 0.06509 0.89515 0.0
C199 C 0.55619 0.03313 0.85305 0.0
C200 C 0.57536 0.03489 0.8594 0.0
C201 C 0.58334 0.0518 0.88334 0.0
C202 C 0.52474 0.04697 0.85067 0.0
O203 O 0.51784 0.99763 0.78207 0.0
O204 O 0.49399 0.98342 0.71882 0.0
O205 O 0.52846 0.99582 0.60896 0.0
O206 O 0.53528 0.02256 0.67625 0.0
C207 C 0.50671 0.98327 0.7734 0.0
O208 O 0.49594 0.97161 0.55331 0.0
O209 O 0.48212 0.99488 0.49772 0.0
O210 O 0.50598 0.0265 0.55324 0.0
O211 O 0.49776 0.04368 0.65933 0.0
O212 O 0.48154 0.0214 0.7772 0.0
O213 O 0.47107 1.01191 0.65666 0.0
C214 C 0.54048 1.00826 0.63367 0.0
O215 O 0.52092 0.05245 0.78009 0.0
O216 O 0.51662 0.03121 0.86695 0.0
C217 C 0.46649 0.96636 0.49953 0.0
C218 C 0.43156 0.94875 0.49376 0.0
C219 C 0.44508 0.94514 0.43615 0.0
C220 C 0.4624 0.95396 0.4389 0.0
C221 C 0.45344 0.96932 0.55901 0.0
C222 C 0.43612 0.96069 0.55602 0.0
C223 C 0.48397 0.97682 0.50045 0.0
H224 H 0.57741 0.08002 0.9208 0.0
H225 H 0.54354 0.07699 0.90723 0.0
H226 H 0.5505 0.02012 0.83177 0.0
H227 H 0.58398 0.02314 0.84333 0.0
H228 H 0.44214 0.93582 0.38799 0.0
H229 H 0.47242 0.9514 0.39295 0.0
H230 H 0.45644 0.97877 0.60665 0.0
H231 H 0.42604 0.9641 0.6007 0.0
Tb232 Tb 0.50244 0.52198 0.77585 0.0
Eu233 Eu 0.52492 0.50862 0.61981 0.0
C234 C 0.48137 0.51225 0.62286 0.0
C235 C 0.51006 0.47862 0.74727 0.0
C236 C 0.47318 0.55174 0.89724 0.0
C237 C 0.45375 0.57221 0.97461 0.0
C238 C 0.46261 0.55506 0.96433 0.0
C239 C 0.47423 0.56542 0.83903 0.0
C240 C 0.46556 0.58261 0.84947 0.0
C241 C 0.45551 0.58637 0.91814 0.0
C242 C 0.48374 0.5344 0.88885 0.0
O243 O 0.53003 0.51354 0.81542 0.0
O244 O 0.54661 0.51922 0.7037 0.0
O245 O 0.51899 0.53905 0.60068 0.0
O246 O 0.51376 0.54779 0.72764 0.0
C247 C 0.5459 0.51678 0.77974 0.0
O248 O 0.54594 0.49163 0.56134 0.0
O249 O 0.52827 0.50984 0.49325 0.0
O250 O 0.49486 0.50074 0.60623 0.0
O251 O 0.48393 0.52522 0.67561 0.0
O252 O 0.50016 0.49156 0.7827 0.0
O253 O 0.52161 0.48252 0.69034 0.0
C254 C 0.5169 0.55201 0.65406 0.0
O255 O 0.47724 0.52265 0.83766 0.0
O256 O 0.50165 0.5365 0.88204 0.0
C257 C 0.53089 0.47856 0.45322 0.0
C258 C 0.51377 0.44396 0.42321 0.0
C259 C 0.53329 0.44545 0.42647 0.0
C260 C 0.54176 0.4626 0.44193 0.0
C261 C 0.51153 0.47732 0.44344 0.0
C262 C 0.50308 0.46025 0.42929 0.0
C263 C 0.53876 0.49501 0.49272 0.0
H264 H 0.44587 0.57453 0.02757 0.0
H265 H 0.46152 0.54455 0.00945 0.0
H266 H 0.48224 0.56301 0.78645 0.0
H267 H 0.46746 0.5932 0.80523 0.0
H268 H 0.542 0.43327 0.42003 0.0
H269 H 0.55668 0.46316 0.44978 0.0
H270 H 0.50267 0.48932 0.45231 0.0
H271 H 0.48806 0.45977 0.42807 0.0
Tb272 Tb 1.00891 0.49937 0.75482 0.0
Eu273 Eu 0.02203 0.52614 0.61222 0.0
C274 C 0.01715 0.48289 0.59044 0.0
C275 C 0.05154 0.50809 0.7334 0.0
C276 C 0.97552 0.47519 0.87314 0.0
C277 C 0.95017 0.45408 0.90321 0.0
C278 C 0.96923 0.45802 0.90162 0.0
C279 C 0.96258 0.48851 0.84804 0.0
C280 C 0.94368 0.48452 0.84864 0.0
C281 C 0.93731 0.46716 0.87478 0.0
C282 C 0.99531 0.47828 0.85733 0.0
O283 O 1.00184 0.52796 0.78833 0.0
O284 O 0.02554 0.5421 0.72403 0.0
O285 O 0.9909 0.52971 0.61607 0.0
O286 O 0.98413 0.50283 0.68254 0.0
C287 C 0.01299 0.54227 0.77928 0.0
O288 O 0.02432 0.55359 0.55867 0.0
O289 O 0.03631 0.52956 0.501 0.0
O290 O 0.01264 0.49898 0.55979 0.0
O291 O 0.02151 0.48185 0.6648 0.0
O292 O 0.03801 0.50469 0.78318 0.0
O293 O 0.04812 0.51313 0.66097 0.0
C294 C 0.9789 0.51719 0.64029 0.0
O295 O 1.00054 0.4726 0.78868 0.0
O296 O 1.00162 0.4949 0.8724 0.0
C297 C 0.05393 0.55675 0.50139 0.0
C298 C 0.09176 0.56641 0.49748 0.0
C299 C 0.08191 0.56322 0.42774 0.0
C300 C 0.06312 0.55843 0.42972 0.0
C301 C 0.06346 0.56096 0.57088 0.0
C302 C 0.08222 0.56589 0.56888 0.0
C303 C 0.03568 0.54768 0.50464 0.0
H304 H 0.94552 0.44065 0.92411 0.0
H305 H 0.97905 0.44747 0.92008 0.0
H306 H 0.96713 0.50181 0.82522 0.0
H307 H 0.93401 0.49497 0.82791 0.0
H308 H 0.08897 0.56363 0.37191 0.0
H309 H 0.05604 0.55504 0.37569 0.0
H310 H 0.05671 0.55943 0.62704 0.0
H311 H 0.08953 0.56807 0.62342 0.0
C312 C 0.18777 1.00764 0.26892 0.0
C313 C 0.188 0.02053 0.20713 0.0
C314 C 0.17301 1.00734 0.32234 0.0
C315 C 0.13322 0.03529 0.39713 0.0
H316 H 0.11228 0.98721 0.44944 0.0
C317 C 0.06074 0.02804 0.53943 0.0
C318 C 0.05785 0.01385 0.59465 0.0
C319 C 0.07739 0.02912 0.49747 0.0
C320 C 0.11808 1.00076 0.43655 0.0
H321 H 0.17324 0.04378 0.1555 0.0
H322 H 0.14754 0.04319 0.248 0.0
H323 H 0.14014 0.98887 0.36892 0.0
H324 H 0.07052 0.98985 0.64997 0.0
H325 H 0.09966 0.99189 0.57765 0.0
H326 H 0.11114 0.0472 0.46433 0.0
C327 C 0.15875 0.0333 0.25544 0.0
C328 C 0.1341 1.0017 0.39024 0.0
C329 C 0.17344 0.03354 0.20188 0.0
C330 C 0.0722 1.00091 0.6076 0.0
C331 C 0.08889 1.00201 0.56569 0.0
C332 C 0.11725 0.03434 0.44363 0.0
C333 C 0.15817 0.02001 0.31569 0.0
C334 C 0.14179 0.01899 0.36918 0.0
C335 C 0.09171 0.01609 0.50973 0.0
C336 C 0.10931 0.01707 0.46334 0.0
H337 H 0.19868 0.99734 0.27443 0.0
H338 H 0.17314 0.99705 0.36854 0.0
H339 H 0.1389 0.04883 0.38319 0.0
H340 H 0.0501 0.03834 0.52817 0.0
H341 H 0.07887 0.04002 0.45428 0.0
C342 C 0.51098 0.19458 0.24781 0.0
C343 C 0.5182 0.19357 0.1716 0.0
C344 C 0.50769 0.17832 0.29115 0.0
C345 C 0.52218 0.12861 0.29971 0.0
H346 H 0.48109 0.12368 0.44432 0.0
C347 C 0.50679 0.05903 0.45643 0.0
C348 C 0.50186 0.0598 0.53585 0.0
C349 C 0.50776 0.07529 0.41145 0.0
C350 C 0.49275 0.12489 0.40471 0.0
H351 H 0.52657 0.17458 0.07974 0.0
H352 H 0.52059 0.14638 0.15429 0.0
H353 H 0.48425 0.15203 0.36679 0.0
H354 H 0.49382 0.07842 0.6297 0.0
H355 H 0.49559 0.10673 0.55143 0.0
H356 H 0.53073 0.10155 0.33755 0.0
C357 C 0.51796 0.15969 0.18178 0.0
C358 C 0.49457 0.14118 0.36018 0.0
C359 C 0.52132 0.17589 0.13875 0.0
C360 C 0.49762 0.07725 0.56871 0.0
C361 C 0.49855 0.09352 0.52364 0.0
C362 C 0.52034 0.11235 0.34398 0.0
C363 C 0.51147 0.16063 0.25922 0.0
C364 C 0.5093 0.14327 0.30684 0.0
C365 C 0.50381 0.0928 0.44451 0.0
C366 C 0.50559 0.11021 0.39707 0.0
H367 H 0.50858 0.20795 0.27519 0.0
H368 H 0.50282 0.17967 0.3507 0.0
H369 H 0.53396 0.12981 0.26074 0.0
H370 H 0.5101 0.04587 0.42894 0.0
H371 H 0.51158 0.07412 0.35048 0.0
C372 C 0.33413 0.51742 0.24995 0.0
C373 C 0.33298 0.50315 0.19385 0.0
C374 C 0.34888 0.51799 0.30344 0.0
C375 C 0.38722 0.48938 0.38846 0.0
H376 H 0.41029 0.53728 0.42606 0.0
C377 C 0.46026 0.49631 0.52686 0.0
C378 C 0.46345 0.51095 0.57976 0.0
C379 C 0.44357 0.49519 0.48508 0.0
C380 C 0.4039 0.52382 0.41716 0.0
H381 H 0.34607 0.47777 0.15299 0.0
H382 H 0.37183 0.47889 0.24493 0.0
H383 H 0.38238 0.53544 0.34584 0.0
H384 H 0.45138 0.5358 0.63069 0.0
H385 H 0.42222 0.53379 0.55814 0.0
H386 H 0.40891 0.47773 0.45888 0.0
C387 C 0.36132 0.48965 0.24809 0.0
C388 C 0.38783 0.52275 0.37112 0.0
C389 C 0.3466 0.4891 0.19466 0.0
C390 C 0.44944 0.52436 0.59028 0.0
C391 C 0.43274 0.52327 0.54828 0.0
C392 C 0.4033 0.49044 0.43438 0.0
C393 C 0.36286 0.50426 0.30246 0.0
C394 C 0.37935 0.5055 0.35549 0.0
C395 C 0.42959 0.50868 0.49494 0.0
C396 C 0.41197 0.50765 0.4488 0.0
H397 H 0.32399 0.52856 0.25078 0.0
H398 H 0.34943 0.52931 0.34513 0.0
H399 H 0.38094 0.47588 0.37894 0.0
H400 H 0.47068 0.48568 0.51741 0.0
H401 H 0.44178 0.48389 0.4439 0.0
C402 C 1.00878 0.35234 0.12386 0.0
C403 C 0.01786 0.33583 0.1463 0.0
C404 C 1.00811 0.36772 0.17399 0.0
C405 C 0.01332 0.38254 0.38038 0.0
H406 H 0.02376 0.4307 0.28859 0.0
C407 C 0.02404 0.44883 0.57003 0.0
C408 C 0.01733 0.46585 0.54086 0.0
C409 C 0.02398 0.43278 0.52336 0.0
C410 C 0.02054 0.41744 0.3153 0.0
H411 H 0.03296 0.32259 0.24085 0.0
H412 H 0.03154 0.34936 0.32868 0.0
H413 H 0.02321 0.40313 0.20616 0.0
H414 H 1.00504 0.47918 0.43966 0.0
H415 H 1.00457 0.45127 0.35921 0.0
H416 H 1.01045 0.39688 0.48947 0.0
C417 C 0.0249 0.35034 0.27207 0.0
C418 C 0.02026 0.40157 0.26783 0.0
C419 C 0.02566 0.33495 0.22167 0.0
C420 C 1.01048 0.46637 0.46397 0.0
C421 C 1.01031 0.45032 0.41752 0.0
C422 C 0.01347 0.39846 0.4279 0.0
C423 C 0.01639 0.36705 0.24834 0.0
C424 C 0.01661 0.3839 0.2996 0.0
C425 C 0.01711 0.43327 0.44633 0.0
C426 C 0.01706 0.41617 0.39604 0.0
H427 H 1.00224 0.35346 0.06708 0.0
H428 H 1.00109 0.38021 0.15435 0.0
H429 H 1.01029 0.36918 0.40674 0.0
H430 H 0.02945 0.44789 0.62893 0.0
H431 H 0.02958 0.42003 0.54748 0.0
C432 C 0.84297 0.98839 0.23878 0.0
C433 C 0.8251 0.99036 0.20658 0.0
C434 C 0.85881 0.99205 0.19388 0.0
C435 C 0.87502 0.9922 0.99085 0.0
H436 H 0.91734 0.0191 0.07341 0.0
C437 C 0.94032 1.00646 0.80182 0.0
C438 C 0.95776 1.00613 0.83883 0.0
C439 C 0.9239 1.00569 0.84567 0.0
C440 C 0.90578 1.01131 0.0496 0.0
H441 H 0.80988 0.99798 0.10222 0.0
H442 H 0.83757 1.00423 0.02348 0.0
H443 H 0.8893 0.01601 0.15208 0.0
H444 H 0.97152 1.00445 0.95128 0.0
H445 H 0.94307 1.0025 0.02728 0.0
H446 H 0.89156 0.98694 0.8895 0.0
C447 C 0.8393 0.99988 0.0836 0.0
C448 C 0.88964 1.00964 0.09475 0.0
C449 C 0.82344 0.99648 0.12889 0.0
C450 C 0.95835 1.00489 0.92075 0.0
C451 C 0.94195 1.00391 0.96452 0.0
C452 C 0.89123 0.99368 0.94603 0.0
C453 C 0.85718 0.99751 0.11531 0.0
C454 C 0.87408 1.00001 0.06606 0.0
C455 C 0.92444 1.00434 0.92776 0.0
C456 C 0.90692 1.00318 0.97481 0.0
H457 H 0.8447 0.98377 0.29855 0.0
H458 H 0.87236 0.98999 0.21997 0.0
H459 H 0.86337 0.98447 0.96743 0.0
H460 H 0.93932 1.00754 0.73887 0.0
H461 H 0.91076 1.00638 0.81502 0.0
C462 C 0.51844 0.83129 0.10685 0.0
C463 C 0.5305 0.83082 0.17156 0.0
C464 C 0.51481 0.84808 0.0677 0.0
C465 C 0.53552 0.89454 0.03347 0.0
H466 H 0.48668 0.90759 0.95586 0.0
C467 C 0.52127 0.96596 0.88635 0.0
C468 C 0.50886 0.96634 0.82291 0.0
C469 C 0.52333 0.9498 0.93166 0.0
C470 C 0.50048 0.9041 0.97618 0.0
H471 H 0.54725 0.84803 0.24834 0.0
H472 H 0.54105 0.87707 0.18004 0.0
H473 H 0.49094 0.87875 0.02879 0.0
H474 H 0.48896 0.94986 0.75747 0.0
H475 H 0.49286 0.92179 0.83469 0.0
H476 H 0.54521 0.91961 0.97983 0.0
C477 C 0.53469 0.86442 0.15845 0.0
C478 C 0.5029 0.88753 0.01826 0.0
C479 C 0.53824 0.84771 0.1977 0.0
C480 C 0.49858 0.95018 0.80614 0.0
C481 C 0.50072 0.93403 0.85099 0.0
C482 C 0.53314 0.91103 0.99096 0.0
C483 C 0.52319 0.86482 0.09211 0.0
C484 C 0.52046 0.88252 0.04755 0.0
C485 C 0.51314 0.93355 0.91449 0.0
C486 C 0.51559 0.91609 0.9615 0.0
H487 H 0.51236 0.81858 0.08451 0.0
H488 H 0.50595 0.84783 0.01658 0.0
H489 H 0.54931 0.89101 0.05398 0.0
H490 H 0.52936 0.97815 0.90122 0.0
H491 H 0.53283 0.95014 0.98067 0.0
C492 C 0.67586 0.52493 0.24266 0.0
C493 C 0.69372 0.52802 0.21191 0.0
C494 C 0.66067 0.52189 0.19323 0.0
C495 C 0.64454 0.53133 0.99227 0.0
H496 H 0.60527 0.49674 0.04571 0.0
C497 C 0.58077 0.51932 0.79024 0.0
C498 C 0.56336 0.51714 0.82647 0.0
C499 C 0.59715 0.51958 0.83462 0.0
C500 C 0.616 0.50662 0.03022 0.0
H501 H 0.70958 0.52987 0.10466 0.0
H502 H 0.68309 0.52435 0.01831 0.0
H503 H 0.63298 0.4985 0.12723 0.0
H504 H 0.54967 0.51363 0.93836 0.0
H505 H 0.57805 0.51437 0.0154 0.0
H506 H 0.62746 0.53968 0.89601 0.0
C507 C 0.68083 0.52446 0.08083 0.0
C508 C 0.63194 0.5076 0.077 0.0
C509 C 0.69607 0.5274 0.13038 0.0
C510 C 0.56279 0.51525 0.90821 0.0
C511 C 0.57914 0.51554 0.95252 0.0
C512 C 0.62857 0.53039 0.94559 0.0
C513 C 0.66287 0.52193 0.11158 0.0
C514 C 0.64637 0.52008 0.0591 0.0
C515 C 0.59657 0.51769 0.91646 0.0
C516 C 0.61398 0.51815 0.96429 0.0
H517 H 0.67357 0.52516 0.30516 0.0
H518 H 0.64706 0.52013 0.21911 0.0
H519 H 0.65523 0.5413 0.97724 0.0
H520 H 0.58178 0.52076 0.72743 0.0
H521 H 0.61029 0.52104 0.80457 0.0
C522 C 0.99005 0.67507 0.22914 0.0
C523 C 1.00343 0.68924 0.22187 0.0
C524 C 0.98993 0.65985 0.17803 0.0
C525 C 1.00796 0.64262 0.98719 0.0
H526 H 0.99981 0.5941 0.08002 0.0
C527 C 0.02327 0.5743 0.81951 0.0
C528 C 0.01118 0.5591 0.82967 0.0
C529 C 0.02157 0.59032 0.8656 0.0
C530 C 1.00186 0.60753 0.05273 0.0
H531 H 0.02683 0.69868 0.15293 0.0
H532 H 0.02661 0.67216 0.06357 0.0
H533 H 0.99796 0.6219 0.16105 0.0
H534 H 0.98777 0.54897 0.89682 0.0
H535 H 0.9847 0.57697 0.97691 0.0
H536 H 0.01198 0.62822 0.87891 0.0
C537 C 0.0161 0.67288 0.10866 0.0
C538 C 1.0008 0.62354 0.09934 0.0
C539 C 0.01621 0.68814 0.15989 0.0
C540 C 0.99737 0.56035 0.88748 0.0
C541 C 0.99567 0.57641 0.93371 0.0
C542 C 1.00901 0.62661 0.94053 0.0
C543 C 1.00318 0.65832 0.11799 0.0
C544 C 1.00389 0.64132 0.06737 0.0
C545 C 1.00773 0.59166 0.92331 0.0
C546 C 1.00607 0.6088 0.97267 0.0
H547 H 0.97978 0.6756 0.27526 0.0
H548 H 0.97948 0.64919 0.18602 0.0
H549 H 1.01016 0.65606 0.96015 0.0
H550 H 0.03414 0.57388 0.77582 0.0
H551 H 0.03133 0.60157 0.85659 0.0
C552 C 0.02364 0.23511 0.32699 0.0
C553 C 0.03696 0.23965 0.27055 0.0
C554 C 0.02784 0.22211 0.38488 0.0
C555 C 0.05243 0.18012 0.36395 0.0
H556 H 0.02743 0.16676 0.55611 0.0
C557 C 0.03169 0.10454 0.41564 0.0
C558 C 0.01408 0.10156 0.4489 0.0
C559 C 0.04008 0.12201 0.41902 0.0
C560 C 0.03444 0.17024 0.50214 0.0
H561 H 0.06572 0.2368 0.23649 0.0
H562 H 0.07322 0.21424 0.33837 0.0
H563 H 0.03372 0.19949 0.52766 0.0
H564 H 0.99182 0.11481 0.51409 0.0
H565 H 1.00553 0.14553 0.51305 0.0
H566 H 0.05151 0.15153 0.33343 0.0
C567 C 0.05953 0.22051 0.33794 0.0
C568 C 0.03828 0.18897 0.48658 0.0
C569 C 0.0553 0.23349 0.27994 0.0
C570 C 1.00514 0.11659 0.48582 0.0
C571 C 0.0133 0.13421 0.48718 0.0
C572 C 0.0483 0.16155 0.37864 0.0
C573 C 0.04535 0.21343 0.38592 0.0
C574 C 0.04662 0.19413 0.41572 0.0
C575 C 0.03084 0.13721 0.45324 0.0
C576 C 0.03851 0.1564 0.4463 0.0
H577 H 1.00938 0.23965 0.32012 0.0
H578 H 0.01662 0.217 0.42107 0.0
H579 H 0.05857 0.18358 0.30806 0.0
H580 H 0.03903 0.09345 0.386 0.0
H581 H 0.05375 0.12358 0.39357 0.0
C582 C 0.29412 0.99242 0.3345 0.0
C583 C 0.28251 0.98415 0.27885 0.0
C584 C 0.30393 0.98143 0.38735 0.0
C585 C 0.32622 0.93666 0.37656 0.0
H586 H 0.34969 0.95555 0.56418 0.0
C587 C 0.40369 0.94196 0.41104 0.0
C588 C 0.41216 0.94192 0.48497 0.0
C589 C 0.38462 0.93909 0.40368 0.0
C590 C 0.34311 0.94963 0.513 0.0
H591 H 0.27049 0.95829 0.23868 0.0
H592 H 0.28763 0.93887 0.33181 0.0
H593 H 0.31873 0.96625 0.529 0.0
H594 H 0.40743 0.93698 0.60845 0.0
H595 H 0.37393 0.9324 0.59552 0.0
H596 H 0.35101 0.92082 0.35837 0.0
C597 C 0.28924 0.95384 0.33451 0.0
C598 C 0.32539 0.95591 0.49249 0.0
C599 C 0.27933 0.96491 0.2817 0.0
C600 C 0.40127 0.93753 0.55077 0.0
C601 C 0.38211 0.93481 0.54344 0.0
C602 C 0.34387 0.93032 0.39727 0.0
C603 C 0.30245 0.96191 0.38484 0.0
C604 C 0.31733 0.95047 0.42124 0.0
C605 C 0.3735 0.9362 0.47006 0.0
C606 C 0.353 0.93772 0.46281 0.0
H607 H 0.29682 1.00725 0.33265 0.0
H608 H 0.31407 0.98819 0.42451 0.0
H609 H 0.32047 0.9321 0.32133 0.0
H610 H 0.41149 0.94552 0.35913 0.0
H611 H 0.37843 0.94058 0.34634 0.0
C612 C 0.48875 0.2908 0.29985 0.0
C613 C 0.47709 0.28747 0.23567 0.0
C614 C 0.48418 0.30465 0.35374 0.0
C615 C 0.4642 0.34895 0.31729 0.0
H616 H 0.48536 0.36123 0.51884 0.0
C617 C 0.48738 0.42348 0.37974 0.0
C618 C 0.50444 0.42551 0.4189 0.0
C619 C 0.4782 0.4064 0.37879 0.0
C620 C 0.47943 0.35804 0.46228 0.0
H621 H 0.45003 0.29296 0.18575 0.0
H622 H 0.4418 0.31683 0.28104 0.0
H623 H 0.47736 0.32893 0.489 0.0
H624 H 0.52486 0.41105 0.48985 0.0
H625 H 0.50972 0.38098 0.48248 0.0
H626 H 0.46774 0.37736 0.28692 0.0
C627 C 0.45468 0.30925 0.28868 0.0
C628 C 0.47464 0.33957 0.4457 0.0
C629 C 0.45933 0.29553 0.23438 0.0
C630 C 0.51201 0.40996 0.45734 0.0
C631 C 0.50303 0.39275 0.45485 0.0
C632 C 0.4692 0.36725 0.33332 0.0
C633 C 0.46789 0.3152 0.3438 0.0
C634 C 0.46766 0.33474 0.37179 0.0
C635 C 0.48605 0.39069 0.41503 0.0
C636 C 0.47758 0.37194 0.40478 0.0
H637 H 0.5025 0.2847 0.30223 0.0
H638 H 0.49461 0.30875 0.39596 0.0
H639 H 0.4592 0.34576 0.25912 0.0
H640 H 0.48112 0.43504 0.34891 0.0
H641 H 0.46501 0.4055 0.34863 0.0
C642 C 0.24614 0.54338 0.31979 0.0
C643 C 0.24257 0.55013 0.24437 0.0
C644 C 0.23674 0.55091 0.38399 0.0
C645 C 0.2002 0.55229 0.46678 0.0
H646 H 0.17309 0.5989 0.46101 0.0
C647 C 0.12251 0.5545 0.45488 0.0
C648 C 0.11225 0.56781 0.49637 0.0
C649 C 0.14182 0.55499 0.45524 0.0
C650 C 0.18072 0.58594 0.46525 0.0
H651 H 0.22892 0.57181 0.17803 0.0
H652 H 0.21218 0.58454 0.28825 0.0
H653 H 0.20479 0.59756 0.41053 0.0
H654 H 0.11405 0.59202 0.57147 0.0
H655 H 0.14824 0.59322 0.57013 0.0
H656 H 0.1758 0.54049 0.51767 0.0
C657 C 0.22213 0.57356 0.29935 0.0
C658 C 0.19883 0.58511 0.43577 0.0
C659 C 0.2316 0.56614 0.23557 0.0
C660 C 0.12171 0.58165 0.53876 0.0
C661 C 0.14117 0.58232 0.53815 0.0
C662 C 0.18221 0.55316 0.49657 0.0
C663 C 0.2235 0.56513 0.37332 0.0
C664 C 0.20823 0.56795 0.43081 0.0
C665 C 0.15137 0.56887 0.49673 0.0
C666 C 0.17187 0.56965 0.49087 0.0
H667 H 0.25472 0.53115 0.32822 0.0
H668 H 0.23855 0.54444 0.44059 0.0
H669 H 0.20687 0.5388 0.46456 0.0
H670 H 0.11559 0.54351 0.42276 0.0
H671 H 0.14929 0.54465 0.42151 0.0
C672 C 0.06253 0.78516 0.14476 0.0
C673 C 0.04324 0.78259 0.14423 0.0
C674 C 0.07106 0.79553 0.08575 0.0
C675 C 0.06078 0.8239 0.90582 0.0
H676 H 0.08832 0.86136 0.02035 0.0
C677 C 0.04826 0.90124 0.8779 0.0
C678 C 0.06256 0.91404 0.89222 0.0
C679 C 0.05185 0.88219 0.87919 0.0
C680 C 0.08114 0.85091 0.98622 0.0
H681 H 0.01786 0.78727 0.07991 0.0
H682 H 0.03244 0.80568 0.97808 0.0
H683 H 0.08425 0.83084 0.07656 0.0
H684 H 0.09201 0.91725 0.91357 0.0
H685 H 0.09832 0.88367 0.91762 0.0
H686 H 0.05634 0.84483 0.81863 0.0
C687 C 0.04127 0.79946 0.02207 0.0
C688 C 0.07881 0.83325 0.0185 0.0
C689 C 0.03282 0.78892 0.08055 0.0
C690 C 0.08078 0.90756 0.90284 0.0
C691 C 0.08435 0.88841 0.90512 0.0
C692 C 0.063 0.84165 0.87379 0.0
C693 C 0.06031 0.80384 0.02651 0.0
C694 C 0.06767 0.81987 0.98088 0.0
C695 C 0.0698 0.87554 0.89565 0.0
C696 C 0.07231 0.85563 0.91586 0.0
H697 H 0.07075 0.78046 0.19398 0.0
H698 H 0.08581 0.79828 0.09008 0.0
H699 H 0.05254 0.81377 0.87427 0.0
H700 H 0.03415 0.90599 0.86855 0.0
H701 H 0.04028 0.87269 0.87258 0.0
C702 C 0.73684 0.02843 0.0768 0.0
C703 C 0.73374 0.0352 0.15271 0.0
C704 C 0.72765 0.03644 0.01317 0.0
C705 C 0.68985 0.07143 0.96643 0.0
H706 H 0.66825 0.02799 0.86801 0.0
C707 C 0.6132 0.06925 0.86086 0.0
C708 C 0.60381 0.05343 0.88881 0.0
C709 C 0.63262 0.07024 0.86434 0.0
C710 C 0.67418 0.04033 0.89446 0.0
H711 H 0.72132 0.05756 0.21959 0.0
H712 H 0.7044 0.07064 0.11113 0.0
H713 H 0.69888 0.02588 0.92408 0.0
H714 H 0.60735 0.02652 0.94406 0.0
H715 H 0.64089 0.02827 0.95076 0.0
H716 H 0.66396 0.08511 0.94384 0.0
C717 C 0.71391 0.05934 0.09904 0.0
C718 C 0.692 0.03926 0.9258 0.0
C719 C 0.72342 0.05163 0.16208 0.0
C720 C 0.61417 0.03873 0.92061 0.0
C721 C 0.63345 0.0397 0.92393 0.0
C722 C 0.67181 0.07238 0.93622 0.0
C723 C 0.7148 0.05098 0.02471 0.0
C724 C 0.69957 0.0544 0.96729 0.0
C725 C 0.64293 0.05539 0.89554 0.0
C726 C 0.66339 0.05641 0.90485 0.0
H727 H 0.74495 0.01595 0.06715 0.0
H728 H 0.72936 0.03012 0.95622 0.0
H729 H 0.6955 0.08362 0.99497 0.0
H730 H 0.60556 0.08072 0.83533 0.0
H731 H 0.63955 0.08253 0.84231 0.0
C732 C 0.45859 0.73899 0.16134 0.0
C733 C 0.47761 0.74115 0.14634 0.0
C734 C 0.4477 0.72778 0.11282 0.0
C735 C 0.45097 0.69474 0.94163 0.0
H736 H 0.4263 0.66178 0.08749 0.0
C737 C 0.4416 0.6168 0.87343 0.0
C738 C 0.44858 0.6055 0.93392 0.0
C739 C 0.43766 0.63561 0.88679 0.0
C740 C 0.43298 0.67087 0.04563 0.0
H741 H 0.49985 0.73504 0.06566 0.0
H742 H 0.48131 0.71496 0.98284 0.0
H743 H 0.43322 0.69333 0.12632 0.0
H744 H 0.45624 0.60511 0.0565 0.0
H745 H 0.44933 0.63754 0.07973 0.0
H746 H 0.45238 0.67141 0.86415 0.0
C747 C 0.4744 0.72214 0.03019 0.0
C748 C 0.43675 0.68918 0.06741 0.0
C749 C 0.48514 0.73368 0.07776 0.0
C750 C 0.45057 0.61322 0.00883 0.0
C751 C 0.44657 0.63192 0.02219 0.0
C752 C 0.44741 0.67629 0.92023 0.0
C753 C 0.45585 0.71804 0.05014 0.0
C754 C 0.44678 0.70106 0.01746 0.0
C755 C 0.4405 0.64347 0.96102 0.0
C756 C 0.43936 0.66389 0.97391 0.0
H757 H 0.45254 0.74467 0.21414 0.0
H758 H 0.43332 0.72548 0.12854 0.0
H759 H 0.45822 0.70362 0.90068 0.0
H760 H 0.43962 0.61122 0.81526 0.0
H761 H 0.43284 0.64411 0.83864 0.0
C762 C 0.78578 0.49174 0.08499 0.0
C763 C 0.79131 0.5095 0.10981 0.0
C764 C 0.79516 0.48295 0.02358 0.0
C765 C 0.83343 0.4899 0.87794 0.0
H766 H 0.85205 0.44379 0.96544 0.0
C767 C 0.90678 0.46693 0.80554 0.0
C768 C 0.91719 0.46318 0.87312 0.0
C769 C 0.8874 0.46645 0.80768 0.0
C770 C 0.84695 0.45656 0.93965 0.0
H771 H 0.80937 0.53283 0.0862 0.0
H772 H 0.82571 0.51775 0.97972 0.0
H773 H 0.82298 0.45665 0.01293 0.0
H774 H 0.91575 0.45466 0.99407 0.0
H775 H 0.88201 0.45441 0.99917 0.0
H776 H 0.85832 0.49093 0.81094 0.0
C777 C 0.81418 0.51045 0.00628 0.0
C778 C 0.83008 0.46382 0.96603 0.0
C779 C 0.80491 0.51912 0.06767 0.0
C780 C 0.908 0.45757 0.94121 0.0
C781 C 0.88862 0.45731 0.94373 0.0
C782 C 0.8504 0.48277 0.85228 0.0
C783 C 0.81011 0.49189 0.98628 0.0
C784 C 0.82378 0.48121 0.93915 0.0
C785 C 0.87806 0.46248 0.87782 0.0
C786 C 0.85792 0.46664 0.88658 0.0
H787 H 0.77532 0.48409 0.11715 0.0
H788 H 0.79156 0.46874 0.00892 0.0
H789 H 0.8287 0.50309 0.85468 0.0
H790 H 0.91363 0.47098 0.75187 0.0
H791 H 0.87975 0.4701 0.7554 0.0
C792 C 1.00248 0.20306 0.04572 0.0
C793 C 0.0148 0.21659 0.01685 0.0
C794 C 1.00138 0.18545 0.01124 0.0
C795 C 0.01434 0.15702 0.8374 0.0
H796 H 0.0127 0.1166 0.98728 0.0
C797 C 1.00287 0.07985 0.74671 0.0
C798 C 0.01243 0.06584 0.78796 0.0
C799 C 1.00372 0.09849 0.77054 0.0
C800 C 0.01334 0.12767 0.94446 0.0
H801 H 0.03491 0.22253 0.92648 0.0
H802 H 0.03293 0.19167 0.86536 0.0
H803 H 0.01233 0.14864 0.03304 0.0
H804 H 0.03074 0.06074 0.88614 0.0
H805 H 0.03226 0.09325 0.92773 0.0
H806 H 0.01561 0.13591 0.74882 0.0
C807 C 0.02404 0.19474 0.9147 0.0
C808 C 0.01285 0.14612 0.97071 0.0
C809 C 0.02511 0.21248 0.94934 0.0
C810 C 0.02313 0.07108 0.85311 0.0
C811 C 0.0239 0.08976 0.87723 0.0
C812 C 0.01475 0.1385 0.81103 0.0
C813 C 0.01263 0.18077 0.947 0.0
C814 C 0.01322 0.1611 0.91768 0.0
C815 C 0.01411 0.10373 0.83659 0.0
C816 C 0.01422 0.12354 0.86424 0.0
H817 H 0.99435 0.20583 0.09767 0.0
H818 H 0.99207 0.17528 0.0366 0.0
H819 H 0.01462 0.16814 0.79477 0.0
H820 H 0.99456 0.07645 0.69592 0.0
H821 H 0.99585 0.10874 0.7381 0.0
C822 C 0.31421 0.99644 0.00834 0.0
C823 C 0.30344 1.01185 0.03088 0.0
C824 C 0.33048 0.99877 0.96503 0.0
C825 C 0.36717 0.03321 0.92513 0.0
H826 H 0.38307 0.99615 0.77467 0.0
C827 C 0.44425 0.02454 0.83318 0.0
C828 C 0.4483 0.01922 0.75594 0.0
C829 C 0.42584 0.02534 0.85975 0.0
C830 C 0.37884 1.00679 0.81574 0.0
H831 H 0.30094 0.04178 0.02333 0.0
H832 H 0.32951 0.04597 0.94648 0.0
H833 H 0.35178 0.99482 0.82789 0.0
H834 H 0.43592 1.01088 0.64575 0.0
H835 H 0.40395 0.01251 0.69164 0.0
H836 H 0.39427 0.04521 0.9127 0.0
C837 C 0.32537 0.03204 0.96311 0.0
C838 C 0.36089 1.00591 0.847 0.0
C839 C 0.30892 0.02967 0.00631 0.0
C840 C 0.43341 0.01499 0.70568 0.0
C841 C 0.41501 0.01581 0.73222 0.0
C842 C 0.38516 0.0341 0.89378 0.0
C843 C 0.33653 0.01661 0.943 0.0
C844 C 0.3549 0.01889 0.9032 0.0
C845 C 0.41094 0.02085 0.80986 0.0
C846 C 0.39136 0.02073 0.83951 0.0
H847 H 0.31033 0.98254 0.02652 0.0
H848 H 0.33872 0.98657 0.95173 0.0
H849 H 0.36314 0.04337 0.96864 0.0
H850 H 0.45531 0.02785 0.87374 0.0
H851 H 0.42335 0.02901 0.92019 0.0
C852 C 0.48608 0.31552 0.94445 0.0
C853 C 0.50125 0.30716 0.98252 0.0
C854 C 0.48781 0.33314 0.91005 0.0
C855 C 0.51355 0.3765 0.93637 0.0
H856 H 0.49263 0.39082 0.7365 0.0
C857 C 0.50206 0.4538 0.84623 0.0
C858 C 0.50831 0.45876 0.77128 0.0
C859 C 0.50138 0.43504 0.8691 0.0
C860 C 0.49857 0.38704 0.79242 0.0
H861 H 0.53023 0.31053 0.0128 0.0
H862 H 0.53327 0.34141 0.9531 0.0
H863 H 0.49202 0.35811 0.77686 0.0
H864 H 0.5182 0.44772 0.66081 0.0
H865 H 0.51662 0.41513 0.70015 0.0
H866 H 0.5198 0.40545 0.95266 0.0
C867 C 0.52006 0.33425 0.94933 0.0
C868 C 0.49816 0.36831 0.81563 0.0
C869 C 0.51841 0.31646 0.98251 0.0
C870 C 0.51342 0.44446 0.71922 0.0
C871 C 0.51242 0.42573 0.74156 0.0
C872 C 0.51367 0.39526 0.91379 0.0
C873 C 0.50465 0.343 0.9144 0.0
C874 C 0.5057 0.36279 0.88782 0.0
C875 C 0.50658 0.42076 0.81705 0.0
C876 C 0.5062 0.40079 0.8415 0.0
H877 H 0.47261 0.3088 0.94486 0.0
H878 H 0.47564 0.3395 0.88408 0.0
H879 H 0.51928 0.37278 0.99274 0.0
H880 H 0.49805 0.46444 0.88779 0.0
H881 H 0.49667 0.43167 0.92747 0.0
C882 C 0.21249 0.49991 0.99415 0.0
C883 C 0.21884 0.51808 0.00857 0.0
C884 C 0.19555 0.49694 0.95513 0.0
C885 C 0.15952 0.52095 0.83343 0.0
H886 H 0.12612 0.48426 0.92135 0.0
C887 C 0.08587 0.50978 0.70649 0.0
C888 C 0.07126 0.50677 0.75961 0.0
C889 C 0.10441 0.50938 0.73127 0.0
C890 C 0.13521 0.49465 0.89627 0.0
H891 H 0.21293 0.54729 0.98984 0.0
H892 H 0.18365 0.54222 0.92263 0.0
H893 H 0.15775 0.48687 0.9714 0.0
H894 H 0.0649 0.5008 0.8808 0.0
H895 H 0.09716 0.50044 0.92428 0.0
H896 H 0.13686 0.52932 0.76072 0.0
C897 C 0.1916 0.53018 0.94071 0.0
C898 C 0.15349 0.49596 0.92426 0.0
C899 C 0.20839 0.53312 0.97974 0.0
C900 C 0.07575 0.5031 0.83809 0.0
C901 C 0.09432 0.50278 0.86298 0.0
C902 C 0.14126 0.51968 0.80563 0.0
C903 C 0.1847 0.51208 0.92917 0.0
C904 C 0.16583 0.50933 0.89405 0.0
C905 C 0.10894 0.50606 0.81005 0.0
C906 C 0.12874 0.50667 0.83723 0.0
H907 H 0.22018 0.48806 0.01612 0.0
H908 H 0.1908 0.4828 0.94647 0.0
H909 H 0.16863 0.53126 0.80787 0.0
H910 H 0.08303 0.51259 0.64551 0.0
H911 H 0.11521 0.51166 0.68835 0.0
C912 C 0.99872 0.81058 0.4162 0.0
C913 C 0.01663 0.8053 0.39213 0.0
C914 C 0.99595 0.82734 0.45703 0.0
C915 C 0.02093 0.86476 0.56738 0.0
H916 H 0.98062 0.89622 0.49612 0.0
C917 C 1.00865 0.9385 0.69673 0.0
C918 C 1.00399 0.95271 0.64358 0.0
C919 C 1.00877 0.91978 0.67336 0.0
C920 C 0.992 0.88766 0.5166 0.0
H921 H 0.04571 0.81294 0.39564 0.0
H922 H 0.04097 0.84191 0.46635 0.0
H923 H 0.98357 0.86464 0.44523 0.0
H924 H 0.99565 0.95814 0.52399 0.0
H925 H 0.99603 0.92568 0.48327 0.0
H926 H 0.02979 0.88796 0.63655 0.0
C927 C 0.029 0.83324 0.45423 0.0
C928 C 0.99354 0.86941 0.48814 0.0
C929 C 0.03174 0.81665 0.41317 0.0
C930 C 0.99925 0.94763 0.56673 0.0
C931 C 0.99934 0.92893 0.54344 0.0
C932 C 0.01938 0.88298 0.59593 0.0
C933 C 1.01105 0.83907 0.47538 0.0
C934 C 1.00822 0.85779 0.51208 0.0
C935 C 1.00421 0.91471 0.59622 0.0
C936 C 1.00506 0.89482 0.57 0.0
H937 H 0.98681 0.80218 0.40043 0.0
H938 H 0.98194 0.83127 0.47312 0.0
H939 H 0.03229 0.85619 0.58798 0.0
H940 H 0.01241 0.94181 0.7564 0.0
H941 H 0.01241 0.90927 0.71601 0.0
C942 C 0.70494 0.0204 0.44163 0.0
C943 C 0.71158 1.00565 0.39572 0.0
C944 C 0.68751 0.01932 0.47761 0.0
C945 C 0.64753 0.98732 0.52152 0.0
H946 H 0.61965 0.03346 0.5149 0.0
C947 C 0.56716 0.99172 0.56688 0.0
C948 C 0.56048 1.0067 0.61187 0.0
C949 C 0.586 0.99066 0.54594 0.0
C950 C 0.62726 0.02048 0.51805 0.0
H951 H 0.70549 0.97802 0.35294 0.0
H952 H 0.67489 0.97613 0.41441 0.0
H953 H 0.65179 0.03308 0.47233 0.0
H954 H 0.56871 0.0321 0.67141 0.0
H955 H 0.60127 0.03023 0.63495 0.0
H956 H 0.62256 0.97472 0.56533 0.0
C957 C 0.68325 0.98841 0.42459 0.0
C958 C 0.64583 0.02026 0.49394 0.0
C959 C 0.70084 0.98942 0.38946 0.0
C960 C 0.5732 0.02042 0.63619 0.0
C961 C 0.59194 0.0194 0.615 0.0
C962 C 0.62883 0.98753 0.54508 0.0
C963 C 0.67606 1.00361 0.46715 0.0
C964 C 0.65632 1.00371 0.49548 0.0
C965 C 0.5986 1.00461 0.56906 0.0
C966 C 0.61848 1.00414 0.54385 0.0
H967 H 0.71289 0.03314 0.44666 0.0
H968 H 0.68278 0.03112 0.51154 0.0
H969 H 0.6551 0.97433 0.52442 0.0
H970 H 0.55782 0.98087 0.54729 0.0
H971 H 0.59062 0.97914 0.5101 0.0
C972 C 0.52761 0.71289 0.39515 0.0
C973 C 0.50976 0.72046 0.38473 0.0
C974 C 0.53006 0.69607 0.43573 0.0
C975 C 0.50565 0.6614 0.56418 0.0
H976 H 0.53983 0.62651 0.4686 0.0
C977 C 0.51567 0.58638 0.68515 0.0
C978 C 0.51783 0.57197 0.63014 0.0
C979 C 0.51607 0.6051 0.66183 0.0
C980 C 0.53012 0.636 0.49589 0.0
H981 H 0.48069 0.71691 0.41388 0.0
H982 H 0.48485 0.68769 0.48312 0.0
H983 H 0.53797 0.6582 0.41952 0.0
H984 H 0.52207 0.56618 0.50705 0.0
H985 H 0.52243 0.59858 0.46652 0.0
H986 H 0.49719 0.63893 0.63821 0.0
C987 C 0.49705 0.69464 0.46056 0.0
C988 C 0.52926 0.65436 0.46843 0.0
C989 C 0.49462 0.71141 0.42023 0.0
C990 C 0.52047 0.57683 0.55132 0.0
C991 C 0.52081 0.59551 0.52803 0.0
C992 C 0.50646 0.64301 0.59147 0.0
C993 C 0.51473 0.68641 0.46706 0.0
C994 C 0.51683 0.6673 0.50141 0.0
C995 C 0.51859 0.60997 0.58282 0.0
C996 C 0.51852 0.62993 0.55703 0.0
H997 H 0.53956 0.7194 0.36824 0.0
H998 H 0.54394 0.69041 0.44073 0.0
H999 H 0.49607 0.67095 0.59196 0.0
H1000 H 0.51362 0.58323 0.74638 0.0
H1001 H 0.51452 0.61577 0.70603 0.0
C1002 C 0.82445 0.54001 0.3604 0.0
C1003 C 0.81073 0.52665 0.37619 0.0
C1004 C 0.8412 0.54008 0.40186 0.0
C1005 C 0.87229 0.50796 0.5061 0.0
H1006 H 0.89919 0.55306 0.55744 0.0
C1007 C 0.94589 0.50564 0.64363 0.0
C1008 C 0.95894 0.51888 0.61802 0.0
C1009 C 0.92713 0.50708 0.62277 0.0
C1010 C 0.89198 0.54031 0.54279 0.0
H1011 H 0.80349 0.50318 0.4489 0.0
H1012 H 0.83282 0.50332 0.52249 0.0
H1013 H 0.86732 0.55509 0.50987 0.0
H1014 H 0.96228 0.54407 0.54982 0.0
H1015 H 0.92972 0.54635 0.51184 0.0
H1016 H 0.89704 0.49317 0.53698 0.0
C1017 C 0.83063 0.51376 0.47782 0.0
C1018 C 0.87363 0.54148 0.51578 0.0
C1019 C 0.81375 0.5138 0.43656 0.0
C1020 C 0.95267 0.53363 0.57092 0.0
C1021 C 0.9339 0.53502 0.54962 0.0
C1022 C 0.89067 0.50678 0.53282 0.0
C1023 C 0.84475 0.52664 0.45968 0.0
C1024 C 0.86361 0.52533 0.49606 0.0
C1025 C 0.92084 0.52174 0.57509 0.0
C1026 C 0.90088 0.52296 0.55059 0.0
H1027 H 0.82256 0.54987 0.31319 0.0
H1028 H 0.85176 0.55006 0.38547 0.0
H1029 H 0.86515 0.49524 0.49039 0.0
H1030 H 0.95014 0.49405 0.6798 0.0
H1031 H 0.91753 0.49672 0.64454 0.0
loop_
_geom_bond_atom_site_label_1
_geom_bond_atom_site_label_2
_geom_bond_distance
_geom_bond_site_symmetry_2
_ccdc_geom_bond_type
H0 C1 0.949 . S
C1 H0 0.949 . S
C1 C2 1.395 . S
C1 C3 1.391 . S
C2 C1 1.395 . S
C2 C5 1.390 . S
C3 C1 1.391 . S
C3 C7 1.387 . S
C3 C8 1.491 . S
H4 C5 0.950 . S
C5 C2 1.390 . S
C5 H4 0.950 . S
C5 C6 1.378 . S
C6 C5 1.378 . S
C6 C7 1.409 . S
C7 C3 1.387 . S
C7 C6 1.409 . S
C7 H9 0.951 . S
C8 C3 1.491 . S
C8 C10 1.382 . S
C8 C12 1.404 . S
H9 C7 0.951 . S
C10 C8 1.382 . S
C10 C11 1.390 . S
C10 H15 0.949 . S
C11 C10 1.390 . S
C11 C16 1.399 . S
C12 C8 1.404 . S
C12 H13 0.950 . S
C12 C14 1.375 . S
H13 C12 0.950 . S
C14 C12 1.375 . S
C14 C16 1.382 . S
C14 H18 0.950 . S
H15 C10 0.949 . S
C16 C11 1.399 . S
C16 C14 1.382 . S
C16 H17 0.952 . S
H17 C16 0.952 . S
H18 C14 0.950 . S
H19 C20 0.949 . S
C20 H19 0.949 . S
C20 C21 1.401 . S
C20 C22 1.391 . S
C21 C20 1.401 . S
C21 C24 1.387 1_655 S
C22 C20 1.391 . S
C22 C26 1.387 . S
C22 C27 1.491 . S
H23 C24 0.956 . S
C24 C21 1.387 1_455 S
C24 H23 0.956 . S
C24 C25 1.374 1_455 S
C25 C24 1.374 1_655 S
C25 C26 1.419 . S
C26 C22 1.387 . S
C26 C25 1.419 . S
C26 H28 0.951 . S
C27 C22 1.491 . S
C27 C29 1.382 . S
C27 C31 1.404 . S
H28 C26 0.951 . S
C29 C27 1.382 . S
C29 C30 1.390 . S
C29 H34 0.949 1_655 S
C30 C29 1.390 . S
C30 C35 1.399 . S
C31 C27 1.404 . S
C31 H32 0.950 . S
C31 C33 1.375 . S
H32 C31 0.950 . S
C33 C31 1.375 . S
C33 C35 1.382 . S
C33 H37 0.950 . S
H34 C29 0.949 1_455 S
C35 C30 1.399 . S
C35 C33 1.382 . S
C35 H36 0.952 . S
H36 C35 0.952 . S
H37 C33 0.950 . S
H38 C39 0.949 . S
C39 H38 0.949 . S
C39 C40 1.398 . S
C39 C41 1.391 . S
C40 C39 1.398 . S
C40 C43 1.387 1_565 S
C41 C39 1.391 . S
C41 C45 1.387 . S
C41 C46 1.491 . S
H42 C43 0.959 . S
C43 C40 1.387 1_545 S
C43 H42 0.959 . S
C43 C44 1.374 1_545 S
C44 C43 1.374 1_565 S
C44 C45 1.416 . S
C45 C41 1.387 . S
C45 C44 1.416 . S
C45 H47 0.951 . S
C46 C41 1.491 . S
C46 C48 1.382 . S
C46 C50 1.404 . S
H47 C45 0.951 . S
C48 C46 1.382 . S
C48 C49 1.390 . S
C48 H53 0.949 1_565 S
C49 C48 1.390 . S
C49 C54 1.399 . S
C50 C46 1.404 . S
C50 H51 0.950 . S
C50 C52 1.375 . S
H51 C50 0.950 . S
C52 C50 1.375 . S
C52 C54 1.382 . S
C52 H56 0.950 . S
H53 C48 0.949 1_545 S
C54 C49 1.399 . S
C54 C52 1.382 . S
C54 H55 0.952 . S
H55 C54 0.952 . S
H56 C52 0.950 . S
H57 C58 0.949 . S
C58 H57 0.949 . S
C58 C59 1.395 . S
C58 C60 1.391 . S
C59 C58 1.395 . S
C59 C62 1.390 . S
C60 C58 1.391 . S
C60 C64 1.387 . S
C60 C65 1.491 . S
H61 C62 0.950 . S
C62 C59 1.390 . S
C62 H61 0.950 . S
C62 C63 1.378 . S
C63 C62 1.378 . S
C63 C64 1.409 . S
C64 C60 1.387 . S
C64 C63 1.409 . S
C64 H66 0.951 . S
C65 C60 1.491 . S
C65 C67 1.382 . S
C65 C69 1.404 . S
H66 C64 0.951 . S
C67 C65 1.382 . S
C67 C68 1.390 . S
C67 H72 0.949 . S
C68 C67 1.390 . S
C68 C73 1.399 . S
C69 C65 1.404 . S
C69 H70 0.950 . S
C69 C71 1.375 . S
H70 C69 0.950 . S
C71 C69 1.375 . S
C71 C73 1.382 . S
C71 H75 0.950 . S
H72 C67 0.949 . S
C73 C68 1.399 . S
C73 C71 1.382 . S
C73 H74 0.952 . S
H74 C73 0.952 . S
H75 C71 0.950 . S
H76 C77 0.949 . S
C77 H76 0.949 . S
C77 C78 1.395 . S
C77 C79 1.391 . S
C78 C77 1.395 . S
C78 C81 1.390 . S
C79 C77 1.391 . S
C79 C83 1.387 1_554 S
C79 C84 1.491 . S
H80 C81 0.950 . S
C81 C78 1.390 . S
C81 H80 0.950 . S
C81 C82 1.378 1_554 S
C82 C81 1.378 1_556 S
C82 C83 1.409 . S
C83 C79 1.387 1_556 S
C83 C82 1.409 . S
C83 H85 0.951 . S
C84 C79 1.491 . S
C84 C86 1.382 . S
C84 C88 1.404 1_554 S
H85 C83 0.951 . S
C86 C84 1.382 . S
C86 C87 1.390 . S
C86 H91 0.949 . S
C87 C86 1.390 . S
C87 C92 1.399 . S
C88 C84 1.404 1_556 S
C88 H89 0.950 . S
C88 C90 1.375 . S
H89 C88 0.950 . S
C90 C88 1.375 . S
C90 C92 1.382 1_556 S
C90 H94 0.950 . S
H91 C86 0.949 . S
C92 C87 1.399 . S
C92 C90 1.382 1_554 S
C92 H93 0.952 . S
H93 C92 0.952 . S
H94 C90 0.950 . S
H95 C96 0.949 . S
C96 H95 0.949 . S
C96 C97 1.390 1_655 S
C96 C98 1.391 . S
C97 C96 1.390 1_455 S
C97 C100 1.393 . S
C98 C96 1.391 . S
C98 C102 1.387 1_554 S
C98 C103 1.491 . S
H99 C100 0.950 . S
C100 C97 1.393 . S
C100 H99 0.950 . S
C100 C101 1.380 1_554 S
C101 C100 1.380 1_556 S
C101 C102 1.406 1_455 S
C102 C98 1.387 1_556 S
C102 C101 1.406 1_655 S
C102 H104 0.951 . S
C103 C98 1.491 . S
C103 C105 1.381 . S
C103 C107 1.404 1_554 S
H104 C102 0.951 . S
C105 C103 1.381 . S
C105 C106 1.389 . S
C105 H110 0.950 1_655 S
C106 C105 1.389 . S
C106 C111 1.399 . S
C107 C103 1.404 1_556 S
C107 H108 0.950 . S
C107 C109 1.375 . S
H108 C107 0.950 . S
C109 C107 1.375 . S
C109 C111 1.382 1_556 S
C109 H113 0.950 . S
H110 C105 0.950 1_455 S
C111 C106 1.399 . S
C111 C109 1.382 1_554 S
C111 H112 0.952 . S
H112 C111 0.952 . S
H113 C109 0.950 . S
H114 C115 0.949 . S
C115 H114 0.949 . S
C115 C116 1.388 1_565 S
C115 C117 1.391 . S
C116 C115 1.388 1_545 S
C116 C119 1.395 . S
C117 C115 1.391 . S
C117 C121 1.387 1_554 S
C117 C122 1.491 . S
H118 C119 0.950 . S
C119 C116 1.395 . S
C119 H118 0.950 . S
C119 C120 1.382 1_554 S
C120 C119 1.382 1_556 S
C120 C121 1.403 1_545 S
C121 C117 1.387 1_556 S
C121 C120 1.403 1_565 S
C121 H123 0.951 . S
C122 C117 1.491 . S
C122 C124 1.381 1_565 S
C122 C126 1.404 1_554 S
H123 C121 0.951 . S
C124 C122 1.381 1_545 S
C124 C125 1.389 1_545 S
C124 H129 0.951 . S
C125 C124 1.389 1_565 S
C125 C130 1.399 . S
C126 C122 1.404 1_556 S
C126 H127 0.950 . S
C126 C128 1.375 . S
H127 C126 0.950 . S
C128 C126 1.375 . S
C128 C130 1.382 1_556 S
C128 H132 0.950 . S
H129 C124 0.951 . S
C130 C125 1.399 . S
C130 C128 1.382 1_554 S
C130 H131 0.952 . S
H131 C130 0.952 . S
H132 C128 0.950 . S
H133 C134 0.949 . S
C134 H133 0.949 . S
C134 C135 1.395 . S
C134 C136 1.391 . S
C135 C134 1.395 . S
C135 C138 1.390 . S
C136 C134 1.391 . S
C136 C140 1.387 1_554 S
C136 C141 1.491 . S
H137 C138 0.950 . S
C138 C135 1.390 . S
C138 H137 0.950 . S
C138 C139 1.378 1_554 S
C139 C138 1.378 1_556 S
C139 C140 1.409 . S
C140 C136 1.387 1_556 S
C140 C139 1.409 . S
C140 H142 0.951 . S
C141 C136 1.491 . S
C141 C143 1.382 . S
C141 C145 1.404 1_554 S
H142 C140 0.951 . S
C143 C141 1.382 . S
C143 C144 1.390 . S
C143 H148 0.949 . S
C144 C143 1.390 . S
C144 C149 1.399 . S
C145 C141 1.404 1_556 S
C145 H146 0.950 . S
C145 C147 1.375 . S
H146 C145 0.950 . S
C147 C145 1.375 . S
C147 C149 1.382 1_556 S
C147 H151 0.950 . S
H148 C143 0.949 . S
C149 C144 1.399 . S
C149 C147 1.382 1_554 S
C149 H150 0.952 . S
H150 C149 0.952 . S
H151 C147 0.950 . S
Tb152 C162 2.825 . S
Tb152 O163 2.347 1_455 S
Tb152 O166 2.366 . S
Tb152 O171 2.418 . S
Tb152 O172 2.384 1_565 S
Tb152 O175 2.479 . S
Tb152 O176 2.482 . S
Eu153 O164 2.418 . S
Eu153 O165 2.384 1_545 S
Eu153 O168 2.479 . S
Eu153 O169 2.477 . S
Eu153 O170 2.347 1_655 S
Eu153 O173 2.366 . S
Eu153 C183 2.825 . S
C154 O170 1.241 1_565 S
C154 O171 1.297 . S
C155 O172 1.255 . S
C155 O173 1.265 1_455 S
C156 C158 1.380 . S
C156 C159 1.374 1_455 S
C156 C162 1.507 . S
C157 C158 1.384 . S
C157 C161 1.387 . S
C157 H184 0.930 . S
C158 C156 1.380 . S
C158 C157 1.384 . S
C158 H185 0.931 . S
C159 C156 1.374 1_655 S
C159 C160 1.390 1_655 S
C159 H186 0.930 . S
C160 C159 1.390 1_455 S
C160 C161 1.394 . S
C160 H187 0.926 1_455 S
C161 C157 1.387 . S
C161 C160 1.394 . S
C162 Tb152 2.825 . S
C162 C156 1.507 . S
C162 O175 1.238 . S
C162 O176 1.272 . S
O163 Tb152 2.347 1_655 S
O163 C167 1.259 1_565 S
O164 Eu153 2.418 . S
O164 C167 1.265 . S
O165 Eu153 2.384 1_565 S
O165 C174 1.255 . S
O166 Tb152 2.366 . S
O166 C174 1.265 1_455 S
C167 O163 1.259 1_545 S
C167 O164 1.265 . S
O168 Eu153 2.479 . S
O168 C183 1.238 . S
O169 Eu153 2.477 . S
O169 C183 1.259 . S
O170 Eu153 2.347 1_455 S
O170 C154 1.241 1_545 S
O171 Tb152 2.418 . S
O171 C154 1.297 . S
O172 Tb152 2.384 1_545 S
O172 C155 1.255 . S
O173 Eu153 2.366 . S
O173 C155 1.265 1_655 S
C174 O165 1.255 . S
C174 O166 1.265 1_655 S
O175 Tb152 2.479 . S
O175 C162 1.238 . S
O176 Tb152 2.482 . S
O176 C162 1.272 . S
C177 C180 1.380 . S
C177 C181 1.362 1_655 S
C177 C183 1.507 . S
C178 C179 1.387 . S
C178 C182 1.394 1_655 S
C179 C178 1.387 . S
C179 C180 1.384 . S
C179 H188 0.930 . S
C180 C177 1.380 . S
C180 C179 1.384 . S
C180 H189 0.931 . S
C181 C177 1.362 1_455 S
C181 C182 1.390 . S
C181 H190 0.943 . S
C182 C178 1.394 1_455 S
C182 C181 1.390 . S
C182 H191 0.926 . S
C183 Eu153 2.825 . S
C183 O168 1.238 . S
C183 O169 1.259 . S
C183 C177 1.507 . S
H184 C157 0.930 . S
H185 C158 0.931 . S
H186 C159 0.930 . S
H187 C160 0.926 1_655 S
H188 C179 0.930 . S
H189 C180 0.931 . S
H190 C181 0.943 . S
H191 C182 0.926 . S
Tb192 C202 2.825 . S
Tb192 O203 2.347 1_545 S
Tb192 O206 2.366 . S
Tb192 O211 2.418 . S
Tb192 O212 2.384 . S
Tb192 O215 2.479 . S
Tb192 O216 2.488 . S
Eu193 O204 2.418 . S
Eu193 O205 2.384 . S
Eu193 O208 2.479 . S
Eu193 O209 2.471 . S
Eu193 O210 2.347 1_565 S
Eu193 O213 2.366 . S
Eu193 C223 2.825 . S
C194 O210 1.259 . S
C194 O211 1.265 . S
C195 O212 1.255 . S
C195 O213 1.265 1_545 S
C196 C198 1.380 . S
C196 C199 1.374 . S
C196 C202 1.507 . S
C197 C198 1.384 . S
C197 C201 1.387 . S
C197 H224 0.930 . S
C198 C196 1.380 . S
C198 C197 1.384 . S
C198 H225 0.931 . S
C199 C196 1.374 . S
C199 C200 1.390 . S
C199 H226 0.930 1_545 S
C200 C199 1.390 . S
C200 C201 1.407 . S
C200 H227 0.913 1_545 S
C201 C197 1.387 . S
C201 C200 1.407 . S
C202 Tb192 2.825 . S
C202 C196 1.507 . S
C202 O215 1.238 . S
C202 O216 1.285 . S
O203 Tb192 2.347 1_565 S
O203 C207 1.259 . S
O204 Eu193 2.418 . S
O204 C207 1.265 . S
O205 Eu193 2.384 . S
O205 C214 1.255 . S
O206 Tb192 2.366 . S
O206 C214 1.265 1_545 S
C207 O203 1.259 . S
C207 O204 1.265 . S
O208 Eu193 2.479 . S
O208 C223 1.238 . S
O209 Eu193 2.471 . S
O209 C223 1.247 . S
O210 Eu193 2.347 1_545 S
O210 C194 1.259 . S
O211 Tb192 2.418 . S
O211 C194 1.265 . S
O212 Tb192 2.384 . S
O212 C195 1.255 . S
O213 Eu193 2.366 . S
O213 C195 1.265 1_565 S
C214 O205 1.255 . S
C214 O206 1.265 1_565 S
O215 Tb192 2.479 . S
O215 C202 1.238 . S
O216 Tb192 2.488 . S
O216 C202 1.285 . S
C217 C220 1.380 . S
C217 C221 1.349 1_565 S
C217 C223 1.507 . S
C218 C219 1.387 . S
C218 C222 1.382 1_565 S
C219 C218 1.387 . S
C219 C220 1.384 . S
C219 H228 0.930 . S
C220 C217 1.380 . S
C220 C219 1.384 . S
C220 H229 0.931 . S
C221 C217 1.349 1_545 S
C221 C222 1.390 . S
C221 H230 0.956 . S
C222 C218 1.382 1_545 S
C222 C221 1.390 . S
C222 H231 0.939 . S
C223 Eu193 2.825 . S
C223 O208 1.238 . S
C223 O209 1.247 . S
C223 C217 1.507 . S
H224 C197 0.930 . S
H225 C198 0.931 . S
H226 C199 0.930 1_565 S
H227 C200 0.913 1_565 S
H228 C219 0.930 . S
H229 C220 0.931 . S
H230 C221 0.956 . S
H231 C222 0.939 . S
Tb232 C242 2.825 . S
Tb232 O243 2.347 . S
Tb232 O246 2.366 . S
Tb232 O251 2.418 . S
Tb232 O252 2.384 . S
Tb232 O255 2.479 . S
Tb232 O256 2.471 . S
Eu233 O244 2.418 . S
Eu233 O245 2.384 . S
Eu233 O248 2.479 . S
Eu233 O249 2.471 . S
Eu233 O250 2.347 . S
Eu233 O253 2.366 . S
Eu233 C263 2.825 . S
C234 O250 1.259 . S
C234 O251 1.265 . S
C235 O252 1.255 . S
C235 O253 1.265 . S
C236 C238 1.380 . S
C236 C239 1.374 . S
C236 C242 1.507 . S
C237 C238 1.384 . S
C237 C241 1.387 . S
C237 H264 0.930 . S
C238 C236 1.380 . S
C238 C237 1.384 . S
C238 H265 0.931 . S
C239 C236 1.374 . S
C239 C240 1.390 . S
C239 H266 0.930 . S
C240 C239 1.390 . S
C240 C241 1.391 . S
C240 H267 0.930 . S
C241 C237 1.387 . S
C241 C240 1.391 . S
C242 Tb232 2.825 . S
C242 C236 1.507 . S
C242 O255 1.238 . S
C242 O256 1.247 . S
O243 Tb232 2.347 . S
O243 C247 1.259 . S
O244 Eu233 2.418 . S
O244 C247 1.265 . S
O245 Eu233 2.384 . S
O245 C254 1.255 . S
O246 Tb232 2.366 . S
O246 C254 1.265 . S
C247 O243 1.259 . S
C247 O244 1.265 . S
O248 Eu233 2.479 . S
O248 C263 1.238 . S
O249 Eu233 2.471 . S
O249 C263 1.247 . S
O250 Eu233 2.347 . S
O250 C234 1.259 . S
O251 Tb232 2.418 . S
O251 C234 1.265 . S
O252 Tb232 2.384 . S
O252 C235 1.255 . S
O253 Eu233 2.366 . S
O253 C235 1.265 . S
C254 O245 1.255 . S
C254 O246 1.265 . S
O255 Tb232 2.479 . S
O255 C242 1.238 . S
O256 Tb232 2.471 . S
O256 C242 1.247 . S
C257 C260 1.380 . S
C257 C261 1.374 . S
C257 C263 1.507 . S
C258 C259 1.387 . S
C258 C262 1.391 . S
C259 C258 1.387 . S
C259 C260 1.384 . S
C259 H268 0.930 . S
C260 C257 1.380 . S
C260 C259 1.384 . S
C260 H269 0.931 . S
C261 C257 1.374 . S
C261 C262 1.390 . S
C261 H270 0.930 . S
C262 C258 1.391 . S
C262 C261 1.390 . S
C262 H271 0.930 . S
C263 Eu233 2.825 . S
C263 O248 1.238 . S
C263 O249 1.247 . S
C263 C257 1.507 . S
H264 C237 0.930 . S
H265 C238 0.931 . S
H266 C239 0.930 . S
H267 C240 0.930 . S
H268 C259 0.930 . S
H269 C260 0.931 . S
H270 C261 0.930 . S
H271 C262 0.930 . S
Tb272 C282 2.825 . S
Tb272 O283 2.347 . S
Tb272 O286 2.366 . S
Tb272 O291 2.418 . S
Tb272 O292 2.384 1_655 S
Tb272 O295 2.479 . S
Tb272 O296 2.471 . S
Eu273 O284 2.418 . S
Eu273 O285 2.384 1_455 S
Eu273 O288 2.479 . S
Eu273 O289 2.471 . S
Eu273 O290 2.347 . S
Eu273 O293 2.366 . S
Eu273 C303 2.825 . S
C274 O290 1.259 1_655 S
C274 O291 1.265 . S
C275 O292 1.255 . S
C275 O293 1.265 . S
C276 C278 1.380 . S
C276 C279 1.374 . S
C276 C282 1.507 . S
C277 C278 1.384 . S
C277 C281 1.387 . S
C277 H304 0.930 . S
C278 C276 1.380 . S
C278 C277 1.384 . S
C278 H305 0.931 . S
C279 C276 1.374 . S
C279 C280 1.390 . S
C279 H306 0.930 . S
C280 C279 1.390 . S
C280 C281 1.391 . S
C280 H307 0.930 . S
C281 C277 1.387 . S
C281 C280 1.391 . S
C282 Tb272 2.825 . S
C282 C276 1.507 . S
C282 O295 1.238 . S
C282 O296 1.247 . S
O283 Tb272 2.347 . S
O283 C287 1.259 1_655 S
O284 Eu273 2.418 . S
O284 C287 1.265 . S
O285 Eu273 2.384 1_655 S
O285 C294 1.255 . S
O286 Tb272 2.366 . S
O286 C294 1.265 . S
C287 O283 1.259 1_455 S
C287 O284 1.265 . S
O288 Eu273 2.479 . S
O288 C303 1.238 . S
O289 Eu273 2.471 . S
O289 C303 1.247 . S
O290 Eu273 2.347 . S
O290 C274 1.259 1_455 S
O291 Tb272 2.418 . S
O291 C274 1.265 . S
O292 Tb272 2.384 1_455 S
O292 C275 1.255 . S
O293 Eu273 2.366 . S
O293 C275 1.265 . S
C294 O285 1.255 . S
C294 O286 1.265 . S
O295 Tb272 2.479 . S
O295 C282 1.238 . S
O296 Tb272 2.471 . S
O296 C282 1.247 . S
C297 C300 1.380 . S
C297 C301 1.374 . S
C297 C303 1.507 . S
C298 C299 1.387 . S
C298 C302 1.391 . S
C299 C298 1.387 . S
C299 C300 1.384 . S
C299 H308 0.930 . S
C300 C297 1.380 . S
C300 C299 1.384 . S
C300 H309 0.931 . S
C301 C297 1.374 . S
C301 C302 1.390 . S
C301 H310 0.930 . S
C302 C298 1.391 . S
C302 C301 1.390 . S
C302 H311 0.930 . S
C303 Eu273 2.825 . S
C303 O288 1.238 . S
C303 O289 1.247 . S
C303 C297 1.507 . S
H304 C277 0.930 . S
H305 C278 0.931 . S
H306 C279 0.930 . S
H307 C280 0.930 . S
H308 C299 0.930 . S
H309 C300 0.931 . S
H310 C301 0.930 . S
H311 C302 0.930 . S
C312 C313 1.307 1_565 S
C312 C314 1.327 . S
C312 H337 0.950 . S
C313 C312 1.307 1_545 S
C313 C329 1.392 . S
C314 C312 1.327 . S
C314 C333 1.388 1_565 S
C314 H338 0.950 . S
C315 C332 1.574 . S
C315 C334 1.414 . S
C315 H339 0.949 . S
H316 C320 0.949 . S
C317 C318 1.392 . S
C317 C319 1.327 . S
C317 H340 0.950 . S
C318 C317 1.392 . S
C318 C330 1.307 1_545 S
C319 C317 1.327 . S
C319 C335 1.470 . S
C319 H341 0.950 . S
C320 H316 0.949 . S
C320 C328 1.574 . S
C320 C336 1.324 1_565 S
H321 C329 0.950 . S
H322 C327 0.950 . S
H323 C328 0.949 . S
H324 C330 0.950 . S
H325 C331 0.950 . S
H326 C332 0.949 . S
C327 H322 0.950 . S
C327 C329 1.327 . S
C327 C333 1.470 . S
C328 C320 1.574 . S
C328 H323 0.949 . S
C328 C334 1.324 1_565 S
C329 C313 1.392 . S
C329 H321 0.950 . S
C329 C327 1.327 . S
C330 C318 1.307 1_565 S
C330 H324 0.950 . S
C330 C331 1.327 . S
C331 H325 0.950 . S
C331 C330 1.327 . S
C331 C335 1.388 1_565 S
C332 C315 1.574 . S
C332 H326 0.949 . S
C332 C336 1.414 . S
C333 C314 1.388 1_545 S
C333 C327 1.470 . S
C333 C334 1.523 . S
C334 C315 1.414 . S
C334 C328 1.324 1_545 S
C334 C333 1.523 . S
C335 C319 1.470 . S
C335 C331 1.388 1_545 S
C335 C336 1.523 . S
C336 C320 1.324 1_545 S
C336 C332 1.414 . S
C336 C335 1.523 . S
H337 C312 0.950 . S
H338 C314 0.950 . S
H339 C315 0.949 . S
H340 C317 0.950 . S
H341 C319 0.950 . S
C342 C343 1.349 . S
C342 C344 1.327 . S
C342 H367 0.950 . S
C343 C342 1.349 . S
C343 C359 1.349 . S
C344 C342 1.327 . S
C344 C363 1.429 . S
C344 H368 0.950 . S
C345 C362 1.574 . S
C345 C364 1.368 . S
C345 H369 0.949 . S
H346 C350 0.949 . S
C347 C348 1.349 . S
C347 C349 1.327 . S
C347 H370 0.950 . S
C348 C347 1.349 . S
C348 C360 1.349 . S
C349 C347 1.327 . S
C349 C365 1.429 . S
C349 H371 0.950 . S
C350 H346 0.949 . S
C350 C358 1.574 . S
C350 C366 1.368 . S
H351 C359 0.950 . S
H352 C357 0.950 . S
H353 C358 0.949 . S
H354 C360 0.950 . S
H355 C361 0.950 . S
H356 C362 0.949 . S
C357 H352 0.950 . S
C357 C359 1.327 . S
C357 C363 1.429 . S
C358 C350 1.574 . S
C358 H353 0.949 . S
C358 C364 1.368 . S
C359 C343 1.349 . S
C359 H351 0.950 . S
C359 C357 1.327 . S
C360 C348 1.349 . S
C360 H354 0.950 . S
C360 C361 1.327 . S
C361 H355 0.950 . S
C361 C360 1.327 . S
C361 C365 1.429 . S
C362 C345 1.574 . S
C362 H356 0.949 . S
C362 C366 1.368 . S
C363 C344 1.429 . S
C363 C357 1.429 . S
C363 C364 1.523 . S
C364 C345 1.368 . S
C364 C358 1.368 . S
C364 C363 1.523 . S
C365 C349 1.429 . S
C365 C361 1.429 . S
C365 C366 1.523 . S
C366 C350 1.368 . S
C366 C362 1.368 . S
C366 C365 1.523 . S
H367 C342 0.950 . S
H368 C344 0.950 . S
H369 C345 0.949 . S
H370 C347 0.950 . S
H371 C349 0.950 . S
C372 C373 1.349 . S
C372 C374 1.327 . S
C372 H397 0.950 . S
C373 C372 1.349 . S
C373 C389 1.349 . S
C374 C372 1.327 . S
C374 C393 1.429 . S
C374 H398 0.950 . S
C375 C392 1.574 . S
C375 C394 1.368 . S
C375 H399 0.949 . S
H376 C380 0.949 . S
C377 C378 1.349 . S
C377 C379 1.327 . S
C377 H400 0.950 . S
C378 C377 1.349 . S
C378 C390 1.349 . S
C379 C377 1.327 . S
C379 C395 1.429 . S
C379 H401 0.950 . S
C380 H376 0.949 . S
C380 C388 1.574 . S
C380 C396 1.368 . S
H381 C389 0.950 . S
H382 C387 0.950 . S
H383 C388 0.949 . S
H384 C390 0.950 . S
H385 C391 0.950 . S
H386 C392 0.949 . S
C387 H382 0.950 . S
C387 C389 1.327 . S
C387 C393 1.429 . S
C388 C380 1.574 . S
C388 H383 0.949 . S
C388 C394 1.368 . S
C389 C373 1.349 . S
C389 H381 0.950 . S
C389 C387 1.327 . S
C390 C378 1.349 . S
C390 H384 0.950 . S
C390 C391 1.327 . S
C391 H385 0.950 . S
C391 C390 1.327 . S
C391 C395 1.429 . S
C392 C375 1.574 . S
C392 H386 0.949 . S
C392 C396 1.368 . S
C393 C374 1.429 . S
C393 C387 1.429 . S
C393 C394 1.523 . S
C394 C375 1.368 . S
C394 C388 1.368 . S
C394 C393 1.523 . S
C395 C379 1.429 . S
C395 C391 1.429 . S
C395 C396 1.523 . S
C396 C380 1.368 . S
C396 C392 1.368 . S
C396 C395 1.523 . S
H397 C372 0.950 . S
H398 C374 0.950 . S
H399 C375 0.949 . S
H400 C377 0.950 . S
H401 C379 0.950 . S
C402 C403 1.311 1_655 S
C402 C404 1.327 . S
C402 H427 0.950 . S
C403 C402 1.311 1_455 S
C403 C419 1.387 . S
C404 C402 1.327 . S
C404 C423 1.392 1_655 S
C404 H428 0.950 . S
C405 C422 1.574 . S
C405 C424 1.409 . S
C405 H429 0.949 . S
H406 C410 0.949 . S
C407 C408 1.388 . S
C407 C409 1.327 . S
C407 H430 0.950 . S
C408 C407 1.388 . S
C408 C420 1.310 1_455 S
C409 C407 1.327 . S
C409 C425 1.466 . S
C409 H431 0.950 . S
C410 H406 0.949 . S
C410 C418 1.574 . S
C410 C426 1.328 1_655 S
H411 C419 0.950 . S
H412 C417 0.950 . S
H413 C418 0.949 . S
H414 C420 0.950 . S
H415 C421 0.950 . S
H416 C422 0.949 . S
C417 H412 0.950 . S
C417 C419 1.327 . S
C417 C423 1.466 . S
C418 C410 1.574 . S
C418 H413 0.949 . S
C418 C424 1.328 1_655 S
C419 C403 1.387 . S
C419 H411 0.950 . S
C419 C417 1.327 . S
C420 C408 1.310 1_655 S
C420 H414 0.950 . S
C420 C421 1.327 . S
C421 H415 0.950 . S
C421 C420 1.327 . S
C421 C425 1.391 1_655 S
C422 C405 1.574 . S
C422 H416 0.949 . S
C422 C426 1.409 . S
C423 C404 1.392 1_455 S
C423 C417 1.466 . S
C423 C424 1.523 . S
C424 C405 1.409 . S
C424 C418 1.328 1_455 S
C424 C423 1.523 . S
C425 C409 1.466 . S
C425 C421 1.391 1_455 S
C425 C426 1.523 . S
C426 C410 1.328 1_455 S
C426 C422 1.409 . S
C426 C425 1.523 . S
H427 C402 0.950 . S
H428 C404 0.950 . S
H429 C405 0.949 . S
H430 C407 0.950 . S
H431 C409 0.950 . S
C432 C433 1.336 1_545 S
C432 C434 1.327 . S
C432 H457 0.950 . S
C433 C432 1.336 1_565 S
C433 C449 1.361 . S
C434 C432 1.327 . S
C434 C453 1.416 1_545 S
C434 H458 0.950 . S
C435 C452 1.574 1_554 S
C435 C454 1.382 . S
C435 H459 0.949 . S
H436 C440 0.949 . S
C437 C438 1.362 . S
C437 C439 1.327 . S
C437 H460 0.950 . S
C438 C437 1.362 . S
C438 C450 1.335 1_565 S
C439 C437 1.327 . S
C439 C455 1.441 . S
C439 H461 0.950 . S
C440 H436 0.949 . S
C440 C448 1.574 . S
C440 C456 1.354 1_544 S
H441 C449 0.950 . S
H442 C447 0.950 . S
H443 C448 0.949 . S
H444 C450 0.950 . S
H445 C451 0.950 . S
H446 C452 0.949 . S
C447 H442 0.950 . S
C447 C449 1.327 . S
C447 C453 1.441 . S
C448 C440 1.574 . S
C448 H443 0.949 . S
C448 C454 1.355 1_545 S
C449 C433 1.361 . S
C449 H441 0.950 . S
C449 C447 1.327 . S
C450 C438 1.335 1_545 S
C450 H444 0.950 . S
C450 C451 1.327 . S
C451 H445 0.950 . S
C451 C450 1.327 . S
C451 C455 1.416 1_545 S
C452 C435 1.574 1_556 S
C452 H446 0.949 . S
C452 C456 1.382 . S
C453 C434 1.416 1_565 S
C453 C447 1.441 . S
C453 C454 1.523 . S
C454 C435 1.382 . S
C454 C448 1.355 1_565 S
C454 C453 1.523 . S
C455 C439 1.441 . S
C455 C451 1.416 1_565 S
C455 C456 1.523 . S
C456 C440 1.354 1_566 S
C456 C452 1.382 . S
C456 C455 1.523 . S
H457 C432 0.950 . S
H458 C434 0.950 . S
H459 C435 0.949 . S
H460 C437 0.950 . S
H461 C439 0.950 . S
C462 C463 1.349 . S
C462 C464 1.327 . S
C462 H487 0.950 . S
C463 C462 1.349 . S
C463 C479 1.349 . S
C464 C462 1.327 . S
C464 C483 1.429 . S
C464 H488 0.950 . S
C465 C482 1.574 . S
C465 C484 1.368 . S
C465 H489 0.949 . S
H466 C470 0.949 . S
C467 C468 1.349 . S
C467 C469 1.327 . S
C467 H490 0.950 . S
C468 C467 1.349 . S
C468 C480 1.349 . S
C469 C467 1.327 . S
C469 C485 1.429 . S
C469 H491 0.950 . S
C470 H466 0.949 . S
C470 C478 1.574 1_556 S
C470 C486 1.368 . S
H471 C479 0.950 . S
H472 C477 0.950 . S
H473 C478 0.949 . S
H474 C480 0.950 . S
H475 C481 0.950 . S
H476 C482 0.949 . S
C477 H472 0.950 . S
C477 C479 1.327 . S
C477 C483 1.429 . S
C478 C470 1.574 1_554 S
C478 H473 0.949 . S
C478 C484 1.368 . S
C479 C463 1.349 . S
C479 H471 0.950 . S
C479 C477 1.327 . S
C480 C468 1.349 . S
C480 H474 0.950 . S
C480 C481 1.327 . S
C481 H475 0.950 . S
C481 C480 1.327 . S
C481 C485 1.429 . S
C482 C465 1.574 . S
C482 H476 0.949 . S
C482 C486 1.368 1_554 S
C483 C464 1.429 . S
C483 C477 1.429 . S
C483 C484 1.523 . S
C484 C465 1.368 . S
C484 C478 1.368 . S
C484 C483 1.523 . S
C485 C469 1.429 . S
C485 C481 1.429 . S
C485 C486 1.523 . S
C486 C470 1.368 . S
C486 C482 1.368 1_556 S
C486 C485 1.523 . S
H487 C462 0.950 . S
H488 C464 0.950 . S
H489 C465 0.949 . S
H490 C467 0.950 . S
H491 C469 0.950 . S
C492 C493 1.349 . S
C492 C494 1.327 . S
C492 H517 0.950 . S
C493 C492 1.349 . S
C493 C509 1.349 . S
C494 C492 1.327 . S
C494 C513 1.429 . S
C494 H518 0.950 . S
C495 C512 1.574 1_554 S
C495 C514 1.368 . S
C495 H519 0.949 . S
H496 C500 0.949 . S
C497 C498 1.349 . S
C497 C499 1.327 . S
C497 H520 0.950 . S
C498 C497 1.349 . S
C498 C510 1.349 . S
C499 C497 1.327 . S
C499 C515 1.429 . S
C499 H521 0.950 . S
C500 H496 0.949 . S
C500 C508 1.574 . S
C500 C516 1.368 1_554 S
H501 C509 0.950 . S
H502 C507 0.950 . S
H503 C508 0.949 . S
H504 C510 0.950 . S
H505 C511 0.950 . S
H506 C512 0.949 . S
C507 H502 0.950 . S
C507 C509 1.327 . S
C507 C513 1.429 . S
C508 C500 1.574 . S
C508 H503 0.949 . S
C508 C514 1.368 . S
C509 C493 1.349 . S
C509 H501 0.950 . S
C509 C507 1.327 . S
C510 C498 1.349 . S
C510 H504 0.950 . S
C510 C511 1.327 . S
C511 H505 0.950 . S
C511 C510 1.327 . S
C511 C515 1.429 . S
C512 C495 1.574 1_556 S
C512 H506 0.949 . S
C512 C516 1.368 . S
C513 C494 1.429 . S
C513 C507 1.429 . S
C513 C514 1.523 . S
C514 C495 1.368 . S
C514 C508 1.368 . S
C514 C513 1.523 . S
C515 C499 1.429 . S
C515 C511 1.429 . S
C515 C516 1.523 . S
C516 C500 1.368 1_556 S
C516 C512 1.368 . S
C516 C515 1.523 . S
H517 C492 0.950 . S
H518 C494 0.950 . S
H519 C495 0.949 . S
H520 C497 0.950 . S
H521 C499 0.950 . S
C522 C523 1.369 . S
C522 C524 1.327 . S
C522 H547 0.950 . S
C523 C522 1.369 . S
C523 C539 1.329 1_655 S
C524 C522 1.327 . S
C524 C543 1.448 . S
C524 H548 0.950 . S
C525 C542 1.574 1_554 S
C525 C544 1.347 1_455 S
C525 H549 0.949 . S
H526 C530 0.949 . S
C527 C528 1.329 1_455 S
C527 C529 1.327 . S
C527 H550 0.950 . S
C528 C527 1.329 1_655 S
C528 C540 1.369 . S
C529 C527 1.327 . S
C529 C545 1.410 1_455 S
C529 H551 0.950 . S
C530 H526 0.949 . S
C530 C538 1.574 . S
C530 C546 1.390 1_554 S
H531 C539 0.950 . S
H532 C537 0.950 . S
H533 C538 0.949 . S
H534 C540 0.950 . S
H535 C541 0.950 . S
H536 C542 0.949 . S
C537 H532 0.950 . S
C537 C539 1.327 . S
C537 C543 1.410 1_455 S
C538 C530 1.574 . S
C538 H533 0.949 . S
C538 C544 1.390 . S
C539 C523 1.329 1_455 S
C539 H531 0.950 . S
C539 C537 1.327 . S
C540 C528 1.369 . S
C540 H534 0.950 . S
C540 C541 1.327 . S
C541 H535 0.950 . S
C541 C540 1.327 . S
C541 C545 1.448 . S
C542 C525 1.574 1_556 S
C542 H536 0.949 . S
C542 C546 1.347 1_455 S
C543 C524 1.448 . S
C543 C537 1.410 1_655 S
C543 C544 1.523 . S
C544 C525 1.347 1_655 S
C544 C538 1.390 . S
C544 C543 1.523 . S
C545 C529 1.410 1_655 S
C545 C541 1.448 . S
C545 C546 1.523 . S
C546 C530 1.390 1_556 S
C546 C542 1.347 1_655 S
C546 C545 1.523 . S
H547 C522 0.950 . S
H548 C524 0.950 . S
H549 C525 0.949 . S
H550 C527 0.950 . S
H551 C529 0.950 . S
C552 C553 1.349 1_655 S
C552 C554 1.327 . S
C552 H577 0.950 . S
C553 C552 1.349 1_455 S
C553 C569 1.349 . S
C554 C552 1.327 . S
C554 C573 1.429 . S
C554 H578 0.950 . S
C555 C572 1.574 . S
C555 C574 1.368 1_455 S
C555 H579 0.949 . S
H556 C560 0.949 . S
C557 C558 1.349 . S
C557 C559 1.327 . S
C557 H580 0.950 1_655 S
C558 C557 1.349 . S
C558 C570 1.349 . S
C559 C557 1.327 . S
C559 C575 1.429 . S
C559 H581 0.950 1_655 S
C560 H556 0.949 . S
C560 C568 1.574 . S
C560 C576 1.368 . S
H561 C569 0.950 . S
H562 C567 0.950 . S
H563 C568 0.949 . S
H564 C570 0.950 . S
H565 C571 0.950 . S
H566 C572 0.949 . S
C567 H562 0.950 . S
C567 C569 1.327 . S
C567 C573 1.429 1_455 S
C568 C560 1.574 . S
C568 H563 0.949 . S
C568 C574 1.368 . S
C569 C553 1.349 . S
C569 H561 0.950 . S
C569 C567 1.327 . S
C570 C558 1.349 . S
C570 H564 0.950 . S
C570 C571 1.327 . S
C571 H565 0.950 . S
C571 C570 1.327 . S
C571 C575 1.429 . S
C572 C555 1.574 . S
C572 H566 0.949 . S
C572 C576 1.368 1_455 S
C573 C554 1.429 . S
C573 C567 1.429 1_655 S
C573 C574 1.523 . S
C574 C555 1.368 1_655 S
C574 C568 1.368 . S
C574 C573 1.523 . S
C575 C559 1.429 . S
C575 C571 1.429 . S
C575 C576 1.523 . S
C576 C560 1.368 . S
C576 C572 1.368 1_655 S
C576 C575 1.523 . S
H577 C552 0.950 . S
H578 C554 0.950 . S
H579 C555 0.949 . S
H580 C557 0.950 1_455 S
H581 C559 0.950 1_455 S
C582 C583 1.349 . S
C582 C584 1.327 . S
C582 H607 0.950 . S
C583 C582 1.349 . S
C583 C599 1.349 1_545 S
C584 C582 1.327 . S
C584 C603 1.429 1_545 S
C584 H608 0.950 . S
C585 C602 1.574 . S
C585 C604 1.368 . S
C585 H609 0.949 . S
H586 C590 0.949 . S
C587 C588 1.349 . S
C587 C589 1.327 . S
C587 H610 0.950 . S
C588 C587 1.349 . S
C588 C600 1.349 . S
C589 C587 1.327 . S
C589 C605 1.429 . S
C589 H611 0.950 . S
C590 H586 0.949 . S
C590 C598 1.574 . S
C590 C606 1.368 1_545 S
H591 C599 0.950 . S
H592 C597 0.950 . S
H593 C598 0.949 . S
H594 C600 0.950 1_545 S
H595 C601 0.950 1_545 S
H596 C602 0.949 . S
C597 H592 0.950 . S
C597 C599 1.327 . S
C597 C603 1.429 . S
C598 C590 1.574 . S
C598 H593 0.949 . S
C598 C604 1.368 1_545 S
C599 C583 1.349 1_565 S
C599 H591 0.950 . S
C599 C597 1.327 . S
C600 C588 1.349 . S
C600 H594 0.950 1_565 S
C600 C601 1.327 . S
C601 H595 0.950 1_565 S
C601 C600 1.327 . S
C601 C605 1.429 . S
C602 C585 1.574 . S
C602 H596 0.949 . S
C602 C606 1.368 . S
C603 C584 1.429 1_565 S
C603 C597 1.429 . S
C603 C604 1.523 . S
C604 C585 1.368 . S
C604 C598 1.368 1_565 S
C604 C603 1.523 . S
C605 C589 1.429 . S
C605 C601 1.429 . S
C605 C606 1.523 . S
C606 C590 1.368 1_565 S
C606 C602 1.368 . S
C606 C605 1.523 . S
H607 C582 0.950 . S
H608 C584 0.950 . S
H609 C585 0.949 . S
H610 C587 0.950 . S
H611 C589 0.950 . S
C612 C613 1.349 . S
C612 C614 1.327 . S
C612 H637 0.950 . S
C613 C612 1.349 . S
C613 C629 1.349 . S
C614 C612 1.327 . S
C614 C633 1.429 . S
C614 H638 0.950 . S
C615 C632 1.574 . S
C615 C634 1.368 . S
C615 H639 0.949 . S
H616 C620 0.949 . S
C617 C618 1.349 . S
C617 C619 1.327 . S
C617 H640 0.950 . S
C618 C617 1.349 . S
C618 C630 1.349 . S
C619 C617 1.327 . S
C619 C635 1.429 . S
C619 H641 0.950 . S
C620 H616 0.949 . S
C620 C628 1.574 . S
C620 C636 1.368 . S
H621 C629 0.950 . S
H622 C627 0.950 . S
H623 C628 0.949 . S
H624 C630 0.950 . S
H625 C631 0.950 . S
H626 C632 0.949 . S
C627 H622 0.950 . S
C627 C629 1.327 . S
C627 C633 1.429 . S
C628 C620 1.574 . S
C628 H623 0.949 . S
C628 C634 1.368 . S
C629 C613 1.349 . S
C629 H621 0.950 . S
C629 C627 1.327 . S
C630 C618 1.349 . S
C630 H624 0.950 . S
C630 C631 1.327 . S
C631 H625 0.950 . S
C631 C630 1.327 . S
C631 C635 1.429 . S
C632 C615 1.574 . S
C632 H626 0.949 . S
C632 C636 1.368 . S
C633 C614 1.429 . S
C633 C627 1.429 . S
C633 C634 1.523 . S
C634 C615 1.368 . S
C634 C628 1.368 . S
C634 C633 1.523 . S
C635 C619 1.429 . S
C635 C631 1.429 . S
C635 C636 1.523 . S
C636 C620 1.368 . S
C636 C632 1.368 . S
C636 C635 1.523 . S
H637 C612 0.950 . S
H638 C614 0.950 . S
H639 C615 0.949 . S
H640 C617 0.950 . S
H641 C619 0.950 . S
C642 C643 1.349 . S
C642 C644 1.327 . S
C642 H667 0.950 . S
C643 C642 1.349 . S
C643 C659 1.349 . S
C644 C642 1.327 . S
C644 C663 1.429 . S
C644 H668 0.950 . S
C645 C662 1.574 . S
C645 C664 1.368 . S
C645 H669 0.949 . S
H646 C650 0.949 . S
C647 C648 1.349 . S
C647 C649 1.327 . S
C647 H670 0.950 . S
C648 C647 1.349 . S
C648 C660 1.349 . S
C649 C647 1.327 . S
C649 C665 1.429 . S
C649 H671 0.950 . S
C650 H646 0.949 . S
C650 C658 1.574 . S
C650 C666 1.368 . S
H651 C659 0.950 . S
H652 C657 0.950 . S
H653 C658 0.949 . S
H654 C660 0.950 . S
H655 C661 0.950 . S
H656 C662 0.949 . S
C657 H652 0.950 . S
C657 C659 1.327 . S
C657 C663 1.429 . S
C658 C650 1.574 . S
C658 H653 0.949 . S
C658 C664 1.368 . S
C659 C643 1.349 . S
C659 H651 0.950 . S
C659 C657 1.327 . S
C660 C648 1.349 . S
C660 H654 0.950 . S
C660 C661 1.327 . S
C661 H655 0.950 . S
C661 C660 1.327 . S
C661 C665 1.429 . S
C662 C645 1.574 . S
C662 H656 0.949 . S
C662 C666 1.368 . S
C663 C644 1.429 . S
C663 C657 1.429 . S
C663 C664 1.523 . S
C664 C645 1.368 . S
C664 C658 1.368 . S
C664 C663 1.523 . S
C665 C649 1.429 . S
C665 C661 1.429 . S
C665 C666 1.523 . S
C666 C650 1.368 . S
C666 C662 1.368 . S
C666 C665 1.523 . S
H667 C642 0.950 . S
H668 C644 0.950 . S
H669 C645 0.949 . S
H670 C647 0.950 . S
H671 C649 0.950 . S
C672 C673 1.349 1_455 S
C672 C674 1.327 . S
C672 H697 0.950 . S
C673 C672 1.349 1_655 S
C673 C689 1.349 . S
C674 C672 1.327 . S
C674 C693 1.429 . S
C674 H698 0.950 . S
C675 C692 1.569 1_655 S
C675 C694 1.352 1_655 S
C675 H699 0.971 . S
H676 C680 0.949 . S
C677 C678 1.349 . S
C677 C679 1.327 . S
C677 H700 0.950 . S
C678 C677 1.349 . S
C678 C690 1.349 1_556 S
C679 C677 1.327 . S
C679 C695 1.429 1_556 S
C679 H701 0.950 . S
C680 H676 0.949 . S
C680 C688 1.574 . S
C680 C696 1.368 . S
H681 C689 0.950 . S
H682 C687 0.950 . S
H683 C688 0.949 . S
H684 C690 0.950 . S
H685 C691 0.950 . S
H686 C692 0.949 1_656 S
C687 H682 0.950 . S
C687 C689 1.327 . S
C687 C693 1.429 1_655 S
C688 C680 1.574 . S
C688 H683 0.949 . S
C688 C694 1.368 . S
C689 C673 1.349 . S
C689 H681 0.950 . S
C689 C687 1.327 . S
C690 C678 1.349 1_554 S
C690 H684 0.950 . S
C690 C691 1.327 . S
C691 H685 0.950 . S
C691 C690 1.327 . S
C691 C695 1.429 . S
C692 C675 1.569 1_455 S
C692 H686 0.949 1_454 S
C692 C696 1.368 . S
C693 C674 1.429 . S
C693 C687 1.429 1_455 S
C693 C694 1.523 . S
C694 C675 1.352 1_455 S
C694 C688 1.368 . S
C694 C693 1.523 . S
C695 C679 1.429 1_554 S
C695 C691 1.429 . S
C695 C696 1.523 . S
C696 C680 1.368 . S
C696 C692 1.368 . S
C696 C695 1.523 . S
H697 C672 0.950 . S
H698 C674 0.950 . S
H699 C675 0.971 . S
H700 C677 0.950 . S
H701 C679 0.950 . S
C702 C703 1.392 . S
C702 C704 1.327 . S
C702 H727 0.950 . S
C703 C702 1.392 . S
C703 C719 1.299 1_565 S
C704 C702 1.327 . S
C704 C723 1.429 1_565 S
C704 H728 0.950 . S
C705 C722 1.574 . S
C705 C724 1.368 . S
C705 H729 0.949 . S
H706 C710 0.949 . S
C707 C708 1.349 . S
C707 C709 1.327 1_556 S
C707 H730 0.950 . S
C708 C707 1.349 . S
C708 C720 1.349 1_556 S
C709 C707 1.327 1_554 S
C709 C725 1.429 . S
C709 H731 0.950 1_554 S
C710 H706 0.949 . S
C710 C718 1.574 . S
C710 C726 1.368 1_565 S
H711 C719 0.950 . S
H712 C717 0.950 . S
H713 C718 0.949 . S
H714 C720 0.950 1_565 S
H715 C721 0.940 1_565 S
H716 C722 0.949 . S
C717 H712 0.950 . S
C717 C719 1.327 . S
C717 C723 1.429 . S
C718 C710 1.574 . S
C718 H713 0.949 . S
C718 C724 1.368 1_565 S
C719 C703 1.299 1_545 S
C719 H711 0.950 . S
C719 C717 1.327 . S
C720 C708 1.349 1_554 S
C720 H714 0.950 1_545 S
C720 C721 1.329 . S
C721 H715 0.940 1_545 S
C721 C720 1.329 . S
C721 C725 1.436 . S
C722 C705 1.574 . S
C722 H716 0.949 . S
C722 C726 1.368 . S
C723 C704 1.429 1_545 S
C723 C717 1.429 . S
C723 C724 1.523 . S
C724 C705 1.368 . S
C724 C718 1.368 1_545 S
C724 C723 1.523 . S
C725 C709 1.429 . S
C725 C721 1.436 . S
C725 C726 1.523 . S
C726 C710 1.368 1_545 S
C726 C722 1.368 . S
C726 C725 1.523 . S
H727 C702 0.950 . S
H728 C704 0.950 . S
H729 C705 0.949 . S
H730 C707 0.950 . S
H731 C709 0.950 1_556 S
C732 C733 1.349 . S
C732 C734 1.327 . S
C732 H757 0.950 . S
C733 C732 1.349 . S
C733 C749 1.349 . S
C734 C732 1.327 . S
C734 C753 1.429 . S
C734 H758 0.950 . S
C735 C752 1.574 . S
C735 C754 1.368 . S
C735 H759 0.949 . S
H736 C740 0.949 . S
C737 C738 1.349 . S
C737 C739 1.327 . S
C737 H760 0.950 . S
C738 C737 1.349 . S
C738 C750 1.349 1_556 S
C739 C737 1.327 . S
C739 C755 1.429 1_556 S
C739 H761 0.950 . S
C740 H736 0.949 . S
C740 C748 1.574 . S
C740 C756 1.368 . S
H741 C749 0.950 . S
H742 C747 0.950 . S
H743 C748 0.949 . S
H744 C750 0.950 . S
H745 C751 0.950 . S
H746 C752 0.949 . S
C747 H742 0.950 . S
C747 C749 1.327 . S
C747 C753 1.429 . S
C748 C740 1.574 . S
C748 H743 0.949 . S
C748 C754 1.368 . S
C749 C733 1.349 . S
C749 H741 0.950 . S
C749 C747 1.327 . S
C750 C738 1.349 1_554 S
C750 H744 0.950 . S
C750 C751 1.327 . S
C751 H745 0.950 . S
C751 C750 1.327 . S
C751 C755 1.429 . S
C752 C735 1.574 . S
C752 H746 0.949 . S
C752 C756 1.368 . S
C753 C734 1.429 . S
C753 C747 1.429 . S
C753 C754 1.523 . S
C754 C735 1.368 . S
C754 C748 1.368 . S
C754 C753 1.523 . S
C755 C739 1.429 1_554 S
C755 C751 1.429 . S
C755 C756 1.523 . S
C756 C740 1.368 . S
C756 C752 1.368 . S
C756 C755 1.523 . S
H757 C732 0.950 . S
H758 C734 0.950 . S
H759 C735 0.949 . S
H760 C737 0.950 . S
H761 C739 0.950 . S
C762 C763 1.349 . S
C762 C764 1.327 . S
C762 H787 0.950 . S
C763 C762 1.349 . S
C763 C779 1.349 . S
C764 C762 1.327 . S
C764 C783 1.429 . S
C764 H788 0.950 . S
C765 C782 1.574 . S
C765 C784 1.368 . S
C765 H789 0.949 . S
H766 C770 0.949 . S
C767 C768 1.349 . S
C767 C769 1.327 . S
C767 H790 0.950 . S
C768 C767 1.349 . S
C768 C780 1.349 1_556 S
C769 C767 1.327 . S
C769 C785 1.429 1_556 S
C769 H791 0.950 . S
C770 H766 0.949 . S
C770 C778 1.574 . S
C770 C786 1.368 . S
H771 C779 0.950 . S
H772 C777 0.950 . S
H773 C778 0.949 . S
H774 C780 0.950 . S
H775 C781 0.950 . S
H776 C782 0.949 1_556 S
C777 H772 0.950 . S
C777 C779 1.327 . S
C777 C783 1.429 . S
C778 C770 1.574 . S
C778 H773 0.949 . S
C778 C784 1.368 . S
C779 C763 1.349 . S
C779 H771 0.950 . S
C779 C777 1.327 . S
C780 C768 1.349 1_554 S
C780 H774 0.950 . S
C780 C781 1.327 . S
C781 H775 0.950 . S
C781 C780 1.327 . S
C781 C785 1.429 . S
C782 C765 1.574 . S
C782 H776 0.949 1_554 S
C782 C786 1.368 . S
C783 C764 1.429 . S
C783 C777 1.429 . S
C783 C784 1.523 . S
C784 C765 1.368 . S
C784 C778 1.368 . S
C784 C783 1.523 . S
C785 C769 1.429 1_554 S
C785 C781 1.429 . S
C785 C786 1.523 . S
C786 C770 1.368 . S
C786 C782 1.368 . S
C786 C785 1.523 . S
H787 C762 0.950 . S
H788 C764 0.950 . S
H789 C765 0.949 . S
H790 C767 0.950 . S
H791 C769 0.950 . S
C792 C793 1.349 1_655 S
C792 C794 1.327 . S
C792 H817 0.950 . S
C793 C792 1.349 1_455 S
C793 C809 1.349 . S
C794 C792 1.327 . S
C794 C813 1.429 1_655 S
C794 H818 0.950 . S
C795 C812 1.574 . S
C795 C814 1.368 . S
C795 H819 0.949 . S
H796 C800 0.949 . S
C797 C798 1.349 . S
C797 C799 1.327 . S
C797 H820 0.950 . S
C798 C797 1.349 . S
C798 C810 1.349 1_455 S
C799 C797 1.327 . S
C799 C815 1.429 . S
C799 H821 0.950 . S
C800 H796 0.949 . S
C800 C808 1.574 . S
C800 C816 1.368 1_655 S
H801 C809 0.950 . S
H802 C807 0.950 . S
H803 C808 0.949 . S
H804 C810 0.950 . S
H805 C811 0.950 . S
H806 C812 0.949 . S
C807 H802 0.950 . S
C807 C809 1.327 . S
C807 C813 1.429 . S
C808 C800 1.574 . S
C808 H803 0.949 . S
C808 C814 1.368 1_655 S
C809 C793 1.349 . S
C809 H801 0.950 . S
C809 C807 1.327 . S
C810 C798 1.349 1_655 S
C810 H804 0.950 . S
C810 C811 1.327 . S
C811 H805 0.950 . S
C811 C810 1.327 . S
C811 C815 1.429 1_655 S
C812 C795 1.574 . S
C812 H806 0.949 . S
C812 C816 1.368 . S
C813 C794 1.429 1_455 S
C813 C807 1.429 . S
C813 C814 1.523 . S
C814 C795 1.368 . S
C814 C808 1.368 1_455 S
C814 C813 1.523 . S
C815 C799 1.429 . S
C815 C811 1.429 1_455 S
C815 C816 1.523 . S
C816 C800 1.368 1_455 S
C816 C812 1.368 . S
C816 C815 1.523 . S
H817 C792 0.950 . S
H818 C794 0.950 . S
H819 C795 0.949 . S
H820 C797 0.950 . S
H821 C799 0.950 . S
C822 C823 1.349 1_565 S
C822 C824 1.327 . S
C822 H847 0.950 . S
C823 C822 1.349 1_545 S
C823 C839 1.349 . S
C824 C822 1.327 . S
C824 C843 1.429 1_565 S
C824 H848 0.950 . S
C825 C842 1.574 . S
C825 C844 1.368 . S
C825 H849 0.949 . S
H826 C830 0.949 . S
C827 C828 1.349 . S
C827 C829 1.327 . S
C827 H850 0.950 . S
C828 C827 1.349 . S
C828 C840 1.349 1_545 S
C829 C827 1.327 . S
C829 C845 1.429 . S
C829 H851 0.950 . S
C830 H826 0.949 . S
C830 C838 1.574 . S
C830 C846 1.368 1_565 S
H831 C839 0.950 . S
H832 C837 0.950 . S
H833 C838 0.949 . S
H834 C840 0.950 . S
H835 C841 0.950 . S
H836 C842 0.949 . S
C837 H832 0.950 . S
C837 C839 1.327 . S
C837 C843 1.429 . S
C838 C830 1.574 . S
C838 H833 0.949 . S
C838 C844 1.368 1_565 S
C839 C823 1.349 . S
C839 H831 0.950 . S
C839 C837 1.327 . S
C840 C828 1.349 1_565 S
C840 H834 0.950 . S
C840 C841 1.327 . S
C841 H835 0.950 . S
C841 C840 1.327 . S
C841 C845 1.429 1_565 S
C842 C825 1.574 . S
C842 H836 0.949 . S
C842 C846 1.368 . S
C843 C824 1.429 1_545 S
C843 C837 1.429 . S
C843 C844 1.523 . S
C844 C825 1.368 . S
C844 C838 1.368 1_545 S
C844 C843 1.523 . S
C845 C829 1.429 . S
C845 C841 1.429 1_545 S
C845 C846 1.523 . S
C846 C830 1.368 1_545 S
C846 C842 1.368 . S
C846 C845 1.523 . S
H847 C822 0.950 . S
H848 C824 0.950 . S
H849 C825 0.949 . S
H850 C827 0.950 . S
H851 C829 0.950 . S
C852 C853 1.349 . S
C852 C854 1.327 . S
C852 H877 0.950 . S
C853 C852 1.349 . S
C853 C869 1.349 . S
C854 C852 1.327 . S
C854 C873 1.429 . S
C854 H878 0.950 . S
C855 C872 1.574 . S
C855 C874 1.368 . S
C855 H879 0.949 . S
H856 C860 0.949 . S
C857 C858 1.349 . S
C857 C859 1.327 . S
C857 H880 0.950 . S
C858 C857 1.349 . S
C858 C870 1.349 . S
C859 C857 1.327 . S
C859 C875 1.429 . S
C859 H881 0.950 . S
C860 H856 0.949 . S
C860 C868 1.574 . S
C860 C876 1.368 . S
H861 C869 0.950 . S
H862 C867 0.950 . S
H863 C868 0.949 . S
H864 C870 0.950 . S
H865 C871 0.950 . S
H866 C872 0.949 . S
C867 H862 0.950 . S
C867 C869 1.327 . S
C867 C873 1.429 . S
C868 C860 1.574 . S
C868 H863 0.949 . S
C868 C874 1.368 . S
C869 C853 1.349 . S
C869 H861 0.950 . S
C869 C867 1.327 . S
C870 C858 1.349 . S
C870 H864 0.950 . S
C870 C871 1.327 . S
C871 H865 0.950 . S
C871 C870 1.327 . S
C871 C875 1.429 . S
C872 C855 1.574 . S
C872 H866 0.949 . S
C872 C876 1.368 . S
C873 C854 1.429 . S
C873 C867 1.429 . S
C873 C874 1.523 . S
C874 C855 1.368 . S
C874 C868 1.368 . S
C874 C873 1.523 . S
C875 C859 1.429 . S
C875 C871 1.429 . S
C875 C876 1.523 . S
C876 C860 1.368 . S
C876 C872 1.368 . S
C876 C875 1.523 . S
H877 C852 0.950 . S
H878 C854 0.950 . S
H879 C855 0.949 . S
H880 C857 0.950 . S
H881 C859 0.950 . S
C882 C883 1.349 . S
C882 C884 1.327 . S
C882 H907 0.950 . S
C883 C882 1.349 . S
C883 C899 1.349 . S
C884 C882 1.327 . S
C884 C903 1.429 . S
C884 H908 0.950 . S
C885 C902 1.574 . S
C885 C904 1.368 . S
C885 H909 0.949 . S
H886 C890 0.949 . S
C887 C888 1.349 . S
C887 C889 1.327 . S
C887 H910 0.950 . S
C888 C887 1.349 . S
C888 C900 1.349 . S
C889 C887 1.327 . S
C889 C905 1.429 . S
C889 H911 0.950 . S
C890 H886 0.949 . S
C890 C898 1.574 . S
C890 C906 1.368 . S
H891 C899 0.950 . S
H892 C897 0.950 . S
H893 C898 0.949 . S
H894 C900 0.950 . S
H895 C901 0.950 . S
H896 C902 0.949 . S
C897 H892 0.950 . S
C897 C899 1.327 . S
C897 C903 1.429 . S
C898 C890 1.574 . S
C898 H893 0.949 . S
C898 C904 1.368 . S
C899 C883 1.349 . S
C899 H891 0.950 . S
C899 C897 1.327 . S
C900 C888 1.349 . S
C900 H894 0.950 . S
C900 C901 1.327 . S
C901 H895 0.950 . S
C901 C900 1.327 . S
C901 C905 1.429 . S
C902 C885 1.574 . S
C902 H896 0.949 . S
C902 C906 1.368 . S
C903 C884 1.429 . S
C903 C897 1.429 . S
C903 C904 1.523 . S
C904 C885 1.368 . S
C904 C898 1.368 . S
C904 C903 1.523 . S
C905 C889 1.429 . S
C905 C901 1.429 . S
C905 C906 1.523 . S
C906 C890 1.368 . S
C906 C902 1.368 . S
C906 C905 1.523 . S
H907 C882 0.950 . S
H908 C884 0.950 . S
H909 C885 0.949 . S
H910 C887 0.950 . S
H911 C889 0.950 . S
C912 C913 1.349 . S
C912 C914 1.327 . S
C912 H937 0.950 . S
C913 C912 1.349 . S
C913 C929 1.349 1_655 S
C914 C912 1.327 . S
C914 C933 1.429 . S
C914 H938 0.950 . S
C915 C932 1.574 . S
C915 C934 1.368 1_455 S
C915 H939 0.949 . S
H916 C920 0.949 . S
C917 C918 1.349 1_455 S
C917 C919 1.327 . S
C917 H940 0.950 . S
C918 C917 1.349 1_655 S
C918 C930 1.349 . S
C919 C917 1.327 . S
C919 C935 1.429 1_455 S
C919 H941 0.950 . S
C920 H916 0.949 . S
C920 C928 1.574 . S
C920 C936 1.368 . S
H921 C929 0.950 . S
H922 C927 0.950 . S
H923 C928 0.949 . S
H924 C930 0.950 . S
H925 C931 0.950 . S
H926 C932 0.949 . S
C927 H922 0.950 . S
C927 C929 1.327 . S
C927 C933 1.429 1_455 S
C928 C920 1.574 . S
C928 H923 0.949 . S
C928 C934 1.368 . S
C929 C913 1.349 1_455 S
C929 H921 0.950 . S
C929 C927 1.327 . S
C930 C918 1.349 . S
C930 H924 0.950 . S
C930 C931 1.327 . S
C931 H925 0.950 . S
C931 C930 1.327 . S
C931 C935 1.429 . S
C932 C915 1.574 . S
C932 H926 0.949 . S
C932 C936 1.368 1_455 S
C933 C914 1.429 . S
C933 C927 1.429 1_655 S
C933 C934 1.523 . S
C934 C915 1.368 1_655 S
C934 C928 1.368 . S
C934 C933 1.523 . S
C935 C919 1.429 1_655 S
C935 C931 1.429 . S
C935 C936 1.523 . S
C936 C920 1.368 . S
C936 C932 1.368 1_655 S
C936 C935 1.523 . S
H937 C912 0.950 . S
H938 C914 0.950 . S
H939 C915 0.949 . S
H940 C917 0.950 . S
H941 C919 0.950 . S
C942 C943 1.308 1_545 S
C942 C944 1.327 . S
C942 H967 0.950 . S
C943 C942 1.308 1_565 S
C943 C959 1.393 . S
C944 C942 1.327 . S
C944 C963 1.429 1_545 S
C944 H968 0.950 . S
C945 C962 1.574 . S
C945 C964 1.368 . S
C945 H969 0.949 . S
H946 C950 0.949 . S
C947 C948 1.349 . S
C947 C949 1.327 . S
C947 H970 0.950 . S
C948 C947 1.349 . S
C948 C960 1.349 1_565 S
C949 C947 1.327 . S
C949 C965 1.429 . S
C949 H971 0.950 . S
C950 H946 0.949 . S
C950 C958 1.574 . S
C950 C966 1.368 1_545 S
H951 C959 0.950 . S
H952 C957 0.950 . S
H953 C958 0.949 . S
H954 C960 0.950 . S
H955 C961 0.950 . S
H956 C962 0.949 . S
C957 H952 0.950 . S
C957 C959 1.327 . S
C957 C963 1.429 . S
C958 C950 1.574 . S
C958 H953 0.949 . S
C958 C964 1.368 1_545 S
C959 C943 1.393 . S
C959 H951 0.950 . S
C959 C957 1.327 . S
C960 C948 1.349 1_545 S
C960 H954 0.950 . S
C960 C961 1.327 . S
C961 H955 0.950 . S
C961 C960 1.327 . S
C961 C965 1.429 1_545 S
C962 C945 1.574 . S
C962 H956 0.949 . S
C962 C966 1.368 . S
C963 C944 1.429 1_565 S
C963 C957 1.429 . S
C963 C964 1.523 . S
C964 C945 1.368 . S
C964 C958 1.368 1_565 S
C964 C963 1.523 . S
C965 C949 1.429 . S
C965 C961 1.429 1_565 S
C965 C966 1.523 . S
C966 C950 1.368 1_565 S
C966 C962 1.368 . S
C966 C965 1.523 . S
H967 C942 0.950 . S
H968 C944 0.950 . S
H969 C945 0.949 . S
H970 C947 0.950 . S
H971 C949 0.950 . S
C972 C973 1.349 . S
C972 C974 1.327 . S
C972 H997 0.950 . S
C973 C972 1.349 . S
C973 C989 1.349 . S
C974 C972 1.327 . S
C974 C993 1.429 . S
C974 H998 0.950 . S
C975 C992 1.574 . S
C975 C994 1.368 . S
C975 H999 0.949 . S
H976 C980 0.949 . S
C977 C978 1.349 . S
C977 C979 1.327 . S
C977 H1000 0.950 . S
C978 C977 1.349 . S
C978 C990 1.349 . S
C979 C977 1.327 . S
C979 C995 1.429 . S
C979 H1001 0.950 . S
C980 H976 0.949 . S
C980 C988 1.574 . S
C980 C996 1.368 . S
H981 C989 0.950 . S
H982 C987 0.950 . S
H983 C988 0.949 . S
H984 C990 0.950 . S
H985 C991 0.950 . S
H986 C992 0.949 . S
C987 H982 0.950 . S
C987 C989 1.327 . S
C987 C993 1.429 . S
C988 C980 1.574 . S
C988 H983 0.949 . S
C988 C994 1.368 . S
C989 C973 1.349 . S
C989 H981 0.950 . S
C989 C987 1.327 . S
C990 C978 1.349 . S
C990 H984 0.950 . S
C990 C991 1.327 . S
C991 H985 0.950 . S
C991 C990 1.327 . S
C991 C995 1.429 . S
C992 C975 1.574 . S
C992 H986 0.949 . S
C992 C996 1.368 . S
C993 C974 1.429 . S
C993 C987 1.429 . S
C993 C994 1.523 . S
C994 C975 1.368 . S
C994 C988 1.368 . S
C994 C993 1.523 . S
C995 C979 1.429 . S
C995 C991 1.429 . S
C995 C996 1.523 . S
C996 C980 1.368 . S
C996 C992 1.368 . S
C996 C995 1.523 . S
H997 C972 0.950 . S
H998 C974 0.950 . S
H999 C975 0.949 . S
H1000 C977 0.950 . S
H1001 C979 0.950 . S
C1002 C1003 1.349 . S
C1002 C1004 1.327 . S
C1002 H1027 0.950 . S
C1003 C1002 1.349 . S
C1003 C1019 1.349 . S
C1004 C1002 1.327 . S
C1004 C1023 1.429 . S
C1004 H1028 0.950 . S
C1005 C1022 1.574 . S
C1005 C1024 1.368 . S
C1005 H1029 0.949 . S
H1006 C1010 0.949 . S
C1007 C1008 1.349 . S
C1007 C1009 1.327 . S
C1007 H1030 0.950 . S
C1008 C1007 1.349 . S
C1008 C1020 1.349 . S
C1009 C1007 1.327 . S
C1009 C1025 1.429 . S
C1009 H1031 0.950 . S
C1010 H1006 0.949 . S
C1010 C1018 1.574 . S
C1010 C1026 1.368 . S
H1011 C1019 0.950 . S
H1012 C1017 0.950 . S
H1013 C1018 0.949 . S
H1014 C1020 0.950 . S
H1015 C1021 0.950 . S
H1016 C1022 0.949 . S
C1017 H1012 0.950 . S
C1017 C1019 1.327 . S
C1017 C1023 1.429 . S
C1018 C1010 1.574 . S
C1018 H1013 0.949 . S
C1018 C1024 1.368 . S
C1019 C1003 1.349 . S
C1019 H1011 0.950 . S
C1019 C1017 1.327 . S
C1020 C1008 1.349 . S
C1020 H1014 0.950 . S
C1020 C1021 1.327 . S
C1021 H1015 0.950 . S
C1021 C1020 1.327 . S
C1021 C1025 1.429 . S
C1022 C1005 1.574 . S
C1022 H1016 0.949 . S
C1022 C1026 1.368 . S
C1023 C1004 1.429 . S
C1023 C1017 1.429 . S
C1023 C1024 1.523 . S
C1024 C1005 1.368 . S
C1024 C1018 1.368 . S
C1024 C1023 1.523 . S
C1025 C1009 1.429 . S
C1025 C1021 1.429 . S
C1025 C1026 1.523 . S
C1026 C1010 1.368 . S
C1026 C1022 1.368 . S
C1026 C1025 1.523 . S
H1027 C1002 0.950 . S
H1028 C1004 0.950 . S
H1029 C1005 0.949 . S
H1030 C1007 0.950 . S
H1031 C1009 0.950 . S
C313 C125 1.815 1_545 S
C318 C154 1.865 1_545 S
C348 C194 1.872 . S
C343 C144 1.826 . S
C378 C234 1.871 . S
C373 C87 1.826 . S
C408 C274 1.867 1_455 S
C403 C106 1.817 1_455 S
C438 C167 1.869 1_565 S
C433 C49 1.830 . S
C463 C68 1.826 . S
C468 C207 1.871 . S
C493 C11 1.826 . S
C498 C247 1.871 . S
C523 C30 1.832 . S
C528 C287 1.869 1_655 S
C558 C178 0.374 . S
C553 C97 0.474 . S
C588 C218 0.374 . S
C583 C116 0.477 . S
C618 C258 0.375 . S
C613 C135 0.469 . S
C643 C78 0.469 . S
C648 C298 0.373 . S
C673 C21 0.472 . S
C678 C161 0.373 . S
C708 C201 0.375 . S
C703 C40 0.466 . S
C738 C241 0.375 . S
C733 C59 0.468 . S
C763 C2 0.467 . S
C768 C281 0.375 . S
C793 C101 1.935 . S
C798 C155 2.118 . S
C823 C120 1.936 . S
C828 C195 2.118 . S
C858 C235 2.119 . S
C853 C139 1.934 . S
C888 C275 2.118 . S
C883 C82 1.933 . S
C913 C25 1.935 . S
C918 C174 2.119 . S
C948 C214 2.118 . S
C943 C44 1.933 . S
C978 C254 2.117 . S
C973 C63 1.933 . S
C1003 C6 1.933 . S
C1008 C294 2.120 . S
