# Generated by pormake.
# Topology zzz, (3,6)-cn, num edge types: 1
# Building blocks:
#     Node 0, Type 0, BuildingBlock: VETTIZ_charged_linker_0, # of connection points: 3
#     Node 1, Type 0, BuildingBlock: VETTIZ_charged_linker_0, # of connection points: 3
#     Node 2, Type 0, BuildingBlock: VETTIZ_charged_linker_0, # of connection points: 3
#     Node 3, Type 0, BuildingBlock: VETTIZ_charged_linker_0, # of connection points: 3
#     Node 4, Type 0, BuildingBlock: VETTIZ_charged_linker_0, # of connection points: 3
#     Node 5, Type 0, BuildingBlock: VETTIZ_charged_linker_0, # of connection points: 3
#     Node 6, Type 0, BuildingBlock: VETTIZ_charged_linker_0, # of connection points: 3
#     Node 7, Type 0, BuildingBlock: VETTIZ_charged_linker_0, # of connection points: 3
#     Node 8, Type 1, BuildingBlock: GEDQOX_clean_sbu_0, # of connection points: 6
#     Node 9, Type 1, BuildingBlock: GEDQOX_clean_sbu_0, # of connection points: 6
#     Node 10, Type 1, BuildingBlock: GEDQOX_clean_sbu_0, # of connection points: 6
#     Node 11, Type 1, BuildingBlock: GEDQOX_clean_sbu_0, # of connection points: 6
#     Edge 12, Type (0, 1), BuildingBlock: EZIPEK_clean_linker_0, # of connection points: 2
#     Edge 13, Type (0, 1), BuildingBlock: EZIPEK_clean_linker_0, # of connection points: 2
#     Edge 14, Type (0, 1), BuildingBlock: EZIPEK_clean_linker_0, # of connection points: 2
#     Edge 15, Type (0, 1), BuildingBlock: EZIPEK_clean_linker_0, # of connection points: 2
#     Edge 16, Type (0, 1), BuildingBlock: EZIPEK_clean_linker_0, # of connection points: 2
#     Edge 17, Type (0, 1), BuildingBlock: EZIPEK_clean_linker_0, # of connection points: 2
#     Edge 18, Type (0, 1), BuildingBlock: EZIPEK_clean_linker_0, # of connection points: 2
#     Edge 19, Type (0, 1), BuildingBlock: EZIPEK_clean_linker_0, # of connection points: 2
#     Edge 20, Type (0, 1), BuildingBlock: EZIPEK_clean_linker_0, # of connection points: 2
#     Edge 21, Type (0, 1), BuildingBlock: EZIPEK_clean_linker_0, # of connection points: 2
#     Edge 22, Type (0, 1), BuildingBlock: EZIPEK_clean_linker_0, # of connection points: 2
#     Edge 23, Type (0, 1), BuildingBlock: EZIPEK_clean_linker_0, # of connection points: 2
#     Edge 24, Type (0, 1), BuildingBlock: EZIPEK_clean_linker_0, # of connection points: 2
#     Edge 25, Type (0, 1), BuildingBlock: EZIPEK_clean_linker_0, # of connection points: 2
#     Edge 26, Type (0, 1), BuildingBlock: EZIPEK_clean_linker_0, # of connection points: 2
#     Edge 27, Type (0, 1), BuildingBlock: EZIPEK_clean_linker_0, # of connection points: 2
#     Edge 28, Type (0, 1), BuildingBlock: EZIPEK_clean_linker_0, # of connection points: 2
#     Edge 29, Type (0, 1), BuildingBlock: EZIPEK_clean_linker_0, # of connection points: 2
#     Edge 30, Type (0, 1), BuildingBlock: EZIPEK_clean_linker_0, # of connection points: 2
#     Edge 31, Type (0, 1), BuildingBlock: EZIPEK_clean_linker_0, # of connection points: 2
#     Edge 32, Type (0, 1), BuildingBlock: EZIPEK_clean_linker_0, # of connection points: 2
#     Edge 33, Type (0, 1), BuildingBlock: EZIPEK_clean_linker_0, # of connection points: 2
#     Edge 34, Type (0, 1), BuildingBlock: EZIPEK_clean_linker_0, # of connection points: 2
#     Edge 35, Type (0, 1), BuildingBlock: EZIPEK_clean_linker_0, # of connection points: 2
# Relax obj value: 0.321
# Max RMSD: 0.323
# Mean RMSD: 0.199
data_MOF--net-zzz--node1-GEDQOX_clean_sbu_0--node2-VETTIZ_charged_linker_0--edge1-EZIPEK_clean_linker_0
_symmetry_space_group_name_H-M    P1
_symmetry_Int_Tables_number       1
_symmetry_cell_setting            triclinic
loop_
_symmetry_equiv_pos_as_xyz
'x, y, z'
_cell_length_a     48.458211
_cell_length_b     45.211127
_cell_length_c     17.931908
_cell_angle_alpha  80.080045
_cell_angle_beta   90.693649
_cell_angle_gamma 104.29083
loop_
_atom_site_label
_atom_site_type_symbol
_atom_site_fract_x
_atom_site_fract_y
_atom_site_fract_z
_atom_type_partial_charge
C0 C 0.79022 0.52151 0.38805 0.0
C1 C 0.81199 0.51172 0.43063 0.0
C2 C 0.81908 0.48434 0.41977 0.0
C3 C 0.78967 0.48254 0.31062 0.0
C4 C 0.77893 0.50606 0.32861 0.0
C5 C 0.75663 0.51328 0.27389 0.0
H6 H 0.70994 0.52784 0.9261 0.0
C7 C 0.77999 0.47665 0.23553 0.0
C8 C 0.75828 0.49197 0.21699 0.0
H9 H 0.65579 0.50913 0.12749 0.0
H10 H 0.6931 0.49176 0.20306 0.0
H11 H 0.79747 0.53428 0.97157 0.0
H12 H 0.72712 0.46088 0.9812 0.0
H13 H 0.76279 0.46761 0.9488 0.0
H14 H 0.74004 0.48977 0.89891 0.0
H15 H 0.77322 0.55455 0.99561 0.0
H16 H 0.76972 0.54059 0.90723 0.0
C17 C 0.76521 0.54774 0.23615 0.0
C18 C 0.72767 0.50528 0.31705 0.0
C19 C 0.85483 0.4554 0.07102 0.0
C20 C 0.86369 0.46786 0.99545 0.0
C21 C 0.8453 0.48128 0.94695 0.0
C22 C 0.81914 0.48383 0.97472 0.0
C23 C 0.81191 0.47401 0.05236 0.0
C24 C 0.82995 0.46056 0.09943 0.0
C25 C 0.82187 0.45672 0.18201 0.0
C26 C 0.7955 0.46962 0.17663 0.0
C27 C 0.78929 0.47872 0.1003 0.0
C28 C 0.84688 0.47587 0.22269 0.0
C29 C 0.81422 0.42185 0.21586 0.0
C30 C 0.70649 0.52134 0.9869 0.0
C31 C 0.68049 0.52141 0.0215 0.0
C32 C 0.67613 0.51089 0.10038 0.0
C33 C 0.6978 0.50232 0.14467 0.0
C34 C 0.72422 0.5052 0.11026 0.0
C35 C 0.72763 0.5118 0.03245 0.0
C36 C 0.7544 0.50428 0.00695 0.0
C37 C 0.76545 0.49148 0.08279 0.0
C38 C 0.74872 0.49488 0.14206 0.0
C39 C 0.77485 0.53486 0.96771 0.0
C40 C 0.74587 0.47943 0.95584 0.0
H41 H 0.81276 0.44815 0.35399 0.0
H42 H 0.78361 0.54175 0.39788 0.0
H43 H 0.71762 0.47998 0.32525 0.0
H44 H 0.71301 0.51835 0.28739 0.0
H45 H 0.7302 0.51214 0.37385 0.0
H46 H 0.78664 0.55362 0.20782 0.0
H47 H 0.76571 0.56304 0.27869 0.0
H48 H 0.74969 0.55296 0.19291 0.0
H49 H 0.86881 0.44524 0.10927 0.0
H50 H 0.85176 0.491 0.88841 0.0
H51 H 0.80626 0.49477 0.93557 0.0
H52 H 0.84345 0.49883 0.22814 0.0
H53 H 0.8677 0.48064 0.1924 0.0
H54 H 0.85045 0.46329 0.27913 0.0
H55 H 0.7994 0.40838 0.17888 0.0
H56 H 0.80337 0.41708 0.27211 0.0
H57 H 0.83369 0.41292 0.22163 0.0
H58 H 0.83478 0.47564 0.45453 0.0
C59 C 0.80735 0.46921 0.36063 0.0
C60 C 0.00556 0.83568 1.005 0.0
C61 C 0.99959 0.86405 0.01057 0.0
C62 C 0.97455 0.86434 0.04949 0.0
C63 C 0.96812 0.81021 0.0982 0.0
C64 C 0.98865 0.80866 0.04775 0.0
C65 C 0.99192 0.77628 0.05403 0.0
H66 H 0.01269 0.65197 0.23788 0.0
C67 C 0.96226 0.78196 0.15515 0.0
C68 C 0.97248 0.76037 0.12388 0.0
H69 H 0.97717 0.6622 0.01415 0.0
H70 H 0.95943 0.70526 0.04249 0.0
H71 H 0.03769 0.73235 0.24469 0.0
H72 H 0.95434 0.67382 0.32602 0.0
H73 H 0.97551 0.69409 0.3928 0.0
H74 H 0.98622 0.66305 0.36022 0.0
H75 H 0.03505 0.69793 0.31462 0.0
H76 H 0.02796 0.73202 0.34039 0.0
C77 C 0.02331 0.7755 0.06802 0.0
C78 C 0.98172 0.76443 0.98024 0.0
C79 C 0.96711 0.80785 0.41789 0.0
C80 C 0.98404 0.80117 0.47874 0.0
C81 C 0.9956 0.77507 0.48256 0.0
C82 C 0.99127 0.75712 0.4236 0.0
C83 C 0.97656 0.76641 0.35886 0.0
C84 C 0.9653 0.79193 0.35702 0.0
C85 C 0.95673 0.80407 0.27967 0.0
C86 C 0.96266 0.78039 0.23526 0.0
C87 C 0.97358 0.75745 0.282 0.0
C88 C 0.97586 0.83746 0.25353 0.0
C89 C 0.9247 0.80301 0.28199 0.0
C90 C 1.00204 0.66418 0.19402 0.0
C91 C 0.99767 0.65469 0.12177 0.0
C92 C 0.98212 0.66991 0.06785 0.0
C93 C 0.97288 0.69517 0.08217 0.0
C94 C 0.98076 0.70649 0.14859 0.0
C95 C 0.9927 0.69041 0.20662 0.0
C96 C 0.9939 0.70597 0.27688 0.0
C97 C 0.98009 0.73307 0.2485 0.0
C98 C 0.9752 0.73343 0.17155 0.0
C99 C 0.02537 0.71772 0.2956 0.0
C100 C 0.97654 0.68296 0.34296 0.0
H101 H 0.93977 0.83754 0.12455 0.0
H102 H 0.02403 0.83498 0.97262 0.0
H103 H 0.98974 0.78259 0.92985 0.0
H104 H 0.95807 0.75783 0.97913 0.0
H105 H 0.99028 0.74455 0.97258 0.0
H106 H 0.03092 0.78535 0.11945 0.0
H107 H 0.03738 0.78894 0.01897 0.0
H108 H 0.02578 0.75141 0.076 0.0
H109 H 0.95849 0.82806 0.41308 0.0
H110 H 0.00892 0.76947 0.5291 0.0
H111 H 1.00071 0.73778 0.42806 0.0
H112 H 0.98565 0.84902 0.30059 0.0
H113 H 0.96363 0.85345 0.2241 0.0
H114 H 0.99408 0.83706 0.21734 0.0
H115 H 0.91215 0.77988 0.3108 0.0
H116 H 0.91642 0.80705 0.22437 0.0
H117 H 0.92067 0.82082 0.31316 0.0
H118 H 0.96904 0.88601 0.05139 0.0
C119 C 0.95825 0.83697 0.09266 0.0
C120 C 0.8651 0.02679 0.07833 0.0
C121 C 0.87975 0.03873 0.00781 0.0
C122 C 0.86784 0.05698 0.9513 0.0
C123 C 0.82816 0.05311 0.03606 0.0
C124 C 0.83916 0.0342 0.09115 0.0
C125 C 0.82029 0.02418 0.16237 0.0
H126 H 0.70228 0.03771 0.34669 0.0
C127 C 0.8028 0.05926 0.06844 0.0
C128 C 0.79823 0.04304 0.14338 0.0
H129 H 0.75227 0.97191 0.41918 0.0
H130 H 0.78555 0.99531 0.31125 0.0
H131 H 0.7577 0.09774 0.28844 0.0
H132 H 0.69216 0.03321 0.21063 0.0
H133 H 0.70618 0.053 0.12087 0.0
H134 H 0.69202 0.07279 0.18481 0.0
H135 H 0.72081 0.09763 0.27719 0.0
H136 H 0.74737 0.11735 0.20339 0.0
C137 C 0.83802 0.03339 0.2306 0.0
C138 C 0.80685 0.98896 0.17039 0.0
C139 C 0.73438 0.10709 0.90491 0.0
C140 C 0.708 0.11127 0.92689 0.0
C141 C 0.7043 0.11728 0.9999 0.0
C142 C 0.72409 0.11274 0.055 0.0
C143 C 0.74708 0.10146 0.03654 0.0
C144 C 0.75381 0.10193 0.96166 0.0
C145 C 0.78034 0.09062 0.9545 0.0
C146 C 0.78482 0.0784 0.03744 0.0
C147 C 0.76463 0.0841 0.08451 0.0
C148 C 0.80484 0.11886 0.92062 0.0
C149 C 0.77398 0.06432 0.90685 0.0
C150 C 0.72049 0.02844 0.33937 0.0
C151 C 0.72469 1.00302 0.3904 0.0
C152 C 0.74862 0.99148 0.37974 0.0
C153 C 0.76761 1.00483 0.31682 0.0
C154 C 0.76217 0.02947 0.26369 0.0
C155 C 0.73891 0.04082 0.27631 0.0
C156 C 0.73512 0.06602 0.21408 0.0
C157 C 0.7592 0.06719 0.15943 0.0
C158 C 0.77543 0.04618 0.18873 0.0
C159 C 0.74029 0.09636 0.24714 0.0
C160 C 0.70497 0.05599 0.18078 0.0
H161 H 0.83459 0.07893 0.9205 0.0
H162 H 0.87399 0.01272 0.12257 0.0
H163 H 0.8015 0.98232 0.11403 0.0
H164 H 0.78652 0.98145 0.20341 0.0
H165 H 0.82179 0.97542 0.19684 0.0
H166 H 0.85062 0.0579 0.2169 0.0
H167 H 0.8531 0.01852 0.24572 0.0
H168 H 0.82458 0.03165 0.28119 0.0
H169 H 0.73768 0.10316 0.84821 0.0
H170 H 0.68448 0.12166 0.01676 0.0
H171 H 0.7195 0.11558 0.11116 0.0
H172 H 0.79944 0.14133 0.92159 0.0
H173 H 0.80995 0.11838 0.86069 0.0
H174 H 0.82449 0.11994 0.95357 0.0
H175 H 0.75381 0.047 0.92739 0.0
H176 H 0.79065 0.05141 0.91015 0.0
H177 H 0.77182 0.07367 0.84619 0.0
H178 H 0.87894 0.0664 0.89703 0.0
C179 C 0.84231 0.06447 0.96528 0.0
C180 C 0.56211 0.74412 0.54109 0.0
C181 C 0.57648 0.72262 0.58147 0.0
C182 C 0.60652 0.73008 0.57741 0.0
C183 C 0.60668 0.77305 0.47789 0.0
C184 C 0.57822 0.77012 0.49033 0.0
C185 C 0.56941 0.79751 0.44248 0.0
H186 H 0.60671 0.916 0.13315 0.0
C187 C 0.61676 0.79607 0.41053 0.0
C188 C 0.59621 0.8129 0.39119 0.0
H189 H 0.53236 0.89743 0.27929 0.0
H190 H 0.54754 0.8547 0.35786 0.0
H191 H 0.65709 0.90006 0.25871 0.0
H192 H 0.59921 0.85979 0.1058 0.0
H193 H 0.61514 0.82926 0.1353 0.0
H194 H 0.63605 0.86622 0.08638 0.0
H195 H 0.65614 0.90915 0.15709 0.0
H196 H 0.67323 0.8799 0.20165 0.0
C197 C 0.56393 0.8187 0.49646 0.0
C198 C 0.54322 0.78549 0.39663 0.0
C199 C 0.66072 0.75595 0.21662 0.0
C200 C 0.65699 0.76496 0.13939 0.0
C201 C 0.66275 0.79678 0.10908 0.0
C202 C 0.66519 0.81827 0.15832 0.0
C203 C 0.65874 0.807 0.23572 0.0
C204 C 0.6593 0.77674 0.26526 0.0
C205 C 0.64845 0.76726 0.34635 0.0
C206 C 0.63721 0.79532 0.3558 0.0
C207 C 0.64215 0.81776 0.28952 0.0
C208 C 0.67379 0.7634 0.39717 0.0
C209 C 0.62437 0.73673 0.35466 0.0
C210 C 0.59427 0.90348 0.18374 0.0
C211 C 0.56872 0.91031 0.20084 0.0
C212 C 0.55238 0.89273 0.2656 0.0
C213 C 0.56127 0.86813 0.31124 0.0
C214 C 0.58669 0.86104 0.29186 0.0
C215 C 0.60256 0.8787 0.2286 0.0
C216 C 0.62622 0.86538 0.20787 0.0
C217 C 0.6244 0.83891 0.27459 0.0
C218 C 0.60107 0.83623 0.32413 0.0
C219 C 0.6548 0.88998 0.20592 0.0
C220 C 0.61905 0.8546 0.13023 0.0
H221 H 0.64467 0.76174 0.52543 0.0
H222 H 0.53925 0.74023 0.54748 0.0
H223 H 0.54745 0.76833 0.36347 0.0
H224 H 0.53777 0.80436 0.35608 0.0
H225 H 0.52434 0.774 0.43483 0.0
H226 H 0.5815 0.82271 0.53691 0.0
H227 H 0.54371 0.8079 0.52992 0.0
H228 H 0.56296 0.8418 0.46644 0.0
H229 H 0.65809 0.73158 0.23886 0.0
H230 H 0.66158 0.80447 0.04877 0.0
H231 H 0.66867 0.84237 0.13459 0.0
H232 H 0.6905 0.75688 0.36612 0.0
H233 H 0.6672 0.7443 0.44613 0.0
H234 H 0.68395 0.7852 0.41798 0.0
H235 H 0.60721 0.73941 0.31427 0.0
H236 H 0.61447 0.72914 0.41181 0.0
H237 H 0.63273 0.71698 0.34461 0.0
H238 H 0.61812 0.71527 0.61146 0.0
C239 C 0.62176 0.75588 0.52699 0.0
C240 C 0.35685 0.54667 0.63312 0.0
C241 C 0.3643 0.55019 0.70772 0.0
C242 C 0.34666 0.56148 0.75186 0.0
C243 C 0.31591 0.56767 0.64575 0.0
C244 C 0.33259 0.55549 0.60332 0.0
C245 C 0.32137 0.55334 0.52508 0.0
H246 H 0.2181 0.57422 0.27757 0.0
C247 C 0.29402 0.57737 0.5964 0.0
C248 C 0.29741 0.56962 0.52503 0.0
H249 H 0.27812 0.51875 0.26743 0.0
H250 H 0.30256 0.53812 0.37566 0.0
H251 H 0.20689 0.55629 0.46793 0.0
H252 H 0.25271 0.63216 0.30673 0.0
H253 H 0.25839 0.64701 0.3926 0.0
H254 H 0.22288 0.63586 0.35803 0.0
H255 H 0.19463 0.57832 0.38661 0.0
H256 H 0.19948 0.59276 0.47245 0.0
C257 C 0.31021 0.51853 0.51934 0.0
C258 C 0.34502 0.57135 0.46546 0.0
C259 C 0.21154 0.6129 0.69334 0.0
C260 C 0.19183 0.6276 0.65354 0.0
C261 C 0.19847 0.64262 0.57787 0.0
C262 C 0.22119 0.63778 0.53828 0.0
C263 C 0.23721 0.61818 0.57543 0.0
C264 C 0.23495 0.60953 0.65297 0.0
C265 C 0.2594 0.59599 0.68267 0.0
C266 C 0.27304 0.59325 0.60852 0.0
C267 C 0.25848 0.60466 0.54657 0.0
C268 C 0.24756 0.5639 0.73239 0.0
C269 C 0.27952 0.61943 0.72538 0.0
C270 C 0.23675 0.56668 0.2985 0.0
C271 C 0.2462 0.54496 0.26535 0.0
C272 C 0.27055 0.53546 0.29288 0.0
C273 C 0.28435 0.54636 0.35596 0.0
C274 C 0.27328 0.5664 0.39224 0.0
C275 C 0.25018 0.57671 0.36236 0.0
C276 C 0.23991 0.59623 0.41048 0.0
C277 C 0.26015 0.59497 0.47602 0.0
C278 C 0.27945 0.57732 0.46531 0.0
C279 C 0.20858 0.58009 0.43604 0.0
C280 C 0.2436 0.6295 0.36486 0.0
H281 H 0.30988 0.57897 0.7567 0.0
H282 H 0.36987 0.53759 0.59864 0.0
H283 H 0.35493 0.59471 0.47887 0.0
H284 H 0.33676 0.5751 0.40781 0.0
H285 H 0.36204 0.55886 0.46436 0.0
H286 H 0.30713 0.50333 0.57597 0.0
H287 H 0.32529 0.51063 0.48591 0.0
H288 H 0.28899 0.51357 0.4938 0.0
H289 H 0.20788 0.60287 0.75279 0.0
H290 H 0.18439 0.6554 0.5475 0.0
H291 H 0.22486 0.64803 0.47959 0.0
H292 H 0.23143 0.54889 0.70142 0.0
H293 H 0.23726 0.56619 0.78539 0.0
H294 H 0.26448 0.55168 0.74836 0.0
H295 H 0.27404 0.64224 0.71722 0.0
H296 H 0.30197 0.62461 0.70462 0.0
H297 H 0.27851 0.61072 0.78738 0.0
H298 H 0.35194 0.56395 0.8097 0.0
C299 C 0.32255 0.57038 0.72107 0.0
C300 C 0.07362 0.26165 0.66158 0.0
C301 C 0.08223 0.23512 0.65196 0.0
C302 C 0.1055 0.23764 0.60298 0.0
C303 C 0.10436 0.29005 0.5551 0.0
C304 C 0.08564 0.28938 0.61277 0.0
C305 C 0.0787 0.32008 0.60869 0.0
H306 H 0.04175 0.43847 0.43217 0.0
C307 C 0.10497 0.31731 0.49788 0.0
C308 C 0.09384 0.3372 0.53302 0.0
H309 H 0.0851 0.43348 0.6456 0.0
H310 H 0.10497 0.39279 0.61195 0.0
H311 H 0.09971 0.42183 0.33151 0.0
H312 H 0.0212 0.35688 0.42804 0.0
H313 H 0.0287 0.35828 0.33016 0.0
H314 H 0.01969 0.39072 0.35998 0.0
H315 H 0.06574 0.42912 0.30444 0.0
H316 H 0.07806 0.39969 0.26878 0.0
C317 C 0.09087 0.33392 0.67855 0.0
C318 C 0.04612 0.31611 0.60583 0.0
C319 C 0.09165 0.28755 0.24032 0.0
C320 C 0.07348 0.29311 0.18189 0.0
C321 C 0.06064 0.31823 0.17997 0.0
C322 C 0.06508 0.33628 0.23882 0.0
C323 C 0.08165 0.32835 0.30083 0.0
C324 C 0.09422 0.30394 0.30026 0.0
C325 C 0.10687 0.29419 0.37374 0.0
C326 C 0.10121 0.31766 0.41898 0.0
C327 C 0.08686 0.33845 0.37619 0.0
C328 C 0.13915 0.29851 0.36018 0.0
C329 C 0.09079 0.25996 0.40611 0.0
C330 C 0.05444 0.42765 0.47318 0.0
C331 C 0.06054 0.43804 0.54398 0.0
C332 C 0.07879 0.42489 0.59354 0.0
C333 C 0.08922 0.40079 0.57662 0.0
C334 C 0.07976 0.38826 0.51268 0.0
C335 C 0.06495 0.40248 0.45816 0.0
C336 C 0.06297 0.38686 0.38782 0.0
C337 C 0.07956 0.36183 0.41202 0.0
C338 C 0.08672 0.36242 0.48753 0.0
C339 C 0.0774 0.41069 0.31902 0.0
C340 C 0.03139 0.37237 0.37542 0.0
H341 H 0.13449 0.2671 0.51663 0.0
H342 H 0.05707 0.26029 0.703 0.0
H343 H 0.03729 0.30484 0.55726 0.0
H344 H 0.04079 0.3389 0.59947 0.0
H345 H 0.03526 0.30172 0.65884 0.0
H346 H 0.08678 0.31592 0.73063 0.0
H347 H 0.08029 0.35187 0.68998 0.0
H348 H 0.11428 0.34376 0.67151 0.0
H349 H 0.10157 0.26835 0.24325 0.0
H350 H 0.04653 0.3231 0.1348 0.0
H351 H 0.05474 0.35488 0.23598 0.0
H352 H 0.14867 0.32125 0.32373 0.0
H353 H 0.14319 0.27994 0.3317 0.0
H354 H 0.15081 0.29839 0.41353 0.0
H355 H 0.07874 0.24736 0.36326 0.0
H356 H 0.07455 0.25874 0.45047 0.0
H357 H 0.10566 0.24572 0.42837 0.0
H358 H 0.11348 0.21757 0.59899 0.0
C359 C 0.11723 0.26566 0.55528 0.0
C360 C 0.34732 0.12022 0.34068 0.0
C361 C 0.37566 0.12049 0.32201 0.0
C362 C 0.39394 0.11358 0.38015 0.0
C363 C 0.35503 0.10082 0.47212 0.0
C364 C 0.33742 0.11026 0.41681 0.0
C365 C 0.30763 0.10622 0.44898 0.0
H366 H 0.2171 0.05503 0.76131 0.0
C367 C 0.3379 0.0872 0.54239 0.0
C368 C 0.31005 0.09059 0.53064 0.0
H369 H 0.19729 0.09816 0.54023 0.0
H370 H 0.24541 0.10246 0.49368 0.0
H371 H 0.24073 1.00931 0.69561 0.0
H372 H 0.28448 0.09226 0.77523 0.0
H373 H 0.29863 0.06073 0.81594 0.0
H374 H 0.26167 0.05854 0.83172 0.0
H375 H 0.25092 1.00823 0.79207 0.0
H376 H 0.27449 1.00366 0.71981 0.0
C377 C 0.28613 0.08494 0.40483 0.0
C378 C 0.30226 0.13872 0.44482 0.0
C379 C 0.38162 0.02566 0.75171 0.0
C380 C 0.37011 1.00418 0.81636 0.0
C381 C 0.34134 0.99969 0.83771 0.0
C382 C 0.32435 0.01699 0.79484 0.0
C383 C 0.33613 0.03798 0.72888 0.0
C384 C 0.36424 0.04163 0.70817 0.0
C385 C 0.37252 0.06166 0.63234 0.0
C386 C 0.34463 0.06978 0.61051 0.0
C387 C 0.32367 0.05651 0.66776 0.0
C388 C 0.38143 0.04144 0.57954 0.0
C389 C 0.39608 0.09062 0.64387 0.0
C390 C 0.22327 0.06584 0.70319 0.0
C391 C 0.20366 0.0768 0.65489 0.0
C392 C 0.21223 0.08993 0.57881 0.0
C393 C 0.24008 0.09237 0.55196 0.0
C394 C 0.25929 0.08076 0.60113 0.0
C395 C 0.25036 0.0672 0.67494 0.0
C396 C 0.27169 0.05224 0.71686 0.0
C397 C 0.29614 0.06178 0.65909 0.0
C398 C 0.28907 0.07855 0.59088 0.0
C399 C 0.25892 0.01657 0.73246 0.0
C400 C 0.27958 0.06652 0.78909 0.0
H401 H 0.39881 0.0981 0.49571 0.0
H402 H 0.33307 0.12613 0.29683 0.0
H403 H 0.32101 0.15473 0.465 0.0
H404 H 0.28401 0.1386 0.48104 0.0
H405 H 0.29858 0.14874 0.3856 0.0
H406 H 0.29427 0.06479 0.39615 0.0
H407 H 0.28254 0.09766 0.34826 0.0
H408 H 0.26539 0.07509 0.43531 0.0
H409 H 0.40363 0.02908 0.73362 0.0
H410 H 0.33212 0.98289 0.88717 0.0
H411 H 0.3027 0.01309 0.81413 0.0
H412 H 0.36959 0.01668 0.5952 0.0
H413 H 0.40451 0.04234 0.58322 0.0
H414 H 0.3764 0.04779 0.5197 0.0
H415 H 0.39364 0.09691 0.70032 0.0
H416 H 0.39502 0.11155 0.60291 0.0
H417 H 0.41767 0.08655 0.6401 0.0
H418 H 0.41592 0.11432 0.36708 0.0
C419 C 0.38388 0.10401 0.45488 0.0
C420 C 0.48888 0.33121 0.1699 0.0
C421 C 0.47453 0.35429 0.13867 0.0
C422 C 0.44584 0.35034 0.1605 0.0
C423 C 0.44852 0.30674 0.25545 0.0
C424 C 0.47481 0.30681 0.22798 0.0
C425 C 0.48385 0.27819 0.26846 0.0
H426 H 0.45841 0.16082 0.58283 0.0
C427 C 0.44063 0.2829 0.32215 0.0
C428 C 0.4597 0.26384 0.32904 0.0
H429 H 0.52393 0.17639 0.41023 0.0
H430 H 0.50605 0.21871 0.33866 0.0
H431 H 0.4627 0.21319 0.61669 0.0
H432 H 0.40528 0.17204 0.47204 0.0
H433 H 0.38845 0.19378 0.52174 0.0
H434 H 0.40668 0.16695 0.57373 0.0
H435 H 0.42702 0.2125 0.63505 0.0
H436 H 0.45109 0.24703 0.58333 0.0
C437 C 0.51294 0.28856 0.30409 0.0
C438 C 0.48436 0.25689 0.2104 0.0
C439 C 0.41103 0.31736 0.5499 0.0
C440 C 0.40718 0.3018 0.62529 0.0
C441 C 0.39608 0.26943 0.63965 0.0
C442 C 0.39548 0.25253 0.58059 0.0
C443 C 0.4064 0.26852 0.50875 0.0
C444 C 0.41052 0.3002 0.49196 0.0
C445 C 0.41928 0.31281 0.41036 0.0
C446 C 0.42369 0.28354 0.38488 0.0
C447 C 0.41861 0.25855 0.44543 0.0
C448 C 0.44727 0.33876 0.40491 0.0
C449 C 0.3947 0.325 0.37105 0.0
C450 C 0.46867 0.17307 0.52905 0.0
C451 C 0.49248 0.16537 0.50221 0.0
C452 C 0.50544 0.18195 0.43202 0.0
C453 C 0.49506 0.20642 0.39065 0.0
C454 C 0.47154 0.21444 0.41979 0.0
C455 C 0.45888 0.19762 0.48813 0.0
C456 C 0.4355 0.20993 0.5148 0.0
C457 C 0.43491 0.23611 0.44941 0.0
C458 C 0.45619 0.23908 0.39318 0.0
C459 C 0.44432 0.22133 0.591 0.0
C460 C 0.4074 0.18429 0.52136 0.0
H461 H 0.41023 0.32232 0.23085 0.0
H462 H 0.51032 0.33258 0.15072 0.0
H463 H 0.46403 0.25287 0.17981 0.0
H464 H 0.48686 0.23396 0.23728 0.0
H465 H 0.50207 0.26756 0.16786 0.0
H466 H 0.51213 0.30577 0.34095 0.0
H467 H 0.52983 0.29949 0.25945 0.0
H468 H 0.51928 0.26897 0.33951 0.0
H469 H 0.41786 0.34241 0.53764 0.0
H470 H 0.39093 0.25712 0.69708 0.0
H471 H 0.38847 0.2277 0.59317 0.0
H472 H 0.46441 0.32996 0.43615 0.0
H473 H 0.44418 0.35888 0.42853 0.0
H474 H 0.45486 0.34798 0.34553 0.0
H475 H 0.38319 0.33462 0.41055 0.0
H476 H 0.37891 0.30623 0.34973 0.0
H477 H 0.40268 0.34456 0.32392 0.0
H478 H 0.43389 0.36649 0.13421 0.0
C479 C 0.43256 0.32607 0.21761 0.0
Nd480 Nd 0.02921 0.0349 0.77826 0.0
Nd481 Nd 0.05142 0.05661 0.9207 0.0
C482 C 1.00142 0.999 0.68387 0.0
C483 C 1.00051 0.96777 0.66554 0.0
C484 C 0.97472 0.94885 0.64624 0.0
C485 C 0.9739 0.92027 0.62404 0.0
C486 C 0.99886 0.9098 0.621 0.0
C487 C 0.02454 0.92836 0.64234 0.0
C488 C 0.02539 0.95705 0.66383 0.0
C489 C 0.08718 0.05934 0.76608 0.0
C490 C 0.05037 0.98735 0.9169 0.0
C491 C 0.07609 0.09345 0.01637 0.0
C492 C 0.07373 0.12423 0.03133 0.0
C493 C 0.09149 0.139 0.08354 0.0
C494 C 0.08941 0.168 0.09807 0.0
C495 C 0.06952 0.18289 0.06067 0.0
C496 C 0.05196 0.16831 0.00784 0.0
C497 C 0.05406 0.13935 0.99336 0.0
C498 C 0.99335 0.03224 0.92666 0.0
C499 C 0.03843 0.10699 0.77789 0.0
O500 O 0.99072 1.00018 0.74957 0.0
O501 O 0.0249 0.02055 0.66551 0.0
O502 O 0.06979 0.0612 0.71107 0.0
O503 O 0.07382 0.0428 0.82565 0.0
O504 O 0.03408 0.99132 0.85849 0.0
O505 O 0.0638 0.01084 0.94841 0.0
O506 O 0.08755 0.09324 0.95091 0.0
O507 O 0.05395 0.07001 0.03508 0.0
O508 O 0.01033 0.02601 0.98043 0.0
O509 O 0.00743 0.05041 0.8704 0.0
O510 O 0.04515 0.10012 0.84828 0.0
O511 O 0.02812 0.0854 0.73684 0.0
H512 H 0.95523 0.95649 0.6468 0.0
H513 H 0.95383 0.90657 0.60771 0.0
H514 H 0.0441 0.92095 0.64054 0.0
H515 H 0.04563 0.97112 0.67791 0.0
H516 H 0.10691 0.12804 0.1134 0.0
H517 H 0.10315 0.17872 0.13916 0.0
H518 H 0.03645 0.17924 0.97831 0.0
H519 H 0.04012 0.1288 0.95273 0.0
Nd520 Nd 0.54007 0.016 0.79149 0.0
Nd521 Nd 0.52754 0.05796 0.89163 0.0
C522 C 0.55249 0.97402 0.72009 0.0
C523 C 0.57768 0.97418 0.67407 0.0
C524 C 0.58588 0.94656 0.67269 0.0
C525 C 0.61052 0.94693 0.63176 0.0
C526 C 0.62721 0.97495 0.59131 0.0
C527 C 0.61905 1.00255 0.5931 0.0
C528 C 0.5946 1.0022 0.6343 0.0
C529 C 0.53138 0.0714 0.71367 0.0
C530 C 0.59382 0.06654 0.83609 0.0
C531 C 0.51613 0.10346 0.95135 0.0
C532 C 0.4923 0.10828 0.99509 0.0
C533 C 0.47858 0.13163 0.96574 0.0
C534 C 0.45638 0.13684 0.00709 0.0
C535 C 0.44782 0.119 0.07891 0.0
C536 C 0.46119 0.0954 0.10777 0.0
C537 C 0.48317 0.09002 0.06632 0.0
C538 C 0.53446 1.00264 0.97314 0.0
C539 C 0.47558 1.00122 0.86718 0.0
O540 O 0.55674 0.97435 0.79207 0.0
O541 O 0.53685 0.99271 0.69124 0.0
O542 O 0.55104 0.05877 0.69561 0.0
O543 O 0.51682 0.05452 0.77027 0.0
O544 O 0.58567 0.0406 0.80936 0.0
O545 O 0.57538 0.07974 0.86222 0.0
O546 O 0.51153 0.10053 0.88065 0.0
O547 O 0.53073 0.08458 0.98551 0.0
O548 O 0.51663 0.0175 0.99191 0.0
O549 O 0.54938 0.01826 0.91519 0.0
O550 O 0.48262 0.02902 0.88545 0.0
O551 O 0.49418 0.99025 0.83415 0.0
H552 H 0.57335 0.92476 0.70372 0.0
H553 H 0.61655 0.92543 0.63145 0.0
H554 H 0.63171 0.02441 0.56268 0.0
H555 H 0.58901 0.02389 0.63547 0.0
H556 H 0.48515 0.14597 0.91092 0.0
H557 H 0.44616 0.15501 0.98368 0.0
H558 H 0.45473 0.08125 0.16286 0.0
H559 H 0.49307 0.07167 0.09042 0.0
Nd560 Nd 0.52314 0.55122 0.92059 0.0
Nd561 Nd 0.53003 0.52296 0.78469 0.0
C562 C 0.51607 0.57605 0.0378 0.0
C563 C 0.5339 0.60598 0.0513 0.0
C564 C 0.53737 0.63253 0.99467 0.0
C565 C 0.55854 0.6592 0.99966 0.0
C566 C 0.57663 0.65973 0.06103 0.0
C567 C 0.57294 0.63366 0.11853 0.0
C568 C 0.55169 0.60691 0.1137 0.0
C569 C 0.57906 0.5524 0.88943 0.0
C570 C 0.54052 0.59832 0.76089 0.0
C571 C 0.5437 0.49029 0.69032 0.0
C572 C 0.52775 0.4581 0.68737 0.0
C573 C 0.52532 0.43492 0.75233 0.0
C574 C 0.50486 0.40686 0.75744 0.0
C575 C 0.48687 0.40113 0.69719 0.0
C576 C 0.49014 0.42339 0.63073 0.0
C577 C 0.51042 0.45172 0.62586 0.0
C578 C 0.47314 0.52547 0.79164 0.0
C579 C 0.50814 0.47517 0.94361 0.0
O580 O 0.4995 0.57706 0.97964 0.0
O581 O 0.52952 0.55408 0.0419 0.0
O582 O 0.57039 0.57623 0.89934 0.0
O583 O 0.55778 0.52986 0.88711 0.0
O584 O 0.52627 0.59342 0.82592 0.0
O585 O 0.54873 0.57544 0.73728 0.0
O586 O 0.55748 0.49437 0.75224 0.0
O587 O 0.52983 0.51157 0.66874 0.0
O588 O 0.48401 0.51419 0.74107 0.0
O589 O 0.49217 0.53433 0.83685 0.0
O590 O 0.51781 0.47846 0.87363 0.0
O591 O 0.50563 0.49936 0.97286 0.0
H592 H 0.52436 0.63251 0.94513 0.0
H593 H 0.56074 0.67951 0.956 0.0
H594 H 0.58649 0.6341 0.16705 0.0
H595 H 0.54978 0.5866 0.15724 0.0
H596 H 0.5382 0.43891 0.80109 0.0
H597 H 0.5027 0.38981 0.8089 0.0
H598 H 0.47646 0.41914 0.58349 0.0
H599 H 0.5116 0.4692 0.57559 0.0
Nd600 Nd 0.01092 0.56714 0.78191 0.0
Nd601 Nd 0.04697 0.52336 0.88965 0.0
C602 C 0.97443 0.60019 0.73379 0.0
C603 C 0.94873 0.59222 0.68914 0.0
C604 C 0.92472 0.60325 0.7007 0.0
C605 C 0.89957 0.59337 0.66247 0.0
C606 C 0.89825 0.57226 0.61268 0.0
C607 C 0.9223 0.56147 0.60091 0.0
C608 C 0.94725 0.57124 0.63895 0.0
C609 C 0.02434 0.5234 0.70578 0.0
C610 C 0.97798 0.49892 0.8834 0.0
C611 C 0.0822 0.48841 0.93636 0.0
C612 C 0.10804 0.49334 0.98144 0.0
C613 C 0.11189 0.51404 0.033 0.0
C614 C 0.13676 0.51954 0.07406 0.0
C615 C 0.15828 0.50469 0.06373 0.0
C616 C 0.15467 0.48422 0.01169 0.0
C617 C 0.12962 0.47855 0.9708 0.0
C618 C 0.03365 0.56736 0.96555 0.0
C619 C 0.07983 0.59136 0.78734 0.0
O620 O 0.97288 0.58399 0.80232 0.0
O621 O 0.9989 0.60364 0.69842 0.0
O622 O 0.0112 0.54398 0.67522 0.0
O623 O 0.02953 0.52727 0.77305 0.0
O624 O 0.97674 0.5261 0.844 0.0
O625 O 1.00204 0.49074 0.90053 0.0
O626 O 0.08452 0.50574 0.86904 0.0
O627 O 0.05813 0.48611 0.97236 0.0
O628 O 0.04721 0.54706 0.99586 0.0
O629 O 0.02827 0.56319 0.89855 0.0
O630 O 0.08116 0.56396 0.82547 0.0
O631 O 0.05574 0.59989 0.77302 0.0
H632 H 0.92531 0.6191 0.73996 0.0
H633 H 0.88117 0.60197 0.67196 0.0
H634 H 0.92163 0.54521 0.56261 0.0
H635 H 0.96527 0.56202 0.6298 0.0
H636 H 0.09572 0.52606 0.04132 0.0
H637 H 0.13927 0.53547 0.11384 0.0
H638 H 0.17114 0.47263 1.00306 0.0
H639 H 0.12716 0.46278 0.93065 0.0
C640 C 0.15792 0.04331 0.72014 0.0
C641 C 0.17396 0.07296 0.68432 0.0
C642 C 0.13288 0.09383 0.70193 0.0
C643 C 0.11841 0.06519 0.74784 0.0
N644 N 0.12261 0.0153 0.81675 0.0
N645 N 0.17873 0.12823 0.65994 0.0
C646 C 0.13263 0.04081 0.76256 0.0
C647 C 0.16209 0.09881 0.68087 0.0
N648 N 0.16602 0.01723 0.71104 0.0
N649 N 0.11884 0.11615 0.67605 0.0
H650 H 0.20046 0.13299 0.64687 0.0
H651 H 0.17155 0.14787 0.66363 0.0
H652 H 0.09746 0.114 0.68848 0.0
H653 H 0.12793 0.13581 0.63636 0.0
H654 H 0.15349 0.99493 0.73026 0.0
H655 H 0.18341 0.01781 0.6766 0.0
H656 H 0.1338 0.99834 0.83233 0.0
H657 H 0.10546 0.01286 0.85313 0.0
C658 C 0.52656 0.15005 0.60075 0.0
C659 C 0.50411 0.141 0.55115 0.0
C660 C 0.50018 0.08609 0.60618 0.0
C661 C 0.52131 0.09531 0.6591 0.0
N662 N 0.55147 0.13596 0.71479 0.0
N663 N 0.46714 0.10079 0.51213 0.0
C664 C 0.53372 0.12729 0.6583 0.0
C665 C 0.49026 0.10908 0.55545 0.0
N666 N 0.54111 0.18052 0.5928 0.0
N667 N 0.49006 0.05529 0.60318 0.0
H668 H 0.46028 0.11668 0.47152 0.0
H669 H 0.45375 0.07857 0.51917 0.0
H670 H 0.49619 0.03782 0.64047 0.0
H671 H 0.47706 0.04701 0.56085 0.0
H672 H 0.55969 0.1883 0.62094 0.0
H673 H 0.5358 0.19801 0.55374 0.0
H674 H 0.55898 0.15877 0.72287 0.0
H675 H 0.55682 0.11996 0.75803 0.0
C676 C 0.39363 0.5119 0.75236 0.0
C677 C 0.39105 0.54293 0.73883 0.0
C678 C 0.43872 0.55982 0.78839 0.0
C679 C 0.44346 0.53001 0.78836 0.0
N680 N 0.4248 0.47699 0.77134 0.0
N681 N 0.413 0.59738 0.73315 0.0
C682 C 0.42064 0.50583 0.77079 0.0
C683 C 0.41404 0.56714 0.75432 0.0
N684 N 0.37006 0.48816 0.74965 0.0
N685 N 0.45731 0.58111 0.8219 0.0
H686 H 0.39562 0.60392 0.70662 0.0
H687 H 0.43049 0.61601 0.73508 0.0
H688 H 0.47426 0.57595 0.85262 0.0
H689 H 0.45361 0.60226 0.82857 0.0
H690 H 0.36981 0.46487 0.76639 0.0
H691 H 0.34995 0.4918 0.73708 0.0
H692 H 0.41056 0.45966 0.74901 0.0
H693 H 0.4431 0.4707 0.79184 0.0
C694 C 0.0206 0.45685 0.59569 0.0
C695 C 0.0494 0.46288 0.56992 0.0
C696 C 0.06218 0.50624 0.64041 0.0
C697 C 0.0332 0.50135 0.66309 0.0
N698 N 0.98388 0.47624 0.64739 0.0
N699 N 0.09572 0.49832 0.55098 0.0
C700 C 0.01211 0.47809 0.6356 0.0
C701 C 0.06952 0.48932 0.58686 0.0
N702 N 1.00164 0.43001 0.5859 0.0
N703 N 0.08287 0.52664 0.6709 0.0
H704 H 0.10136 0.48664 0.51043 0.0
H705 H 0.11058 0.51891 0.55548 0.0
H706 H 0.07827 0.5396 0.7094 0.0
H707 H 0.10457 0.52867 0.66314 0.0
H708 H 0.98139 0.42249 0.6117 0.0
H709 H 0.00678 0.41414 0.55612 0.0
H710 H 0.96764 0.4621 0.62167 0.0
H711 H 0.9767 0.49052 0.67844 0.0
C712 C 0.93265 0.06046 1.00027 0.0
C713 C 0.90899 0.03533 0.99395 0.0
C714 C 0.94045 1.00855 0.94027 0.0
C715 C 0.96412 0.03351 0.94768 0.0
N716 N 0.98387 0.08096 0.99496 0.0
N717 N 0.88997 0.98408 0.96655 0.0
C718 C 0.9605 0.05885 0.9805 0.0
C719 C 0.91281 1.00889 0.96658 0.0
N720 N 0.92831 0.0863 0.02354 0.0
N721 N 0.94447 0.98486 0.90688 0.0
H722 H 0.8695 0.98396 0.98415 0.0
H723 H 0.89131 0.96292 0.9536 0.0
H724 H 0.96454 0.98354 0.88958 0.0
H725 H 0.92807 0.96726 0.89278 0.0
H726 H 0.94375 0.10714 0.01936 0.0
H727 H 0.90863 0.08757 0.04389 0.0
H728 H 0.98322 0.0978 0.02733 0.0
H729 H 1.00453 0.08144 0.97869 0.0
C730 C 0.57123 0.96626 0.14369 0.0
C731 C 0.55855 0.93416 0.14607 0.0
C732 C 0.53018 0.94714 0.03586 0.0
C733 C 0.54374 0.97909 0.03073 0.0
N734 N 0.57865 0.0194 0.07628 0.0
N735 N 0.52619 0.89423 0.0902 0.0
C736 C 0.5647 0.98874 0.08385 0.0
C737 C 0.53822 0.92474 0.09152 0.0
N738 N 0.58884 0.9752 0.20029 0.0
N739 N 0.50946 0.93765 0.98675 0.0
H740 H 0.53083 0.87586 0.12769 0.0
H741 H 0.53083 0.87586 0.12769 0.0
H742 H 0.50266 0.953 0.9449 0.0
H743 H 0.49889 0.91441 0.98871 0.0
H744 H 0.59696 0.9981 0.20688 0.0
H745 H 0.59388 0.95938 0.24462 0.0
H746 H 0.59624 0.02788 0.10718 0.0
H747 H 0.57376 0.03651 0.03521 0.0
C748 C 0.64379 0.51852 0.91798 0.0
C749 C 0.65757 0.5328 0.97774 0.0
C750 C 0.62004 0.56013 0.98098 0.0
C751 C 0.60735 0.54791 0.91681 0.0
N752 N 0.61394 0.52435 0.80995 0.0
N753 N 0.664 0.57566 0.04521 0.0
C754 C 0.62133 0.5298 0.88081 0.0
C755 C 0.64748 0.55657 1.00184 0.0
N756 N 0.651 0.49342 0.89871 0.0
N757 N 0.60551 0.57287 0.02644 0.0
H758 H 0.68458 0.57416 0.06001 0.0
H759 H 0.65849 0.59504 0.05871 0.0
H760 H 0.58421 0.57295 0.02086 0.0
H761 H 0.61358 0.5796 0.07676 0.0
H762 H 0.63961 0.48067 0.86014 0.0
H763 H 0.66651 0.48361 0.92623 0.0
H764 H 0.62483 0.51305 0.77892 0.0
H765 H 0.59946 0.53482 0.77904 0.0
C766 C 0.98769 0.60384 0.07655 0.0
C767 C 0.00817 0.62895 0.09823 0.0
C768 C 0.04583 0.61155 0.03996 0.0
C769 C 0.0248 0.58969 0.00773 0.0
N770 N 0.97501 0.56837 0.98808 0.0
N771 N 0.05694 0.65892 0.09292 0.0
C772 C 0.99552 0.58682 0.02395 0.0
C773 C 0.03738 0.63322 0.07864 0.0
N774 N 0.9606 0.59622 0.10688 0.0
N775 N 0.07397 0.61188 0.03332 0.0
H776 H 0.05181 0.67498 0.12211 0.0
H777 H 0.07785 0.66542 0.07142 0.0
H778 H 0.08133 0.59773 1.00232 0.0
H779 H 0.08984 0.62473 0.06286 0.0
H780 H 0.94526 0.57642 0.09908 0.0
H781 H 0.9545 0.60806 0.14644 0.0
H782 H 0.95347 0.56795 0.99136 0.0
H783 H 0.9798 0.55541 0.94989 0.0
C784 C 0.08126 0.19026 0.75141 0.0
C785 C 0.06727 0.20434 0.69194 0.0
C786 C 0.03117 0.1555 0.69395 0.0
C787 C 0.0479 0.14033 0.74502 0.0
N788 N 0.09404 0.14349 0.8042 0.0
N789 N 0.02794 0.20038 0.6056 0.0
C790 C 0.07428 0.15776 0.76948 0.0
C791 C 0.04207 0.18718 0.66291 0.0
N792 N 0.10164 0.20795 0.78969 0.0
N793 N 1.00492 0.14006 0.6745 0.0
H794 H 0.03438 0.22354 0.57918 0.0
H795 H 0.03438 0.22354 0.57918 0.0
H796 H 0.99523 0.11724 0.69879 0.0
H797 H 0.99236 0.1508 0.63659 0.0
H798 H 0.11052 0.19873 0.83881 0.0
H799 H 0.10726 0.23213 0.77712 0.0
H800 H 0.11434 0.15558 0.81657 0.0
H801 H 0.09217 0.11976 0.81078 0.0
C802 C 0.40223 0.99568 0.92339 0.0
C803 C 0.38907 0.98633 0.8575 0.0
C804 C 0.42998 0.96744 0.82737 0.0
C805 C 0.4453 0.98365 0.88169 0.0
N806 N 0.44248 0.99612 1.0056 0.0
N807 N 0.38662 0.95408 0.76187 0.0
C808 C 0.42994 0.99161 0.93863 0.0
C809 C 0.40132 0.96839 0.81624 0.0
N810 N 0.38961 0.01099 0.96672 0.0
N811 N 0.44259 0.95183 0.78504 0.0
H812 H 0.36539 0.95401 0.75072 0.0
H813 H 0.36539 0.95401 0.75072 0.0
H814 H 0.46261 0.94786 0.79665 0.0
H815 H 0.43195 0.94087 0.74241 0.0
H816 H 0.3999 0.02186 0.00972 0.0
H817 H 0.36903 0.0137 0.95778 0.0
H818 H 0.43199 1.00034 0.05152 0.0
H819 H 0.46259 0.99222 0.01697 0.0
C820 C 0.44995 0.31645 0.6999 0.0
C821 C 0.42193 0.31924 0.68345 0.0
C822 C 0.43527 0.3724 0.70839 0.0
C823 C 0.46436 0.37184 0.7035 0.0
N824 N 0.49983 0.34327 0.69332 0.0
N825 N 0.3863 0.34768 0.68316 0.0
C826 C 0.47188 0.34368 0.70067 0.0
C827 C 0.41396 0.34639 0.69344 0.0
N828 N 0.45574 0.28798 0.71258 0.0
N829 N 0.42825 0.39787 0.72625 0.0
H830 H 0.37052 0.32819 0.67493 0.0
H831 H 0.37928 0.36779 0.68057 0.0
H832 H 0.44358 0.4172 0.73717 0.0
H833 H 0.40741 0.39887 0.73618 0.0
H834 H 0.47543 0.28447 0.7301 0.0
H835 H 0.43997 0.26748 0.71514 0.0
H836 H 0.50625 0.32413 0.68169 0.0
H837 H 0.51669 0.36277 0.69268 0.0
C838 C 0.13885 0.60785 0.64656 0.0
C839 C 0.16248 0.62304 0.6854 0.0
C840 C 0.1299 0.62408 0.78813 0.0
C841 C 0.10653 0.61018 0.74701 0.0
N842 N 0.0883 0.59888 0.62666 0.0
N843 N 0.17981 0.65186 0.78499 0.0
C844 C 0.1109 0.60594 0.67225 0.0
C845 C 0.15781 0.6332 0.75381 0.0
N846 N 0.14284 0.59277 0.58922 0.0
N847 N 0.12535 0.62795 0.86036 0.0
H848 H 0.20028 0.65929 0.76027 0.0
H849 H 0.17722 0.66206 0.83139 0.0
H850 H 0.10486 0.62345 0.88407 0.0
H851 H 0.1417 0.63451 0.89696 0.0
H852 H 0.1261 0.57913 0.56386 0.0
H853 H 0.16272 0.59055 0.57316 0.0
H854 H 0.09072 0.59811 0.56939 0.0
H855 H 0.06736 0.59682 0.64402 0.0
C856 C 0.02945 0.90509 0.91075 0.0
C857 C 0.02147 0.89334 0.98768 0.0
C858 C 0.04691 0.94231 0.02402 0.0
C859 C 0.05161 0.95506 0.94602 0.0
N860 N 0.06113 0.94532 0.82257 0.0
N861 N 0.03364 0.89536 0.11773 0.0
C862 C 0.04786 0.93503 0.89211 0.0
C863 C 0.03386 0.91024 0.04465 0.0
N864 N 0.01804 0.8889 0.85538 0.0
N865 N 0.05363 0.96062 0.07793 0.0
H866 H 0.02576 0.87145 0.13274 0.0
H867 H 0.04414 0.90587 0.16099 0.0
H868 H 0.0666 0.98304 0.06679 0.0
H869 H 0.04639 0.95335 0.13417 0.0
H870 H 0.02122 0.8981 0.79789 0.0
H871 H 1.00374 0.86715 0.86676 0.0
H872 H 0.06126 0.93083 0.7833 0.0
H873 H 0.07442 0.96759 0.80824 0.0
C874 C 0.66816 0.06754 0.90557 0.0
C875 C 0.68178 0.09959 0.88666 0.0
C876 C 0.63939 0.10884 0.82003 0.0
C877 C 0.6245 0.07787 0.84942 0.0
N878 N 0.62369 0.02914 0.93204 0.0
N879 N 0.68069 0.15133 0.82855 0.0
C880 C 0.63868 0.05743 0.89439 0.0
C881 C 0.66754 0.12044 0.84408 0.0
N882 N 0.68312 0.04664 0.93642 0.0
N883 N 0.62689 0.12678 0.76795 0.0
H884 H 0.70178 0.16006 0.84241 0.0
H885 H 0.67039 0.16829 0.80537 0.0
H886 H 0.6066 0.11854 0.74814 0.0
H887 H 0.63745 0.14867 0.73953 0.0
H888 H 0.67506 0.02274 0.94161 0.0
H889 H 0.70433 0.05272 0.95098 0.0
H890 H 0.63237 0.01529 0.97356 0.0
H891 H 0.60185 0.02058 0.92855 0.0
C892 C 0.64638 0.72099 0.06578 0.0
C893 C 0.63655 0.74194 0.10279 0.0
C894 C 0.58732 0.71058 0.10299 0.0
C895 C 0.59721 0.68888 0.06978 0.0
N896 N 0.6345 0.67453 0.00799 0.0
N897 N 0.59623 0.75645 0.15442 0.0
C898 C 0.62633 0.69448 0.04733 0.0
C899 C 0.60684 0.73706 0.1192 0.0
N900 N 0.67494 0.72596 0.05132 0.0
N901 N 0.55902 0.70561 0.12178 0.0
H902 H 0.60833 0.77637 0.17157 0.0
H903 H 0.60833 0.77637 0.17157 0.0
H904 H 0.54348 0.68614 0.11273 0.0
H905 H 0.55097 0.72111 0.14669 0.0
H906 H 0.68426 0.71044 0.03087 0.0
H907 H 0.68968 0.74582 0.0618 0.0
H908 H 0.65489 0.67795 0.98515 0.0
H909 H 0.6202 0.65494 0.99451 0.0
C910 C 0.91648 0.48749 0.01059 0.0
C911 C 0.89376 0.47106 0.97097 0.0
C912 C 0.92887 0.46445 0.88146 0.0
C913 C 0.95104 0.48042 0.92273 0.0
N914 N 0.96614 0.49896 0.03848 0.0
N915 N 0.87891 0.43746 0.87915 0.0
C916 C 0.94477 0.48822 0.99229 0.0
C917 C 0.90012 0.45743 0.90949 0.0
N918 N 0.91224 0.50488 0.06228 0.0
N919 N 0.93541 0.45681 0.81468 0.0
H920 H 0.85782 0.43147 0.89941 0.0
H921 H 0.88259 0.42489 0.83844 0.0
H922 H 0.95649 0.45974 0.79686 0.0
H923 H 0.92021 0.44854 0.77673 0.0
H924 H 0.89266 0.50908 0.07395 0.0
H925 H 0.89266 0.50908 0.07395 0.0
H926 H 0.96217 0.50544 0.08971 0.0
H927 H 0.98741 0.49983 0.0271 0.0
C928 C 0.08659 0.26925 0.07436 0.0
C929 C 0.06638 0.26926 0.13106 0.0
C930 C 0.04553 0.2135 0.13351 0.0
C931 C 0.06653 0.2132 0.07915 0.0
N932 N 0.10253 0.24172 0.98457 0.0
N933 N 0.02249 0.24375 0.20078 0.0
C934 C 0.08556 0.24148 0.0451 0.0
C935 C 0.04433 0.24212 0.15543 0.0
N936 N 0.10761 0.29556 0.05137 0.0
N937 N 0.02765 0.18613 0.1671 0.0
H938 H 0.02131 0.26428 0.21808 0.0
H939 H 1.00436 0.22577 0.21566 0.0
H940 H 0.02746 0.1649 0.15149 0.0
H941 H 0.01414 0.18401 0.21342 0.0
H942 H 0.12519 0.2965 0.01745 0.0
H943 H 0.10784 0.31647 0.06897 0.0
H944 H 0.11503 0.26185 0.95245 0.0
H945 H 0.10241 0.22176 0.96264 0.0
C946 C 0.3806 0.10113 0.20064 0.0
C947 C 0.3871 0.12575 0.24278 0.0
C948 C 0.43075 0.14995 0.16517 0.0
C949 C 0.42493 0.12462 0.12538 0.0
N950 N 0.39077 0.08156 0.08872 0.0
N951 N 0.41309 0.17754 0.25167 0.0
C952 C 0.3985 0.10212 0.13745 0.0
C953 C 0.41033 0.15169 0.21958 0.0
N954 N 0.35869 0.07573 0.22426 0.0
N955 N 0.45655 0.17112 0.15491 0.0
H956 H 0.39828 0.17899 0.29188 0.0
H957 H 0.42828 0.19826 0.23374 0.0
H958 H 0.47201 0.17083 0.11532 0.0
H959 H 0.46341 0.18778 0.189 0.0
H960 H 0.35528 0.05535 0.20209 0.0
H961 H 0.34466 0.07431 0.26905 0.0
H962 H 0.37072 0.0663 0.09022 0.0
H963 H 0.40358 0.08185 0.04208 0.0
C964 C 0.47936 0.38717 0.00877 0.0
C965 C 0.48837 0.38335 0.08461 0.0
C966 C 0.51447 0.43845 0.06306 0.0
C967 C 0.50156 0.44336 0.99172 0.0
N968 N 0.46901 0.42224 0.90008 0.0
N969 N 0.51243 0.40628 0.187 0.0
C970 C 0.48353 0.41757 0.96506 0.0
C971 C 0.50555 0.40921 0.11242 0.0
N972 N 0.46678 0.36154 0.97857 0.0
N973 N 0.53617 0.46123 0.08254 0.0
H974 H 0.50709 0.38522 0.22448 0.0
H975 H 0.52176 0.42513 0.21281 0.0
H976 H 0.54414 0.48247 0.04714 0.0
H977 H 0.54828 0.45786 0.1302 0.0
H978 H 0.46217 0.36231 0.92148 0.0
H979 H 0.46359 0.3391 0.00938 0.0
H980 H 0.45323 0.40496 0.88217 0.0
H981 H 0.47089 0.44403 0.8673 0.0
C982 C 0.20551 0.5033 0.23339 0.0
C983 C 0.22806 0.52989 0.20826 0.0
C984 C 0.20741 0.53663 0.08281 0.0
C985 C 0.18436 0.51071 0.10888 0.0
N986 N 0.16439 0.46514 0.20112 0.0
N987 N 0.25427 0.56776 0.10668 0.0
C988 C 0.18449 0.49256 0.18164 0.0
C989 C 0.23028 0.54513 0.13182 0.0
N990 N 0.20337 0.4894 0.30788 0.0
N991 N 0.20676 0.55375 0.01236 0.0
H992 H 0.27117 0.57434 0.14189 0.0
H993 H 0.25854 0.57826 0.05028 0.0
H994 H 0.19091 0.54738 0.97414 0.0
H995 H 0.22109 0.57488 0.99265 0.0
H996 H 0.18562 0.47256 0.33233 0.0
H997 H 0.21889 0.49584 0.34685 0.0
H998 H 0.1648 0.44925 0.25031 0.0
H999 H 0.14836 0.45698 0.16496 0.0
C1000 C 0.97829 0.82419 0.59588 0.0
C1001 C 0.99323 0.82574 0.52717 0.0
C1002 C 0.01267 0.88188 0.52139 0.0
C1003 C 0.99831 0.8804 0.5912 0.0
N1004 N 0.97278 0.84882 0.70332 0.0
N1005 N 0.0304 0.85416 0.43574 0.0
C1006 C 0.98278 0.85107 0.63114 0.0
C1007 C 0.01248 0.854 0.49418 0.0
N1008 N 0.95897 0.79734 0.62582 0.0
N1009 N 0.02489 0.91002 0.47815 0.0
H1010 H 0.03066 0.83416 0.4144 0.0
H1011 H 0.04681 0.87326 0.41375 0.0
H1012 H 0.02474 0.93108 0.49414 0.0
H1013 H 0.03278 0.91259 0.42303 0.0
H1014 H 0.94485 0.79557 0.67061 0.0
H1015 H 0.95618 0.77712 0.60295 0.0
H1016 H 0.96371 0.8278 0.73823 0.0
H1017 H 0.97584 0.8679 0.73072 0.0
C1018 C 0.70485 0.99803 0.52244 0.0
C1019 C 0.7024 0.98819 0.4512 0.0
C1020 C 0.65113 0.96555 0.47616 0.0
C1021 C 0.65342 0.97592 0.54695 0.0
N1022 N 0.68311 0.99472 0.646 0.0
N1023 N 0.67552 0.95591 0.36858 0.0
C1024 C 0.68059 0.98976 0.57288 0.0
C1025 C 0.67625 0.96952 0.43122 0.0
N1026 N 0.73001 0.01655 0.54017 0.0
N1027 N 0.62485 0.95364 0.44975 0.0
H1028 H 0.69363 0.95862 0.33466 0.0
H1029 H 0.65782 0.93976 0.35429 0.0
H1030 H 0.60596 0.9503 0.48084 0.0
H1031 H 0.62152 0.94903 0.39499 0.0
H1032 H 0.73233 0.02777 0.58677 0.0
H1033 H 0.74841 0.02193 0.5058 0.0
H1034 H 0.70258 1.00212 0.67072 0.0
H1035 H 0.66574 0.98877 0.68422 0.0
C1036 C 0.565 0.68722 0.70727 0.0
C1037 C 0.56154 0.69196 0.62796 0.0
C1038 C 0.53998 0.63584 0.63753 0.0
C1039 C 0.54763 0.6306 0.71471 0.0
N1040 N 0.5722 0.65206 0.81894 0.0
N1041 N 0.54836 0.67004 0.51534 0.0
C1042 C 0.56115 0.65654 0.74873 0.0
C1043 C 0.54953 0.66607 0.59247 0.0
N1044 N 0.57205 0.71225 0.74318 0.0
N1045 N 0.52272 0.61225 0.60774 0.0
H1046 H 0.55447 0.69171 0.48057 0.0
H1047 H 0.54315 0.65163 0.48566 0.0
H1048 H 0.51473 0.59012 0.63911 0.0
H1049 H 0.51407 0.61543 0.55435 0.0
H1050 H 0.57218 0.71032 0.80193 0.0
H1051 H 0.57486 0.73495 0.71422 0.0
H1052 H 0.58549 0.66985 0.842 0.0
H1053 H 0.57069 0.63025 0.85099 0.0
C1054 C 0.85154 0.55777 0.44644 0.0
C1055 C 0.82996 0.5315 0.48002 0.0
C1056 C 0.85048 0.53522 0.60483 0.0
C1057 C 0.87208 0.56132 0.57095 0.0
N1058 N 0.88907 0.60234 0.46519 0.0
N1059 N 0.80478 0.49956 0.59177 0.0
C1060 C 0.8711 0.57428 0.49355 0.0
C1061 C 0.82807 0.52172 0.55968 0.0
N1062 N 0.8546 0.56574 0.3693 0.0
N1063 N 0.85218 0.52253 0.67914 0.0
H1064 H 0.78813 0.48942 0.55967 0.0
H1065 H 0.80074 0.49321 0.64996 0.0
H1066 H 0.86782 0.53238 0.71427 0.0
H1067 H 0.83909 0.50143 0.70504 0.0
H1068 H 0.87202 0.58216 0.34162 0.0
H1069 H 0.84086 0.55441 0.33222 0.0
H1070 H 0.88759 0.61455 0.41108 0.0
H1071 H 0.90378 0.61483 0.49843 0.0
loop_
_geom_bond_atom_site_label_1
_geom_bond_atom_site_label_2
_geom_bond_distance
_geom_bond_site_symmetry_2
_ccdc_geom_bond_type
C0 C1 1.391 . S
C0 C4 1.391 . S
C0 H42 0.948 . S
C1 C0 1.391 . S
C1 C2 1.391 . S
C2 C1 1.391 . S
C2 H58 0.947 . S
C2 C59 1.392 . S
C3 C4 1.391 . S
C3 C7 1.397 . S
C3 C59 1.419 . S
C4 C0 1.391 . S
C4 C3 1.391 . S
C4 C5 1.399 . S
C5 C4 1.399 . S
C5 C8 1.396 . S
C5 C17 1.453 . S
C5 C18 1.684 . S
H6 C30 0.948 . S
C7 C3 1.397 . S
C7 C8 1.394 . S
C7 C26 1.723 . S
C8 C5 1.396 . S
C8 C7 1.394 . S
C8 C38 1.723 . S
H9 C32 0.947 . S
H10 C33 0.948 . S
H11 C39 0.982 . S
H12 C40 0.979 . S
H13 C40 0.980 . S
H14 C40 0.983 . S
H15 C39 0.979 . S
H16 C39 0.977 . S
C17 C5 1.453 . S
C17 H46 0.982 . S
C17 H47 0.979 . S
C17 H48 0.977 . S
C18 C5 1.684 . S
C18 H43 0.979 . S
C18 H44 0.980 . S
C18 H45 0.983 . S
C19 C20 1.391 . S
C19 C24 1.391 . S
C19 H49 0.948 . S
C20 C19 1.391 . S
C20 C21 1.391 . S
C21 C20 1.391 . S
C21 C22 1.392 . S
C21 H50 0.947 . S
C22 C21 1.392 . S
C22 C23 1.419 . S
C22 H51 0.948 . S
C23 C22 1.419 . S
C23 C24 1.391 . S
C23 C27 1.397 . S
C24 C19 1.391 . S
C24 C23 1.391 . S
C24 C25 1.399 1_556 S
C25 C24 1.399 1_554 S
C25 C26 1.396 . S
C25 C28 1.453 . S
C25 C29 1.684 . S
C26 C7 1.723 . S
C26 C25 1.396 . S
C26 C27 1.394 1_554 S
C27 C23 1.397 . S
C27 C26 1.394 1_556 S
C27 C37 1.723 . S
C28 C25 1.453 . S
C28 H52 0.982 . S
C28 H53 0.979 . S
C28 H54 0.977 . S
C29 C25 1.684 . S
C29 H55 0.979 . S
C29 H56 0.980 . S
C29 H57 0.983 . S
C30 H6 0.948 . S
C30 C31 1.391 . S
C30 C35 1.391 . S
C31 C30 1.391 . S
C31 C32 1.391 1_556 S
C32 H9 0.947 . S
C32 C31 1.391 1_554 S
C32 C33 1.392 . S
C33 H10 0.948 . S
C33 C32 1.392 . S
C33 C34 1.419 . S
C34 C33 1.419 . S
C34 C35 1.391 1_554 S
C34 C38 1.397 . S
C35 C30 1.391 . S
C35 C34 1.391 1_556 S
C35 C36 1.399 . S
C36 C35 1.399 . S
C36 C37 1.396 . S
C36 C39 1.453 . S
C36 C40 1.684 . S
C37 C27 1.723 . S
C37 C36 1.396 . S
C37 C38 1.394 1_556 S
C38 C8 1.723 . S
C38 C34 1.397 . S
C38 C37 1.394 1_554 S
C39 H11 0.982 . S
C39 H15 0.979 . S
C39 H16 0.977 . S
C39 C36 1.453 . S
C40 H12 0.979 . S
C40 H13 0.980 . S
C40 H14 0.983 . S
C40 C36 1.684 . S
H41 C59 0.948 . S
H42 C0 0.948 . S
H43 C18 0.979 . S
H44 C18 0.980 . S
H45 C18 0.983 . S
H46 C17 0.982 . S
H47 C17 0.979 . S
H48 C17 0.977 . S
H49 C19 0.948 . S
H50 C21 0.947 . S
H51 C22 0.948 . S
H52 C28 0.982 . S
H53 C28 0.979 . S
H54 C28 0.977 . S
H55 C29 0.979 . S
H56 C29 0.980 . S
H57 C29 0.983 . S
H58 C2 0.947 . S
C59 C2 1.392 . S
C59 C3 1.419 . S
C59 H41 0.948 . S
C60 C61 1.391 . S
C60 C64 1.391 . S
C60 H102 0.948 . S
C61 C60 1.391 . S
C61 C62 1.391 . S
C62 C61 1.391 . S
C62 H118 0.947 . S
C62 C119 1.392 . S
C63 C64 1.391 . S
C63 C67 1.397 1_556 S
C63 C119 1.419 . S
C64 C60 1.391 . S
C64 C63 1.391 . S
C64 C65 1.399 . S
C65 C64 1.399 . S
C65 C68 1.396 . S
C65 C77 1.453 . S
C65 C78 1.684 . S
H66 C90 0.948 . S
C67 C63 1.397 1_554 S
C67 C68 1.394 1_554 S
C67 C86 1.723 . S
C68 C65 1.396 . S
C68 C67 1.394 1_556 S
C68 C98 1.723 1_556 S
H69 C92 0.947 . S
H70 C93 0.948 . S
H71 C99 0.982 . S
H72 C100 0.979 . S
H73 C100 0.980 . S
H74 C100 0.983 . S
H75 C99 0.979 . S
H76 C99 0.977 . S
C77 C65 1.453 . S
C77 H106 0.982 . S
C77 H107 0.979 . S
C77 H108 0.977 . S
C78 C65 1.684 . S
C78 H103 0.979 . S
C78 H104 0.980 . S
C78 H105 0.983 . S
C79 C80 1.391 . S
C79 C84 1.391 . S
C79 H109 0.948 . S
C80 C79 1.391 . S
C80 C81 1.391 . S
C81 C80 1.391 . S
C81 C82 1.392 . S
C81 H110 0.947 . S
C82 C81 1.392 . S
C82 C83 1.419 . S
C82 H111 0.948 . S
C83 C82 1.419 . S
C83 C84 1.391 . S
C83 C87 1.397 . S
C84 C79 1.391 . S
C84 C83 1.391 . S
C84 C85 1.399 . S
C85 C84 1.399 . S
C85 C86 1.396 . S
C85 C88 1.453 . S
C85 C89 1.684 . S
C86 C67 1.723 . S
C86 C85 1.396 . S
C86 C87 1.394 . S
C87 C83 1.397 . S
C87 C86 1.394 . S
C87 C97 1.723 . S
C88 C85 1.453 . S
C88 H112 0.982 . S
C88 H113 0.979 . S
C88 H114 0.977 . S
C89 C85 1.684 . S
C89 H115 0.979 . S
C89 H116 0.980 . S
C89 H117 0.983 . S
C90 H66 0.948 . S
C90 C91 1.391 1_554 S
C90 C95 1.391 . S
C91 C90 1.391 1_556 S
C91 C92 1.391 . S
C92 H69 0.947 . S
C92 C91 1.391 . S
C92 C93 1.392 . S
C93 H70 0.948 . S
C93 C92 1.392 . S
C93 C94 1.419 1_556 S
C94 C93 1.419 1_554 S
C94 C95 1.391 . S
C94 C98 1.397 . S
C95 C90 1.391 . S
C95 C94 1.391 . S
C95 C96 1.399 . S
C96 C95 1.399 . S
C96 C97 1.396 . S
C96 C99 1.453 . S
C96 C100 1.684 . S
C97 C87 1.723 . S
C97 C96 1.396 . S
C97 C98 1.394 . S
C98 C68 1.723 1_554 S
C98 C94 1.397 . S
C98 C97 1.394 . S
C99 H71 0.982 . S
C99 H75 0.979 . S
C99 H76 0.977 . S
C99 C96 1.453 . S
C100 H72 0.979 . S
C100 H73 0.980 . S
C100 H74 0.983 . S
C100 C96 1.684 . S
H101 C119 0.948 1_554 S
H102 C60 0.948 . S
H103 C78 0.979 . S
H104 C78 0.980 . S
H105 C78 0.983 . S
H106 C77 0.982 . S
H107 C77 0.979 . S
H108 C77 0.977 . S
H109 C79 0.948 . S
H110 C81 0.947 . S
H111 C82 0.948 . S
H112 C88 0.982 . S
H113 C88 0.979 . S
H114 C88 0.977 . S
H115 C89 0.979 . S
H116 C89 0.980 . S
H117 C89 0.983 . S
H118 C62 0.947 . S
C119 C62 1.392 . S
C119 C63 1.419 . S
C119 H101 0.948 1_556 S
C120 C121 1.391 . S
C120 C124 1.391 1_556 S
C120 H162 0.948 1_556 S
C121 C120 1.391 . S
C121 C122 1.391 . S
C122 C121 1.391 . S
C122 H178 0.947 . S
C122 C179 1.392 . S
C123 C124 1.391 1_556 S
C123 C127 1.397 . S
C123 C179 1.419 . S
C124 C120 1.391 1_554 S
C124 C123 1.391 1_554 S
C124 C125 1.399 . S
C125 C124 1.399 . S
C125 C128 1.396 . S
C125 C137 1.435 1_565 S
C125 C138 1.684 . S
H126 C150 0.948 . S
C127 C123 1.397 . S
C127 C128 1.394 1_556 S
C127 C146 1.723 . S
C128 C125 1.396 . S
C128 C127 1.394 1_554 S
C128 C158 1.723 . S
H129 C152 0.947 . S
H130 C153 0.948 . S
H131 C159 0.999 . S
H132 C160 0.979 . S
H133 C160 0.980 . S
H134 C160 0.983 . S
H135 C159 0.990 1_565 S
H136 C159 0.973 1_565 S
C137 C125 1.435 1_545 S
C137 H166 1.000 . S
C137 H167 0.971 1_545 S
C137 H168 0.982 1_545 S
C138 C125 1.684 . S
C138 H163 0.979 . S
C138 H164 0.980 . S
C138 H165 0.983 . S
C139 C140 1.391 . S
C139 C144 1.391 . S
C139 H169 0.948 . S
C140 C139 1.391 . S
C140 C141 1.391 . S
C141 C140 1.391 . S
C141 C142 1.392 . S
C141 H170 0.947 . S
C142 C141 1.392 . S
C142 C143 1.419 . S
C142 H171 0.948 . S
C143 C142 1.419 . S
C143 C144 1.391 . S
C143 C147 1.397 . S
C144 C139 1.391 . S
C144 C143 1.391 . S
C144 C145 1.399 . S
C145 C144 1.399 . S
C145 C146 1.396 . S
C145 C148 1.442 1_565 S
C145 C149 1.684 . S
C146 C127 1.723 . S
C146 C145 1.396 . S
C146 C147 1.394 . S
C147 C143 1.397 . S
C147 C146 1.394 . S
C147 C157 1.723 1_556 S
C148 C145 1.442 1_545 S
C148 H172 1.004 . S
C148 H173 0.973 1_545 S
C148 H174 0.970 1_545 S
C149 C145 1.684 . S
C149 H175 0.979 . S
C149 H176 0.980 . S
C149 H177 0.983 . S
C150 H126 0.948 . S
C150 C151 1.391 . S
C150 C155 1.391 . S
C151 C150 1.391 . S
C151 C152 1.391 . S
C152 H129 0.947 . S
C152 C151 1.391 . S
C152 C153 1.392 . S
C153 H130 0.948 . S
C153 C152 1.392 . S
C153 C154 1.419 . S
C154 C153 1.419 . S
C154 C155 1.391 . S
C154 C158 1.397 . S
C155 C150 1.391 . S
C155 C154 1.391 . S
C155 C156 1.399 . S
C156 C155 1.399 . S
C156 C157 1.396 . S
C156 C159 1.434 1_565 S
C156 C160 1.684 . S
C157 C147 1.723 1_554 S
C157 C156 1.396 . S
C157 C158 1.394 . S
C158 C128 1.723 . S
C158 C154 1.397 . S
C158 C157 1.394 . S
C159 H131 0.999 . S
C159 H135 0.990 1_545 S
C159 H136 0.973 1_545 S
C159 C156 1.434 1_545 S
C160 H132 0.979 . S
C160 H133 0.980 . S
C160 H134 0.983 . S
C160 C156 1.684 . S
H161 C179 0.948 . S
H162 C120 0.948 1_554 S
H163 C138 0.979 . S
H164 C138 0.980 . S
H165 C138 0.983 . S
H166 C137 1.000 . S
H167 C137 0.971 1_565 S
H168 C137 0.982 1_565 S
H169 C139 0.948 . S
H170 C141 0.947 . S
H171 C142 0.948 . S
H172 C148 1.004 . S
H173 C148 0.973 1_565 S
H174 C148 0.970 1_565 S
H175 C149 0.979 . S
H176 C149 0.980 . S
H177 C149 0.983 . S
H178 C122 0.947 . S
C179 C122 1.392 . S
C179 C123 1.419 . S
C179 H161 0.948 . S
C180 C181 1.391 . S
C180 C184 1.391 . S
C180 H222 0.948 . S
C181 C180 1.391 . S
C181 C182 1.391 . S
C182 C181 1.391 . S
C182 H238 0.947 . S
C182 C239 1.392 . S
C183 C184 1.391 . S
C183 C187 1.397 . S
C183 C239 1.419 . S
C184 C180 1.391 . S
C184 C183 1.391 . S
C184 C185 1.399 . S
C185 C184 1.399 . S
C185 C188 1.396 . S
C185 C197 1.453 . S
C185 C198 1.684 . S
H186 C210 0.948 . S
C187 C183 1.397 . S
C187 C188 1.394 . S
C187 C206 1.723 . S
C188 C185 1.396 . S
C188 C187 1.394 . S
C188 C218 1.723 . S
H189 C212 0.947 . S
H190 C213 0.948 . S
H191 C219 0.982 . S
H192 C220 0.979 . S
H193 C220 0.980 . S
H194 C220 0.983 . S
H195 C219 0.979 . S
H196 C219 0.977 . S
C197 C185 1.453 . S
C197 H226 0.982 . S
C197 H227 0.979 . S
C197 H228 0.977 . S
C198 C185 1.684 . S
C198 H223 0.979 . S
C198 H224 0.980 . S
C198 H225 0.983 . S
C199 C200 1.391 . S
C199 C204 1.391 . S
C199 H229 0.948 . S
C200 C199 1.391 . S
C200 C201 1.391 . S
C201 C200 1.391 . S
C201 C202 1.392 . S
C201 H230 0.947 . S
C202 C201 1.392 . S
C202 C203 1.419 . S
C202 H231 0.948 . S
C203 C202 1.419 . S
C203 C204 1.391 . S
C203 C207 1.397 . S
C204 C199 1.391 . S
C204 C203 1.391 . S
C204 C205 1.399 . S
C205 C204 1.399 . S
C205 C206 1.396 . S
C205 C208 1.453 . S
C205 C209 1.684 . S
C206 C187 1.723 . S
C206 C205 1.396 . S
C206 C207 1.394 . S
C207 C203 1.397 . S
C207 C206 1.394 . S
C207 C217 1.723 . S
C208 C205 1.453 . S
C208 H232 0.982 . S
C208 H233 0.979 . S
C208 H234 0.977 . S
C209 C205 1.684 . S
C209 H235 0.979 . S
C209 H236 0.980 . S
C209 H237 0.983 . S
C210 H186 0.948 . S
C210 C211 1.391 . S
C210 C215 1.391 . S
C211 C210 1.391 . S
C211 C212 1.391 . S
C212 H189 0.947 . S
C212 C211 1.391 . S
C212 C213 1.392 . S
C213 H190 0.948 . S
C213 C212 1.392 . S
C213 C214 1.419 . S
C214 C213 1.419 . S
C214 C215 1.391 . S
C214 C218 1.397 . S
C215 C210 1.391 . S
C215 C214 1.391 . S
C215 C216 1.399 . S
C216 C215 1.399 . S
C216 C217 1.396 . S
C216 C219 1.453 . S
C216 C220 1.684 . S
C217 C207 1.723 . S
C217 C216 1.396 . S
C217 C218 1.394 . S
C218 C188 1.723 . S
C218 C214 1.397 . S
C218 C217 1.394 . S
C219 H191 0.982 . S
C219 H195 0.979 . S
C219 H196 0.977 . S
C219 C216 1.453 . S
C220 H192 0.979 . S
C220 H193 0.980 . S
C220 H194 0.983 . S
C220 C216 1.684 . S
H221 C239 0.948 . S
H222 C180 0.948 . S
H223 C198 0.979 . S
H224 C198 0.980 . S
H225 C198 0.983 . S
H226 C197 0.982 . S
H227 C197 0.979 . S
H228 C197 0.977 . S
H229 C199 0.948 . S
H230 C201 0.947 . S
H231 C202 0.948 . S
H232 C208 0.982 . S
H233 C208 0.979 . S
H234 C208 0.977 . S
H235 C209 0.979 . S
H236 C209 0.980 . S
H237 C209 0.983 . S
H238 C182 0.947 . S
C239 C182 1.392 . S
C239 C183 1.419 . S
C239 H221 0.948 . S
C240 C241 1.391 . S
C240 C244 1.391 . S
C240 H282 0.948 . S
C241 C240 1.391 . S
C241 C242 1.391 . S
C242 C241 1.391 . S
C242 H298 0.947 . S
C242 C299 1.392 . S
C243 C244 1.391 . S
C243 C247 1.397 . S
C243 C299 1.419 . S
C244 C240 1.391 . S
C244 C243 1.391 . S
C244 C245 1.399 . S
C245 C244 1.399 . S
C245 C248 1.396 . S
C245 C257 1.453 . S
C245 C258 1.684 . S
H246 C270 0.948 . S
C247 C243 1.397 . S
C247 C248 1.394 . S
C247 C266 1.723 . S
C248 C245 1.396 . S
C248 C247 1.394 . S
C248 C278 1.723 . S
H249 C272 0.947 . S
H250 C273 0.948 . S
H251 C279 0.982 . S
H252 C280 0.979 . S
H253 C280 0.980 . S
H254 C280 0.983 . S
H255 C279 0.979 . S
H256 C279 0.977 . S
C257 C245 1.453 . S
C257 H286 0.982 . S
C257 H287 0.979 . S
C257 H288 0.977 . S
C258 C245 1.684 . S
C258 H283 0.979 . S
C258 H284 0.980 . S
C258 H285 0.983 . S
C259 C260 1.391 . S
C259 C264 1.391 . S
C259 H289 0.948 . S
C260 C259 1.391 . S
C260 C261 1.391 . S
C261 C260 1.391 . S
C261 C262 1.392 . S
C261 H290 0.947 . S
C262 C261 1.392 . S
C262 C263 1.419 . S
C262 H291 0.948 . S
C263 C262 1.419 . S
C263 C264 1.391 . S
C263 C267 1.397 . S
C264 C259 1.391 . S
C264 C263 1.391 . S
C264 C265 1.399 . S
C265 C264 1.399 . S
C265 C266 1.396 . S
C265 C268 1.453 . S
C265 C269 1.684 . S
C266 C247 1.723 . S
C266 C265 1.396 . S
C266 C267 1.394 . S
C267 C263 1.397 . S
C267 C266 1.394 . S
C267 C277 1.723 . S
C268 C265 1.453 . S
C268 H292 0.982 . S
C268 H293 0.979 . S
C268 H294 0.977 . S
C269 C265 1.684 . S
C269 H295 0.979 . S
C269 H296 0.980 . S
C269 H297 0.983 . S
C270 H246 0.948 . S
C270 C271 1.391 . S
C270 C275 1.391 . S
C271 C270 1.391 . S
C271 C272 1.391 . S
C272 H249 0.947 . S
C272 C271 1.391 . S
C272 C273 1.392 . S
C273 H250 0.948 . S
C273 C272 1.392 . S
C273 C274 1.419 . S
C274 C273 1.419 . S
C274 C275 1.391 . S
C274 C278 1.397 . S
C275 C270 1.391 . S
C275 C274 1.391 . S
C275 C276 1.399 . S
C276 C275 1.399 . S
C276 C277 1.396 . S
C276 C279 1.453 . S
C276 C280 1.684 . S
C277 C267 1.723 . S
C277 C276 1.396 . S
C277 C278 1.394 . S
C278 C248 1.723 . S
C278 C274 1.397 . S
C278 C277 1.394 . S
C279 H251 0.982 . S
C279 H255 0.979 . S
C279 H256 0.977 . S
C279 C276 1.453 . S
C280 H252 0.979 . S
C280 H253 0.980 . S
C280 H254 0.983 . S
C280 C276 1.684 . S
H281 C299 0.948 . S
H282 C240 0.948 . S
H283 C258 0.979 . S
H284 C258 0.980 . S
H285 C258 0.983 . S
H286 C257 0.982 . S
H287 C257 0.979 . S
H288 C257 0.977 . S
H289 C259 0.948 . S
H290 C261 0.947 . S
H291 C262 0.948 . S
H292 C268 0.982 . S
H293 C268 0.979 . S
H294 C268 0.977 . S
H295 C269 0.979 . S
H296 C269 0.980 . S
H297 C269 0.983 . S
H298 C242 0.947 . S
C299 C242 1.392 . S
C299 C243 1.419 . S
C299 H281 0.948 . S
C300 C301 1.391 . S
C300 C304 1.391 . S
C300 H342 0.948 . S
C301 C300 1.391 . S
C301 C302 1.391 . S
C302 C301 1.391 . S
C302 H358 0.947 . S
C302 C359 1.392 . S
C303 C304 1.391 . S
C303 C307 1.397 . S
C303 C359 1.419 . S
C304 C300 1.391 . S
C304 C303 1.391 . S
C304 C305 1.399 . S
C305 C304 1.399 . S
C305 C308 1.396 . S
C305 C317 1.453 . S
C305 C318 1.684 . S
H306 C330 0.948 . S
C307 C303 1.397 . S
C307 C308 1.394 . S
C307 C326 1.723 . S
C308 C305 1.396 . S
C308 C307 1.394 . S
C308 C338 1.723 . S
H309 C332 0.947 . S
H310 C333 0.948 . S
H311 C339 0.982 . S
H312 C340 0.979 . S
H313 C340 0.980 . S
H314 C340 0.983 . S
H315 C339 0.979 . S
H316 C339 0.977 . S
C317 C305 1.453 . S
C317 H346 0.982 . S
C317 H347 0.979 . S
C317 H348 0.977 . S
C318 C305 1.684 . S
C318 H343 0.979 . S
C318 H344 0.980 . S
C318 H345 0.983 . S
C319 C320 1.391 . S
C319 C324 1.391 . S
C319 H349 0.948 . S
C320 C319 1.391 . S
C320 C321 1.391 . S
C321 C320 1.391 . S
C321 C322 1.392 . S
C321 H350 0.947 . S
C322 C321 1.392 . S
C322 C323 1.419 . S
C322 H351 0.948 . S
C323 C322 1.419 . S
C323 C324 1.391 . S
C323 C327 1.397 . S
C324 C319 1.391 . S
C324 C323 1.391 . S
C324 C325 1.399 . S
C325 C324 1.399 . S
C325 C326 1.396 . S
C325 C328 1.453 . S
C325 C329 1.684 . S
C326 C307 1.723 . S
C326 C325 1.396 . S
C326 C327 1.394 . S
C327 C323 1.397 . S
C327 C326 1.394 . S
C327 C337 1.723 . S
C328 C325 1.453 . S
C328 H352 0.982 . S
C328 H353 0.979 . S
C328 H354 0.977 . S
C329 C325 1.684 . S
C329 H355 0.979 . S
C329 H356 0.980 . S
C329 H357 0.983 . S
C330 H306 0.948 . S
C330 C331 1.391 . S
C330 C335 1.391 . S
C331 C330 1.391 . S
C331 C332 1.391 . S
C332 H309 0.947 . S
C332 C331 1.391 . S
C332 C333 1.392 . S
C333 H310 0.948 . S
C333 C332 1.392 . S
C333 C334 1.419 . S
C334 C333 1.419 . S
C334 C335 1.391 . S
C334 C338 1.397 . S
C335 C330 1.391 . S
C335 C334 1.391 . S
C335 C336 1.399 . S
C336 C335 1.399 . S
C336 C337 1.396 . S
C336 C339 1.453 . S
C336 C340 1.684 . S
C337 C327 1.723 . S
C337 C336 1.396 . S
C337 C338 1.394 . S
C338 C308 1.723 . S
C338 C334 1.397 . S
C338 C337 1.394 . S
C339 H311 0.982 . S
C339 H315 0.979 . S
C339 H316 0.977 . S
C339 C336 1.453 . S
C340 H312 0.979 . S
C340 H313 0.980 . S
C340 H314 0.983 . S
C340 C336 1.684 . S
H341 C359 0.948 . S
H342 C300 0.948 . S
H343 C318 0.979 . S
H344 C318 0.980 . S
H345 C318 0.983 . S
H346 C317 0.982 . S
H347 C317 0.979 . S
H348 C317 0.977 . S
H349 C319 0.948 . S
H350 C321 0.947 . S
H351 C322 0.948 . S
H352 C328 0.982 . S
H353 C328 0.979 . S
H354 C328 0.977 . S
H355 C329 0.979 . S
H356 C329 0.980 . S
H357 C329 0.983 . S
H358 C302 0.947 . S
C359 C302 1.392 . S
C359 C303 1.419 . S
C359 H341 0.948 . S
C360 C361 1.391 . S
C360 C364 1.391 . S
C360 H402 0.948 . S
C361 C360 1.391 . S
C361 C362 1.391 . S
C362 C361 1.391 . S
C362 H418 0.947 . S
C362 C419 1.392 . S
C363 C364 1.391 . S
C363 C367 1.397 . S
C363 C419 1.419 . S
C364 C360 1.391 . S
C364 C363 1.391 . S
C364 C365 1.399 . S
C365 C364 1.399 . S
C365 C368 1.396 . S
C365 C377 1.453 . S
C365 C378 1.684 . S
H366 C390 0.948 . S
C367 C363 1.397 . S
C367 C368 1.394 . S
C367 C386 1.723 . S
C368 C365 1.396 . S
C368 C367 1.394 . S
C368 C398 1.723 . S
H369 C392 0.947 . S
H370 C393 0.948 . S
H371 C399 0.982 . S
H372 C400 0.979 . S
H373 C400 0.980 . S
H374 C400 0.983 . S
H375 C399 0.979 . S
H376 C399 0.977 . S
C377 C365 1.453 . S
C377 H406 0.982 . S
C377 H407 0.979 . S
C377 H408 0.977 . S
C378 C365 1.684 . S
C378 H403 0.979 . S
C378 H404 0.980 . S
C378 H405 0.983 . S
C379 C380 1.391 . S
C379 C384 1.391 . S
C379 H409 0.948 . S
C380 C379 1.391 . S
C380 C381 1.391 . S
C381 C380 1.391 . S
C381 C382 1.392 . S
C381 H410 0.947 . S
C382 C381 1.392 . S
C382 C383 1.419 . S
C382 H411 0.948 . S
C383 C382 1.419 . S
C383 C384 1.391 . S
C383 C387 1.397 . S
C384 C379 1.391 . S
C384 C383 1.391 . S
C384 C385 1.399 . S
C385 C384 1.399 . S
C385 C386 1.396 . S
C385 C388 1.453 . S
C385 C389 1.684 . S
C386 C367 1.723 . S
C386 C385 1.396 . S
C386 C387 1.394 . S
C387 C383 1.397 . S
C387 C386 1.394 . S
C387 C397 1.723 . S
C388 C385 1.453 . S
C388 H412 0.982 . S
C388 H413 0.979 . S
C388 H414 0.977 . S
C389 C385 1.684 . S
C389 H415 0.979 . S
C389 H416 0.980 . S
C389 H417 0.983 . S
C390 H366 0.948 . S
C390 C391 1.391 . S
C390 C395 1.391 . S
C391 C390 1.391 . S
C391 C392 1.391 . S
C392 H369 0.947 . S
C392 C391 1.391 . S
C392 C393 1.392 . S
C393 H370 0.948 . S
C393 C392 1.392 . S
C393 C394 1.419 . S
C394 C393 1.419 . S
C394 C395 1.391 . S
C394 C398 1.397 . S
C395 C390 1.391 . S
C395 C394 1.391 . S
C395 C396 1.399 . S
C396 C395 1.399 . S
C396 C397 1.396 . S
C396 C399 1.453 . S
C396 C400 1.684 . S
C397 C387 1.723 . S
C397 C396 1.396 . S
C397 C398 1.394 . S
C398 C368 1.723 . S
C398 C394 1.397 . S
C398 C397 1.394 . S
C399 H371 0.982 . S
C399 H375 0.979 . S
C399 H376 0.977 . S
C399 C396 1.453 . S
C400 H372 0.979 . S
C400 H373 0.980 . S
C400 H374 0.983 . S
C400 C396 1.684 . S
H401 C419 0.948 . S
H402 C360 0.948 . S
H403 C378 0.979 . S
H404 C378 0.980 . S
H405 C378 0.983 . S
H406 C377 0.982 . S
H407 C377 0.979 . S
H408 C377 0.977 . S
H409 C379 0.948 . S
H410 C381 0.947 . S
H411 C382 0.948 . S
H412 C388 0.982 . S
H413 C388 0.979 . S
H414 C388 0.977 . S
H415 C389 0.979 . S
H416 C389 0.980 . S
H417 C389 0.983 . S
H418 C362 0.947 . S
C419 C362 1.392 . S
C419 C363 1.419 . S
C419 H401 0.948 . S
C420 C421 1.391 . S
C420 C424 1.391 . S
C420 H462 0.956 . S
C421 C420 1.391 . S
C421 C422 1.391 . S
C422 C421 1.391 . S
C422 H478 0.947 . S
C422 C479 1.392 . S
C423 C424 1.391 . S
C423 C427 1.397 . S
C423 C479 1.419 . S
C424 C420 1.391 . S
C424 C423 1.391 . S
C424 C425 1.399 . S
C425 C424 1.399 . S
C425 C428 1.396 . S
C425 C437 1.453 . S
C425 C438 1.684 . S
H426 C450 0.948 . S
C427 C423 1.397 . S
C427 C428 1.394 . S
C427 C446 1.723 . S
C428 C425 1.396 . S
C428 C427 1.394 . S
C428 C458 1.723 . S
H429 C452 0.947 . S
H430 C453 0.948 . S
H431 C459 0.982 . S
H432 C460 0.979 . S
H433 C460 0.980 . S
H434 C460 0.983 . S
H435 C459 0.979 . S
H436 C459 0.977 . S
C437 C425 1.453 . S
C437 H466 0.982 . S
C437 H467 0.979 . S
C437 H468 0.977 . S
C438 C425 1.684 . S
C438 H463 0.979 . S
C438 H464 0.980 . S
C438 H465 0.983 . S
C439 C440 1.391 . S
C439 C444 1.391 . S
C439 H469 0.948 . S
C440 C439 1.391 . S
C440 C441 1.391 . S
C441 C440 1.391 . S
C441 C442 1.392 . S
C441 H470 0.947 . S
C442 C441 1.392 . S
C442 C443 1.419 . S
C442 H471 0.948 . S
C443 C442 1.419 . S
C443 C444 1.391 . S
C443 C447 1.397 . S
C444 C439 1.391 . S
C444 C443 1.391 . S
C444 C445 1.399 . S
C445 C444 1.399 . S
C445 C446 1.396 . S
C445 C448 1.453 . S
C445 C449 1.684 . S
C446 C427 1.723 . S
C446 C445 1.396 . S
C446 C447 1.394 . S
C447 C443 1.397 . S
C447 C446 1.394 . S
C447 C457 1.723 . S
C448 C445 1.453 . S
C448 H472 0.982 . S
C448 H473 0.979 . S
C448 H474 0.977 . S
C449 C445 1.684 . S
C449 H475 0.979 . S
C449 H476 0.980 . S
C449 H477 0.983 . S
C450 H426 0.948 . S
C450 C451 1.391 . S
C450 C455 1.391 . S
C451 C450 1.391 . S
C451 C452 1.391 . S
C452 H429 0.947 . S
C452 C451 1.391 . S
C452 C453 1.392 . S
C453 H430 0.948 . S
C453 C452 1.392 . S
C453 C454 1.419 . S
C454 C453 1.419 . S
C454 C455 1.391 . S
C454 C458 1.397 . S
C455 C450 1.391 . S
C455 C454 1.391 . S
C455 C456 1.399 . S
C456 C455 1.399 . S
C456 C457 1.396 . S
C456 C459 1.453 . S
C456 C460 1.684 . S
C457 C447 1.723 . S
C457 C456 1.396 . S
C457 C458 1.394 . S
C458 C428 1.723 . S
C458 C454 1.397 . S
C458 C457 1.394 . S
C459 H431 0.982 . S
C459 H435 0.979 . S
C459 H436 0.977 . S
C459 C456 1.453 . S
C460 H432 0.979 . S
C460 H433 0.980 . S
C460 H434 0.983 . S
C460 C456 1.684 . S
H461 C479 0.948 . S
H462 C420 0.956 . S
H463 C438 0.979 . S
H464 C438 0.980 . S
H465 C438 0.983 . S
H466 C437 0.982 . S
H467 C437 0.979 . S
H468 C437 0.977 . S
H469 C439 0.948 . S
H470 C441 0.947 . S
H471 C442 0.948 . S
H472 C448 0.982 . S
H473 C448 0.979 . S
H474 C448 0.977 . S
H475 C449 0.979 . S
H476 C449 0.980 . S
H477 C449 0.983 . S
H478 C422 0.947 . S
C479 C422 1.392 . S
C479 C423 1.419 . S
C479 H461 0.948 . S
Nd480 C482 2.836 1_545 S
Nd480 O500 2.500 1_445 S
Nd480 O501 2.492 1_545 S
Nd480 O502 2.487 . S
Nd480 O503 2.682 . S
Nd480 O504 2.410 1_545 S
Nd480 O509 2.414 1_455 S
Nd480 O511 2.424 . S
Nd481 C491 2.836 1_556 S
Nd481 O503 2.414 . S
Nd481 O505 2.424 1_545 S
Nd481 O506 2.500 . S
Nd481 O507 2.492 1_556 S
Nd481 O508 2.487 1_455 S
Nd481 O509 2.682 1_455 S
Nd481 O510 2.410 . S
C482 Nd480 2.836 1_565 S
C482 C483 1.498 1_455 S
C482 O500 1.258 1_455 S
C482 O501 1.239 . S
C483 C482 1.498 1_655 S
C483 C484 1.366 . S
C483 C488 1.407 1_655 S
C484 C483 1.366 . S
C484 C485 1.392 . S
C484 H512 0.930 . S
C485 C484 1.392 . S
C485 C486 1.398 . S
C485 H513 0.929 . S
C486 C485 1.398 . S
C486 C487 1.352 . S
C487 C486 1.352 . S
C487 C488 1.384 1_655 S
C487 H514 0.930 1_655 S
C488 C483 1.407 1_455 S
C488 C487 1.384 1_455 S
C488 H515 0.929 . S
C489 O502 1.241 . S
C489 O503 1.273 . S
C490 O504 1.251 . S
C490 O505 1.268 . S
C491 Nd481 2.836 1_554 S
C491 C492 1.498 . S
C491 O506 1.258 1_554 S
C491 O507 1.239 . S
C492 C491 1.498 . S
C492 C493 1.366 . S
C492 C497 1.407 . S
C493 C492 1.366 . S
C493 C494 1.392 . S
C493 H516 0.930 . S
C494 C493 1.392 . S
C494 C495 1.398 . S
C494 H517 0.929 . S
C495 C494 1.398 . S
C495 C496 1.352 . S
C496 C495 1.352 . S
C496 C497 1.384 . S
C496 H518 0.930 . S
C497 C492 1.407 . S
C497 C496 1.384 . S
C497 H519 0.929 . S
C498 O508 1.241 . S
C498 O509 1.273 . S
C499 O510 1.251 . S
C499 O511 1.268 . S
O500 Nd480 2.500 1_665 S
O500 C482 1.258 1_655 S
O501 Nd480 2.492 1_565 S
O501 C482 1.239 . S
O502 Nd480 2.487 . S
O502 C489 1.241 . S
O503 Nd480 2.682 . S
O503 Nd481 2.414 . S
O503 C489 1.273 . S
O504 Nd480 2.410 1_565 S
O504 C490 1.251 . S
O505 Nd481 2.424 1_565 S
O505 C490 1.268 . S
O506 Nd481 2.500 . S
O506 C491 1.258 1_556 S
O507 Nd481 2.492 1_554 S
O507 C491 1.239 . S
O508 Nd481 2.487 1_655 S
O508 C498 1.241 . S
O509 Nd480 2.414 1_655 S
O509 Nd481 2.682 1_655 S
O509 C498 1.273 . S
O510 Nd481 2.410 . S
O510 C499 1.251 . S
O511 Nd480 2.424 . S
O511 C499 1.268 . S
H512 C484 0.930 . S
H513 C485 0.929 . S
H514 C487 0.930 1_455 S
H515 C488 0.929 . S
H516 C493 0.930 . S
H517 C494 0.929 . S
H518 C496 0.930 . S
H519 C497 0.929 . S
Nd520 C522 2.836 1_545 S
Nd520 O540 2.500 1_545 S
Nd520 O541 2.492 . S
Nd520 O542 2.487 . S
Nd520 O543 2.682 . S
Nd520 O544 2.410 . S
Nd520 O549 2.414 . S
Nd520 O551 2.424 . S
Nd521 C531 2.836 1_556 S
Nd521 O543 2.414 . S
Nd521 O545 2.424 . S
Nd521 O546 2.500 . S
Nd521 O547 2.492 1_556 S
Nd521 O548 2.465 1_546 S
Nd521 O549 2.682 . S
Nd521 O550 2.410 . S
C522 Nd520 2.836 1_565 S
C522 C523 1.498 . S
C522 O540 1.258 . S
C522 O541 1.239 1_565 S
C523 C522 1.498 . S
C523 C524 1.366 . S
C523 C528 1.407 1_565 S
C524 C523 1.366 . S
C524 C525 1.392 . S
C524 H552 0.930 . S
C525 C524 1.392 . S
C525 C526 1.398 . S
C525 H553 0.929 . S
C526 C525 1.398 . S
C526 C527 1.352 . S
C527 C526 1.352 . S
C527 C528 1.384 1_565 S
C527 H554 0.933 . S
C528 C523 1.407 1_545 S
C528 C527 1.384 1_545 S
C528 H555 0.929 . S
C529 O542 1.241 . S
C529 O543 1.273 . S
C530 O544 1.251 . S
C530 O545 1.268 . S
C531 Nd521 2.836 1_554 S
C531 C532 1.498 . S
C531 O546 1.258 1_554 S
C531 O547 1.239 . S
C532 C531 1.498 . S
C532 C533 1.366 . S
C532 C537 1.407 . S
C533 C532 1.366 . S
C533 C534 1.392 . S
C533 H556 0.930 1_554 S
C534 C533 1.392 . S
C534 C535 1.398 . S
C534 H557 0.929 . S
C535 C534 1.398 . S
C535 C536 1.352 . S
C536 C535 1.352 . S
C536 C537 1.384 . S
C536 H558 0.930 . S
C537 C532 1.407 . S
C537 C536 1.384 . S
C537 H559 0.929 . S
C538 O548 1.257 1_556 S
C538 O549 1.273 1_565 S
C539 O550 1.251 . S
C539 O551 1.268 . S
O540 Nd520 2.500 1_565 S
O540 C522 1.258 . S
O541 Nd520 2.492 . S
O541 C522 1.239 1_545 S
O542 Nd520 2.487 . S
O542 C529 1.241 . S
O543 Nd520 2.682 . S
O543 Nd521 2.414 . S
O543 C529 1.273 . S
O544 Nd520 2.410 . S
O544 C530 1.251 . S
O545 Nd521 2.424 . S
O545 C530 1.268 . S
O546 Nd521 2.500 . S
O546 C531 1.258 1_556 S
O547 Nd521 2.492 1_554 S
O547 C531 1.239 . S
O548 Nd521 2.465 1_564 S
O548 C538 1.257 1_554 S
O549 Nd520 2.414 . S
O549 Nd521 2.682 . S
O549 C538 1.273 1_545 S
O550 Nd521 2.410 . S
O550 C539 1.251 . S
O551 Nd520 2.424 . S
O551 C539 1.268 . S
H552 C524 0.930 . S
H553 C525 0.929 . S
H554 C527 0.933 . S
H555 C528 0.929 . S
H556 C533 0.930 1_556 S
H557 C534 0.929 . S
H558 C536 0.930 . S
H559 C537 0.929 . S
Nd560 C562 2.836 . S
Nd560 O580 2.500 . S
Nd560 O581 2.492 . S
Nd560 O582 2.487 . S
Nd560 O583 2.682 . S
Nd560 O584 2.410 . S
Nd560 O589 2.414 . S
Nd560 O591 2.424 . S
Nd561 C571 2.836 . S
Nd561 O583 2.414 . S
Nd561 O585 2.424 . S
Nd561 O586 2.500 . S
Nd561 O587 2.492 . S
Nd561 O588 2.487 . S
Nd561 O589 2.682 . S
Nd561 O590 2.410 . S
C562 Nd560 2.836 . S
C562 C563 1.498 1_556 S
C562 O580 1.258 . S
C562 O581 1.239 . S
C563 C562 1.498 1_554 S
C563 C564 1.366 1_554 S
C563 C568 1.407 . S
C564 C563 1.366 1_556 S
C564 C565 1.392 . S
C564 H592 0.930 . S
C565 C564 1.392 . S
C565 C566 1.399 1_556 S
C565 H593 0.929 . S
C566 C565 1.399 1_554 S
C566 C567 1.352 . S
C567 C566 1.352 . S
C567 C568 1.384 . S
C567 H594 0.930 . S
C568 C563 1.407 . S
C568 C567 1.384 . S
C568 H595 0.929 . S
C569 O582 1.241 . S
C569 O583 1.273 . S
C570 O584 1.251 . S
C570 O585 1.268 . S
C571 Nd561 2.836 . S
C571 C572 1.498 . S
C571 O586 1.258 . S
C571 O587 1.239 . S
C572 C571 1.498 . S
C572 C573 1.366 . S
C572 C577 1.407 . S
C573 C572 1.366 . S
C573 C574 1.392 . S
C573 H596 0.930 . S
C574 C573 1.392 . S
C574 C575 1.398 . S
C574 H597 0.929 . S
C575 C574 1.398 . S
C575 C576 1.352 . S
C576 C575 1.352 . S
C576 C577 1.384 . S
C576 H598 0.930 . S
C577 C572 1.407 . S
C577 C576 1.384 . S
C577 H599 0.929 . S
C578 O588 1.241 . S
C578 O589 1.273 . S
C579 O590 1.251 . S
C579 O591 1.268 . S
O580 Nd560 2.500 . S
O580 C562 1.258 . S
O581 Nd560 2.492 . S
O581 C562 1.239 . S
O582 Nd560 2.487 . S
O582 C569 1.241 . S
O583 Nd560 2.682 . S
O583 Nd561 2.414 . S
O583 C569 1.273 . S
O584 Nd560 2.410 . S
O584 C570 1.251 . S
O585 Nd561 2.424 . S
O585 C570 1.268 . S
O586 Nd561 2.500 . S
O586 C571 1.258 . S
O587 Nd561 2.492 . S
O587 C571 1.239 . S
O588 Nd561 2.487 . S
O588 C578 1.241 . S
O589 Nd560 2.414 . S
O589 Nd561 2.682 . S
O589 C578 1.273 . S
O590 Nd561 2.410 . S
O590 C579 1.251 . S
O591 Nd560 2.424 . S
O591 C579 1.268 . S
H592 C564 0.930 . S
H593 C565 0.929 . S
H594 C567 0.930 . S
H595 C568 0.929 . S
H596 C573 0.930 . S
H597 C574 0.929 . S
H598 C576 0.930 . S
H599 C577 0.929 . S
Nd600 C602 2.836 1_455 S
Nd600 O620 2.500 1_455 S
Nd600 O621 2.492 1_455 S
Nd600 O622 2.487 . S
Nd600 O623 2.682 . S
Nd600 O624 2.410 1_455 S
Nd600 O629 2.414 . S
Nd600 O631 2.424 . S
Nd601 C611 2.836 1_556 S
Nd601 O623 2.414 . S
Nd601 O625 2.424 1_455 S
Nd601 O626 2.497 1_556 S
Nd601 O627 2.492 1_556 S
Nd601 O628 2.487 . S
Nd601 O629 2.682 . S
Nd601 O630 2.410 . S
C602 Nd600 2.836 1_655 S
C602 C603 1.498 . S
C602 O620 1.258 . S
C602 O621 1.239 . S
C603 C602 1.498 . S
C603 C604 1.366 . S
C603 C608 1.407 . S
C604 C603 1.366 . S
C604 C605 1.392 . S
C604 H632 0.930 . S
C605 C604 1.392 . S
C605 C606 1.398 . S
C605 H633 0.929 . S
C606 C605 1.398 . S
C606 C607 1.352 . S
C607 C606 1.352 . S
C607 C608 1.384 . S
C607 H634 0.930 . S
C608 C603 1.407 . S
C608 C607 1.384 . S
C608 H635 0.929 . S
C609 O622 1.241 . S
C609 O623 1.273 . S
C610 O624 1.251 . S
C610 O625 1.268 . S
C611 Nd601 2.836 1_554 S
C611 C612 1.498 . S
C611 O626 1.266 . S
C611 O627 1.239 . S
C612 C611 1.498 . S
C612 C613 1.366 . S
C612 C617 1.407 . S
C613 C612 1.366 . S
C613 C614 1.392 . S
C613 H636 0.930 . S
C614 C613 1.392 . S
C614 C615 1.398 . S
C614 H637 0.929 . S
C615 C614 1.398 . S
C615 C616 1.352 . S
C616 C615 1.352 . S
C616 C617 1.384 . S
C616 H638 0.930 . S
C617 C612 1.407 . S
C617 C616 1.384 . S
C617 H639 0.929 . S
C618 O628 1.241 . S
C618 O629 1.273 . S
C619 O630 1.251 . S
C619 O631 1.268 . S
O620 Nd600 2.500 1_655 S
O620 C602 1.258 . S
O621 Nd600 2.492 1_655 S
O621 C602 1.239 . S
O622 Nd600 2.487 . S
O622 C609 1.241 . S
O623 Nd600 2.682 . S
O623 Nd601 2.414 . S
O623 C609 1.273 . S
O624 Nd600 2.410 1_655 S
O624 C610 1.251 . S
O625 Nd601 2.424 1_655 S
O625 C610 1.268 . S
O626 Nd601 2.497 1_554 S
O626 C611 1.266 . S
O627 Nd601 2.492 1_554 S
O627 C611 1.239 . S
O628 Nd601 2.487 . S
O628 C618 1.241 . S
O629 Nd600 2.414 . S
O629 Nd601 2.682 . S
O629 C618 1.273 . S
O630 Nd601 2.410 . S
O630 C619 1.251 . S
O631 Nd600 2.424 . S
O631 C619 1.268 . S
H632 C604 0.930 . S
H633 C605 0.929 . S
H634 C607 0.930 . S
H635 C608 0.929 . S
H636 C613 0.930 . S
H637 C614 0.929 . S
H638 C616 0.930 . S
H639 C617 0.929 . S
C640 C641 1.363 . S
C640 C646 1.379 . S
C640 N648 1.356 . S
C641 C640 1.363 . S
C641 C647 1.363 . S
C642 C643 1.363 . S
C642 C647 1.379 . S
C642 N649 1.356 . S
C643 C642 1.363 . S
C643 C646 1.363 . S
N644 C646 1.356 . S
N644 H656 0.984 . S
N644 H657 0.985 . S
N645 C647 1.356 . S
N645 H650 0.984 . S
N645 H651 0.985 . S
C646 C640 1.379 . S
C646 C643 1.363 . S
C646 N644 1.356 . S
C647 C641 1.363 . S
C647 C642 1.379 . S
C647 N645 1.356 . S
N648 C640 1.356 . S
N648 H654 0.984 . S
N648 H655 0.984 . S
N649 C642 1.356 . S
N649 H652 0.984 . S
N649 H653 0.985 . S
H650 N645 0.984 . S
H651 N645 0.985 . S
H652 N649 0.984 . S
H653 N649 0.985 . S
H654 N648 0.984 . S
H655 N648 0.984 . S
H656 N644 0.984 . S
H657 N644 0.985 . S
C658 C659 1.363 . S
C658 C664 1.379 . S
C658 N666 1.356 . S
C659 C658 1.363 . S
C659 C665 1.363 . S
C660 C661 1.363 . S
C660 C665 1.379 . S
C660 N667 1.356 . S
C661 C660 1.363 . S
C661 C664 1.363 . S
N662 C664 1.356 . S
N662 H674 0.984 . S
N662 H675 0.985 . S
N663 C665 1.356 . S
N663 H668 0.984 . S
N663 H669 0.985 . S
C664 C658 1.379 . S
C664 C661 1.363 . S
C664 N662 1.356 . S
C665 C659 1.363 . S
C665 C660 1.379 . S
C665 N663 1.356 . S
N666 C658 1.356 . S
N666 H672 0.984 . S
N666 H673 0.984 . S
N667 C660 1.356 . S
N667 H670 0.984 . S
N667 H671 0.985 . S
H668 N663 0.984 . S
H669 N663 0.985 . S
H670 N667 0.984 . S
H671 N667 0.985 . S
H672 N666 0.984 . S
H673 N666 0.984 . S
H674 N662 0.984 . S
H675 N662 0.985 . S
C676 C677 1.363 . S
C676 C682 1.379 . S
C676 N684 1.356 . S
C677 C676 1.363 . S
C677 C683 1.363 . S
C678 C679 1.363 . S
C678 C683 1.379 . S
C678 N685 1.356 . S
C679 C678 1.363 . S
C679 C682 1.363 . S
N680 C682 1.356 . S
N680 H692 0.984 . S
N680 H693 0.985 . S
N681 C683 1.356 . S
N681 H686 0.984 . S
N681 H687 0.985 . S
C682 C676 1.379 . S
C682 C679 1.363 . S
C682 N680 1.356 . S
C683 C677 1.363 . S
C683 C678 1.379 . S
C683 N681 1.356 . S
N684 C676 1.356 . S
N684 H690 0.984 . S
N684 H691 0.984 . S
N685 C678 1.356 . S
N685 H688 0.984 . S
N685 H689 0.985 . S
H686 N681 0.984 . S
H687 N681 0.985 . S
H688 N685 0.984 . S
H689 N685 0.985 . S
H690 N684 0.984 . S
H691 N684 0.984 . S
H692 N680 0.984 . S
H693 N680 0.985 . S
C694 C695 1.363 . S
C694 C700 1.379 . S
C694 N702 1.356 . S
C695 C694 1.363 . S
C695 C701 1.363 . S
C696 C697 1.363 . S
C696 C701 1.379 . S
C696 N703 1.356 . S
C697 C696 1.363 . S
C697 C700 1.363 . S
N698 C700 1.356 . S
N698 H710 0.984 . S
N698 H711 0.985 . S
N699 C701 1.356 . S
N699 H704 0.984 . S
N699 H705 0.985 . S
C700 C694 1.379 . S
C700 C697 1.363 . S
C700 N698 1.356 . S
C701 C695 1.363 . S
C701 C696 1.379 . S
C701 N699 1.356 . S
N702 C694 1.356 . S
N702 H708 0.984 . S
N702 H709 0.984 . S
N703 C696 1.356 . S
N703 H706 0.984 . S
N703 H707 0.985 . S
H704 N699 0.984 . S
H705 N699 0.985 . S
H706 N703 0.984 . S
H707 N703 0.985 . S
H708 N702 0.984 . S
H709 N702 0.984 . S
H710 N698 0.984 . S
H711 N698 0.985 . S
C712 C713 1.363 1_545 S
C712 C718 1.379 . S
C712 N720 1.356 1_556 S
C713 C712 1.363 1_565 S
C713 C719 1.363 . S
C714 C715 1.341 1_565 S
C714 C719 1.387 . S
C714 N721 1.373 1_565 S
C715 C714 1.341 1_545 S
C715 C718 1.363 . S
N716 C718 1.356 . S
N716 H728 0.984 1_556 S
N716 H729 0.985 . S
N717 C719 1.356 . S
N717 H722 0.984 . S
N717 H723 0.985 . S
C718 C712 1.379 . S
C718 C715 1.363 . S
C718 N716 1.356 . S
C719 C713 1.363 . S
C719 C714 1.387 . S
C719 N717 1.356 . S
N720 C712 1.356 1_554 S
N720 H726 0.984 . S
N720 H727 0.984 1_545 S
N721 C714 1.373 1_545 S
N721 H724 0.996 . S
N721 H725 0.967 1_545 S
H722 N717 0.984 . S
H723 N717 0.985 . S
H724 N721 0.996 . S
H725 N721 0.967 1_565 S
H726 N720 0.984 . S
H727 N720 0.984 1_565 S
H728 N716 0.984 1_554 S
H729 N716 0.985 . S
C730 C731 1.363 . S
C730 C736 1.379 . S
C730 N738 1.356 1_565 S
C731 C730 1.363 . S
C731 C737 1.363 . S
C732 C733 1.363 . S
C732 C737 1.379 . S
C732 N739 1.356 . S
C733 C732 1.363 . S
C733 C736 1.363 . S
N734 C736 1.356 1_545 S
N734 H746 0.984 . S
N734 H747 0.985 . S
N735 C737 1.356 . S
N735 H740 0.984 . S
N735 H741 0.985 . S
C736 C730 1.379 . S
C736 C733 1.363 . S
C736 N734 1.356 1_565 S
C737 C731 1.363 . S
C737 C732 1.379 . S
C737 N735 1.356 . S
N738 C730 1.356 1_545 S
N738 H744 0.984 . S
N738 H745 0.984 . S
N739 C732 1.356 . S
N739 H742 0.984 1_554 S
N739 H743 0.985 . S
H740 N735 0.984 . S
H741 N735 0.985 . S
H742 N739 0.984 1_556 S
H743 N739 0.985 . S
H744 N738 0.984 . S
H745 N738 0.984 . S
H746 N734 0.984 . S
H747 N734 0.985 . S
C748 C749 1.363 . S
C748 C754 1.379 . S
C748 N756 1.356 . S
C749 C748 1.363 . S
C749 C755 1.363 . S
C750 C751 1.363 . S
C750 C755 1.379 . S
C750 N757 1.356 . S
C751 C750 1.363 . S
C751 C754 1.363 . S
N752 C754 1.356 . S
N752 H764 0.984 . S
N752 H765 0.985 . S
N753 C755 1.356 1_554 S
N753 H758 0.984 . S
N753 H759 0.985 . S
C754 C748 1.379 . S
C754 C751 1.363 . S
C754 N752 1.356 . S
C755 C749 1.363 . S
C755 C750 1.379 . S
C755 N753 1.356 1_556 S
N756 C748 1.356 . S
N756 H762 0.984 . S
N756 H763 0.984 . S
N757 C750 1.356 . S
N757 H760 0.984 . S
N757 H761 0.985 1_556 S
H758 N753 0.984 . S
H759 N753 0.985 . S
H760 N757 0.984 . S
H761 N757 0.985 1_554 S
H762 N756 0.984 . S
H763 N756 0.984 . S
H764 N752 0.984 . S
H765 N752 0.985 . S
C766 C767 1.363 . S
C766 C772 1.379 . S
C766 N774 1.356 . S
C767 C766 1.363 . S
C767 C773 1.363 . S
C768 C769 1.363 . S
C768 C773 1.379 . S
C768 N775 1.356 1_655 S
C769 C768 1.363 . S
C769 C772 1.363 . S
N770 C772 1.356 . S
N770 H782 0.984 . S
N770 H783 0.985 . S
N771 C773 1.356 1_554 S
N771 H776 0.984 . S
N771 H777 0.985 . S
C772 C766 1.379 . S
C772 C769 1.363 . S
C772 N770 1.356 . S
C773 C767 1.363 . S
C773 C768 1.379 . S
C773 N771 1.356 1_556 S
N774 C766 1.356 . S
N774 H780 0.984 . S
N774 H781 0.984 . S
N775 C768 1.356 1_455 S
N775 H778 0.984 . S
N775 H779 0.985 . S
H776 N771 0.984 . S
H777 N771 0.985 . S
H778 N775 0.984 . S
H779 N775 0.985 . S
H780 N774 0.984 . S
H781 N774 0.984 . S
H782 N770 0.984 . S
H783 N770 0.985 . S
C784 C785 1.363 . S
C784 C790 1.379 . S
C784 N792 1.356 . S
C785 C784 1.363 . S
C785 C791 1.363 . S
C786 C787 1.363 . S
C786 C791 1.379 . S
C786 N793 1.356 . S
C787 C786 1.363 . S
C787 C790 1.363 . S
N788 C790 1.356 . S
N788 H800 0.984 . S
N788 H801 0.985 . S
N789 C791 1.356 . S
N789 H794 0.984 . S
N789 H795 0.985 . S
C790 C784 1.379 . S
C790 C787 1.363 . S
C790 N788 1.356 . S
C791 C785 1.363 . S
C791 C786 1.379 . S
C791 N789 1.356 . S
N792 C784 1.356 . S
N792 H798 0.984 . S
N792 H799 0.984 . S
N793 C786 1.356 . S
N793 H796 0.984 . S
N793 H797 0.985 . S
H794 N789 0.984 . S
H795 N789 0.985 . S
H796 N793 0.984 . S
H797 N793 0.985 . S
H798 N792 0.984 . S
H799 N792 0.984 . S
H800 N788 0.984 . S
H801 N788 0.985 . S
C802 C803 1.363 . S
C802 C808 1.379 . S
C802 N810 1.356 1_556 S
C803 C802 1.363 . S
C803 C809 1.363 . S
C804 C805 1.363 . S
C804 C809 1.379 . S
C804 N811 1.356 . S
C805 C804 1.363 . S
C805 C808 1.363 . S
N806 C808 1.356 . S
N806 H818 0.984 1_556 S
N806 H819 0.985 . S
N807 C809 1.356 . S
N807 H812 0.984 . S
N807 H813 0.985 . S
C808 C802 1.379 . S
C808 C805 1.363 . S
C808 N806 1.356 . S
C809 C803 1.363 . S
C809 C804 1.379 . S
C809 N807 1.356 . S
N810 C802 1.356 1_554 S
N810 H816 0.984 . S
N810 H817 0.984 . S
N811 C804 1.356 . S
N811 H814 0.984 . S
N811 H815 0.985 . S
H812 N807 0.984 . S
H813 N807 0.985 . S
H814 N811 0.984 . S
H815 N811 0.985 . S
H816 N810 0.984 . S
H817 N810 0.984 . S
H818 N806 0.984 1_554 S
H819 N806 0.985 . S
C820 C821 1.363 . S
C820 C826 1.379 . S
C820 N828 1.356 . S
C821 C820 1.363 . S
C821 C827 1.363 . S
C822 C823 1.363 . S
C822 C827 1.379 . S
C822 N829 1.356 . S
C823 C822 1.363 . S
C823 C826 1.363 . S
N824 C826 1.356 . S
N824 H836 0.984 . S
N824 H837 0.985 . S
N825 C827 1.356 . S
N825 H830 0.984 . S
N825 H831 0.985 . S
C826 C820 1.379 . S
C826 C823 1.363 . S
C826 N824 1.356 . S
C827 C821 1.363 . S
C827 C822 1.379 . S
C827 N825 1.356 . S
N828 C820 1.356 . S
N828 H834 0.984 . S
N828 H835 0.984 . S
N829 C822 1.356 . S
N829 H832 0.984 . S
N829 H833 0.985 . S
H830 N825 0.984 . S
H831 N825 0.985 . S
H832 N829 0.984 . S
H833 N829 0.985 . S
H834 N828 0.984 . S
H835 N828 0.984 . S
H836 N824 0.984 . S
H837 N824 0.985 . S
C838 C839 1.363 . S
C838 C844 1.379 . S
C838 N846 1.356 . S
C839 C838 1.363 . S
C839 C845 1.363 . S
C840 C841 1.363 . S
C840 C845 1.379 . S
C840 N847 1.356 . S
C841 C840 1.363 . S
C841 C844 1.363 . S
N842 C844 1.356 . S
N842 H854 0.984 . S
N842 H855 0.985 . S
N843 C845 1.356 . S
N843 H848 0.984 . S
N843 H849 0.985 . S
C844 C838 1.379 . S
C844 C841 1.363 . S
C844 N842 1.356 . S
C845 C839 1.363 . S
C845 C840 1.379 . S
C845 N843 1.356 . S
N846 C838 1.356 . S
N846 H852 0.984 . S
N846 H853 0.984 . S
N847 C840 1.356 . S
N847 H850 0.984 . S
N847 H851 0.985 . S
H848 N843 0.984 . S
H849 N843 0.985 . S
H850 N847 0.984 . S
H851 N847 0.985 . S
H852 N846 0.984 . S
H853 N846 0.984 . S
H854 N842 0.984 . S
H855 N842 0.985 . S
C856 C857 1.363 . S
C856 C862 1.379 . S
C856 N864 1.356 . S
C857 C856 1.363 . S
C857 C863 1.363 . S
C858 C859 1.363 . S
C858 C863 1.379 . S
C858 N865 1.356 . S
C859 C858 1.363 . S
C859 C862 1.363 . S
N860 C862 1.356 1_455 S
N860 H872 0.984 . S
N860 H873 0.985 . S
N861 C863 1.356 . S
N861 H866 0.984 . S
N861 H867 0.985 . S
C862 C856 1.379 . S
C862 C859 1.363 . S
C862 N860 1.356 1_655 S
C863 C857 1.363 . S
C863 C858 1.379 . S
C863 N861 1.356 . S
N864 C856 1.356 . S
N864 H870 0.984 . S
N864 H871 0.984 . S
N865 C858 1.356 . S
N865 H868 0.984 . S
N865 H869 0.985 1_556 S
H866 N861 0.984 . S
H867 N861 0.985 . S
H868 N865 0.984 . S
H869 N865 0.985 1_554 S
H870 N864 0.984 . S
H871 N864 0.984 . S
H872 N860 0.984 . S
H873 N860 0.985 . S
C874 C875 1.363 . S
C874 C880 1.373 1_565 S
C874 N882 1.356 . S
C875 C874 1.363 . S
C875 C881 1.363 1_565 S
C876 C877 1.363 . S
C876 C881 1.379 . S
C876 N883 1.356 . S
C877 C876 1.363 . S
C877 C880 1.369 . S
N878 C880 1.358 1_565 S
N878 H890 0.984 . S
N878 H891 0.985 1_565 S
N879 C881 1.356 . S
N879 H884 0.984 . S
N879 H885 0.985 . S
C880 C874 1.373 1_545 S
C880 C877 1.369 . S
C880 N878 1.358 1_545 S
C881 C875 1.363 1_545 S
C881 C876 1.379 . S
C881 N879 1.356 . S
N882 C874 1.356 . S
N882 H888 0.984 . S
N882 H889 0.984 . S
N883 C876 1.356 . S
N883 H886 0.984 . S
N883 H887 0.985 . S
H884 N879 0.984 . S
H885 N879 0.985 . S
H886 N883 0.984 . S
H887 N883 0.985 . S
H888 N882 0.984 . S
H889 N882 0.984 . S
H890 N878 0.984 . S
H891 N878 0.985 1_545 S
C892 C893 1.363 . S
C892 C898 1.379 . S
C892 N900 1.356 . S
C893 C892 1.363 . S
C893 C899 1.363 . S
C894 C895 1.363 . S
C894 C899 1.379 . S
C894 N901 1.356 . S
C895 C894 1.363 . S
C895 C898 1.363 . S
N896 C898 1.356 1_556 S
N896 H908 0.984 . S
N896 H909 0.985 . S
N897 C899 1.356 . S
N897 H902 0.984 . S
N897 H903 0.985 . S
C898 C892 1.379 . S
C898 C895 1.363 . S
C898 N896 1.356 1_554 S
C899 C893 1.363 . S
C899 C894 1.379 . S
C899 N897 1.356 . S
N900 C892 1.356 . S
N900 H906 0.984 1_554 S
N900 H907 0.984 . S
N901 C894 1.356 . S
N901 H904 0.984 . S
N901 H905 0.985 . S
H902 N897 0.984 . S
H903 N897 0.985 . S
H904 N901 0.984 . S
H905 N901 0.985 . S
H906 N900 0.984 1_556 S
H907 N900 0.984 . S
H908 N896 0.984 . S
H909 N896 0.985 . S
C910 C911 1.363 . S
C910 C916 1.379 . S
C910 N918 1.356 . S
C911 C910 1.363 . S
C911 C917 1.363 . S
C912 C913 1.363 . S
C912 C917 1.379 . S
C912 N919 1.356 . S
C913 C912 1.363 . S
C913 C916 1.363 . S
N914 C916 1.356 . S
N914 H926 0.984 1_556 S
N914 H927 0.985 . S
N915 C917 1.356 . S
N915 H920 0.984 . S
N915 H921 0.985 . S
C916 C910 1.379 . S
C916 C913 1.363 . S
C916 N914 1.356 . S
C917 C911 1.363 . S
C917 C912 1.379 . S
C917 N915 1.356 . S
N918 C910 1.356 . S
N918 H924 0.984 . S
N918 H925 0.984 . S
N919 C912 1.356 . S
N919 H922 0.984 . S
N919 H923 0.985 . S
H920 N915 0.984 . S
H921 N915 0.985 . S
H922 N919 0.984 . S
H923 N919 0.985 . S
H924 N918 0.984 . S
H925 N918 0.984 . S
H926 N914 0.984 1_554 S
H927 N914 0.985 . S
C928 C929 1.363 . S
C928 C934 1.379 . S
C928 N936 1.356 . S
C929 C928 1.363 . S
C929 C935 1.363 . S
C930 C931 1.363 . S
C930 C935 1.379 . S
C930 N937 1.356 . S
C931 C930 1.363 . S
C931 C934 1.363 . S
N932 C934 1.356 . S
N932 H944 0.984 . S
N932 H945 0.985 . S
N933 C935 1.356 . S
N933 H938 0.984 . S
N933 H939 0.985 . S
C934 C928 1.379 . S
C934 C931 1.363 . S
C934 N932 1.356 . S
C935 C929 1.363 . S
C935 C930 1.379 . S
C935 N933 1.356 . S
N936 C928 1.356 . S
N936 H942 0.984 . S
N936 H943 0.984 . S
N937 C930 1.356 . S
N937 H940 0.984 . S
N937 H941 0.985 . S
H938 N933 0.984 . S
H939 N933 0.985 . S
H940 N937 0.984 . S
H941 N937 0.985 . S
H942 N936 0.984 . S
H943 N936 0.984 . S
H944 N932 0.984 . S
H945 N932 0.985 . S
C946 C947 1.363 . S
C946 C952 1.379 . S
C946 N954 1.356 . S
C947 C946 1.363 . S
C947 C953 1.363 . S
C948 C949 1.363 . S
C948 C953 1.379 . S
C948 N955 1.356 . S
C949 C948 1.363 . S
C949 C952 1.363 . S
N950 C952 1.356 . S
N950 H962 0.984 . S
N950 H963 0.985 . S
N951 C953 1.356 . S
N951 H956 0.984 . S
N951 H957 0.985 . S
C952 C946 1.379 . S
C952 C949 1.363 . S
C952 N950 1.356 . S
C953 C947 1.363 . S
C953 C948 1.379 . S
C953 N951 1.356 . S
N954 C946 1.356 . S
N954 H960 0.984 . S
N954 H961 0.984 . S
N955 C948 1.356 . S
N955 H958 0.984 . S
N955 H959 0.985 . S
H956 N951 0.984 . S
H957 N951 0.985 . S
H958 N955 0.984 . S
H959 N955 0.985 . S
H960 N954 0.984 . S
H961 N954 0.984 . S
H962 N950 0.984 . S
H963 N950 0.985 . S
C964 C965 1.363 1_554 S
C964 C970 1.379 1_554 S
C964 N972 1.356 . S
C965 C964 1.363 1_556 S
C965 C971 1.363 . S
C966 C967 1.363 . S
C966 C971 1.379 . S
C966 N973 1.356 . S
C967 C966 1.363 . S
C967 C970 1.363 . S
N968 C970 1.356 1_554 S
N968 H980 0.984 . S
N968 H981 0.985 . S
N969 C971 1.356 . S
N969 H974 0.984 . S
N969 H975 0.985 . S
C970 C964 1.379 1_556 S
C970 C967 1.363 . S
C970 N968 1.356 1_556 S
C971 C965 1.363 . S
C971 C966 1.379 . S
C971 N969 1.356 . S
N972 C964 1.356 . S
N972 H978 0.984 . S
N972 H979 0.984 . S
N973 C966 1.356 . S
N973 H976 0.984 . S
N973 H977 0.985 . S
H974 N969 0.984 . S
H975 N969 0.985 . S
H976 N973 0.984 . S
H977 N973 0.985 . S
H978 N972 0.984 . S
H979 N972 0.984 . S
H980 N968 0.984 . S
H981 N968 0.985 . S
C982 C983 1.363 . S
C982 C988 1.379 . S
C982 N990 1.356 . S
C983 C982 1.363 . S
C983 C989 1.363 . S
C984 C985 1.363 . S
C984 C989 1.379 . S
C984 N991 1.356 . S
C985 C984 1.363 . S
C985 C988 1.363 . S
N986 C988 1.356 . S
N986 H998 0.984 . S
N986 H999 0.985 . S
N987 C989 1.356 . S
N987 H992 0.984 . S
N987 H993 0.985 . S
C988 C982 1.379 . S
C988 C985 1.363 . S
C988 N986 1.356 . S
C989 C983 1.363 . S
C989 C984 1.379 . S
C989 N987 1.356 . S
N990 C982 1.356 . S
N990 H996 0.984 . S
N990 H997 0.984 . S
N991 C984 1.356 . S
N991 H994 0.984 . S
N991 H995 0.985 . S
H992 N987 0.984 . S
H993 N987 0.985 . S
H994 N991 0.984 . S
H995 N991 0.985 . S
H996 N990 0.984 . S
H997 N990 0.984 . S
H998 N986 0.984 . S
H999 N986 0.985 . S
C1000 C1001 1.363 . S
C1000 C1006 1.379 . S
C1000 N1008 1.356 . S
C1001 C1000 1.363 . S
C1001 C1007 1.363 . S
C1002 C1003 1.363 . S
C1002 C1007 1.379 . S
C1002 N1009 1.356 . S
C1003 C1002 1.363 . S
C1003 C1006 1.363 . S
N1004 C1006 1.356 . S
N1004 H1016 0.984 . S
N1004 H1017 0.985 . S
N1005 C1007 1.356 . S
N1005 H1010 0.984 . S
N1005 H1011 0.985 . S
C1006 C1000 1.379 . S
C1006 C1003 1.363 . S
C1006 N1004 1.356 . S
C1007 C1001 1.363 . S
C1007 C1002 1.379 . S
C1007 N1005 1.356 . S
N1008 C1000 1.356 . S
N1008 H1014 0.984 . S
N1008 H1015 0.984 . S
N1009 C1002 1.356 . S
N1009 H1012 0.984 . S
N1009 H1013 0.985 . S
H1010 N1005 0.984 . S
H1011 N1005 0.985 . S
H1012 N1009 0.984 . S
H1013 N1009 0.985 . S
H1014 N1008 0.984 . S
H1015 N1008 0.984 . S
H1016 N1004 0.984 . S
H1017 N1004 0.985 . S
C1018 C1019 1.389 . S
C1018 C1024 1.373 . S
C1018 N1026 1.343 1_565 S
C1019 C1018 1.389 . S
C1019 C1025 1.363 . S
C1020 C1021 1.363 . S
C1020 C1025 1.379 . S
C1020 N1027 1.356 . S
C1021 C1020 1.363 . S
C1021 C1024 1.363 . S
N1022 C1024 1.356 1_545 S
N1022 H1034 0.984 . S
N1022 H1035 0.985 . S
N1023 C1025 1.356 . S
N1023 H1028 0.984 . S
N1023 H1029 0.985 . S
C1024 C1018 1.373 . S
C1024 C1021 1.363 . S
C1024 N1022 1.356 1_565 S
C1025 C1019 1.363 . S
C1025 C1020 1.379 . S
C1025 N1023 1.356 . S
N1026 C1018 1.343 1_545 S
N1026 H1032 0.984 . S
N1026 H1033 0.984 . S
N1027 C1020 1.356 . S
N1027 H1030 0.984 . S
N1027 H1031 0.985 . S
H1028 N1023 0.984 . S
H1029 N1023 0.985 . S
H1030 N1027 0.984 . S
H1031 N1027 0.985 . S
H1032 N1026 0.984 . S
H1033 N1026 0.984 . S
H1034 N1022 0.984 . S
H1035 N1022 0.985 . S
C1036 C1037 1.363 . S
C1036 C1042 1.379 . S
C1036 N1044 1.356 . S
C1037 C1036 1.363 . S
C1037 C1043 1.363 . S
C1038 C1039 1.363 . S
C1038 C1043 1.379 . S
C1038 N1045 1.356 . S
C1039 C1038 1.363 . S
C1039 C1042 1.363 . S
N1040 C1042 1.356 . S
N1040 H1052 0.984 . S
N1040 H1053 0.985 . S
N1041 C1043 1.356 . S
N1041 H1046 0.984 . S
N1041 H1047 0.985 . S
C1042 C1036 1.379 . S
C1042 C1039 1.363 . S
C1042 N1040 1.356 . S
C1043 C1037 1.363 . S
C1043 C1038 1.379 . S
C1043 N1041 1.356 . S
N1044 C1036 1.356 . S
N1044 H1050 0.984 . S
N1044 H1051 0.984 . S
N1045 C1038 1.356 . S
N1045 H1048 0.984 . S
N1045 H1049 0.985 . S
H1046 N1041 0.984 . S
H1047 N1041 0.985 . S
H1048 N1045 0.984 . S
H1049 N1045 0.985 . S
H1050 N1044 0.984 . S
H1051 N1044 0.984 . S
H1052 N1040 0.984 . S
H1053 N1040 0.985 . S
C1054 C1055 1.363 . S
C1054 C1060 1.379 . S
C1054 N1062 1.356 . S
C1055 C1054 1.363 . S
C1055 C1061 1.363 . S
C1056 C1057 1.363 . S
C1056 C1061 1.379 . S
C1056 N1063 1.356 . S
C1057 C1056 1.363 . S
C1057 C1060 1.363 . S
N1058 C1060 1.356 . S
N1058 H1070 0.984 . S
N1058 H1071 0.985 . S
N1059 C1061 1.356 . S
N1059 H1064 0.984 . S
N1059 H1065 0.985 . S
C1060 C1054 1.379 . S
C1060 C1057 1.363 . S
C1060 N1058 1.356 . S
C1061 C1055 1.363 . S
C1061 C1056 1.379 . S
C1061 N1059 1.356 . S
N1062 C1054 1.356 . S
N1062 H1068 0.984 . S
N1062 H1069 0.984 . S
N1063 C1056 1.356 . S
N1063 H1066 0.984 . S
N1063 H1067 0.985 . S
H1064 N1059 0.984 . S
H1065 N1059 0.985 . S
H1066 N1063 0.984 . S
H1067 N1063 0.985 . S
H1068 N1062 0.984 . S
H1069 N1062 0.984 . S
H1070 N1058 0.984 . S
H1071 N1058 0.985 . S
C641 C391 1.376 . S
C643 C489 1.345 . S
C661 C529 2.234 . S
C659 C451 2.495 . S
C679 C578 1.552 . S
C677 C241 1.548 . S
C697 C609 2.069 . S
C695 C331 1.937 . S
C715 C498 1.345 . S
C713 C121 1.385 . S
C731 C211 2.374 . S
C733 C538 2.235 1_554 S
C749 C31 1.548 . S
C751 C569 1.552 . S
C767 C91 2.078 . S
C769 C618 2.069 1_655 S
C787 C499 1.916 . S
C785 C301 1.293 . S
C805 C539 1.814 . S
C803 C380 1.699 . S
C823 C575 0.842 . S
C821 C440 0.843 . S
C839 C260 1.463 . S
C841 C619 1.899 . S
C857 C61 1.477 . S
C859 C490 1.916 1_655 S
C877 C530 1.814 . S
C875 C140 1.423 . S
C895 C566 0.842 . S
C893 C200 0.821 . S
C911 C20 1.759 . S
C913 C610 1.899 . S
C929 C320 2.068 . S
C931 C495 2.180 . S
C947 C361 1.649 . S
C949 C535 1.789 . S
C967 C579 3.154 . S
C965 C421 2.568 1_556 S
C985 C615 1.802 . S
C983 C271 1.809 . S
C1001 C80 2.133 . S
C1003 C486 2.179 . S
C1021 C526 1.789 . S
C1019 C151 1.796 . S
C1039 C570 3.154 . S
C1037 C181 2.481 . S
C1055 C1 1.691 . S
C1057 C606 1.802 . S
