# Generated by pormake.
# Topology zzz, (3,6)-cn, num edge types: 1
# Building blocks:
#     Node 0, Type 0, BuildingBlock: BELTOD_clean_linker_0, # of connection points: 3
#     Node 1, Type 0, BuildingBlock: BELTOD_clean_linker_0, # of connection points: 3
#     Node 2, Type 0, BuildingBlock: BELTOD_clean_linker_0, # of connection points: 3
#     Node 3, Type 0, BuildingBlock: BELTOD_clean_linker_0, # of connection points: 3
#     Node 4, Type 0, BuildingBlock: BELTOD_clean_linker_0, # of connection points: 3
#     Node 5, Type 0, BuildingBlock: BELTOD_clean_linker_0, # of connection points: 3
#     Node 6, Type 0, BuildingBlock: BELTOD_clean_linker_0, # of connection points: 3
#     Node 7, Type 0, BuildingBlock: BELTOD_clean_linker_0, # of connection points: 3
#     Node 8, Type 1, BuildingBlock: LEVNOQ01_clean_sbu_1, # of connection points: 6
#     Node 9, Type 1, BuildingBlock: LEVNOQ01_clean_sbu_1, # of connection points: 6
#     Node 10, Type 1, BuildingBlock: LEVNOQ01_clean_sbu_1, # of connection points: 6
#     Node 11, Type 1, BuildingBlock: LEVNOQ01_clean_sbu_1, # of connection points: 6
#     Edge 12, Type (0, 1), BuildingBlock: XUDNAN_clean_linker_2, # of connection points: 2
#     Edge 13, Type (0, 1), BuildingBlock: XUDNAN_clean_linker_2, # of connection points: 2
#     Edge 14, Type (0, 1), BuildingBlock: XUDNAN_clean_linker_2, # of connection points: 2
#     Edge 15, Type (0, 1), BuildingBlock: XUDNAN_clean_linker_2, # of connection points: 2
#     Edge 16, Type (0, 1), BuildingBlock: XUDNAN_clean_linker_2, # of connection points: 2
#     Edge 17, Type (0, 1), BuildingBlock: XUDNAN_clean_linker_2, # of connection points: 2
#     Edge 18, Type (0, 1), BuildingBlock: XUDNAN_clean_linker_2, # of connection points: 2
#     Edge 19, Type (0, 1), BuildingBlock: XUDNAN_clean_linker_2, # of connection points: 2
#     Edge 20, Type (0, 1), BuildingBlock: XUDNAN_clean_linker_2, # of connection points: 2
#     Edge 21, Type (0, 1), BuildingBlock: XUDNAN_clean_linker_2, # of connection points: 2
#     Edge 22, Type (0, 1), BuildingBlock: XUDNAN_clean_linker_2, # of connection points: 2
#     Edge 23, Type (0, 1), BuildingBlock: XUDNAN_clean_linker_2, # of connection points: 2
#     Edge 24, Type (0, 1), BuildingBlock: XUDNAN_clean_linker_2, # of connection points: 2
#     Edge 25, Type (0, 1), BuildingBlock: XUDNAN_clean_linker_2, # of connection points: 2
#     Edge 26, Type (0, 1), BuildingBlock: XUDNAN_clean_linker_2, # of connection points: 2
#     Edge 27, Type (0, 1), BuildingBlock: XUDNAN_clean_linker_2, # of connection points: 2
#     Edge 28, Type (0, 1), BuildingBlock: XUDNAN_clean_linker_2, # of connection points: 2
#     Edge 29, Type (0, 1), BuildingBlock: XUDNAN_clean_linker_2, # of connection points: 2
#     Edge 30, Type (0, 1), BuildingBlock: XUDNAN_clean_linker_2, # of connection points: 2
#     Edge 31, Type (0, 1), BuildingBlock: XUDNAN_clean_linker_2, # of connection points: 2
#     Edge 32, Type (0, 1), BuildingBlock: XUDNAN_clean_linker_2, # of connection points: 2
#     Edge 33, Type (0, 1), BuildingBlock: XUDNAN_clean_linker_2, # of connection points: 2
#     Edge 34, Type (0, 1), BuildingBlock: XUDNAN_clean_linker_2, # of connection points: 2
#     Edge 35, Type (0, 1), BuildingBlock: XUDNAN_clean_linker_2, # of connection points: 2
# Relax obj value: 0.282
# Max RMSD: 0.213
# Mean RMSD: 0.196
data_MOF--net-zzz--node1-LEVNOQ01_clean_sbu_1--node2-BELTOD_clean_linker_0--edge1-XUDNAN_clean_linker_2
_symmetry_space_group_name_H-M    P1
_symmetry_Int_Tables_number       1
_symmetry_cell_setting            triclinic
loop_
_symmetry_equiv_pos_as_xyz
'x, y, z'
_cell_length_a     51.335321
_cell_length_b     54.105103
_cell_length_c     19.38745
_cell_angle_alpha  90.032587
_cell_angle_beta   90.019323
_cell_angle_gamma 88.302889
loop_
_atom_site_label
_atom_site_type_symbol
_atom_site_fract_x
_atom_site_fract_y
_atom_site_fract_z
_atom_type_partial_charge
P0 P 0.7635 0.56712 0.14011 0.0
H1 H 0.76464 0.54795 0.28063 0.0
H2 H 0.79855 0.5512 0.36869 0.0
H3 H 0.83096 0.61225 0.25852 0.0
H4 H 0.7967 0.60995 0.17314 0.0
H5 H 0.7235 0.53584 0.0882 0.0
H6 H 0.68129 0.54505 0.03688 0.0
H7 H 0.68609 0.62132 0.09905 0.0
H8 H 0.72898 0.61191 0.15251 0.0
H9 H 0.80147 0.54359 0.04783 0.0
H10 H 0.76526 0.61607 0.07337 0.0
O11 O 0.76809 0.53642 0.14166 0.0
H12 H 0.83457 0.56112 0.97498 0.0
H13 H 0.79991 0.63399 0.00392 0.0
C14 C 0.77841 0.57808 0.21851 0.0
C15 C 0.77816 0.56289 0.27714 0.0
C16 C 0.79764 0.56466 0.32735 0.0
C17 C 0.81762 0.58161 0.31919 0.0
C18 C 0.81593 0.59881 0.26529 0.0
C19 C 0.79621 0.59733 0.21598 0.0
C20 C 0.72939 0.57316 0.12473 0.0
C21 C 0.71529 0.5544 0.09353 0.0
C22 C 0.69118 0.55967 0.06365 0.0
C23 C 0.68071 0.58387 0.0638 0.0
C24 C 0.69389 0.60251 0.09872 0.0
C25 C 0.71826 0.59713 0.12919 0.0
C26 C 0.78118 0.57857 0.06731 0.0
C27 C 0.80002 0.56312 0.03597 0.0
C28 C 0.81891 0.57317 0.99406 0.0
C29 C 0.81969 0.59887 0.98466 0.0
C30 C 0.79945 0.61412 0.01027 0.0
C31 C 0.77975 0.60382 0.04996 0.0
P32 P 0.03667 0.7556 0.16754 0.0
H33 H 0.05976 0.77355 0.2953 0.0
H34 H 0.04418 0.80477 0.37692 0.0
H35 H 0.96763 0.80352 0.28431 0.0
H36 H 0.98366 0.77259 0.20141 0.0
H37 H 0.05984 0.71842 0.07945 0.0
H38 H 0.04275 0.68098 0.02852 0.0
H39 H 0.97482 0.68767 0.15888 0.0
H40 H 0.99182 0.72579 0.20931 0.0
H41 H 0.04512 0.80699 0.14031 0.0
H42 H 0.00501 0.74749 0.04099 0.0
O43 O 0.06913 0.75586 0.1724 0.0
H44 H 0.02945 0.83535 0.0507 0.0
H45 H 0.99017 0.7759 0.94973 0.0
C46 C 0.02283 0.77054 0.2426 0.0
C47 C 0.03938 0.77926 0.29407 0.0
C48 C 0.0304 0.79723 0.34085 0.0
C49 C 0.00467 0.80686 0.33687 0.0
C50 C 0.98763 0.79673 0.28827 0.0
C51 C 0.99665 0.77873 0.24155 0.0
C52 C 0.02727 0.72465 0.14881 0.0
C53 C 0.04167 0.71148 0.09882 0.0
C54 C 0.03178 0.69029 0.06916 0.0
C55 C 0.00743 0.68179 0.08952 0.0
C56 C 0.99364 0.69406 0.14254 0.0
C57 C 0.00341 0.71565 0.17158 0.0
C58 C 0.02657 0.77513 0.09711 0.0
C59 C 0.03311 0.8 0.09912 0.0
C60 C 0.0239 0.81618 0.04858 0.0
C61 C 0.00825 0.80768 0.99473 0.0
C62 C 0.0019 0.78274 0.99168 0.0
C63 C 0.01072 0.76654 0.0434 0.0
P64 P 0.73112 0.93672 0.13439 0.0
H65 H 0.73887 0.95564 0.27312 0.0
H66 H 0.71179 0.95283 0.3762 0.0
H67 H 0.66803 0.89519 0.28043 0.0
H68 H 0.69535 0.89756 0.17846 0.0
H69 H 0.75845 0.9523 0.01571 0.0
H70 H 0.80174 0.94324 0.96961 0.0
H71 H 0.81902 0.89553 0.14296 0.0
H72 H 0.77462 0.90439 0.18929 0.0
H73 H 0.68644 0.95812 0.06287 0.0
H74 H 0.72946 0.88835 0.06651 0.0
O75 O 0.72802 0.96752 0.1326 0.0
H76 H 0.65321 0.93984 0.99172 0.0
H77 H 0.6951 0.86946 0.99666 0.0
C78 C 0.71916 0.92709 0.21738 0.0
C79 C 0.72419 0.94168 0.27525 0.0
C80 C 0.70851 0.94018 0.33398 0.0
C81 C 0.68744 0.9241 0.33567 0.0
C82 C 0.68379 0.90806 0.27995 0.0
C83 C 0.6997 0.90935 0.22161 0.0
C84 C 0.76362 0.92929 0.10628 0.0
C85 C 0.77142 0.9398 0.04396 0.0
C86 C 0.79599 0.93445 0.01726 0.0
C87 C 0.81335 0.91854 0.05251 0.0
C88 C 0.80564 0.90766 0.11485 0.0
C89 C 0.78059 0.91288 0.1415 0.0
C90 C 0.71033 0.92459 0.06949 0.0
C91 C 0.6891 0.93905 0.04676 0.0
C92 C 0.67016 0.92857 0.00622 0.0
C93 C 0.67185 0.90331 0.98916 0.0
C94 C 0.69368 0.88897 0.00904 0.0
C95 C 0.71314 0.89975 0.04855 0.0
P96 P 0.45126 0.7501 0.16341 0.0
H97 H 0.43163 0.73765 0.30025 0.0
H98 H 0.44798 0.70832 0.38698 0.0
H99 H 0.5197 0.69846 0.27261 0.0
H100 H 0.50354 0.72824 0.18683 0.0
H101 H 0.42909 0.78931 0.08 0.0
H102 H 0.4505 0.82293 0.02035 0.0
H103 H 0.5194 0.81017 0.14409 0.0
H104 H 0.49782 0.77668 0.20485 0.0
H105 H 0.43292 0.70383 0.109 0.0
H106 H 0.4929 0.75535 0.05949 0.0
O107 O 0.41885 0.75025 0.17044 0.0
H108 H 0.45431 0.67314 0.03375 0.0
H109 H 0.51445 0.72442 0.98642 0.0
C110 C 0.46614 0.73481 0.23654 0.0
C111 C 0.45115 0.72976 0.29479 0.0
C112 C 0.46047 0.7129 0.34408 0.0
C113 C 0.4849 0.70078 0.33566 0.0
C114 C 0.50083 0.70753 0.2804 0.0
C115 C 0.49151 0.72448 0.2312 0.0
C116 C 0.4618 0.78071 0.14715 0.0
C117 C 0.44828 0.79454 0.09687 0.0
C118 C 0.46061 0.81342 0.06214 0.0
C119 C 0.48656 0.81855 0.0774 0.0
C120 C 0.49937 0.80622 0.13172 0.0
C121 C 0.48692 0.78739 0.16691 0.0
C122 C 0.46116 0.73188 0.09009 0.0
C123 C 0.44998 0.70893 0.08004 0.0
C124 C 0.46223 0.69145 0.03744 0.0
C125 C 0.48595 0.6967 0.0054 0.0
C126 C 0.49611 0.72024 0.01076 0.0
C127 C 0.48365 0.73786 0.05269 0.0
P128 P 0.24397 0.372 0.27486 0.0
H129 H 0.23578 0.36341 0.12707 0.0
H130 H 0.20349 0.38025 0.04585 0.0
H131 H 0.1772 0.43322 0.19952 0.0
H132 H 0.21018 0.41684 0.27945 0.0
H133 H 0.28572 0.3516 0.35873 0.0
H134 H 0.32369 0.3697 0.4132 0.0
H135 H 0.30699 0.43848 0.30727 0.0
H136 H 0.26835 0.4204 0.25405 0.0
H137 H 0.19511 0.34807 0.301 0.0
H138 H 0.24603 0.39691 0.40998 0.0
O139 O 0.2493 0.34288 0.24882 0.0
H140 H 0.16052 0.3577 0.38483 0.0
H141 H 0.21173 0.40607 0.49322 0.0
C142 C 0.22538 0.38872 0.20955 0.0
C143 C 0.22354 0.37906 0.14271 0.0
C144 C 0.20476 0.38853 0.09656 0.0
C145 C 0.18728 0.40782 0.11638 0.0
C146 C 0.1903 0.41846 0.18212 0.0
C147 C 0.20924 0.40907 0.22805 0.0
C148 C 0.27462 0.38446 0.301 0.0
C149 C 0.29054 0.3704 0.34591 0.0
C150 C 0.31202 0.38082 0.37766 0.0
C151 C 0.31822 0.40543 0.36434 0.0
C152 C 0.30269 0.41937 0.31783 0.0
C153 C 0.28078 0.40903 0.28704 0.0
C154 C 0.22317 0.37165 0.34917 0.0
C155 C 0.19932 0.3598 0.34466 0.0
C156 C 0.17965 0.36521 0.39244 0.0
C157 C 0.18387 0.38237 0.44509 0.0
C158 C 0.20844 0.39246 0.45336 0.0
C159 C 0.228 0.38721 0.40545 0.0
P160 P 0.05036 0.24812 0.27589 0.0
H161 H 0.07442 0.23722 0.14323 0.0
H162 H 0.06284 0.20967 0.05047 0.0
H163 H 0.98713 0.20025 0.14323 0.0
H164 H 0.99945 0.22742 0.2378 0.0
H165 H 0.07906 0.28356 0.35308 0.0
H166 H 0.06623 0.32316 0.40419 0.0
H167 H 0.99409 0.32334 0.29017 0.0
H168 H 0.00705 0.2831 0.23847 0.0
H169 H 0.067 0.20354 0.34954 0.0
H170 H 0.00255 0.25662 0.3567 0.0
O171 O 0.0826 0.24298 0.2775 0.0
H172 H 0.0437 0.17673 0.4282 0.0
H173 H 0.97911 0.22955 0.4339 0.0
C174 C 0.03801 0.2343 0.19799 0.0
C175 C 0.05509 0.22974 0.14297 0.0
C176 C 0.0483 0.21389 0.08946 0.0
C177 C 0.02399 0.20239 0.08897 0.0
C178 C 0.00619 0.20829 0.14223 0.0
C179 C 0.01313 0.22414 0.19614 0.0
C180 C 0.04421 0.28056 0.29108 0.0
C181 C 0.06092 0.29245 0.33667 0.0
C182 C 0.0535 0.31497 0.36647 0.0
C183 C 0.0292 0.32607 0.35127 0.0
C184 C 0.01304 0.3151 0.30212 0.0
C185 C 0.0205 0.2923 0.27225 0.0
C186 C 0.0366 0.2321 0.34741 0.0
C187 C 0.04833 0.20987 0.36992 0.0
C188 C 0.03509 0.19465 0.41506 0.0
C189 C 0.00977 0.20133 0.43682 0.0
C190 C 0.99874 0.22429 0.418 0.0
C191 C 0.01217 0.23969 0.37378 0.0
P192 P 0.26285 0.13765 0.28326 0.0
H193 H 0.26416 0.14234 0.13278 0.0
H194 H 0.29312 0.12439 0.0447 0.0
H195 H 0.33094 0.07844 0.19915 0.0
H196 H 0.30156 0.09604 0.28688 0.0
H197 H 0.21664 0.16093 0.34276 0.0
H198 H 0.18006 0.14453 0.4062 0.0
H199 H 0.20644 0.07019 0.35528 0.0
H200 H 0.24307 0.08694 0.29041 0.0
H201 H 0.31144 0.16231 0.30532 0.0
H202 H 0.2629 0.11294 0.41936 0.0
O203 O 0.25748 0.16665 0.25637 0.0
H204 H 0.34908 0.14817 0.37305 0.0
H205 H 0.30036 0.09876 0.48618 0.0
C206 C 0.28062 0.12071 0.21662 0.0
C207 C 0.27835 0.12812 0.14763 0.0
C208 C 0.29511 0.11797 0.0974 0.0
C209 C 0.31465 0.10025 0.11511 0.0
C210 C 0.31648 0.09239 0.18406 0.0
C211 C 0.29942 0.10229 0.23412 0.0
C212 C 0.23235 0.12519 0.31084 0.0
C213 C 0.21412 0.14112 0.34314 0.0
C214 C 0.19338 0.13169 0.38032 0.0
C215 C 0.19054 0.10604 0.38677 0.0
C216 C 0.208 0.09005 0.35103 0.0
C217 C 0.22887 0.09958 0.31361 0.0
C218 C 0.28455 0.13823 0.35586 0.0
C219 C 0.30853 0.14952 0.3474 0.0
C220 C 0.33004 0.14137 0.38591 0.0
C221 C 0.32761 0.12192 0.43318 0.0
C222 C 0.30273 0.11368 0.44966 0.0
C223 C 0.28125 0.12173 0.41085 0.0
P224 P 0.46003 0.25996 0.27459 0.0
H225 H 0.43892 0.26553 0.13676 0.0
H226 H 0.45033 0.2921 0.04142 0.0
H227 H 0.52156 0.31069 0.14629 0.0
H228 H 0.50945 0.28454 0.24269 0.0
H229 H 0.42792 0.22207 0.3302 0.0
H230 H 0.43877 0.18114 0.37524 0.0
H231 H 0.51681 0.18582 0.29494 0.0
H232 H 0.50546 0.22687 0.24622 0.0
H233 H 0.44231 0.30279 0.3538 0.0
H234 H 0.50841 0.25149 0.35438 0.0
O235 O 0.42787 0.26558 0.27459 0.0
H236 H 0.46519 0.32945 0.43332 0.0
H237 H 0.53151 0.27857 0.43219 0.0
C238 C 0.47296 0.27342 0.19747 0.0
C239 C 0.45727 0.27489 0.13862 0.0
C240 C 0.46397 0.2901 0.08377 0.0
C241 C 0.48675 0.30398 0.08628 0.0
C242 C 0.50356 0.30082 0.1432 0.0
C243 C 0.49671 0.28564 0.19833 0.0
C244 C 0.46582 0.22738 0.28441 0.0
C245 C 0.44699 0.21395 0.31907 0.0
C246 C 0.4532 0.19062 0.34514 0.0
C247 C 0.47848 0.1806 0.33811 0.0
C248 C 0.49709 0.19329 0.30004 0.0
C249 C 0.49059 0.21656 0.2722 0.0
C250 C 0.47356 0.27513 0.34803 0.0
C251 C 0.46126 0.29674 0.37296 0.0
C252 C 0.47429 0.31189 0.41863 0.0
C253 C 0.49998 0.30583 0.43853 0.0
C254 C 0.5116 0.28334 0.41774 0.0
C255 C 0.49833 0.26793 0.37309 0.0
O256 O 0.05255 0.97673 0.82264 0.0
Mg257 Mg 0.04923 0.97882 0.71486 0.0
O258 O 0.01116 0.97553 0.80084 0.0
Mg259 Mg 0.00036 0.00431 0.71679 0.0
O260 O 0.04261 0.01366 0.67555 0.0
O261 O 0.08074 0.99201 0.66725 0.0
O262 O 0.98826 0.0326 0.63372 0.0
O263 O 0.00409 0.03725 0.79325 0.0
Mg264 Mg 0.94625 0.02965 0.72622 0.0
O265 O 0.95896 -0.00457 0.75635 0.0
O266 O 0.94596 0.03428 0.61843 0.0
O267 O 0.96506 0.05635 0.78902 0.0
O268 O 0.91768 0.00921 0.76813 0.0
C269 C 0.00939 0.95231 0.63094 0.0
C270 C 0.03057 0.96832 0.83693 0.0
C271 C 0.06706 0.01205 0.65701 0.0
C272 C 0.96843 0.04027 0.59971 0.0
C273 C 0.98845 0.05502 0.81068 0.0
C274 C 0.93525 0.99194 0.77666 0.0
O275 O 0.03111 0.94947 0.66151 0.0
O276 O 0.99579 0.97227 0.63817 0.0
O277 O 0.43368 0.99045 0.79936 0.0
Mg278 Mg 0.44856 0.96427 0.72561 0.0
O279 O 0.46555 0.01763 0.80589 0.0
Mg280 Mg 0.49889 0.00194 0.73044 0.0
O281 O 0.48698 0.96294 0.74596 0.0
O282 O 0.46423 0.9293 0.75352 0.0
O283 O 0.53207 0.98655 0.65388 0.0
O284 O 0.52671 0.99375 0.8183 0.0
Mg285 Mg 0.5498 0.03663 0.74123 0.0
O286 O 0.51172 0.04154 0.71583 0.0
O287 O 0.56425 0.01333 0.66074 0.0
O288 O 0.55668 0.02098 0.84035 0.0
O289 O 0.53827 0.073 0.72024 0.0
C290 C 0.45225 -0.00178 0.60706 0.0
C291 C 0.44269 0.01056 0.82243 0.0
C292 C 0.48611 0.93993 0.76208 0.0
C293 C 0.55469 0.9938 0.63569 0.0
C294 C 0.54561 0.00096 0.85439 0.0
C295 C 0.516 0.06451 0.70262 0.0
O296 O 0.44326 0.97744 0.62354 0.0
O297 O 0.47 0.00827 0.64229 0.0
O298 O 0.53737 0.45117 0.78558 0.0
Mg299 Mg 0.55492 0.47799 0.72043 0.0
O300 O 0.49783 0.4691 0.78894 0.0
Mg301 Mg 0.49942 0.50327 0.71763 0.0
O302 O 0.54163 0.51206 0.749 0.0
O303 O 0.58339 0.49989 0.75754 0.0
O304 O 0.50036 0.53753 0.64613 0.0
O305 O 0.49024 0.52852 0.80773 0.0
Mg306 Mg 0.44378 0.52959 0.72316 0.0
O307 O 0.45665 0.49574 0.68807 0.0
O308 O 0.46081 0.55547 0.65441 0.0
O309 O 0.44897 0.53622 0.82976 0.0
O310 O 0.41461 0.50732 0.68885 0.0
C311 C 0.52968 0.4696 0.59276 0.0
C312 C 0.51393 0.45189 0.80688 0.0
C313 C 0.56539 0.51675 0.76636 0.0
C314 C 0.48393 0.55482 0.63045 0.0
C315 C 0.47268 0.53795 0.84615 0.0
C316 C 0.43269 0.49146 0.6714 0.0
O317 O 0.55232 0.47454 0.61279 0.0
O318 O 0.50987 0.47704 0.62743 0.0
O319 O 0.94484 0.49067 0.85518 0.0
Mg320 Mg 0.94315 0.47437 0.75483 0.0
O321 O 0.97377 0.51675 0.8167 0.0
Mg322 Mg 1.00005 0.50261 0.73098 0.0
O323 O 0.98025 0.46668 0.72561 0.0
O324 O 0.95242 0.43703 0.72378 0.0
O325 O 0.02684 0.4887 0.64771 0.0
O326 O 0.03117 0.48657 0.80816 0.0
Mg327 Mg 0.05657 0.53327 0.71101 0.0
O328 O 0.01886 0.53874 0.73467 0.0
O329 O 0.05716 0.5143 0.61356 0.0
O330 O 0.06759 0.508 0.79335 0.0
O331 O 0.04397 0.57042 0.73709 0.0
C332 C 0.94556 0.516 0.6415 0.0
C333 C 0.95639 0.51106 0.85993 0.0
C334 C 0.97495 0.44471 0.70625 0.0
C335 C 0.04588 0.49371 0.60893 0.0
C336 C 0.05499 0.49095 0.82297 0.0
C337 C 0.02182 0.56132 0.75207 0.0
O338 O 0.93173 0.50125 0.67646 0.0
O339 O 0.97003 0.51809 0.65181 0.0
H340 H 0.1578 0.06694 0.36733 0.0
H341 H 0.17902 0.12269 0.51654 0.0
H342 H 0.14624 0.10729 0.59752 0.0
H343 H 0.08807 0.06832 0.40747 0.0
H344 H 0.08507 0.03545 0.39659 0.0
H345 H 0.10914 0.05168 0.34803 0.0
H346 H 0.14561 0.02218 0.39554 0.0
H347 H 0.12161 0.00569 0.44322 0.0
H348 H 0.14909 0.01832 0.4875 0.0
H349 H 0.11166 0.08535 0.66387 0.0
H350 H 0.08119 0.05552 0.71428 0.0
H351 H 0.08363 0.01329 0.52454 0.0
C352 C 0.15549 0.07593 0.41696 0.0
C353 C 0.1707 0.09632 0.435 0.0
C354 C 0.16714 0.10747 0.50072 0.0
C355 C 0.1486 0.09882 0.54724 0.0
C356 C 0.13363 0.07899 0.52746 0.0
C357 C 0.13699 0.06754 0.46412 0.0
C358 C 0.11911 0.0459 0.45683 0.0
C359 C 0.09917 0.05063 0.39877 0.0
C360 C 0.1348 0.02159 0.44513 0.0
C361 C 0.10593 0.04644 0.52679 0.0
C362 C 0.1141 0.06603 0.56622 0.0
C363 C 0.10493 0.07008 0.63323 0.0
C364 C 0.08749 0.05325 0.66126 0.0
C365 C 0.07981 0.03259 0.62254 0.0
C366 C 0.08887 0.02934 0.55436 0.0
H367 H 0.50061 0.18101 0.46414 0.0
H368 H 0.46961 0.13247 0.30869 0.0
H369 H 0.47008 0.09803 0.39315 0.0
H370 H 0.54315 0.13544 0.55111 0.0
H371 H 0.53623 0.14857 0.63483 0.0
H372 H 0.5349 0.16793 0.55948 0.0
H373 H 0.4878 0.18147 0.59388 0.0
H374 H 0.48848 0.16089 0.66694 0.0
H375 H 0.46331 0.15849 0.60265 0.0
H376 H 0.47233 0.06984 0.49516 0.0
H377 H 0.48572 0.04706 0.59929 0.0
H378 H 0.5127 0.1146 0.69113 0.0
C379 C 0.49479 0.16285 0.44759 0.0
C380 C 0.48555 0.15895 0.38014 0.0
C381 C 0.47721 0.13539 0.36009 0.0
C382 C 0.47704 0.11597 0.40789 0.0
C383 C 0.48493 0.12073 0.47531 0.0
C384 C 0.49425 0.14341 0.49478 0.0
C385 C 0.50166 0.1437 0.57031 0.0
C386 C 0.53071 0.14922 0.57942 0.0
C387 C 0.48427 0.16224 0.61082 0.0
C388 C 0.49589 0.11734 0.58974 0.0
C389 C 0.48561 0.10462 0.53468 0.0
C390 C 0.48014 0.07963 0.53887 0.0
C391 C 0.48727 0.06684 0.59907 0.0
C392 C 0.49974 0.07906 0.65389 0.0
C393 C 0.5028 0.10487 0.6504 0.0
H394 H 0.32653 0.40826 0.50342 0.0
H395 H 0.35971 0.42807 0.30632 0.0
H396 H 0.3974 0.44596 0.3664 0.0
H397 H 0.34173 0.46325 0.58813 0.0
H398 H 0.34857 0.44892 0.67036 0.0
H399 H 0.32644 0.43485 0.61134 0.0
H400 H 0.35438 0.39418 0.6166 0.0
H401 H 0.37691 0.40842 0.67472 0.0
H402 H 0.38855 0.39466 0.59544 0.0
H403 H 0.43098 0.46242 0.44817 0.0
H404 H 0.45262 0.48419 0.54369 0.0
H405 H 0.39541 0.45713 0.68687 0.0
C406 C 0.34199 0.41604 0.47307 0.0
C407 C 0.34055 0.4165 0.40028 0.0
C408 C 0.36065 0.42744 0.36211 0.0
C409 C 0.3822 0.43738 0.39578 0.0
C410 C 0.38322 0.43642 0.46768 0.0
C411 C 0.36336 0.42647 0.50593 0.0
C412 C 0.36762 0.4303 0.58255 0.0
C413 C 0.34474 0.44523 0.61495 0.0
C414 C 0.37213 0.4054 0.61949 0.0
C415 C 0.39239 0.44487 0.58129 0.0
C416 C 0.40168 0.44729 0.51476 0.0
C417 C 0.42399 0.46048 0.50049 0.0
C418 C 0.43636 0.47255 0.5551 0.0
C419 C 0.42588 0.47191 0.62247 0.0
C420 C 0.40409 0.45735 0.63596 0.0
H421 H 0.01868 0.32635 0.48799 0.0
H422 H 0.02012 0.37382 0.30836 0.0
H423 H 0.01054 0.41039 0.38292 0.0
H424 H 0.96515 0.35819 0.57405 0.0
H425 H 0.97877 0.35307 0.65874 0.0
H426 H 0.98602 0.33144 0.59037 0.0
H427 H 0.03537 0.33723 0.61134 0.0
H428 H 0.02823 0.35945 0.67849 0.0
H429 H 0.04838 0.36777 0.60651 0.0
H430 H 0.00286 0.44171 0.47908 0.0
H431 H 0.98899 0.46446 0.58408 0.0
H432 H 0.99041 0.39596 0.69962 0.0
C433 C 0.01674 0.34448 0.4645 0.0
C434 C 0.0202 0.34753 0.39285 0.0
C435 C 0.01744 0.37132 0.3633 0.0
C436 C 0.01227 0.3921 0.40531 0.0
C437 C 0.00973 0.38857 0.47638 0.0
C438 C 0.01127 0.36526 0.50542 0.0
C439 C 0.00669 0.36621 0.58254 0.0
C440 C 0.98273 0.35136 0.60257 0.0
C441 C 0.03112 0.35712 0.62204 0.0
C442 C 0.00183 0.39371 0.59253 0.0
C443 C 0.0044 0.40637 0.53101 0.0
C444 C 0.00085 0.43197 0.52743 0.0
C445 C 0.99338 0.4448 0.58757 0.0
C446 C 0.98931 0.43199 0.65011 0.0
C447 C 0.99394 0.40619 0.65271 0.0
H448 H 0.85209 0.94868 0.0811 0.0
H449 H 0.83217 0.88589 0.95617 0.0
H450 H 0.87021 0.89301 0.88088 0.0
H451 H 0.86128 0.98508 0.94764 0.0
H452 H 0.88701 0.00305 0.98347 0.0
H453 H 0.86444 0.98846 0.03975 0.0
H454 H 0.90246 0.96531 0.10299 0.0
H455 H 0.92534 0.98033 0.04761 0.0
H456 H 0.92588 0.94707 0.05393 0.0
H457 H 0.90292 0.9134 0.80391 0.0
H458 H 0.92742 0.94411 0.7365 0.0
H459 H 0.92469 0.99398 0.91074 0.0
C460 C 0.85694 0.93547 0.04073 0.0
C461 C 0.84007 0.9162 0.02569 0.0
C462 C 0.84564 0.90015 0.96974 0.0
C463 C 0.86707 0.90422 0.92653 0.0
C464 C 0.8825 0.92449 0.94005 0.0
C465 C 0.87783 0.93967 0.99661 0.0
C466 C 0.89349 0.96284 0.99297 0.0
C467 C 0.87549 0.9862 0.99079 0.0
C468 C 0.91296 0.96393 0.05295 0.0
C469 C 0.90728 0.95873 0.92502 0.0
C470 C 0.90092 0.93649 0.8951 0.0
C471 C 0.90866 0.93048 0.82781 0.0
C472 C 0.92273 0.94785 0.79004 0.0
C473 C 0.92849 0.97088 0.81974 0.0
C474 C 0.92135 0.97599 0.88836 0.0
H475 H 0.48726 0.86817 0.0871 0.0
H476 H 0.51485 0.8062 0.96388 0.0
H477 H 0.53168 0.83498 0.87623 0.0
H478 H 0.46165 0.90153 0.95507 0.0
H479 H 0.46953 0.93122 0.99064 0.0
H480 H 0.46569 0.90535 0.0468 0.0
H481 H 0.51054 0.9135 0.09567 0.0
H482 H 0.51747 0.93768 0.03511 0.0
H483 H 0.53891 0.91046 0.04227 0.0
H484 H 0.53423 0.86889 0.79192 0.0
H485 H 0.51926 0.90335 0.71745 0.0
H486 H 0.49456 0.94506 0.8968 0.0
C487 C 0.49787 0.86088 0.04291 0.0
C488 C 0.50057 0.83531 0.03239 0.0
C489 C 0.51344 0.82595 0.97308 0.0
C490 C 0.52305 0.84215 0.92336 0.0
C491 C 0.51973 0.86756 0.93437 0.0
C492 C 0.50734 0.87677 0.99277 0.0
C493 C 0.50241 0.9043 0.98814 0.0
C494 C 0.4731 0.91095 0.99549 0.0
C495 C 0.51833 0.91736 0.04341 0.0
C496 C 0.5123 0.90918 0.91574 0.0
C497 C 0.52272 0.88774 0.88598 0.0
C498 C 0.52724 0.88604 0.81506 0.0
C499 C 0.51888 0.90578 0.77292 0.0
C500 C 0.50653 0.92695 0.80203 0.0
C501 C 0.50517 0.92945 0.87425 0.0
H502 H 0.6795 0.58236 0.92599 0.0
H503 H 0.63051 0.59432 0.1047 0.0
H504 H 0.59125 0.58945 0.03203 0.0
H505 H 0.63131 0.60733 0.78655 0.0
H506 H 0.64184 0.58269 0.72948 0.0
H507 H 0.66471 0.59604 0.7884 0.0
H508 H 0.67583 0.5525 0.83769 0.0
H509 H 0.65312 0.53911 0.77968 0.0
H510 H 0.64996 0.53413 0.87119 0.0
H511 H 0.55964 0.57134 0.94993 0.0
H512 H 0.53939 0.54203 0.86901 0.0
H513 H 0.609 0.54146 0.74381 0.0
C514 C 0.66037 0.58541 0.94858 0.0
C515 C 0.65775 0.58923 0.02009 0.0
C516 C 0.6327 0.59204 0.04948 0.0
C517 C 0.61037 0.58925 0.00847 0.0
C518 C 0.61359 0.58381 0.93838 0.0
C519 C 0.63811 0.58231 0.90851 0.0
C520 C 0.63719 0.5713 0.83687 0.0
C521 C 0.64417 0.5905 0.78209 0.0
C522 C 0.65504 0.54789 0.83115 0.0
C523 C 0.60872 0.56514 0.83277 0.0
C524 C 0.59514 0.57314 0.89069 0.0
C525 C 0.56963 0.56592 0.90301 0.0
C526 C 0.55821 0.54936 0.85677 0.0
C527 C 0.57259 0.53994 0.8 0.0
C528 C 0.59749 0.54895 0.78619 0.0
H529 H 0.99368 0.68108 0.95519 0.0
H530 H 0.99833 0.63559 0.13832 0.0
H531 H 0.98998 0.59849 0.06774 0.0
H532 H 0.9438 0.63957 0.85921 0.0
H533 H 0.95925 0.64579 0.7778 0.0
H534 H 0.95734 0.66939 0.84355 0.0
H535 H 0.0073 0.67383 0.83952 0.0
H536 H 0.0096 0.65069 0.7736 0.0
H537 H 0.02823 0.64682 0.85195 0.0
H538 H 0.99467 0.56688 0.97745 0.0
H539 H 0.0094 0.543 0.87615 0.0
H540 H 0.00115 0.60835 0.74905 0.0
C541 C 0.99167 0.66337 0.98038 0.0
C542 C 0.99632 0.66095 0.05176 0.0
C543 C 0.99432 0.63767 0.08373 0.0
C544 C 0.98953 0.61659 0.04398 0.0
C545 C 0.9863 0.61933 0.97277 0.0
C546 C 0.98668 0.64228 0.9414 0.0
C547 C 0.98651 0.63994 0.86348 0.0
C548 C 0.96016 0.64922 0.83426 0.0
C549 C 0.00928 0.6536 0.8303 0.0
C550 C 0.98961 0.61214 0.85587 0.0
C551 C 0.98818 0.60055 0.91943 0.0
C552 C 0.99439 0.57547 0.92707 0.0
C553 C 0.00259 0.56196 0.86901 0.0
C554 C 0.0052 0.57364 0.80433 0.0
C555 C 0.99807 0.59887 0.79739 0.0
H556 H 0.01745 0.17559 0.556 0.0
H557 H 0.96702 0.18294 0.37769 0.0
H558 H 0.94794 0.1427 0.40415 0.0
H559 H 0.0354 0.11768 0.54277 0.0
H560 H 0.03341 0.10812 0.63165 0.0
H561 H 0.03835 0.13999 0.61135 0.0
H562 H 0.99787 0.15315 0.68222 0.0
H563 H 0.99198 0.12138 0.70349 0.0
H564 H 0.96679 0.14006 0.66321 0.0
H565 H 0.94088 0.09858 0.43647 0.0
H566 H 0.94185 0.05587 0.48389 0.0
H567 H 0.9979 0.07793 0.63792 0.0
C568 C 0.00149 0.16917 0.52487 0.0
C569 C 0.99341 0.18214 0.46544 0.0
C570 C 0.97295 0.17326 0.42429 0.0
C571 C 0.96214 0.15042 0.43867 0.0
C572 C 0.97166 0.1372 0.49525 0.0
C573 C 0.9902 0.14663 0.53929 0.0
C574 C 0.99843 0.12798 0.59353 0.0
C575 C 0.02815 0.12317 0.59475 0.0
C576 C 0.98817 0.13615 0.66481 0.0
C577 C 0.98416 0.10584 0.56775 0.0
C578 C 0.96805 0.11163 0.51275 0.0
C579 C 0.95314 0.09386 0.4802 0.0
C580 C 0.95409 0.06969 0.50649 0.0
C581 C 0.97049 0.06365 0.56288 0.0
C582 C 0.98584 0.0819 0.59314 0.0
H583 H 0.34372 0.10399 0.55977 0.0
H584 H 0.36146 0.10215 0.34095 0.0
H585 H 0.39538 0.06988 0.36109 0.0
H586 H 0.4121 0.09367 0.61792 0.0
H587 H 0.40261 0.0749 0.68995 0.0
H588 H 0.3809 0.09916 0.65877 0.0
H589 H 0.34471 0.06715 0.64381 0.0
H590 H 0.3666 0.04285 0.67362 0.0
H591 H 0.35089 0.04019 0.5909 0.0
H592 H 0.42521 0.03603 0.40249 0.0
H593 H 0.45218 0.00481 0.46686 0.0
H594 H 0.41581 0.02912 0.65774 0.0
C595 C 0.35525 0.09716 0.51663 0.0
C596 C 0.35049 0.10587 0.44912 0.0
C597 C 0.36545 0.09622 0.39338 0.0
C598 C 0.38453 0.07771 0.40411 0.0
C599 C 0.38856 0.06922 0.47094 0.0
C600 C 0.37471 0.07885 0.52657 0.0
C601 C 0.3829 0.0662 0.59304 0.0
C602 C 0.39538 0.08458 0.64283 0.0
C603 C 0.3599 0.05333 0.62729 0.0
C604 C 0.40292 0.04766 0.56538 0.0
C605 C 0.40592 0.04967 0.49489 0.0
C606 C 0.42323 0.03431 0.45782 0.0
C607 C 0.4383 0.01665 0.49426 0.0
C608 C 0.43567 0.01479 0.56631 0.0
C609 C 0.41779 0.03031 0.60219 0.0
H610 H 0.49219 0.33081 0.55842 0.0
H611 H 0.54139 0.32602 0.37733 0.0
H612 H 0.55684 0.36803 0.39991 0.0
H613 H 0.46827 0.3862 0.54311 0.0
H614 H 0.47032 0.39709 0.6308 0.0
H615 H 0.46869 0.36457 0.61394 0.0
H616 H 0.51061 0.35664 0.68257 0.0
H617 H 0.51486 0.38908 0.69882 0.0
H618 H 0.5403 0.37122 0.65759 0.0
H619 H 0.55947 0.41318 0.42819 0.0
H620 H 0.55502 0.45608 0.47355 0.0
H621 H 0.50229 0.43077 0.63138 0.0
C622 C 0.50728 0.33821 0.52601 0.0
C623 C 0.51583 0.32547 0.46669 0.0
C624 C 0.53511 0.33556 0.42386 0.0
C625 C 0.5438 0.35943 0.43592 0.0
C626 C 0.53337 0.37246 0.49183 0.0
C627 C 0.51632 0.36185 0.5378 0.0
C628 C 0.50669 0.38026 0.59103 0.0
C629 C 0.47672 0.38213 0.59481 0.0
C630 C 0.51879 0.3739 0.66167 0.0
C631 C 0.518 0.40345 0.56203 0.0
C632 C 0.53423 0.39854 0.50666 0.0
C633 C 0.547 0.41726 0.47198 0.0
C634 C 0.54398 0.44152 0.49691 0.0
C635 C 0.52759 0.44666 0.55399 0.0
C636 C 0.51409 0.42746 0.58578 0.0
H637 H 0.15904 0.42361 0.40161 0.0
H638 H 0.15933 0.3685 0.56366 0.0
H639 H 0.12106 0.39002 0.61787 0.0
H640 H 0.14345 0.47566 0.50661 0.0
H641 H 0.12296 0.4908 0.44293 0.0
H642 H 0.14924 0.47027 0.41603 0.0
H643 H 0.11654 0.44451 0.34593 0.0
H644 H 0.09014 0.46492 0.3733 0.0
H645 H 0.08863 0.43216 0.38886 0.0
H646 H 0.08288 0.41656 0.65087 0.0
H647 H 0.05071 0.4498 0.67352 0.0
H648 H 0.07707 0.48972 0.49328 0.0
C649 C 0.15083 0.41612 0.44838 0.0
C650 C 0.16151 0.39447 0.47874 0.0
C651 C 0.15089 0.38499 0.53995 0.0
C652 C 0.12927 0.39702 0.5706 0.0
C653 C 0.11887 0.41824 0.53871 0.0
C654 C 0.12946 0.42789 0.47949 0.0
C655 C 0.11534 0.4515 0.45724 0.0
C656 C 0.13385 0.47335 0.45568 0.0
C657 C 0.10187 0.44806 0.38716 0.0
C658 C 0.09555 0.45411 0.51452 0.0
C659 C 0.0975 0.43429 0.55962 0.0
C660 C 0.08111 0.43212 0.61593 0.0
C661 C 0.0627 0.45105 0.62772 0.0
C662 C 0.06122 0.47221 0.58431 0.0
C663 C 0.07765 0.47363 0.52653 0.0
H664 H 0.97593 0.84781 0.00358 0.0
H665 H 0.02805 0.80738 0.86615 0.0
H666 H 0.03591 0.84562 0.80172 0.0
H667 H 0.95385 0.89893 0.86458 0.0
H668 H 0.95274 0.92157 0.93297 0.0
H669 H 0.94303 0.89037 0.94953 0.0
H670 H 0.97592 0.88867 0.05008 0.0
H671 H 0.98706 0.91906 0.03128 0.0
H672 H 0.01001 0.89318 0.03306 0.0
H673 H 0.05144 0.8874 0.7867 0.0
H674 H 0.06119 0.93155 0.7864 0.0
H675 H 0.99673 0.94663 0.92647 0.0
C676 C 0.9873 0.84686 0.95656 0.0
C677 C 0.00145 0.82501 0.93925 0.0
C678 C 0.0169 0.82405 0.87915 0.0
C679 C 0.02165 0.84574 0.84283 0.0
C680 C 0.01012 0.86776 0.86667 0.0
C681 C 0.992 0.8684 0.91955 0.0
C682 C 0.98515 0.89478 0.94089 0.0
C683 C 0.957 0.9018 0.92074 0.0
C684 C 0.98985 0.89914 0.0184 0.0
C685 C 0.00429 0.90855 0.89726 0.0
C686 C 0.01844 0.89257 0.85492 0.0
C687 C 0.03972 0.90027 0.81716 0.0
C688 C 0.04554 0.92528 0.8189 0.0
C689 C 0.0298 0.94235 0.85698 0.0
C690 C 0.00914 0.93385 0.89746 0.0
H691 H 0.65797 0.90299 0.85517 0.0
H692 H 0.63264 0.88254 0.05854 0.0
H693 H 0.58992 0.90249 0.03748 0.0
H694 H 0.64328 0.95527 0.85358 0.0
H695 H 0.62872 0.96231 0.7713 0.0
H696 H 0.65027 0.93592 0.77955 0.0
H697 H 0.61643 0.90623 0.73609 0.0
H698 H 0.59327 0.93148 0.72279 0.0
H699 H 0.58458 0.90564 0.7751 0.0
H700 H 0.56525 0.94202 0.02246 0.0
H701 H 0.54193 0.98046 0.9839 0.0
H702 H 0.58347 0.97596 0.79045 0.0
C703 C 0.64241 0.90058 0.89204 0.0
C704 C 0.64853 0.89259 0.95927 0.0
C705 C 0.62819 0.88921 0.00704 0.0
C706 C 0.60396 0.901 0.99595 0.0
C707 C 0.60028 0.91405 0.93466 0.0
C708 C 0.6181 0.91226 0.88085 0.0
C709 C 0.61147 0.93095 0.82491 0.0
C710 C 0.63481 0.94703 0.80638 0.0
C711 C 0.60083 0.9178 0.76094 0.0
C712 C 0.59013 0.94585 0.8608 0.0
C713 C 0.58363 0.93569 0.92346 0.0
C714 C 0.56774 0.94865 0.97051 0.0
C715 C 0.55562 0.97101 0.94975 0.0
C716 C 0.56129 0.98091 0.88465 0.0
C717 C 0.57903 0.96846 0.84049 0.0
H718 H 0.48536 0.67944 0.8749 0.0
H719 H 0.51863 0.66694 0.07686 0.0
H720 H 0.52701 0.62309 0.04866 0.0
H721 H 0.44942 0.63683 0.86419 0.0
H722 H 0.4536 0.62482 0.77798 0.0
H723 H 0.46166 0.65609 0.79614 0.0
H724 H 0.50878 0.64882 0.75238 0.0
H725 H 0.50058 0.61763 0.72996 0.0
H726 H 0.52818 0.62305 0.78479 0.0
H727 H 0.51547 0.58063 0.01869 0.0
H728 H 0.49574 0.5424 0.97355 0.0
H729 H 0.46918 0.58267 0.79267 0.0
C730 C 0.49629 0.66771 0.91047 0.0
C731 C 0.50155 0.67607 0.97739 0.0
C732 C 0.51493 0.66056 0.02486 0.0
C733 C 0.5197 0.63565 0.00928 0.0
C734 C 0.5115 0.62701 0.94548 0.0
C735 C 0.50143 0.64282 0.89492 0.0
C736 C 0.49015 0.62844 0.83559 0.0
C737 C 0.46205 0.63706 0.81763 0.0
C738 C 0.50799 0.62955 0.77195 0.0
C739 C 0.49116 0.60289 0.86658 0.0
C740 C 0.50456 0.6021 0.92831 0.0
C741 C 0.50568 0.58081 0.96924 0.0
C742 C 0.49393 0.55945 0.94449 0.0
C743 C 0.48035 0.56023 0.88134 0.0
C744 C 0.47895 0.5821 0.84225 0.0
H745 H 0.83946 0.60052 0.856 0.0
H746 H 0.85638 0.61586 0.06925 0.0
H747 H 0.90193 0.60249 0.05188 0.0
H748 H 0.86142 0.55124 0.84067 0.0
H749 H 0.87894 0.54965 0.76029 0.0
H750 H 0.85396 0.5729 0.77201 0.0
H751 H 0.88519 0.6086 0.7486 0.0
H752 H 0.91003 0.58527 0.72934 0.0
H753 H 0.91621 0.609 0.79189 0.0
H754 H 0.93433 0.56909 0.03011 0.0
H755 H 0.95822 0.5309 0.99116 0.0
H756 H 0.92232 0.53846 0.7902 0.0
C757 C 0.85354 0.60333 0.89663 0.0
C758 C 0.84476 0.60878 0.9637 0.0
C759 C 0.86303 0.61182 0.01727 0.0
C760 C 0.88897 0.60396 0.00795 0.0
C761 C 0.89628 0.59441 0.94385 0.0
C762 C 0.87961 0.59575 0.88726 0.0
C763 C 0.89024 0.5802 0.82808 0.0
C764 C 0.86994 0.56246 0.79876 0.0
C765 C 0.90106 0.59675 0.7711 0.0
C766 C 0.91216 0.56647 0.86467 0.0
C767 C 0.91613 0.57543 0.93047 0.0
C768 C 0.93233 0.56271 0.97754 0.0
C769 C 0.94535 0.54083 0.95587 0.0
C770 C 0.94175 0.53213 0.88821 0.0
C771 C 0.92526 0.54516 0.84225 0.0
H772 H 0.99546 0.15963 0.10174 0.0
H773 H 0.03924 0.2019 0.95306 0.0
H774 H 0.03658 0.16778 0.87 0.0
H775 H 0.02095 0.10044 0.06286 0.0
H776 H 0.99062 0.08462 0.06837 0.0
H777 H 0.99516 0.11237 0.11774 0.0
H778 H 0.95393 0.13278 0.06268 0.0
H779 H 0.9489 0.10486 0.01441 0.0
H780 H 0.95104 0.134 0.97005 0.0
H781 H 0.03421 0.12744 0.80833 0.0
H782 H 0.02299 0.08676 0.76013 0.0
H783 H 0.97543 0.07258 0.9396 0.0
C784 C 0.00402 0.16205 0.05129 0.0
C785 C 0.01832 0.18338 0.03522 0.0
C786 C 0.02911 0.1855 0.96817 0.0
C787 C 0.02758 0.16624 0.92022 0.0
C788 C 0.01453 0.14511 0.93896 0.0
C789 C 0.0021 0.14318 0.00181 0.0
C790 C 0.98849 0.11868 0.00738 0.0
C791 C 0.99947 0.10312 0.06768 0.0
C792 C 0.95883 0.12284 0.01399 0.0
C793 C 0.99575 0.10705 0.93844 0.0
C794 C 0.01124 0.12248 0.90051 0.0
C795 C 0.02176 0.11535 0.83702 0.0
C796 C 0.01554 0.09217 0.81039 0.0
C797 C 0.9985 0.07673 0.8464 0.0
C798 C 0.98858 0.08415 0.91139 0.0
H799 H 0.36857 0.09194 0.11686 0.0
H800 H 0.2996 0.08284 0.99074 0.0
H801 H 0.3266 0.06365 0.89965 0.0
H802 H 0.4126 0.10455 0.9657 0.0
H803 H 0.44026 0.08855 0.00411 0.0
H804 H 0.41621 0.10396 0.05813 0.0
H805 H 0.40935 0.06324 0.12435 0.0
H806 H 0.43339 0.04776 0.07084 0.0
H807 H 0.40106 0.03579 0.07731 0.0
H808 H 0.35874 0.04338 0.82635 0.0
H809 H 0.39494 0.01982 0.77404 0.0
H810 H 0.44575 0.04042 0.94248 0.0
C811 C 0.35929 0.08601 0.06975 0.0
C812 C 0.33188 0.0891 0.06068 0.0
C813 C 0.32047 0.08112 0.99843 0.0
C814 C 0.33569 0.07018 0.94632 0.0
C815 C 0.36247 0.0675 0.95647 0.0
C816 C 0.37439 0.07518 0.01624 0.0
C817 C 0.40364 0.06905 0.0135 0.0
C818 C 0.4191 0.09294 0.01017 0.0
C819 C 0.41236 0.05298 0.07516 0.0
C820 C 0.4057 0.05487 0.94542 0.0
C821 C 0.38166 0.05514 0.91303 0.0
C822 C 0.37767 0.04307 0.85095 0.0
C823 C 0.39843 0.02961 0.82177 0.0
C824 C 0.42315 0.02797 0.85425 0.0
C825 C 0.42712 0.04138 0.91628 0.0
H826 H 0.5082 0.34993 0.10314 0.0
H827 H 0.47595 0.30165 0.9476 0.0
H828 H 0.47621 0.33575 0.86372 0.0
H829 H 0.47514 0.40533 0.05366 0.0
H830 H 0.50233 0.42511 0.0669 0.0
H831 H 0.49975 0.39718 0.11668 0.0
H832 H 0.54544 0.38185 0.07578 0.0
H833 H 0.54853 0.41007 0.0277 0.0
H834 H 0.55252 0.38065 0.98471 0.0
H835 H 0.47474 0.3762 0.80133 0.0
H836 H 0.48341 0.41743 0.75267 0.0
H837 H 0.52316 0.43748 0.94074 0.0
C838 C 0.50174 0.34624 0.0511 0.0
C839 C 0.49139 0.32312 0.03276 0.0
C840 C 0.48308 0.31935 0.96388 0.0
C841 C 0.4832 0.33861 0.9157 0.0
C842 C 0.49226 0.36141 0.93653 0.0
C843 C 0.50229 0.3651 0.0017 0.0
C844 C 0.51201 0.39118 0.00951 0.0
C845 C 0.49637 0.40554 0.06498 0.0
C846 C 0.54137 0.3909 0.02532 0.0
C847 C 0.50616 0.40138 0.93815 0.0
C848 C 0.49387 0.38413 0.89789 0.0
C849 C 0.48489 0.38967 0.83173 0.0
C850 C 0.48975 0.41307 0.80468 0.0
C851 C 0.50433 0.43012 0.84265 0.0
C852 C 0.5122 0.42449 0.91069 0.0
H853 H 0.16693 0.45511 0.09381 0.0
H854 H 0.15715 0.37851 0.03488 0.0
H855 H 0.12048 0.39119 0.95939 0.0
H856 H 0.09716 0.47202 0.09523 0.0
H857 H 0.10217 0.50258 0.0618 0.0
H858 H 0.12702 0.48743 0.11372 0.0
H859 H 0.16076 0.49322 0.016 0.0
H860 H 0.13607 0.50848 0.96411 0.0
H861 H 0.15385 0.48185 0.93066 0.0
H862 H 0.08444 0.41226 0.88989 0.0
H863 H 0.05494 0.44063 0.82409 0.0
H864 H 0.08905 0.50342 0.92504 0.0
C865 C 0.15695 0.44094 0.0656 0.0
C866 C 0.16517 0.41577 0.07032 0.0
C867 C 0.15165 0.39794 0.03155 0.0
C868 C 0.13054 0.40493 0.98898 0.0
C869 C 0.12298 0.42984 0.98566 0.0
C870 C 0.13585 0.44759 0.02268 0.0
C871 C 0.12437 0.47323 0.00816 0.0
C872 C 0.11195 0.48448 0.07363 0.0
C873 C 0.145 0.49019 0.9779 0.0
C874 C 0.1037 0.46722 0.95535 0.0
C875 C 0.10272 0.44202 0.94441 0.0
C876 C 0.08499 0.43201 0.89831 0.0
C877 C 0.06818 0.44822 0.86156 0.0
C878 C 0.06962 0.47413 0.87007 0.0
C879 C 0.08749 0.48366 0.91795 0.0
H880 H 0.01682 0.81727 0.47188 0.0
H881 H 0.97572 0.84733 0.29365 0.0
H882 H 0.96745 0.88644 0.35623 0.0
H883 H 0.97665 0.85071 0.60612 0.0
H884 H 0.00478 0.85531 0.65975 0.0
H885 H 0.00328 0.82825 0.60572 0.0
H886 H 0.04719 0.83936 0.54929 0.0
H887 H 0.04869 0.86641 0.60282 0.0
H888 H 0.05042 0.86937 0.51031 0.0
H889 H 0.96779 0.92389 0.43324 0.0
H890 H 0.97824 0.95681 0.5167 0.0
H891 H 0.02107 0.90295 0.64161 0.0
C892 C 0.00565 0.83191 0.44647 0.0
C893 C 0.99669 0.82905 0.37805 0.0
C894 C 0.98225 0.84876 0.34658 0.0
C895 C 0.97753 0.87114 0.38165 0.0
C896 C 0.98722 0.87353 0.44837 0.0
C897 C 0.00086 0.85438 0.48064 0.0
C898 C 0.01129 0.86239 0.54997 0.0
C899 C 0.99822 0.84833 0.60888 0.0
C900 C 0.04116 0.85921 0.55321 0.0
C901 C 0.00267 0.8894 0.54986 0.0
C902 C 0.98817 0.89532 0.49179 0.0
C903 C 0.97886 0.9194 0.47929 0.0
C904 C 0.98486 0.93797 0.52689 0.0
C905 C 0.00052 0.9324 0.58523 0.0
C906 C 0.00913 0.90773 0.59721 0.0
H907 H 0.63379 0.92791 0.32822 0.0
H908 H 0.69838 0.92487 0.47263 0.0
H909 H 0.66832 0.93556 0.56739 0.0
H910 H 0.60271 0.97852 0.38883 0.0
H911 H 0.56948 0.96893 0.38164 0.0
H912 H 0.59418 0.95525 0.32682 0.0
H913 H 0.58287 0.91163 0.36912 0.0
H914 H 0.55765 0.92509 0.42331 0.0
H915 H 0.58263 0.90507 0.46022 0.0
H916 H 0.63623 0.95626 0.63674 0.0
H917 H 0.6011 0.98168 0.68617 0.0
H918 H 0.55296 0.96933 0.50644 0.0
C919 C 0.6413 0.92851 0.38037 0.0
C920 C 0.66845 0.92558 0.39334 0.0
C921 C 0.67776 0.92714 0.46168 0.0
C922 C 0.66077 0.93305 0.51583 0.0
C923 C 0.6344 0.93703 0.50111 0.0
C924 C 0.6244 0.93434 0.43557 0.0
C925 C 0.59557 0.94218 0.43388 0.0
C926 C 0.5902 0.96243 0.3796 0.0
C927 C 0.57867 0.91965 0.42088 0.0
C928 C 0.59179 0.95196 0.50714 0.0
C929 C 0.61453 0.94814 0.54463 0.0
C930 C 0.61791 0.95831 0.60946 0.0
C931 C 0.59769 0.97273 0.63734 0.0
C932 C 0.57379 0.97653 0.60217 0.0
C933 C 0.57058 0.9658 0.53596 0.0
H934 H 0.45419 0.66248 0.36501 0.0
H935 H 0.53154 0.68966 0.40169 0.0
H936 H 0.54176 0.65297 0.47516 0.0
H937 H 0.44195 0.64115 0.53033 0.0
H938 H 0.4248 0.61432 0.50241 0.0
H939 H 0.42508 0.64139 0.44873 0.0
H940 H 0.44385 0.61505 0.34733 0.0
H941 H 0.44363 0.58783 0.40084 0.0
H942 H 0.4734 0.59678 0.35985 0.0
H943 H 0.54176 0.6137 0.55096 0.0
H944 H 0.53122 0.57717 0.62229 0.0
H945 H 0.45353 0.57777 0.53476 0.0
C946 C 0.47327 0.66079 0.38869 0.0
C947 C 0.49193 0.67903 0.37887 0.0
C948 C 0.51694 0.67587 0.4091 0.0
C949 C 0.52289 0.6551 0.45063 0.0
C950 C 0.50373 0.63761 0.46016 0.0
C951 C 0.4795 0.64029 0.42946 0.0
C952 C 0.46183 0.61965 0.44891 0.0
C953 C 0.43696 0.62974 0.48475 0.0
C954 C 0.4553 0.6039 0.38546 0.0
C955 C 0.47933 0.60543 0.4982 0.0
C956 C 0.50367 0.6156 0.50315 0.0
C957 C 0.52283 0.60554 0.5469 0.0
C958 C 0.51673 0.5848 0.58699 0.0
C959 C 0.49157 0.57481 0.58376 0.0
C960 C 0.47288 0.58514 0.53828 0.0
H961 H 0.82493 0.58307 0.45944 0.0
H962 H 0.86523 0.57084 0.26564 0.0
H963 H 0.90514 0.55772 0.32862 0.0
H964 H 0.88657 0.60448 0.55471 0.0
H965 H 0.87529 0.59081 0.63354 0.0
H966 H 0.85215 0.60372 0.57259 0.0
H967 H 0.82907 0.56168 0.57079 0.0
H968 H 0.85266 0.54878 0.63005 0.0
H969 H 0.84751 0.53397 0.54798 0.0
H970 H 0.93829 0.54028 0.41173 0.0
H971 H 0.96212 0.52026 0.50888 0.0
H972 H 0.9003 0.54351 0.64854 0.0
C973 C 0.84247 0.57835 0.4307 0.0
C974 C 0.84224 0.57814 0.35801 0.0
C975 C 0.86529 0.57153 0.3215 0.0
C976 C 0.88801 0.56405 0.3568 0.0
C977 C 0.88752 0.56386 0.42865 0.0
C978 C 0.86551 0.57131 0.46528 0.0
C979 C 0.86965 0.56795 0.54209 0.0
C980 C 0.871 0.59325 0.57783 0.0
C981 C 0.84847 0.55213 0.57455 0.0
C982 C 0.89611 0.55478 0.5423 0.0
C983 C 0.90661 0.55359 0.47666 0.0
C984 C 0.9305 0.54152 0.46352 0.0
C985 C 0.94387 0.53018 0.5188 0.0
C986 C 0.93292 0.53042 0.58572 0.0
C987 C 0.90896 0.54313 0.59767 0.0
loop_
_geom_bond_atom_site_label_1
_geom_bond_atom_site_label_2
_geom_bond_distance
_geom_bond_site_symmetry_2
_ccdc_geom_bond_type
P0 O11 1.490 . S
P0 C14 1.812 . S
P0 C20 1.803 . S
P0 C26 1.819 . S
H1 C15 0.941 . S
H2 C16 0.939 . S
H3 C18 0.940 . S
H4 C19 0.940 . S
H5 C21 0.939 . S
H6 C22 0.942 1_556 S
H7 C24 0.940 . S
H8 C25 0.939 . S
H9 C27 0.941 . S
H10 C31 0.939 . S
O11 P0 1.490 . S
H12 C28 0.939 . S
H13 C30 0.940 . S
C14 P0 1.812 . S
C14 C15 1.389 . S
C14 C19 1.391 . S
C15 H1 0.941 . S
C15 C14 1.389 . S
C15 C16 1.397 . S
C16 H2 0.939 . S
C16 C15 1.397 . S
C16 C17 1.378 . S
C17 C16 1.378 . S
C17 C18 1.378 . S
C18 H3 0.940 . S
C18 C17 1.378 . S
C18 C19 1.396 . S
C19 H4 0.940 . S
C19 C14 1.391 . S
C19 C18 1.396 . S
C20 P0 1.803 . S
C20 C21 1.378 . S
C20 C25 1.400 . S
C21 H5 0.939 . S
C21 C20 1.378 . S
C21 C22 1.361 . S
C22 H6 0.942 1_554 S
C22 C21 1.361 . S
C22 C23 1.369 . S
C23 C22 1.369 . S
C23 C24 1.404 . S
C24 H7 0.940 . S
C24 C23 1.404 . S
C24 C25 1.389 . S
C25 H8 0.939 . S
C25 C20 1.400 . S
C25 C24 1.389 . S
C26 P0 1.819 . S
C26 C27 1.391 . S
C26 C31 1.391 1_554 S
C27 H9 0.941 . S
C27 C26 1.391 . S
C27 C28 1.396 1_554 S
C28 H12 0.939 . S
C28 C27 1.396 1_556 S
C28 C29 1.397 . S
C29 C28 1.397 . S
C29 C30 1.385 . S
C30 H13 0.940 . S
C30 C29 1.385 . S
C30 C31 1.388 . S
C31 H10 0.939 . S
C31 C26 1.391 1_556 S
C31 C30 1.388 . S
P32 O43 1.490 . S
P32 C46 1.812 . S
P32 C52 1.803 . S
P32 C58 1.819 . S
H33 C47 0.941 . S
H34 C48 0.939 . S
H35 C50 0.940 . S
H36 C51 0.950 . S
H37 C53 0.939 . S
H38 C54 0.942 . S
H39 C56 0.940 . S
H40 C57 0.958 . S
H41 C59 0.941 . S
H42 C63 0.928 1_655 S
O43 P32 1.490 . S
H44 C60 0.939 . S
H45 C62 0.940 . S
C46 P32 1.812 . S
C46 C47 1.389 . S
C46 C51 1.375 1_455 S
C47 H33 0.941 . S
C47 C46 1.389 . S
C47 C48 1.397 . S
C48 H34 0.939 . S
C48 C47 1.397 . S
C48 C49 1.378 . S
C49 C48 1.378 . S
C49 C50 1.378 1_455 S
C50 H35 0.940 . S
C50 C49 1.378 1_655 S
C50 C51 1.402 . S
C51 H36 0.950 . S
C51 C46 1.375 1_655 S
C51 C50 1.402 . S
C52 P32 1.803 . S
C52 C53 1.378 . S
C52 C57 1.368 1_455 S
C53 H37 0.939 . S
C53 C52 1.378 . S
C53 C54 1.361 . S
C54 H38 0.942 . S
C54 C53 1.361 . S
C54 C55 1.369 . S
C55 C54 1.369 . S
C55 C56 1.404 1_455 S
C56 H39 0.940 . S
C56 C55 1.404 1_655 S
C56 C57 1.403 . S
C57 H40 0.958 . S
C57 C52 1.368 1_655 S
C57 C56 1.403 . S
C58 P32 1.819 . S
C58 C59 1.391 . S
C58 C63 1.391 . S
C59 H41 0.941 . S
C59 C58 1.391 . S
C59 C60 1.396 . S
C60 H44 0.939 . S
C60 C59 1.396 . S
C60 C61 1.397 1_554 S
C61 C60 1.397 1_556 S
C61 C62 1.385 1_455 S
C62 H45 0.940 . S
C62 C61 1.385 1_655 S
C62 C63 1.388 1_656 S
C63 H42 0.928 1_455 S
C63 C58 1.391 . S
C63 C62 1.388 1_454 S
P64 O75 1.490 . S
P64 C78 1.812 . S
P64 C84 1.803 . S
P64 C90 1.819 . S
H65 C79 0.941 . S
H66 C80 0.939 . S
H67 C82 0.940 . S
H68 C83 0.940 . S
H69 C85 0.939 . S
H70 C86 0.942 . S
H71 C88 0.940 . S
H72 C89 0.939 . S
H73 C91 0.941 . S
H74 C95 0.939 . S
O75 P64 1.490 . S
H76 C92 0.939 . S
H77 C94 0.940 . S
C78 P64 1.812 . S
C78 C79 1.389 . S
C78 C83 1.391 . S
C79 H65 0.941 . S
C79 C78 1.389 . S
C79 C80 1.397 . S
C80 H66 0.939 . S
C80 C79 1.397 . S
C80 C81 1.378 . S
C81 C80 1.378 . S
C81 C82 1.378 . S
C82 H67 0.940 . S
C82 C81 1.378 . S
C82 C83 1.396 . S
C83 H68 0.940 . S
C83 C78 1.391 . S
C83 C82 1.396 . S
C84 P64 1.803 . S
C84 C85 1.378 . S
C84 C89 1.400 . S
C85 H69 0.939 . S
C85 C84 1.378 . S
C85 C86 1.361 . S
C86 H70 0.942 . S
C86 C85 1.361 . S
C86 C87 1.369 . S
C87 C86 1.369 . S
C87 C88 1.404 . S
C88 H71 0.940 . S
C88 C87 1.404 . S
C88 C89 1.389 . S
C89 H72 0.939 . S
C89 C84 1.400 . S
C89 C88 1.389 . S
C90 P64 1.819 . S
C90 C91 1.391 . S
C90 C95 1.391 1_554 S
C91 H73 0.941 . S
C91 C90 1.391 . S
C91 C92 1.396 1_554 S
C92 H76 0.939 . S
C92 C91 1.396 1_556 S
C92 C93 1.397 . S
C93 C92 1.397 . S
C93 C94 1.385 . S
C94 H77 0.940 . S
C94 C93 1.385 . S
C94 C95 1.388 . S
C95 H74 0.939 . S
C95 C90 1.391 1_556 S
C95 C94 1.388 . S
P96 O107 1.490 . S
P96 C110 1.812 . S
P96 C116 1.803 . S
P96 C122 1.819 . S
H97 C111 0.941 . S
H98 C112 0.939 . S
H99 C114 0.940 . S
H100 C115 0.940 . S
H101 C117 0.939 . S
H102 C118 0.942 . S
H103 C120 0.940 . S
H104 C121 0.939 . S
H105 C123 0.941 . S
H106 C127 0.939 . S
O107 P96 1.490 . S
H108 C124 0.939 . S
H109 C126 0.940 . S
C110 P96 1.812 . S
C110 C111 1.389 . S
C110 C115 1.391 . S
C111 H97 0.941 . S
C111 C110 1.389 . S
C111 C112 1.397 . S
C112 H98 0.939 . S
C112 C111 1.397 . S
C112 C113 1.378 . S
C113 C112 1.378 . S
C113 C114 1.378 . S
C114 H99 0.940 . S
C114 C113 1.378 . S
C114 C115 1.396 . S
C115 H100 0.940 . S
C115 C110 1.391 . S
C115 C114 1.396 . S
C116 P96 1.803 . S
C116 C117 1.378 . S
C116 C121 1.400 . S
C117 H101 0.939 . S
C117 C116 1.378 . S
C117 C118 1.361 . S
C118 H102 0.942 . S
C118 C117 1.361 . S
C118 C119 1.369 . S
C119 C118 1.369 . S
C119 C120 1.404 . S
C120 H103 0.940 . S
C120 C119 1.404 . S
C120 C121 1.389 . S
C121 H104 0.939 . S
C121 C116 1.400 . S
C121 C120 1.389 . S
C122 P96 1.819 . S
C122 C123 1.391 . S
C122 C127 1.391 . S
C123 H105 0.941 . S
C123 C122 1.391 . S
C123 C124 1.396 . S
C124 H108 0.939 . S
C124 C123 1.396 . S
C124 C125 1.397 1_554 S
C125 C124 1.397 1_556 S
C125 C126 1.385 . S
C126 H109 0.940 . S
C126 C125 1.385 . S
C126 C127 1.388 1_556 S
C127 H106 0.939 . S
C127 C122 1.391 . S
C127 C126 1.388 1_554 S
P128 O139 1.490 . S
P128 C142 1.812 . S
P128 C148 1.803 . S
P128 C154 1.819 . S
H129 C143 0.941 . S
H130 C144 0.939 . S
H131 C146 0.940 . S
H132 C147 0.940 . S
H133 C149 0.939 . S
H134 C150 0.942 . S
H135 C152 0.940 . S
H136 C153 0.939 . S
H137 C155 0.941 . S
H138 C159 0.939 . S
O139 P128 1.490 . S
H140 C156 0.939 . S
H141 C158 0.940 . S
C142 P128 1.812 . S
C142 C143 1.389 . S
C142 C147 1.391 . S
C143 H129 0.941 . S
C143 C142 1.389 . S
C143 C144 1.397 . S
C144 H130 0.939 . S
C144 C143 1.397 . S
C144 C145 1.378 . S
C145 C144 1.378 . S
C145 C146 1.378 . S
C146 H131 0.940 . S
C146 C145 1.378 . S
C146 C147 1.396 . S
C147 H132 0.940 . S
C147 C142 1.391 . S
C147 C146 1.396 . S
C148 P128 1.803 . S
C148 C149 1.378 . S
C148 C153 1.400 . S
C149 H133 0.939 . S
C149 C148 1.378 . S
C149 C150 1.361 . S
C150 H134 0.942 . S
C150 C149 1.361 . S
C150 C151 1.369 . S
C151 C150 1.369 . S
C151 C152 1.404 . S
C152 H135 0.940 . S
C152 C151 1.404 . S
C152 C153 1.389 . S
C153 H136 0.939 . S
C153 C148 1.400 . S
C153 C152 1.389 . S
C154 P128 1.819 . S
C154 C155 1.391 . S
C154 C159 1.391 . S
C155 H137 0.941 . S
C155 C154 1.391 . S
C155 C156 1.396 . S
C156 H140 0.939 . S
C156 C155 1.396 . S
C156 C157 1.397 . S
C157 C156 1.397 . S
C157 C158 1.385 . S
C158 H141 0.940 . S
C158 C157 1.385 . S
C158 C159 1.388 . S
C159 H138 0.939 . S
C159 C154 1.391 . S
C159 C158 1.388 . S
P160 O171 1.490 . S
P160 C174 1.812 . S
P160 C180 1.803 . S
P160 C186 1.819 . S
H161 C175 0.941 . S
H162 C176 0.939 . S
H163 C178 0.940 . S
H164 C179 0.944 . S
H165 C181 0.939 . S
H166 C182 0.942 . S
H167 C184 0.940 . S
H168 C185 0.953 . S
H169 C187 0.941 . S
H170 C191 0.933 1_655 S
O171 P160 1.490 . S
H172 C188 0.939 . S
H173 C190 0.940 . S
C174 P160 1.812 . S
C174 C175 1.389 . S
C174 C179 1.384 1_455 S
C175 H161 0.941 . S
C175 C174 1.389 . S
C175 C176 1.397 . S
C176 H162 0.939 . S
C176 C175 1.397 . S
C176 C177 1.378 . S
C177 C176 1.378 . S
C177 C178 1.378 1_455 S
C178 H163 0.940 . S
C178 C177 1.378 1_655 S
C178 C179 1.399 . S
C179 H164 0.944 . S
C179 C174 1.384 1_655 S
C179 C178 1.399 . S
C180 P160 1.803 . S
C180 C181 1.378 . S
C180 C185 1.378 1_455 S
C181 H165 0.939 . S
C181 C180 1.378 . S
C181 C182 1.361 . S
C182 H166 0.942 . S
C182 C181 1.361 . S
C182 C183 1.369 . S
C183 C182 1.369 . S
C183 C184 1.404 1_455 S
C184 H167 0.940 . S
C184 C183 1.404 1_655 S
C184 C185 1.397 . S
C185 H168 0.953 . S
C185 C180 1.378 1_655 S
C185 C184 1.397 . S
C186 P160 1.819 . S
C186 C187 1.391 . S
C186 C191 1.391 . S
C187 H169 0.941 . S
C187 C186 1.391 . S
C187 C188 1.396 . S
C188 H172 0.939 . S
C188 C187 1.396 . S
C188 C189 1.397 . S
C189 C188 1.397 . S
C189 C190 1.385 1_455 S
C190 H173 0.940 . S
C190 C189 1.385 1_655 S
C190 C191 1.388 1_655 S
C191 H170 0.933 1_455 S
C191 C186 1.391 . S
C191 C190 1.388 1_455 S
P192 O203 1.490 . S
P192 C206 1.812 . S
P192 C212 1.803 . S
P192 C218 1.819 . S
H193 C207 0.941 . S
H194 C208 0.939 . S
H195 C210 0.940 . S
H196 C211 0.940 . S
H197 C213 0.939 . S
H198 C214 0.942 . S
H199 C216 0.940 . S
H200 C217 0.939 . S
H201 C219 0.941 . S
H202 C223 0.939 . S
O203 P192 1.490 . S
H204 C220 0.939 . S
H205 C222 0.940 . S
C206 P192 1.812 . S
C206 C207 1.389 . S
C206 C211 1.391 . S
C207 H193 0.941 . S
C207 C206 1.389 . S
C207 C208 1.397 . S
C208 H194 0.939 . S
C208 C207 1.397 . S
C208 C209 1.378 . S
C209 C208 1.378 . S
C209 C210 1.378 . S
C210 H195 0.940 . S
C210 C209 1.378 . S
C210 C211 1.396 . S
C211 H196 0.940 . S
C211 C206 1.391 . S
C211 C210 1.396 . S
C212 P192 1.803 . S
C212 C213 1.378 . S
C212 C217 1.400 . S
C213 H197 0.939 . S
C213 C212 1.378 . S
C213 C214 1.361 . S
C214 H198 0.942 . S
C214 C213 1.361 . S
C214 C215 1.369 . S
C215 C214 1.369 . S
C215 C216 1.404 . S
C216 H199 0.940 . S
C216 C215 1.404 . S
C216 C217 1.389 . S
C217 H200 0.939 . S
C217 C212 1.400 . S
C217 C216 1.389 . S
C218 P192 1.819 . S
C218 C219 1.391 . S
C218 C223 1.391 . S
C219 H201 0.941 . S
C219 C218 1.391 . S
C219 C220 1.396 . S
C220 H204 0.939 . S
C220 C219 1.396 . S
C220 C221 1.397 . S
C221 C220 1.397 . S
C221 C222 1.385 . S
C222 H205 0.940 . S
C222 C221 1.385 . S
C222 C223 1.388 . S
C223 H202 0.939 . S
C223 C218 1.391 . S
C223 C222 1.388 . S
P224 O235 1.490 . S
P224 C238 1.812 . S
P224 C244 1.803 . S
P224 C250 1.819 . S
H225 C239 0.941 . S
H226 C240 0.939 . S
H227 C242 0.940 . S
H228 C243 0.940 . S
H229 C245 0.939 . S
H230 C246 0.942 . S
H231 C248 0.940 . S
H232 C249 0.939 . S
H233 C251 0.941 . S
H234 C255 0.939 . S
O235 P224 1.490 . S
H236 C252 0.939 . S
H237 C254 0.940 . S
C238 P224 1.812 . S
C238 C239 1.389 . S
C238 C243 1.391 . S
C239 H225 0.941 . S
C239 C238 1.389 . S
C239 C240 1.397 . S
C240 H226 0.939 . S
C240 C239 1.397 . S
C240 C241 1.378 . S
C241 C240 1.378 . S
C241 C242 1.378 . S
C242 H227 0.940 . S
C242 C241 1.378 . S
C242 C243 1.396 . S
C243 H228 0.940 . S
C243 C238 1.391 . S
C243 C242 1.396 . S
C244 P224 1.803 . S
C244 C245 1.378 . S
C244 C249 1.400 . S
C245 H229 0.939 . S
C245 C244 1.378 . S
C245 C246 1.361 . S
C246 H230 0.942 . S
C246 C245 1.361 . S
C246 C247 1.369 . S
C247 C246 1.369 . S
C247 C248 1.404 . S
C248 H231 0.940 . S
C248 C247 1.404 . S
C248 C249 1.389 . S
C249 H232 0.939 . S
C249 C244 1.400 . S
C249 C248 1.389 . S
C250 P224 1.819 . S
C250 C251 1.391 . S
C250 C255 1.391 . S
C251 H233 0.941 . S
C251 C250 1.391 . S
C251 C252 1.396 . S
C252 H236 0.939 . S
C252 C251 1.396 . S
C252 C253 1.397 . S
C253 C252 1.397 . S
C253 C254 1.385 . S
C254 H237 0.940 . S
C254 C253 1.385 . S
C254 C255 1.388 . S
C255 H234 0.939 . S
C255 C250 1.391 . S
C255 C254 1.388 . S
O256 Mg257 1.990 . S
O256 C270 1.253 . S
Mg257 O256 1.990 . S
Mg257 O260 2.180 1_565 S
Mg257 O261 2.117 . S
Mg257 O275 2.030 . S
O258 Mg259 2.072 1_465 S
O258 C270 1.260 . S
Mg259 O258 2.072 1_645 S
Mg259 O260 2.099 1_655 S
Mg259 O262 2.079 . S
Mg259 O263 2.072 1_655 S
Mg259 O265 2.099 . S
Mg259 O276 2.079 1_545 S
O260 Mg257 2.180 1_545 S
O260 Mg259 2.099 1_455 S
O260 C271 1.279 . S
O261 Mg257 2.117 . S
O261 C271 1.250 1_565 S
O262 Mg259 2.079 . S
O262 C272 1.264 . S
O263 Mg259 2.072 1_455 S
O263 C273 1.260 . S
Mg264 O265 2.180 . S
Mg264 O266 2.030 . S
Mg264 O267 1.990 . S
Mg264 O268 2.117 . S
O265 Mg259 2.099 . S
O265 Mg264 2.180 . S
O265 C274 1.279 . S
O266 Mg264 2.030 . S
O266 C272 1.248 . S
O267 Mg264 1.990 . S
O267 C273 1.253 1_655 S
O268 Mg264 2.117 . S
O268 C274 1.250 . S
C269 O275 1.248 1_655 S
C269 O276 1.264 . S
C270 O256 1.253 . S
C270 O258 1.260 . S
C271 O260 1.279 . S
C271 O261 1.250 1_545 S
C272 O262 1.264 . S
C272 O266 1.248 . S
C273 O263 1.260 . S
C273 O267 1.253 1_455 S
C274 O265 1.279 . S
C274 O268 1.250 . S
O275 Mg257 2.030 . S
O275 C269 1.248 1_455 S
O276 Mg259 2.079 1_565 S
O276 C269 1.264 . S
O277 Mg278 1.990 1_545 S
O277 C291 1.253 . S
Mg278 O277 1.990 1_565 S
Mg278 O281 2.180 . S
Mg278 O282 2.117 . S
Mg278 O296 2.030 1_565 S
O279 Mg280 2.072 . S
O279 C291 1.260 . S
Mg280 O279 2.072 . S
Mg280 O281 2.099 1_545 S
Mg280 O283 2.079 1_545 S
Mg280 O284 2.072 1_545 S
Mg280 O286 2.099 . S
Mg280 O297 2.079 . S
O281 Mg278 2.180 . S
O281 Mg280 2.099 1_565 S
O281 C292 1.279 . S
O282 Mg278 2.117 . S
O282 C292 1.250 . S
O283 Mg280 2.079 1_565 S
O283 C293 1.264 . S
O284 Mg280 2.072 1_565 S
O284 C294 1.260 1_565 S
Mg285 O286 2.180 . S
Mg285 O287 2.030 . S
Mg285 O288 1.990 . S
Mg285 O289 2.117 . S
O286 Mg280 2.099 . S
O286 Mg285 2.180 . S
O286 C295 1.279 . S
O287 Mg285 2.030 . S
O287 C293 1.248 1_545 S
O288 Mg285 1.990 . S
O288 C294 1.253 . S
O289 Mg285 2.117 . S
O289 C295 1.250 . S
C290 O296 1.248 . S
C290 O297 1.264 . S
C291 O277 1.253 . S
C291 O279 1.260 . S
C292 O281 1.279 . S
C292 O282 1.250 . S
C293 O283 1.264 . S
C293 O287 1.248 1_565 S
C294 O284 1.260 1_545 S
C294 O288 1.253 . S
C295 O286 1.279 . S
C295 O289 1.250 . S
O296 Mg278 2.030 1_545 S
O296 C290 1.248 . S
O297 Mg280 2.079 . S
O297 C290 1.264 . S
O298 Mg299 1.990 . S
O298 C312 1.253 . S
Mg299 O298 1.990 . S
Mg299 O302 2.180 . S
Mg299 O303 2.117 . S
Mg299 O317 2.030 . S
O300 Mg301 2.072 . S
O300 C312 1.260 . S
Mg301 O300 2.072 . S
Mg301 O302 2.099 . S
Mg301 O304 2.079 . S
Mg301 O305 2.072 . S
Mg301 O307 2.099 . S
Mg301 O318 2.079 . S
O302 Mg299 2.180 . S
O302 Mg301 2.099 . S
O302 C313 1.279 . S
O303 Mg299 2.117 . S
O303 C313 1.250 . S
O304 Mg301 2.079 . S
O304 C314 1.264 . S
O305 Mg301 2.072 . S
O305 C315 1.260 . S
Mg306 O307 2.180 . S
Mg306 O308 2.030 . S
Mg306 O309 1.990 . S
Mg306 O310 2.117 . S
O307 Mg301 2.099 . S
O307 Mg306 2.180 . S
O307 C316 1.279 . S
O308 Mg306 2.030 . S
O308 C314 1.248 . S
O309 Mg306 1.990 . S
O309 C315 1.253 . S
O310 Mg306 2.117 . S
O310 C316 1.250 . S
C311 O317 1.248 . S
C311 O318 1.264 . S
C312 O298 1.253 . S
C312 O300 1.260 . S
C313 O302 1.279 . S
C313 O303 1.250 . S
C314 O304 1.264 . S
C314 O308 1.248 . S
C315 O305 1.260 . S
C315 O309 1.253 . S
C316 O307 1.279 . S
C316 O310 1.250 . S
O317 Mg299 2.030 . S
O317 C311 1.248 . S
O318 Mg301 2.079 . S
O318 C311 1.264 . S
O319 Mg320 1.990 . S
O319 C333 1.253 . S
Mg320 O319 1.990 . S
Mg320 O323 2.180 . S
Mg320 O324 2.117 . S
Mg320 O338 2.030 . S
O321 Mg322 2.039 1_655 S
O321 C333 1.260 . S
Mg322 O321 2.039 1_455 S
Mg322 O323 2.079 1_455 S
Mg322 O325 2.114 . S
Mg322 O326 2.094 . S
Mg322 O328 2.120 . S
Mg322 O339 2.057 1_455 S
O323 Mg320 2.180 . S
O323 Mg322 2.079 1_655 S
O323 C334 1.279 . S
O324 Mg320 2.117 . S
O324 C334 1.250 . S
O325 Mg322 2.114 . S
O325 C335 1.264 . S
O326 Mg322 2.094 . S
O326 C336 1.260 . S
Mg327 O328 2.180 . S
Mg327 O329 2.030 . S
Mg327 O330 1.990 . S
Mg327 O331 2.117 . S
O328 Mg322 2.120 . S
O328 Mg327 2.180 . S
O328 C337 1.279 . S
O329 Mg327 2.030 . S
O329 C335 1.248 . S
O330 Mg327 1.990 . S
O330 C336 1.253 . S
O331 Mg327 2.117 . S
O331 C337 1.250 . S
C332 O338 1.248 . S
C332 O339 1.264 . S
C333 O319 1.253 . S
C333 O321 1.260 . S
C334 O323 1.279 . S
C334 O324 1.250 . S
C335 O325 1.264 . S
C335 O329 1.248 . S
C336 O326 1.260 . S
C336 O330 1.253 . S
C337 O328 1.279 . S
C337 O331 1.250 . S
O338 Mg320 2.030 . S
O338 C332 1.248 . S
O339 Mg322 2.057 1_655 S
O339 C332 1.264 . S
H340 C352 0.930 . S
H341 C354 0.930 . S
H342 C355 0.930 . S
H343 C359 0.959 . S
H344 C359 0.959 . S
H345 C359 0.961 . S
H346 C360 0.960 . S
H347 C360 0.961 . S
H348 C360 0.959 . S
H349 C363 0.929 . S
H350 C364 0.931 . S
H351 C366 0.930 . S
C352 H340 0.930 . S
C352 C353 1.399 . S
C352 C357 1.399 . S
C353 C352 1.399 . S
C353 C354 1.376 . S
C354 H341 0.930 . S
C354 C353 1.376 . S
C354 C355 1.388 . S
C355 H342 0.930 . S
C355 C354 1.388 . S
C355 C356 1.390 . S
C356 C355 1.390 . S
C356 C357 1.394 . S
C356 C362 1.465 . S
C357 C352 1.399 . S
C357 C356 1.394 . S
C357 C358 1.516 . S
C358 C357 1.516 . S
C358 C359 1.502 . S
C358 C360 1.561 . S
C358 C361 1.526 . S
C359 H343 0.959 . S
C359 H344 0.959 . S
C359 H345 0.961 . S
C359 C358 1.502 . S
C360 H346 0.960 . S
C360 H347 0.961 . S
C360 H348 0.959 . S
C360 C358 1.561 . S
C361 C358 1.526 . S
C361 C362 1.396 . S
C361 C366 1.390 . S
C362 C356 1.465 . S
C362 C361 1.396 . S
C362 C363 1.399 . S
C363 H349 0.929 . S
C363 C362 1.399 . S
C363 C364 1.385 . S
C364 H350 0.931 . S
C364 C363 1.385 . S
C364 C365 1.389 . S
C365 C364 1.389 . S
C365 C366 1.387 . S
C366 H351 0.930 . S
C366 C361 1.390 . S
C366 C365 1.387 . S
H367 C379 0.930 . S
H368 C381 0.930 . S
H369 C382 0.930 . S
H370 C386 0.959 . S
H371 C386 0.959 . S
H372 C386 0.961 . S
H373 C387 0.960 . S
H374 C387 0.961 . S
H375 C387 0.959 . S
H376 C390 0.929 . S
H377 C391 0.931 . S
H378 C393 0.930 . S
C379 H367 0.930 . S
C379 C380 1.399 . S
C379 C384 1.399 . S
C380 C379 1.399 . S
C380 C381 1.376 . S
C381 H368 0.930 . S
C381 C380 1.376 . S
C381 C382 1.388 . S
C382 H369 0.930 . S
C382 C381 1.388 . S
C382 C383 1.390 . S
C383 C382 1.390 . S
C383 C384 1.394 . S
C383 C389 1.465 . S
C384 C379 1.399 . S
C384 C383 1.394 . S
C384 C385 1.516 . S
C385 C384 1.516 . S
C385 C386 1.502 . S
C385 C387 1.561 . S
C385 C388 1.526 . S
C386 H370 0.959 . S
C386 H371 0.959 . S
C386 H372 0.961 . S
C386 C385 1.502 . S
C387 H373 0.960 . S
C387 H374 0.961 . S
C387 H375 0.959 . S
C387 C385 1.561 . S
C388 C385 1.526 . S
C388 C389 1.396 . S
C388 C393 1.390 . S
C389 C383 1.465 . S
C389 C388 1.396 . S
C389 C390 1.399 . S
C390 H376 0.929 . S
C390 C389 1.399 . S
C390 C391 1.385 . S
C391 H377 0.931 . S
C391 C390 1.385 . S
C391 C392 1.389 . S
C392 C391 1.389 . S
C392 C393 1.387 . S
C393 H378 0.930 . S
C393 C388 1.390 . S
C393 C392 1.387 . S
H394 C406 0.930 . S
H395 C408 0.930 . S
H396 C409 0.930 . S
H397 C413 0.959 . S
H398 C413 0.959 . S
H399 C413 0.961 . S
H400 C414 0.960 . S
H401 C414 0.961 . S
H402 C414 0.959 . S
H403 C417 0.929 . S
H404 C418 0.931 . S
H405 C420 0.930 . S
C406 H394 0.930 . S
C406 C407 1.399 . S
C406 C411 1.399 . S
C407 C406 1.399 . S
C407 C408 1.376 . S
C408 H395 0.930 . S
C408 C407 1.376 . S
C408 C409 1.388 . S
C409 H396 0.930 . S
C409 C408 1.388 . S
C409 C410 1.390 . S
C410 C409 1.390 . S
C410 C411 1.394 . S
C410 C416 1.465 . S
C411 C406 1.399 . S
C411 C410 1.394 . S
C411 C412 1.516 . S
C412 C411 1.516 . S
C412 C413 1.502 . S
C412 C414 1.561 . S
C412 C415 1.526 . S
C413 H397 0.959 . S
C413 H398 0.959 . S
C413 H399 0.961 . S
C413 C412 1.502 . S
C414 H400 0.960 . S
C414 H401 0.961 . S
C414 H402 0.959 . S
C414 C412 1.561 . S
C415 C412 1.526 . S
C415 C416 1.396 . S
C415 C420 1.390 . S
C416 C410 1.465 . S
C416 C415 1.396 . S
C416 C417 1.399 . S
C417 H403 0.929 . S
C417 C416 1.399 . S
C417 C418 1.385 . S
C418 H404 0.931 . S
C418 C417 1.385 . S
C418 C419 1.389 . S
C419 C418 1.389 . S
C419 C420 1.387 . S
C420 H405 0.930 . S
C420 C415 1.390 . S
C420 C419 1.387 . S
H421 C433 0.930 . S
H422 C435 0.930 . S
H423 C436 0.930 . S
H424 C440 0.959 . S
H425 C440 0.959 . S
H426 C440 0.961 . S
H427 C441 0.960 . S
H428 C441 0.961 . S
H429 C441 0.959 . S
H430 C444 0.929 . S
H431 C445 0.931 . S
H432 C447 0.933 . S
C433 H421 0.930 . S
C433 C434 1.399 . S
C433 C438 1.399 . S
C434 C433 1.399 . S
C434 C435 1.376 1_455 S
C435 H422 0.930 . S
C435 C434 1.376 1_655 S
C435 C436 1.388 . S
C436 H423 0.930 . S
C436 C435 1.388 . S
C436 C437 1.390 . S
C437 C436 1.390 . S
C437 C438 1.394 1_655 S
C437 C443 1.465 . S
C438 C433 1.399 . S
C438 C437 1.394 1_455 S
C438 C439 1.516 . S
C439 C438 1.516 . S
C439 C440 1.502 1_455 S
C439 C441 1.561 . S
C439 C442 1.521 1_455 S
C440 H424 0.959 . S
C440 H425 0.959 . S
C440 H426 0.961 . S
C440 C439 1.502 1_655 S
C441 H427 0.960 . S
C441 H428 0.961 . S
C441 H429 0.959 . S
C441 C439 1.561 . S
C442 C439 1.521 1_655 S
C442 C443 1.400 . S
C442 C447 1.392 . S
C443 C437 1.465 . S
C443 C442 1.400 . S
C443 C444 1.399 . S
C444 H430 0.929 . S
C444 C443 1.399 . S
C444 C445 1.385 . S
C445 H431 0.931 . S
C445 C444 1.385 . S
C445 C446 1.389 . S
C446 C445 1.389 . S
C446 C447 1.387 . S
C447 H432 0.933 . S
C447 C442 1.392 . S
C447 C446 1.387 . S
H448 C460 0.930 . S
H449 C462 0.930 . S
H450 C463 0.930 . S
H451 C467 0.954 1_565 S
H452 C467 0.989 . S
H453 C467 0.963 . S
H454 C468 0.960 . S
H455 C468 0.984 . S
H456 C468 0.959 . S
H457 C471 0.929 . S
H458 C472 0.931 . S
H459 C474 0.930 1_545 S
C460 H448 0.930 . S
C460 C461 1.399 . S
C460 C465 1.399 1_554 S
C461 C460 1.399 . S
C461 C462 1.376 1_554 S
C462 H449 0.930 . S
C462 C461 1.376 1_556 S
C462 C463 1.388 . S
C463 H450 0.930 . S
C463 C462 1.388 . S
C463 C464 1.390 . S
C464 C463 1.390 . S
C464 C465 1.394 . S
C464 C470 1.465 . S
C465 C460 1.399 1_556 S
C465 C464 1.394 . S
C465 C466 1.516 . S
C466 C465 1.516 . S
C466 C467 1.475 1_565 S
C466 C468 1.561 1_556 S
C466 C469 1.526 . S
C467 H451 0.954 1_545 S
C467 H452 0.989 . S
C467 H453 0.963 . S
C467 C466 1.475 1_545 S
C468 H454 0.960 . S
C468 H455 0.984 . S
C468 H456 0.959 . S
C468 C466 1.561 1_554 S
C469 C466 1.526 . S
C469 C470 1.396 . S
C469 C474 1.390 . S
C470 C464 1.465 . S
C470 C469 1.396 . S
C470 C471 1.399 . S
C471 H457 0.929 . S
C471 C470 1.399 . S
C471 C472 1.385 . S
C472 H458 0.931 . S
C472 C471 1.385 . S
C472 C473 1.389 . S
C473 C472 1.389 . S
C473 C474 1.387 . S
C474 H459 0.930 1_565 S
C474 C469 1.390 . S
C474 C473 1.387 . S
H475 C487 0.930 . S
H476 C489 0.930 . S
H477 C490 0.930 . S
H478 C494 0.959 1_556 S
H479 C494 0.959 . S
H480 C494 0.961 . S
H481 C495 0.960 . S
H482 C495 0.961 . S
H483 C495 0.959 1_556 S
H484 C498 0.929 . S
H485 C499 0.931 . S
H486 C501 0.930 . S
C487 H475 0.930 . S
C487 C488 1.399 . S
C487 C492 1.399 1_554 S
C488 C487 1.399 . S
C488 C489 1.376 1_554 S
C489 H476 0.930 . S
C489 C488 1.376 1_556 S
C489 C490 1.388 . S
C490 H477 0.930 . S
C490 C489 1.388 . S
C490 C491 1.390 . S
C491 C490 1.390 . S
C491 C492 1.394 . S
C491 C497 1.465 . S
C492 C487 1.399 1_556 S
C492 C491 1.394 . S
C492 C493 1.516 . S
C493 C492 1.516 . S
C493 C494 1.502 1_556 S
C493 C495 1.561 1_556 S
C493 C496 1.526 . S
C494 H478 0.959 1_554 S
C494 H479 0.959 . S
C494 H480 0.961 . S
C494 C493 1.502 1_554 S
C495 H481 0.960 . S
C495 H482 0.961 . S
C495 H483 0.959 1_554 S
C495 C493 1.561 1_554 S
C496 C493 1.526 . S
C496 C497 1.396 . S
C496 C501 1.390 . S
C497 C491 1.465 . S
C497 C496 1.396 . S
C497 C498 1.399 . S
C498 H484 0.929 . S
C498 C497 1.399 . S
C498 C499 1.385 . S
C499 H485 0.931 . S
C499 C498 1.385 . S
C499 C500 1.389 . S
C500 C499 1.389 . S
C500 C501 1.387 . S
C501 H486 0.930 . S
C501 C496 1.390 . S
C501 C500 1.387 . S
H502 C514 0.930 . S
H503 C516 0.930 . S
H504 C517 0.930 . S
H505 C521 0.959 . S
H506 C521 0.959 . S
H507 C521 0.961 . S
H508 C522 0.960 . S
H509 C522 0.961 . S
H510 C522 0.959 . S
H511 C525 0.929 . S
H512 C526 0.931 . S
H513 C528 0.930 . S
C514 H502 0.930 . S
C514 C515 1.399 1_556 S
C514 C519 1.399 . S
C515 C514 1.399 1_554 S
C515 C516 1.376 . S
C516 H503 0.930 . S
C516 C515 1.376 . S
C516 C517 1.388 . S
C517 H504 0.930 . S
C517 C516 1.388 . S
C517 C518 1.390 1_554 S
C518 C517 1.390 1_556 S
C518 C519 1.394 . S
C518 C524 1.465 . S
C519 C514 1.399 . S
C519 C518 1.394 . S
C519 C520 1.516 . S
C520 C519 1.516 . S
C520 C521 1.502 . S
C520 C522 1.561 . S
C520 C523 1.526 . S
C521 H505 0.959 . S
C521 H506 0.959 . S
C521 H507 0.961 . S
C521 C520 1.502 . S
C522 H508 0.960 . S
C522 H509 0.961 . S
C522 H510 0.959 . S
C522 C520 1.561 . S
C523 C520 1.526 . S
C523 C524 1.396 . S
C523 C528 1.390 . S
C524 C518 1.465 . S
C524 C523 1.396 . S
C524 C525 1.399 . S
C525 H511 0.929 . S
C525 C524 1.399 . S
C525 C526 1.385 . S
C526 H512 0.931 . S
C526 C525 1.385 . S
C526 C527 1.389 . S
C527 C526 1.389 . S
C527 C528 1.387 . S
C528 H513 0.930 . S
C528 C523 1.390 . S
C528 C527 1.387 . S
H529 C541 0.930 . S
H530 C543 0.930 . S
H531 C544 0.930 . S
H532 C548 0.959 . S
H533 C548 0.959 . S
H534 C548 0.961 . S
H535 C549 0.960 . S
H536 C549 0.961 . S
H537 C549 0.959 . S
H538 C552 0.929 . S
H539 C553 0.931 . S
H540 C555 0.930 . S
C541 H529 0.930 . S
C541 C542 1.399 1_656 S
C541 C546 1.399 . S
C542 C541 1.399 1_454 S
C542 C543 1.376 . S
C543 H530 0.930 . S
C543 C542 1.376 . S
C543 C544 1.388 . S
C544 H531 0.930 . S
C544 C543 1.388 . S
C544 C545 1.390 1_554 S
C545 C544 1.390 1_556 S
C545 C546 1.394 1_455 S
C545 C551 1.465 . S
C546 C541 1.399 . S
C546 C545 1.394 1_655 S
C546 C547 1.516 . S
C547 C546 1.516 . S
C547 C548 1.502 . S
C547 C549 1.561 1_655 S
C547 C550 1.532 . S
C548 H532 0.959 . S
C548 H533 0.959 . S
C548 H534 0.961 . S
C548 C547 1.502 . S
C549 H535 0.960 . S
C549 H536 0.961 . S
C549 H537 0.959 . S
C549 C547 1.561 1_455 S
C550 C547 1.532 . S
C550 C551 1.386 1_655 S
C550 C555 1.392 . S
C551 C545 1.465 . S
C551 C550 1.386 1_455 S
C551 C552 1.399 . S
C552 H538 0.929 . S
C552 C551 1.399 . S
C552 C553 1.385 . S
C553 H539 0.931 . S
C553 C552 1.385 . S
C553 C554 1.389 . S
C554 C553 1.389 . S
C554 C555 1.387 1_455 S
C555 H540 0.930 . S
C555 C550 1.392 . S
C555 C554 1.387 1_655 S
H556 C568 0.930 . S
H557 C570 0.930 . S
H558 C571 0.930 . S
H559 C575 0.959 . S
H560 C575 0.959 . S
H561 C575 0.961 . S
H562 C576 0.960 . S
H563 C576 0.961 . S
H564 C576 0.959 . S
H565 C579 0.929 . S
H566 C580 0.931 . S
H567 C582 0.930 . S
C568 H556 0.930 . S
C568 C569 1.394 1_455 S
C568 C573 1.399 1_455 S
C569 C568 1.394 1_655 S
C569 C570 1.391 . S
C570 H557 0.930 . S
C570 C569 1.391 . S
C570 C571 1.388 . S
C571 H558 0.930 . S
C571 C570 1.388 . S
C571 C572 1.390 . S
C572 C571 1.390 . S
C572 C573 1.394 . S
C572 C578 1.465 . S
C573 C568 1.399 1_655 S
C573 C572 1.394 . S
C573 C574 1.516 1_655 S
C574 C573 1.516 1_455 S
C574 C575 1.501 . S
C574 C576 1.562 1_455 S
C574 C577 1.526 1_455 S
C575 H559 0.959 . S
C575 H560 0.959 . S
C575 H561 0.961 . S
C575 C574 1.501 . S
C576 H562 0.960 . S
C576 H563 0.961 . S
C576 H564 0.959 . S
C576 C574 1.562 1_655 S
C577 C574 1.526 1_655 S
C577 C578 1.396 . S
C577 C582 1.390 . S
C578 C572 1.465 . S
C578 C577 1.396 . S
C578 C579 1.399 . S
C579 H565 0.929 . S
C579 C578 1.399 . S
C579 C580 1.385 . S
C580 H566 0.931 . S
C580 C579 1.385 . S
C580 C581 1.389 . S
C581 C580 1.389 . S
C581 C582 1.387 . S
C582 H567 0.930 . S
C582 C577 1.390 . S
C582 C581 1.387 . S
H583 C595 0.930 . S
H584 C597 0.930 . S
H585 C598 0.930 . S
H586 C602 0.959 . S
H587 C602 0.959 . S
H588 C602 0.961 . S
H589 C603 0.960 . S
H590 C603 0.961 . S
H591 C603 0.959 . S
H592 C606 0.929 . S
H593 C607 0.931 . S
H594 C609 0.930 . S
C595 H583 0.930 . S
C595 C596 1.399 . S
C595 C600 1.399 . S
C596 C595 1.399 . S
C596 C597 1.376 . S
C597 H584 0.930 . S
C597 C596 1.376 . S
C597 C598 1.388 . S
C598 H585 0.930 . S
C598 C597 1.388 . S
C598 C599 1.390 . S
C599 C598 1.390 . S
C599 C600 1.394 . S
C599 C605 1.465 . S
C600 C595 1.399 . S
C600 C599 1.394 . S
C600 C601 1.516 . S
C601 C600 1.516 . S
C601 C602 1.502 . S
C601 C603 1.561 . S
C601 C604 1.526 . S
C602 H586 0.959 . S
C602 H587 0.959 . S
C602 H588 0.961 . S
C602 C601 1.502 . S
C603 H589 0.960 . S
C603 H590 0.961 . S
C603 H591 0.959 . S
C603 C601 1.561 . S
C604 C601 1.526 . S
C604 C605 1.396 . S
C604 C609 1.390 . S
C605 C599 1.465 . S
C605 C604 1.396 . S
C605 C606 1.399 . S
C606 H592 0.929 . S
C606 C605 1.399 . S
C606 C607 1.385 . S
C607 H593 0.931 . S
C607 C606 1.385 . S
C607 C608 1.389 . S
C608 C607 1.389 . S
C608 C609 1.387 . S
C609 H594 0.930 . S
C609 C604 1.390 . S
C609 C608 1.387 . S
H610 C622 0.930 . S
H611 C624 0.930 . S
H612 C625 0.930 . S
H613 C629 0.959 . S
H614 C629 0.959 . S
H615 C629 0.961 . S
H616 C630 0.960 . S
H617 C630 0.961 . S
H618 C630 0.959 . S
H619 C633 0.929 . S
H620 C634 0.931 . S
H621 C636 0.930 . S
C622 H610 0.930 . S
C622 C623 1.399 . S
C622 C627 1.399 . S
C623 C622 1.399 . S
C623 C624 1.376 . S
C624 H611 0.930 . S
C624 C623 1.376 . S
C624 C625 1.388 . S
C625 H612 0.930 . S
C625 C624 1.388 . S
C625 C626 1.390 . S
C626 C625 1.390 . S
C626 C627 1.394 . S
C626 C632 1.465 . S
C627 C622 1.399 . S
C627 C626 1.394 . S
C627 C628 1.516 . S
C628 C627 1.516 . S
C628 C629 1.502 . S
C628 C630 1.561 . S
C628 C631 1.526 . S
C629 H613 0.959 . S
C629 H614 0.959 . S
C629 H615 0.961 . S
C629 C628 1.502 . S
C630 H616 0.960 . S
C630 H617 0.961 . S
C630 H618 0.959 . S
C630 C628 1.561 . S
C631 C628 1.526 . S
C631 C632 1.396 . S
C631 C636 1.390 . S
C632 C626 1.465 . S
C632 C631 1.396 . S
C632 C633 1.399 . S
C633 H619 0.929 . S
C633 C632 1.399 . S
C633 C634 1.385 . S
C634 H620 0.931 . S
C634 C633 1.385 . S
C634 C635 1.389 . S
C635 C634 1.389 . S
C635 C636 1.387 . S
C636 H621 0.930 . S
C636 C631 1.390 . S
C636 C635 1.387 . S
H637 C649 0.930 . S
H638 C651 0.930 . S
H639 C652 0.930 . S
H640 C656 0.959 . S
H641 C656 0.959 . S
H642 C656 0.961 . S
H643 C657 0.960 . S
H644 C657 0.961 . S
H645 C657 0.959 . S
H646 C660 0.929 . S
H647 C661 0.931 . S
H648 C663 0.930 . S
C649 H637 0.930 . S
C649 C650 1.399 . S
C649 C654 1.399 . S
C650 C649 1.399 . S
C650 C651 1.376 . S
C651 H638 0.930 . S
C651 C650 1.376 . S
C651 C652 1.388 . S
C652 H639 0.930 . S
C652 C651 1.388 . S
C652 C653 1.390 . S
C653 C652 1.390 . S
C653 C654 1.394 . S
C653 C659 1.465 . S
C654 C649 1.399 . S
C654 C653 1.394 . S
C654 C655 1.516 . S
C655 C654 1.516 . S
C655 C656 1.502 . S
C655 C657 1.561 . S
C655 C658 1.526 . S
C656 H640 0.959 . S
C656 H641 0.959 . S
C656 H642 0.961 . S
C656 C655 1.502 . S
C657 H643 0.960 . S
C657 H644 0.961 . S
C657 H645 0.959 . S
C657 C655 1.561 . S
C658 C655 1.526 . S
C658 C659 1.396 . S
C658 C663 1.390 . S
C659 C653 1.465 . S
C659 C658 1.396 . S
C659 C660 1.399 . S
C660 H646 0.929 . S
C660 C659 1.399 . S
C660 C661 1.385 . S
C661 H647 0.931 . S
C661 C660 1.385 . S
C661 C662 1.389 . S
C662 C661 1.389 . S
C662 C663 1.387 . S
C663 H648 0.930 . S
C663 C658 1.390 . S
C663 C662 1.387 . S
H664 C676 0.930 . S
H665 C678 0.930 . S
H666 C679 0.930 . S
H667 C683 0.959 . S
H668 C683 0.959 . S
H669 C683 0.961 . S
H670 C684 0.960 . S
H671 C684 0.961 . S
H672 C684 0.959 1_455 S
H673 C687 0.929 . S
H674 C688 0.931 . S
H675 C690 0.930 . S
C676 H664 0.930 . S
C676 C677 1.399 1_655 S
C676 C681 1.399 . S
C677 C676 1.399 1_455 S
C677 C678 1.376 . S
C678 H665 0.930 . S
C678 C677 1.376 . S
C678 C679 1.388 . S
C679 H666 0.930 . S
C679 C678 1.388 . S
C679 C680 1.390 . S
C680 C679 1.390 . S
C680 C681 1.394 1_455 S
C680 C686 1.465 . S
C681 C676 1.399 . S
C681 C680 1.394 1_655 S
C681 C682 1.516 . S
C682 C681 1.516 . S
C682 C683 1.502 . S
C682 C684 1.561 1_556 S
C682 C685 1.512 1_655 S
C683 H667 0.959 . S
C683 H668 0.959 . S
C683 H669 0.961 . S
C683 C682 1.502 . S
C684 H670 0.960 . S
C684 H671 0.961 . S
C684 H672 0.959 1_655 S
C684 C682 1.561 1_554 S
C685 C682 1.512 1_455 S
C685 C686 1.413 . S
C685 C690 1.389 1_455 S
C686 C680 1.465 . S
C686 C685 1.413 . S
C686 C687 1.399 . S
C687 H673 0.929 . S
C687 C686 1.399 . S
C687 C688 1.385 . S
C688 H674 0.931 . S
C688 C687 1.385 . S
C688 C689 1.389 . S
C689 C688 1.389 . S
C689 C690 1.387 1_455 S
C690 H675 0.930 . S
C690 C685 1.389 1_655 S
C690 C689 1.387 1_655 S
H691 C703 0.930 . S
H692 C705 0.930 1_554 S
H693 C706 0.930 1_554 S
H694 C710 0.959 . S
H695 C710 0.959 . S
H696 C710 0.961 . S
H697 C711 0.960 . S
H698 C711 0.961 . S
H699 C711 0.959 . S
H700 C714 0.929 . S
H701 C715 0.931 . S
H702 C717 0.930 . S
C703 H691 0.930 . S
C703 C704 1.399 . S
C703 C708 1.399 . S
C704 C703 1.399 . S
C704 C705 1.376 . S
C705 H692 0.930 1_556 S
C705 C704 1.376 . S
C705 C706 1.388 . S
C706 H693 0.930 1_556 S
C706 C705 1.388 . S
C706 C707 1.390 . S
C707 C706 1.390 . S
C707 C708 1.394 . S
C707 C713 1.465 . S
C708 C703 1.399 . S
C708 C707 1.394 . S
C708 C709 1.516 . S
C709 C708 1.516 . S
C709 C710 1.502 . S
C709 C711 1.561 . S
C709 C712 1.526 . S
C710 H694 0.959 . S
C710 H695 0.959 . S
C710 H696 0.961 . S
C710 C709 1.502 . S
C711 H697 0.960 . S
C711 H698 0.961 . S
C711 H699 0.959 . S
C711 C709 1.561 . S
C712 C709 1.526 . S
C712 C713 1.396 . S
C712 C717 1.390 . S
C713 C707 1.465 . S
C713 C712 1.396 . S
C713 C714 1.399 . S
C714 H700 0.929 . S
C714 C713 1.399 . S
C714 C715 1.385 . S
C715 H701 0.931 . S
C715 C714 1.385 . S
C715 C716 1.389 . S
C716 C715 1.389 . S
C716 C717 1.387 . S
C717 H702 0.930 . S
C717 C712 1.390 . S
C717 C716 1.387 . S
H718 C730 0.930 . S
H719 C732 0.930 . S
H720 C733 0.930 1_554 S
H721 C737 0.959 . S
H722 C737 0.959 . S
H723 C737 0.961 . S
H724 C738 0.960 . S
H725 C738 0.961 . S
H726 C738 0.959 . S
H727 C741 0.929 . S
H728 C742 0.931 . S
H729 C744 0.930 . S
C730 H718 0.930 . S
C730 C731 1.399 . S
C730 C735 1.399 . S
C731 C730 1.399 . S
C731 C732 1.376 1_556 S
C732 H719 0.930 . S
C732 C731 1.376 1_554 S
C732 C733 1.388 1_554 S
C733 H720 0.930 1_556 S
C733 C732 1.388 1_556 S
C733 C734 1.390 . S
C734 C733 1.390 . S
C734 C735 1.394 . S
C734 C740 1.465 . S
C735 C730 1.399 . S
C735 C734 1.394 . S
C735 C736 1.516 . S
C736 C735 1.516 . S
C736 C737 1.502 . S
C736 C738 1.561 . S
C736 C739 1.526 . S
C737 H721 0.959 . S
C737 H722 0.959 . S
C737 H723 0.961 . S
C737 C736 1.502 . S
C738 H724 0.960 . S
C738 H725 0.961 . S
C738 H726 0.959 . S
C738 C736 1.561 . S
C739 C736 1.526 . S
C739 C740 1.396 . S
C739 C744 1.390 . S
C740 C734 1.465 . S
C740 C739 1.396 . S
C740 C741 1.399 . S
C741 H727 0.929 . S
C741 C740 1.399 . S
C741 C742 1.385 . S
C742 H728 0.931 . S
C742 C741 1.385 . S
C742 C743 1.389 . S
C743 C742 1.389 . S
C743 C744 1.387 . S
C744 H729 0.930 . S
C744 C739 1.390 . S
C744 C743 1.387 . S
H745 C757 0.930 . S
H746 C759 0.930 1_554 S
H747 C760 0.930 1_554 S
H748 C764 0.959 . S
H749 C764 0.959 . S
H750 C764 0.961 . S
H751 C765 0.960 . S
H752 C765 0.961 . S
H753 C765 0.959 . S
H754 C768 0.929 . S
H755 C769 0.931 . S
H756 C771 0.930 . S
C757 H745 0.930 . S
C757 C758 1.399 . S
C757 C762 1.399 . S
C758 C757 1.399 . S
C758 C759 1.376 . S
C759 H746 0.930 1_556 S
C759 C758 1.376 . S
C759 C760 1.388 . S
C760 H747 0.930 1_556 S
C760 C759 1.388 . S
C760 C761 1.390 . S
C761 C760 1.390 . S
C761 C762 1.394 . S
C761 C767 1.465 . S
C762 C757 1.399 . S
C762 C761 1.394 . S
C762 C763 1.516 . S
C763 C762 1.516 . S
C763 C764 1.502 . S
C763 C765 1.561 . S
C763 C766 1.526 . S
C764 H748 0.959 . S
C764 H749 0.959 . S
C764 H750 0.961 . S
C764 C763 1.502 . S
C765 H751 0.960 . S
C765 H752 0.961 . S
C765 H753 0.959 . S
C765 C763 1.561 . S
C766 C763 1.526 . S
C766 C767 1.396 . S
C766 C771 1.390 . S
C767 C761 1.465 . S
C767 C766 1.396 . S
C767 C768 1.399 . S
C768 H754 0.929 . S
C768 C767 1.399 . S
C768 C769 1.385 . S
C769 H755 0.931 . S
C769 C768 1.385 . S
C769 C770 1.389 . S
C770 C769 1.389 . S
C770 C771 1.387 . S
C771 H756 0.930 . S
C771 C766 1.390 . S
C771 C770 1.387 . S
H772 C784 0.930 . S
H773 C786 0.930 . S
H774 C787 0.930 . S
H775 C791 0.959 1_455 S
H776 C791 0.959 . S
H777 C791 0.961 . S
H778 C792 0.960 . S
H779 C792 0.961 . S
H780 C792 0.959 1_556 S
H781 C795 0.929 . S
H782 C796 0.931 . S
H783 C798 0.930 . S
C784 H772 0.930 . S
C784 C785 1.399 1_655 S
C784 C789 1.399 . S
C785 C784 1.399 1_455 S
C785 C786 1.376 1_554 S
C786 H773 0.930 . S
C786 C785 1.376 1_556 S
C786 C787 1.388 . S
C787 H774 0.930 . S
C787 C786 1.388 . S
C787 C788 1.390 . S
C788 C787 1.390 . S
C788 C789 1.394 1_456 S
C788 C794 1.465 . S
C789 C784 1.399 . S
C789 C788 1.394 1_654 S
C789 C790 1.516 . S
C790 C789 1.516 . S
C790 C791 1.502 . S
C790 C792 1.561 . S
C790 C793 1.526 1_554 S
C791 H775 0.959 1_655 S
C791 H776 0.959 . S
C791 H777 0.961 . S
C791 C790 1.502 . S
C792 H778 0.960 . S
C792 H779 0.961 . S
C792 H780 0.959 1_554 S
C792 C790 1.561 . S
C793 C790 1.526 1_556 S
C793 C794 1.396 1_655 S
C793 C798 1.390 . S
C794 C788 1.465 . S
C794 C793 1.396 1_455 S
C794 C795 1.399 . S
C795 H781 0.929 . S
C795 C794 1.399 . S
C795 C796 1.385 . S
C796 H782 0.931 . S
C796 C795 1.385 . S
C796 C797 1.389 . S
C797 C796 1.389 . S
C797 C798 1.387 1_455 S
C798 H783 0.930 . S
C798 C793 1.390 . S
C798 C797 1.387 1_655 S
H799 C811 0.930 . S
H800 C813 0.930 . S
H801 C814 0.930 . S
H802 C818 0.959 1_556 S
H803 C818 0.959 . S
H804 C818 0.961 . S
H805 C819 0.960 . S
H806 C819 0.961 . S
H807 C819 0.959 . S
H808 C822 0.929 . S
H809 C823 0.931 . S
H810 C825 0.930 . S
C811 H799 0.930 . S
C811 C812 1.399 . S
C811 C816 1.399 . S
C812 C811 1.399 . S
C812 C813 1.376 . S
C813 H800 0.930 . S
C813 C812 1.376 . S
C813 C814 1.388 1_554 S
C814 H801 0.930 . S
C814 C813 1.388 1_556 S
C814 C815 1.390 . S
C815 C814 1.390 . S
C815 C816 1.394 1_556 S
C815 C821 1.465 . S
C816 C811 1.399 . S
C816 C815 1.394 1_554 S
C816 C817 1.516 . S
C817 C816 1.516 . S
C817 C818 1.502 . S
C817 C819 1.561 . S
C817 C820 1.526 1_554 S
C818 H802 0.959 1_554 S
C818 H803 0.959 . S
C818 H804 0.961 . S
C818 C817 1.502 . S
C819 H805 0.960 . S
C819 H806 0.961 . S
C819 H807 0.959 . S
C819 C817 1.561 . S
C820 C817 1.526 1_556 S
C820 C821 1.396 . S
C820 C825 1.390 . S
C821 C815 1.465 . S
C821 C820 1.396 . S
C821 C822 1.399 . S
C822 H808 0.929 . S
C822 C821 1.399 . S
C822 C823 1.385 . S
C823 H809 0.931 . S
C823 C822 1.385 . S
C823 C824 1.389 . S
C824 C823 1.389 . S
C824 C825 1.387 . S
C825 H810 0.930 . S
C825 C820 1.390 . S
C825 C824 1.387 . S
H826 C838 0.930 . S
H827 C840 0.930 . S
H828 C841 0.930 . S
H829 C845 0.959 . S
H830 C845 0.959 . S
H831 C845 0.961 . S
H832 C846 0.960 . S
H833 C846 0.961 . S
H834 C846 0.959 1_556 S
H835 C849 0.929 . S
H836 C850 0.931 . S
H837 C852 0.930 . S
C838 H826 0.930 . S
C838 C839 1.399 . S
C838 C843 1.399 . S
C839 C838 1.399 . S
C839 C840 1.376 1_554 S
C840 H827 0.930 . S
C840 C839 1.376 1_556 S
C840 C841 1.388 . S
C841 H828 0.930 . S
C841 C840 1.388 . S
C841 C842 1.390 . S
C842 C841 1.390 . S
C842 C843 1.394 1_556 S
C842 C848 1.465 . S
C843 C838 1.399 . S
C843 C842 1.394 1_554 S
C843 C844 1.516 . S
C844 C843 1.516 . S
C844 C845 1.502 . S
C844 C846 1.561 . S
C844 C847 1.526 1_554 S
C845 H829 0.959 . S
C845 H830 0.959 . S
C845 H831 0.961 . S
C845 C844 1.502 . S
C846 H832 0.960 . S
C846 H833 0.961 . S
C846 H834 0.959 1_554 S
C846 C844 1.561 . S
C847 C844 1.526 1_556 S
C847 C848 1.396 . S
C847 C852 1.390 . S
C848 C842 1.465 . S
C848 C847 1.396 . S
C848 C849 1.399 . S
C849 H835 0.929 . S
C849 C848 1.399 . S
C849 C850 1.385 . S
C850 H836 0.931 . S
C850 C849 1.385 . S
C850 C851 1.389 . S
C851 C850 1.389 . S
C851 C852 1.387 . S
C852 H837 0.930 . S
C852 C847 1.390 . S
C852 C851 1.387 . S
H853 C865 0.930 . S
H854 C867 0.930 . S
H855 C868 0.930 . S
H856 C872 0.959 . S
H857 C872 0.959 . S
H858 C872 0.961 . S
H859 C873 0.960 1_554 S
H860 C873 0.961 . S
H861 C873 0.959 . S
H862 C876 0.929 . S
H863 C877 0.931 . S
H864 C879 0.930 . S
C865 H853 0.930 . S
C865 C866 1.399 . S
C865 C870 1.399 . S
C866 C865 1.399 . S
C866 C867 1.376 . S
C867 H854 0.930 . S
C867 C866 1.376 . S
C867 C868 1.388 1_554 S
C868 H855 0.930 . S
C868 C867 1.388 1_556 S
C868 C869 1.390 . S
C869 C868 1.390 . S
C869 C870 1.394 1_556 S
C869 C875 1.465 . S
C870 C865 1.399 . S
C870 C869 1.394 1_554 S
C870 C871 1.516 . S
C871 C870 1.516 . S
C871 C872 1.502 . S
C871 C873 1.561 1_554 S
C871 C874 1.526 1_554 S
C872 H856 0.959 . S
C872 H857 0.959 . S
C872 H858 0.961 . S
C872 C871 1.502 . S
C873 H859 0.960 1_556 S
C873 H860 0.961 . S
C873 H861 0.959 . S
C873 C871 1.561 1_556 S
C874 C871 1.526 1_556 S
C874 C875 1.396 . S
C874 C879 1.390 . S
C875 C869 1.465 . S
C875 C874 1.396 . S
C875 C876 1.399 . S
C876 H862 0.929 . S
C876 C875 1.399 . S
C876 C877 1.385 . S
C877 H863 0.931 . S
C877 C876 1.385 . S
C877 C878 1.389 . S
C878 C877 1.389 . S
C878 C879 1.387 . S
C879 H864 0.930 . S
C879 C874 1.390 . S
C879 C878 1.387 . S
H880 C892 0.930 . S
H881 C894 0.930 . S
H882 C895 0.930 . S
H883 C899 0.959 . S
H884 C899 0.959 1_455 S
H885 C899 0.966 . S
H886 C900 0.960 . S
H887 C900 0.961 . S
H888 C900 0.959 . S
H889 C903 0.929 . S
H890 C904 0.931 . S
H891 C906 0.918 1_455 S
C892 H880 0.930 . S
C892 C893 1.392 1_455 S
C892 C897 1.399 . S
C893 C892 1.392 1_655 S
C893 C894 1.387 . S
C894 H881 0.930 . S
C894 C893 1.387 . S
C894 C895 1.388 . S
C895 H882 0.930 . S
C895 C894 1.388 . S
C895 C896 1.390 . S
C896 C895 1.390 . S
C896 C897 1.394 1_655 S
C896 C902 1.465 . S
C897 C892 1.399 . S
C897 C896 1.394 1_455 S
C897 C898 1.516 . S
C898 C897 1.516 . S
C898 C899 1.502 1_455 S
C898 C900 1.561 . S
C898 C901 1.524 1_455 S
C899 H883 0.959 . S
C899 H884 0.959 1_655 S
C899 H885 0.966 . S
C899 C898 1.502 1_655 S
C900 H886 0.960 . S
C900 H887 0.961 . S
C900 H888 0.959 . S
C900 C898 1.561 . S
C901 C898 1.524 1_655 S
C901 C902 1.398 . S
C901 C906 1.390 . S
C902 C896 1.465 . S
C902 C901 1.398 . S
C902 C903 1.399 . S
C903 H889 0.929 . S
C903 C902 1.399 . S
C903 C904 1.385 . S
C904 H890 0.931 . S
C904 C903 1.385 . S
C904 C905 1.389 . S
C905 C904 1.389 . S
C905 C906 1.400 . S
C906 H891 0.918 1_655 S
C906 C901 1.390 . S
C906 C905 1.400 . S
H907 C919 0.930 . S
H908 C921 0.930 . S
H909 C922 0.930 . S
H910 C926 0.959 . S
H911 C926 0.959 . S
H912 C926 0.961 . S
H913 C927 0.960 . S
H914 C927 0.961 . S
H915 C927 0.959 . S
H916 C930 0.929 . S
H917 C931 0.931 . S
H918 C933 0.930 . S
C919 H907 0.930 . S
C919 C920 1.399 . S
C919 C924 1.399 . S
C920 C919 1.399 . S
C920 C921 1.376 . S
C921 H908 0.930 . S
C921 C920 1.376 . S
C921 C922 1.388 . S
C922 H909 0.930 . S
C922 C921 1.388 . S
C922 C923 1.390 . S
C923 C922 1.390 . S
C923 C924 1.394 . S
C923 C929 1.465 . S
C924 C919 1.399 . S
C924 C923 1.394 . S
C924 C925 1.516 . S
C925 C924 1.516 . S
C925 C926 1.502 . S
C925 C927 1.561 . S
C925 C928 1.526 . S
C926 H910 0.959 . S
C926 H911 0.959 . S
C926 H912 0.961 . S
C926 C925 1.502 . S
C927 H913 0.960 . S
C927 H914 0.961 . S
C927 H915 0.959 . S
C927 C925 1.561 . S
C928 C925 1.526 . S
C928 C929 1.396 . S
C928 C933 1.390 . S
C929 C923 1.465 . S
C929 C928 1.396 . S
C929 C930 1.399 . S
C930 H916 0.929 . S
C930 C929 1.399 . S
C930 C931 1.385 . S
C931 H917 0.931 . S
C931 C930 1.385 . S
C931 C932 1.389 . S
C932 C931 1.389 . S
C932 C933 1.387 . S
C933 H918 0.930 . S
C933 C928 1.390 . S
C933 C932 1.387 . S
H934 C946 0.930 . S
H935 C948 0.930 . S
H936 C949 0.930 . S
H937 C953 0.959 . S
H938 C953 0.959 . S
H939 C953 0.961 . S
H940 C954 0.960 . S
H941 C954 0.961 . S
H942 C954 0.959 . S
H943 C957 0.929 . S
H944 C958 0.931 . S
H945 C960 0.930 . S
C946 H934 0.930 . S
C946 C947 1.399 . S
C946 C951 1.399 . S
C947 C946 1.399 . S
C947 C948 1.376 . S
C948 H935 0.930 . S
C948 C947 1.376 . S
C948 C949 1.388 . S
C949 H936 0.930 . S
C949 C948 1.388 . S
C949 C950 1.390 . S
C950 C949 1.390 . S
C950 C951 1.394 . S
C950 C956 1.465 . S
C951 C946 1.399 . S
C951 C950 1.394 . S
C951 C952 1.516 . S
C952 C951 1.516 . S
C952 C953 1.502 . S
C952 C954 1.561 . S
C952 C955 1.526 . S
C953 H937 0.959 . S
C953 H938 0.959 . S
C953 H939 0.961 . S
C953 C952 1.502 . S
C954 H940 0.960 . S
C954 H941 0.961 . S
C954 H942 0.959 . S
C954 C952 1.561 . S
C955 C952 1.526 . S
C955 C956 1.396 . S
C955 C960 1.390 . S
C956 C950 1.465 . S
C956 C955 1.396 . S
C956 C957 1.399 . S
C957 H943 0.929 . S
C957 C956 1.399 . S
C957 C958 1.385 . S
C958 H944 0.931 . S
C958 C957 1.385 . S
C958 C959 1.389 . S
C959 C958 1.389 . S
C959 C960 1.387 . S
C960 H945 0.930 . S
C960 C955 1.390 . S
C960 C959 1.387 . S
H961 C973 0.930 . S
H962 C975 0.930 . S
H963 C976 0.930 . S
H964 C980 0.959 . S
H965 C980 0.959 . S
H966 C980 0.961 . S
H967 C981 0.960 . S
H968 C981 0.961 . S
H969 C981 0.959 . S
H970 C984 0.929 . S
H971 C985 0.931 . S
H972 C987 0.930 . S
C973 H961 0.930 . S
C973 C974 1.399 . S
C973 C978 1.399 . S
C974 C973 1.399 . S
C974 C975 1.376 . S
C975 H962 0.930 . S
C975 C974 1.376 . S
C975 C976 1.388 . S
C976 H963 0.930 . S
C976 C975 1.388 . S
C976 C977 1.390 . S
C977 C976 1.390 . S
C977 C978 1.394 . S
C977 C983 1.465 . S
C978 C973 1.399 . S
C978 C977 1.394 . S
C978 C979 1.516 . S
C979 C978 1.516 . S
C979 C980 1.502 . S
C979 C981 1.561 . S
C979 C982 1.526 . S
C980 H964 0.959 . S
C980 H965 0.959 . S
C980 H966 0.961 . S
C980 C979 1.502 . S
C981 H967 0.960 . S
C981 H968 0.961 . S
C981 H969 0.959 . S
C981 C979 1.561 . S
C982 C979 1.526 . S
C982 C983 1.396 . S
C982 C987 1.390 . S
C983 C977 1.465 . S
C983 C982 1.396 . S
C983 C984 1.399 . S
C984 H970 0.929 . S
C984 C983 1.399 . S
C984 C985 1.385 . S
C985 H971 0.931 . S
C985 C984 1.385 . S
C985 C986 1.389 . S
C986 C985 1.389 . S
C986 C987 1.387 . S
C987 H972 0.930 . S
C987 C982 1.390 . S
C987 C986 1.387 . S
C353 C215 1.868 . S
C365 C271 1.779 . S
C392 C295 1.342 . S
C380 C247 1.518 . S
C419 C316 1.700 . S
C407 C151 1.896 . S
C446 C334 1.336 . S
C434 C183 1.552 . S
C473 C274 1.700 1_565 S
C461 C87 1.686 . S
C488 C119 1.398 . S
C500 C292 1.297 . S
C515 C23 1.627 . S
C527 C313 1.620 . S
C542 C55 1.402 . S
C554 C337 1.206 . S
C581 C272 0.565 . S
C569 C189 0.384 1_655 S
C608 C290 0.776 . S
C596 C221 0.605 . S
C635 C311 0.562 . S
C623 C253 0.447 . S
C650 C157 0.735 . S
C662 C335 0.589 . S
C677 C61 0.436 . S
C689 C270 0.397 . S
C716 C294 0.802 1_565 S
C704 C93 0.778 . S
C743 C315 0.584 . S
C731 C125 0.522 . S
C758 C29 0.729 . S
C770 C333 0.798 . S
C785 C177 1.757 . S
C797 C273 1.732 . S
C812 C209 2.000 . S
C824 C291 1.905 . S
C851 C312 1.699 . S
C839 C241 1.743 . S
C878 C336 1.975 . S
C866 C145 2.018 . S
C893 C49 1.566 1_655 S
C905 C269 1.620 . S
C932 C293 1.767 . S
C920 C81 1.771 . S
C959 C314 1.603 . S
C947 C113 1.616 . S
C974 C17 1.693 . S
C986 C332 1.816 . S
