# Generated by pormake.
# Topology zzz, (3,6)-cn, num edge types: 1
# Building blocks:
#     Node 0, Type 0, BuildingBlock: VETTIZ_charged_linker_0, # of connection points: 3
#     Node 1, Type 0, BuildingBlock: VETTIZ_charged_linker_0, # of connection points: 3
#     Node 2, Type 0, BuildingBlock: VETTIZ_charged_linker_0, # of connection points: 3
#     Node 3, Type 0, BuildingBlock: VETTIZ_charged_linker_0, # of connection points: 3
#     Node 4, Type 0, BuildingBlock: VETTIZ_charged_linker_0, # of connection points: 3
#     Node 5, Type 0, BuildingBlock: VETTIZ_charged_linker_0, # of connection points: 3
#     Node 6, Type 0, BuildingBlock: VETTIZ_charged_linker_0, # of connection points: 3
#     Node 7, Type 0, BuildingBlock: VETTIZ_charged_linker_0, # of connection points: 3
#     Node 8, Type 1, BuildingBlock: BETGAK_clean_sbu_0, # of connection points: 6
#     Node 9, Type 1, BuildingBlock: BETGAK_clean_sbu_0, # of connection points: 6
#     Node 10, Type 1, BuildingBlock: BETGAK_clean_sbu_0, # of connection points: 6
#     Node 11, Type 1, BuildingBlock: BETGAK_clean_sbu_0, # of connection points: 6
#     Edge 12, Type (0, 1), BuildingBlock: XUDNAN_clean_linker_2, # of connection points: 2
#     Edge 13, Type (0, 1), BuildingBlock: XUDNAN_clean_linker_2, # of connection points: 2
#     Edge 14, Type (0, 1), BuildingBlock: XUDNAN_clean_linker_2, # of connection points: 2
#     Edge 15, Type (0, 1), BuildingBlock: XUDNAN_clean_linker_2, # of connection points: 2
#     Edge 16, Type (0, 1), BuildingBlock: XUDNAN_clean_linker_2, # of connection points: 2
#     Edge 17, Type (0, 1), BuildingBlock: XUDNAN_clean_linker_2, # of connection points: 2
#     Edge 18, Type (0, 1), BuildingBlock: XUDNAN_clean_linker_2, # of connection points: 2
#     Edge 19, Type (0, 1), BuildingBlock: XUDNAN_clean_linker_2, # of connection points: 2
#     Edge 20, Type (0, 1), BuildingBlock: XUDNAN_clean_linker_2, # of connection points: 2
#     Edge 21, Type (0, 1), BuildingBlock: XUDNAN_clean_linker_2, # of connection points: 2
#     Edge 22, Type (0, 1), BuildingBlock: XUDNAN_clean_linker_2, # of connection points: 2
#     Edge 23, Type (0, 1), BuildingBlock: XUDNAN_clean_linker_2, # of connection points: 2
#     Edge 24, Type (0, 1), BuildingBlock: XUDNAN_clean_linker_2, # of connection points: 2
#     Edge 25, Type (0, 1), BuildingBlock: XUDNAN_clean_linker_2, # of connection points: 2
#     Edge 26, Type (0, 1), BuildingBlock: XUDNAN_clean_linker_2, # of connection points: 2
#     Edge 27, Type (0, 1), BuildingBlock: XUDNAN_clean_linker_2, # of connection points: 2
#     Edge 28, Type (0, 1), BuildingBlock: XUDNAN_clean_linker_2, # of connection points: 2
#     Edge 29, Type (0, 1), BuildingBlock: XUDNAN_clean_linker_2, # of connection points: 2
#     Edge 30, Type (0, 1), BuildingBlock: XUDNAN_clean_linker_2, # of connection points: 2
#     Edge 31, Type (0, 1), BuildingBlock: XUDNAN_clean_linker_2, # of connection points: 2
#     Edge 32, Type (0, 1), BuildingBlock: XUDNAN_clean_linker_2, # of connection points: 2
#     Edge 33, Type (0, 1), BuildingBlock: XUDNAN_clean_linker_2, # of connection points: 2
#     Edge 34, Type (0, 1), BuildingBlock: XUDNAN_clean_linker_2, # of connection points: 2
#     Edge 35, Type (0, 1), BuildingBlock: XUDNAN_clean_linker_2, # of connection points: 2
# Relax obj value: 0.461
# Max RMSD: 0.272
# Mean RMSD: 0.256
data_MOF--net-zzz--node1-BETGAK_clean_sbu_0--node2-VETTIZ_charged_linker_0--edge1-XUDNAN_clean_linker_2
_symmetry_space_group_name_H-M    P1
_symmetry_Int_Tables_number       1
_symmetry_cell_setting            triclinic
loop_
_symmetry_equiv_pos_as_xyz
'x, y, z'
_cell_length_a     58.64567
_cell_length_b     58.738024
_cell_length_c     18.261454
_cell_angle_alpha  90.029707
_cell_angle_beta   90.146648
_cell_angle_gamma 90.022287
loop_
_atom_site_label
_atom_site_type_symbol
_atom_site_fract_x
_atom_site_fract_y
_atom_site_fract_z
_atom_type_partial_charge
C0 C 0.7952 0.54461 0.36871 0.0
C1 C 0.81862 0.55081 0.37675 0.0
C2 C 0.82853 0.56411 0.32101 0.0
C3 C 0.79295 0.56558 0.25371 0.0
C4 C 0.78265 0.55226 0.30642 0.0
C5 C 0.75773 0.54773 0.28606 0.0
H6 H 0.67496 0.56083 0.01898 0.0
C7 C 0.77628 0.57075 0.19526 0.0
C8 C 0.75526 0.56043 0.21282 0.0
H9 H 0.66501 0.52623 0.22509 0.0
H10 H 0.70445 0.53521 0.26003 0.0
H11 H 0.69855 0.60385 0.08764 0.0
H12 H 0.72067 0.54242 0.98385 0.0
H13 H 0.74055 0.56274 0.95543 0.0
H14 H 0.71085 0.56646 0.93238 0.0
H15 H 0.69665 0.59922 0.99074 0.0
H16 H 0.72152 0.61202 0.03226 0.0
C17 C 0.74229 0.55803 0.34554 0.0
C18 C 0.75426 0.5219 0.27681 0.0
C19 C 0.80477 0.61038 0.96653 0.0
C20 C 0.79496 0.61288 0.89665 0.0
C21 C 0.77127 0.61036 0.88852 0.0
C22 C 0.75791 0.6032 0.94768 0.0
C23 C 0.7685 0.5979 0.01498 0.0
C24 C 0.7914 0.60235 0.02425 0.0
C25 C 0.80026 0.59386 0.09659 0.0
C26 C 0.77896 0.5831 0.1289 0.0
C27 C 0.76059 0.58545 0.08078 0.0
C28 C 0.80825 0.61485 0.14142 0.0
C29 C 0.8191 0.57583 0.08102 0.0
C30 C 0.68061 0.55555 0.07282 0.0
C31 C 0.66625 0.54324 0.11943 0.0
C32 C 0.67548 0.53585 0.18744 0.0
C33 C 0.69836 0.54111 0.20785 0.0
C34 C 0.71222 0.55388 0.15989 0.0
C35 C 0.7028 0.5609 0.09408 0.0
C36 C 0.71875 0.57445 0.04837 0.0
C37 C 0.73956 0.57486 0.09676 0.0
C38 C 0.73636 0.56254 0.16247 0.0
C39 C 0.70842 0.59862 0.03845 0.0
C40 C 0.72292 0.56107 0.97599 0.0
H41 H 0.82497 0.58171 0.2219 0.0
H42 H 0.78689 0.53428 0.4098 0.0
H43 H 0.76713 0.51481 0.23845 0.0
H44 H 0.7373 0.51777 0.25413 0.0
H45 H 0.75612 0.51304 0.33022 0.0
H46 H 0.74709 0.57605 0.35622 0.0
H47 H 0.74398 0.54842 0.39767 0.0
H48 H 0.72418 0.55801 0.3291 0.0
H49 H 0.82308 0.61157 0.97387 0.0
H50 H 0.76346 0.61194 0.83491 0.0
H51 H 0.74015 0.60048 0.93679 0.0
H52 H 0.79779 0.63013 0.12836 0.0
H53 H 0.8263 0.61914 0.12932 0.0
H54 H 0.80619 0.61254 0.20115 0.0
H55 H 0.81603 0.56693 0.02806 0.0
H56 H 0.81951 0.56192 0.12171 0.0
H57 H 0.83624 0.58382 0.07807 0.0
H58 H 0.84646 0.56847 0.32236 0.0
C59 C 0.81594 0.57166 0.2611 0.0
C60 C 0.11815 0.78112 0.03225 0.0
C61 C 0.12861 0.80266 0.03907 0.0
C62 C 0.12403 0.81561 0.10273 0.0
C63 C 0.09571 0.78834 0.14138 0.0
C64 C 0.10153 0.77454 0.08328 0.0
C65 C 0.0862 0.75405 0.07806 0.0
H66 H 0.99322 0.69504 0.18705 0.0
C67 C 0.0753 0.77865 0.17702 0.0
C68 C 0.06972 0.75844 0.14095 0.0
H69 H 0.04188 0.67967 0.01654 0.0
H70 H 0.06321 0.71304 0.04635 0.0
H71 H 0.03244 0.71564 0.31316 0.0
H72 H 0.99235 0.7535 0.15377 0.0
H73 H 0.98978 0.76378 0.24488 0.0
H74 H 0.97879 0.73613 0.22219 0.0
H75 H 1.00177 0.71492 0.31493 0.0
H76 H 0.01717 0.73889 0.35122 0.0
C77 C 0.10104 0.7326 0.09169 0.0
C78 C 0.074 0.75475 1.00243 0.0
C79 C 0.03698 0.82651 0.36983 0.0
C80 C 0.01771 0.82423 0.41418 0.0
C81 C 1.00482 0.80388 0.4087 0.0
C82 C 1.01085 0.78655 0.35803 0.0
C83 C 0.03018 0.78942 0.31307 0.0
C84 C 0.04291 0.80915 0.32104 0.0
C85 C 0.06334 0.80971 0.27264 0.0
C86 C 0.06091 0.78731 0.23262 0.0
C87 C 0.04137 0.77516 0.2551 0.0
C88 C 0.08493 0.8101 0.3222 0.0
C89 C 0.06077 0.83049 0.22054 0.0
C90 C 1.00848 0.69911 0.15652 0.0
C91 C 1.01585 0.68476 0.0987 0.0
C92 C 0.03577 0.6905 0.06041 0.0
C93 C 0.04822 0.70994 0.07811 0.0
C94 C 0.0407 0.72436 0.13437 0.0
C95 C 0.02115 0.7191 0.173 0.0
C96 C 1.01614 0.73726 0.23041 0.0
C97 C 0.03598 0.75394 0.21955 0.0
C98 C 0.05018 0.74591 0.16282 0.0
C99 C 0.0168 0.72616 0.30681 0.0
C100 C 0.99296 0.7483 0.21231 0.0
H101 H 0.1046 0.81981 0.19852 0.0
H102 H 0.12148 0.77032 0.98546 0.0
H103 H 0.07094 0.77261 0.98453 0.0
H104 H 0.05684 0.747 1.00313 0.0
H105 H 0.08439 0.74633 0.9595 0.0
H106 H 0.11555 0.73641 0.12912 0.0
H107 H 0.10831 0.726 0.03975 0.0
H108 H 0.09158 0.7188 0.11947 0.0
H109 H 0.04768 0.84151 0.37385 0.0
H110 H 0.98997 0.80151 0.44297 0.0
H111 H 1.00041 0.77155 0.35585 0.0
H112 H 0.08179 0.80145 0.37545 0.0
H113 H 0.09036 0.82781 0.3345 0.0
H114 H 0.09943 0.80066 0.29814 0.0
H115 H 0.04253 0.83376 0.20719 0.0
H116 H 0.06889 0.82796 0.16671 0.0
H117 H 0.06774 0.84621 0.24596 0.0
H118 H 0.13127 0.83236 0.11084 0.0
C119 C 0.10793 0.80847 0.15385 0.0
C120 C 0.83319 1.00956 0.19869 0.0
C121 C 0.84832 0.02189 0.15224 0.0
C122 C 0.84111 0.0433 0.12569 0.0
C123 C 0.8035 0.03718 0.17461 0.0
C124 C 0.81087 0.01806 0.21116 0.0
C125 C 0.79154 1.00819 0.25721 0.0
H126 H 0.67621 1.00477 0.31277 0.0
C127 C 0.77868 0.03889 0.18106 0.0
C128 C 0.77152 0.0239 0.23649 0.0
H129 H 0.72428 1.01135 0.49194 0.0
H130 H 0.75503 0.017 0.40371 0.0
H131 H 0.69557 0.05066 0.24665 0.0
H132 H 0.70713 0.98063 0.18609 0.0
H133 H 0.70842 0.99681 0.10524 0.0
H134 H 0.68212 0.99565 0.15663 0.0
H135 H 0.6736 0.03182 0.21404 0.0
H136 H 0.69117 0.04714 0.15173 0.0
C137 C 0.79787 1.00952 0.33883 0.0
C138 C 0.78669 0.98343 0.23414 0.0
C139 C 0.73733 0.07063 0.95806 0.0
C140 C 0.71569 0.06614 0.9289 0.0
C141 C 0.70163 0.04973 0.96219 0.0
C142 C 0.70848 0.03891 0.02678 0.0
C143 C 0.72949 0.04476 0.05845 0.0
C144 C 0.74416 0.05919 0.02179 0.0
C145 C 0.76696 0.06102 0.0591 0.0
C146 C 0.76304 0.04592 0.12602 0.0
C147 C 0.74072 0.03736 0.1265 0.0
C148 C 0.77077 0.08611 0.08166 0.0
C149 C 0.78554 0.0518 1.00616 0.0
C150 C 0.69324 1.00675 0.33452 0.0
C151 C 0.69728 1.00698 0.41074 0.0
C152 C 0.72026 1.00992 0.4343 0.0
C153 C 0.73831 1.01267 0.38356 0.0
C154 C 0.73367 1.01217 0.3082 0.0
C155 C 0.71121 1.01052 0.28517 0.0
C156 C 0.70842 0.01774 0.20645 0.0
C157 C 0.73258 0.02518 0.18815 0.0
C158 C 0.74766 0.01987 0.2453 0.0
C159 C 0.69127 0.03784 0.20392 0.0
C160 C 0.70098 0.99675 0.1609 0.0
H161 H 0.81428 0.06746 0.11678 0.0
H162 H 0.83838 0.99353 0.22272 0.0
H163 H 0.78287 0.98245 0.17454 0.0
H164 H 0.77178 0.97659 0.26448 0.0
H165 H 0.80161 0.97236 0.24598 0.0
H166 H 0.79728 0.0274 0.35876 0.0
H167 H 0.81537 1.00283 0.34814 0.0
H168 H 0.78628 0.99886 0.37217 0.0
H169 H 0.74842 0.08308 0.93273 0.0
H170 H 0.68481 0.04619 0.94023 0.0
H171 H 0.69688 0.027 0.05103 0.0
H172 H 0.75499 0.09344 0.10575 0.0
H173 H 0.77557 0.09661 0.0335 0.0
H174 H 0.78414 0.0879 0.12404 0.0
H175 H 0.77968 0.0514 0.94824 0.0
H176 H 0.79054 0.03408 0.02024 0.0
H177 H 0.80094 0.06271 1.00549 0.0
H178 H 0.85208 0.05359 0.09151 0.0
C179 C 0.81895 0.05107 0.1377 0.0
C180 C 0.53046 0.71995 0.36645 0.0
C181 C 0.53722 0.6967 0.37354 0.0
C182 C 0.55118 0.68742 0.3184 0.0
C183 C 0.55145 0.72302 0.25184 0.0
C184 C 0.53796 0.73288 0.30495 0.0
C185 C 0.53313 0.75779 0.2859 0.0
H186 H 0.5445 0.84187 0.02292 0.0
C187 C 0.55577 0.73975 0.19317 0.0
C188 C 0.54528 0.76055 0.21187 0.0
H189 H 0.51176 0.85061 0.23252 0.0
H190 H 0.5205 0.8109 0.26347 0.0
H191 H 0.58803 0.81569 0.08196 0.0
H192 H 0.52385 0.79688 0.98726 0.0
H193 H 0.54263 0.7758 0.95663 0.0
H194 H 0.54756 0.80514 0.93166 0.0
H195 H 0.5809 0.81984 0.98728 0.0
H196 H 0.59396 0.79387 0.01903 0.0
C197 C 0.54386 0.77302 0.34537 0.0
C198 C 0.50718 0.76117 0.27866 0.0
C199 C 0.59146 0.71088 0.9589 0.0
C200 C 0.59202 0.72013 0.88799 0.0
C201 C 0.58872 0.74367 0.87889 0.0
C202 C 0.58277 0.75735 0.93882 0.0
C203 C 0.57938 0.7472 1.00793 0.0
C204 C 0.58446 0.72449 0.01739 0.0
C205 C 0.57762 0.71588 0.0916 0.0
C206 C 0.56704 0.73709 0.12493 0.0
C207 C 0.56823 0.75529 0.07596 0.0
C208 C 0.59968 0.70869 0.13261 0.0
C209 C 0.55974 0.69654 0.08041 0.0
C210 C 0.53961 0.83578 0.0766 0.0
C211 C 0.52792 0.84989 0.12559 0.0
C212 C 0.52096 0.8403 0.19334 0.0
C213 C 0.52611 0.81729 0.21144 0.0
C214 C 0.53825 0.80363 0.16125 0.0
C215 C 0.54469 0.81333 0.09534 0.0
C216 C 0.55705 0.79726 0.04646 0.0
C217 C 0.55794 0.7763 0.09389 0.0
C218 C 0.54663 0.77943 0.1615 0.0
C219 C 0.58122 0.80709 0.03217 0.0
C220 C 0.54224 0.79358 0.97659 0.0
H221 H 0.5689 0.69174 0.22003 0.0
H222 H 0.51977 0.72781 0.40753 0.0
H223 H 0.49983 0.74839 0.24035 0.0
H224 H 0.50283 0.77815 0.2569 0.0
H225 H 0.49871 0.75914 0.33263 0.0
H226 H 0.56196 0.76818 0.3548 0.0
H227 H 0.53457 0.77119 0.398 0.0
H228 H 0.54381 0.79116 0.32972 0.0
H229 H 0.59328 0.6927 0.96727 0.0
H230 H 0.58889 0.75107 0.82456 0.0
H231 H 0.57955 0.77497 0.92768 0.0
H232 H 0.59857 0.71137 0.19249 0.0
H233 H 0.61451 0.71921 0.11538 0.0
H234 H 0.604 0.69061 0.12143 0.0
H235 H 0.54985 0.69898 0.0289 0.0
H236 H 0.54653 0.6961 0.12335 0.0
H237 H 0.56808 0.6796 0.07721 0.0
H238 H 0.55615 0.66967 0.31949 0.0
C239 C 0.55845 0.70034 0.25913 0.0
C240 C 0.33776 0.50819 0.21688 0.0
C241 C 0.35215 0.52011 0.26718 0.0
C242 C 0.34356 0.54003 0.30075 0.0
C243 C 0.30612 0.53099 0.25672 0.0
C244 C 0.31464 0.51493 0.20977 0.0
C245 C 0.29522 0.50512 0.16337 0.0
H246 H 0.17801 0.49818 0.13148 0.0
C247 C 0.28148 0.5288 0.25939 0.0
C248 C 0.27427 0.5173 0.19602 0.0
H249 H 0.22029 0.52036 0.95206 0.0
H250 H 0.25377 0.52059 0.0339 0.0
H251 H 0.21509 0.46444 0.22064 0.0
H252 H 0.19635 0.53517 0.22976 0.0
H253 H 0.1976 0.52468 0.31986 0.0
H254 H 0.1778 0.5123 0.25663 0.0
H255 H 0.19047 0.47387 0.27014 0.0
H256 H 0.21836 0.47274 0.31252 0.0
C257 C 0.29362 0.47917 0.17426 0.0
C258 C 0.29896 0.51099 0.08236 0.0
C259 C 0.25071 0.52598 0.51912 0.0
C260 C 0.23022 0.51762 0.5482 0.0
C261 C 0.21472 0.50636 0.50092 0.0
C262 C 0.21891 0.50467 0.42604 0.0
C263 C 0.23856 0.51468 0.39722 0.0
C264 C 0.2545 0.52438 0.44354 0.0
C265 C 0.2754 0.53219 0.40329 0.0
C266 C 0.26835 0.52704 0.32425 0.0
C267 C 0.24694 0.51652 0.32182 0.0
C268 C 0.29545 0.51711 0.42979 0.0
C269 C 0.2795 0.55796 0.41705 0.0
C270 C 0.19459 0.50167 0.10807 0.0
C271 C 0.19642 0.50845 0.03452 0.0
C272 C 0.21835 0.51448 1.00789 0.0
C273 C 0.23779 0.51408 0.05411 0.0
C274 C 0.23543 0.50731 0.12735 0.0
C275 C 0.21391 0.50207 0.1538 0.0
C276 C 0.21341 0.50179 0.23627 0.0
C277 C 0.23754 0.50946 0.25401 0.0
C278 C 0.25093 0.51057 0.19076 0.0
C279 C 0.20896 0.47702 0.26171 0.0
C280 C 0.19532 0.51925 0.26261 0.0
H281 H 0.31405 0.5601 0.32455 0.0
H282 H 0.34402 0.49347 0.18742 0.0
H283 H 0.29707 0.52959 0.07295 0.0
H284 H 0.28669 0.50167 0.04711 0.0
H285 H 0.31636 0.50584 0.06491 0.0
H286 H 0.29159 0.47496 0.23325 0.0
H287 H 0.30923 0.47059 0.15368 0.0
H288 H 0.27872 0.47216 0.14401 0.0
H289 H 0.26311 0.53437 0.55395 0.0
H290 H 0.19853 0.50002 0.52057 0.0
H291 H 0.20619 0.49647 0.39302 0.0
H292 H 0.29265 0.49902 0.41405 0.0
H293 H 0.29719 0.51793 0.49035 0.0
H294 H 0.31205 0.52249 0.40782 0.0
H295 H 0.26731 0.56535 0.45704 0.0
H296 H 0.27744 0.56802 0.36595 0.0
H297 H 0.29684 0.56119 0.43937 0.0
H298 H 0.354 0.55006 0.33761 0.0
C299 C 0.3205 0.5456 0.29518 0.0
C300 C 0.89264 0.24229 0.42333 0.0
C301 C 0.88201 0.2213 0.40866 0.0
C302 C 0.88398 0.21181 0.33803 0.0
C303 C 0.91157 0.24065 0.30557 0.0
C304 C 0.90735 0.25165 0.37092 0.0
C305 C 0.92223 0.27229 0.38049 0.0
H306 H 1.01241 0.33632 0.2771 0.0
C307 C 0.93155 0.25156 0.27106 0.0
C308 C 0.93765 0.27035 0.31374 0.0
H309 H 0.96278 0.34849 0.44745 0.0
H310 H 0.9432 0.31424 0.41566 0.0
H311 H 1.01453 0.27823 0.31399 0.0
H312 H 0.97657 0.31429 0.14538 0.0
H313 H 0.99393 0.29183 0.11108 0.0
H314 H 1.00713 0.31637 0.15174 0.0
H315 H 0.02895 0.29394 0.24342 0.0
H316 H 0.01771 0.26593 0.2263 0.0
C317 C 0.93581 0.26963 0.45306 0.0
C318 C 0.90667 0.29367 0.37698 0.0
C319 C 0.97149 0.20683 0.07347 0.0
C320 C 0.99323 0.20769 0.04188 0.0
C321 C 1.00706 0.22695 0.05713 0.0
C322 C 0.99949 0.24449 0.10454 0.0
C323 C 0.97805 0.24263 0.13868 0.0
C324 C 0.96451 0.22398 0.12187 0.0
C325 C 0.94315 0.22318 0.16626 0.0
C326 C 0.946 0.24415 0.21369 0.0
C327 C 0.96627 0.25606 0.19727 0.0
C328 C 0.94316 0.20068 0.21155 0.0
C329 C 0.92266 0.22581 0.11313 0.0
C330 C 0.99723 0.33144 0.30688 0.0
C331 C 0.98907 0.34517 0.36518 0.0
C332 C 0.96944 0.33823 0.403 0.0
C333 C 0.95794 0.31833 0.38397 0.0
C334 C 0.96612 0.30468 0.32675 0.0
C335 C 0.9855 0.31101 0.28893 0.0
C336 C 0.99164 0.29316 0.23165 0.0
C337 C 0.97175 0.27631 0.23811 0.0
C338 C 0.95725 0.28329 0.29532 0.0
C339 C 1.01449 0.28221 0.25443 0.0
C340 C 0.99246 0.30446 0.1556 0.0
H341 H 0.90054 0.21258 0.23542 0.0
H342 H 0.89111 0.25014 0.47677 0.0
H343 H 0.88998 0.28997 0.35041 0.0
H344 H 0.9142 0.30743 0.34325 0.0
H345 H 0.90299 0.30039 0.43257 0.0
H346 H 0.94181 0.25178 0.45984 0.0
H347 H 0.92504 0.27391 0.50108 0.0
H348 H 0.95139 0.28013 0.45533 0.0
H349 H 0.96056 0.19219 0.06499 0.0
H350 H 0.02387 0.22828 0.03319 0.0
H351 H 1.01071 0.25863 0.11403 0.0
H352 H 0.96043 0.19291 0.21517 0.0
H353 H 0.93168 0.18771 0.18688 0.0
H354 H 0.93828 0.20329 0.26938 0.0
H355 H 0.92661 0.23825 0.069 0.0
H356 H 0.90728 0.23264 0.14029 0.0
H357 H 0.91839 0.20934 0.08651 0.0
H358 H 0.87599 0.19567 0.32496 0.0
C359 C 0.89864 0.22143 0.28634 0.0
C360 C 0.29667 1.0007 0.06548 0.0
C361 C 0.31558 0.98924 0.03341 0.0
C362 C 0.31791 0.9657 0.04593 0.0
C363 C 0.28584 0.96601 0.12894 0.0
C364 C 0.28162 0.98848 0.11201 0.0
C365 C 0.25985 0.9966 0.14946 0.0
H366 H 0.17795 0.97262 0.40976 0.0
C367 C 0.2697 0.9586 0.18596 0.0
C368 C 0.25369 0.97607 0.19765 0.0
H369 H 0.17914 0.03146 0.26821 0.0
H370 H 0.21414 0.01769 0.2116 0.0
H371 H 0.19259 0.934 0.29072 0.0
H372 H 0.22729 0.97531 0.4491 0.0
H373 H 0.24476 0.95128 0.44 0.0
H374 H 0.21595 0.94807 0.47339 0.0
H375 H 0.18937 0.9318 0.3883 0.0
H376 H 0.21143 0.91647 0.34105 0.0
C377 C 0.24174 1.00082 0.08961 0.0
C378 C 0.26515 0.01795 0.19552 0.0
C379 C 0.29371 0.89195 0.34245 0.0
C380 C 0.28736 0.88556 0.41358 0.0
C381 C 0.26631 0.89315 0.44134 0.0
C382 C 0.2529 0.90857 0.40129 0.0
C383 C 0.26103 0.91706 0.3341 0.0
C384 C 0.28081 0.90819 0.30488 0.0
C385 C 0.28847 0.92078 0.23774 0.0
C386 C 0.27049 0.93938 0.23299 0.0
C387 C 0.25438 0.93697 0.28888 0.0
C388 C 0.28725 0.90417 0.17164 0.0
C389 C 0.31266 0.93049 0.25365 0.0
C390 C 0.1852 0.98233 0.3651 0.0
C391 C 0.17524 1.00292 0.34277 0.0
C392 C 0.18623 1.01543 0.28658 0.0
C393 C 0.20646 1.00734 0.25319 0.0
C394 C 0.21598 0.98651 0.2761 0.0
C395 C 0.20523 0.97457 0.33165 0.0
C396 C 0.218 0.9536 0.3535 0.0
C397 C 0.23713 0.95362 0.29802 0.0
C398 C 0.23645 0.97312 0.25282 0.0
C399 C 0.20208 0.93277 0.34341 0.0
C400 C 0.2269 0.95703 0.43308 0.0
H401 H 0.3064 0.93641 0.10087 0.0
H402 H 0.29387 0.01863 0.05512 0.0
H403 H 0.27997 1.01476 0.23218 0.0
H404 H 0.2507 0.02286 0.23075 0.0
H405 H 0.26935 0.03264 0.15968 0.0
H406 H 0.24144 0.98648 0.04979 0.0
H407 H 0.24556 0.01669 0.05889 0.0
H408 H 0.22434 1.00198 0.1119 0.0
H409 H 0.31 0.88672 0.32023 0.0
H410 H 0.26107 0.88842 0.4961 0.0
H411 H 0.23739 0.91427 0.42624 0.0
H412 H 0.27638 0.88907 0.18328 0.0
H413 H 0.30442 0.89772 0.15671 0.0
H414 H 0.27932 0.91221 0.12287 0.0
H415 H 0.31352 0.93775 0.3099 0.0
H416 H 0.31779 0.94448 0.21733 0.0
H417 H 0.32583 0.91697 0.24955 0.0
H418 H 0.33202 0.95627 0.02272 0.0
C419 C 0.30311 0.95411 0.09241 0.0
C420 C 0.51646 0.29908 0.01912 0.0
C421 C 0.5288 0.31668 0.98283 0.0
C422 C 0.55285 0.31595 0.98585 0.0
C423 C 0.55169 0.2843 0.07011 0.0
C424 C 0.52842 0.28267 0.06146 0.0
C425 C 0.51914 0.26223 0.1036 0.0
H426 H 0.53845 0.18915 0.39025 0.0
C427 C 0.55903 0.26857 0.12812 0.0
C428 C 0.54046 0.25441 0.14614 0.0
H429 H 0.49199 0.17552 0.21157 0.0
H430 H 0.50516 0.21031 0.14987 0.0
H431 H 0.57947 0.19815 0.28767 0.0
H432 H 0.53325 0.24252 0.39998 0.0
H433 H 0.55851 0.25837 0.39235 0.0
H434 H 0.55852 0.23207 0.44373 0.0
H435 H 0.57855 0.20179 0.3853 0.0
H436 H 0.59571 0.21994 0.32874 0.0
C437 C 0.51052 0.24426 0.04807 0.0
C438 C 0.5001 0.26981 0.15609 0.0
C439 C 0.62698 0.29528 0.27703 0.0
C440 C 0.63022 0.29499 0.35359 0.0
C441 C 0.61919 0.27768 0.39403 0.0
C442 C 0.60337 0.26312 0.36055 0.0
C443 C 0.59772 0.26633 0.28648 0.0
C444 C 0.60945 0.28226 0.24598 0.0
C445 C 0.59864 0.28635 0.17224 0.0
C446 C 0.57812 0.27038 0.17606 0.0
C447 C 0.57831 0.25817 0.24186 0.0
C448 C 0.61571 0.2785 0.11302 0.0
C449 C 0.59181 0.31198 0.16598 0.0
C450 C 0.53067 0.19356 0.33832 0.0
C451 C 0.51418 0.17933 0.30622 0.0
C452 C 0.50445 0.18624 0.2386 0.0
C453 C 0.51177 0.20646 0.20315 0.0
C454 C 0.52862 0.22011 0.23601 0.0
C455 C 0.53808 0.21311 0.30174 0.0
C456 C 0.55834 0.22711 0.32352 0.0
C457 C 0.56068 0.24245 0.25737 0.0
C458 C 0.54242 0.23954 0.20807 0.0
C459 C 0.57918 0.21105 0.33231 0.0
C460 C 0.55203 0.24066 0.39368 0.0
H461 H 0.58245 0.29987 0.02759 0.0
H462 H 0.49806 0.29833 0.01549 0.0
H463 H 0.50633 0.28341 0.1935 0.0
H464 H 0.4942 0.25526 0.18993 0.0
H465 H 0.48521 0.27646 0.125 0.0
H466 H 0.52418 0.23195 0.03369 0.0
H467 H 0.50458 0.25233 0.99639 0.0
H468 H 0.49552 0.23487 0.06897 0.0
H469 H 0.63584 0.30737 0.24269 0.0
H470 H 0.62112 0.27639 0.45276 0.0
H471 H 0.59508 0.25093 0.39502 0.0
H472 H 0.62375 0.26204 0.12859 0.0
H473 H 0.62953 0.29127 0.10596 0.0
H474 H 0.60741 0.27545 0.0595 0.0
H475 H 0.57304 0.31433 0.16581 0.0
H476 H 0.5991 0.32007 0.11637 0.0
H477 H 0.59789 0.32251 0.21264 0.0
H478 H 0.56312 0.3287 0.95873 0.0
C479 C 0.56422 0.29967 0.02789 0.0
La480 La 0.02907 1.00677 0.8026 0.0
La481 La 0.9953 0.01795 0.70344 0.0
C482 C 0.05654 0.98736 0.88862 0.0
C483 C 0.07207 0.96793 0.87683 0.0
C484 C 0.0957 0.97091 0.88495 0.0
C485 C 0.11076 0.95315 0.86857 0.0
C486 C 0.10242 0.93205 0.8438 0.0
C487 C 0.07871 0.92916 0.8359 0.0
C488 C 0.06374 0.94688 0.85198 0.0
C489 C 0.04613 0.02413 0.6791 0.0
C490 C 1.01181 0.96883 0.69125 0.0
C491 C 0.96877 0.03599 0.61125 0.0
C492 C 0.95103 0.05348 0.61613 0.0
C493 C 0.94859 0.06671 0.6797 0.0
C494 C 0.93196 0.08371 0.68302 0.0
C495 C 0.91729 0.08744 0.62321 0.0
C496 C 0.91936 0.0736 0.56065 0.0
C497 C 0.93614 0.05678 0.55716 0.0
C498 C 0.97807 1.00054 0.82641 0.0
C499 C 1.01262 0.05591 0.81714 0.0
O500 O 0.06151 1.00561 0.85152 0.0
O501 O 0.03464 0.98314 0.88728 0.0
O502 O 0.05226 0.0296 0.74449 0.0
O503 O 0.03041 1.00957 0.68395 0.0
O504 O 0.01937 0.973 0.75811 0.0
O505 O 1.00494 0.98603 0.65066 0.0
O506 O 0.96432 0.01713 0.64588 0.0
O507 O 0.98969 0.04283 0.62273 0.0
O508 O 0.97172 0.99545 0.76088 0.0
O509 O 0.99389 1.01505 0.82215 0.0
O510 O 1.0031 0.05186 0.75252 0.0
O511 O 0.0213 0.03892 0.85495 0.0
H512 H 0.10254 0.98709 0.90327 0.0
H513 H 0.1289 0.95595 0.87523 0.0
H514 H 0.07158 0.91298 0.81897 0.0
H515 H 0.04563 0.94401 0.84479 0.0
H516 H 0.95969 0.06405 0.72634 0.0
H517 H 0.93074 0.09411 0.73186 0.0
H518 H 0.9086 0.07635 0.51319 0.0
H519 H 0.9377 0.04658 0.50796 0.0
La520 La 0.51478 0.0342 0.77955 0.0
La521 La 0.49689 0.99941 0.67385 0.0
C522 C 0.52637 0.06351 0.87198 0.0
C523 C 0.54258 0.08239 0.8615 0.0
C524 C 0.54283 0.09455 0.79501 0.0
C525 C 0.56194 0.10725 0.77505 0.0
C526 C 0.58093 0.10826 0.82171 0.0
C527 C 0.57952 0.0983 0.89173 0.0
C528 C 0.56052 0.08534 0.91129 0.0
C529 C 0.5111 0.04884 0.64196 0.0
C530 C 0.54998 1.00926 0.68234 0.0
C531 C 0.47953 0.97901 0.56653 0.0
C532 C 0.46297 0.96027 0.56578 0.0
C533 C 0.45846 0.94822 0.50122 0.0
C534 C 0.44213 0.93083 0.50081 0.0
C535 C 0.43007 0.92534 0.56504 0.0
C536 C 0.43515 0.93711 0.63005 0.0
C537 C 0.45149 0.95437 0.63043 0.0
C538 C 0.50662 0.97823 0.79997 0.0
C539 C 0.46273 0.01796 0.79219 0.0
O540 O 0.50748 0.0648 0.83376 0.0
O541 O 0.53544 0.04309 0.86936 0.0
O542 O 0.52745 0.05353 0.6865 0.0
O543 O 0.49704 0.03621 0.67527 0.0
O544 O 0.54656 0.01725 0.74927 0.0
O545 O 0.53249 1.00481 0.63826 0.0
O546 O 0.49956 0.97391 0.59368 0.0
O547 O 0.47179 0.99838 0.59198 0.0
O548 O 0.49823 0.96851 0.74266 0.0
O549 O 0.50901 0.99895 0.78454 0.0
O550 O 0.46485 1.00637 0.73048 0.0
O551 O 0.48033 0.02849 0.82284 0.0
H552 H 0.52908 0.09287 0.75575 0.0
H553 H 0.56258 0.11481 0.72097 0.0
H554 H 0.59403 0.09855 0.9286 0.0
H555 H 0.5607 0.07612 0.96266 0.0
H556 H 0.46726 0.9525 0.45098 0.0
H557 H 0.43835 0.92229 0.44963 0.0
H558 H 0.42624 0.93319 0.6804 0.0
H559 H 0.4549 0.96336 0.68107 0.0
La560 La 0.4859 0.51863 0.75504 0.0
La561 La 0.52204 0.50626 0.65949 0.0
C562 C 0.46396 0.54142 0.84668 0.0
C563 C 0.46995 0.56535 0.86394 0.0
C564 C 0.46351 0.58273 0.81496 0.0
C565 C 0.4779 0.60138 0.80365 0.0
C566 C 0.49878 0.60273 0.84111 0.0
C567 C 0.50276 0.58787 0.90003 0.0
C568 C 0.48823 0.56949 0.91216 0.0
C569 C 0.47083 0.50123 0.63026 0.0
C570 C 0.50779 0.55624 0.65123 0.0
C571 C 0.54858 0.48853 0.56729 0.0
C572 C 0.56647 0.47106 0.567 0.0
C573 C 0.58567 0.47435 0.52282 0.0
C574 C 0.60251 0.45764 0.5187 0.0
C575 C 0.60036 0.43727 0.5585 0.0
C576 C 0.58162 0.4345 0.60562 0.0
C577 C 0.56481 0.45132 0.60992 0.0
C578 C 0.53693 0.52272 0.78734 0.0
C579 C 0.49989 0.46794 0.76544 0.0
O580 O 0.45654 0.53771 0.78007 0.0
O581 O 0.47945 0.52644 0.86525 0.0
O582 O 0.46204 0.49736 0.6941 0.0
O583 O 0.48721 0.5151 0.63731 0.0
O584 O 0.49899 0.55191 0.71625 0.0
O585 O 0.51498 0.53927 0.61036 0.0
O586 O 0.55336 0.50689 0.60443 0.0
O587 O 0.52756 0.48173 0.57765 0.0
O588 O 0.54589 0.52688 0.72434 0.0
O589 O 0.52057 0.5092 0.77687 0.0
O590 O 0.51396 0.47269 0.71046 0.0
O591 O 0.48741 0.48408 0.79554 0.0
H592 H 0.44906 0.5805 0.77859 0.0
H593 H 0.47383 0.61327 0.76031 0.0
H594 H 0.51812 0.58929 0.9328 0.0
H595 H 0.49319 0.55692 0.95257 0.0
H596 H 0.5874 0.48966 0.49022 0.0
H597 H 0.61686 0.46032 0.4825 0.0
H598 H 0.57933 0.4189 0.63632 0.0
H599 H 0.55026 0.44863 0.64514 0.0
La600 La 0.99257 0.50003 0.78886 0.0
La601 La 1.00659 0.53137 0.67562 0.0
C602 C 0.96852 0.48405 0.88936 0.0
C603 C 0.94474 0.49164 0.90113 0.0
C604 C 0.92761 0.48449 0.85203 0.0
C605 C 0.90999 0.49934 0.83276 0.0
C606 C 0.90935 0.52136 0.86252 0.0
C607 C 0.92369 0.52651 0.92204 0.0
C608 C 0.94108 0.51159 0.942 0.0
C609 C 1.00876 0.47887 0.67233 0.0
C610 C 0.95575 0.52021 0.67304 0.0
C611 C 0.03004 0.55004 0.57813 0.0
C612 C 0.05379 0.55802 0.58532 0.0
C613 C 0.05978 0.57422 0.63904 0.0
C614 C 0.08231 0.5759 0.66364 0.0
C615 C 0.09889 0.56109 0.63589 0.0
C616 C 0.09343 0.54699 0.57617 0.0
C617 C 0.07108 0.54558 0.55074 0.0
C618 C 0.99011 0.55237 0.79274 0.0
C619 C 0.04365 0.51344 0.79545 0.0
O620 O 0.97233 0.47308 0.82819 0.0
O621 O 0.98393 0.49983 0.90028 0.0
O622 O 1.01196 0.47243 0.73956 0.0
O623 O 0.99617 0.49641 0.67227 0.0
O624 O 0.95981 0.51191 0.73947 0.0
O625 O 0.97269 0.52683 0.63102 0.0
O626 O 1.01475 0.56096 0.61655 0.0
O627 O 0.02757 0.52793 0.58349 0.0
O628 O 0.98705 0.55891 0.72568 0.0
O629 O 1.00281 0.53497 0.79187 0.0
O630 O 0.03897 0.52495 0.73468 0.0
O631 O 0.02755 0.50202 0.83 0.0
H632 H 0.92943 0.46881 0.82134 0.0
H633 H 0.89838 0.49438 0.78947 0.0
H634 H 0.92266 0.54285 0.94939 0.0
H635 H 0.95346 0.51721 0.9823 0.0
H636 H 0.04687 0.58422 0.66657 0.0
H637 H 0.08625 0.58717 0.70893 0.0
H638 H 0.10621 0.53596 0.55219 0.0
H639 H 0.06697 0.53318 0.50874 0.0
H640 H 0.13785 0.97824 0.39105 0.0
H641 H 0.16526 0.04685 0.38457 0.0
H642 H 0.13296 0.06024 0.45975 0.0
H643 H 0.07686 0.99424 0.38736 0.0
H644 H 0.06887 0.97187 0.4498 0.0
H645 H 0.09287 0.96805 0.38956 0.0
H646 H 0.11873 0.95923 0.50113 0.0
H647 H 0.09481 0.96301 0.56148 0.0
H648 H 0.12044 0.97944 0.57531 0.0
H649 H 0.10029 0.06535 0.54834 0.0
H650 H 0.06895 0.06205 0.63819 0.0
H651 H 0.06146 0.99057 0.58487 0.0
C652 C 0.13698 0.99616 0.4047 0.0
C653 C 0.15427 1.01148 0.3813 0.0
C654 C 0.15222 0.03478 0.40043 0.0
C655 C 0.13393 0.04254 0.44363 0.0
C656 C 0.11754 0.0269 0.46694 0.0
C657 C 0.11875 1.00421 0.4475 0.0
C658 C 0.09947 0.99071 0.4825 0.0
C659 C 0.08357 0.98062 0.42379 0.0
C660 C 0.10893 0.972 0.53311 0.0
C661 C 0.08751 1.00923 0.52608 0.0
C662 C 0.09823 0.03 0.51619 0.0
C663 C 0.0915 0.04929 0.55514 0.0
C664 C 0.07365 0.04728 0.60599 0.0
C665 C 0.06239 0.02626 0.6171 0.0
C666 C 0.06923 1.00705 0.57569 0.0
H667 H 0.54375 0.15007 0.37561 0.0
H668 H 0.47224 0.15773 0.31982 0.0
H669 H 0.46348 0.12261 0.39006 0.0
H670 H 0.54619 0.08808 0.37323 0.0
H671 H 0.56533 0.08699 0.45053 0.0
H672 H 0.5659 0.1111 0.38963 0.0
H673 H 0.5593 0.13825 0.49961 0.0
H674 H 0.55882 0.11423 0.56062 0.0
H675 H 0.5351 0.1337 0.55847 0.0
H676 H 0.46266 0.08736 0.47749 0.0
H677 H 0.46991 0.05758 0.5717 0.0
H678 H 0.54172 0.07483 0.56979 0.0
C679 C 0.52617 0.14448 0.3778 0.0
C680 C 0.50866 0.15698 0.34233 0.0
C681 C 0.48603 0.14851 0.34586 0.0
C682 C 0.48089 0.12857 0.38599 0.0
C683 C 0.49857 0.1171 0.422 0.0
C684 C 0.52079 0.12484 0.41775 0.0
C685 C 0.53671 0.11054 0.46424 0.0
C686 C 0.55458 0.09846 0.41654 0.0
C687 C 0.54814 0.12505 0.52427 0.0
C688 C 0.52003 0.09367 0.49661 0.0
C689 C 0.4981 0.09742 0.47141 0.0
C690 C 0.47983 0.08425 0.49682 0.0
C691 C 0.48408 0.06729 0.55011 0.0
C692 C 0.50638 0.0638 0.57788 0.0
C693 C 0.52449 0.07695 0.54936 0.0
H694 H 0.39212 0.54293 0.30176 0.0
H695 H 0.36111 0.47591 0.30489 0.0
H696 H 0.39192 0.46227 0.38601 0.0
H697 H 0.45361 0.52344 0.31829 0.0
H698 H 0.46058 0.54711 0.37711 0.0
H699 H 0.43902 0.55024 0.30723 0.0
H700 H 0.41024 0.56343 0.4057 0.0
H701 H 0.43152 0.56007 0.47586 0.0
H702 H 0.40466 0.54535 0.48338 0.0
H703 H 0.42095 0.45821 0.48725 0.0
H704 H 0.44809 0.46305 0.59009 0.0
H705 H 0.46145 0.53225 0.52076 0.0
C706 C 0.39224 0.52515 0.31731 0.0
C707 C 0.3741 0.51048 0.29614 0.0
C708 C 0.37492 0.48741 0.31862 0.0
C709 C 0.39231 0.47955 0.36552 0.0
C710 C 0.40909 0.49482 0.38888 0.0
C711 C 0.40949 0.51705 0.36422 0.0
C712 C 0.42811 0.53062 0.40279 0.0
C713 C 0.44642 0.5383 0.34808 0.0
C714 C 0.41802 0.55106 0.44438 0.0
C715 C 0.43748 0.51285 0.45529 0.0
C716 C 0.42635 0.49227 0.44602 0.0
C717 C 0.43024 0.47402 0.49339 0.0
C718 C 0.44566 0.47692 0.55176 0.0
C719 C 0.45731 0.49777 0.5622 0.0
C720 C 0.45341 0.51585 0.51247 0.0
H721 H 1.00812 0.3548 0.49773 0.0
H722 H 0.99149 0.38523 0.28867 0.0
H723 H 0.99856 0.42361 0.34108 0.0
H724 H 0.9804 0.39315 0.60473 0.0
H725 H 1.00078 0.39382 0.67873 0.0
H726 H 0.99856 0.36896 0.62177 0.0
H727 H 0.04152 0.37154 0.59043 0.0
H728 H 0.04402 0.39626 0.64846 0.0
H729 H 0.05293 0.39771 0.55418 0.0
H730 H 1.00083 0.45897 0.42428 0.0
H731 H 1.00162 0.48717 0.5256 0.0
H732 H 0.01826 0.43325 0.6785 0.0
C733 C 1.00703 0.36952 0.46215 0.0
C734 C 0.9998 0.36703 0.38858 0.0
C735 C 0.99766 0.38671 0.34442 0.0
C736 C 1.00143 0.40859 0.37411 0.0
C737 C 1.00762 0.41051 0.44792 0.0
C738 C 1.01091 0.39138 0.49081 0.0
C739 C 1.01586 0.39785 0.56972 0.0
C740 C 0.99782 0.38785 0.62175 0.0
C741 C 0.04002 0.3904 0.592 0.0
C742 C 1.01407 0.42357 0.56549 0.0
C743 C 1.00937 0.43065 0.49484 0.0
C744 C 1.00504 0.45358 0.47933 0.0
C745 C 1.00548 0.46951 0.53723 0.0
C746 C 1.0103 0.46254 0.6099 0.0
C747 C 1.01496 0.43927 0.62345 0.0
H748 H 0.88911 0.04437 0.12444 0.0
H749 H 0.8573 0.97777 0.11103 0.0
H750 H 0.89003 0.9638 0.03905 0.0
H751 H 0.9072 0.04628 0.94462 0.0
H752 H 0.93371 0.06086 0.96207 0.0
H753 H 0.91007 0.06456 0.02345 0.0
H754 H 0.93521 0.05158 0.13244 0.0
H755 H 0.95902 0.04796 0.07125 0.0
H756 H 0.94978 0.0246 0.12791 0.0
H757 H 0.92277 0.95891 0.95069 0.0
H758 H 0.95379 0.96284 0.86008 0.0
H759 H 0.96496 0.03245 0.92991 0.0
C760 C 0.88917 0.02668 0.10781 0.0
C761 C 0.87038 1.0122 0.12397 0.0
C762 C 0.87146 0.98917 0.10098 0.0
C763 C 0.88998 0.98112 0.05934 0.0
C764 C 0.90757 0.99617 0.04143 0.0
C765 C 0.90748 0.01841 0.06587 0.0
C766 C 0.92748 0.03166 0.03411 0.0
C767 C 0.91911 0.05204 0.98835 0.0
C768 C 0.94385 0.03941 0.09507 0.0
C769 C 0.93845 1.01362 0.98601 0.0
C770 C 0.92676 0.99321 0.99149 0.0
C771 C 0.93234 0.97463 0.94745 0.0
C772 C 0.95 0.97701 0.89608 0.0
C773 C 0.96216 0.99772 0.88915 0.0
C774 C 0.95651 0.01615 0.93572 0.0
H775 H 0.55517 0.87892 0.0456 0.0
H776 H 0.48886 0.87548 0.14978 0.0
H777 H 0.4785 0.91225 0.09214 0.0
H778 H 0.56226 0.94161 0.04484 0.0
H779 H 0.57504 0.94127 0.95518 0.0
H780 H 0.5787 0.91731 0.01577 0.0
H781 H 0.56241 0.89036 0.91617 0.0
H782 H 0.5588 0.91415 0.85539 0.0
H783 H 0.53477 0.89626 0.87712 0.0
H784 H 0.4736 0.94711 1.0082 0.0
H785 H 0.4742 0.9747 0.90539 0.0
H786 H 0.54269 0.95353 0.85078 0.0
C787 C 0.53851 0.88592 0.05737 0.0
C788 C 0.52281 0.874 0.10245 0.0
C789 C 0.50137 0.88422 0.11656 0.0
C790 C 0.49529 0.90513 0.08357 0.0
C791 C 0.51085 0.91578 0.03668 0.0
C792 C 0.53208 0.90645 0.02395 0.0
C793 C 0.54486 0.91959 0.96538 0.0
C794 C 0.5665 0.9306 0.99722 0.0
C795 C 0.55053 0.90418 0.89965 0.0
C796 C 0.52731 0.93749 0.94518 0.0
C797 C 0.50795 0.93537 0.98792 0.0
C798 C 0.48888 0.94914 0.97574 0.0
C799 C 0.48941 0.96492 0.91758 0.0
C800 C 0.50879 0.96681 0.87198 0.0
C801 C 0.52803 0.95309 0.88673 0.0
H802 H 0.63814 0.57005 0.03367 0.0
H803 H 0.63988 0.50458 0.1437 0.0
H804 H 0.60353 0.49419 0.08275 0.0
H805 H 0.57589 0.57775 0.02148 0.0
H806 H 0.57771 0.5895 0.93054 0.0
H807 H 0.60086 0.59351 0.99436 0.0
H808 H 0.62894 0.5758 0.90088 0.0
H809 H 0.60587 0.57182 0.83712 0.0
H810 H 0.62314 0.54787 0.86428 0.0
H811 H 0.56811 0.48981 0.99877 0.0
H812 H 0.54027 0.49058 0.89623 0.0
H813 H 0.56588 0.55657 0.83019 0.0
C814 C 0.63101 0.55348 0.04568 0.0
C815 C 0.64233 0.53808 0.09358 0.0
C816 C 0.63168 0.51688 0.1083 0.0
C817 C 0.611 0.51078 0.07341 0.0
C818 C 0.60111 0.52598 0.02355 0.0
C819 C 0.61092 0.5469 1.00976 0.0
C820 C 0.59879 0.5592 0.94776 0.0
C821 C 0.58765 0.58129 0.97521 0.0
C822 C 0.61516 0.56393 0.88374 0.0
C823 C 0.58092 0.5417 0.92707 0.0
C824 C 0.58199 0.52293 0.97272 0.0
C825 C 0.56717 0.5045 0.96317 0.0
C826 C 0.55133 0.50511 0.9049 0.0
C827 C 0.55082 0.52372 0.85554 0.0
C828 C 0.56569 0.54227 0.86758 0.0
H829 H 0.99533 0.67604 0.96781 0.0
H830 H 1.01229 0.64486 0.17542 0.0
H831 H 1.00322 0.60684 0.12356 0.0
H832 H 0.94836 0.63472 0.91452 0.0
H833 H 0.95666 0.6359 0.81964 0.0
H834 H 0.96039 0.66051 0.87753 0.0
H835 H 1.0032 0.66168 0.84314 0.0
H836 H 0.99973 0.63694 0.78627 0.0
H837 H 0.02064 0.63686 0.85879 0.0
H838 H 0.99914 0.57171 0.04062 0.0
H839 H 0.99724 0.54368 0.93912 0.0
H840 H 0.98135 0.59813 0.7874 0.0
C841 C 0.99604 0.66128 1.00329 0.0
C842 C 1.00395 0.66343 0.07625 0.0
C843 C 1.0056 0.64367 0.12021 0.0
C844 C 1.00068 0.62198 0.09083 0.0
C845 C 0.99382 0.62035 0.01756 0.0
C846 C 0.991 0.63961 0.97493 0.0
C847 C 0.98529 0.63336 0.89634 0.0
C848 C 0.96124 0.64161 0.87581 0.0
C849 C 1.00329 0.64276 0.84305 0.0
C850 C 0.98622 0.60759 0.90036 0.0
C851 C 0.99106 0.60031 0.97071 0.0
C852 C 0.9948 0.57727 0.98585 0.0
C853 C 0.99373 0.56143 0.92782 0.0
C854 C 0.98886 0.5686 0.85542 0.0
C855 C 0.98467 0.59198 0.84229 0.0
H856 H 0.90438 0.21357 0.53531 0.0
H857 H 0.84389 0.19407 0.41445 0.0
H858 H 0.84038 0.15963 0.49061 0.0
H859 H 0.92936 0.1665 0.52664 0.0
H860 H 0.9426 0.16517 0.61578 0.0
H861 H 0.93519 0.19218 0.57766 0.0
H862 H 0.91065 0.20169 0.69117 0.0
H863 H 0.91842 0.17465 0.73083 0.0
H864 H 0.88879 0.18215 0.72044 0.0
H865 H 0.85071 0.12297 0.5452 0.0
H866 H 0.87283 0.08861 0.57655 0.0
H867 H 0.92721 0.13094 0.66182 0.0
C868 C 0.88949 0.20287 0.52846 0.0
C869 C 0.87432 0.20651 0.46949 0.0
C870 C 0.85559 0.19164 0.45978 0.0
C871 C 0.85347 0.17205 0.50304 0.0
C872 C 0.87006 0.16773 0.55624 0.0
C873 C 0.88747 0.18308 0.57043 0.0
C874 C 0.90583 0.17253 0.61817 0.0
C875 C 0.9296 0.17418 0.58231 0.0
C876 C 0.90591 0.1834 0.69471 0.0
C877 C 0.89739 0.14822 0.62146 0.0
C878 C 0.87627 0.14597 0.58811 0.0
C879 C 0.86682 0.12462 0.57373 0.0
C880 C 0.87958 0.10518 0.59112 0.0
C881 C 0.90164 0.10722 0.62194 0.0
C882 C 0.9101 0.12895 0.64032 0.0
H883 H 0.30056 0.90437 0.54114 0.0
H884 H 0.31642 0.84963 0.3913 0.0
H885 H 0.35535 0.84755 0.44197 0.0
H886 H 0.34423 0.93388 0.51042 0.0
H887 H 0.35043 0.9448 0.60061 0.0
H888 H 0.32206 0.93598 0.5784 0.0
H889 H 0.32179 0.90774 0.68701 0.0
H890 H 0.35015 0.91697 0.71135 0.0
H891 H 0.34442 0.88718 0.6964 0.0
H892 H 0.39412 0.86013 0.47494 0.0
H893 H 0.42838 0.88369 0.49659 0.0
H894 H 0.38794 0.93094 0.62399 0.0
C895 C 0.31171 0.89082 0.52303 0.0
C896 C 0.3055 0.87702 0.46295 0.0
C897 C 0.32082 0.86013 0.43802 0.0
C898 C 0.34301 0.85891 0.46646 0.0
C899 C 0.34946 0.87447 0.52048 0.0
C900 C 0.33401 0.88973 0.5502 0.0
C901 C 0.346 0.90765 0.59607 0.0
C902 C 0.34035 0.93197 0.56968 0.0
C903 C 0.34025 0.90469 0.67756 0.0
C904 C 0.3706 0.90152 0.58134 0.0
C905 C 0.3723 0.88192 0.53966 0.0
C906 C 0.39307 0.87499 0.50981 0.0
C907 C 0.4124 0.8886 0.52165 0.0
C908 C 0.4108 0.909 0.56253 0.0
C909 C 0.38978 0.91505 0.59451 0.0
H910 H 0.63215 0.33902 0.30242 0.0
H911 H 0.64918 0.29844 0.49393 0.0
H912 H 0.6509 0.3335 0.56738 0.0
H913 H 0.6673 0.39189 0.35961 0.0
H914 H 0.64577 0.40973 0.31859 0.0
H915 H 0.65249 0.38249 0.2784 0.0
H916 H 0.60984 0.37137 0.28583 0.0
H917 H 0.60299 0.39801 0.32772 0.0
H918 H 0.59572 0.37181 0.37346 0.0
H919 H 0.63907 0.37071 0.62459 0.0
H920 H 0.61982 0.40695 0.65583 0.0
H921 H 0.61376 0.42278 0.42498 0.0
C922 C 0.63764 0.33712 0.35849 0.0
C923 C 0.63984 0.31547 0.3919 0.0
C924 C 0.64652 0.31456 0.46668 0.0
C925 C 0.64787 0.33451 0.50899 0.0
C926 C 0.64349 0.35535 0.47519 0.0
C927 C 0.6394 0.35679 0.4008 0.0
C928 C 0.63216 0.3805 0.37851 0.0
C929 C 0.65053 0.39182 0.33099 0.0
C930 C 0.60881 0.38037 0.3392 0.0
C931 C 0.63077 0.39166 0.45276 0.0
C932 C 0.63779 0.37714 0.50803 0.0
C933 C 0.63441 0.38255 0.5817 0.0
C934 C 0.62329 0.40305 0.59898 0.0
C935 C 0.61568 0.41782 0.54275 0.0
C936 C 0.62017 0.41226 0.46914 0.0
H937 H 0.20556 0.49239 0.64425 0.0
H938 H 0.23661 0.55855 0.61766 0.0
H939 H 0.20768 0.57544 0.69632 0.0
H940 H 0.15977 0.50829 0.58316 0.0
H941 H 0.13999 0.49173 0.63667 0.0
H942 H 0.16853 0.48204 0.62626 0.0
H943 H 0.17173 0.47989 0.76413 0.0
H944 H 0.14411 0.4924 0.7806 0.0
H945 H 0.1695 0.5049 0.81973 0.0
H946 H 0.16934 0.58832 0.7135 0.0
H947 H 0.12937 0.59436 0.67598 0.0
H948 H 0.11815 0.52164 0.67827 0.0
C949 C 0.20674 0.51023 0.65866 0.0
C950 C 0.22256 0.52427 0.62257 0.0
C951 C 0.22445 0.54734 0.64383 0.0
C952 C 0.2078 0.55717 0.6885 0.0
C953 C 0.18931 0.5438 0.71015 0.0
C954 C 0.18895 0.52046 0.69725 0.0
C955 C 0.16496 0.51106 0.70235 0.0
C956 C 0.15796 0.49756 0.63296 0.0
C957 C 0.16239 0.49621 0.77088 0.0
C958 C 0.15167 0.53302 0.70921 0.0
C959 C 0.16597 0.55161 0.71794 0.0
C960 C 0.15793 0.5739 0.70941 0.0
C961 C 0.13526 0.57724 0.68731 0.0
C962 C 0.1211 0.55836 0.67299 0.0
C963 C 0.129 0.53623 0.68833 0.0
H964 H 0.16158 0.83611 0.0397 0.0
H965 H 0.12007 0.79573 0.89191 0.0
H966 H 0.12409 0.82468 0.79797 0.0
H967 H 0.13056 0.87827 0.02941 0.0
H968 H 0.15088 0.90131 0.03341 0.0
H969 H 0.15836 0.87418 0.06992 0.0
H970 H 0.19379 0.87247 0.98605 0.0
H971 H 0.18645 0.90004 0.94939 0.0
H972 H 0.19063 0.87623 0.8886 0.0
H973 H 0.11734 0.86124 0.74281 0.0
H974 H 0.1001 0.89928 0.73681 0.0
H975 H 0.13888 0.9197 0.92797 0.0
C976 C 0.15397 0.83307 0.9866 0.0
C977 C 0.13976 0.81395 0.97501 0.0
C978 C 0.13103 0.81009 0.90363 0.0
C979 C 0.13318 0.82672 0.8492 0.0
C980 C 0.14381 0.84726 0.86688 0.0
C981 C 0.1545 0.85039 0.93398 0.0
C982 C 0.15839 0.87551 0.94931 0.0
C983 C 0.14893 0.8827 0.02482 0.0
C984 C 0.18383 0.88141 0.94291 0.0
C985 C 0.14501 0.88593 0.88668 0.0
C986 C 0.13833 0.86946 0.83675 0.0
C987 C 0.12294 0.87433 0.78053 0.0
C988 C 0.11296 0.89594 0.7781 0.0
C989 C 0.11788 0.9123 0.83283 0.0
C990 C 0.13513 0.90765 0.88478 0.0
H991 H 0.70003 0.10806 0.94984 0.0
H992 H 0.70675 0.05556 0.78624 0.0
H993 H 0.67792 0.07466 0.70954 0.0
H994 H 0.64806 0.10515 0.96454 0.0
H995 H 0.64018 0.13456 0.9777 0.0
H996 H 0.66848 0.12562 0.99861 0.0
H997 H 0.68476 0.15591 0.91021 0.0
H998 H 0.65614 0.16513 0.8891 0.0
H999 H 0.67516 0.15685 0.81644 0.0
H1000 H 0.64113 0.0893 0.6753 0.0
H1001 H 0.60008 0.09336 0.6955 0.0
H1002 H 0.61308 0.13516 0.88597 0.0
C1003 C 0.6964 0.10172 0.89535 0.0
C1004 C 0.70577 0.08091 0.87243 0.0
C1005 C 0.70008 0.07192 0.80322 0.0
C1006 C 0.68374 0.08278 0.7594 0.0
C1007 C 0.67302 0.10233 0.78637 0.0
C1008 C 0.67936 0.11191 0.85291 0.0
C1009 C 0.66139 0.12837 0.88034 0.0
C1010 C 0.6541 0.12304 0.95982 0.0
C1011 C 0.66987 0.15303 0.87357 0.0
C1012 C 0.64253 0.12373 0.82562 0.0
C1013 C 0.6502 0.11015 0.7686 0.0
C1014 C 0.63511 0.10047 0.71826 0.0
C1015 C 0.61169 0.10291 0.73007 0.0
C1016 C 0.6036 0.11451 0.79272 0.0
C1017 C 0.6191 0.12647 0.83745 0.0
H1018 H 0.55582 0.71957 0.79908 0.0
H1019 H 0.61838 0.6838 0.8474 0.0
H1020 H 0.60176 0.64846 0.79878 0.0
H1021 H 0.52359 0.68739 0.87519 0.0
H1022 H 0.49905 0.68625 0.81555 0.0
H1023 H 0.51773 0.71022 0.81175 0.0
H1024 H 0.52454 0.704 0.67389 0.0
H1025 H 0.5054 0.67993 0.67515 0.0
H1026 H 0.53402 0.6767 0.64097 0.0
H1027 H 0.57559 0.61653 0.79619 0.0
H1028 H 0.54359 0.59144 0.82764 0.0
H1029 H 0.49614 0.64683 0.79153 0.0
C1030 C 0.56654 0.70468 0.79349 0.0
C1031 C 0.58831 0.70427 0.8264 0.0
C1032 C 0.60178 0.68442 0.82133 0.0
C1033 C 0.59233 0.66422 0.79408 0.0
C1034 C 0.56953 0.66432 0.77179 0.0
C1035 C 0.55693 0.68428 0.7687 0.0
C1036 C 0.53163 0.67926 0.76058 0.0
C1037 C 0.51721 0.69148 0.81933 0.0
C1038 C 0.52341 0.68533 0.68304 0.0
C1039 C 0.53171 0.65376 0.7714 0.0
C1040 C 0.55375 0.64536 0.77369 0.0
C1041 C 0.55829 0.62286 0.79273 0.0
C1042 C 0.54002 0.60884 0.81198 0.0
C1043 C 0.51746 0.61742 0.81375 0.0
C1044 C 0.51322 0.63987 0.79028 0.0
H1045 H 0.79433 0.57795 0.80403 0.0
H1046 H 0.831 0.63962 0.8555 0.0
H1047 H 0.86588 0.62328 0.80313 0.0
H1048 H 0.82558 0.54595 0.88062 0.0
H1049 H 0.82673 0.52123 0.82208 0.0
H1050 H 0.80297 0.54006 0.816 0.0
H1051 H 0.81 0.54623 0.67825 0.0
H1052 H 0.83388 0.52691 0.68223 0.0
H1053 H 0.83759 0.55525 0.64649 0.0
H1054 H 0.89754 0.59716 0.79981 0.0
H1055 H 0.92196 0.56551 0.83907 0.0
H1056 H 0.86603 0.51834 0.80604 0.0
C1057 C 0.80933 0.58854 0.79832 0.0
C1058 C 0.81015 0.60994 0.83316 0.0
C1059 C 0.83006 0.62331 0.82792 0.0
C1060 C 0.85 0.614 0.79848 0.0
C1061 C 0.84966 0.59133 0.77514 0.0
C1062 C 0.82955 0.57886 0.77256 0.0
C1063 C 0.83437 0.55352 0.76612 0.0
C1064 C 0.8217 0.53943 0.82478 0.0
C1065 C 0.82863 0.54498 0.68867 0.0
C1066 C 0.85986 0.55348 0.77844 0.0
C1067 C 0.86851 0.57542 0.77845 0.0
C1068 C 0.89099 0.57994 0.79849 0.0
C1069 C 0.90461 0.56188 0.82225 0.0
C1070 C 0.89558 0.53957 0.82779 0.0
C1071 C 0.87332 0.53522 0.80214 0.0
H1072 H 0.97019 0.18044 0.94141 0.0
H1073 H 0.03548 0.18796 0.05124 0.0
H1074 H 0.04797 0.15124 0.99942 0.0
H1075 H 0.96382 0.12165 0.97132 0.0
H1076 H 0.95114 0.11527 0.88365 0.0
H1077 H 0.94787 0.14319 0.92303 0.0
H1078 H 0.96493 0.16135 0.80627 0.0
H1079 H 0.96807 0.13345 0.76641 0.0
H1080 H 0.99243 0.15205 0.77401 0.0
H1081 H 0.05165 0.11157 0.94978 0.0
H1082 H 0.04792 0.07339 0.89457 0.0
H1083 H 0.98113 0.09137 0.81028 0.0
C1084 C 0.98728 0.17456 0.95357 0.0
C1085 C 1.00188 0.18734 1.00047 0.0
C1086 C 0.02408 0.17888 0.01473 0.0
C1087 C 0.03128 0.15787 0.98592 0.0
C1088 C 1.01625 0.14548 0.94187 0.0
C1089 C 0.99484 0.15366 0.92454 0.0
C1090 C 0.98179 0.13652 0.87764 0.0
C1091 C 0.95986 0.1287 0.91624 0.0
C1092 C 0.9765 0.14644 0.80156 0.0
C1093 C 0.99905 0.11723 0.87273 0.0
C1094 C 0.01874 0.12279 0.91062 0.0
C1095 C 0.03649 0.10723 0.91884 0.0
C1096 C 0.03417 0.08551 0.88755 0.0
C1097 C 1.01439 0.07943 0.84737 0.0
C1098 C 0.99666 0.09565 0.83936 0.0
H1099 H 0.33798 0.97499 0.90837 0.0
H1100 H 0.33667 0.02966 0.06802 0.0
H1101 H 0.37292 0.04449 0.01786 0.0
H1102 H 0.39593 0.96352 0.92155 0.0
H1103 H 0.40026 0.95732 0.8259 0.0
H1104 H 0.37268 0.95292 0.86645 0.0
H1105 H 0.3542 0.9792 0.76937 0.0
H1106 H 0.38173 0.98344 0.72792 0.0
H1107 H 0.3651 1.00764 0.75673 0.0
H1108 H 0.41215 0.0501 0.96169 0.0
H1109 H 0.44903 0.0483 0.89716 0.0
H1110 H 0.42506 0.98994 0.77312 0.0
C1111 C 0.34501 0.99041 0.93181 0.0
C1112 C 0.33427 1.00118 0.99238 0.0
C1113 C 0.3442 0.02129 0.02108 0.0
C1114 C 0.36496 0.02971 0.99327 0.0
C1115 C 0.37559 0.01802 0.93603 0.0
C1116 C 0.36572 0.999 0.90473 0.0
C1117 C 0.3812 0.98875 0.84659 0.0
C1118 C 0.38791 0.96418 0.86635 0.0
C1119 C 0.36988 0.98984 0.77065 0.0
C1120 C 0.4016 1.00464 0.85118 0.0
C1121 C 0.398 0.02142 0.90306 0.0
C1122 C 0.41493 0.03725 0.92019 0.0
C1123 C 0.43595 0.036 0.88337 0.0
C1124 C 0.44005 0.0191 0.82943 0.0
C1125 C 0.42245 1.0033 0.81312 0.0
H1126 H 0.54285 0.34138 0.86067 0.0
H1127 H 0.48938 0.33868 0.02459 0.0
H1128 H 0.4745 0.3754 0.9795 0.0
H1129 H 0.55491 0.39949 0.88241 0.0
H1130 H 0.56075 0.40487 0.78709 0.0
H1131 H 0.56528 0.37689 0.82454 0.0
H1132 H 0.53856 0.35966 0.72594 0.0
H1133 H 0.53409 0.38764 0.68804 0.0
H1134 H 0.51002 0.37062 0.71574 0.0
H1135 H 0.46786 0.41455 0.92561 0.0
H1136 H 0.46917 0.45205 0.86564 0.0
H1137 H 0.528 0.4305 0.73966 0.0
C1138 C 0.52788 0.34829 0.88704 0.0
C1139 C 0.5174 0.33682 0.94685 0.0
C1140 C 0.49761 0.34665 0.97819 0.0
C1141 C 0.48911 0.36771 0.95324 0.0
C1142 C 0.50047 0.3789 0.89652 0.0
C1143 C 0.51934 0.36943 0.86337 0.0
C1144 C 0.52934 0.38562 0.80672 0.0
C1145 C 0.55403 0.3921 0.8264 0.0
C1146 C 0.5279 0.37526 0.72952 0.0
C1147 C 0.51344 0.40591 0.81423 0.0
C1148 C 0.49679 0.40156 0.86591 0.0
C1149 C 0.4807 0.41799 0.8846 0.0
C1150 C 0.48166 0.43936 0.85014 0.0
C1151 C 0.49865 0.44445 0.79734 0.0
C1152 C 0.51462 0.42725 0.77893 0.0
H1153 H 0.15796 0.48081 0.02314 0.0
H1154 H 0.18589 0.54507 0.94775 0.0
H1155 H 0.14977 0.5533 0.88335 0.0
H1156 H 0.12612 0.46635 0.8597 0.0
H1157 H 0.10218 0.45486 0.90873 0.0
H1158 H 0.13022 0.45414 0.94918 0.0
H1159 H 0.11451 0.47512 0.06302 0.0
H1160 H 0.08657 0.47612 0.02181 0.0
H1161 H 0.10018 0.50204 0.05169 0.0
H1162 H 0.11037 0.55541 0.83072 0.0
H1163 H 0.07162 0.5497 0.78186 0.0
H1164 H 0.06816 0.48371 0.88698 0.0
C1165 C 0.15653 0.49655 0.99263 0.0
C1166 C 0.17507 0.51218 0.99011 0.0
C1167 C 0.17229 0.53261 0.94975 0.0
C1168 C 0.15166 0.53758 0.91364 0.0
C1169 C 0.13382 0.52189 0.91744 0.0
C1170 C 0.13604 0.50168 0.95535 0.0
C1171 C 0.11409 0.48777 0.95018 0.0
C1172 C 0.11843 0.46441 0.91481 0.0
C1173 C 0.1032 0.48511 0.0262 0.0
C1174 C 0.09952 0.50293 0.90108 0.0
C1175 C 0.11122 0.52269 0.88424 0.0
C1176 C 0.10131 0.53975 0.84199 0.0
C1177 C 0.0793 0.53628 0.8139 0.0
C1178 C 0.06698 0.51602 0.8282 0.0
C1179 C 0.07717 0.49926 0.87386 0.0
H1180 H 1.01555 0.87021 0.38654 0.0
H1181 H 1.00859 0.8209 0.56155 0.0
H1182 H 1.00567 0.85243 0.6515 0.0
H1183 H 0.05003 0.90963 0.48193 0.0
H1184 H 0.03692 0.93464 0.44321 0.0
H1185 H 0.03703 0.90835 0.39245 0.0
H1186 H 0.99302 0.90987 0.38097 0.0
H1187 H 0.9928 0.93631 0.43103 0.0
H1188 H 0.97593 0.9126 0.46244 0.0
H1189 H 1.00767 0.88977 0.7237 0.0
H1190 H 1.00948 0.92931 0.77015 0.0
H1191 H 1.01309 0.95441 0.54724 0.0
C1192 C 1.01304 0.86604 0.44372 0.0
C1193 C 1.01224 0.84299 0.46695 0.0
C1194 C 1.00896 0.83833 0.54226 0.0
C1195 C 1.00748 0.85617 0.59379 0.0
C1196 C 1.00899 0.87867 0.56918 0.0
C1197 C 1.01127 0.88363 0.49562 0.0
C1198 C 1.01262 0.90919 0.48319 0.0
C1199 C 0.03551 0.91583 0.44812 0.0
C1200 C 0.99238 0.91748 0.43666 0.0
C1201 C 1.01103 0.91791 0.56129 0.0
C1202 C 1.00919 0.90003 0.6102 0.0
C1203 C 1.00874 0.90384 0.68565 0.0
C1204 C 1.00991 0.9264 0.7116 0.0
C1205 C 1.01119 0.94504 0.66249 0.0
C1206 C 1.01175 0.9406 0.58626 0.0
H1207 H 0.65148 0.01942 0.39002 0.0
H1208 H 0.69729 0.99176 0.55522 0.0
H1209 H 0.66534 0.99037 0.64237 0.0
H1210 H 0.61614 0.05268 0.50804 0.0
H1211 H 0.59013 0.04597 0.45987 0.0
H1212 H 0.61687 0.04616 0.41158 0.0
H1213 H 0.60977 1.00474 0.3685 0.0
H1214 H 0.58298 1.00445 0.41649 0.0
H1215 H 0.60409 0.98293 0.43546 0.0
H1216 H 0.62777 0.99301 0.71419 0.0
H1217 H 0.58806 0.9964 0.75912 0.0
H1218 H 0.56611 0.01779 0.5431 0.0
C1219 C 0.65507 1.01261 0.44377 0.0
C1220 C 0.67751 1.00573 0.46438 0.0
C1221 C 0.68074 0.99765 0.53708 0.0
C1222 C 0.66252 0.9966 0.58733 0.0
C1223 C 0.64079 1.00336 0.56459 0.0
C1224 C 0.63698 1.01095 0.49413 0.0
C1225 C 0.61187 0.01644 0.48228 0.0
C1226 C 0.60857 0.04182 0.46439 0.0
C1227 C 0.60157 1.00123 0.42212 0.0
C1228 C 0.60207 1.01065 0.55697 0.0
C1229 C 0.6191 1.00351 0.60418 0.0
C1230 C 0.61433 0.99829 0.67721 0.0
C1231 C 0.5917 1.00029 0.70237 0.0
C1232 C 0.57385 1.00696 0.65452 0.0
C1233 C 0.57925 1.01215 0.58073 0.0
H1234 H 0.56189 0.66255 0.44102 0.0
H1235 H 0.49516 0.69441 0.44323 0.0
H1236 H 0.48117 0.66365 0.52468 0.0
H1237 H 0.54154 0.60714 0.41885 0.0
H1238 H 0.5636 0.59401 0.47323 0.0
H1239 H 0.56915 0.62043 0.42681 0.0
H1240 H 0.58123 0.6385 0.54922 0.0
H1241 H 0.57504 0.61264 0.59853 0.0
H1242 H 0.56161 0.639 0.62467 0.0
H1243 H 0.47354 0.62628 0.59598 0.0
H1244 H 0.47311 0.5872 0.64751 0.0
H1245 H 0.544 0.57872 0.58852 0.0
C1246 C 0.54431 0.66332 0.45873 0.0
C1247 C 0.52962 0.68106 0.43446 0.0
C1248 C 0.50692 0.68133 0.46109 0.0
C1249 C 0.49876 0.66373 0.50701 0.0
C1250 C 0.51344 0.64586 0.52601 0.0
C1251 C 0.5358 0.64567 0.50263 0.0
C1252 C 0.54776 0.62377 0.52464 0.0
C1253 C 0.55599 0.61056 0.45685 0.0
C1254 C 0.5676 0.62875 0.57742 0.0
C1255 C 0.52858 0.61127 0.56302 0.0
C1256 C 0.50899 0.62442 0.56456 0.0
C1257 C 0.48889 0.61607 0.59549 0.0
C1258 C 0.4888 0.59387 0.62494 0.0
C1259 C 0.50856 0.58004 0.62289 0.0
C1260 C 0.52866 0.58894 0.59127 0.0
H1261 H 0.85375 0.5748 0.44231 0.0
H1262 H 0.8186 0.50989 0.45403 0.0
H1263 H 0.84788 0.49614 0.54181 0.0
H1264 H 0.90845 0.55128 0.43076 0.0
H1265 H 0.92212 0.57381 0.48162 0.0
H1266 H 0.89645 0.57953 0.43077 0.0
H1267 H 0.87773 0.59506 0.54798 0.0
H1268 H 0.90285 0.5888 0.60145 0.0
H1269 H 0.87561 0.57721 0.62764 0.0
H1270 H 0.88413 0.48837 0.62031 0.0
H1271 H 0.92276 0.48721 0.67619 0.0
H1272 H 0.93527 0.55604 0.60216 0.0
C1273 C 0.85198 0.55764 0.46305 0.0
C1274 C 0.83371 0.54341 0.43976 0.0
C1275 C 0.83211 0.52133 0.47084 0.0
C1276 C 0.84886 0.5133 0.5205 0.0
C1277 C 0.86725 0.52747 0.53876 0.0
C1278 C 0.86878 0.54922 0.51067 0.0
C1279 C 0.89105 0.56056 0.53274 0.0
C1280 C 0.90535 0.56664 0.46495 0.0
C1281 C 0.88656 0.58166 0.58029 0.0
C1282 C 0.90217 0.54171 0.57686 0.0
C1283 C 0.88805 0.52286 0.58108 0.0
C1284 C 0.89511 0.50316 0.61759 0.0
C1285 C 0.91706 0.50266 0.6495 0.0
C1286 C 0.93192 0.52159 0.64435 0.0
C1287 C 0.92424 0.54134 0.6075 0.0
loop_
_geom_bond_atom_site_label_1
_geom_bond_atom_site_label_2
_geom_bond_distance
_geom_bond_site_symmetry_2
_ccdc_geom_bond_type
C0 C1 1.391 . S
C0 C4 1.391 . S
C0 H42 0.948 . S
C1 C0 1.391 . S
C1 C2 1.391 . S
C2 C1 1.391 . S
C2 H58 0.947 . S
C2 C59 1.392 . S
C3 C4 1.391 . S
C3 C7 1.397 . S
C3 C59 1.419 . S
C4 C0 1.391 . S
C4 C3 1.391 . S
C4 C5 1.399 . S
C5 C4 1.399 . S
C5 C8 1.396 . S
C5 C17 1.453 . S
C5 C18 1.684 . S
H6 C30 0.948 . S
C7 C3 1.397 . S
C7 C8 1.394 . S
C7 C26 1.723 . S
C8 C5 1.396 . S
C8 C7 1.394 . S
C8 C38 1.723 . S
H9 C32 0.947 . S
H10 C33 0.948 . S
H11 C39 0.982 . S
H12 C40 0.979 . S
H13 C40 0.980 . S
H14 C40 0.983 . S
H15 C39 0.979 . S
H16 C39 0.977 . S
C17 C5 1.453 . S
C17 H46 0.982 . S
C17 H47 0.979 . S
C17 H48 0.977 . S
C18 C5 1.684 . S
C18 H43 0.979 . S
C18 H44 0.980 . S
C18 H45 0.983 . S
C19 C20 1.391 . S
C19 C24 1.391 . S
C19 H49 0.948 . S
C20 C19 1.391 . S
C20 C21 1.391 . S
C21 C20 1.391 . S
C21 C22 1.392 . S
C21 H50 0.947 . S
C22 C21 1.392 . S
C22 C23 1.419 . S
C22 H51 0.948 . S
C23 C22 1.419 . S
C23 C24 1.391 . S
C23 C27 1.397 . S
C24 C19 1.391 . S
C24 C23 1.391 . S
C24 C25 1.399 . S
C25 C24 1.399 . S
C25 C26 1.396 . S
C25 C28 1.453 . S
C25 C29 1.684 . S
C26 C7 1.723 . S
C26 C25 1.396 . S
C26 C27 1.394 . S
C27 C23 1.397 . S
C27 C26 1.394 . S
C27 C37 1.723 . S
C28 C25 1.453 . S
C28 H52 0.982 . S
C28 H53 0.979 . S
C28 H54 0.977 . S
C29 C25 1.684 . S
C29 H55 0.979 . S
C29 H56 0.980 . S
C29 H57 0.983 . S
C30 H6 0.948 . S
C30 C31 1.391 . S
C30 C35 1.391 . S
C31 C30 1.391 . S
C31 C32 1.391 . S
C32 H9 0.947 . S
C32 C31 1.391 . S
C32 C33 1.392 . S
C33 H10 0.948 . S
C33 C32 1.392 . S
C33 C34 1.419 . S
C34 C33 1.419 . S
C34 C35 1.391 . S
C34 C38 1.397 . S
C35 C30 1.391 . S
C35 C34 1.391 . S
C35 C36 1.399 . S
C36 C35 1.399 . S
C36 C37 1.396 . S
C36 C39 1.453 . S
C36 C40 1.684 . S
C37 C27 1.723 . S
C37 C36 1.396 . S
C37 C38 1.394 . S
C38 C8 1.723 . S
C38 C34 1.397 . S
C38 C37 1.394 . S
C39 H11 0.982 . S
C39 H15 0.979 . S
C39 H16 0.977 . S
C39 C36 1.453 . S
C40 H12 0.979 . S
C40 H13 0.980 . S
C40 H14 0.983 . S
C40 C36 1.684 . S
H41 C59 0.948 . S
H42 C0 0.948 . S
H43 C18 0.979 . S
H44 C18 0.980 . S
H45 C18 0.983 . S
H46 C17 0.982 . S
H47 C17 0.979 . S
H48 C17 0.977 . S
H49 C19 0.948 . S
H50 C21 0.947 . S
H51 C22 0.948 . S
H52 C28 0.982 . S
H53 C28 0.979 . S
H54 C28 0.977 . S
H55 C29 0.979 . S
H56 C29 0.980 . S
H57 C29 0.983 . S
H58 C2 0.947 . S
C59 C2 1.392 . S
C59 C3 1.419 . S
C59 H41 0.948 . S
C60 C61 1.391 . S
C60 C64 1.391 . S
C60 H102 0.948 . S
C61 C60 1.391 . S
C61 C62 1.391 . S
C62 C61 1.391 . S
C62 H118 0.947 . S
C62 C119 1.392 . S
C63 C64 1.391 . S
C63 C67 1.397 1_655 S
C63 C119 1.419 . S
C64 C60 1.391 . S
C64 C63 1.391 . S
C64 C65 1.399 . S
C65 C64 1.399 . S
C65 C68 1.396 1_655 S
C65 C77 1.453 1_655 S
C65 C78 1.684 . S
H66 C90 0.948 . S
C67 C63 1.397 1_455 S
C67 C68 1.394 . S
C67 C86 1.723 . S
C68 C65 1.396 1_455 S
C68 C67 1.394 . S
C68 C98 1.723 . S
H69 C92 0.947 . S
H70 C93 0.948 . S
H71 C99 0.982 . S
H72 C100 0.979 . S
H73 C100 0.980 . S
H74 C100 0.983 . S
H75 C99 0.979 . S
H76 C99 0.977 . S
C77 C65 1.453 1_455 S
C77 H106 0.982 . S
C77 H107 0.979 . S
C77 H108 0.977 . S
C78 C65 1.684 . S
C78 H103 0.979 . S
C78 H104 0.980 . S
C78 H105 0.983 . S
C79 C80 1.391 . S
C79 C84 1.391 . S
C79 H109 0.948 . S
C80 C79 1.391 . S
C80 C81 1.391 . S
C81 C80 1.391 . S
C81 C82 1.392 . S
C81 H110 0.947 . S
C82 C81 1.392 . S
C82 C83 1.419 . S
C82 H111 0.948 . S
C83 C82 1.419 . S
C83 C84 1.391 . S
C83 C87 1.397 1_655 S
C84 C79 1.391 . S
C84 C83 1.391 . S
C84 C85 1.399 . S
C85 C84 1.399 . S
C85 C86 1.396 1_655 S
C85 C88 1.453 1_655 S
C85 C89 1.684 . S
C86 C67 1.723 . S
C86 C85 1.396 1_455 S
C86 C87 1.394 . S
C87 C83 1.397 1_455 S
C87 C86 1.394 . S
C87 C97 1.723 . S
C88 C85 1.453 1_455 S
C88 H112 0.982 . S
C88 H113 0.979 . S
C88 H114 0.977 . S
C89 C85 1.684 . S
C89 H115 0.979 . S
C89 H116 0.980 . S
C89 H117 0.983 . S
C90 H66 0.948 . S
C90 C91 1.391 . S
C90 C95 1.391 . S
C91 C90 1.391 . S
C91 C92 1.391 . S
C92 H69 0.947 . S
C92 C91 1.391 . S
C92 C93 1.392 . S
C93 H70 0.948 . S
C93 C92 1.392 . S
C93 C94 1.419 . S
C94 C93 1.419 . S
C94 C95 1.391 . S
C94 C98 1.397 1_655 S
C95 C90 1.391 . S
C95 C94 1.391 . S
C95 C96 1.399 . S
C96 C95 1.399 . S
C96 C97 1.396 1_655 S
C96 C99 1.453 1_655 S
C96 C100 1.684 . S
C97 C87 1.723 . S
C97 C96 1.396 1_455 S
C97 C98 1.394 . S
C98 C68 1.723 . S
C98 C94 1.397 1_455 S
C98 C97 1.394 . S
C99 H71 0.982 . S
C99 H75 0.979 . S
C99 H76 0.977 . S
C99 C96 1.453 1_455 S
C100 H72 0.979 . S
C100 H73 0.980 . S
C100 H74 0.983 . S
C100 C96 1.684 . S
H101 C119 0.948 . S
H102 C60 0.948 . S
H103 C78 0.979 . S
H104 C78 0.980 . S
H105 C78 0.983 . S
H106 C77 0.982 . S
H107 C77 0.979 . S
H108 C77 0.977 . S
H109 C79 0.948 . S
H110 C81 0.947 . S
H111 C82 0.948 . S
H112 C88 0.982 . S
H113 C88 0.979 . S
H114 C88 0.977 . S
H115 C89 0.979 . S
H116 C89 0.980 . S
H117 C89 0.983 . S
H118 C62 0.947 . S
C119 C62 1.392 . S
C119 C63 1.419 . S
C119 H101 0.948 . S
C120 C121 1.391 . S
C120 C124 1.391 . S
C120 H162 0.948 . S
C121 C120 1.391 . S
C121 C122 1.391 . S
C122 C121 1.391 . S
C122 H178 0.947 . S
C122 C179 1.392 . S
C123 C124 1.391 . S
C123 C127 1.397 1_565 S
C123 C179 1.419 . S
C124 C120 1.391 . S
C124 C123 1.391 . S
C124 C125 1.399 . S
C125 C124 1.399 . S
C125 C128 1.396 1_565 S
C125 C137 1.453 1_565 S
C125 C138 1.684 . S
H126 C150 0.948 . S
C127 C123 1.397 1_545 S
C127 C128 1.394 . S
C127 C146 1.723 . S
C128 C125 1.396 1_545 S
C128 C127 1.394 . S
C128 C158 1.723 . S
H129 C152 0.947 . S
H130 C153 0.948 . S
H131 C159 0.982 . S
H132 C160 0.979 . S
H133 C160 0.980 . S
H134 C160 0.983 . S
H135 C159 0.979 . S
H136 C159 0.977 . S
C137 C125 1.453 1_545 S
C137 H166 0.982 . S
C137 H167 0.979 . S
C137 H168 0.977 . S
C138 C125 1.684 . S
C138 H163 0.979 . S
C138 H164 0.980 . S
C138 H165 0.983 . S
C139 C140 1.391 . S
C139 C144 1.391 . S
C139 H169 0.948 . S
C140 C139 1.391 . S
C140 C141 1.391 . S
C141 C140 1.391 . S
C141 C142 1.392 . S
C141 H170 0.947 . S
C142 C141 1.392 . S
C142 C143 1.419 . S
C142 H171 0.948 . S
C143 C142 1.419 . S
C143 C144 1.391 . S
C143 C147 1.397 1_565 S
C144 C139 1.391 . S
C144 C143 1.391 . S
C144 C145 1.399 . S
C145 C144 1.399 . S
C145 C146 1.396 1_565 S
C145 C148 1.453 1_565 S
C145 C149 1.684 . S
C146 C127 1.723 . S
C146 C145 1.396 1_545 S
C146 C147 1.394 . S
C147 C143 1.397 1_545 S
C147 C146 1.394 . S
C147 C157 1.723 . S
C148 C145 1.453 1_545 S
C148 H172 0.982 . S
C148 H173 0.979 . S
C148 H174 0.977 . S
C149 C145 1.684 . S
C149 H175 0.979 . S
C149 H176 0.980 . S
C149 H177 0.983 . S
C150 H126 0.948 . S
C150 C151 1.391 . S
C150 C155 1.391 . S
C151 C150 1.391 . S
C151 C152 1.391 . S
C152 H129 0.947 . S
C152 C151 1.391 . S
C152 C153 1.392 . S
C153 H130 0.948 . S
C153 C152 1.392 . S
C153 C154 1.419 . S
C154 C153 1.419 . S
C154 C155 1.391 . S
C154 C158 1.397 1_565 S
C155 C150 1.391 . S
C155 C154 1.391 . S
C155 C156 1.399 . S
C156 C155 1.399 . S
C156 C157 1.396 1_565 S
C156 C159 1.453 1_565 S
C156 C160 1.684 . S
C157 C147 1.723 . S
C157 C156 1.396 1_545 S
C157 C158 1.394 . S
C158 C128 1.723 . S
C158 C154 1.397 1_545 S
C158 C157 1.394 . S
C159 H131 0.982 . S
C159 H135 0.979 . S
C159 H136 0.977 . S
C159 C156 1.453 1_545 S
C160 H132 0.979 . S
C160 H133 0.980 . S
C160 H134 0.983 . S
C160 C156 1.684 . S
H161 C179 0.948 . S
H162 C120 0.948 . S
H163 C138 0.979 . S
H164 C138 0.980 . S
H165 C138 0.983 . S
H166 C137 0.982 . S
H167 C137 0.979 . S
H168 C137 0.977 . S
H169 C139 0.948 . S
H170 C141 0.947 . S
H171 C142 0.948 . S
H172 C148 0.982 . S
H173 C148 0.979 . S
H174 C148 0.977 . S
H175 C149 0.979 . S
H176 C149 0.980 . S
H177 C149 0.983 . S
H178 C122 0.947 . S
C179 C122 1.392 . S
C179 C123 1.419 . S
C179 H161 0.948 . S
C180 C181 1.391 . S
C180 C184 1.391 . S
C180 H222 0.948 . S
C181 C180 1.391 . S
C181 C182 1.391 . S
C182 C181 1.391 . S
C182 H238 0.947 . S
C182 C239 1.392 . S
C183 C184 1.391 . S
C183 C187 1.397 . S
C183 C239 1.419 . S
C184 C180 1.391 . S
C184 C183 1.391 . S
C184 C185 1.399 . S
C185 C184 1.399 . S
C185 C188 1.396 . S
C185 C197 1.453 . S
C185 C198 1.684 . S
H186 C210 0.948 . S
C187 C183 1.397 . S
C187 C188 1.394 . S
C187 C206 1.723 . S
C188 C185 1.396 . S
C188 C187 1.394 . S
C188 C218 1.723 . S
H189 C212 0.947 . S
H190 C213 0.948 . S
H191 C219 0.982 . S
H192 C220 0.979 . S
H193 C220 0.980 . S
H194 C220 0.983 . S
H195 C219 0.979 . S
H196 C219 0.977 . S
C197 C185 1.453 . S
C197 H226 0.982 . S
C197 H227 0.979 . S
C197 H228 0.977 . S
C198 C185 1.684 . S
C198 H223 0.979 . S
C198 H224 0.980 . S
C198 H225 0.983 . S
C199 C200 1.391 . S
C199 C204 1.391 . S
C199 H229 0.948 . S
C200 C199 1.391 . S
C200 C201 1.391 . S
C201 C200 1.391 . S
C201 C202 1.392 . S
C201 H230 0.947 . S
C202 C201 1.392 . S
C202 C203 1.419 . S
C202 H231 0.948 . S
C203 C202 1.419 . S
C203 C204 1.391 . S
C203 C207 1.397 . S
C204 C199 1.391 . S
C204 C203 1.391 . S
C204 C205 1.399 . S
C205 C204 1.399 . S
C205 C206 1.396 . S
C205 C208 1.453 . S
C205 C209 1.684 . S
C206 C187 1.723 . S
C206 C205 1.396 . S
C206 C207 1.394 . S
C207 C203 1.397 . S
C207 C206 1.394 . S
C207 C217 1.723 . S
C208 C205 1.453 . S
C208 H232 0.982 . S
C208 H233 0.979 . S
C208 H234 0.977 . S
C209 C205 1.684 . S
C209 H235 0.979 . S
C209 H236 0.980 . S
C209 H237 0.983 . S
C210 H186 0.948 . S
C210 C211 1.391 . S
C210 C215 1.391 . S
C211 C210 1.391 . S
C211 C212 1.391 . S
C212 H189 0.947 . S
C212 C211 1.391 . S
C212 C213 1.392 . S
C213 H190 0.948 . S
C213 C212 1.392 . S
C213 C214 1.419 . S
C214 C213 1.419 . S
C214 C215 1.391 . S
C214 C218 1.397 . S
C215 C210 1.391 . S
C215 C214 1.391 . S
C215 C216 1.399 . S
C216 C215 1.399 . S
C216 C217 1.396 . S
C216 C219 1.453 . S
C216 C220 1.684 . S
C217 C207 1.723 . S
C217 C216 1.396 . S
C217 C218 1.394 . S
C218 C188 1.723 . S
C218 C214 1.397 . S
C218 C217 1.394 . S
C219 H191 0.982 . S
C219 H195 0.979 . S
C219 H196 0.977 . S
C219 C216 1.453 . S
C220 H192 0.979 . S
C220 H193 0.980 . S
C220 H194 0.983 . S
C220 C216 1.684 . S
H221 C239 0.948 . S
H222 C180 0.948 . S
H223 C198 0.979 . S
H224 C198 0.980 . S
H225 C198 0.983 . S
H226 C197 0.982 . S
H227 C197 0.979 . S
H228 C197 0.977 . S
H229 C199 0.948 . S
H230 C201 0.947 . S
H231 C202 0.948 . S
H232 C208 0.982 . S
H233 C208 0.979 . S
H234 C208 0.977 . S
H235 C209 0.979 . S
H236 C209 0.980 . S
H237 C209 0.983 . S
H238 C182 0.947 . S
C239 C182 1.392 . S
C239 C183 1.419 . S
C239 H221 0.948 . S
C240 C241 1.391 . S
C240 C244 1.391 . S
C240 H282 0.948 . S
C241 C240 1.391 . S
C241 C242 1.391 . S
C242 C241 1.391 . S
C242 H298 0.947 . S
C242 C299 1.392 . S
C243 C244 1.391 . S
C243 C247 1.397 . S
C243 C299 1.419 . S
C244 C240 1.391 . S
C244 C243 1.391 . S
C244 C245 1.399 1_554 S
C245 C244 1.399 1_556 S
C245 C248 1.396 . S
C245 C257 1.453 . S
C245 C258 1.684 . S
H246 C270 0.948 . S
C247 C243 1.397 . S
C247 C248 1.394 1_554 S
C247 C266 1.723 . S
C248 C245 1.396 . S
C248 C247 1.394 1_556 S
C248 C278 1.723 . S
H249 C272 0.947 . S
H250 C273 0.948 . S
H251 C279 0.982 . S
H252 C280 0.979 . S
H253 C280 0.980 1_554 S
H254 C280 0.983 . S
H255 C279 0.979 . S
H256 C279 0.977 1_554 S
C257 C245 1.453 . S
C257 H286 0.982 . S
C257 H287 0.979 . S
C257 H288 0.977 . S
C258 C245 1.684 . S
C258 H283 0.979 . S
C258 H284 0.980 . S
C258 H285 0.983 . S
C259 C260 1.391 . S
C259 C264 1.391 . S
C259 H289 0.948 . S
C260 C259 1.391 . S
C260 C261 1.391 . S
C261 C260 1.391 . S
C261 C262 1.392 . S
C261 H290 0.947 . S
C262 C261 1.392 . S
C262 C263 1.419 . S
C262 H291 0.948 . S
C263 C262 1.419 . S
C263 C264 1.391 . S
C263 C267 1.397 . S
C264 C259 1.391 . S
C264 C263 1.391 . S
C264 C265 1.399 . S
C265 C264 1.399 . S
C265 C266 1.396 . S
C265 C268 1.453 . S
C265 C269 1.684 . S
C266 C247 1.723 . S
C266 C265 1.396 . S
C266 C267 1.394 . S
C267 C263 1.397 . S
C267 C266 1.394 . S
C267 C277 1.716 1_554 S
C268 C265 1.453 . S
C268 H292 0.982 . S
C268 H293 0.979 . S
C268 H294 0.977 . S
C269 C265 1.684 . S
C269 H295 0.979 . S
C269 H296 0.980 . S
C269 H297 0.983 . S
C270 H246 0.948 . S
C270 C271 1.391 . S
C270 C275 1.391 . S
C271 C270 1.391 . S
C271 C272 1.391 . S
C272 H249 0.947 . S
C272 C271 1.391 . S
C272 C273 1.392 . S
C273 H250 0.948 . S
C273 C272 1.392 . S
C273 C274 1.419 . S
C274 C273 1.419 . S
C274 C275 1.391 . S
C274 C278 1.397 . S
C275 C270 1.391 . S
C275 C274 1.391 . S
C275 C276 1.399 . S
C276 C275 1.399 . S
C276 C277 1.401 . S
C276 C279 1.453 . S
C276 C280 1.684 . S
C277 C267 1.716 1_556 S
C277 C276 1.401 . S
C277 C278 1.397 . S
C278 C248 1.723 . S
C278 C274 1.397 . S
C278 C277 1.397 . S
C279 H251 0.982 . S
C279 H255 0.979 . S
C279 H256 0.977 1_556 S
C279 C276 1.453 . S
C280 H252 0.979 . S
C280 H253 0.980 1_556 S
C280 H254 0.983 . S
C280 C276 1.684 . S
H281 C299 0.948 . S
H282 C240 0.948 . S
H283 C258 0.979 . S
H284 C258 0.980 . S
H285 C258 0.983 . S
H286 C257 0.982 . S
H287 C257 0.979 . S
H288 C257 0.977 . S
H289 C259 0.948 . S
H290 C261 0.947 . S
H291 C262 0.948 . S
H292 C268 0.982 . S
H293 C268 0.979 . S
H294 C268 0.977 . S
H295 C269 0.979 . S
H296 C269 0.980 . S
H297 C269 0.983 . S
H298 C242 0.947 . S
C299 C242 1.392 . S
C299 C243 1.419 . S
C299 H281 0.948 . S
C300 C301 1.391 . S
C300 C304 1.391 . S
C300 H342 0.948 . S
C301 C300 1.391 . S
C301 C302 1.391 . S
C302 C301 1.391 . S
C302 H358 0.947 . S
C302 C359 1.392 . S
C303 C304 1.391 . S
C303 C307 1.396 1_655 S
C303 C359 1.419 . S
C304 C300 1.391 . S
C304 C303 1.391 . S
C304 C305 1.399 . S
C305 C304 1.399 . S
C305 C308 1.396 1_655 S
C305 C317 1.453 1_655 S
C305 C318 1.684 . S
H306 C330 0.948 . S
C307 C303 1.396 1_455 S
C307 C308 1.395 . S
C307 C326 1.723 . S
C308 C305 1.396 1_455 S
C308 C307 1.395 . S
C308 C338 1.723 . S
H309 C332 0.947 . S
H310 C333 0.948 . S
H311 C339 0.982 . S
H312 C340 0.979 . S
H313 C340 0.980 . S
H314 C340 0.983 . S
H315 C339 0.979 . S
H316 C339 0.977 . S
C317 C305 1.453 1_455 S
C317 H346 0.982 . S
C317 H347 0.979 . S
C317 H348 0.977 . S
C318 C305 1.684 . S
C318 H343 0.979 . S
C318 H344 0.980 . S
C318 H345 0.983 . S
C319 C320 1.391 . S
C319 C324 1.391 . S
C319 H349 0.948 . S
C320 C319 1.391 . S
C320 C321 1.391 . S
C321 C320 1.391 . S
C321 C322 1.392 . S
C321 H350 0.947 . S
C322 C321 1.392 . S
C322 C323 1.419 . S
C322 H351 0.948 . S
C323 C322 1.419 . S
C323 C324 1.391 . S
C323 C327 1.396 1_655 S
C324 C319 1.391 . S
C324 C323 1.391 . S
C324 C325 1.399 . S
C325 C324 1.399 . S
C325 C326 1.396 1_656 S
C325 C328 1.453 1_655 S
C325 C329 1.684 . S
C326 C307 1.723 . S
C326 C325 1.396 1_454 S
C326 C327 1.395 1_554 S
C327 C323 1.396 1_455 S
C327 C326 1.395 1_556 S
C327 C337 1.726 . S
C328 C325 1.453 1_455 S
C328 H352 0.982 . S
C328 H353 0.979 . S
C328 H354 0.977 1_556 S
C329 C325 1.684 . S
C329 H355 0.979 . S
C329 H356 0.980 1_556 S
C329 H357 0.983 . S
C330 H306 0.948 . S
C330 C331 1.391 . S
C330 C335 1.391 . S
C331 C330 1.391 . S
C331 C332 1.391 . S
C332 H309 0.947 . S
C332 C331 1.391 . S
C332 C333 1.392 . S
C333 H310 0.948 . S
C333 C332 1.392 . S
C333 C334 1.419 . S
C334 C333 1.419 . S
C334 C335 1.391 . S
C334 C338 1.396 1_655 S
C335 C330 1.391 . S
C335 C334 1.391 . S
C335 C336 1.399 1_554 S
C336 C335 1.399 1_556 S
C336 C337 1.399 1_655 S
C336 C339 1.453 1_655 S
C336 C340 1.684 . S
C337 C327 1.726 . S
C337 C336 1.399 1_455 S
C337 C338 1.386 1_556 S
C338 C308 1.723 . S
C338 C334 1.396 1_455 S
C338 C337 1.386 1_554 S
C339 H311 0.982 . S
C339 H315 0.979 . S
C339 H316 0.977 . S
C339 C336 1.453 1_455 S
C340 H312 0.979 . S
C340 H313 0.980 . S
C340 H314 0.983 . S
C340 C336 1.684 . S
H341 C359 0.948 . S
H342 C300 0.948 . S
H343 C318 0.979 . S
H344 C318 0.980 . S
H345 C318 0.983 . S
H346 C317 0.982 . S
H347 C317 0.979 . S
H348 C317 0.977 . S
H349 C319 0.948 . S
H350 C321 0.947 . S
H351 C322 0.948 . S
H352 C328 0.982 . S
H353 C328 0.979 . S
H354 C328 0.977 1_554 S
H355 C329 0.979 . S
H356 C329 0.980 1_554 S
H357 C329 0.983 . S
H358 C302 0.947 . S
C359 C302 1.392 . S
C359 C303 1.419 . S
C359 H341 0.948 . S
C360 C361 1.391 . S
C360 C364 1.391 . S
C360 H402 0.948 . S
C361 C360 1.391 . S
C361 C362 1.391 . S
C362 C361 1.391 . S
C362 H418 0.947 . S
C362 C419 1.392 . S
C363 C364 1.391 . S
C363 C367 1.397 1_545 S
C363 C419 1.419 . S
C364 C360 1.391 . S
C364 C363 1.391 . S
C364 C365 1.399 . S
C365 C364 1.399 . S
C365 C368 1.396 1_545 S
C365 C377 1.453 1_545 S
C365 C378 1.684 . S
H366 C390 0.948 . S
C367 C363 1.397 1_565 S
C367 C368 1.394 . S
C367 C386 1.723 1_556 S
C368 C365 1.396 1_565 S
C368 C367 1.394 . S
C368 C398 1.723 1_556 S
H369 C392 0.947 1_556 S
H370 C393 0.936 1_556 S
H371 C399 0.982 . S
H372 C400 0.979 . S
H373 C400 0.980 . S
H374 C400 0.983 . S
H375 C399 0.979 . S
H376 C399 0.977 . S
C377 C365 1.453 1_565 S
C377 H406 0.982 . S
C377 H407 0.979 . S
C377 H408 0.977 . S
C378 C365 1.684 . S
C378 H403 0.979 . S
C378 H404 0.980 . S
C378 H405 0.983 . S
C379 C380 1.391 . S
C379 C384 1.391 . S
C379 H409 0.948 . S
C380 C379 1.391 . S
C380 C381 1.391 . S
C381 C380 1.391 . S
C381 C382 1.392 . S
C381 H410 0.947 . S
C382 C381 1.392 . S
C382 C383 1.419 . S
C382 H411 0.948 . S
C383 C382 1.419 . S
C383 C384 1.391 . S
C383 C387 1.397 1_545 S
C384 C379 1.391 . S
C384 C383 1.391 . S
C384 C385 1.399 . S
C385 C384 1.399 . S
C385 C386 1.396 1_545 S
C385 C388 1.453 1_545 S
C385 C389 1.684 . S
C386 C367 1.723 1_554 S
C386 C385 1.396 1_565 S
C386 C387 1.394 . S
C387 C383 1.397 1_565 S
C387 C386 1.394 . S
C387 C397 1.723 . S
C388 C385 1.453 1_565 S
C388 H412 0.982 . S
C388 H413 0.979 . S
C388 H414 0.977 1_554 S
C389 C385 1.684 . S
C389 H415 0.979 . S
C389 H416 0.980 1_554 S
C389 H417 0.983 . S
C390 H366 0.948 . S
C390 C391 1.391 . S
C390 C395 1.391 . S
C391 C390 1.391 . S
C391 C392 1.391 . S
C392 H369 0.947 1_554 S
C392 C391 1.391 . S
C392 C393 1.395 . S
C393 H370 0.936 1_554 S
C393 C392 1.395 . S
C393 C394 1.427 . S
C394 C393 1.427 . S
C394 C395 1.391 . S
C394 C398 1.397 1_545 S
C395 C390 1.391 . S
C395 C394 1.391 . S
C395 C396 1.399 . S
C396 C395 1.399 . S
C396 C397 1.396 1_545 S
C396 C399 1.453 1_545 S
C396 C400 1.684 . S
C397 C387 1.723 . S
C397 C396 1.396 1_565 S
C397 C398 1.394 . S
C398 C368 1.723 1_554 S
C398 C394 1.397 1_565 S
C398 C397 1.394 . S
C399 H371 0.982 . S
C399 H375 0.979 . S
C399 H376 0.977 . S
C399 C396 1.453 1_565 S
C400 H372 0.979 . S
C400 H373 0.980 . S
C400 H374 0.983 . S
C400 C396 1.684 . S
H401 C419 0.948 . S
H402 C360 0.948 . S
H403 C378 0.979 . S
H404 C378 0.980 . S
H405 C378 0.983 . S
H406 C377 0.982 . S
H407 C377 0.979 . S
H408 C377 0.977 . S
H409 C379 0.948 . S
H410 C381 0.947 . S
H411 C382 0.948 . S
H412 C388 0.982 . S
H413 C388 0.979 . S
H414 C388 0.977 1_556 S
H415 C389 0.979 . S
H416 C389 0.980 1_556 S
H417 C389 0.983 . S
H418 C362 0.947 . S
C419 C362 1.392 . S
C419 C363 1.419 . S
C419 H401 0.948 . S
C420 C421 1.391 . S
C420 C424 1.391 . S
C420 H462 0.948 . S
C421 C420 1.391 . S
C421 C422 1.391 . S
C422 C421 1.391 . S
C422 H478 0.947 . S
C422 C479 1.392 . S
C423 C424 1.391 . S
C423 C427 1.397 . S
C423 C479 1.419 . S
C424 C420 1.391 . S
C424 C423 1.391 . S
C424 C425 1.399 . S
C425 C424 1.399 . S
C425 C428 1.396 . S
C425 C437 1.453 . S
C425 C438 1.684 . S
H426 C450 0.948 . S
C427 C423 1.397 . S
C427 C428 1.394 . S
C427 C446 1.723 1_556 S
C428 C425 1.396 . S
C428 C427 1.394 . S
C428 C458 1.723 1_556 S
H429 C452 0.947 1_556 S
H430 C453 0.955 . S
H431 C459 0.982 . S
H432 C460 0.979 . S
H433 C460 0.980 . S
H434 C460 0.983 . S
H435 C459 0.979 . S
H436 C459 0.977 . S
C437 C425 1.453 . S
C437 H466 0.982 . S
C437 H467 0.979 . S
C437 H468 0.977 . S
C438 C425 1.684 . S
C438 H463 0.979 . S
C438 H464 0.980 . S
C438 H465 0.983 . S
C439 C440 1.391 . S
C439 C444 1.391 . S
C439 H469 0.948 . S
C440 C439 1.391 . S
C440 C441 1.391 . S
C441 C440 1.391 . S
C441 C442 1.392 . S
C441 H470 0.947 . S
C442 C441 1.392 . S
C442 C443 1.419 . S
C442 H471 0.948 . S
C443 C442 1.419 . S
C443 C444 1.391 . S
C443 C447 1.397 . S
C444 C439 1.391 . S
C444 C443 1.391 . S
C444 C445 1.399 . S
C445 C444 1.399 . S
C445 C446 1.396 . S
C445 C448 1.453 . S
C445 C449 1.684 . S
C446 C427 1.723 1_554 S
C446 C445 1.396 . S
C446 C447 1.394 . S
C447 C443 1.397 . S
C447 C446 1.394 . S
C447 C457 1.723 . S
C448 C445 1.453 . S
C448 H472 0.982 . S
C448 H473 0.979 . S
C448 H474 0.977 1_554 S
C449 C445 1.684 . S
C449 H475 0.979 . S
C449 H476 0.980 1_554 S
C449 H477 0.983 . S
C450 H426 0.948 . S
C450 C451 1.391 . S
C450 C455 1.391 . S
C451 C450 1.391 . S
C451 C452 1.391 . S
C452 H429 0.947 1_554 S
C452 C451 1.391 . S
C452 C453 1.390 1_554 S
C453 H430 0.955 . S
C453 C452 1.390 1_556 S
C453 C454 1.414 1_556 S
C454 C453 1.414 1_554 S
C454 C455 1.391 . S
C454 C458 1.397 . S
C455 C450 1.391 . S
C455 C454 1.391 . S
C455 C456 1.399 . S
C456 C455 1.399 . S
C456 C457 1.396 . S
C456 C459 1.453 . S
C456 C460 1.684 . S
C457 C447 1.723 . S
C457 C456 1.396 . S
C457 C458 1.394 . S
C458 C428 1.723 1_554 S
C458 C454 1.397 . S
C458 C457 1.394 . S
C459 H431 0.982 . S
C459 H435 0.979 . S
C459 H436 0.977 . S
C459 C456 1.453 . S
C460 H432 0.979 . S
C460 H433 0.980 . S
C460 H434 0.983 . S
C460 C456 1.684 . S
H461 C479 0.948 . S
H462 C420 0.948 . S
H463 C438 0.979 . S
H464 C438 0.980 . S
H465 C438 0.983 . S
H466 C437 0.982 . S
H467 C437 0.979 . S
H468 C437 0.977 . S
H469 C439 0.948 . S
H470 C441 0.947 . S
H471 C442 0.948 . S
H472 C448 0.982 . S
H473 C448 0.979 . S
H474 C448 0.977 1_556 S
H475 C449 0.979 . S
H476 C449 0.980 1_556 S
H477 C449 0.983 . S
H478 C422 0.947 . S
C479 C422 1.392 . S
C479 C423 1.419 . S
C479 H461 0.948 . S
La480 C482 2.928 . S
La480 O500 2.521 . S
La480 O501 2.628 . S
La480 O502 2.554 . S
La480 O503 2.757 1_565 S
La480 O504 2.470 . S
La480 O509 2.482 1_455 S
La480 O511 2.503 1_565 S
La481 C491 2.928 . S
La481 O503 2.482 1_655 S
La481 O505 2.503 1_545 S
La481 O506 2.521 . S
La481 O507 2.628 . S
La481 O508 2.554 . S
La481 O509 2.757 1_545 S
La481 O510 2.470 . S
C482 La480 2.928 . S
C482 C483 1.503 . S
C482 O500 1.261 . S
C482 O501 1.243 . S
C483 C482 1.503 . S
C483 C484 1.394 . S
C483 C488 1.373 . S
C484 C483 1.394 . S
C484 C485 1.380 . S
C484 H512 0.930 . S
C485 C484 1.380 . S
C485 C486 1.376 . S
C485 H513 0.930 . S
C486 C485 1.376 . S
C486 C487 1.370 . S
C487 C486 1.370 . S
C487 C488 1.396 . S
C487 H514 0.941 . S
C488 C483 1.373 . S
C488 C487 1.396 . S
C488 H515 0.929 1_455 S
C489 O502 1.240 . S
C489 O503 1.289 1_565 S
C490 O504 1.258 1_655 S
C490 O505 1.256 . S
C491 La481 2.928 . S
C491 C492 1.503 . S
C491 O506 1.261 . S
C491 O507 1.243 . S
C492 C491 1.503 . S
C492 C493 1.394 . S
C492 C497 1.373 . S
C493 C492 1.394 . S
C493 C494 1.380 . S
C493 H516 0.930 . S
C494 C493 1.380 . S
C494 C495 1.376 . S
C494 H517 0.930 . S
C495 C494 1.376 . S
C495 C496 1.370 . S
C496 C495 1.370 . S
C496 C497 1.396 . S
C496 H518 0.932 . S
C497 C492 1.373 . S
C497 C496 1.396 . S
C497 H519 0.929 1_655 S
C498 O508 1.240 . S
C498 O509 1.289 1_545 S
C499 O510 1.258 1_455 S
C499 O511 1.256 . S
O500 La480 2.521 . S
O500 C482 1.261 . S
O501 La480 2.628 . S
O501 C482 1.243 . S
O502 La480 2.554 . S
O502 C489 1.240 . S
O503 La480 2.757 1_545 S
O503 La481 2.482 1_455 S
O503 C489 1.289 1_545 S
O504 La480 2.470 . S
O504 C490 1.258 1_455 S
O505 La481 2.503 1_565 S
O505 C490 1.256 . S
O506 La481 2.521 . S
O506 C491 1.261 . S
O507 La481 2.628 . S
O507 C491 1.243 . S
O508 La481 2.554 . S
O508 C498 1.240 . S
O509 La480 2.482 1_655 S
O509 La481 2.757 1_565 S
O509 C498 1.289 1_565 S
O510 La481 2.470 . S
O510 C499 1.258 1_655 S
O511 La480 2.503 1_545 S
O511 C499 1.256 . S
H512 C484 0.930 . S
H513 C485 0.930 . S
H514 C487 0.941 . S
H515 C488 0.929 1_655 S
H516 C493 0.930 . S
H517 C494 0.930 . S
H518 C496 0.932 . S
H519 C497 0.929 1_455 S
La520 C522 2.928 . S
La520 O540 2.521 . S
La520 O541 2.628 . S
La520 O542 2.554 . S
La520 O543 2.757 . S
La520 O544 2.470 . S
La520 O549 2.482 1_545 S
La520 O551 2.503 . S
La521 C531 2.928 . S
La521 O543 2.482 1_565 S
La521 O545 2.503 . S
La521 O546 2.521 . S
La521 O547 2.628 . S
La521 O548 2.554 . S
La521 O549 2.757 . S
La521 O550 2.470 . S
C522 La520 2.928 . S
C522 C523 1.503 . S
C522 O540 1.261 . S
C522 O541 1.243 . S
C523 C522 1.503 . S
C523 C524 1.394 . S
C523 C528 1.373 . S
C524 C523 1.394 . S
C524 C525 1.380 . S
C524 H552 0.930 . S
C525 C524 1.380 . S
C525 C526 1.376 . S
C525 H553 0.930 . S
C526 C525 1.376 . S
C526 C527 1.370 . S
C527 C526 1.370 . S
C527 C528 1.396 . S
C527 H554 0.928 1_545 S
C528 C523 1.373 . S
C528 C527 1.396 . S
C528 H555 0.929 1_545 S
C529 O542 1.240 . S
C529 O543 1.289 . S
C530 O544 1.258 1_565 S
C530 O545 1.256 . S
C531 La521 2.928 . S
C531 C532 1.503 . S
C531 O546 1.261 . S
C531 O547 1.243 . S
C532 C531 1.503 . S
C532 C533 1.394 . S
C532 C537 1.373 . S
C533 C532 1.394 . S
C533 C534 1.380 . S
C533 H556 0.930 . S
C534 C533 1.380 . S
C534 C535 1.376 . S
C534 H557 0.930 . S
C535 C534 1.376 . S
C535 C536 1.370 . S
C536 C535 1.370 . S
C536 C537 1.396 . S
C536 H558 0.919 1_565 S
C537 C532 1.373 . S
C537 C536 1.396 . S
C537 H559 0.929 1_565 S
C538 O548 1.240 . S
C538 O549 1.289 . S
C539 O550 1.258 1_545 S
C539 O551 1.256 . S
O540 La520 2.521 . S
O540 C522 1.261 . S
O541 La520 2.628 . S
O541 C522 1.243 . S
O542 La520 2.554 . S
O542 C529 1.240 . S
O543 La520 2.757 . S
O543 La521 2.482 1_545 S
O543 C529 1.289 . S
O544 La520 2.470 . S
O544 C530 1.258 1_545 S
O545 La521 2.503 . S
O545 C530 1.256 . S
O546 La521 2.521 . S
O546 C531 1.261 . S
O547 La521 2.628 . S
O547 C531 1.243 . S
O548 La521 2.554 . S
O548 C538 1.240 . S
O549 La520 2.482 1_565 S
O549 La521 2.757 . S
O549 C538 1.289 . S
O550 La521 2.470 . S
O550 C539 1.258 1_565 S
O551 La520 2.503 . S
O551 C539 1.256 . S
H552 C524 0.930 . S
H553 C525 0.930 . S
H554 C527 0.928 1_565 S
H555 C528 0.929 1_565 S
H556 C533 0.930 . S
H557 C534 0.930 . S
H558 C536 0.919 1_545 S
H559 C537 0.929 1_545 S
La560 C562 2.928 . S
La560 O580 2.521 . S
La560 O581 2.628 . S
La560 O582 2.554 . S
La560 O583 2.757 . S
La560 O584 2.470 . S
La560 O589 2.482 . S
La560 O591 2.503 . S
La561 C571 2.928 . S
La561 O583 2.482 . S
La561 O585 2.503 . S
La561 O586 2.521 . S
La561 O587 2.628 . S
La561 O588 2.554 . S
La561 O589 2.757 . S
La561 O590 2.470 . S
C562 La560 2.928 . S
C562 C563 1.503 . S
C562 O580 1.261 . S
C562 O581 1.243 . S
C563 C562 1.503 . S
C563 C564 1.394 . S
C563 C568 1.373 . S
C564 C563 1.394 . S
C564 C565 1.380 . S
C564 H592 0.930 . S
C565 C564 1.380 . S
C565 C566 1.376 . S
C565 H593 0.930 . S
C566 C565 1.376 . S
C566 C567 1.370 . S
C567 C566 1.370 . S
C567 C568 1.396 . S
C567 H594 0.929 . S
C568 C563 1.373 . S
C568 C567 1.396 . S
C568 H595 0.929 . S
C569 O582 1.240 . S
C569 O583 1.289 . S
C570 O584 1.258 . S
C570 O585 1.256 . S
C571 La561 2.928 . S
C571 C572 1.503 . S
C571 O586 1.261 . S
C571 O587 1.243 . S
C572 C571 1.503 . S
C572 C573 1.394 . S
C572 C577 1.373 . S
C573 C572 1.394 . S
C573 C574 1.380 . S
C573 H596 0.930 . S
C574 C573 1.380 . S
C574 C575 1.376 . S
C574 H597 0.930 . S
C575 C574 1.376 . S
C575 C576 1.370 . S
C576 C575 1.370 . S
C576 C577 1.396 . S
C576 H598 0.929 . S
C577 C572 1.373 . S
C577 C576 1.396 . S
C577 H599 0.929 . S
C578 O588 1.240 . S
C578 O589 1.289 . S
C579 O590 1.258 . S
C579 O591 1.256 . S
O580 La560 2.521 . S
O580 C562 1.261 . S
O581 La560 2.628 . S
O581 C562 1.243 . S
O582 La560 2.554 . S
O582 C569 1.240 . S
O583 La560 2.757 . S
O583 La561 2.482 . S
O583 C569 1.289 . S
O584 La560 2.470 . S
O584 C570 1.258 . S
O585 La561 2.503 . S
O585 C570 1.256 . S
O586 La561 2.521 . S
O586 C571 1.261 . S
O587 La561 2.628 . S
O587 C571 1.243 . S
O588 La561 2.554 . S
O588 C578 1.240 . S
O589 La560 2.482 . S
O589 La561 2.757 . S
O589 C578 1.289 . S
O590 La561 2.470 . S
O590 C579 1.258 . S
O591 La560 2.503 . S
O591 C579 1.256 . S
H592 C564 0.930 . S
H593 C565 0.930 . S
H594 C567 0.929 . S
H595 C568 0.929 . S
H596 C573 0.930 . S
H597 C574 0.930 . S
H598 C576 0.929 . S
H599 C577 0.929 . S
La600 C602 2.928 . S
La600 O620 2.521 . S
La600 O621 2.628 . S
La600 O622 2.554 . S
La600 O623 2.757 1_655 S
La600 O624 2.470 . S
La600 O629 2.482 . S
La600 O631 2.503 1_655 S
La601 C611 2.928 . S
La601 O623 2.482 . S
La601 O625 2.503 1_455 S
La601 O626 2.521 . S
La601 O627 2.628 . S
La601 O628 2.554 . S
La601 O629 2.757 1_455 S
La601 O630 2.470 . S
C602 La600 2.928 . S
C602 C603 1.503 . S
C602 O620 1.261 . S
C602 O621 1.243 . S
C603 C602 1.503 . S
C603 C604 1.394 . S
C603 C608 1.373 . S
C604 C603 1.394 . S
C604 C605 1.380 . S
C604 H632 0.930 . S
C605 C604 1.380 . S
C605 C606 1.376 . S
C605 H633 0.930 . S
C606 C605 1.376 . S
C606 C607 1.370 . S
C607 C606 1.370 . S
C607 C608 1.396 . S
C607 H634 0.929 . S
C608 C603 1.373 . S
C608 C607 1.396 . S
C608 H635 0.929 . S
C609 O622 1.257 . S
C609 O623 1.279 1_655 S
C610 O624 1.258 . S
C610 O625 1.256 . S
C611 La601 2.928 . S
C611 C612 1.503 . S
C611 O626 1.261 . S
C611 O627 1.243 . S
C612 C611 1.503 . S
C612 C613 1.394 . S
C612 C617 1.373 . S
C613 C612 1.394 . S
C613 C614 1.380 . S
C613 H636 0.930 . S
C614 C613 1.380 . S
C614 C615 1.376 . S
C614 H637 0.930 . S
C615 C614 1.376 . S
C615 C616 1.370 . S
C616 C615 1.370 . S
C616 C617 1.396 . S
C616 H638 0.929 . S
C617 C612 1.373 . S
C617 C616 1.396 . S
C617 H639 0.929 . S
C618 O628 1.263 . S
C618 O629 1.276 1_455 S
C619 O630 1.258 . S
C619 O631 1.256 . S
O620 La600 2.521 . S
O620 C602 1.261 . S
O621 La600 2.628 . S
O621 C602 1.243 . S
O622 La600 2.554 . S
O622 C609 1.257 . S
O623 La600 2.757 1_455 S
O623 La601 2.482 . S
O623 C609 1.279 1_455 S
O624 La600 2.470 . S
O624 C610 1.258 . S
O625 La601 2.503 1_655 S
O625 C610 1.256 . S
O626 La601 2.521 . S
O626 C611 1.261 . S
O627 La601 2.628 . S
O627 C611 1.243 . S
O628 La601 2.554 . S
O628 C618 1.263 . S
O629 La600 2.482 . S
O629 La601 2.757 1_655 S
O629 C618 1.276 1_655 S
O630 La601 2.470 . S
O630 C619 1.258 . S
O631 La600 2.503 1_455 S
O631 C619 1.256 . S
H632 C604 0.930 . S
H633 C605 0.930 . S
H634 C607 0.929 . S
H635 C608 0.929 . S
H636 C613 0.930 . S
H637 C614 0.930 . S
H638 C616 0.929 . S
H639 C617 0.929 . S
H640 C652 0.930 . S
H641 C654 0.930 . S
H642 C655 0.930 . S
H643 C659 0.959 . S
H644 C659 0.959 . S
H645 C659 0.961 . S
H646 C660 0.960 . S
H647 C660 0.961 . S
H648 C660 0.959 . S
H649 C663 0.929 . S
H650 C664 0.931 . S
H651 C666 0.930 . S
C652 H640 0.930 . S
C652 C653 1.399 1_565 S
C652 C657 1.399 . S
C653 C652 1.399 1_545 S
C653 C654 1.376 . S
C654 H641 0.930 . S
C654 C653 1.376 . S
C654 C655 1.388 . S
C655 H642 0.930 . S
C655 C654 1.388 . S
C655 C656 1.390 . S
C656 C655 1.390 . S
C656 C657 1.394 1_545 S
C656 C662 1.465 . S
C657 C652 1.399 . S
C657 C656 1.394 1_565 S
C657 C658 1.516 . S
C658 C657 1.516 . S
C658 C659 1.502 . S
C658 C660 1.561 . S
C658 C661 1.526 . S
C659 H643 0.959 . S
C659 H644 0.959 . S
C659 H645 0.961 . S
C659 C658 1.502 . S
C660 H646 0.960 . S
C660 H647 0.961 . S
C660 H648 0.959 . S
C660 C658 1.561 . S
C661 C658 1.526 . S
C661 C662 1.396 1_565 S
C661 C666 1.390 . S
C662 C656 1.465 . S
C662 C661 1.396 1_545 S
C662 C663 1.399 . S
C663 H649 0.929 . S
C663 C662 1.399 . S
C663 C664 1.385 . S
C664 H650 0.931 . S
C664 C663 1.385 . S
C664 C665 1.389 . S
C665 C664 1.389 . S
C665 C666 1.387 1_545 S
C666 H651 0.930 . S
C666 C661 1.390 . S
C666 C665 1.387 1_565 S
H667 C679 0.930 . S
H668 C681 0.930 . S
H669 C682 0.930 . S
H670 C686 0.959 . S
H671 C686 0.959 . S
H672 C686 0.961 . S
H673 C687 0.960 . S
H674 C687 0.961 . S
H675 C687 0.959 . S
H676 C690 0.929 . S
H677 C691 0.931 . S
H678 C693 0.930 . S
C679 H667 0.930 . S
C679 C680 1.399 . S
C679 C684 1.399 . S
C680 C679 1.399 . S
C680 C681 1.376 . S
C681 H668 0.930 . S
C681 C680 1.376 . S
C681 C682 1.388 . S
C682 H669 0.930 . S
C682 C681 1.388 . S
C682 C683 1.390 . S
C683 C682 1.390 . S
C683 C684 1.394 . S
C683 C689 1.465 . S
C684 C679 1.399 . S
C684 C683 1.394 . S
C684 C685 1.516 . S
C685 C684 1.516 . S
C685 C686 1.502 . S
C685 C687 1.561 . S
C685 C688 1.526 . S
C686 H670 0.959 . S
C686 H671 0.959 . S
C686 H672 0.961 . S
C686 C685 1.502 . S
C687 H673 0.960 . S
C687 H674 0.961 . S
C687 H675 0.959 . S
C687 C685 1.561 . S
C688 C685 1.526 . S
C688 C689 1.396 . S
C688 C693 1.390 . S
C689 C683 1.465 . S
C689 C688 1.396 . S
C689 C690 1.399 . S
C690 H676 0.929 . S
C690 C689 1.399 . S
C690 C691 1.385 . S
C691 H677 0.931 . S
C691 C690 1.385 . S
C691 C692 1.389 . S
C692 C691 1.389 . S
C692 C693 1.387 . S
C693 H678 0.930 . S
C693 C688 1.390 . S
C693 C692 1.387 . S
H694 C706 0.930 . S
H695 C708 0.930 . S
H696 C709 0.930 . S
H697 C713 0.959 . S
H698 C713 0.959 . S
H699 C713 0.961 . S
H700 C714 0.960 . S
H701 C714 0.961 . S
H702 C714 0.959 . S
H703 C717 0.929 . S
H704 C718 0.931 . S
H705 C720 0.930 . S
C706 H694 0.930 . S
C706 C707 1.399 . S
C706 C711 1.399 . S
C707 C706 1.399 . S
C707 C708 1.376 . S
C708 H695 0.930 . S
C708 C707 1.376 . S
C708 C709 1.388 . S
C709 H696 0.930 . S
C709 C708 1.388 . S
C709 C710 1.390 . S
C710 C709 1.390 . S
C710 C711 1.394 . S
C710 C716 1.465 . S
C711 C706 1.399 . S
C711 C710 1.394 . S
C711 C712 1.516 . S
C712 C711 1.516 . S
C712 C713 1.502 . S
C712 C714 1.561 . S
C712 C715 1.526 . S
C713 H697 0.959 . S
C713 H698 0.959 . S
C713 H699 0.961 . S
C713 C712 1.502 . S
C714 H700 0.960 . S
C714 H701 0.961 . S
C714 H702 0.959 . S
C714 C712 1.561 . S
C715 C712 1.526 . S
C715 C716 1.396 . S
C715 C720 1.390 . S
C716 C710 1.465 . S
C716 C715 1.396 . S
C716 C717 1.399 . S
C717 H703 0.929 . S
C717 C716 1.399 . S
C717 C718 1.385 . S
C718 H704 0.931 . S
C718 C717 1.385 . S
C718 C719 1.389 . S
C719 C718 1.389 . S
C719 C720 1.387 . S
C720 H705 0.930 . S
C720 C715 1.390 . S
C720 C719 1.387 . S
H721 C733 0.930 . S
H722 C735 0.930 . S
H723 C736 0.930 . S
H724 C740 0.959 . S
H725 C740 0.959 . S
H726 C740 0.961 . S
H727 C741 0.960 . S
H728 C741 0.961 . S
H729 C741 0.959 . S
H730 C744 0.929 . S
H731 C745 0.931 . S
H732 C747 0.930 . S
C733 H721 0.930 . S
C733 C734 1.366 1_455 S
C733 C738 1.399 . S
C734 C733 1.366 1_655 S
C734 C735 1.417 . S
C735 H722 0.930 . S
C735 C734 1.417 . S
C735 C736 1.388 . S
C736 H723 0.930 . S
C736 C735 1.388 . S
C736 C737 1.390 . S
C737 C736 1.390 . S
C737 C738 1.394 1_655 S
C737 C743 1.465 . S
C738 C733 1.399 . S
C738 C737 1.394 1_455 S
C738 C739 1.516 . S
C739 C738 1.516 . S
C739 C740 1.502 . S
C739 C741 1.561 . S
C739 C742 1.526 . S
C740 H724 0.959 . S
C740 H725 0.959 . S
C740 H726 0.961 . S
C740 C739 1.502 . S
C741 H727 0.960 . S
C741 H728 0.961 . S
C741 H729 0.959 . S
C741 C739 1.561 . S
C742 C739 1.526 . S
C742 C743 1.396 1_455 S
C742 C747 1.390 . S
C743 C737 1.465 . S
C743 C742 1.396 1_655 S
C743 C744 1.399 . S
C744 H730 0.929 . S
C744 C743 1.399 . S
C744 C745 1.385 . S
C745 H731 0.931 . S
C745 C744 1.385 . S
C745 C746 1.399 . S
C746 C745 1.399 . S
C746 C747 1.379 1_655 S
C747 H732 0.930 . S
C747 C742 1.390 . S
C747 C746 1.379 1_455 S
H748 C760 0.930 . S
H749 C762 0.930 . S
H750 C763 0.930 . S
H751 C767 0.959 . S
H752 C767 0.959 . S
H753 C767 0.961 1_554 S
H754 C768 0.960 . S
H755 C768 0.961 . S
H756 C768 0.959 . S
H757 C771 0.929 1_554 S
H758 C772 0.931 . S
H759 C774 0.930 . S
C760 H748 0.930 . S
C760 C761 1.399 1_545 S
C760 C765 1.399 . S
C761 C760 1.399 1_565 S
C761 C762 1.376 . S
C762 H749 0.930 . S
C762 C761 1.376 . S
C762 C763 1.388 . S
C763 H750 0.930 . S
C763 C762 1.388 . S
C763 C764 1.390 . S
C764 C763 1.390 . S
C764 C765 1.394 1_565 S
C764 C770 1.465 . S
C765 C760 1.399 . S
C765 C764 1.394 1_545 S
C765 C766 1.516 . S
C766 C765 1.516 . S
C766 C767 1.502 1_554 S
C766 C768 1.561 . S
C766 C769 1.526 1_554 S
C767 H751 0.959 . S
C767 H752 0.959 . S
C767 H753 0.961 1_556 S
C767 C766 1.502 1_556 S
C768 H754 0.960 . S
C768 H755 0.961 . S
C768 H756 0.959 . S
C768 C766 1.561 . S
C769 C766 1.526 1_556 S
C769 C770 1.396 1_546 S
C769 C774 1.390 . S
C770 C764 1.465 . S
C770 C769 1.396 1_564 S
C770 C771 1.399 1_554 S
C771 H757 0.929 1_556 S
C771 C770 1.399 1_556 S
C771 C772 1.385 . S
C772 H758 0.931 . S
C772 C771 1.385 . S
C772 C773 1.389 . S
C773 C772 1.389 . S
C773 C774 1.387 1_565 S
C774 H759 0.930 . S
C774 C769 1.390 . S
C774 C773 1.387 1_545 S
H775 C787 0.930 . S
H776 C789 0.930 . S
H777 C790 0.930 . S
H778 C794 0.959 . S
H779 C794 0.959 . S
H780 C794 0.961 . S
H781 C795 0.960 . S
H782 C795 0.961 . S
H783 C795 0.959 . S
H784 C798 0.929 . S
H785 C799 0.931 . S
H786 C801 0.930 . S
C787 H775 0.930 . S
C787 C788 1.399 . S
C787 C792 1.399 . S
C788 C787 1.399 . S
C788 C789 1.376 . S
C789 H776 0.930 . S
C789 C788 1.376 . S
C789 C790 1.388 . S
C790 H777 0.930 . S
C790 C789 1.388 . S
C790 C791 1.390 . S
C791 C790 1.390 . S
C791 C792 1.394 . S
C791 C797 1.465 1_554 S
C792 C787 1.399 . S
C792 C791 1.394 . S
C792 C793 1.516 . S
C793 C792 1.516 . S
C793 C794 1.502 . S
C793 C795 1.561 . S
C793 C796 1.526 1_554 S
C794 H778 0.959 . S
C794 H779 0.959 . S
C794 H780 0.961 . S
C794 C793 1.502 . S
C795 H781 0.960 . S
C795 H782 0.961 . S
C795 H783 0.959 . S
C795 C793 1.561 . S
C796 C793 1.526 1_556 S
C796 C797 1.396 . S
C796 C801 1.390 . S
C797 C791 1.465 1_556 S
C797 C796 1.396 . S
C797 C798 1.399 . S
C798 H784 0.929 . S
C798 C797 1.399 . S
C798 C799 1.385 . S
C799 H785 0.931 . S
C799 C798 1.385 . S
C799 C800 1.389 . S
C800 C799 1.389 . S
C800 C801 1.387 . S
C801 H786 0.930 . S
C801 C796 1.390 . S
C801 C800 1.387 . S
H802 C814 0.930 . S
H803 C816 0.930 . S
H804 C817 0.930 . S
H805 C821 0.959 . S
H806 C821 0.959 . S
H807 C821 0.961 . S
H808 C822 0.960 . S
H809 C822 0.961 1_556 S
H810 C822 0.959 1_556 S
H811 C825 0.929 . S
H812 C826 0.931 . S
H813 C828 0.930 . S
C814 H802 0.930 . S
C814 C815 1.399 . S
C814 C819 1.399 . S
C815 C814 1.399 . S
C815 C816 1.376 . S
C816 H803 0.930 . S
C816 C815 1.376 . S
C816 C817 1.388 . S
C817 H804 0.930 . S
C817 C816 1.388 . S
C817 C818 1.390 . S
C818 C817 1.390 . S
C818 C819 1.394 . S
C818 C824 1.473 . S
C819 C814 1.399 . S
C819 C818 1.394 . S
C819 C820 1.516 . S
C820 C819 1.516 . S
C820 C821 1.502 . S
C820 C822 1.561 . S
C820 C823 1.526 1_554 S
C821 H805 0.959 . S
C821 H806 0.959 . S
C821 H807 0.961 . S
C821 C820 1.502 . S
C822 H808 0.960 . S
C822 H809 0.961 1_554 S
C822 H810 0.959 1_554 S
C822 C820 1.561 . S
C823 C820 1.526 1_556 S
C823 C824 1.394 1_556 S
C823 C828 1.390 . S
C824 C818 1.473 . S
C824 C823 1.394 1_554 S
C824 C825 1.393 1_554 S
C825 H811 0.929 . S
C825 C824 1.393 1_556 S
C825 C826 1.385 . S
C826 H812 0.931 . S
C826 C825 1.385 . S
C826 C827 1.389 . S
C827 C826 1.389 . S
C827 C828 1.387 . S
C828 H813 0.930 . S
C828 C823 1.390 . S
C828 C827 1.387 . S
H829 C841 0.930 . S
H830 C843 0.930 . S
H831 C844 0.930 . S
H832 C848 0.959 . S
H833 C848 0.959 . S
H834 C848 0.961 1_554 S
H835 C849 0.960 1_554 S
H836 C849 0.961 . S
H837 C849 0.959 . S
H838 C852 0.929 1_554 S
H839 C853 0.931 . S
H840 C855 0.930 . S
C841 H829 0.930 . S
C841 C842 1.399 1_655 S
C841 C846 1.402 . S
C842 C841 1.399 1_455 S
C842 C843 1.376 . S
C843 H830 0.930 . S
C843 C842 1.376 . S
C843 C844 1.388 . S
C844 H831 0.930 . S
C844 C843 1.388 . S
C844 C845 1.390 . S
C845 C844 1.390 . S
C845 C846 1.387 1_455 S
C845 C851 1.465 . S
C846 C841 1.402 . S
C846 C845 1.387 1_655 S
C846 C847 1.519 . S
C847 C846 1.519 . S
C847 C848 1.502 1_554 S
C847 C849 1.561 1_654 S
C847 C850 1.526 1_554 S
C848 H832 0.959 . S
C848 H833 0.959 . S
C848 H834 0.961 1_556 S
C848 C847 1.502 1_556 S
C849 H835 0.960 1_556 S
C849 H836 0.961 . S
C849 H837 0.959 . S
C849 C847 1.561 1_456 S
C850 C847 1.526 1_556 S
C850 C851 1.396 1_656 S
C850 C855 1.390 . S
C851 C845 1.465 . S
C851 C850 1.396 1_454 S
C851 C852 1.399 1_554 S
C852 H838 0.929 1_556 S
C852 C851 1.399 1_556 S
C852 C853 1.385 . S
C853 H839 0.931 . S
C853 C852 1.385 . S
C853 C854 1.382 1_455 S
C854 C853 1.382 1_655 S
C854 C855 1.391 . S
C855 H840 0.930 . S
C855 C850 1.390 . S
C855 C854 1.391 . S
H856 C868 0.930 . S
H857 C870 0.930 . S
H858 C871 0.930 . S
H859 C875 0.959 1_455 S
H860 C875 0.959 . S
H861 C875 0.961 . S
H862 C876 0.960 . S
H863 C876 0.961 . S
H864 C876 0.959 . S
H865 C879 0.929 . S
H866 C880 0.931 . S
H867 C882 0.930 . S
C868 H856 0.930 . S
C868 C869 1.399 1_655 S
C868 C873 1.399 . S
C869 C868 1.399 1_455 S
C869 C870 1.376 . S
C870 H857 0.930 . S
C870 C869 1.376 . S
C870 C871 1.388 1_455 S
C871 H858 0.930 . S
C871 C870 1.388 1_655 S
C871 C872 1.390 . S
C872 C871 1.390 . S
C872 C873 1.394 . S
C872 C878 1.465 . S
C873 C868 1.399 . S
C873 C872 1.394 . S
C873 C874 1.516 . S
C874 C873 1.516 . S
C874 C875 1.502 . S
C874 C876 1.561 . S
C874 C877 1.526 . S
C875 H859 0.959 1_655 S
C875 H860 0.959 . S
C875 H861 0.961 . S
C875 C874 1.502 . S
C876 H862 0.960 . S
C876 H863 0.961 . S
C876 H864 0.959 . S
C876 C874 1.561 . S
C877 C874 1.526 . S
C877 C878 1.396 . S
C877 C882 1.390 . S
C878 C872 1.465 . S
C878 C877 1.396 . S
C878 C879 1.399 . S
C879 H865 0.929 . S
C879 C878 1.399 . S
C879 C880 1.385 . S
C880 H866 0.931 . S
C880 C879 1.385 . S
C880 C881 1.389 . S
C881 C880 1.389 . S
C881 C882 1.387 . S
C882 H867 0.930 . S
C882 C877 1.390 . S
C882 C881 1.387 . S
H883 C895 0.930 . S
H884 C897 0.930 . S
H885 C898 0.930 . S
H886 C902 0.959 1_565 S
H887 C902 0.959 . S
H888 C902 0.961 . S
H889 C903 0.960 . S
H890 C903 0.961 . S
H891 C903 0.959 . S
H892 C906 0.929 . S
H893 C907 0.931 . S
H894 C909 0.930 . S
C895 H883 0.930 . S
C895 C896 1.399 . S
C895 C900 1.399 1_545 S
C896 C895 1.399 . S
C896 C897 1.376 1_545 S
C897 H884 0.930 . S
C897 C896 1.376 1_565 S
C897 C898 1.388 . S
C898 H885 0.930 . S
C898 C897 1.388 . S
C898 C899 1.390 . S
C899 C898 1.390 . S
C899 C900 1.394 . S
C899 C905 1.465 . S
C900 C895 1.399 1_565 S
C900 C899 1.394 . S
C900 C901 1.516 1_565 S
C901 C900 1.516 1_545 S
C901 C902 1.502 . S
C901 C903 1.561 . S
C901 C904 1.526 1_545 S
C902 H886 0.959 1_545 S
C902 H887 0.959 . S
C902 H888 0.961 . S
C902 C901 1.502 . S
C903 H889 0.960 . S
C903 H890 0.961 . S
C903 H891 0.959 . S
C903 C901 1.561 . S
C904 C901 1.526 1_565 S
C904 C905 1.396 . S
C904 C909 1.390 . S
C905 C899 1.465 . S
C905 C904 1.396 . S
C905 C906 1.399 . S
C906 H892 0.929 . S
C906 C905 1.399 . S
C906 C907 1.385 . S
C907 H893 0.931 . S
C907 C906 1.385 . S
C907 C908 1.389 . S
C908 C907 1.389 . S
C908 C909 1.387 . S
C909 H894 0.930 . S
C909 C904 1.390 . S
C909 C908 1.387 . S
H910 C922 0.930 . S
H911 C924 0.930 . S
H912 C925 0.930 . S
H913 C929 0.959 . S
H914 C929 0.959 . S
H915 C929 0.961 . S
H916 C930 0.960 . S
H917 C930 0.961 . S
H918 C930 0.959 . S
H919 C933 0.929 . S
H920 C934 0.931 . S
H921 C936 0.930 . S
C922 H910 0.930 . S
C922 C923 1.399 . S
C922 C927 1.399 . S
C923 C922 1.399 . S
C923 C924 1.376 . S
C924 H911 0.930 . S
C924 C923 1.376 . S
C924 C925 1.388 . S
C925 H912 0.930 . S
C925 C924 1.388 . S
C925 C926 1.390 . S
C926 C925 1.390 . S
C926 C927 1.394 . S
C926 C932 1.465 . S
C927 C922 1.399 . S
C927 C926 1.394 . S
C927 C928 1.516 . S
C928 C927 1.516 . S
C928 C929 1.502 . S
C928 C930 1.561 . S
C928 C931 1.526 . S
C929 H913 0.959 . S
C929 H914 0.959 . S
C929 H915 0.961 . S
C929 C928 1.502 . S
C930 H916 0.960 . S
C930 H917 0.961 . S
C930 H918 0.959 . S
C930 C928 1.561 . S
C931 C928 1.526 . S
C931 C932 1.396 . S
C931 C936 1.390 . S
C932 C926 1.465 . S
C932 C931 1.396 . S
C932 C933 1.399 . S
C933 H919 0.929 . S
C933 C932 1.399 . S
C933 C934 1.385 . S
C934 H920 0.931 . S
C934 C933 1.385 . S
C934 C935 1.389 . S
C935 C934 1.389 . S
C935 C936 1.387 . S
C936 H921 0.930 . S
C936 C931 1.390 . S
C936 C935 1.387 . S
H937 C949 0.930 . S
H938 C951 0.930 . S
H939 C952 0.930 . S
H940 C956 0.959 . S
H941 C956 0.959 . S
H942 C956 0.961 . S
H943 C957 0.960 . S
H944 C957 0.961 . S
H945 C957 0.959 . S
H946 C960 0.929 . S
H947 C961 0.931 . S
H948 C963 0.930 . S
C949 H937 0.930 . S
C949 C950 1.399 . S
C949 C954 1.399 . S
C950 C949 1.399 . S
C950 C951 1.376 . S
C951 H938 0.930 . S
C951 C950 1.376 . S
C951 C952 1.388 . S
C952 H939 0.930 . S
C952 C951 1.388 . S
C952 C953 1.390 . S
C953 C952 1.390 . S
C953 C954 1.394 . S
C953 C959 1.465 . S
C954 C949 1.399 . S
C954 C953 1.394 . S
C954 C955 1.516 . S
C955 C954 1.516 . S
C955 C956 1.502 . S
C955 C957 1.561 . S
C955 C958 1.526 . S
C956 H940 0.959 . S
C956 H941 0.959 . S
C956 H942 0.961 . S
C956 C955 1.502 . S
C957 H943 0.960 . S
C957 H944 0.961 . S
C957 H945 0.959 . S
C957 C955 1.561 . S
C958 C955 1.526 . S
C958 C959 1.396 . S
C958 C963 1.390 . S
C959 C953 1.465 . S
C959 C958 1.396 . S
C959 C960 1.399 . S
C960 H946 0.929 . S
C960 C959 1.399 . S
C960 C961 1.385 . S
C961 H947 0.931 . S
C961 C960 1.385 . S
C961 C962 1.389 . S
C962 C961 1.389 . S
C962 C963 1.387 . S
C963 H948 0.930 . S
C963 C958 1.390 . S
C963 C962 1.387 . S
H964 C976 0.930 . S
H965 C978 0.930 . S
H966 C979 0.933 . S
H967 C983 0.959 . S
H968 C983 0.959 . S
H969 C983 0.961 . S
H970 C984 0.973 . S
H971 C984 0.949 1_455 S
H972 C984 0.986 . S
H973 C987 0.929 . S
H974 C988 0.931 . S
H975 C990 0.930 . S
C976 H964 0.930 . S
C976 C977 1.399 1_455 S
C976 C981 1.399 . S
C977 C976 1.399 1_655 S
C977 C978 1.376 . S
C978 H965 0.930 . S
C978 C977 1.376 . S
C978 C979 1.388 1_655 S
C979 H966 0.933 . S
C979 C978 1.388 1_455 S
C979 C980 1.390 . S
C980 C979 1.390 . S
C980 C981 1.394 . S
C980 C986 1.465 . S
C981 C976 1.399 . S
C981 C980 1.394 . S
C981 C982 1.516 1_554 S
C982 C981 1.516 1_556 S
C982 C983 1.502 . S
C982 C984 1.534 1_455 S
C982 C985 1.526 . S
C983 H967 0.959 . S
C983 H968 0.959 . S
C983 H969 0.961 . S
C983 C982 1.502 . S
C984 H970 0.973 . S
C984 H971 0.949 1_655 S
C984 H972 0.986 . S
C984 C982 1.534 1_655 S
C985 C982 1.526 . S
C985 C986 1.396 1_556 S
C985 C990 1.390 . S
C986 C980 1.465 . S
C986 C985 1.396 1_554 S
C986 C987 1.399 . S
C987 H973 0.929 . S
C987 C986 1.399 . S
C987 C988 1.385 . S
C988 H974 0.931 . S
C988 C987 1.385 . S
C988 C989 1.389 1_554 S
C989 C988 1.389 1_556 S
C989 C990 1.387 . S
C990 H975 0.930 . S
C990 C985 1.390 . S
C990 C989 1.387 . S
H991 C1003 0.930 . S
H992 C1005 0.930 . S
H993 C1006 0.930 1_556 S
H994 C1010 0.959 . S
H995 C1010 0.959 . S
H996 C1010 0.961 . S
H997 C1011 0.960 . S
H998 C1011 0.961 . S
H999 C1011 0.959 . S
H1000 C1014 0.929 1_565 S
H1001 C1015 0.931 . S
H1002 C1017 0.930 . S
C1003 H991 0.930 . S
C1003 C1004 1.399 1_545 S
C1003 C1008 1.399 . S
C1004 C1003 1.399 1_565 S
C1004 C1005 1.376 . S
C1005 H992 0.930 . S
C1005 C1004 1.376 . S
C1005 C1006 1.388 . S
C1006 H993 0.930 1_554 S
C1006 C1005 1.388 . S
C1006 C1007 1.390 1_565 S
C1007 C1006 1.390 1_545 S
C1007 C1008 1.394 . S
C1007 C1013 1.465 1_554 S
C1008 C1003 1.399 . S
C1008 C1007 1.394 . S
C1008 C1009 1.516 . S
C1009 C1008 1.516 . S
C1009 C1010 1.502 . S
C1009 C1011 1.561 . S
C1009 C1012 1.526 . S
C1010 H994 0.959 . S
C1010 H995 0.959 . S
C1010 H996 0.961 . S
C1010 C1009 1.502 . S
C1011 H997 0.960 . S
C1011 H998 0.961 . S
C1011 H999 0.959 . S
C1011 C1009 1.561 . S
C1012 C1009 1.526 . S
C1012 C1013 1.396 1_554 S
C1012 C1017 1.390 . S
C1013 C1007 1.465 1_556 S
C1013 C1012 1.396 1_556 S
C1013 C1014 1.399 . S
C1014 H1000 0.929 1_545 S
C1014 C1013 1.399 . S
C1014 C1015 1.385 . S
C1015 H1001 0.931 . S
C1015 C1014 1.385 . S
C1015 C1016 1.389 . S
C1016 C1015 1.389 . S
C1016 C1017 1.387 1_556 S
C1017 H1002 0.930 . S
C1017 C1012 1.390 . S
C1017 C1016 1.387 1_554 S
H1018 C1030 0.930 . S
H1019 C1032 0.930 . S
H1020 C1033 0.930 . S
H1021 C1037 0.959 . S
H1022 C1037 0.959 . S
H1023 C1037 0.961 . S
H1024 C1038 0.960 . S
H1025 C1038 0.959 1_556 S
H1026 C1038 0.959 1_556 S
H1027 C1041 0.929 . S
H1028 C1042 0.931 . S
H1029 C1044 0.930 1_554 S
C1030 H1018 0.930 . S
C1030 C1031 1.399 . S
C1030 C1035 1.399 . S
C1031 C1030 1.399 . S
C1031 C1032 1.376 . S
C1032 H1019 0.930 . S
C1032 C1031 1.376 . S
C1032 C1033 1.388 . S
C1033 H1020 0.930 . S
C1033 C1032 1.388 . S
C1033 C1034 1.390 . S
C1034 C1033 1.390 . S
C1034 C1035 1.394 . S
C1034 C1040 1.465 . S
C1035 C1030 1.399 . S
C1035 C1034 1.394 . S
C1035 C1036 1.516 . S
C1036 C1035 1.516 . S
C1036 C1037 1.502 . S
C1036 C1038 1.561 . S
C1036 C1039 1.526 . S
C1037 H1021 0.959 . S
C1037 H1022 0.959 . S
C1037 H1023 0.961 . S
C1037 C1036 1.502 . S
C1038 H1024 0.960 . S
C1038 H1025 0.959 1_554 S
C1038 H1026 0.959 1_554 S
C1038 C1036 1.561 . S
C1039 C1036 1.526 . S
C1039 C1040 1.396 . S
C1039 C1044 1.390 1_554 S
C1040 C1034 1.465 . S
C1040 C1039 1.396 . S
C1040 C1041 1.399 1_554 S
C1041 H1027 0.929 . S
C1041 C1040 1.399 1_556 S
C1041 C1042 1.385 . S
C1042 H1028 0.931 . S
C1042 C1041 1.385 . S
C1042 C1043 1.389 . S
C1043 C1042 1.389 . S
C1043 C1044 1.387 . S
C1044 H1029 0.930 1_556 S
C1044 C1039 1.390 1_556 S
C1044 C1043 1.387 . S
H1045 C1057 0.930 . S
H1046 C1059 0.930 . S
H1047 C1060 0.930 . S
H1048 C1064 0.959 . S
H1049 C1064 0.959 . S
H1050 C1064 0.961 . S
H1051 C1065 0.960 . S
H1052 C1065 0.961 . S
H1053 C1065 0.959 . S
H1054 C1068 0.929 . S
H1055 C1069 0.931 . S
H1056 C1071 0.930 . S
C1057 H1045 0.930 . S
C1057 C1058 1.399 . S
C1057 C1062 1.399 . S
C1058 C1057 1.399 . S
C1058 C1059 1.376 . S
C1059 H1046 0.930 . S
C1059 C1058 1.376 . S
C1059 C1060 1.388 1_554 S
C1060 H1047 0.930 . S
C1060 C1059 1.388 1_556 S
C1060 C1061 1.390 1_556 S
C1061 C1060 1.390 1_554 S
C1061 C1062 1.394 . S
C1061 C1067 1.465 1_554 S
C1062 C1057 1.399 . S
C1062 C1061 1.394 . S
C1062 C1063 1.516 . S
C1063 C1062 1.516 . S
C1063 C1064 1.502 . S
C1063 C1065 1.561 . S
C1063 C1066 1.526 . S
C1064 H1048 0.959 . S
C1064 H1049 0.959 . S
C1064 H1050 0.961 . S
C1064 C1063 1.502 . S
C1065 H1051 0.960 . S
C1065 H1052 0.961 . S
C1065 H1053 0.959 . S
C1065 C1063 1.561 . S
C1066 C1063 1.526 . S
C1066 C1067 1.396 1_554 S
C1066 C1071 1.390 . S
C1067 C1061 1.465 1_556 S
C1067 C1066 1.396 1_556 S
C1067 C1068 1.399 . S
C1068 H1054 0.929 . S
C1068 C1067 1.399 . S
C1068 C1069 1.385 . S
C1069 H1055 0.931 . S
C1069 C1068 1.385 . S
C1069 C1070 1.389 . S
C1070 C1069 1.389 . S
C1070 C1071 1.387 1_556 S
C1071 H1056 0.930 . S
C1071 C1066 1.390 . S
C1071 C1070 1.387 1_554 S
H1072 C1084 0.930 . S
H1073 C1086 0.930 . S
H1074 C1087 0.930 . S
H1075 C1091 0.959 . S
H1076 C1091 0.959 . S
H1077 C1091 0.961 . S
H1078 C1092 0.960 . S
H1079 C1092 0.961 . S
H1080 C1092 0.959 . S
H1081 C1095 0.929 . S
H1082 C1096 0.931 . S
H1083 C1098 0.930 1_655 S
C1084 H1072 0.930 . S
C1084 C1085 1.399 1_655 S
C1084 C1089 1.399 1_655 S
C1085 C1084 1.399 1_455 S
C1085 C1086 1.376 . S
C1086 H1073 0.930 . S
C1086 C1085 1.376 . S
C1086 C1087 1.388 . S
C1087 H1074 0.930 . S
C1087 C1086 1.388 . S
C1087 C1088 1.390 . S
C1088 C1087 1.390 . S
C1088 C1089 1.394 . S
C1088 C1094 1.465 . S
C1089 C1084 1.399 1_455 S
C1089 C1088 1.394 . S
C1089 C1090 1.516 1_455 S
C1090 C1089 1.516 1_655 S
C1090 C1091 1.502 . S
C1090 C1092 1.561 1_655 S
C1090 C1093 1.526 1_655 S
C1091 H1075 0.959 . S
C1091 H1076 0.959 . S
C1091 H1077 0.961 . S
C1091 C1090 1.502 . S
C1092 H1078 0.960 . S
C1092 H1079 0.961 . S
C1092 H1080 0.959 . S
C1092 C1090 1.561 1_455 S
C1093 C1090 1.526 1_455 S
C1093 C1094 1.396 . S
C1093 C1098 1.390 . S
C1094 C1088 1.465 . S
C1094 C1093 1.396 . S
C1094 C1095 1.399 . S
C1095 H1081 0.929 . S
C1095 C1094 1.399 . S
C1095 C1096 1.385 . S
C1096 H1082 0.931 . S
C1096 C1095 1.385 . S
C1096 C1097 1.389 . S
C1097 C1096 1.389 . S
C1097 C1098 1.387 . S
C1098 H1083 0.930 1_455 S
C1098 C1093 1.390 . S
C1098 C1097 1.387 . S
H1099 C1111 0.945 . S
H1100 C1113 0.930 . S
H1101 C1114 0.930 . S
H1102 C1118 0.959 . S
H1103 C1118 0.959 . S
H1104 C1118 0.961 . S
H1105 C1119 0.960 . S
H1106 C1119 0.961 . S
H1107 C1119 0.959 . S
H1108 C1122 0.929 . S
H1109 C1123 0.931 . S
H1110 C1125 0.930 . S
C1111 H1099 0.945 . S
C1111 C1112 1.391 1_565 S
C1111 C1116 1.393 1_565 S
C1112 C1111 1.391 1_545 S
C1112 C1113 1.376 . S
C1113 H1100 0.930 . S
C1113 C1112 1.376 . S
C1113 C1114 1.388 . S
C1114 H1101 0.930 . S
C1114 C1113 1.388 . S
C1114 C1115 1.390 . S
C1115 C1114 1.390 . S
C1115 C1116 1.394 . S
C1115 C1121 1.465 . S
C1116 C1111 1.393 1_545 S
C1116 C1115 1.394 . S
C1116 C1117 1.516 . S
C1117 C1116 1.516 . S
C1117 C1118 1.502 1_545 S
C1117 C1119 1.561 . S
C1117 C1120 1.526 . S
C1118 H1102 0.959 . S
C1118 H1103 0.959 . S
C1118 H1104 0.961 . S
C1118 C1117 1.502 1_565 S
C1119 H1105 0.960 . S
C1119 H1106 0.961 . S
C1119 H1107 0.959 . S
C1119 C1117 1.561 . S
C1120 C1117 1.526 . S
C1120 C1121 1.396 . S
C1120 C1125 1.390 . S
C1121 C1115 1.465 . S
C1121 C1120 1.396 . S
C1121 C1122 1.399 . S
C1122 H1108 0.929 . S
C1122 C1121 1.399 . S
C1122 C1123 1.385 . S
C1123 H1109 0.931 . S
C1123 C1122 1.385 . S
C1123 C1124 1.389 . S
C1124 C1123 1.389 . S
C1124 C1125 1.387 . S
C1125 H1110 0.930 . S
C1125 C1120 1.390 . S
C1125 C1124 1.387 . S
H1126 C1138 0.930 . S
H1127 C1140 0.930 . S
H1128 C1141 0.930 . S
H1129 C1145 0.959 . S
H1130 C1145 0.959 . S
H1131 C1145 0.961 . S
H1132 C1146 0.960 . S
H1133 C1146 0.961 . S
H1134 C1146 0.959 . S
H1135 C1149 0.929 . S
H1136 C1150 0.931 . S
H1137 C1152 0.930 . S
C1138 H1126 0.930 . S
C1138 C1139 1.399 . S
C1138 C1143 1.399 . S
C1139 C1138 1.399 . S
C1139 C1140 1.376 . S
C1140 H1127 0.930 . S
C1140 C1139 1.376 . S
C1140 C1141 1.388 . S
C1141 H1128 0.930 . S
C1141 C1140 1.388 . S
C1141 C1142 1.390 . S
C1142 C1141 1.390 . S
C1142 C1143 1.394 . S
C1142 C1148 1.465 . S
C1143 C1138 1.399 . S
C1143 C1142 1.394 . S
C1143 C1144 1.516 . S
C1144 C1143 1.516 . S
C1144 C1145 1.502 . S
C1144 C1146 1.561 . S
C1144 C1147 1.526 . S
C1145 H1129 0.959 . S
C1145 H1130 0.959 . S
C1145 H1131 0.961 . S
C1145 C1144 1.502 . S
C1146 H1132 0.960 . S
C1146 H1133 0.961 . S
C1146 H1134 0.959 . S
C1146 C1144 1.561 . S
C1147 C1144 1.526 . S
C1147 C1148 1.396 . S
C1147 C1152 1.390 . S
C1148 C1142 1.465 . S
C1148 C1147 1.396 . S
C1148 C1149 1.399 . S
C1149 H1135 0.929 . S
C1149 C1148 1.399 . S
C1149 C1150 1.385 . S
C1150 H1136 0.931 . S
C1150 C1149 1.385 . S
C1150 C1151 1.389 . S
C1151 C1150 1.389 . S
C1151 C1152 1.387 . S
C1152 H1137 0.930 . S
C1152 C1147 1.390 . S
C1152 C1151 1.387 . S
H1153 C1165 0.930 . S
H1154 C1167 0.930 . S
H1155 C1168 0.930 . S
H1156 C1172 0.959 . S
H1157 C1172 0.959 . S
H1158 C1172 0.961 . S
H1159 C1173 0.960 . S
H1160 C1173 0.961 . S
H1161 C1173 0.959 . S
H1162 C1176 0.929 . S
H1163 C1177 0.931 . S
H1164 C1179 0.930 . S
C1165 H1153 0.930 . S
C1165 C1166 1.399 . S
C1165 C1170 1.399 . S
C1166 C1165 1.399 . S
C1166 C1167 1.376 . S
C1167 H1154 0.930 . S
C1167 C1166 1.376 . S
C1167 C1168 1.388 . S
C1168 H1155 0.930 . S
C1168 C1167 1.388 . S
C1168 C1169 1.390 . S
C1169 C1168 1.390 . S
C1169 C1170 1.394 . S
C1169 C1175 1.465 . S
C1170 C1165 1.399 . S
C1170 C1169 1.394 . S
C1170 C1171 1.516 . S
C1171 C1170 1.516 . S
C1171 C1172 1.502 . S
C1171 C1173 1.561 . S
C1171 C1174 1.526 . S
C1172 H1156 0.959 . S
C1172 H1157 0.959 . S
C1172 H1158 0.961 . S
C1172 C1171 1.502 . S
C1173 H1159 0.960 . S
C1173 H1160 0.961 . S
C1173 H1161 0.959 . S
C1173 C1171 1.561 . S
C1174 C1171 1.526 . S
C1174 C1175 1.396 . S
C1174 C1179 1.390 . S
C1175 C1169 1.465 . S
C1175 C1174 1.396 . S
C1175 C1176 1.399 . S
C1176 H1162 0.929 . S
C1176 C1175 1.399 . S
C1176 C1177 1.385 . S
C1177 H1163 0.931 . S
C1177 C1176 1.385 . S
C1177 C1178 1.389 . S
C1178 C1177 1.389 . S
C1178 C1179 1.387 . S
C1179 H1164 0.930 . S
C1179 C1174 1.390 . S
C1179 C1178 1.387 . S
H1180 C1192 0.930 1_455 S
H1181 C1194 0.930 . S
H1182 C1195 0.930 . S
H1183 C1199 0.959 . S
H1184 C1199 0.959 . S
H1185 C1199 0.961 . S
H1186 C1200 0.960 . S
H1187 C1200 0.961 . S
H1188 C1200 0.959 . S
H1189 C1203 0.929 . S
H1190 C1204 0.931 . S
H1191 C1206 0.930 . S
C1192 H1180 0.930 1_655 S
C1192 C1193 1.399 . S
C1192 C1197 1.399 . S
C1193 C1192 1.399 . S
C1193 C1194 1.376 . S
C1194 H1181 0.930 . S
C1194 C1193 1.376 . S
C1194 C1195 1.388 . S
C1195 H1182 0.930 . S
C1195 C1194 1.388 . S
C1195 C1196 1.390 . S
C1196 C1195 1.390 . S
C1196 C1197 1.394 . S
C1196 C1202 1.465 . S
C1197 C1192 1.399 . S
C1197 C1196 1.394 . S
C1197 C1198 1.516 . S
C1198 C1197 1.516 . S
C1198 C1199 1.502 1_655 S
C1198 C1200 1.561 . S
C1198 C1201 1.526 . S
C1199 H1183 0.959 . S
C1199 H1184 0.959 . S
C1199 H1185 0.961 . S
C1199 C1198 1.502 1_455 S
C1200 H1186 0.960 . S
C1200 H1187 0.961 . S
C1200 H1188 0.959 . S
C1200 C1198 1.561 . S
C1201 C1198 1.526 . S
C1201 C1202 1.396 . S
C1201 C1206 1.390 . S
C1202 C1196 1.465 . S
C1202 C1201 1.396 . S
C1202 C1203 1.399 . S
C1203 H1189 0.929 . S
C1203 C1202 1.399 . S
C1203 C1204 1.385 . S
C1204 H1190 0.931 . S
C1204 C1203 1.385 . S
C1204 C1205 1.389 . S
C1205 C1204 1.389 . S
C1205 C1206 1.387 . S
C1206 H1191 0.930 . S
C1206 C1201 1.390 . S
C1206 C1205 1.387 . S
H1207 C1219 0.930 . S
H1208 C1221 0.930 . S
H1209 C1222 0.930 . S
H1210 C1226 0.959 . S
H1211 C1226 0.959 . S
H1212 C1226 0.961 . S
H1213 C1227 0.960 . S
H1214 C1227 0.961 . S
H1215 C1227 0.959 1_565 S
H1216 C1230 0.929 . S
H1217 C1231 0.931 . S
H1218 C1233 0.930 . S
C1219 H1207 0.930 . S
C1219 C1220 1.399 1_545 S
C1219 C1224 1.399 . S
C1220 C1219 1.399 1_565 S
C1220 C1221 1.376 . S
C1221 H1208 0.930 . S
C1221 C1220 1.376 . S
C1221 C1222 1.388 . S
C1222 H1209 0.930 . S
C1222 C1221 1.388 . S
C1222 C1223 1.390 . S
C1223 C1222 1.390 . S
C1223 C1224 1.394 1_565 S
C1223 C1229 1.465 . S
C1224 C1219 1.399 . S
C1224 C1223 1.394 1_545 S
C1224 C1225 1.516 . S
C1225 C1224 1.516 . S
C1225 C1226 1.502 . S
C1225 C1227 1.561 . S
C1225 C1228 1.530 . S
C1226 H1210 0.959 . S
C1226 H1211 0.959 . S
C1226 H1212 0.961 . S
C1226 C1225 1.502 . S
C1227 H1213 0.960 . S
C1227 H1214 0.961 . S
C1227 H1215 0.959 1_545 S
C1227 C1225 1.561 . S
C1228 C1225 1.530 . S
C1228 C1229 1.390 1_545 S
C1228 C1233 1.391 . S
C1229 C1223 1.465 . S
C1229 C1228 1.390 1_565 S
C1229 C1230 1.399 . S
C1230 H1216 0.929 . S
C1230 C1229 1.399 . S
C1230 C1231 1.385 . S
C1231 H1217 0.931 . S
C1231 C1230 1.385 . S
C1231 C1232 1.389 . S
C1232 C1231 1.389 . S
C1232 C1233 1.387 1_565 S
C1233 H1218 0.930 . S
C1233 C1228 1.391 . S
C1233 C1232 1.387 1_545 S
H1234 C1246 0.930 . S
H1235 C1248 0.930 . S
H1236 C1249 0.930 . S
H1237 C1253 0.959 . S
H1238 C1253 0.959 . S
H1239 C1253 0.961 . S
H1240 C1254 0.960 . S
H1241 C1254 0.961 . S
H1242 C1254 0.959 . S
H1243 C1257 0.929 . S
H1244 C1258 0.931 . S
H1245 C1260 0.930 . S
C1246 H1234 0.930 . S
C1246 C1247 1.399 . S
C1246 C1251 1.399 . S
C1247 C1246 1.399 . S
C1247 C1248 1.376 . S
C1248 H1235 0.930 . S
C1248 C1247 1.376 . S
C1248 C1249 1.388 . S
C1249 H1236 0.930 . S
C1249 C1248 1.388 . S
C1249 C1250 1.390 . S
C1250 C1249 1.390 . S
C1250 C1251 1.394 . S
C1250 C1256 1.465 . S
C1251 C1246 1.399 . S
C1251 C1250 1.394 . S
C1251 C1252 1.516 . S
C1252 C1251 1.516 . S
C1252 C1253 1.502 . S
C1252 C1254 1.561 . S
C1252 C1255 1.526 . S
C1253 H1237 0.959 . S
C1253 H1238 0.959 . S
C1253 H1239 0.961 . S
C1253 C1252 1.502 . S
C1254 H1240 0.960 . S
C1254 H1241 0.961 . S
C1254 H1242 0.959 . S
C1254 C1252 1.561 . S
C1255 C1252 1.526 . S
C1255 C1256 1.396 . S
C1255 C1260 1.390 . S
C1256 C1250 1.465 . S
C1256 C1255 1.396 . S
C1256 C1257 1.399 . S
C1257 H1243 0.929 . S
C1257 C1256 1.399 . S
C1257 C1258 1.385 . S
C1258 H1244 0.931 . S
C1258 C1257 1.385 . S
C1258 C1259 1.389 . S
C1259 C1258 1.389 . S
C1259 C1260 1.387 . S
C1260 H1245 0.930 . S
C1260 C1255 1.390 . S
C1260 C1259 1.387 . S
H1261 C1273 0.930 . S
H1262 C1275 0.930 . S
H1263 C1276 0.930 . S
H1264 C1280 0.959 . S
H1265 C1280 0.959 . S
H1266 C1280 0.961 . S
H1267 C1281 0.960 . S
H1268 C1281 0.961 . S
H1269 C1281 0.959 . S
H1270 C1284 0.929 . S
H1271 C1285 0.931 . S
H1272 C1287 0.930 . S
C1273 H1261 0.930 . S
C1273 C1274 1.399 . S
C1273 C1278 1.399 . S
C1274 C1273 1.399 . S
C1274 C1275 1.376 . S
C1275 H1262 0.930 . S
C1275 C1274 1.376 . S
C1275 C1276 1.388 . S
C1276 H1263 0.930 . S
C1276 C1275 1.388 . S
C1276 C1277 1.390 . S
C1277 C1276 1.390 . S
C1277 C1278 1.394 . S
C1277 C1283 1.465 . S
C1278 C1273 1.399 . S
C1278 C1277 1.394 . S
C1278 C1279 1.516 . S
C1279 C1278 1.516 . S
C1279 C1280 1.502 . S
C1279 C1281 1.561 . S
C1279 C1282 1.526 . S
C1280 H1264 0.959 . S
C1280 H1265 0.959 . S
C1280 H1266 0.961 . S
C1280 C1279 1.502 . S
C1281 H1267 0.960 . S
C1281 H1268 0.961 . S
C1281 H1269 0.959 . S
C1281 C1279 1.561 . S
C1282 C1279 1.526 . S
C1282 C1283 1.396 . S
C1282 C1287 1.390 . S
C1283 C1277 1.465 . S
C1283 C1282 1.396 . S
C1283 C1284 1.399 . S
C1284 H1270 0.929 . S
C1284 C1283 1.399 . S
C1284 C1285 1.385 . S
C1285 H1271 0.931 . S
C1285 C1284 1.385 . S
C1285 C1286 1.389 . S
C1286 C1285 1.389 . S
C1286 C1287 1.387 . S
C1287 H1272 0.930 . S
C1287 C1282 1.390 . S
C1287 C1286 1.387 . S
C653 C391 2.241 . S
C665 C489 2.367 1_545 S
C692 C529 2.372 . S
C680 C451 2.273 . S
C719 C569 2.382 . S
C707 C241 1.975 . S
C746 C609 2.353 . S
C734 C331 2.037 . S
C773 C498 2.366 1_565 S
C761 C121 2.029 . S
C788 C211 2.253 . S
C800 C538 2.367 . S
C815 C31 2.264 . S
C827 C578 2.360 . S
C842 C91 2.042 1_455 S
C854 C618 2.353 1_655 S
C881 C495 0.472 . S
C869 C301 0.437 1_455 S
C908 C535 0.543 . S
C896 C380 0.359 . S
C935 C575 0.519 . S
C923 C440 0.364 . S
C950 C260 0.579 . S
C962 C615 0.559 . S
C977 C61 0.403 . S
C989 C486 0.442 . S
C1016 C526 0.372 . S
C1004 C140 0.625 . S
C1043 C566 0.328 . S
C1031 C200 0.550 . S
C1058 C20 0.481 . S
C1070 C606 0.403 . S
C1085 C320 2.987 1_455 S
C1097 C499 3.223 . S
C1112 C361 2.545 . S
C1124 C539 3.211 . S
C1151 C579 3.205 . S
C1139 C421 2.536 . S
C1178 C619 3.204 . S
C1166 C271 3.012 . S
C1193 C80 3.007 . S
C1205 C490 3.228 . S
C1232 C530 3.215 . S
C1220 C151 2.968 . S
C1259 C570 3.189 . S
C1247 C181 2.635 . S
C1274 C1 2.623 . S
C1286 C610 3.203 . S
