# Generated by pormake.
# Topology zzz, (3,6)-cn, num edge types: 1
# Building blocks:
#     Node 0, Type 0, BuildingBlock: KAKCAD_clean_linker_0, # of connection points: 3
#     Node 1, Type 0, BuildingBlock: KAKCAD_clean_linker_0, # of connection points: 3
#     Node 2, Type 0, BuildingBlock: KAKCAD_clean_linker_0, # of connection points: 3
#     Node 3, Type 0, BuildingBlock: KAKCAD_clean_linker_0, # of connection points: 3
#     Node 4, Type 0, BuildingBlock: KAKCAD_clean_linker_0, # of connection points: 3
#     Node 5, Type 0, BuildingBlock: KAKCAD_clean_linker_0, # of connection points: 3
#     Node 6, Type 0, BuildingBlock: KAKCAD_clean_linker_0, # of connection points: 3
#     Node 7, Type 0, BuildingBlock: KAKCAD_clean_linker_0, # of connection points: 3
#     Node 8, Type 1, BuildingBlock: BETDIP_clean_sbu_0, # of connection points: 6
#     Node 9, Type 1, BuildingBlock: BETDIP_clean_sbu_0, # of connection points: 6
#     Node 10, Type 1, BuildingBlock: BETDIP_clean_sbu_0, # of connection points: 6
#     Node 11, Type 1, BuildingBlock: BETDIP_clean_sbu_0, # of connection points: 6
#     Edge 12, Type (0, 1), BuildingBlock: TEMPAE_clean_linker_10, # of connection points: 2
#     Edge 13, Type (0, 1), BuildingBlock: TEMPAE_clean_linker_10, # of connection points: 2
#     Edge 14, Type (0, 1), BuildingBlock: TEMPAE_clean_linker_10, # of connection points: 2
#     Edge 15, Type (0, 1), BuildingBlock: TEMPAE_clean_linker_10, # of connection points: 2
#     Edge 16, Type (0, 1), BuildingBlock: TEMPAE_clean_linker_10, # of connection points: 2
#     Edge 17, Type (0, 1), BuildingBlock: TEMPAE_clean_linker_10, # of connection points: 2
#     Edge 18, Type (0, 1), BuildingBlock: TEMPAE_clean_linker_10, # of connection points: 2
#     Edge 19, Type (0, 1), BuildingBlock: TEMPAE_clean_linker_10, # of connection points: 2
#     Edge 20, Type (0, 1), BuildingBlock: TEMPAE_clean_linker_10, # of connection points: 2
#     Edge 21, Type (0, 1), BuildingBlock: TEMPAE_clean_linker_10, # of connection points: 2
#     Edge 22, Type (0, 1), BuildingBlock: TEMPAE_clean_linker_10, # of connection points: 2
#     Edge 23, Type (0, 1), BuildingBlock: TEMPAE_clean_linker_10, # of connection points: 2
#     Edge 24, Type (0, 1), BuildingBlock: TEMPAE_clean_linker_10, # of connection points: 2
#     Edge 25, Type (0, 1), BuildingBlock: TEMPAE_clean_linker_10, # of connection points: 2
#     Edge 26, Type (0, 1), BuildingBlock: TEMPAE_clean_linker_10, # of connection points: 2
#     Edge 27, Type (0, 1), BuildingBlock: TEMPAE_clean_linker_10, # of connection points: 2
#     Edge 28, Type (0, 1), BuildingBlock: TEMPAE_clean_linker_10, # of connection points: 2
#     Edge 29, Type (0, 1), BuildingBlock: TEMPAE_clean_linker_10, # of connection points: 2
#     Edge 30, Type (0, 1), BuildingBlock: TEMPAE_clean_linker_10, # of connection points: 2
#     Edge 31, Type (0, 1), BuildingBlock: TEMPAE_clean_linker_10, # of connection points: 2
#     Edge 32, Type (0, 1), BuildingBlock: TEMPAE_clean_linker_10, # of connection points: 2
#     Edge 33, Type (0, 1), BuildingBlock: TEMPAE_clean_linker_10, # of connection points: 2
#     Edge 34, Type (0, 1), BuildingBlock: TEMPAE_clean_linker_10, # of connection points: 2
#     Edge 35, Type (0, 1), BuildingBlock: TEMPAE_clean_linker_10, # of connection points: 2
# Relax obj value: 0.437
# Max RMSD: 0.264
# Mean RMSD: 0.241
data_MOF--net-zzz--node1-BETDIP_clean_sbu_0--node2-KAKCAD_clean_linker_0--edge1-TEMPAE_clean_linker_10
_symmetry_space_group_name_H-M    P1
_symmetry_Int_Tables_number       1
_symmetry_cell_setting            triclinic
loop_
_symmetry_equiv_pos_as_xyz
'x, y, z'
_cell_length_a     60.248635
_cell_length_b     60.274615
_cell_length_c     18.766726
_cell_angle_alpha  89.689299
_cell_angle_beta   89.921439
_cell_angle_gamma 89.964447
loop_
_atom_site_label
_atom_site_type_symbol
_atom_site_fract_x
_atom_site_fract_y
_atom_site_fract_z
_atom_type_partial_charge
C0 C 0.77952 0.58813 0.10184 0.0
C1 C 0.78004 0.5745 0.04109 0.0
C2 C 0.76566 0.58285 0.15925 0.0
C3 C 0.75163 0.56433 0.15578 0.0
C4 C 0.74995 0.55262 0.09162 0.0
C5 C 0.76406 0.55759 0.03493 0.0
C6 C 0.74139 0.55494 0.22085 0.0
C7 C 0.71945 0.54764 0.21968 0.0
C8 C 0.71062 0.53503 0.27589 0.0
C9 C 0.72434 0.52951 0.33488 0.0
C10 C 0.74646 0.53765 0.33795 0.0
C11 C 0.75458 0.55033 0.28043 0.0
C12 C 0.7623 0.53267 0.3975 0.0
C13 C 0.77524 0.54995 0.42572 0.0
C14 C 0.76765 0.51075 0.41701 0.0
C15 C 0.78636 0.50625 0.45985 0.0
C16 C 0.80021 0.52355 0.48424 0.0
C17 C 0.68726 0.52751 0.26694 0.0
C18 C 0.67058 0.54366 0.2591 0.0
C19 C 0.6828 0.50582 0.24411 0.0
C20 C 0.6628 0.50088 0.20895 0.0
C21 C 0.6469 0.5176 0.19506 0.0
C22 C 0.65074 0.53882 0.22364 0.0
C23 C 0.79387 0.5455 0.46802 0.0
H24 H 0.79112 0.60171 0.10753 0.0
H25 H 0.76689 0.59238 0.20787 0.0
H26 H 0.73925 0.53824 0.08756 0.0
H27 H 0.76391 0.54658 0.98954 0.0
H28 H 0.70933 0.55117 0.17316 0.0
H29 H 0.77181 0.55553 0.28008 0.0
H30 H 0.71782 0.5194 0.37795 0.0
H31 H 0.77164 0.56704 0.41166 0.0
H32 H 0.75818 0.49704 0.39574 0.0
H33 H 0.7903 0.48913 0.4721 0.0
H34 H 0.67377 0.56065 0.2747 0.0
H35 H 0.6955 0.49315 0.24806 0.0
H36 H 0.80399 0.55939 0.48451 0.0
H37 H 0.63923 0.5523 0.21391 0.0
H38 H 0.66034 0.4842 0.18945 0.0
C39 C 0.91665 0.77129 0.08757 0.0
C40 C 0.92987 0.77184 0.02559 0.0
C41 C 0.9226 0.75777 0.1452 0.0
C42 C 0.94143 0.74413 0.14082 0.0
C43 C 0.95266 0.74237 0.07552 0.0
C44 C 0.94699 0.75611 0.01854 0.0
C45 C 0.95173 0.73462 0.20567 0.0
C46 C 0.96064 0.71328 0.20427 0.0
C47 C 0.97463 0.70566 0.2586 0.0
C48 C 0.97955 0.71977 0.31682 0.0
C49 C 0.96971 0.7412 0.32056 0.0
C50 C 0.95588 0.74822 0.26442 0.0
C51 C 0.97422 0.75755 0.37882 0.0
C52 C 0.95641 0.76947 0.40867 0.0
C53 C 0.99592 0.76429 0.39567 0.0
C54 C 0.99962 0.78329 0.43762 0.0
C55 C 0.9817 0.79606 0.46384 0.0
C56 C 0.9845 0.68333 0.24743 0.0
C57 C 0.9712 0.66448 0.25861 0.0
C58 C 1.00311 0.68141 0.20266 0.0
C59 C 1.00727 0.66169 0.16537 0.0
C60 C 0.99283 0.64336 0.17168 0.0
C61 C 0.97537 0.64472 0.22159 0.0
C62 C 0.96006 0.78839 0.45013 0.0
H63 H 0.90293 0.78272 0.09399 0.0
H64 H 0.9134 0.75904 0.19464 0.0
H65 H 0.96727 0.732 0.07055 0.0
H66 H 0.95768 0.75598 0.97215 0.0
H67 H 0.95744 0.70278 0.15859 0.0
H68 H 0.94948 0.76504 0.26419 0.0
H69 H 0.99072 0.71419 0.35837 0.0
H70 H 0.93946 0.7648 0.39672 0.0
H71 H 0.01002 0.75565 0.37311 0.0
H72 H 0.01657 0.78828 0.44789 0.0
H73 H 0.9564 0.66563 0.29124 0.0
H74 H 0.01321 0.69585 0.1911 0.0
H75 H 0.94572 0.79763 0.46812 0.0
H76 H 0.96413 0.63089 0.2292 0.0
H77 H 0.02076 0.66152 0.12724 0.0
C78 C 0.75205 0.03545 0.97601 0.0
C79 C 0.73919 0.05486 0.97875 0.0
C80 C 0.76151 0.02678 0.03805 0.0
C81 C 0.75807 0.03731 0.10378 0.0
C82 C 0.74667 0.0576 0.10552 0.0
C83 C 0.7374 0.06638 0.04339 0.0
C84 C 0.76512 0.02641 0.17079 0.0
C85 C 0.78633 0.01749 0.17653 0.0
C86 C 0.7931 1.00632 0.23833 0.0
C87 C 0.77816 1.00418 0.29653 0.0
C88 C 0.75645 0.01344 0.29186 0.0
C89 C 0.75029 0.02415 0.22781 0.0
C90 C 0.73949 0.01215 0.35097 0.0
C91 C 0.73662 0.99304 0.39343 0.0
C92 C 0.72429 0.02968 0.36021 0.0
C93 C 0.70583 0.02754 0.40488 0.0
C94 C 0.70213 0.00811 0.44536 0.0
C95 C 0.81614 0.9976 0.23693 0.0
C96 C 0.82026 0.97765 0.20073 0.0
C97 C 0.83366 0.01278 0.24446 0.0
C98 C 0.85402 0.00923 0.21003 0.0
C99 C 0.85735 0.99037 0.16735 0.0
C100 C 0.84069 0.974 0.16658 0.0
C101 C 0.71835 0.99113 0.44036 0.0
H102 H 0.75351 0.02622 0.92684 0.0
H103 H 0.77028 0.01112 0.03533 0.0
H104 H 0.74412 0.06619 0.15544 0.0
H105 H 0.72729 0.0812 0.04715 0.0
H106 H 0.79781 0.01928 0.13223 0.0
H107 H 0.73351 0.03028 0.22093 0.0
H108 H 0.78346 0.99575 0.34467 0.0
H109 H 0.74796 0.97919 0.38851 0.0
H110 H 0.72615 0.04504 0.3306 0.0
H111 H 0.69408 0.04109 0.40476 0.0
H112 H 0.80687 0.96597 0.19218 0.0
H113 H 0.83081 0.02855 0.27038 0.0
H114 H 0.71689 0.97609 0.47163 0.0
H115 H 0.84261 0.95933 0.13408 0.0
H116 H 0.8666 0.02203 0.21266 0.0
C117 C 0.50496 0.71415 0.46079 0.0
C118 C 0.52178 0.70066 0.49099 0.0
C119 C 0.51027 0.73351 0.42172 0.0
C120 C 0.5325 0.74 0.41267 0.0
C121 C 0.54905 0.72757 0.44746 0.0
C122 C 0.54386 0.70818 0.48512 0.0
C123 C 0.53936 0.75578 0.35492 0.0
C124 C 0.53208 0.77809 0.3492 0.0
C125 C 0.54031 0.7918 0.29337 0.0
C126 C 0.55509 0.78282 0.24323 0.0
C127 C 0.56102 0.76042 0.24519 0.0
C128 C 0.55339 0.74727 0.30195 0.0
C129 C 0.57161 0.74963 0.18255 0.0
C130 C 0.56514 0.7558 0.11317 0.0
C131 C 0.58413 0.73011 0.19145 0.0
C132 C 0.58571 0.71488 0.13601 0.0
C133 C 0.57541 0.71933 0.07024 0.0
C134 C 0.53281 0.815 0.27995 0.0
C135 C 0.51104 0.81919 0.25682 0.0
C136 C 0.54888 0.83166 0.27015 0.0
C137 C 0.54394 0.85104 0.23196 0.0
C138 C 0.52267 0.85448 0.20281 0.0
C139 C 0.506 0.83875 0.21895 0.0
C140 C 0.56747 0.7409 0.0571 0.0
H141 H 0.48768 0.70943 0.46518 0.0
H142 H 0.49715 0.74255 0.39492 0.0
H143 H 0.56637 0.732 0.44099 0.0
H144 H 0.55754 0.69848 0.50575 0.0
H145 H 0.52053 0.78474 0.38787 0.0
H146 H 0.55726 0.72971 0.3032 0.0
H147 H 0.56101 0.79317 0.19977 0.0
H148 H 0.55592 0.7709 0.10316 0.0
H149 H 0.59046 0.7254 0.24337 0.0
H150 H 0.59256 0.69867 0.14801 0.0
H151 H 0.49838 0.80656 0.26269 0.0
H152 H 0.56588 0.82876 0.28654 0.0
H153 H 0.56043 0.74527 1.00583 0.0
H154 H 0.48926 0.84097 0.19921 0.0
H155 H 0.55738 0.86245 0.22074 0.0
C156 C 0.25049 0.54872 0.42313 0.0
C157 C 0.2302 0.53991 0.44692 0.0
C158 C 0.26031 0.54079 0.36056 0.0
C159 C 0.24981 0.52416 0.32053 0.0
C160 C 0.23001 0.51484 0.34572 0.0
C161 C 0.22032 0.5226 0.40803 0.0
C162 C 0.25905 0.51677 0.25163 0.0
C163 C 0.28139 0.51116 0.24612 0.0
C164 C 0.29032 0.50347 0.18191 0.0
C165 C 0.27644 0.50156 0.12115 0.0
C166 C 0.25371 0.50775 0.12574 0.0
C167 C 0.24537 0.51502 0.19169 0.0
C168 C 0.23784 0.50715 0.06419 0.0
C169 C 0.22363 0.52535 0.05241 0.0
C170 C 0.23407 0.4877 0.02499 0.0
C171 C 0.21571 0.48613 0.97862 0.0
C172 C 0.2006 0.50396 0.9704 0.0
C173 C 0.31437 0.49807 0.18341 0.0
C174 C 0.32965 0.51567 0.18243 0.0
C175 C 0.32112 0.4776 0.21243 0.0
C176 C 0.34192 0.47539 0.24547 0.0
C177 C 0.35633 0.4937 0.25091 0.0
C178 C 0.35038 0.51352 0.21571 0.0
C179 C 0.20531 0.52376 0.00693 0.0
H180 H 0.25842 0.56211 0.45171 0.0
H181 H 0.27565 0.54822 0.34205 0.0
H182 H 0.22175 0.50181 0.31636 0.0
H183 H 0.20441 0.51575 0.42356 0.0
H184 H 0.29194 0.51241 0.29279 0.0
H185 H 0.22798 0.51946 0.19649 0.0
H186 H 0.28328 0.49581 0.07115 0.0
H187 H 0.22604 0.54065 0.08148 0.0
H188 H 0.24458 0.47333 0.03301 0.0
H189 H 0.21309 0.47071 0.95058 0.0
H190 H 0.32469 0.5318 0.16224 0.0
H191 H 0.30944 0.46398 0.21601 0.0
H192 H 0.19422 0.53786 1.00362 0.0
H193 H 0.36117 0.52787 0.21787 0.0
H194 H 0.34583 0.45991 0.27221 0.0
C195 C 0.08599 0.22207 0.35222 0.0
C196 C 0.10042 0.20598 0.32376 0.0
C197 C 0.0775 0.2389 0.30906 0.0
C198 C 0.08316 0.23993 0.2366 0.0
C199 C 0.09994 0.22593 0.21074 0.0
C200 C 0.10873 0.20924 0.25434 0.0
C201 C 0.06833 0.252 0.18691 0.0
C202 C 0.06078 0.27332 0.20292 0.0
C203 C 0.04325 0.28315 0.16466 0.0
C204 C 0.03294 0.27088 0.10932 0.0
C205 C 0.04102 0.2495 0.09145 0.0
C206 C 0.05878 0.24052 0.13013 0.0
C207 C 0.03097 0.23485 0.03653 0.0
C208 C 0.01444 0.21961 0.05672 0.0
C209 C 0.04236 0.23129 0.97218 0.0
C210 C 0.03818 0.21236 0.93098 0.0
C211 C 0.0227 0.19622 0.95349 0.0
C212 C 0.03582 0.30569 0.18795 0.0
C213 C 0.0139 0.30968 0.21024 0.0
C214 C 0.05186 0.32214 0.20081 0.0
C215 C 0.04665 0.34123 0.23952 0.0
C216 C 0.02507 0.34475 0.26614 0.0
C217 C 0.00858 0.32899 0.24875 0.0
C218 C 0.01029 0.2006 0.0157 0.0
H219 H 0.0791 0.22028 0.40525 0.0
H220 H 0.06461 0.24949 0.33055 0.0
H221 H 0.10492 0.22673 0.15529 0.0
H222 H 0.1204 0.1976 0.23142 0.0
H223 H 0.06804 0.28196 0.24776 0.0
H224 H 0.06419 0.22373 0.11875 0.0
H225 H 0.019 0.27787 0.08054 0.0
H226 H 1.00594 0.22149 0.10725 0.0
H227 H 0.05561 0.24241 0.95624 0.0
H228 H 0.04781 0.20992 0.88289 0.0
H229 H 1.00118 0.29729 0.20173 0.0
H230 H 0.06893 0.31959 0.18445 0.0
H231 H 0.9984 0.1886 0.03557 0.0
H232 H 0.99165 0.3312 0.26671 0.0
H233 H 0.06001 0.35255 0.25189 0.0
C234 C 0.27084 0.05573 0.39672 0.0
C235 C 0.28772 0.07172 0.38978 0.0
C236 C 0.25621 0.05185 0.34078 0.0
C237 C 0.25827 0.06376 0.27669 0.0
C238 C 0.27331 0.08148 0.27266 0.0
C239 C 0.28772 0.08566 0.32929 0.0
C240 C 0.24722 0.05531 0.21208 0.0
C241 C 0.22496 0.04911 0.21451 0.0
C242 C 0.21516 0.03744 0.15836 0.0
C243 C 0.22822 0.03168 0.09823 0.0
C244 C 0.25069 0.0387 0.09399 0.0
C245 C 0.2598 0.0505 0.15142 0.0
C246 C 0.26588 0.03345 0.03312 0.0
C247 C 0.2702 0.01146 0.01278 0.0
C248 C 0.27938 0.05036 1.0046 0.0
C249 C 0.29766 0.04539 0.96142 0.0
C250 C 0.30302 0.02329 0.94447 0.0
C251 C 0.19146 0.03115 0.16836 0.0
C252 C 0.18565 0.00916 0.18477 0.0
C253 C 0.17603 0.04804 0.18277 0.0
C254 C 0.15626 0.04343 0.2191 0.0
C255 C 0.15111 0.02167 0.24139 0.0
C256 C 0.16561 1.00444 0.2204 0.0
C257 C 0.28853 1.00643 0.96892 0.0
H258 H 0.27027 0.04453 0.442 0.0
H259 H 0.24474 0.03808 0.34527 0.0
H260 H 0.27486 0.09117 0.22412 0.0
H261 H 0.3001 0.09855 0.32309 0.0
H262 H 0.21533 0.0528 0.26192 0.0
H263 H 0.27728 0.05482 0.1507 0.0
H264 H 0.22095 0.02228 0.05514 0.0
H265 H 0.26026 0.99802 0.03426 0.0
H266 H 0.27655 0.06749 0.01933 0.0
H267 H 0.3083 0.05895 0.94496 0.0
H268 H 0.19735 0.99585 0.17534 0.0
H269 H 0.18024 0.06521 0.17183 0.0
H270 H 0.29171 0.98924 0.95609 0.0
H271 H 0.16208 0.98737 0.23453 0.0
H272 H 0.14596 0.05734 0.23431 0.0
C273 C 0.47072 0.28322 0.96304 0.0
C274 C 0.49098 0.29489 0.95952 0.0
C275 C 0.46901 0.2633 1.00229 0.0
C276 C 0.48759 0.25443 0.03765 0.0
C277 C 0.50815 0.26519 0.02933 0.0
C278 C 0.50982 0.28515 0.991 0.0
C279 C 0.48459 0.23916 0.09961 0.0
C280 C 0.4832 0.2157 0.09478 0.0
C281 C 0.48208 0.20271 0.15809 0.0
C282 C 0.48284 0.21323 0.22446 0.0
C283 C 0.48445 0.2362 0.22918 0.0
C284 C 0.48486 0.24903 0.16701 0.0
C285 C 0.48891 0.24682 0.29804 0.0
C286 C 0.47678 0.26558 0.31843 0.0
C287 C 0.50767 0.24045 0.33748 0.0
C288 C 0.51562 0.25406 0.39164 0.0
C289 C 0.50477 0.27408 0.40704 0.0
C290 C 0.48179 0.17809 0.16041 0.0
C291 C 0.46255 0.16741 0.18555 0.0
C292 C 0.50209 0.16668 0.16429 0.0
C293 C 0.50347 0.14602 0.19891 0.0
C294 C 0.48457 0.13634 0.23072 0.0
C295 C 0.46389 0.14674 0.22007 0.0
C296 C 0.48454 0.279 0.37314 0.0
H297 H 0.45586 0.29028 0.93976 0.0
H298 H 0.45283 0.25579 0.00956 0.0
H299 H 0.52263 0.25907 0.05743 0.0
H300 H 0.52571 0.29352 0.98873 0.0
H301 H 0.48342 0.20773 0.04321 0.0
H302 H 0.48666 0.2669 0.17102 0.0
H303 H 0.48288 0.20336 0.27305 0.0
H304 H 0.46212 0.27059 0.28904 0.0
H305 H 0.51729 0.22603 0.32231 0.0
H306 H 0.53125 0.2499 0.41682 0.0
H307 H 0.4468 0.17609 0.18515 0.0
H308 H 0.51726 0.17474 0.14706 0.0
H309 H 0.47562 0.29414 0.38523 0.0
H310 H 0.44898 0.13997 0.24399 0.0
H311 H 0.51961 0.13833 0.20486 0.0
Tb312 Tb 0.01974 0.98912 0.76107 0.0
Tb313 Tb 0.98975 1.00395 0.647 0.0
C314 C 0.03501 0.96713 0.86261 0.0
C315 C 0.02612 0.94546 0.88589 0.0
C316 C 1.00397 0.94395 0.90931 0.0
C317 C 0.99293 0.92372 0.90858 0.0
C318 C 1.00387 0.9045 0.88569 0.0
C319 C 0.02663 0.90548 0.86968 0.0
C320 C 0.03766 0.92588 0.86929 0.0
C321 C 0.04043 1.00381 0.64555 0.0
C322 C 0.99638 0.95321 0.65931 0.0
C323 C 0.97641 0.02496 0.54054 0.0
C324 C 0.98791 0.04416 0.50792 0.0
C325 C 1.00659 0.04059 0.46435 0.0
C326 C 0.02148 0.05774 0.45084 0.0
C327 C 0.01784 0.07889 0.47921 0.0
C328 C 0.99811 0.08306 0.51679 0.0
C329 C 0.98328 0.0658 0.53127 0.0
C330 C 0.96847 0.98984 0.76216 0.0
C331 C 0.01219 0.03954 0.75212 0.0
O332 O 0.02179 0.98416 0.87149 0.0
O333 O 0.04413 0.96719 0.79926 0.0
O334 O 0.02304 0.99223 0.64788 0.0
O335 O 0.0477 1.00636 0.71001 0.0
O336 O 1.00517 0.95769 0.72233 0.0
O337 O 0.99049 0.96935 0.61553 0.0
O338 O 0.98704 1.00608 0.53609 0.0
O339 O 0.96828 0.02811 0.60449 0.0
O340 O 0.98628 1.00081 0.76011 0.0
O341 O 0.96096 0.98823 0.69762 0.0
O342 O 1.00447 0.03526 0.68735 0.0
O343 O 0.01751 0.02323 0.79598 0.0
H344 H 0.99459 0.95858 0.92359 0.0
H345 H 0.97558 0.92323 0.92382 0.0
H346 H 0.03554 0.89074 0.85341 0.0
H347 H 0.05473 0.92657 0.85113 0.0
H348 H 0.01054 0.02423 0.44441 0.0
H349 H 0.03619 0.05429 0.41984 0.0
H350 H 0.99473 0.09935 0.53829 0.0
H351 H 0.96898 0.06913 0.56459 0.0
Tb352 Tb 0.50948 0.01321 0.77047 0.0
Tb353 Tb 0.49885 0.97977 0.66675 0.0
C354 C 0.52729 0.0356 0.86655 0.0
C355 C 0.54782 0.04867 0.86542 0.0
C356 C 0.56257 0.04687 0.9225 0.0
C357 C 0.5836 0.05636 0.91785 0.0
C358 C 0.59022 0.0681 0.85617 0.0
C359 C 0.575 0.0706 0.80003 0.0
C360 C 0.55403 0.06082 0.80439 0.0
C361 C 0.49514 0.03017 0.64818 0.0
C362 C 0.54822 0.99438 0.66861 0.0
C363 C 0.4792 0.96 0.56894 0.0
C364 C 0.45823 0.96792 0.53735 0.0
C365 C 0.45746 0.98922 0.5063 0.0
C366 C 0.43747 1.00063 0.50167 0.0
C367 C 0.41783 0.99082 0.52643 0.0
C368 C 0.41806 0.96854 0.54863 0.0
C369 C 0.43822 0.95718 0.5546 0.0
C370 C 0.51295 0.96308 0.7896 0.0
C371 C 0.46058 1.00107 0.76169 0.0
O372 O 0.53013 0.01417 0.86023 0.0
O373 O 0.51108 0.04305 0.82684 0.0
O374 O 0.50794 0.0138 0.65597 0.0
O375 O 0.49108 0.0384 0.7103 0.0
O376 O 0.54277 1.00573 0.72637 0.0
O377 O 0.53304 0.98359 0.63192 0.0
O378 O 0.49651 0.97264 0.55778 0.0
O379 O 0.47773 0.95384 0.63571 0.0
O380 O 0.49992 0.97926 0.78123 0.0
O381 O 0.5178 0.95513 0.72747 0.0
O382 O 0.46622 0.99411 0.69725 0.0
O383 O 0.47625 1.00598 0.80788 0.0
H384 H 0.5582 0.03726 0.96942 0.0
H385 H 0.59501 0.05351 0.96147 0.0
H386 H 0.57946 0.07963 0.75207 0.0
H387 H 0.54298 0.06216 0.75908 0.0
H388 H 0.47247 0.99792 0.49118 0.0
H389 H 0.43754 0.01757 0.48191 0.0
H390 H 0.40296 0.96048 0.56634 0.0
H391 H 0.43834 0.94077 0.57842 0.0
Tb392 Tb 0.48514 0.50358 0.77469 0.0
Tb393 Tb 0.51878 0.49294 0.67131 0.0
C394 C 0.46612 0.52187 0.87757 0.0
C395 C 0.47124 0.5436 0.90958 0.0
C396 C 0.48507 0.54455 0.96983 0.0
C397 C 0.49558 0.56434 0.98799 0.0
C398 C 0.49224 0.58349 0.94657 0.0
C399 C 0.47658 0.58313 0.89136 0.0
C400 C 0.46611 0.56336 0.87301 0.0
C401 C 0.46804 0.48948 0.65327 0.0
C402 C 0.50477 0.54175 0.67408 0.0
C403 C 0.54286 0.47621 0.57663 0.0
C404 C 0.55561 0.45556 0.57774 0.0
C405 C 0.55936 0.44409 0.51424 0.0
C406 C 0.56576 0.42183 0.51658 0.0
C407 C 0.56816 0.41093 0.58249 0.0
C408 C 0.5668 0.42315 0.64566 0.0
C409 C 0.56054 0.44539 0.64333 0.0
C410 C 0.53496 0.50729 0.79426 0.0
C411 C 0.498 0.45373 0.76905 0.0
O412 O 0.48177 0.50699 0.88502 0.0
O413 O 0.45812 0.52214 0.81271 0.0
O414 O 0.48464 0.50215 0.65991 0.0
O415 O 0.45998 0.48533 0.71604 0.0
O416 O 0.49723 0.53663 0.73855 0.0
O417 O 0.51107 0.5258 0.63083 0.0
O418 O 0.52132 0.47347 0.57949 0.0
O419 O 0.5497 0.49154 0.62031 0.0
O420 O 0.51906 0.49401 0.78564 0.0
O421 O 0.5427 0.51253 0.73221 0.0
O422 O 0.51131 0.45951 0.71561 0.0
O423 O 0.48618 0.46871 0.80322 0.0
H424 H 0.48915 0.52962 0.99951 0.0
H425 H 0.50749 0.56425 0.03121 0.0
H426 H 0.47329 0.59792 0.86018 0.0
H427 H 0.45525 0.56332 0.82705 0.0
H428 H 0.55554 0.45172 0.46331 0.0
H429 H 0.56641 0.41258 0.46726 0.0
H430 H 0.5685 0.41497 0.6969 0.0
H431 H 0.55771 0.45404 0.693 0.0
Tb432 Tb 0.99541 0.48206 0.76919 0.0
Tb433 Tb 0.00894 0.51138 0.64161 0.0
C434 C 0.97462 0.46747 0.87413 0.0
C435 C 0.95334 0.47655 0.9 0.0
C436 C 0.95233 0.49857 0.92427 0.0
C437 C 0.93222 0.5099 0.9254 0.0
C438 C 0.91265 0.49934 0.90381 0.0
C439 C 0.91318 0.47664 0.88743 0.0
C440 C 0.93344 0.46534 0.88508 0.0
C441 C 0.00924 0.46076 0.6543 0.0
C442 C 0.9583 0.50376 0.66703 0.0
C443 C 0.02477 0.52425 0.52602 0.0
C444 C 0.04393 0.53876 0.5128 0.0
C445 C 0.06112 0.53107 0.46937 0.0
C446 C 0.08163 0.54169 0.46951 0.0
C447 C 0.0853 0.56044 0.51252 0.0
C448 C 0.0675 0.56908 0.55202 0.0
C449 C 0.04701 0.55826 0.55249 0.0
C450 C 1.00366 0.53623 0.75826 0.0
C451 C 0.04537 0.49576 0.75629 0.0
O452 O 0.99195 0.48051 0.88027 0.0
O453 O 0.97363 0.4582 0.81118 0.0
O454 O 0.99735 0.47801 0.6557 0.0
O455 O 0.01296 0.45435 0.71934 0.0
O456 O 0.96357 0.49618 0.73146 0.0
O457 O 0.97373 0.50829 0.61893 0.0
O458 O 0.02985 0.50502 0.55509 0.0
O459 O 1.00733 0.53355 0.55552 0.0
O460 O 1.00134 0.51572 0.75029 0.0
O461 O 0.00917 0.54395 0.69625 0.0
O462 O 0.04113 0.50217 0.68973 0.0
O463 O 0.02944 0.48924 0.80054 0.0
H464 H 0.9672 0.50762 0.93778 0.0
H465 H 0.93209 0.52719 0.94095 0.0
H466 H 0.89818 0.468 0.87222 0.0
H467 H 0.93371 0.44835 0.86653 0.0
H468 H 0.05917 0.51593 0.43909 0.0
H469 H 0.095 0.53422 0.43938 0.0
H470 H 0.06965 0.58364 0.58484 0.0
H471 H 0.03401 0.56453 0.58685 0.0
C472 C 0.13366 1.00127 0.34583 0.0
C473 C 0.13209 0.01758 0.29211 0.0
C474 C 0.11717 0.99893 0.39869 0.0
C475 C 0.09875 0.01357 0.39963 0.0
C476 C 0.09675 0.02972 0.34484 0.0
C477 C 0.11313 0.03124 0.29135 0.0
C478 C 0.11989 0.98119 0.45514 0.0
C479 C 0.07768 0.04592 0.34388 0.0
C480 C 0.04905 0.99721 0.51611 0.0
C481 C 0.05398 0.00791 0.5804 0.0
C482 C 0.06311 0.9993 0.45625 0.0
C483 C 0.08241 0.01271 0.46024 0.0
C484 C 0.08681 0.02439 0.52411 0.0
C485 C 0.07268 0.0217 0.58341 0.0
C486 C 0.05779 0.98641 0.38975 0.0
C487 C 0.10688 0.03919 0.53076 0.0
H488 H 0.14821 0.99076 0.34855 0.0
H489 H 0.1112 0.04355 0.24955 0.0
H490 H 0.1229 0.98905 0.50756 0.0
H491 H 0.10446 0.97125 0.45997 0.0
H492 H 0.13393 0.96982 0.44339 0.0
H493 H 0.07912 0.05831 0.30008 0.0
H494 H 0.06184 0.03682 0.33755 0.0
H495 H 0.07695 0.05489 0.39524 0.0
H496 H 0.03459 0.98656 0.51329 0.0
H497 H 0.07649 0.03019 0.63269 0.0
H498 H 0.07099 0.97392 0.38015 0.0
H499 H 0.05745 0.99764 0.34277 0.0
H500 H 0.04158 0.97771 0.39363 0.0
H501 H 0.12208 0.02883 0.53346 0.0
H502 H 0.10616 0.04964 0.57928 0.0
H503 H 0.10845 0.05015 0.48334 0.0
C504 C 0.50414 0.11728 0.33245 0.0
C505 C 0.48675 0.11741 0.28258 0.0
C506 C 0.5052 0.1013 0.38728 0.0
C507 C 0.48852 0.08482 0.39286 0.0
C508 C 0.47136 0.08429 0.34125 0.0
C509 C 0.47061 0.10061 0.28706 0.0
C510 C 0.52371 0.10271 0.44127 0.0
C511 C 0.45336 0.0669 0.34464 0.0
C512 C 0.50201 0.03606 0.51699 0.0
C513 C 0.49176 0.0427 0.58057 0.0
C514 C 0.50036 0.04909 0.45452 0.0
C515 C 0.4883 0.06932 0.45575 0.0
C516 C 0.47725 0.07559 0.51928 0.0
C517 C 0.47907 0.06221 0.58063 0.0
C518 C 0.51213 0.04157 0.38788 0.0
C519 C 0.46417 0.09693 0.52336 0.0
H520 H 0.51648 0.13035 0.33072 0.0
H521 H 0.45719 0.10039 0.24869 0.0
H522 H 0.51668 0.10656 0.49448 0.0
H523 H 0.53237 0.08652 0.44579 0.0
H524 H 0.5361 0.11566 0.42728 0.0
H525 H 0.44255 0.06727 0.29674 0.0
H526 H 0.46077 0.05011 0.34994 0.0
H527 H 0.44286 0.06965 0.39239 0.0
H528 H 0.51176 0.02094 0.51647 0.0
H529 H 0.47096 0.06735 0.62942 0.0
H530 H 0.526 0.05306 0.37561 0.0
H531 H 0.50061 0.04201 0.3418 0.0
H532 H 0.51894 0.02451 0.39343 0.0
H533 H 0.47548 0.11126 0.51543 0.0
H534 H 0.45558 0.09885 0.57539 0.0
H535 H 0.4516 0.09757 0.4803 0.0
C536 C 0.37936 0.51061 0.34822 0.0
C537 C 0.37579 0.49304 0.30067 0.0
C538 C 0.39597 0.50953 0.40079 0.0
C539 C 0.40967 0.49046 0.40612 0.0
C540 C 0.40674 0.47299 0.35664 0.0
C541 C 0.38975 0.47439 0.30504 0.0
C542 C 0.39819 0.52844 0.45275 0.0
C543 C 0.42115 0.45253 0.35948 0.0
C544 C 0.46157 0.49669 0.52226 0.0
C545 C 0.45431 0.4878 0.5875 0.0
C546 C 0.4476 0.4969 0.46186 0.0
C547 C 0.42575 0.48824 0.46693 0.0
C548 C 0.41866 0.47863 0.5322 0.0
C549 C 0.43302 0.4784 0.59125 0.0
C550 C 0.456 0.50699 0.39321 0.0
C551 C 0.39552 0.46934 0.54063 0.0
H552 H 0.36848 0.52492 0.34641 0.0
H553 H 0.38726 0.46078 0.26842 0.0
H554 H 0.39403 0.52253 0.50727 0.0
H555 H 0.41557 0.53448 0.45391 0.0
H556 H 0.38712 0.54259 0.43924 0.0
H557 H 0.4183 0.44145 0.31329 0.0
H558 H 0.43894 0.45727 0.36068 0.0
H559 H 0.41764 0.44309 0.40912 0.0
H560 H 0.47802 0.50391 0.51878 0.0
H561 H 0.42727 0.4714 0.64129 0.0
H562 H 0.44667 0.52244 0.38133 0.0
H563 H 0.45317 0.49545 0.34825 0.0
H564 H 0.47397 0.51104 0.39573 0.0
H565 H 0.38315 0.4828 0.53324 0.0
H566 H 0.39285 0.46162 0.59384 0.0
H567 H 0.39228 0.4567 0.49919 0.0
C568 C 1.00573 0.36141 0.37353 0.0
C569 C 0.02051 0.36382 0.31588 0.0
C570 C 1.00305 0.37828 0.42471 0.0
C571 C 0.01573 0.39804 0.41949 0.0
C572 C 0.03018 0.40089 0.36053 0.0
C573 C 0.03218 0.38397 0.3093 0.0
C574 C 0.98713 0.37461 0.48581 0.0
C575 C 0.04419 0.42153 0.35285 0.0
C576 C 0.99875 0.44855 0.53059 0.0
C577 C 0.01201 0.44598 0.59153 0.0
C578 C 0.99979 0.43319 0.47411 0.0
C579 C 0.01482 0.41507 0.47777 0.0
C580 C 0.02878 0.41293 0.53824 0.0
C581 C 0.02703 0.42822 0.59449 0.0
C582 C 0.98433 0.43597 0.41152 0.0
C583 C 0.04541 0.39426 0.54404 0.0
H584 H 0.99676 0.34599 0.38045 0.0
H585 H 0.04325 0.38648 0.26448 0.0
H586 H 0.99654 0.37306 0.53637 0.0
H587 H 0.97584 0.38905 0.49119 0.0
H588 H 0.97697 0.3594 0.47886 0.0
H589 H 0.05394 0.4217 0.30256 0.0
H590 H 0.03356 0.43655 0.35422 0.0
H591 H 0.05587 0.42264 0.39836 0.0
H592 H 0.98699 0.46215 0.52809 0.0
H593 H 0.03738 0.42618 0.64129 0.0
H594 H 0.97311 0.42142 0.40825 0.0
H595 H 0.99393 0.43666 0.36109 0.0
H596 H 0.97407 0.45124 0.41557 0.0
H597 H 0.03662 0.3781 0.54551 0.0
H598 H 0.05587 0.39558 0.59253 0.0
H599 H 0.05639 0.3942 0.49653 0.0
C600 C 0.88167 0.00803 0.07427 0.0
C601 C 0.87643 0.98936 0.11612 0.0
C602 C 0.8979 1.0071 0.02039 0.0
C603 C 0.90954 0.98704 0.00806 0.0
C604 C 0.9049 0.9683 0.05166 0.0
C605 C 0.88826 0.9696 0.10457 0.0
C606 C 0.90195 0.02741 0.97473 0.0
C607 C 0.91719 0.94673 0.0414 0.0
C608 C 0.93228 0.97976 0.81968 0.0
C609 C 0.95424 0.98717 0.82657 0.0
C610 C 0.9178 0.97904 0.87858 0.0
C611 C 0.9255 0.98552 0.94673 0.0
C612 C 0.94798 0.99207 0.95458 0.0
C613 C 0.96198 0.99307 0.89434 0.0
C614 C 0.89397 0.9722 0.8672 0.0
C615 C 0.95708 0.99865 0.02627 0.0
H616 H 0.87238 0.02326 0.08164 0.0
H617 H 0.8844 0.95511 0.13667 0.0
H618 H 0.91978 0.03194 0.97577 0.0
H619 H 0.89758 0.02377 0.91856 0.0
H620 H 0.89206 0.04193 0.99251 0.0
H621 H 0.91322 0.93439 0.08372 0.0
H622 H 0.91278 0.93951 0.98904 0.0
H623 H 0.93537 0.94968 0.04107 0.0
H624 H 0.92615 0.97512 0.76756 0.0
H625 H 0.97891 0.99884 0.90016 0.0
H626 H 0.88281 0.98635 0.87934 0.0
H627 H 0.8895 0.95846 0.90403 0.0
H628 H 0.89079 0.96677 0.81167 0.0
H629 H 0.94941 0.01449 0.04327 0.0
H630 H 0.97539 1.0008 0.02512 0.0
H631 H 0.95283 0.98593 0.06704 0.0
C632 C 0.53021 0.89326 0.15526 0.0
C633 C 0.5188 0.87297 0.14994 0.0
C634 C 0.52909 0.90944 0.10082 0.0
C635 C 0.51589 0.90557 0.03969 0.0
C636 C 0.50345 0.88568 0.03555 0.0
C637 C 0.50518 0.86962 0.0901 0.0
C638 C 0.54274 0.93031 0.10748 0.0
C639 C 0.48889 0.88093 0.97201 0.0
C640 C 0.50044 0.95339 0.91396 0.0
C641 C 0.51489 0.94982 0.8564 0.0
C642 C 0.50074 0.93936 0.97438 0.0
C643 C 0.51613 0.92157 0.97805 0.0
C644 C 0.53131 0.91849 0.92111 0.0
C645 C 0.53036 0.93248 0.86087 0.0
C646 C 0.48405 0.9431 0.03314 0.0
C647 C 0.5483 0.90007 0.92309 0.0
H648 H 0.54044 0.8964 0.20153 0.0
H649 H 0.49651 0.85401 0.08409 0.0
H650 H 0.55556 0.93071 0.06499 0.0
H651 H 0.53211 0.94517 0.10001 0.0
H652 H 0.55114 0.93148 0.15998 0.0
H653 H 0.47869 0.86576 0.97973 0.0
H654 H 0.47765 0.89516 0.96145 0.0
H655 H 0.49937 0.8787 0.92393 0.0
H656 H 0.48836 0.96669 0.91075 0.0
H657 H 0.54163 0.92971 0.81671 0.0
H658 H 0.4926 0.94461 0.08518 0.0
H659 H 0.47277 0.92859 0.03703 0.0
H660 H 0.47389 0.95824 0.02398 0.0
H661 H 0.55819 0.90103 0.97282 0.0
H662 H 0.55981 0.90074 0.87682 0.0
H663 H 0.53979 0.88376 0.92317 0.0
C664 C 0.6075 0.52513 0.15323 0.0
C665 C 0.62779 0.51381 0.14486 0.0
C666 C 0.59061 0.52394 0.10134 0.0
C667 C 0.5938 0.51088 0.0396 0.0
C668 C 0.61374 0.4986 0.03236 0.0
C669 C 0.63045 0.50032 0.08449 0.0
C670 C 0.5697 0.53739 0.11131 0.0
C671 C 0.61784 0.48428 0.96789 0.0
C672 C 0.5452 0.49498 0.91853 0.0
C673 C 0.54819 0.50954 0.86072 0.0
C674 C 0.55955 0.4955 0.97793 0.0
C675 C 0.5771 0.51119 0.98014 0.0
C676 C 0.57945 0.52658 0.92321 0.0
C677 C 0.56512 0.52545 0.86417 0.0
C678 C 0.55648 0.47869 0.03696 0.0
C679 C 0.59756 0.54389 0.9236 0.0
H680 H 0.6049 0.5353 0.19991 0.0
H681 H 0.64603 0.49175 0.07608 0.0
H682 H 0.56879 0.55049 0.06963 0.0
H683 H 0.55485 0.52672 0.10504 0.0
H684 H 0.569 0.54544 0.16439 0.0
H685 H 0.63325 0.47427 0.973 0.0
H686 H 0.60364 0.47288 0.95943 0.0
H687 H 0.61928 0.49492 0.91968 0.0
H688 H 0.53217 0.48261 0.91617 0.0
H689 H 0.56742 0.53685 0.81988 0.0
H690 H 0.55563 0.4871 0.08931 0.0
H691 H 0.57098 0.46735 0.03849 0.0
H692 H 0.5412 0.46862 0.02984 0.0
H693 H 0.59691 0.55353 0.97375 0.0
H694 H 0.59624 0.55558 0.87785 0.0
H695 H 0.61402 0.53566 0.92138 0.0
C696 C 0.97525 0.61472 0.09158 0.0
C697 C 0.99452 0.62416 0.12096 0.0
C698 C 0.97641 0.59848 0.0379 0.0
C699 C 0.99735 0.59143 0.01205 0.0
C700 C 0.01687 0.60016 0.04342 0.0
C701 C 0.01523 0.61634 0.09725 0.0
C702 C 0.95513 0.58971 0.00632 0.0
C703 C 0.03956 0.59308 0.01801 0.0
C704 C 1.00106 0.54007 0.89219 0.0
C705 C 1.00149 0.54972 0.82411 0.0
C706 C 0.99964 0.55331 0.95401 0.0
C707 C 0.99879 0.57679 0.94755 0.0
C708 C 0.99931 0.58651 0.87864 0.0
C709 C 1.00068 0.57292 0.81814 0.0
C710 C 0.9991 0.54219 0.02617 0.0
C711 C 0.99847 0.61139 0.86866 0.0
H712 H 0.95911 0.62073 0.10817 0.0
H713 H 0.03026 0.62316 0.11996 0.0
H714 H 0.95337 0.59589 0.95081 0.0
H715 H 0.95551 0.57132 1.00415 0.0
H716 H 0.94029 0.59493 0.03717 0.0
H717 H 0.05306 0.59973 0.05203 0.0
H718 H 0.0408 0.57471 0.01729 0.0
H719 H 0.04221 0.59905 0.96262 0.0
H720 H 1.00228 0.52223 0.89716 0.0
H721 H 1.00113 0.58053 0.76568 0.0
H722 H 0.98336 0.54632 0.05382 0.0
H723 H 0.01287 0.54845 0.05967 0.0
H724 H 1.00049 0.52385 0.02239 0.0
H725 H 0.98306 0.6181 0.89274 0.0
H726 H 0.999 0.61636 0.8116 0.0
H727 H 0.01268 0.61921 0.89641 0.0
C728 C 0.09973 0.18168 0.43295 0.0
C729 C 0.10153 0.18375 0.35854 0.0
C730 C 0.09117 0.16225 0.46392 0.0
C731 C 0.0847 0.14458 0.41933 0.0
C732 C 0.09035 0.14508 0.34627 0.0
C733 C 0.09861 0.16474 0.3165 0.0
C734 C 0.0866 0.16164 0.54293 0.0
C735 C 0.08487 0.12595 0.29774 0.0
C736 C 0.05736 0.09139 0.483 0.0
C737 C 0.03491 0.09629 0.47067 0.0
C738 C 0.07391 0.10726 0.47019 0.0
C739 C 0.06778 0.12844 0.44412 0.0
C740 C 0.04501 0.13377 0.43496 0.0
C741 C 0.02885 0.11762 0.4485 0.0
C742 C 0.09783 0.10078 0.48177 0.0
C743 C 0.03771 0.15626 0.40766 0.0
H744 H 0.10292 0.19595 0.46631 0.0
H745 H 0.10022 0.16579 0.2591 0.0
H746 H 0.06872 0.165 0.55242 0.0
H747 H 0.0904 0.145 0.56538 0.0
H748 H 0.09645 0.17431 0.5718 0.0
H749 H 0.09347 0.12741 0.24551 0.0
H750 H 0.08958 0.10994 0.32297 0.0
H751 H 0.0667 0.1256 0.28804 0.0
H752 H 0.06204 0.07501 0.50197 0.0
H753 H 0.0115 0.12141 0.43909 0.0
H754 H 0.10887 0.11532 0.48865 0.0
H755 H 0.1037 0.09118 0.43509 0.0
H756 H 0.09937 0.08991 0.52948 0.0
H757 H 0.04482 0.16958 0.44118 0.0
H758 H 0.01936 0.15809 0.40727 0.0
H759 H 0.04393 0.15879 0.35252 0.0
C760 C 0.32875 0.07017 0.40258 0.0
C761 C 0.3078 0.06974 0.43533 0.0
C762 C 0.34716 0.06046 0.43549 0.0
C763 C 0.34451 0.05005 0.50269 0.0
C764 C 0.32433 0.05239 0.54045 0.0
C765 C 0.30614 0.06235 0.50629 0.0
C766 C 0.36863 0.05884 0.39403 0.0
C767 C 0.32109 0.04232 0.61347 0.0
C768 C 0.37768 0.99717 0.5026 0.0
C769 C 0.39761 1.00444 0.53226 0.0
C770 C 0.35938 0.01143 0.49839 0.0
C771 C 0.36118 0.03335 0.525 0.0
C772 C 0.38056 0.03994 0.56144 0.0
C773 C 0.39867 0.02541 0.56423 0.0
C774 C 0.33878 1.00365 0.46017 0.0
C775 C 0.38283 0.06282 0.59284 0.0
H776 H 0.33044 0.07585 0.34799 0.0
H777 H 0.29018 0.06262 0.53302 0.0
H778 H 0.38301 0.06282 0.42843 0.0
H779 H 0.37083 0.04159 0.37479 0.0
H780 H 0.36886 0.07018 0.34716 0.0
H781 H 0.30872 0.05189 0.6447 0.0
H782 H 0.31471 0.02515 0.60777 0.0
H783 H 0.33687 0.04153 0.64371 0.0
H784 H 0.37684 0.98084 0.47882 0.0
H785 H 0.41396 0.03072 0.58935 0.0
H786 H 0.33704 0.01282 0.40902 0.0
H787 H 0.3238 1.00714 0.49262 0.0
H788 H 0.3393 0.9856 0.44853 0.0
H789 H 0.3877 0.0747 0.55028 0.0
H790 H 0.39579 0.06322 0.6349 0.0
H791 H 0.36687 0.06858 0.61586 0.0
C792 C 0.5174 0.31293 0.41837 0.0
C793 C 0.51641 0.29151 0.44743 0.0
C794 C 0.52921 0.32973 0.45204 0.0
C795 C 0.54052 0.32498 0.51643 0.0
C796 C 0.53995 0.30332 0.54578 0.0
C797 C 0.52785 0.28672 0.51071 0.0
C798 C 0.5292 0.3527 0.41911 0.0
C799 C 0.55185 0.29779 0.61428 0.0
C800 C 0.57922 0.3726 0.54713 0.0
C801 C 0.56516 0.38675 0.58498 0.0
C802 C 0.57265 0.35077 0.53245 0.0
C803 C 0.55131 0.34352 0.55423 0.0
C804 C 0.53804 0.35717 0.59805 0.0
C805 C 0.54522 0.37864 0.61311 0.0
C806 C 0.58738 0.33647 0.48662 0.0
C807 C 0.51505 0.35019 0.62136 0.0
H808 H 0.50916 0.31651 0.36828 0.0
H809 H 0.52722 0.27009 0.53285 0.0
H810 H 0.52164 0.36473 0.4566 0.0
H811 H 0.54646 0.35821 0.40853 0.0
H812 H 0.5198 0.35342 0.36824 0.0
H813 H 0.55244 0.27962 0.6245 0.0
H814 H 0.56906 0.30433 0.61303 0.0
H815 H 0.54319 0.30581 0.65953 0.0
H816 H 0.59458 0.37904 0.52507 0.0
H817 H 0.53414 0.38987 0.64079 0.0
H818 H 0.58159 0.33736 0.43057 0.0
H819 H 0.58658 0.31885 0.50389 0.0
H820 H 0.60492 0.34211 0.48822 0.0
H821 H 0.5045 0.34687 0.57419 0.0
H822 H 0.50674 0.3631 0.65377 0.0
H823 H 0.516 0.33463 0.65302 0.0
C824 C 0.21385 0.57352 0.504 0.0
C825 C 0.21723 0.55047 0.50476 0.0
C826 C 0.19436 0.58253 0.53302 0.0
C827 C 0.17786 0.56795 0.55906 0.0
C828 C 0.18352 0.54559 0.57408 0.0
C829 C 0.20355 0.5372 0.54783 0.0
C830 C 0.18997 0.60704 0.52556 0.0
C831 C 0.16693 0.52956 0.6059 0.0
C832 C 0.11629 0.57467 0.58949 0.0
C833 C 0.10824 0.56897 0.5217 0.0
C834 C 0.13918 0.57713 0.60157 0.0
C835 C 0.15417 0.57306 0.54507 0.0
C836 C 0.1459 0.5696 0.47514 0.0
C837 C 0.12302 0.56827 0.46427 0.0
C838 C 0.14722 0.5834 0.67492 0.0
C839 C 0.16106 0.5651 0.41246 0.0
H840 H 0.22484 0.58419 0.47352 0.0
H841 H 0.20688 0.51955 0.55206 0.0
H842 H 0.18223 0.61051 0.47308 0.0
H843 H 0.17848 0.61288 0.56781 0.0
H844 H 0.2057 0.6166 0.52839 0.0
H845 H 0.17478 0.51356 0.62136 0.0
H846 H 0.15894 0.53677 0.65366 0.0
H847 H 0.1537 0.52609 0.56638 0.0
H848 H 0.10495 0.57582 0.63415 0.0
H849 H 0.11677 0.56496 0.41124 0.0
H850 H 0.15197 0.60119 0.67419 0.0
H851 H 0.16216 0.57386 0.69084 0.0
H852 H 0.13415 0.58103 0.71605 0.0
H853 H 0.17221 0.57942 0.40309 0.0
H854 H 0.15175 0.562 0.36245 0.0
H855 H 0.17156 0.55035 0.42359 0.0
C856 C 0.93711 0.79018 0.90713 0.0
C857 C 0.93001 0.79174 0.97831 0.0
C858 C 0.94597 0.80871 0.87154 0.0
C859 C 0.94744 0.82911 0.90801 0.0
C860 C 0.93701 0.83153 0.9751 0.0
C861 C 0.92842 0.81279 0.00949 0.0
C862 C 0.95604 0.8057 0.79859 0.0
C863 C 0.93765 0.85321 0.01517 0.0
C864 C 0.99908 0.86406 0.90877 0.0
C865 C 0.99119 0.8837 0.87814 0.0
C866 C 0.98551 0.84526 0.91279 0.0
C867 C 0.96361 0.84625 0.88522 0.0
C868 C 0.95644 0.86533 0.84773 0.0
C869 C 0.97034 0.88394 0.84485 0.0
C870 C 0.99393 0.82503 0.95223 0.0
C871 C 0.93356 0.86678 0.81547 0.0
H872 H 0.93764 0.77411 0.8815 0.0
H873 H 0.92287 0.81443 0.06412 0.0
H874 H 0.95516 0.82119 0.76661 0.0
H875 H 0.97378 0.80111 0.80438 0.0
H876 H 0.9476 0.79219 0.76911 0.0
H877 H 0.92618 0.85317 0.06159 0.0
H878 H 0.95474 0.85615 0.03496 0.0
H879 H 0.93317 0.86728 0.97971 0.0
H880 H 0.01529 0.86383 0.93379 0.0
H881 H 0.96455 0.89899 0.81899 0.0
H882 H 0.99092 0.80984 0.92063 0.0
H883 H 0.98483 0.8232 1.00338 0.0
H884 H 0.01196 0.82613 0.96405 0.0
H885 H 0.9284 0.85062 0.79286 0.0
H886 H 0.93281 0.87965 0.77291 0.0
H887 H 0.92142 0.87131 0.85742 0.0
C888 C 0.70836 0.04364 0.90075 0.0
C889 C 0.7234 0.06011 0.92104 0.0
C890 C 0.68835 0.04925 0.86776 0.0
C891 C 0.68371 0.07186 0.85286 0.0
C892 C 0.7005 0.08799 0.86221 0.0
C893 C 0.72005 0.08203 0.89814 0.0
C894 C 0.67117 0.03129 0.85732 0.0
C895 C 0.69712 0.11187 0.84054 0.0
C896 C 0.62521 0.07317 0.78446 0.0
C897 C 0.61359 0.07568 0.84896 0.0
C898 C 0.64841 0.0752 0.78222 0.0
C899 C 0.66014 0.07864 0.8464 0.0
C900 C 0.64831 0.0837 0.90962 0.0
C901 C 0.62514 0.08273 0.90944 0.0
C902 C 0.66028 0.07194 0.71224 0.0
C903 C 0.66004 0.08777 0.97954 0.0
H904 H 0.71103 0.02664 0.91803 0.0
H905 H 0.73196 0.09472 0.91244 0.0
H906 H 0.65622 0.03483 0.89003 0.0
H907 H 0.66596 0.03084 0.80081 0.0
H908 H 0.67748 0.01457 0.87219 0.0
H909 H 0.71292 0.11907 0.8205 0.0
H910 H 0.68423 0.11363 0.79865 0.0
H911 H 0.69201 0.12169 0.8876 0.0
H912 H 0.61652 0.06815 0.73668 0.0
H913 H 0.61615 0.08585 0.95844 0.0
H914 H 0.6617 0.05397 0.70079 0.0
H915 H 0.67719 0.07925 0.71267 0.0
H916 H 0.65064 0.07962 0.66813 0.0
H917 H 0.67015 0.07305 0.99441 0.0
H918 H 0.64827 0.09121 0.02377 0.0
H919 H 0.67143 0.1021 0.97431 0.0
C920 C 0.54546 0.70083 1.00123 0.0
C921 C 0.56746 0.70052 0.02616 0.0
C922 C 0.535 0.68141 0.97881 0.0
C923 C 0.5467 0.66115 0.98214 0.0
C924 C 0.56951 0.66098 0.99977 0.0
C925 C 0.57971 0.68076 0.02144 0.0
C926 C 0.51092 0.68233 0.95667 0.0
C927 C 0.5827 0.63971 0.99959 0.0
C928 C 0.51022 0.61176 0.02423 0.0
C929 C 0.50655 0.60309 0.95628 0.0
C930 C 0.52393 0.63028 0.03352 0.0
C931 C 0.53436 0.64012 0.97343 0.0
C932 C 0.53131 0.63091 0.90508 0.0
C933 C 0.51728 0.6126 0.89721 0.0
C934 C 0.5268 0.63968 0.10736 0.0
C935 C 0.54234 0.6403 0.8394 0.0
H936 H 0.53562 0.71583 1.00467 0.0
H937 H 0.59687 0.68046 0.03861 0.0
H938 H 0.50867 0.67384 0.90483 0.0
H939 H 0.50058 0.67347 0.99671 0.0
H940 H 0.50471 0.69962 0.95159 0.0
H941 H 0.60069 0.64265 0.00834 0.0
H942 H 0.57648 0.6285 0.04226 0.0
H943 H 0.58049 0.63103 0.94806 0.0
H944 H 0.50199 0.60431 0.06987 0.0
H945 H 0.51488 0.60557 0.84466 0.0
H946 H 0.51969 0.65666 0.10927 0.0
H947 H 0.5447 0.64102 0.12044 0.0
H948 H 0.51855 0.62937 0.14886 0.0
H949 H 0.55511 0.65303 0.85077 0.0
H950 H 0.52949 0.64782 0.80449 0.0
H951 H 0.55037 0.62664 0.80941 0.0
C952 C 0.79841 0.56647 0.92356 0.0
C953 C 0.79996 0.57394 0.9942 0.0
C954 C 0.81698 0.55752 0.88875 0.0
C955 C 0.83743 0.55635 0.92544 0.0
C956 C 0.83983 0.56711 0.99176 0.0
C957 C 0.82104 0.57575 0.02544 0.0
C958 C 0.814 0.54709 0.81653 0.0
C959 C 0.86156 0.56684 0.03189 0.0
C960 C 0.87244 0.50467 0.92924 0.0
C961 C 0.89198 0.51233 0.89745 0.0
C962 C 0.8537 0.51835 0.93307 0.0
C963 C 0.85463 0.54011 0.90401 0.0
C964 C 0.87362 0.54707 0.86573 0.0
C965 C 0.89219 0.53309 0.86325 0.0
C966 C 0.83358 0.51015 0.97347 0.0
C967 C 0.875 0.56979 0.83185 0.0
H968 H 0.78234 0.56578 0.89778 0.0
H969 H 0.82269 0.58159 0.07965 0.0
H970 H 0.82945 0.548 0.78449 0.0
H971 H 0.80965 0.52932 0.82355 0.0
H972 H 0.80034 0.55523 0.78646 0.0
H973 H 0.86149 0.57858 0.07733 0.0
H974 H 0.86464 0.54988 0.0531 0.0
H975 H 0.87556 0.57117 0.99607 0.0
H976 H 0.87224 0.48852 0.95499 0.0
H977 H 0.90716 0.53871 0.83659 0.0
H978 H 0.81831 0.51293 0.94175 0.0
H979 H 0.83183 0.51958 0.02381 0.0
H980 H 0.83476 0.49221 0.98689 0.0
H981 H 0.85873 0.57499 0.80972 0.0
H982 H 0.8876 0.57025 0.7886 0.0
H983 H 0.87988 0.58207 0.87274 0.0
C984 C 1.00036 0.16323 0.90984 0.0
C985 C 0.02084 0.17423 0.91596 0.0
C986 C 0.9988 0.14192 0.87924 0.0
C987 C 0.01817 0.13111 0.85392 0.0
C988 C 0.03879 0.14233 0.85819 0.0
C989 C 0.03989 0.16359 0.88913 0.0
C990 C 0.97643 0.13076 0.87523 0.0
C991 C 0.05986 0.13165 0.83145 0.0
C992 C 0.01851 0.06761 0.84903 0.0
C993 C 0.01444 0.06305 0.77684 0.0
C994 C 0.01976 0.08954 0.87441 0.0
C995 C 0.01709 0.10765 0.82663 0.0
C996 C 0.01341 0.1032 0.75335 0.0
C997 C 0.01193 0.08104 0.72954 0.0
C998 C 0.02377 0.09332 0.95282 0.0
C999 C 0.01067 0.12182 0.70001 0.0
H1000 H 0.98545 0.17125 0.92922 0.0
H1001 H 0.05591 0.17157 0.89427 0.0
H1002 H 0.9728 0.12605 0.81938 0.0
H1003 H 0.9766 0.11527 0.90743 0.0
H1004 H 0.96282 0.14157 0.89491 0.0
H1005 H 0.07438 0.14294 0.83499 0.0
H1006 H 0.06343 0.11646 0.86308 0.0
H1007 H 0.05781 0.12651 0.77515 0.0
H1008 H 0.02041 0.05396 0.88638 0.0
H1009 H 0.0088 0.07784 0.6737 0.0
H1010 H 0.00974 0.10281 0.97597 0.0
H1011 H 0.039 0.10339 0.96024 0.0
H1012 H 0.02564 0.07754 0.98306 0.0
H1013 H 0.01247 0.11593 0.64435 0.0
H1014 H 0.02301 0.13515 0.70922 0.0
H1015 H 0.99391 0.12922 0.70616 0.0
C1016 C 0.33696 0.99911 0.925 0.0
C1017 C 0.32452 0.01806 0.90667 0.0
C1018 C 0.35826 0.99532 0.89612 0.0
C1019 C 0.36777 0.01101 0.84849 0.0
C1020 C 0.35504 0.02971 0.82761 0.0
C1021 C 0.33361 0.03287 0.85618 0.0
C1022 C 0.37093 0.97484 0.9185 0.0
C1023 C 0.36445 0.04694 0.77739 0.0
C1024 C 0.43112 0.01469 0.84588 0.0
C1025 C 0.43673 1.00379 0.78235 0.0
C1026 C 0.40885 0.01736 0.86715 0.0
C1027 C 0.39152 0.00865 0.82468 0.0
C1028 C 0.39702 0.99763 0.76035 0.0
C1029 C 0.41949 0.99553 0.73967 0.0
C1030 C 0.40389 0.0296 0.93535 0.0
C1031 C 0.37917 0.98806 0.71332 0.0
H1032 H 0.33049 0.98755 0.96421 0.0
H1033 H 0.32414 0.04729 0.83975 0.0
H1034 H 0.37726 0.96599 0.87088 0.0
H1035 H 0.38552 0.97967 0.95089 0.0
H1036 H 0.36056 0.96321 0.95039 0.0
H1037 H 0.35193 0.05958 0.76162 0.0
H1038 H 0.37857 0.0555 0.80334 0.0
H1039 H 0.37099 0.03892 0.72869 0.0
H1040 H 0.44418 0.02132 0.87917 0.0
H1041 H 0.42356 0.98714 0.69051 0.0
H1042 H 0.39528 0.01841 0.97348 0.0
H1043 H 0.39259 0.04375 0.92433 0.0
H1044 H 0.41914 0.03604 0.96121 0.0
H1045 H 0.36689 0.97862 0.7455 0.0
H1046 H 0.38612 0.9769 0.67212 0.0
H1047 H 0.37014 1.00171 0.68608 0.0
C1048 C 0.48244 0.32326 0.86327 0.0
C1049 C 0.49215 0.31794 0.92911 0.0
C1050 C 0.48332 0.34502 0.83519 0.0
C1051 C 0.49383 0.36218 0.87444 0.0
C1052 C 0.50317 0.35695 0.94182 0.0
C1053 C 0.50247 0.33496 0.96773 0.0
C1054 C 0.47225 0.34931 0.76436 0.0
C1055 C 0.51327 0.37475 0.98791 0.0
C1056 C 0.51429 0.41515 0.78091 0.0
C1057 C 0.4968 0.43006 0.79352 0.0
C1058 C 0.51365 0.39317 0.80755 0.0
C1059 C 0.49483 0.3856 0.84617 0.0
C1060 C 0.47703 0.40051 0.85818 0.0
C1061 C 0.4783 0.42249 0.83234 0.0
C1062 C 0.53328 0.37808 0.79541 0.0
C1063 C 0.45663 0.39325 0.89876 0.0
H1064 H 0.47425 0.31033 0.83319 0.0
H1065 H 0.50951 0.33119 0.01951 0.0
H1066 H 0.45398 0.34912 0.77206 0.0
H1067 H 0.47691 0.36543 0.73993 0.0
H1068 H 0.47633 0.33582 0.72643 0.0
H1069 H 0.52 0.36799 0.03867 0.0
H1070 H 0.52685 0.38335 0.95901 0.0
H1071 H 0.50051 0.38742 1.0006 0.0
H1072 H 0.52875 0.42082 0.75177 0.0
H1073 H 0.46464 0.43377 0.8423 0.0
H1074 H 0.5279 0.36305 0.7663 0.0
H1075 H 0.54012 0.37235 0.84712 0.0
H1076 H 0.54681 0.38638 0.76533 0.0
H1077 H 0.44813 0.37983 0.86919 0.0
H1078 H 0.4447 0.40707 0.9069 0.0
H1079 H 0.46142 0.38641 0.95157 0.0
C1080 C 0.16769 0.48155 0.92595 0.0
C1081 C 0.17935 0.50177 0.92823 0.0
C1082 C 0.14671 0.4799 0.89284 0.0
C1083 C 0.13666 0.49899 0.86234 0.0
C1084 C 0.14859 0.51925 0.86215 0.0
C1085 C 0.16975 0.52032 0.89406 0.0
C1086 C 0.13504 0.45776 0.89213 0.0
C1087 C 0.13868 0.54005 0.83015 0.0
C1088 C 0.08679 0.49382 0.73609 0.0
C1089 C 0.06875 0.4964 0.78282 0.0
C1090 C 0.10891 0.49435 0.76102 0.0
C1091 C 0.11323 0.49808 0.83434 0.0
C1092 C 0.09503 0.50112 0.88138 0.0
C1093 C 0.07312 0.49992 0.85535 0.0
C1094 C 0.12758 0.49028 0.70901 0.0
C1095 C 0.09869 0.50595 0.95933 0.0
H1096 H 0.17454 0.46706 0.95221 0.0
H1097 H 0.17863 0.53593 0.89301 0.0
H1098 H 0.12008 0.45845 0.92655 0.0
H1099 H 0.1294 0.45384 0.83735 0.0
H1100 H 0.14587 0.44407 0.91143 0.0
H1101 H 0.15026 0.55437 0.83232 0.0
H1102 H 0.13406 0.5372 0.77375 0.0
H1103 H 0.12326 0.54446 0.85921 0.0
H1104 H 0.08362 0.49095 0.68005 0.0
H1105 H 0.05933 0.50223 0.89177 0.0
H1106 H 0.12192 0.49143 0.65278 0.0
H1107 H 0.13444 0.47343 0.71835 0.0
H1108 H 0.1413 0.50225 0.717 0.0
H1109 H 0.10759 0.49192 0.98498 0.0
H1110 H 0.08287 0.50874 0.98843 0.0
H1111 H 0.10926 0.5209 0.96505 0.0
C1112 C 0.9705 0.82532 0.55423 0.0
C1113 C 0.98524 0.81797 0.50096 0.0
C1114 C 0.97219 0.84673 0.58388 0.0
C1115 C 0.98927 0.8613 0.56113 0.0
C1116 C 1.00479 0.85369 0.50985 0.0
C1117 C 1.00252 0.83233 0.48016 0.0
C1118 C 0.95539 0.85394 0.63878 0.0
C1119 C 0.02366 0.86833 0.48533 0.0
C1120 C 0.98159 0.92427 0.57491 0.0
C1121 C 0.99362 0.92953 0.63664 0.0
C1122 C 0.97971 0.90221 0.5509 0.0
C1123 C 0.99041 0.88476 0.58854 0.0
C1124 C 1.00243 0.88991 0.6513 0.0
C1125 C 1.00369 0.91211 0.67487 0.0
C1126 C 0.96631 0.89758 0.48472 0.0
C1127 C 0.01411 0.87205 0.69365 0.0
H1128 H 0.9574 0.81439 0.57255 0.0
H1129 H 0.01395 0.82721 0.43881 0.0
H1130 H 0.96396 0.85778 0.68943 0.0
H1131 H 0.94693 0.86934 0.6208 0.0
H1132 H 0.94263 0.84103 0.64933 0.0
H1133 H 0.03518 0.85958 0.44872 0.0
H1134 H 0.01697 0.88316 0.45741 0.0
H1135 H 0.03321 0.87429 0.53201 0.0
H1136 H 0.97359 0.93746 0.54498 0.0
H1137 H 0.01303 0.91585 0.72255 0.0
H1138 H 0.95328 0.88509 0.49669 0.0
H1139 H 0.9772 0.8905 0.44288 0.0
H1140 H 0.95823 0.91275 0.46307 0.0
H1141 H 1.00173 0.86264 0.7255 0.0
H1142 H 0.02655 0.87908 0.73075 0.0
H1143 H 0.02263 0.86012 0.65801 0.0
C1144 C 0.6721 0.98437 0.50469 0.0
C1145 C 0.68102 1.00547 0.489 0.0
C1146 C 0.65154 0.98188 0.54019 0.0
C1147 C 0.63877 1.00084 0.55784 0.0
C1148 C 0.64773 0.02212 0.54382 0.0
C1149 C 0.66883 0.02415 0.51189 0.0
C1150 C 0.6433 0.95886 0.55782 0.0
C1151 C 0.63454 0.04285 0.55942 0.0
C1152 C 0.57575 0.99349 0.56804 0.0
C1153 C 0.5715 0.99526 0.64134 0.0
C1154 C 0.59743 0.99547 0.54048 0.0
C1155 C 0.61563 0.99845 0.58739 0.0
C1156 C 0.61147 0.99975 0.6618 0.0
C1157 C 0.58946 0.99862 0.68761 0.0
C1158 C 0.60076 0.99503 0.46073 0.0
C1159 C 0.63009 1.00278 0.71458 0.0
H1160 H 0.68078 0.96959 0.4878 0.0
H1161 H 0.67547 0.04064 0.50403 0.0
H1162 H 0.63793 0.958 0.6144 0.0
H1163 H 0.62865 0.9549 0.52451 0.0
H1164 H 0.65619 0.946 0.54865 0.0
H1165 H 0.64406 0.05823 0.54785 0.0
H1166 H 0.61923 0.04299 0.52657 0.0
H1167 H 0.62926 0.04307 0.61598 0.0
H1168 H 0.56196 0.99127 0.53171 0.0
H1169 H 0.58637 1.00011 0.74431 0.0
H1170 H 0.61153 0.98086 0.44591 0.0
H1171 H 0.60929 0.01042 0.44296 0.0
H1172 H 0.58484 0.99357 0.43133 0.0
H1173 H 0.64537 0.99397 0.69758 0.0
H1174 H 0.62531 0.99674 0.76851 0.0
H1175 H 0.634 0.02069 0.71887 0.0
C1176 C 0.53091 0.66913 0.57653 0.0
C1177 C 0.51687 0.67822 0.52396 0.0
C1178 C 0.52834 0.6472 0.60149 0.0
C1179 C 0.51072 0.63392 0.5758 0.0
C1180 C 0.49581 0.6432 0.52538 0.0
C1181 C 0.49919 0.665 0.49952 0.0
C1182 C 0.54542 0.63801 0.65237 0.0
C1183 C 0.47658 0.62985 0.49723 0.0
C1184 C 0.51771 0.57087 0.58676 0.0
C1185 C 0.50598 0.56537 0.64922 0.0
C1186 C 0.51919 0.59295 0.56212 0.0
C1187 C 0.5084 0.61016 0.59996 0.0
C1188 C 0.4963 0.60471 0.66258 0.0
C1189 C 0.4954 0.58249 0.68676 0.0
C1190 C 0.5327 0.59791 0.49615 0.0
C1191 C 0.4847 0.62245 0.70508 0.0
H1192 H 0.54434 0.67899 0.59786 0.0
H1193 H 0.4883 0.67134 0.45834 0.0
H1194 H 0.53814 0.62565 0.68947 0.0
H1195 H 0.55858 0.62953 0.62128 0.0
H1196 H 0.5534 0.65139 0.68373 0.0
H1197 H 0.46559 0.63982 0.46195 0.0
H1198 H 0.48292 0.61545 0.46672 0.0
H1199 H 0.46656 0.62318 0.54217 0.0
H1200 H 0.52607 0.55789 0.55732 0.0
H1201 H 0.48627 0.57853 0.73486 0.0
H1202 H 0.54667 0.60908 0.50989 0.0
H1203 H 0.52234 0.60668 0.4561 0.0
H1204 H 0.53958 0.58266 0.47152 0.0
H1205 H 0.49726 0.63237 0.73402 0.0
H1206 H 0.4729 0.61533 0.74446 0.0
H1207 H 0.47546 0.63393 0.66943 0.0
C1208 C 0.8304 0.53376 0.57278 0.0
C1209 C 0.82196 0.51899 0.52156 0.0
C1210 C 0.85189 0.53117 0.60159 0.0
C1211 C 0.86537 0.51314 0.5801 0.0
C1212 C 0.85657 0.49752 0.53145 0.0
C1213 C 0.83519 0.50071 0.50247 0.0
C1214 C 0.86042 0.54815 0.65359 0.0
C1215 C 0.87003 0.47766 0.50853 0.0
C1216 C 0.92866 0.51834 0.58446 0.0
C1217 C 0.93439 0.50685 0.64716 0.0
C1218 C 0.90637 0.52083 0.56319 0.0
C1219 C 0.88911 0.51132 0.60472 0.0
C1220 C 0.89473 0.49984 0.66847 0.0
C1221 C 0.9172 0.49797 0.68924 0.0
C1222 C 0.90129 0.53364 0.49578 0.0
C1223 C 0.87705 0.48945 0.7149 0.0
H1224 H 0.82032 0.54764 0.58983 0.0
H1225 H 0.82921 0.4892 0.46274 0.0
H1226 H 0.8651 0.53987 0.70427 0.0
H1227 H 0.8756 0.55615 0.63195 0.0
H1228 H 0.84797 0.56124 0.66522 0.0
H1229 H 0.86027 0.46607 0.47509 0.0
H1230 H 0.88472 0.48326 0.47763 0.0
H1231 H 0.87623 0.46853 0.55601 0.0
H1232 H 0.94167 0.52549 0.55165 0.0
H1233 H 0.92131 0.4891 0.7378 0.0
H1234 H 0.88948 0.54729 0.50743 0.0
H1235 H 0.89322 0.52258 0.45652 0.0
H1236 H 0.91643 0.54085 0.471 0.0
H1237 H 0.86881 0.50255 0.74671 0.0
H1238 H 0.88413 0.47701 0.7523 0.0
H1239 H 0.86414 0.48124 0.68224 0.0
loop_
_geom_bond_atom_site_label_1
_geom_bond_atom_site_label_2
_geom_bond_distance
_geom_bond_site_symmetry_2
_ccdc_geom_bond_type
C0 C1 1.386 . S
C0 C2 1.397 . S
C0 H24 0.931 . S
C1 C0 1.386 . S
C1 C5 1.397 . S
C2 C0 1.397 . S
C2 C3 1.384 . S
C2 H25 0.930 . S
C3 C2 1.384 . S
C3 C4 1.377 . S
C3 C6 1.481 . S
C4 C3 1.377 . S
C4 C5 1.389 . S
C4 H26 0.929 . S
C5 C1 1.397 . S
C5 C4 1.389 . S
C5 H27 0.931 . S
C6 C3 1.481 . S
C6 C7 1.387 . S
C6 C11 1.390 . S
C7 C6 1.387 . S
C7 C8 1.401 . S
C7 H28 0.930 . S
C8 C7 1.401 . S
C8 C9 1.376 . S
C8 C17 1.511 . S
C9 C8 1.376 . S
C9 C10 1.392 . S
C9 H30 0.931 . S
C10 C9 1.392 . S
C10 C11 1.361 . S
C10 C12 1.500 . S
C11 C6 1.390 . S
C11 C10 1.361 . S
C11 H29 0.931 . S
C12 C10 1.500 . S
C12 C13 1.371 . S
C12 C14 1.365 . S
C13 C12 1.371 . S
C13 C23 1.386 . S
C13 H31 0.931 . S
C14 C12 1.365 . S
C14 C15 1.409 . S
C14 H32 0.929 . S
C15 C14 1.409 . S
C15 C16 1.380 . S
C15 H33 0.930 . S
C16 C15 1.380 . S
C16 C23 1.357 . S
C17 C8 1.511 . S
C17 C18 1.341 . S
C17 C19 1.371 . S
C18 C17 1.341 . S
C18 C22 1.394 . S
C18 H34 0.930 . S
C19 C17 1.371 . S
C19 C20 1.392 . S
C19 H35 0.931 . S
C20 C19 1.392 . S
C20 C21 1.331 . S
C20 H38 0.932 . S
C21 C20 1.331 . S
C21 C22 1.336 . S
C22 C18 1.394 . S
C22 C21 1.336 . S
C22 H37 0.929 . S
C23 C13 1.386 . S
C23 C16 1.357 . S
C23 H36 0.928 . S
H24 C0 0.931 . S
H25 C2 0.930 . S
H26 C4 0.929 . S
H27 C5 0.931 . S
H28 C7 0.930 . S
H29 C11 0.931 . S
H30 C9 0.931 . S
H31 C13 0.931 . S
H32 C14 0.929 . S
H33 C15 0.930 . S
H34 C18 0.930 . S
H35 C19 0.931 . S
H36 C23 0.928 . S
H37 C22 0.929 . S
H38 C20 0.932 . S
C39 C40 1.394 . S
C39 C41 1.397 . S
C39 H63 0.931 . S
C40 C39 1.394 . S
C40 C44 1.389 1_655 S
C41 C39 1.397 . S
C41 C42 1.389 . S
C41 H64 0.930 . S
C42 C41 1.389 . S
C42 C43 1.373 1_655 S
C42 C45 1.480 . S
C43 C42 1.373 1_455 S
C43 C44 1.389 . S
C43 H65 0.929 . S
C44 C40 1.389 1_455 S
C44 C43 1.389 . S
C44 H66 0.931 . S
C45 C42 1.480 . S
C45 C46 1.388 . S
C45 C50 1.390 . S
C46 C45 1.388 . S
C46 C47 1.402 . S
C46 H67 0.930 . S
C47 C46 1.402 . S
C47 C48 1.376 . S
C47 C56 1.513 . S
C48 C47 1.376 . S
C48 C49 1.392 . S
C48 H69 0.934 . S
C49 C48 1.392 . S
C49 C50 1.361 . S
C49 C51 1.499 1_655 S
C50 C45 1.390 . S
C50 C49 1.361 . S
C50 H68 0.931 . S
C51 C49 1.499 1_455 S
C51 C52 1.362 1_455 S
C51 C53 1.374 . S
C52 C51 1.362 1_655 S
C52 C62 1.386 . S
C52 H70 0.931 . S
C53 C51 1.374 . S
C53 C54 1.409 . S
C53 H71 0.929 . S
C54 C53 1.409 . S
C54 C55 1.379 . S
C54 H72 0.930 . S
C55 C54 1.379 . S
C55 C62 1.359 1_455 S
C56 C47 1.513 . S
C56 C57 1.341 . S
C56 C58 1.371 1_655 S
C57 C56 1.341 . S
C57 C61 1.394 . S
C57 H73 0.930 . S
C58 C56 1.371 1_455 S
C58 C59 1.392 . S
C58 H74 0.931 . S
C59 C58 1.392 . S
C59 C60 1.322 1_455 S
C59 H77 0.932 . S
C60 C59 1.322 1_655 S
C60 C61 1.345 . S
C61 C57 1.394 . S
C61 C60 1.345 . S
C61 H76 0.929 . S
C62 C52 1.386 . S
C62 C55 1.359 1_655 S
C62 H75 0.928 . S
H63 C39 0.931 . S
H64 C41 0.930 . S
H65 C43 0.929 . S
H66 C44 0.931 . S
H67 C46 0.930 . S
H68 C50 0.931 . S
H69 C48 0.934 . S
H70 C52 0.931 . S
H71 C53 0.929 . S
H72 C54 0.930 . S
H73 C57 0.930 . S
H74 C58 0.931 . S
H75 C62 0.928 . S
H76 C61 0.929 . S
H77 C59 0.932 . S
C78 C79 1.394 . S
C78 C80 1.397 . S
C78 H102 0.931 . S
C79 C78 1.394 . S
C79 C83 1.389 1_565 S
C80 C78 1.397 . S
C80 C81 1.389 . S
C80 H103 0.930 . S
C81 C80 1.389 . S
C81 C82 1.373 1_565 S
C81 C84 1.481 . S
C82 C81 1.373 1_545 S
C82 C83 1.389 . S
C82 H104 0.929 . S
C83 C79 1.389 1_545 S
C83 C82 1.389 . S
C83 H105 0.931 . S
C84 C81 1.481 . S
C84 C85 1.388 . S
C84 C89 1.390 . S
C85 C84 1.388 . S
C85 C86 1.402 . S
C85 H106 0.930 . S
C86 C85 1.402 . S
C86 C87 1.376 . S
C86 C95 1.513 . S
C87 C86 1.376 . S
C87 C88 1.391 . S
C87 H108 0.934 . S
C88 C87 1.391 . S
C88 C89 1.361 . S
C88 C90 1.499 1_565 S
C89 C84 1.390 . S
C89 C88 1.361 . S
C89 H107 0.931 . S
C90 C88 1.499 1_545 S
C90 C91 1.362 1_545 S
C90 C92 1.374 . S
C91 C90 1.362 1_565 S
C91 C101 1.386 . S
C91 H109 0.931 . S
C92 C90 1.374 . S
C92 C93 1.409 . S
C92 H110 0.929 . S
C93 C92 1.409 . S
C93 C94 1.379 . S
C93 H111 0.930 . S
C94 C93 1.379 . S
C94 C101 1.359 1_545 S
C95 C86 1.513 . S
C95 C96 1.341 . S
C95 C97 1.371 1_565 S
C96 C95 1.341 . S
C96 C100 1.394 . S
C96 H112 0.930 . S
C97 C95 1.371 1_545 S
C97 C98 1.392 . S
C97 H113 0.931 . S
C98 C97 1.392 . S
C98 C99 1.322 1_545 S
C98 H116 0.932 . S
C99 C98 1.322 1_565 S
C99 C100 1.345 . S
C100 C96 1.394 . S
C100 C99 1.345 . S
C100 H115 0.929 . S
C101 C91 1.386 . S
C101 C94 1.359 1_565 S
C101 H114 0.928 . S
H102 C78 0.931 . S
H103 C80 0.930 . S
H104 C82 0.929 . S
H105 C83 0.931 . S
H106 C85 0.930 . S
H107 C89 0.931 . S
H108 C87 0.934 . S
H109 C91 0.931 . S
H110 C92 0.929 . S
H111 C93 0.930 . S
H112 C96 0.930 . S
H113 C97 0.931 . S
H114 C101 0.928 . S
H115 C100 0.929 . S
H116 C98 0.932 . S
C117 C118 1.386 . S
C117 C119 1.397 . S
C117 H141 0.931 . S
C118 C117 1.386 . S
C118 C122 1.397 . S
C119 C117 1.397 . S
C119 C120 1.384 . S
C119 H142 0.930 . S
C120 C119 1.384 . S
C120 C121 1.377 . S
C120 C123 1.481 . S
C121 C120 1.377 . S
C121 C122 1.389 . S
C121 H143 0.929 . S
C122 C118 1.397 . S
C122 C121 1.389 . S
C122 H144 0.931 . S
C123 C120 1.481 . S
C123 C124 1.387 . S
C123 C128 1.390 . S
C124 C123 1.387 . S
C124 C125 1.401 . S
C124 H145 0.930 . S
C125 C124 1.401 . S
C125 C126 1.376 . S
C125 C134 1.511 . S
C126 C125 1.376 . S
C126 C127 1.392 . S
C126 H147 0.931 . S
C127 C126 1.392 . S
C127 C128 1.361 . S
C127 C129 1.500 . S
C128 C123 1.390 . S
C128 C127 1.361 . S
C128 H146 0.931 . S
C129 C127 1.500 . S
C129 C130 1.371 . S
C129 C131 1.365 . S
C130 C129 1.371 . S
C130 C140 1.386 . S
C130 H148 0.931 . S
C131 C129 1.365 . S
C131 C132 1.409 . S
C131 H149 0.929 . S
C132 C131 1.409 . S
C132 C133 1.380 . S
C132 H150 0.930 . S
C133 C132 1.380 . S
C133 C140 1.357 . S
C134 C125 1.511 . S
C134 C135 1.341 . S
C134 C136 1.371 . S
C135 C134 1.341 . S
C135 C139 1.394 . S
C135 H151 0.930 . S
C136 C134 1.371 . S
C136 C137 1.392 . S
C136 H152 0.931 . S
C137 C136 1.392 . S
C137 C138 1.331 . S
C137 H155 0.932 . S
C138 C137 1.331 . S
C138 C139 1.336 . S
C139 C135 1.394 . S
C139 C138 1.336 . S
C139 H154 0.929 . S
C140 C130 1.386 . S
C140 C133 1.357 . S
C140 H153 0.928 . S
H141 C117 0.931 . S
H142 C119 0.930 . S
H143 C121 0.929 . S
H144 C122 0.931 . S
H145 C124 0.930 . S
H146 C128 0.931 . S
H147 C126 0.931 . S
H148 C130 0.931 . S
H149 C131 0.929 . S
H150 C132 0.930 . S
H151 C135 0.930 . S
H152 C136 0.931 . S
H153 C140 0.928 . S
H154 C139 0.929 . S
H155 C137 0.932 . S
C156 C157 1.386 . S
C156 C158 1.397 . S
C156 H180 0.931 . S
C157 C156 1.386 . S
C157 C161 1.397 . S
C158 C156 1.397 . S
C158 C159 1.384 . S
C158 H181 0.930 . S
C159 C158 1.384 . S
C159 C160 1.377 . S
C159 C162 1.481 . S
C160 C159 1.377 . S
C160 C161 1.389 . S
C160 H182 0.929 . S
C161 C157 1.397 . S
C161 C160 1.389 . S
C161 H183 0.931 . S
C162 C159 1.481 . S
C162 C163 1.387 . S
C162 C167 1.390 . S
C163 C162 1.387 . S
C163 C164 1.401 . S
C163 H184 0.930 . S
C164 C163 1.401 . S
C164 C165 1.362 1_554 S
C164 C173 1.511 . S
C165 C164 1.362 1_556 S
C165 C166 1.395 . S
C165 H186 0.942 . S
C166 C165 1.395 . S
C166 C167 1.361 1_556 S
C166 C168 1.500 . S
C167 C162 1.390 . S
C167 C166 1.361 1_554 S
C167 H185 0.931 . S
C168 C166 1.500 . S
C168 C169 1.371 . S
C168 C170 1.365 . S
C169 C168 1.371 . S
C169 C179 1.386 . S
C169 H187 0.931 . S
C170 C168 1.365 . S
C170 C171 1.409 . S
C170 H188 0.929 . S
C171 C170 1.409 . S
C171 C172 1.380 . S
C171 H189 0.930 . S
C172 C171 1.380 . S
C172 C179 1.357 . S
C173 C164 1.511 . S
C173 C174 1.341 . S
C173 C175 1.371 . S
C174 C173 1.341 . S
C174 C178 1.394 . S
C174 H190 0.930 . S
C175 C173 1.371 . S
C175 C176 1.392 . S
C175 H191 0.931 1_554 S
C176 C175 1.392 . S
C176 C177 1.331 . S
C176 H194 0.932 . S
C177 C176 1.331 . S
C177 C178 1.336 . S
C178 C174 1.394 . S
C178 C177 1.336 . S
C178 H193 0.929 . S
C179 C169 1.386 . S
C179 C172 1.357 . S
C179 H192 0.928 . S
H180 C156 0.931 . S
H181 C158 0.930 . S
H182 C160 0.929 . S
H183 C161 0.931 . S
H184 C163 0.930 . S
H185 C167 0.931 . S
H186 C165 0.942 . S
H187 C169 0.931 . S
H188 C170 0.929 . S
H189 C171 0.930 . S
H190 C174 0.930 . S
H191 C175 0.931 1_556 S
H192 C179 0.928 . S
H193 C178 0.929 . S
H194 C176 0.932 . S
C195 C196 1.387 . S
C195 C197 1.397 . S
C195 H219 0.931 . S
C196 C195 1.387 . S
C196 C200 1.396 1_655 S
C197 C195 1.397 . S
C197 C198 1.381 . S
C197 H220 0.930 . S
C198 C197 1.381 . S
C198 C199 1.380 1_655 S
C198 C201 1.480 . S
C199 C198 1.380 1_455 S
C199 C200 1.389 . S
C199 H221 0.929 . S
C200 C196 1.396 1_455 S
C200 C199 1.389 . S
C200 H222 0.931 . S
C201 C198 1.480 . S
C201 C202 1.388 . S
C201 C206 1.390 . S
C202 C201 1.388 . S
C202 C203 1.402 . S
C202 H223 0.930 . S
C203 C202 1.402 . S
C203 C204 1.376 . S
C203 C212 1.512 . S
C204 C203 1.376 . S
C204 C205 1.392 1_654 S
C204 H225 0.933 1_554 S
C205 C204 1.392 1_456 S
C205 C206 1.361 1_456 S
C205 C207 1.499 . S
C206 C201 1.390 . S
C206 C205 1.361 1_654 S
C206 H224 0.931 . S
C207 C205 1.499 . S
C207 C208 1.357 1_455 S
C207 C209 1.380 . S
C208 C207 1.357 1_655 S
C208 C218 1.386 . S
C208 H226 0.931 . S
C209 C207 1.380 . S
C209 C210 1.409 . S
C209 H227 0.929 . S
C210 C209 1.409 . S
C210 C211 1.384 . S
C210 H228 0.930 . S
C211 C210 1.384 . S
C211 C218 1.353 1_455 S
C212 C203 1.512 . S
C212 C213 1.341 . S
C212 C214 1.371 1_655 S
C213 C212 1.341 . S
C213 C217 1.394 . S
C213 H229 0.930 . S
C214 C212 1.371 1_455 S
C214 C215 1.392 . S
C214 H230 0.931 1_554 S
C215 C214 1.392 . S
C215 C216 1.326 1_455 S
C215 H233 0.932 . S
C216 C215 1.326 1_655 S
C216 C217 1.341 . S
C217 C213 1.394 . S
C217 C216 1.341 . S
C217 H232 0.929 . S
C218 C208 1.386 . S
C218 C211 1.353 1_655 S
C218 H231 0.928 . S
H219 C195 0.931 . S
H220 C197 0.930 . S
H221 C199 0.929 . S
H222 C200 0.931 . S
H223 C202 0.930 . S
H224 C206 0.931 . S
H225 C204 0.933 1_556 S
H226 C208 0.931 . S
H227 C209 0.929 . S
H228 C210 0.930 . S
H229 C213 0.930 . S
H230 C214 0.931 1_556 S
H231 C218 0.928 . S
H232 C217 0.929 . S
H233 C215 0.932 . S
C234 C235 1.387 . S
C234 C236 1.397 . S
C234 H258 0.931 . S
C235 C234 1.387 . S
C235 C239 1.396 1_565 S
C236 C234 1.397 . S
C236 C237 1.381 . S
C236 H259 0.930 . S
C237 C236 1.381 . S
C237 C238 1.380 1_565 S
C237 C240 1.480 . S
C238 C237 1.380 1_545 S
C238 C239 1.389 . S
C238 H260 0.929 . S
C239 C235 1.396 1_545 S
C239 C238 1.389 . S
C239 H261 0.931 . S
C240 C237 1.480 . S
C240 C241 1.388 . S
C240 C245 1.390 . S
C241 C240 1.388 . S
C241 C242 1.402 . S
C241 H262 0.930 . S
C242 C241 1.402 . S
C242 C243 1.378 . S
C242 C251 1.512 . S
C243 C242 1.378 . S
C243 C244 1.391 1_564 S
C243 H264 0.932 1_554 S
C244 C243 1.391 1_546 S
C244 C245 1.361 1_546 S
C244 C246 1.499 . S
C245 C240 1.390 . S
C245 C244 1.361 1_564 S
C245 H263 0.931 . S
C246 C244 1.499 . S
C246 C247 1.357 1_545 S
C246 C248 1.380 . S
C247 C246 1.357 1_565 S
C247 C257 1.386 . S
C247 H265 0.931 . S
C248 C246 1.380 . S
C248 C249 1.409 . S
C248 H266 0.929 . S
C249 C248 1.409 . S
C249 C250 1.384 . S
C249 H267 0.930 . S
C250 C249 1.384 . S
C250 C257 1.353 1_545 S
C251 C242 1.512 . S
C251 C252 1.341 . S
C251 C253 1.371 1_565 S
C252 C251 1.341 . S
C252 C256 1.394 . S
C252 H268 0.930 . S
C253 C251 1.371 1_545 S
C253 C254 1.392 . S
C253 H269 0.931 1_554 S
C254 C253 1.392 . S
C254 C255 1.326 1_545 S
C254 H272 0.932 . S
C255 C254 1.326 1_565 S
C255 C256 1.341 . S
C256 C252 1.394 . S
C256 C255 1.341 . S
C256 H271 0.929 . S
C257 C247 1.386 . S
C257 C250 1.353 1_565 S
C257 H270 0.928 . S
H258 C234 0.931 . S
H259 C236 0.930 . S
H260 C238 0.929 . S
H261 C239 0.931 . S
H262 C241 0.930 . S
H263 C245 0.931 . S
H264 C243 0.932 1_556 S
H265 C247 0.931 . S
H266 C248 0.929 . S
H267 C249 0.930 . S
H268 C252 0.930 . S
H269 C253 0.931 1_556 S
H270 C257 0.928 . S
H271 C256 0.929 . S
H272 C254 0.932 . S
C273 C274 1.386 . S
C273 C275 1.397 . S
C273 H297 0.931 . S
C274 C273 1.386 . S
C274 C278 1.397 . S
C275 C273 1.397 . S
C275 C276 1.384 . S
C275 H298 0.930 . S
C276 C275 1.384 . S
C276 C277 1.377 . S
C276 C279 1.481 . S
C277 C276 1.377 . S
C277 C278 1.389 . S
C277 H299 0.929 . S
C278 C274 1.397 . S
C278 C277 1.389 . S
C278 H300 0.931 . S
C279 C276 1.481 . S
C279 C280 1.387 . S
C279 C284 1.390 1_556 S
C280 C279 1.387 . S
C280 C281 1.400 1_556 S
C280 H301 0.931 . S
C281 C280 1.400 1_554 S
C281 C282 1.376 . S
C281 C290 1.511 . S
C282 C281 1.376 . S
C282 C283 1.392 . S
C282 H303 0.931 . S
C283 C282 1.392 . S
C283 C284 1.361 . S
C283 C285 1.500 . S
C284 C279 1.390 1_554 S
C284 C283 1.361 . S
C284 H302 0.931 . S
C285 C283 1.500 . S
C285 C286 1.371 . S
C285 C287 1.365 . S
C286 C285 1.371 . S
C286 C296 1.386 . S
C286 H304 0.931 . S
C287 C285 1.365 . S
C287 C288 1.409 . S
C287 H305 0.929 . S
C288 C287 1.409 . S
C288 C289 1.380 . S
C288 H306 0.930 . S
C289 C288 1.380 . S
C289 C296 1.357 . S
C290 C281 1.511 . S
C290 C291 1.341 . S
C290 C292 1.371 . S
C291 C290 1.341 . S
C291 C295 1.394 . S
C291 H307 0.930 1_554 S
C292 C290 1.371 . S
C292 C293 1.392 . S
C292 H308 0.931 . S
C293 C292 1.392 . S
C293 C294 1.331 . S
C293 H311 0.932 . S
C294 C293 1.331 . S
C294 C295 1.336 . S
C295 C291 1.394 . S
C295 C294 1.336 . S
C295 H310 0.929 . S
C296 C286 1.386 . S
C296 C289 1.357 . S
C296 H309 0.928 . S
H297 C273 0.931 . S
H298 C275 0.930 . S
H299 C277 0.929 . S
H300 C278 0.931 . S
H301 C280 0.931 . S
H302 C284 0.931 . S
H303 C282 0.931 . S
H304 C286 0.931 . S
H305 C287 0.929 . S
H306 C288 0.930 . S
H307 C291 0.930 1_556 S
H308 C292 0.931 . S
H309 C296 0.928 . S
H310 C295 0.929 . S
H311 C293 0.932 . S
Tb312 C314 2.809 . S
Tb312 O332 2.484 . S
Tb312 O333 2.440 . S
Tb312 O334 2.658 1_565 S
Tb312 O335 2.409 . S
Tb312 O336 2.378 . S
Tb312 O340 2.325 1_455 S
Tb312 O343 2.341 1_565 S
Tb313 C323 2.809 . S
Tb313 O334 2.325 1_655 S
Tb313 O337 2.341 1_545 S
Tb313 O338 2.484 . S
Tb313 O339 2.440 . S
Tb313 O340 2.658 1_545 S
Tb313 O341 2.409 . S
Tb313 O342 2.378 . S
C314 Tb312 2.809 . S
C314 C315 1.514 . S
C314 O332 1.248 . S
C314 O333 1.266 . S
C315 C314 1.514 . S
C315 C316 1.359 . S
C315 C320 1.348 . S
C316 C315 1.359 . S
C316 C317 1.380 . S
C316 H344 0.929 1_455 S
C317 C316 1.380 . S
C317 C318 1.347 . S
C317 H345 0.931 1_455 S
C318 C317 1.347 . S
C318 C319 1.369 . S
C319 C318 1.369 . S
C319 C320 1.408 . S
C319 H346 0.930 . S
C320 C315 1.348 . S
C320 C319 1.408 . S
C320 H347 0.930 . S
C321 O334 1.281 1_565 S
C321 O335 1.254 . S
C322 O336 1.236 1_655 S
C322 O337 1.266 . S
C323 Tb313 2.809 . S
C323 C324 1.514 . S
C323 O338 1.248 . S
C323 O339 1.266 . S
C324 C323 1.514 . S
C324 C325 1.359 . S
C324 C329 1.348 . S
C325 C324 1.359 . S
C325 C326 1.380 . S
C325 H348 0.929 1_655 S
C326 C325 1.380 . S
C326 C327 1.347 . S
C326 H349 0.931 1_655 S
C327 C326 1.347 . S
C327 C328 1.369 . S
C328 C327 1.369 . S
C328 C329 1.408 . S
C328 H350 0.930 . S
C329 C324 1.348 . S
C329 C328 1.408 . S
C329 H351 0.930 . S
C330 O340 1.281 1_545 S
C330 O341 1.254 . S
C331 O342 1.236 1_455 S
C331 O343 1.266 . S
O332 Tb312 2.484 . S
O332 C314 1.248 . S
O333 Tb312 2.440 . S
O333 C314 1.266 . S
O334 Tb312 2.658 1_545 S
O334 Tb313 2.325 1_455 S
O334 C321 1.281 1_545 S
O335 Tb312 2.409 . S
O335 C321 1.254 . S
O336 Tb312 2.378 . S
O336 C322 1.236 1_455 S
O337 Tb313 2.341 1_565 S
O337 C322 1.266 . S
O338 Tb313 2.484 . S
O338 C323 1.248 . S
O339 Tb313 2.440 . S
O339 C323 1.266 . S
O340 Tb312 2.325 1_655 S
O340 Tb313 2.658 1_565 S
O340 C330 1.281 1_565 S
O341 Tb313 2.409 . S
O341 C330 1.254 . S
O342 Tb313 2.378 . S
O342 C331 1.236 1_655 S
O343 Tb312 2.341 1_545 S
O343 C331 1.266 . S
H344 C316 0.929 1_655 S
H345 C317 0.931 1_655 S
H346 C319 0.930 . S
H347 C320 0.930 . S
H348 C325 0.929 1_455 S
H349 C326 0.931 1_455 S
H350 C328 0.930 . S
H351 C329 0.930 . S
Tb352 C354 2.809 . S
Tb352 O372 2.484 . S
Tb352 O373 2.440 . S
Tb352 O374 2.658 . S
Tb352 O375 2.409 . S
Tb352 O376 2.378 . S
Tb352 O380 2.325 1_545 S
Tb352 O383 2.341 . S
Tb353 C363 2.809 . S
Tb353 O374 2.325 1_565 S
Tb353 O377 2.341 . S
Tb353 O378 2.484 . S
Tb353 O379 2.440 . S
Tb353 O380 2.658 . S
Tb353 O381 2.409 . S
Tb353 O382 2.378 . S
C354 Tb352 2.809 . S
C354 C355 1.514 . S
C354 O372 1.248 . S
C354 O373 1.266 . S
C355 C354 1.514 . S
C355 C356 1.359 . S
C355 C360 1.348 . S
C356 C355 1.359 . S
C356 C357 1.380 . S
C356 H384 0.929 1_545 S
C357 C356 1.380 . S
C357 C358 1.347 . S
C357 H385 0.931 1_545 S
C358 C357 1.347 . S
C358 C359 1.369 . S
C359 C358 1.369 . S
C359 C360 1.408 . S
C359 H386 0.930 . S
C360 C355 1.348 . S
C360 C359 1.408 . S
C360 H387 0.930 . S
C361 O374 1.281 . S
C361 O375 1.254 . S
C362 O376 1.236 1_565 S
C362 O377 1.266 . S
C363 Tb353 2.809 . S
C363 C364 1.514 . S
C363 O378 1.248 . S
C363 O379 1.266 . S
C364 C363 1.514 . S
C364 C365 1.359 . S
C364 C369 1.348 . S
C365 C364 1.359 . S
C365 C366 1.380 . S
C365 H388 0.929 1_565 S
C366 C365 1.380 . S
C366 C367 1.347 . S
C366 H389 0.931 1_565 S
C367 C366 1.347 . S
C367 C368 1.369 . S
C368 C367 1.369 . S
C368 C369 1.408 . S
C368 H390 0.930 . S
C369 C364 1.348 . S
C369 C368 1.408 . S
C369 H391 0.930 . S
C370 O380 1.281 . S
C370 O381 1.254 . S
C371 O382 1.236 1_545 S
C371 O383 1.266 . S
O372 Tb352 2.484 . S
O372 C354 1.248 . S
O373 Tb352 2.440 . S
O373 C354 1.266 . S
O374 Tb352 2.658 . S
O374 Tb353 2.325 1_545 S
O374 C361 1.281 . S
O375 Tb352 2.409 . S
O375 C361 1.254 . S
O376 Tb352 2.378 . S
O376 C362 1.236 1_545 S
O377 Tb353 2.341 . S
O377 C362 1.266 . S
O378 Tb353 2.484 . S
O378 C363 1.248 . S
O379 Tb353 2.440 . S
O379 C363 1.266 . S
O380 Tb352 2.325 1_565 S
O380 Tb353 2.658 . S
O380 C370 1.281 . S
O381 Tb353 2.409 . S
O381 C370 1.254 . S
O382 Tb353 2.378 . S
O382 C371 1.236 1_565 S
O383 Tb352 2.341 . S
O383 C371 1.266 . S
H384 C356 0.929 1_565 S
H385 C357 0.931 1_565 S
H386 C359 0.930 . S
H387 C360 0.930 . S
H388 C365 0.929 1_545 S
H389 C366 0.931 1_545 S
H390 C368 0.930 . S
H391 C369 0.930 . S
Tb392 C394 2.809 . S
Tb392 O412 2.484 . S
Tb392 O413 2.440 . S
Tb392 O414 2.658 . S
Tb392 O415 2.409 . S
Tb392 O416 2.378 . S
Tb392 O420 2.325 . S
Tb392 O423 2.341 . S
Tb393 C403 2.809 . S
Tb393 O414 2.325 . S
Tb393 O417 2.341 . S
Tb393 O418 2.484 . S
Tb393 O419 2.440 . S
Tb393 O420 2.658 . S
Tb393 O421 2.409 . S
Tb393 O422 2.378 . S
C394 Tb392 2.809 . S
C394 C395 1.514 . S
C394 O412 1.248 . S
C394 O413 1.266 . S
C395 C394 1.514 . S
C395 C396 1.359 . S
C395 C400 1.348 . S
C396 C395 1.359 . S
C396 C397 1.380 . S
C396 H424 0.929 . S
C397 C396 1.380 . S
C397 C398 1.347 . S
C397 H425 0.931 . S
C398 C397 1.347 . S
C398 C399 1.369 . S
C399 C398 1.369 . S
C399 C400 1.408 . S
C399 H426 0.930 . S
C400 C395 1.348 . S
C400 C399 1.408 . S
C400 H427 0.930 . S
C401 O414 1.281 . S
C401 O415 1.254 . S
C402 O416 1.236 . S
C402 O417 1.266 . S
C403 Tb393 2.809 . S
C403 C404 1.514 . S
C403 O418 1.248 . S
C403 O419 1.266 . S
C404 C403 1.514 . S
C404 C405 1.359 . S
C404 C409 1.348 . S
C405 C404 1.359 . S
C405 C406 1.380 . S
C405 H428 0.929 . S
C406 C405 1.380 . S
C406 C407 1.347 . S
C406 H429 0.931 . S
C407 C406 1.347 . S
C407 C408 1.369 . S
C408 C407 1.369 . S
C408 C409 1.408 . S
C408 H430 0.930 . S
C409 C404 1.348 . S
C409 C408 1.408 . S
C409 H431 0.930 . S
C410 O420 1.281 . S
C410 O421 1.254 . S
C411 O422 1.236 . S
C411 O423 1.266 . S
O412 Tb392 2.484 . S
O412 C394 1.248 . S
O413 Tb392 2.440 . S
O413 C394 1.266 . S
O414 Tb392 2.658 . S
O414 Tb393 2.325 . S
O414 C401 1.281 . S
O415 Tb392 2.409 . S
O415 C401 1.254 . S
O416 Tb392 2.378 . S
O416 C402 1.236 . S
O417 Tb393 2.341 . S
O417 C402 1.266 . S
O418 Tb393 2.484 . S
O418 C403 1.248 . S
O419 Tb393 2.440 . S
O419 C403 1.266 . S
O420 Tb392 2.325 . S
O420 Tb393 2.658 . S
O420 C410 1.281 . S
O421 Tb393 2.409 . S
O421 C410 1.254 . S
O422 Tb393 2.378 . S
O422 C411 1.236 . S
O423 Tb392 2.341 . S
O423 C411 1.266 . S
H424 C396 0.929 . S
H425 C397 0.931 . S
H426 C399 0.930 . S
H427 C400 0.930 . S
H428 C405 0.929 . S
H429 C406 0.931 . S
H430 C408 0.930 . S
H431 C409 0.930 . S
Tb432 C434 2.809 . S
Tb432 O452 2.484 . S
Tb432 O453 2.440 . S
Tb432 O454 2.658 1_655 S
Tb432 O455 2.409 . S
Tb432 O456 2.378 . S
Tb432 O460 2.325 . S
Tb432 O463 2.341 1_655 S
Tb433 C443 2.809 . S
Tb433 O454 2.325 . S
Tb433 O457 2.341 1_455 S
Tb433 O458 2.484 . S
Tb433 O459 2.440 . S
Tb433 O460 2.658 1_455 S
Tb433 O461 2.409 . S
Tb433 O462 2.378 . S
C434 Tb432 2.809 . S
C434 C435 1.514 . S
C434 O452 1.248 . S
C434 O453 1.266 . S
C435 C434 1.514 . S
C435 C436 1.359 . S
C435 C440 1.348 . S
C436 C435 1.359 . S
C436 C437 1.380 . S
C436 H464 0.929 . S
C437 C436 1.380 . S
C437 C438 1.347 . S
C437 H465 0.931 . S
C438 C437 1.347 . S
C438 C439 1.369 . S
C439 C438 1.369 . S
C439 C440 1.408 . S
C439 H466 0.930 . S
C440 C435 1.348 . S
C440 C439 1.408 . S
C440 H467 0.930 . S
C441 O454 1.276 1_655 S
C441 O455 1.261 . S
C442 O456 1.236 . S
C442 O457 1.266 . S
C443 Tb433 2.809 . S
C443 C444 1.514 . S
C443 O458 1.248 . S
C443 O459 1.266 . S
C444 C443 1.514 . S
C444 C445 1.359 . S
C444 C449 1.348 . S
C445 C444 1.359 . S
C445 C446 1.380 . S
C445 H468 0.929 . S
C446 C445 1.380 . S
C446 C447 1.347 . S
C446 H469 0.931 . S
C447 C446 1.347 . S
C447 C448 1.369 . S
C448 C447 1.369 . S
C448 C449 1.408 . S
C448 H470 0.930 . S
C449 C444 1.348 . S
C449 C448 1.408 . S
C449 H471 0.930 . S
C450 O460 1.272 1_455 S
C450 O461 1.267 . S
C451 O462 1.236 . S
C451 O463 1.266 . S
O452 Tb432 2.484 . S
O452 C434 1.248 . S
O453 Tb432 2.440 . S
O453 C434 1.266 . S
O454 Tb432 2.658 1_455 S
O454 Tb433 2.325 . S
O454 C441 1.276 1_455 S
O455 Tb432 2.409 . S
O455 C441 1.261 . S
O456 Tb432 2.378 . S
O456 C442 1.236 . S
O457 Tb433 2.341 1_655 S
O457 C442 1.266 . S
O458 Tb433 2.484 . S
O458 C443 1.248 . S
O459 Tb433 2.440 . S
O459 C443 1.266 . S
O460 Tb432 2.325 . S
O460 Tb433 2.658 1_655 S
O460 C450 1.272 1_655 S
O461 Tb433 2.409 . S
O461 C450 1.267 . S
O462 Tb433 2.378 . S
O462 C451 1.236 . S
O463 Tb432 2.341 1_455 S
O463 C451 1.266 . S
H464 C436 0.929 . S
H465 C437 0.931 . S
H466 C439 0.930 . S
H467 C440 0.930 . S
H468 C445 0.929 . S
H469 C446 0.931 . S
H470 C448 0.930 . S
H471 C449 0.930 . S
C472 C473 1.391 . S
C472 C474 1.394 . S
C472 H488 0.931 . S
C473 C472 1.391 . S
C473 C477 1.376 1_545 S
C474 C472 1.394 . S
C474 C475 1.369 . S
C474 C478 1.531 . S
C475 C474 1.369 . S
C475 C476 1.410 1_545 S
C475 C483 1.503 . S
C476 C475 1.410 1_565 S
C476 C477 1.392 . S
C476 C479 1.511 . S
C477 C473 1.376 1_565 S
C477 C476 1.392 . S
C477 H489 0.929 . S
C478 C474 1.531 . S
C478 H490 0.960 . S
C478 H491 0.962 . S
C478 H492 0.960 . S
C479 C476 1.511 . S
C479 H493 0.961 . S
C479 H494 0.961 . S
C479 H495 0.961 1_565 S
C480 C481 1.370 1_565 S
C480 C482 1.363 . S
C480 H496 0.931 . S
C481 C480 1.370 1_545 S
C481 C485 1.408 . S
C482 C480 1.363 . S
C482 C483 1.370 1_565 S
C482 C486 1.524 . S
C483 C475 1.503 . S
C483 C482 1.370 1_545 S
C483 C484 1.403 . S
C484 C483 1.403 . S
C484 C485 1.404 . S
C484 C487 1.539 . S
C485 C481 1.408 . S
C485 C484 1.404 . S
C485 H497 0.930 . S
C486 C482 1.524 . S
C486 H498 0.956 . S
C486 H499 0.961 . S
C486 H500 0.961 . S
C487 C484 1.539 . S
C487 H501 0.958 . S
C487 H502 0.961 . S
C487 H503 0.960 . S
H488 C472 0.931 . S
H489 C477 0.929 . S
H490 C478 0.960 . S
H491 C478 0.962 . S
H492 C478 0.960 . S
H493 C479 0.961 . S
H494 C479 0.961 . S
H495 C479 0.961 1_545 S
H496 C480 0.931 . S
H497 C485 0.930 . S
H498 C486 0.956 . S
H499 C486 0.961 . S
H500 C486 0.961 . S
H501 C487 0.958 . S
H502 C487 0.961 . S
H503 C487 0.960 . S
C504 C505 1.391 . S
C504 C506 1.394 . S
C504 H520 0.931 . S
C505 C504 1.391 . S
C505 C509 1.376 . S
C506 C504 1.394 . S
C506 C507 1.369 . S
C506 C510 1.531 . S
C507 C506 1.369 . S
C507 C508 1.410 . S
C507 C515 1.503 . S
C508 C507 1.410 . S
C508 C509 1.392 . S
C508 C511 1.511 . S
C509 C505 1.376 . S
C509 C508 1.392 . S
C509 H521 0.929 . S
C510 C506 1.531 . S
C510 H522 0.960 . S
C510 H523 0.962 . S
C510 H524 0.960 . S
C511 C508 1.511 . S
C511 H525 0.961 . S
C511 H526 0.961 . S
C511 H527 0.961 . S
C512 C513 1.370 . S
C512 C514 1.363 . S
C512 H528 0.931 . S
C513 C512 1.370 . S
C513 C517 1.408 . S
C514 C512 1.363 . S
C514 C515 1.370 . S
C514 C518 1.524 . S
C515 C507 1.503 . S
C515 C514 1.370 . S
C515 C516 1.403 . S
C516 C515 1.403 . S
C516 C517 1.404 . S
C516 C519 1.539 . S
C517 C513 1.408 . S
C517 C516 1.404 . S
C517 H529 0.930 . S
C518 C514 1.524 . S
C518 H530 0.956 . S
C518 H531 0.961 . S
C518 H532 0.961 . S
C519 C516 1.539 . S
C519 H533 0.958 . S
C519 H534 0.961 . S
C519 H535 0.960 . S
H520 C504 0.931 . S
H521 C509 0.929 . S
H522 C510 0.960 . S
H523 C510 0.962 . S
H524 C510 0.960 . S
H525 C511 0.961 . S
H526 C511 0.961 . S
H527 C511 0.961 . S
H528 C512 0.931 . S
H529 C517 0.930 . S
H530 C518 0.956 . S
H531 C518 0.961 . S
H532 C518 0.961 . S
H533 C519 0.958 . S
H534 C519 0.961 . S
H535 C519 0.960 . S
C536 C537 1.391 . S
C536 C538 1.394 . S
C536 H552 0.931 . S
C537 C536 1.391 . S
C537 C541 1.376 . S
C538 C536 1.394 . S
C538 C539 1.369 . S
C538 C542 1.531 . S
C539 C538 1.369 . S
C539 C540 1.410 . S
C539 C547 1.503 . S
C540 C539 1.410 . S
C540 C541 1.392 . S
C540 C543 1.511 . S
C541 C537 1.376 . S
C541 C540 1.392 . S
C541 H553 0.929 . S
C542 C538 1.531 . S
C542 H554 0.960 . S
C542 H555 0.962 . S
C542 H556 0.960 . S
C543 C540 1.511 . S
C543 H557 0.961 . S
C543 H558 0.961 . S
C543 H559 0.961 . S
C544 C545 1.370 . S
C544 C546 1.363 . S
C544 H560 0.931 . S
C545 C544 1.370 . S
C545 C549 1.408 . S
C546 C544 1.363 . S
C546 C547 1.370 . S
C546 C550 1.524 . S
C547 C539 1.503 . S
C547 C546 1.370 . S
C547 C548 1.403 . S
C548 C547 1.403 . S
C548 C549 1.404 . S
C548 C551 1.539 . S
C549 C545 1.408 . S
C549 C548 1.404 . S
C549 H561 0.930 . S
C550 C546 1.524 . S
C550 H562 0.956 . S
C550 H563 0.961 . S
C550 H564 0.961 . S
C551 C548 1.539 . S
C551 H565 0.958 . S
C551 H566 0.961 . S
C551 H567 0.960 . S
H552 C536 0.931 . S
H553 C541 0.929 . S
H554 C542 0.960 . S
H555 C542 0.962 . S
H556 C542 0.960 . S
H557 C543 0.961 . S
H558 C543 0.961 . S
H559 C543 0.961 . S
H560 C544 0.931 . S
H561 C549 0.930 . S
H562 C550 0.956 . S
H563 C550 0.961 . S
H564 C550 0.961 . S
H565 C551 0.958 . S
H566 C551 0.961 . S
H567 C551 0.960 . S
C568 C569 1.391 1_655 S
C568 C570 1.394 . S
C568 H584 0.931 . S
C569 C568 1.391 1_455 S
C569 C573 1.376 . S
C570 C568 1.394 . S
C570 C571 1.369 1_655 S
C570 C574 1.531 . S
C571 C570 1.369 1_455 S
C571 C572 1.410 . S
C571 C579 1.503 . S
C572 C571 1.410 . S
C572 C573 1.392 . S
C572 C575 1.511 . S
C573 C569 1.376 . S
C573 C572 1.392 . S
C573 H585 0.929 . S
C574 C570 1.531 . S
C574 H586 0.960 . S
C574 H587 0.962 . S
C574 H588 0.960 . S
C575 C572 1.511 . S
C575 H589 0.961 . S
C575 H590 0.961 . S
C575 H591 0.961 . S
C576 C577 1.370 1_655 S
C576 C578 1.363 . S
C576 H592 0.931 . S
C577 C576 1.370 1_455 S
C577 C581 1.408 . S
C578 C576 1.363 . S
C578 C579 1.370 1_655 S
C578 C582 1.524 . S
C579 C571 1.503 . S
C579 C578 1.370 1_455 S
C579 C580 1.403 . S
C580 C579 1.403 . S
C580 C581 1.404 . S
C580 C583 1.539 . S
C581 C577 1.408 . S
C581 C580 1.404 . S
C581 H593 0.930 . S
C582 C578 1.524 . S
C582 H594 0.956 . S
C582 H595 0.961 . S
C582 H596 0.961 . S
C583 C580 1.539 . S
C583 H597 0.958 . S
C583 H598 0.961 . S
C583 H599 0.960 . S
H584 C568 0.931 . S
H585 C573 0.929 . S
H586 C574 0.960 . S
H587 C574 0.962 . S
H588 C574 0.960 . S
H589 C575 0.961 . S
H590 C575 0.961 . S
H591 C575 0.961 . S
H592 C576 0.931 . S
H593 C581 0.930 . S
H594 C582 0.956 . S
H595 C582 0.961 . S
H596 C582 0.961 . S
H597 C583 0.958 . S
H598 C583 0.961 . S
H599 C583 0.960 . S
C600 C601 1.391 . S
C600 C602 1.394 . S
C600 H616 0.931 . S
C601 C600 1.391 . S
C601 C605 1.376 1_545 S
C602 C600 1.394 . S
C602 C603 1.369 . S
C602 C606 1.531 . S
C603 C602 1.369 . S
C603 C604 1.410 1_545 S
C603 C611 1.503 . S
C604 C603 1.410 1_565 S
C604 C605 1.392 . S
C604 C607 1.511 . S
C605 C601 1.376 1_565 S
C605 C604 1.392 . S
C605 H617 0.929 . S
C606 C602 1.531 . S
C606 H618 0.960 1_554 S
C606 H619 0.962 . S
C606 H620 0.960 . S
C607 C604 1.511 . S
C607 H621 0.961 . S
C607 H622 0.961 . S
C607 H623 0.961 . S
C608 C609 1.354 1_565 S
C608 C610 1.363 . S
C608 H624 0.931 . S
C609 C608 1.354 1_545 S
C609 C613 1.427 . S
C610 C608 1.363 . S
C610 C611 1.370 1_566 S
C610 C614 1.524 . S
C611 C603 1.503 . S
C611 C610 1.370 1_544 S
C611 C612 1.403 1_554 S
C612 C611 1.403 1_556 S
C612 C613 1.404 . S
C612 C615 1.539 1_556 S
C613 C609 1.427 . S
C613 C612 1.404 . S
C613 H625 0.930 . S
C614 C610 1.524 . S
C614 H626 0.956 . S
C614 H627 0.961 1_556 S
C614 H628 0.961 . S
C615 C612 1.539 1_554 S
C615 H629 0.958 . S
C615 H630 0.961 . S
C615 H631 0.960 . S
H616 C600 0.931 . S
H617 C605 0.929 . S
H618 C606 0.960 1_556 S
H619 C606 0.962 . S
H620 C606 0.960 . S
H621 C607 0.961 . S
H622 C607 0.961 . S
H623 C607 0.961 . S
H624 C608 0.931 . S
H625 C613 0.930 . S
H626 C614 0.956 . S
H627 C614 0.961 1_554 S
H628 C614 0.961 . S
H629 C615 0.958 . S
H630 C615 0.961 . S
H631 C615 0.960 . S
C632 C633 1.391 . S
C632 C634 1.394 . S
C632 H648 0.931 . S
C633 C632 1.391 . S
C633 C637 1.376 . S
C634 C632 1.394 . S
C634 C635 1.369 . S
C634 C638 1.531 . S
C635 C634 1.369 . S
C635 C636 1.410 . S
C635 C643 1.503 . S
C636 C635 1.410 . S
C636 C637 1.392 . S
C636 C639 1.511 . S
C637 C633 1.376 . S
C637 C636 1.392 . S
C637 H649 0.929 . S
C638 C634 1.531 . S
C638 H650 0.960 . S
C638 H651 0.962 . S
C638 H652 0.960 . S
C639 C636 1.511 . S
C639 H653 0.961 . S
C639 H654 0.964 . S
C639 H655 0.961 . S
C640 C641 1.370 . S
C640 C642 1.363 . S
C640 H656 0.931 . S
C641 C640 1.370 . S
C641 C645 1.408 . S
C642 C640 1.363 . S
C642 C643 1.370 1_556 S
C642 C646 1.524 1_556 S
C643 C635 1.503 . S
C643 C642 1.370 1_554 S
C643 C644 1.403 1_554 S
C644 C643 1.403 1_556 S
C644 C645 1.404 . S
C644 C647 1.539 . S
C645 C641 1.408 . S
C645 C644 1.404 . S
C645 H657 0.930 . S
C646 C642 1.524 1_554 S
C646 H658 0.956 . S
C646 H659 0.961 . S
C646 H660 0.961 . S
C647 C644 1.539 . S
C647 H661 0.958 . S
C647 H662 0.961 . S
C647 H663 0.960 . S
H648 C632 0.931 . S
H649 C637 0.929 . S
H650 C638 0.960 . S
H651 C638 0.962 . S
H652 C638 0.960 . S
H653 C639 0.961 . S
H654 C639 0.964 . S
H655 C639 0.961 . S
H656 C640 0.931 . S
H657 C645 0.930 . S
H658 C646 0.956 . S
H659 C646 0.961 . S
H660 C646 0.961 . S
H661 C647 0.958 . S
H662 C647 0.961 . S
H663 C647 0.960 . S
C664 C665 1.391 . S
C664 C666 1.394 . S
C664 H680 0.931 . S
C665 C664 1.391 . S
C665 C669 1.376 . S
C666 C664 1.394 . S
C666 C667 1.369 . S
C666 C670 1.531 . S
C667 C666 1.369 . S
C667 C668 1.410 . S
C667 C675 1.503 . S
C668 C667 1.410 . S
C668 C669 1.392 . S
C668 C671 1.511 . S
C669 C665 1.376 . S
C669 C668 1.392 . S
C669 H681 0.929 . S
C670 C666 1.531 . S
C670 H682 0.960 . S
C670 H683 0.962 . S
C670 H684 0.960 . S
C671 C668 1.511 . S
C671 H685 0.961 . S
C671 H686 0.961 1_554 S
C671 H687 0.961 . S
C672 C673 1.370 . S
C672 C674 1.363 . S
C672 H688 0.931 . S
C673 C672 1.370 . S
C673 C677 1.408 . S
C674 C672 1.363 . S
C674 C675 1.370 1_556 S
C674 C678 1.524 1_556 S
C675 C667 1.503 . S
C675 C674 1.370 1_554 S
C675 C676 1.403 1_554 S
C676 C675 1.403 1_556 S
C676 C677 1.404 . S
C676 C679 1.539 . S
C677 C673 1.408 . S
C677 C676 1.404 . S
C677 H689 0.930 . S
C678 C674 1.524 1_554 S
C678 H690 0.956 . S
C678 H691 0.961 . S
C678 H692 0.961 . S
C679 C676 1.539 . S
C679 H693 0.958 1_556 S
C679 H694 0.961 . S
C679 H695 0.960 1_556 S
H680 C664 0.931 . S
H681 C669 0.929 . S
H682 C670 0.960 . S
H683 C670 0.962 . S
H684 C670 0.960 . S
H685 C671 0.961 . S
H686 C671 0.961 1_556 S
H687 C671 0.961 . S
H688 C672 0.931 . S
H689 C677 0.930 . S
H690 C678 0.956 . S
H691 C678 0.961 . S
H692 C678 0.961 . S
H693 C679 0.958 1_554 S
H694 C679 0.961 . S
H695 C679 0.960 1_554 S
C696 C697 1.358 1_655 S
C696 C698 1.394 . S
C696 H712 0.931 . S
C697 C696 1.358 1_455 S
C697 C701 1.412 . S
C698 C696 1.394 . S
C698 C699 1.369 1_655 S
C698 C702 1.531 . S
C699 C698 1.369 1_455 S
C699 C700 1.410 . S
C699 C707 1.501 1_554 S
C700 C699 1.410 . S
C700 C701 1.392 . S
C700 C703 1.511 . S
C701 C697 1.412 . S
C701 C700 1.392 . S
C701 H713 0.929 . S
C702 C698 1.531 . S
C702 H714 0.960 1_554 S
C702 H715 0.962 . S
C702 H716 0.960 . S
C703 C700 1.511 . S
C703 H717 0.961 . S
C703 H718 0.961 . S
C703 H719 0.961 . S
C704 C705 1.382 . S
C704 C706 1.363 . S
C704 H720 0.931 . S
C705 C704 1.382 . S
C705 C709 1.396 1_655 S
C706 C704 1.363 . S
C706 C707 1.371 1_655 S
C706 C710 1.524 1_556 S
C707 C699 1.501 1_556 S
C707 C706 1.371 1_455 S
C707 C708 1.405 . S
C708 C707 1.405 . S
C708 C709 1.404 . S
C708 C711 1.539 . S
C709 C705 1.396 1_455 S
C709 C708 1.404 . S
C709 H721 0.930 . S
C710 C706 1.524 1_554 S
C710 H722 0.956 . S
C710 H723 0.961 . S
C710 H724 0.961 . S
C711 C708 1.539 . S
C711 H725 0.958 . S
C711 H726 0.961 . S
C711 H727 0.960 . S
H712 C696 0.931 . S
H713 C701 0.929 . S
H714 C702 0.960 1_556 S
H715 C702 0.962 . S
H716 C702 0.960 . S
H717 C703 0.961 . S
H718 C703 0.961 . S
H719 C703 0.961 . S
H720 C704 0.931 . S
H721 C709 0.930 . S
H722 C710 0.956 . S
H723 C710 0.961 . S
H724 C710 0.961 . S
H725 C711 0.958 . S
H726 C711 0.961 . S
H727 C711 0.960 . S
C728 C729 1.387 1_655 S
C728 C730 1.394 . S
C728 H744 0.927 1_655 S
C729 C728 1.387 1_455 S
C729 C733 1.369 1_455 S
C730 C728 1.394 . S
C730 C731 1.369 . S
C730 C734 1.531 . S
C731 C730 1.369 . S
C731 C732 1.410 . S
C731 C739 1.503 . S
C732 C731 1.410 . S
C732 C733 1.392 . S
C732 C735 1.511 . S
C733 C729 1.369 1_655 S
C733 C732 1.392 . S
C733 H745 0.929 . S
C734 C730 1.531 . S
C734 H746 0.960 . S
C734 H747 0.962 . S
C734 H748 0.960 . S
C735 C732 1.511 . S
C735 H749 0.961 . S
C735 H750 0.961 . S
C735 H751 0.961 . S
C736 C737 1.370 . S
C736 C738 1.363 . S
C736 H752 0.931 . S
C737 C736 1.370 . S
C737 C741 1.408 . S
C738 C736 1.363 . S
C738 C739 1.370 . S
C738 C742 1.524 1_655 S
C739 C731 1.503 . S
C739 C738 1.370 . S
C739 C740 1.403 . S
C740 C739 1.403 . S
C740 C741 1.404 . S
C740 C743 1.539 . S
C741 C737 1.408 . S
C741 C740 1.404 . S
C741 H753 0.930 . S
C742 C738 1.524 1_455 S
C742 H754 0.956 . S
C742 H755 0.961 . S
C742 H756 0.961 . S
C743 C740 1.539 . S
C743 H757 0.958 . S
C743 H758 0.961 . S
C743 H759 0.960 . S
H744 C728 0.927 1_455 S
H745 C733 0.929 . S
H746 C734 0.960 . S
H747 C734 0.962 . S
H748 C734 0.960 . S
H749 C735 0.961 . S
H750 C735 0.961 . S
H751 C735 0.961 . S
H752 C736 0.931 . S
H753 C741 0.930 . S
H754 C742 0.956 . S
H755 C742 0.961 . S
H756 C742 0.961 . S
H757 C743 0.958 . S
H758 C743 0.961 . S
H759 C743 0.960 . S
C760 C761 1.391 . S
C760 C762 1.394 . S
C760 H776 0.931 . S
C761 C760 1.391 . S
C761 C765 1.376 1_545 S
C762 C760 1.394 . S
C762 C763 1.369 1_545 S
C762 C766 1.531 . S
C763 C762 1.369 1_565 S
C763 C764 1.410 . S
C763 C771 1.503 . S
C764 C763 1.410 . S
C764 C765 1.392 . S
C764 C767 1.511 . S
C765 C761 1.376 1_565 S
C765 C764 1.392 . S
C765 H777 0.929 . S
C766 C762 1.531 . S
C766 H778 0.960 . S
C766 H779 0.962 1_545 S
C766 H780 0.960 . S
C767 C764 1.511 . S
C767 H781 0.961 . S
C767 H782 0.961 . S
C767 H783 0.961 . S
C768 C769 1.370 . S
C768 C770 1.363 . S
C768 H784 0.931 . S
C769 C768 1.370 . S
C769 C773 1.408 . S
C770 C768 1.363 . S
C770 C771 1.370 . S
C770 C774 1.524 . S
C771 C763 1.503 . S
C771 C770 1.370 . S
C771 C772 1.418 . S
C772 C771 1.418 . S
C772 C773 1.412 . S
C772 C775 1.516 1_565 S
C773 C769 1.408 . S
C773 C772 1.412 . S
C773 H785 0.908 1_565 S
C774 C770 1.524 . S
C774 H786 0.956 . S
C774 H787 0.961 . S
C774 H788 0.961 . S
C775 C772 1.516 1_545 S
C775 H789 0.958 . S
C775 H790 0.961 . S
C775 H791 0.960 . S
H776 C760 0.931 . S
H777 C765 0.929 . S
H778 C766 0.960 . S
H779 C766 0.962 1_565 S
H780 C766 0.960 . S
H781 C767 0.961 . S
H782 C767 0.961 . S
H783 C767 0.961 . S
H784 C768 0.931 . S
H785 C773 0.908 1_545 S
H786 C774 0.956 . S
H787 C774 0.961 . S
H788 C774 0.961 . S
H789 C775 0.958 . S
H790 C775 0.961 . S
H791 C775 0.960 . S
C792 C793 1.391 . S
C792 C794 1.394 . S
C792 H808 0.931 . S
C793 C792 1.391 . S
C793 C797 1.376 . S
C794 C792 1.394 . S
C794 C795 1.369 . S
C794 C798 1.531 . S
C795 C794 1.369 . S
C795 C796 1.410 . S
C795 C803 1.503 . S
C796 C795 1.410 . S
C796 C797 1.392 . S
C796 C799 1.511 . S
C797 C793 1.376 . S
C797 C796 1.392 . S
C797 H809 0.929 . S
C798 C794 1.531 . S
C798 H810 0.960 . S
C798 H811 0.962 . S
C798 H812 0.960 . S
C799 C796 1.511 . S
C799 H813 0.961 . S
C799 H814 0.961 . S
C799 H815 0.961 . S
C800 C801 1.370 . S
C800 C802 1.363 . S
C800 H816 0.931 . S
C801 C800 1.370 . S
C801 C805 1.408 . S
C802 C800 1.363 . S
C802 C803 1.370 . S
C802 C806 1.524 . S
C803 C795 1.503 . S
C803 C802 1.370 . S
C803 C804 1.403 . S
C804 C803 1.403 . S
C804 C805 1.404 . S
C804 C807 1.539 . S
C805 C801 1.408 . S
C805 C804 1.404 . S
C805 H817 0.930 . S
C806 C802 1.524 . S
C806 H818 0.956 . S
C806 H819 0.961 . S
C806 H820 0.961 . S
C807 C804 1.539 . S
C807 H821 0.958 . S
C807 H822 0.961 . S
C807 H823 0.960 . S
H808 C792 0.931 . S
H809 C797 0.929 . S
H810 C798 0.960 . S
H811 C798 0.962 . S
H812 C798 0.960 . S
H813 C799 0.961 . S
H814 C799 0.961 . S
H815 C799 0.961 . S
H816 C800 0.931 . S
H817 C805 0.930 . S
H818 C806 0.956 . S
H819 C806 0.961 . S
H820 C806 0.961 . S
H821 C807 0.958 . S
H822 C807 0.961 . S
H823 C807 0.960 . S
C824 C825 1.391 . S
C824 C826 1.394 . S
C824 H840 0.931 . S
C825 C824 1.391 . S
C825 C829 1.376 . S
C826 C824 1.394 . S
C826 C827 1.369 . S
C826 C830 1.531 . S
C827 C826 1.369 . S
C827 C828 1.410 . S
C827 C835 1.503 . S
C828 C827 1.410 . S
C828 C829 1.392 . S
C828 C831 1.511 . S
C829 C825 1.376 . S
C829 C828 1.392 . S
C829 H841 0.929 . S
C830 C826 1.531 . S
C830 H842 0.960 . S
C830 H843 0.962 . S
C830 H844 0.960 . S
C831 C828 1.511 . S
C831 H845 0.961 . S
C831 H846 0.961 . S
C831 H847 0.961 . S
C832 C833 1.370 . S
C832 C834 1.363 . S
C832 H848 0.931 . S
C833 C832 1.370 . S
C833 C837 1.408 . S
C834 C832 1.363 . S
C834 C835 1.370 . S
C834 C838 1.524 . S
C835 C827 1.503 . S
C835 C834 1.370 . S
C835 C836 1.403 . S
C836 C835 1.403 . S
C836 C837 1.404 . S
C836 C839 1.539 . S
C837 C833 1.408 . S
C837 C836 1.404 . S
C837 H849 0.930 . S
C838 C834 1.524 . S
C838 H850 0.956 . S
C838 H851 0.961 . S
C838 H852 0.961 . S
C839 C836 1.539 . S
C839 H853 0.958 . S
C839 H854 0.961 . S
C839 H855 0.960 . S
H840 C824 0.931 . S
H841 C829 0.929 . S
H842 C830 0.960 . S
H843 C830 0.962 . S
H844 C830 0.960 . S
H845 C831 0.961 . S
H846 C831 0.961 . S
H847 C831 0.961 . S
H848 C832 0.931 . S
H849 C837 0.930 . S
H850 C838 0.956 . S
H851 C838 0.961 . S
H852 C838 0.961 . S
H853 C839 0.958 . S
H854 C839 0.961 . S
H855 C839 0.960 . S
C856 C857 1.391 1_455 S
C856 C858 1.394 . S
C856 H872 0.931 . S
C857 C856 1.391 1_655 S
C857 C861 1.376 . S
C858 C856 1.394 . S
C858 C859 1.369 . S
C858 C862 1.531 . S
C859 C858 1.369 . S
C859 C860 1.410 1_455 S
C859 C867 1.503 . S
C860 C859 1.410 1_655 S
C860 C861 1.392 . S
C860 C863 1.511 . S
C861 C857 1.376 . S
C861 C860 1.392 . S
C861 H873 0.929 . S
C862 C858 1.531 . S
C862 H874 0.960 1_554 S
C862 H875 0.962 . S
C862 H876 0.960 . S
C863 C860 1.511 . S
C863 H877 0.961 . S
C863 H878 0.961 . S
C863 H879 0.961 . S
C864 C865 1.370 1_554 S
C864 C866 1.363 . S
C864 H880 0.931 . S
C865 C864 1.370 1_556 S
C865 C869 1.408 . S
C866 C864 1.363 . S
C866 C867 1.370 . S
C866 C870 1.524 . S
C867 C859 1.503 . S
C867 C866 1.370 . S
C867 C868 1.403 1_554 S
C868 C867 1.403 1_556 S
C868 C869 1.404 . S
C868 C871 1.539 . S
C869 C865 1.408 . S
C869 C868 1.404 . S
C869 H881 0.930 . S
C870 C866 1.524 . S
C870 H882 0.956 . S
C870 H883 0.961 . S
C870 H884 0.961 . S
C871 C868 1.539 . S
C871 H885 0.958 . S
C871 H886 0.961 1_455 S
C871 H887 0.960 1_455 S
H872 C856 0.931 . S
H873 C861 0.929 . S
H874 C862 0.960 1_556 S
H875 C862 0.962 . S
H876 C862 0.960 . S
H877 C863 0.961 . S
H878 C863 0.961 . S
H879 C863 0.961 . S
H880 C864 0.931 . S
H881 C869 0.930 . S
H882 C870 0.956 . S
H883 C870 0.961 . S
H884 C870 0.961 . S
H885 C871 0.958 . S
H886 C871 0.961 1_655 S
H887 C871 0.960 1_655 S
C888 C889 1.391 . S
C888 C890 1.394 . S
C888 H904 0.931 . S
C889 C888 1.391 . S
C889 C893 1.376 1_565 S
C890 C888 1.394 . S
C890 C891 1.369 1_565 S
C890 C894 1.531 1_554 S
C891 C890 1.369 1_545 S
C891 C892 1.410 . S
C891 C899 1.503 . S
C892 C891 1.410 . S
C892 C893 1.392 . S
C892 C895 1.511 . S
C893 C889 1.376 1_545 S
C893 C892 1.392 . S
C893 H905 0.929 . S
C894 C890 1.531 1_556 S
C894 H906 0.960 . S
C894 H907 0.962 . S
C894 H908 0.960 . S
C895 C892 1.511 . S
C895 H909 0.961 . S
C895 H910 0.961 . S
C895 H911 0.961 . S
C896 C897 1.370 . S
C896 C898 1.363 . S
C896 H912 0.931 . S
C897 C896 1.370 . S
C897 C901 1.408 1_556 S
C898 C896 1.363 . S
C898 C899 1.370 1_556 S
C898 C902 1.524 . S
C899 C891 1.503 . S
C899 C898 1.370 1_554 S
C899 C900 1.403 . S
C900 C899 1.403 . S
C900 C901 1.404 . S
C900 C903 1.539 1_545 S
C901 C897 1.408 1_554 S
C901 C900 1.404 . S
C901 H913 0.930 . S
C902 C898 1.524 . S
C902 H914 0.956 . S
C902 H915 0.961 . S
C902 H916 0.961 . S
C903 C900 1.539 1_565 S
C903 H917 0.958 . S
C903 H918 0.961 . S
C903 H919 0.960 . S
H904 C888 0.931 . S
H905 C893 0.929 . S
H906 C894 0.960 . S
H907 C894 0.962 . S
H908 C894 0.960 . S
H909 C895 0.961 . S
H910 C895 0.961 . S
H911 C895 0.961 . S
H912 C896 0.931 . S
H913 C901 0.930 . S
H914 C902 0.956 . S
H915 C902 0.961 . S
H916 C902 0.961 . S
H917 C903 0.958 . S
H918 C903 0.961 . S
H919 C903 0.960 . S
C920 C921 1.391 . S
C920 C922 1.394 . S
C920 H936 0.931 . S
C921 C920 1.391 . S
C921 C925 1.376 . S
C922 C920 1.394 . S
C922 C923 1.369 . S
C922 C926 1.531 1_554 S
C923 C922 1.369 . S
C923 C924 1.410 . S
C923 C931 1.503 . S
C924 C923 1.410 . S
C924 C925 1.392 . S
C924 C927 1.511 . S
C925 C921 1.376 . S
C925 C924 1.392 . S
C925 H937 0.929 . S
C926 C922 1.531 1_556 S
C926 H938 0.960 . S
C926 H939 0.962 . S
C926 H940 0.960 . S
C927 C924 1.511 . S
C927 H941 0.961 . S
C927 H942 0.961 . S
C927 H943 0.961 . S
C928 C929 1.370 1_554 S
C928 C930 1.363 . S
C928 H944 0.931 . S
C929 C928 1.370 1_556 S
C929 C933 1.408 . S
C930 C928 1.363 . S
C930 C931 1.370 . S
C930 C934 1.524 . S
C931 C923 1.503 . S
C931 C930 1.370 . S
C931 C932 1.403 1_554 S
C932 C931 1.403 1_556 S
C932 C933 1.404 . S
C932 C935 1.539 . S
C933 C929 1.408 . S
C933 C932 1.404 . S
C933 H945 0.930 . S
C934 C930 1.524 . S
C934 H946 0.956 . S
C934 H947 0.961 . S
C934 H948 0.961 . S
C935 C932 1.539 . S
C935 H949 0.958 . S
C935 H950 0.961 . S
C935 H951 0.960 . S
H936 C920 0.931 . S
H937 C925 0.929 . S
H938 C926 0.960 . S
H939 C926 0.962 . S
H940 C926 0.960 . S
H941 C927 0.961 . S
H942 C927 0.961 . S
H943 C927 0.961 . S
H944 C928 0.931 . S
H945 C933 0.930 . S
H946 C934 0.956 . S
H947 C934 0.961 . S
H948 C934 0.961 . S
H949 C935 0.958 . S
H950 C935 0.961 . S
H951 C935 0.960 . S
C952 C953 1.391 . S
C952 C954 1.394 . S
C952 H968 0.931 . S
C953 C952 1.391 . S
C953 C957 1.376 . S
C954 C952 1.394 . S
C954 C955 1.369 . S
C954 C958 1.531 1_554 S
C955 C954 1.369 . S
C955 C956 1.410 . S
C955 C963 1.503 . S
C956 C955 1.410 . S
C956 C957 1.392 . S
C956 C959 1.511 . S
C957 C953 1.376 . S
C957 C956 1.392 . S
C957 H969 0.929 . S
C958 C954 1.531 1_556 S
C958 H970 0.960 . S
C958 H971 0.962 . S
C958 H972 0.960 . S
C959 C956 1.511 . S
C959 H973 0.961 . S
C959 H974 0.961 . S
C959 H975 0.961 . S
C960 C961 1.370 1_554 S
C960 C962 1.363 . S
C960 H976 0.931 . S
C961 C960 1.370 1_556 S
C961 C965 1.408 . S
C962 C960 1.363 . S
C962 C963 1.370 . S
C962 C966 1.524 . S
C963 C955 1.503 . S
C963 C962 1.370 . S
C963 C964 1.403 1_554 S
C964 C963 1.403 1_556 S
C964 C965 1.404 . S
C964 C967 1.539 . S
C965 C961 1.408 . S
C965 C964 1.404 . S
C965 H977 0.930 . S
C966 C962 1.524 . S
C966 H978 0.956 . S
C966 H979 0.961 . S
C966 H980 0.961 . S
C967 C964 1.539 . S
C967 H981 0.958 . S
C967 H982 0.961 . S
C967 H983 0.960 . S
H968 C952 0.931 . S
H969 C957 0.929 . S
H970 C958 0.960 . S
H971 C958 0.962 . S
H972 C958 0.960 . S
H973 C959 0.961 . S
H974 C959 0.961 . S
H975 C959 0.961 . S
H976 C960 0.931 . S
H977 C965 0.930 . S
H978 C966 0.956 . S
H979 C966 0.961 . S
H980 C966 0.961 . S
H981 C967 0.958 . S
H982 C967 0.961 . S
H983 C967 0.960 . S
C984 C985 1.391 1_655 S
C984 C986 1.394 . S
C984 H1000 0.931 . S
C985 C984 1.391 1_455 S
C985 C989 1.376 . S
C986 C984 1.394 . S
C986 C987 1.369 1_655 S
C986 C990 1.531 . S
C987 C986 1.369 1_455 S
C987 C988 1.410 . S
C987 C995 1.503 . S
C988 C987 1.410 . S
C988 C989 1.392 . S
C988 C991 1.511 . S
C989 C985 1.376 . S
C989 C988 1.392 . S
C989 H1001 0.929 . S
C990 C986 1.531 . S
C990 H1002 0.960 . S
C990 H1003 0.962 . S
C990 H1004 0.960 . S
C991 C988 1.511 . S
C991 H1005 0.961 . S
C991 H1006 0.961 . S
C991 H1007 0.961 . S
C992 C993 1.356 1_655 S
C992 C994 1.364 . S
C992 H1008 0.945 . S
C993 C992 1.356 1_455 S
C993 C997 1.408 . S
C994 C992 1.364 . S
C994 C995 1.370 1_655 S
C994 C998 1.524 . S
C995 C987 1.503 . S
C995 C994 1.370 1_455 S
C995 C996 1.403 . S
C996 C995 1.403 . S
C996 C997 1.404 . S
C996 C999 1.539 . S
C997 C993 1.408 . S
C997 C996 1.404 . S
C997 H1009 0.930 . S
C998 C994 1.524 . S
C998 H1010 0.956 . S
C998 H1011 0.970 . S
C998 H1012 0.961 . S
C999 C996 1.539 . S
C999 H1013 0.958 . S
C999 H1014 0.961 . S
C999 H1015 0.960 . S
H1000 C984 0.931 . S
H1001 C989 0.929 . S
H1002 C990 0.960 . S
H1003 C990 0.962 . S
H1004 C990 0.960 . S
H1005 C991 0.961 . S
H1006 C991 0.961 . S
H1007 C991 0.961 . S
H1008 C992 0.945 . S
H1009 C997 0.930 . S
H1010 C998 0.956 . S
H1011 C998 0.970 . S
H1012 C998 0.961 . S
H1013 C999 0.958 . S
H1014 C999 0.961 . S
H1015 C999 0.960 . S
C1016 C1017 1.388 1_565 S
C1016 C1018 1.394 . S
C1016 H1032 0.931 . S
C1017 C1016 1.388 1_545 S
C1017 C1021 1.378 . S
C1018 C1016 1.394 . S
C1018 C1019 1.372 . S
C1018 C1022 1.531 . S
C1019 C1018 1.372 . S
C1019 C1020 1.407 1_565 S
C1019 C1027 1.501 1_565 S
C1020 C1019 1.407 1_545 S
C1020 C1021 1.392 . S
C1020 C1023 1.511 . S
C1021 C1017 1.378 . S
C1021 C1020 1.392 . S
C1021 H1033 0.929 . S
C1022 C1018 1.531 . S
C1022 H1034 0.960 . S
C1022 H1035 0.962 1_565 S
C1022 H1036 0.960 . S
C1023 C1020 1.511 . S
C1023 H1037 0.961 . S
C1023 H1038 0.961 . S
C1023 H1039 0.961 1_545 S
C1024 C1025 1.370 . S
C1024 C1026 1.363 . S
C1024 H1040 0.931 . S
C1025 C1024 1.370 . S
C1025 C1029 1.408 1_545 S
C1026 C1024 1.363 . S
C1026 C1027 1.370 . S
C1026 C1030 1.524 . S
C1027 C1019 1.501 1_545 S
C1027 C1026 1.370 . S
C1027 C1028 1.403 1_545 S
C1028 C1027 1.403 1_565 S
C1028 C1029 1.404 . S
C1028 C1031 1.539 . S
C1029 C1025 1.408 1_565 S
C1029 C1028 1.404 . S
C1029 H1041 0.930 . S
C1030 C1026 1.524 . S
C1030 H1042 0.956 . S
C1030 H1043 0.961 . S
C1030 H1044 0.961 . S
C1031 C1028 1.539 . S
C1031 H1045 0.958 . S
C1031 H1046 0.961 . S
C1031 H1047 0.960 . S
H1032 C1016 0.931 . S
H1033 C1021 0.929 . S
H1034 C1022 0.960 . S
H1035 C1022 0.962 1_545 S
H1036 C1022 0.960 . S
H1037 C1023 0.961 . S
H1038 C1023 0.961 . S
H1039 C1023 0.961 1_565 S
H1040 C1024 0.931 . S
H1041 C1029 0.930 . S
H1042 C1030 0.956 . S
H1043 C1030 0.961 . S
H1044 C1030 0.961 . S
H1045 C1031 0.958 . S
H1046 C1031 0.961 . S
H1047 C1031 0.960 . S
C1048 C1049 1.391 . S
C1048 C1050 1.394 . S
C1048 H1064 0.931 . S
C1049 C1048 1.391 . S
C1049 C1053 1.376 . S
C1050 C1048 1.394 . S
C1050 C1051 1.369 . S
C1050 C1054 1.531 . S
C1051 C1050 1.369 . S
C1051 C1052 1.410 . S
C1051 C1059 1.503 . S
C1052 C1051 1.410 . S
C1052 C1053 1.392 . S
C1052 C1055 1.511 . S
C1053 C1049 1.376 . S
C1053 C1052 1.392 . S
C1053 H1065 0.929 . S
C1054 C1050 1.531 . S
C1054 H1066 0.960 . S
C1054 H1067 0.962 . S
C1054 H1068 0.960 . S
C1055 C1052 1.511 . S
C1055 H1069 0.961 . S
C1055 H1070 0.961 . S
C1055 H1071 0.961 . S
C1056 C1057 1.370 . S
C1056 C1058 1.363 . S
C1056 H1072 0.931 . S
C1057 C1056 1.370 . S
C1057 C1061 1.408 . S
C1058 C1056 1.363 . S
C1058 C1059 1.370 . S
C1058 C1062 1.524 . S
C1059 C1051 1.503 . S
C1059 C1058 1.370 . S
C1059 C1060 1.403 . S
C1060 C1059 1.403 . S
C1060 C1061 1.404 . S
C1060 C1063 1.539 . S
C1061 C1057 1.408 . S
C1061 C1060 1.404 . S
C1061 H1073 0.930 . S
C1062 C1058 1.524 . S
C1062 H1074 0.956 . S
C1062 H1075 0.961 . S
C1062 H1076 0.961 . S
C1063 C1060 1.539 . S
C1063 H1077 0.958 . S
C1063 H1078 0.961 . S
C1063 H1079 0.960 . S
H1064 C1048 0.931 . S
H1065 C1053 0.929 . S
H1066 C1054 0.960 . S
H1067 C1054 0.962 . S
H1068 C1054 0.960 . S
H1069 C1055 0.961 . S
H1070 C1055 0.961 . S
H1071 C1055 0.961 . S
H1072 C1056 0.931 . S
H1073 C1061 0.930 . S
H1074 C1062 0.956 . S
H1075 C1062 0.961 . S
H1076 C1062 0.961 . S
H1077 C1063 0.958 . S
H1078 C1063 0.961 . S
H1079 C1063 0.960 . S
C1080 C1081 1.391 . S
C1080 C1082 1.394 . S
C1080 H1096 0.931 . S
C1081 C1080 1.391 . S
C1081 C1085 1.376 . S
C1082 C1080 1.394 . S
C1082 C1083 1.369 . S
C1082 C1086 1.531 . S
C1083 C1082 1.369 . S
C1083 C1084 1.410 . S
C1083 C1091 1.503 . S
C1084 C1083 1.410 . S
C1084 C1085 1.392 . S
C1084 C1087 1.511 . S
C1085 C1081 1.376 . S
C1085 C1084 1.392 . S
C1085 H1097 0.929 . S
C1086 C1082 1.531 . S
C1086 H1098 0.960 . S
C1086 H1099 0.962 . S
C1086 H1100 0.960 . S
C1087 C1084 1.511 . S
C1087 H1101 0.961 . S
C1087 H1102 0.961 . S
C1087 H1103 0.961 . S
C1088 C1089 1.370 . S
C1088 C1090 1.363 . S
C1088 H1104 0.931 . S
C1089 C1088 1.370 . S
C1089 C1093 1.408 . S
C1090 C1088 1.363 . S
C1090 C1091 1.370 . S
C1090 C1094 1.524 . S
C1091 C1083 1.503 . S
C1091 C1090 1.370 . S
C1091 C1092 1.403 . S
C1092 C1091 1.403 . S
C1092 C1093 1.404 . S
C1092 C1095 1.539 . S
C1093 C1089 1.408 . S
C1093 C1092 1.404 . S
C1093 H1105 0.930 . S
C1094 C1090 1.524 . S
C1094 H1106 0.956 . S
C1094 H1107 0.961 . S
C1094 H1108 0.961 . S
C1095 C1092 1.539 . S
C1095 H1109 0.958 . S
C1095 H1110 0.961 . S
C1095 H1111 0.960 . S
H1096 C1080 0.931 . S
H1097 C1085 0.929 . S
H1098 C1086 0.960 . S
H1099 C1086 0.962 . S
H1100 C1086 0.960 . S
H1101 C1087 0.961 . S
H1102 C1087 0.961 . S
H1103 C1087 0.961 . S
H1104 C1088 0.931 . S
H1105 C1093 0.930 . S
H1106 C1094 0.956 . S
H1107 C1094 0.961 . S
H1108 C1094 0.961 . S
H1109 C1095 0.958 . S
H1110 C1095 0.961 . S
H1111 C1095 0.960 . S
C1112 C1113 1.422 . S
C1112 C1114 1.394 . S
C1112 H1128 0.931 . S
C1113 C1112 1.422 . S
C1113 C1117 1.345 1_655 S
C1114 C1112 1.394 . S
C1114 C1115 1.369 . S
C1114 C1118 1.531 . S
C1115 C1114 1.369 . S
C1115 C1116 1.410 1_655 S
C1115 C1123 1.503 . S
C1116 C1115 1.410 1_455 S
C1116 C1117 1.392 . S
C1116 C1119 1.511 . S
C1117 C1113 1.345 1_455 S
C1117 C1116 1.392 . S
C1117 H1129 0.929 . S
C1118 C1114 1.531 . S
C1118 H1130 0.960 . S
C1118 H1131 0.962 . S
C1118 H1132 0.960 . S
C1119 C1116 1.511 . S
C1119 H1133 0.961 . S
C1119 H1134 0.961 . S
C1119 H1135 0.961 . S
C1120 C1121 1.370 . S
C1120 C1122 1.363 . S
C1120 H1136 0.931 . S
C1121 C1120 1.370 . S
C1121 C1125 1.408 1_655 S
C1122 C1120 1.363 . S
C1122 C1123 1.370 . S
C1122 C1126 1.524 . S
C1123 C1115 1.503 . S
C1123 C1122 1.370 . S
C1123 C1124 1.403 1_655 S
C1124 C1123 1.403 1_455 S
C1124 C1125 1.404 . S
C1124 C1127 1.539 . S
C1125 C1121 1.408 1_455 S
C1125 C1124 1.404 . S
C1125 H1137 0.930 . S
C1126 C1122 1.524 . S
C1126 H1138 0.956 . S
C1126 H1139 0.961 . S
C1126 H1140 0.961 . S
C1127 C1124 1.539 . S
C1127 H1141 0.958 . S
C1127 H1142 0.961 . S
C1127 H1143 0.960 . S
H1128 C1112 0.931 . S
H1129 C1117 0.929 . S
H1130 C1118 0.960 . S
H1131 C1118 0.962 . S
H1132 C1118 0.960 . S
H1133 C1119 0.961 . S
H1134 C1119 0.961 . S
H1135 C1119 0.961 . S
H1136 C1120 0.931 . S
H1137 C1125 0.930 . S
H1138 C1126 0.956 . S
H1139 C1126 0.961 . S
H1140 C1126 0.961 . S
H1141 C1127 0.958 . S
H1142 C1127 0.961 . S
H1143 C1127 0.960 . S
C1144 C1145 1.391 . S
C1144 C1146 1.394 . S
C1144 H1160 0.931 . S
C1145 C1144 1.391 . S
C1145 C1149 1.376 1_565 S
C1146 C1144 1.394 . S
C1146 C1147 1.369 . S
C1146 C1150 1.531 . S
C1147 C1146 1.369 . S
C1147 C1148 1.410 1_565 S
C1147 C1155 1.503 . S
C1148 C1147 1.410 1_545 S
C1148 C1149 1.392 . S
C1148 C1151 1.511 . S
C1149 C1145 1.376 1_545 S
C1149 C1148 1.392 . S
C1149 H1161 0.929 . S
C1150 C1146 1.531 . S
C1150 H1162 0.960 . S
C1150 H1163 0.962 . S
C1150 H1164 0.960 . S
C1151 C1148 1.511 . S
C1151 H1165 0.961 . S
C1151 H1166 0.961 . S
C1151 H1167 0.961 . S
C1152 C1153 1.370 1_545 S
C1152 C1154 1.363 . S
C1152 H1168 0.931 . S
C1153 C1152 1.370 1_565 S
C1153 C1157 1.408 . S
C1154 C1152 1.363 . S
C1154 C1155 1.370 1_545 S
C1154 C1158 1.524 . S
C1155 C1147 1.503 . S
C1155 C1154 1.370 1_565 S
C1155 C1156 1.403 . S
C1156 C1155 1.403 . S
C1156 C1157 1.404 . S
C1156 C1159 1.539 . S
C1157 C1153 1.408 . S
C1157 C1156 1.404 . S
C1157 H1169 0.930 . S
C1158 C1154 1.524 . S
C1158 H1170 0.956 . S
C1158 H1171 0.961 . S
C1158 H1172 0.961 . S
C1159 C1156 1.539 . S
C1159 H1173 0.958 . S
C1159 H1174 0.961 . S
C1159 H1175 0.960 . S
H1160 C1144 0.931 . S
H1161 C1149 0.929 . S
H1162 C1150 0.960 . S
H1163 C1150 0.962 . S
H1164 C1150 0.960 . S
H1165 C1151 0.961 . S
H1166 C1151 0.961 . S
H1167 C1151 0.961 . S
H1168 C1152 0.931 . S
H1169 C1157 0.930 . S
H1170 C1158 0.956 . S
H1171 C1158 0.961 . S
H1172 C1158 0.961 . S
H1173 C1159 0.958 . S
H1174 C1159 0.961 . S
H1175 C1159 0.960 . S
C1176 C1177 1.391 . S
C1176 C1178 1.394 . S
C1176 H1192 0.931 . S
C1177 C1176 1.391 . S
C1177 C1181 1.376 . S
C1178 C1176 1.394 . S
C1178 C1179 1.369 . S
C1178 C1182 1.531 . S
C1179 C1178 1.369 . S
C1179 C1180 1.410 . S
C1179 C1187 1.503 . S
C1180 C1179 1.410 . S
C1180 C1181 1.392 . S
C1180 C1183 1.511 . S
C1181 C1177 1.376 . S
C1181 C1180 1.392 . S
C1181 H1193 0.929 . S
C1182 C1178 1.531 . S
C1182 H1194 0.960 . S
C1182 H1195 0.962 . S
C1182 H1196 0.960 . S
C1183 C1180 1.511 . S
C1183 H1197 0.961 . S
C1183 H1198 0.961 . S
C1183 H1199 0.961 . S
C1184 C1185 1.370 . S
C1184 C1186 1.363 . S
C1184 H1200 0.931 . S
C1185 C1184 1.370 . S
C1185 C1189 1.408 . S
C1186 C1184 1.363 . S
C1186 C1187 1.370 . S
C1186 C1190 1.524 . S
C1187 C1179 1.503 . S
C1187 C1186 1.370 . S
C1187 C1188 1.403 . S
C1188 C1187 1.403 . S
C1188 C1189 1.404 . S
C1188 C1191 1.539 . S
C1189 C1185 1.408 . S
C1189 C1188 1.404 . S
C1189 H1201 0.930 . S
C1190 C1186 1.524 . S
C1190 H1202 0.956 . S
C1190 H1203 0.961 . S
C1190 H1204 0.961 . S
C1191 C1188 1.539 . S
C1191 H1205 0.958 . S
C1191 H1206 0.961 . S
C1191 H1207 0.960 . S
H1192 C1176 0.931 . S
H1193 C1181 0.929 . S
H1194 C1182 0.960 . S
H1195 C1182 0.962 . S
H1196 C1182 0.960 . S
H1197 C1183 0.961 . S
H1198 C1183 0.961 . S
H1199 C1183 0.961 . S
H1200 C1184 0.931 . S
H1201 C1189 0.930 . S
H1202 C1190 0.956 . S
H1203 C1190 0.961 . S
H1204 C1190 0.961 . S
H1205 C1191 0.958 . S
H1206 C1191 0.961 . S
H1207 C1191 0.960 . S
C1208 C1209 1.391 . S
C1208 C1210 1.394 . S
C1208 H1224 0.931 . S
C1209 C1208 1.391 . S
C1209 C1213 1.376 . S
C1210 C1208 1.394 . S
C1210 C1211 1.369 . S
C1210 C1214 1.531 . S
C1211 C1210 1.369 . S
C1211 C1212 1.410 . S
C1211 C1219 1.503 . S
C1212 C1211 1.410 . S
C1212 C1213 1.392 . S
C1212 C1215 1.511 . S
C1213 C1209 1.376 . S
C1213 C1212 1.392 . S
C1213 H1225 0.929 . S
C1214 C1210 1.531 . S
C1214 H1226 0.960 . S
C1214 H1227 0.962 . S
C1214 H1228 0.960 . S
C1215 C1212 1.511 . S
C1215 H1229 0.961 . S
C1215 H1230 0.961 . S
C1215 H1231 0.961 . S
C1216 C1217 1.370 . S
C1216 C1218 1.363 . S
C1216 H1232 0.931 . S
C1217 C1216 1.370 . S
C1217 C1221 1.408 . S
C1218 C1216 1.363 . S
C1218 C1219 1.370 . S
C1218 C1222 1.524 . S
C1219 C1211 1.503 . S
C1219 C1218 1.370 . S
C1219 C1220 1.403 . S
C1220 C1219 1.403 . S
C1220 C1221 1.404 . S
C1220 C1223 1.539 . S
C1221 C1217 1.408 . S
C1221 C1220 1.404 . S
C1221 H1233 0.930 . S
C1222 C1218 1.524 . S
C1222 H1234 0.956 . S
C1222 H1235 0.961 . S
C1222 H1236 0.961 . S
C1223 C1220 1.539 . S
C1223 H1237 0.958 . S
C1223 H1238 0.961 . S
C1223 H1239 0.960 . S
H1224 C1208 0.931 . S
H1225 C1213 0.929 . S
H1226 C1214 0.960 . S
H1227 C1214 0.962 . S
H1228 C1214 0.960 . S
H1229 C1215 0.961 . S
H1230 C1215 0.961 . S
H1231 C1215 0.961 . S
H1232 C1216 0.931 . S
H1233 C1221 0.930 . S
H1234 C1222 0.956 . S
H1235 C1222 0.961 . S
H1236 C1222 0.961 . S
H1237 C1223 0.958 . S
H1238 C1223 0.961 . S
H1239 C1223 0.960 . S
C473 C255 2.161 1_545 S
C481 C321 2.349 1_545 S
C513 C361 2.383 . S
C505 C294 2.127 . S
C545 C401 2.376 . S
C537 C177 2.189 . S
C577 C441 2.363 1_455 S
C569 C216 2.143 1_455 S
C609 C330 2.349 . S
C601 C99 2.175 1_545 S
C633 C138 2.129 . S
C641 C370 2.385 . S
C665 C21 2.161 . S
C673 C410 2.376 . S
C697 C60 2.139 1_455 S
C705 C450 2.360 1_655 S
C737 C327 0.449 . S
C729 C196 0.337 1_455 S
C769 C367 0.377 . S
C761 C235 0.489 1_545 S
C801 C407 0.383 . S
C793 C289 0.480 . S
C825 C157 0.314 . S
C833 C447 0.395 . S
C857 C40 0.482 . S
C865 C318 0.386 . S
C897 C358 0.395 . S
C889 C79 0.397 . S
C929 C398 0.364 . S
C921 C133 0.471 . S
C953 C1 0.465 . S
C961 C438 0.367 . S
C985 C211 2.868 . S
C993 C331 3.231 . S
C1017 C250 2.805 . S
C1025 C371 3.188 . S
C1057 C411 3.187 . S
C1049 C274 2.777 . S
C1089 C451 3.214 . S
C1081 C172 2.783 . S
C1113 C55 2.863 1_655 S
C1121 C322 3.238 . S
C1153 C362 3.194 . S
C1145 C94 2.820 1_565 S
C1185 C402 3.179 . S
C1177 C118 2.823 . S
C1209 C16 2.841 . S
C1217 C442 3.215 . S
