# Generated by pormake.
# Topology tsx, (6,3)-cn, num edge types: 1
# Building blocks:
#     Node 0, Type 0, BuildingBlock: MIDCAF_clean_sbu_0, # of connection points: 6
#     Node 1, Type 0, BuildingBlock: MIDCAF_clean_sbu_0, # of connection points: 6
#     Node 2, Type 1, BuildingBlock: MIDCAF_clean_linker_0, # of connection points: 3
#     Node 3, Type 1, BuildingBlock: MIDCAF_clean_linker_0, # of connection points: 3
#     Node 4, Type 1, BuildingBlock: MIDCAF_clean_linker_0, # of connection points: 3
#     Node 5, Type 1, BuildingBlock: MIDCAF_clean_linker_0, # of connection points: 3
#     Edge 6, Type (0, 1), BuildingBlock: TEMPAE_clean_linker_10, # of connection points: 2
#     Edge 7, Type (0, 1), BuildingBlock: TEMPAE_clean_linker_10, # of connection points: 2
#     Edge 8, Type (0, 1), BuildingBlock: TEMPAE_clean_linker_10, # of connection points: 2
#     Edge 9, Type (0, 1), BuildingBlock: TEMPAE_clean_linker_10, # of connection points: 2
#     Edge 10, Type (0, 1), BuildingBlock: TEMPAE_clean_linker_10, # of connection points: 2
#     Edge 11, Type (0, 1), BuildingBlock: TEMPAE_clean_linker_10, # of connection points: 2
#     Edge 12, Type (0, 1), BuildingBlock: TEMPAE_clean_linker_10, # of connection points: 2
#     Edge 13, Type (0, 1), BuildingBlock: TEMPAE_clean_linker_10, # of connection points: 2
#     Edge 14, Type (0, 1), BuildingBlock: TEMPAE_clean_linker_10, # of connection points: 2
#     Edge 15, Type (0, 1), BuildingBlock: TEMPAE_clean_linker_10, # of connection points: 2
#     Edge 16, Type (0, 1), BuildingBlock: TEMPAE_clean_linker_10, # of connection points: 2
#     Edge 17, Type (0, 1), BuildingBlock: TEMPAE_clean_linker_10, # of connection points: 2
# Relax obj value: 0.119
# Max RMSD: 0.182
# Mean RMSD: 0.113
data_MOF--net-tsx--node1-MIDCAF_clean_sbu_0--node2-MIDCAF_clean_linker_0--edge1-TEMPAE_clean_linker_10
_symmetry_space_group_name_H-M    P1
_symmetry_Int_Tables_number       1
_symmetry_cell_setting            triclinic
loop_
_symmetry_equiv_pos_as_xyz
'x, y, z'
_cell_length_a     23.858143
_cell_length_b     24.786092
_cell_length_c     47.399331
_cell_angle_alpha  90.455367
_cell_angle_beta   94.456253
_cell_angle_gamma 90.140379
loop_
_atom_site_label
_atom_site_type_symbol
_atom_site_fract_x
_atom_site_fract_y
_atom_site_fract_z
_atom_type_partial_charge
Zn0 Zn 0.94456 0.01651 0.98271 0.0
Zn1 Zn 0.14398 0.01597 0.03688 0.0
Zn2 Zn 0.0454 0.01789 0.00915 0.0
C3 C 0.1218 0.12364 0.0243 0.0
C4 C 0.1553 0.95426 0.98964 0.0
O5 O 0.98645 0.9697 0.03322 0.0
O6 O 0.90534 0.96807 0.00705 0.0
C7 C 0.9703 0.12398 -0.00462 0.0
O8 O 0.0738 0.10351 0.01516 0.0
O9 O 0.16058 0.09328 0.03437 0.0
O10 O 0.18349 0.96848 0.01205 0.0
O11 O 0.10401 0.97002 0.98462 0.0
O12 O 0.92973 0.09405 0.98659 0.0
O13 O 0.01853 0.10344 0.0033 0.0
O14 O 0.054 0.97928 0.96769 0.0
O15 O 0.96858 0.98735 0.94649 0.0
C16 C 0.01916 0.97279 0.94575 0.0
O17 O 0.03569 0.9797 0.05051 0.0
O18 O 0.12055 0.9859 0.07261 0.0
C19 C 0.93503 0.95353 0.02878 0.0
C20 C 0.06957 0.97213 0.07265 0.0
Zn21 Zn 0.62779 0.51208 0.53993 0.0
Zn22 Zn 0.43551 0.51403 0.47696 0.0
Zn23 Zn 0.53193 0.51677 0.50899 0.0
C24 C 0.51672 0.46679 0.44564 0.0
C25 C 0.46031 0.62256 0.49036 0.0
O26 O 0.51534 0.47819 0.54941 0.0
O27 O 0.59743 0.48338 0.57437 0.0
C28 C 0.6457 0.45317 0.49309 0.0
O29 O 0.54742 0.47774 0.46853 0.0
O30 O 0.46522 0.479 0.44343 0.0
O31 O 0.42279 0.59261 0.47821 0.0
O32 O 0.50573 0.60201 0.5022 0.0
O33 O 0.67054 0.46332 0.51696 0.0
O34 O 0.59573 0.4711 0.48654 0.0
O35 O 0.55914 0.60186 0.51657 0.0
O36 O 0.64445 0.58972 0.53737 0.0
C37 C 0.60677 0.62093 0.52691 0.0
O38 O 0.46829 0.46877 0.53019 0.0
O39 O 0.39125 0.46933 0.5009 0.0
C40 C 0.54606 0.47043 0.5726 0.0
C41 C 0.41691 0.45405 0.52367 0.0
C42 C 0.94626 0.20381 0.39345 0.0
C43 C 0.92922 0.20484 0.42115 0.0
C44 C 0.95506 0.16918 0.44123 0.0
C45 C 0.99506 0.13172 0.43333 0.0
H46 H 0.14893 0.00976 0.45448 0.0
H47 H 0.23289 0.96385 0.47548 0.0
H48 H 0.30332 0.96389 0.39418 0.0
H49 H 0.21877 0.00702 0.37321 0.0
H50 H 0.10244 0.93701 0.33039 0.0
H51 H 0.07858 0.90793 0.28144 0.0
H52 H 0.94742 0.02745 0.2732 0.0
H53 H 0.97027 0.05647 0.32187 0.0
H54 H 0.99594 0.16506 0.36372 0.0
H55 H 0.92876 0.23167 0.37766 0.0
H56 H 0.94278 0.16865 0.46274 0.0
H57 H 0.01265 0.10323 0.44878 0.0
N58 N 0.09119 0.06729 0.40949 0.0
N59 N 0.10572 0.00628 0.37239 0.0
N60 N 0.02677 0.06185 0.36947 0.0
C61 C 0.12299 0.02844 0.39796 0.0
C62 C 0.0572 0.02234 0.35819 0.0
C63 C 0.04315 0.08446 0.3949 0.0
C64 C 0.17702 0.01073 0.41216 0.0
C65 C 0.18297 0.00078 0.44135 0.0
C66 C 0.2312 0.9748 0.45336 0.0
C67 C 0.27442 0.95921 0.43637 0.0
C68 C 0.27025 0.97395 0.40771 0.0
C69 C 0.22186 -0.00124 0.39569 0.0
C70 C 0.03898 -0.00026 0.32994 0.0
C71 C 0.06784 0.95647 0.31834 0.0
C72 C 0.05388 0.93937 0.29047 0.0
C73 C 0.01124 0.96557 0.27378 0.0
C74 C 0.98039 0.00666 0.2858 0.0
C75 C 0.99384 0.02337 0.31364 0.0
C76 C 0.00907 0.1289 0.40518 0.0
C77 C 0.98523 0.16599 0.38552 0.0
C78 C 0.82747 0.95529 0.61197 0.0
C79 C 0.81934 0.94177 0.58308 0.0
C80 C 0.86266 0.95322 0.56543 0.0
C81 C 0.91453 0.97357 0.57691 0.0
H82 H 0.05441 0.10067 0.57356 0.0
H83 H 0.11836 0.17115 0.55913 0.0
H84 H 0.23942 0.12755 0.62747 0.0
H85 H 0.17685 0.05763 0.64181 0.0
H86 H 0.14072 0.00495 0.69316 0.0
H87 H 0.15823 0.98281 0.74297 0.0
H88 H 0.00907 0.88361 0.73838 0.0
H89 H 0.99037 0.90613 0.68834 0.0
H90 H 0.88512 0.98181 0.64605 0.0
H91 H 0.79459 0.94824 0.62604 0.0
H92 H 0.85793 0.94304 0.54311 0.0
H93 H 0.94828 0.97909 0.56317 0.0
N94 N 0.01803 0.02529 0.60713 0.0
N95 N 0.08424 0.01159 0.64562 0.0
N96 N 0.99625 0.97026 0.64507 0.0
C97 C 0.07002 0.03491 0.6203 0.0
C98 C 0.04807 0.97912 0.65812 0.0
C99 C 0.98098 0.99287 0.61959 0.0
C100 C 0.10999 0.07373 0.60903 0.0
C101 C 0.09492 0.10569 0.58527 0.0
C102 C 0.13147 0.146 0.57702 0.0
C103 C 0.18341 0.1552 0.5925 0.0
C104 C 0.19921 0.12201 0.61551 0.0
C105 C 0.16318 0.0817 0.6236 0.0
C106 C 0.06344 0.95814 0.68683 0.0
C107 C 0.11207 0.9775 0.70244 0.0
C108 C 0.12244 0.9647 0.73094 0.0
C109 C 0.08501 0.9316 0.74426 0.0
C110 C 0.03875 0.90882 0.72832 0.0
C111 C 0.02786 0.92217 0.69981 0.0
C112 C 0.92398 0.98202 0.60622 0.0
C113 C 0.87933 0.97458 0.62344 0.0
C114 C 0.43869 0.6799 0.89876 0.0
C115 C 0.40384 0.67034 0.92081 0.0
C116 C 0.41097 0.62223 0.93636 0.0
C117 C 0.45028 0.58366 0.92912 0.0
H118 H 0.63431 0.49303 0.9493 0.0
H119 H 0.72193 0.45243 0.96933 0.0
H120 H 0.76574 0.41116 0.88512 0.0
H121 H 0.67798 0.4497 0.86532 0.0
H122 H 0.56431 0.40696 0.82414 0.0
H123 H 0.53649 0.38431 0.77472 0.0
H124 H 0.40398 0.50245 0.77386 0.0
H125 H 0.43082 0.52507 0.82309 0.0
H126 H 0.50153 0.64823 0.87334 0.0
H127 H 0.43547 0.71697 0.88681 0.0
H128 H 0.38457 0.61327 0.9533 0.0
H129 H 0.45311 0.54577 0.94038 0.0
N130 N 0.56354 0.53048 0.90663 0.0
N131 N 0.57207 0.47139 0.86809 0.0
N132 N 0.4937 0.52746 0.86887 0.0
C133 C 0.59313 0.49204 0.89345 0.0
C134 C 0.52208 0.48857 0.8558 0.0
C135 C 0.51378 0.54822 0.89415 0.0
C136 C 0.64862 0.47344 0.90579 0.0
C137 C 0.66304 0.47579 0.93511 0.0
C138 C 0.71342 0.45291 0.94656 0.0
C139 C 0.75046 0.42784 0.92884 0.0
C140 C 0.73756 0.42897 0.89941 0.0
C141 C 0.68714 0.45104 0.88807 0.0
C142 C 0.50059 0.46861 0.82746 0.0
C143 C 0.52848 0.42733 0.81364 0.0
C144 C 0.51225 0.4139 0.78547 0.0
C145 C 0.46823 0.44178 0.77066 0.0
C146 C 0.43803 0.48043 0.78495 0.0
C147 C 0.45377 0.49349 0.81311 0.0
C148 C 0.48266 0.59251 0.90619 0.0
C149 C 0.47721 0.64109 0.89134 0.0
C150 C 0.32311 0.47288 0.10553 0.0
C151 C 0.31993 0.45518 0.07722 0.0
C152 C 0.36606 0.46472 0.06107 0.0
C153 C 0.41601 0.4872 0.07375 0.0
H154 H 0.6082 0.56304 0.07143 0.0
H155 H 0.68226 0.62478 0.0587 0.0
H156 H 0.6779 0.70482 0.14004 0.0
H157 H 0.60761 0.64075 0.1531 0.0
H158 H 0.63701 0.49631 0.19106 0.0
H159 H 0.65297 0.47049 0.2408 0.0
H160 H 0.47681 0.43303 0.24291 0.0
H161 H 0.46038 0.45794 0.19326 0.0
H162 H 0.37503 0.50472 0.14053 0.0
H163 H 0.28796 0.46721 0.11837 0.0
H164 H 0.36502 0.45131 0.03923 0.0
H165 H 0.45213 0.49104 0.0614 0.0
N166 N 0.51383 0.54509 0.1071 0.0
N167 N 0.57342 0.5353 0.14869 0.0
N168 N 0.48679 0.49085 0.14425 0.0
C169 C 0.56279 0.55713 0.12268 0.0
C170 C 0.53603 0.50156 0.15947 0.0
C171 C 0.47539 0.51214 0.11812 0.0
C172 C 0.60265 0.59724 0.1132 0.0
C173 C 0.62324 0.59412 0.08636 0.0
C174 C 0.66556 0.62965 0.07915 0.0
C175 C 0.68694 0.66976 0.09845 0.0
C176 C 0.66429 0.67361 0.12491 0.0
C177 C 0.62334 0.63734 0.13231 0.0
C178 C 0.54726 0.47984 0.18831 0.0
C179 C 0.60181 0.48171 0.20197 0.0
C180 C 0.61118 0.46653 0.23029 0.0
C181 C 0.56608 0.44985 0.24535 0.0
C182 C 0.51215 0.44559 0.23147 0.0
C183 C 0.50285 0.45999 0.20312 0.0
C184 C 0.42054 0.49976 0.10278 0.0
C185 C 0.37297 0.49438 0.11822 0.0
C186 C 0.18897 0.19676 0.0166 0.0
C187 C 0.13457 0.18172 0.02259 0.0
C188 C 0.20814 0.24972 0.02088 0.0
C189 C 0.17163 0.28902 0.03109 0.0
C190 C 0.11457 0.27546 0.03404 0.0
C191 C 0.09687 0.22143 0.03029 0.0
C192 C 0.26925 0.26198 0.01727 0.0
C193 C 0.07339 0.31683 0.04326 0.0
C194 C 0.25611 0.3773 0.08351 0.0
C195 C 0.27289 0.41928 0.06634 0.0
C196 C 0.21875 0.3372 0.07284 0.0
C197 C 0.19706 0.33905 0.04419 0.0
C198 C 0.20983 0.38381 0.02739 0.0
C199 C 0.24838 0.4231 0.03853 0.0
C200 C 0.20679 0.29017 0.09161 0.0
C201 C 0.18571 0.38859 -0.00285 0.0
H202 H 0.21789 0.16612 0.01019 0.0
H203 H 0.05493 0.20983 0.03517 0.0
H204 H 0.27317 0.29874 0.00441 0.0
H205 H 0.29175 0.26973 0.0383 0.0
H206 H 0.29058 0.22822 0.00691 0.0
H207 H 0.0294 0.305 0.03646 0.0
H208 H 0.07723 0.32026 0.06667 0.0
H209 H 0.08208 0.35713 0.0345 0.0
H210 H 0.2752 0.37358 0.10492 0.0
H211 H 0.26048 0.4559 0.02526 0.0
H212 H 0.22663 0.25315 0.08365 0.0
H213 H 0.16092 0.2826 0.09117 0.0
H214 H 0.22321 0.29701 0.11393 0.0
H215 H 0.2127 0.36619 0.98308 0.0
H216 H 0.18428 0.43137 0.99031 0.0
H217 H 0.1427 0.37121 0.99426 0.0
C218 C 0.15515 0.86876 0.96171 0.0
C219 C 0.1819 0.91695 0.97057 0.0
C220 C 0.18547 0.8274 0.94939 0.0
C221 C 0.24331 0.83522 0.94571 0.0
C222 C 0.26871 0.88591 0.95222 0.0
C223 C 0.23782 0.92595 0.96494 0.0
C224 C 0.15687 0.774 0.94263 0.0
C225 C 0.32973 0.89656 0.94775 0.0
C226 C 0.34791 0.72098 0.95501 0.0
C227 C 0.35955 0.70996 0.92702 0.0
C228 C 0.30794 0.7598 0.96119 0.0
C229 C 0.27945 0.78899 0.93887 0.0
C230 C 0.28963 0.77708 0.91051 0.0
C231 C 0.3293 0.73746 0.90491 0.0
C232 C 0.29775 0.77099 0.99175 0.0
C233 C 0.26039 0.80765 0.88619 0.0
H234 H 0.11183 0.86199 0.96621 0.0
H235 H 0.25813 0.96361 0.97165 0.0
H236 H 0.16843 0.75792 0.92197 0.0
H237 H 0.17101 0.7443 0.95906 0.0
H238 H 0.11036 0.77732 0.94208 0.0
H239 H 0.34074 0.94001 0.95023 0.0
H240 H 0.35684 0.87341 0.96339 0.0
H241 H 0.33955 0.88291 0.92634 0.0
H242 H 0.37125 0.7004 0.97224 0.0
H243 H 0.33692 0.72835 0.88315 0.0
H244 H 0.25205 0.76985 -0.00538 0.0
H245 H 0.31322 0.81202 -0.00215 0.0
H246 H 0.31933 0.74148 0.00636 0.0
H247 H 0.21458 0.81028 0.88852 0.0
H248 H 0.26698 0.78871 0.86539 0.0
H249 H 0.27689 0.84955 0.88623 0.0
C250 C 0.93446 0.86342 0.05114 0.0
C251 C 0.9106 0.91461 0.0475 0.0
C252 C 0.90412 0.8214 0.06265 0.0
C253 C 0.84962 0.83176 0.07134 0.0
C254 C 0.82805 0.88493 0.07021 0.0
C255 C 0.85834 0.92552 0.05768 0.0
C256 C 0.92823 0.76517 0.06304 0.0
C257 C 0.77126 0.89821 0.08041 0.0
C258 C 0.73424 0.72621 0.06327 0.0
C259 C 0.73195 0.70806 0.09113 0.0
C260 C 0.77429 0.76446 0.05642 0.0
C261 C 0.81205 0.7865 0.07805 0.0
C262 C 0.81095 0.76782 0.10609 0.0
C263 C 0.77159 0.72821 0.11219 0.0
C264 C 0.77491 0.78261 0.02609 0.0
C265 C 0.84982 0.79118 0.1298 0.0
H266 H 0.97479 0.8552 0.04294 0.0
H267 H 0.84028 0.96541 0.05488 0.0
H268 H 0.92168 0.74479 0.08326 0.0
H269 H 0.90616 0.74088 0.04579 0.0
H270 H 0.97389 0.76532 0.05988 0.0
H271 H 0.76467 0.94244 0.08213 0.0
H272 H 0.7377 0.88123 0.06537 0.0
H273 H 0.76659 0.87984 0.10137 0.0
H274 H 0.70367 0.71182 0.04683 0.0
H275 H 0.77155 0.71358 0.13366 0.0
H276 H 0.81825 0.78068 0.01916 0.0
H277 H 0.76094 0.82519 0.02435 0.0
H278 H 0.74691 0.75762 0.01138 0.0
H279 H 0.89412 0.78943 0.1243 0.0
H280 H 0.84635 0.76978 0.1501 0.0
H281 H 0.8396 0.83436 0.13296 0.0
C282 C 0.99076 0.21826 0.9809 0.0
C283 C 0.95978 0.18235 -0.00375 0.0
C284 C 0.96951 0.26991 0.97421 0.0
C285 C 0.9157 0.2846 0.98246 0.0
C286 C 0.88821 0.25089 0.00105 0.0
C287 C 0.91062 0.20005 0.00764 0.0
C288 C 1.00177 0.30613 0.95584 0.0
C289 C 0.83143 0.26522 0.01095 0.0
C290 C 0.83308 0.41257 0.9646 0.0
C291 C 0.79872 0.39513 0.94085 0.0
C292 C 0.87499 0.37873 0.97733 0.0
C293 C 0.88168 0.32602 0.96635 0.0
C294 C 0.84893 0.30943 0.94156 0.0
C295 C 0.80805 0.34407 0.92921 0.0
C296 C 0.90993 0.39865 0.00323 0.0
C297 C 0.85431 0.25355 0.92903 0.0
H298 H 0.02905 0.20458 0.97223 0.0
H299 H 0.88711 0.17223 0.0198 0.0
H300 H 0.98654 0.29965 0.93335 0.0
H301 H 0.99538 0.34925 0.96116 0.0
H302 H 0.04748 0.29707 0.95816 0.0
H303 H 0.81968 0.23869 0.02835 0.0
H304 H 0.83098 0.3077 0.01841 0.0
H305 H 0.79892 0.26093 0.993 0.0
H306 H 0.82664 0.45227 0.97352 0.0
H307 H 0.78127 0.32984 0.91115 0.0
H308 H 0.95261 0.38067 0.00473 0.0
H309 H 0.88908 0.38719 0.02243 0.0
H310 H 0.91395 0.44332 0.00322 0.0
H311 H 0.8987 0.24531 0.92507 0.0
H312 H 0.82806 0.2482 0.90879 0.0
H313 H 0.84121 0.22294 0.94419 0.0
C314 C 0.67482 0.69299 0.51905 0.0
C315 C 0.62075 0.67876 0.52589 0.0
C316 C 0.69583 0.74511 0.52415 0.0
C317 C 0.66161 0.78428 0.53623 0.0
C318 C 0.60467 0.7718 0.54014 0.0
C319 C 0.58505 0.71858 0.53539 0.0
C320 C 0.7567 0.75627 0.51943 0.0
C321 C 0.56584 0.81322 0.55142 0.0
C322 C 0.75369 0.86502 0.58899 0.0
C323 C 0.76996 0.90836 0.57258 0.0
C324 C 0.71404 0.82704 0.57817 0.0
C325 C 0.68964 0.83235 0.55013 0.0
C326 C 0.70199 0.87851 0.53428 0.0
C327 C 0.74264 0.91574 0.54556 0.0
C328 C 0.70245 0.77845 0.59593 0.0
C329 C 0.67519 0.88681 0.50476 0.0
H330 H 0.70216 0.66217 0.51135 0.0
H331 H 0.54317 0.70754 0.5407 0.0
H332 H 0.76075 0.79445 0.50775 0.0
H333 H 0.7813 0.7608 0.54018 0.0
H334 H 0.77573 0.7233 0.50739 0.0
H335 H 0.52105 0.80258 0.54583 0.0
H336 H 0.57274 0.81521 0.57482 0.0
H337 H 0.57428 0.85389 0.54305 0.0
H338 H 0.77485 0.85845 0.60974 0.0
H339 H 0.75423 0.94965 0.53291 0.0
H340 H 0.72065 0.7419 0.58654 0.0
H341 H 0.65656 0.77172 0.59626 0.0
H342 H 0.72079 0.78284 0.6181 0.0
H343 H 0.69869 0.86357 0.48946 0.0
H344 H 0.67604 0.93 0.49872 0.0
H345 H 0.631 0.87229 0.50284 0.0
C346 C 0.66642 0.36224 0.47533 0.0
C347 C 0.67409 0.41801 0.47384 0.0
C348 C 0.70401 0.32674 0.46351 0.0
C349 C 0.74982 0.34795 0.44978 0.0
C350 C 0.75476 0.40442 0.44625 0.0
C351 C 0.71718 0.43893 0.45877 0.0
C352 C 0.69736 0.26685 0.46779 0.0
C353 C 0.80205 0.42853 0.43107 0.0
C354 C 0.8853 0.26746 0.45502 0.0
C355 C 0.88328 0.24173 0.42852 0.0
C356 C 0.84202 0.30203 0.46215 0.0
C357 C 0.79589 0.31169 0.44217 0.0
C358 C 0.79369 0.28632 0.41531 0.0
C359 C 0.83708 0.25124 0.40892 0.0
C360 C 0.84566 0.32822 0.49112 0.0
C361 C 0.74554 0.29624 0.39337 0.0
H362 H 0.63342 0.34646 0.48747 0.0
H363 H 0.72311 0.48227 0.45801 0.0
H364 H 0.70129 0.2445 0.44769 0.0
H365 H 0.73136 0.25253 0.48322 0.0
H366 H 0.65623 0.25665 0.47592 0.0
H367 H 0.79552 0.47218 0.42685 0.0
H368 H 0.84228 0.42364 0.44418 0.0
H369 H 0.80628 0.40723 0.41068 0.0
H370 H 0.92104 0.26103 0.47015 0.0
H371 H 0.83442 0.23078 0.38857 0.0
H372 H 0.8081 0.3174 0.50233 0.0
H373 H 0.8461 0.37277 0.48905 0.0
H374 H 0.88387 0.31585 0.50436 0.0
H375 H 0.70541 0.28291 0.40146 0.0
H376 H 0.75098 0.27475 0.37312 0.0
H377 H 0.74167 0.34007 0.3891 0.0
C378 C 0.4157 0.37023 0.55238 0.0
C379 C 0.38787 0.41585 0.54119 0.0
C380 C 0.38546 0.32834 0.56408 0.0
C381 C 0.32633 0.33272 0.56462 0.0
C382 C 0.29892 0.38063 0.55528 0.0
C383 C 0.32999 0.42141 0.5434 0.0
C384 C 0.4162 0.27808 0.57411 0.0
C385 C 0.23623 0.38756 0.55627 0.0
C386 C 0.23404 0.20778 0.55746 0.0
C387 C 0.22075 0.20012 0.58538 0.0
C388 C 0.26986 0.24988 0.55062 0.0
C389 C 0.29216 0.28557 0.5722 0.0
C390 C 0.27914 0.27781 0.60048 0.0
C391 C 0.24366 0.23504 0.60675 0.0
C392 C 0.28338 0.25652 0.52024 0.0
C393 C 0.30122 0.31555 0.62396 0.0
H394 H 0.46048 0.36592 0.5505 0.0
H395 H 0.30865 0.45701 0.53489 0.0
H396 H 0.40388 0.26639 0.59531 0.0
H397 H 0.40448 0.24421 0.55934 0.0
H398 H 0.46257 0.28344 0.57522 0.0
H399 H 0.22254 0.42943 0.55122 0.0
H400 H 0.21385 0.35967 0.54078 0.0
H401 H 0.2232 0.37719 0.57753 0.0
H402 H 0.21688 0.18044 0.54101 0.0
H403 H 0.23292 0.22949 0.62835 0.0
H404 H 0.32961 0.25727 0.51891 0.0
H405 H 0.26667 0.29557 0.51203 0.0
H406 H 0.26524 0.22359 0.50631 0.0
H407 H 0.34688 0.32286 0.62292 0.0
H408 H 0.29396 0.29966 0.64522 0.0
H409 H 0.27988 0.35512 0.62141 0.0
C410 C 0.4875 0.71922 0.48363 0.0
C411 C 0.44873 0.68081 0.49156 0.0
C412 C 0.47124 0.77334 0.47943 0.0
C413 C 0.41462 0.78831 0.48237 0.0
C414 C 0.37696 0.75032 0.4927 0.0
C415 C 0.39459 0.69715 0.49719 0.0
C416 C 0.51339 0.81318 0.46973 0.0
C417 C 0.31626 0.76419 0.49628 0.0
C418 C 0.34479 0.92533 0.47481 0.0
C419 C 0.31921 0.92117 0.44717 0.0
C420 C 0.38101 0.88465 0.48598 0.0
C421 C 0.39081 0.83848 0.46927 0.0
C422 C 0.36818 0.83604 0.44078 0.0
C423 C 0.33277 0.87723 0.43015 0.0
C424 C 0.40587 0.88957 0.51613 0.0
C425 C 0.3772 0.78756 0.42213 0.0
H426 H 0.52929 0.70644 0.47908 0.0
H427 H 0.36481 0.66735 0.5036 0.0
H428 H 0.50743 0.8172 0.44639 0.0
H429 H 0.50744 0.85363 0.47922 0.0
H430 H 0.55723 0.79975 0.47532 0.0
H431 H 0.29435 0.73193 0.50734 0.0
H432 H 0.31332 0.80235 0.50841 0.0
H433 H 0.29369 0.77013 0.47516 0.0
H434 H 0.3353 0.95957 0.48796 0.0
H435 H 0.31279 0.87306 0.40892 0.0
H436 H 0.44951 0.8739 0.51827 0.0
H437 H 0.38056 0.86525 0.53006 0.0
H438 H 0.40601 0.93207 0.52376 0.0
H439 H 0.42253 0.77755 0.42259 0.0
H440 H 0.36121 0.79422 0.39979 0.0
H441 H 0.35508 0.75206 0.43016 0.0
C442 C 0.08826 0.92994 0.11978 0.0
C443 C 0.04933 0.95095 0.09909 0.0
C444 C 0.0734 0.92091 0.14732 0.0
C445 C 0.01788 0.93208 0.15412 0.0
C446 C 0.97672 0.94683 0.13248 0.0
C447 C 0.99327 0.95755 0.10531 0.0
C448 C 0.11871 0.90511 0.16974 0.0
C449 C 0.91639 0.9561 0.13865 0.0
C450 C 0.9944 0.9054 0.2311 0.0
C451 C 0.00536 0.95669 0.24292 0.0
C452 C 0.99393 0.89711 0.20169 0.0
C453 C 0.00716 0.94072 0.18422 0.0
C454 C 0.01659 0.99285 0.19616 0.0
C455 C 0.01485 0.00022 0.22531 0.0
C456 C 0.98146 0.84146 0.18966 0.0
C457 C 0.0318 0.04042 0.17845 0.0
H458 H 0.13151 0.92394 0.11496 0.0
H459 H 0.96322 0.97492 0.08974 0.0
H460 H 0.12867 0.94004 0.18408 0.0
H461 H 0.10399 0.87176 0.18277 0.0
H462 H 0.15797 0.89227 0.16049 0.0
H463 H 0.88787 0.95591 0.11898 0.0
H464 H 0.90223 0.92467 0.15308 0.0
H465 H 0.9127 0.9958 0.1493 0.0
H466 H 0.98677 0.87185 0.24485 0.0
H467 H 0.02378 0.03974 0.23462 0.0
H468 H 0.02149 0.81951 0.18787 0.0
H469 H 0.95924 0.84337 0.16823 0.0
H470 H 0.9555 0.81775 0.20361 0.0
H471 H 0.0717 0.03212 0.16866 0.0
H472 H 0.03706 0.0783 0.19108 0.0
H473 H 0.99874 0.04697 0.16107 0.0
C474 C 0.09414 0.95354 0.91281 0.0
C475 C 0.03767 0.95095 0.9189 0.0
C476 C 0.11043 0.93901 0.88599 0.0
C477 C 0.06868 0.92497 0.86432 0.0
C478 C 0.01198 0.91968 0.87072 0.0
C479 C 0.99735 0.93198 0.89805 0.0
C480 C 0.17171 0.94272 0.88039 0.0
C481 C 0.96589 0.90577 0.84814 0.0
C482 C 0.08276 0.97689 0.79066 0.0
C483 C 0.08848 0.92902 0.77537 0.0
C484 C 0.07859 0.97611 0.81988 0.0
C485 C 0.0817 0.9262 0.83425 0.0
C486 C 0.09113 0.87794 0.81914 0.0
C487 C 0.0932 0.87976 0.7896 0.0
C488 C 0.0676 0.02846 0.83505 0.0
C489 C 0.09707 0.82438 0.83396 0.0
H490 H 0.12525 0.96994 0.92834 0.0
H491 H 0.95361 0.92948 0.90265 0.0
H492 H 0.18303 0.91117 0.8651 0.0
H493 H 0.1802 0.98264 0.87118 0.0
H494 H 0.19931 0.9385 0.90022 0.0
H495 H 0.92487 0.89861 0.85709 0.0
H496 H 0.96078 0.93944 0.83285 0.0
H497 H 0.97705 0.86927 0.83616 0.0
H498 H 0.07869 0.01485 0.77945 0.0
H499 H 0.09789 0.84283 0.77761 0.0
H500 H 0.10024 0.03534 0.85267 0.0
H501 H 0.02638 0.02627 0.84435 0.0
H502 H 0.06721 0.06378 0.82075 0.0
H503 H 0.12313 0.82859 0.85431 0.0
H504 H 0.1163 0.79348 0.82065 0.0
H505 H 0.05502 0.80962 0.83884 0.0
C506 C 0.46479 0.45524 0.6022 0.0
C507 C 0.52196 0.44915 0.59807 0.0
C508 C 0.44396 0.44227 0.6282 0.0
C509 C 0.48198 0.42649 0.65102 0.0
C510 C 0.53901 0.41693 0.64639 0.0
C511 C 0.55805 0.42761 0.61983 0.0
C512 C 0.38211 0.44939 0.63168 0.0
C513 C 0.58113 0.40012 0.67013 0.0
C514 C 0.46819 0.48443 0.72377 0.0
C515 C 0.46081 0.43784 0.73953 0.0
C516 C 0.47158 0.48152 0.69451 0.0
C517 C 0.46594 0.4308 0.68057 0.0
C518 C 0.45357 0.3842 0.69608 0.0
C519 C 0.45243 0.38805 0.72564 0.0
C520 C 0.48575 0.5322 0.67896 0.0
C521 C 0.44449 0.32979 0.68196 0.0
H522 H 0.43682 0.47306 0.58583 0.0
H523 H 0.60219 0.42206 0.61664 0.0
H524 H 0.36735 0.42134 0.64769 0.0
H525 H 0.37431 0.49128 0.63875 0.0
H526 H 0.35682 0.44249 0.61127 0.0
H527 H 0.62334 0.39206 0.66266 0.0
H528 H 0.58534 0.43248 0.68649 0.0
H529 H 0.56641 0.36322 0.68038 0.0
H530 H 0.47508 0.52283 0.73464 0.0
H531 H 0.44627 0.35208 0.73791 0.0
H532 H 0.45389 0.53935 0.66111 0.0
H533 H 0.52707 0.52742 0.66997 0.0
H534 H 0.48775 0.56847 0.69293 0.0
H535 H 0.42941 0.33338 0.65932 0.0
H536 H 0.41359 0.3056 0.69291 0.0
H537 H 0.48471 0.30727 0.68335 0.0
C538 C 0.59395 0.4629 0.41328 0.0
C539 C 0.54175 0.44419 0.42077 0.0
C540 C 0.61103 0.45328 0.38603 0.0
C541 C 0.57464 0.42477 0.36609 0.0
C542 C 0.52571 0.39969 0.37494 0.0
C543 C 0.50946 0.41027 0.40217 0.0
C544 C 0.66456 0.47898 0.37765 0.0
C545 C 0.48701 0.36706 0.35466 0.0
C546 C 0.54634 0.48169 0.2929 0.0
C547 C 0.57309 0.44444 0.2763 0.0
C548 C 0.5492 0.47692 0.3223 0.0
C549 C 0.57892 0.43316 0.33538 0.0
C550 C 0.60775 0.39628 0.31873 0.0
C551 C 0.6047 0.40256 0.28917 0.0
C552 C 0.51858 0.51783 0.33923 0.0
C553 C 0.63939 0.34885 0.33173 0.0
H554 H 0.61892 0.48922 0.42769 0.0
H555 H 0.46956 0.3949 0.40825 0.0
H556 H 0.68723 0.45125 0.36402 0.0
H557 H 0.6541 0.51596 0.36529 0.0
H558 H 0.69298 0.49043 0.39644 0.0
H559 H 0.45719 0.34218 0.36595 0.0
H560 H 0.46225 0.39476 0.34027 0.0
H561 H 0.5115 0.34015 0.34145 0.0
H562 H 0.52256 0.51438 0.28273 0.0
H563 H 0.62543 0.37391 0.2761 0.0
H564 H 0.54741 0.53511 0.35648 0.0
H565 H 0.48346 0.49784 0.34914 0.0
H566 H 0.50101 0.55143 0.32595 0.0
H567 H 0.65854 0.35854 0.35324 0.0
H568 H 0.67293 0.33518 0.31834 0.0
H569 H 0.6097 0.31477 0.33357 0.0
loop_
_geom_bond_atom_site_label_1
_geom_bond_atom_site_label_2
_geom_bond_distance
_geom_bond_site_symmetry_2
_ccdc_geom_bond_type
Zn0 O6 1.915 1_546 S
Zn0 O12 1.898 . S
Zn0 O15 1.905 1_545 S
Zn1 O9 1.905 . S
Zn1 O10 1.898 1_545 S
Zn1 O18 1.920 1_545 S
Zn2 O5 2.080 1_445 S
Zn2 O8 2.114 . S
Zn2 O11 2.120 1_545 S
Zn2 O13 2.120 1_455 S
Zn2 O14 2.114 1_554 S
Zn2 O17 2.080 . S
C3 O8 1.166 . S
C3 O9 1.182 . S
C4 O10 1.167 . S
C4 O11 1.299 . S
O5 Zn2 2.080 1_665 S
O5 C19 1.305 . S
O6 Zn0 1.915 1_564 S
O6 C19 1.238 . S
C7 O12 1.183 . S
C7 O13 1.285 1_556 S
O8 Zn2 2.114 . S
O8 C3 1.166 . S
O9 Zn1 1.905 . S
O9 C3 1.182 . S
O10 Zn1 1.898 1_565 S
O10 C4 1.167 . S
O11 Zn2 2.120 1_565 S
O11 C4 1.299 . S
O12 Zn0 1.898 . S
O12 C7 1.183 . S
O13 Zn2 2.120 1_655 S
O13 C7 1.285 1_554 S
O14 Zn2 2.114 1_556 S
O14 C16 1.166 1_545 S
O15 Zn0 1.905 1_565 S
O15 C16 1.182 1_655 S
C16 O14 1.166 1_565 S
C16 O15 1.182 1_455 S
O17 Zn2 2.080 . S
O17 C20 1.305 1_545 S
O18 Zn1 1.920 1_565 S
O18 C20 1.234 . S
C19 O5 1.305 . S
C19 O6 1.238 . S
C20 O17 1.305 1_565 S
C20 O18 1.234 . S
Zn21 O27 1.920 . S
Zn21 O33 1.898 . S
Zn21 O36 1.905 . S
Zn22 O30 1.905 . S
Zn22 O31 1.898 . S
Zn22 O39 1.920 . S
Zn23 O26 2.080 . S
Zn23 O29 2.114 . S
Zn23 O32 2.120 . S
Zn23 O34 2.120 . S
Zn23 O35 2.114 . S
Zn23 O38 2.080 . S
C24 O29 1.166 . S
C24 O30 1.182 . S
C25 O31 1.167 . S
C25 O32 1.299 . S
O26 Zn23 2.080 . S
O26 C40 1.305 . S
O27 Zn21 1.920 . S
O27 C40 1.234 . S
C28 O33 1.167 . S
C28 O34 1.299 . S
O29 Zn23 2.114 . S
O29 C24 1.166 . S
O30 Zn22 1.905 . S
O30 C24 1.182 . S
O31 Zn22 1.898 . S
O31 C25 1.167 . S
O32 Zn23 2.120 . S
O32 C25 1.299 . S
O33 Zn21 1.898 . S
O33 C28 1.167 . S
O34 Zn23 2.120 . S
O34 C28 1.299 . S
O35 Zn23 2.114 . S
O35 C37 1.166 . S
O36 Zn21 1.905 . S
O36 C37 1.182 . S
C37 O35 1.166 . S
C37 O36 1.182 . S
O38 Zn23 2.080 . S
O38 C41 1.305 . S
O39 Zn22 1.920 . S
O39 C41 1.234 . S
C40 O26 1.305 . S
C40 O27 1.234 . S
C41 O38 1.305 . S
C41 O39 1.234 . S
C42 C43 1.384 . S
C42 H55 0.947 . S
C42 C77 1.382 . S
C43 C42 1.384 . S
C43 C44 1.378 . S
C44 C43 1.378 . S
C44 C45 1.378 1_655 S
C44 H56 0.952 . S
C45 C44 1.378 1_455 S
C45 H57 0.950 . S
C45 C76 1.383 . S
H46 C65 0.947 . S
H47 C66 0.946 . S
H48 C68 0.953 . S
H49 C69 0.945 . S
H50 C71 0.952 1_565 S
H51 C72 0.940 1_565 S
H52 C74 0.950 . S
H53 C75 0.948 . S
H54 C77 0.951 . S
H55 C42 0.947 . S
H56 C44 0.952 . S
H57 C45 0.950 . S
N58 C61 1.382 . S
N58 C63 1.363 . S
N59 C61 1.371 . S
N59 C62 1.372 . S
N60 C62 1.361 . S
N60 C63 1.377 . S
C61 N58 1.382 . S
C61 N59 1.371 . S
C61 C64 1.480 1_545 S
C62 N59 1.372 . S
C62 N60 1.361 . S
C62 C70 1.457 . S
C63 N58 1.363 . S
C63 N60 1.377 . S
C63 C76 1.479 . S
C64 C61 1.480 1_565 S
C64 C65 1.383 . S
C64 C69 1.385 . S
C65 H46 0.947 . S
C65 C64 1.383 . S
C65 C66 1.388 . S
C66 H47 0.946 . S
C66 C65 1.388 . S
C66 C67 1.384 . S
C67 C66 1.384 . S
C67 C68 1.377 . S
C68 H48 0.953 . S
C68 C67 1.377 . S
C68 C69 1.369 . S
C69 H49 0.945 . S
C69 C64 1.385 . S
C69 C68 1.369 . S
C70 C62 1.457 . S
C70 C71 1.372 . S
C70 C75 1.364 . S
C71 H50 0.952 1_545 S
C71 C70 1.372 . S
C71 C72 1.389 . S
C72 H51 0.940 1_545 S
C72 C71 1.389 . S
C72 C73 1.395 . S
C73 C72 1.395 . S
C73 C74 1.372 . S
C74 H52 0.950 . S
C74 C73 1.372 . S
C74 C75 1.379 . S
C75 H53 0.948 . S
C75 C70 1.364 . S
C75 C74 1.379 . S
C76 C45 1.383 . S
C76 C63 1.479 . S
C76 C77 1.398 1_455 S
C77 C42 1.382 . S
C77 H54 0.951 . S
C77 C76 1.398 1_655 S
C78 C79 1.384 . S
C78 H91 0.947 . S
C78 C113 1.382 . S
C79 C78 1.384 . S
C79 C80 1.378 . S
C80 C79 1.378 . S
C80 C81 1.378 . S
C80 H92 0.952 . S
C81 C80 1.378 . S
C81 H93 0.950 . S
C81 C112 1.383 . S
H82 C101 0.947 . S
H83 C102 0.946 . S
H84 C104 0.953 . S
H85 C105 0.945 . S
H86 C107 0.952 . S
H87 C108 0.949 . S
H88 C110 0.950 . S
H89 C111 0.948 . S
H90 C113 0.951 . S
H91 C78 0.947 . S
H92 C80 0.952 . S
H93 C81 0.950 . S
N94 C97 1.382 . S
N94 C99 1.363 1_445 S
N95 C97 1.371 . S
N95 C98 1.372 . S
N96 C98 1.361 1_665 S
N96 C99 1.377 . S
C97 N94 1.382 . S
C97 N95 1.371 . S
C97 C100 1.480 . S
C98 N95 1.372 . S
C98 N96 1.361 1_445 S
C98 C106 1.457 . S
C99 N94 1.363 1_665 S
C99 N96 1.377 . S
C99 C112 1.479 . S
C100 C97 1.480 . S
C100 C101 1.383 . S
C100 C105 1.385 . S
C101 H82 0.947 . S
C101 C100 1.383 . S
C101 C102 1.388 . S
C102 H83 0.946 . S
C102 C101 1.388 . S
C102 C103 1.384 . S
C103 C102 1.384 . S
C103 C104 1.377 . S
C104 H84 0.953 . S
C104 C103 1.377 . S
C104 C105 1.369 . S
C105 H85 0.945 . S
C105 C100 1.385 . S
C105 C104 1.369 . S
C106 C98 1.457 . S
C106 C107 1.372 . S
C106 C111 1.364 1_445 S
C107 H86 0.952 . S
C107 C106 1.372 . S
C107 C108 1.389 . S
C108 H87 0.949 . S
C108 C107 1.389 . S
C108 C109 1.387 . S
C109 C108 1.387 . S
C109 C110 1.372 1_445 S
C110 H88 0.950 . S
C110 C109 1.372 1_665 S
C110 C111 1.379 . S
C111 H89 0.948 . S
C111 C106 1.364 1_665 S
C111 C110 1.379 . S
C112 C81 1.383 . S
C112 C99 1.479 . S
C112 C113 1.398 . S
C113 C78 1.382 . S
C113 H90 0.951 . S
C113 C112 1.398 . S
C114 C115 1.384 . S
C114 H127 0.947 . S
C114 C149 1.382 . S
C115 C114 1.384 . S
C115 C116 1.378 . S
C116 C115 1.378 . S
C116 C117 1.378 . S
C116 H128 0.952 . S
C117 C116 1.378 . S
C117 H129 0.950 . S
C117 C148 1.383 . S
H118 C137 0.947 . S
H119 C138 0.946 . S
H120 C140 0.953 . S
H121 C141 0.945 . S
H122 C143 0.952 . S
H123 C144 0.949 . S
H124 C146 0.950 . S
H125 C147 0.948 . S
H126 C149 0.951 . S
H127 C114 0.947 . S
H128 C116 0.952 . S
H129 C117 0.950 . S
N130 C133 1.382 . S
N130 C135 1.363 . S
N131 C133 1.371 . S
N131 C134 1.372 . S
N132 C134 1.361 . S
N132 C135 1.377 . S
C133 N130 1.382 . S
C133 N131 1.371 . S
C133 C136 1.480 . S
C134 N131 1.372 . S
C134 N132 1.361 . S
C134 C142 1.457 . S
C135 N130 1.363 . S
C135 N132 1.377 . S
C135 C148 1.479 . S
C136 C133 1.480 . S
C136 C137 1.383 . S
C136 C141 1.385 . S
C137 H118 0.947 . S
C137 C136 1.383 . S
C137 C138 1.388 . S
C138 H119 0.946 . S
C138 C137 1.388 . S
C138 C139 1.384 . S
C139 C138 1.384 . S
C139 C140 1.377 . S
C140 H120 0.953 . S
C140 C139 1.377 . S
C140 C141 1.369 . S
C141 H121 0.945 . S
C141 C136 1.385 . S
C141 C140 1.369 . S
C142 C134 1.457 . S
C142 C143 1.372 . S
C142 C147 1.364 . S
C143 H122 0.952 . S
C143 C142 1.372 . S
C143 C144 1.389 . S
C144 H123 0.949 . S
C144 C143 1.389 . S
C144 C145 1.387 . S
C145 C144 1.387 . S
C145 C146 1.372 . S
C146 H124 0.950 . S
C146 C145 1.372 . S
C146 C147 1.379 . S
C147 H125 0.948 . S
C147 C142 1.364 . S
C147 C146 1.379 . S
C148 C117 1.383 . S
C148 C135 1.479 . S
C148 C149 1.398 . S
C149 C114 1.382 . S
C149 H126 0.951 . S
C149 C148 1.398 . S
C150 C151 1.384 . S
C150 H163 0.947 . S
C150 C185 1.382 . S
C151 C150 1.384 . S
C151 C152 1.378 . S
C152 C151 1.378 . S
C152 C153 1.378 . S
C152 H164 0.952 . S
C153 C152 1.378 . S
C153 H165 0.950 . S
C153 C184 1.383 . S
H154 C173 0.947 . S
H155 C174 0.946 . S
H156 C176 0.953 . S
H157 C177 0.945 . S
H158 C179 0.952 . S
H159 C180 0.949 . S
H160 C182 0.950 . S
H161 C183 0.948 . S
H162 C185 0.951 . S
H163 C150 0.947 . S
H164 C152 0.952 . S
H165 C153 0.950 . S
N166 C169 1.382 . S
N166 C171 1.363 . S
N167 C169 1.371 . S
N167 C170 1.372 . S
N168 C170 1.361 . S
N168 C171 1.377 . S
C169 N166 1.382 . S
C169 N167 1.371 . S
C169 C172 1.480 . S
C170 N167 1.372 . S
C170 N168 1.361 . S
C170 C178 1.457 . S
C171 N166 1.363 . S
C171 N168 1.377 . S
C171 C184 1.479 . S
C172 C169 1.480 . S
C172 C173 1.383 . S
C172 C177 1.385 . S
C173 H154 0.947 . S
C173 C172 1.383 . S
C173 C174 1.388 . S
C174 H155 0.946 . S
C174 C173 1.388 . S
C174 C175 1.384 . S
C175 C174 1.384 . S
C175 C176 1.377 . S
C176 H156 0.953 . S
C176 C175 1.377 . S
C176 C177 1.369 . S
C177 H157 0.945 . S
C177 C172 1.385 . S
C177 C176 1.369 . S
C178 C170 1.457 . S
C178 C179 1.372 . S
C178 C183 1.364 . S
C179 H158 0.952 . S
C179 C178 1.372 . S
C179 C180 1.389 . S
C180 H159 0.949 . S
C180 C179 1.389 . S
C180 C181 1.387 . S
C181 C180 1.387 . S
C181 C182 1.372 . S
C182 H160 0.950 . S
C182 C181 1.372 . S
C182 C183 1.379 . S
C183 H161 0.948 . S
C183 C178 1.364 . S
C183 C182 1.379 . S
C184 C153 1.383 . S
C184 C171 1.479 . S
C184 C185 1.398 . S
C185 C150 1.382 . S
C185 H162 0.951 . S
C185 C184 1.398 . S
C186 C187 1.391 . S
C186 C188 1.394 . S
C186 H202 0.931 . S
C187 C186 1.391 . S
C187 C191 1.376 . S
C188 C186 1.394 . S
C188 C189 1.369 . S
C188 C192 1.531 . S
C189 C188 1.369 . S
C189 C190 1.410 . S
C189 C197 1.503 . S
C190 C189 1.410 . S
C190 C191 1.392 . S
C190 C193 1.511 . S
C191 C187 1.376 . S
C191 C190 1.392 . S
C191 H203 0.929 . S
C192 C188 1.531 . S
C192 H204 0.960 . S
C192 H205 0.962 . S
C192 H206 0.960 . S
C193 C190 1.511 . S
C193 H207 0.961 . S
C193 H208 0.961 . S
C193 H209 0.961 . S
C194 C195 1.370 . S
C194 C196 1.363 . S
C194 H210 0.931 . S
C195 C194 1.370 . S
C195 C199 1.408 . S
C196 C194 1.363 . S
C196 C197 1.370 . S
C196 C200 1.524 . S
C197 C189 1.503 . S
C197 C196 1.370 . S
C197 C198 1.403 . S
C198 C197 1.403 . S
C198 C199 1.404 . S
C198 C201 1.539 1_554 S
C199 C195 1.408 . S
C199 C198 1.404 . S
C199 H211 0.930 . S
C200 C196 1.524 . S
C200 H212 0.956 . S
C200 H213 0.961 . S
C200 H214 0.961 . S
C201 C198 1.539 1_556 S
C201 H215 0.958 . S
C201 H216 0.961 . S
C201 H217 0.960 . S
H202 C186 0.931 . S
H203 C191 0.929 . S
H204 C192 0.960 . S
H205 C192 0.962 . S
H206 C192 0.960 . S
H207 C193 0.961 . S
H208 C193 0.961 . S
H209 C193 0.961 . S
H210 C194 0.931 . S
H211 C199 0.930 . S
H212 C200 0.956 . S
H213 C200 0.961 . S
H214 C200 0.961 . S
H215 C201 0.958 . S
H216 C201 0.961 . S
H217 C201 0.960 . S
C218 C219 1.391 1_554 S
C218 C220 1.394 1_554 S
C218 H234 0.931 . S
C219 C218 1.391 1_556 S
C219 C223 1.376 . S
C220 C218 1.394 1_556 S
C220 C221 1.369 . S
C220 C224 1.531 1_556 S
C221 C220 1.369 . S
C221 C222 1.410 . S
C221 C229 1.503 . S
C222 C221 1.410 . S
C222 C223 1.392 . S
C222 C225 1.511 . S
C223 C219 1.376 . S
C223 C222 1.392 . S
C223 H235 0.929 . S
C224 C220 1.531 1_554 S
C224 H236 0.960 1_554 S
C224 H237 0.962 . S
C224 H238 0.960 . S
C225 C222 1.511 . S
C225 H239 0.961 . S
C225 H240 0.961 . S
C225 H241 0.961 . S
C226 C227 1.370 . S
C226 C228 1.363 . S
C226 H242 0.931 1_556 S
C227 C226 1.370 . S
C227 C231 1.408 . S
C228 C226 1.363 . S
C228 C229 1.370 . S
C228 C232 1.524 1_556 S
C229 C221 1.503 . S
C229 C228 1.370 . S
C229 C230 1.403 . S
C230 C229 1.403 . S
C230 C231 1.404 . S
C230 C233 1.539 . S
C231 C227 1.408 . S
C231 C230 1.404 . S
C231 H243 0.930 . S
C232 C228 1.524 1_554 S
C232 H244 0.956 . S
C232 H245 0.961 . S
C232 H246 0.961 . S
C233 C230 1.539 . S
C233 H247 0.958 . S
C233 H248 0.961 . S
C233 H249 0.960 . S
H234 C218 0.931 . S
H235 C223 0.929 . S
H236 C224 0.960 1_556 S
H237 C224 0.962 . S
H238 C224 0.960 . S
H239 C225 0.961 . S
H240 C225 0.961 . S
H241 C225 0.961 . S
H242 C226 0.931 1_554 S
H243 C231 0.930 . S
H244 C232 0.956 . S
H245 C232 0.961 . S
H246 C232 0.961 . S
H247 C233 0.958 . S
H248 C233 0.961 . S
H249 C233 0.960 . S
C250 C251 1.391 . S
C250 C252 1.394 . S
C250 H266 0.931 . S
C251 C250 1.391 . S
C251 C255 1.376 . S
C252 C250 1.394 . S
C252 C253 1.369 . S
C252 C256 1.531 . S
C253 C252 1.369 . S
C253 C254 1.410 . S
C253 C261 1.503 . S
C254 C253 1.410 . S
C254 C255 1.392 . S
C254 C257 1.511 . S
C255 C251 1.376 . S
C255 C254 1.392 . S
C255 H267 0.929 . S
C256 C252 1.531 . S
C256 H268 0.960 . S
C256 H269 0.962 . S
C256 H270 0.960 . S
C257 C254 1.511 . S
C257 H271 0.961 . S
C257 H272 0.961 . S
C257 H273 0.961 . S
C258 C259 1.370 . S
C258 C260 1.363 . S
C258 H274 0.931 . S
C259 C258 1.370 . S
C259 C263 1.408 . S
C260 C258 1.363 . S
C260 C261 1.370 . S
C260 C264 1.524 . S
C261 C253 1.503 . S
C261 C260 1.370 . S
C261 C262 1.403 . S
C262 C261 1.403 . S
C262 C263 1.404 . S
C262 C265 1.539 . S
C263 C259 1.408 . S
C263 C262 1.404 . S
C263 H275 0.930 . S
C264 C260 1.524 . S
C264 H276 0.956 1_554 S
C264 H277 0.961 . S
C264 H278 0.961 1_554 S
C265 C262 1.539 . S
C265 H279 0.958 . S
C265 H280 0.961 . S
C265 H281 0.960 . S
H266 C250 0.931 . S
H267 C255 0.929 . S
H268 C256 0.960 . S
H269 C256 0.962 . S
H270 C256 0.960 . S
H271 C257 0.961 . S
H272 C257 0.961 . S
H273 C257 0.961 . S
H274 C258 0.931 . S
H275 C263 0.930 . S
H276 C264 0.956 1_556 S
H277 C264 0.961 . S
H278 C264 0.961 1_556 S
H279 C265 0.958 . S
H280 C265 0.961 . S
H281 C265 0.960 . S
C282 C283 1.373 1_556 S
C282 C284 1.394 . S
C282 H298 0.931 . S
C283 C282 1.373 1_554 S
C283 C287 1.388 . S
C284 C282 1.394 . S
C284 C285 1.369 . S
C284 C288 1.531 . S
C285 C284 1.369 . S
C285 C286 1.410 1_556 S
C285 C293 1.503 . S
C286 C285 1.410 1_554 S
C286 C287 1.392 . S
C286 C289 1.511 . S
C287 C283 1.388 . S
C287 C286 1.392 . S
C287 H299 0.929 . S
C288 C284 1.531 . S
C288 H300 0.960 . S
C288 H301 0.962 . S
C288 H302 0.960 . S
C289 C286 1.511 . S
C289 H303 0.961 . S
C289 H304 0.961 . S
C289 H305 0.961 . S
C290 C291 1.370 . S
C290 C292 1.364 1_556 S
C290 H306 0.931 1_556 S
C291 C290 1.370 . S
C291 C295 1.408 . S
C292 C290 1.364 1_554 S
C292 C293 1.373 1_554 S
C292 C296 1.521 . S
C293 C285 1.503 . S
C293 C292 1.373 1_556 S
C293 C294 1.403 . S
C294 C293 1.403 . S
C294 C295 1.404 . S
C294 C297 1.539 . S
C295 C291 1.408 . S
C295 C294 1.404 . S
C295 H307 0.930 . S
C296 C292 1.521 . S
C296 H308 0.956 . S
C296 H309 0.961 . S
C296 H310 0.961 . S
C297 C294 1.539 . S
C297 H311 0.958 . S
C297 H312 0.961 . S
C297 H313 0.960 . S
H298 C282 0.931 . S
H299 C287 0.929 . S
H300 C288 0.960 . S
H301 C288 0.962 . S
H302 C288 0.960 . S
H303 C289 0.961 . S
H304 C289 0.961 . S
H305 C289 0.961 . S
H306 C290 0.931 1_554 S
H307 C295 0.930 . S
H308 C296 0.956 . S
H309 C296 0.961 . S
H310 C296 0.961 . S
H311 C297 0.958 . S
H312 C297 0.961 . S
H313 C297 0.960 . S
C314 C315 1.391 . S
C314 C316 1.394 . S
C314 H330 0.931 . S
C315 C314 1.391 . S
C315 C319 1.376 . S
C316 C314 1.394 . S
C316 C317 1.369 . S
C316 C320 1.531 . S
C317 C316 1.369 . S
C317 C318 1.410 . S
C317 C325 1.503 . S
C318 C317 1.410 . S
C318 C319 1.392 . S
C318 C321 1.511 . S
C319 C315 1.376 . S
C319 C318 1.392 . S
C319 H331 0.929 . S
C320 C316 1.531 . S
C320 H332 0.960 . S
C320 H333 0.962 . S
C320 H334 0.960 . S
C321 C318 1.511 . S
C321 H335 0.961 . S
C321 H336 0.961 . S
C321 H337 0.961 . S
C322 C323 1.370 . S
C322 C324 1.363 . S
C322 H338 0.931 . S
C323 C322 1.370 . S
C323 C327 1.408 . S
C324 C322 1.363 . S
C324 C325 1.370 . S
C324 C328 1.524 . S
C325 C317 1.503 . S
C325 C324 1.370 . S
C325 C326 1.403 . S
C326 C325 1.403 . S
C326 C327 1.404 . S
C326 C329 1.539 . S
C327 C323 1.408 . S
C327 C326 1.404 . S
C327 H339 0.930 . S
C328 C324 1.524 . S
C328 H340 0.956 . S
C328 H341 0.961 . S
C328 H342 0.961 . S
C329 C326 1.539 . S
C329 H343 0.958 . S
C329 H344 0.961 . S
C329 H345 0.960 . S
H330 C314 0.931 . S
H331 C319 0.929 . S
H332 C320 0.960 . S
H333 C320 0.962 . S
H334 C320 0.960 . S
H335 C321 0.961 . S
H336 C321 0.961 . S
H337 C321 0.961 . S
H338 C322 0.931 . S
H339 C327 0.930 . S
H340 C328 0.956 . S
H341 C328 0.961 . S
H342 C328 0.961 . S
H343 C329 0.958 . S
H344 C329 0.961 . S
H345 C329 0.960 . S
C346 C347 1.391 . S
C346 C348 1.394 . S
C346 H362 0.931 . S
C347 C346 1.391 . S
C347 C351 1.376 . S
C348 C346 1.394 . S
C348 C349 1.369 . S
C348 C352 1.531 . S
C349 C348 1.369 . S
C349 C350 1.410 . S
C349 C357 1.503 . S
C350 C349 1.410 . S
C350 C351 1.392 . S
C350 C353 1.511 . S
C351 C347 1.376 . S
C351 C350 1.392 . S
C351 H363 0.929 . S
C352 C348 1.531 . S
C352 H364 0.960 . S
C352 H365 0.962 . S
C352 H366 0.960 . S
C353 C350 1.511 . S
C353 H367 0.961 . S
C353 H368 0.961 . S
C353 H369 0.961 . S
C354 C355 1.370 . S
C354 C356 1.363 . S
C354 H370 0.931 . S
C355 C354 1.370 . S
C355 C359 1.408 . S
C356 C354 1.363 . S
C356 C357 1.370 . S
C356 C360 1.524 . S
C357 C349 1.503 . S
C357 C356 1.370 . S
C357 C358 1.403 . S
C358 C357 1.403 . S
C358 C359 1.404 . S
C358 C361 1.539 . S
C359 C355 1.408 . S
C359 C358 1.404 . S
C359 H371 0.930 . S
C360 C356 1.524 . S
C360 H372 0.956 . S
C360 H373 0.961 . S
C360 H374 0.961 . S
C361 C358 1.539 . S
C361 H375 0.958 . S
C361 H376 0.961 . S
C361 H377 0.960 . S
H362 C346 0.931 . S
H363 C351 0.929 . S
H364 C352 0.960 . S
H365 C352 0.962 . S
H366 C352 0.960 . S
H367 C353 0.961 . S
H368 C353 0.961 . S
H369 C353 0.961 . S
H370 C354 0.931 . S
H371 C359 0.930 . S
H372 C360 0.956 . S
H373 C360 0.961 . S
H374 C360 0.961 . S
H375 C361 0.958 . S
H376 C361 0.961 . S
H377 C361 0.960 . S
C378 C379 1.391 . S
C378 C380 1.394 . S
C378 H394 0.931 . S
C379 C378 1.391 . S
C379 C383 1.376 . S
C380 C378 1.394 . S
C380 C381 1.369 . S
C380 C384 1.531 . S
C381 C380 1.369 . S
C381 C382 1.410 . S
C381 C389 1.503 . S
C382 C381 1.410 . S
C382 C383 1.392 . S
C382 C385 1.511 . S
C383 C379 1.376 . S
C383 C382 1.392 . S
C383 H395 0.929 . S
C384 C380 1.531 . S
C384 H396 0.960 . S
C384 H397 0.962 . S
C384 H398 0.960 . S
C385 C382 1.511 . S
C385 H399 0.961 . S
C385 H400 0.961 . S
C385 H401 0.961 . S
C386 C387 1.370 . S
C386 C388 1.363 . S
C386 H402 0.931 . S
C387 C386 1.370 . S
C387 C391 1.408 . S
C388 C386 1.363 . S
C388 C389 1.370 . S
C388 C392 1.524 . S
C389 C381 1.503 . S
C389 C388 1.370 . S
C389 C390 1.403 . S
C390 C389 1.403 . S
C390 C391 1.404 . S
C390 C393 1.539 . S
C391 C387 1.408 . S
C391 C390 1.404 . S
C391 H403 0.930 . S
C392 C388 1.524 . S
C392 H404 0.956 . S
C392 H405 0.961 . S
C392 H406 0.961 . S
C393 C390 1.539 . S
C393 H407 0.958 . S
C393 H408 0.961 . S
C393 H409 0.960 . S
H394 C378 0.931 . S
H395 C383 0.929 . S
H396 C384 0.960 . S
H397 C384 0.962 . S
H398 C384 0.960 . S
H399 C385 0.961 . S
H400 C385 0.961 . S
H401 C385 0.961 . S
H402 C386 0.931 . S
H403 C391 0.930 . S
H404 C392 0.956 . S
H405 C392 0.961 . S
H406 C392 0.961 . S
H407 C393 0.958 . S
H408 C393 0.961 . S
H409 C393 0.960 . S
C410 C411 1.391 . S
C410 C412 1.394 . S
C410 H426 0.931 . S
C411 C410 1.391 . S
C411 C415 1.376 . S
C412 C410 1.394 . S
C412 C413 1.369 . S
C412 C416 1.531 . S
C413 C412 1.369 . S
C413 C414 1.410 . S
C413 C421 1.503 . S
C414 C413 1.410 . S
C414 C415 1.392 . S
C414 C417 1.511 . S
C415 C411 1.376 . S
C415 C414 1.392 . S
C415 H427 0.929 . S
C416 C412 1.531 . S
C416 H428 0.960 . S
C416 H429 0.962 . S
C416 H430 0.960 . S
C417 C414 1.511 . S
C417 H431 0.961 . S
C417 H432 0.961 . S
C417 H433 0.961 . S
C418 C419 1.370 . S
C418 C420 1.363 . S
C418 H434 0.931 . S
C419 C418 1.370 . S
C419 C423 1.408 . S
C420 C418 1.363 . S
C420 C421 1.370 . S
C420 C424 1.524 . S
C421 C413 1.503 . S
C421 C420 1.370 . S
C421 C422 1.403 . S
C422 C421 1.403 . S
C422 C423 1.404 . S
C422 C425 1.539 . S
C423 C419 1.408 . S
C423 C422 1.404 . S
C423 H435 0.930 . S
C424 C420 1.524 . S
C424 H436 0.956 . S
C424 H437 0.961 . S
C424 H438 0.961 . S
C425 C422 1.539 . S
C425 H439 0.958 . S
C425 H440 0.961 . S
C425 H441 0.960 . S
H426 C410 0.931 . S
H427 C415 0.929 . S
H428 C416 0.960 . S
H429 C416 0.962 . S
H430 C416 0.960 . S
H431 C417 0.961 . S
H432 C417 0.961 . S
H433 C417 0.961 . S
H434 C418 0.931 . S
H435 C423 0.930 . S
H436 C424 0.956 . S
H437 C424 0.961 . S
H438 C424 0.961 . S
H439 C425 0.958 . S
H440 C425 0.961 . S
H441 C425 0.960 . S
C442 C443 1.391 1_545 S
C442 C444 1.394 . S
C442 H458 0.931 1_545 S
C443 C442 1.391 1_565 S
C443 C447 1.376 1_455 S
C444 C442 1.394 . S
C444 C445 1.369 . S
C444 C448 1.531 . S
C445 C444 1.369 . S
C445 C446 1.397 1_455 S
C445 C453 1.503 . S
C446 C445 1.397 1_655 S
C446 C447 1.392 1_545 S
C446 C449 1.524 . S
C447 C443 1.376 1_655 S
C447 C446 1.392 1_565 S
C447 H459 0.929 . S
C448 C444 1.531 . S
C448 H460 0.960 . S
C448 H461 0.962 1_545 S
C448 H462 0.960 . S
C449 C446 1.524 . S
C449 H463 0.961 1_545 S
C449 H464 0.967 . S
C449 H465 0.961 . S
C450 C451 1.370 1_565 S
C450 C452 1.363 . S
C450 H466 0.931 . S
C451 C450 1.370 1_545 S
C451 C455 1.408 . S
C452 C450 1.363 . S
C452 C453 1.370 1_565 S
C452 C456 1.524 . S
C453 C445 1.503 . S
C453 C452 1.370 1_545 S
C453 C454 1.403 . S
C454 C453 1.403 . S
C454 C455 1.404 . S
C454 C457 1.539 . S
C455 C451 1.408 . S
C455 C454 1.404 . S
C455 H467 0.930 . S
C456 C452 1.524 . S
C456 H468 0.956 . S
C456 H469 0.961 . S
C456 H470 0.961 . S
C457 C454 1.539 . S
C457 H471 0.958 . S
C457 H472 0.961 . S
C457 H473 0.960 . S
H458 C442 0.931 1_565 S
H459 C447 0.929 . S
H460 C448 0.960 . S
H461 C448 0.962 1_565 S
H462 C448 0.960 . S
H463 C449 0.961 1_565 S
H464 C449 0.967 . S
H465 C449 0.961 . S
H466 C450 0.931 . S
H467 C455 0.930 . S
H468 C456 0.956 . S
H469 C456 0.961 . S
H470 C456 0.961 . S
H471 C457 0.958 . S
H472 C457 0.961 . S
H473 C457 0.960 . S
C474 C475 1.391 . S
C474 C476 1.394 . S
C474 H490 0.931 . S
C475 C474 1.391 . S
C475 C479 1.378 1_455 S
C476 C474 1.394 . S
C476 C477 1.369 . S
C476 C480 1.531 . S
C477 C476 1.369 . S
C477 C478 1.410 1_465 S
C477 C485 1.503 1_565 S
C478 C477 1.410 1_645 S
C478 C479 1.392 1_545 S
C478 C481 1.511 . S
C479 C475 1.378 1_655 S
C479 C478 1.392 1_565 S
C479 H491 0.927 1_565 S
C480 C476 1.531 . S
C480 H492 0.960 . S
C480 H493 0.962 . S
C480 H494 0.960 . S
C481 C478 1.511 . S
C481 H495 0.961 . S
C481 H496 0.961 . S
C481 H497 0.961 1_545 S
C482 C483 1.370 . S
C482 C484 1.363 . S
C482 H498 0.931 . S
C483 C482 1.370 . S
C483 C487 1.408 1_445 S
C484 C482 1.363 . S
C484 C485 1.370 . S
C484 C488 1.524 . S
C485 C477 1.503 1_545 S
C485 C484 1.370 . S
C485 C486 1.403 1_445 S
C486 C485 1.403 1_665 S
C486 C487 1.404 . S
C486 C489 1.539 . S
C487 C483 1.408 1_665 S
C487 C486 1.404 . S
C487 H499 0.930 . S
C488 C484 1.524 . S
C488 H500 0.956 . S
C488 H501 0.961 . S
C488 H502 0.961 . S
C489 C486 1.539 . S
C489 H503 0.958 . S
C489 H504 0.961 . S
C489 H505 0.960 . S
H490 C474 0.931 . S
H491 C479 0.927 1_545 S
H492 C480 0.960 . S
H493 C480 0.962 . S
H494 C480 0.960 . S
H495 C481 0.961 . S
H496 C481 0.961 . S
H497 C481 0.961 1_565 S
H498 C482 0.931 . S
H499 C487 0.930 . S
H500 C488 0.956 . S
H501 C488 0.961 . S
H502 C488 0.961 . S
H503 C489 0.958 . S
H504 C489 0.961 . S
H505 C489 0.960 . S
C506 C507 1.391 . S
C506 C508 1.394 . S
C506 H522 0.931 . S
C507 C506 1.391 . S
C507 C511 1.376 . S
C508 C506 1.394 . S
C508 C509 1.369 . S
C508 C512 1.531 . S
C509 C508 1.369 . S
C509 C510 1.410 . S
C509 C517 1.503 . S
C510 C509 1.410 . S
C510 C511 1.392 . S
C510 C513 1.511 . S
C511 C507 1.376 . S
C511 C510 1.392 . S
C511 H523 0.929 . S
C512 C508 1.531 . S
C512 H524 0.960 . S
C512 H525 0.962 . S
C512 H526 0.960 . S
C513 C510 1.511 . S
C513 H527 0.961 . S
C513 H528 0.961 . S
C513 H529 0.961 . S
C514 C515 1.370 . S
C514 C516 1.363 . S
C514 H530 0.931 . S
C515 C514 1.370 . S
C515 C519 1.408 . S
C516 C514 1.363 . S
C516 C517 1.370 . S
C516 C520 1.524 . S
C517 C509 1.503 . S
C517 C516 1.370 . S
C517 C518 1.403 . S
C518 C517 1.403 . S
C518 C519 1.404 . S
C518 C521 1.539 . S
C519 C515 1.408 . S
C519 C518 1.404 . S
C519 H531 0.930 . S
C520 C516 1.524 . S
C520 H532 0.956 . S
C520 H533 0.961 . S
C520 H534 0.961 . S
C521 C518 1.539 . S
C521 H535 0.958 . S
C521 H536 0.961 . S
C521 H537 0.960 . S
H522 C506 0.931 . S
H523 C511 0.929 . S
H524 C512 0.960 . S
H525 C512 0.962 . S
H526 C512 0.960 . S
H527 C513 0.961 . S
H528 C513 0.961 . S
H529 C513 0.961 . S
H530 C514 0.931 . S
H531 C519 0.930 . S
H532 C520 0.956 . S
H533 C520 0.961 . S
H534 C520 0.961 . S
H535 C521 0.958 . S
H536 C521 0.961 . S
H537 C521 0.960 . S
C538 C539 1.391 . S
C538 C540 1.394 . S
C538 H554 0.931 . S
C539 C538 1.391 . S
C539 C543 1.376 . S
C540 C538 1.394 . S
C540 C541 1.369 . S
C540 C544 1.531 . S
C541 C540 1.369 . S
C541 C542 1.410 . S
C541 C549 1.503 . S
C542 C541 1.410 . S
C542 C543 1.392 . S
C542 C545 1.511 . S
C543 C539 1.376 . S
C543 C542 1.392 . S
C543 H555 0.929 . S
C544 C540 1.531 . S
C544 H556 0.960 . S
C544 H557 0.962 . S
C544 H558 0.960 . S
C545 C542 1.511 . S
C545 H559 0.961 . S
C545 H560 0.961 . S
C545 H561 0.961 . S
C546 C547 1.370 . S
C546 C548 1.363 . S
C546 H562 0.931 . S
C547 C546 1.370 . S
C547 C551 1.408 . S
C548 C546 1.363 . S
C548 C549 1.370 . S
C548 C552 1.524 . S
C549 C541 1.503 . S
C549 C548 1.370 . S
C549 C550 1.403 . S
C550 C549 1.403 . S
C550 C551 1.404 . S
C550 C553 1.539 . S
C551 C547 1.408 . S
C551 C550 1.404 . S
C551 H563 0.930 . S
C552 C548 1.524 . S
C552 H564 0.956 . S
C552 H565 0.961 . S
C552 H566 0.961 . S
C553 C550 1.539 . S
C553 H567 0.958 . S
C553 H568 0.961 . S
C553 H569 0.960 . S
H554 C538 0.931 . S
H555 C543 0.929 . S
H556 C544 0.960 . S
H557 C544 0.962 . S
H558 C544 0.960 . S
H559 C545 0.961 . S
H560 C545 0.961 . S
H561 C545 0.961 . S
H562 C546 0.931 . S
H563 C551 0.930 . S
H564 C552 0.956 . S
H565 C552 0.961 . S
H566 C552 0.961 . S
H567 C553 0.958 . S
H568 C553 0.961 . S
H569 C553 0.960 . S
C195 C151 1.242 . S
C187 C3 1.157 . S
C219 C4 1.538 1_556 S
C227 C115 1.610 . S
C251 C19 1.564 . S
C259 C175 1.600 . S
C283 C7 1.059 1_554 S
C291 C139 1.222 . S
C315 C37 1.178 . S
C323 C79 1.243 . S
C347 C28 1.538 . S
C355 C43 1.611 . S
C387 C103 1.602 . S
C379 C41 1.554 . S
C419 C67 1.219 . S
C411 C25 1.070 . S
C443 C20 1.271 . S
C451 C73 1.465 . S
C475 C16 1.347 . S
C483 C109 1.488 . S
C515 C145 1.463 . S
C507 C40 1.345 . S
C539 C24 1.391 . S
C547 C181 1.488 . S
