# Generated by pormake.
# Topology bpr, (3,3)-cn, num edge types: 1
# Building blocks:
#     Node 0, Type 0, BuildingBlock: OLANEW_clean_sbu_2, # of connection points: 3
#     Node 1, Type 0, BuildingBlock: OLANEW_clean_sbu_2, # of connection points: 3
#     Node 2, Type 0, BuildingBlock: OLANEW_clean_sbu_2, # of connection points: 3
#     Node 3, Type 0, BuildingBlock: OLANEW_clean_sbu_2, # of connection points: 3
#     Node 4, Type 0, BuildingBlock: OLANEW_clean_sbu_2, # of connection points: 3
#     Node 5, Type 0, BuildingBlock: OLANEW_clean_sbu_2, # of connection points: 3
#     Node 6, Type 0, BuildingBlock: OLANEW_clean_sbu_2, # of connection points: 3
#     Node 7, Type 0, BuildingBlock: OLANEW_clean_sbu_2, # of connection points: 3
#     Node 8, Type 0, BuildingBlock: OLANEW_clean_sbu_2, # of connection points: 3
#     Node 9, Type 0, BuildingBlock: OLANEW_clean_sbu_2, # of connection points: 3
#     Node 10, Type 0, BuildingBlock: OLANEW_clean_sbu_2, # of connection points: 3
#     Node 11, Type 0, BuildingBlock: OLANEW_clean_sbu_2, # of connection points: 3
#     Node 12, Type 0, BuildingBlock: OLANEW_clean_sbu_2, # of connection points: 3
#     Node 13, Type 0, BuildingBlock: OLANEW_clean_sbu_2, # of connection points: 3
#     Node 14, Type 0, BuildingBlock: OLANEW_clean_sbu_2, # of connection points: 3
#     Node 15, Type 0, BuildingBlock: OLANEW_clean_sbu_2, # of connection points: 3
#     Node 16, Type 0, BuildingBlock: OLANEW_clean_sbu_2, # of connection points: 3
#     Node 17, Type 0, BuildingBlock: OLANEW_clean_sbu_2, # of connection points: 3
#     Node 18, Type 0, BuildingBlock: OLANEW_clean_sbu_2, # of connection points: 3
#     Node 19, Type 0, BuildingBlock: OLANEW_clean_sbu_2, # of connection points: 3
#     Node 20, Type 0, BuildingBlock: OLANEW_clean_sbu_2, # of connection points: 3
#     Node 21, Type 0, BuildingBlock: OLANEW_clean_sbu_2, # of connection points: 3
#     Node 22, Type 0, BuildingBlock: OLANEW_clean_sbu_2, # of connection points: 3
#     Node 23, Type 0, BuildingBlock: OLANEW_clean_sbu_2, # of connection points: 3
#     Node 24, Type 0, BuildingBlock: OLANEW_clean_sbu_2, # of connection points: 3
#     Node 25, Type 0, BuildingBlock: OLANEW_clean_sbu_2, # of connection points: 3
#     Node 26, Type 0, BuildingBlock: OLANEW_clean_sbu_2, # of connection points: 3
#     Node 27, Type 0, BuildingBlock: OLANEW_clean_sbu_2, # of connection points: 3
#     Node 28, Type 0, BuildingBlock: OLANEW_clean_sbu_2, # of connection points: 3
#     Node 29, Type 0, BuildingBlock: OLANEW_clean_sbu_2, # of connection points: 3
#     Node 30, Type 0, BuildingBlock: OLANEW_clean_sbu_2, # of connection points: 3
#     Node 31, Type 0, BuildingBlock: OLANEW_clean_sbu_2, # of connection points: 3
#     Node 32, Type 0, BuildingBlock: OLANEW_clean_sbu_2, # of connection points: 3
#     Node 33, Type 0, BuildingBlock: OLANEW_clean_sbu_2, # of connection points: 3
#     Node 34, Type 0, BuildingBlock: OLANEW_clean_sbu_2, # of connection points: 3
#     Node 35, Type 0, BuildingBlock: OLANEW_clean_sbu_2, # of connection points: 3
#     Node 36, Type 0, BuildingBlock: OLANEW_clean_sbu_2, # of connection points: 3
#     Node 37, Type 0, BuildingBlock: OLANEW_clean_sbu_2, # of connection points: 3
#     Node 38, Type 0, BuildingBlock: OLANEW_clean_sbu_2, # of connection points: 3
#     Node 39, Type 0, BuildingBlock: OLANEW_clean_sbu_2, # of connection points: 3
#     Node 40, Type 0, BuildingBlock: OLANEW_clean_sbu_2, # of connection points: 3
#     Node 41, Type 0, BuildingBlock: OLANEW_clean_sbu_2, # of connection points: 3
#     Node 42, Type 0, BuildingBlock: OLANEW_clean_sbu_2, # of connection points: 3
#     Node 43, Type 0, BuildingBlock: OLANEW_clean_sbu_2, # of connection points: 3
#     Node 44, Type 0, BuildingBlock: OLANEW_clean_sbu_2, # of connection points: 3
#     Node 45, Type 0, BuildingBlock: OLANEW_clean_sbu_2, # of connection points: 3
#     Node 46, Type 0, BuildingBlock: OLANEW_clean_sbu_2, # of connection points: 3
#     Node 47, Type 0, BuildingBlock: OLANEW_clean_sbu_2, # of connection points: 3
#     Node 48, Type 1, BuildingBlock: BETDIP_clean_linker_0, # of connection points: 3
#     Node 49, Type 1, BuildingBlock: BETDIP_clean_linker_0, # of connection points: 3
#     Node 50, Type 1, BuildingBlock: BETDIP_clean_linker_0, # of connection points: 3
#     Node 51, Type 1, BuildingBlock: BETDIP_clean_linker_0, # of connection points: 3
#     Node 52, Type 1, BuildingBlock: BETDIP_clean_linker_0, # of connection points: 3
#     Node 53, Type 1, BuildingBlock: BETDIP_clean_linker_0, # of connection points: 3
#     Node 54, Type 1, BuildingBlock: BETDIP_clean_linker_0, # of connection points: 3
#     Node 55, Type 1, BuildingBlock: BETDIP_clean_linker_0, # of connection points: 3
#     Node 56, Type 1, BuildingBlock: BETDIP_clean_linker_0, # of connection points: 3
#     Node 57, Type 1, BuildingBlock: BETDIP_clean_linker_0, # of connection points: 3
#     Node 58, Type 1, BuildingBlock: BETDIP_clean_linker_0, # of connection points: 3
#     Node 59, Type 1, BuildingBlock: BETDIP_clean_linker_0, # of connection points: 3
#     Node 60, Type 1, BuildingBlock: BETDIP_clean_linker_0, # of connection points: 3
#     Node 61, Type 1, BuildingBlock: BETDIP_clean_linker_0, # of connection points: 3
#     Node 62, Type 1, BuildingBlock: BETDIP_clean_linker_0, # of connection points: 3
#     Node 63, Type 1, BuildingBlock: BETDIP_clean_linker_0, # of connection points: 3
#     Node 64, Type 1, BuildingBlock: BETDIP_clean_linker_0, # of connection points: 3
#     Node 65, Type 1, BuildingBlock: BETDIP_clean_linker_0, # of connection points: 3
#     Node 66, Type 1, BuildingBlock: BETDIP_clean_linker_0, # of connection points: 3
#     Node 67, Type 1, BuildingBlock: BETDIP_clean_linker_0, # of connection points: 3
#     Node 68, Type 1, BuildingBlock: BETDIP_clean_linker_0, # of connection points: 3
#     Node 69, Type 1, BuildingBlock: BETDIP_clean_linker_0, # of connection points: 3
#     Node 70, Type 1, BuildingBlock: BETDIP_clean_linker_0, # of connection points: 3
#     Node 71, Type 1, BuildingBlock: BETDIP_clean_linker_0, # of connection points: 3
#     Node 72, Type 1, BuildingBlock: BETDIP_clean_linker_0, # of connection points: 3
#     Node 73, Type 1, BuildingBlock: BETDIP_clean_linker_0, # of connection points: 3
#     Node 74, Type 1, BuildingBlock: BETDIP_clean_linker_0, # of connection points: 3
#     Node 75, Type 1, BuildingBlock: BETDIP_clean_linker_0, # of connection points: 3
#     Node 76, Type 1, BuildingBlock: BETDIP_clean_linker_0, # of connection points: 3
#     Node 77, Type 1, BuildingBlock: BETDIP_clean_linker_0, # of connection points: 3
#     Node 78, Type 1, BuildingBlock: BETDIP_clean_linker_0, # of connection points: 3
#     Node 79, Type 1, BuildingBlock: BETDIP_clean_linker_0, # of connection points: 3
#     Node 80, Type 1, BuildingBlock: BETDIP_clean_linker_0, # of connection points: 3
#     Node 81, Type 1, BuildingBlock: BETDIP_clean_linker_0, # of connection points: 3
#     Node 82, Type 1, BuildingBlock: BETDIP_clean_linker_0, # of connection points: 3
#     Node 83, Type 1, BuildingBlock: BETDIP_clean_linker_0, # of connection points: 3
#     Node 84, Type 1, BuildingBlock: BETDIP_clean_linker_0, # of connection points: 3
#     Node 85, Type 1, BuildingBlock: BETDIP_clean_linker_0, # of connection points: 3
#     Node 86, Type 1, BuildingBlock: BETDIP_clean_linker_0, # of connection points: 3
#     Node 87, Type 1, BuildingBlock: BETDIP_clean_linker_0, # of connection points: 3
#     Node 88, Type 1, BuildingBlock: BETDIP_clean_linker_0, # of connection points: 3
#     Node 89, Type 1, BuildingBlock: BETDIP_clean_linker_0, # of connection points: 3
#     Node 90, Type 1, BuildingBlock: BETDIP_clean_linker_0, # of connection points: 3
#     Node 91, Type 1, BuildingBlock: BETDIP_clean_linker_0, # of connection points: 3
#     Node 92, Type 1, BuildingBlock: BETDIP_clean_linker_0, # of connection points: 3
#     Node 93, Type 1, BuildingBlock: BETDIP_clean_linker_0, # of connection points: 3
#     Node 94, Type 1, BuildingBlock: BETDIP_clean_linker_0, # of connection points: 3
#     Node 95, Type 1, BuildingBlock: BETDIP_clean_linker_0, # of connection points: 3
#     Edge 96, Type (0, 1), BuildingBlock: OJICUG_clean_linker_0, # of connection points: 2
#     Edge 97, Type (0, 1), BuildingBlock: OJICUG_clean_linker_0, # of connection points: 2
#     Edge 98, Type (0, 1), BuildingBlock: OJICUG_clean_linker_0, # of connection points: 2
#     Edge 99, Type (0, 1), BuildingBlock: OJICUG_clean_linker_0, # of connection points: 2
#     Edge 100, Type (0, 1), BuildingBlock: OJICUG_clean_linker_0, # of connection points: 2
#     Edge 101, Type (0, 1), BuildingBlock: OJICUG_clean_linker_0, # of connection points: 2
#     Edge 102, Type (0, 1), BuildingBlock: OJICUG_clean_linker_0, # of connection points: 2
#     Edge 103, Type (0, 1), BuildingBlock: OJICUG_clean_linker_0, # of connection points: 2
#     Edge 104, Type (0, 1), BuildingBlock: OJICUG_clean_linker_0, # of connection points: 2
#     Edge 105, Type (0, 1), BuildingBlock: OJICUG_clean_linker_0, # of connection points: 2
#     Edge 106, Type (0, 1), BuildingBlock: OJICUG_clean_linker_0, # of connection points: 2
#     Edge 107, Type (0, 1), BuildingBlock: OJICUG_clean_linker_0, # of connection points: 2
#     Edge 108, Type (0, 1), BuildingBlock: OJICUG_clean_linker_0, # of connection points: 2
#     Edge 109, Type (0, 1), BuildingBlock: OJICUG_clean_linker_0, # of connection points: 2
#     Edge 110, Type (0, 1), BuildingBlock: OJICUG_clean_linker_0, # of connection points: 2
#     Edge 111, Type (0, 1), BuildingBlock: OJICUG_clean_linker_0, # of connection points: 2
#     Edge 112, Type (0, 1), BuildingBlock: OJICUG_clean_linker_0, # of connection points: 2
#     Edge 113, Type (0, 1), BuildingBlock: OJICUG_clean_linker_0, # of connection points: 2
#     Edge 114, Type (0, 1), BuildingBlock: OJICUG_clean_linker_0, # of connection points: 2
#     Edge 115, Type (0, 1), BuildingBlock: OJICUG_clean_linker_0, # of connection points: 2
#     Edge 116, Type (0, 1), BuildingBlock: OJICUG_clean_linker_0, # of connection points: 2
#     Edge 117, Type (0, 1), BuildingBlock: OJICUG_clean_linker_0, # of connection points: 2
#     Edge 118, Type (0, 1), BuildingBlock: OJICUG_clean_linker_0, # of connection points: 2
#     Edge 119, Type (0, 1), BuildingBlock: OJICUG_clean_linker_0, # of connection points: 2
#     Edge 120, Type (0, 1), BuildingBlock: OJICUG_clean_linker_0, # of connection points: 2
#     Edge 121, Type (0, 1), BuildingBlock: OJICUG_clean_linker_0, # of connection points: 2
#     Edge 122, Type (0, 1), BuildingBlock: OJICUG_clean_linker_0, # of connection points: 2
#     Edge 123, Type (0, 1), BuildingBlock: OJICUG_clean_linker_0, # of connection points: 2
#     Edge 124, Type (0, 1), BuildingBlock: OJICUG_clean_linker_0, # of connection points: 2
#     Edge 125, Type (0, 1), BuildingBlock: OJICUG_clean_linker_0, # of connection points: 2
#     Edge 126, Type (0, 1), BuildingBlock: OJICUG_clean_linker_0, # of connection points: 2
#     Edge 127, Type (0, 1), BuildingBlock: OJICUG_clean_linker_0, # of connection points: 2
#     Edge 128, Type (0, 1), BuildingBlock: OJICUG_clean_linker_0, # of connection points: 2
#     Edge 129, Type (0, 1), BuildingBlock: OJICUG_clean_linker_0, # of connection points: 2
#     Edge 130, Type (0, 1), BuildingBlock: OJICUG_clean_linker_0, # of connection points: 2
#     Edge 131, Type (0, 1), BuildingBlock: OJICUG_clean_linker_0, # of connection points: 2
#     Edge 132, Type (0, 1), BuildingBlock: OJICUG_clean_linker_0, # of connection points: 2
#     Edge 133, Type (0, 1), BuildingBlock: OJICUG_clean_linker_0, # of connection points: 2
#     Edge 134, Type (0, 1), BuildingBlock: OJICUG_clean_linker_0, # of connection points: 2
#     Edge 135, Type (0, 1), BuildingBlock: OJICUG_clean_linker_0, # of connection points: 2
#     Edge 136, Type (0, 1), BuildingBlock: OJICUG_clean_linker_0, # of connection points: 2
#     Edge 137, Type (0, 1), BuildingBlock: OJICUG_clean_linker_0, # of connection points: 2
#     Edge 138, Type (0, 1), BuildingBlock: OJICUG_clean_linker_0, # of connection points: 2
#     Edge 139, Type (0, 1), BuildingBlock: OJICUG_clean_linker_0, # of connection points: 2
#     Edge 140, Type (0, 1), BuildingBlock: OJICUG_clean_linker_0, # of connection points: 2
#     Edge 141, Type (0, 1), BuildingBlock: OJICUG_clean_linker_0, # of connection points: 2
#     Edge 142, Type (0, 1), BuildingBlock: OJICUG_clean_linker_0, # of connection points: 2
#     Edge 143, Type (0, 1), BuildingBlock: OJICUG_clean_linker_0, # of connection points: 2
#     Edge 144, Type (0, 1), BuildingBlock: OJICUG_clean_linker_0, # of connection points: 2
#     Edge 145, Type (0, 1), BuildingBlock: OJICUG_clean_linker_0, # of connection points: 2
#     Edge 146, Type (0, 1), BuildingBlock: OJICUG_clean_linker_0, # of connection points: 2
#     Edge 147, Type (0, 1), BuildingBlock: OJICUG_clean_linker_0, # of connection points: 2
#     Edge 148, Type (0, 1), BuildingBlock: OJICUG_clean_linker_0, # of connection points: 2
#     Edge 149, Type (0, 1), BuildingBlock: OJICUG_clean_linker_0, # of connection points: 2
#     Edge 150, Type (0, 1), BuildingBlock: OJICUG_clean_linker_0, # of connection points: 2
#     Edge 151, Type (0, 1), BuildingBlock: OJICUG_clean_linker_0, # of connection points: 2
#     Edge 152, Type (0, 1), BuildingBlock: OJICUG_clean_linker_0, # of connection points: 2
#     Edge 153, Type (0, 1), BuildingBlock: OJICUG_clean_linker_0, # of connection points: 2
#     Edge 154, Type (0, 1), BuildingBlock: OJICUG_clean_linker_0, # of connection points: 2
#     Edge 155, Type (0, 1), BuildingBlock: OJICUG_clean_linker_0, # of connection points: 2
#     Edge 156, Type (0, 1), BuildingBlock: OJICUG_clean_linker_0, # of connection points: 2
#     Edge 157, Type (0, 1), BuildingBlock: OJICUG_clean_linker_0, # of connection points: 2
#     Edge 158, Type (0, 1), BuildingBlock: OJICUG_clean_linker_0, # of connection points: 2
#     Edge 159, Type (0, 1), BuildingBlock: OJICUG_clean_linker_0, # of connection points: 2
#     Edge 160, Type (0, 1), BuildingBlock: OJICUG_clean_linker_0, # of connection points: 2
#     Edge 161, Type (0, 1), BuildingBlock: OJICUG_clean_linker_0, # of connection points: 2
#     Edge 162, Type (0, 1), BuildingBlock: OJICUG_clean_linker_0, # of connection points: 2
#     Edge 163, Type (0, 1), BuildingBlock: OJICUG_clean_linker_0, # of connection points: 2
#     Edge 164, Type (0, 1), BuildingBlock: OJICUG_clean_linker_0, # of connection points: 2
#     Edge 165, Type (0, 1), BuildingBlock: OJICUG_clean_linker_0, # of connection points: 2
#     Edge 166, Type (0, 1), BuildingBlock: OJICUG_clean_linker_0, # of connection points: 2
#     Edge 167, Type (0, 1), BuildingBlock: OJICUG_clean_linker_0, # of connection points: 2
#     Edge 168, Type (0, 1), BuildingBlock: OJICUG_clean_linker_0, # of connection points: 2
#     Edge 169, Type (0, 1), BuildingBlock: OJICUG_clean_linker_0, # of connection points: 2
#     Edge 170, Type (0, 1), BuildingBlock: OJICUG_clean_linker_0, # of connection points: 2
#     Edge 171, Type (0, 1), BuildingBlock: OJICUG_clean_linker_0, # of connection points: 2
#     Edge 172, Type (0, 1), BuildingBlock: OJICUG_clean_linker_0, # of connection points: 2
#     Edge 173, Type (0, 1), BuildingBlock: OJICUG_clean_linker_0, # of connection points: 2
#     Edge 174, Type (0, 1), BuildingBlock: OJICUG_clean_linker_0, # of connection points: 2
#     Edge 175, Type (0, 1), BuildingBlock: OJICUG_clean_linker_0, # of connection points: 2
#     Edge 176, Type (0, 1), BuildingBlock: OJICUG_clean_linker_0, # of connection points: 2
#     Edge 177, Type (0, 1), BuildingBlock: OJICUG_clean_linker_0, # of connection points: 2
#     Edge 178, Type (0, 1), BuildingBlock: OJICUG_clean_linker_0, # of connection points: 2
#     Edge 179, Type (0, 1), BuildingBlock: OJICUG_clean_linker_0, # of connection points: 2
#     Edge 180, Type (0, 1), BuildingBlock: OJICUG_clean_linker_0, # of connection points: 2
#     Edge 181, Type (0, 1), BuildingBlock: OJICUG_clean_linker_0, # of connection points: 2
#     Edge 182, Type (0, 1), BuildingBlock: OJICUG_clean_linker_0, # of connection points: 2
#     Edge 183, Type (0, 1), BuildingBlock: OJICUG_clean_linker_0, # of connection points: 2
#     Edge 184, Type (0, 1), BuildingBlock: OJICUG_clean_linker_0, # of connection points: 2
#     Edge 185, Type (0, 1), BuildingBlock: OJICUG_clean_linker_0, # of connection points: 2
#     Edge 186, Type (0, 1), BuildingBlock: OJICUG_clean_linker_0, # of connection points: 2
#     Edge 187, Type (0, 1), BuildingBlock: OJICUG_clean_linker_0, # of connection points: 2
#     Edge 188, Type (0, 1), BuildingBlock: OJICUG_clean_linker_0, # of connection points: 2
#     Edge 189, Type (0, 1), BuildingBlock: OJICUG_clean_linker_0, # of connection points: 2
#     Edge 190, Type (0, 1), BuildingBlock: OJICUG_clean_linker_0, # of connection points: 2
#     Edge 191, Type (0, 1), BuildingBlock: OJICUG_clean_linker_0, # of connection points: 2
#     Edge 192, Type (0, 1), BuildingBlock: OJICUG_clean_linker_0, # of connection points: 2
#     Edge 193, Type (0, 1), BuildingBlock: OJICUG_clean_linker_0, # of connection points: 2
#     Edge 194, Type (0, 1), BuildingBlock: OJICUG_clean_linker_0, # of connection points: 2
#     Edge 195, Type (0, 1), BuildingBlock: OJICUG_clean_linker_0, # of connection points: 2
#     Edge 196, Type (0, 1), BuildingBlock: OJICUG_clean_linker_0, # of connection points: 2
#     Edge 197, Type (0, 1), BuildingBlock: OJICUG_clean_linker_0, # of connection points: 2
#     Edge 198, Type (0, 1), BuildingBlock: OJICUG_clean_linker_0, # of connection points: 2
#     Edge 199, Type (0, 1), BuildingBlock: OJICUG_clean_linker_0, # of connection points: 2
#     Edge 200, Type (0, 1), BuildingBlock: OJICUG_clean_linker_0, # of connection points: 2
#     Edge 201, Type (0, 1), BuildingBlock: OJICUG_clean_linker_0, # of connection points: 2
#     Edge 202, Type (0, 1), BuildingBlock: OJICUG_clean_linker_0, # of connection points: 2
#     Edge 203, Type (0, 1), BuildingBlock: OJICUG_clean_linker_0, # of connection points: 2
#     Edge 204, Type (0, 1), BuildingBlock: OJICUG_clean_linker_0, # of connection points: 2
#     Edge 205, Type (0, 1), BuildingBlock: OJICUG_clean_linker_0, # of connection points: 2
#     Edge 206, Type (0, 1), BuildingBlock: OJICUG_clean_linker_0, # of connection points: 2
#     Edge 207, Type (0, 1), BuildingBlock: OJICUG_clean_linker_0, # of connection points: 2
#     Edge 208, Type (0, 1), BuildingBlock: OJICUG_clean_linker_0, # of connection points: 2
#     Edge 209, Type (0, 1), BuildingBlock: OJICUG_clean_linker_0, # of connection points: 2
#     Edge 210, Type (0, 1), BuildingBlock: OJICUG_clean_linker_0, # of connection points: 2
#     Edge 211, Type (0, 1), BuildingBlock: OJICUG_clean_linker_0, # of connection points: 2
#     Edge 212, Type (0, 1), BuildingBlock: OJICUG_clean_linker_0, # of connection points: 2
#     Edge 213, Type (0, 1), BuildingBlock: OJICUG_clean_linker_0, # of connection points: 2
#     Edge 214, Type (0, 1), BuildingBlock: OJICUG_clean_linker_0, # of connection points: 2
#     Edge 215, Type (0, 1), BuildingBlock: OJICUG_clean_linker_0, # of connection points: 2
#     Edge 216, Type (0, 1), BuildingBlock: OJICUG_clean_linker_0, # of connection points: 2
#     Edge 217, Type (0, 1), BuildingBlock: OJICUG_clean_linker_0, # of connection points: 2
#     Edge 218, Type (0, 1), BuildingBlock: OJICUG_clean_linker_0, # of connection points: 2
#     Edge 219, Type (0, 1), BuildingBlock: OJICUG_clean_linker_0, # of connection points: 2
#     Edge 220, Type (0, 1), BuildingBlock: OJICUG_clean_linker_0, # of connection points: 2
#     Edge 221, Type (0, 1), BuildingBlock: OJICUG_clean_linker_0, # of connection points: 2
#     Edge 222, Type (0, 1), BuildingBlock: OJICUG_clean_linker_0, # of connection points: 2
#     Edge 223, Type (0, 1), BuildingBlock: OJICUG_clean_linker_0, # of connection points: 2
#     Edge 224, Type (0, 1), BuildingBlock: OJICUG_clean_linker_0, # of connection points: 2
#     Edge 225, Type (0, 1), BuildingBlock: OJICUG_clean_linker_0, # of connection points: 2
#     Edge 226, Type (0, 1), BuildingBlock: OJICUG_clean_linker_0, # of connection points: 2
#     Edge 227, Type (0, 1), BuildingBlock: OJICUG_clean_linker_0, # of connection points: 2
#     Edge 228, Type (0, 1), BuildingBlock: OJICUG_clean_linker_0, # of connection points: 2
#     Edge 229, Type (0, 1), BuildingBlock: OJICUG_clean_linker_0, # of connection points: 2
#     Edge 230, Type (0, 1), BuildingBlock: OJICUG_clean_linker_0, # of connection points: 2
#     Edge 231, Type (0, 1), BuildingBlock: OJICUG_clean_linker_0, # of connection points: 2
#     Edge 232, Type (0, 1), BuildingBlock: OJICUG_clean_linker_0, # of connection points: 2
#     Edge 233, Type (0, 1), BuildingBlock: OJICUG_clean_linker_0, # of connection points: 2
#     Edge 234, Type (0, 1), BuildingBlock: OJICUG_clean_linker_0, # of connection points: 2
#     Edge 235, Type (0, 1), BuildingBlock: OJICUG_clean_linker_0, # of connection points: 2
#     Edge 236, Type (0, 1), BuildingBlock: OJICUG_clean_linker_0, # of connection points: 2
#     Edge 237, Type (0, 1), BuildingBlock: OJICUG_clean_linker_0, # of connection points: 2
#     Edge 238, Type (0, 1), BuildingBlock: OJICUG_clean_linker_0, # of connection points: 2
#     Edge 239, Type (0, 1), BuildingBlock: OJICUG_clean_linker_0, # of connection points: 2
# Relax obj value: 0.014
# Max RMSD: 0.113
# Mean RMSD: 0.058
data_MOF--net-bpr--node1-OLANEW_clean_sbu_2--node2-BETDIP_clean_linker_0--edge1-OJICUG_clean_linker_0
_symmetry_space_group_name_H-M    P1
_symmetry_Int_Tables_number       1
_symmetry_cell_setting            triclinic
loop_
_symmetry_equiv_pos_as_xyz
'x, y, z'
_cell_length_a     60.913212
_cell_length_b     67.952393
_cell_length_c     64.983948
_cell_angle_alpha  96.540585
_cell_angle_beta   93.224601
_cell_angle_gamma 95.873412
loop_
_atom_site_label
_atom_site_type_symbol
_atom_site_fract_x
_atom_site_fract_y
_atom_site_fract_z
_atom_type_partial_charge
O0 O 0.05775 0.34884 0.26911 0.0
Cd1 Cd 0.02462 0.35168 0.24714 0.0
O2 O 0.04127 0.34375 0.29765 0.0
Cd3 Cd 0.00772 0.34611 0.28528 0.0
O4 O 0.97338 0.35125 0.28949 0.0
C5 C 0.95814 0.33679 0.28761 0.0
O6 O 0.96307 0.31872 0.28172 0.0
C7 C 0.05882 0.34566 0.28803 0.0
C8 C 0.03744 0.36093 0.20843 0.0
O9 O 0.03518 0.37474 0.22308 0.0
O10 O 0.03322 0.34281 0.21197 0.0
O11 O 0.83854 0.82362 0.54184 0.0
Cd12 Cd 0.85187 0.79774 0.51783 0.0
O13 O 0.83696 0.80486 0.56731 0.0
Cd14 Cd 0.84576 0.77697 0.5517 0.0
O15 O 0.85193 0.74934 0.564 0.0
C16 C 0.8604 0.75211 0.58257 0.0
O17 O 0.86548 0.77049 0.59148 0.0
C18 C 0.83485 0.82143 0.56055 0.0
C19 C 0.88149 0.81554 0.49234 0.0
O20 O 0.86103 0.81096 0.48625 0.0
O21 O 0.88799 0.81136 0.51027 0.0
O22 O 0.52296 0.63466 0.77312 0.0
Cd23 Cd 0.55953 0.64136 0.76005 0.0
O24 O 0.51447 0.61075 0.7474 0.0
Cd25 Cd 0.48822 0.5925 0.72783 0.0
O26 O 0.4591 0.59269 0.70699 0.0
C27 C 0.45237 0.60967 0.70589 0.0
O28 O 0.46298 0.6253 0.71738 0.0
C29 C 0.50899 0.62118 0.76337 0.0
C30 C 0.59351 0.64607 0.7913 0.0
O31 O 0.58298 0.66075 0.78739 0.0
O32 O 0.58793 0.62914 0.78045 0.0
O33 O 0.56117 0.15978 0.0627 0.0
Cd34 Cd 0.55718 0.18438 0.03852 0.0
O35 O 0.5975 0.16311 0.06341 0.0
Cd36 Cd 0.59772 0.17608 0.03419 0.0
O37 O 0.60351 0.1658 0.00204 0.0
C38 C 0.59799 0.14723 0.99707 0.0
O39 O 0.58855 0.13696 0.01078 0.0
C40 C 0.5797 0.15604 0.07046 0.0
C41 C 0.554 0.22129 0.06135 0.0
O42 O 0.53676 0.20894 0.05591 0.0
O43 O 0.57269 0.21634 0.05566 0.0
O44 O 0.04984 0.61634 0.17277 0.0
Cd45 Cd 0.02695 0.60816 0.20102 0.0
O46 O 0.04399 0.64792 0.1752 0.0
Cd47 Cd 0.01502 0.6434 0.1931 0.0
O48 O 0.97903 0.64278 0.1898 0.0
C49 C 0.97126 0.65897 0.18683 0.0
O50 O 0.98499 0.67531 0.18763 0.0
C51 C 0.05404 0.63367 0.16737 0.0
C52 C 0.05344 0.59737 0.23359 0.0
O53 O 0.04499 0.58437 0.21865 0.0
O54 O 0.04912 0.61541 0.23327 0.0
O55 O 0.6236 0.77441 0.47074 0.0
Cd56 Cd 0.6158 0.74276 0.48483 0.0
O57 O 0.6151 0.79159 0.49924 0.0
Cd58 Cd 0.60712 0.81805 0.51867 0.0
O59 O 0.60302 0.845 0.53917 0.0
C60 C 0.60942 0.84604 0.55825 0.0
O61 O 0.61805 0.83081 0.56497 0.0
C62 C 0.62113 0.79113 0.48077 0.0
C63 C 0.61336 0.71122 0.45296 0.0
O64 O 0.59651 0.72054 0.45678 0.0
O65 O 0.63128 0.71661 0.46439 0.0
O66 O 0.44036 0.45746 0.74695 0.0
Cd67 Cd 0.46994 0.46189 0.77486 0.0
O68 O 0.45522 0.42997 0.73911 0.0
Cd69 Cd 0.46305 0.4043 0.71865 0.0
O70 O 0.49081 0.39478 0.70191 0.0
C71 C 0.49932 0.40734 0.69077 0.0
O72 O 0.48972 0.42358 0.68893 0.0
C73 C 0.44054 0.44126 0.73514 0.0
C74 C 0.45535 0.44318 0.80833 0.0
O75 O 0.45446 0.46187 0.80771 0.0
O76 O 0.46372 0.43332 0.79327 0.0
O77 O 0.8921 0.2246 0.96361 0.0
Cd78 Cd 0.91006 0.25283 0.9872 0.0
O79 O 0.88846 0.20072 0.98395 0.0
Cd80 Cd 0.90394 0.21659 0.01322 0.0
O81 O 0.91467 0.21236 0.04506 0.0
C82 C 0.92456 0.19694 0.04659 0.0
O83 O 0.92855 0.18603 0.02945 0.0
C84 C 0.88566 0.20673 0.96625 0.0
C85 C 0.9129 0.28494 0.96383 0.0
O86 O 0.92879 0.27405 0.96506 0.0
O87 O 0.89612 0.28116 0.97434 0.0
O88 O 0.32317 0.98285 0.36586 0.0
Cd89 Cd 0.29936 0.95132 0.36158 0.0
O90 O 0.29968 0.99592 0.38636 0.0
Cd91 Cd 0.28901 0.02251 0.40326 0.0
O92 O 0.2775 0.05172 0.41034 0.0
C93 C 0.25899 0.0547 0.40191 0.0
O94 O 0.24736 0.03999 0.38987 0.0
C95 C 0.31774 0.99758 0.37753 0.0
C96 C 0.32556 0.92001 0.35974 0.0
O97 O 0.3187 0.92678 0.34319 0.0
O98 O 0.31965 0.92784 0.37717 0.0
O99 O 0.21488 0.01527 0.68027 0.0
Cd100 Cd 0.23004 0.98381 0.684 0.0
O101 O 0.24636 0.0263 0.66882 0.0
Cd102 Cd 0.27056 0.04859 0.6588 0.0
O103 O 0.29784 0.06893 0.65069 0.0
C104 C 0.31224 0.07707 0.66484 0.0
O105 O 0.31004 0.07322 0.68402 0.0
C106 C 0.22677 0.02912 0.67326 0.0
C107 C 0.19775 0.95163 0.67302 0.0
O108 O 0.20106 0.95988 0.69184 0.0
O109 O 0.20989 0.95848 0.65941 0.0
O110 O 0.17447 0.92361 0.86551 0.0
Cd111 Cd 0.20601 0.9494 0.87053 0.0
O112 O 0.15693 0.94404 0.84857 0.0
Cd113 Cd 0.12666 0.95312 0.83469 0.0
O114 O 0.09704 0.96796 0.82988 0.0
C115 C 0.08503 0.97081 0.84509 0.0
O116 O 0.09049 0.96405 0.86261 0.0
C117 C 0.15716 0.92732 0.85551 0.0
C118 C 0.24615 0.93312 0.87002 0.0
O119 O 0.23651 0.93633 0.88692 0.0
O120 O 0.23681 0.93768 0.8533 0.0
O121 O 0.27451 0.96979 0.09544 0.0
Cd122 Cd 0.24217 0.98831 0.09557 0.0
O123 O 0.28106 0.97255 0.12937 0.0
Cd124 Cd 0.24791 0.98103 0.13341 0.0
O125 O 0.21452 0.96561 0.13086 0.0
C126 C 0.21418 0.94727 0.12409 0.0
O127 O 0.23292 0.94038 0.11949 0.0
C128 C 0.28682 0.96734 0.11122 0.0
C129 C 0.25924 0.02754 0.09356 0.0
O130 O 0.2555 0.02121 0.11101 0.0
O131 O 0.25376 0.01556 0.07695 0.0
O132 O 0.34859 0.29871 0.01433 0.0
Cd133 Cd 0.35072 0.27605 0.9827 0.0
O134 O 0.36485 0.28042 0.03518 0.0
Cd135 Cd 0.36502 0.25374 0.01318 0.0
O136 O 0.36286 0.22183 0.01544 0.0
C137 C 0.37988 0.21495 0.02279 0.0
O138 O 0.39842 0.22685 0.02663 0.0
C139 C 0.35644 0.29633 0.0323 0.0
C140 C 0.36094 0.29901 0.95084 0.0
O141 O 0.34081 0.29402 0.95453 0.0
O142 O 0.37623 0.2927 0.96187 0.0
O143 O 0.93883 0.9388 0.24645 0.0
Cd144 Cd 0.9704 0.9384 0.27133 0.0
O145 O 0.94928 0.91038 0.23375 0.0
Cd146 Cd 0.95187 0.8871 0.20839 0.0
O147 O 0.97284 0.87777 0.18395 0.0
C148 C 0.9838 0.89201 0.17665 0.0
O149 O 0.9807 0.91041 0.18348 0.0
C150 C 0.93642 0.92385 0.23259 0.0
C151 C 0.959 0.92611 0.30909 0.0
O152 O 0.96119 0.9446 0.30643 0.0
O153 O 0.96198 0.91329 0.29373 0.0
O154 O 0.09972 0.69802 0.53404 0.0
Cd155 Cd 0.10638 0.7287 0.51791 0.0
O156 O 0.11176 0.68122 0.50695 0.0
Cd157 Cd 0.11756 0.65447 0.48682 0.0
O158 O 0.11878 0.63555 0.45743 0.0
C159 C 0.13098 0.6215 0.45487 0.0
O160 O 0.14343 0.61753 0.47073 0.0
C161 C 0.10404 0.68153 0.52474 0.0
C162 C 0.10127 0.76259 0.54506 0.0
O163 O 0.08486 0.75326 0.53349 0.0
O164 O 0.12012 0.75585 0.54382 0.0
O165 O 0.97971 0.63284 0.70155 0.0
Cd166 Cd 0.01698 0.63277 0.71713 0.0
O167 O 0.96391 0.63961 0.73071 0.0
Cd168 Cd 0.93451 0.64178 0.74824 0.0
O169 O 0.90575 0.63737 0.76638 0.0
C170 C 0.89002 0.62406 0.75958 0.0
O171 O 0.8912 0.61369 0.7414 0.0
C172 C 0.96249 0.63586 0.71104 0.0
C173 C 0.04278 0.62359 0.68412 0.0
O174 O 0.03264 0.60981 0.69307 0.0
O175 O 0.04149 0.64175 0.69138 0.0
O176 O 0.23636 0.22946 0.52897 0.0
Cd177 Cd 0.25319 0.24684 0.56187 0.0
O178 O 0.23294 0.25531 0.51211 0.0
Cd179 Cd 0.22542 0.27136 0.48555 0.0
O180 O 0.21478 0.28796 0.4605 0.0
C181 C 0.19427 0.28693 0.45513 0.0
O182 O 0.1802 0.27578 0.46467 0.0
C183 C 0.23013 0.23654 0.51261 0.0
C184 C 0.24613 0.22023 0.59109 0.0
O185 O 0.23245 0.23287 0.58788 0.0
O186 O 0.26367 0.22072 0.58108 0.0
O187 O 0.52956 0.35228 0.25443 0.0
Cd188 Cd 0.51458 0.35648 0.28858 0.0
O189 O 0.50246 0.36739 0.24223 0.0
Cd190 Cd 0.48141 0.37701 0.21778 0.0
O191 O 0.45575 0.38093 0.19427 0.0
C192 C 0.43602 0.38169 0.19946 0.0
O193 O 0.43185 0.38073 0.21896 0.0
C194 C 0.51975 0.35872 0.2392 0.0
C195 C 0.54785 0.36376 0.3206 0.0
O196 O 0.54042 0.34595 0.31296 0.0
O197 O 0.53953 0.37822 0.3131 0.0
O198 O 0.33873 0.77648 0.89987 0.0
Cd199 Cd 0.33824 0.74522 0.91482 0.0
O200 O 0.34972 0.79118 0.93095 0.0
Cd201 Cd 0.36175 0.81641 0.95395 0.0
O202 O 0.36979 0.83777 0.98158 0.0
C203 C 0.3539 0.84208 0.99247 0.0
O204 O 0.33378 0.83393 0.98626 0.0
C205 C 0.34455 0.7924 0.91196 0.0
C206 C 0.35776 0.71766 0.88894 0.0
O207 O 0.33686 0.71874 0.88722 0.0
O208 O 0.36942 0.72953 0.90312 0.0
O209 O 0.93906 0.37379 0.75845 0.0
Cd210 Cd 0.96305 0.37442 0.72947 0.0
O211 O 0.96796 0.36674 0.77648 0.0
Cd212 Cd 0.9872 0.35825 0.80283 0.0
O213 O 0.01191 0.35124 0.82563 0.0
C214 C 0.01619 0.33335 0.82583 0.0
O215 O 0.00499 0.31928 0.81265 0.0
C216 C 0.94777 0.37006 0.77561 0.0
C217 C 0.94196 0.38192 0.69238 0.0
O218 O 0.94251 0.36405 0.6968 0.0
O219 O 0.95116 0.39622 0.70563 0.0
O220 O 0.39786 0.23 0.5744 0.0
Cd221 Cd 0.39518 0.25415 0.54958 0.0
O222 O 0.38955 0.20682 0.54821 0.0
Cd223 Cd 0.38543 0.17716 0.53062 0.0
O224 O 0.38365 0.15374 0.50451 0.0
C225 C 0.38359 0.15947 0.48657 0.0
O226 O 0.3843 0.17863 0.48501 0.0
C227 C 0.39447 0.21162 0.56754 0.0
C228 C 0.39456 0.29234 0.56995 0.0
O229 O 0.37653 0.28114 0.56421 0.0
O230 O 0.41289 0.2855 0.5659 0.0
O231 O 0.64207 0.68491 0.26119 0.0
Cd232 Cd 0.64733 0.69673 0.22762 0.0
O233 O 0.60807 0.67269 0.25051 0.0
Cd234 Cd 0.57519 0.65893 0.25599 0.0
O235 O 0.54539 0.64589 0.26863 0.0
C236 C 0.54425 0.64859 0.2882 0.0
O237 O 0.56066 0.6593 0.29965 0.0
C238 C 0.62381 0.67546 0.26461 0.0
C239 C 0.66801 0.66955 0.20211 0.0
O240 O 0.67936 0.68366 0.21417 0.0
O241 O 0.64687 0.66839 0.20205 0.0
O242 O 0.08024 0.78522 0.02291 0.0
Cd243 Cd 0.0804 0.75677 0.99647 0.0
O244 O 0.04556 0.78978 0.01565 0.0
Cd245 Cd 0.04431 0.77157 0.98568 0.0
O246 O 0.04648 0.77369 0.95262 0.0
C247 C 0.06546 0.77725 0.94583 0.0
O248 O 0.08311 0.77769 0.95855 0.0
C249 C 0.06335 0.79405 0.02719 0.0
C250 C 0.09064 0.72472 0.01705 0.0
O251 O 0.10586 0.7361 0.01007 0.0
O252 O 0.07053 0.72816 0.01372 0.0
O253 O 0.62559 0.03751 0.58492 0.0
Cd254 Cd 0.64262 0.06475 0.56762 0.0
O255 O 0.65858 0.03454 0.5986 0.0
Cd256 Cd 0.6829 0.01806 0.61313 0.0
O257 O 0.70729 0.99815 0.62054 0.0
C258 C 0.70218 0.9795 0.61601 0.0
O259 O 0.68225 0.97295 0.60765 0.0
C260 C 0.63808 0.02837 0.59594 0.0
C261 C 0.67769 0.08817 0.59087 0.0
O262 O 0.65836 0.09403 0.58975 0.0
O263 O 0.68041 0.07115 0.58126 0.0
O264 O 0.85485 0.97329 0.47192 0.0
Cd265 Cd 0.83371 0.00049 0.48349 0.0
O266 O 0.83059 0.96317 0.4455 0.0
Cd267 Cd 0.803 0.97703 0.45878 0.0
O268 O 0.76852 0.96827 0.46442 0.0
C269 C 0.75493 0.96391 0.44859 0.0
O270 O 0.76187 0.96659 0.43022 0.0
C271 C 0.84935 0.96241 0.45483 0.0
C272 C 0.84548 0.03194 0.46062 0.0
O273 O 0.8565 0.03 0.47752 0.0
O274 O 0.82861 0.01926 0.45476 0.0
O275 O 0.81683 0.06558 0.12284 0.0
Cd276 Cd 0.78825 0.03776 0.11263 0.0
O277 O 0.80215 0.07379 0.15234 0.0
Cd278 Cd 0.77157 0.05421 0.14399 0.0
O279 O 0.73602 0.048 0.13664 0.0
C280 C 0.72328 0.04936 0.15144 0.0
O281 O 0.73206 0.05308 0.17061 0.0
C282 C 0.81766 0.07631 0.14028 0.0
C283 C 0.80545 0.00268 0.12048 0.0
O284 O 0.80664 0.00907 0.10272 0.0
O285 O 0.79565 0.01267 0.13443 0.0
O286 O 0.70441 0.00923 0.95039 0.0
Cd287 Cd 0.72815 0.98363 0.95796 0.0
O288 O 0.71724 0.00769 0.91946 0.0
Cd289 Cd 0.72351 0.02198 0.89166 0.0
O290 O 0.7437 0.04702 0.88169 0.0
C291 C 0.75755 0.05576 0.89602 0.0
O292 O 0.75798 0.04902 0.9142 0.0
C293 C 0.70491 0.01529 0.93262 0.0
C294 C 0.70941 0.94608 0.94004 0.0
O295 O 0.70621 0.95251 0.95883 0.0
O296 O 0.72169 0.95735 0.92981 0.0
O297 O 0.63851 0.64759 0.98867 0.0
Cd298 Cd 0.62991 0.64353 0.0242 0.0
O299 O 0.6326 0.67897 0.98846 0.0
Cd300 Cd 0.63385 0.70737 0.97516 0.0
O301 O 0.63487 0.73414 0.95918 0.0
C302 C 0.62461 0.73365 0.9415 0.0
O303 O 0.61329 0.71692 0.93304 0.0
C304 C 0.6384 0.66296 0.97922 0.0
C305 C 0.66822 0.63514 0.04551 0.0
O306 O 0.65598 0.62142 0.03374 0.0
O307 O 0.66213 0.65273 0.04758 0.0
O308 O 0.01356 0.10739 0.71263 0.0
Cd309 Cd 0.0149 0.11451 0.67681 0.0
O310 O 0.97839 0.11112 0.71537 0.0
Cd311 Cd 0.94984 0.11378 0.73396 0.0
O312 O 0.92578 0.11918 0.75699 0.0
C313 C 0.92587 0.13669 0.76629 0.0
O314 O 0.94016 0.15097 0.76144 0.0
C315 C 0.99678 0.10733 0.72337 0.0
C316 C 0.0591 0.11602 0.66756 0.0
O317 O 0.05092 0.13168 0.67521 0.0
O318 O 0.04616 0.09976 0.66365 0.0
O319 O 0.76335 0.2719 0.38557 0.0
Cd320 Cd 0.74431 0.24353 0.39946 0.0
O321 O 0.78238 0.27735 0.41566 0.0
Cd322 Cd 0.80778 0.29283 0.43881 0.0
O323 O 0.82599 0.3145 0.46279 0.0
C324 C 0.83132 0.30981 0.48064 0.0
O325 O 0.82651 0.29133 0.48441 0.0
C326 C 0.77839 0.28233 0.39763 0.0
C327 C 0.77458 0.21632 0.40483 0.0
O328 O 0.76119 0.21415 0.3886 0.0
O329 O 0.77323 0.23103 0.41872 0.0
O330 O 0.55353 0.89978 0.81839 0.0
Cd331 Cd 0.52563 0.91205 0.79599 0.0
O332 O 0.54719 0.86838 0.80489 0.0
Cd333 Cd 0.51611 0.87496 0.79021 0.0
O334 O 0.48421 0.88362 0.79951 0.0
C335 C 0.48469 0.89029 0.81864 0.0
O336 O 0.50357 0.89175 0.82984 0.0
C337 C 0.55854 0.88197 0.81729 0.0
C338 C 0.54358 0.9228 0.75976 0.0
O339 O 0.54389 0.93556 0.77594 0.0
O340 O 0.53464 0.90504 0.76071 0.0
O341 O 0.99444 0.15259 0.38257 0.0
Cd342 Cd 0.02712 0.16515 0.36575 0.0
O343 O 0.97954 0.15369 0.35155 0.0
Cd344 Cd 0.95687 0.15063 0.3237 0.0
O345 O 0.94456 0.14853 0.29115 0.0
C346 C 0.94599 0.16366 0.28122 0.0
O347 O 0.95428 0.18106 0.29098 0.0
C348 C 0.9773 0.14971 0.37006 0.0
C349 C 0.068 0.16481 0.38706 0.0
O350 O 0.05796 0.18054 0.38852 0.0
O351 O 0.05842 0.14913 0.37599 0.0
O352 O 0.62819 0.12811 0.70924 0.0
Cd353 Cd 0.59654 0.11501 0.72707 0.0
O354 O 0.62361 0.1593 0.71949 0.0
Cd355 Cd 0.59016 0.15098 0.72817 0.0
O356 O 0.55599 0.14576 0.71501 0.0
C357 C 0.55427 0.14638 0.69551 0.0
O358 O 0.57243 0.14962 0.68583 0.0
C359 C 0.63487 0.14659 0.71039 0.0
C360 C 0.60946 0.10726 0.76705 0.0
O361 O 0.60914 0.09393 0.75137 0.0
O362 O 0.60361 0.12431 0.76385 0.0
O363 O 0.10931 0.20521 0.91932 0.0
Cd364 Cd 0.09993 0.17473 0.93501 0.0
O365 O 0.1105 0.22269 0.94989 0.0
Cd366 Cd 0.11087 0.24987 0.97153 0.0
O367 O 0.11106 0.27649 0.99378 0.0
C368 C 0.09403 0.27944 0.00365 0.0
O369 O 0.07644 0.26631 0.00017 0.0
C370 C 0.11188 0.22205 0.93037 0.0
C371 C 0.07561 0.14628 0.9059 0.0
O372 O 0.0661 0.15955 0.9166 0.0
O373 O 0.09657 0.14631 0.90916 0.0
O374 O 0.40022 0.68578 0.4324 0.0
Cd375 Cd 0.39641 0.71153 0.46088 0.0
O376 O 0.37912 0.66119 0.44298 0.0
Cd377 Cd 0.37522 0.67732 0.47334 0.0
O378 O 0.37133 0.67918 0.50666 0.0
C379 C 0.38801 0.68324 0.51967 0.0
O380 O 0.40759 0.68772 0.51287 0.0
C381 C 0.39097 0.66798 0.42936 0.0
C382 C 0.39297 0.74622 0.44233 0.0
O383 O 0.37564 0.73512 0.44594 0.0
O384 O 0.41187 0.74136 0.44831 0.0
O385 O 0.76488 0.47999 0.85542 0.0
Cd386 Cd 0.7502 0.44592 0.85926 0.0
O387 O 0.75084 0.4904 0.88464 0.0
Cd388 Cd 0.74377 0.5163 0.90547 0.0
O389 O 0.74161 0.54838 0.90816 0.0
C390 C 0.7352 0.55467 0.89138 0.0
O391 O 0.72948 0.54164 0.87494 0.0
C392 C 0.76204 0.49405 0.8693 0.0
C393 C 0.78483 0.42225 0.86101 0.0
O394 O 0.77425 0.42366 0.84372 0.0
O395 O 0.77878 0.4318 0.87752 0.0
O396 O 0.68056 0.48703 0.11518 0.0
Cd397 Cd 0.68408 0.45153 0.10695 0.0
O398 O 0.70613 0.4905 0.09306 0.0
Cd399 Cd 0.73167 0.50966 0.08042 0.0
O400 O 0.75499 0.5363 0.0811 0.0
C401 C 0.7604 0.54583 0.09894 0.0
O402 O 0.7521 0.53891 0.11526 0.0
C403 C 0.69343 0.49831 0.10578 0.0
C404 C 0.64931 0.42559 0.11764 0.0
O405 O 0.6655 0.43244 0.13082 0.0
O406 O 0.64932 0.4314 0.09954 0.0
O407 O 0.73559 0.46136 0.42538 0.0
Cd408 Cd 0.77044 0.48254 0.42507 0.0
O409 O 0.71966 0.47866 0.40355 0.0
Cd410 Cd 0.69137 0.48723 0.38589 0.0
O411 O 0.66911 0.50884 0.37798 0.0
C412 C 0.65736 0.51591 0.39199 0.0
O413 O 0.65804 0.50899 0.41006 0.0
C414 C 0.71873 0.46395 0.41402 0.0
C415 C 0.79971 0.45739 0.4081 0.0
O416 O 0.79787 0.46016 0.42774 0.0
O417 O 0.78849 0.46735 0.39653 0.0
O418 O 0.79539 0.47922 0.59178 0.0
Cd419 Cd 0.77076 0.5042 0.60244 0.0
O420 O 0.76974 0.46082 0.57081 0.0
Cd421 Cd 0.74366 0.47791 0.58228 0.0
O422 O 0.71877 0.47822 0.60506 0.0
C423 C 0.72526 0.47395 0.62279 0.0
O424 O 0.74618 0.47137 0.62624 0.0
C425 C 0.78962 0.46409 0.57847 0.0
C426 C 0.79465 0.54126 0.61457 0.0
O427 O 0.79025 0.52906 0.62782 0.0
O428 O 0.78757 0.53597 0.5956 0.0
O429 O 0.42136 0.08696 0.1906 0.0
Cd430 Cd 0.44518 0.08097 0.22029 0.0
O431 O 0.4278 0.11967 0.1957 0.0
Cd432 Cd 0.44403 0.11794 0.22609 0.0
O433 O 0.44733 0.10827 0.25688 0.0
C434 C 0.44454 0.12003 0.27291 0.0
O435 O 0.44105 0.13848 0.27079 0.0
C436 C 0.41895 0.10388 0.18467 0.0
C437 C 0.48815 0.08212 0.20766 0.0
O438 O 0.47559 0.06562 0.20615 0.0
O439 O 0.48063 0.09791 0.21586 0.0
O440 O 0.99227 0.87558 0.69764 0.0
Cd441 Cd 0.9621 0.87697 0.72078 0.0
O442 O 0.00031 0.9081 0.70019 0.0
Cd443 Cd 0.96819 0.91276 0.71202 0.0
O444 O 0.93252 0.91165 0.7056 0.0
C445 C 0.92428 0.92621 0.69859 0.0
O446 O 0.93731 0.94254 0.69704 0.0
C447 C 0.005 0.89066 0.69408 0.0
C448 C 0.98103 0.87083 0.75924 0.0
O449 O 0.97224 0.85614 0.74626 0.0
O450 O 0.97986 0.88849 0.75445 0.0
O451 O 0.47194 0.85187 0.25665 0.0
Cd452 Cd 0.49374 0.8595 0.2276 0.0
O453 O 0.49724 0.87107 0.27701 0.0
Cd454 Cd 0.5132 0.88365 0.30725 0.0
O455 O 0.53497 0.88829 0.33558 0.0
C456 C 0.54469 0.87338 0.33966 0.0
O457 O 0.54074 0.85671 0.32701 0.0
C458 C 0.47901 0.85987 0.27474 0.0
C459 C 0.46859 0.87581 0.19804 0.0
O460 O 0.46996 0.85701 0.19665 0.0
O461 O 0.47924 0.88694 0.21339 0.0
O462 O 0.83279 0.73121 0.05303 0.0
Cd463 Cd 0.83482 0.75869 0.03184 0.0
O464 O 0.82148 0.71028 0.02557 0.0
Cd465 Cd 0.81033 0.68317 0.00437 0.0
O466 O 0.80507 0.66045 0.97737 0.0
C467 C 0.79828 0.66529 0.95997 0.0
O468 O 0.79388 0.68369 0.95889 0.0
C469 C 0.8269 0.71338 0.04499 0.0
C470 C 0.84653 0.79492 0.05661 0.0
O471 O 0.82618 0.78838 0.05184 0.0
O472 O 0.86135 0.7844 0.04951 0.0
O473 O 0.67924 0.32637 0.60566 0.0
Cd474 Cd 0.6984 0.30435 0.58218 0.0
O475 O 0.64749 0.31876 0.58722 0.0
Cd476 Cd 0.66207 0.30462 0.56024 0.0
O477 O 0.66804 0.30934 0.52827 0.0
C478 C 0.65101 0.31015 0.5163 0.0
O479 O 0.63137 0.30647 0.52331 0.0
C480 C 0.6586 0.32771 0.60335 0.0
C481 C 0.70575 0.27012 0.60028 0.0
O482 O 0.72056 0.28515 0.60215 0.0
O483 O 0.68764 0.27121 0.58964 0.0
O484 O 0.14447 0.46482 0.03218 0.0
Cd485 Cd 0.17049 0.48959 0.01931 0.0
O486 O 0.17095 0.46286 0.05567 0.0
Cd487 Cd 0.18957 0.44943 0.07907 0.0
O488 O 0.21433 0.43469 0.09515 0.0
C489 C 0.21205 0.41581 0.09407 0.0
O490 O 0.19425 0.4058 0.0841 0.0
C491 C 0.15157 0.45681 0.04761 0.0
C492 C 0.16714 0.52817 0.03737 0.0
O493 O 0.15647 0.52117 0.02009 0.0
O494 O 0.17938 0.51685 0.04617 0.0
O495 O 0.30508 0.46657 0.80784 0.0
Cd496 Cd 0.2917 0.48808 0.78331 0.0
O497 O 0.27362 0.44872 0.81164 0.0
Cd498 Cd 0.25411 0.42645 0.82686 0.0
O499 O 0.23223 0.40616 0.84226 0.0
C500 C 0.23859 0.39108 0.84983 0.0
O501 O 0.25923 0.38734 0.84847 0.0
C502 C 0.29426 0.45291 0.81615 0.0
C503 C 0.32208 0.52211 0.78534 0.0
O504 O 0.30671 0.52079 0.79795 0.0
O505 O 0.32291 0.50744 0.77124 0.0
O506 O 0.26948 0.52953 0.60429 0.0
Cd507 Cd 0.24935 0.49631 0.60086 0.0
O508 O 0.26182 0.53518 0.63691 0.0
Cd509 Cd 0.23202 0.51433 0.62985 0.0
O510 O 0.20006 0.51569 0.61348 0.0
C511 C 0.20048 0.52201 0.5958 0.0
O512 O 0.21966 0.52542 0.58785 0.0
C513 C 0.27284 0.54004 0.62188 0.0
C514 C 0.27997 0.47128 0.61301 0.0
O515 O 0.27694 0.47431 0.594 0.0
O516 O 0.26789 0.47953 0.62626 0.0
O517 O 0.24044 0.53974 0.26923 0.0
Cd518 Cd 0.27406 0.52563 0.25894 0.0
O519 O 0.23668 0.51646 0.28964 0.0
Cd520 Cd 0.22329 0.49597 0.31067 0.0
O521 O 0.21392 0.46931 0.32543 0.0
C522 C 0.21718 0.45273 0.31555 0.0
O523 O 0.226 0.45271 0.29755 0.0
C524 C 0.22938 0.53142 0.2825 0.0
C525 C 0.31178 0.54747 0.27937 0.0
O526 O 0.30472 0.551 0.26134 0.0
O527 O 0.30103 0.53356 0.28768 0.0
H528 H 0.07704 0.33512 0.08565 0.0
H529 H 0.09501 0.39812 0.10179 0.0
H530 H 0.11106 0.36937 0.0431 0.0
H531 H 0.07425 0.39517 0.12811 0.0
C532 C 0.07095 0.37965 0.13054 0.0
C533 C 0.08437 0.34927 0.08161 0.0
C534 C 0.09394 0.35016 0.06255 0.0
C535 C 0.08447 0.36638 0.09585 0.0
C536 C 0.09451 0.38475 0.09098 0.0
C537 C 0.10403 0.38594 0.07185 0.0
C538 C 0.10364 0.36857 0.0578 0.0
N539 N 0.07474 0.36415 0.11496 0.0
H540 H 0.94736 0.87604 0.38796 0.0
H541 H 0.90974 0.89117 0.44043 0.0
H542 H 0.91267 0.92838 0.39138 0.0
H543 H 0.9497 0.87505 0.45378 0.0
C544 C 0.93844 0.86331 0.44485 0.0
C545 C 0.93695 0.88595 0.396 0.0
C546 C 0.93156 0.90316 0.38753 0.0
C547 C 0.9295 0.88182 0.41526 0.0
C548 C 0.91612 0.89466 0.42588 0.0
C549 C 0.90975 0.91128 0.41711 0.0
C550 C 0.91763 0.91548 0.39808 0.0
N551 N 0.93437 0.86406 0.42325 0.0
H552 H 0.39452 0.64409 0.63701 0.0
H553 H 0.32987 0.62193 0.60864 0.0
H554 H 0.35848 0.59313 0.65757 0.0
H555 H 0.39645 0.6641 0.61305 0.0
C556 C 0.38169 0.66181 0.60257 0.0
C557 C 0.37966 0.6338 0.63601 0.0
C558 C 0.37845 0.61868 0.64914 0.0
C559 C 0.36206 0.635 0.62133 0.0
C560 C 0.34326 0.62113 0.62013 0.0
C561 C 0.34188 0.60593 0.63305 0.0
C562 C 0.35941 0.60496 0.64767 0.0
N563 N 0.36293 0.64892 0.60656 0.0
H564 H 0.6178 0.12117 0.90095 0.0
H565 H 0.6595 0.07646 0.88076 0.0
H566 H 0.64462 0.0857 0.94482 0.0
H567 H 0.63912 0.07459 0.85094 0.0
C568 C 0.63493 0.08954 0.84951 0.0
C569 C 0.62787 0.10955 0.90445 0.0
C570 C 0.63048 0.10493 0.92489 0.0
C571 C 0.63739 0.09871 0.88829 0.0
C572 C 0.65084 0.08389 0.89291 0.0
C573 C 0.65365 0.07898 0.91331 0.0
C574 C 0.64307 0.08947 0.92909 0.0
N575 N 0.63298 0.10299 0.86761 0.0
H576 H 0.0975 0.58995 0.32375 0.0
H577 H 0.15901 0.56779 0.33949 0.0
H578 H 0.13416 0.56272 0.27565 0.0
H579 H 0.14653 0.56777 0.37104 0.0
C580 C 0.1362 0.57986 0.37281 0.0
C581 C 0.11166 0.58257 0.31897 0.0
C582 C 0.11397 0.57687 0.29781 0.0
C583 C 0.12738 0.5788 0.33415 0.0
C584 C 0.14606 0.56962 0.32803 0.0
C585 C 0.14871 0.56371 0.30692 0.0
C586 C 0.13235 0.56717 0.29195 0.0
N587 N 0.12439 0.58545 0.35527 0.0
H588 H 0.58892 0.90076 0.63908 0.0
H589 H 0.59833 0.96457 0.65347 0.0
H590 H 0.6147 0.9374 0.59424 0.0
H591 H 0.59057 0.95924 0.68513 0.0
C592 C 0.58321 0.94406 0.68535 0.0
C593 C 0.59425 0.91531 0.63464 0.0
C594 C 0.60205 0.91694 0.61492 0.0
C595 C 0.59291 0.93224 0.64875 0.0
C596 C 0.59951 0.95122 0.64302 0.0
C597 C 0.60715 0.95313 0.62325 0.0
C598 C 0.60832 0.93595 0.6093 0.0
N599 N 0.58431 0.92929 0.6682 0.0
H600 H 0.40533 0.38275 0.87089 0.0
H601 H 0.33535 0.38801 0.87359 0.0
H602 H 0.37732 0.43084 0.8459 0.0
H603 H 0.40016 0.35959 0.89108 0.0
C604 C 0.38282 0.35569 0.89327 0.0
C605 C 0.39103 0.39052 0.86822 0.0
C606 C 0.3937 0.40788 0.85841 0.0
C607 C 0.36994 0.38349 0.87419 0.0
C608 C 0.35162 0.39359 0.86943 0.0
C609 C 0.35426 0.41092 0.85957 0.0
C610 C 0.37534 0.41794 0.85432 0.0
N611 N 0.36628 0.36648 0.88497 0.0
H612 H 0.94038 0.1774 0.18434 0.0
H613 H 0.89601 0.14525 0.13541 0.0
H614 H 0.89123 0.13126 0.19793 0.0
H615 H 0.93807 0.14865 0.12302 0.0
C616 C 0.9353 0.16429 0.12427 0.0
C617 C 0.92664 0.16612 0.17939 0.0
C618 C 0.91686 0.15457 0.19382 0.0
C619 C 0.91948 0.16242 0.15828 0.0
C620 C 0.90191 0.14763 0.15164 0.0
C621 C 0.89143 0.13649 0.1659 0.0
C622 C 0.89911 0.14 0.1869 0.0
N623 N 0.92981 0.17369 0.14369 0.0
H624 H 0.16383 0.1396 0.39951 0.0
H625 H 0.21958 0.16498 0.44056 0.0
H626 H 0.15809 0.19041 0.44425 0.0
H627 H 0.23837 0.14447 0.42262 0.0
C628 C 0.22693 0.13198 0.41544 0.0
C629 C 0.17094 0.15076 0.41199 0.0
C630 C 0.15817 0.16526 0.42075 0.0
C631 C 0.19295 0.15036 0.4191 0.0
C632 C 0.20257 0.16498 0.43498 0.0
C633 C 0.1902 0.17967 0.44402 0.0
C634 C 0.16798 0.17964 0.43683 0.0
N635 N 0.20432 0.1343 0.41076 0.0
H636 H 0.14067 0.87204 0.62695 0.0
H637 H 0.07212 0.85301 0.63314 0.0
H638 H 0.10374 0.90554 0.67044 0.0
H639 H 0.07369 0.83802 0.60095 0.0
C640 C 0.0901 0.83314 0.60057 0.0
C641 C 0.12533 0.87432 0.6341 0.0
C642 C 0.1245 0.89055 0.64941 0.0
C643 C 0.10651 0.86088 0.62789 0.0
C644 C 0.08668 0.86348 0.63747 0.0
C645 C 0.08552 0.8796 0.65283 0.0
C646 C 0.10451 0.89305 0.65864 0.0
N647 N 0.1083 0.84464 0.61242 0.0
H648 H 0.3454 0.91586 0.85152 0.0
H649 H 0.3798 0.86751 0.86883 0.0
H650 H 0.31306 0.87163 0.88558 0.0
H651 H 0.40651 0.90184 0.87728 0.0
C652 C 0.40513 0.90166 0.86049 0.0
C653 C 0.34552 0.90235 0.85891 0.0
C654 C 0.32691 0.89513 0.86882 0.0
C655 C 0.36475 0.89271 0.85937 0.0
C656 C 0.36506 0.8752 0.86889 0.0
C657 C 0.34645 0.86749 0.87829 0.0
C658 C 0.32756 0.87768 0.87849 0.0
N659 N 0.38379 0.9006 0.85019 0.0
H660 H 0.31588 0.10767 0.06695 0.0
H661 H 0.37896 0.13029 0.09872 0.0
H662 H 0.33738 0.08482 0.12289 0.0
H663 H 0.3872 0.13648 0.06617 0.0
C664 C 0.37218 0.14197 0.06042 0.0
C665 C 0.32812 0.10758 0.0797 0.0
C666 C 0.32411 0.0948 0.09493 0.0
C667 C 0.34795 0.12022 0.08072 0.0
C668 C 0.36378 0.12033 0.09744 0.0
C669 C 0.36007 0.10746 0.11262 0.0
C670 C 0.34021 0.09485 0.11125 0.0
N671 N 0.35119 0.13305 0.06508 0.0
H672 H 0.07681 0.90207 0.13942 0.0
H673 H 0.10384 0.86795 0.08916 0.0
H674 H 0.03721 0.85187 0.10438 0.0
H675 H 0.13551 0.87733 0.10933 0.0
C676 C 0.13397 0.89286 0.11459 0.0
C677 C 0.07482 0.88985 0.12696 0.0
C678 C 0.05467 0.87751 0.12324 0.0
C679 C 0.09283 0.88615 0.11522 0.0
C680 C 0.09042 0.87031 0.09906 0.0
C681 C 0.07044 0.8578 0.0951 0.0
C682 C 0.05266 0.86148 0.10731 0.0
N683 N 0.11304 0.89873 0.11978 0.0
H684 H 0.37508 0.84484 0.37957 0.0
H685 H 0.4319 0.8234 0.3516 0.0
H686 H 0.40521 0.87489 0.33192 0.0
H687 H 0.36905 0.81367 0.38729 0.0
C688 C 0.38538 0.80926 0.39064 0.0
C689 C 0.38763 0.8459 0.36851 0.0
C690 C 0.38801 0.86127 0.35573 0.0
C691 C 0.40336 0.83208 0.36696 0.0
C692 C 0.41971 0.83395 0.35274 0.0
C693 C 0.42045 0.8494 0.3401 0.0
C694 C 0.40461 0.86297 0.34171 0.0
N695 N 0.40359 0.81647 0.37978 0.0
H696 H 0.41157 0.11539 0.6647 0.0
H697 H 0.43996 0.16058 0.63003 0.0
H698 H 0.36991 0.14301 0.62331 0.0
H699 H 0.46959 0.14257 0.63286 0.0
C700 C 0.46955 0.14015 0.64911 0.0
C701 C 0.40949 0.12599 0.65368 0.0
C702 C 0.38841 0.12757 0.64445 0.0
C703 C 0.42817 0.13753 0.6483 0.0
C704 C 0.42567 0.15128 0.63395 0.0
C705 C 0.40471 0.15326 0.62473 0.0
C706 C 0.38619 0.14126 0.63 0.0
N707 N 0.44917 0.13537 0.65796 0.0
H708 H 0.0318 0.06444 0.8558 0.0
H709 H 0.00231 0.05372 0.79336 0.0
H710 H 0.02241 0.11376 0.82163 0.0
H711 H 0.01365 0.03211 0.85722 0.0
C712 C 0.01946 0.02607 0.84255 0.0
C713 C 0.02542 0.06999 0.84195 0.0
C714 C 0.02764 0.09062 0.84092 0.0
C715 C 0.0159 0.05664 0.82489 0.0
C716 C 0.00869 0.0641 0.80679 0.0
C717 C 0.01098 0.08468 0.80544 0.0
C718 C 0.0202 0.09788 0.8227 0.0
N719 N 0.01575 0.03569 0.8246 0.0
H720 H 0.85719 0.36871 0.89321 0.0
H721 H 0.91473 0.35121 0.86361 0.0
H722 H 0.87117 0.38635 0.83333 0.0
H723 H 0.92566 0.34357 0.89451 0.0
C724 C 0.91115 0.34075 0.90312 0.0
C725 C 0.86766 0.36903 0.88028 0.0
C726 C 0.8617 0.37874 0.86318 0.0
C727 C 0.88685 0.35934 0.88084 0.0
C728 C 0.90024 0.35915 0.86385 0.0
C729 C 0.89445 0.36868 0.84653 0.0
C730 C 0.87526 0.3785 0.84639 0.0
N731 N 0.89139 0.34926 0.89838 0.0
H732 H 0.83914 0.61039 0.13504 0.0
H733 H 0.86051 0.66753 0.11642 0.0
H734 H 0.80435 0.63166 0.08387 0.0
H735 H 0.87644 0.67345 0.14916 0.0
C736 C 0.88217 0.65923 0.15162 0.0
C737 C 0.83687 0.62188 0.12507 0.0
C738 C 0.8198 0.61889 0.1092 0.0
C739 C 0.85141 0.63943 0.12806 0.0
C740 C 0.84893 0.65418 0.11484 0.0
C741 C 0.83204 0.6514 0.0988 0.0
C742 C 0.81759 0.6337 0.09602 0.0
N743 N 0.8691 0.64115 0.14363 0.0
H744 H 0.61569 0.62668 0.39835 0.0
H745 H 0.61944 0.61568 0.33228 0.0
H746 H 0.61096 0.67448 0.36108 0.0
H747 H 0.60668 0.5935 0.39577 0.0
C748 C 0.61597 0.58748 0.3832 0.0
C749 C 0.615 0.63179 0.38318 0.0
C750 C 0.6128 0.65196 0.38172 0.0
C751 C 0.61678 0.61855 0.3652 0.0
C752 C 0.61706 0.62581 0.3459 0.0
C753 C 0.61509 0.64599 0.34417 0.0
C754 C 0.61255 0.65888 0.36217 0.0
N755 N 0.61986 0.59819 0.36598 0.0
H756 H 0.85814 0.39821 0.35144 0.0
H757 H 0.84656 0.33437 0.34888 0.0
H758 H 0.81062 0.37172 0.38939 0.0
H759 H 0.86034 0.33473 0.3176 0.0
C760 C 0.87321 0.34722 0.31997 0.0
C761 C 0.8494 0.38508 0.35646 0.0
C762 C 0.83418 0.38713 0.37176 0.0
C763 C 0.85371 0.36612 0.3478 0.0
C764 C 0.84268 0.34907 0.35469 0.0
C765 C 0.82714 0.35092 0.3698 0.0
C766 C 0.823 0.37004 0.37815 0.0
N767 N 0.87012 0.36478 0.33312 0.0
H768 H 0.68828 0.64703 0.84019 0.0
H769 H 0.70261 0.65375 0.90622 0.0
H770 H 0.63703 0.65936 0.88114 0.0
H771 H 0.73924 0.64937 0.89835 0.0
C772 C 0.73374 0.6386 0.88492 0.0
C773 C 0.68297 0.65019 0.85575 0.0
C774 C 0.66102 0.65386 0.85868 0.0
C775 C 0.69799 0.6499 0.87278 0.0
C776 C 0.69103 0.65371 0.89297 0.0
C777 C 0.66906 0.6572 0.89623 0.0
C778 C 0.65422 0.65744 0.87893 0.0
N779 N 0.71941 0.64426 0.86916 0.0
H780 H 0.81328 0.63317 0.86767 0.0
H781 H 0.80516 0.57373 0.83566 0.0
H782 H 0.78444 0.58452 0.89763 0.0
H783 H 0.80868 0.58949 0.80706 0.0
C784 C 0.82057 0.60232 0.81241 0.0
C785 C 0.80731 0.61754 0.8673 0.0
C786 C 0.79844 0.61045 0.88488 0.0
C787 C 0.80944 0.60455 0.84938 0.0
C788 C 0.80264 0.58407 0.84902 0.0
C789 C 0.79366 0.57667 0.86644 0.0
C790 C 0.79157 0.59002 0.88422 0.0
N791 N 0.82014 0.61242 0.83274 0.0
H792 H 0.15718 0.14677 0.64842 0.0
H793 H 0.21666 0.11813 0.6528 0.0
H794 H 0.15477 0.08765 0.66637 0.0
H795 H 0.23207 0.14306 0.63794 0.0
C796 C 0.22119 0.15466 0.63716 0.0
C797 C 0.16541 0.13401 0.65191 0.0
C798 C 0.15315 0.11722 0.65787 0.0
C799 C 0.18815 0.13448 0.64977 0.0
C800 C 0.19901 0.11788 0.65389 0.0
C801 C 0.18705 0.10087 0.65995 0.0
C802 C 0.16412 0.1007 0.66183 0.0
N803 N 0.19913 0.15193 0.64321 0.0
H804 H 0.60814 0.34987 0.39917 0.0
H805 H 0.66566 0.3848 0.42984 0.0
H806 H 0.62997 0.40668 0.37968 0.0
H807 H 0.67405 0.35449 0.43788 0.0
C808 C 0.65794 0.3478 0.44139 0.0
C809 C 0.61978 0.3632 0.4005 0.0
C810 C 0.61722 0.37775 0.38708 0.0
C811 C 0.63724 0.36555 0.41574 0.0
C812 C 0.65214 0.38298 0.41805 0.0
C813 C 0.64961 0.39814 0.40527 0.0
C814 C 0.63205 0.3953 0.38978 0.0
N815 N 0.63867 0.35051 0.42912 0.0
H816 H 0.39716 0.87869 0.08141 0.0
H817 H 0.37726 0.92526 0.12456 0.0
H818 H 0.34229 0.90992 0.06464 0.0
H819 H 0.41049 0.92411 0.141 0.0
C820 C 0.4141 0.90879 0.1378 0.0
C821 C 0.38657 0.89033 0.08498 0.0
C822 C 0.36956 0.89318 0.07053 0.0
C823 C 0.38962 0.90185 0.10439 0.0
C824 C 0.37541 0.91652 0.10947 0.0
C825 C 0.35834 0.91967 0.09509 0.0
C826 C 0.35563 0.90792 0.07568 0.0
N827 N 0.40619 0.89718 0.11876 0.0
H828 H 0.88309 0.35765 0.56477 0.0
H829 H 0.86505 0.41197 0.59647 0.0
H830 H 0.83512 0.38988 0.53574 0.0
H831 H 0.89952 0.41344 0.61228 0.0
C832 C 0.90026 0.39798 0.61479 0.0
C833 C 0.8737 0.37038 0.56493 0.0
C834 C 0.85879 0.37201 0.54806 0.0
C835 C 0.87667 0.38508 0.5821 0.0
C836 C 0.86403 0.40132 0.58266 0.0
C837 C 0.84896 0.40321 0.56599 0.0
C838 C 0.84678 0.38864 0.54861 0.0
N839 N 0.89133 0.38243 0.59914 0.0
H840 H 0.41365 0.12201 0.40145 0.0
H841 H 0.39364 0.06602 0.36449 0.0
H842 H 0.36082 0.08242 0.41991 0.0
H843 H 0.4261 0.07245 0.35001 0.0
C844 C 0.42704 0.08846 0.34973 0.0
C845 C 0.40302 0.10803 0.3989 0.0
C846 C 0.38734 0.10348 0.41312 0.0
C847 C 0.40533 0.0947 0.38135 0.0
C848 C 0.3918 0.07641 0.37798 0.0
C849 C 0.37567 0.0716 0.39187 0.0
C850 C 0.37358 0.08539 0.40938 0.0
N851 N 0.42033 0.10089 0.36677 0.0
H852 H 0.73453 0.63947 0.13877 0.0
H853 H 0.7356 0.58361 0.10149 0.0
H854 H 0.6895 0.58884 0.14916 0.0
H855 H 0.7645 0.61741 0.07636 0.0
C856 C 0.75069 0.62019 0.08571 0.0
C857 C 0.72833 0.62385 0.13534 0.0
C858 C 0.71074 0.61566 0.14593 0.0
C859 C 0.73693 0.61235 0.11917 0.0
C860 C 0.72855 0.59235 0.11392 0.0
C861 C 0.71175 0.58353 0.12494 0.0
C862 C 0.7028 0.59536 0.14086 0.0
N863 N 0.75358 0.62111 0.10764 0.0
H864 H 0.02652 0.83118 0.83505 0.0
H865 H 0.09173 0.84978 0.86349 0.0
H866 H 0.06199 0.88591 0.82194 0.0
H867 H 0.09153 0.81638 0.86518 0.0
C868 C 0.07499 0.81305 0.87023 0.0
C869 C 0.04119 0.84187 0.83708 0.0
C870 C 0.04222 0.85883 0.82652 0.0
C871 C 0.05899 0.83842 0.85025 0.0
C872 C 0.07798 0.85234 0.85326 0.0
C873 C 0.07925 0.86966 0.8432 0.0
C874 C 0.0612 0.87273 0.8299 0.0
N875 N 0.05689 0.82132 0.86102 0.0
H876 H 0.82473 0.93651 0.65957 0.0
H877 H 0.79354 0.89806 0.60637 0.0
H878 H 0.8544 0.8847 0.63522 0.0
H879 H 0.76249 0.90877 0.61983 0.0
C880 C 0.76748 0.92449 0.62474 0.0
C881 C 0.82451 0.92335 0.64839 0.0
C882 C 0.84163 0.91105 0.64937 0.0
C883 C 0.80671 0.91846 0.63341 0.0
C884 C 0.80667 0.90164 0.61855 0.0
C885 C 0.82373 0.88932 0.61934 0.0
C886 C 0.84097 0.89401 0.63488 0.0
N887 N 0.78932 0.93089 0.63346 0.0
H888 H 0.83513 0.10845 0.4206 0.0
H889 H 0.87936 0.14999 0.3939 0.0
H890 H 0.90134 0.09487 0.40957 0.0
H891 H 0.85947 0.17106 0.41834 0.0
C892 C 0.84319 0.16454 0.41176 0.0
C893 C 0.85118 0.11225 0.41482 0.0
C894 C 0.86776 0.09945 0.41616 0.0
C895 C 0.85549 0.13057 0.40729 0.0
C896 C 0.87622 0.13583 0.39995 0.0
C897 C 0.89287 0.12295 0.40036 0.0
C898 C 0.88863 0.10488 0.40892 0.0
N899 N 0.83869 0.14354 0.40731 0.0
H900 H 0.58412 0.06478 0.17452 0.0
H901 H 0.61259 0.09049 0.12333 0.0
H902 H 0.55328 0.11063 0.14709 0.0
H903 H 0.62544 0.05922 0.11839 0.0
C904 C 0.6313 0.05863 0.13439 0.0
C905 C 0.58365 0.07513 0.16303 0.0
C906 C 0.5666 0.08751 0.16237 0.0
C907 C 0.60018 0.07602 0.14895 0.0
C908 C 0.59976 0.0896 0.13415 0.0
C909 C 0.58285 0.10216 0.13332 0.0
C910 C 0.56642 0.10104 0.14758 0.0
N911 N 0.61765 0.06384 0.15072 0.0
H912 H 0.668 0.8532 0.92016 0.0
H913 H 0.61219 0.83281 0.87675 0.0
H914 H 0.6446 0.89223 0.87834 0.0
H915 H 0.61894 0.80254 0.88313 0.0
C916 C 0.62745 0.80381 0.89842 0.0
C917 C 0.65673 0.85583 0.9075 0.0
C918 C 0.6582 0.87453 0.90022 0.0
C919 C 0.64077 0.84043 0.89868 0.0
C920 C 0.62551 0.84408 0.88277 0.0
C921 C 0.62665 0.86285 0.87542 0.0
C922 C 0.64347 0.87774 0.88389 0.0
N923 N 0.63994 0.82197 0.90712 0.0
H924 H 0.82406 0.11114 0.85035 0.0
H925 H 0.86842 0.16262 0.87507 0.0
H926 H 0.8216 0.13656 0.91387 0.0
H927 H 0.87049 0.16735 0.84146 0.0
C928 C 0.86954 0.15229 0.83355 0.0
C929 C 0.82962 0.12259 0.8631 0.0
C930 C 0.82071 0.12194 0.88252 0.0
C931 C 0.84633 0.13749 0.86008 0.0
C932 C 0.85459 0.15178 0.87684 0.0
C933 C 0.84589 0.15142 0.89639 0.0
C934 C 0.82871 0.13665 0.89896 0.0
N935 N 0.8556 0.13665 0.84045 0.0
H936 H 0.74859 0.19405 0.6245 0.0
H937 H 0.72534 0.15006 0.66291 0.0
H938 H 0.68968 0.20091 0.6569 0.0
H939 H 0.76835 0.1308 0.63509 0.0
C940 C 0.75354 0.13808 0.63257 0.0
C941 C 0.73684 0.18898 0.63521 0.0
C942 C 0.71899 0.19981 0.63996 0.0
C943 C 0.73873 0.17079 0.64292 0.0
C944 C 0.72343 0.16389 0.65656 0.0
C945 C 0.70576 0.17479 0.66196 0.0
C946 C 0.70359 0.19266 0.65339 0.0
N947 N 0.75569 0.15929 0.63608 0.0
H948 H 0.62406 0.90686 0.40642 0.0
H949 H 0.65348 0.87806 0.45494 0.0
H950 H 0.59508 0.84952 0.41909 0.0
H951 H 0.66832 0.90982 0.46714 0.0
C952 C 0.6716 0.91627 0.45293 0.0
C953 C 0.6237 0.89449 0.4156 0.0
C954 C 0.60763 0.87805 0.41069 0.0
C955 C 0.63992 0.8949 0.43184 0.0
C956 C 0.64031 0.87841 0.44315 0.0
C957 C 0.62434 0.86178 0.43841 0.0
C958 C 0.60784 0.86199 0.42246 0.0
N959 N 0.65658 0.9114 0.43511 0.0
H960 H 0.83562 0.91535 0.11026 0.0
H961 H 0.88262 0.88993 0.14795 0.0
H962 H 0.86442 0.94845 0.16742 0.0
H963 H 0.8875 0.87196 0.11707 0.0
C964 C 0.87073 0.86886 0.11002 0.0
C965 C 0.84677 0.91663 0.12407 0.0
C966 C 0.84897 0.93404 0.13822 0.0
C967 C 0.85889 0.90079 0.1274 0.0
C968 C 0.87321 0.90218 0.14537 0.0
C969 C 0.87532 0.91929 0.1601 0.0
C970 C 0.86301 0.93514 0.15634 0.0
N971 N 0.85566 0.88344 0.11268 0.0
H972 H 0.13538 0.65117 0.04612 0.0
H973 H 0.12642 0.6215 0.10037 0.0
H974 H 0.09017 0.67109 0.0905 0.0
H975 H 0.16013 0.61064 0.09249 0.0
C976 C 0.15642 0.60712 0.07584 0.0
C977 C 0.12786 0.65017 0.06075 0.0
C978 C 0.1126 0.66336 0.06716 0.0
C979 C 0.13299 0.63515 0.07262 0.0
C980 C 0.12275 0.63327 0.09125 0.0
C981 C 0.10716 0.64611 0.09787 0.0
C982 C 0.1023 0.66121 0.08573 0.0
N983 N 0.14681 0.62103 0.06438 0.0
H984 H 0.11199 0.34357 0.86642 0.0
H985 H 0.14976 0.30508 0.89863 0.0
H986 H 0.08018 0.28877 0.88306 0.0
H987 H 0.17886 0.32223 0.88629 0.0
C988 C 0.17419 0.33644 0.88249 0.0
C989 C 0.11262 0.33011 0.87382 0.0
C990 C 0.09356 0.31663 0.87361 0.0
C991 C 0.13295 0.32602 0.88246 0.0
C992 C 0.1342 0.30837 0.8917 0.0
C993 C 0.11517 0.29475 0.89183 0.0
C994 C 0.09496 0.29904 0.88275 0.0
N995 N 0.15161 0.33998 0.88097 0.0
H996 H 0.3428 0.40307 0.61113 0.0
H997 H 0.39773 0.39438 0.65189 0.0
H998 H 0.36068 0.44423 0.66641 0.0
H999 H 0.40884 0.37826 0.62232 0.0
C1000 C 0.39337 0.37043 0.61515 0.0
C1001 C 0.35348 0.40806 0.62504 0.0
C1002 C 0.34986 0.42531 0.63791 0.0
C1003 C 0.37081 0.39706 0.62979 0.0
C1004 C 0.38443 0.40299 0.64805 0.0
C1005 C 0.38083 0.4199 0.66156 0.0
C1006 C 0.36353 0.43107 0.65627 0.0
N1007 N 0.37353 0.37968 0.61626 0.0
H1008 H 0.09177 0.57643 0.61278 0.0
H1009 H 0.10886 0.59364 0.55371 0.0
H1010 H 0.07835 0.63372 0.59657 0.0
H1011 H 0.1299 0.56893 0.55266 0.0
C1012 C 0.12753 0.5605 0.56572 0.0
C1013 C 0.09182 0.58722 0.60172 0.0
C1014 C 0.08343 0.60547 0.60681 0.0
C1015 C 0.10146 0.58301 0.58294 0.0
C1016 C 0.10211 0.59704 0.56855 0.0
C1017 C 0.09367 0.61547 0.57324 0.0
C1018 C 0.08453 0.61951 0.59252 0.0
N1019 N 0.11132 0.56493 0.57991 0.0
H1020 H 0.34211 0.39213 0.15166 0.0
H1021 H 0.31552 0.35871 0.094 0.0
H1022 H 0.38215 0.35376 0.1164 0.0
H1023 H 0.28382 0.35805 0.11415 0.0
C1024 C 0.28535 0.37412 0.11826 0.0
C1025 C 0.3442 0.3817 0.13819 0.0
C1026 C 0.36439 0.37359 0.13592 0.0
C1027 C 0.32644 0.37614 0.12334 0.0
C1028 C 0.32912 0.36287 0.10565 0.0
C1029 C 0.34921 0.35481 0.10298 0.0
C1030 C 0.36673 0.36022 0.11821 0.0
N1031 N 0.30615 0.38434 0.1262 0.0
H1032 H 0.59032 0.34404 0.10979 0.0
H1033 H 0.54498 0.31861 0.15042 0.0
H1034 H 0.57453 0.37917 0.16523 0.0
H1035 H 0.53332 0.29737 0.12113 0.0
C1036 C 0.54834 0.29544 0.11324 0.0
C1037 C 0.58111 0.34567 0.12357 0.0
C1038 C 0.58393 0.36369 0.13682 0.0
C1039 C 0.56691 0.32946 0.12811 0.0
C1040 C 0.55554 0.33118 0.14639 0.0
C1041 C 0.55812 0.34917 0.15981 0.0
C1042 C 0.57227 0.36535 0.15484 0.0
N1043 N 0.56551 0.31142 0.11444 0.0
H1044 H 0.83258 0.63334 0.61885 0.0
H1045 H 0.89031 0.66396 0.65425 0.0
H1046 H 0.87083 0.60262 0.66025 0.0
H1047 H 0.87469 0.69111 0.64798 0.0
C1048 C 0.86694 0.68747 0.63236 0.0
C1049 C 0.84636 0.63326 0.63013 0.0
C1050 C 0.84967 0.6158 0.63906 0.0
C1051 C 0.86061 0.65081 0.63572 0.0
C1052 C 0.87852 0.65085 0.65038 0.0
C1053 C 0.88214 0.63353 0.65931 0.0
C1054 C 0.86771 0.61608 0.6536 0.0
N1055 N 0.85716 0.66776 0.62546 0.0
H1056 H 0.5965 0.43642 0.67798 0.0
H1057 H 0.65112 0.40719 0.65581 0.0
H1058 H 0.58705 0.37383 0.65532 0.0
H1059 H 0.6679 0.43406 0.68774 0.0
C1060 C 0.66189 0.44368 0.67691 0.0
C1061 C 0.60298 0.42293 0.67158 0.0
C1062 C 0.58902 0.40494 0.66729 0.0
C1063 C 0.62543 0.42363 0.66809 0.0
C1064 C 0.634 0.40631 0.65965 0.0
C1065 C 0.62025 0.38828 0.65473 0.0
C1066 C 0.59781 0.38765 0.65896 0.0
N1067 N 0.63883 0.4422 0.67157 0.0
H1068 H 0.36119 0.61012 0.81169 0.0
H1069 H 0.42408 0.64262 0.80689 0.0
H1070 H 0.41028 0.58218 0.77717 0.0
H1071 H 0.4157 0.66032 0.83607 0.0
C1072 C 0.39783 0.66011 0.83501 0.0
C1073 C 0.37758 0.61053 0.80595 0.0
C1074 C 0.38424 0.59362 0.79453 0.0
C1075 C 0.39189 0.62798 0.8107 0.0
C1076 C 0.413 0.62908 0.80308 0.0
C1077 C 0.41984 0.61281 0.79051 0.0
C1078 C 0.40527 0.595 0.78643 0.0
N1079 N 0.38427 0.64407 0.82318 0.0
H1080 H 0.19811 0.37587 0.36803 0.0
H1081 H 0.13948 0.33407 0.35437 0.0
H1082 H 0.15285 0.38092 0.31629 0.0
H1083 H 0.14411 0.33052 0.38796 0.0
C1084 C 0.16189 0.33161 0.39129 0.0
C1085 C 0.18305 0.37046 0.3585 0.0
C1086 C 0.17722 0.37999 0.34126 0.0
C1087 C 0.16948 0.35399 0.36356 0.0
C1088 C 0.14989 0.34706 0.35109 0.0
C1089 C 0.14379 0.35667 0.33395 0.0
C1090 C 0.15768 0.37301 0.32911 0.0
N1091 N 0.1762 0.34453 0.38096 0.0
H1092 H 0.411 0.58832 0.29985 0.0
H1093 H 0.4373 0.62971 0.3525 0.0
H1094 H 0.36909 0.6054 0.34852 0.0
H1095 H 0.46923 0.61723 0.34434 0.0
C1096 C 0.46793 0.61684 0.32755 0.0
C1097 C 0.4087 0.5967 0.31465 0.0
C1098 C 0.38794 0.59513 0.32308 0.0
C1099 C 0.42672 0.60874 0.32536 0.0
C1100 C 0.42369 0.61988 0.34439 0.0
C1101 C 0.40298 0.61873 0.35291 0.0
C1102 C 0.38525 0.60609 0.34228 0.0
N1103 N 0.44739 0.61014 0.3162 0.0
C1104 C 0.12293 0.42745 0.04043 0.0
C1105 C 0.13827 0.43962 0.05455 0.0
H1106 H 0.09991 0.40115 0.0349 0.0
C1107 C 0.14097 0.4349 0.07498 0.0
H1108 H 0.12028 0.43081 0.02463 0.0
C1109 C 0.12938 0.41778 0.08085 0.0
C1110 C 0.11479 0.40512 0.06641 0.0
H1111 H 0.15196 0.44442 0.08647 0.0
H1112 H 0.13233 0.41416 0.09651 0.0
C1113 C 0.11136 0.41039 0.04627 0.0
C1114 C 0.88334 0.94455 0.45718 0.0
C1115 C 0.86471 0.94901 0.44552 0.0
H1116 H 0.91216 0.9288 0.45731 0.0
C1117 C 0.86083 0.94058 0.42471 0.0
H1118 H 0.8867 0.95075 0.47329 0.0
C1119 C 0.87542 0.92824 0.41562 0.0
C1120 C 0.89408 0.92388 0.42719 0.0
H1121 H 0.84663 0.9437 0.4153 0.0
H1122 H 0.87209 0.92204 0.3995 0.0
C1123 C 0.89782 0.93194 0.44812 0.0
C1124 C 0.29956 0.5645 0.60754 0.0
C1125 C 0.28963 0.55761 0.62477 0.0
H1126 H 0.32377 0.58525 0.59671 0.0
C1127 C 0.29622 0.56742 0.64472 0.0
H1128 H 0.29479 0.55732 0.59196 0.0
C1129 C 0.31284 0.58345 0.64741 0.0
C1130 C 0.32302 0.59007 0.6302 0.0
H1131 H 0.28884 0.5625 0.65829 0.0
H1132 H 0.31787 0.59057 0.66297 0.0
C1133 C 0.31602 0.58061 0.61023 0.0
C1134 C 0.68063 0.03063 0.90821 0.0
C1135 C 0.69218 0.03166 0.92766 0.0
H1136 H 0.65882 0.04421 0.88867 0.0
C1137 C 0.6913 0.04831 0.94232 0.0
H1138 H 0.68083 0.01776 0.89676 0.0
C1139 C 0.67928 0.06384 0.93751 0.0
C1140 C 0.6673 0.06279 0.91813 0.0
H1141 H 0.70024 0.04947 0.95738 0.0
H1142 H 0.67956 0.07673 0.94901 0.0
C1143 C 0.66814 0.0459 0.90356 0.0
C1144 C 0.19846 0.55213 0.27677 0.0
C1145 C 0.20841 0.53901 0.28871 0.0
H1146 H 0.17232 0.57041 0.27323 0.0
C1147 C 0.19844 0.53395 0.30665 0.0
H1148 H 0.20573 0.55651 0.26292 0.0
C1149 C 0.17891 0.54164 0.31237 0.0
C1150 C 0.16902 0.55483 0.30045 0.0
H1151 H 0.20589 0.52447 0.31662 0.0
H1152 H 0.17159 0.53726 0.32619 0.0
C1153 C 0.1791 0.55997 0.28258 0.0
C1154 C 0.63725 0.00474 0.62291 0.0
C1155 C 0.62925 0.00976 0.60371 0.0
H1156 H 0.63631 0.98284 0.64427 0.0
C1157 C 0.61311 0.99653 0.59153 0.0
H1158 H 0.64936 0.01488 0.63278 0.0
C1159 C 0.60575 0.97823 0.59803 0.0
C1160 C 0.61408 0.973 0.61702 0.0
H1161 H 0.60664 6e-05 0.57668 0.0
H1162 H 0.59362 0.96809 0.58815 0.0
C1163 C 0.62963 0.98655 0.62957 0.0
C1164 C 0.3027 0.42118 0.82959 0.0
C1165 C 0.30613 0.44207 0.83083 0.0
H1166 H 0.31543 0.39471 0.83812 0.0
C1167 C 0.32304 0.45252 0.84458 0.0
H1168 H 0.28992 0.41279 0.81889 0.0
C1169 C 0.33734 0.44225 0.85573 0.0
C1170 C 0.33531 0.42132 0.85302 0.0
H1171 H 0.32585 0.46864 0.84594 0.0
H1172 H 0.35098 0.45068 0.86539 0.0
C1173 C 0.31725 0.41084 0.84062 0.0
C1174 C 0.85472 0.09376 0.13435 0.0
C1175 C 0.83649 0.09178 0.14659 0.0
H1176 H 0.8865 0.10925 0.13096 0.0
C1177 C 0.83635 0.10478 0.165 0.0
H1178 H 0.85536 0.08395 0.12008 0.0
C1179 C 0.85406 0.11937 0.1711 0.0
C1180 C 0.87241 0.12124 0.15902 0.0
H1181 H 0.8225 0.10378 0.17472 0.0
H1182 H 0.85327 0.1293 0.18525 0.0
C1183 C 0.87251 0.10833 0.14051 0.0
C1184 C 0.22496 0.20265 0.49277 0.0
C1185 C 0.22018 0.22254 0.49458 0.0
H1186 H 0.21892 0.17356 0.47601 0.0
C1187 C 0.20508 0.22823 0.47982 0.0
H1188 H 0.23628 0.19766 0.50404 0.0
C1189 C 0.19544 0.21443 0.46331 0.0
C1190 C 0.20039 0.19454 0.46145 0.0
H1191 H 0.20013 0.2431 0.48128 0.0
H1192 H 0.18414 0.21938 0.45201 0.0
C1193 C 0.21514 0.18883 0.47652 0.0
C1194 C 0.03195 0.86867 0.67865 0.0
C1195 C 0.02533 0.88784 0.68314 0.0
H1196 H 0.05625 0.85108 0.66593 0.0
C1197 C 0.03845 0.90423 0.67727 0.0
H1198 H 0.02228 0.85572 0.68303 0.0
C1199 C 0.05781 0.90153 0.66724 0.0
C1200 C 0.06458 0.88239 0.66296 0.0
H1201 H 0.03376 0.91918 0.68039 0.0
H1202 H 0.06742 0.91446 0.66272 0.0
C1203 C 0.05137 0.86599 0.66872 0.0
C1204 C 0.3392 0.82864 0.91556 0.0
C1205 C 0.34561 0.81181 0.90378 0.0
H1206 H 0.33434 0.85956 0.91662 0.0
C1207 C 0.3524 0.81343 0.8837 0.0
H1208 H 0.33338 0.82765 0.93088 0.0
C1209 C 0.35305 0.83163 0.87561 0.0
C1210 C 0.34649 0.84845 0.8873 0.0
H1211 H 0.35733 0.80063 0.87429 0.0
H1212 H 0.35826 0.83248 0.86004 0.0
C1213 C 0.33951 0.8468 0.90733 0.0
C1214 C 0.3959 0.0875 0.15314 0.0
C1215 C 0.40531 0.10506 0.16535 0.0
H1216 H 0.37464 0.07457 0.12672 0.0
C1217 C 0.40093 0.12356 0.15923 0.0
H1218 H 0.39908 0.073 0.15724 0.0
C1219 C 0.38681 0.12444 0.14168 0.0
C1220 C 0.37678 0.10684 0.12998 0.0
H1221 H 0.40799 0.13737 0.16826 0.0
H1222 H 0.38313 0.13886 0.13769 0.0
C1223 C 0.38183 0.08839 0.13567 0.0
C1224 C 0.04707 0.82125 0.04862 0.0
C1225 C 0.0647 0.80973 0.04512 0.0
H1226 H 0.03518 0.84565 0.06691 0.0
C1227 C 0.08394 0.81377 0.05854 0.0
H1228 H 0.03203 0.81857 0.03853 0.0
C1229 C 0.08566 0.82918 0.0749 0.0
C1230 C 0.06822 0.84095 0.07816 0.0
H1231 H 0.09779 0.80511 0.05637 0.0
H1232 H 0.10068 0.83185 0.08502 0.0
C1233 C 0.04882 0.83672 0.06495 0.0
C1234 C 0.45345 0.83801 0.29341 0.0
C1235 C 0.46587 0.85649 0.29265 0.0
H1236 H 0.42965 0.82115 0.30949 0.0
C1237 C 0.46429 0.87218 0.30833 0.0
H1238 H 0.45432 0.82571 0.28143 0.0
C1239 C 0.45005 0.86965 0.32416 0.0
C1240 C 0.43732 0.8513 0.32472 0.0
H1241 H 0.47324 0.88671 0.30784 0.0
H1242 H 0.4486 0.88216 0.33574 0.0
C1243 C 0.43947 0.83537 0.30947 0.0
C1244 C 0.38548 0.17734 0.57788 0.0
C1245 C 0.39713 0.19646 0.58184 0.0
H1246 H 0.37892 0.14861 0.58818 0.0
C1247 C 0.41107 0.20133 0.60007 0.0
H1248 H 0.37402 0.17335 0.56438 0.0
C1249 C 0.41359 0.1873 0.6139 0.0
C1250 C 0.40211 0.16809 0.60988 0.0
H1251 H 0.42014 0.216 0.60364 0.0
H1252 H 0.42429 0.19161 0.62791 0.0
C1253 C 0.38798 0.16328 0.59173 0.0
C1254 C 0.98278 0.09082 0.75337 0.0
C1255 C -0.00086 0.10311 0.7451 0.0
H1256 H 0.97371 0.07532 0.77916 0.0
C1257 C 0.01875 0.11019 0.75724 0.0
H1258 H 0.96775 0.08479 0.74414 0.0
C1259 C 0.0221 0.10489 0.77721 0.0
C1260 C 0.00608 0.09209 0.78529 0.0
H1261 H 0.03165 0.11961 0.75115 0.0
H1262 H 0.03765 0.11014 0.786 0.0
C1263 C 0.98628 0.08526 0.77328 0.0
C1264 C 0.94422 0.37372 0.81419 0.0
C1265 C 0.93437 0.36926 0.79388 0.0
H1266 H 0.93933 0.3769 0.84678 0.0
C1267 C 0.91132 0.36456 0.79106 0.0
H1268 H 0.96174 0.37836 0.81693 0.0
C1269 C 0.89842 0.36415 0.80815 0.0
C1270 C 0.9083 0.36843 0.82845 0.0
H1271 H 0.90322 0.36113 0.7756 0.0
H1272 H 0.8807 0.36039 0.80548 0.0
C1273 C 0.93134 0.37312 0.83131 0.0
C1274 C 0.8264 0.67699 0.0501 0.0
C1275 C 0.82693 0.69708 0.05841 0.0
H1276 H 0.82748 0.64677 0.05638 0.0
C1277 C 0.82865 0.70185 0.08015 0.0
H1278 H 0.82585 0.67273 0.03359 0.0
C1279 C 0.83008 0.68701 0.0932 0.0
C1280 C 0.82966 0.667 0.08487 0.0
H1281 H 0.8291 0.71714 0.08716 0.0
H1282 H 0.8315 0.69119 0.10985 0.0
C1283 C 0.82755 0.66208 0.0632 0.0
C1284 C 0.60891 0.64964 0.28627 0.0
C1285 C 0.62102 0.66811 0.28492 0.0
H1286 H 0.59712 0.62833 0.30605 0.0
C1287 C 0.63126 0.67921 0.30308 0.0
H1288 H 0.6015 0.64044 0.27243 0.0
C1289 C 0.62908 0.67215 0.32231 0.0
C1290 C 0.61677 0.65374 0.32376 0.0
H1291 H 0.64093 0.6934 0.30241 0.0
H1292 H 0.63744 0.68095 0.33599 0.0
C1293 C 0.60675 0.64255 0.3055 0.0
C1294 C 0.79538 0.29974 0.36959 0.0
C1295 C 0.79104 0.29974 0.39059 0.0
H1296 H 0.81016 0.31588 0.34651 0.0
C1297 C 0.79857 0.31662 0.40465 0.0
H1298 H 0.78959 0.28696 0.35837 0.0
C1299 C 0.81068 0.33299 0.39799 0.0
C1300 C 0.81514 0.33305 0.37698 0.0
H1301 H 0.79463 0.31746 0.42072 0.0
H1302 H 0.81649 0.34564 0.40934 0.0
C1303 C 0.80736 0.31621 0.36285 0.0
C1304 C 0.63787 0.6734 0.9433 0.0
C1305 C 0.64623 0.66204 0.95806 0.0
H1306 H 0.63898 0.68134 0.91239 0.0
C1307 C 0.66187 0.649 0.95232 0.0
H1308 H 0.62499 0.68278 0.94692 0.0
C1309 C 0.66927 0.64753 0.93235 0.0
C1310 C 0.66134 0.6592 0.91762 0.0
H1311 H 0.66843 0.63985 0.96329 0.0
H1312 H 0.68094 0.63694 0.92841 0.0
C1313 C 0.64552 0.67217 0.92334 0.0
C1314 C 0.76865 0.52324 0.84932 0.0
C1315 C 0.77153 0.51458 0.86774 0.0
H1316 H 0.77278 0.54992 0.83459 0.0
C1317 C 0.78304 0.52591 0.88513 0.0
H1318 H 0.75987 0.51469 0.83569 0.0
C1319 C 0.79077 0.54585 0.88446 0.0
C1320 C 0.78692 0.55498 0.86642 0.0
H1321 H 0.78588 0.51937 0.89936 0.0
H1322 H 0.79959 0.55414 0.89819 0.0
C1323 C 0.77611 0.54335 0.84871 0.0
C1324 C 0.20204 0.05508 0.68375 0.0
C1325 C 0.21775 0.04811 0.67053 0.0
H1326 H 0.18057 0.07749 0.69121 0.0
C1327 C 0.22377 0.05887 0.65412 0.0
H1328 H 0.19709 0.04708 0.69653 0.0
C1329 C 0.21417 0.07622 0.65093 0.0
C1330 C 0.19828 0.08312 0.66404 0.0
H1331 H 0.23521 0.05348 0.64321 0.0
H1332 H 0.21867 0.08385 0.63777 0.0
C1333 C 0.19252 0.07245 0.68063 0.0
C1334 C 0.68822 0.44231 0.39277 0.0
C1335 C 0.69897 0.44926 0.41229 0.0
H1336 H 0.66499 0.42034 0.37502 0.0
C1337 C 0.69238 0.44034 0.42969 0.0
H1338 H 0.69334 0.44871 0.37904 0.0
C1339 C 0.67565 0.42442 0.42755 0.0
C1340 C 0.66565 0.41658 0.40783 0.0
H1341 H 0.70042 0.44549 0.44492 0.0
H1342 H 0.67088 0.41806 0.44139 0.0
C1343 C 0.67192 0.42602 0.39051 0.0
C1344 C 0.31617 0.94748 0.12398 0.0
C1345 C 0.30708 0.95742 0.10826 0.0
H1346 H 0.3393 0.92746 0.13207 0.0
C1347 C 0.31661 0.95662 0.08906 0.0
H1348 H 0.30915 0.94783 0.13895 0.0
C1349 C 0.33414 0.94532 0.08526 0.0
C1350 C 0.34231 0.93425 0.10045 0.0
H1351 H 0.31019 0.96439 0.07676 0.0
H1352 H 0.34089 0.94481 0.07016 0.0
C1353 C 0.33354 0.93589 0.12007 0.0
C1354 C 0.79773 0.43047 0.56285 0.0
C1355 C 0.8054 0.44938 0.57332 0.0
H1356 H 0.80516 0.40103 0.55285 0.0
C1357 C 0.82789 0.45345 0.58015 0.0
H1358 H 0.78047 0.42678 0.5575 0.0
C1359 C 0.84222 0.43872 0.57715 0.0
C1360 C 0.83434 0.41952 0.56745 0.0
H1361 H 0.83435 0.46792 0.58816 0.0
H1362 H 0.85942 0.4423 0.58271 0.0
C1363 C 0.81197 0.4157 0.56007 0.0
C1364 C 0.33848 0.02537 0.40125 0.0
C1365 C 0.33234 0.01642 0.38097 0.0
H1366 H 0.35777 0.049 0.42068 0.0
C1367 C 0.34056 0.02539 0.36419 0.0
H1368 H 0.33255 0.01847 0.41442 0.0
C1369 C 0.35435 0.04339 0.36765 0.0
C1370 C 0.36081 0.05242 0.38803 0.0
H1371 H 0.33593 0.01871 0.3484 0.0
H1372 H 0.35961 0.05028 0.35428 0.0
C1373 C 0.35281 0.04298 0.40477 0.0
C1374 C 0.69579 0.5291 0.13123 0.0
C1375 C 0.69503 0.52018 0.1106 0.0
H1376 H 0.70208 0.55619 0.15202 0.0
C1377 C 0.69743 0.53232 0.09462 0.0
H1378 H 0.69393 0.52001 0.14381 0.0
C1379 C 0.70187 0.55297 0.09924 0.0
C1380 C 0.70409 0.56191 0.11996 0.0
H1381 H 0.69634 0.5258 0.07855 0.0
H1382 H 0.70405 0.56189 0.08656 0.0
C1383 C 0.7004 0.5498 0.13589 0.0
C1384 C 0.13059 0.902 0.86868 0.0
C1385 C 0.13739 0.91262 0.85246 0.0
H1386 H 0.10643 0.88086 0.87888 0.0
C1387 C 0.1253 0.90896 0.83316 0.0
H1388 H 0.13966 0.90465 0.88374 0.0
C1389 C 0.10669 0.89488 0.83009 0.0
C1390 C 0.09942 0.88443 0.84641 0.0
H1391 H 0.13054 0.91669 0.82028 0.0
H1392 H 0.09821 0.89203 0.81478 0.0
C1393 C 0.11163 0.88826 0.8658 0.0
C1394 C 0.82572 0.85674 0.56825 0.0
C1395 C 0.82963 0.83843 0.57514 0.0
H1396 H 0.82046 0.88727 0.57697 0.0
C1397 C 0.8298 0.83674 0.59653 0.0
H1398 H 0.82542 0.8585 0.55189 0.0
C1399 C 0.82716 0.85314 0.61075 0.0
C1400 C 0.824 0.87157 0.60394 0.0
H1401 H 0.8327 0.82288 0.60242 0.0
H1402 H 0.828 0.85154 0.62717 0.0
C1403 C 0.82278 0.87315 0.58255 0.0
C1404 C 0.93574 0.14452 0.36639 0.0
C1405 C 0.95569 0.14193 0.37712 0.0
H1406 H 0.90039 0.14019 0.365 0.0
C1407 C 0.95485 0.13242 0.39524 0.0
H1408 H 0.93566 0.15219 0.35273 0.0
C1409 C 0.93453 0.12581 0.40255 0.0
C1410 C 0.91457 0.12868 0.39197 0.0
H1411 H 0.96993 0.13022 0.40392 0.0
H1412 H 0.93447 0.11896 0.41681 0.0
C1413 C 0.91545 0.1379 0.37366 0.0
C1414 C 0.60081 0.14004 0.09711 0.0
C1415 C 0.58052 0.14282 0.08703 0.0
H1416 H 0.61745 0.12536 0.11986 0.0
C1417 C 0.56103 0.1323 0.09244 0.0
H1418 H 0.61613 0.14797 0.09335 0.0
C1419 C 0.56183 0.11913 0.1074 0.0
C1420 C 0.58211 0.11628 0.11746 0.0
H1421 H 0.54514 0.13396 0.08487 0.0
H1422 H 0.54654 0.11092 0.11081 0.0
C1423 C 0.60159 0.12697 0.1122 0.0
C1424 C 0.58434 0.85818 0.82913 0.0
C1425 C 0.57657 0.87705 0.83142 0.0
H1426 H 0.60655 0.83895 0.84096 0.0
C1427 C 0.5855 0.89111 0.84808 0.0
H1428 H 0.57777 0.84701 0.81645 0.0
C1429 C 0.60158 0.88639 0.86225 0.0
C1430 C 0.6095 0.86758 0.86002 0.0
H1431 H 0.57971 0.90569 0.8505 0.0
H1432 H 0.60747 0.89745 0.87524 0.0
C1433 C 0.60071 0.85351 0.84325 0.0
C1434 C 0.87116 0.19923 0.92893 0.0
C1435 C 0.87501 0.19273 0.94848 0.0
H1436 H 0.85866 0.19139 0.89726 0.0
C1437 C 0.86882 0.17265 0.95082 0.0
H1438 H 0.87564 0.21461 0.92658 0.0
C1439 C 0.85922 0.15934 0.93398 0.0
C1440 C 0.85551 0.16579 0.9144 0.0
H1441 H 0.8716 0.1671 0.96562 0.0
H1442 H 0.85512 0.14388 0.93623 0.0
C1443 C 0.86152 0.18591 0.91208 0.0
C1444 C 0.66415 0.14001 0.68565 0.0
C1445 C 0.65458 0.15339 0.69968 0.0
H1446 H 0.68746 0.13629 0.66246 0.0
C1447 C 0.66299 0.17363 0.7022 0.0
H1448 H 0.658 0.12434 0.68327 0.0
C1449 C 0.68006 0.18044 0.69043 0.0
C1450 C 0.68901 0.16722 0.67576 0.0
H1451 H 0.65611 0.18431 0.71298 0.0
H1452 H 0.68606 0.19615 0.69266 0.0
C1453 C 0.68112 0.14686 0.67376 0.0
C1454 C 0.61938 0.8077 0.44855 0.0
C1455 C 0.62351 0.80933 0.47018 0.0
H1456 H 0.61685 0.8228 0.4216 0.0
C1457 C 0.62955 0.82831 0.48122 0.0
H1458 H 0.61501 0.79327 0.43952 0.0
C1459 C 0.63019 0.8454 0.47096 0.0
C1460 C 0.62509 0.84378 0.44941 0.0
H1461 H 0.63397 0.83003 0.49771 0.0
H1462 H 0.63424 0.85986 0.47997 0.0
C1463 C 0.6202 0.82467 0.4383 0.0
C1464 C 0.90855 0.90462 0.20628 0.0
C1465 C 0.92027 0.92288 0.21463 0.0
H1466 H 0.88454 0.88926 0.18324 0.0
C1467 C 0.91676 0.94009 0.20545 0.0
H1468 H 0.91068 0.89119 0.21335 0.0
C1469 C 0.90226 0.93896 0.18777 0.0
C1470 C 0.89052 0.92064 0.1792 0.0
H1471 H 0.92573 0.95434 0.21157 0.0
H1472 H 0.90068 0.95241 0.18062 0.0
C1473 C 0.89366 0.90353 0.18892 0.0
C1474 C 0.07655 0.65633 0.14673 0.0
C1475 C 0.06931 0.63695 0.15084 0.0
H1476 H 0.09468 0.67447 0.12723 0.0
C1477 C 0.0756 0.62065 0.1381 0.0
H1478 H 0.07209 0.66922 0.15635 0.0
C1479 C 0.08816 0.62364 0.12117 0.0
C1480 C 0.09501 0.64303 0.11672 0.0
H1481 H 0.07017 0.60551 0.14073 0.0
H1482 H 0.09182 0.61069 0.11118 0.0
C1483 C 0.08936 0.65934 0.12994 0.0
C1484 C 0.10436 0.24048 0.90018 0.0
C1485 C 0.11434 0.24046 0.92019 0.0
H1486 H 0.09699 0.25758 0.87551 0.0
C1487 C 0.12609 0.25814 0.93025 0.0
H1488 H 0.09537 0.22703 0.89195 0.0
C1489 C 0.12696 0.27573 0.92084 0.0
C1490 C 0.11609 0.2759 0.9012 0.0
H1491 H 0.13469 0.2584 0.94531 0.0
H1492 H 0.1356 0.28928 0.92916 0.0
C1493 C 0.10516 0.258 0.89083 0.0
C1494 C 0.41719 0.41603 0.71007 0.0
C1495 C 0.42471 0.43606 0.71678 0.0
H1496 H 0.39692 0.39529 0.68796 0.0
C1497 C 0.41686 0.45093 0.70591 0.0
H1498 H 0.42236 0.4043 0.71856 0.0
C1499 C 0.4024 0.44579 0.68812 0.0
C1500 C 0.39527 0.42566 0.68106 0.0
H1501 H 0.42233 0.46652 0.71084 0.0
H1502 H 0.39728 0.45756 0.67964 0.0
C1503 C 0.40256 0.4109 0.69251 0.0
C1504 C 0.08144 0.66025 0.54614 0.0
C1505 C 0.1001 0.6632 0.53475 0.0
H1506 H 0.06401 0.64228 0.56608 0.0
C1507 C 0.11578 0.64944 0.53453 0.0
H1508 H 0.069 0.67058 0.54636 0.0
C1509 C 0.11344 0.63358 0.54652 0.0
C1510 C 0.0951 0.63094 0.55861 0.0
H1511 H 0.13045 0.65156 0.526 0.0
H1512 H 0.12653 0.62397 0.54698 0.0
C1513 C 0.07875 0.64412 0.55763 0.0
C1514 C 0.34527 0.32914 0.04764 0.0
C1515 C 0.35527 0.31173 0.05014 0.0
H1516 H 0.33571 0.35651 0.06235 0.0
C1517 C 0.36369 0.30887 0.07005 0.0
H1518 H 0.33866 0.33183 0.03252 0.0
C1519 C 0.36189 0.32293 0.0871 0.0
C1520 C 0.35166 0.34021 0.08467 0.0
H1521 H 0.37145 0.29562 0.07256 0.0
H1522 H 0.36811 0.32004 0.10229 0.0
C1523 C 0.34346 0.34322 0.06474 0.0
C1524 C 0.53875 0.33874 0.21233 0.0
C1525 C 0.52827 0.35575 0.21836 0.0
H1526 H 0.55615 0.32319 0.18893 0.0
C1527 C 0.52699 0.37026 0.20472 0.0
H1528 H 0.54005 0.32736 0.2226 0.0
C1529 C 0.53625 0.36791 0.1855 0.0
C1530 C 0.54689 0.35096 0.17952 0.0
H1531 H 0.51956 0.38377 0.20917 0.0
H1532 H 0.53531 0.37946 0.1754 0.0
C1533 C 0.54781 0.33628 0.19302 0.0
C1534 C 0.93633 0.61991 0.6817 0.0
C1535 C 0.94106 0.63442 0.69899 0.0
H1536 H 0.91367 0.6081 0.65578 0.0
C1537 C 0.92587 0.64821 0.7037 0.0
H1538 H 0.94784 0.60917 0.67773 0.0
C1539 C 0.90649 0.64778 0.69097 0.0
C1540 C 0.90188 0.63335 0.67357 0.0
H1541 H 0.92938 0.65977 0.71672 0.0
H1542 H 0.89521 0.65882 0.69456 0.0
C1543 C 0.91679 0.61924 0.66922 0.0
C1544 C 0.6258 0.34471 0.61417 0.0
C1545 C 0.64785 0.34111 0.6183 0.0
H1546 H 0.59992 0.36251 0.62226 0.0
C1547 C 0.65998 0.35171 0.63585 0.0
H1548 H 0.61595 0.3368 0.6008 0.0
C1549 C 0.65065 0.36635 0.64834 0.0
C1550 C 0.62903 0.37076 0.6435 0.0
H1551 H 0.67694 0.34919 0.63958 0.0
H1552 H 0.6606 0.3746 0.66148 0.0
C1553 C 0.61652 0.3594 0.62659 0.0
C1554 C 0.47607 0.60005 0.77304 0.0
C1555 C 0.48607 0.61878 0.7695 0.0
H1556 H 0.44781 0.5835 0.78321 0.0
C1557 C 0.47401 0.63525 0.77183 0.0
H1558 H 0.48516 0.58713 0.77128 0.0
C1559 C 0.45228 0.6331 0.77773 0.0
C1560 C 0.44236 0.61454 0.78229 0.0
H1561 H 0.4813 0.64977 0.76878 0.0
H1562 H 0.44334 0.6461 0.77874 0.0
C1563 C 0.45455 0.59798 0.77965 0.0
C1564 C 0.08218 0.34451 0.32082 0.0
C1565 C 0.08064 0.34565 0.29932 0.0
H1566 H 0.10337 0.34712 0.34864 0.0
C1567 C 0.10021 0.3482 0.289 0.0
H1568 H 0.06744 0.34246 0.32925 0.0
C1569 C 0.1208 0.3507 0.30011 0.0
C1570 C 0.12229 0.35074 0.32178 0.0
H1571 H 0.09964 0.34893 0.27241 0.0
H1572 H 0.13557 0.35318 0.2918 0.0
C1573 C 0.1028 0.34704 0.33194 0.0
C1574 C 0.3845 0.63531 0.4064 0.0
C1575 C 0.39393 0.65527 0.40986 0.0
H1576 H 0.38015 0.60803 0.3858 0.0
C1577 C 0.40624 0.66309 0.39441 0.0
H1578 H 0.37494 0.62881 0.41799 0.0
C1579 C 0.40908 0.65124 0.37598 0.0
C1580 C 0.39977 0.63125 0.37254 0.0
H1581 H 0.41363 0.67844 0.39649 0.0
H1582 H 0.41839 0.65783 0.36428 0.0
C1583 C 0.38738 0.62342 0.38793 0.0
C1584 C 0.0751 0.30092 0.02951 0.0
C1585 C 0.09404 0.29742 0.01884 0.0
H1586 H 0.06014 0.32039 0.05151 0.0
C1587 C 0.11299 0.31128 0.02281 0.0
H1588 H 0.06021 0.29055 0.02679 0.0
C1589 C 0.11298 0.3283 0.03706 0.0
C1590 C 0.09401 0.33187 0.04765 0.0
H1591 H 0.12789 0.309 0.01493 0.0
H1592 H 0.12793 0.33858 0.03992 0.0
C1593 C 0.07509 0.31796 0.04377 0.0
C1594 C 0.94712 0.89969 0.33149 0.0
C1595 C 0.95312 0.91986 0.32932 0.0
H1596 H 0.93539 0.87853 0.35157 0.0
C1597 C 0.95321 0.93419 0.34668 0.0
H1598 H 0.94695 0.88828 0.31838 0.0
C1599 C 0.94693 0.92859 0.36566 0.0
C1600 C 0.94014 0.90854 0.36772 0.0
H1601 H 0.95804 0.94982 0.34561 0.0
H1602 H 0.94722 0.94006 0.37873 0.0
C1603 C 0.94064 0.89408 0.35052 0.0
C1604 C 0.36534 0.67273 0.54831 0.0
C1605 C 0.3858 0.68025 0.54171 0.0
H1606 H 0.3479 0.6611 0.5727 0.0
C1607 C 0.4044 0.68337 0.556 0.0
H1608 H 0.35065 0.67026 0.53776 0.0
C1609 C 0.40279 0.67815 0.57612 0.0
C1610 C 0.38261 0.66963 0.58227 0.0
H1611 H 0.42038 0.68924 0.55146 0.0
H1612 H 0.41752 0.68006 0.58661 0.0
C1613 C 0.36377 0.66743 0.56835 0.0
C1614 C 0.61606 0.1175 0.80547 0.0
C1615 C 0.61629 0.10302 0.7882 0.0
H1616 H 0.62178 0.12471 0.83845 0.0
C1617 C 0.62303 0.08435 0.79134 0.0
H1618 H 0.61098 0.13204 0.80358 0.0
C1619 C 0.62923 0.08019 0.81129 0.0
C1620 C 0.62881 0.09457 0.82852 0.0
H1621 H 0.62345 0.07288 0.7784 0.0
H1622 H 0.63424 0.06563 0.81325 0.0
C1623 C 0.62225 0.11331 0.82545 0.0
C1624 C 0.11924 0.61542 0.4169 0.0
C1625 C 0.13174 0.61035 0.434 0.0
H1626 H 0.11077 0.60987 0.38421 0.0
C1627 C 0.14529 0.59487 0.43081 0.0
H1628 H 0.10861 0.62725 0.41878 0.0
C1629 C 0.14649 0.58487 0.41092 0.0
C1630 C 0.13422 0.59015 0.39385 0.0
H1631 H 0.15512 0.59057 0.44363 0.0
H1632 H 0.15719 0.57311 0.40885 0.0
C1633 C 0.12048 0.60545 0.39704 0.0
C1634 C 0.55342 0.91403 0.72319 0.0
C1635 C 0.55344 0.92833 0.74062 0.0
H1636 H 0.56274 0.90767 0.69211 0.0
C1637 C 0.56315 0.94786 0.7396 0.0
H1638 H 0.54608 0.89886 0.72344 0.0
C1639 C 0.57273 0.95293 0.72158 0.0
C1640 C 0.57282 0.93858 0.70426 0.0
H1641 H 0.56343 0.95924 0.75275 0.0
H1642 H 0.58016 0.96806 0.72121 0.0
C1643 C 0.56301 0.91909 0.70521 0.0
C1644 C 0.34954 0.32074 0.92433 0.0
C1645 C 0.36638 0.31242 0.93497 0.0
H1646 H 0.34141 0.3409 0.90279 0.0
C1647 C 0.38851 0.31778 0.931 0.0
H1648 H 0.33232 0.31691 0.92701 0.0
C1649 C 0.39371 0.33153 0.91708 0.0
C1650 C 0.37692 0.34023 0.90691 0.0
H1651 H 0.40188 0.31162 0.93891 0.0
H1652 H 0.41092 0.33564 0.91456 0.0
C1653 C 0.35476 0.33453 0.91046 0.0
C1654 C 0.93328 0.14251 0.24779 0.0
C1655 C 0.93895 0.16153 0.2588 0.0
H1656 H 0.92261 0.12543 0.21867 0.0
C1657 C 0.93806 0.17835 0.24813 0.0
H1658 H 0.93405 0.12922 0.25544 0.0
C1659 C 0.93122 0.17618 0.22697 0.0
C1660 C 0.92521 0.15714 0.21605 0.0
H1661 H 0.94238 0.19322 0.25617 0.0
H1662 H 0.93018 0.18942 0.21929 0.0
C1663 C 0.92662 0.14035 0.22668 0.0
C1664 C 0.09946 0.14698 0.39894 0.0
C1665 C 0.09046 0.16495 0.39701 0.0
H1666 H 0.12747 0.13295 0.40856 0.0
C1667 C 0.10352 0.18305 0.40374 0.0
H1668 H 0.08974 0.13279 0.39405 0.0
C1669 C 0.12538 0.18317 0.41162 0.0
C1670 C 0.13459 0.16519 0.41321 0.0
H1671 H 0.09708 0.19715 0.40233 0.0
H1672 H 0.13522 0.19739 0.41593 0.0
C1673 C 0.12119 0.1471 0.4071 0.0
C1674 C 0.0777 0.78767 0.56079 0.0
C1675 C 0.09854 0.78063 0.55936 0.0
H1676 H 0.05887 0.80983 0.57503 0.0
C1677 C 0.11673 0.79104 0.57167 0.0
H1678 H 0.06335 0.78001 0.55154 0.0
C1679 C 0.11413 0.80813 0.58509 0.0
C1680 C 0.09328 0.81513 0.58646 0.0
H1681 H 0.133 0.786 0.57095 0.0
H1682 H 0.12845 0.8158 0.59437 0.0
C1683 C 0.07512 0.80474 0.57422 0.0
C1684 C 0.46518 0.90013 0.85033 0.0
C1685 C 0.46431 0.89486 0.82872 0.0
H1686 H 0.44702 0.90638 0.87711 0.0
C1687 C 0.44376 0.89314 0.81727 0.0
H1688 H 0.48071 0.90165 0.85964 0.0
C1689 C 0.4244 0.89604 0.82736 0.0
C1690 C 0.42533 0.90059 0.84906 0.0
H1691 H 0.44256 0.88916 0.80059 0.0
H1692 H 0.40872 0.89415 0.81826 0.0
C1693 C 0.44589 0.90287 0.86037 0.0
C1694 C 0.39692 0.18732 0.03787 0.0
C1695 C 0.37802 0.19498 0.02998 0.0
H1696 H 0.40972 0.1644 0.05356 0.0
C1697 C 0.35718 0.18418 0.03076 0.0
H1698 H 0.41323 0.19523 0.03744 0.0
C1699 C 0.35519 0.16662 0.04016 0.0
C1700 C 0.37404 0.15946 0.04878 0.0
H1701 H 0.34228 0.18966 0.02482 0.0
H1702 H 0.33885 0.15896 0.04107 0.0
C1703 C 0.39494 0.1697 0.04711 0.0
C1704 C 0.01341 0.90406 0.1545 0.0
C1705 C 0.00103 0.88812 0.16203 0.0
H1706 H 0.03987 0.91319 0.13618 0.0
C1707 C 0.00597 0.8686 0.15619 0.0
H1708 H 0.00997 0.91928 0.15864 0.0
C1709 C 0.02323 0.86514 0.14344 0.0
C1710 C 0.03588 0.88112 0.13623 0.0
H1711 H 0.99679 0.85601 0.16179 0.0
H1712 H 0.02701 0.84997 0.13964 0.0
C1713 C 0.03065 0.9006 0.14175 0.0
C1714 C 0.37047 0.76934 0.42502 0.0
C1715 C 0.39125 0.7634 0.43045 0.0
H1716 H 0.3525 0.78864 0.40822 0.0
C1717 C 0.41028 0.77325 0.42333 0.0
H1718 H 0.3555 0.76208 0.43027 0.0
C1719 C 0.40851 0.78831 0.41055 0.0
C1720 C 0.38768 0.7939 0.40477 0.0
H1721 H 0.42653 0.76901 0.4272 0.0
H1722 H 0.42344 0.7954 0.40506 0.0
C1723 C 0.36873 0.78451 0.41238 0.0
C1724 C 0.51271 0.14048 0.69372 0.0
C1725 C 0.5324 0.14417 0.68382 0.0
H1726 H 0.47725 0.13622 0.69057 0.0
C1727 C 0.5311 0.1461 0.66248 0.0
H1728 H 0.51316 0.13891 0.71014 0.0
C1729 C 0.51061 0.14461 0.65135 0.0
C1730 C 0.49098 0.14109 0.66124 0.0
H1731 H 0.54592 0.14895 0.65434 0.0
H1732 H 0.51013 0.14634 0.63496 0.0
C1733 C 0.49215 0.13892 0.68252 0.0
C1734 C 0.07206 0.1145 0.88181 0.0
C1735 C 0.06289 0.13165 0.88991 0.0
H1736 H 0.06793 0.088 0.86008 0.0
C1737 C 0.04171 0.13494 0.88218 0.0
H1738 H 0.08833 0.11155 0.88746 0.0
C1739 C 0.03016 0.12156 0.86634 0.0
C1740 C 0.0394 0.10447 0.85822 0.0
H1741 H 0.03425 0.14806 0.88808 0.0
H1742 H 0.014 0.12454 0.86043 0.0
C1743 C 0.06036 0.10097 0.86623 0.0
C1744 C 0.27742 0.0602 0.11115 0.0
C1745 C 0.27198 0.04714 0.09282 0.0
H1746 H 0.29779 0.08597 0.12602 0.0
C1747 C 0.28124 0.05182 0.07439 0.0
H1748 H 0.27037 0.05716 0.12554 0.0
C1749 C 0.29714 0.06825 0.07472 0.0
C1750 C 0.30396 0.08031 0.09346 0.0
H1751 H 0.27731 0.04207 0.05998 0.0
H1752 H 0.30516 0.07067 0.06062 0.0
C1753 C 0.2932 0.07666 0.11144 0.0
C1754 C 0.80941 0.39889 0.84389 0.0
C1755 C 0.80388 0.41042 0.8618 0.0
H1756 H 0.83166 0.37953 0.83036 0.0
C1757 C 0.81711 0.411 0.88034 0.0
H1758 H 0.79948 0.39803 0.82939 0.0
C1759 C 0.83572 0.40058 0.88084 0.0
C1760 C 0.84146 0.38926 0.86285 0.0
H1761 H 0.81334 0.41981 0.8944 0.0
H1762 H 0.8459 0.40179 0.89524 0.0
C1763 C 0.82795 0.38839 0.84441 0.0
C1764 C 0.7841 0.57237 0.08405 0.0
C1765 C 0.77555 0.56452 0.10142 0.0
H1766 H 0.80494 0.59564 0.07291 0.0
C1767 C 0.78138 0.57485 0.12128 0.0
H1768 H 0.77983 0.56483 0.06853 0.0
C1769 C 0.79563 0.59251 0.12375 0.0
C1770 C 0.80436 0.60028 0.10643 0.0
H1771 H 0.77489 0.56933 0.13496 0.0
H1772 H 0.79965 0.60022 0.13924 0.0
C1773 C 0.79837 0.59007 0.08654 0.0
C1774 C 0.64664 0.54227 0.37054 0.0
C1775 C 0.64503 0.53313 0.38883 0.0
H1776 H 0.63875 0.5666 0.35433 0.0
C1777 C 0.63267 0.54138 0.40463 0.0
H1778 H 0.65599 0.53629 0.35805 0.0
C1779 C 0.62277 0.55877 0.40247 0.0
C1780 C 0.62507 0.56827 0.38453 0.0
H1781 H 0.63105 0.53468 0.41889 0.0
H1782 H 0.61374 0.56507 0.41507 0.0
C1783 C 0.63679 0.55969 0.36842 0.0
C1784 C 0.19377 0.91342 0.11441 0.0
C1785 C 0.19338 0.93367 0.12167 0.0
H1786 H 0.1752 0.88481 0.10658 0.0
C1787 C 0.1731 0.94055 0.12665 0.0
H1788 H 0.20909 0.9076 0.11043 0.0
C1789 C 0.15362 0.92739 0.12443 0.0
C1790 C 0.15416 0.90715 0.1172 0.0
H1791 H 0.17226 0.95606 0.13229 0.0
H1792 H 0.13822 0.93307 0.12836 0.0
C1793 C 0.17437 0.90033 0.11221 0.0
C1794 C 0.16701 0.92753 0.68223 0.0
C1795 C 0.17997 0.93509 0.66709 0.0
H1796 H 0.13966 0.90728 0.68858 0.0
C1797 C 0.17528 0.92713 0.64619 0.0
H1798 H 0.17027 0.93323 0.69849 0.0
C1799 C 0.15762 0.91233 0.64049 0.0
C1800 C 0.14427 0.90517 0.65557 0.0
H1801 H 0.18496 0.93262 0.63414 0.0
H1802 H 0.154 0.90695 0.62419 0.0
C1803 C 0.14939 0.91273 0.67654 0.0
C1804 C 0.8138 0.43802 0.37732 0.0
C1805 C 0.81239 0.44154 0.39894 0.0
H1806 H 0.82213 0.41795 0.35169 0.0
C1807 C 0.82098 0.4283 0.41158 0.0
H1808 H 0.80739 0.448 0.36717 0.0
C1809 C 0.82923 0.41113 0.40271 0.0
C1810 C 0.82928 0.40696 0.38105 0.0
H1811 H 0.82027 0.43061 0.42829 0.0
H1812 H 0.83477 0.40067 0.41275 0.0
C1813 C 0.82228 0.42089 0.36844 0.0
C1814 C 0.74069 0.59045 0.90736 0.0
C1815 C 0.73512 0.57623 0.88989 0.0
H1816 H 0.74501 0.6215 0.91929 0.0
C1817 C 0.72989 0.58279 0.87064 0.0
H1818 H 0.74501 0.58589 0.92236 0.0
C1819 C 0.72985 0.60307 0.86894 0.0
C1820 C 0.73517 0.61724 0.88642 0.0
H1821 H 0.72577 0.57226 0.85682 0.0
H1822 H 0.72556 0.60764 0.85392 0.0
C1823 C 0.74083 0.6108 0.9056 0.0
C1824 C 0.80271 0.63146 0.94185 0.0
C1825 C 0.79692 0.65085 0.94092 0.0
H1826 H 0.80802 0.60366 0.92496 0.0
C1827 C 0.79074 0.65659 0.92149 0.0
H1828 H 0.80755 0.62655 0.95656 0.0
C1829 C 0.79096 0.64343 0.90334 0.0
C1830 C 0.79724 0.62419 0.90422 0.0
H1831 H 0.78603 0.67137 0.92022 0.0
H1832 H 0.78615 0.64832 0.88861 0.0
C1833 C 0.80287 0.6183 0.92372 0.0
C1834 C 0.0917 0.09953 0.65511 0.0
C1835 C 0.08297 0.11654 0.66422 0.0
H1836 H 0.12061 0.08647 0.64566 0.0
C1837 C 0.09741 0.13384 0.67092 0.0
H1838 H 0.08101 0.08597 0.64975 0.0
C1839 C 0.12013 0.13405 0.66883 0.0
C1840 C 0.12893 0.11699 0.65989 0.0
H1841 H 0.09124 0.14717 0.67813 0.0
H1842 H 0.13084 0.14749 0.67459 0.0
C1843 C 0.11443 0.09976 0.65293 0.0
C1844 C 0.67384 0.3251 0.48982 0.0
C1845 C 0.65309 0.3177 0.49592 0.0
H1846 H 0.69148 0.34048 0.46768 0.0
C1847 C 0.63406 0.31902 0.48309 0.0
H1848 H 0.68882 0.32431 0.49935 0.0
C1849 C 0.63562 0.32826 0.46501 0.0
C1850 C 0.65626 0.33638 0.4594 0.0
H1851 H 0.61784 0.3134 0.48728 0.0
H1852 H 0.62057 0.32945 0.45577 0.0
C1853 C 0.67538 0.33439 0.47174 0.0
C1854 C 0.44508 0.87225 0.16471 0.0
C1855 C 0.45494 0.88435 0.18247 0.0
H1856 H 0.42455 0.87039 0.13663 0.0
C1857 C 0.45142 0.90459 0.18528 0.0
H1858 H 0.44747 0.85661 0.16207 0.0
C1859 C 0.43815 0.9125 0.1707 0.0
C1860 C 0.42832 0.90037 0.15299 0.0
H1861 H 0.45875 0.91431 0.19883 0.0
H1862 H 0.43556 0.9281 0.17328 0.0
C1863 C 0.43196 0.88018 0.15009 0.0
C1864 C 0.84486 0.34537 0.49367 0.0
C1865 C 0.84081 0.32541 0.49749 0.0
H1866 H 0.85416 0.37569 0.50659 0.0
C1867 C 0.84464 0.32073 0.51782 0.0
H1868 H 0.84226 0.34949 0.47817 0.0
C1869 C 0.85139 0.33578 0.53412 0.0
C1870 C 0.85445 0.35584 0.53044 0.0
H1871 H 0.84174 0.3055 0.52129 0.0
H1872 H 0.85327 0.33178 0.54974 0.0
C1873 C 0.8516 0.3604 0.50996 0.0
C1874 C 0.44339 0.09202 0.29497 0.0
C1875 C 0.44256 0.11239 0.29324 0.0
H1876 H 0.43911 0.06857 0.31434 0.0
C1877 C 0.43827 0.12511 0.31081 0.0
H1878 H 0.44672 0.08181 0.28174 0.0
C1879 C 0.43396 0.11751 0.32944 0.0
C1880 C 0.43385 0.09701 0.33085 0.0
H1881 H 0.43761 0.14089 0.31004 0.0
H1882 H 0.43013 0.12765 0.34251 0.0
C1883 C 0.43904 0.08442 0.3136 0.0
C1884 C 0.70092 0.61575 0.04731 0.0
C1885 C 0.68902 0.63093 0.05605 0.0
H1886 H 0.73025 0.60082 0.04975 0.0
C1887 C 0.69748 0.64243 0.07466 0.0
H1888 H 0.69482 0.60677 0.03289 0.0
C1889 C 0.71737 0.63871 0.08445 0.0
C1890 C 0.72939 0.62375 0.07555 0.0
H1891 H 0.68864 0.65422 0.08171 0.0
H1892 H 0.72358 0.64782 0.09877 0.0
C1893 C 0.72116 0.61241 0.05684 0.0
C1894 C 0.00307 0.88358 0.79267 0.0
C1895 C 0.99397 0.86743 0.77823 0.0
H1896 H 0.02492 0.89349 0.81962 0.0
C1897 C -0.00087 0.84819 0.78106 0.0
H1898 H -0.00073 0.89858 0.79103 0.0
C1899 C 0.0141 0.84531 0.79725 0.0
C1900 C 0.02413 0.86159 0.81108 0.0
H1901 H 0.99243 0.83543 0.77019 0.0
H1902 H 0.01862 0.83043 0.79827 0.0
C1903 C 0.01791 0.88068 0.80897 0.0
C1904 C 0.89274 0.93881 0.67934 0.0
C1905 C 0.90135 0.92349 0.68904 0.0
H1906 H 0.86688 0.94688 0.6592 0.0
C1907 C 0.88869 0.90484 0.68768 0.0
H1908 H 0.90203 0.95338 0.68018 0.0
C1909 C 0.86865 0.90116 0.67566 0.0
C1910 C 0.86076 0.91607 0.66487 0.0
H1911 H 0.89471 0.89275 0.69509 0.0
H1912 H 0.85968 0.8864 0.6742 0.0
C1913 C 0.87258 0.93514 0.66739 0.0
C1914 C 0.81095 0.20897 0.42007 0.0
C1915 C 0.79168 0.20269 0.4071 0.0
H1916 H 0.84258 0.20178 0.43129 0.0
C1917 C 0.78929 0.18361 0.39583 0.0
H1918 H 0.8133 0.22367 0.42881 0.0
C1919 C 0.80586 0.17099 0.39755 0.0
C1920 C 0.82528 0.17744 0.41023 0.0
H1921 H 0.7746 0.17841 0.38572 0.0
H1922 H 0.80364 0.15635 0.38867 0.0
C1923 C 0.82772 0.19652 0.42142 0.0
C1924 C 0.52188 0.10183 0.19746 0.0
C1925 C 0.50993 0.08323 0.19865 0.0
H1926 H 0.54937 0.11774 0.18518 0.0
C1927 C 0.51807 0.06589 0.18957 0.0
H1928 H 0.51612 0.11547 0.20438 0.0
C1929 C 0.53716 0.06721 0.17861 0.0
C1930 C 0.54836 0.0859 0.17643 0.0
H1931 H 0.50926 0.05133 0.19027 0.0
H1932 H 0.54254 0.05368 0.171 0.0
C1933 C 0.54086 0.10316 0.1864 0.0
C1934 C 0.61426 0.75102 0.91089 0.0
C1935 C 0.6254 0.75167 0.93056 0.0
H1936 H 0.60627 0.76709 0.88541 0.0
C1937 C 0.63728 0.7697 0.93962 0.0
H1938 H 0.60496 0.73739 0.90345 0.0
C1939 C 0.638 0.78668 0.92926 0.0
C1940 C 0.62686 0.78598 0.90961 0.0
H1941 H 0.64604 0.77073 0.95475 0.0
H1942 H 0.64729 0.80032 0.9367 0.0
C1943 C 0.615 0.76801 0.90054 0.0
C1944 C 0.89611 0.12532 0.78877 0.0
C1945 C 0.91071 0.14077 0.7829 0.0
H1946 H 0.87159 0.11676 0.80931 0.0
C1947 C 0.91106 0.16009 0.7934 0.0
H1948 H 0.89541 0.11028 0.78098 0.0
C1949 C 0.89737 0.1638 0.80963 0.0
C1950 C 0.88309 0.14829 0.81569 0.0
H1951 H 0.92207 0.17234 0.78924 0.0
H1952 H 0.89815 0.17876 0.81764 0.0
C1953 C 0.88245 0.12904 0.80501 0.0
C1954 C 0.73016 0.24977 0.61955 0.0
C1955 C 0.70928 0.25212 0.61034 0.0
H1956 H 0.74959 0.23135 0.63616 0.0
C1957 C 0.69169 0.23718 0.61102 0.0
H1958 H 0.74405 0.26102 0.61928 0.0
C1959 C 0.69484 0.22032 0.6208 0.0
C1960 C 0.7157 0.21795 0.62997 0.0
H1961 H 0.6754 0.23853 0.60408 0.0
H1962 H 0.681 0.20899 0.62094 0.0
C1963 C 0.73336 0.23279 0.62916 0.0
C1964 C 0.57124 0.8581 0.36206 0.0
C1965 C 0.56054 0.87474 0.35801 0.0
H1966 H 0.59465 0.84621 0.38159 0.0
C1967 C 0.56536 0.89258 0.37147 0.0
H1968 H 0.56801 0.84415 0.35197 0.0
C1969 C 0.58062 0.89373 0.38861 0.0
C1970 C 0.5913 0.87704 0.39264 0.0
H1971 H 0.55737 0.90567 0.36877 0.0
H1972 H 0.5839 0.90761 0.39881 0.0
C1973 C 0.58644 0.85924 0.37914 0.0
C1974 C 0.83661 0.82668 0.07547 0.0
C1975 C 0.85273 0.81398 0.07007 0.0
H1976 H 0.82958 0.85403 0.09222 0.0
C1977 C 0.87477 0.81956 0.07785 0.0
H1978 H 0.81949 0.82281 0.06973 0.0
C1979 C 0.88052 0.8374 0.09087 0.0
C1980 C 0.86441 0.85008 0.09618 0.0
H1981 H 0.88756 0.81006 0.07403 0.0
H1982 H 0.89759 0.84131 0.09677 0.0
C1983 C 0.8424 0.8446 0.08833 0.0
C1984 C 0.69849 0.92142 0.90859 0.0
C1985 C 0.69838 0.92664 0.93015 0.0
H1986 H 0.68596 0.90065 0.88222 0.0
C1987 C 0.68663 0.91359 0.94197 0.0
H1988 H 0.70745 0.93111 0.89906 0.0
C1989 C 0.67448 0.89609 0.93232 0.0
C1990 C 0.67371 0.89139 0.91066 0.0
H1991 H 0.68632 0.91715 0.95862 0.0
H1992 H 0.66487 0.88671 0.94171 0.0
C1993 C 0.68617 0.90401 0.89894 0.0
C1994 C 0.15465 0.56191 0.03571 0.0
C1995 C 0.16522 0.54866 0.04695 0.0
H1996 H 0.1438 0.59085 0.03585 0.0
C1997 C 0.17362 0.5551 0.06747 0.0
H1998 H 0.14809 0.55742 0.01983 0.0
C1999 C 0.17103 0.57426 0.07671 0.0
C2000 C 0.16025 0.58737 0.06553 0.0
H2001 H 0.18184 0.54523 0.07654 0.0
H2002 H 0.17726 0.57876 0.09268 0.0
C2003 C 0.15227 0.58111 0.04487 0.0
C2004 C 0.2286 0.35969 0.86592 0.0
C2005 C 0.22258 0.37756 0.85938 0.0
H2006 H 0.21787 0.33267 0.87844 0.0
C2007 C 0.20082 0.38223 0.86157 0.0
H2008 H 0.24525 0.35568 0.86451 0.0
C2009 C 0.18529 0.36915 0.86958 0.0
C2010 C 0.19111 0.35103 0.87556 0.0
H2011 H 0.19565 0.39593 0.85684 0.0
H2012 H 0.16861 0.37317 0.87075 0.0
C2013 C 0.21297 0.34654 0.87392 0.0
C2014 C 0.31137 0.45136 0.60488 0.0
C2015 C 0.29748 0.45923 0.61951 0.0
H2016 H 0.33899 0.43497 0.5993 0.0
C2017 C 0.30103 0.45604 0.64039 0.0
H2018 H 0.30924 0.45368 0.5887 0.0
C2019 C 0.3181 0.44517 0.64648 0.0
C2020 C 0.33196 0.43726 0.6318 0.0
H2021 H 0.29064 0.46196 0.65206 0.0
H2022 H 0.32026 0.44272 0.66261 0.0
C2023 C 0.32841 0.44056 0.61095 0.0
C2024 C 0.7901 0.08065 0.90778 0.0
C2025 C 0.77328 0.0729 0.89246 0.0
H2026 H 0.81839 0.1018 0.9165 0.0
C2027 C 0.77186 0.08159 0.87388 0.0
H2028 H 0.79174 0.07425 0.92224 0.0
C2029 C 0.78705 0.09767 0.87069 0.0
C2030 C 0.804 0.10532 0.88599 0.0
H2031 H 0.75901 0.076 0.86182 0.0
H2032 H 0.78543 0.10418 0.8563 0.0
C2033 C 0.80531 0.09659 0.90455 0.0
C2034 C 0.87208 0.06059 0.45321 0.0
C2035 C 0.85192 0.04843 0.44835 0.0
H2036 H 0.89305 0.08612 0.44659 0.0
C2037 C 0.83782 0.05234 0.43178 0.0
H2038 H 0.88338 0.05788 0.46579 0.0
C2039 C 0.84336 0.0685 0.42085 0.0
C2040 C 0.86322 0.08097 0.42608 0.0
H2041 H 0.82224 0.0432 0.42755 0.0
H2042 H 0.83193 0.07144 0.40847 0.0
C2043 C 0.87773 0.07664 0.44211 0.0
C2044 C 0.16057 0.5279 0.59611 0.0
C2045 C 0.18043 0.52875 0.5861 0.0
H2046 H 0.12809 0.53708 0.59743 0.0
C2047 C 0.18162 0.538 0.56783 0.0
H2048 H 0.15903 0.52076 0.61012 0.0
C2049 C 0.16385 0.54739 0.56055 0.0
C2050 C 0.14461 0.54772 0.57141 0.0
H2051 H 0.19663 0.53879 0.55964 0.0
H2052 H 0.16556 0.55522 0.54701 0.0
C2053 C 0.14283 0.53731 0.58885 0.0
C2054 C 0.2284 0.38427 0.09931 0.0
C2055 C 0.23013 0.4052 0.10212 0.0
H2056 H 0.24467 0.35814 0.10235 0.0
C2057 C 0.2498 0.41587 0.11161 0.0
H2058 H 0.21347 0.37559 0.09211 0.0
C2059 C 0.26764 0.40585 0.11748 0.0
C2060 C 0.26611 0.38496 0.11397 0.0
H2061 H 0.25165 0.43201 0.11406 0.0
H2062 H 0.28275 0.41449 0.12429 0.0
C2063 C 0.24624 0.37427 0.10517 0.0
C2064 C 0.61399 0.865 0.59387 0.0
C2065 C 0.60739 0.86416 0.57268 0.0
H2066 H 0.6177 0.88235 0.62372 0.0
C2067 C 0.59899 0.88082 0.56546 0.0
H2068 H 0.6206 0.85246 0.59994 0.0
C2069 C 0.59727 0.89796 0.57913 0.0
C2070 C 0.60384 0.89877 0.60033 0.0
H2071 H 0.59374 0.88066 0.54923 0.0
H2072 H 0.59054 0.91049 0.57315 0.0
C2073 C 0.61222 0.88209 0.60753 0.0
C2074 C 0.43738 0.44438 0.84192 0.0
C2075 C 0.4447 0.43304 0.82473 0.0
H2076 H 0.41578 0.44489 0.86677 0.0
C2077 C 0.43898 0.41226 0.82195 0.0
H2078 H 0.44179 0.46036 0.84467 0.0
C2079 C 0.42407 0.40339 0.83471 0.0
C2080 C 0.41487 0.4152 0.85041 0.0
H2081 H 0.4445 0.40311 0.80891 0.0
H2082 H 0.41819 0.38772 0.83104 0.0
C2083 C 0.42264 0.43552 0.85468 0.0
C2084 C 0.92378 0.20054 0.08558 0.0
C2085 C 0.92942 0.19002 0.06703 0.0
H2086 H 0.92136 0.2008 0.11846 0.0
C2087 C 0.93854 0.17193 0.06797 0.0
H2088 H 0.91676 0.21453 0.0854 0.0
C2089 C 0.94106 0.16409 0.08679 0.0
C2090 C 0.9347 0.17419 0.10515 0.0
H2091 H 0.94316 0.16345 0.05404 0.0
H2092 H 0.94749 0.14981 0.08688 0.0
C2093 C 0.92644 0.1927 0.10451 0.0
C2094 C 0.07591 0.60584 0.26756 0.0
C2095 C 0.06816 0.59182 0.25043 0.0
H2096 H 0.09645 0.6121 0.29588 0.0
C2097 C 0.07509 0.57263 0.2493 0.0
H2098 H 0.07091 0.62075 0.26891 0.0
C2099 C 0.08976 0.56769 0.26476 0.0
C2100 C 0.09769 0.58178 0.28177 0.0
H2101 H 0.06941 0.56148 0.23632 0.0
H2102 H 0.09488 0.55282 0.26342 0.0
C2103 C 0.09045 0.60085 0.28308 0.0
C2104 C 0.61512 0.14727 0.96272 0.0
C2105 C 0.60422 0.13679 0.97734 0.0
H2106 H 0.6319 0.14534 0.93448 0.0
C2107 C 0.60049 0.11589 0.97359 0.0
H2108 H 0.61819 0.16338 0.96512 0.0
C2109 C 0.6084 0.10564 0.95619 0.0
C2110 C 0.62007 0.11604 0.94203 0.0
H2111 H 0.59203 0.10733 0.98443 0.0
H2112 H 0.60572 0.08951 0.954 0.0
C2113 C 0.6229 0.13697 0.94516 0.0
C2114 C 0.05022 0.38565 0.18451 0.0
C2115 C 0.04529 0.36574 0.18822 0.0
H2116 H 0.06221 0.40556 0.16326 0.0
C2117 C 0.04852 0.3504 0.17263 0.0
H2118 H 0.04794 0.39782 0.1962 0.0
C2119 C 0.05672 0.35486 0.15384 0.0
C2120 C 0.06185 0.37476 0.15022 0.0
H2121 H 0.04491 0.33491 0.17498 0.0
H2122 H 0.05914 0.34265 0.14224 0.0
C2123 C 0.05841 0.3901 0.16568 0.0
C2124 C 0.91718 0.8361 0.48845 0.0
C2125 C 0.89691 0.82622 0.4795 0.0
H2126 H 0.94608 0.85571 0.48437 0.0
C2127 C 0.89106 0.82751 0.45849 0.0
H2128 H 0.92214 0.83543 0.50461 0.0
C2129 C 0.90498 0.83887 0.44683 0.0
C2130 C 0.92481 0.84936 0.45608 0.0
H2131 H 0.87558 0.82001 0.45113 0.0
H2132 H 0.89979 0.83997 0.43082 0.0
C2133 C 0.93089 0.8477 0.4769 0.0
C2134 C 0.42206 0.59533 0.67916 0.0
C2135 C 0.43336 0.61198 0.69154 0.0
H2136 H 0.39612 0.58447 0.65587 0.0
C2137 C 0.4265 0.63092 0.68987 0.0
H2138 H 0.42698 0.58056 0.68 0.0
C2139 C 0.40874 0.63315 0.67606 0.0
C2140 C 0.39743 0.61649 0.66372 0.0
H2141 H 0.43486 0.64406 0.6992 0.0
H2142 H 0.4037 0.64789 0.67521 0.0
C2143 C 0.40431 0.59756 0.6654 0.0
C2144 C 0.61403 0.66544 0.8229 0.0
C2145 C 0.61142 0.64852 0.80801 0.0
H2146 H 0.63182 0.68036 0.85068 0.0
C2147 C 0.62585 0.63379 0.80943 0.0
H2148 H 0.60316 0.67704 0.82221 0.0
C2149 C 0.6424 0.63583 0.82555 0.0
C2150 C 0.64464 0.65251 0.84071 0.0
H2151 H 0.6243 0.62061 0.79815 0.0
H2152 H 0.65305 0.62409 0.82651 0.0
C2153 C 0.63037 0.66734 0.83919 0.0
C2154 C 0.53259 0.24444 0.08312 0.0
C2155 C 0.55245 0.24048 0.07422 0.0
H2156 H 0.51592 0.26492 0.10261 0.0
C2157 C 0.57095 0.25486 0.07813 0.0
H2158 H 0.51806 0.23364 0.08048 0.0
C2159 C 0.56964 0.27279 0.09067 0.0
C2160 C 0.54985 0.27664 0.0997 0.0
H2161 H 0.58648 0.25228 0.07152 0.0
H2162 H 0.58423 0.28352 0.09342 0.0
C2163 C 0.53136 0.2623 0.09582 0.0
C2164 C 0.91876 0.32412 0.292 0.0
C2165 C 0.93576 0.34 0.29418 0.0
H2166 H 0.88557 0.31414 0.29841 0.0
C2167 C 0.93154 0.3587 0.30387 0.0
H2168 H 0.92143 0.30955 0.28457 0.0
C2169 C 0.91107 0.36126 0.31188 0.0
C2170 C 0.89436 0.3452 0.31024 0.0
H2171 H 0.94426 0.37126 0.30578 0.0
H2172 H 0.90853 0.37572 0.31967 0.0
C2173 C 0.89824 0.32673 0.29991 0.0
C2174 C 0.87289 0.73874 0.615 0.0
C2175 C 0.86298 0.7352 0.59466 0.0
H2176 H 0.88183 0.7263 0.64272 0.0
C2177 C 0.85474 0.71561 0.58652 0.0
H2178 H 0.87945 0.75364 0.62175 0.0
C2179 C 0.85604 0.69995 0.59864 0.0
C2180 C 0.86565 0.70363 0.61908 0.0
H2181 H 0.84699 0.7124 0.57092 0.0
H2182 H 0.84939 0.68504 0.59204 0.0
C2183 C 0.87424 0.72311 0.62705 0.0
C2184 C 0.53125 0.42019 0.67175 0.0
C2185 C 0.52124 0.40529 0.68258 0.0
H2186 H 0.5604 0.43161 0.65824 0.0
C2187 C 0.53315 0.38942 0.68693 0.0
H2188 H 0.52249 0.43255 0.66801 0.0
C2189 C 0.55497 0.38895 0.68141 0.0
C2190 C 0.56529 0.40437 0.67146 0.0
H2191 H 0.52591 0.3777 0.69524 0.0
H2192 H 0.56403 0.37694 0.68565 0.0
C2193 C 0.55303 0.41974 0.66628 0.0
C2194 C 0.89466 0.31086 0.94676 0.0
C2195 C 0.91324 0.30054 0.94963 0.0
H2196 H 0.87932 0.33162 0.92987 0.0
C2197 C 0.93151 0.30436 0.93781 0.0
H2198 H 0.8803 0.30828 0.9556 0.0
C2199 C 0.93094 0.31779 0.92304 0.0
C2200 C 0.91209 0.32759 0.91974 0.0
H2201 H 0.94608 0.29666 0.93965 0.0
H2202 H 0.94507 0.32019 0.91387 0.0
C2203 C 0.89407 0.32422 0.93194 0.0
C2204 C 0.93924 0.67704 0.17671 0.0
C2205 C 0.94766 0.65904 0.17995 0.0
H2206 H 0.91182 0.69107 0.1653 0.0
C2207 C 0.93376 0.64108 0.17507 0.0
H2208 H 0.94947 0.69115 0.18037 0.0
C2209 C 0.91223 0.64106 0.16634 0.0
C2210 C 0.90416 0.65902 0.16243 0.0
H2211 H 0.93971 0.62695 0.17738 0.0
H2212 H 0.90213 0.62694 0.16225 0.0
C2213 C 0.9177 0.67702 0.16808 0.0
C2214 C 0.62879 0.68206 0.43405 0.0
C2215 C 0.61239 0.69519 0.4354 0.0
H2216 H 0.64153 0.65787 0.41605 0.0
C2217 C 0.59549 0.69334 0.41942 0.0
H2218 H 0.64197 0.68309 0.44615 0.0
C2219 C 0.59542 0.67908 0.40211 0.0
C2220 C 0.61199 0.66616 0.40065 0.0
H2221 H 0.58265 0.70326 0.42001 0.0
H2222 H 0.58249 0.67821 0.38979 0.0
C2223 C 0.62848 0.66757 0.41691 0.0
C2224 C 0.81414 0.57331 0.60604 0.0
C2225 C 0.80792 0.5607 0.62092 0.0
H2226 H 0.8324 0.60043 0.60004 0.0
C2227 C 0.81494 0.56664 0.64188 0.0
H2228 H 0.80904 0.56914 0.58976 0.0
C2229 C 0.82817 0.58465 0.64779 0.0
C2230 C 0.83474 0.59711 0.63287 0.0
H2231 H 0.81033 0.55733 0.65374 0.0
H2232 H 0.83324 0.58884 0.66407 0.0
C2233 C 0.82742 0.5913 0.61195 0.0
C2234 C 0.34957 0.89802 0.37706 0.0
C2235 C 0.34051 0.90415 0.35877 0.0
H2236 H 0.37189 0.87985 0.39048 0.0
C2237 C 0.34651 0.8955 0.33952 0.0
H2238 H 0.3453 0.90443 0.39215 0.0
C2239 C 0.36161 0.88135 0.33857 0.0
C2240 C 0.37111 0.87556 0.35685 0.0
H2241 H 0.33973 0.8998 0.32513 0.0
H2242 H 0.36589 0.87495 0.32348 0.0
C2243 C 0.36473 0.88388 0.37611 0.0
C2244 C 0.33424 0.09387 0.63907 0.0
C2245 C 0.33149 0.09028 0.6597 0.0
H2246 H 0.35448 0.1082 0.61807 0.0
C2247 C 0.34748 0.09921 0.67533 0.0
H2248 H 0.32226 0.08717 0.62665 0.0
C2249 C 0.3659 0.11136 0.67041 0.0
C2250 C 0.36872 0.11485 0.64976 0.0
H2251 H 0.34583 0.09681 0.69138 0.0
H2252 H 0.37784 0.11817 0.68282 0.0
C2253 C 0.35265 0.10601 0.63416 0.0
C2254 C 0.05537 0.98884 0.86151 0.0
C2255 C 0.06653 0.98324 0.84376 0.0
H2256 H 0.03164 0.00682 0.87488 0.0
C2257 C 0.06071 0.99061 0.82508 0.0
H2258 H 0.0594 0.98339 0.87613 0.0
C2259 C 0.04474 0.00393 0.82438 0.0
C2260 C 0.03434 0.01019 0.84238 0.0
H2261 H 0.0689 0.9865 0.81111 0.0
H2262 H 0.04108 0.00976 0.80989 0.0
C2263 C 0.03947 0.00223 0.86082 0.0
C2264 C 0.68643 0.47027 0.63399 0.0
C2265 C 0.70912 0.46899 0.63811 0.0
H2266 H 0.65356 0.46347 0.64314 0.0
C2267 C 0.71609 0.46122 0.65623 0.0
H2268 H 0.68054 0.47627 0.62021 0.0
C2269 C 0.70064 0.45381 0.66928 0.0
C2270 C 0.67795 0.45415 0.66457 0.0
H2271 H 0.73344 0.4601 0.65994 0.0
H2272 H 0.7064 0.44716 0.68269 0.0
C2273 C 0.67097 0.46295 0.64713 0.0
C2274 C 0.63088 0.40554 0.14316 0.0
C2275 C 0.63163 0.41074 0.12287 0.0
H2276 H 0.61521 0.38658 0.16346 0.0
C2277 C 0.61594 0.40095 0.1074 0.0
H2278 H 0.64273 0.4128 0.15543 0.0
C2279 C 0.60023 0.3859 0.112 0.0
C2280 C 0.59976 0.38044 0.13219 0.0
H2281 H 0.61606 0.40462 0.09161 0.0
H2282 H 0.58849 0.37845 0.09972 0.0
C2283 C 0.61505 0.3906 0.14779 0.0
C2284 C 0.27838 0.92153 0.85145 0.0
C2285 C 0.26726 0.92411 0.86979 0.0
H2286 H 0.30599 0.91033 0.83675 0.0
C2287 C 0.2763 0.91768 0.88791 0.0
H2288 H 0.27186 0.92636 0.83724 0.0
C2289 C 0.2958 0.90852 0.88761 0.0
C2290 C 0.30675 0.90567 0.86921 0.0
H2291 H 0.2682 0.91951 0.90232 0.0
H2292 H 0.30233 0.90368 0.90182 0.0
C2293 C 0.29798 0.91246 0.85118 0.0
C2294 C 0.2644 0.09098 0.41571 0.0
C2295 C 0.2508 0.0745 0.40523 0.0
H2296 H 0.26742 0.12213 0.42689 0.0
C2297 C 0.22932 0.07715 0.39777 0.0
H2298 H 0.28107 0.08946 0.42157 0.0
C2299 C 0.22152 0.09583 0.40089 0.0
C2300 C 0.23512 0.11225 0.41142 0.0
H2301 H 0.21843 0.06477 0.38961 0.0
H2302 H 0.20484 0.09734 0.39508 0.0
C2303 C 0.25665 0.10969 0.41869 0.0
C2304 C 0.38502 0.1517 0.44814 0.0
C2305 C 0.38358 0.14499 0.46775 0.0
H2306 H 0.38707 0.14385 0.41552 0.0
C2307 C 0.38262 0.12444 0.46917 0.0
H2308 H 0.38568 0.16742 0.44647 0.0
C2309 C 0.38345 0.11092 0.45139 0.0
C2310 C 0.38535 0.1177 0.43185 0.0
H2311 H 0.38149 0.11878 0.48404 0.0
H2312 H 0.38314 0.0952 0.453 0.0
C2313 C 0.38593 0.13821 0.4304 0.0
C2314 C 0.70218 0.65646 0.18877 0.0
C2315 C 0.67898 0.65518 0.18846 0.0
H2316 H 0.73042 0.64473 0.1759 0.0
C2317 C 0.66636 0.64023 0.17475 0.0
H2318 H 0.71239 0.66773 0.19925 0.0
C2319 C 0.67669 0.62711 0.16132 0.0
C2320 C 0.69989 0.62863 0.16132 0.0
H2321 H 0.64845 0.63884 0.17412 0.0
H2322 H 0.66647 0.61615 0.1505 0.0
C2323 C 0.71252 0.64332 0.17535 0.0
C2324 C 0.04878 0.78775 0.91323 0.0
C2325 C 0.06757 0.78387 0.92503 0.0
H2326 H 0.03628 0.80005 0.88661 0.0
C2327 C 0.08857 0.78807 0.91761 0.0
H2328 H 0.03235 0.78466 0.91848 0.0
C2329 C 0.09079 0.79683 0.89929 0.0
C2330 C 0.0721 0.80167 0.88813 0.0
H2331 H 0.10337 0.78517 0.92627 0.0
H2332 H 0.10721 0.8005 0.89425 0.0
C2333 C 0.05102 0.79664 0.89498 0.0
C2334 C 0.922 0.3701 0.65765 0.0
C2335 C 0.93123 0.38591 0.67248 0.0
H2336 H 0.90503 0.36141 0.62772 0.0
C2337 C 0.9303 0.40558 0.66804 0.0
H2338 H 0.92248 0.35477 0.66058 0.0
C2339 C 0.9203 0.40937 0.64921 0.0
C2340 C 0.9111 0.39358 0.63443 0.0
H2341 H 0.93725 0.4181 0.67911 0.0
H2342 H 0.91972 0.42468 0.64622 0.0
C2343 C 0.91204 0.3739 0.63879 0.0
C2344 C 0.37963 0.86338 0.01956 0.0
C2345 C 0.35801 0.85546 0.01221 0.0
H2346 H 0.40023 0.88162 0.04373 0.0
C2347 C 0.34028 0.86013 0.02412 0.0
H2348 H 0.39365 0.86007 0.01075 0.0
C2349 C 0.34407 0.87238 0.04299 0.0
C2350 C 0.36567 0.88025 0.05039 0.0
H2351 H 0.32344 0.85422 0.01895 0.0
H2352 H 0.33008 0.87543 0.05195 0.0
C2353 C 0.38343 0.87563 0.0385 0.0
C2354 C 0.85492 0.60357 0.76581 0.0
C2355 C 0.87141 0.61938 0.77256 0.0
H2356 H 0.82589 0.58587 0.77326 0.0
C2357 C 0.87043 0.63017 0.79222 0.0
H2358 H 0.85516 0.59497 0.75074 0.0
C2359 C 0.85367 0.62496 0.80504 0.0
C2360 C 0.83754 0.60883 0.79848 0.0
H2361 H 0.88283 0.64247 0.79787 0.0
H2362 H 0.85363 0.63338 0.82022 0.0
C2363 C 0.83816 0.59835 0.77867 0.0
C2364 C 0.22107 0.20372 0.61474 0.0
C2365 C 0.24098 0.20464 0.6048 0.0
H2366 H 0.19921 0.18736 0.63284 0.0
C2367 C 0.25505 0.1897 0.60688 0.0
H2368 H 0.20989 0.21501 0.61352 0.0
C2369 C 0.24888 0.17377 0.61798 0.0
C2370 C 0.22855 0.17247 0.62715 0.0
H2371 H 0.27053 0.18999 0.59944 0.0
H2372 H 0.25972 0.16216 0.61889 0.0
C2373 C 0.21491 0.18781 0.62578 0.0
C2374 C 0.57716 0.35182 0.34307 0.0
C2375 C 0.56555 0.36747 0.33757 0.0
H2376 H 0.60285 0.34288 0.36251 0.0
C2377 C 0.57102 0.38661 0.34842 0.0
H2378 H 0.57346 0.33693 0.33491 0.0
C2379 C 0.58767 0.38999 0.36454 0.0
C2380 C 0.59935 0.37432 0.37005 0.0
H2381 H 0.56229 0.39897 0.3446 0.0
H2382 H 0.59117 0.40482 0.37286 0.0
C2383 C 0.59393 0.35523 0.35902 0.0
C2384 C 0.42214 0.38261 0.16258 0.0
C2385 C 0.41774 0.38181 0.18349 0.0
H2386 H 0.40874 0.38114 0.13122 0.0
C2387 C 0.39563 0.38001 0.18881 0.0
H2388 H 0.43898 0.38419 0.15798 0.0
C2389 C 0.37829 0.37812 0.17344 0.0
C2390 C 0.38269 0.37805 0.15243 0.0
H2391 H 0.39166 0.37939 0.20477 0.0
H2392 H 0.36145 0.37587 0.17795 0.0
C2393 C 0.40481 0.38079 0.14723 0.0
C2394 C 0.35489 0.68946 0.86032 0.0
C2395 C 0.36808 0.70316 0.87493 0.0
H2396 H 0.35385 0.66518 0.83619 0.0
C2397 C 0.39117 0.70285 0.87596 0.0
H2398 H 0.33707 0.68934 0.85908 0.0
C2399 C 0.40082 0.689 0.86274 0.0
C2400 C 0.38757 0.67518 0.84836 0.0
H2401 H 0.40179 0.71327 0.887 0.0
H2402 H 0.41863 0.68896 0.86391 0.0
C2403 C 0.36452 0.67559 0.84718 0.0
C2404 C 0.05125 0.59935 0.65449 0.0
C2405 C 0.05446 0.61869 0.66519 0.0
H2406 H 0.0573 0.58015 0.62748 0.0
C2407 C 0.06785 0.63353 0.65695 0.0
H2408 H 0.04089 0.58761 0.66036 0.0
C2409 C 0.07754 0.62919 0.63821 0.0
C2410 C 0.07384 0.60996 0.62717 0.0
H2411 H 0.07072 0.64856 0.66489 0.0
H2412 H 0.08795 0.64093 0.6324 0.0
C2413 C 0.06073 0.59506 0.63565 0.0
C2414 C 0.16347 0.29724 0.43299 0.0
C2415 C 0.18622 0.29833 0.43863 0.0
H2416 H 0.13812 0.30698 0.4136 0.0
C2417 C 0.20109 0.31052 0.42847 0.0
H2418 H 0.15156 0.288 0.44047 0.0
C2419 C 0.19334 0.32141 0.41306 0.0
C2420 C 0.17057 0.32031 0.40753 0.0
H2421 H 0.21872 0.3117 0.43244 0.0
H2422 H 0.20518 0.33066 0.40552 0.0
C2423 C 0.15575 0.30811 0.41761 0.0
C2424 C 0.52506 0.64071 0.31975 0.0
C2425 C 0.5248 0.63992 0.29803 0.0
H2426 H 0.50721 0.63378 0.34595 0.0
C2427 C 0.50579 0.63093 0.28592 0.0
H2428 H 0.53949 0.64742 0.32952 0.0
C2429 C 0.48727 0.62319 0.29538 0.0
C2430 C 0.48753 0.62418 0.3171 0.0
H2431 H 0.50509 0.63007 0.26915 0.0
H2432 H 0.47276 0.61656 0.28568 0.0
C2433 C 0.50663 0.63285 0.32917 0.0
C2434 C 0.07948 0.69712 0.03809 0.0
C2435 C 0.09618 0.70858 0.02926 0.0
H2436 H 0.07155 0.67379 0.05686 0.0
C2437 C 0.11829 0.70493 0.03282 0.0
H2438 H 0.06228 0.69955 0.03565 0.0
C2439 C 0.1236 0.69023 0.04507 0.0
C2440 C 0.10693 0.67892 0.05409 0.0
H2441 H 0.13156 0.71354 0.0263 0.0
H2442 H 0.14082 0.68795 0.04776 0.0
C2443 C 0.0848 0.68247 0.0504 0.0
C2444 C 0.04094 0.30927 0.83827 0.0
C2445 C 0.03477 0.32871 0.83947 0.0
H2446 H 0.06443 0.29025 0.84796 0.0
C2447 C 0.04722 0.34388 0.85307 0.0
H2448 H 0.03169 0.29723 0.82796 0.0
C2449 C 0.06591 0.33984 0.86464 0.0
C2450 C 0.07255 0.32055 0.86287 0.0
H2451 H 0.04282 0.359 0.85448 0.0
H2452 H 0.07532 0.35189 0.8748 0.0
C2453 C 0.05964 0.30523 0.84983 0.0
C2454 C 0.37408 0.3205 0.58395 0.0
C2455 C 0.39424 0.3125 0.58114 0.0
H2456 H 0.35792 0.3451 0.59681 0.0
C2457 C 0.41403 0.32382 0.58938 0.0
H2458 H 0.35855 0.31216 0.57778 0.0
C2459 C 0.41365 0.34268 0.60038 0.0
C2460 C 0.39352 0.35062 0.60321 0.0
H2461 H 0.42983 0.31806 0.58752 0.0
H2462 H 0.42911 0.35106 0.60672 0.0
C2463 C 0.37373 0.3394 0.59484 0.0
C2464 C 0.20765 0.4158 0.30973 0.0
C2465 C 0.20947 0.4337 0.32319 0.0
H2466 H 0.19598 0.38467 0.30506 0.0
C2467 C 0.20278 0.43328 0.34353 0.0
H2468 H 0.21269 0.41559 0.294 0.0
C2469 C 0.19358 0.41543 0.34995 0.0
C2470 C 0.19068 0.39784 0.33605 0.0
H2471 H 0.20412 0.44681 0.35429 0.0
H2472 H 0.18771 0.41558 0.36539 0.0
C2473 C 0.19816 0.39809 0.31604 0.0
C2474 C 0.69752 0.12177 0.603 0.0
C2475 C 0.69652 0.10099 0.60224 0.0
H2476 H 0.71661 0.14977 0.61161 0.0
C2477 C 0.71407 0.09261 0.61161 0.0
H2478 H 0.6844 0.12858 0.59548 0.0
C2479 C 0.73222 0.10486 0.6218 0.0
C2480 C 0.73339 0.12569 0.62246 0.0
H2481 H 0.71372 0.07659 0.61115 0.0
H2482 H 0.7455 0.09802 0.629 0.0
C2483 C 0.71598 0.13398 0.61257 0.0
C2484 C 0.72667 0.94669 0.4691 0.0
C2485 C 0.73262 0.95357 0.45035 0.0
H2486 H 0.70262 0.92937 0.48447 0.0
C2487 C 0.71764 0.94914 0.43277 0.0
H2488 H 0.73784 0.94982 0.48292 0.0
C2489 C 0.69752 0.9375 0.43371 0.0
C2490 C 0.69198 0.92998 0.45223 0.0
H2491 H 0.72166 0.95426 0.41811 0.0
H2492 H 0.68661 0.93401 0.41974 0.0
C2493 C 0.70656 0.93494 0.46999 0.0
C2494 C 0.82599 0.97368 0.10928 0.0
C2495 C 0.81572 0.98466 0.1249 0.0
H2496 H 0.84469 0.94926 0.10132 0.0
C2497 C 0.81601 0.97862 0.1449 0.0
H2498 H 0.82613 0.97795 0.09373 0.0
C2499 C 0.82665 0.96212 0.14925 0.0
C2500 C 0.83711 0.95126 0.13366 0.0
H2501 H 0.80824 0.98677 0.15728 0.0
H2502 H 0.82661 0.95781 0.16479 0.0
C2503 C 0.83655 0.95717 0.11361 0.0
C2504 C 0.33682 0.55789 0.31148 0.0
C2505 C 0.33161 0.55926 0.29038 0.0
H2506 H 0.35876 0.5682 0.33834 0.0
C2507 C 0.34536 0.57218 0.27999 0.0
H2508 H 0.32656 0.54808 0.31992 0.0
C2509 C 0.36388 0.58357 0.29051 0.0
C2510 C 0.36886 0.58244 0.31169 0.0
H2511 H 0.3418 0.57353 0.26372 0.0
H2512 H 0.37404 0.59359 0.2822 0.0
C2513 C 0.35519 0.56946 0.32205 0.0
C2514 C 0.34139 0.55259 0.80623 0.0
C2515 C 0.33858 0.53991 0.78747 0.0
H2516 H 0.35854 0.57874 0.82343 0.0
C2517 C 0.35168 0.54441 0.7711 0.0
H2518 H 0.33187 0.54935 0.81927 0.0
C2519 C 0.3668 0.56168 0.77332 0.0
C2520 C 0.36925 0.5746 0.79203 0.0
H2521 H 0.34991 0.53484 0.75646 0.0
H2522 H 0.37614 0.56512 0.76025 0.0
C2523 C 0.35666 0.56955 0.80856 0.0
C2524 C 0.68527 0.05223 0.16346 0.0
C2525 C 0.69916 0.04935 0.14708 0.0
H2526 H 0.65286 0.05732 0.17241 0.0
C2527 C 0.69005 0.04796 0.12653 0.0
H2528 H 0.69174 0.05328 0.17947 0.0
C2529 C 0.66775 0.05032 0.1225 0.0
C2530 C 0.65415 0.05405 0.1389 0.0
H2531 H 0.70027 0.04569 0.11354 0.0
H2532 H 0.66129 0.04981 0.10654 0.0
C2533 C 0.66297 0.05456 0.15942 0.0
C2534 C 0.74038 0.97245 0.62726 0.0
C2535 C 0.71877 0.96544 0.61906 0.0
H2536 H 0.77281 0.96509 0.63552 0.0
C2537 C 0.71332 0.94488 0.61322 0.0
H2538 H 0.74511 0.9882 0.63191 0.0
C2539 C 0.72921 0.93167 0.61528 0.0
C2540 C 0.75083 0.93871 0.62322 0.0
H2541 H 0.69683 0.93898 0.60686 0.0
H2542 H 0.72463 0.91591 0.61049 0.0
C2543 C 0.75627 0.95921 0.62932 0.0
loop_
_geom_bond_atom_site_label_1
_geom_bond_atom_site_label_2
_geom_bond_distance
_geom_bond_site_symmetry_2
_ccdc_geom_bond_type
O0 Cd1 2.300 . S
O0 C7 1.275 . S
Cd1 O0 2.300 . S
Cd1 O9 2.381 . S
Cd1 O10 2.378 . S
O2 Cd3 2.385 1_455 S
O2 C7 1.255 . S
Cd3 O2 2.385 1_655 S
Cd3 O4 2.317 . S
O4 Cd3 2.317 . S
O4 C5 1.232 . S
C5 O4 1.232 . S
C5 O6 1.218 . S
O6 C5 1.218 . S
C7 O0 1.275 . S
C7 O2 1.255 . S
C8 O9 1.258 . S
C8 O10 1.256 . S
O9 Cd1 2.381 . S
O9 C8 1.258 . S
O10 Cd1 2.378 . S
O10 C8 1.256 . S
O11 Cd12 2.300 . S
O11 C18 1.275 . S
Cd12 O11 2.300 . S
Cd12 O20 2.381 . S
Cd12 O21 2.378 . S
O13 Cd14 2.385 . S
O13 C18 1.255 . S
Cd14 O13 2.385 . S
Cd14 O15 2.317 . S
O15 Cd14 2.317 . S
O15 C16 1.232 . S
C16 O15 1.232 . S
C16 O17 1.218 . S
O17 C16 1.218 . S
C18 O11 1.275 . S
C18 O13 1.255 . S
C19 O20 1.258 . S
C19 O21 1.256 . S
O20 Cd12 2.381 . S
O20 C19 1.258 . S
O21 Cd12 2.378 . S
O21 C19 1.256 . S
O22 Cd23 2.300 . S
O22 C29 1.275 . S
Cd23 O22 2.300 . S
Cd23 O31 2.381 . S
Cd23 O32 2.378 . S
O24 Cd25 2.385 . S
O24 C29 1.255 . S
Cd25 O24 2.385 . S
Cd25 O26 2.317 . S
O26 Cd25 2.317 . S
O26 C27 1.232 . S
C27 O26 1.232 . S
C27 O28 1.218 . S
O28 C27 1.218 . S
C29 O22 1.275 . S
C29 O24 1.255 . S
C30 O31 1.258 . S
C30 O32 1.256 . S
O31 Cd23 2.381 . S
O31 C30 1.258 . S
O32 Cd23 2.378 . S
O32 C30 1.256 . S
O33 Cd34 2.300 . S
O33 C40 1.275 . S
Cd34 O33 2.300 . S
Cd34 O42 2.381 . S
Cd34 O43 2.378 . S
O35 Cd36 2.385 . S
O35 C40 1.255 . S
Cd36 O35 2.385 . S
Cd36 O37 2.317 . S
O37 Cd36 2.317 . S
O37 C38 1.232 1_554 S
C38 O37 1.232 1_556 S
C38 O39 1.218 . S
O39 C38 1.218 . S
C40 O33 1.275 . S
C40 O35 1.255 . S
C41 O42 1.258 . S
C41 O43 1.256 . S
O42 Cd34 2.381 . S
O42 C41 1.258 . S
O43 Cd34 2.378 . S
O43 C41 1.256 . S
O44 Cd45 2.300 . S
O44 C51 1.275 . S
Cd45 O44 2.300 . S
Cd45 O53 2.381 . S
Cd45 O54 2.378 . S
O46 Cd47 2.385 . S
O46 C51 1.255 . S
Cd47 O46 2.385 . S
Cd47 O48 2.317 1_455 S
O48 Cd47 2.317 1_655 S
O48 C49 1.232 . S
C49 O48 1.232 . S
C49 O50 1.218 . S
O50 C49 1.218 . S
C51 O44 1.275 . S
C51 O46 1.255 . S
C52 O53 1.258 . S
C52 O54 1.256 . S
O53 Cd45 2.381 . S
O53 C52 1.258 . S
O54 Cd45 2.378 . S
O54 C52 1.256 . S
O55 Cd56 2.300 . S
O55 C62 1.275 . S
Cd56 O55 2.300 . S
Cd56 O64 2.381 . S
Cd56 O65 2.378 . S
O57 Cd58 2.385 . S
O57 C62 1.255 . S
Cd58 O57 2.385 . S
Cd58 O59 2.317 . S
O59 Cd58 2.317 . S
O59 C60 1.232 . S
C60 O59 1.232 . S
C60 O61 1.218 . S
O61 C60 1.218 . S
C62 O55 1.275 . S
C62 O57 1.255 . S
C63 O64 1.258 . S
C63 O65 1.256 . S
O64 Cd56 2.381 . S
O64 C63 1.258 . S
O65 Cd56 2.378 . S
O65 C63 1.256 . S
O66 Cd67 2.300 . S
O66 C73 1.275 . S
Cd67 O66 2.300 . S
Cd67 O75 2.381 . S
Cd67 O76 2.378 . S
O68 Cd69 2.385 . S
O68 C73 1.255 . S
Cd69 O68 2.385 . S
Cd69 O70 2.317 . S
O70 Cd69 2.317 . S
O70 C71 1.232 . S
C71 O70 1.232 . S
C71 O72 1.218 . S
O72 C71 1.218 . S
C73 O66 1.275 . S
C73 O68 1.255 . S
C74 O75 1.258 . S
C74 O76 1.256 . S
O75 Cd67 2.381 . S
O75 C74 1.258 . S
O76 Cd67 2.378 . S
O76 C74 1.256 . S
O77 Cd78 2.300 . S
O77 C84 1.275 . S
Cd78 O77 2.300 . S
Cd78 O86 2.381 . S
Cd78 O87 2.378 . S
O79 Cd80 2.385 . S
O79 C84 1.255 . S
Cd80 O79 2.385 . S
Cd80 O81 2.317 1_556 S
O81 Cd80 2.317 1_554 S
O81 C82 1.232 . S
C82 O81 1.232 . S
C82 O83 1.218 . S
O83 C82 1.218 . S
C84 O77 1.275 . S
C84 O79 1.255 . S
C85 O86 1.258 . S
C85 O87 1.256 . S
O86 Cd78 2.381 . S
O86 C85 1.258 . S
O87 Cd78 2.378 . S
O87 C85 1.256 . S
O88 Cd89 2.300 1_545 S
O88 C95 1.275 . S
Cd89 O88 2.300 1_565 S
Cd89 O97 2.381 . S
Cd89 O98 2.378 . S
O90 Cd91 2.385 . S
O90 C95 1.255 . S
Cd91 O90 2.385 . S
Cd91 O92 2.317 . S
O92 Cd91 2.317 . S
O92 C93 1.232 . S
C93 O92 1.232 . S
C93 O94 1.218 . S
O94 C93 1.218 . S
C95 O88 1.275 . S
C95 O90 1.255 . S
C96 O97 1.258 . S
C96 O98 1.256 . S
O97 Cd89 2.381 . S
O97 C96 1.258 . S
O98 Cd89 2.378 . S
O98 C96 1.256 . S
O99 Cd100 2.300 . S
O99 C106 1.275 . S
Cd100 O99 2.300 . S
Cd100 O108 2.381 1_545 S
Cd100 O109 2.378 1_545 S
O101 Cd102 2.385 . S
O101 C106 1.255 . S
Cd102 O101 2.385 . S
Cd102 O103 2.317 . S
O103 Cd102 2.317 . S
O103 C104 1.232 . S
C104 O103 1.232 . S
C104 O105 1.218 . S
O105 C104 1.218 . S
C106 O99 1.275 . S
C106 O101 1.255 . S
C107 O108 1.258 . S
C107 O109 1.256 . S
O108 Cd100 2.381 1_565 S
O108 C107 1.258 . S
O109 Cd100 2.378 1_565 S
O109 C107 1.256 . S
O110 Cd111 2.300 . S
O110 C117 1.275 . S
Cd111 O110 2.300 . S
Cd111 O119 2.381 . S
Cd111 O120 2.378 . S
O112 Cd113 2.385 . S
O112 C117 1.255 . S
Cd113 O112 2.385 . S
Cd113 O114 2.320 1_565 S
O114 Cd113 2.320 1_545 S
O114 C115 1.230 . S
C115 O114 1.230 . S
C115 O116 1.228 . S
O116 C115 1.228 . S
C117 O110 1.275 . S
C117 O112 1.255 . S
C118 O119 1.258 . S
C118 O120 1.256 . S
O119 Cd111 2.381 . S
O119 C118 1.258 . S
O120 Cd111 2.378 . S
O120 C118 1.256 . S
O121 Cd122 2.300 1_565 S
O121 C128 1.275 . S
Cd122 O121 2.300 1_545 S
Cd122 O130 2.381 . S
Cd122 O131 2.378 . S
O123 Cd124 2.385 . S
O123 C128 1.255 . S
Cd124 O123 2.385 . S
Cd124 O125 2.317 . S
O125 Cd124 2.317 . S
O125 C126 1.232 . S
C126 O125 1.232 . S
C126 O127 1.218 . S
O127 C126 1.218 . S
C128 O121 1.275 . S
C128 O123 1.255 . S
C129 O130 1.258 . S
C129 O131 1.256 . S
O130 Cd122 2.381 . S
O130 C129 1.258 . S
O131 Cd122 2.378 . S
O131 C129 1.256 . S
O132 Cd133 2.300 . S
O132 C139 1.275 . S
Cd133 O132 2.300 . S
Cd133 O141 2.381 1_554 S
Cd133 O142 2.378 1_554 S
O134 Cd135 2.385 . S
O134 C139 1.255 . S
Cd135 O134 2.385 . S
Cd135 O136 2.317 . S
O136 Cd135 2.317 . S
O136 C137 1.232 . S
C137 O136 1.232 . S
C137 O138 1.218 . S
O138 C137 1.218 . S
C139 O132 1.275 . S
C139 O134 1.255 . S
C140 O141 1.258 . S
C140 O142 1.256 . S
O141 Cd133 2.381 1_556 S
O141 C140 1.258 . S
O142 Cd133 2.378 1_556 S
O142 C140 1.256 . S
O143 Cd144 2.300 . S
O143 C150 1.275 . S
Cd144 O143 2.300 . S
Cd144 O152 2.381 . S
Cd144 O153 2.378 . S
O145 Cd146 2.385 1_655 S
O145 C150 1.255 . S
Cd146 O145 2.385 1_455 S
Cd146 O147 2.317 . S
O147 Cd146 2.317 . S
O147 C148 1.232 . S
C148 O147 1.232 . S
C148 O149 1.218 . S
O149 C148 1.218 . S
C150 O143 1.275 . S
C150 O145 1.255 . S
C151 O152 1.258 . S
C151 O153 1.256 . S
O152 Cd144 2.381 . S
O152 C151 1.258 . S
O153 Cd144 2.378 . S
O153 C151 1.256 . S
O154 Cd155 2.300 . S
O154 C161 1.275 . S
Cd155 O154 2.300 . S
Cd155 O163 2.381 . S
Cd155 O164 2.378 . S
O156 Cd157 2.385 . S
O156 C161 1.255 . S
Cd157 O156 2.385 . S
Cd157 O158 2.317 . S
O158 Cd157 2.317 . S
O158 C159 1.232 . S
C159 O158 1.232 . S
C159 O160 1.218 . S
O160 C159 1.218 . S
C161 O154 1.275 . S
C161 O156 1.255 . S
C162 O163 1.258 . S
C162 O164 1.256 . S
O163 Cd155 2.381 . S
O163 C162 1.258 . S
O164 Cd155 2.378 . S
O164 C162 1.256 . S
O165 Cd166 2.300 1_655 S
O165 C172 1.275 . S
Cd166 O165 2.300 1_455 S
Cd166 O174 2.381 . S
Cd166 O175 2.378 . S
O167 Cd168 2.385 . S
O167 C172 1.255 . S
Cd168 O167 2.385 . S
Cd168 O169 2.317 . S
O169 Cd168 2.317 . S
O169 C170 1.232 . S
C170 O169 1.232 . S
C170 O171 1.218 . S
O171 C170 1.218 . S
C172 O165 1.275 . S
C172 O167 1.255 . S
C173 O174 1.258 . S
C173 O175 1.256 . S
O174 Cd166 2.381 . S
O174 C173 1.258 . S
O175 Cd166 2.378 . S
O175 C173 1.256 . S
O176 Cd177 2.300 . S
O176 C183 1.275 . S
Cd177 O176 2.300 . S
Cd177 O185 2.381 . S
Cd177 O186 2.378 . S
O178 Cd179 2.385 . S
O178 C183 1.255 . S
Cd179 O178 2.385 . S
Cd179 O180 2.317 . S
O180 Cd179 2.317 . S
O180 C181 1.232 . S
C181 O180 1.232 . S
C181 O182 1.218 . S
O182 C181 1.218 . S
C183 O176 1.275 . S
C183 O178 1.255 . S
C184 O185 1.258 . S
C184 O186 1.256 . S
O185 Cd177 2.381 . S
O185 C184 1.258 . S
O186 Cd177 2.378 . S
O186 C184 1.256 . S
O187 Cd188 2.300 . S
O187 C194 1.275 . S
Cd188 O187 2.300 . S
Cd188 O196 2.381 . S
Cd188 O197 2.378 . S
O189 Cd190 2.385 . S
O189 C194 1.255 . S
Cd190 O189 2.385 . S
Cd190 O191 2.317 . S
O191 Cd190 2.317 . S
O191 C192 1.232 . S
C192 O191 1.232 . S
C192 O193 1.218 . S
O193 C192 1.218 . S
C194 O187 1.275 . S
C194 O189 1.255 . S
C195 O196 1.258 . S
C195 O197 1.256 . S
O196 Cd188 2.381 . S
O196 C195 1.258 . S
O197 Cd188 2.378 . S
O197 C195 1.256 . S
O198 Cd199 2.300 . S
O198 C205 1.275 . S
Cd199 O198 2.300 . S
Cd199 O207 2.381 . S
Cd199 O208 2.378 . S
O200 Cd201 2.385 . S
O200 C205 1.255 . S
Cd201 O200 2.385 . S
Cd201 O202 2.317 1_556 S
O202 Cd201 2.317 1_554 S
O202 C203 1.232 . S
C203 O202 1.232 . S
C203 O204 1.218 . S
O204 C203 1.218 . S
C205 O198 1.275 . S
C205 O200 1.255 . S
C206 O207 1.258 . S
C206 O208 1.256 . S
O207 Cd199 2.381 . S
O207 C206 1.258 . S
O208 Cd199 2.378 . S
O208 C206 1.256 . S
O209 Cd210 2.300 . S
O209 C216 1.275 . S
Cd210 O209 2.300 . S
Cd210 O218 2.381 . S
Cd210 O219 2.378 . S
O211 Cd212 2.385 . S
O211 C216 1.255 . S
Cd212 O211 2.385 . S
Cd212 O213 2.317 1_655 S
O213 Cd212 2.317 1_455 S
O213 C214 1.232 . S
C214 O213 1.232 . S
C214 O215 1.218 . S
O215 C214 1.218 . S
C216 O209 1.275 . S
C216 O211 1.255 . S
C217 O218 1.258 . S
C217 O219 1.256 . S
O218 Cd210 2.381 . S
O218 C217 1.258 . S
O219 Cd210 2.378 . S
O219 C217 1.256 . S
O220 Cd221 2.300 . S
O220 C227 1.275 . S
Cd221 O220 2.300 . S
Cd221 O229 2.381 . S
Cd221 O230 2.378 . S
O222 Cd223 2.385 . S
O222 C227 1.255 . S
Cd223 O222 2.385 . S
Cd223 O224 2.317 . S
O224 Cd223 2.317 . S
O224 C225 1.232 . S
C225 O224 1.232 . S
C225 O226 1.218 . S
O226 C225 1.218 . S
C227 O220 1.275 . S
C227 O222 1.255 . S
C228 O229 1.258 . S
C228 O230 1.256 . S
O229 Cd221 2.381 . S
O229 C228 1.258 . S
O230 Cd221 2.378 . S
O230 C228 1.256 . S
O231 Cd232 2.300 . S
O231 C238 1.275 . S
Cd232 O231 2.300 . S
Cd232 O240 2.381 . S
Cd232 O241 2.378 . S
O233 Cd234 2.385 . S
O233 C238 1.255 . S
Cd234 O233 2.385 . S
Cd234 O235 2.317 . S
O235 Cd234 2.317 . S
O235 C236 1.232 . S
C236 O235 1.232 . S
C236 O237 1.218 . S
O237 C236 1.218 . S
C238 O231 1.275 . S
C238 O233 1.255 . S
C239 O240 1.258 . S
C239 O241 1.256 . S
O240 Cd232 2.381 . S
O240 C239 1.258 . S
O241 Cd232 2.378 . S
O241 C239 1.256 . S
O242 Cd243 2.300 . S
O242 C249 1.275 . S
Cd243 O242 2.300 . S
Cd243 O251 2.381 . S
Cd243 O252 2.378 . S
O244 Cd245 2.385 . S
O244 C249 1.255 . S
Cd245 O244 2.385 . S
Cd245 O246 2.317 . S
O246 Cd245 2.317 . S
O246 C247 1.232 . S
C247 O246 1.232 . S
C247 O248 1.218 . S
O248 C247 1.218 . S
C249 O242 1.275 . S
C249 O244 1.255 . S
C250 O251 1.258 . S
C250 O252 1.256 . S
O251 Cd243 2.381 . S
O251 C250 1.258 . S
O252 Cd243 2.378 . S
O252 C250 1.256 . S
O253 Cd254 2.318 . S
O253 C260 1.275 . S
Cd254 O253 2.318 . S
Cd254 O262 2.363 1_565 S
Cd254 O263 2.352 1_565 S
O255 Cd256 2.385 . S
O255 C260 1.255 . S
Cd256 O255 2.385 . S
Cd256 O257 2.317 . S
O257 Cd256 2.317 . S
O257 C258 1.232 . S
C258 O257 1.232 . S
C258 O259 1.218 . S
O259 C258 1.218 . S
C260 O253 1.275 . S
C260 O255 1.255 . S
C261 O262 1.258 . S
C261 O263 1.256 . S
O262 Cd254 2.363 1_545 S
O262 C261 1.258 . S
O263 Cd254 2.352 1_545 S
O263 C261 1.256 . S
O264 Cd265 2.300 . S
O264 C271 1.275 . S
Cd265 O264 2.300 . S
Cd265 O273 2.381 1_565 S
Cd265 O274 2.378 1_565 S
O266 Cd267 2.385 . S
O266 C271 1.255 . S
Cd267 O266 2.385 . S
Cd267 O268 2.317 . S
O268 Cd267 2.317 . S
O268 C269 1.232 . S
C269 O268 1.232 . S
C269 O270 1.218 . S
O270 C269 1.218 . S
C271 O264 1.275 . S
C271 O266 1.255 . S
C272 O273 1.258 . S
C272 O274 1.256 . S
O273 Cd265 2.381 1_545 S
O273 C272 1.258 . S
O274 Cd265 2.378 1_545 S
O274 C272 1.256 . S
O275 Cd276 2.300 1_545 S
O275 C282 1.275 . S
Cd276 O275 2.300 1_565 S
Cd276 O284 2.381 . S
Cd276 O285 2.378 . S
O277 Cd278 2.385 . S
O277 C282 1.255 . S
Cd278 O277 2.385 . S
Cd278 O279 2.317 . S
O279 Cd278 2.317 . S
O279 C280 1.232 . S
C280 O279 1.232 . S
C280 O281 1.218 . S
O281 C280 1.218 . S
C282 O275 1.275 . S
C282 O277 1.255 . S
C283 O284 1.258 . S
C283 O285 1.256 . S
O284 Cd276 2.381 . S
O284 C283 1.258 . S
O285 Cd276 2.378 . S
O285 C283 1.256 . S
O286 Cd287 2.300 1_545 S
O286 C293 1.275 . S
Cd287 O286 2.300 1_565 S
Cd287 O295 2.381 . S
Cd287 O296 2.378 . S
O288 Cd289 2.385 . S
O288 C293 1.255 . S
Cd289 O288 2.385 . S
Cd289 O290 2.317 . S
O290 Cd289 2.317 . S
O290 C291 1.232 . S
C291 O290 1.232 . S
C291 O292 1.218 . S
O292 C291 1.218 . S
C293 O286 1.275 . S
C293 O288 1.255 . S
C294 O295 1.258 . S
C294 O296 1.256 . S
O295 Cd287 2.381 . S
O295 C294 1.258 . S
O296 Cd287 2.378 . S
O296 C294 1.256 . S
O297 Cd298 2.300 . S
O297 C304 1.275 . S
Cd298 O297 2.300 . S
Cd298 O306 2.381 . S
Cd298 O307 2.378 1_556 S
O299 Cd300 2.385 . S
O299 C304 1.255 . S
Cd300 O299 2.385 . S
Cd300 O301 2.317 . S
O301 Cd300 2.317 . S
O301 C302 1.232 . S
C302 O301 1.232 . S
C302 O303 1.218 . S
O303 C302 1.218 . S
C304 O297 1.275 . S
C304 O299 1.255 . S
C305 O306 1.258 1_554 S
C305 O307 1.256 . S
O306 Cd298 2.381 . S
O306 C305 1.258 1_556 S
O307 Cd298 2.378 1_554 S
O307 C305 1.256 . S
O308 Cd309 2.300 . S
O308 C315 1.275 . S
Cd309 O308 2.300 . S
Cd309 O317 2.381 . S
Cd309 O318 2.378 . S
O310 Cd311 2.385 1_455 S
O310 C315 1.255 . S
Cd311 O310 2.385 1_655 S
Cd311 O312 2.317 . S
O312 Cd311 2.317 . S
O312 C313 1.232 . S
C313 O312 1.232 . S
C313 O314 1.218 . S
O314 C313 1.218 . S
C315 O308 1.275 . S
C315 O310 1.255 . S
C316 O317 1.258 . S
C316 O318 1.256 . S
O317 Cd309 2.381 . S
O317 C316 1.258 . S
O318 Cd309 2.378 . S
O318 C316 1.256 . S
O319 Cd320 2.300 . S
O319 C326 1.275 . S
Cd320 O319 2.300 . S
Cd320 O328 2.381 . S
Cd320 O329 2.378 . S
O321 Cd322 2.385 . S
O321 C326 1.255 . S
Cd322 O321 2.385 . S
Cd322 O323 2.317 . S
O323 Cd322 2.317 . S
O323 C324 1.232 . S
C324 O323 1.232 . S
C324 O325 1.218 . S
O325 C324 1.218 . S
C326 O319 1.275 . S
C326 O321 1.255 . S
C327 O328 1.258 . S
C327 O329 1.256 . S
O328 Cd320 2.381 . S
O328 C327 1.258 . S
O329 Cd320 2.378 . S
O329 C327 1.256 . S
O330 Cd331 2.300 . S
O330 C337 1.275 . S
Cd331 O330 2.300 . S
Cd331 O339 2.381 . S
Cd331 O340 2.378 . S
O332 Cd333 2.385 . S
O332 C337 1.255 . S
Cd333 O332 2.385 . S
Cd333 O334 2.317 . S
O334 Cd333 2.317 . S
O334 C335 1.232 . S
C335 O334 1.232 . S
C335 O336 1.218 . S
O336 C335 1.218 . S
C337 O330 1.275 . S
C337 O332 1.255 . S
C338 O339 1.258 . S
C338 O340 1.256 . S
O339 Cd331 2.381 . S
O339 C338 1.258 . S
O340 Cd331 2.378 . S
O340 C338 1.256 . S
O341 Cd342 2.315 . S
O341 C348 1.275 . S
Cd342 O341 2.315 . S
Cd342 O350 2.365 1_655 S
Cd342 O351 2.356 1_655 S
O343 Cd344 2.385 . S
O343 C348 1.255 . S
Cd344 O343 2.385 . S
Cd344 O345 2.317 . S
O345 Cd344 2.317 . S
O345 C346 1.232 . S
C346 O345 1.232 . S
C346 O347 1.218 . S
O347 C346 1.218 . S
C348 O341 1.275 . S
C348 O343 1.255 . S
C349 O350 1.258 . S
C349 O351 1.256 . S
O350 Cd342 2.365 1_455 S
O350 C349 1.258 . S
O351 Cd342 2.356 1_455 S
O351 C349 1.256 . S
O352 Cd353 2.300 . S
O352 C359 1.275 . S
Cd353 O352 2.300 . S
Cd353 O361 2.381 . S
Cd353 O362 2.378 . S
O354 Cd355 2.385 . S
O354 C359 1.255 . S
Cd355 O354 2.385 . S
Cd355 O356 2.317 . S
O356 Cd355 2.317 . S
O356 C357 1.232 . S
C357 O356 1.232 . S
C357 O358 1.218 . S
O358 C357 1.218 . S
C359 O352 1.275 . S
C359 O354 1.255 . S
C360 O361 1.258 . S
C360 O362 1.256 . S
O361 Cd353 2.381 . S
O361 C360 1.258 . S
O362 Cd353 2.378 . S
O362 C360 1.256 . S
O363 Cd364 2.300 . S
O363 C370 1.275 . S
Cd364 O363 2.300 . S
Cd364 O372 2.381 . S
Cd364 O373 2.378 . S
O365 Cd366 2.385 . S
O365 C370 1.255 . S
Cd366 O365 2.385 . S
Cd366 O367 2.317 . S
O367 Cd366 2.317 . S
O367 C368 1.232 . S
C368 O367 1.232 . S
C368 O369 1.218 . S
O369 C368 1.218 . S
C370 O363 1.275 . S
C370 O365 1.255 . S
C371 O372 1.258 . S
C371 O373 1.256 . S
O372 Cd364 2.381 . S
O372 C371 1.258 . S
O373 Cd364 2.378 . S
O373 C371 1.256 . S
O374 Cd375 2.300 . S
O374 C381 1.275 . S
Cd375 O374 2.300 . S
Cd375 O383 2.381 . S
Cd375 O384 2.378 . S
O376 Cd377 2.385 . S
O376 C381 1.255 . S
Cd377 O376 2.385 . S
Cd377 O378 2.317 . S
O378 Cd377 2.317 . S
O378 C379 1.232 . S
C379 O378 1.232 . S
C379 O380 1.218 . S
O380 C379 1.218 . S
C381 O374 1.275 . S
C381 O376 1.255 . S
C382 O383 1.258 . S
C382 O384 1.256 . S
O383 Cd375 2.381 . S
O383 C382 1.258 . S
O384 Cd375 2.378 . S
O384 C382 1.256 . S
O385 Cd386 2.300 . S
O385 C392 1.275 . S
Cd386 O385 2.300 . S
Cd386 O394 2.381 . S
Cd386 O395 2.378 . S
O387 Cd388 2.385 . S
O387 C392 1.255 . S
Cd388 O387 2.385 . S
Cd388 O389 2.317 . S
O389 Cd388 2.317 . S
O389 C390 1.232 . S
C390 O389 1.232 . S
C390 O391 1.218 . S
O391 C390 1.218 . S
C392 O385 1.275 . S
C392 O387 1.255 . S
C393 O394 1.258 . S
C393 O395 1.256 . S
O394 Cd386 2.381 . S
O394 C393 1.258 . S
O395 Cd386 2.378 . S
O395 C393 1.256 . S
O396 Cd397 2.300 . S
O396 C403 1.275 . S
Cd397 O396 2.300 . S
Cd397 O405 2.381 . S
Cd397 O406 2.378 . S
O398 Cd399 2.385 . S
O398 C403 1.255 . S
Cd399 O398 2.385 . S
Cd399 O400 2.317 . S
O400 Cd399 2.317 . S
O400 C401 1.232 . S
C401 O400 1.232 . S
C401 O402 1.218 . S
O402 C401 1.218 . S
C403 O396 1.275 . S
C403 O398 1.255 . S
C404 O405 1.258 . S
C404 O406 1.256 . S
O405 Cd397 2.381 . S
O405 C404 1.258 . S
O406 Cd397 2.378 . S
O406 C404 1.256 . S
O407 Cd408 2.300 . S
O407 C414 1.275 . S
Cd408 O407 2.300 . S
Cd408 O416 2.381 . S
Cd408 O417 2.378 . S
O409 Cd410 2.385 . S
O409 C414 1.255 . S
Cd410 O409 2.385 . S
Cd410 O411 2.317 . S
O411 Cd410 2.317 . S
O411 C412 1.232 . S
C412 O411 1.232 . S
C412 O413 1.218 . S
O413 C412 1.218 . S
C414 O407 1.275 . S
C414 O409 1.255 . S
C415 O416 1.258 . S
C415 O417 1.256 . S
O416 Cd408 2.381 . S
O416 C415 1.258 . S
O417 Cd408 2.378 . S
O417 C415 1.256 . S
O418 Cd419 2.300 . S
O418 C425 1.275 . S
Cd419 O418 2.300 . S
Cd419 O427 2.381 . S
Cd419 O428 2.378 . S
O420 Cd421 2.385 . S
O420 C425 1.255 . S
Cd421 O420 2.385 . S
Cd421 O422 2.317 . S
O422 Cd421 2.317 . S
O422 C423 1.232 . S
C423 O422 1.232 . S
C423 O424 1.218 . S
O424 C423 1.218 . S
C425 O418 1.275 . S
C425 O420 1.255 . S
C426 O427 1.258 . S
C426 O428 1.256 . S
O427 Cd419 2.381 . S
O427 C426 1.258 . S
O428 Cd419 2.378 . S
O428 C426 1.256 . S
O429 Cd430 2.300 . S
O429 C436 1.275 . S
Cd430 O429 2.300 . S
Cd430 O438 2.381 . S
Cd430 O439 2.378 . S
O431 Cd432 2.385 . S
O431 C436 1.255 . S
Cd432 O431 2.385 . S
Cd432 O433 2.317 . S
O433 Cd432 2.317 . S
O433 C434 1.232 . S
C434 O433 1.232 . S
C434 O435 1.218 . S
O435 C434 1.218 . S
C436 O429 1.275 . S
C436 O431 1.255 . S
C437 O438 1.258 . S
C437 O439 1.256 . S
O438 Cd430 2.381 . S
O438 C437 1.258 . S
O439 Cd430 2.378 . S
O439 C437 1.256 . S
O440 Cd441 2.300 . S
O440 C447 1.275 . S
Cd441 O440 2.300 . S
Cd441 O449 2.381 . S
Cd441 O450 2.378 . S
O442 Cd443 2.385 . S
O442 C447 1.255 . S
Cd443 O442 2.385 . S
Cd443 O444 2.317 1_455 S
O444 Cd443 2.317 1_655 S
O444 C445 1.232 . S
C445 O444 1.232 . S
C445 O446 1.218 . S
O446 C445 1.218 . S
C447 O440 1.275 . S
C447 O442 1.255 . S
C448 O449 1.258 . S
C448 O450 1.256 . S
O449 Cd441 2.381 . S
O449 C448 1.258 . S
O450 Cd441 2.378 . S
O450 C448 1.256 . S
O451 Cd452 2.300 . S
O451 C458 1.275 . S
Cd452 O451 2.300 . S
Cd452 O460 2.381 . S
Cd452 O461 2.378 . S
O453 Cd454 2.385 . S
O453 C458 1.255 . S
Cd454 O453 2.385 . S
Cd454 O455 2.317 . S
O455 Cd454 2.317 . S
O455 C456 1.232 . S
C456 O455 1.232 . S
C456 O457 1.218 . S
O457 C456 1.218 . S
C458 O451 1.275 . S
C458 O453 1.255 . S
C459 O460 1.258 . S
C459 O461 1.256 . S
O460 Cd452 2.381 . S
O460 C459 1.258 . S
O461 Cd452 2.378 . S
O461 C459 1.256 . S
O462 Cd463 2.300 . S
O462 C469 1.275 . S
Cd463 O462 2.300 . S
Cd463 O471 2.381 . S
Cd463 O472 2.378 . S
O464 Cd465 2.383 . S
O464 C469 1.255 . S
Cd465 O464 2.383 . S
Cd465 O466 2.319 1_554 S
O466 Cd465 2.319 1_556 S
O466 C467 1.232 . S
C467 O466 1.232 . S
C467 O468 1.218 . S
O468 C467 1.218 . S
C469 O462 1.275 . S
C469 O464 1.255 . S
C470 O471 1.258 . S
C470 O472 1.256 . S
O471 Cd463 2.381 . S
O471 C470 1.258 . S
O472 Cd463 2.378 . S
O472 C470 1.256 . S
O473 Cd474 2.300 . S
O473 C480 1.275 . S
Cd474 O473 2.300 . S
Cd474 O482 2.381 . S
Cd474 O483 2.378 . S
O475 Cd476 2.385 . S
O475 C480 1.255 . S
Cd476 O475 2.385 . S
Cd476 O477 2.317 . S
O477 Cd476 2.317 . S
O477 C478 1.232 . S
C478 O477 1.232 . S
C478 O479 1.218 . S
O479 C478 1.218 . S
C480 O473 1.275 . S
C480 O475 1.255 . S
C481 O482 1.258 . S
C481 O483 1.256 . S
O482 Cd474 2.381 . S
O482 C481 1.258 . S
O483 Cd474 2.378 . S
O483 C481 1.256 . S
O484 Cd485 2.300 . S
O484 C491 1.275 . S
Cd485 O484 2.300 . S
Cd485 O493 2.381 . S
Cd485 O494 2.378 . S
O486 Cd487 2.385 . S
O486 C491 1.255 . S
Cd487 O486 2.385 . S
Cd487 O488 2.317 . S
O488 Cd487 2.317 . S
O488 C489 1.232 . S
C489 O488 1.232 . S
C489 O490 1.218 . S
O490 C489 1.218 . S
C491 O484 1.275 . S
C491 O486 1.255 . S
C492 O493 1.258 . S
C492 O494 1.256 . S
O493 Cd485 2.381 . S
O493 C492 1.258 . S
O494 Cd485 2.378 . S
O494 C492 1.256 . S
O495 Cd496 2.300 . S
O495 C502 1.275 . S
Cd496 O495 2.300 . S
Cd496 O504 2.381 . S
Cd496 O505 2.378 . S
O497 Cd498 2.385 . S
O497 C502 1.255 . S
Cd498 O497 2.385 . S
Cd498 O499 2.317 . S
O499 Cd498 2.317 . S
O499 C500 1.232 . S
C500 O499 1.232 . S
C500 O501 1.218 . S
O501 C500 1.218 . S
C502 O495 1.275 . S
C502 O497 1.255 . S
C503 O504 1.258 . S
C503 O505 1.256 . S
O504 Cd496 2.381 . S
O504 C503 1.258 . S
O505 Cd496 2.378 . S
O505 C503 1.256 . S
O506 Cd507 2.300 . S
O506 C513 1.275 . S
Cd507 O506 2.300 . S
Cd507 O515 2.381 . S
Cd507 O516 2.378 . S
O508 Cd509 2.385 . S
O508 C513 1.255 . S
Cd509 O508 2.385 . S
Cd509 O510 2.317 . S
O510 Cd509 2.317 . S
O510 C511 1.232 . S
C511 O510 1.232 . S
C511 O512 1.218 . S
O512 C511 1.218 . S
C513 O506 1.275 . S
C513 O508 1.255 . S
C514 O515 1.258 . S
C514 O516 1.256 . S
O515 Cd507 2.381 . S
O515 C514 1.258 . S
O516 Cd507 2.378 . S
O516 C514 1.256 . S
O517 Cd518 2.300 . S
O517 C524 1.275 . S
Cd518 O517 2.300 . S
Cd518 O526 2.381 . S
Cd518 O527 2.378 . S
O519 Cd520 2.385 . S
O519 C524 1.255 . S
Cd520 O519 2.385 . S
Cd520 O521 2.317 . S
O521 Cd520 2.317 . S
O521 C522 1.232 . S
C522 O521 1.232 . S
C522 O523 1.218 . S
O523 C522 1.218 . S
C524 O517 1.275 . S
C524 O519 1.255 . S
C525 O526 1.258 . S
C525 O527 1.256 . S
O526 Cd518 2.381 . S
O526 C525 1.258 . S
O527 Cd518 2.378 . S
O527 C525 1.256 . S
H528 C533 0.930 . S
H529 C536 0.930 . S
H530 C538 0.930 . S
H531 C532 1.016 . S
C532 H531 1.016 . S
C532 N539 1.286 . S
C533 H528 0.930 . S
C533 C534 1.397 . S
C533 C535 1.361 . S
C534 C533 1.397 . S
C534 C538 1.390 . S
C535 C533 1.361 . S
C535 C536 1.393 . S
C535 N539 1.413 . S
C536 H529 0.930 . S
C536 C535 1.393 . S
C536 C537 1.399 . S
C537 C536 1.399 . S
C537 C538 1.381 . S
C538 H530 0.930 . S
C538 C534 1.390 . S
C538 C537 1.381 . S
N539 C532 1.286 . S
N539 C535 1.413 . S
H540 C545 0.930 . S
H541 C548 0.930 . S
H542 C550 0.930 . S
H543 C544 1.016 . S
C544 H543 1.016 . S
C544 N551 1.286 . S
C545 H540 0.930 . S
C545 C546 1.397 . S
C545 C547 1.361 . S
C546 C545 1.397 . S
C546 C550 1.390 . S
C547 C545 1.361 . S
C547 C548 1.393 . S
C547 N551 1.413 . S
C548 H541 0.930 . S
C548 C547 1.393 . S
C548 C549 1.399 . S
C549 C548 1.399 . S
C549 C550 1.381 . S
C550 H542 0.930 . S
C550 C546 1.390 . S
C550 C549 1.381 . S
N551 C544 1.286 . S
N551 C547 1.413 . S
H552 C557 0.930 . S
H553 C560 0.930 . S
H554 C562 0.930 . S
H555 C556 1.016 . S
C556 H555 1.016 . S
C556 N563 1.286 . S
C557 H552 0.930 . S
C557 C558 1.397 . S
C557 C559 1.361 . S
C558 C557 1.397 . S
C558 C562 1.390 . S
C559 C557 1.361 . S
C559 C560 1.393 . S
C559 N563 1.413 . S
C560 H553 0.930 . S
C560 C559 1.393 . S
C560 C561 1.399 . S
C561 C560 1.399 . S
C561 C562 1.381 . S
C562 H554 0.930 . S
C562 C558 1.390 . S
C562 C561 1.381 . S
N563 C556 1.286 . S
N563 C559 1.413 . S
H564 C569 0.930 . S
H565 C572 0.930 . S
H566 C574 0.930 . S
H567 C568 1.016 . S
C568 H567 1.016 . S
C568 N575 1.286 . S
C569 H564 0.930 . S
C569 C570 1.397 . S
C569 C571 1.361 . S
C570 C569 1.397 . S
C570 C574 1.390 . S
C571 C569 1.361 . S
C571 C572 1.393 . S
C571 N575 1.413 . S
C572 H565 0.930 . S
C572 C571 1.393 . S
C572 C573 1.399 . S
C573 C572 1.399 . S
C573 C574 1.381 . S
C574 H566 0.930 . S
C574 C570 1.390 . S
C574 C573 1.381 . S
N575 C568 1.286 . S
N575 C571 1.413 . S
H576 C581 0.930 . S
H577 C584 0.930 . S
H578 C586 0.930 . S
H579 C580 1.016 . S
C580 H579 1.016 . S
C580 N587 1.286 . S
C581 H576 0.930 . S
C581 C582 1.397 . S
C581 C583 1.361 . S
C582 C581 1.397 . S
C582 C586 1.390 . S
C583 C581 1.361 . S
C583 C584 1.393 . S
C583 N587 1.413 . S
C584 H577 0.930 . S
C584 C583 1.393 . S
C584 C585 1.399 . S
C585 C584 1.399 . S
C585 C586 1.381 . S
C586 H578 0.930 . S
C586 C582 1.390 . S
C586 C585 1.381 . S
N587 C580 1.286 . S
N587 C583 1.413 . S
H588 C593 0.930 . S
H589 C596 0.930 . S
H590 C598 0.930 . S
H591 C592 1.016 . S
C592 H591 1.016 . S
C592 N599 1.286 . S
C593 H588 0.930 . S
C593 C594 1.397 . S
C593 C595 1.361 . S
C594 C593 1.397 . S
C594 C598 1.390 . S
C595 C593 1.361 . S
C595 C596 1.393 . S
C595 N599 1.413 . S
C596 H589 0.930 . S
C596 C595 1.393 . S
C596 C597 1.399 . S
C597 C596 1.399 . S
C597 C598 1.381 . S
C598 H590 0.930 . S
C598 C594 1.390 . S
C598 C597 1.381 . S
N599 C592 1.286 . S
N599 C595 1.413 . S
H600 C605 0.930 . S
H601 C608 0.930 . S
H602 C610 0.930 . S
H603 C604 1.016 . S
C604 H603 1.016 . S
C604 N611 1.286 . S
C605 H600 0.930 . S
C605 C606 1.397 . S
C605 C607 1.361 . S
C606 C605 1.397 . S
C606 C610 1.390 . S
C607 C605 1.361 . S
C607 C608 1.393 . S
C607 N611 1.413 . S
C608 H601 0.930 . S
C608 C607 1.393 . S
C608 C609 1.399 . S
C609 C608 1.399 . S
C609 C610 1.381 . S
C610 H602 0.930 . S
C610 C606 1.390 . S
C610 C609 1.381 . S
N611 C604 1.286 . S
N611 C607 1.413 . S
H612 C617 0.930 . S
H613 C620 0.930 . S
H614 C622 0.930 . S
H615 C616 1.016 . S
C616 H615 1.016 . S
C616 N623 1.286 . S
C617 H612 0.930 . S
C617 C618 1.397 . S
C617 C619 1.361 . S
C618 C617 1.397 . S
C618 C622 1.390 . S
C619 C617 1.361 . S
C619 C620 1.393 . S
C619 N623 1.413 . S
C620 H613 0.930 . S
C620 C619 1.393 . S
C620 C621 1.399 . S
C621 C620 1.399 . S
C621 C622 1.381 . S
C622 H614 0.930 . S
C622 C618 1.390 . S
C622 C621 1.381 . S
N623 C616 1.286 . S
N623 C619 1.413 . S
H624 C629 0.930 . S
H625 C632 0.930 . S
H626 C634 0.930 . S
H627 C628 1.016 . S
C628 H627 1.016 . S
C628 N635 1.286 . S
C629 H624 0.930 . S
C629 C630 1.397 . S
C629 C631 1.361 . S
C630 C629 1.397 . S
C630 C634 1.390 . S
C631 C629 1.361 . S
C631 C632 1.393 . S
C631 N635 1.413 . S
C632 H625 0.930 . S
C632 C631 1.393 . S
C632 C633 1.399 . S
C633 C632 1.399 . S
C633 C634 1.381 . S
C634 H626 0.930 . S
C634 C630 1.390 . S
C634 C633 1.381 . S
N635 C628 1.286 . S
N635 C631 1.413 . S
H636 C641 0.930 . S
H637 C644 0.930 . S
H638 C646 0.930 . S
H639 C640 1.016 . S
C640 H639 1.016 . S
C640 N647 1.286 . S
C641 H636 0.930 . S
C641 C642 1.397 . S
C641 C643 1.361 . S
C642 C641 1.397 . S
C642 C646 1.390 . S
C643 C641 1.361 . S
C643 C644 1.393 . S
C643 N647 1.413 . S
C644 H637 0.930 . S
C644 C643 1.393 . S
C644 C645 1.399 . S
C645 C644 1.399 . S
C645 C646 1.381 . S
C646 H638 0.930 . S
C646 C642 1.390 . S
C646 C645 1.381 . S
N647 C640 1.286 . S
N647 C643 1.413 . S
H648 C653 0.930 . S
H649 C656 0.930 . S
H650 C658 0.930 . S
H651 C652 1.016 . S
C652 H651 1.016 . S
C652 N659 1.286 . S
C653 H648 0.930 . S
C653 C654 1.397 . S
C653 C655 1.361 . S
C654 C653 1.397 . S
C654 C658 1.390 . S
C655 C653 1.361 . S
C655 C656 1.393 . S
C655 N659 1.413 . S
C656 H649 0.930 . S
C656 C655 1.393 . S
C656 C657 1.399 . S
C657 C656 1.399 . S
C657 C658 1.381 . S
C658 H650 0.930 . S
C658 C654 1.390 . S
C658 C657 1.381 . S
N659 C652 1.286 . S
N659 C655 1.413 . S
H660 C665 0.930 . S
H661 C668 0.930 . S
H662 C670 0.930 . S
H663 C664 1.016 . S
C664 H663 1.016 . S
C664 N671 1.286 . S
C665 H660 0.930 . S
C665 C666 1.397 . S
C665 C667 1.361 . S
C666 C665 1.397 . S
C666 C670 1.390 . S
C667 C665 1.361 . S
C667 C668 1.393 . S
C667 N671 1.413 . S
C668 H661 0.930 . S
C668 C667 1.393 . S
C668 C669 1.399 . S
C669 C668 1.399 . S
C669 C670 1.381 . S
C670 H662 0.930 . S
C670 C666 1.390 . S
C670 C669 1.381 . S
N671 C664 1.286 . S
N671 C667 1.413 . S
H672 C677 0.930 . S
H673 C680 0.930 . S
H674 C682 0.930 . S
H675 C676 1.016 . S
C676 H675 1.016 . S
C676 N683 1.286 . S
C677 H672 0.930 . S
C677 C678 1.397 . S
C677 C679 1.361 . S
C678 C677 1.397 . S
C678 C682 1.390 . S
C679 C677 1.361 . S
C679 C680 1.393 . S
C679 N683 1.413 . S
C680 H673 0.930 . S
C680 C679 1.393 . S
C680 C681 1.399 . S
C681 C680 1.399 . S
C681 C682 1.381 . S
C682 H674 0.930 . S
C682 C678 1.390 . S
C682 C681 1.381 . S
N683 C676 1.286 . S
N683 C679 1.413 . S
H684 C689 0.930 . S
H685 C692 0.930 . S
H686 C694 0.930 . S
H687 C688 1.016 . S
C688 H687 1.016 . S
C688 N695 1.286 . S
C689 H684 0.930 . S
C689 C690 1.397 . S
C689 C691 1.361 . S
C690 C689 1.397 . S
C690 C694 1.390 . S
C691 C689 1.361 . S
C691 C692 1.393 . S
C691 N695 1.413 . S
C692 H685 0.930 . S
C692 C691 1.393 . S
C692 C693 1.399 . S
C693 C692 1.399 . S
C693 C694 1.381 . S
C694 H686 0.930 . S
C694 C690 1.390 . S
C694 C693 1.381 . S
N695 C688 1.286 . S
N695 C691 1.413 . S
H696 C701 0.930 . S
H697 C704 0.930 . S
H698 C706 0.930 . S
H699 C700 1.016 . S
C700 H699 1.016 . S
C700 N707 1.286 . S
C701 H696 0.930 . S
C701 C702 1.397 . S
C701 C703 1.361 . S
C702 C701 1.397 . S
C702 C706 1.390 . S
C703 C701 1.361 . S
C703 C704 1.393 . S
C703 N707 1.413 . S
C704 H697 0.930 . S
C704 C703 1.393 . S
C704 C705 1.399 . S
C705 C704 1.399 . S
C705 C706 1.381 . S
C706 H698 0.930 . S
C706 C702 1.390 . S
C706 C705 1.381 . S
N707 C700 1.286 . S
N707 C703 1.413 . S
H708 C713 0.930 . S
H709 C716 0.930 . S
H710 C718 0.930 . S
H711 C712 1.016 . S
C712 H711 1.016 . S
C712 N719 1.286 . S
C713 H708 0.930 . S
C713 C714 1.397 . S
C713 C715 1.361 . S
C714 C713 1.397 . S
C714 C718 1.390 . S
C715 C713 1.361 . S
C715 C716 1.393 . S
C715 N719 1.413 . S
C716 H709 0.930 . S
C716 C715 1.393 . S
C716 C717 1.399 . S
C717 C716 1.399 . S
C717 C718 1.381 . S
C718 H710 0.930 . S
C718 C714 1.390 . S
C718 C717 1.381 . S
N719 C712 1.286 . S
N719 C715 1.413 . S
H720 C725 0.930 . S
H721 C728 0.930 . S
H722 C730 0.930 . S
H723 C724 1.016 . S
C724 H723 1.016 . S
C724 N731 1.286 . S
C725 H720 0.930 . S
C725 C726 1.397 . S
C725 C727 1.361 . S
C726 C725 1.397 . S
C726 C730 1.390 . S
C727 C725 1.361 . S
C727 C728 1.393 . S
C727 N731 1.413 . S
C728 H721 0.930 . S
C728 C727 1.393 . S
C728 C729 1.399 . S
C729 C728 1.399 . S
C729 C730 1.381 . S
C730 H722 0.930 . S
C730 C726 1.390 . S
C730 C729 1.381 . S
N731 C724 1.286 . S
N731 C727 1.413 . S
H732 C737 0.930 . S
H733 C740 0.930 . S
H734 C742 0.930 . S
H735 C736 1.016 . S
C736 H735 1.016 . S
C736 N743 1.286 . S
C737 H732 0.930 . S
C737 C738 1.397 . S
C737 C739 1.361 . S
C738 C737 1.397 . S
C738 C742 1.390 . S
C739 C737 1.361 . S
C739 C740 1.393 . S
C739 N743 1.413 . S
C740 H733 0.930 . S
C740 C739 1.393 . S
C740 C741 1.399 . S
C741 C740 1.399 . S
C741 C742 1.381 . S
C742 H734 0.930 . S
C742 C738 1.390 . S
C742 C741 1.381 . S
N743 C736 1.286 . S
N743 C739 1.413 . S
H744 C749 0.930 . S
H745 C752 0.930 . S
H746 C754 0.930 . S
H747 C748 1.016 . S
C748 H747 1.016 . S
C748 N755 1.286 . S
C749 H744 0.930 . S
C749 C750 1.397 . S
C749 C751 1.361 . S
C750 C749 1.397 . S
C750 C754 1.390 . S
C751 C749 1.361 . S
C751 C752 1.393 . S
C751 N755 1.413 . S
C752 H745 0.930 . S
C752 C751 1.393 . S
C752 C753 1.399 . S
C753 C752 1.399 . S
C753 C754 1.381 . S
C754 H746 0.930 . S
C754 C750 1.390 . S
C754 C753 1.381 . S
N755 C748 1.286 . S
N755 C751 1.413 . S
H756 C761 0.930 . S
H757 C764 0.930 . S
H758 C766 0.930 . S
H759 C760 1.016 . S
C760 H759 1.016 . S
C760 N767 1.286 . S
C761 H756 0.930 . S
C761 C762 1.397 . S
C761 C763 1.361 . S
C762 C761 1.397 . S
C762 C766 1.390 . S
C763 C761 1.361 . S
C763 C764 1.393 . S
C763 N767 1.413 . S
C764 H757 0.930 . S
C764 C763 1.393 . S
C764 C765 1.399 . S
C765 C764 1.399 . S
C765 C766 1.381 . S
C766 H758 0.930 . S
C766 C762 1.390 . S
C766 C765 1.381 . S
N767 C760 1.286 . S
N767 C763 1.413 . S
H768 C773 0.930 . S
H769 C776 0.930 . S
H770 C778 0.930 . S
H771 C772 1.016 . S
C772 H771 1.016 . S
C772 N779 1.286 . S
C773 H768 0.930 . S
C773 C774 1.397 . S
C773 C775 1.361 . S
C774 C773 1.397 . S
C774 C778 1.390 . S
C775 C773 1.361 . S
C775 C776 1.393 . S
C775 N779 1.413 . S
C776 H769 0.930 . S
C776 C775 1.393 . S
C776 C777 1.399 . S
C777 C776 1.399 . S
C777 C778 1.381 . S
C778 H770 0.930 . S
C778 C774 1.390 . S
C778 C777 1.381 . S
N779 C772 1.286 . S
N779 C775 1.413 . S
H780 C785 0.930 . S
H781 C788 0.930 . S
H782 C790 0.930 . S
H783 C784 1.016 . S
C784 H783 1.016 . S
C784 N791 1.286 . S
C785 H780 0.930 . S
C785 C786 1.397 . S
C785 C787 1.361 . S
C786 C785 1.397 . S
C786 C790 1.390 . S
C787 C785 1.361 . S
C787 C788 1.393 . S
C787 N791 1.413 . S
C788 H781 0.930 . S
C788 C787 1.393 . S
C788 C789 1.399 . S
C789 C788 1.399 . S
C789 C790 1.381 . S
C790 H782 0.930 . S
C790 C786 1.390 . S
C790 C789 1.381 . S
N791 C784 1.286 . S
N791 C787 1.413 . S
H792 C797 0.930 . S
H793 C800 0.930 . S
H794 C802 0.930 . S
H795 C796 1.016 . S
C796 H795 1.016 . S
C796 N803 1.286 . S
C797 H792 0.930 . S
C797 C798 1.397 . S
C797 C799 1.361 . S
C798 C797 1.397 . S
C798 C802 1.390 . S
C799 C797 1.361 . S
C799 C800 1.393 . S
C799 N803 1.413 . S
C800 H793 0.930 . S
C800 C799 1.393 . S
C800 C801 1.399 . S
C801 C800 1.399 . S
C801 C802 1.381 . S
C802 H794 0.930 . S
C802 C798 1.390 . S
C802 C801 1.381 . S
N803 C796 1.286 . S
N803 C799 1.413 . S
H804 C809 0.930 . S
H805 C812 0.930 . S
H806 C814 0.930 . S
H807 C808 1.016 . S
C808 H807 1.016 . S
C808 N815 1.286 . S
C809 H804 0.930 . S
C809 C810 1.397 . S
C809 C811 1.361 . S
C810 C809 1.397 . S
C810 C814 1.390 . S
C811 C809 1.361 . S
C811 C812 1.393 . S
C811 N815 1.413 . S
C812 H805 0.930 . S
C812 C811 1.393 . S
C812 C813 1.399 . S
C813 C812 1.399 . S
C813 C814 1.381 . S
C814 H806 0.930 . S
C814 C810 1.390 . S
C814 C813 1.381 . S
N815 C808 1.286 . S
N815 C811 1.413 . S
H816 C821 0.930 . S
H817 C824 0.930 . S
H818 C826 0.930 . S
H819 C820 1.016 . S
C820 H819 1.016 . S
C820 N827 1.286 . S
C821 H816 0.930 . S
C821 C822 1.397 . S
C821 C823 1.361 . S
C822 C821 1.397 . S
C822 C826 1.390 . S
C823 C821 1.361 . S
C823 C824 1.393 . S
C823 N827 1.413 . S
C824 H817 0.930 . S
C824 C823 1.393 . S
C824 C825 1.399 . S
C825 C824 1.399 . S
C825 C826 1.381 . S
C826 H818 0.930 . S
C826 C822 1.390 . S
C826 C825 1.381 . S
N827 C820 1.286 . S
N827 C823 1.413 . S
H828 C833 0.930 . S
H829 C836 0.930 . S
H830 C838 0.930 . S
H831 C832 1.016 . S
C832 H831 1.016 . S
C832 N839 1.286 . S
C833 H828 0.930 . S
C833 C834 1.397 . S
C833 C835 1.361 . S
C834 C833 1.397 . S
C834 C838 1.390 . S
C835 C833 1.361 . S
C835 C836 1.393 . S
C835 N839 1.413 . S
C836 H829 0.930 . S
C836 C835 1.393 . S
C836 C837 1.399 . S
C837 C836 1.399 . S
C837 C838 1.381 . S
C838 H830 0.930 . S
C838 C834 1.390 . S
C838 C837 1.381 . S
N839 C832 1.286 . S
N839 C835 1.413 . S
H840 C845 0.930 . S
H841 C848 0.930 . S
H842 C850 0.930 . S
H843 C844 1.016 . S
C844 H843 1.016 . S
C844 N851 1.286 . S
C845 H840 0.930 . S
C845 C846 1.397 . S
C845 C847 1.361 . S
C846 C845 1.397 . S
C846 C850 1.390 . S
C847 C845 1.361 . S
C847 C848 1.393 . S
C847 N851 1.413 . S
C848 H841 0.930 . S
C848 C847 1.393 . S
C848 C849 1.399 . S
C849 C848 1.399 . S
C849 C850 1.381 . S
C850 H842 0.930 . S
C850 C846 1.390 . S
C850 C849 1.381 . S
N851 C844 1.286 . S
N851 C847 1.413 . S
H852 C857 0.930 . S
H853 C860 0.930 . S
H854 C862 0.930 . S
H855 C856 1.016 . S
C856 H855 1.016 . S
C856 N863 1.286 . S
C857 H852 0.930 . S
C857 C858 1.397 . S
C857 C859 1.361 . S
C858 C857 1.397 . S
C858 C862 1.390 . S
C859 C857 1.361 . S
C859 C860 1.393 . S
C859 N863 1.413 . S
C860 H853 0.930 . S
C860 C859 1.393 . S
C860 C861 1.399 . S
C861 C860 1.399 . S
C861 C862 1.381 . S
C862 H854 0.930 . S
C862 C858 1.390 . S
C862 C861 1.381 . S
N863 C856 1.286 . S
N863 C859 1.413 . S
H864 C869 0.930 . S
H865 C872 0.930 . S
H866 C874 0.930 . S
H867 C868 1.016 . S
C868 H867 1.016 . S
C868 N875 1.286 . S
C869 H864 0.930 . S
C869 C870 1.397 . S
C869 C871 1.361 . S
C870 C869 1.397 . S
C870 C874 1.390 . S
C871 C869 1.361 . S
C871 C872 1.393 . S
C871 N875 1.413 . S
C872 H865 0.930 . S
C872 C871 1.393 . S
C872 C873 1.399 . S
C873 C872 1.399 . S
C873 C874 1.381 . S
C874 H866 0.930 . S
C874 C870 1.390 . S
C874 C873 1.381 . S
N875 C868 1.286 . S
N875 C871 1.413 . S
H876 C881 0.930 . S
H877 C884 0.930 . S
H878 C886 0.930 . S
H879 C880 1.016 . S
C880 H879 1.016 . S
C880 N887 1.286 . S
C881 H876 0.930 . S
C881 C882 1.397 . S
C881 C883 1.361 . S
C882 C881 1.397 . S
C882 C886 1.390 . S
C883 C881 1.361 . S
C883 C884 1.393 . S
C883 N887 1.413 . S
C884 H877 0.930 . S
C884 C883 1.393 . S
C884 C885 1.399 . S
C885 C884 1.399 . S
C885 C886 1.381 . S
C886 H878 0.930 . S
C886 C882 1.390 . S
C886 C885 1.381 . S
N887 C880 1.286 . S
N887 C883 1.413 . S
H888 C893 0.930 . S
H889 C896 0.930 . S
H890 C898 0.930 . S
H891 C892 1.016 . S
C892 H891 1.016 . S
C892 N899 1.286 . S
C893 H888 0.930 . S
C893 C894 1.397 . S
C893 C895 1.361 . S
C894 C893 1.397 . S
C894 C898 1.390 . S
C895 C893 1.361 . S
C895 C896 1.393 . S
C895 N899 1.413 . S
C896 H889 0.930 . S
C896 C895 1.393 . S
C896 C897 1.399 . S
C897 C896 1.399 . S
C897 C898 1.381 . S
C898 H890 0.930 . S
C898 C894 1.390 . S
C898 C897 1.381 . S
N899 C892 1.286 . S
N899 C895 1.413 . S
H900 C905 0.930 . S
H901 C908 0.930 . S
H902 C910 0.930 . S
H903 C904 1.016 . S
C904 H903 1.016 . S
C904 N911 1.286 . S
C905 H900 0.930 . S
C905 C906 1.397 . S
C905 C907 1.361 . S
C906 C905 1.397 . S
C906 C910 1.390 . S
C907 C905 1.361 . S
C907 C908 1.393 . S
C907 N911 1.413 . S
C908 H901 0.930 . S
C908 C907 1.393 . S
C908 C909 1.399 . S
C909 C908 1.399 . S
C909 C910 1.381 . S
C910 H902 0.930 . S
C910 C906 1.390 . S
C910 C909 1.381 . S
N911 C904 1.286 . S
N911 C907 1.413 . S
H912 C917 0.930 . S
H913 C920 0.930 . S
H914 C922 0.930 . S
H915 C916 1.016 . S
C916 H915 1.016 . S
C916 N923 1.286 . S
C917 H912 0.930 . S
C917 C918 1.397 . S
C917 C919 1.361 . S
C918 C917 1.397 . S
C918 C922 1.390 . S
C919 C917 1.361 . S
C919 C920 1.393 . S
C919 N923 1.413 . S
C920 H913 0.930 . S
C920 C919 1.393 . S
C920 C921 1.399 . S
C921 C920 1.399 . S
C921 C922 1.381 . S
C922 H914 0.930 . S
C922 C918 1.390 . S
C922 C921 1.381 . S
N923 C916 1.286 . S
N923 C919 1.413 . S
H924 C929 0.930 . S
H925 C932 0.930 . S
H926 C934 0.930 . S
H927 C928 1.016 . S
C928 H927 1.016 . S
C928 N935 1.286 . S
C929 H924 0.930 . S
C929 C930 1.397 . S
C929 C931 1.361 . S
C930 C929 1.397 . S
C930 C934 1.390 . S
C931 C929 1.361 . S
C931 C932 1.393 . S
C931 N935 1.413 . S
C932 H925 0.930 . S
C932 C931 1.393 . S
C932 C933 1.399 . S
C933 C932 1.399 . S
C933 C934 1.381 . S
C934 H926 0.930 . S
C934 C930 1.390 . S
C934 C933 1.381 . S
N935 C928 1.286 . S
N935 C931 1.413 . S
H936 C941 0.930 . S
H937 C944 0.930 . S
H938 C946 0.930 . S
H939 C940 1.016 . S
C940 H939 1.016 . S
C940 N947 1.286 . S
C941 H936 0.930 . S
C941 C942 1.397 . S
C941 C943 1.361 . S
C942 C941 1.397 . S
C942 C946 1.390 . S
C943 C941 1.361 . S
C943 C944 1.393 . S
C943 N947 1.413 . S
C944 H937 0.930 . S
C944 C943 1.393 . S
C944 C945 1.399 . S
C945 C944 1.399 . S
C945 C946 1.381 . S
C946 H938 0.930 . S
C946 C942 1.390 . S
C946 C945 1.381 . S
N947 C940 1.286 . S
N947 C943 1.413 . S
H948 C953 0.930 . S
H949 C956 0.930 . S
H950 C958 0.930 . S
H951 C952 1.016 . S
C952 H951 1.016 . S
C952 N959 1.286 . S
C953 H948 0.930 . S
C953 C954 1.397 . S
C953 C955 1.361 . S
C954 C953 1.397 . S
C954 C958 1.390 . S
C955 C953 1.361 . S
C955 C956 1.393 . S
C955 N959 1.413 . S
C956 H949 0.930 . S
C956 C955 1.393 . S
C956 C957 1.399 . S
C957 C956 1.399 . S
C957 C958 1.381 . S
C958 H950 0.930 . S
C958 C954 1.390 . S
C958 C957 1.381 . S
N959 C952 1.286 . S
N959 C955 1.413 . S
H960 C965 0.930 . S
H961 C968 0.930 . S
H962 C970 0.930 . S
H963 C964 1.016 . S
C964 H963 1.016 . S
C964 N971 1.286 . S
C965 H960 0.930 . S
C965 C966 1.397 . S
C965 C967 1.361 . S
C966 C965 1.397 . S
C966 C970 1.390 . S
C967 C965 1.361 . S
C967 C968 1.393 . S
C967 N971 1.413 . S
C968 H961 0.930 . S
C968 C967 1.393 . S
C968 C969 1.399 . S
C969 C968 1.399 . S
C969 C970 1.381 . S
C970 H962 0.930 . S
C970 C966 1.390 . S
C970 C969 1.381 . S
N971 C964 1.286 . S
N971 C967 1.413 . S
H972 C977 0.930 . S
H973 C980 0.930 . S
H974 C982 0.930 . S
H975 C976 1.016 . S
C976 H975 1.016 . S
C976 N983 1.286 . S
C977 H972 0.930 . S
C977 C978 1.397 . S
C977 C979 1.361 . S
C978 C977 1.397 . S
C978 C982 1.390 . S
C979 C977 1.361 . S
C979 C980 1.393 . S
C979 N983 1.413 . S
C980 H973 0.930 . S
C980 C979 1.393 . S
C980 C981 1.399 . S
C981 C980 1.399 . S
C981 C982 1.381 . S
C982 H974 0.930 . S
C982 C978 1.390 . S
C982 C981 1.381 . S
N983 C976 1.286 . S
N983 C979 1.413 . S
H984 C989 0.930 . S
H985 C992 0.930 . S
H986 C994 0.930 . S
H987 C988 1.016 . S
C988 H987 1.016 . S
C988 N995 1.286 . S
C989 H984 0.930 . S
C989 C990 1.397 . S
C989 C991 1.361 . S
C990 C989 1.397 . S
C990 C994 1.390 . S
C991 C989 1.361 . S
C991 C992 1.393 . S
C991 N995 1.413 . S
C992 H985 0.930 . S
C992 C991 1.393 . S
C992 C993 1.399 . S
C993 C992 1.399 . S
C993 C994 1.381 . S
C994 H986 0.930 . S
C994 C990 1.390 . S
C994 C993 1.381 . S
N995 C988 1.286 . S
N995 C991 1.413 . S
H996 C1001 0.930 . S
H997 C1004 0.930 . S
H998 C1006 0.930 . S
H999 C1000 1.016 . S
C1000 H999 1.016 . S
C1000 N1007 1.286 . S
C1001 H996 0.930 . S
C1001 C1002 1.397 . S
C1001 C1003 1.361 . S
C1002 C1001 1.397 . S
C1002 C1006 1.390 . S
C1003 C1001 1.361 . S
C1003 C1004 1.393 . S
C1003 N1007 1.413 . S
C1004 H997 0.930 . S
C1004 C1003 1.393 . S
C1004 C1005 1.399 . S
C1005 C1004 1.399 . S
C1005 C1006 1.381 . S
C1006 H998 0.930 . S
C1006 C1002 1.390 . S
C1006 C1005 1.381 . S
N1007 C1000 1.286 . S
N1007 C1003 1.413 . S
H1008 C1013 0.930 . S
H1009 C1016 0.930 . S
H1010 C1018 0.930 . S
H1011 C1012 1.016 . S
C1012 H1011 1.016 . S
C1012 N1019 1.286 . S
C1013 H1008 0.930 . S
C1013 C1014 1.397 . S
C1013 C1015 1.361 . S
C1014 C1013 1.397 . S
C1014 C1018 1.390 . S
C1015 C1013 1.361 . S
C1015 C1016 1.393 . S
C1015 N1019 1.413 . S
C1016 H1009 0.930 . S
C1016 C1015 1.393 . S
C1016 C1017 1.399 . S
C1017 C1016 1.399 . S
C1017 C1018 1.381 . S
C1018 H1010 0.930 . S
C1018 C1014 1.390 . S
C1018 C1017 1.381 . S
N1019 C1012 1.286 . S
N1019 C1015 1.413 . S
H1020 C1025 0.930 . S
H1021 C1028 0.930 . S
H1022 C1030 0.930 . S
H1023 C1024 1.016 . S
C1024 H1023 1.016 . S
C1024 N1031 1.286 . S
C1025 H1020 0.930 . S
C1025 C1026 1.397 . S
C1025 C1027 1.361 . S
C1026 C1025 1.397 . S
C1026 C1030 1.390 . S
C1027 C1025 1.361 . S
C1027 C1028 1.393 . S
C1027 N1031 1.413 . S
C1028 H1021 0.930 . S
C1028 C1027 1.393 . S
C1028 C1029 1.399 . S
C1029 C1028 1.399 . S
C1029 C1030 1.381 . S
C1030 H1022 0.930 . S
C1030 C1026 1.390 . S
C1030 C1029 1.381 . S
N1031 C1024 1.286 . S
N1031 C1027 1.413 . S
H1032 C1037 0.930 . S
H1033 C1040 0.930 . S
H1034 C1042 0.930 . S
H1035 C1036 1.016 . S
C1036 H1035 1.016 . S
C1036 N1043 1.286 . S
C1037 H1032 0.930 . S
C1037 C1038 1.397 . S
C1037 C1039 1.361 . S
C1038 C1037 1.397 . S
C1038 C1042 1.390 . S
C1039 C1037 1.361 . S
C1039 C1040 1.393 . S
C1039 N1043 1.413 . S
C1040 H1033 0.930 . S
C1040 C1039 1.393 . S
C1040 C1041 1.399 . S
C1041 C1040 1.399 . S
C1041 C1042 1.381 . S
C1042 H1034 0.930 . S
C1042 C1038 1.390 . S
C1042 C1041 1.381 . S
N1043 C1036 1.286 . S
N1043 C1039 1.413 . S
H1044 C1049 0.930 . S
H1045 C1052 0.930 . S
H1046 C1054 0.930 . S
H1047 C1048 1.016 . S
C1048 H1047 1.016 . S
C1048 N1055 1.286 . S
C1049 H1044 0.930 . S
C1049 C1050 1.397 . S
C1049 C1051 1.361 . S
C1050 C1049 1.397 . S
C1050 C1054 1.390 . S
C1051 C1049 1.361 . S
C1051 C1052 1.393 . S
C1051 N1055 1.413 . S
C1052 H1045 0.930 . S
C1052 C1051 1.393 . S
C1052 C1053 1.399 . S
C1053 C1052 1.399 . S
C1053 C1054 1.381 . S
C1054 H1046 0.930 . S
C1054 C1050 1.390 . S
C1054 C1053 1.381 . S
N1055 C1048 1.286 . S
N1055 C1051 1.413 . S
H1056 C1061 0.930 . S
H1057 C1064 0.930 . S
H1058 C1066 0.930 . S
H1059 C1060 1.016 . S
C1060 H1059 1.016 . S
C1060 N1067 1.286 . S
C1061 H1056 0.930 . S
C1061 C1062 1.397 . S
C1061 C1063 1.361 . S
C1062 C1061 1.397 . S
C1062 C1066 1.390 . S
C1063 C1061 1.361 . S
C1063 C1064 1.393 . S
C1063 N1067 1.413 . S
C1064 H1057 0.930 . S
C1064 C1063 1.393 . S
C1064 C1065 1.399 . S
C1065 C1064 1.399 . S
C1065 C1066 1.381 . S
C1066 H1058 0.930 . S
C1066 C1062 1.390 . S
C1066 C1065 1.381 . S
N1067 C1060 1.286 . S
N1067 C1063 1.413 . S
H1068 C1073 0.930 . S
H1069 C1076 0.930 . S
H1070 C1078 0.930 . S
H1071 C1072 1.016 . S
C1072 H1071 1.016 . S
C1072 N1079 1.286 . S
C1073 H1068 0.930 . S
C1073 C1074 1.397 . S
C1073 C1075 1.361 . S
C1074 C1073 1.397 . S
C1074 C1078 1.390 . S
C1075 C1073 1.361 . S
C1075 C1076 1.393 . S
C1075 N1079 1.413 . S
C1076 H1069 0.930 . S
C1076 C1075 1.393 . S
C1076 C1077 1.399 . S
C1077 C1076 1.399 . S
C1077 C1078 1.381 . S
C1078 H1070 0.930 . S
C1078 C1074 1.390 . S
C1078 C1077 1.381 . S
N1079 C1072 1.286 . S
N1079 C1075 1.413 . S
H1080 C1085 0.930 . S
H1081 C1088 0.930 . S
H1082 C1090 0.930 . S
H1083 C1084 1.016 . S
C1084 H1083 1.016 . S
C1084 N1091 1.286 . S
C1085 H1080 0.930 . S
C1085 C1086 1.397 . S
C1085 C1087 1.361 . S
C1086 C1085 1.397 . S
C1086 C1090 1.390 . S
C1087 C1085 1.361 . S
C1087 C1088 1.393 . S
C1087 N1091 1.413 . S
C1088 H1081 0.930 . S
C1088 C1087 1.393 . S
C1088 C1089 1.399 . S
C1089 C1088 1.399 . S
C1089 C1090 1.381 . S
C1090 H1082 0.930 . S
C1090 C1086 1.390 . S
C1090 C1089 1.381 . S
N1091 C1084 1.286 . S
N1091 C1087 1.413 . S
H1092 C1097 0.930 . S
H1093 C1100 0.930 . S
H1094 C1102 0.930 . S
H1095 C1096 1.016 . S
C1096 H1095 1.016 . S
C1096 N1103 1.286 . S
C1097 H1092 0.930 . S
C1097 C1098 1.397 . S
C1097 C1099 1.361 . S
C1098 C1097 1.397 . S
C1098 C1102 1.390 . S
C1099 C1097 1.361 . S
C1099 C1100 1.393 . S
C1099 N1103 1.413 . S
C1100 H1093 0.930 . S
C1100 C1099 1.393 . S
C1100 C1101 1.399 . S
C1101 C1100 1.399 . S
C1101 C1102 1.381 . S
C1102 H1094 0.930 . S
C1102 C1098 1.390 . S
C1102 C1101 1.381 . S
N1103 C1096 1.286 . S
N1103 C1099 1.413 . S
C1104 C1105 1.387 . S
C1104 H1108 0.950 . S
C1104 C1113 1.390 . S
C1105 C1104 1.387 . S
C1105 C1107 1.387 . S
H1106 C1113 0.950 . S
C1107 C1105 1.387 . S
C1107 C1109 1.390 . S
C1107 H1111 0.950 . S
H1108 C1104 0.950 . S
C1109 C1107 1.390 . S
C1109 C1110 1.387 . S
C1109 H1112 0.950 . S
C1110 C1109 1.387 . S
C1110 C1113 1.387 . S
H1111 C1107 0.950 . S
H1112 C1109 0.950 . S
C1113 C1104 1.390 . S
C1113 H1106 0.950 . S
C1113 C1110 1.387 . S
C1114 C1115 1.387 . S
C1114 H1118 0.950 . S
C1114 C1123 1.390 . S
C1115 C1114 1.387 . S
C1115 C1117 1.387 . S
H1116 C1123 0.950 . S
C1117 C1115 1.387 . S
C1117 C1119 1.390 . S
C1117 H1121 0.950 . S
H1118 C1114 0.950 . S
C1119 C1117 1.390 . S
C1119 C1120 1.387 . S
C1119 H1122 0.950 . S
C1120 C1119 1.387 . S
C1120 C1123 1.387 . S
H1121 C1117 0.950 . S
H1122 C1119 0.950 . S
C1123 C1114 1.390 . S
C1123 H1116 0.950 . S
C1123 C1120 1.387 . S
C1124 C1125 1.387 . S
C1124 H1128 0.950 . S
C1124 C1133 1.390 . S
C1125 C1124 1.387 . S
C1125 C1127 1.387 . S
H1126 C1133 0.950 . S
C1127 C1125 1.387 . S
C1127 C1129 1.390 . S
C1127 H1131 0.950 . S
H1128 C1124 0.950 . S
C1129 C1127 1.390 . S
C1129 C1130 1.387 . S
C1129 H1132 0.950 . S
C1130 C1129 1.387 . S
C1130 C1133 1.387 . S
H1131 C1127 0.950 . S
H1132 C1129 0.950 . S
C1133 C1124 1.390 . S
C1133 H1126 0.950 . S
C1133 C1130 1.387 . S
C1134 C1135 1.387 . S
C1134 H1138 0.950 . S
C1134 C1143 1.390 . S
C1135 C1134 1.387 . S
C1135 C1137 1.387 . S
H1136 C1143 0.950 . S
C1137 C1135 1.387 . S
C1137 C1139 1.390 . S
C1137 H1141 0.950 . S
H1138 C1134 0.950 . S
C1139 C1137 1.390 . S
C1139 C1140 1.387 . S
C1139 H1142 0.950 . S
C1140 C1139 1.387 . S
C1140 C1143 1.387 . S
H1141 C1137 0.950 . S
H1142 C1139 0.950 . S
C1143 C1134 1.390 . S
C1143 H1136 0.950 . S
C1143 C1140 1.387 . S
C1144 C1145 1.387 . S
C1144 H1148 0.950 . S
C1144 C1153 1.390 . S
C1145 C1144 1.387 . S
C1145 C1147 1.387 . S
H1146 C1153 0.950 . S
C1147 C1145 1.387 . S
C1147 C1149 1.390 . S
C1147 H1151 0.950 . S
H1148 C1144 0.950 . S
C1149 C1147 1.390 . S
C1149 C1150 1.387 . S
C1149 H1152 0.950 . S
C1150 C1149 1.387 . S
C1150 C1153 1.387 . S
H1151 C1147 0.950 . S
H1152 C1149 0.950 . S
C1153 C1144 1.390 . S
C1153 H1146 0.950 . S
C1153 C1150 1.387 . S
C1154 C1155 1.387 . S
C1154 H1158 0.950 . S
C1154 C1163 1.390 . S
C1155 C1154 1.387 . S
C1155 C1157 1.387 . S
H1156 C1163 0.950 . S
C1157 C1155 1.387 . S
C1157 C1159 1.390 . S
C1157 H1161 0.950 . S
H1158 C1154 0.950 . S
C1159 C1157 1.390 . S
C1159 C1160 1.387 . S
C1159 H1162 0.950 . S
C1160 C1159 1.387 . S
C1160 C1163 1.387 . S
H1161 C1157 0.950 . S
H1162 C1159 0.950 . S
C1163 C1154 1.390 . S
C1163 H1156 0.950 . S
C1163 C1160 1.387 . S
C1164 C1165 1.387 . S
C1164 H1168 0.950 . S
C1164 C1173 1.390 . S
C1165 C1164 1.387 . S
C1165 C1167 1.387 . S
H1166 C1173 0.950 . S
C1167 C1165 1.387 . S
C1167 C1169 1.390 . S
C1167 H1171 0.950 . S
H1168 C1164 0.950 . S
C1169 C1167 1.390 . S
C1169 C1170 1.387 . S
C1169 H1172 0.950 . S
C1170 C1169 1.387 . S
C1170 C1173 1.387 . S
H1171 C1167 0.950 . S
H1172 C1169 0.950 . S
C1173 C1164 1.390 . S
C1173 H1166 0.950 . S
C1173 C1170 1.387 . S
C1174 C1175 1.387 . S
C1174 H1178 0.950 . S
C1174 C1183 1.390 . S
C1175 C1174 1.387 . S
C1175 C1177 1.387 . S
H1176 C1183 0.950 . S
C1177 C1175 1.387 . S
C1177 C1179 1.390 . S
C1177 H1181 0.950 . S
H1178 C1174 0.950 . S
C1179 C1177 1.390 . S
C1179 C1180 1.387 . S
C1179 H1182 0.950 . S
C1180 C1179 1.387 . S
C1180 C1183 1.387 . S
H1181 C1177 0.950 . S
H1182 C1179 0.950 . S
C1183 C1174 1.390 . S
C1183 H1176 0.950 . S
C1183 C1180 1.387 . S
C1184 C1185 1.387 . S
C1184 H1188 0.950 . S
C1184 C1193 1.390 . S
C1185 C1184 1.387 . S
C1185 C1187 1.387 . S
H1186 C1193 0.950 . S
C1187 C1185 1.387 . S
C1187 C1189 1.390 . S
C1187 H1191 0.950 . S
H1188 C1184 0.950 . S
C1189 C1187 1.390 . S
C1189 C1190 1.387 . S
C1189 H1192 0.950 . S
C1190 C1189 1.387 . S
C1190 C1193 1.387 . S
H1191 C1187 0.950 . S
H1192 C1189 0.950 . S
C1193 C1184 1.390 . S
C1193 H1186 0.950 . S
C1193 C1190 1.387 . S
C1194 C1195 1.387 . S
C1194 H1198 0.950 . S
C1194 C1203 1.390 . S
C1195 C1194 1.387 . S
C1195 C1197 1.387 . S
H1196 C1203 0.950 . S
C1197 C1195 1.387 . S
C1197 C1199 1.390 . S
C1197 H1201 0.950 . S
H1198 C1194 0.950 . S
C1199 C1197 1.390 . S
C1199 C1200 1.387 . S
C1199 H1202 0.950 . S
C1200 C1199 1.387 . S
C1200 C1203 1.387 . S
H1201 C1197 0.950 . S
H1202 C1199 0.950 . S
C1203 C1194 1.390 . S
C1203 H1196 0.950 . S
C1203 C1200 1.387 . S
C1204 C1205 1.387 . S
C1204 H1208 0.950 . S
C1204 C1213 1.390 . S
C1205 C1204 1.387 . S
C1205 C1207 1.387 . S
H1206 C1213 0.950 . S
C1207 C1205 1.387 . S
C1207 C1209 1.390 . S
C1207 H1211 0.950 . S
H1208 C1204 0.950 . S
C1209 C1207 1.390 . S
C1209 C1210 1.387 . S
C1209 H1212 0.950 . S
C1210 C1209 1.387 . S
C1210 C1213 1.387 . S
H1211 C1207 0.950 . S
H1212 C1209 0.950 . S
C1213 C1204 1.390 . S
C1213 H1206 0.950 . S
C1213 C1210 1.387 . S
C1214 C1215 1.387 . S
C1214 H1218 0.950 . S
C1214 C1223 1.390 . S
C1215 C1214 1.387 . S
C1215 C1217 1.387 . S
H1216 C1223 0.950 . S
C1217 C1215 1.387 . S
C1217 C1219 1.390 . S
C1217 H1221 0.950 . S
H1218 C1214 0.950 . S
C1219 C1217 1.390 . S
C1219 C1220 1.387 . S
C1219 H1222 0.950 . S
C1220 C1219 1.387 . S
C1220 C1223 1.387 . S
H1221 C1217 0.950 . S
H1222 C1219 0.950 . S
C1223 C1214 1.390 . S
C1223 H1216 0.950 . S
C1223 C1220 1.387 . S
C1224 C1225 1.387 . S
C1224 H1228 0.950 . S
C1224 C1233 1.390 . S
C1225 C1224 1.387 . S
C1225 C1227 1.387 . S
H1226 C1233 0.950 . S
C1227 C1225 1.387 . S
C1227 C1229 1.390 . S
C1227 H1231 0.950 . S
H1228 C1224 0.950 . S
C1229 C1227 1.390 . S
C1229 C1230 1.387 . S
C1229 H1232 0.950 . S
C1230 C1229 1.387 . S
C1230 C1233 1.387 . S
H1231 C1227 0.950 . S
H1232 C1229 0.950 . S
C1233 C1224 1.390 . S
C1233 H1226 0.950 . S
C1233 C1230 1.387 . S
C1234 C1235 1.387 . S
C1234 H1238 0.950 . S
C1234 C1243 1.390 . S
C1235 C1234 1.387 . S
C1235 C1237 1.387 . S
H1236 C1243 0.950 . S
C1237 C1235 1.387 . S
C1237 C1239 1.390 . S
C1237 H1241 0.950 . S
H1238 C1234 0.950 . S
C1239 C1237 1.390 . S
C1239 C1240 1.387 . S
C1239 H1242 0.950 . S
C1240 C1239 1.387 . S
C1240 C1243 1.387 . S
H1241 C1237 0.950 . S
H1242 C1239 0.950 . S
C1243 C1234 1.390 . S
C1243 H1236 0.950 . S
C1243 C1240 1.387 . S
C1244 C1245 1.387 . S
C1244 H1248 0.950 . S
C1244 C1253 1.390 . S
C1245 C1244 1.387 . S
C1245 C1247 1.387 . S
H1246 C1253 0.950 . S
C1247 C1245 1.387 . S
C1247 C1249 1.390 . S
C1247 H1251 0.950 . S
H1248 C1244 0.950 . S
C1249 C1247 1.390 . S
C1249 C1250 1.387 . S
C1249 H1252 0.950 . S
C1250 C1249 1.387 . S
C1250 C1253 1.387 . S
H1251 C1247 0.950 . S
H1252 C1249 0.950 . S
C1253 C1244 1.390 . S
C1253 H1246 0.950 . S
C1253 C1250 1.387 . S
C1254 C1255 1.387 . S
C1254 H1258 0.950 . S
C1254 C1263 1.390 . S
C1255 C1254 1.387 . S
C1255 C1257 1.387 . S
H1256 C1263 0.950 . S
C1257 C1255 1.387 . S
C1257 C1259 1.390 . S
C1257 H1261 0.950 . S
H1258 C1254 0.950 . S
C1259 C1257 1.390 . S
C1259 C1260 1.387 . S
C1259 H1262 0.950 . S
C1260 C1259 1.387 . S
C1260 C1263 1.387 . S
H1261 C1257 0.950 . S
H1262 C1259 0.950 . S
C1263 C1254 1.390 . S
C1263 H1256 0.950 . S
C1263 C1260 1.387 . S
C1264 C1265 1.387 . S
C1264 H1268 0.950 . S
C1264 C1273 1.390 . S
C1265 C1264 1.387 . S
C1265 C1267 1.387 . S
H1266 C1273 0.950 . S
C1267 C1265 1.387 . S
C1267 C1269 1.390 . S
C1267 H1271 0.950 . S
H1268 C1264 0.950 . S
C1269 C1267 1.390 . S
C1269 C1270 1.387 . S
C1269 H1272 0.950 . S
C1270 C1269 1.387 . S
C1270 C1273 1.387 . S
H1271 C1267 0.950 . S
H1272 C1269 0.950 . S
C1273 C1264 1.390 . S
C1273 H1266 0.950 . S
C1273 C1270 1.387 . S
C1274 C1275 1.387 . S
C1274 H1278 0.950 . S
C1274 C1283 1.390 . S
C1275 C1274 1.387 . S
C1275 C1277 1.387 . S
H1276 C1283 0.950 . S
C1277 C1275 1.387 . S
C1277 C1279 1.390 . S
C1277 H1281 0.950 . S
H1278 C1274 0.950 . S
C1279 C1277 1.390 . S
C1279 C1280 1.387 . S
C1279 H1282 0.950 . S
C1280 C1279 1.387 . S
C1280 C1283 1.387 . S
H1281 C1277 0.950 . S
H1282 C1279 0.950 . S
C1283 C1274 1.390 . S
C1283 H1276 0.950 . S
C1283 C1280 1.387 . S
C1284 C1285 1.387 . S
C1284 H1288 0.950 . S
C1284 C1293 1.390 . S
C1285 C1284 1.387 . S
C1285 C1287 1.387 . S
H1286 C1293 0.950 . S
C1287 C1285 1.387 . S
C1287 C1289 1.390 . S
C1287 H1291 0.950 . S
H1288 C1284 0.950 . S
C1289 C1287 1.390 . S
C1289 C1290 1.387 . S
C1289 H1292 0.950 . S
C1290 C1289 1.387 . S
C1290 C1293 1.387 . S
H1291 C1287 0.950 . S
H1292 C1289 0.950 . S
C1293 C1284 1.390 . S
C1293 H1286 0.950 . S
C1293 C1290 1.387 . S
C1294 C1295 1.387 . S
C1294 H1298 0.950 . S
C1294 C1303 1.390 . S
C1295 C1294 1.387 . S
C1295 C1297 1.387 . S
H1296 C1303 0.950 . S
C1297 C1295 1.387 . S
C1297 C1299 1.390 . S
C1297 H1301 0.950 . S
H1298 C1294 0.950 . S
C1299 C1297 1.390 . S
C1299 C1300 1.387 . S
C1299 H1302 0.950 . S
C1300 C1299 1.387 . S
C1300 C1303 1.387 . S
H1301 C1297 0.950 . S
H1302 C1299 0.950 . S
C1303 C1294 1.390 . S
C1303 H1296 0.950 . S
C1303 C1300 1.387 . S
C1304 C1305 1.387 . S
C1304 H1308 0.950 . S
C1304 C1313 1.390 . S
C1305 C1304 1.387 . S
C1305 C1307 1.387 . S
H1306 C1313 0.950 . S
C1307 C1305 1.387 . S
C1307 C1309 1.390 . S
C1307 H1311 0.950 . S
H1308 C1304 0.950 . S
C1309 C1307 1.390 . S
C1309 C1310 1.387 . S
C1309 H1312 0.950 . S
C1310 C1309 1.387 . S
C1310 C1313 1.387 . S
H1311 C1307 0.950 . S
H1312 C1309 0.950 . S
C1313 C1304 1.390 . S
C1313 H1306 0.950 . S
C1313 C1310 1.387 . S
C1314 C1315 1.387 . S
C1314 H1318 0.950 . S
C1314 C1323 1.390 . S
C1315 C1314 1.387 . S
C1315 C1317 1.387 . S
H1316 C1323 0.950 . S
C1317 C1315 1.387 . S
C1317 C1319 1.390 . S
C1317 H1321 0.950 . S
H1318 C1314 0.950 . S
C1319 C1317 1.390 . S
C1319 C1320 1.387 . S
C1319 H1322 0.950 . S
C1320 C1319 1.387 . S
C1320 C1323 1.387 . S
H1321 C1317 0.950 . S
H1322 C1319 0.950 . S
C1323 C1314 1.390 . S
C1323 H1316 0.950 . S
C1323 C1320 1.387 . S
C1324 C1325 1.387 . S
C1324 H1328 0.950 . S
C1324 C1333 1.390 . S
C1325 C1324 1.387 . S
C1325 C1327 1.387 . S
H1326 C1333 0.950 . S
C1327 C1325 1.387 . S
C1327 C1329 1.390 . S
C1327 H1331 0.950 . S
H1328 C1324 0.950 . S
C1329 C1327 1.390 . S
C1329 C1330 1.387 . S
C1329 H1332 0.950 . S
C1330 C1329 1.387 . S
C1330 C1333 1.387 . S
H1331 C1327 0.950 . S
H1332 C1329 0.950 . S
C1333 C1324 1.390 . S
C1333 H1326 0.950 . S
C1333 C1330 1.387 . S
C1334 C1335 1.387 . S
C1334 H1338 0.950 . S
C1334 C1343 1.390 . S
C1335 C1334 1.387 . S
C1335 C1337 1.387 . S
H1336 C1343 0.950 . S
C1337 C1335 1.387 . S
C1337 C1339 1.390 . S
C1337 H1341 0.950 . S
H1338 C1334 0.950 . S
C1339 C1337 1.390 . S
C1339 C1340 1.387 . S
C1339 H1342 0.950 . S
C1340 C1339 1.387 . S
C1340 C1343 1.387 . S
H1341 C1337 0.950 . S
H1342 C1339 0.950 . S
C1343 C1334 1.390 . S
C1343 H1336 0.950 . S
C1343 C1340 1.387 . S
C1344 C1345 1.387 . S
C1344 H1348 0.950 . S
C1344 C1353 1.390 . S
C1345 C1344 1.387 . S
C1345 C1347 1.387 . S
H1346 C1353 0.950 . S
C1347 C1345 1.387 . S
C1347 C1349 1.390 . S
C1347 H1351 0.950 . S
H1348 C1344 0.950 . S
C1349 C1347 1.390 . S
C1349 C1350 1.387 . S
C1349 H1352 0.950 . S
C1350 C1349 1.387 . S
C1350 C1353 1.387 . S
H1351 C1347 0.950 . S
H1352 C1349 0.950 . S
C1353 C1344 1.390 . S
C1353 H1346 0.950 . S
C1353 C1350 1.387 . S
C1354 C1355 1.387 . S
C1354 H1358 0.950 . S
C1354 C1363 1.390 . S
C1355 C1354 1.387 . S
C1355 C1357 1.387 . S
H1356 C1363 0.950 . S
C1357 C1355 1.387 . S
C1357 C1359 1.390 . S
C1357 H1361 0.950 . S
H1358 C1354 0.950 . S
C1359 C1357 1.390 . S
C1359 C1360 1.387 . S
C1359 H1362 0.950 . S
C1360 C1359 1.387 . S
C1360 C1363 1.387 . S
H1361 C1357 0.950 . S
H1362 C1359 0.950 . S
C1363 C1354 1.390 . S
C1363 H1356 0.950 . S
C1363 C1360 1.387 . S
C1364 C1365 1.387 . S
C1364 H1368 0.950 . S
C1364 C1373 1.390 . S
C1365 C1364 1.387 . S
C1365 C1367 1.387 . S
H1366 C1373 0.950 . S
C1367 C1365 1.387 . S
C1367 C1369 1.390 . S
C1367 H1371 0.950 . S
H1368 C1364 0.950 . S
C1369 C1367 1.390 . S
C1369 C1370 1.387 . S
C1369 H1372 0.950 . S
C1370 C1369 1.387 . S
C1370 C1373 1.387 . S
H1371 C1367 0.950 . S
H1372 C1369 0.950 . S
C1373 C1364 1.390 . S
C1373 H1366 0.950 . S
C1373 C1370 1.387 . S
C1374 C1375 1.387 . S
C1374 H1378 0.950 . S
C1374 C1383 1.390 . S
C1375 C1374 1.387 . S
C1375 C1377 1.387 . S
H1376 C1383 0.950 . S
C1377 C1375 1.387 . S
C1377 C1379 1.390 . S
C1377 H1381 0.950 . S
H1378 C1374 0.950 . S
C1379 C1377 1.390 . S
C1379 C1380 1.387 . S
C1379 H1382 0.950 . S
C1380 C1379 1.387 . S
C1380 C1383 1.387 . S
H1381 C1377 0.950 . S
H1382 C1379 0.950 . S
C1383 C1374 1.390 . S
C1383 H1376 0.950 . S
C1383 C1380 1.387 . S
C1384 C1385 1.387 . S
C1384 H1388 0.950 . S
C1384 C1393 1.390 . S
C1385 C1384 1.387 . S
C1385 C1387 1.387 . S
H1386 C1393 0.950 . S
C1387 C1385 1.387 . S
C1387 C1389 1.390 . S
C1387 H1391 0.950 . S
H1388 C1384 0.950 . S
C1389 C1387 1.390 . S
C1389 C1390 1.387 . S
C1389 H1392 0.950 . S
C1390 C1389 1.387 . S
C1390 C1393 1.387 . S
H1391 C1387 0.950 . S
H1392 C1389 0.950 . S
C1393 C1384 1.390 . S
C1393 H1386 0.950 . S
C1393 C1390 1.387 . S
C1394 C1395 1.387 . S
C1394 H1398 0.950 . S
C1394 C1403 1.390 . S
C1395 C1394 1.387 . S
C1395 C1397 1.387 . S
H1396 C1403 0.950 . S
C1397 C1395 1.387 . S
C1397 C1399 1.390 . S
C1397 H1401 0.950 . S
H1398 C1394 0.950 . S
C1399 C1397 1.390 . S
C1399 C1400 1.387 . S
C1399 H1402 0.950 . S
C1400 C1399 1.387 . S
C1400 C1403 1.387 . S
H1401 C1397 0.950 . S
H1402 C1399 0.950 . S
C1403 C1394 1.390 . S
C1403 H1396 0.950 . S
C1403 C1400 1.387 . S
C1404 C1405 1.387 . S
C1404 H1408 0.950 . S
C1404 C1413 1.390 . S
C1405 C1404 1.387 . S
C1405 C1407 1.387 . S
H1406 C1413 0.950 . S
C1407 C1405 1.387 . S
C1407 C1409 1.390 . S
C1407 H1411 0.950 . S
H1408 C1404 0.950 . S
C1409 C1407 1.390 . S
C1409 C1410 1.387 . S
C1409 H1412 0.950 . S
C1410 C1409 1.387 . S
C1410 C1413 1.387 . S
H1411 C1407 0.950 . S
H1412 C1409 0.950 . S
C1413 C1404 1.390 . S
C1413 H1406 0.950 . S
C1413 C1410 1.387 . S
C1414 C1415 1.387 . S
C1414 H1418 0.950 . S
C1414 C1423 1.390 . S
C1415 C1414 1.387 . S
C1415 C1417 1.387 . S
H1416 C1423 0.950 . S
C1417 C1415 1.387 . S
C1417 C1419 1.390 . S
C1417 H1421 0.950 . S
H1418 C1414 0.950 . S
C1419 C1417 1.390 . S
C1419 C1420 1.387 . S
C1419 H1422 0.950 . S
C1420 C1419 1.387 . S
C1420 C1423 1.387 . S
H1421 C1417 0.950 . S
H1422 C1419 0.950 . S
C1423 C1414 1.390 . S
C1423 H1416 0.950 . S
C1423 C1420 1.387 . S
C1424 C1425 1.387 . S
C1424 H1428 0.950 . S
C1424 C1433 1.390 . S
C1425 C1424 1.387 . S
C1425 C1427 1.387 . S
H1426 C1433 0.950 . S
C1427 C1425 1.387 . S
C1427 C1429 1.390 . S
C1427 H1431 0.950 . S
H1428 C1424 0.950 . S
C1429 C1427 1.390 . S
C1429 C1430 1.387 . S
C1429 H1432 0.950 . S
C1430 C1429 1.387 . S
C1430 C1433 1.387 . S
H1431 C1427 0.950 . S
H1432 C1429 0.950 . S
C1433 C1424 1.390 . S
C1433 H1426 0.950 . S
C1433 C1430 1.387 . S
C1434 C1435 1.387 . S
C1434 H1438 0.950 . S
C1434 C1443 1.390 . S
C1435 C1434 1.387 . S
C1435 C1437 1.387 . S
H1436 C1443 0.950 . S
C1437 C1435 1.387 . S
C1437 C1439 1.390 . S
C1437 H1441 0.950 . S
H1438 C1434 0.950 . S
C1439 C1437 1.390 . S
C1439 C1440 1.387 . S
C1439 H1442 0.950 . S
C1440 C1439 1.387 . S
C1440 C1443 1.387 . S
H1441 C1437 0.950 . S
H1442 C1439 0.950 . S
C1443 C1434 1.390 . S
C1443 H1436 0.950 . S
C1443 C1440 1.387 . S
C1444 C1445 1.387 . S
C1444 H1448 0.950 . S
C1444 C1453 1.390 . S
C1445 C1444 1.387 . S
C1445 C1447 1.387 . S
H1446 C1453 0.950 . S
C1447 C1445 1.387 . S
C1447 C1449 1.390 . S
C1447 H1451 0.950 . S
H1448 C1444 0.950 . S
C1449 C1447 1.390 . S
C1449 C1450 1.387 . S
C1449 H1452 0.950 . S
C1450 C1449 1.387 . S
C1450 C1453 1.387 . S
H1451 C1447 0.950 . S
H1452 C1449 0.950 . S
C1453 C1444 1.390 . S
C1453 H1446 0.950 . S
C1453 C1450 1.387 . S
C1454 C1455 1.387 . S
C1454 H1458 0.950 . S
C1454 C1463 1.390 . S
C1455 C1454 1.387 . S
C1455 C1457 1.387 . S
H1456 C1463 0.950 . S
C1457 C1455 1.387 . S
C1457 C1459 1.390 . S
C1457 H1461 0.950 . S
H1458 C1454 0.950 . S
C1459 C1457 1.390 . S
C1459 C1460 1.387 . S
C1459 H1462 0.950 . S
C1460 C1459 1.387 . S
C1460 C1463 1.387 . S
H1461 C1457 0.950 . S
H1462 C1459 0.950 . S
C1463 C1454 1.390 . S
C1463 H1456 0.950 . S
C1463 C1460 1.387 . S
C1464 C1465 1.387 . S
C1464 H1468 0.950 . S
C1464 C1473 1.390 . S
C1465 C1464 1.387 . S
C1465 C1467 1.387 . S
H1466 C1473 0.950 . S
C1467 C1465 1.387 . S
C1467 C1469 1.390 . S
C1467 H1471 0.950 . S
H1468 C1464 0.950 . S
C1469 C1467 1.390 . S
C1469 C1470 1.387 . S
C1469 H1472 0.950 . S
C1470 C1469 1.387 . S
C1470 C1473 1.387 . S
H1471 C1467 0.950 . S
H1472 C1469 0.950 . S
C1473 C1464 1.390 . S
C1473 H1466 0.950 . S
C1473 C1470 1.387 . S
C1474 C1475 1.387 . S
C1474 H1478 0.950 . S
C1474 C1483 1.390 . S
C1475 C1474 1.387 . S
C1475 C1477 1.387 . S
H1476 C1483 0.950 . S
C1477 C1475 1.387 . S
C1477 C1479 1.390 . S
C1477 H1481 0.950 . S
H1478 C1474 0.950 . S
C1479 C1477 1.390 . S
C1479 C1480 1.387 . S
C1479 H1482 0.950 . S
C1480 C1479 1.387 . S
C1480 C1483 1.387 . S
H1481 C1477 0.950 . S
H1482 C1479 0.950 . S
C1483 C1474 1.390 . S
C1483 H1476 0.950 . S
C1483 C1480 1.387 . S
C1484 C1485 1.387 . S
C1484 H1488 0.950 . S
C1484 C1493 1.390 . S
C1485 C1484 1.387 . S
C1485 C1487 1.387 . S
H1486 C1493 0.950 . S
C1487 C1485 1.387 . S
C1487 C1489 1.390 . S
C1487 H1491 0.950 . S
H1488 C1484 0.950 . S
C1489 C1487 1.390 . S
C1489 C1490 1.387 . S
C1489 H1492 0.950 . S
C1490 C1489 1.387 . S
C1490 C1493 1.387 . S
H1491 C1487 0.950 . S
H1492 C1489 0.950 . S
C1493 C1484 1.390 . S
C1493 H1486 0.950 . S
C1493 C1490 1.387 . S
C1494 C1495 1.387 . S
C1494 H1498 0.950 . S
C1494 C1503 1.390 . S
C1495 C1494 1.387 . S
C1495 C1497 1.387 . S
H1496 C1503 0.950 . S
C1497 C1495 1.387 . S
C1497 C1499 1.390 . S
C1497 H1501 0.950 . S
H1498 C1494 0.950 . S
C1499 C1497 1.390 . S
C1499 C1500 1.387 . S
C1499 H1502 0.950 . S
C1500 C1499 1.387 . S
C1500 C1503 1.387 . S
H1501 C1497 0.950 . S
H1502 C1499 0.950 . S
C1503 C1494 1.390 . S
C1503 H1496 0.950 . S
C1503 C1500 1.387 . S
C1504 C1505 1.387 . S
C1504 H1508 0.950 . S
C1504 C1513 1.390 . S
C1505 C1504 1.387 . S
C1505 C1507 1.387 . S
H1506 C1513 0.950 . S
C1507 C1505 1.387 . S
C1507 C1509 1.390 . S
C1507 H1511 0.950 . S
H1508 C1504 0.950 . S
C1509 C1507 1.390 . S
C1509 C1510 1.387 . S
C1509 H1512 0.950 . S
C1510 C1509 1.387 . S
C1510 C1513 1.387 . S
H1511 C1507 0.950 . S
H1512 C1509 0.950 . S
C1513 C1504 1.390 . S
C1513 H1506 0.950 . S
C1513 C1510 1.387 . S
C1514 C1515 1.387 . S
C1514 H1518 0.950 . S
C1514 C1523 1.390 . S
C1515 C1514 1.387 . S
C1515 C1517 1.387 . S
H1516 C1523 0.950 . S
C1517 C1515 1.387 . S
C1517 C1519 1.390 . S
C1517 H1521 0.950 . S
H1518 C1514 0.950 . S
C1519 C1517 1.390 . S
C1519 C1520 1.387 . S
C1519 H1522 0.950 . S
C1520 C1519 1.387 . S
C1520 C1523 1.387 . S
H1521 C1517 0.950 . S
H1522 C1519 0.950 . S
C1523 C1514 1.390 . S
C1523 H1516 0.950 . S
C1523 C1520 1.387 . S
C1524 C1525 1.387 . S
C1524 H1528 0.950 . S
C1524 C1533 1.390 . S
C1525 C1524 1.387 . S
C1525 C1527 1.387 . S
H1526 C1533 0.950 . S
C1527 C1525 1.387 . S
C1527 C1529 1.390 . S
C1527 H1531 0.950 . S
H1528 C1524 0.950 . S
C1529 C1527 1.390 . S
C1529 C1530 1.387 . S
C1529 H1532 0.950 . S
C1530 C1529 1.387 . S
C1530 C1533 1.387 . S
H1531 C1527 0.950 . S
H1532 C1529 0.950 . S
C1533 C1524 1.390 . S
C1533 H1526 0.950 . S
C1533 C1530 1.387 . S
C1534 C1535 1.387 . S
C1534 H1538 0.950 . S
C1534 C1543 1.390 . S
C1535 C1534 1.387 . S
C1535 C1537 1.387 . S
H1536 C1543 0.950 . S
C1537 C1535 1.387 . S
C1537 C1539 1.390 . S
C1537 H1541 0.950 . S
H1538 C1534 0.950 . S
C1539 C1537 1.390 . S
C1539 C1540 1.387 . S
C1539 H1542 0.950 . S
C1540 C1539 1.387 . S
C1540 C1543 1.387 . S
H1541 C1537 0.950 . S
H1542 C1539 0.950 . S
C1543 C1534 1.390 . S
C1543 H1536 0.950 . S
C1543 C1540 1.387 . S
C1544 C1545 1.387 . S
C1544 H1548 0.950 . S
C1544 C1553 1.390 . S
C1545 C1544 1.387 . S
C1545 C1547 1.387 . S
H1546 C1553 0.950 . S
C1547 C1545 1.387 . S
C1547 C1549 1.390 . S
C1547 H1551 0.950 . S
H1548 C1544 0.950 . S
C1549 C1547 1.390 . S
C1549 C1550 1.387 . S
C1549 H1552 0.950 . S
C1550 C1549 1.387 . S
C1550 C1553 1.387 . S
H1551 C1547 0.950 . S
H1552 C1549 0.950 . S
C1553 C1544 1.390 . S
C1553 H1546 0.950 . S
C1553 C1550 1.387 . S
C1554 C1555 1.387 . S
C1554 H1558 0.950 . S
C1554 C1563 1.390 . S
C1555 C1554 1.387 . S
C1555 C1557 1.387 . S
H1556 C1563 0.950 . S
C1557 C1555 1.387 . S
C1557 C1559 1.390 . S
C1557 H1561 0.950 . S
H1558 C1554 0.950 . S
C1559 C1557 1.390 . S
C1559 C1560 1.387 . S
C1559 H1562 0.950 . S
C1560 C1559 1.387 . S
C1560 C1563 1.387 . S
H1561 C1557 0.950 . S
H1562 C1559 0.950 . S
C1563 C1554 1.390 . S
C1563 H1556 0.950 . S
C1563 C1560 1.387 . S
C1564 C1565 1.387 . S
C1564 H1568 0.950 . S
C1564 C1573 1.390 . S
C1565 C1564 1.387 . S
C1565 C1567 1.387 . S
H1566 C1573 0.950 . S
C1567 C1565 1.387 . S
C1567 C1569 1.390 . S
C1567 H1571 0.950 . S
H1568 C1564 0.950 . S
C1569 C1567 1.390 . S
C1569 C1570 1.387 . S
C1569 H1572 0.950 . S
C1570 C1569 1.387 . S
C1570 C1573 1.387 . S
H1571 C1567 0.950 . S
H1572 C1569 0.950 . S
C1573 C1564 1.390 . S
C1573 H1566 0.950 . S
C1573 C1570 1.387 . S
C1574 C1575 1.387 . S
C1574 H1578 0.950 . S
C1574 C1583 1.390 . S
C1575 C1574 1.387 . S
C1575 C1577 1.387 . S
H1576 C1583 0.950 . S
C1577 C1575 1.387 . S
C1577 C1579 1.390 . S
C1577 H1581 0.950 . S
H1578 C1574 0.950 . S
C1579 C1577 1.390 . S
C1579 C1580 1.387 . S
C1579 H1582 0.950 . S
C1580 C1579 1.387 . S
C1580 C1583 1.387 . S
H1581 C1577 0.950 . S
H1582 C1579 0.950 . S
C1583 C1574 1.390 . S
C1583 H1576 0.950 . S
C1583 C1580 1.387 . S
C1584 C1585 1.387 . S
C1584 H1588 0.950 . S
C1584 C1593 1.390 . S
C1585 C1584 1.387 . S
C1585 C1587 1.387 . S
H1586 C1593 0.950 . S
C1587 C1585 1.387 . S
C1587 C1589 1.390 . S
C1587 H1591 0.950 . S
H1588 C1584 0.950 . S
C1589 C1587 1.390 . S
C1589 C1590 1.387 . S
C1589 H1592 0.950 . S
C1590 C1589 1.387 . S
C1590 C1593 1.387 . S
H1591 C1587 0.950 . S
H1592 C1589 0.950 . S
C1593 C1584 1.390 . S
C1593 H1586 0.950 . S
C1593 C1590 1.387 . S
C1594 C1595 1.387 . S
C1594 H1598 0.950 . S
C1594 C1603 1.390 . S
C1595 C1594 1.387 . S
C1595 C1597 1.387 . S
H1596 C1603 0.950 . S
C1597 C1595 1.387 . S
C1597 C1599 1.390 . S
C1597 H1601 0.950 . S
H1598 C1594 0.950 . S
C1599 C1597 1.390 . S
C1599 C1600 1.387 . S
C1599 H1602 0.950 . S
C1600 C1599 1.387 . S
C1600 C1603 1.387 . S
H1601 C1597 0.950 . S
H1602 C1599 0.950 . S
C1603 C1594 1.390 . S
C1603 H1596 0.950 . S
C1603 C1600 1.387 . S
C1604 C1605 1.387 . S
C1604 H1608 0.950 . S
C1604 C1613 1.390 . S
C1605 C1604 1.387 . S
C1605 C1607 1.387 . S
H1606 C1613 0.950 . S
C1607 C1605 1.387 . S
C1607 C1609 1.390 . S
C1607 H1611 0.950 . S
H1608 C1604 0.950 . S
C1609 C1607 1.390 . S
C1609 C1610 1.387 . S
C1609 H1612 0.950 . S
C1610 C1609 1.387 . S
C1610 C1613 1.387 . S
H1611 C1607 0.950 . S
H1612 C1609 0.950 . S
C1613 C1604 1.390 . S
C1613 H1606 0.950 . S
C1613 C1610 1.387 . S
C1614 C1615 1.387 . S
C1614 H1618 0.950 . S
C1614 C1623 1.390 . S
C1615 C1614 1.387 . S
C1615 C1617 1.387 . S
H1616 C1623 0.950 . S
C1617 C1615 1.387 . S
C1617 C1619 1.390 . S
C1617 H1621 0.950 . S
H1618 C1614 0.950 . S
C1619 C1617 1.390 . S
C1619 C1620 1.387 . S
C1619 H1622 0.950 . S
C1620 C1619 1.387 . S
C1620 C1623 1.387 . S
H1621 C1617 0.950 . S
H1622 C1619 0.950 . S
C1623 C1614 1.390 . S
C1623 H1616 0.950 . S
C1623 C1620 1.387 . S
C1624 C1625 1.387 . S
C1624 H1628 0.950 . S
C1624 C1633 1.390 . S
C1625 C1624 1.387 . S
C1625 C1627 1.387 . S
H1626 C1633 0.950 . S
C1627 C1625 1.387 . S
C1627 C1629 1.390 . S
C1627 H1631 0.950 . S
H1628 C1624 0.950 . S
C1629 C1627 1.390 . S
C1629 C1630 1.387 . S
C1629 H1632 0.950 . S
C1630 C1629 1.387 . S
C1630 C1633 1.387 . S
H1631 C1627 0.950 . S
H1632 C1629 0.950 . S
C1633 C1624 1.390 . S
C1633 H1626 0.950 . S
C1633 C1630 1.387 . S
C1634 C1635 1.387 . S
C1634 H1638 0.950 . S
C1634 C1643 1.390 . S
C1635 C1634 1.387 . S
C1635 C1637 1.387 . S
H1636 C1643 0.950 . S
C1637 C1635 1.387 . S
C1637 C1639 1.390 . S
C1637 H1641 0.950 . S
H1638 C1634 0.950 . S
C1639 C1637 1.390 . S
C1639 C1640 1.387 . S
C1639 H1642 0.950 . S
C1640 C1639 1.387 . S
C1640 C1643 1.387 . S
H1641 C1637 0.950 . S
H1642 C1639 0.950 . S
C1643 C1634 1.390 . S
C1643 H1636 0.950 . S
C1643 C1640 1.387 . S
C1644 C1645 1.387 . S
C1644 H1648 0.950 . S
C1644 C1653 1.390 . S
C1645 C1644 1.387 . S
C1645 C1647 1.387 . S
H1646 C1653 0.950 . S
C1647 C1645 1.387 . S
C1647 C1649 1.390 . S
C1647 H1651 0.950 . S
H1648 C1644 0.950 . S
C1649 C1647 1.390 . S
C1649 C1650 1.387 . S
C1649 H1652 0.950 . S
C1650 C1649 1.387 . S
C1650 C1653 1.387 . S
H1651 C1647 0.950 . S
H1652 C1649 0.950 . S
C1653 C1644 1.390 . S
C1653 H1646 0.950 . S
C1653 C1650 1.387 . S
C1654 C1655 1.387 . S
C1654 H1658 0.950 . S
C1654 C1663 1.390 . S
C1655 C1654 1.387 . S
C1655 C1657 1.387 . S
H1656 C1663 0.950 . S
C1657 C1655 1.387 . S
C1657 C1659 1.390 . S
C1657 H1661 0.950 . S
H1658 C1654 0.950 . S
C1659 C1657 1.390 . S
C1659 C1660 1.387 . S
C1659 H1662 0.950 . S
C1660 C1659 1.387 . S
C1660 C1663 1.387 . S
H1661 C1657 0.950 . S
H1662 C1659 0.950 . S
C1663 C1654 1.390 . S
C1663 H1656 0.950 . S
C1663 C1660 1.387 . S
C1664 C1665 1.387 . S
C1664 H1668 0.950 . S
C1664 C1673 1.390 . S
C1665 C1664 1.387 . S
C1665 C1667 1.387 . S
H1666 C1673 0.950 . S
C1667 C1665 1.387 . S
C1667 C1669 1.390 . S
C1667 H1671 0.950 . S
H1668 C1664 0.950 . S
C1669 C1667 1.390 . S
C1669 C1670 1.387 . S
C1669 H1672 0.950 . S
C1670 C1669 1.387 . S
C1670 C1673 1.387 . S
H1671 C1667 0.950 . S
H1672 C1669 0.950 . S
C1673 C1664 1.390 . S
C1673 H1666 0.950 . S
C1673 C1670 1.387 . S
C1674 C1675 1.387 . S
C1674 H1678 0.950 . S
C1674 C1683 1.390 . S
C1675 C1674 1.387 . S
C1675 C1677 1.387 . S
H1676 C1683 0.950 . S
C1677 C1675 1.387 . S
C1677 C1679 1.390 . S
C1677 H1681 0.950 . S
H1678 C1674 0.950 . S
C1679 C1677 1.390 . S
C1679 C1680 1.387 . S
C1679 H1682 0.950 . S
C1680 C1679 1.387 . S
C1680 C1683 1.387 . S
H1681 C1677 0.950 . S
H1682 C1679 0.950 . S
C1683 C1674 1.390 . S
C1683 H1676 0.950 . S
C1683 C1680 1.387 . S
C1684 C1685 1.387 . S
C1684 H1688 0.950 . S
C1684 C1693 1.390 . S
C1685 C1684 1.387 . S
C1685 C1687 1.387 . S
H1686 C1693 0.950 . S
C1687 C1685 1.387 . S
C1687 C1689 1.390 . S
C1687 H1691 0.950 . S
H1688 C1684 0.950 . S
C1689 C1687 1.390 . S
C1689 C1690 1.387 . S
C1689 H1692 0.950 . S
C1690 C1689 1.387 . S
C1690 C1693 1.387 . S
H1691 C1687 0.950 . S
H1692 C1689 0.950 . S
C1693 C1684 1.390 . S
C1693 H1686 0.950 . S
C1693 C1690 1.387 . S
C1694 C1695 1.387 . S
C1694 H1698 0.950 . S
C1694 C1703 1.390 . S
C1695 C1694 1.387 . S
C1695 C1697 1.387 . S
H1696 C1703 0.950 . S
C1697 C1695 1.387 . S
C1697 C1699 1.390 . S
C1697 H1701 0.950 . S
H1698 C1694 0.950 . S
C1699 C1697 1.390 . S
C1699 C1700 1.387 . S
C1699 H1702 0.950 . S
C1700 C1699 1.387 . S
C1700 C1703 1.387 . S
H1701 C1697 0.950 . S
H1702 C1699 0.950 . S
C1703 C1694 1.390 . S
C1703 H1696 0.950 . S
C1703 C1700 1.387 . S
C1704 C1705 1.387 . S
C1704 H1708 0.950 . S
C1704 C1713 1.390 . S
C1705 C1704 1.387 . S
C1705 C1707 1.387 . S
H1706 C1713 0.950 . S
C1707 C1705 1.387 . S
C1707 C1709 1.390 . S
C1707 H1711 0.950 . S
H1708 C1704 0.950 . S
C1709 C1707 1.390 . S
C1709 C1710 1.387 . S
C1709 H1712 0.950 . S
C1710 C1709 1.387 . S
C1710 C1713 1.387 . S
H1711 C1707 0.950 . S
H1712 C1709 0.950 . S
C1713 C1704 1.390 . S
C1713 H1706 0.950 . S
C1713 C1710 1.387 . S
C1714 C1715 1.387 . S
C1714 H1718 0.950 . S
C1714 C1723 1.390 . S
C1715 C1714 1.387 . S
C1715 C1717 1.387 . S
H1716 C1723 0.950 . S
C1717 C1715 1.387 . S
C1717 C1719 1.390 . S
C1717 H1721 0.950 . S
H1718 C1714 0.950 . S
C1719 C1717 1.390 . S
C1719 C1720 1.387 . S
C1719 H1722 0.950 . S
C1720 C1719 1.387 . S
C1720 C1723 1.387 . S
H1721 C1717 0.950 . S
H1722 C1719 0.950 . S
C1723 C1714 1.390 . S
C1723 H1716 0.950 . S
C1723 C1720 1.387 . S
C1724 C1725 1.387 . S
C1724 H1728 0.950 . S
C1724 C1733 1.390 . S
C1725 C1724 1.387 . S
C1725 C1727 1.387 . S
H1726 C1733 0.950 . S
C1727 C1725 1.387 . S
C1727 C1729 1.390 . S
C1727 H1731 0.950 . S
H1728 C1724 0.950 . S
C1729 C1727 1.390 . S
C1729 C1730 1.387 . S
C1729 H1732 0.950 . S
C1730 C1729 1.387 . S
C1730 C1733 1.387 . S
H1731 C1727 0.950 . S
H1732 C1729 0.950 . S
C1733 C1724 1.390 . S
C1733 H1726 0.950 . S
C1733 C1730 1.387 . S
C1734 C1735 1.387 . S
C1734 H1738 0.950 . S
C1734 C1743 1.390 . S
C1735 C1734 1.387 . S
C1735 C1737 1.387 . S
H1736 C1743 0.950 . S
C1737 C1735 1.387 . S
C1737 C1739 1.390 . S
C1737 H1741 0.950 . S
H1738 C1734 0.950 . S
C1739 C1737 1.390 . S
C1739 C1740 1.387 . S
C1739 H1742 0.950 . S
C1740 C1739 1.387 . S
C1740 C1743 1.387 . S
H1741 C1737 0.950 . S
H1742 C1739 0.950 . S
C1743 C1734 1.390 . S
C1743 H1736 0.950 . S
C1743 C1740 1.387 . S
C1744 C1745 1.387 . S
C1744 H1748 0.950 . S
C1744 C1753 1.390 . S
C1745 C1744 1.387 . S
C1745 C1747 1.387 . S
H1746 C1753 0.950 . S
C1747 C1745 1.387 . S
C1747 C1749 1.390 . S
C1747 H1751 0.950 . S
H1748 C1744 0.950 . S
C1749 C1747 1.390 . S
C1749 C1750 1.387 . S
C1749 H1752 0.950 . S
C1750 C1749 1.387 . S
C1750 C1753 1.387 . S
H1751 C1747 0.950 . S
H1752 C1749 0.950 . S
C1753 C1744 1.390 . S
C1753 H1746 0.950 . S
C1753 C1750 1.387 . S
C1754 C1755 1.387 . S
C1754 H1758 0.950 . S
C1754 C1763 1.390 . S
C1755 C1754 1.387 . S
C1755 C1757 1.387 . S
H1756 C1763 0.950 . S
C1757 C1755 1.387 . S
C1757 C1759 1.390 . S
C1757 H1761 0.950 . S
H1758 C1754 0.950 . S
C1759 C1757 1.390 . S
C1759 C1760 1.387 . S
C1759 H1762 0.950 . S
C1760 C1759 1.387 . S
C1760 C1763 1.387 . S
H1761 C1757 0.950 . S
H1762 C1759 0.950 . S
C1763 C1754 1.390 . S
C1763 H1756 0.950 . S
C1763 C1760 1.387 . S
C1764 C1765 1.387 . S
C1764 H1768 0.950 . S
C1764 C1773 1.390 . S
C1765 C1764 1.387 . S
C1765 C1767 1.387 . S
H1766 C1773 0.950 . S
C1767 C1765 1.387 . S
C1767 C1769 1.390 . S
C1767 H1771 0.950 . S
H1768 C1764 0.950 . S
C1769 C1767 1.390 . S
C1769 C1770 1.387 . S
C1769 H1772 0.950 . S
C1770 C1769 1.387 . S
C1770 C1773 1.387 . S
H1771 C1767 0.950 . S
H1772 C1769 0.950 . S
C1773 C1764 1.390 . S
C1773 H1766 0.950 . S
C1773 C1770 1.387 . S
C1774 C1775 1.387 . S
C1774 H1778 0.950 . S
C1774 C1783 1.390 . S
C1775 C1774 1.387 . S
C1775 C1777 1.387 . S
H1776 C1783 0.950 . S
C1777 C1775 1.387 . S
C1777 C1779 1.390 . S
C1777 H1781 0.950 . S
H1778 C1774 0.950 . S
C1779 C1777 1.390 . S
C1779 C1780 1.387 . S
C1779 H1782 0.950 . S
C1780 C1779 1.387 . S
C1780 C1783 1.387 . S
H1781 C1777 0.950 . S
H1782 C1779 0.950 . S
C1783 C1774 1.390 . S
C1783 H1776 0.950 . S
C1783 C1780 1.387 . S
C1784 C1785 1.387 . S
C1784 H1788 0.950 . S
C1784 C1793 1.390 . S
C1785 C1784 1.387 . S
C1785 C1787 1.387 . S
H1786 C1793 0.950 . S
C1787 C1785 1.387 . S
C1787 C1789 1.390 . S
C1787 H1791 0.950 . S
H1788 C1784 0.950 . S
C1789 C1787 1.390 . S
C1789 C1790 1.387 . S
C1789 H1792 0.950 . S
C1790 C1789 1.387 . S
C1790 C1793 1.387 . S
H1791 C1787 0.950 . S
H1792 C1789 0.950 . S
C1793 C1784 1.390 . S
C1793 H1786 0.950 . S
C1793 C1790 1.387 . S
C1794 C1795 1.387 . S
C1794 H1798 0.950 . S
C1794 C1803 1.390 . S
C1795 C1794 1.387 . S
C1795 C1797 1.387 . S
H1796 C1803 0.950 . S
C1797 C1795 1.387 . S
C1797 C1799 1.390 . S
C1797 H1801 0.950 . S
H1798 C1794 0.950 . S
C1799 C1797 1.390 . S
C1799 C1800 1.387 . S
C1799 H1802 0.950 . S
C1800 C1799 1.387 . S
C1800 C1803 1.387 . S
H1801 C1797 0.950 . S
H1802 C1799 0.950 . S
C1803 C1794 1.390 . S
C1803 H1796 0.950 . S
C1803 C1800 1.387 . S
C1804 C1805 1.387 . S
C1804 H1808 0.950 . S
C1804 C1813 1.390 . S
C1805 C1804 1.387 . S
C1805 C1807 1.387 . S
H1806 C1813 0.950 . S
C1807 C1805 1.387 . S
C1807 C1809 1.390 . S
C1807 H1811 0.950 . S
H1808 C1804 0.950 . S
C1809 C1807 1.390 . S
C1809 C1810 1.387 . S
C1809 H1812 0.950 . S
C1810 C1809 1.387 . S
C1810 C1813 1.387 . S
H1811 C1807 0.950 . S
H1812 C1809 0.950 . S
C1813 C1804 1.390 . S
C1813 H1806 0.950 . S
C1813 C1810 1.387 . S
C1814 C1815 1.387 . S
C1814 H1818 0.950 . S
C1814 C1823 1.390 . S
C1815 C1814 1.387 . S
C1815 C1817 1.387 . S
H1816 C1823 0.950 . S
C1817 C1815 1.387 . S
C1817 C1819 1.390 . S
C1817 H1821 0.950 . S
H1818 C1814 0.950 . S
C1819 C1817 1.390 . S
C1819 C1820 1.387 . S
C1819 H1822 0.950 . S
C1820 C1819 1.387 . S
C1820 C1823 1.387 . S
H1821 C1817 0.950 . S
H1822 C1819 0.950 . S
C1823 C1814 1.390 . S
C1823 H1816 0.950 . S
C1823 C1820 1.387 . S
C1824 C1825 1.387 . S
C1824 H1828 0.950 . S
C1824 C1833 1.390 . S
C1825 C1824 1.387 . S
C1825 C1827 1.387 . S
H1826 C1833 0.950 . S
C1827 C1825 1.387 . S
C1827 C1829 1.390 . S
C1827 H1831 0.950 . S
H1828 C1824 0.950 . S
C1829 C1827 1.390 . S
C1829 C1830 1.387 . S
C1829 H1832 0.950 . S
C1830 C1829 1.387 . S
C1830 C1833 1.387 . S
H1831 C1827 0.950 . S
H1832 C1829 0.950 . S
C1833 C1824 1.390 . S
C1833 H1826 0.950 . S
C1833 C1830 1.387 . S
C1834 C1835 1.387 . S
C1834 H1838 0.950 . S
C1834 C1843 1.390 . S
C1835 C1834 1.387 . S
C1835 C1837 1.387 . S
H1836 C1843 0.950 . S
C1837 C1835 1.387 . S
C1837 C1839 1.390 . S
C1837 H1841 0.950 . S
H1838 C1834 0.950 . S
C1839 C1837 1.390 . S
C1839 C1840 1.387 . S
C1839 H1842 0.950 . S
C1840 C1839 1.387 . S
C1840 C1843 1.387 . S
H1841 C1837 0.950 . S
H1842 C1839 0.950 . S
C1843 C1834 1.390 . S
C1843 H1836 0.950 . S
C1843 C1840 1.387 . S
C1844 C1845 1.387 . S
C1844 H1848 0.950 . S
C1844 C1853 1.390 . S
C1845 C1844 1.387 . S
C1845 C1847 1.387 . S
H1846 C1853 0.950 . S
C1847 C1845 1.387 . S
C1847 C1849 1.390 . S
C1847 H1851 0.950 . S
H1848 C1844 0.950 . S
C1849 C1847 1.390 . S
C1849 C1850 1.387 . S
C1849 H1852 0.950 . S
C1850 C1849 1.387 . S
C1850 C1853 1.387 . S
H1851 C1847 0.950 . S
H1852 C1849 0.950 . S
C1853 C1844 1.390 . S
C1853 H1846 0.950 . S
C1853 C1850 1.387 . S
C1854 C1855 1.387 . S
C1854 H1858 0.950 . S
C1854 C1863 1.390 . S
C1855 C1854 1.387 . S
C1855 C1857 1.387 . S
H1856 C1863 0.950 . S
C1857 C1855 1.387 . S
C1857 C1859 1.390 . S
C1857 H1861 0.950 . S
H1858 C1854 0.950 . S
C1859 C1857 1.390 . S
C1859 C1860 1.387 . S
C1859 H1862 0.950 . S
C1860 C1859 1.387 . S
C1860 C1863 1.387 . S
H1861 C1857 0.950 . S
H1862 C1859 0.950 . S
C1863 C1854 1.390 . S
C1863 H1856 0.950 . S
C1863 C1860 1.387 . S
C1864 C1865 1.387 . S
C1864 H1868 0.950 . S
C1864 C1873 1.390 . S
C1865 C1864 1.387 . S
C1865 C1867 1.387 . S
H1866 C1873 0.950 . S
C1867 C1865 1.387 . S
C1867 C1869 1.390 . S
C1867 H1871 0.950 . S
H1868 C1864 0.950 . S
C1869 C1867 1.390 . S
C1869 C1870 1.387 . S
C1869 H1872 0.950 . S
C1870 C1869 1.387 . S
C1870 C1873 1.387 . S
H1871 C1867 0.950 . S
H1872 C1869 0.950 . S
C1873 C1864 1.390 . S
C1873 H1866 0.950 . S
C1873 C1870 1.387 . S
C1874 C1875 1.387 . S
C1874 H1878 0.950 . S
C1874 C1883 1.390 . S
C1875 C1874 1.387 . S
C1875 C1877 1.387 . S
H1876 C1883 0.950 . S
C1877 C1875 1.387 . S
C1877 C1879 1.390 . S
C1877 H1881 0.950 . S
H1878 C1874 0.950 . S
C1879 C1877 1.390 . S
C1879 C1880 1.387 . S
C1879 H1882 0.950 . S
C1880 C1879 1.387 . S
C1880 C1883 1.387 . S
H1881 C1877 0.950 . S
H1882 C1879 0.950 . S
C1883 C1874 1.390 . S
C1883 H1876 0.950 . S
C1883 C1880 1.387 . S
C1884 C1885 1.387 . S
C1884 H1888 0.950 . S
C1884 C1893 1.390 . S
C1885 C1884 1.387 . S
C1885 C1887 1.387 . S
H1886 C1893 0.950 . S
C1887 C1885 1.387 . S
C1887 C1889 1.390 . S
C1887 H1891 0.950 . S
H1888 C1884 0.950 . S
C1889 C1887 1.390 . S
C1889 C1890 1.387 . S
C1889 H1892 0.950 . S
C1890 C1889 1.387 . S
C1890 C1893 1.387 . S
H1891 C1887 0.950 . S
H1892 C1889 0.950 . S
C1893 C1884 1.390 . S
C1893 H1886 0.950 . S
C1893 C1890 1.387 . S
C1894 C1895 1.387 . S
C1894 H1898 0.950 . S
C1894 C1903 1.390 . S
C1895 C1894 1.387 . S
C1895 C1897 1.387 . S
H1896 C1903 0.950 . S
C1897 C1895 1.387 . S
C1897 C1899 1.390 . S
C1897 H1901 0.950 . S
H1898 C1894 0.950 . S
C1899 C1897 1.390 . S
C1899 C1900 1.387 . S
C1899 H1902 0.950 . S
C1900 C1899 1.387 . S
C1900 C1903 1.387 . S
H1901 C1897 0.950 . S
H1902 C1899 0.950 . S
C1903 C1894 1.390 . S
C1903 H1896 0.950 . S
C1903 C1900 1.387 . S
C1904 C1905 1.387 . S
C1904 H1908 0.950 . S
C1904 C1913 1.390 . S
C1905 C1904 1.387 . S
C1905 C1907 1.387 . S
H1906 C1913 0.950 . S
C1907 C1905 1.387 . S
C1907 C1909 1.390 . S
C1907 H1911 0.950 . S
H1908 C1904 0.950 . S
C1909 C1907 1.390 . S
C1909 C1910 1.387 . S
C1909 H1912 0.950 . S
C1910 C1909 1.387 . S
C1910 C1913 1.387 . S
H1911 C1907 0.950 . S
H1912 C1909 0.950 . S
C1913 C1904 1.390 . S
C1913 H1906 0.950 . S
C1913 C1910 1.387 . S
C1914 C1915 1.387 . S
C1914 H1918 0.950 . S
C1914 C1923 1.390 . S
C1915 C1914 1.387 . S
C1915 C1917 1.387 . S
H1916 C1923 0.950 . S
C1917 C1915 1.387 . S
C1917 C1919 1.390 . S
C1917 H1921 0.950 . S
H1918 C1914 0.950 . S
C1919 C1917 1.390 . S
C1919 C1920 1.387 . S
C1919 H1922 0.950 . S
C1920 C1919 1.387 . S
C1920 C1923 1.387 . S
H1921 C1917 0.950 . S
H1922 C1919 0.950 . S
C1923 C1914 1.390 . S
C1923 H1916 0.950 . S
C1923 C1920 1.387 . S
C1924 C1925 1.387 . S
C1924 H1928 0.950 . S
C1924 C1933 1.390 . S
C1925 C1924 1.387 . S
C1925 C1927 1.387 . S
H1926 C1933 0.950 . S
C1927 C1925 1.387 . S
C1927 C1929 1.390 . S
C1927 H1931 0.950 . S
H1928 C1924 0.950 . S
C1929 C1927 1.390 . S
C1929 C1930 1.387 . S
C1929 H1932 0.950 . S
C1930 C1929 1.387 . S
C1930 C1933 1.387 . S
H1931 C1927 0.950 . S
H1932 C1929 0.950 . S
C1933 C1924 1.390 . S
C1933 H1926 0.950 . S
C1933 C1930 1.387 . S
C1934 C1935 1.387 . S
C1934 H1938 0.950 . S
C1934 C1943 1.390 . S
C1935 C1934 1.387 . S
C1935 C1937 1.387 . S
H1936 C1943 0.950 . S
C1937 C1935 1.387 . S
C1937 C1939 1.390 . S
C1937 H1941 0.950 . S
H1938 C1934 0.950 . S
C1939 C1937 1.390 . S
C1939 C1940 1.387 . S
C1939 H1942 0.950 . S
C1940 C1939 1.387 . S
C1940 C1943 1.387 . S
H1941 C1937 0.950 . S
H1942 C1939 0.950 . S
C1943 C1934 1.390 . S
C1943 H1936 0.950 . S
C1943 C1940 1.387 . S
C1944 C1945 1.387 . S
C1944 H1948 0.950 . S
C1944 C1953 1.390 . S
C1945 C1944 1.387 . S
C1945 C1947 1.387 . S
H1946 C1953 0.950 . S
C1947 C1945 1.387 . S
C1947 C1949 1.390 . S
C1947 H1951 0.950 . S
H1948 C1944 0.950 . S
C1949 C1947 1.390 . S
C1949 C1950 1.387 . S
C1949 H1952 0.950 . S
C1950 C1949 1.387 . S
C1950 C1953 1.387 . S
H1951 C1947 0.950 . S
H1952 C1949 0.950 . S
C1953 C1944 1.390 . S
C1953 H1946 0.950 . S
C1953 C1950 1.387 . S
C1954 C1955 1.387 . S
C1954 H1958 0.950 . S
C1954 C1963 1.390 . S
C1955 C1954 1.387 . S
C1955 C1957 1.387 . S
H1956 C1963 0.950 . S
C1957 C1955 1.387 . S
C1957 C1959 1.390 . S
C1957 H1961 0.950 . S
H1958 C1954 0.950 . S
C1959 C1957 1.390 . S
C1959 C1960 1.387 . S
C1959 H1962 0.950 . S
C1960 C1959 1.387 . S
C1960 C1963 1.387 . S
H1961 C1957 0.950 . S
H1962 C1959 0.950 . S
C1963 C1954 1.390 . S
C1963 H1956 0.950 . S
C1963 C1960 1.387 . S
C1964 C1965 1.387 . S
C1964 H1968 0.950 . S
C1964 C1973 1.390 . S
C1965 C1964 1.387 . S
C1965 C1967 1.387 . S
H1966 C1973 0.950 . S
C1967 C1965 1.387 . S
C1967 C1969 1.390 . S
C1967 H1971 0.950 . S
H1968 C1964 0.950 . S
C1969 C1967 1.390 . S
C1969 C1970 1.387 . S
C1969 H1972 0.950 . S
C1970 C1969 1.387 . S
C1970 C1973 1.387 . S
H1971 C1967 0.950 . S
H1972 C1969 0.950 . S
C1973 C1964 1.390 . S
C1973 H1966 0.950 . S
C1973 C1970 1.387 . S
C1974 C1975 1.387 . S
C1974 H1978 0.950 . S
C1974 C1983 1.390 . S
C1975 C1974 1.387 . S
C1975 C1977 1.387 . S
H1976 C1983 0.950 . S
C1977 C1975 1.387 . S
C1977 C1979 1.390 . S
C1977 H1981 0.950 . S
H1978 C1974 0.950 . S
C1979 C1977 1.390 . S
C1979 C1980 1.387 . S
C1979 H1982 0.950 . S
C1980 C1979 1.387 . S
C1980 C1983 1.387 . S
H1981 C1977 0.950 . S
H1982 C1979 0.950 . S
C1983 C1974 1.390 . S
C1983 H1976 0.950 . S
C1983 C1980 1.387 . S
C1984 C1985 1.387 . S
C1984 H1988 0.950 . S
C1984 C1993 1.390 . S
C1985 C1984 1.387 . S
C1985 C1987 1.387 . S
H1986 C1993 0.950 . S
C1987 C1985 1.387 . S
C1987 C1989 1.390 . S
C1987 H1991 0.950 . S
H1988 C1984 0.950 . S
C1989 C1987 1.390 . S
C1989 C1990 1.387 . S
C1989 H1992 0.950 . S
C1990 C1989 1.387 . S
C1990 C1993 1.387 . S
H1991 C1987 0.950 . S
H1992 C1989 0.950 . S
C1993 C1984 1.390 . S
C1993 H1986 0.950 . S
C1993 C1990 1.387 . S
C1994 C1995 1.387 . S
C1994 H1998 0.950 . S
C1994 C2003 1.390 . S
C1995 C1994 1.387 . S
C1995 C1997 1.387 . S
H1996 C2003 0.950 . S
C1997 C1995 1.387 . S
C1997 C1999 1.390 . S
C1997 H2001 0.950 . S
H1998 C1994 0.950 . S
C1999 C1997 1.390 . S
C1999 C2000 1.387 . S
C1999 H2002 0.950 . S
C2000 C1999 1.387 . S
C2000 C2003 1.387 . S
H2001 C1997 0.950 . S
H2002 C1999 0.950 . S
C2003 C1994 1.390 . S
C2003 H1996 0.950 . S
C2003 C2000 1.387 . S
C2004 C2005 1.387 . S
C2004 H2008 0.950 . S
C2004 C2013 1.390 . S
C2005 C2004 1.387 . S
C2005 C2007 1.387 . S
H2006 C2013 0.950 . S
C2007 C2005 1.387 . S
C2007 C2009 1.390 . S
C2007 H2011 0.950 . S
H2008 C2004 0.950 . S
C2009 C2007 1.390 . S
C2009 C2010 1.387 . S
C2009 H2012 0.950 . S
C2010 C2009 1.387 . S
C2010 C2013 1.387 . S
H2011 C2007 0.950 . S
H2012 C2009 0.950 . S
C2013 C2004 1.390 . S
C2013 H2006 0.950 . S
C2013 C2010 1.387 . S
C2014 C2015 1.387 . S
C2014 H2018 0.950 . S
C2014 C2023 1.390 . S
C2015 C2014 1.387 . S
C2015 C2017 1.387 . S
H2016 C2023 0.950 . S
C2017 C2015 1.387 . S
C2017 C2019 1.390 . S
C2017 H2021 0.950 . S
H2018 C2014 0.950 . S
C2019 C2017 1.390 . S
C2019 C2020 1.387 . S
C2019 H2022 0.950 . S
C2020 C2019 1.387 . S
C2020 C2023 1.387 . S
H2021 C2017 0.950 . S
H2022 C2019 0.950 . S
C2023 C2014 1.390 . S
C2023 H2016 0.950 . S
C2023 C2020 1.387 . S
C2024 C2025 1.387 . S
C2024 H2028 0.950 . S
C2024 C2033 1.390 . S
C2025 C2024 1.387 . S
C2025 C2027 1.387 . S
H2026 C2033 0.950 . S
C2027 C2025 1.387 . S
C2027 C2029 1.390 . S
C2027 H2031 0.950 . S
H2028 C2024 0.950 . S
C2029 C2027 1.390 . S
C2029 C2030 1.387 . S
C2029 H2032 0.950 . S
C2030 C2029 1.387 . S
C2030 C2033 1.387 . S
H2031 C2027 0.950 . S
H2032 C2029 0.950 . S
C2033 C2024 1.390 . S
C2033 H2026 0.950 . S
C2033 C2030 1.387 . S
C2034 C2035 1.387 . S
C2034 H2038 0.950 . S
C2034 C2043 1.390 . S
C2035 C2034 1.387 . S
C2035 C2037 1.387 . S
H2036 C2043 0.950 . S
C2037 C2035 1.387 . S
C2037 C2039 1.390 . S
C2037 H2041 0.950 . S
H2038 C2034 0.950 . S
C2039 C2037 1.390 . S
C2039 C2040 1.387 . S
C2039 H2042 0.950 . S
C2040 C2039 1.387 . S
C2040 C2043 1.387 . S
H2041 C2037 0.950 . S
H2042 C2039 0.950 . S
C2043 C2034 1.390 . S
C2043 H2036 0.950 . S
C2043 C2040 1.387 . S
C2044 C2045 1.387 . S
C2044 H2048 0.950 . S
C2044 C2053 1.390 . S
C2045 C2044 1.387 . S
C2045 C2047 1.387 . S
H2046 C2053 0.950 . S
C2047 C2045 1.387 . S
C2047 C2049 1.390 . S
C2047 H2051 0.950 . S
H2048 C2044 0.950 . S
C2049 C2047 1.390 . S
C2049 C2050 1.387 . S
C2049 H2052 0.950 . S
C2050 C2049 1.387 . S
C2050 C2053 1.387 . S
H2051 C2047 0.950 . S
H2052 C2049 0.950 . S
C2053 C2044 1.390 . S
C2053 H2046 0.950 . S
C2053 C2050 1.387 . S
C2054 C2055 1.387 . S
C2054 H2058 0.950 . S
C2054 C2063 1.390 . S
C2055 C2054 1.387 . S
C2055 C2057 1.387 . S
H2056 C2063 0.950 . S
C2057 C2055 1.387 . S
C2057 C2059 1.390 . S
C2057 H2061 0.950 . S
H2058 C2054 0.950 . S
C2059 C2057 1.390 . S
C2059 C2060 1.387 . S
C2059 H2062 0.950 . S
C2060 C2059 1.387 . S
C2060 C2063 1.387 . S
H2061 C2057 0.950 . S
H2062 C2059 0.950 . S
C2063 C2054 1.390 . S
C2063 H2056 0.950 . S
C2063 C2060 1.387 . S
C2064 C2065 1.387 . S
C2064 H2068 0.950 . S
C2064 C2073 1.390 . S
C2065 C2064 1.387 . S
C2065 C2067 1.387 . S
H2066 C2073 0.950 . S
C2067 C2065 1.387 . S
C2067 C2069 1.390 . S
C2067 H2071 0.950 . S
H2068 C2064 0.950 . S
C2069 C2067 1.390 . S
C2069 C2070 1.387 . S
C2069 H2072 0.950 . S
C2070 C2069 1.387 . S
C2070 C2073 1.387 . S
H2071 C2067 0.950 . S
H2072 C2069 0.950 . S
C2073 C2064 1.390 . S
C2073 H2066 0.950 . S
C2073 C2070 1.387 . S
C2074 C2075 1.387 . S
C2074 H2078 0.950 . S
C2074 C2083 1.390 . S
C2075 C2074 1.387 . S
C2075 C2077 1.387 . S
H2076 C2083 0.950 . S
C2077 C2075 1.387 . S
C2077 C2079 1.390 . S
C2077 H2081 0.950 . S
H2078 C2074 0.950 . S
C2079 C2077 1.390 . S
C2079 C2080 1.387 . S
C2079 H2082 0.950 . S
C2080 C2079 1.387 . S
C2080 C2083 1.387 . S
H2081 C2077 0.950 . S
H2082 C2079 0.950 . S
C2083 C2074 1.390 . S
C2083 H2076 0.950 . S
C2083 C2080 1.387 . S
C2084 C2085 1.387 . S
C2084 H2088 0.950 . S
C2084 C2093 1.390 . S
C2085 C2084 1.387 . S
C2085 C2087 1.387 . S
H2086 C2093 0.950 . S
C2087 C2085 1.387 . S
C2087 C2089 1.390 . S
C2087 H2091 0.950 . S
H2088 C2084 0.950 . S
C2089 C2087 1.390 . S
C2089 C2090 1.387 . S
C2089 H2092 0.950 . S
C2090 C2089 1.387 . S
C2090 C2093 1.387 . S
H2091 C2087 0.950 . S
H2092 C2089 0.950 . S
C2093 C2084 1.390 . S
C2093 H2086 0.950 . S
C2093 C2090 1.387 . S
C2094 C2095 1.387 . S
C2094 H2098 0.950 . S
C2094 C2103 1.390 . S
C2095 C2094 1.387 . S
C2095 C2097 1.387 . S
H2096 C2103 0.950 . S
C2097 C2095 1.387 . S
C2097 C2099 1.390 . S
C2097 H2101 0.950 . S
H2098 C2094 0.950 . S
C2099 C2097 1.390 . S
C2099 C2100 1.387 . S
C2099 H2102 0.950 . S
C2100 C2099 1.387 . S
C2100 C2103 1.387 . S
H2101 C2097 0.950 . S
H2102 C2099 0.950 . S
C2103 C2094 1.390 . S
C2103 H2096 0.950 . S
C2103 C2100 1.387 . S
C2104 C2105 1.387 . S
C2104 H2108 0.950 . S
C2104 C2113 1.390 . S
C2105 C2104 1.387 . S
C2105 C2107 1.387 . S
H2106 C2113 0.950 . S
C2107 C2105 1.387 . S
C2107 C2109 1.390 . S
C2107 H2111 0.950 . S
H2108 C2104 0.950 . S
C2109 C2107 1.390 . S
C2109 C2110 1.387 . S
C2109 H2112 0.950 . S
C2110 C2109 1.387 . S
C2110 C2113 1.387 . S
H2111 C2107 0.950 . S
H2112 C2109 0.950 . S
C2113 C2104 1.390 . S
C2113 H2106 0.950 . S
C2113 C2110 1.387 . S
C2114 C2115 1.387 . S
C2114 H2118 0.950 . S
C2114 C2123 1.390 . S
C2115 C2114 1.387 . S
C2115 C2117 1.387 . S
H2116 C2123 0.950 . S
C2117 C2115 1.387 . S
C2117 C2119 1.390 . S
C2117 H2121 0.950 . S
H2118 C2114 0.950 . S
C2119 C2117 1.390 . S
C2119 C2120 1.387 . S
C2119 H2122 0.950 . S
C2120 C2119 1.387 . S
C2120 C2123 1.387 . S
H2121 C2117 0.950 . S
H2122 C2119 0.950 . S
C2123 C2114 1.390 . S
C2123 H2116 0.950 . S
C2123 C2120 1.387 . S
C2124 C2125 1.387 . S
C2124 H2128 0.950 . S
C2124 C2133 1.390 . S
C2125 C2124 1.387 . S
C2125 C2127 1.387 . S
H2126 C2133 0.950 . S
C2127 C2125 1.387 . S
C2127 C2129 1.390 . S
C2127 H2131 0.950 . S
H2128 C2124 0.950 . S
C2129 C2127 1.390 . S
C2129 C2130 1.387 . S
C2129 H2132 0.950 . S
C2130 C2129 1.387 . S
C2130 C2133 1.387 . S
H2131 C2127 0.950 . S
H2132 C2129 0.950 . S
C2133 C2124 1.390 . S
C2133 H2126 0.950 . S
C2133 C2130 1.387 . S
C2134 C2135 1.387 . S
C2134 H2138 0.950 . S
C2134 C2143 1.390 . S
C2135 C2134 1.387 . S
C2135 C2137 1.387 . S
H2136 C2143 0.950 . S
C2137 C2135 1.387 . S
C2137 C2139 1.390 . S
C2137 H2141 0.950 . S
H2138 C2134 0.950 . S
C2139 C2137 1.390 . S
C2139 C2140 1.387 . S
C2139 H2142 0.950 . S
C2140 C2139 1.387 . S
C2140 C2143 1.387 . S
H2141 C2137 0.950 . S
H2142 C2139 0.950 . S
C2143 C2134 1.390 . S
C2143 H2136 0.950 . S
C2143 C2140 1.387 . S
C2144 C2145 1.387 . S
C2144 H2148 0.950 . S
C2144 C2153 1.390 . S
C2145 C2144 1.387 . S
C2145 C2147 1.387 . S
H2146 C2153 0.950 . S
C2147 C2145 1.387 . S
C2147 C2149 1.390 . S
C2147 H2151 0.950 . S
H2148 C2144 0.950 . S
C2149 C2147 1.390 . S
C2149 C2150 1.387 . S
C2149 H2152 0.950 . S
C2150 C2149 1.387 . S
C2150 C2153 1.387 . S
H2151 C2147 0.950 . S
H2152 C2149 0.950 . S
C2153 C2144 1.390 . S
C2153 H2146 0.950 . S
C2153 C2150 1.387 . S
C2154 C2155 1.387 . S
C2154 H2158 0.950 . S
C2154 C2163 1.390 . S
C2155 C2154 1.387 . S
C2155 C2157 1.387 . S
H2156 C2163 0.950 . S
C2157 C2155 1.387 . S
C2157 C2159 1.390 . S
C2157 H2161 0.950 . S
H2158 C2154 0.950 . S
C2159 C2157 1.390 . S
C2159 C2160 1.387 . S
C2159 H2162 0.950 . S
C2160 C2159 1.387 . S
C2160 C2163 1.387 . S
H2161 C2157 0.950 . S
H2162 C2159 0.950 . S
C2163 C2154 1.390 . S
C2163 H2156 0.950 . S
C2163 C2160 1.387 . S
C2164 C2165 1.387 . S
C2164 H2168 0.950 . S
C2164 C2173 1.390 . S
C2165 C2164 1.387 . S
C2165 C2167 1.387 . S
H2166 C2173 0.950 . S
C2167 C2165 1.387 . S
C2167 C2169 1.390 . S
C2167 H2171 0.950 . S
H2168 C2164 0.950 . S
C2169 C2167 1.390 . S
C2169 C2170 1.387 . S
C2169 H2172 0.950 . S
C2170 C2169 1.387 . S
C2170 C2173 1.387 . S
H2171 C2167 0.950 . S
H2172 C2169 0.950 . S
C2173 C2164 1.390 . S
C2173 H2166 0.950 . S
C2173 C2170 1.387 . S
C2174 C2175 1.387 . S
C2174 H2178 0.950 . S
C2174 C2183 1.390 . S
C2175 C2174 1.387 . S
C2175 C2177 1.387 . S
H2176 C2183 0.950 . S
C2177 C2175 1.387 . S
C2177 C2179 1.390 . S
C2177 H2181 0.950 . S
H2178 C2174 0.950 . S
C2179 C2177 1.390 . S
C2179 C2180 1.387 . S
C2179 H2182 0.950 . S
C2180 C2179 1.387 . S
C2180 C2183 1.387 . S
H2181 C2177 0.950 . S
H2182 C2179 0.950 . S
C2183 C2174 1.390 . S
C2183 H2176 0.950 . S
C2183 C2180 1.387 . S
C2184 C2185 1.387 . S
C2184 H2188 0.950 . S
C2184 C2193 1.390 . S
C2185 C2184 1.387 . S
C2185 C2187 1.387 . S
H2186 C2193 0.950 . S
C2187 C2185 1.387 . S
C2187 C2189 1.390 . S
C2187 H2191 0.950 . S
H2188 C2184 0.950 . S
C2189 C2187 1.390 . S
C2189 C2190 1.387 . S
C2189 H2192 0.950 . S
C2190 C2189 1.387 . S
C2190 C2193 1.387 . S
H2191 C2187 0.950 . S
H2192 C2189 0.950 . S
C2193 C2184 1.390 . S
C2193 H2186 0.950 . S
C2193 C2190 1.387 . S
C2194 C2195 1.387 . S
C2194 H2198 0.950 . S
C2194 C2203 1.390 . S
C2195 C2194 1.387 . S
C2195 C2197 1.387 . S
H2196 C2203 0.950 . S
C2197 C2195 1.387 . S
C2197 C2199 1.390 . S
C2197 H2201 0.950 . S
H2198 C2194 0.950 . S
C2199 C2197 1.390 . S
C2199 C2200 1.387 . S
C2199 H2202 0.950 . S
C2200 C2199 1.387 . S
C2200 C2203 1.387 . S
H2201 C2197 0.950 . S
H2202 C2199 0.950 . S
C2203 C2194 1.390 . S
C2203 H2196 0.950 . S
C2203 C2200 1.387 . S
C2204 C2205 1.387 . S
C2204 H2208 0.950 . S
C2204 C2213 1.390 . S
C2205 C2204 1.387 . S
C2205 C2207 1.387 . S
H2206 C2213 0.950 . S
C2207 C2205 1.387 . S
C2207 C2209 1.390 . S
C2207 H2211 0.950 . S
H2208 C2204 0.950 . S
C2209 C2207 1.390 . S
C2209 C2210 1.387 . S
C2209 H2212 0.950 . S
C2210 C2209 1.387 . S
C2210 C2213 1.387 . S
H2211 C2207 0.950 . S
H2212 C2209 0.950 . S
C2213 C2204 1.390 . S
C2213 H2206 0.950 . S
C2213 C2210 1.387 . S
C2214 C2215 1.387 . S
C2214 H2218 0.950 . S
C2214 C2223 1.390 . S
C2215 C2214 1.387 . S
C2215 C2217 1.387 . S
H2216 C2223 0.950 . S
C2217 C2215 1.387 . S
C2217 C2219 1.390 . S
C2217 H2221 0.950 . S
H2218 C2214 0.950 . S
C2219 C2217 1.390 . S
C2219 C2220 1.387 . S
C2219 H2222 0.950 . S
C2220 C2219 1.387 . S
C2220 C2223 1.387 . S
H2221 C2217 0.950 . S
H2222 C2219 0.950 . S
C2223 C2214 1.390 . S
C2223 H2216 0.950 . S
C2223 C2220 1.387 . S
C2224 C2225 1.387 . S
C2224 H2228 0.950 . S
C2224 C2233 1.390 . S
C2225 C2224 1.387 . S
C2225 C2227 1.387 . S
H2226 C2233 0.950 . S
C2227 C2225 1.387 . S
C2227 C2229 1.390 . S
C2227 H2231 0.950 . S
H2228 C2224 0.950 . S
C2229 C2227 1.390 . S
C2229 C2230 1.387 . S
C2229 H2232 0.950 . S
C2230 C2229 1.387 . S
C2230 C2233 1.387 . S
H2231 C2227 0.950 . S
H2232 C2229 0.950 . S
C2233 C2224 1.390 . S
C2233 H2226 0.950 . S
C2233 C2230 1.387 . S
C2234 C2235 1.387 . S
C2234 H2238 0.950 . S
C2234 C2243 1.390 . S
C2235 C2234 1.387 . S
C2235 C2237 1.387 . S
H2236 C2243 0.950 . S
C2237 C2235 1.387 . S
C2237 C2239 1.390 . S
C2237 H2241 0.950 . S
H2238 C2234 0.950 . S
C2239 C2237 1.390 . S
C2239 C2240 1.387 . S
C2239 H2242 0.950 . S
C2240 C2239 1.387 . S
C2240 C2243 1.387 . S
H2241 C2237 0.950 . S
H2242 C2239 0.950 . S
C2243 C2234 1.390 . S
C2243 H2236 0.950 . S
C2243 C2240 1.387 . S
C2244 C2245 1.387 . S
C2244 H2248 0.950 . S
C2244 C2253 1.390 . S
C2245 C2244 1.387 . S
C2245 C2247 1.387 . S
H2246 C2253 0.950 . S
C2247 C2245 1.387 . S
C2247 C2249 1.390 . S
C2247 H2251 0.950 . S
H2248 C2244 0.950 . S
C2249 C2247 1.390 . S
C2249 C2250 1.387 . S
C2249 H2252 0.950 . S
C2250 C2249 1.387 . S
C2250 C2253 1.387 . S
H2251 C2247 0.950 . S
H2252 C2249 0.950 . S
C2253 C2244 1.390 . S
C2253 H2246 0.950 . S
C2253 C2250 1.387 . S
C2254 C2255 1.387 . S
C2254 H2258 0.950 . S
C2254 C2263 1.390 . S
C2255 C2254 1.387 . S
C2255 C2257 1.387 . S
H2256 C2263 0.950 . S
C2257 C2255 1.387 . S
C2257 C2259 1.390 . S
C2257 H2261 0.950 . S
H2258 C2254 0.950 . S
C2259 C2257 1.390 . S
C2259 C2260 1.387 . S
C2259 H2262 0.950 . S
C2260 C2259 1.387 . S
C2260 C2263 1.387 . S
H2261 C2257 0.950 . S
H2262 C2259 0.950 . S
C2263 C2254 1.390 . S
C2263 H2256 0.950 . S
C2263 C2260 1.387 . S
C2264 C2265 1.387 . S
C2264 H2268 0.950 . S
C2264 C2273 1.390 . S
C2265 C2264 1.387 . S
C2265 C2267 1.387 . S
H2266 C2273 0.950 . S
C2267 C2265 1.387 . S
C2267 C2269 1.390 . S
C2267 H2271 0.950 . S
H2268 C2264 0.950 . S
C2269 C2267 1.390 . S
C2269 C2270 1.387 . S
C2269 H2272 0.950 . S
C2270 C2269 1.387 . S
C2270 C2273 1.387 . S
H2271 C2267 0.950 . S
H2272 C2269 0.950 . S
C2273 C2264 1.390 . S
C2273 H2266 0.950 . S
C2273 C2270 1.387 . S
C2274 C2275 1.387 . S
C2274 H2278 0.950 . S
C2274 C2283 1.390 . S
C2275 C2274 1.387 . S
C2275 C2277 1.387 . S
H2276 C2283 0.950 . S
C2277 C2275 1.387 . S
C2277 C2279 1.390 . S
C2277 H2281 0.950 . S
H2278 C2274 0.950 . S
C2279 C2277 1.390 . S
C2279 C2280 1.387 . S
C2279 H2282 0.950 . S
C2280 C2279 1.387 . S
C2280 C2283 1.387 . S
H2281 C2277 0.950 . S
H2282 C2279 0.950 . S
C2283 C2274 1.390 . S
C2283 H2276 0.950 . S
C2283 C2280 1.387 . S
C2284 C2285 1.387 . S
C2284 H2288 0.950 . S
C2284 C2293 1.390 . S
C2285 C2284 1.387 . S
C2285 C2287 1.387 . S
H2286 C2293 0.950 . S
C2287 C2285 1.387 . S
C2287 C2289 1.390 . S
C2287 H2291 0.950 . S
H2288 C2284 0.950 . S
C2289 C2287 1.390 . S
C2289 C2290 1.387 . S
C2289 H2292 0.950 . S
C2290 C2289 1.387 . S
C2290 C2293 1.387 . S
H2291 C2287 0.950 . S
H2292 C2289 0.950 . S
C2293 C2284 1.390 . S
C2293 H2286 0.950 . S
C2293 C2290 1.387 . S
C2294 C2295 1.387 . S
C2294 H2298 0.950 . S
C2294 C2303 1.390 . S
C2295 C2294 1.387 . S
C2295 C2297 1.387 . S
H2296 C2303 0.950 . S
C2297 C2295 1.387 . S
C2297 C2299 1.390 . S
C2297 H2301 0.950 . S
H2298 C2294 0.950 . S
C2299 C2297 1.390 . S
C2299 C2300 1.387 . S
C2299 H2302 0.950 . S
C2300 C2299 1.387 . S
C2300 C2303 1.387 . S
H2301 C2297 0.950 . S
H2302 C2299 0.950 . S
C2303 C2294 1.390 . S
C2303 H2296 0.950 . S
C2303 C2300 1.387 . S
C2304 C2305 1.387 . S
C2304 H2308 0.950 . S
C2304 C2313 1.390 . S
C2305 C2304 1.387 . S
C2305 C2307 1.387 . S
H2306 C2313 0.950 . S
C2307 C2305 1.387 . S
C2307 C2309 1.390 . S
C2307 H2311 0.950 . S
H2308 C2304 0.950 . S
C2309 C2307 1.390 . S
C2309 C2310 1.387 . S
C2309 H2312 0.950 . S
C2310 C2309 1.387 . S
C2310 C2313 1.387 . S
H2311 C2307 0.950 . S
H2312 C2309 0.950 . S
C2313 C2304 1.390 . S
C2313 H2306 0.950 . S
C2313 C2310 1.387 . S
C2314 C2315 1.387 . S
C2314 H2318 0.950 . S
C2314 C2323 1.390 . S
C2315 C2314 1.387 . S
C2315 C2317 1.387 . S
H2316 C2323 0.950 . S
C2317 C2315 1.387 . S
C2317 C2319 1.390 . S
C2317 H2321 0.950 . S
H2318 C2314 0.950 . S
C2319 C2317 1.390 . S
C2319 C2320 1.387 . S
C2319 H2322 0.950 . S
C2320 C2319 1.387 . S
C2320 C2323 1.387 . S
H2321 C2317 0.950 . S
H2322 C2319 0.950 . S
C2323 C2314 1.390 . S
C2323 H2316 0.950 . S
C2323 C2320 1.387 . S
C2324 C2325 1.387 . S
C2324 H2328 0.950 . S
C2324 C2333 1.390 . S
C2325 C2324 1.387 . S
C2325 C2327 1.387 . S
H2326 C2333 0.950 . S
C2327 C2325 1.387 . S
C2327 C2329 1.390 . S
C2327 H2331 0.950 1_556 S
H2328 C2324 0.950 . S
C2329 C2327 1.390 . S
C2329 C2330 1.387 . S
C2329 H2332 0.950 . S
C2330 C2329 1.387 . S
C2330 C2333 1.387 . S
H2331 C2327 0.950 1_554 S
H2332 C2329 0.950 . S
C2333 C2324 1.390 . S
C2333 H2326 0.950 . S
C2333 C2330 1.387 . S
C2334 C2335 1.387 . S
C2334 H2338 0.950 . S
C2334 C2343 1.390 . S
C2335 C2334 1.387 . S
C2335 C2337 1.387 . S
H2336 C2343 0.950 . S
C2337 C2335 1.387 . S
C2337 C2339 1.390 . S
C2337 H2341 0.950 . S
H2338 C2334 0.950 . S
C2339 C2337 1.390 . S
C2339 C2340 1.387 . S
C2339 H2342 0.950 . S
C2340 C2339 1.387 . S
C2340 C2343 1.387 . S
H2341 C2337 0.950 . S
H2342 C2339 0.950 . S
C2343 C2334 1.390 . S
C2343 H2336 0.950 . S
C2343 C2340 1.387 . S
C2344 C2345 1.387 . S
C2344 H2348 0.950 . S
C2344 C2353 1.390 . S
C2345 C2344 1.387 . S
C2345 C2347 1.387 . S
H2346 C2353 0.950 . S
C2347 C2345 1.387 . S
C2347 C2349 1.390 . S
C2347 H2351 0.950 . S
H2348 C2344 0.950 . S
C2349 C2347 1.390 . S
C2349 C2350 1.387 . S
C2349 H2352 0.950 . S
C2350 C2349 1.387 . S
C2350 C2353 1.387 . S
H2351 C2347 0.950 . S
H2352 C2349 0.950 . S
C2353 C2344 1.390 . S
C2353 H2346 0.950 . S
C2353 C2350 1.387 . S
C2354 C2355 1.387 . S
C2354 H2358 0.950 . S
C2354 C2363 1.390 . S
C2355 C2354 1.387 . S
C2355 C2357 1.387 . S
H2356 C2363 0.950 . S
C2357 C2355 1.387 . S
C2357 C2359 1.390 . S
C2357 H2361 0.950 . S
H2358 C2354 0.950 . S
C2359 C2357 1.390 . S
C2359 C2360 1.387 . S
C2359 H2362 0.950 . S
C2360 C2359 1.387 . S
C2360 C2363 1.387 . S
H2361 C2357 0.950 . S
H2362 C2359 0.950 . S
C2363 C2354 1.390 . S
C2363 H2356 0.950 . S
C2363 C2360 1.387 . S
C2364 C2365 1.387 . S
C2364 H2368 0.950 . S
C2364 C2373 1.390 . S
C2365 C2364 1.387 . S
C2365 C2367 1.387 . S
H2366 C2373 0.950 . S
C2367 C2365 1.387 . S
C2367 C2369 1.390 . S
C2367 H2371 0.950 . S
H2368 C2364 0.950 . S
C2369 C2367 1.390 . S
C2369 C2370 1.387 . S
C2369 H2372 0.950 . S
C2370 C2369 1.387 . S
C2370 C2373 1.387 . S
H2371 C2367 0.950 . S
H2372 C2369 0.950 . S
C2373 C2364 1.390 . S
C2373 H2366 0.950 . S
C2373 C2370 1.387 . S
C2374 C2375 1.387 . S
C2374 H2378 0.950 . S
C2374 C2383 1.390 . S
C2375 C2374 1.387 . S
C2375 C2377 1.387 . S
H2376 C2383 0.950 . S
C2377 C2375 1.387 . S
C2377 C2379 1.390 . S
C2377 H2381 0.950 . S
H2378 C2374 0.950 . S
C2379 C2377 1.390 . S
C2379 C2380 1.387 . S
C2379 H2382 0.950 . S
C2380 C2379 1.387 . S
C2380 C2383 1.387 . S
H2381 C2377 0.950 . S
H2382 C2379 0.950 . S
C2383 C2374 1.390 . S
C2383 H2376 0.950 . S
C2383 C2380 1.387 . S
C2384 C2385 1.387 . S
C2384 H2388 0.950 . S
C2384 C2393 1.390 . S
C2385 C2384 1.387 . S
C2385 C2387 1.387 . S
H2386 C2393 0.950 . S
C2387 C2385 1.387 . S
C2387 C2389 1.390 . S
C2387 H2391 0.950 . S
H2388 C2384 0.950 . S
C2389 C2387 1.390 . S
C2389 C2390 1.387 . S
C2389 H2392 0.950 . S
C2390 C2389 1.387 . S
C2390 C2393 1.387 . S
H2391 C2387 0.950 . S
H2392 C2389 0.950 . S
C2393 C2384 1.390 . S
C2393 H2386 0.950 . S
C2393 C2390 1.387 . S
C2394 C2395 1.387 . S
C2394 H2398 0.950 . S
C2394 C2403 1.390 . S
C2395 C2394 1.387 . S
C2395 C2397 1.387 . S
H2396 C2403 0.950 . S
C2397 C2395 1.387 . S
C2397 C2399 1.390 . S
C2397 H2401 0.950 . S
H2398 C2394 0.950 . S
C2399 C2397 1.390 . S
C2399 C2400 1.387 . S
C2399 H2402 0.950 . S
C2400 C2399 1.387 . S
C2400 C2403 1.387 . S
H2401 C2397 0.950 . S
H2402 C2399 0.950 . S
C2403 C2394 1.390 . S
C2403 H2396 0.950 . S
C2403 C2400 1.387 . S
C2404 C2405 1.387 . S
C2404 H2408 0.950 . S
C2404 C2413 1.390 . S
C2405 C2404 1.387 . S
C2405 C2407 1.387 . S
H2406 C2413 0.950 . S
C2407 C2405 1.387 . S
C2407 C2409 1.390 . S
C2407 H2411 0.950 . S
H2408 C2404 0.950 . S
C2409 C2407 1.390 . S
C2409 C2410 1.387 . S
C2409 H2412 0.950 . S
C2410 C2409 1.387 . S
C2410 C2413 1.387 . S
H2411 C2407 0.950 . S
H2412 C2409 0.950 . S
C2413 C2404 1.390 . S
C2413 H2406 0.950 . S
C2413 C2410 1.387 . S
C2414 C2415 1.387 . S
C2414 H2418 0.950 . S
C2414 C2423 1.390 . S
C2415 C2414 1.387 . S
C2415 C2417 1.387 . S
H2416 C2423 0.950 . S
C2417 C2415 1.387 . S
C2417 C2419 1.390 . S
C2417 H2421 0.950 . S
H2418 C2414 0.950 . S
C2419 C2417 1.390 . S
C2419 C2420 1.387 . S
C2419 H2422 0.950 . S
C2420 C2419 1.387 . S
C2420 C2423 1.387 . S
H2421 C2417 0.950 . S
H2422 C2419 0.950 . S
C2423 C2414 1.390 . S
C2423 H2416 0.950 . S
C2423 C2420 1.387 . S
C2424 C2425 1.387 . S
C2424 H2428 0.950 . S
C2424 C2433 1.390 . S
C2425 C2424 1.387 . S
C2425 C2427 1.387 . S
H2426 C2433 0.950 . S
C2427 C2425 1.387 . S
C2427 C2429 1.390 . S
C2427 H2431 0.950 . S
H2428 C2424 0.950 . S
C2429 C2427 1.390 . S
C2429 C2430 1.387 . S
C2429 H2432 0.950 . S
C2430 C2429 1.387 . S
C2430 C2433 1.387 . S
H2431 C2427 0.950 . S
H2432 C2429 0.950 . S
C2433 C2424 1.390 . S
C2433 H2426 0.950 . S
C2433 C2430 1.387 . S
C2434 C2435 1.387 . S
C2434 H2438 0.950 . S
C2434 C2443 1.390 . S
C2435 C2434 1.387 . S
C2435 C2437 1.387 . S
H2436 C2443 0.950 . S
C2437 C2435 1.387 . S
C2437 C2439 1.390 . S
C2437 H2441 0.950 . S
H2438 C2434 0.950 . S
C2439 C2437 1.390 . S
C2439 C2440 1.387 . S
C2439 H2442 0.950 . S
C2440 C2439 1.387 . S
C2440 C2443 1.387 . S
H2441 C2437 0.950 . S
H2442 C2439 0.950 . S
C2443 C2434 1.390 . S
C2443 H2436 0.950 . S
C2443 C2440 1.387 . S
C2444 C2445 1.387 . S
C2444 H2448 0.950 . S
C2444 C2453 1.390 . S
C2445 C2444 1.387 . S
C2445 C2447 1.387 . S
H2446 C2453 0.950 . S
C2447 C2445 1.387 . S
C2447 C2449 1.390 . S
C2447 H2451 0.950 . S
H2448 C2444 0.950 . S
C2449 C2447 1.390 . S
C2449 C2450 1.387 . S
C2449 H2452 0.950 . S
C2450 C2449 1.387 . S
C2450 C2453 1.387 . S
H2451 C2447 0.950 . S
H2452 C2449 0.950 . S
C2453 C2444 1.390 . S
C2453 H2446 0.950 . S
C2453 C2450 1.387 . S
C2454 C2455 1.387 . S
C2454 H2458 0.950 . S
C2454 C2463 1.390 . S
C2455 C2454 1.387 . S
C2455 C2457 1.387 . S
H2456 C2463 0.950 . S
C2457 C2455 1.387 . S
C2457 C2459 1.390 . S
C2457 H2461 0.950 . S
H2458 C2454 0.950 . S
C2459 C2457 1.390 . S
C2459 C2460 1.387 . S
C2459 H2462 0.950 . S
C2460 C2459 1.387 . S
C2460 C2463 1.387 . S
H2461 C2457 0.950 . S
H2462 C2459 0.950 . S
C2463 C2454 1.390 . S
C2463 H2456 0.950 . S
C2463 C2460 1.387 . S
C2464 C2465 1.387 . S
C2464 H2468 0.950 . S
C2464 C2473 1.390 . S
C2465 C2464 1.387 . S
C2465 C2467 1.387 . S
H2466 C2473 0.950 . S
C2467 C2465 1.387 . S
C2467 C2469 1.390 . S
C2467 H2471 0.950 . S
H2468 C2464 0.950 . S
C2469 C2467 1.390 . S
C2469 C2470 1.387 . S
C2469 H2472 0.950 . S
C2470 C2469 1.387 . S
C2470 C2473 1.387 . S
H2471 C2467 0.950 . S
H2472 C2469 0.950 . S
C2473 C2464 1.390 . S
C2473 H2466 0.950 . S
C2473 C2470 1.387 . S
C2474 C2475 1.387 . S
C2474 H2478 0.950 . S
C2474 C2483 1.390 . S
C2475 C2474 1.387 . S
C2475 C2477 1.387 . S
H2476 C2483 0.950 . S
C2477 C2475 1.387 . S
C2477 C2479 1.390 . S
C2477 H2481 0.950 . S
H2478 C2474 0.950 . S
C2479 C2477 1.390 . S
C2479 C2480 1.387 . S
C2479 H2482 0.950 . S
C2480 C2479 1.387 . S
C2480 C2483 1.387 . S
H2481 C2477 0.950 . S
H2482 C2479 0.950 . S
C2483 C2474 1.390 . S
C2483 H2476 0.950 . S
C2483 C2480 1.387 . S
C2484 C2485 1.387 . S
C2484 H2488 0.950 . S
C2484 C2493 1.390 . S
C2485 C2484 1.387 . S
C2485 C2487 1.387 . S
H2486 C2493 0.950 . S
C2487 C2485 1.387 . S
C2487 C2489 1.390 . S
C2487 H2491 0.950 . S
H2488 C2484 0.950 . S
C2489 C2487 1.390 . S
C2489 C2490 1.387 . S
C2489 H2492 0.950 . S
C2490 C2489 1.387 . S
C2490 C2493 1.387 . S
H2491 C2487 0.950 . S
H2492 C2489 0.950 . S
C2493 C2484 1.390 . S
C2493 H2486 0.950 . S
C2493 C2490 1.387 . S
C2494 C2495 1.387 . S
C2494 H2498 0.950 . S
C2494 C2503 1.390 . S
C2495 C2494 1.387 . S
C2495 C2497 1.387 . S
H2496 C2503 0.950 . S
C2497 C2495 1.387 . S
C2497 C2499 1.390 . S
C2497 H2501 0.950 . S
H2498 C2494 0.950 . S
C2499 C2497 1.390 . S
C2499 C2500 1.387 . S
C2499 H2502 0.950 . S
C2500 C2499 1.387 . S
C2500 C2503 1.387 . S
H2501 C2497 0.950 . S
H2502 C2499 0.950 . S
C2503 C2494 1.390 . S
C2503 H2496 0.950 . S
C2503 C2500 1.387 . S
C2504 C2505 1.387 . S
C2504 H2508 0.950 . S
C2504 C2513 1.390 . S
C2505 C2504 1.387 . S
C2505 C2507 1.387 . S
H2506 C2513 0.950 . S
C2507 C2505 1.387 . S
C2507 C2509 1.390 . S
C2507 H2511 0.950 . S
H2508 C2504 0.950 . S
C2509 C2507 1.390 . S
C2509 C2510 1.387 . S
C2509 H2512 0.950 . S
C2510 C2509 1.387 . S
C2510 C2513 1.387 . S
H2511 C2507 0.950 . S
H2512 C2509 0.950 . S
C2513 C2504 1.390 . S
C2513 H2506 0.950 . S
C2513 C2510 1.387 . S
C2514 C2515 1.387 . S
C2514 H2518 0.950 . S
C2514 C2523 1.390 . S
C2515 C2514 1.387 . S
C2515 C2517 1.387 . S
H2516 C2523 0.950 . S
C2517 C2515 1.387 . S
C2517 C2519 1.390 . S
C2517 H2521 0.950 . S
H2518 C2514 0.950 . S
C2519 C2517 1.390 . S
C2519 C2520 1.387 . S
C2519 H2522 0.950 . S
C2520 C2519 1.387 . S
C2520 C2523 1.387 . S
H2521 C2517 0.950 . S
H2522 C2519 0.950 . S
C2523 C2514 1.390 . S
C2523 H2516 0.950 . S
C2523 C2520 1.387 . S
C2524 C2525 1.387 . S
C2524 H2528 0.950 . S
C2524 C2533 1.390 . S
C2525 C2524 1.387 . S
C2525 C2527 1.387 . S
H2526 C2533 0.950 . S
C2527 C2525 1.387 . S
C2527 C2529 1.390 . S
C2527 H2531 0.950 . S
H2528 C2524 0.950 . S
C2529 C2527 1.390 . S
C2529 C2530 1.387 . S
C2529 H2532 0.950 . S
C2530 C2529 1.387 . S
C2530 C2533 1.387 . S
H2531 C2527 0.950 . S
H2532 C2529 0.950 . S
C2533 C2524 1.390 . S
C2533 H2526 0.950 . S
C2533 C2530 1.387 . S
C2534 C2535 1.387 . S
C2534 H2538 0.950 . S
C2534 C2543 1.390 . S
C2535 C2534 1.387 . S
C2535 C2537 1.387 . S
H2536 C2543 0.950 . S
C2537 C2535 1.387 . S
C2537 C2539 1.390 . S
C2537 H2541 0.950 . S
H2538 C2534 0.950 . S
C2539 C2537 1.390 . S
C2539 C2540 1.387 . S
C2539 H2542 0.950 . S
C2540 C2539 1.387 . S
C2540 C2543 1.387 . S
H2541 C2537 0.950 . S
H2542 C2539 0.950 . S
C2543 C2534 1.390 . S
C2543 H2536 0.950 . S
C2543 C2540 1.387 . S
C1105 C491 1.540 . S
C1110 C537 1.684 . S
C1115 C271 1.595 . S
C1120 C549 1.592 . S
C1130 C561 1.446 . S
C1125 C513 1.459 . S
C1135 C293 1.526 . S
C1140 C573 1.612 . S
C1145 C524 1.609 . S
C1150 C585 1.664 . S
C1155 C260 1.515 . S
C1160 C597 1.652 . S
C1165 C502 1.560 . S
C1170 C609 1.557 . S
C1175 C282 1.518 . S
C1180 C621 1.496 . S
C1185 C183 1.589 . S
C1190 C633 1.616 . S
C1195 C447 1.585 . S
C1200 C645 1.578 . S
C1205 C205 1.495 . S
C1210 C657 1.560 . S
C1215 C436 1.569 . S
C1220 C669 1.569 . S
C1225 C249 1.605 . S
C1230 C681 1.584 . S
C1240 C693 1.629 . S
C1235 C458 1.565 . S
C1250 C705 1.760 . S
C1245 C227 1.650 . S
C1255 C315 1.437 . S
C1260 C717 1.451 . S
C1270 C729 1.624 . S
C1265 C216 1.570 . S
C1280 C741 1.738 . S
C1275 C469 1.637 . S
C1285 C238 1.339 . S
C1290 C753 1.373 . S
C1295 C326 1.511 . S
C1300 C765 1.593 . S
C1310 C777 1.555 . S
C1305 C304 1.505 . S
C1315 C392 1.274 . S
C1320 C789 1.317 . S
C1330 C801 1.583 . S
C1325 C106 1.529 . S
C1340 C813 1.602 . S
C1335 C414 1.560 . S
C1350 C825 1.577 . S
C1345 C128 1.575 . S
C1360 C837 1.577 . S
C1355 C425 1.581 . S
C1365 C95 1.279 . S
C1370 C849 1.309 . S
C1380 C861 1.530 . S
C1375 C403 1.474 . S
C1385 C117 1.565 . S
C1390 C873 1.609 . S
C1400 C885 1.550 . S
C1395 C18 1.570 . S
C1410 C897 1.545 . S
C1405 C348 1.511 . S
C1415 C40 1.576 . S
C1420 C909 1.560 . S
C1430 C921 1.475 . S
C1425 C337 1.440 . S
C1440 C933 1.582 . S
C1435 C84 1.576 . S
C1445 C359 1.590 . S
C1450 C945 1.595 . S
C1460 C957 1.486 . S
C1455 C62 1.453 . S
C1470 C969 1.498 . S
C1465 C150 1.483 . S
C1475 C51 1.601 . S
C1480 C981 1.602 . S
C1490 C993 1.496 . S
C1485 C370 1.465 . S
C1495 C73 1.521 . S
C1500 C1005 1.539 . S
C1510 C1017 1.506 . S
C1505 C161 1.513 . S
C1515 C139 1.550 . S
C1520 C1029 1.526 . S
C1525 C194 1.543 . S
C1530 C1041 1.535 . S
C1540 C1053 1.576 . S
C1535 C172 1.580 . S
C1545 C480 1.581 . S
C1550 C1065 1.559 . S
C1555 C29 1.523 . S
C1560 C1077 1.553 . S
C1570 C1089 1.421 . S
C1565 C7 1.415 . S
C1580 C1101 1.688 . S
C1575 C381 1.707 . S
C1585 C368 1.282 1_554 S
C1590 C534 1.520 . S
C1595 C151 1.452 . S
C1600 C546 1.479 . S
C1605 C379 1.554 . S
C1610 C556 1.573 . S
C1620 C568 1.621 . S
C1615 C360 1.617 . S
C1625 C159 1.440 . S
C1630 C580 1.549 . S
C1635 C338 1.420 . S
C1640 C592 1.419 . S
C1650 C604 1.568 . S
C1645 C140 1.557 . S
C1655 C346 1.318 . S
C1660 C618 1.487 . S
C1665 C349 1.499 . S
C1670 C630 1.481 . S
C1680 C640 1.511 . S
C1675 C162 1.530 . S
C1685 C335 1.397 . S
C1690 C652 1.513 . S
C1700 C664 1.634 . S
C1695 C137 1.595 . S
C1705 C148 1.222 . S
C1710 C678 1.462 . S
C1715 C382 1.595 . S
C1720 C688 1.574 . S
C1730 C700 1.710 . S
C1725 C357 1.705 . S
C1740 C714 1.529 . S
C1735 C371 1.530 . S
C1745 C129 1.683 . S
C1750 C666 1.659 . S
C1755 C393 1.504 . S
C1760 C726 1.569 . S
C1765 C401 1.396 . S
C1770 C738 1.709 . S
C1780 C748 1.404 . S
C1775 C412 1.268 . S
C1790 C676 1.579 . S
C1785 C126 1.527 . S
C1795 C107 1.563 . S
C1800 C642 1.595 . S
C1805 C415 1.465 . S
C1810 C762 1.433 . S
C1820 C772 1.541 . S
C1815 C390 1.317 . S
C1830 C786 1.700 . S
C1825 C467 1.271 . S
C1835 C316 1.515 . S
C1840 C798 1.522 . S
C1850 C808 1.565 . S
C1845 C478 1.435 . S
C1860 C820 1.493 . S
C1855 C459 1.493 . S
C1865 C324 1.252 . S
C1870 C834 1.669 . S
C1875 C434 1.349 . S
C1880 C844 1.494 . S
C1885 C305 1.400 . S
C1890 C856 1.429 . S
C1900 C870 1.610 . S
C1895 C448 1.629 . S
C1910 C882 1.626 . S
C1905 C445 1.524 . S
C1915 C327 1.554 . S
C1920 C892 1.638 . S
C1930 C906 1.506 . S
C1925 C437 1.533 . S
C1935 C302 1.174 . S
C1940 C916 1.463 . S
C1950 C928 1.505 . S
C1945 C313 1.276 . S
C1955 C481 1.648 . S
C1960 C942 1.611 . S
C1970 C954 1.570 . S
C1965 C456 1.337 . S
C1975 C470 1.591 . S
C1980 C964 1.674 . S
C1985 C294 1.540 . S
C1990 C918 1.601 . S
C1995 C492 1.551 . S
C2000 C976 1.625 . S
C2005 C500 1.388 . S
C2010 C988 1.523 . S
C2020 C1002 1.522 . S
C2015 C514 1.565 . S
C2025 C291 1.231 . S
C2030 C930 1.558 . S
C2035 C272 1.514 . S
C2040 C894 1.493 . S
C2050 C1012 1.502 . S
C2045 C511 1.392 . S
C2055 C489 1.264 . S
C2060 C1024 1.714 . S
C2070 C594 1.508 . S
C2065 C60 1.264 . S
C2080 C606 1.467 . S
C2075 C74 1.445 . S
C2090 C616 1.561 . S
C2085 C82 1.518 . S
C2100 C582 1.721 . S
C2095 C52 1.759 . S
C2110 C570 1.544 . S
C2105 C38 1.400 . S
C2115 C8 1.450 . S
C2120 C532 1.452 . S
C2125 C19 1.571 . S
C2130 C544 1.582 . S
C2135 C27 1.298 . S
C2140 C558 1.461 . S
C2145 C30 1.466 . S
C2150 C774 1.445 . S
C2155 C41 1.556 . S
C2160 C1036 1.537 . S
C2165 C5 1.460 . S
C2170 C760 1.534 . S
C2175 C16 1.610 . S
C2180 C1048 1.646 . S
C2185 C71 1.226 . S
C2190 C1062 1.459 . S
C2200 C724 1.522 . S
C2195 C85 1.536 . S
C2205 C49 1.641 . S
C2210 C736 1.674 . S
C2215 C63 1.488 . S
C2220 C750 1.491 . S
C2230 C1050 1.648 . S
C2225 C426 1.677 . S
C2235 C96 1.520 . S
C2240 C690 1.589 . S
C2245 C104 1.434 . S
C2250 C702 1.737 . S
C2255 C115 1.287 . S
C2260 C712 1.457 . S
C2270 C1060 1.565 . S
C2265 C423 1.507 . S
C2280 C1038 1.575 . S
C2275 C404 1.541 . S
C2290 C654 1.467 . S
C2285 C118 1.494 . S
C2295 C93 1.349 . S
C2300 C628 1.588 . S
C2305 C225 1.292 . S
C2310 C846 1.737 . S
C2315 C239 1.441 . S
C2320 C858 1.479 . S
C2325 C247 1.519 1_556 S
C2330 C868 1.635 . S
C2335 C217 1.513 . S
C2340 C832 1.516 . S
C2350 C822 1.623 . S
C2345 C203 1.222 . S
C2360 C784 1.439 . S
C2355 C170 1.295 . S
C2370 C796 1.437 . S
C2365 C184 1.448 . S
C2375 C195 1.573 . S
C2380 C810 1.561 . S
C2390 C1026 1.614 . S
C2385 C192 1.515 . S
C2395 C206 1.547 . S
C2400 C1072 1.620 . S
C2405 C173 1.446 . S
C2410 C1014 1.426 . S
C2420 C1084 1.489 . S
C2415 C181 1.288 . S
C2425 C236 1.180 . S
C2430 C1096 1.495 . S
C2440 C978 1.722 . S
C2435 C250 1.759 . S
C2445 C214 1.345 . S
C2450 C990 1.570 . S
C2455 C228 1.596 . S
C2460 C1000 1.684 . S
C2465 C522 1.279 . S
C2470 C1086 1.614 . S
C2480 C940 1.599 . S
C2475 C261 1.524 . S
C2485 C269 1.434 . S
C2490 C952 1.547 . S
C2495 C283 1.579 . S
C2500 C966 1.538 . S
C2505 C525 1.549 . S
C2510 C1098 1.614 . S
C2515 C503 1.504 . S
C2520 C1074 1.488 . S
C2530 C904 1.551 . S
C2525 C280 1.474 . S
C2540 C880 1.723 . S
C2535 C258 1.274 . S
