# Generated by pormake.
# Topology pth, (4,4)-cn, num edge types: 1
# Building blocks:
#     Node 0, Type 0, BuildingBlock: QUQFOY_clean_sbu_3, # of connection points: 4
#     Node 1, Type 0, BuildingBlock: QUQFOY_clean_sbu_3, # of connection points: 4
#     Node 2, Type 0, BuildingBlock: QUQFOY_clean_sbu_3, # of connection points: 4
#     Node 3, Type 1, BuildingBlock: NAWXER_clean_linker_0, # of connection points: 4
#     Node 4, Type 1, BuildingBlock: NAWXER_clean_linker_0, # of connection points: 4
#     Node 5, Type 1, BuildingBlock: NAWXER_clean_linker_0, # of connection points: 4
#     Edge 6, Type (0, 1), BuildingBlock: EZIPEK_clean_linker_0, # of connection points: 2
#     Edge 7, Type (0, 1), BuildingBlock: EZIPEK_clean_linker_0, # of connection points: 2
#     Edge 8, Type (0, 1), BuildingBlock: EZIPEK_clean_linker_0, # of connection points: 2
#     Edge 9, Type (0, 1), BuildingBlock: EZIPEK_clean_linker_0, # of connection points: 2
#     Edge 10, Type (0, 1), BuildingBlock: EZIPEK_clean_linker_0, # of connection points: 2
#     Edge 11, Type (0, 1), BuildingBlock: EZIPEK_clean_linker_0, # of connection points: 2
#     Edge 12, Type (0, 1), BuildingBlock: EZIPEK_clean_linker_0, # of connection points: 2
#     Edge 13, Type (0, 1), BuildingBlock: EZIPEK_clean_linker_0, # of connection points: 2
#     Edge 14, Type (0, 1), BuildingBlock: EZIPEK_clean_linker_0, # of connection points: 2
#     Edge 15, Type (0, 1), BuildingBlock: EZIPEK_clean_linker_0, # of connection points: 2
#     Edge 16, Type (0, 1), BuildingBlock: EZIPEK_clean_linker_0, # of connection points: 2
#     Edge 17, Type (0, 1), BuildingBlock: EZIPEK_clean_linker_0, # of connection points: 2
# Relax obj value: 0.008
# Max RMSD: 0.059
# Mean RMSD: 0.041
data_MOF--net-pth--node1-QUQFOY_clean_sbu_3--node2-NAWXER_clean_linker_0--edge1-EZIPEK_clean_linker_0
_symmetry_space_group_name_H-M    P1
_symmetry_Int_Tables_number       1
_symmetry_cell_setting            triclinic
loop_
_symmetry_equiv_pos_as_xyz
'x, y, z'
_cell_length_a     22.776569
_cell_length_b     22.579303
_cell_length_c     52.472619
_cell_angle_alpha  90.003414
_cell_angle_beta   90.988687
_cell_angle_gamma 120.78819
loop_
_atom_site_label
_atom_site_type_symbol
_atom_site_fract_x
_atom_site_fract_y
_atom_site_fract_z
_atom_type_partial_charge
C0 C 0.97587 0.16796 0.07887 0.0
O1 O 0.92793 0.15622 0.06328 0.0
Cd2 Cd 0.90957 0.08793 0.02588 0.0
O3 O 0.01081 0.13914 0.07618 0.0
Cd4 Cd 0.01025 0.05163 0.0482 0.0
C5 C 0.07048 0.16721 0.00204 0.0
O6 O 0.8897 0.97482 0.03566 0.0
O7 O 0.96608 0.97537 0.01158 0.0
O8 O 0.01072 0.99043 0.08576 0.0
C9 C 0.90364 0.94791 0.01722 0.0
O10 O 0.00946 0.15461 -0.00059 0.0
C11 C 0.06385 0.98896 0.08012 0.0
O12 O 0.08721 0.13968 0.01964 0.0
O13 O 0.09351 0.01768 0.0596 0.0
C14 C 0.18214 0.15424 0.39986 0.0
O15 O 0.20834 0.18195 0.37878 0.0
Cd16 Cd 0.1403 0.17864 0.34254 0.0
O17 O 0.11793 0.12393 0.40286 0.0
Cd18 Cd 0.01176 0.09119 0.37943 0.0
C19 C 0.04103 0.00253 0.33492 0.0
O20 O 0.04989 0.19533 0.35565 0.0
O21 O 0.95299 0.1058 0.34341 0.0
O22 O 0.95496 0.12485 0.40922 0.0
C23 C -0.00312 0.16947 0.34125 0.0
O24 O 0.08794 0.06077 0.32701 0.0
C25 C 0.91816 0.0662 0.41911 0.0
O26 O 0.00628 -0.00289 0.35449 0.0
O27 O 0.92449 0.01733 0.41038 0.0
C28 C 0.8853 0.06027 0.68699 0.0
O29 O 0.88747 0.09391 0.70672 0.0
Cd30 Cd 0.96288 0.11559 0.74247 0.0
O31 O 0.9256 0.03738 0.68454 0.0
Cd32 Cd 0.02049 0.03888 0.70799 0.0
C33 C 0.9181 0.94859 0.75606 0.0
O34 O 0.07419 0.15375 0.7267 0.0
O35 O 0.10826 0.08595 0.74112 0.0
O36 O 0.08925 0.07227 0.67038 0.0
C37 C 0.11461 0.14507 0.74098 0.0
O38 O 0.9187 0.00356 0.76201 0.0
C39 C 0.0929 0.01818 0.669 0.0
O40 O 0.94885 0.94538 0.73654 0.0
O41 O 0.06086 0.97185 0.68549 0.0
C42 C 0.96673 0.35428 0.24719 0.0
C43 C 0.00533 0.36348 0.26951 0.0
C44 C 0.98004 0.41131 0.2325 0.0
C45 C 0.03263 0.47761 0.23994 0.0
C46 C 0.05698 0.42965 0.2771 0.0
C47 C 0.07038 0.4864 0.26245 0.0
C48 C 0.0471 0.53901 0.22532 0.0
C49 C 0.08461 0.40237 0.17383 0.0
C50 C 0.04168 0.3826 0.15211 0.0
C51 C 0.09284 0.45677 0.18924 0.0
C52 C 0.0578 0.49126 0.18305 0.0
C53 C 0.00797 0.41797 0.14571 0.0
C54 C 0.01617 0.47206 0.16101 0.0
C55 C 0.06271 0.547 0.19921 0.0
C56 C 0.15557 0.8091 0.15584 0.0
C57 C 0.10149 0.82106 0.15189 0.0
C58 C 0.14784 0.7573 0.17241 0.0
C59 C 0.08681 0.71852 0.18566 0.0
C60 C 0.04124 0.78365 0.16566 0.0
C61 C 0.03396 0.7327 0.18251 0.0
C62 C 0.07563 0.65844 0.20041 0.0
C63 C 0.98108 0.72316 0.26975 0.0
C64 C 0.03441 0.79175 0.27222 0.0
C65 C 0.98897 0.67724 0.25452 0.0
C66 C 0.0497 0.69976 0.24124 0.0
C67 C 0.09508 0.81459 0.25891 0.0
C68 C 0.1027 0.76878 0.24343 0.0
C69 C 0.05784 0.64945 0.22627 0.0
H70 H 0.92636 0.30329 0.24129 0.0
H71 H 0.94914 0.40378 0.21554 0.0
H72 H 0.08687 0.43724 0.29438 0.0
H73 H 0.11058 0.53726 0.2686 0.0
H74 H 0.11148 0.37578 0.17877 0.0
H75 H 0.1262 0.47172 0.20594 0.0
H76 H 0.97514 0.40347 0.12886 0.0
H77 H 0.98892 0.49818 0.15588 0.0
H78 H 0.20235 0.83779 0.14532 0.0
H79 H 0.18884 0.74648 0.17451 0.0
H80 H -0.00082 0.79256 0.16276 0.0
H81 H 0.98609 0.70247 0.19226 0.0
H82 H 0.93403 0.70508 0.27996 0.0
H83 H 0.94764 0.62406 0.25308 0.0
H84 H 0.13662 0.86757 0.26075 0.0
H85 H 0.15033 0.78679 0.23365 0.0
N86 N 0.04505 0.59044 0.23784 0.0
N87 N 0.0767 0.60663 0.18776 0.0
C88 C 0.73757 0.08247 0.5156 0.0
C89 C 0.72344 0.05644 0.49052 0.0
C90 C 0.68845 0.08818 0.52919 0.0
C91 C 0.62217 0.06233 0.51883 0.0
C92 C 0.65832 0.03312 0.47978 0.0
C93 C 0.60801 0.03488 0.49391 0.0
C94 C 0.56771 0.06667 0.53247 0.0
C95 C 0.65415 0.98519 0.59242 0.0
C96 C 0.68895 0.03535 0.61152 0.0
C97 C 0.61029 0.99186 0.57524 0.0
C98 C 0.60145 0.04887 0.57711 0.0
C99 C 0.67852 0.09105 0.61376 0.0
C100 C 0.63462 0.09749 0.59677 0.0
C101 C 0.5574 0.05882 0.55905 0.0
C102 C 0.27722 0.00154 0.57346 0.0
C103 C 0.28698 0.03965 0.59587 0.0
C104 C 0.33343 0.01419 0.55902 0.0
C105 C 0.39981 0.06458 0.56705 0.0
C106 C 0.35308 0.09149 0.60337 0.0
C107 C 0.40917 0.1034 0.58918 0.0
C108 C 0.45997 0.0711 0.55441 0.0
C109 C 0.36817 0.15631 0.50031 0.0
C110 C 0.35204 0.12596 0.47594 0.0
C111 C 0.40739 0.14259 0.51737 0.0
C112 C 0.42915 0.09666 0.51053 0.0
C113 C 0.37565 0.08207 0.46878 0.0
C114 C 0.41378 0.06747 0.48594 0.0
C115 C 0.4713 0.08156 0.52807 0.0
H116 H 0.7877 0.1013 0.52421 0.0
H117 H 0.70352 0.11431 0.54746 0.0
H118 H 0.64634 0.01341 0.46039 0.0
H119 H 0.55794 0.01531 0.48512 0.0
H120 H 0.6617 0.94176 0.59065 0.0
H121 H 0.58406 0.95334 0.56038 0.0
H122 H 0.7049 0.12982 0.62854 0.0
H123 H 0.6277 0.14135 0.5986 0.0
H124 H 0.22649 0.96094 0.56759 0.0
H125 H 0.32542 0.98273 0.54225 0.0
H126 H 0.36136 0.12106 0.62071 0.0
H127 H 0.46007 0.14193 0.59578 0.0
H128 H 0.3504 0.19047 0.50605 0.0
H129 H 0.42107 0.1684 0.53576 0.0
H130 H 0.36348 0.0582 0.45002 0.0
H131 H 0.43067 0.03268 0.48004 0.0
N132 N 0.52418 0.0781 0.51817 0.0
N133 N 0.5041 0.06137 0.5689 0.0
C134 C 0.32825 0.3237 0.83319 0.0
C135 C 0.30523 0.34735 0.81287 0.0
C136 C 0.37738 0.3706 0.85043 0.0
C137 C 0.40359 0.44161 0.84759 0.0
C138 C 0.33085 0.41811 0.8101 0.0
C139 C 0.38017 0.46505 0.82728 0.0
C140 C 0.45899 0.492 0.86453 0.0
C141 C 0.27611 0.38312 0.91457 0.0
C142 C 0.28459 0.34714 0.93467 0.0
C143 C 0.33202 0.42801 0.89999 0.0
C144 C 0.39676 0.43687 0.90529 0.0
C145 C 0.34902 0.35569 0.93993 0.0
C146 C 0.40487 0.40059 0.9254 0.0
C147 C 0.45726 0.48759 0.8913 0.0
C148 C 0.70219 0.75585 0.92486 0.0
C149 C 0.71564 0.73304 0.94789 0.0
C150 C 0.6559 0.70843 0.90702 0.0
C151 C 0.62424 0.63725 0.91149 0.0
C152 C 0.68382 0.66218 0.95254 0.0
C153 C 0.6389 0.61469 0.93441 0.0
C154 C 0.56967 0.58613 0.89422 0.0
C155 C 0.74887 0.6958 0.84096 0.0
C156 C 0.73846 0.73569 0.82296 0.0
C157 C 0.69492 0.64945 0.85612 0.0
C158 C 0.63014 0.64218 0.8531 0.0
C159 C 0.67384 0.72857 0.82015 0.0
C160 C 0.61992 0.68168 0.83494 0.0
C161 C 0.57123 0.59031 0.86736 0.0
H162 H 0.30901 0.26911 0.83539 0.0
H163 H 0.39605 0.35154 0.86557 0.0
H164 H 0.31347 0.43688 0.79442 0.0
H165 H 0.4003 0.51969 0.82468 0.0
H166 H 0.22662 0.37734 0.91053 0.0
H167 H 0.32502 0.45701 0.88503 0.0
H168 H 0.35613 0.32839 0.95553 0.0
H169 H 0.45454 0.40733 0.92994 0.0
H170 H 0.7257 0.81048 0.92114 0.0
H171 H 0.64311 0.72788 0.8903 0.0
H172 H 0.69318 0.64378 0.97034 0.0
H173 H 0.61436 0.56019 0.93855 0.0
H174 H 0.79845 0.70047 0.84315 0.0
H175 H 0.70326 0.61835 0.86977 0.0
H176 H 0.66504 0.75885 0.80625 0.0
H177 H 0.57009 0.67623 0.83224 0.0
N178 N 0.51576 0.54335 0.8536 0.0
N179 N 0.51268 0.53458 0.90508 0.0
C180 C 0.04332 0.29128 0.09228 0.0
C181 C -0.00332 0.22168 0.0986 0.0
C182 C 0.98462 0.2566 0.14141 0.0
C183 C 0.03249 0.32601 0.13523 0.0
N184 N 0.11902 0.40825 0.10752 0.0
N185 N 0.93271 0.13552 0.13 0.0
C186 C 0.06562 0.34291 0.11148 0.0
C187 C 0.97054 0.20347 0.12351 0.0
N188 N 0.06452 0.3082 0.06773 0.0
N189 N 0.95057 0.24195 0.16388 0.0
H190 H 0.9201 0.09544 0.11707 0.0
H191 H 0.91809 0.1188 0.14856 0.0
H192 H 0.96078 0.2794 0.17771 0.0
H193 H 0.90944 0.19356 0.16825 0.0
H194 H 0.0925 0.3587 0.0613 0.0
H195 H 0.04989 0.27162 0.05315 0.0
H196 H 0.1498 0.42228 0.09158 0.0
H197 H 0.13664 0.44723 0.12132 0.0
C198 C 0.80529 -0.00234 0.44212 0.0
C199 C 0.87142 0.05745 0.44013 0.0
C200 C 0.84057 0.11708 0.47114 0.0
C201 C 0.777 0.05569 0.4749 0.0
N202 N 0.71 0.93182 0.46989 0.0
N203 N 0.95863 0.16264 0.46084 0.0
C204 C 0.76304 0.99395 0.46237 0.0
C205 C 0.89131 0.11351 0.45728 0.0
N206 N 0.78029 0.94651 0.42404 0.0
N207 N 0.8517 0.17954 0.47928 0.0
H208 H -0.00199 0.15899 0.45258 0.0
H209 H 0.97521 0.20169 0.47456 0.0
H210 H 0.81427 0.18602 0.48773 0.0
H211 H 0.89573 0.22586 0.47486 0.0
H212 H 0.72984 0.90557 0.42383 0.0
H213 H 0.80653 0.94826 0.40777 0.0
H214 H 0.70144 0.88499 0.46264 0.0
H215 H 0.67963 0.927 0.48533 0.0
C216 C 0.82617 0.82515 0.7627 0.0
C217 C 0.88101 0.88813 0.77264 0.0
C218 C 0.84808 0.84751 0.81621 0.0
C219 C 0.79397 0.78422 0.80625 0.0
N220 N 0.74388 0.70504 0.77076 0.0
N221 N 0.95654 0.95083 0.80808 0.0
C222 C 0.78741 0.77044 0.77968 0.0
C223 C 0.89603 0.89648 0.7992 0.0
N224 N 0.8078 0.81895 0.73746 0.0
N225 N 0.85157 0.86259 0.84162 0.0
H226 H -0.00642 0.98663 0.79597 0.0
H227 H 0.97293 0.95621 0.82704 0.0
H228 H 0.81734 0.82822 0.85478 0.0
H229 H 0.88531 0.9112 0.84934 0.0
H230 H 0.76335 0.77689 0.72992 0.0
H231 H 0.83351 0.85816 0.72432 0.0
H232 H 0.74157 0.69055 0.75175 0.0
H233 H 0.71514 0.66378 0.78286 0.0
C234 C 0.11407 0.97941 0.1213 0.0
C235 C 0.08786 0.95252 0.0966 0.0
C236 C 0.08885 0.84712 0.10653 0.0
C237 C 0.10548 0.86991 0.13227 0.0
N238 N 0.13496 0.95668 0.16473 0.0
N239 N 0.0487 0.86142 0.06519 0.0
C240 C 0.11919 0.9362 0.13978 0.0
C241 C 0.07609 0.88707 0.08887 0.0
N242 N 0.1349 0.04664 0.12681 0.0
N243 N 0.08457 0.78693 0.09909 0.0
H244 H 0.04066 0.88997 0.05144 0.0
H245 H 0.0304 0.81069 0.05948 0.0
H246 H 0.09027 0.75448 0.1117 0.0
H247 H 0.08022 0.77125 0.08016 0.0
H248 H 0.16002 0.0717 0.14368 0.0
H249 H 0.13213 0.07945 0.11346 0.0
H250 H 0.13761 0.00069 0.17219 0.0
H251 H 0.14259 0.92767 0.17844 0.0
C252 C 0.20534 0.08337 0.43052 0.0
C253 C 0.22513 0.14907 0.42019 0.0
C254 C 0.33045 0.20084 0.44622 0.0
C255 C 0.30699 0.13632 0.45816 0.0
N256 N 0.21421 0.02114 0.46637 0.0
N257 N 0.2996 0.27273 0.42207 0.0
C258 C 0.24179 0.0792 0.45182 0.0
C259 C 0.28578 0.20868 0.42915 0.0
N260 N 0.15461 0.02438 0.41908 0.0
N261 N 0.396 0.25372 0.45042 0.0
H262 H 0.26717 0.28051 0.41009 0.0
H263 H 0.33962 0.31812 0.43 0.0
H264 H 0.4303 0.24987 0.46273 0.0
H265 H 0.41802 0.29933 0.44011 0.0
H266 H 0.14335 0.97528 0.42447 0.0
H267 H 0.12905 0.02416 0.40241 0.0
H268 H 0.16393 0.98063 0.46397 0.0
H269 H 0.23902 0.01655 0.48249 0.0
C270 C 0.1403 0.20248 0.78368 0.0
C271 C 0.16221 0.19918 0.75887 0.0
C272 C 0.27845 0.29136 0.7697 0.0
C273 C 0.25556 0.29773 0.79398 0.0
N274 N 0.16351 0.2686 0.82281 0.0
N275 N 0.24782 0.24606 0.72652 0.0
C276 C 0.18603 0.25593 0.80062 0.0
C277 C 0.23004 0.24549 0.75132 0.0
N278 N 0.07648 0.1534 0.79126 0.0
N279 N 0.34676 0.327 0.76463 0.0
H280 H 0.21389 0.21197 0.71267 0.0
H281 H 0.29434 0.28356 0.71917 0.0
H282 H 0.38392 0.36121 0.77762 0.0
H283 H 0.36735 0.3188 0.74839 0.0
H284 H 0.06028 0.14827 0.80999 0.0
H285 H 0.04104 0.11432 0.77916 0.0
H286 H 0.11214 0.24473 0.82747 0.0
H287 H 0.19576 0.30731 0.83573 0.0
C288 C 0.85722 0.07865 0.64248 0.0
C289 C 0.83479 0.04709 0.66656 0.0
C290 C 0.71538 0.0004 0.65337 0.0
C291 C 0.73781 0.03141 0.62925 0.0
N292 N 0.82718 0.08737 0.59861 0.0
N293 N 0.74403 0.9655 0.69314 0.0
C294 C 0.80794 0.06622 0.62306 0.0
C295 C 0.76419 0.00413 0.67148 0.0
N296 N 0.92529 0.12341 0.63867 0.0
N297 N 0.64771 0.96935 0.65918 0.0
H298 H 0.77859 0.9666 0.70672 0.0
H299 H 0.69356 0.92797 0.69665 0.0
H300 H 0.61012 0.96289 0.64594 0.0
H301 H 0.62918 0.95334 0.67743 0.0
H302 H 0.94424 0.15406 0.6226 0.0
H303 H 0.96308 0.13403 0.65243 0.0
H304 H 0.87667 0.10668 0.59221 0.0
H305 H 0.79234 0.08028 0.58405 0.0
C306 C 0.86274 0.83508 0.99506 0.0
C307 C 0.8504 0.88844 0.00212 0.0
C308 C 0.74138 0.8289 0.97847 0.0
C309 C 0.76049 0.78385 0.96763 0.0
N310 N 0.84531 0.75088 0.96283 0.0
N311 N 0.78163 0.94159 0.99656 0.0
C312 C 0.82275 0.78854 0.9752 0.0
C313 C 0.79038 0.88671 0.99298 0.0
N314 N 0.91109 0.82733 0.00788 0.0
N315 N 0.67614 0.81592 0.97528 0.0
H316 H 0.81721 0.98671 0.00594 0.0
H317 H 0.74209 0.94511 0.98783 0.0
H318 H 0.63824 0.77303 0.96525 0.0
H319 H 0.65794 0.84356 0.98487 0.0
H320 H 0.91786 0.78559 0.00487 0.0
H321 H 0.93866 0.85791 0.02357 0.0
H322 H 0.89381 0.75798 0.96602 0.0
H323 H 0.81843 0.71738 0.94769 0.0
C324 C 0.04927 0.89666 0.33093 0.0
C325 C 0.02756 0.94053 0.32063 0.0
C326 C 0.00568 0.88358 0.27897 0.0
C327 C 0.02744 0.83975 0.28925 0.0
N328 N 0.05737 0.79439 0.32559 0.0
N329 N 0.97095 0.96693 0.28725 0.0
C330 C 0.04492 0.84286 0.31549 0.0
C331 C 0.00128 0.93115 0.29533 0.0
N332 N 0.07756 0.90888 0.35495 0.0
N333 N 0.99112 0.88093 0.25344 0.0
H334 H 0.96614 0.00139 0.29904 0.0
H335 H 0.94519 0.95821 0.26982 0.0
H336 H 0.99108 0.84474 0.24106 0.0
H337 H 0.98285 0.91686 0.24418 0.0
H338 H 0.10231 0.88457 0.36245 0.0
H339 H 0.07987 0.9466 0.36706 0.0
H340 H 0.06289 0.78913 0.34504 0.0
H341 H 0.05736 0.75581 0.31465 0.0
C342 C 0.12757 0.02688 0.62359 0.0
C343 C 0.13487 0.01151 0.64928 0.0
C344 C 0.22832 0.9944 0.63711 0.0
C345 C 0.22929 0.02252 0.61287 0.0
N346 N 0.18334 0.0712 0.58336 0.0
N347 N 0.19945 0.99005 0.68135 0.0
C348 C 0.17943 0.03973 0.60604 0.0
C349 C 0.18654 -0.00324 0.65629 0.0
N350 N 0.07037 0.02773 0.61588 0.0
N351 N 0.26731 0.96532 0.64174 0.0
H352 H 0.17244 0.99425 0.69635 0.0
H353 H 0.24158 0.987 0.68746 0.0
H354 H 0.29812 0.9622 0.62795 0.0
H355 H 0.2636 0.93814 0.65827 0.0
H356 H 0.05945 0.03251 0.59689 0.0
H357 H 0.0303 0.01627 0.62809 0.0
H358 H 0.15291 0.09193 0.57871 0.0
H359 H 0.22055 0.08139 0.56995 0.0
C360 C 0.17448 0.28076 0.99303 0.0
C361 C 0.12294 0.21446 0.98429 0.0
C362 C 0.1771 0.23508 0.94272 0.0
C363 C 0.22668 0.3025 0.95112 0.0
N364 N 0.26618 0.39494 0.98197 0.0
N365 N 0.06873 0.13067 0.95023 0.0
C366 C 0.2235 0.32696 0.97564 0.0
C367 C 0.12205 0.19242 0.95887 0.0
N368 N 0.17721 0.29912 0.01806 0.0
N369 N 0.1844 0.21098 0.91978 0.0
H370 H 0.02945 0.09608 0.96188 0.0
H371 H 0.06093 0.1153 0.93117 0.0
H372 H 0.2236 0.24114 0.90729 0.0
H373 H 0.15462 0.15986 0.91376 0.0
H374 H 0.21803 0.34333 0.0263 0.0
H375 H 0.14068 0.26778 0.03121 0.0
H376 H 0.26163 0.41777 -0.00154 0.0
H377 H 0.30284 0.43034 0.96966 0.0
C378 C 0.95611 0.24754 0.32667 0.0
C379 C 0.98967 0.21087 0.32123 0.0
C380 C 0.02522 0.26708 0.27991 0.0
C381 C 0.99228 0.30435 0.28546 0.0
N382 N 0.91429 0.32048 0.31079 0.0
N383 N 0.04254 0.17281 0.29115 0.0
C384 C 0.95361 0.29128 0.30782 0.0
C385 C 0.01977 0.21641 0.29728 0.0
N386 N 0.92885 0.24227 0.35018 0.0
N387 N 0.06413 0.28241 0.25864 0.0
H388 H 0.03988 0.13565 0.30364 0.0
H389 H 0.05883 0.16942 0.27308 0.0
H390 H 0.06748 0.31771 0.24506 0.0
H391 H 0.09611 0.26318 0.25506 0.0
H392 H 0.91072 0.27358 0.35647 0.0
H393 H 0.92765 0.20871 0.36411 0.0
H394 H 0.87993 0.30826 0.32548 0.0
H395 H 0.91178 0.35303 0.29726 0.0
loop_
_geom_bond_atom_site_label_1
_geom_bond_atom_site_label_2
_geom_bond_distance
_geom_bond_site_symmetry_2
_ccdc_geom_bond_type
C0 O1 1.306 1_455 S
C0 O3 1.160 . S
O1 C0 1.306 1_655 S
O1 Cd2 2.228 . S
Cd2 O1 2.228 . S
Cd2 O6 2.273 . S
Cd2 O10 2.277 1_655 S
O3 C0 1.160 . S
O3 Cd4 2.203 . S
Cd4 O3 2.203 . S
Cd4 O6 2.411 1_455 S
Cd4 O7 2.333 1_445 S
Cd4 O8 2.352 1_445 S
Cd4 O12 2.277 . S
Cd4 O13 2.356 1_545 S
C5 O10 1.209 . S
C5 O12 1.226 . S
O6 Cd2 2.273 . S
O6 Cd4 2.411 1_655 S
O6 C9 1.320 1_545 S
O7 Cd4 2.333 1_665 S
O7 C9 1.214 . S
O8 Cd4 2.352 1_665 S
O8 C11 1.258 1_655 S
C9 O6 1.320 1_565 S
C9 O7 1.214 . S
O10 Cd2 2.277 1_455 S
O10 C5 1.209 . S
C11 O8 1.258 1_455 S
C11 O13 1.282 . S
O12 Cd4 2.277 . S
O12 C5 1.226 . S
O13 Cd4 2.356 1_565 S
O13 C11 1.282 . S
C14 O15 1.306 . S
C14 O17 1.160 . S
O15 C14 1.306 . S
O15 Cd16 2.228 . S
Cd16 O15 2.228 . S
Cd16 O20 2.273 . S
Cd16 O24 2.277 . S
O17 C14 1.160 . S
O17 Cd18 2.203 . S
Cd18 O17 2.203 . S
Cd18 O20 2.411 . S
Cd18 O21 2.333 1_455 S
Cd18 O22 2.352 1_455 S
Cd18 O26 2.277 1_445 S
Cd18 O27 2.357 1_445 S
C19 O24 1.209 1_565 S
C19 O26 1.226 1_455 S
O20 Cd16 2.273 . S
O20 Cd18 2.411 . S
O20 C23 1.320 . S
O21 Cd18 2.333 1_655 S
O21 C23 1.214 1_655 S
O22 Cd18 2.352 1_655 S
O22 C25 1.258 . S
C23 O20 1.320 . S
C23 O21 1.214 1_455 S
O24 Cd16 2.277 . S
O24 C19 1.209 1_545 S
C25 O22 1.258 . S
C25 O27 1.279 1_545 S
O26 Cd18 2.277 1_665 S
O26 C19 1.226 1_655 S
O27 Cd18 2.357 1_665 S
O27 C25 1.279 1_565 S
C28 O29 1.306 . S
C28 O31 1.160 . S
O29 C28 1.306 . S
O29 Cd30 2.228 . S
Cd30 O29 2.228 . S
Cd30 O34 2.273 1_655 S
Cd30 O38 2.277 . S
O31 C28 1.160 . S
O31 Cd32 2.203 1_655 S
Cd32 O31 2.203 1_455 S
Cd32 O34 2.411 . S
Cd32 O35 2.333 . S
Cd32 O36 2.352 . S
Cd32 O40 2.277 1_445 S
Cd32 O41 2.356 . S
C33 O38 1.209 1_565 S
C33 O40 1.226 . S
O34 Cd30 2.273 1_455 S
O34 Cd32 2.411 . S
O34 C37 1.320 . S
O35 Cd32 2.333 . S
O35 C37 1.214 . S
O36 Cd32 2.352 . S
O36 C39 1.258 . S
C37 O34 1.320 . S
C37 O35 1.214 . S
O38 Cd30 2.277 . S
O38 C33 1.209 1_545 S
C39 O36 1.258 . S
C39 O41 1.282 . S
O40 Cd32 2.277 1_665 S
O40 C33 1.226 . S
O41 Cd32 2.356 . S
O41 C39 1.282 . S
C42 C43 1.384 1_655 S
C42 C44 1.388 1_655 S
C42 H70 0.931 . S
C43 C42 1.384 1_455 S
C43 C46 1.382 . S
C44 C42 1.388 1_455 S
C44 C45 1.384 . S
C44 H71 0.923 1_455 S
C45 C44 1.384 . S
C45 C47 1.381 . S
C45 C48 1.487 . S
C46 C43 1.382 . S
C46 C47 1.387 . S
C46 H72 0.930 . S
C47 C45 1.381 . S
C47 C46 1.387 . S
C47 H73 0.931 . S
C48 C45 1.487 . S
C48 C55 1.399 . S
C48 N86 1.343 . S
C49 C50 1.384 . S
C49 C51 1.384 . S
C49 H74 0.931 . S
C50 C49 1.384 . S
C50 C53 1.382 1_455 S
C51 C49 1.384 . S
C51 C52 1.381 . S
C51 H75 0.930 . S
C52 C51 1.381 . S
C52 C54 1.381 1_455 S
C52 C55 1.487 . S
C53 C50 1.382 1_655 S
C53 C54 1.387 . S
C53 H76 0.930 . S
C54 C52 1.381 1_655 S
C54 C53 1.387 . S
C54 H77 0.931 . S
C55 C48 1.399 . S
C55 C52 1.487 . S
C55 N87 1.343 . S
C56 C57 1.384 . S
C56 C58 1.384 . S
C56 H78 0.931 . S
C57 C56 1.384 . S
C57 C60 1.382 1_455 S
C58 C56 1.384 . S
C58 C59 1.381 . S
C58 H79 0.930 . S
C59 C58 1.381 . S
C59 C61 1.381 1_455 S
C59 C62 1.487 . S
C60 C57 1.382 1_655 S
C60 C61 1.387 . S
C60 H80 0.930 . S
C61 C59 1.381 1_655 S
C61 C60 1.387 . S
C61 H81 0.931 . S
C62 C59 1.487 . S
C62 C69 1.399 . S
C62 N87 1.343 . S
C63 C64 1.384 1_655 S
C63 C65 1.379 1_655 S
C63 H82 0.931 . S
C64 C63 1.384 1_455 S
C64 C67 1.382 . S
C65 C63 1.379 1_455 S
C65 C66 1.392 . S
C65 H83 0.924 1_455 S
C66 C65 1.392 . S
C66 C68 1.381 . S
C66 C69 1.487 . S
C67 C64 1.382 . S
C67 C68 1.387 . S
C67 H84 0.930 . S
C68 C66 1.381 . S
C68 C67 1.387 . S
C68 H85 0.931 . S
C69 C62 1.399 . S
C69 C66 1.487 . S
C69 N86 1.343 . S
H70 C42 0.931 . S
H71 C44 0.923 1_655 S
H72 C46 0.930 . S
H73 C47 0.931 . S
H74 C49 0.931 . S
H75 C51 0.930 . S
H76 C53 0.930 . S
H77 C54 0.931 . S
H78 C56 0.931 . S
H79 C58 0.930 . S
H80 C60 0.930 . S
H81 C61 0.931 . S
H82 C63 0.931 . S
H83 C65 0.924 1_655 S
H84 C67 0.930 . S
H85 C68 0.931 . S
N86 C48 1.343 . S
N86 C69 1.343 . S
N87 C55 1.343 . S
N87 C62 1.343 . S
C88 C89 1.384 . S
C88 C90 1.384 . S
C88 H116 0.931 . S
C89 C88 1.384 . S
C89 C92 1.382 . S
C90 C88 1.384 . S
C90 C91 1.381 . S
C90 H117 0.930 . S
C91 C90 1.381 . S
C91 C93 1.381 . S
C91 C94 1.487 . S
C92 C89 1.382 . S
C92 C93 1.387 . S
C92 H118 0.930 1_545 S
C93 C91 1.381 . S
C93 C92 1.387 . S
C93 H119 0.931 1_545 S
C94 C91 1.487 . S
C94 C101 1.399 . S
C94 N132 1.343 . S
C95 C96 1.384 . S
C95 C97 1.384 . S
C95 H120 0.931 1_545 S
C96 C95 1.384 . S
C96 C99 1.382 . S
C97 C95 1.384 . S
C97 C98 1.381 . S
C97 H121 0.930 1_545 S
C98 C97 1.381 . S
C98 C100 1.381 . S
C98 C101 1.487 . S
C99 C96 1.382 . S
C99 C100 1.387 . S
C99 H122 0.930 . S
C100 C98 1.381 . S
C100 C99 1.387 . S
C100 H123 0.931 . S
C101 C94 1.399 . S
C101 C98 1.487 . S
C101 N133 1.343 . S
C102 C103 1.384 . S
C102 C104 1.384 . S
C102 H124 0.931 1_545 S
C103 C102 1.384 . S
C103 C106 1.382 . S
C104 C102 1.384 . S
C104 C105 1.381 . S
C104 H125 0.930 1_545 S
C105 C104 1.381 . S
C105 C107 1.381 . S
C105 C108 1.487 . S
C106 C103 1.382 . S
C106 C107 1.387 . S
C106 H126 0.930 . S
C107 C105 1.381 . S
C107 C106 1.387 . S
C107 H127 0.931 . S
C108 C105 1.487 . S
C108 C115 1.399 . S
C108 N133 1.343 . S
C109 C110 1.384 . S
C109 C111 1.384 . S
C109 H128 0.931 . S
C110 C109 1.384 . S
C110 C113 1.382 . S
C111 C109 1.384 . S
C111 C112 1.381 . S
C111 H129 0.930 . S
C112 C111 1.381 . S
C112 C114 1.381 . S
C112 C115 1.487 . S
C113 C110 1.382 . S
C113 C114 1.387 . S
C113 H130 0.930 1_545 S
C114 C112 1.381 . S
C114 C113 1.387 . S
C114 H131 0.931 1_545 S
C115 C108 1.399 . S
C115 C112 1.487 . S
C115 N132 1.343 . S
H116 C88 0.931 . S
H117 C90 0.930 . S
H118 C92 0.930 1_565 S
H119 C93 0.931 1_565 S
H120 C95 0.931 1_565 S
H121 C97 0.930 1_565 S
H122 C99 0.930 . S
H123 C100 0.931 . S
H124 C102 0.931 1_565 S
H125 C104 0.930 1_565 S
H126 C106 0.930 . S
H127 C107 0.931 . S
H128 C109 0.931 . S
H129 C111 0.930 . S
H130 C113 0.930 1_565 S
H131 C114 0.931 1_565 S
N132 C94 1.343 . S
N132 C115 1.343 . S
N133 C101 1.343 . S
N133 C108 1.343 . S
C134 C135 1.384 . S
C134 C136 1.384 . S
C134 H162 0.931 . S
C135 C134 1.384 . S
C135 C138 1.382 . S
C136 C134 1.384 . S
C136 C137 1.381 . S
C136 H163 0.930 . S
C137 C136 1.381 . S
C137 C139 1.381 . S
C137 C140 1.487 . S
C138 C135 1.382 . S
C138 C139 1.387 . S
C138 H164 0.930 . S
C139 C137 1.381 . S
C139 C138 1.387 . S
C139 H165 0.931 . S
C140 C137 1.487 . S
C140 C147 1.399 . S
C140 N178 1.343 . S
C141 C142 1.384 . S
C141 C143 1.384 . S
C141 H166 0.931 . S
C142 C141 1.384 . S
C142 C145 1.382 . S
C143 C141 1.384 . S
C143 C144 1.381 . S
C143 H167 0.930 . S
C144 C143 1.381 . S
C144 C146 1.381 . S
C144 C147 1.487 . S
C145 C142 1.382 . S
C145 C146 1.387 . S
C145 H168 0.930 . S
C146 C144 1.381 . S
C146 C145 1.387 . S
C146 H169 0.931 . S
C147 C140 1.399 . S
C147 C144 1.487 . S
C147 N179 1.343 . S
C148 C149 1.384 . S
C148 C150 1.384 . S
C148 H170 0.931 . S
C149 C148 1.384 . S
C149 C152 1.382 . S
C150 C148 1.384 . S
C150 C151 1.381 . S
C150 H171 0.930 . S
C151 C150 1.381 . S
C151 C153 1.381 . S
C151 C154 1.487 . S
C152 C149 1.382 . S
C152 C153 1.387 . S
C152 H172 0.930 . S
C153 C151 1.381 . S
C153 C152 1.387 . S
C153 H173 0.931 . S
C154 C151 1.487 . S
C154 C161 1.399 . S
C154 N179 1.343 . S
C155 C156 1.384 . S
C155 C157 1.384 . S
C155 H174 0.931 . S
C156 C155 1.384 . S
C156 C159 1.382 . S
C157 C155 1.384 . S
C157 C158 1.381 . S
C157 H175 0.930 . S
C158 C157 1.381 . S
C158 C160 1.381 . S
C158 C161 1.487 . S
C159 C156 1.382 . S
C159 C160 1.387 . S
C159 H176 0.930 . S
C160 C158 1.381 . S
C160 C159 1.387 . S
C160 H177 0.931 . S
C161 C154 1.399 . S
C161 C158 1.487 . S
C161 N178 1.343 . S
H162 C134 0.931 . S
H163 C136 0.930 . S
H164 C138 0.930 . S
H165 C139 0.931 . S
H166 C141 0.931 . S
H167 C143 0.930 . S
H168 C145 0.930 . S
H169 C146 0.931 . S
H170 C148 0.931 . S
H171 C150 0.930 . S
H172 C152 0.930 . S
H173 C153 0.931 . S
H174 C155 0.931 . S
H175 C157 0.930 . S
H176 C159 0.930 . S
H177 C160 0.931 . S
N178 C140 1.343 . S
N178 C161 1.343 . S
N179 C147 1.343 . S
N179 C154 1.343 . S
C180 C181 1.363 . S
C180 C186 1.379 . S
C180 N188 1.356 . S
C181 C180 1.363 . S
C181 C187 1.363 1_455 S
C182 C183 1.363 1_655 S
C182 C187 1.379 . S
C182 N189 1.356 . S
C183 C182 1.363 1_455 S
C183 C186 1.363 . S
N184 C186 1.356 . S
N184 H196 0.984 . S
N184 H197 0.985 . S
N185 C187 1.356 . S
N185 H190 0.984 . S
N185 H191 0.985 . S
C186 C180 1.379 . S
C186 C183 1.363 . S
C186 N184 1.356 . S
C187 C181 1.363 1_655 S
C187 C182 1.379 . S
C187 N185 1.356 . S
N188 C180 1.356 . S
N188 H194 0.984 . S
N188 H195 0.984 . S
N189 C182 1.356 . S
N189 H192 0.984 . S
N189 H193 0.985 . S
H190 N185 0.984 . S
H191 N185 0.985 . S
H192 N189 0.984 . S
H193 N189 0.985 . S
H194 N188 0.984 . S
H195 N188 0.984 . S
H196 N184 0.984 . S
H197 N184 0.985 . S
C198 C199 1.363 . S
C198 C204 1.379 . S
C198 N206 1.356 1_545 S
C199 C198 1.363 . S
C199 C205 1.363 . S
C200 C201 1.363 . S
C200 C205 1.379 . S
C200 N207 1.356 . S
C201 C200 1.363 . S
C201 C204 1.363 . S
N202 C204 1.356 1_565 S
N202 H214 0.984 . S
N202 H215 0.985 . S
N203 C205 1.356 . S
N203 H208 0.984 . S
N203 H209 0.985 . S
C204 C198 1.379 . S
C204 C201 1.363 . S
C204 N202 1.356 1_545 S
C205 C199 1.363 . S
C205 C200 1.379 . S
C205 N203 1.356 . S
N206 C198 1.356 1_565 S
N206 H212 0.984 . S
N206 H213 0.984 . S
N207 C200 1.356 . S
N207 H210 0.984 . S
N207 H211 0.985 . S
H208 N203 0.984 . S
H209 N203 0.985 . S
H210 N207 0.984 . S
H211 N207 0.985 . S
H212 N206 0.984 . S
H213 N206 0.984 . S
H214 N202 0.984 . S
H215 N202 0.985 . S
C216 C217 1.363 . S
C216 C222 1.379 . S
C216 N224 1.356 . S
C217 C216 1.363 . S
C217 C223 1.363 . S
C218 C219 1.363 . S
C218 C223 1.379 . S
C218 N225 1.356 . S
C219 C218 1.363 . S
C219 C222 1.363 . S
N220 C222 1.356 . S
N220 H232 0.984 . S
N220 H233 0.985 . S
N221 C223 1.356 . S
N221 H226 0.984 1_565 S
N221 H227 0.986 . S
C222 C216 1.379 . S
C222 C219 1.363 . S
C222 N220 1.356 . S
C223 C217 1.363 . S
C223 C218 1.379 . S
C223 N221 1.356 . S
N224 C216 1.356 . S
N224 H230 0.984 . S
N224 H231 0.984 . S
N225 C218 1.356 . S
N225 H228 0.984 . S
N225 H229 0.985 . S
H226 N221 0.984 1_545 S
H227 N221 0.986 . S
H228 N225 0.984 . S
H229 N225 0.985 . S
H230 N224 0.984 . S
H231 N224 0.984 . S
H232 N220 0.984 . S
H233 N220 0.985 . S
C234 C235 1.363 . S
C234 C240 1.379 . S
C234 N242 1.356 1_565 S
C235 C234 1.363 . S
C235 C241 1.363 . S
C236 C237 1.363 . S
C236 C241 1.379 . S
C236 N243 1.356 1_455 S
C237 C236 1.363 . S
C237 C240 1.363 . S
N238 C240 1.356 . S
N238 H250 0.984 . S
N238 H251 0.985 . S
N239 C241 1.356 1_655 S
N239 H244 0.984 . S
N239 H245 0.985 . S
C240 C234 1.379 . S
C240 C237 1.363 . S
C240 N238 1.356 . S
C241 C235 1.363 . S
C241 C236 1.379 . S
C241 N239 1.356 1_455 S
N242 C234 1.356 1_545 S
N242 H248 0.984 . S
N242 H249 0.984 . S
N243 C236 1.356 1_655 S
N243 H246 0.984 1_655 S
N243 H247 0.985 . S
H244 N239 0.984 . S
H245 N239 0.985 . S
H246 N243 0.984 1_455 S
H247 N243 0.985 . S
H248 N242 0.984 . S
H249 N242 0.984 . S
H250 N238 0.984 . S
H251 N238 0.985 . S
C252 C253 1.363 . S
C252 C258 1.379 . S
C252 N260 1.356 1_545 S
C253 C252 1.363 . S
C253 C259 1.363 . S
C254 C255 1.363 . S
C254 C259 1.379 . S
C254 N261 1.356 . S
C255 C254 1.363 . S
C255 C258 1.363 . S
N256 C258 1.356 1_565 S
N256 H268 0.984 . S
N256 H269 0.985 . S
N257 C259 1.356 . S
N257 H262 0.984 . S
N257 H263 0.985 . S
C258 C252 1.379 . S
C258 C255 1.363 . S
C258 N256 1.356 1_545 S
C259 C253 1.363 . S
C259 C254 1.379 . S
C259 N257 1.356 . S
N260 C252 1.356 1_565 S
N260 H266 0.984 . S
N260 H267 0.984 . S
N261 C254 1.356 . S
N261 H264 0.984 . S
N261 H265 0.985 . S
H262 N257 0.984 . S
H263 N257 0.985 . S
H264 N261 0.984 . S
H265 N261 0.985 . S
H266 N260 0.984 . S
H267 N260 0.984 . S
H268 N256 0.984 . S
H269 N256 0.985 . S
C270 C271 1.363 . S
C270 C276 1.379 . S
C270 N278 1.356 . S
C271 C270 1.363 . S
C271 C277 1.363 . S
C272 C273 1.363 . S
C272 C277 1.379 . S
C272 N279 1.356 . S
C273 C272 1.363 . S
C273 C276 1.363 . S
N274 C276 1.356 . S
N274 H286 0.984 . S
N274 H287 0.985 . S
N275 C277 1.356 . S
N275 H280 0.984 . S
N275 H281 0.985 . S
C276 C270 1.379 . S
C276 C273 1.363 . S
C276 N274 1.356 . S
C277 C271 1.363 . S
C277 C272 1.379 . S
C277 N275 1.356 . S
N278 C270 1.356 . S
N278 H284 0.984 . S
N278 H285 0.984 . S
N279 C272 1.356 . S
N279 H282 0.984 . S
N279 H283 0.985 . S
H280 N275 0.984 . S
H281 N275 0.985 . S
H282 N279 0.984 . S
H283 N279 0.985 . S
H284 N278 0.984 . S
H285 N278 0.984 . S
H286 N274 0.984 . S
H287 N274 0.985 . S
C288 C289 1.363 . S
C288 C294 1.379 . S
C288 N296 1.356 . S
C289 C288 1.363 . S
C289 C295 1.363 . S
C290 C291 1.363 . S
C290 C295 1.379 . S
C290 N297 1.356 1_545 S
C291 C290 1.363 . S
C291 C294 1.363 . S
N292 C294 1.356 . S
N292 H304 0.984 . S
N292 H305 0.985 . S
N293 C295 1.356 1_565 S
N293 H298 0.984 . S
N293 H299 0.985 . S
C294 C288 1.379 . S
C294 C291 1.363 . S
C294 N292 1.356 . S
C295 C289 1.363 . S
C295 C290 1.379 . S
C295 N293 1.356 1_545 S
N296 C288 1.356 . S
N296 H302 0.984 . S
N296 H303 0.984 . S
N297 C290 1.356 1_565 S
N297 H300 0.984 . S
N297 H301 0.985 . S
H298 N293 0.984 . S
H299 N293 0.985 . S
H300 N297 0.984 . S
H301 N297 0.985 . S
H302 N296 0.984 . S
H303 N296 0.984 . S
H304 N292 0.984 . S
H305 N292 0.985 . S
C306 C307 1.363 . S
C306 C312 1.379 . S
C306 N314 1.356 1_556 S
C307 C306 1.363 . S
C307 C313 1.363 . S
C308 C309 1.363 . S
C308 C313 1.379 . S
C308 N315 1.356 . S
C309 C308 1.363 . S
C309 C312 1.363 . S
N310 C312 1.356 . S
N310 H322 0.984 . S
N310 H323 0.985 . S
N311 C313 1.356 1_545 S
N311 H316 0.984 1_556 S
N311 H317 0.985 . S
C312 C306 1.379 . S
C312 C309 1.363 . S
C312 N310 1.356 . S
C313 C307 1.363 . S
C313 C308 1.379 . S
C313 N311 1.356 1_565 S
N314 C306 1.356 1_554 S
N314 H320 0.984 . S
N314 H321 0.984 . S
N315 C308 1.356 . S
N315 H318 0.984 . S
N315 H319 0.985 . S
H316 N311 0.984 1_554 S
H317 N311 0.985 . S
H318 N315 0.984 . S
H319 N315 0.985 . S
H320 N314 0.984 . S
H321 N314 0.984 . S
H322 N310 0.984 . S
H323 N310 0.985 . S
C324 C325 1.363 . S
C324 C330 1.379 . S
C324 N332 1.356 . S
C325 C324 1.363 . S
C325 C331 1.363 1_455 S
C326 C327 1.363 . S
C326 C331 1.379 1_455 S
C326 N333 1.356 1_455 S
C327 C326 1.363 . S
C327 C330 1.363 . S
N328 C330 1.356 . S
N328 H340 0.984 . S
N328 H341 0.985 . S
N329 C331 1.356 . S
N329 H334 0.984 . S
N329 H335 0.985 . S
C330 C324 1.379 . S
C330 C327 1.363 . S
C330 N328 1.356 . S
C331 C325 1.363 1_655 S
C331 C326 1.379 1_655 S
C331 N329 1.356 . S
N332 C324 1.356 . S
N332 H338 0.984 . S
N332 H339 0.984 . S
N333 C326 1.356 1_655 S
N333 H336 0.984 . S
N333 H337 0.985 . S
H334 N329 0.984 . S
H335 N329 0.985 . S
H336 N333 0.984 . S
H337 N333 0.985 . S
H338 N332 0.984 . S
H339 N332 0.984 . S
H340 N328 0.984 . S
H341 N328 0.985 . S
C342 C343 1.363 . S
C342 C348 1.379 . S
C342 N350 1.356 . S
C343 C342 1.363 . S
C343 C349 1.363 . S
C344 C345 1.363 . S
C344 C349 1.379 . S
C344 N351 1.356 . S
C345 C344 1.363 . S
C345 C348 1.363 . S
N346 C348 1.356 . S
N346 H358 0.984 . S
N346 H359 0.985 . S
N347 C349 1.356 . S
N347 H352 0.984 . S
N347 H353 0.985 . S
C348 C342 1.379 . S
C348 C345 1.363 . S
C348 N346 1.356 . S
C349 C343 1.363 . S
C349 C344 1.379 . S
C349 N347 1.356 . S
N350 C342 1.356 . S
N350 H356 0.984 . S
N350 H357 0.984 . S
N351 C344 1.356 . S
N351 H354 0.984 . S
N351 H355 0.985 . S
H352 N347 0.984 . S
H353 N347 0.985 . S
H354 N351 0.984 . S
H355 N351 0.985 . S
H356 N350 0.984 . S
H357 N350 0.984 . S
H358 N346 0.984 . S
H359 N346 0.985 . S
C360 C361 1.363 1_554 S
C360 C366 1.379 1_554 S
C360 N368 1.356 . S
C361 C360 1.363 1_556 S
C361 C367 1.363 . S
C362 C363 1.363 . S
C362 C367 1.379 . S
C362 N369 1.356 . S
C363 C362 1.363 . S
C363 C366 1.363 . S
N364 C366 1.356 . S
N364 H376 0.984 1_556 S
N364 H377 0.985 . S
N365 C367 1.356 . S
N365 H370 0.984 . S
N365 H371 0.985 . S
C366 C360 1.379 1_556 S
C366 C363 1.363 . S
C366 N364 1.356 . S
C367 C361 1.363 . S
C367 C362 1.379 . S
C367 N365 1.356 . S
N368 C360 1.356 . S
N368 H374 0.984 . S
N368 H375 0.984 . S
N369 C362 1.356 . S
N369 H372 0.984 . S
N369 H373 0.985 . S
H370 N365 0.984 . S
H371 N365 0.985 . S
H372 N369 0.984 . S
H373 N369 0.985 . S
H374 N368 0.984 . S
H375 N368 0.984 . S
H376 N364 0.984 1_554 S
H377 N364 0.985 . S
C378 C379 1.363 . S
C378 C384 1.379 . S
C378 N386 1.356 . S
C379 C378 1.363 . S
C379 C385 1.364 . S
C380 C381 1.363 . S
C380 C385 1.378 . S
C380 N387 1.356 1_455 S
C381 C380 1.363 . S
C381 C384 1.363 . S
N382 C384 1.356 . S
N382 H394 0.984 . S
N382 H395 0.985 . S
N383 C385 1.356 1_655 S
N383 H388 0.984 . S
N383 H389 0.985 . S
C384 C378 1.379 . S
C384 C381 1.363 . S
C384 N382 1.356 . S
C385 C379 1.364 . S
C385 C380 1.378 . S
C385 N383 1.356 1_455 S
N386 C378 1.356 . S
N386 H392 0.984 . S
N386 H393 0.984 . S
N387 C380 1.356 1_655 S
N387 H390 0.984 . S
N387 H391 0.985 . S
H388 N383 0.984 . S
H389 N383 0.985 . S
H390 N387 0.984 . S
H391 N387 0.985 . S
H392 N386 0.984 . S
H393 N386 0.984 . S
H394 N382 0.984 . S
H395 N382 0.985 . S
C183 C50 1.465 . S
C181 C0 1.463 . S
C199 C25 1.494 . S
C201 C89 1.493 . S
C217 C33 1.516 . S
C219 C156 1.520 . S
C235 C11 1.452 . S
C237 C57 1.452 . S
C255 C110 1.491 . S
C253 C14 1.485 . S
C271 C37 1.511 . S
C273 C135 1.516 . S
C291 C96 1.487 . S
C289 C28 1.483 . S
C307 C9 1.511 1_556 S
C309 C149 1.512 . S
C327 C64 1.539 . S
C325 C19 1.535 . S
C345 C103 1.493 . S
C343 C39 1.492 . S
C363 C142 1.513 . S
C361 C5 1.514 1_556 S
C379 C23 1.542 . S
C381 C43 1.551 . S
