# Generated by pormake.
# Topology anh, (6,3)-cn, num edge types: 1
# Building blocks:
#     Node 0, Type 0, BuildingBlock: CUKXOW_clean_sbu_0, # of connection points: 6
#     Node 1, Type 0, BuildingBlock: CUKXOW_clean_sbu_0, # of connection points: 6
#     Node 2, Type 0, BuildingBlock: CUKXOW_clean_sbu_0, # of connection points: 6
#     Node 3, Type 1, BuildingBlock: MIDCAF_clean_linker_0, # of connection points: 3
#     Node 4, Type 1, BuildingBlock: MIDCAF_clean_linker_0, # of connection points: 3
#     Node 5, Type 1, BuildingBlock: MIDCAF_clean_linker_0, # of connection points: 3
#     Node 6, Type 1, BuildingBlock: MIDCAF_clean_linker_0, # of connection points: 3
#     Node 7, Type 1, BuildingBlock: MIDCAF_clean_linker_0, # of connection points: 3
#     Node 8, Type 1, BuildingBlock: MIDCAF_clean_linker_0, # of connection points: 3
#     Edge 9, Type (0, 1), BuildingBlock: XIVTED_clean_linker_0, # of connection points: 2
#     Edge 10, Type (0, 1), BuildingBlock: XIVTED_clean_linker_0, # of connection points: 2
#     Edge 11, Type (0, 1), BuildingBlock: XIVTED_clean_linker_0, # of connection points: 2
#     Edge 12, Type (0, 1), BuildingBlock: XIVTED_clean_linker_0, # of connection points: 2
#     Edge 13, Type (0, 1), BuildingBlock: XIVTED_clean_linker_0, # of connection points: 2
#     Edge 14, Type (0, 1), BuildingBlock: XIVTED_clean_linker_0, # of connection points: 2
#     Edge 15, Type (0, 1), BuildingBlock: XIVTED_clean_linker_0, # of connection points: 2
#     Edge 16, Type (0, 1), BuildingBlock: XIVTED_clean_linker_0, # of connection points: 2
#     Edge 17, Type (0, 1), BuildingBlock: XIVTED_clean_linker_0, # of connection points: 2
#     Edge 18, Type (0, 1), BuildingBlock: XIVTED_clean_linker_0, # of connection points: 2
#     Edge 19, Type (0, 1), BuildingBlock: XIVTED_clean_linker_0, # of connection points: 2
#     Edge 20, Type (0, 1), BuildingBlock: XIVTED_clean_linker_0, # of connection points: 2
#     Edge 21, Type (0, 1), BuildingBlock: XIVTED_clean_linker_0, # of connection points: 2
#     Edge 22, Type (0, 1), BuildingBlock: XIVTED_clean_linker_0, # of connection points: 2
#     Edge 23, Type (0, 1), BuildingBlock: XIVTED_clean_linker_0, # of connection points: 2
#     Edge 24, Type (0, 1), BuildingBlock: XIVTED_clean_linker_0, # of connection points: 2
#     Edge 25, Type (0, 1), BuildingBlock: XIVTED_clean_linker_0, # of connection points: 2
#     Edge 26, Type (0, 1), BuildingBlock: XIVTED_clean_linker_0, # of connection points: 2
# Relax obj value: 0.134
# Max RMSD: 0.194
# Mean RMSD: 0.139
data_MOF--net-anh--node1-CUKXOW_clean_sbu_0--node2-MIDCAF_clean_linker_0--edge1-XIVTED_clean_linker_0
_symmetry_space_group_name_H-M    P1
_symmetry_Int_Tables_number       1
_symmetry_cell_setting            triclinic
loop_
_symmetry_equiv_pos_as_xyz
'x, y, z'
_cell_length_a     35.206631
_cell_length_b     34.310271
_cell_length_c     65.031418
_cell_angle_alpha  95.609307
_cell_angle_beta   90.221992
_cell_angle_gamma 115.21532
loop_
_atom_site_label
_atom_site_type_symbol
_atom_site_fract_x
_atom_site_fract_y
_atom_site_fract_z
_atom_type_partial_charge
Tb0 Tb 0.07432 0.51749 0.14644 0.0
C1 C 0.03673 0.47887 0.1879 0.0
Tb2 Tb 1.00886 0.41626 0.14551 0.0
O3 O 0.02571 0.5427 0.1461 0.0
O4 O 1.00965 0.47805 0.14609 0.0
O5 O 0.06746 0.50997 0.17918 0.0
C6 C 0.93721 0.34485 0.14438 0.0
O7 O 1.00847 0.44254 0.17747 0.0
C8 C 0.08963 0.42989 0.14629 0.0
C9 C 0.04475 0.45573 0.10401 0.0
O10 O 0.96965 0.35437 0.15683 0.0
O11 O 0.94538 0.37523 0.13234 0.0
O12 O 0.05825 0.39178 0.14622 0.0
O13 O 0.07322 0.4559 0.14587 0.0
O14 O 0.01396 0.42452 0.11269 0.0
O15 O 0.07399 0.49134 0.11449 0.0
C16 C 0.14696 0.58793 0.14984 0.0
O17 O 0.11605 0.58044 0.1367 0.0
O18 O 0.13679 0.55591 0.16103 0.0
C19 C 0.99392 0.50485 0.14609 0.0
Tb20 Tb 0.50327 0.00884 0.50874 0.0
C21 C 0.54402 0.04673 0.46824 0.0
Tb22 Tb 0.59512 0.07822 0.51182 0.0
O23 O 0.48032 0.05537 0.50009 0.0
O24 O 0.5355 0.07596 0.51851 0.0
O25 O 0.51416 0.01348 0.47606 0.0
C26 C 0.6663 0.14986 0.511 0.0
O27 O 0.57596 0.07755 0.4797 0.0
C28 C 0.58558 0.99841 0.5121 0.0
C29 C 0.55441 0.04141 0.55227 0.0
O30 O 0.66021 0.11132 0.50316 0.0
O31 O 0.6323 0.14814 0.51933 0.0
O32 O 0.61862 0.03182 0.5202 0.0
O33 O 0.56276 0.01104 0.50228 0.0
O34 O 0.5833 0.07543 0.54446 0.0
O35 O 0.52368 0.00916 0.54071 0.0
C36 C 0.43256 0.9362 0.50787 0.0
O37 O 0.43977 0.97228 0.51912 0.0
O38 O 0.4649 0.94121 0.4971 0.0
C39 C 0.51289 0.0887 0.50862 0.0
Tb40 Tb 0.5207 0.53642 0.8355 0.0
C41 C 0.57496 0.54703 0.87673 0.0
Tb42 Tb 0.61526 0.55003 0.83364 0.0
O43 O 0.492 0.46592 0.83896 0.0
O44 O 0.55554 0.50131 0.83688 0.0
O45 O 0.54354 0.55266 0.86802 0.0
C46 C 0.68196 0.53595 0.82422 0.0
O47 O 0.60379 0.53972 0.86593 0.0
C48 C 0.60167 0.6199 0.83786 0.0
C49 C 0.56002 0.53315 0.79174 0.0
O50 O 0.68327 0.573 0.83178 0.0
O51 O 0.64337 0.50686 0.82241 0.0
O52 O 0.63623 0.6192 0.84458 0.0
O53 O 0.57926 0.58393 0.82784 0.0
O54 O 0.59622 0.53876 0.80078 0.0
O55 O 0.52762 0.53327 0.80215 0.0
C56 C 0.46023 0.56284 0.83683 0.0
O57 O 0.45884 0.52914 0.8252 0.0
O58 O 0.49476 0.58034 0.84839 0.0
C59 C 0.52821 0.4639 0.83888 0.0
C60 C 0.404 0.87471 0.21111 0.0
C61 C 0.39843 0.86565 0.18951 0.0
C62 C 0.42354 0.89736 0.1771 0.0
C63 C 0.45424 0.93717 0.1862 0.0
H64 H 0.58318 0.03166 0.1805 0.0
H65 H 0.64425 0.07841 0.16266 0.0
H66 H 0.66174 0.18664 0.20758 0.0
H67 H 0.60124 0.13993 0.22571 0.0
H68 H 0.5769 0.10654 0.27377 0.0
H69 H 0.58006 0.11735 0.31153 0.0
H70 H 0.47437 0.99239 0.31233 0.0
H71 H 0.4703 0.98222 0.27497 0.0
H72 H 0.43751 0.91998 0.2369 0.0
H73 H 0.38462 0.85116 0.22107 0.0
H74 H 0.41986 0.89111 0.16039 0.0
H75 H 0.4734 0.9609 0.17628 0.0
N76 N 0.52284 0.0155 0.20683 0.0
N77 N 0.55273 0.0627 0.23718 0.0
N78 N 0.49264 0.99779 0.23859 0.0
C79 C 0.55304 0.05313 0.21639 0.0
C80 C 0.52255 0.03503 0.2484 0.0
C81 C 0.49232 0.98778 0.21788 0.0
C82 C 0.58755 0.08212 0.20456 0.0
C83 C 0.59975 0.06554 0.18644 0.0
C84 C 0.63473 0.09215 0.17627 0.0
C85 C 0.65752 0.13598 0.18378 0.0
C86 C 0.64443 0.15297 0.20143 0.0
C87 C 0.61001 0.12619 0.21184 0.0
C88 C 0.52343 0.04346 0.27125 0.0
C89 C 0.55409 0.0816 0.28202 0.0
C90 C 0.55606 0.08769 0.30368 0.0
C91 C 0.52748 0.05575 0.31502 0.0
C92 C 0.49644 0.01808 0.30418 0.0
C93 C 0.49432 0.0121 0.28264 0.0
C94 C 0.45988 0.94608 0.20787 0.0
C95 C 0.4342 0.91441 0.22018 0.0
C96 C 0.50452 0.3953 0.51371 0.0
C97 C 0.54264 0.39207 0.51054 0.0
C98 C 0.58055 0.43001 0.51341 0.0
C99 C 0.58049 0.46969 0.52077 0.0
H100 H 0.574 0.61258 0.50746 0.0
H101 H 0.57811 0.68083 0.49657 0.0
H102 H 0.52039 0.70141 0.55253 0.0
H103 H 0.51626 0.63414 0.56331 0.0
H104 H 0.56732 0.60773 0.60312 0.0
H105 H 0.56966 0.60453 0.6404 0.0
H106 H 0.5199 0.46507 0.63034 0.0
H107 H 0.51781 0.46803 0.59297 0.0
H108 H 0.47506 0.43597 0.52502 0.0
H109 H 0.47483 0.36668 0.51191 0.0
H110 H 0.61037 0.42862 0.51093 0.0
H111 H 0.61019 0.49789 0.52425 0.0
N112 N 0.54472 0.54523 0.53088 0.0
N113 N 0.5437 0.57592 0.5647 0.0
N114 N 0.5419 0.50683 0.55936 0.0
C115 C 0.54462 0.57871 0.544 0.0
C116 C 0.54244 0.54022 0.5725 0.0
C117 C 0.54317 0.50918 0.53867 0.0
C118 C 0.54502 0.61807 0.53628 0.0
C119 C 0.56184 0.63156 0.51727 0.0
C120 C 0.56441 0.67065 0.51111 0.0
C121 C 0.54943 0.69634 0.52368 0.0
C122 C 0.53171 0.68212 0.54238 0.0
C123 C 0.52969 0.64365 0.54863 0.0
C124 C 0.54248 0.53813 0.59509 0.0
C125 C 0.55669 0.57634 0.60882 0.0
C126 C 0.55827 0.57459 0.63014 0.0
C127 C 0.54506 0.53458 0.63816 0.0
C128 C 0.53007 0.49629 0.6245 0.0
C129 C 0.52911 0.49806 0.60315 0.0
C130 C 0.54257 0.47202 0.52527 0.0
C131 C 0.50455 0.43492 0.52116 0.0
C132 C 0.92604 0.46476 0.83918 0.0
C133 C 0.92945 0.48059 0.81979 0.0
C134 C 0.96946 0.50086 0.81188 0.0
C135 C 1.00542 0.50956 0.82408 0.0
H136 H 0.12821 0.59703 0.82959 0.0
H137 H 0.19838 0.63556 0.81731 0.0
H138 H 0.25161 0.64709 0.87887 0.0
H139 H 0.18203 0.61002 0.89119 0.0
H140 H 0.12542 0.55988 0.92513 0.0
H141 H 0.12054 0.53787 0.95966 0.0
H142 H 1.0037 0.42641 0.94084 0.0
H143 H 1.00785 0.44927 0.90626 0.0
H144 H 0.9581 0.46304 0.86673 0.0
H145 H 0.8958 0.4492 0.84587 0.0
H146 H 0.97307 0.51253 0.79679 0.0
H147 H 0.03587 0.52766 0.81803 0.0
N148 N 0.07561 0.54744 0.8537 0.0
N149 N 0.10592 0.55281 0.88655 0.0
N150 N 0.03649 0.50211 0.87806 0.0
C151 C 0.10907 0.56644 0.86747 0.0
C152 C 0.06981 0.52068 0.89197 0.0
C153 C 0.03922 0.51532 0.85886 0.0
C154 C 0.14966 0.59885 0.86119 0.0
C155 C 0.15483 0.60892 0.84063 0.0
C156 C 0.19505 0.63114 0.83358 0.0
C157 C 0.23067 0.64333 0.84694 0.0
C158 C 0.22501 0.6382 0.86807 0.0
C159 C 0.18491 0.61621 0.87512 0.0
C160 C 0.06698 0.50641 0.91289 0.0
C161 C 0.0987 0.53057 0.92826 0.0
C162 C 0.09608 0.51772 0.94808 0.0
C163 C 0.06187 0.48017 0.95302 0.0
C164 C 0.03025 0.45575 0.93762 0.0
C165 C 0.03272 0.4688 0.91777 0.0
C166 C 1.00196 0.4978 0.84435 0.0
C167 C 0.96194 0.47314 0.85131 0.0
C168 C 0.1597 0.67147 0.44912 0.0
C169 C 0.16225 0.68062 0.47071 0.0
C170 C 0.12695 0.65845 0.48199 0.0
C171 C 0.09004 0.62656 0.4718 0.0
H172 H 0.97403 0.51755 0.48048 0.0
H173 H 0.92504 0.4569 0.49796 0.0
H174 H 0.88155 0.37949 0.43894 0.0
H175 H 0.92965 0.43931 0.42149 0.0
H176 H 0.94919 0.4877 0.38081 0.0
H177 H 0.94824 0.47718 0.34319 0.0
H178 H 0.07357 0.58076 0.34446 0.0
H179 H 0.07408 0.59221 0.38186 0.0
H180 H 0.12249 0.6339 0.4223 0.0
H181 H 0.18629 0.68861 0.44004 0.0
H182 H 0.12825 0.66512 0.49867 0.0
H183 H 0.06346 0.60935 0.48086 0.0
N184 N 0.01992 0.55198 0.44937 0.0
N185 N 0.98401 0.51561 0.41777 0.0
N186 N 0.04645 0.57867 0.41808 0.0
C187 C 0.98683 0.51848 0.43875 0.0
C188 C 0.01358 0.54565 0.40732 0.0
C189 C 0.04987 0.58226 0.43906 0.0
C190 C 0.95592 0.4833 0.44959 0.0
C191 C 0.95387 0.48764 0.47125 0.0
C192 C 0.92584 0.45308 0.48126 0.0
C193 C 0.90002 0.41351 0.46978 0.0
C194 C 0.90162 0.40948 0.44817 0.0
C195 C 0.92904 0.44397 0.43818 0.0
C196 C 1.01175 0.54074 0.38441 0.0
C197 C 0.97642 0.50847 0.37305 0.0
C198 C 0.97596 0.50225 0.35148 0.0
C199 C 1.01088 0.528 0.34078 0.0
C200 C 0.04585 0.56076 0.35214 0.0
C201 C 0.04622 0.56717 0.37366 0.0
C202 C 0.08777 0.61701 0.45016 0.0
C203 C 0.12292 0.64026 0.43896 0.0
C204 C 0.6032 0.19519 0.81821 0.0
C205 C 0.57361 0.19413 0.83284 0.0
C206 C 0.54881 0.15443 0.84049 0.0
C207 C 0.55207 0.11629 0.83282 0.0
H208 H 0.58972 0.99525 0.84149 0.0
H209 H 0.58933 0.92978 0.85394 0.0
H210 H 0.52987 0.85651 0.79564 0.0
H211 H 0.52952 0.9208 0.78354 0.0
H212 H 0.53283 0.96949 0.7434 0.0
H213 H 0.52961 0.96927 0.70599 0.0
H214 H 0.61184 0.10654 0.71262 0.0
H215 H 0.6129 0.10697 0.75 0.0
H216 H 0.62752 0.15885 0.79828 0.0
H217 H 0.62253 0.22497 0.81181 0.0
H218 H 0.52595 0.15262 0.8519 0.0
H219 H 0.53112 0.08582 0.83816 0.0
N220 N 0.56984 0.04035 0.81434 0.0
N221 N 0.56585 0.003 0.78146 0.0
N222 N 0.57815 0.0758 0.78434 0.0
C223 C 0.56488 0.00328 0.80238 0.0
C224 C 0.5726 0.03908 0.77237 0.0
C225 C 0.57648 0.07679 0.80522 0.0
C226 C 0.5599 0.96339 0.81148 0.0
C227 C 0.57582 0.9649 0.83156 0.0
C228 C 0.57594 0.92748 0.8386 0.0
C229 C 0.55966 0.88778 0.82579 0.0
C230 C 0.54217 0.88618 0.80609 0.0
C231 C 0.54231 0.92335 0.79906 0.0
C232 C 0.57288 0.0383 0.74962 0.0
C233 C 0.5503 0.99954 0.73681 0.0
C234 C 0.54867 0.99943 0.71532 0.0
C235 C 0.57025 0.03795 0.70613 0.0
C236 C 0.59386 0.07643 0.71905 0.0
C237 C 0.59478 0.07668 0.74052 0.0
C238 C 0.57965 0.11718 0.81714 0.0
C239 C 0.60598 0.1572 0.81039 0.0
C240 C 0.66638 0.44002 0.12524 0.0
C241 C 0.69287 0.46905 0.14154 0.0
C242 C 0.67783 0.49572 0.15347 0.0
C243 C 0.63837 0.49482 0.14856 0.0
H244 H 0.49017 0.54616 0.13127 0.0
H245 H 0.42072 0.54057 0.13955 0.0
H246 H 0.37778 0.40317 0.14306 0.0
H247 H 0.44835 0.40993 0.13589 0.0
H248 H 0.49135 0.49421 0.06656 0.0
H249 H 0.49731 0.50747 0.03037 0.0
H250 H 0.62625 0.52466 0.03334 0.0
H251 H 0.61994 0.51006 0.06929 0.0
H252 H 0.60924 0.41886 0.10668 0.0
H253 H 0.67678 0.41931 0.11554 0.0
H254 H 0.69714 0.51828 0.16624 0.0
H255 H 0.62882 0.51742 0.15727 0.0
N256 N 0.54415 0.47324 0.13294 0.0
N257 N 0.51765 0.48994 0.10331 0.0
N258 N 0.58108 0.48357 0.10229 0.0
C259 C 0.51358 0.4808 0.12326 0.0
C260 C 0.55119 0.49135 0.09271 0.0
C261 C 0.57824 0.47475 0.12226 0.0
C262 C 0.47504 0.47872 0.13339 0.0
C263 C 0.46618 0.5151 0.13456 0.0
C264 C 0.42589 0.51157 0.1389 0.0
C265 C 0.39262 0.47118 0.14164 0.0
C266 C 0.40217 0.43503 0.14132 0.0
C267 C 0.44285 0.43881 0.13731 0.0
C268 C 0.55508 0.50083 0.07086 0.0
C269 C 0.52102 0.50091 0.05953 0.0
C270 C 0.52452 0.50878 0.03877 0.0
C271 C 0.56224 0.51705 0.02887 0.0
C272 C 0.59647 0.51761 0.04032 0.0
C273 C 0.59289 0.50945 0.06101 0.0
C274 C 0.61332 0.46763 0.13145 0.0
C275 C 0.62748 0.43966 0.12017 0.0
H276 H 0.15767 0.50222 0.13568 0.0
H277 H 0.32786 0.41368 0.16295 0.0
H278 H 0.12496 0.37777 0.15738 0.0
H279 H 0.35441 0.5178 0.12489 0.0
H280 H 0.2554 0.40506 0.16464 0.0
H281 H 0.23177 0.51399 0.13553 0.0
C282 C 0.16614 0.47766 0.14068 0.0
C283 C 0.13508 0.43913 0.14673 0.0
C284 C 0.27719 0.42991 0.15598 0.0
C285 C 0.21982 0.45212 0.14647 0.0
C286 C 0.31878 0.43476 0.15488 0.0
C287 C 0.34813 0.46657 0.14372 0.0
C288 C 0.26435 0.45723 0.14603 0.0
C289 C 0.33379 0.49331 0.13404 0.0
C290 C 0.20839 0.4842 0.14043 0.0
C291 C 0.14782 0.40799 0.15262 0.0
N292 N 0.29323 0.48807 0.13545 0.0
N293 N 0.18901 0.41519 0.15242 0.0
H294 H 0.68094 0.23333 0.52425 0.0
H295 H 0.89215 0.33087 0.46377 0.0
H296 H 0.73818 0.15646 0.49324 0.0
H297 H 0.84284 0.41088 0.49874 0.0
H298 H 0.83918 0.26715 0.47728 0.0
H299 H 0.7427 0.29927 0.5179 0.0
C300 C 0.70676 0.23043 0.51631 0.0
C301 C 0.70453 0.18962 0.50909 0.0
C302 C 0.84005 0.29861 0.4822 0.0
C303 C 0.77483 0.26446 0.5017 0.0
C304 C 0.87023 0.33494 0.47445 0.0
C305 C 0.8714 0.37596 0.47999 0.0
C306 C 0.81044 0.30321 0.49542 0.0
C307 C 0.84282 0.37969 0.49411 0.0
C308 C 0.74194 0.26798 0.51269 0.0
C309 C 0.73865 0.18741 0.49892 0.0
N310 N 0.81304 0.34361 0.50115 0.0
N311 N 0.77226 0.22433 0.49538 0.0
H312 H 0.537 0.62751 0.81826 0.0
H313 H 0.62568 0.88306 0.84658 0.0
H314 H 0.64726 0.70063 0.85862 0.0
H315 H 0.50156 0.80273 0.81895 0.0
H316 H 0.63406 0.8175 0.85216 0.0
H317 H 0.52355 0.69171 0.8188 0.0
C318 C 0.55811 0.65701 0.82747 0.0
C319 C 0.59299 0.6586 0.83864 0.0
C320 C 0.60483 0.81427 0.84507 0.0
C321 C 0.57856 0.73292 0.83882 0.0
C322 C 0.59988 0.85173 0.84201 0.0
C323 C 0.56303 0.84857 0.83203 0.0
C324 C 0.57283 0.77333 0.83799 0.0
C325 C 0.53092 0.80691 0.82626 0.0
C326 C 0.55053 0.69378 0.82771 0.0
C327 C 0.61991 0.69802 0.84986 0.0
N328 N 0.53674 0.77108 0.82912 0.0
N329 N 0.61231 0.73374 0.84956 0.0
H330 H 0.92279 0.42901 0.15053 0.0
H331 H 0.76574 0.5439 0.14983 0.0
H332 H 0.96225 0.56387 0.14315 0.0
H333 H 0.72139 0.40505 0.14006 0.0
H334 H 0.83803 0.55157 0.15192 0.0
H335 H 0.84925 0.41907 0.15041 0.0
C336 C 0.91602 0.45633 0.14859 0.0
C337 C 0.9488 0.49706 0.14635 0.0
C338 C 0.81252 0.51936 0.14942 0.0
C339 C 0.86475 0.48648 0.14699 0.0
C340 C 0.77105 0.51492 0.14843 0.0
C341 C 0.73704 0.47373 0.14476 0.0
C342 C 0.82054 0.48239 0.14694 0.0
C343 C 0.74642 0.4375 0.14272 0.0
C344 C 0.87402 0.45079 0.14872 0.0
C345 C 0.9381 0.53176 0.14473 0.0
N346 N 0.78709 0.44265 0.14384 0.0
N347 N 0.89728 0.52572 0.14512 0.0
H348 H 0.35784 0.9235 0.52512 0.0
H349 H 0.24039 0.68498 0.46564 0.0
H350 H 0.41862 0.85798 0.48778 0.0
H351 H 0.17469 0.75044 0.4989 0.0
H352 H 0.30715 0.74432 0.47843 0.0
H353 H 0.29165 0.85726 0.52015 0.0
C354 C 0.35726 0.89502 0.51605 0.0
C355 C 0.3934 0.89613 0.50663 0.0
C356 C 0.27824 0.7457 0.48314 0.0
C357 C 0.31838 0.82069 0.50094 0.0
C358 C 0.24016 0.71181 0.47583 0.0
C359 C 0.20216 0.71326 0.48102 0.0
C360 C 0.27842 0.78162 0.49558 0.0
C361 C 0.20344 0.7483 0.49453 0.0
C362 C 0.31959 0.85732 0.51322 0.0
C363 C 0.39126 0.85852 0.49511 0.0
N364 N 0.24107 0.78153 0.50114 0.0
N365 N 0.35433 0.82244 0.49249 0.0
H366 H 0.60174 0.45932 0.84896 0.0
H367 H 0.49823 0.19937 0.8361 0.0
H368 H 0.47007 0.37958 0.83413 0.0
H369 H 0.63208 0.27883 0.84138 0.0
H370 H 0.48664 0.26506 0.84013 0.0
H371 H 0.61291 0.39383 0.8502 0.0
C372 C 0.57532 0.428 0.84566 0.0
C373 C 0.53522 0.42481 0.84077 0.0
C374 C 0.51856 0.26814 0.84059 0.0
C375 C 0.54729 0.34961 0.8429 0.0
C376 C 0.52521 0.23059 0.83851 0.0
C377 C 0.56622 0.23349 0.8383 0.0
C378 C 0.55314 0.30904 0.84256 0.0
C379 C 0.59992 0.27499 0.84117 0.0
C380 C 0.58156 0.39059 0.84663 0.0
C381 C 0.50162 0.38342 0.8377 0.0
N382 N 0.59265 0.31105 0.84306 0.0
N383 N 0.50842 0.34744 0.8387 0.0
H384 H 0.51381 0.9288 0.51918 0.0
H385 H 0.6182 0.76149 0.50942 0.0
H386 H 0.64366 0.96603 0.50632 0.0
H387 H 0.49016 0.72805 0.52558 0.0
H388 H 0.62667 0.83474 0.50467 0.0
H389 H 0.50304 0.85353 0.51847 0.0
C390 C 0.53966 0.92077 0.51557 0.0
C391 C 0.5791 0.95312 0.51201 0.0
C392 C 0.59663 0.81125 0.5091 0.0
C393 C 0.56796 0.86748 0.51211 0.0
C394 C 0.59169 0.76937 0.51164 0.0
C395 C 0.55352 0.7388 0.51807 0.0
C396 C 0.5631 0.82251 0.51295 0.0
C397 C 0.52031 0.75083 0.52092 0.0
C398 C 0.53383 0.87794 0.51553 0.0
C399 C 0.61259 0.9417 0.50891 0.0
N400 N 0.52595 0.79175 0.51845 0.0
N401 N 0.60627 0.89972 0.50897 0.0
H402 H 0.76323 0.59539 0.82367 0.0
H403 H 0.92838 0.54843 0.80132 0.0
H404 H 0.68273 0.45881 0.81053 0.0
H405 H 0.84649 0.42067 0.81682 0.0
H406 H 0.86736 0.5622 0.79533 0.0
H407 H 0.82367 0.58129 0.81479 0.0
C408 C 0.75836 0.56248 0.81861 0.0
C409 C 0.71827 0.52815 0.81796 0.0
C410 C 0.86267 0.53114 0.80005 0.0
C411 C 0.78689 0.51164 0.80714 0.0
C412 C 0.89753 0.52277 0.80302 0.0
C413 C 0.8927 0.48371 0.81023 0.0
C414 C 0.82287 0.50058 0.8047 0.0
C415 C 0.85176 0.45182 0.812 0.0
C416 C 0.79277 0.55443 0.8132 0.0
C417 C 0.71337 0.4861 0.81131 0.0
N418 N 0.81839 0.46129 0.80969 0.0
N419 N 0.74746 0.4789 0.80643 0.0
H420 H 0.16992 0.66163 0.13059 0.0
H421 H 0.38401 0.78585 0.20011 0.0
H422 H 0.21444 0.60349 0.17516 0.0
H423 H 0.33932 0.84878 0.15812 0.0
H424 H 0.32578 0.71671 0.18789 0.0
H425 H 0.23507 0.72851 0.13734 0.0
C426 C 0.19359 0.66291 0.14167 0.0
C427 C 0.18683 0.62733 0.15249 0.0
C428 C 0.32874 0.7455 0.1812 0.0
C429 C 0.26105 0.70324 0.16027 0.0
C430 C 0.36195 0.78499 0.18821 0.0
C431 C 0.36611 0.82311 0.1803 0.0
C432 C 0.29917 0.74401 0.16623 0.0
C433 C 0.33717 0.82008 0.16462 0.0
C434 C 0.23068 0.701 0.14552 0.0
C435 C 0.21835 0.6304 0.16662 0.0
N436 N 0.30457 0.78121 0.15824 0.0
N437 N 0.25398 0.66776 0.17018 0.0
H438 H 0.56868 0.16083 0.53248 0.0
H439 H 0.48978 0.321 0.48458 0.0
H440 H 0.4742 0.11964 0.48265 0.0
H441 H 0.59519 0.36402 0.52875 0.0
H442 H 0.48518 0.24749 0.48258 0.0
H443 H 0.58056 0.236 0.53048 0.0
C444 C 0.55092 0.16776 0.52091 0.0
C445 C 0.52083 0.13421 0.50755 0.0
C446 C 0.50962 0.27312 0.49253 0.0
C447 C 0.53334 0.21983 0.50546 0.0
C448 C 0.51221 0.31506 0.49369 0.0
C449 C 0.54286 0.34873 0.50687 0.0
C450 C 0.5376 0.26464 0.5048 0.0
C451 C 0.57134 0.33924 0.5182 0.0
C452 C 0.55747 0.2106 0.51984 0.0
C453 C 0.4977 0.14469 0.49325 0.0
N454 N 0.56776 0.29806 0.51705 0.0
N455 N 0.50431 0.18657 0.49263 0.0
H456 H 0.3931 0.53567 0.80951 0.0
H457 H 0.31012 0.6993 0.86308 0.0
H458 H 0.46212 0.63551 0.85879 0.0
H459 H 0.24541 0.60224 0.81195 0.0
H460 H 0.37349 0.68856 0.8565 0.0
H461 H 0.34505 0.56921 0.80587 0.0
C462 C 0.39795 0.56461 0.81962 0.0
C463 C 0.43079 0.58234 0.8348 0.0
C464 C 0.34569 0.67045 0.84639 0.0
C465 C 0.37639 0.62119 0.83065 0.0
C466 C 0.30956 0.6767 0.8501 0.0
C467 C 0.27195 0.65057 0.83853 0.0
C468 C 0.3439 0.63778 0.83108 0.0
C469 C 0.27337 0.62276 0.82151 0.0
C470 C 0.37083 0.58404 0.81741 0.0
C471 C 0.43647 0.62038 0.84719 0.0
N472 N 0.30842 0.6163 0.81864 0.0
N473 N 0.40915 0.63832 0.84502 0.0
H474 H 0.91883 0.27156 0.16293 0.0
H475 H 0.67855 0.21572 0.17083 0.0
H476 H 0.86136 0.33787 0.13032 0.0
H477 H 0.7249 0.11884 0.17516 0.0
H478 H 0.74599 0.26332 0.15766 0.0
H479 H 0.84871 0.21669 0.16928 0.0
C480 C 0.89137 0.27416 0.15689 0.0
C481 C 0.89563 0.30905 0.14609 0.0
C482 C 0.74116 0.23142 0.16124 0.0
C483 C 0.81576 0.24731 0.15365 0.0
C484 C 0.70288 0.20444 0.16882 0.0
C485 C 0.69638 0.16347 0.17406 0.0
C486 C 0.77338 0.21764 0.15939 0.0
C487 C 0.72871 0.15016 0.17116 0.0
C488 C 0.85147 0.2429 0.16048 0.0
C489 C 0.85924 0.31121 0.13862 0.0
N490 N 0.76611 0.17744 0.16428 0.0
N491 N 0.8207 0.28107 0.14282 0.0
H492 H 0.98057 0.40852 0.07514 0.0
H493 H 0.12538 0.48526 0.97926 0.0
H494 H 0.11345 0.49279 0.08128 0.0
H495 H 0.99141 0.44658 0.97559 0.0
H496 H 0.12102 0.47264 0.01564 0.0
H497 H 0.98403 0.40693 0.03741 0.0
C498 C 1.01053 0.42623 0.06855 0.0
C499 C 0.04671 0.45119 0.08131 0.0
C500 C 0.09257 0.46663 0.00679 0.0
C501 C 0.05086 0.44921 0.03841 0.0
C502 C 0.09501 0.47402 0.98606 0.0
C503 C 0.05881 0.46772 0.9744 0.0
C504 C 0.0536 0.45245 0.01594 0.0
C505 C 0.02013 0.45178 0.98392 0.0
C506 C 1.01241 0.42544 0.04708 0.0
C507 C 0.08469 0.4736 0.072 0.0
N508 N 0.01858 0.44497 0.0042 0.0
N509 N 0.08576 0.47212 0.0511 0.0
H510 H 0.47599 0.00334 0.44112 0.0
H511 H 0.59895 0.09029 0.34073 0.0
H512 H 0.60568 0.09783 0.44434 0.0
H513 H 0.46348 0.03137 0.34189 0.0
H514 H 0.60319 0.09119 0.37832 0.0
H515 H 0.47194 0.00941 0.40416 0.0
C516 C 0.50366 0.02529 0.43406 0.0
C517 C 0.54128 0.05001 0.44584 0.0
C518 C 0.57258 0.07836 0.37032 0.0
C519 C 0.53681 0.05709 0.40351 0.0
C520 C 0.57009 0.07809 0.34886 0.0
C521 C 0.53077 0.06037 0.33803 0.0
C522 C 0.53551 0.0604 0.38101 0.0
C523 C 0.49449 0.04445 0.34947 0.0
C524 C 0.50124 0.02894 0.41298 0.0
C525 C 0.57602 0.07819 0.43586 0.0
N526 N 0.49775 0.04448 0.37027 0.0
N527 N 0.57304 0.08075 0.41523 0.0
H528 H 0.48881 0.50313 0.76637 0.0
H529 H 0.61214 0.5814 0.66515 0.0
H530 H 0.62413 0.55647 0.76522 0.0
H531 H 0.48385 0.48411 0.66227 0.0
H532 H 0.61579 0.579 0.70257 0.0
H533 H 0.48489 0.50158 0.72868 0.0
C534 C 0.51767 0.5144 0.7582 0.0
C535 C 0.55687 0.53001 0.76895 0.0
C536 C 0.5869 0.55806 0.69374 0.0
C537 C 0.55255 0.52872 0.72598 0.0
C538 C 0.58474 0.55963 0.67246 0.0
C539 C 0.54763 0.53296 0.66071 0.0
C540 C 0.55149 0.53011 0.70336 0.0
C541 C 0.51309 0.50499 0.67083 0.0
C542 C 0.51537 0.51336 0.73671 0.0
C543 C 0.59323 0.54403 0.75757 0.0
N544 N 0.51573 0.50451 0.69165 0.0
N545 N 0.59021 0.54341 0.73671 0.0
H546 H 0.52286 0.96972 0.5733 0.0
H547 H 0.56966 0.10273 0.68449 0.0
H548 H 0.5902 0.10916 0.58245 0.0
H549 H 0.56416 0.97387 0.67531 0.0
H550 H 0.56647 0.10329 0.64711 0.0
H551 H 0.52657 0.96812 0.6109 0.0
C552 C 0.53828 0.99996 0.58322 0.0
C553 C 0.5563 0.03965 0.5748 0.0
C554 C 0.56606 0.07497 0.65334 0.0
C555 C 0.56017 0.03801 0.61759 0.0
C556 C 0.56818 0.07465 0.67472 0.0
C557 C 0.5676 0.03832 0.68327 0.0
C558 C 0.5625 0.03844 0.6403 0.0
C559 C 0.56417 0.00242 0.66958 0.0
C560 C 0.54056 0.99898 0.6046 0.0
C561 C 0.57613 0.07786 0.58831 0.0
N562 N 0.56157 0.00332 0.64878 0.0
N563 N 0.57725 0.07613 0.60906 0.0
H564 H 0.62401 0.52207 0.90006 0.0
H565 H 0.52902 0.56167 0.0075 0.0
H566 H 0.52885 0.57011 0.90523 0.0
H567 H 0.60333 0.48898 -0.0006 0.0
H568 H 0.53384 0.57151 0.97074 0.0
H569 H 0.6228 0.51717 0.93726 0.0
C570 C 0.60306 0.53191 0.90901 0.0
C571 C 0.57637 0.5464 0.89944 0.0
C572 C 0.54915 0.55349 0.97704 0.0
C573 C 0.57478 0.54069 0.9421 0.0
C574 C 0.54622 0.54763 -0.00198 0.0
C575 C 0.56571 0.52434 0.00663 0.0
C576 C 0.57189 0.53615 0.96455 0.0
C577 C 0.58828 0.50768 0.99359 0.0
C578 C 0.60227 0.5289 0.93026 0.0
C579 C 0.54982 0.55853 0.91189 0.0
N580 N 0.59071 0.51389 0.97324 0.0
N581 N 0.54967 0.55536 0.93256 0.0
H582 H 0.07721 0.55394 0.2137 0.0
H583 H 0.97999 0.44984 0.31647 0.0
H584 H 0.98687 0.42045 0.21346 0.0
H585 H 0.04374 0.5878 0.31299 0.0
H586 H 0.9848 0.43746 0.27914 0.0
H587 H 0.06912 0.5658 0.25065 0.0
C588 C 0.05576 0.52703 0.2214 0.0
C589 C 0.03271 0.48608 0.21042 0.0
C590 C 0.99755 0.47042 0.28656 0.0
C591 C 0.02328 0.49958 0.25281 0.0
C592 C 0.99458 0.47757 0.30786 0.0
C593 C 1.0116 0.51997 0.31796 0.0
C594 C 0.01797 0.50588 0.27527 0.0
C595 C 0.03084 0.55455 0.30598 0.0
C596 C 0.051 0.53393 0.24251 0.0
C597 C 1.00522 0.45257 0.22127 0.0
N598 N 0.03368 0.54672 0.28531 0.0
N599 N 1.00138 0.46003 0.2419 0.0
loop_
_geom_bond_atom_site_label_1
_geom_bond_atom_site_label_2
_geom_bond_distance
_geom_bond_site_symmetry_2
_ccdc_geom_bond_type
Tb0 O3 2.453 1_455 S
Tb0 O4 2.596 1_455 S
Tb0 O5 2.374 . S
Tb0 O13 2.343 . S
Tb0 O15 2.353 . S
Tb0 O17 2.427 . S
Tb0 O18 2.513 . S
C1 O5 1.251 . S
C1 O7 1.263 . S
Tb2 O4 2.343 1_455 S
Tb2 O7 2.353 . S
Tb2 O10 2.427 1_455 S
Tb2 O11 2.513 1_455 S
Tb2 O12 2.453 . S
Tb2 O13 2.596 . S
Tb2 O14 2.374 . S
O3 Tb0 2.453 1_655 S
O3 C19 1.245 . S
O4 Tb0 2.596 1_655 S
O4 Tb2 2.343 1_655 S
O4 C19 1.259 . S
O5 Tb0 2.374 . S
O5 C1 1.251 . S
C6 O10 1.275 . S
C6 O11 1.246 . S
O7 C1 1.263 . S
O7 Tb2 2.353 . S
C8 O12 1.245 . S
C8 O13 1.259 . S
C9 O14 1.250 . S
C9 O15 1.263 . S
O10 Tb2 2.427 1_655 S
O10 C6 1.275 . S
O11 Tb2 2.513 1_655 S
O11 C6 1.246 . S
O12 Tb2 2.453 . S
O12 C8 1.245 . S
O13 Tb0 2.343 . S
O13 Tb2 2.596 . S
O13 C8 1.259 . S
O14 Tb2 2.374 . S
O14 C9 1.250 . S
O15 Tb0 2.353 . S
O15 C9 1.263 . S
C16 O17 1.275 . S
C16 O18 1.246 . S
O17 Tb0 2.427 . S
O17 C16 1.275 . S
O18 Tb0 2.513 . S
O18 C16 1.246 . S
C19 O3 1.245 . S
C19 O4 1.259 . S
Tb20 O23 2.453 . S
Tb20 O24 2.596 . S
Tb20 O25 2.374 . S
Tb20 O33 2.343 1_545 S
Tb20 O35 2.353 . S
Tb20 O37 2.427 1_545 S
Tb20 O38 2.513 1_545 S
C21 O25 1.251 . S
C21 O27 1.263 . S
Tb22 O24 2.343 . S
Tb22 O27 2.353 . S
Tb22 O30 2.427 . S
Tb22 O31 2.513 . S
Tb22 O32 2.453 1_545 S
Tb22 O33 2.596 1_545 S
Tb22 O34 2.374 . S
O23 Tb20 2.453 . S
O23 C39 1.245 . S
O24 Tb20 2.596 . S
O24 Tb22 2.343 . S
O24 C39 1.259 . S
O25 Tb20 2.374 . S
O25 C21 1.251 . S
C26 O30 1.275 . S
C26 O31 1.246 . S
O27 C21 1.263 . S
O27 Tb22 2.353 . S
C28 O32 1.245 . S
C28 O33 1.259 . S
C29 O34 1.250 . S
C29 O35 1.263 . S
O30 Tb22 2.427 . S
O30 C26 1.275 . S
O31 Tb22 2.513 . S
O31 C26 1.246 . S
O32 Tb22 2.453 1_565 S
O32 C28 1.245 . S
O33 Tb20 2.343 1_565 S
O33 Tb22 2.596 1_565 S
O33 C28 1.259 . S
O34 Tb22 2.374 . S
O34 C29 1.250 . S
O35 Tb20 2.353 . S
O35 C29 1.263 . S
C36 O37 1.275 . S
C36 O38 1.246 . S
O37 Tb20 2.427 1_565 S
O37 C36 1.275 . S
O38 Tb20 2.513 1_565 S
O38 C36 1.246 . S
C39 O23 1.245 . S
C39 O24 1.259 . S
Tb40 O43 2.453 . S
Tb40 O44 2.596 . S
Tb40 O45 2.374 . S
Tb40 O53 2.343 . S
Tb40 O55 2.353 . S
Tb40 O57 2.427 . S
Tb40 O58 2.513 . S
C41 O45 1.251 . S
C41 O47 1.263 . S
Tb42 O44 2.343 . S
Tb42 O47 2.353 . S
Tb42 O50 2.427 . S
Tb42 O51 2.513 . S
Tb42 O52 2.453 . S
Tb42 O53 2.596 . S
Tb42 O54 2.374 . S
O43 Tb40 2.453 . S
O43 C59 1.245 . S
O44 Tb40 2.596 . S
O44 Tb42 2.343 . S
O44 C59 1.259 . S
O45 Tb40 2.374 . S
O45 C41 1.251 . S
C46 O50 1.275 . S
C46 O51 1.246 . S
O47 C41 1.263 . S
O47 Tb42 2.353 . S
C48 O52 1.245 . S
C48 O53 1.259 . S
C49 O54 1.250 . S
C49 O55 1.263 . S
O50 Tb42 2.427 . S
O50 C46 1.275 . S
O51 Tb42 2.513 . S
O51 C46 1.246 . S
O52 Tb42 2.453 . S
O52 C48 1.245 . S
O53 Tb40 2.343 . S
O53 Tb42 2.596 . S
O53 C48 1.259 . S
O54 Tb42 2.374 . S
O54 C49 1.250 . S
O55 Tb40 2.353 . S
O55 C49 1.263 . S
C56 O57 1.275 . S
C56 O58 1.246 . S
O57 Tb40 2.427 . S
O57 C56 1.275 . S
O58 Tb40 2.513 . S
O58 C56 1.246 . S
C59 O43 1.245 . S
C59 O44 1.259 . S
C60 C61 1.384 . S
C60 H73 0.947 . S
C60 C95 1.382 . S
C61 C60 1.384 . S
C61 C62 1.378 . S
C62 C61 1.378 . S
C62 C63 1.378 . S
C62 H74 0.952 . S
C63 C62 1.378 . S
C63 H75 0.950 . S
C63 C94 1.383 . S
H64 C83 0.947 . S
H65 C84 0.946 . S
H66 C86 0.953 . S
H67 C87 0.945 . S
H68 C89 0.952 . S
H69 C90 0.949 . S
H70 C92 0.950 1_565 S
H71 C93 0.948 1_565 S
H72 C95 0.951 . S
H73 C60 0.947 . S
H74 C62 0.952 . S
H75 C63 0.950 . S
N76 C79 1.382 . S
N76 C81 1.351 1_545 S
N77 C79 1.371 . S
N77 C80 1.372 . S
N78 C80 1.361 . S
N78 C81 1.376 1_545 S
C79 N76 1.382 . S
C79 N77 1.371 . S
C79 C82 1.480 . S
C80 N77 1.372 . S
C80 N78 1.361 . S
C80 C88 1.457 . S
C81 N76 1.351 1_565 S
C81 N78 1.376 1_565 S
C81 C94 1.488 . S
C82 C79 1.480 . S
C82 C83 1.383 . S
C82 C87 1.385 . S
C83 H64 0.947 . S
C83 C82 1.383 . S
C83 C84 1.388 . S
C84 H65 0.946 . S
C84 C83 1.388 . S
C84 C85 1.384 . S
C85 C84 1.384 . S
C85 C86 1.377 . S
C86 H66 0.953 . S
C86 C85 1.377 . S
C86 C87 1.369 . S
C87 H67 0.945 . S
C87 C82 1.385 . S
C87 C86 1.369 . S
C88 C80 1.457 . S
C88 C89 1.372 . S
C88 C93 1.364 . S
C89 H68 0.952 . S
C89 C88 1.372 . S
C89 C90 1.389 . S
C90 H69 0.949 . S
C90 C89 1.389 . S
C90 C91 1.387 . S
C91 C90 1.387 . S
C91 C92 1.372 . S
C92 H70 0.950 1_545 S
C92 C91 1.372 . S
C92 C93 1.379 . S
C93 H71 0.948 1_545 S
C93 C88 1.364 . S
C93 C92 1.379 . S
C94 C63 1.383 . S
C94 C81 1.488 . S
C94 C95 1.398 . S
C95 C60 1.382 . S
C95 H72 0.951 . S
C95 C94 1.398 . S
C96 C97 1.384 . S
C96 H109 0.947 . S
C96 C131 1.382 . S
C97 C96 1.384 . S
C97 C98 1.378 . S
C98 C97 1.378 . S
C98 C99 1.378 . S
C98 H110 0.952 . S
C99 C98 1.378 . S
C99 H111 0.950 . S
C99 C130 1.383 . S
H100 C119 0.947 . S
H101 C120 0.946 . S
H102 C122 0.953 . S
H103 C123 0.945 . S
H104 C125 0.952 . S
H105 C126 0.949 . S
H106 C128 0.950 . S
H107 C129 0.948 . S
H108 C131 0.951 . S
H109 C96 0.947 . S
H110 C98 0.952 . S
H111 C99 0.950 . S
N112 C115 1.382 . S
N112 C117 1.363 . S
N113 C115 1.371 . S
N113 C116 1.372 . S
N114 C116 1.361 . S
N114 C117 1.377 . S
C115 N112 1.382 . S
C115 N113 1.371 . S
C115 C118 1.480 . S
C116 N113 1.372 . S
C116 N114 1.361 . S
C116 C124 1.457 . S
C117 N112 1.363 . S
C117 N114 1.377 . S
C117 C130 1.479 . S
C118 C115 1.480 . S
C118 C119 1.383 . S
C118 C123 1.385 . S
C119 H100 0.947 . S
C119 C118 1.383 . S
C119 C120 1.388 . S
C120 H101 0.946 . S
C120 C119 1.388 . S
C120 C121 1.384 . S
C121 C120 1.384 . S
C121 C122 1.377 . S
C122 H102 0.953 . S
C122 C121 1.377 . S
C122 C123 1.369 . S
C123 H103 0.945 . S
C123 C118 1.385 . S
C123 C122 1.369 . S
C124 C116 1.457 . S
C124 C125 1.372 . S
C124 C129 1.364 . S
C125 H104 0.952 . S
C125 C124 1.372 . S
C125 C126 1.389 . S
C126 H105 0.949 . S
C126 C125 1.389 . S
C126 C127 1.387 . S
C127 C126 1.387 . S
C127 C128 1.372 . S
C128 H106 0.950 . S
C128 C127 1.372 . S
C128 C129 1.379 . S
C129 H107 0.948 . S
C129 C124 1.364 . S
C129 C128 1.379 . S
C130 C99 1.383 . S
C130 C117 1.479 . S
C130 C131 1.398 . S
C131 C96 1.382 . S
C131 H108 0.951 . S
C131 C130 1.398 . S
C132 C133 1.384 . S
C132 H145 0.947 . S
C132 C167 1.382 . S
C133 C132 1.384 . S
C133 C134 1.378 . S
C134 C133 1.378 . S
C134 C135 1.378 1_655 S
C134 H146 0.952 . S
C135 C134 1.378 1_455 S
C135 H147 0.950 . S
C135 C166 1.383 . S
H136 C155 0.947 . S
H137 C156 0.946 . S
H138 C158 0.953 . S
H139 C159 0.945 . S
H140 C161 0.952 . S
H141 C162 0.949 . S
H142 C164 0.950 . S
H143 C165 0.948 . S
H144 C167 0.951 . S
H145 C132 0.947 . S
H146 C134 0.952 . S
H147 C135 0.950 . S
N148 C151 1.382 . S
N148 C153 1.363 . S
N149 C151 1.371 . S
N149 C152 1.372 . S
N150 C152 1.361 . S
N150 C153 1.377 . S
C151 N148 1.382 . S
C151 N149 1.371 . S
C151 C154 1.480 . S
C152 N149 1.372 . S
C152 N150 1.361 . S
C152 C160 1.457 . S
C153 N148 1.363 . S
C153 N150 1.377 . S
C153 C166 1.479 . S
C154 C151 1.480 . S
C154 C155 1.383 . S
C154 C159 1.385 . S
C155 H136 0.947 . S
C155 C154 1.383 . S
C155 C156 1.388 . S
C156 H137 0.946 . S
C156 C155 1.388 . S
C156 C157 1.384 . S
C157 C156 1.384 . S
C157 C158 1.377 . S
C158 H138 0.953 . S
C158 C157 1.377 . S
C158 C159 1.369 . S
C159 H139 0.945 . S
C159 C154 1.385 . S
C159 C158 1.369 . S
C160 C152 1.457 . S
C160 C161 1.372 . S
C160 C165 1.364 . S
C161 H140 0.952 . S
C161 C160 1.372 . S
C161 C162 1.389 . S
C162 H141 0.949 . S
C162 C161 1.389 . S
C162 C163 1.387 . S
C163 C162 1.387 . S
C163 C164 1.372 . S
C164 H142 0.950 . S
C164 C163 1.372 . S
C164 C165 1.379 . S
C165 H143 0.948 . S
C165 C160 1.364 . S
C165 C164 1.379 . S
C166 C135 1.383 . S
C166 C153 1.479 . S
C166 C167 1.398 1_455 S
C167 C132 1.382 . S
C167 H144 0.951 . S
C167 C166 1.398 1_655 S
C168 C169 1.384 . S
C168 H181 0.947 . S
C168 C203 1.382 . S
C169 C168 1.384 . S
C169 C170 1.378 . S
C170 C169 1.378 . S
C170 C171 1.378 . S
C170 H182 0.952 . S
C171 C170 1.378 . S
C171 H183 0.950 . S
C171 C202 1.383 . S
H172 C191 0.947 . S
H173 C192 0.946 . S
H174 C194 0.953 . S
H175 C195 0.945 . S
H176 C197 0.952 . S
H177 C198 0.949 . S
H178 C200 0.950 . S
H179 C201 0.948 . S
H180 C203 0.951 . S
H181 C168 0.947 . S
H182 C170 0.952 . S
H183 C171 0.950 . S
N184 C187 1.382 1_455 S
N184 C189 1.363 . S
N185 C187 1.371 . S
N185 C188 1.372 1_655 S
N186 C188 1.361 . S
N186 C189 1.377 . S
C187 N184 1.382 1_655 S
C187 N185 1.371 . S
C187 C190 1.480 . S
C188 N185 1.372 1_455 S
C188 N186 1.361 . S
C188 C196 1.457 . S
C189 N184 1.363 . S
C189 N186 1.377 . S
C189 C202 1.479 . S
C190 C187 1.480 . S
C190 C191 1.383 . S
C190 C195 1.385 . S
C191 H172 0.947 . S
C191 C190 1.383 . S
C191 C192 1.388 . S
C192 H173 0.946 . S
C192 C191 1.388 . S
C192 C193 1.384 . S
C193 C192 1.384 . S
C193 C194 1.377 . S
C194 H174 0.953 . S
C194 C193 1.377 . S
C194 C195 1.369 . S
C195 H175 0.945 . S
C195 C190 1.385 . S
C195 C194 1.369 . S
C196 C188 1.457 . S
C196 C197 1.372 1_455 S
C196 C201 1.364 . S
C197 H176 0.952 . S
C197 C196 1.372 1_655 S
C197 C198 1.389 . S
C198 H177 0.949 . S
C198 C197 1.389 . S
C198 C199 1.387 1_655 S
C199 C198 1.387 1_455 S
C199 C200 1.372 . S
C200 H178 0.950 . S
C200 C199 1.372 . S
C200 C201 1.379 . S
C201 H179 0.948 . S
C201 C196 1.364 . S
C201 C200 1.379 . S
C202 C171 1.383 . S
C202 C189 1.479 . S
C202 C203 1.398 . S
C203 C168 1.382 . S
C203 H180 0.951 . S
C203 C202 1.398 . S
C204 C205 1.384 . S
C204 H217 0.947 . S
C204 C239 1.382 . S
C205 C204 1.384 . S
C205 C206 1.378 . S
C206 C205 1.378 . S
C206 C207 1.378 . S
C206 H218 0.952 . S
C207 C206 1.378 . S
C207 H219 0.950 . S
C207 C238 1.383 . S
H208 C227 0.947 . S
H209 C228 0.946 . S
H210 C230 0.953 . S
H211 C231 0.945 . S
H212 C233 0.952 . S
H213 C234 0.949 . S
H214 C236 0.950 . S
H215 C237 0.948 . S
H216 C239 0.951 . S
H217 C204 0.947 . S
H218 C206 0.952 . S
H219 C207 0.950 . S
N220 C223 1.382 1_545 S
N220 C225 1.363 . S
N221 C223 1.371 . S
N221 C224 1.372 1_565 S
N222 C224 1.361 . S
N222 C225 1.377 . S
C223 N220 1.382 1_565 S
C223 N221 1.371 . S
C223 C226 1.480 . S
C224 N221 1.372 1_545 S
C224 N222 1.361 . S
C224 C232 1.457 . S
C225 N220 1.363 . S
C225 N222 1.377 . S
C225 C238 1.479 . S
C226 C223 1.480 . S
C226 C227 1.383 . S
C226 C231 1.385 . S
C227 H208 0.947 . S
C227 C226 1.383 . S
C227 C228 1.388 . S
C228 H209 0.946 . S
C228 C227 1.388 . S
C228 C229 1.384 . S
C229 C228 1.384 . S
C229 C230 1.377 . S
C230 H210 0.953 . S
C230 C229 1.377 . S
C230 C231 1.369 . S
C231 H211 0.945 . S
C231 C226 1.385 . S
C231 C230 1.369 . S
C232 C224 1.457 . S
C232 C233 1.372 1_545 S
C232 C237 1.364 . S
C233 H212 0.952 . S
C233 C232 1.372 1_565 S
C233 C234 1.389 . S
C234 H213 0.949 . S
C234 C233 1.389 . S
C234 C235 1.387 1_565 S
C235 C234 1.387 1_545 S
C235 C236 1.372 . S
C236 H214 0.950 . S
C236 C235 1.372 . S
C236 C237 1.379 . S
C237 H215 0.948 . S
C237 C232 1.364 . S
C237 C236 1.379 . S
C238 C207 1.383 . S
C238 C225 1.479 . S
C238 C239 1.398 . S
C239 C204 1.382 . S
C239 H216 0.951 . S
C239 C238 1.398 . S
C240 C241 1.384 . S
C240 H253 0.947 . S
C240 C275 1.382 . S
C241 C240 1.384 . S
C241 C242 1.378 . S
C242 C241 1.378 . S
C242 C243 1.378 . S
C242 H254 0.952 . S
C243 C242 1.378 . S
C243 H255 0.950 . S
C243 C274 1.383 . S
H244 C263 0.947 . S
H245 C264 0.946 . S
H246 C266 0.953 . S
H247 C267 0.945 . S
H248 C269 0.952 . S
H249 C270 0.949 . S
H250 C272 0.950 . S
H251 C273 0.948 . S
H252 C275 0.951 . S
H253 C240 0.947 . S
H254 C242 0.952 . S
H255 C243 0.950 . S
N256 C259 1.382 . S
N256 C261 1.363 . S
N257 C259 1.371 . S
N257 C260 1.372 . S
N258 C260 1.361 . S
N258 C261 1.377 . S
C259 N256 1.382 . S
C259 N257 1.371 . S
C259 C262 1.480 . S
C260 N257 1.372 . S
C260 N258 1.361 . S
C260 C268 1.457 . S
C261 N256 1.363 . S
C261 N258 1.377 . S
C261 C274 1.479 . S
C262 C259 1.480 . S
C262 C263 1.383 . S
C262 C267 1.385 . S
C263 H244 0.947 . S
C263 C262 1.383 . S
C263 C264 1.388 . S
C264 H245 0.946 . S
C264 C263 1.388 . S
C264 C265 1.384 . S
C265 C264 1.384 . S
C265 C266 1.377 . S
C266 H246 0.953 . S
C266 C265 1.377 . S
C266 C267 1.369 . S
C267 H247 0.945 . S
C267 C262 1.385 . S
C267 C266 1.369 . S
C268 C260 1.457 . S
C268 C269 1.372 . S
C268 C273 1.364 . S
C269 H248 0.952 . S
C269 C268 1.372 . S
C269 C270 1.389 . S
C270 H249 0.949 . S
C270 C269 1.389 . S
C270 C271 1.387 . S
C271 C270 1.387 . S
C271 C272 1.372 . S
C272 H250 0.950 . S
C272 C271 1.372 . S
C272 C273 1.379 . S
C273 H251 0.948 . S
C273 C268 1.364 . S
C273 C272 1.379 . S
C274 C243 1.383 . S
C274 C261 1.479 . S
C274 C275 1.398 . S
C275 C240 1.382 . S
C275 H252 0.951 . S
C275 C274 1.398 . S
H276 C282 0.930 . S
H277 C286 0.930 . S
H278 C291 0.929 . S
H279 C289 0.929 . S
H280 C284 0.929 . S
H281 C290 0.929 . S
C282 H276 0.930 . S
C282 C283 1.367 . S
C282 C290 1.378 . S
C283 C282 1.367 . S
C283 C291 1.433 . S
C284 H280 0.929 . S
C284 C286 1.378 . S
C284 C288 1.350 . S
C285 C288 1.463 . S
C285 C290 1.350 . S
C285 N293 1.427 . S
C286 H277 0.930 . S
C286 C284 1.378 . S
C286 C287 1.367 . S
C287 C286 1.367 . S
C287 C289 1.433 . S
C288 C284 1.350 . S
C288 C285 1.463 . S
C288 N292 1.427 . S
C289 H279 0.929 . S
C289 C287 1.433 . S
C289 N292 1.384 . S
C290 H281 0.929 . S
C290 C282 1.378 . S
C290 C285 1.350 . S
C291 H278 0.929 . S
C291 C283 1.433 . S
C291 N293 1.384 . S
N292 C288 1.427 . S
N292 C289 1.384 . S
N293 C285 1.427 . S
N293 C291 1.384 . S
H294 C300 0.930 . S
H295 C304 0.930 . S
H296 C309 0.929 . S
H297 C307 0.929 . S
H298 C302 0.929 . S
H299 C308 0.929 . S
C300 H294 0.930 . S
C300 C301 1.367 . S
C300 C308 1.378 . S
C301 C300 1.367 . S
C301 C309 1.433 . S
C302 H298 0.929 . S
C302 C304 1.378 . S
C302 C306 1.350 . S
C303 C306 1.463 . S
C303 C308 1.350 . S
C303 N311 1.427 . S
C304 H295 0.930 . S
C304 C302 1.378 . S
C304 C305 1.367 . S
C305 C304 1.367 . S
C305 C307 1.433 . S
C306 C302 1.350 . S
C306 C303 1.463 . S
C306 N310 1.427 . S
C307 H297 0.929 . S
C307 C305 1.433 . S
C307 N310 1.384 . S
C308 H299 0.929 . S
C308 C300 1.378 . S
C308 C303 1.350 . S
C309 H296 0.929 . S
C309 C301 1.433 . S
C309 N311 1.384 . S
N310 C306 1.427 . S
N310 C307 1.384 . S
N311 C303 1.427 . S
N311 C309 1.384 . S
H312 C318 0.930 . S
H313 C322 0.930 . S
H314 C327 0.929 . S
H315 C325 0.929 . S
H316 C320 0.929 . S
H317 C326 0.929 . S
C318 H312 0.930 . S
C318 C319 1.367 . S
C318 C326 1.378 . S
C319 C318 1.367 . S
C319 C327 1.433 . S
C320 H316 0.929 . S
C320 C322 1.378 . S
C320 C324 1.350 . S
C321 C324 1.463 . S
C321 C326 1.350 . S
C321 N329 1.427 . S
C322 H313 0.930 . S
C322 C320 1.378 . S
C322 C323 1.367 . S
C323 C322 1.367 . S
C323 C325 1.433 . S
C324 C320 1.350 . S
C324 C321 1.463 . S
C324 N328 1.427 . S
C325 H315 0.929 . S
C325 C323 1.433 . S
C325 N328 1.384 . S
C326 H317 0.929 . S
C326 C318 1.378 . S
C326 C321 1.350 . S
C327 H314 0.929 . S
C327 C319 1.433 . S
C327 N329 1.384 . S
N328 C324 1.427 . S
N328 C325 1.384 . S
N329 C321 1.427 . S
N329 C327 1.384 . S
H330 C336 0.930 . S
H331 C340 0.930 . S
H332 C345 0.929 . S
H333 C343 0.929 . S
H334 C338 0.929 . S
H335 C344 0.929 . S
C336 H330 0.930 . S
C336 C337 1.367 . S
C336 C344 1.378 . S
C337 C336 1.367 . S
C337 C345 1.433 . S
C338 H334 0.929 . S
C338 C340 1.378 . S
C338 C342 1.350 . S
C339 C342 1.463 . S
C339 C344 1.350 . S
C339 N347 1.427 . S
C340 H331 0.930 . S
C340 C338 1.378 . S
C340 C341 1.367 . S
C341 C340 1.367 . S
C341 C343 1.433 . S
C342 C338 1.350 . S
C342 C339 1.463 . S
C342 N346 1.427 . S
C343 H333 0.929 . S
C343 C341 1.433 . S
C343 N346 1.384 . S
C344 H335 0.929 . S
C344 C336 1.378 . S
C344 C339 1.350 . S
C345 H332 0.929 . S
C345 C337 1.433 . S
C345 N347 1.384 . S
N346 C342 1.427 . S
N346 C343 1.384 . S
N347 C339 1.427 . S
N347 C345 1.384 . S
H348 C354 0.930 . S
H349 C358 0.930 . S
H350 C363 0.929 . S
H351 C361 0.929 . S
H352 C356 0.929 . S
H353 C362 0.929 . S
C354 H348 0.930 . S
C354 C355 1.367 . S
C354 C362 1.378 . S
C355 C354 1.367 . S
C355 C363 1.433 . S
C356 H352 0.929 . S
C356 C358 1.378 . S
C356 C360 1.350 . S
C357 C360 1.463 . S
C357 C362 1.350 . S
C357 N365 1.427 . S
C358 H349 0.930 . S
C358 C356 1.378 . S
C358 C359 1.367 . S
C359 C358 1.367 . S
C359 C361 1.433 . S
C360 C356 1.350 . S
C360 C357 1.463 . S
C360 N364 1.427 . S
C361 H351 0.929 . S
C361 C359 1.433 . S
C361 N364 1.384 . S
C362 H353 0.929 . S
C362 C354 1.378 . S
C362 C357 1.350 . S
C363 H350 0.929 . S
C363 C355 1.433 . S
C363 N365 1.384 . S
N364 C360 1.427 . S
N364 C361 1.384 . S
N365 C357 1.427 . S
N365 C363 1.384 . S
H366 C372 0.930 . S
H367 C376 0.930 . S
H368 C381 0.929 . S
H369 C379 0.929 . S
H370 C374 0.929 . S
H371 C380 0.929 . S
C372 H366 0.930 . S
C372 C373 1.367 . S
C372 C380 1.378 . S
C373 C372 1.367 . S
C373 C381 1.433 . S
C374 H370 0.929 . S
C374 C376 1.378 . S
C374 C378 1.350 . S
C375 C378 1.463 . S
C375 C380 1.350 . S
C375 N383 1.427 . S
C376 H367 0.930 . S
C376 C374 1.378 . S
C376 C377 1.367 . S
C377 C376 1.367 . S
C377 C379 1.433 . S
C378 C374 1.350 . S
C378 C375 1.463 . S
C378 N382 1.427 . S
C379 H369 0.929 . S
C379 C377 1.433 . S
C379 N382 1.384 . S
C380 H371 0.929 . S
C380 C372 1.378 . S
C380 C375 1.350 . S
C381 H368 0.929 . S
C381 C373 1.433 . S
C381 N383 1.384 . S
N382 C378 1.427 . S
N382 C379 1.384 . S
N383 C375 1.427 . S
N383 C381 1.384 . S
H384 C390 0.930 . S
H385 C394 0.930 . S
H386 C399 0.929 . S
H387 C397 0.929 . S
H388 C392 0.929 . S
H389 C398 0.929 . S
C390 H384 0.930 . S
C390 C391 1.367 . S
C390 C398 1.378 . S
C391 C390 1.367 . S
C391 C399 1.433 . S
C392 H388 0.929 . S
C392 C394 1.378 . S
C392 C396 1.350 . S
C393 C396 1.463 . S
C393 C398 1.350 . S
C393 N401 1.427 . S
C394 H385 0.930 . S
C394 C392 1.378 . S
C394 C395 1.367 . S
C395 C394 1.367 . S
C395 C397 1.433 . S
C396 C392 1.350 . S
C396 C393 1.463 . S
C396 N400 1.427 . S
C397 H387 0.929 . S
C397 C395 1.433 . S
C397 N400 1.384 . S
C398 H389 0.929 . S
C398 C390 1.378 . S
C398 C393 1.350 . S
C399 H386 0.929 . S
C399 C391 1.433 . S
C399 N401 1.384 . S
N400 C396 1.427 . S
N400 C397 1.384 . S
N401 C393 1.427 . S
N401 C399 1.384 . S
H402 C408 0.930 . S
H403 C412 0.930 . S
H404 C417 0.929 . S
H405 C415 0.929 . S
H406 C410 0.929 . S
H407 C416 0.929 . S
C408 H402 0.930 . S
C408 C409 1.367 . S
C408 C416 1.378 . S
C409 C408 1.367 . S
C409 C417 1.433 . S
C410 H406 0.929 . S
C410 C412 1.378 . S
C410 C414 1.350 . S
C411 C414 1.463 . S
C411 C416 1.350 . S
C411 N419 1.427 . S
C412 H403 0.930 . S
C412 C410 1.378 . S
C412 C413 1.367 . S
C413 C412 1.367 . S
C413 C415 1.433 . S
C414 C410 1.350 . S
C414 C411 1.463 . S
C414 N418 1.427 . S
C415 H405 0.929 . S
C415 C413 1.433 . S
C415 N418 1.384 . S
C416 H407 0.929 . S
C416 C408 1.378 . S
C416 C411 1.350 . S
C417 H404 0.929 . S
C417 C409 1.433 . S
C417 N419 1.384 . S
N418 C414 1.427 . S
N418 C415 1.384 . S
N419 C411 1.427 . S
N419 C417 1.384 . S
H420 C426 0.930 . S
H421 C430 0.930 . S
H422 C435 0.929 . S
H423 C433 0.929 . S
H424 C428 0.929 . S
H425 C434 0.929 . S
C426 H420 0.930 . S
C426 C427 1.367 . S
C426 C434 1.378 . S
C427 C426 1.367 . S
C427 C435 1.433 . S
C428 H424 0.929 . S
C428 C430 1.378 . S
C428 C432 1.350 . S
C429 C432 1.463 . S
C429 C434 1.350 . S
C429 N437 1.427 . S
C430 H421 0.930 . S
C430 C428 1.378 . S
C430 C431 1.367 . S
C431 C430 1.367 . S
C431 C433 1.433 . S
C432 C428 1.350 . S
C432 C429 1.463 . S
C432 N436 1.427 . S
C433 H423 0.929 . S
C433 C431 1.433 . S
C433 N436 1.384 . S
C434 H425 0.929 . S
C434 C426 1.378 . S
C434 C429 1.350 . S
C435 H422 0.929 . S
C435 C427 1.433 . S
C435 N437 1.384 . S
N436 C432 1.427 . S
N436 C433 1.384 . S
N437 C429 1.427 . S
N437 C435 1.384 . S
H438 C444 0.930 . S
H439 C448 0.930 . S
H440 C453 0.929 . S
H441 C451 0.929 . S
H442 C446 0.929 . S
H443 C452 0.929 . S
C444 H438 0.930 . S
C444 C445 1.367 . S
C444 C452 1.378 . S
C445 C444 1.367 . S
C445 C453 1.433 . S
C446 H442 0.929 . S
C446 C448 1.378 . S
C446 C450 1.350 . S
C447 C450 1.463 . S
C447 C452 1.350 . S
C447 N455 1.427 . S
C448 H439 0.930 . S
C448 C446 1.378 . S
C448 C449 1.367 . S
C449 C448 1.367 . S
C449 C451 1.433 . S
C450 C446 1.350 . S
C450 C447 1.463 . S
C450 N454 1.427 . S
C451 H441 0.929 . S
C451 C449 1.433 . S
C451 N454 1.384 . S
C452 H443 0.929 . S
C452 C444 1.378 . S
C452 C447 1.350 . S
C453 H440 0.929 . S
C453 C445 1.433 . S
C453 N455 1.384 . S
N454 C450 1.427 . S
N454 C451 1.384 . S
N455 C447 1.427 . S
N455 C453 1.384 . S
H456 C462 0.930 . S
H457 C466 0.930 . S
H458 C471 0.929 . S
H459 C469 0.929 . S
H460 C464 0.929 . S
H461 C470 0.929 . S
C462 H456 0.930 . S
C462 C463 1.367 . S
C462 C470 1.378 . S
C463 C462 1.367 . S
C463 C471 1.433 . S
C464 H460 0.929 . S
C464 C466 1.378 . S
C464 C468 1.350 . S
C465 C468 1.463 . S
C465 C470 1.350 . S
C465 N473 1.427 . S
C466 H457 0.930 . S
C466 C464 1.378 . S
C466 C467 1.367 . S
C467 C466 1.367 . S
C467 C469 1.433 . S
C468 C464 1.350 . S
C468 C465 1.463 . S
C468 N472 1.427 . S
C469 H459 0.929 . S
C469 C467 1.433 . S
C469 N472 1.384 . S
C470 H461 0.929 . S
C470 C462 1.378 . S
C470 C465 1.350 . S
C471 H458 0.929 . S
C471 C463 1.433 . S
C471 N473 1.384 . S
N472 C468 1.427 . S
N472 C469 1.384 . S
N473 C465 1.427 . S
N473 C471 1.384 . S
H474 C480 0.930 . S
H475 C484 0.930 . S
H476 C489 0.929 . S
H477 C487 0.929 . S
H478 C482 0.929 . S
H479 C488 0.929 . S
C480 H474 0.930 . S
C480 C481 1.367 . S
C480 C488 1.378 . S
C481 C480 1.367 . S
C481 C489 1.433 . S
C482 H478 0.929 . S
C482 C484 1.378 . S
C482 C486 1.350 . S
C483 C486 1.463 . S
C483 C488 1.350 . S
C483 N491 1.427 . S
C484 H475 0.930 . S
C484 C482 1.378 . S
C484 C485 1.367 . S
C485 C484 1.367 . S
C485 C487 1.433 . S
C486 C482 1.350 . S
C486 C483 1.463 . S
C486 N490 1.427 . S
C487 H477 0.929 . S
C487 C485 1.433 . S
C487 N490 1.384 . S
C488 H479 0.929 . S
C488 C480 1.378 . S
C488 C483 1.350 . S
C489 H476 0.929 . S
C489 C481 1.433 . S
C489 N491 1.384 . S
N490 C486 1.427 . S
N490 C487 1.384 . S
N491 C483 1.427 . S
N491 C489 1.384 . S
H492 C498 0.930 1_655 S
H493 C502 0.930 1_556 S
H494 C507 0.929 . S
H495 C505 0.908 1_556 S
H496 C500 0.929 . S
H497 C506 0.930 1_655 S
C498 H492 0.930 1_455 S
C498 C499 1.367 . S
C498 C506 1.378 . S
C499 C498 1.367 . S
C499 C507 1.433 . S
C500 H496 0.929 . S
C500 C502 1.378 . S
C500 C504 1.350 . S
C501 C504 1.463 . S
C501 C506 1.350 . S
C501 N509 1.427 . S
C502 H493 0.930 1_554 S
C502 C500 1.378 . S
C502 C503 1.367 1_554 S
C503 C502 1.367 1_556 S
C503 C505 1.433 1_556 S
C504 C500 1.350 . S
C504 C501 1.463 . S
C504 N508 1.427 . S
C505 H495 0.908 1_554 S
C505 C503 1.433 1_554 S
C505 N508 1.384 . S
C506 H497 0.930 1_455 S
C506 C498 1.378 . S
C506 C501 1.350 . S
C507 H494 0.929 . S
C507 C499 1.433 . S
C507 N509 1.384 . S
N508 C504 1.427 . S
N508 C505 1.384 . S
N509 C501 1.427 . S
N509 C507 1.384 . S
H510 C516 0.930 1_565 S
H511 C520 0.930 . S
H512 C525 0.929 . S
H513 C523 0.926 1_565 S
H514 C518 0.929 . S
H515 C524 0.929 1_565 S
C516 H510 0.930 1_545 S
C516 C517 1.367 . S
C516 C524 1.378 . S
C517 C516 1.367 . S
C517 C525 1.433 . S
C518 H514 0.929 . S
C518 C520 1.378 . S
C518 C522 1.350 . S
C519 C522 1.463 . S
C519 C524 1.350 . S
C519 N527 1.427 . S
C520 H511 0.930 . S
C520 C518 1.378 . S
C520 C521 1.367 . S
C521 C520 1.367 . S
C521 C523 1.433 . S
C522 C518 1.350 . S
C522 C519 1.463 . S
C522 N526 1.427 . S
C523 H513 0.926 1_545 S
C523 C521 1.433 . S
C523 N526 1.384 . S
C524 H515 0.929 1_545 S
C524 C516 1.378 . S
C524 C519 1.350 . S
C525 H512 0.929 . S
C525 C517 1.433 . S
C525 N527 1.384 . S
N526 C522 1.427 . S
N526 C523 1.384 . S
N527 C519 1.427 . S
N527 C525 1.384 . S
H528 C534 0.930 . S
H529 C538 0.930 . S
H530 C543 0.929 . S
H531 C541 0.929 . S
H532 C536 0.929 . S
H533 C542 0.929 . S
C534 H528 0.930 . S
C534 C535 1.367 . S
C534 C542 1.378 . S
C535 C534 1.367 . S
C535 C543 1.433 . S
C536 H532 0.929 . S
C536 C538 1.378 . S
C536 C540 1.350 . S
C537 C540 1.463 . S
C537 C542 1.350 . S
C537 N545 1.427 . S
C538 H529 0.930 . S
C538 C536 1.378 . S
C538 C539 1.367 . S
C539 C538 1.367 . S
C539 C541 1.433 . S
C540 C536 1.350 . S
C540 C537 1.463 . S
C540 N544 1.427 . S
C541 H531 0.929 . S
C541 C539 1.433 . S
C541 N544 1.384 . S
C542 H533 0.929 . S
C542 C534 1.378 . S
C542 C537 1.350 . S
C543 H530 0.929 . S
C543 C535 1.433 . S
C543 N545 1.384 . S
N544 C540 1.427 . S
N544 C541 1.384 . S
N545 C537 1.427 . S
N545 C543 1.384 . S
H546 C552 0.930 . S
H547 C556 0.930 . S
H548 C561 0.929 . S
H549 C559 0.929 . S
H550 C554 0.929 . S
H551 C560 0.929 . S
C552 H546 0.930 . S
C552 C553 1.367 1_565 S
C552 C560 1.378 . S
C553 C552 1.367 1_545 S
C553 C561 1.433 . S
C554 H550 0.929 . S
C554 C556 1.378 . S
C554 C558 1.350 . S
C555 C558 1.463 . S
C555 C560 1.350 1_545 S
C555 N563 1.427 . S
C556 H547 0.930 . S
C556 C554 1.378 . S
C556 C557 1.367 . S
C557 C556 1.367 . S
C557 C559 1.433 1_545 S
C558 C554 1.350 . S
C558 C555 1.463 . S
C558 N562 1.427 1_545 S
C559 H549 0.929 . S
C559 C557 1.433 1_565 S
C559 N562 1.384 . S
C560 H551 0.929 . S
C560 C552 1.378 . S
C560 C555 1.350 1_565 S
C561 H548 0.929 . S
C561 C553 1.433 . S
C561 N563 1.384 . S
N562 C558 1.427 1_565 S
N562 C559 1.384 . S
N563 C555 1.427 . S
N563 C561 1.384 . S
H564 C570 0.930 . S
H565 C574 0.930 1_554 S
H566 C579 0.929 . S
H567 C577 0.929 . S
H568 C572 0.929 . S
H569 C578 0.929 . S
C570 H564 0.930 . S
C570 C571 1.367 . S
C570 C578 1.378 . S
C571 C570 1.367 . S
C571 C579 1.433 . S
C572 H568 0.929 . S
C572 C574 1.378 . S
C572 C576 1.350 . S
C573 C576 1.463 . S
C573 C578 1.350 . S
C573 N581 1.427 . S
C574 H565 0.930 1_556 S
C574 C572 1.378 . S
C574 C575 1.361 1_556 S
C575 C574 1.361 1_554 S
C575 C577 1.424 1_554 S
C576 C572 1.350 . S
C576 C573 1.463 . S
C576 N580 1.427 . S
C577 H567 0.929 . S
C577 C575 1.424 1_556 S
C577 N580 1.384 . S
C578 H569 0.929 . S
C578 C570 1.378 . S
C578 C573 1.350 . S
C579 H566 0.929 . S
C579 C571 1.433 . S
C579 N581 1.384 . S
N580 C576 1.427 . S
N580 C577 1.384 . S
N581 C573 1.427 . S
N581 C579 1.384 . S
H582 C588 0.930 . S
H583 C592 0.930 . S
H584 C597 0.929 . S
H585 C595 0.929 . S
H586 C590 0.929 . S
H587 C596 0.929 . S
C588 H582 0.930 . S
C588 C589 1.367 . S
C588 C596 1.378 . S
C589 C588 1.367 . S
C589 C597 1.433 . S
C590 H586 0.929 . S
C590 C592 1.378 . S
C590 C594 1.350 . S
C591 C594 1.463 . S
C591 C596 1.350 . S
C591 N599 1.427 . S
C592 H583 0.930 . S
C592 C590 1.378 . S
C592 C593 1.374 . S
C593 C592 1.374 . S
C593 C595 1.428 1_455 S
C594 C590 1.350 . S
C594 C591 1.463 . S
C594 N598 1.427 . S
C595 H585 0.929 . S
C595 C593 1.428 1_655 S
C595 N598 1.384 1_655 S
C596 H587 0.929 . S
C596 C588 1.378 . S
C596 C591 1.350 . S
C597 H584 0.929 . S
C597 C589 1.433 . S
C597 N599 1.384 . S
N598 C594 1.427 . S
N598 C595 1.384 1_455 S
N599 C591 1.427 . S
N599 C597 1.384 . S
C283 C8 2.022 . S
C287 C265 2.049 . S
C301 C26 1.349 . S
C305 C193 1.315 . S
C319 C48 1.509 . S
C323 C229 1.524 . S
C337 C19 1.826 . S
C341 C241 1.876 . S
C359 C169 1.522 . S
C355 C36 1.517 . S
C377 C205 1.768 . S
C373 C59 1.731 . S
C391 C28 1.534 . S
C395 C121 1.548 . S
C409 C46 1.243 . S
C413 C133 1.252 . S
C427 C16 1.593 . S
C431 C61 1.593 . S
C449 C97 1.739 . S
C445 C39 1.700 . S
C467 C157 1.023 . S
C463 C56 1.024 . S
C481 C6 1.388 . S
C485 C85 1.353 . S
C503 C163 1.429 . S
C499 C9 1.398 . S
C517 C21 1.499 . S
C521 C91 1.503 . S
C535 C49 1.474 . S
C539 C127 1.483 . S
C557 C235 1.461 . S
C553 C29 1.469 . S
C575 C271 1.606 . S
C571 C41 1.575 . S
C589 C1 1.501 . S
C593 C199 1.502 . S
