# Generated by pormake.
# Topology pth, (4,4)-cn, num edge types: 1
# Building blocks:
#     Node 0, Type 0, BuildingBlock: UXUYUI_clean_sbu_0, # of connection points: 4
#     Node 1, Type 0, BuildingBlock: UXUYUI_clean_sbu_0, # of connection points: 4
#     Node 2, Type 0, BuildingBlock: UXUYUI_clean_sbu_0, # of connection points: 4
#     Node 3, Type 1, BuildingBlock: NAWXER_clean_linker_0, # of connection points: 4
#     Node 4, Type 1, BuildingBlock: NAWXER_clean_linker_0, # of connection points: 4
#     Node 5, Type 1, BuildingBlock: NAWXER_clean_linker_0, # of connection points: 4
#     Edge 6, Type (0, 1), BuildingBlock: ZUJKAS_clean_linker_0, # of connection points: 2
#     Edge 7, Type (0, 1), BuildingBlock: ZUJKAS_clean_linker_0, # of connection points: 2
#     Edge 8, Type (0, 1), BuildingBlock: ZUJKAS_clean_linker_0, # of connection points: 2
#     Edge 9, Type (0, 1), BuildingBlock: ZUJKAS_clean_linker_0, # of connection points: 2
#     Edge 10, Type (0, 1), BuildingBlock: ZUJKAS_clean_linker_0, # of connection points: 2
#     Edge 11, Type (0, 1), BuildingBlock: ZUJKAS_clean_linker_0, # of connection points: 2
#     Edge 12, Type (0, 1), BuildingBlock: ZUJKAS_clean_linker_0, # of connection points: 2
#     Edge 13, Type (0, 1), BuildingBlock: ZUJKAS_clean_linker_0, # of connection points: 2
#     Edge 14, Type (0, 1), BuildingBlock: ZUJKAS_clean_linker_0, # of connection points: 2
#     Edge 15, Type (0, 1), BuildingBlock: ZUJKAS_clean_linker_0, # of connection points: 2
#     Edge 16, Type (0, 1), BuildingBlock: ZUJKAS_clean_linker_0, # of connection points: 2
#     Edge 17, Type (0, 1), BuildingBlock: ZUJKAS_clean_linker_0, # of connection points: 2
# Relax obj value: 0.074
# Max RMSD: 0.209
# Mean RMSD: 0.112
data_MOF--net-pth--node1-UXUYUI_clean_sbu_0--node2-NAWXER_clean_linker_0--edge1-ZUJKAS_clean_linker_0
_symmetry_space_group_name_H-M    P1
_symmetry_Int_Tables_number       1
_symmetry_cell_setting            triclinic
loop_
_symmetry_equiv_pos_as_xyz
'x, y, z'
_cell_length_a     41.575836
_cell_length_b     41.575965
_cell_length_c     94.195201
_cell_angle_alpha  90.000853
_cell_angle_beta   90.007956
_cell_angle_gamma 120.02562
loop_
_atom_site_label
_atom_site_type_symbol
_atom_site_fract_x
_atom_site_fract_y
_atom_site_fract_z
_atom_type_partial_charge
Li0 Li 0.02962 0.02088 0.04074 0.0
Li1 Li 0.99006 0.02387 0.05927 0.0
Li2 Li 0.00378 0.97141 0.05891 0.0
Li3 Li 0.96132 0.9749 0.04196 0.0
C4 C 0.0749 0.04336 0.06565 0.0
N5 N 0.14849 0.07921 0.07408 0.0
C6 C 0.09152 0.07941 0.07115 0.0
C7 C 0.09556 0.02531 0.06473 0.0
C8 C 0.12879 0.09715 0.07526 0.0
C9 C 0.13275 0.04395 0.06897 0.0
C10 C 0.98079 0.05839 0.03677 0.0
C11 C 0.94077 0.08476 0.03842 0.0
N12 N 0.96919 0.118 0.03395 0.0
C13 C 0.00947 0.0927 0.03203 0.0
C14 C 0.94603 0.05426 0.03984 0.0
C15 C 0.00311 0.12254 0.03073 0.0
C16 C 0.0693 0.03663 0.01507 0.0
N17 N 0.0698 0.04991 0.0283 0.0
C18 C 0.12466 0.10715 0.02283 0.0
C19 C 0.09672 0.08439 0.03231 0.0
C20 C 0.12475 0.09438 0.00903 0.0
C21 C 0.09678 0.05842 0.00523 0.0
H22 H 0.04713 0.00935 0.01207 0.0
H23 H 0.09567 0.09489 0.04267 0.0
C24 C 0.95902 0.04455 0.08183 0.0
N25 N 0.98458 0.05752 0.07121 0.0
C26 C 0.95631 0.06933 0.09109 0.0
C27 C 0.00602 0.12021 0.0782 0.0
C28 C 0.00786 0.09449 0.06926 0.0
C29 C 0.98026 0.10774 0.08941 0.0
H30 H 0.94128 0.01496 0.08329 0.0
H31 H 0.02829 0.10402 0.06087 0.0
C32 C 0.01855 0.94564 0.03317 0.0
N33 N 0.04955 0.90449 0.02337 0.0
C34 C 0.99588 0.90996 0.02769 0.0
C35 C 0.05706 0.96062 0.03338 0.0
C36 C 0.01205 0.88952 0.02288 0.0
C37 C 0.07218 0.93934 0.02845 0.0
C38 C 0.91956 0.94464 0.06504 0.0
C39 C 0.90901 0.90818 0.06885 0.0
C40 C 0.89239 0.95472 0.0633 0.0
C41 C 0.87135 0.8822 0.07056 0.0
C42 C 0.85502 0.92795 0.0651 0.0
N43 N 0.84535 0.89252 0.06864 0.0
C44 C 0.02933 0.95045 0.083 0.0
C45 C 0.99734 0.90254 0.0661 0.0
C46 C 0.03301 0.9259 0.09206 0.0
N47 N 0.01177 0.93842 0.0703 0.0
C48 C 0.00013 0.877 0.07485 0.0
C49 C 0.01785 0.88853 0.08808 0.0
H50 H 0.03971 0.97892 0.08624 0.0
H51 H 0.98243 0.89339 0.05619 0.0
C52 C 0.90611 0.96066 0.02129 0.0
N53 N 0.91855 0.94493 0.03087 0.0
C54 C 0.87633 0.93827 0.01238 0.0
C55 C 0.8725 0.88408 0.02354 0.0
C56 C 0.90236 0.90748 0.03218 0.0
C57 C 0.85938 0.89942 0.01335 0.0
H58 H 0.91985 0.99054 0.02034 0.0
H59 H 0.91331 0.89576 0.03969 0.0
O60 O 0.03834 0.02558 0.06162 0.0
O61 O 0.98664 0.02896 0.03826 0.0
O62 O 0.0031 0.96605 0.03789 0.0
O63 O 0.9563 0.97035 0.06312 0.0
H64 H 0.0759 0.09367 0.07216 0.0
H65 H 0.08293 0.997 0.06101 0.0
H66 H 0.14205 0.12515 0.07942 0.0
H67 H 0.14903 0.03029 0.06827 0.0
H68 H 0.91406 0.08198 0.04085 0.0
H69 H 0.03641 0.09636 0.02945 0.0
H70 H 0.92336 0.02781 0.04328 0.0
H71 H 0.02514 0.1493 0.02717 0.0
H72 H 0.1451 0.13499 0.0261 0.0
H73 H 0.09589 0.0474 0.99473 0.0
H74 H 0.93641 0.05847 0.09971 0.0
H75 H 0.0247 0.14955 0.07639 0.0
H76 H 0.96608 0.89806 0.02723 0.0
H77 H 0.07517 0.98859 0.03708 0.0
H78 H 0.99478 0.86177 0.01873 0.0
H79 H 0.10194 0.95062 0.02859 0.0
H80 H 0.92962 0.89993 0.07038 0.0
H81 H 0.90006 0.98291 0.06061 0.0
H82 H 0.8628 0.85382 0.0734 0.0
H83 H 0.8337 0.93535 0.0637 0.0
H84 H 0.04636 0.93572 0.10227 0.0
H85 H 0.98812 0.84843 0.07139 0.0
H86 H 0.86694 0.9512 0.00471 0.0
H87 H 0.86074 0.85432 0.02447 0.0
Li88 Li 0.99095 0.96544 0.37721 0.0
Li89 Li 0.03227 0.0114 0.39434 0.0
Li90 Li 0.96642 0.99167 0.39363 0.0
Li91 Li 0.00851 0.03054 0.37499 0.0
C92 C 0.98427 0.92685 0.39998 0.0
N93 N 0.975 0.85645 0.40231 0.0
C94 C 0.01456 0.92233 0.40328 0.0
C95 C 0.94924 0.89557 0.39793 0.0
C96 C 0.0093 0.8865 0.40441 0.0
C97 C 0.94514 0.86022 0.39912 0.0
C98 C 0.06164 0.02602 0.36231 0.0
C99 C 0.10975 0.0809 0.35079 0.0
N100 N 0.10074 0.06243 0.33819 0.0
C101 C 0.05288 0.00757 0.34925 0.0
C102 C 0.09037 0.06295 0.36311 0.0
C103 C 0.07298 0.02646 0.33718 0.0
C104 C 0.95207 0.90403 0.35856 0.0
N105 N 0.98285 0.92315 0.36675 0.0
C106 C 0.00781 0.88592 0.35844 0.0
C107 C 0.01039 0.9146 0.3669 0.0
C108 C 0.97678 0.86617 0.34959 0.0
C109 C 0.94838 0.87515 0.34987 0.0
H110 H 0.93098 0.91195 0.35844 0.0
H111 H 0.03484 0.93077 0.37335 0.0
C112 C 0.06449 0.01479 0.42071 0.0
N113 N 0.07257 0.02373 0.40679 0.0
C114 C 0.09255 0.02068 0.43025 0.0
C115 C 0.13682 0.04534 0.41098 0.0
C116 C 0.10785 0.03893 0.40179 0.0
C117 C 0.12924 0.03573 0.42539 0.0
H118 H 0.03602 0.00217 0.42431 0.0
H119 H 0.11337 0.04533 0.39064 0.0
C120 C 0.9234 0.9796 0.37161 0.0
N121 N 0.8518 0.96758 0.37046 0.0
C122 C 0.91707 0.0083 0.36756 0.0
C123 C 0.89331 0.94473 0.37501 0.0
C124 C 0.88066 0.00167 0.36704 0.0
C125 C 0.85733 0.93924 0.3744 0.0
C126 C 0.02793 0.06548 0.40622 0.0
C127 C 0.01183 0.05818 0.41972 0.0
C128 C 0.06417 0.09493 0.40434 0.0
C129 C 0.03236 0.08045 0.43114 0.0
C130 C 0.0838 0.11651 0.41603 0.0
N131 N 0.06762 0.10888 0.42908 0.0
C132 C 0.90867 0.95513 0.41399 0.0
C133 C 0.91515 0.01041 0.404 0.0
C134 C 0.88013 0.95165 0.42284 0.0
N135 N 0.92548 0.98422 0.40486 0.0
C136 C 0.88665 0.0079 0.41255 0.0
C137 C 0.86901 0.97848 0.42227 0.0
H138 H 0.918 0.93513 0.41465 0.0
H139 H 0.92952 0.03358 0.3968 0.0
C140 C 0.00675 0.05755 0.34799 0.0
N141 N 0.01738 0.06815 0.36163 0.0
C142 C 0.01031 0.08361 0.33787 0.0
C143 C 0.0361 0.1311 0.35602 0.0
C144 C 0.032 0.10407 0.3658 0.0
C145 C 0.02474 0.12087 0.34189 0.0
H146 H 0.99483 0.02865 0.34505 0.0
H147 H 0.03961 0.11156 0.37677 0.0
O148 O 0.98896 0.96168 0.39857 0.0
O149 O 0.04182 0.00825 0.37421 0.0
O150 O 0.95887 0.98569 0.37243 0.0
O151 O 0.0086 0.04351 0.39495 0.0
H152 H 0.04193 0.94618 0.40479 0.0
H153 H 0.92556 0.89856 0.39529 0.0
H154 H 0.03251 0.88259 0.4069 0.0
H155 H 0.91824 0.83577 0.39748 0.0
H156 H 0.13187 0.10955 0.35123 0.0
H157 H 0.03055 0.97911 0.34839 0.0
H158 H 0.09723 0.0778 0.37308 0.0
H159 H 0.06641 0.01257 0.327 0.0
H160 H 0.03015 0.87966 0.35868 0.0
H161 H 0.92425 0.86101 0.34306 0.0
H162 H 0.08531 0.01224 0.44121 0.0
H163 H 0.16476 0.05729 0.4068 0.0
H164 H 0.94 0.03554 0.36499 0.0
H165 H 0.89772 0.92228 0.37825 0.0
H166 H 0.87536 0.02367 0.36398 0.0
H167 H 0.8338 0.91247 0.37708 0.0
H168 H 0.98395 0.03535 0.42141 0.0
H169 H 0.07721 0.10073 0.394 0.0
H170 H 0.0203 0.07503 0.44166 0.0
H171 H 0.11194 0.13922 0.41475 0.0
H172 H 0.86773 0.92885 0.43032 0.0
H173 H 0.87869 0.02895 0.4116 0.0
H174 H 0.00152 0.07463 0.32707 0.0
H175 H 0.04682 0.15941 0.35961 0.0
Li176 Li 0.02264 0.99095 0.70989 0.0
Li177 Li 0.02105 0.03295 0.72769 0.0
Li178 Li 0.97299 0.96536 0.72685 0.0
Li179 Li 0.97262 0.00782 0.70911 0.0
C180 C 0.05626 0.98313 0.73255 0.0
N181 N 0.11619 0.97208 0.7354 0.0
C182 C 0.09079 0.01235 0.73684 0.0
C183 C 0.0521 0.94816 0.72991 0.0
C184 C 0.12077 0.00623 0.73818 0.0
C185 C 0.08277 0.94317 0.73135 0.0
C186 C 0.04489 0.07616 0.70195 0.0
C187 C 0.04566 0.13369 0.69748 0.0
N188 N 0.08038 0.14835 0.69192 0.0
C189 C 0.08039 0.09165 0.69601 0.0
C190 C 0.02721 0.09721 0.70254 0.0
C191 C 0.09795 0.12824 0.69108 0.0
C192 C 0.04135 0.95461 0.68881 0.0
N193 N 0.05533 0.98258 0.6985 0.0
C194 C 0.11734 0.00192 0.69117 0.0
C195 C 0.09248 0.00604 0.69983 0.0
C196 C 0.10377 0.97357 0.68092 0.0
C197 C 0.06522 0.94955 0.67986 0.0
H198 H 0.01165 0.93663 0.68786 0.0
H199 H 0.10278 0.02842 0.70747 0.0
C200 C 0.03844 0.07003 0.75373 0.0
N201 N 0.05032 0.07309 0.7401 0.0
C202 C 0.06023 0.09695 0.76375 0.0
C203 C 0.10579 0.12992 0.74543 0.0
C204 C 0.08321 0.10229 0.7358 0.0
C205 C 0.09458 0.12719 0.75965 0.0
H206 H 0.01234 0.04622 0.75687 0.0
H207 H 0.09265 0.10352 0.72505 0.0
C208 C 0.9414 0.92275 0.70436 0.0
N209 N 0.88515 0.84971 0.70193 0.0
C210 C 0.90595 0.9145 0.69998 0.0
C211 C 0.94837 0.89385 0.70731 0.0
C212 C 0.87786 0.87739 0.69886 0.0
C213 C 0.91953 0.85711 0.70608 0.0
C214 C 0.94756 0.0263 0.73451 0.0
C215 C 0.91135 0.00551 0.73975 0.0
C216 C 0.96494 0.06506 0.73437 0.0
C217 C 0.89278 0.02381 0.74438 0.0
C218 C 0.94548 0.08234 0.73911 0.0
N219 N 0.91008 0.06152 0.74396 0.0
C220 C 0.9561 0.91016 0.74775 0.0
C221 C 0.90407 0.90895 0.73689 0.0
C222 C 0.93284 0.88064 0.75661 0.0
N223 N 0.94138 0.92369 0.73819 0.0
C224 C 0.87981 0.87938 0.74547 0.0
C225 C 0.89414 0.86505 0.75559 0.0
H226 H 0.9859 0.92265 0.74865 0.0
H227 H 0.89317 0.92058 0.72931 0.0
C228 C 0.95545 0.03071 0.68362 0.0
N229 N 0.94216 0.01715 0.69678 0.0
C230 C 0.93308 0.03535 0.67375 0.0
C231 C 0.88368 0.01178 0.69113 0.0
C232 C 0.90706 0.00772 0.70067 0.0
C233 C 0.8965 0.02546 0.6774 0.0
H234 H 0.98326 0.03731 0.68072 0.0
H235 H 0.89668 0.99571 0.71099 0.0
O236 O 0.02668 0.9887 0.73102 0.0
O237 O 0.02732 0.04028 0.7068 0.0
O238 O 0.96913 0.95892 0.70572 0.0
O239 O 0.96617 0.00874 0.73002 0.0
H240 H 0.0945 0.03952 0.73901 0.0
H241 H 0.02554 0.92518 0.72671 0.0
H242 H 0.1477 0.02865 0.7414 0.0
H243 H 0.07999 0.91632 0.72924 0.0
H244 H 0.03228 0.15027 0.6979 0.0
H245 H 0.09435 0.07569 0.69527 0.0
H246 H -0.00069 0.08541 0.70663 0.0
H247 H 0.12553 0.14063 0.68656 0.0
H248 H 0.1468 0.02145 0.69218 0.0
H249 H 0.05365 0.92722 0.67215 0.0
H250 H 0.05052 0.09392 0.7746 0.0
H251 H 0.13241 0.15238 0.7419 0.0
H252 H 0.90011 0.93647 0.69756 0.0
H253 H 0.97569 0.89973 0.71059 0.0
H254 H 0.85024 0.87061 0.69557 0.0
H255 H 0.92448 0.83448 0.70843 0.0
H256 H 0.89759 0.97555 0.74016 0.0
H257 H 0.9933 0.08174 0.73082 0.0
H258 H 0.86465 0.00801 0.74835 0.0
H259 H 0.95861 0.11231 0.73901 0.0
H260 H 0.94499 0.87025 0.76421 0.0
H261 H 0.85021 0.86863 0.74449 0.0
H262 H 0.94419 0.04624 0.66333 0.0
H263 H 0.85543 0.003 0.6943 0.0
C264 C 0.98215 0.37976 0.24148 0.0
C265 C 0.01178 0.39135 0.25111 0.0
C266 C 0.97854 0.40576 0.23326 0.0
C267 C 0.00482 0.44374 0.23438 0.0
C268 C 0.03771 0.42945 0.25233 0.0
C269 C 0.03414 0.45538 0.24409 0.0
C270 C 0.00149 0.47179 0.22589 0.0
C271 C 0.01941 0.39964 0.19497 0.0
C272 C 0.98993 0.38101 0.18531 0.0
C273 C 0.02189 0.42855 0.20334 0.0
C274 C 0.99467 0.43901 0.20233 0.0
C275 C 0.96311 0.39203 0.18417 0.0
C276 C 0.96557 0.42085 0.19256 0.0
C277 C 0.99672 0.46958 0.21101 0.0
C278 C 0.0257 0.62252 0.19658 0.0
C279 C 0.00214 0.61392 0.18475 0.0
C280 C 0.02353 0.59433 0.2053 0.0
C281 C 0.99724 0.55698 0.20254 0.0
C282 C 0.97601 0.57648 0.18198 0.0
C283 C 0.97367 0.54833 0.19077 0.0
C284 C 0.9962 0.52668 0.21116 0.0
C285 C 0.964 0.58865 0.24162 0.0
C286 C 0.98917 0.60622 0.25282 0.0
C287 C 0.96751 0.56362 0.23278 0.0
C288 C 0.9964 0.55589 0.23492 0.0
C289 C 0.01801 0.59836 0.25495 0.0
C290 C 0.02142 0.57322 0.24613 0.0
C291 C -0.00086 0.52792 0.22612 0.0
H292 H 0.96134 0.35066 0.2405 0.0
H293 H 0.95505 0.39622 0.22614 0.0
H294 H 0.06099 0.43922 0.25957 0.0
H295 H 0.05458 0.48459 0.24518 0.0
H296 H 0.04045 0.39174 0.19613 0.0
H297 H 0.04514 0.4428 0.21054 0.0
H298 H 0.94049 0.37879 0.17664 0.0
H299 H 0.94454 0.42882 0.19148 0.0
H300 H 0.04598 0.65104 0.19909 0.0
H301 H 0.04296 0.60179 0.21401 0.0
H302 H 0.95791 0.56879 0.17282 0.0
H303 H 0.95357 0.5197 0.18829 0.0
H304 H 0.9416 0.59428 0.23969 0.0
H305 H 0.94726 0.54985 0.22443 0.0
H306 H 0.0375 0.61107 0.26361 0.0
H307 H 0.0436 0.56727 0.24808 0.0
N308 N 0.00233 0.50079 0.23287 0.0
N309 N 0.99446 0.49721 0.20422 0.0
C310 C 0.61539 0.01636 0.52717 0.0
C311 C 0.60335 0.9873 0.51724 0.0
C312 C 0.58981 0.01953 0.53582 0.0
C313 C 0.55176 0.99335 0.53485 0.0
C314 C 0.56517 0.96144 0.5162 0.0
C315 C 0.53967 0.96453 0.52489 0.0
C316 C 0.52403 0.99654 0.54363 0.0
C317 C 0.59808 0.97996 0.57424 0.0
C318 C 0.61732 0.01016 0.58356 0.0
C319 C 0.56864 0.97688 0.56604 0.0
C320 C 0.55822 0.00414 0.56691 0.0
C321 C 0.60653 0.03719 0.58445 0.0
C322 C 0.57713 0.03406 0.57628 0.0
C323 C 0.52696 0.00139 0.55851 0.0
C324 C 0.37408 0.97022 0.57398 0.0
C325 C 0.38249 0.99477 0.58545 0.0
C326 C 0.40229 0.97261 0.56524 0.0
C327 C 0.43946 -0.00013 0.56769 0.0
C328 C 0.41975 0.0219 0.58794 0.0
C329 C 0.44798 0.02429 0.57918 0.0
C330 C 0.46965 0.00142 0.55888 0.0
C331 C 0.4069 0.03502 0.52967 0.0
C332 C 0.38882 0.01056 0.51832 0.0
C333 C 0.43219 0.0309 0.53811 0.0
C334 C 0.43965 0.00201 0.53547 0.0
C335 C 0.39645 0.98174 0.51567 0.0
C336 C 0.42182 0.97767 0.52412 0.0
C337 C 0.46782 -0.00128 0.54394 0.0
H338 H 0.64461 0.03666 0.52829 0.0
H339 H 0.59974 0.04264 0.54314 0.0
H340 H 0.55487 0.93917 0.50848 0.0
H341 H 0.51038 0.94433 0.52383 0.0
H342 H 0.60529 0.95834 0.57349 0.0
H343 H 0.55381 0.95306 0.55913 0.0
H344 H 0.62104 0.06101 0.59138 0.0
H345 H 0.56939 0.05531 0.57715 0.0
H346 H 0.34576 0.94853 0.57195 0.0
H347 H 0.39509 0.9526 0.55674 0.0
H348 H 0.42709 0.04142 0.59663 0.0
H349 H 0.47649 0.04532 0.58135 0.0
H350 H 0.40226 0.05797 0.53181 0.0
H351 H 0.44652 0.05082 0.54651 0.0
H352 H 0.38273 0.96223 0.5071 0.0
H353 H 0.42741 0.95539 0.52183 0.0
N354 N 0.49469 0.99566 0.53691 0.0
N355 N 0.49951 0.00337 0.56557 0.0
C356 C 0.39536 0.37806 0.86314 0.0
C357 C 0.37706 0.38859 0.85321 0.0
C358 C 0.42526 0.40491 0.87101 0.0
C359 C 0.437 0.44275 0.86927 0.0
C360 C 0.38954 0.42658 0.85126 0.0
C361 C 0.41927 0.45337 0.85918 0.0
C362 C 0.46818 0.47167 0.87761 0.0
C363 C 0.3779 0.40049 0.90856 0.0
C364 C 0.38875 0.3815 0.91804 0.0
C365 C 0.40436 0.42979 0.90034 0.0
C366 C 0.44206 0.44032 0.90135 0.0
C367 C 0.42666 0.39272 0.91921 0.0
C368 C 0.45305 0.42199 0.911 0.0
C369 C 0.47044 0.47063 0.89255 0.0
C370 C 0.58996 0.62581 0.90596 0.0
C371 C 0.60645 0.61913 0.91777 0.0
C372 C 0.56473 0.59643 0.89748 0.0
C373 C 0.55581 0.55981 0.90054 0.0
C374 C 0.59745 0.58244 0.92081 0.0
C375 C 0.57221 0.55305 0.91232 0.0
C376 C 0.52739 0.52832 0.89214 0.0
C377 C 0.62257 0.59034 0.86229 0.0
C378 C 0.61506 0.60643 0.85055 0.0
C379 C 0.59378 0.56531 0.87103 0.0
C380 C 0.55694 0.55617 0.86832 0.0
C381 C 0.57811 0.59703 0.8478 0.0
C382 C 0.54932 0.57197 0.85656 0.0
C383 C 0.52613 0.5284 0.87715 0.0
H384 H 0.3864 0.34904 0.86493 0.0
H385 H 0.43917 0.39609 0.87845 0.0
H386 H 0.37661 0.4357 0.84348 0.0
H387 H 0.42823 0.48245 0.85753 0.0
H388 H 0.34901 0.39298 0.90761 0.0
H389 H 0.3954 0.44421 0.89321 0.0
H390 H 0.4359 0.37846 0.92629 0.0
H391 H 0.48205 0.42986 0.91198 0.0
H392 H 0.59573 0.65365 0.90349 0.0
H393 H 0.55151 0.60228 0.88874 0.0
H394 H 0.60995 0.57642 0.92976 0.0
H395 H 0.56549 0.52499 0.91494 0.0
H396 H 0.65061 0.59641 0.86452 0.0
H397 H 0.60027 0.55254 0.87975 0.0
H398 H 0.57145 0.60921 0.83892 0.0
H399 H 0.52107 0.56506 0.85419 0.0
N400 N 0.49623 0.50042 0.87048 0.0
N401 N 0.49984 0.49909 0.89925 0.0
H402 H 0.91919 0.10621 0.10127 0.0
H403 H 0.91828 0.15111 0.11789 0.0
H404 H 0.03792 0.21492 0.11689 0.0
H405 H 0.03924 0.17002 0.10056 0.0
H406 H 0.95556 0.1745 0.14539 0.0
H407 H 0.00302 0.29019 0.10663 0.0
H408 H 0.98389 0.24234 0.10126 0.0
H409 H 0.03106 0.2685 0.10739 0.0
C410 C 0.94532 0.12966 0.10467 0.0
C411 C 0.97929 0.1347 0.09949 0.0
C412 C 0.94471 0.15532 0.1141 0.0
C413 C 0.978 0.1865 0.11841 0.0
C414 C 0.01191 0.19136 0.11344 0.0
H415 H 0.04649 0.37847 0.1715 0.0
H416 H 0.04215 0.32942 0.15592 0.0
C417 C 0.01258 0.16573 0.10407 0.0
C418 C 0.97757 0.21394 0.12825 0.0
H419 H 0.00178 0.30515 0.13086 0.0
C420 C 0.96536 0.20302 0.14223 0.0
C421 C 0.99044 0.25103 0.12403 0.0
C422 C 0.00257 0.26378 0.10898 0.0
C423 C 0.96677 0.22864 0.15227 0.0
C424 C 0.9801 0.26589 0.14809 0.0
C425 C 0.99175 0.2766 0.13404 0.0
C426 C 0.98261 0.29444 0.15812 0.0
C427 C 0.95509 0.21593 0.16736 0.0
C428 C 0.95056 0.29097 0.1645 0.0
C429 C 0.95299 0.3188 0.17351 0.0
C430 C 0.98751 0.35074 0.1762 0.0
C431 C 0.01958 0.354 0.16982 0.0
C432 C 0.01712 0.32613 0.16084 0.0
H433 H 0.9546 0.18947 0.16963 0.0
H434 H 0.97404 0.23731 0.17504 0.0
H435 H 0.92667 0.21126 0.1691 0.0
H436 H 0.92358 0.26703 0.16235 0.0
H437 H 0.92782 0.31531 0.17836 0.0
H438 H 0.86827 0.03611 0.43596 0.0
H439 H 0.82066 0.03343 0.45188 0.0
H440 H 0.75741 0.9144 0.44717 0.0
H441 H 0.8045 0.91677 0.43086 0.0
H442 H 0.73978 -0.00107 0.4449 0.0
H443 H 0.7716 0.93682 0.49144 0.0
H444 H 0.8051 0.96108 0.47754 0.0
H445 H 0.76673 0.91534 0.47436 0.0
C446 C 0.84407 0.00935 0.43815 0.0
C447 C 0.84014 0.97665 0.43207 0.0
C448 C 0.81705 0.00789 0.44733 0.0
C449 C 0.78581 0.97373 0.45073 0.0
C450 C 0.78166 0.94098 0.44476 0.0
H451 H 0.60413 0.9244 0.50911 0.0
H452 H 0.6468 0.91966 0.49249 0.0
C453 C 0.80862 0.9424 0.4355 0.0
C454 C 0.75731 0.97275 0.46035 0.0
H455 H 0.7226 0.94942 0.49395 0.0
C456 C 0.73586 0.98802 0.45561 0.0
C457 C 0.75228 0.95824 0.47425 0.0
C458 C 0.77519 0.94207 0.47982 0.0
C459 C 0.70943 0.98931 0.46447 0.0
C460 C 0.70515 0.97586 0.47854 0.0
C461 C 0.72611 0.95987 0.48318 0.0
C462 C 0.67958 0.97882 0.48869 0.0
C463 C 0.68607 0.00469 0.4586 0.0
C464 C 0.68433 0.01371 0.49225 0.0
C465 C 0.65981 0.0165 0.5016 0.0
C466 C 0.63027 0.98444 0.50771 0.0
C467 C 0.62619 0.94958 0.5044 0.0
C468 C 0.65067 0.94682 0.49499 0.0
H469 H 0.68487 0.00339 0.44682 0.0
H470 H 0.65729 0.98931 0.46282 0.0
H471 H 0.69855 0.03427 0.46175 0.0
H472 H 0.70697 0.03882 0.48774 0.0
H473 H 0.6636 0.04373 0.50384 0.0
H474 H 0.90274 0.86022 0.78413 0.0
H475 H 0.8586 0.81361 0.80066 0.0
H476 H 0.78347 0.75706 0.76598 0.0
H477 H 0.82786 0.80296 0.74933 0.0
H478 H 0.78613 0.79977 0.80507 0.0
H479 H 0.78586 0.6723 0.78741 0.0
H480 H 0.82226 0.7184 0.78264 0.0
H481 H 0.77861 0.69722 0.77337 0.0
C482 C 0.8772 0.83739 0.77998 0.0
C483 C 0.86877 0.83523 0.76543 0.0
C484 C 0.85194 0.81094 0.78944 0.0
C485 C 0.818 0.78173 0.78451 0.0
C486 C 0.80981 0.77905 0.76996 0.0
H487 H 0.61488 0.60951 0.82154 0.0
H488 H 0.66511 0.65272 0.80598 0.0
C489 C 0.835 0.80551 0.7605 0.0
C490 C 0.78997 0.75568 0.79468 0.0
H491 H 0.73748 0.66386 0.80321 0.0
C492 C 0.77572 0.77008 0.80478 0.0
C493 C 0.77641 0.71701 0.79419 0.0
C494 C 0.79177 0.70026 0.78391 0.0
C495 C 0.74745 0.74669 0.81417 0.0
C496 C 0.73362 0.70796 0.81359 0.0
C497 C 0.74816 0.69358 0.8036 0.0
C498 C 0.70352 0.68184 0.82309 0.0
C499 C 0.73184 0.7635 0.82432 0.0
C500 C 0.70869 0.68376 0.83785 0.0
C501 C 0.67995 0.65936 0.84678 0.0
C502 C 0.6456 0.63245 0.84109 0.0
C503 C 0.64076 0.63033 0.82627 0.0
C504 C 0.6695 0.65476 0.81736 0.0
H505 H 0.73905 0.79204 0.8211 0.0
H506 H 0.70114 0.7461 0.82504 0.0
H507 H 0.74354 0.76513 0.83506 0.0
H508 H 0.73497 0.70411 0.84246 0.0
H509 H 0.68449 0.66185 0.85814 0.0
H510 H 0.96107 0.8194 0.09461 0.0
H511 H 0.9618 0.77477 0.11129 0.0
H512 H 0.07725 0.85112 0.12047 0.0
H513 H 0.07656 0.8962 0.10388 0.0
H514 H 0.00335 0.74088 0.1111 0.0
H515 H 0.03215 0.8261 0.15989 0.0
H516 H 0.01876 0.83801 0.14336 0.0
H517 H 0.06579 0.84827 0.14603 0.0
C518 C 0.98668 0.8266 0.10012 0.0
C519 C 0.01877 0.86128 0.09796 0.0
C520 C 0.98701 0.80116 0.10969 0.0
C521 C 0.0194 0.80986 0.11728 0.0
C522 C 0.0517 0.84422 0.11498 0.0
H523 H 0.06576 0.67586 0.17581 0.0
H524 H 0.07107 0.72416 0.15954 0.0
C525 C 0.05131 0.86986 0.10548 0.0
C526 C 0.01923 0.78251 0.12739 0.0
H527 H 0.03148 0.76901 0.1623 0.0
C528 C 0.00947 0.74704 0.12229 0.0
C529 C 0.02724 0.79064 0.14199 0.0
C530 C 0.03625 0.82769 0.1482 0.0
C531 C 0.00747 0.71944 0.13141 0.0
C532 C 0.01526 0.72754 0.14598 0.0
C533 C 0.02559 0.76309 0.15108 0.0
C534 C 0.01191 0.69901 0.15614 0.0
C535 C 0.99715 0.68182 0.12544 0.0
C536 C 0.97682 0.66935 0.15972 0.0
C537 C 0.97359 0.64197 0.16915 0.0
C538 C 0.00547 0.64374 0.17511 0.0
C539 C 0.04061 0.67387 0.17158 0.0
C540 C 0.04376 0.70137 0.16222 0.0
H541 H -0.0015 0.68208 0.11365 0.0
H542 H 0.01586 0.67225 0.12969 0.0
H543 H 0.96837 0.66136 0.1287 0.0
H544 H 0.95192 0.66743 0.15523 0.0
H545 H 0.9461 0.61954 0.17182 0.0
H546 H 0.18433 0.01986 0.41977 0.0
H547 H 0.23013 0.02093 0.43631 0.0
H548 H 0.1866 0.05936 0.46965 0.0
H549 H 0.14095 0.05898 0.45311 0.0
H550 H 0.2852 0.0811 0.45373 0.0
H551 H 0.17871 0.9617 0.48512 0.0
H552 H 0.16946 0.97267 0.46758 0.0
H553 H 0.17065 -4e-05 0.48256 0.0
C554 C 0.18488 0.0292 0.43054 0.0
C555 C 0.15886 0.03918 0.43514 0.0
C556 C 0.21094 0.02959 0.43999 0.0
C557 C 0.21131 0.03972 0.4542 0.0
C558 C 0.18626 0.05085 0.45875 0.0
H559 H 0.33646 0.02852 0.52636 0.0
H560 H 0.29479 0.03861 0.51104 0.0
C561 C 0.1602 0.05055 0.4493 0.0
C562 C 0.2373 0.03752 0.46432 0.0
H563 H 0.24075 0.98888 0.49289 0.0
C564 C 0.27557 0.06105 0.46233 0.0
C565 C 0.22448 0.01136 0.47551 0.0
C566 C 0.18362 0.98473 0.47783 0.0
C567 C 0.30152 0.05913 0.47129 0.0
C568 C 0.28873 0.0324 0.4823 0.0
C569 C 0.25042 0.0093 0.48442 0.0
C570 C 0.31461 0.02719 0.4915 0.0
C571 C 0.34233 0.08599 0.46898 0.0
C572 C 0.33915 0.01694 0.4856 0.0
C573 C 0.36315 0.01143 0.4943 0.0
C574 C 0.36281 0.01574 0.5091 0.0
C575 C 0.33779 0.02553 0.51499 0.0
C576 C 0.31385 0.0311 0.50627 0.0
H577 H 0.3469 0.11106 0.46307 0.0
H578 H 0.35746 0.0949 0.47924 0.0
H579 H 0.35445 0.07217 0.46263 0.0
H580 H 0.3396 0.01298 0.47425 0.0
H581 H 0.38229 0.00423 0.48941 0.0
H582 H 0.13527 0.20278 0.75701 0.0
H583 H 0.1807 0.24722 0.77383 0.0
H584 H 0.15647 0.15782 0.80294 0.0
H585 H 0.1109 0.11328 0.78623 0.0
H586 H 0.16335 0.2205 0.81631 0.0
H587 H 0.28218 0.25646 0.7802 0.0
H588 H 0.24645 0.26324 0.77256 0.0
H589 H 0.23649 0.21716 0.77713 0.0
C590 C 0.13961 0.19264 0.76701 0.0
C591 C 0.11973 0.15455 0.77027 0.0
C592 C 0.16557 0.21801 0.77658 0.0
C593 C 0.1724 0.20566 0.78949 0.0
C594 C 0.15165 0.16786 0.793 0.0
H595 H 0.37003 0.32556 0.84105 0.0
H596 H 0.31871 0.27983 0.82655 0.0
C597 C 0.12555 0.14249 0.78347 0.0
C598 C 0.2019 0.23192 0.79918 0.0
H599 H 0.29524 0.29215 0.80122 0.0
C600 C 0.19221 0.23617 0.81304 0.0
C601 C 0.23958 0.25179 0.79493 0.0
C602 C 0.25196 0.24676 0.78045 0.0
C603 C 0.2192 0.26023 0.82274 0.0
C604 C 0.2567 0.281 0.81833 0.0
C605 C 0.26641 0.27638 0.80453 0.0
C606 C 0.28652 0.30758 0.82786 0.0
C607 C 0.20743 0.26264 0.83767 0.0
C608 C 0.28539 0.33832 0.83339 0.0
C609 C 0.31448 0.36428 0.84182 0.0
C610 C 0.34545 0.3602 0.84473 0.0
C611 C 0.34637 0.32926 0.8392 0.0
C612 C 0.3172 0.30324 0.83083 0.0
H613 H 0.18035 0.23789 0.84043 0.0
H614 H 0.22856 0.26529 0.84552 0.0
H615 H 0.20425 0.28751 0.83859 0.0
H616 H 0.26232 0.34258 0.83101 0.0
H617 H 0.31272 0.38759 0.84603 0.0
H618 H 0.84565 0.0481 0.68158 0.0
H619 H 0.80093 0.04708 0.66444 0.0
H620 H 0.84618 0.00782 0.63203 0.0
H621 H 0.89001 0.00738 0.6492 0.0
H622 H 0.8122 0.08357 0.63827 0.0
H623 H 0.73539 0.93007 0.63179 0.0
H624 H 0.76802 0.95306 0.64603 0.0
H625 H 0.78444 0.95209 0.62848 0.0
C626 C 0.84593 0.03902 0.67083 0.0
C627 C 0.8712 0.02754 0.66679 0.0
C628 C 0.82056 0.03871 0.66103 0.0
C629 C 0.8199 0.0268 0.64705 0.0
C630 C 0.84582 0.01647 0.64285 0.0
H631 H 0.67259 0.99582 0.57596 0.0
H632 H 0.72344 0.0012 0.59082 0.0
C633 C 0.87115 0.01668 0.65264 0.0
C634 C 0.79171 0.02475 0.63694 0.0
H635 H 0.71709 0.96414 0.61706 0.0
C636 C 0.7914 0.05749 0.63362 0.0
C637 C 0.76469 0.99065 0.6309 0.0
C638 C 0.76279 0.95438 0.63454 0.0
C639 C 0.76477 0.05705 0.62435 0.0
C640 C 0.73752 0.0229 0.61845 0.0
C641 C 0.73815 0.99026 0.6216 0.0
C642 C 0.7072 0.02019 0.60941 0.0
C643 C 0.76614 0.09314 0.62087 0.0
C644 C 0.68101 0.0285 0.61505 0.0
C645 C 0.65183 0.02517 0.60666 0.0
C646 C 0.64824 0.01334 0.59247 0.0
C647 C 0.67439 0.00468 0.58689 0.0
C648 C 0.70355 0.00795 0.59532 0.0
H649 H 0.79384 0.11752 0.62321 0.0
H650 H 0.75947 0.09406 0.60951 0.0
H651 H 0.74523 0.09557 0.6274 0.0
H652 H 0.68288 0.03714 0.62602 0.0
H653 H 0.63176 0.03132 0.61137 0.0
H654 H 0.85651 0.90897 0.98477 0.0
H655 H 0.81078 0.86553 0.96783 0.0
H656 H 0.75087 0.79024 0.00206 0.0
H657 H 0.79583 0.83396 0.01911 0.0
H658 H 0.79705 0.79352 0.96352 0.0
H659 H 0.66811 0.79257 0.97937 0.0
H660 H 0.71374 0.82879 0.98474 0.0
H661 H 0.69155 0.7849 0.99386 0.0
C662 C 0.83308 0.8836 0.98873 0.0
C663 C 0.82976 0.87488 0.00328 0.0
C664 C 0.80713 0.85873 0.97903 0.0
C665 C 0.77728 0.82489 0.98371 0.0
C666 C 0.77334 0.81651 -0.00174 0.0
H667 H 0.60923 0.62019 0.94677 0.0
H668 H 0.65149 0.67145 0.96215 0.0
C669 C 0.79928 0.84133 0.00796 0.0
C670 C 0.75207 0.79697 0.97331 0.0
H671 H 0.66085 0.74357 0.96406 0.0
C672 C 0.76731 0.78287 0.96351 0.0
C673 C 0.71333 0.78311 0.9734 0.0
C674 C 0.69568 0.79834 0.98331 0.0
C675 C 0.74466 0.75436 0.95407 0.0
C676 C 0.70585 0.74008 0.9543 0.0
C677 C 0.69065 0.75458 0.96395 0.0
C678 C 0.68043 0.70934 0.94488 0.0
C679 C 0.76232 0.73889 0.94426 0.0
C680 C 0.68262 0.71384 0.93009 0.0
C681 C 0.65875 0.6845 0.92126 0.0
C682 C 0.63215 0.65022 0.9271 0.0
C683 C 0.62983 0.64601 0.94194 0.0
C684 C 0.65371 0.67534 0.95074 0.0
H685 H 0.79095 0.74687 0.94765 0.0
H686 H 0.74547 0.70811 0.94375 0.0
H687 H 0.76389 0.74992 0.9334 0.0
H688 H 0.70273 0.74007 0.92537 0.0
H689 H 0.66135 0.68855 0.90987 0.0
H690 H 0.03335 0.86982 0.33365 0.0
H691 H 0.0309 0.82382 0.31695 0.0
H692 H 0.91409 0.75314 0.32557 0.0
H693 H 0.91654 0.79863 0.34275 0.0
H694 H 0.95425 0.71559 0.32549 0.0
H695 H 0.98466 0.80287 0.27737 0.0
H696 H 0.01823 0.82522 0.29125 0.0
H697 H 0.97093 0.81407 0.294 0.0
C698 C 0.00718 0.84433 0.33213 0.0
C699 C 0.97512 0.83785 0.33955 0.0
C700 C 0.00574 0.81831 0.32243 0.0
C701 C 0.97217 0.78546 0.31984 0.0
C702 C 0.94018 0.77855 0.32734 0.0
H703 H 0.92524 0.59753 0.26466 0.0
H704 H 0.91866 0.64013 0.28078 0.0
C705 C 0.94159 0.80461 0.33708 0.0
C706 C 0.97094 0.75805 0.30952 0.0
H707 H 0.99007 0.74852 0.27505 0.0
C708 C 0.96163 0.72256 0.31442 0.0
C709 C 0.98049 0.7673 0.29509 0.0
C710 C 0.98879 0.80431 0.28906 0.0
C711 C 0.96307 0.6965 0.30536 0.0
C712 C 0.97369 0.7062 0.29105 0.0
C713 C 0.98215 0.74135 0.28607 0.0
C714 C 0.97735 0.68064 0.28116 0.0
C715 C 0.95447 0.65929 0.31126 0.0
C716 C 0.01242 0.68981 0.27585 0.0
C717 C 0.01626 0.6657 0.2666 0.0
C718 C 0.98499 0.63214 0.26242 0.0
C719 C 0.94979 0.62332 0.26761 0.0
C720 C 0.94601 0.64741 0.27691 0.0
H721 H 0.95355 0.65879 0.32305 0.0
H722 H 0.92699 0.63754 0.30726 0.0
H723 H 0.97554 0.65207 0.3077 0.0
H724 H 0.03688 0.71551 0.27896 0.0
H725 H 0.04365 0.67344 0.26264 0.0
H726 H 0.09567 0.96113 0.65232 0.0
H727 H 0.14041 0.96002 0.63573 0.0
H728 H 0.21573 0.97921 0.67039 0.0
H729 H 0.17079 0.97943 0.6871 0.0
H730 H 0.21302 0.01944 0.63141 0.0
H731 H 0.21362 0.89218 0.64882 0.0
H732 H 0.17699 0.90155 0.65354 0.0
H733 H 0.2205 0.92414 0.6629 0.0
C734 C 0.12142 0.96432 0.65645 0.0
C735 C 0.1297 0.97031 0.67102 0.0
C736 C 0.14701 0.96391 0.64695 0.0
C737 C 0.18114 0.96914 0.65187 0.0
C738 C 0.18926 0.97451 0.66643 0.0
H739 H 0.38371 -0.00048 0.61442 0.0
H740 H 0.33414 0.99357 0.63012 0.0
C741 C 0.16374 0.97501 0.67592 0.0
C742 C 0.20927 0.97143 0.64169 0.0
H743 H 0.26172 0.93223 0.63297 0.0
C744 C 0.22348 0.0002 0.63165 0.0
C745 C 0.22285 0.94634 0.64211 0.0
C746 C 0.20752 0.91409 0.65233 0.0
C747 C 0.25169 0.00518 0.62221 0.0
C748 C 0.26553 0.9803 0.62271 0.0
C749 C 0.25106 0.95128 0.63266 0.0
C750 C 0.29543 0.98423 0.61311 0.0
C751 C 0.26721 0.03766 0.61208 0.0
C752 C 0.28991 0.98071 0.59838 0.0
C753 C 0.31826 0.9844 0.58938 0.0
C754 C 0.35256 0.99147 0.59498 0.0
C755 C 0.35785 0.99471 0.60977 0.0
C756 C 0.32948 0.99101 0.61875 0.0
H757 H 0.26003 0.05897 0.61536 0.0
H758 H 0.29791 0.05098 0.61132 0.0
H759 H 0.25542 0.02762 0.60135 0.0
H760 H 0.26359 0.97491 0.59384 0.0
H761 H 0.31341 0.98199 0.57803 0.0
H762 H 0.1135 0.1031 0.98101 0.0
H763 H 0.15846 0.14739 0.96411 0.0
H764 H 0.24327 0.18781 0.99644 0.0
H765 H 0.1989 0.14266 0.01326 0.0
H766 H 0.19483 0.22315 0.96694 0.0
H767 H 0.29657 0.17444 0.96277 0.0
H768 H 0.25081 0.14615 0.97026 0.0
H769 H 0.28749 0.1818 0.98075 0.0
C770 C 0.14195 0.12075 0.98443 0.0
C771 C 0.15265 0.11929 -0.00152 0.0
C772 C 0.16751 0.14622 0.97479 0.0
C773 C 0.20427 0.17055 0.97897 0.0
C774 C 0.21522 0.16879 0.99291 0.0
H775 H 0.39391 0.36611 0.94591 0.0
H776 H 0.34814 0.31369 0.95999 0.0
C777 C 0.18971 0.14328 0.00255 0.0
C778 C 0.23043 0.19961 0.96912 0.0
H779 H 0.31598 0.23527 0.95381 0.0
C780 C 0.22114 0.22558 0.96393 0.0
C781 C 0.26473 0.20268 0.96524 0.0
C782 C 0.27539 0.17457 0.96993 0.0
C783 C 0.24577 0.25527 0.95531 0.0
C784 C 0.28034 0.25875 0.95168 0.0
C785 C 0.28944 0.2325 0.95668 0.0
C786 C 0.3079 0.29006 0.94301 0.0
C787 C 0.23515 0.28335 0.95051 0.0
C788 C 0.30042 0.29383 0.92878 0.0
C789 C 0.32659 0.32362 0.92067 0.0
C790 C 0.36072 0.35006 0.92666 0.0
C791 C 0.36809 0.346 0.94093 0.0
C792 C 0.34195 0.31618 0.949 0.0
H793 H 0.21106 0.28089 0.95655 0.0
H794 H 0.2589 0.31206 0.95174 0.0
H795 H 0.2275 0.27885 0.93911 0.0
H796 H 0.27448 0.27356 0.92392 0.0
H797 H 0.32034 0.32561 0.90965 0.0
H798 H 0.08048 0.19276 0.338 0.0
H799 H 0.08029 0.23928 0.32204 0.0
H800 H 0.9721 0.15779 0.30654 0.0
H801 H 0.97164 0.11144 0.32263 0.0
H802 H 0.07065 0.237 0.29135 0.0
H803 H 0.9599 0.24562 0.32122 0.0
H804 H 0.98578 0.22541 0.32867 0.0
H805 H 0.94898 0.19952 0.31622 0.0
C806 C 0.05664 0.18481 0.33121 0.0
C807 C 0.02601 0.1485 0.33161 0.0
C808 C 0.05668 0.2113 0.32206 0.0
C809 C 0.026 0.20196 0.31328 0.0
C810 C 0.99584 0.16555 0.31337 0.0
H811 H 0.00223 0.32381 0.24312 0.0
H812 H 0.00709 0.27824 0.2581 0.0
C813 C 0.9958 0.13905 0.32247 0.0
C814 C 0.02504 0.23051 0.30424 0.0
H815 H 0.97853 0.27785 0.29933 0.0
C816 C 0.05061 0.24606 0.29308 0.0
C817 C -0.00091 0.24244 0.30669 0.0
C818 C 0.97204 0.22768 0.31891 0.0
C819 C 0.05047 0.27291 0.28408 0.0
C820 C 0.02384 0.28409 0.2863 0.0
C821 C -0.0013 0.26895 0.29762 0.0
C822 C 0.02179 0.31184 0.27712 0.0
C823 C 0.07906 0.28948 0.27242 0.0
C824 C 0.02776 0.34542 0.28295 0.0
C825 C 0.0247 0.3713 0.27448 0.0
C826 C 0.01535 0.36393 0.26004 0.0
C827 C 0.00923 0.33015 0.25424 0.0
C828 C 0.0124 0.3043 0.26273 0.0
H829 H 0.1026 0.28445 0.27419 0.0
H830 H 0.06585 0.27661 0.26214 0.0
H831 H 0.09014 0.31988 0.27157 0.0
H832 H 0.03473 0.35156 0.29408 0.0
H833 H 0.02904 0.39682 0.27931 0.0
loop_
_geom_bond_atom_site_label_1
_geom_bond_atom_site_label_2
_geom_bond_distance
_geom_bond_site_symmetry_2
_ccdc_geom_bond_type
Li0 N17 1.990 . S
Li0 O60 1.956 . S
Li0 O61 1.970 1_455 S
Li0 O62 1.961 1_545 S
Li1 N25 1.990 . S
Li1 O60 1.970 1_655 S
Li1 O61 1.956 . S
Li1 O63 1.961 1_545 S
Li2 N47 1.990 . S
Li2 O60 1.961 1_565 S
Li2 O62 1.956 . S
Li2 O63 1.970 1_455 S
Li3 N53 1.990 . S
Li3 O61 1.961 1_565 S
Li3 O62 1.970 1_655 S
Li3 O63 1.956 . S
C4 C6 1.348 . S
C4 C7 1.356 . S
C4 O60 1.325 . S
N5 C8 1.314 . S
N5 C9 1.279 . S
C6 C4 1.348 . S
C6 C8 1.353 . S
C6 H64 0.929 . S
C7 C4 1.356 . S
C7 C9 1.358 . S
C7 H65 0.930 . S
C8 N5 1.314 . S
C8 C6 1.353 . S
C8 H66 0.930 . S
C9 N5 1.279 . S
C9 C7 1.358 . S
C9 H67 0.930 . S
C10 C13 1.348 1_655 S
C10 C14 1.356 . S
C10 O61 1.325 . S
C11 N12 1.279 . S
C11 C14 1.358 . S
C11 H68 0.930 . S
N12 C11 1.279 . S
N12 C15 1.314 . S
C13 C10 1.348 1_455 S
C13 C15 1.353 1_455 S
C13 H69 0.929 . S
C14 C10 1.356 . S
C14 C11 1.358 . S
C14 H70 0.930 . S
C15 N12 1.314 . S
C15 C13 1.353 1_655 S
C15 H71 0.930 1_655 S
C16 N17 1.314 . S
C16 C21 1.353 . S
C16 H22 0.930 . S
N17 Li0 1.990 . S
N17 C16 1.314 . S
N17 C19 1.279 . S
C18 C19 1.358 . S
C18 C20 1.356 . S
C18 H72 0.930 . S
C19 N17 1.279 . S
C19 C18 1.358 . S
C19 H23 0.930 . S
C20 C18 1.356 . S
C20 C21 1.348 . S
C21 C16 1.353 . S
C21 C20 1.348 . S
C21 H73 0.922 1_554 S
H22 C16 0.930 . S
H23 C19 0.930 . S
C24 N25 1.314 . S
C24 C26 1.353 . S
C24 H30 0.930 . S
N25 Li1 1.990 . S
N25 C24 1.314 . S
N25 C28 1.279 . S
C26 C24 1.353 . S
C26 C29 1.348 . S
C26 H74 0.929 . S
C27 C28 1.358 . S
C27 C29 1.356 . S
C27 H75 0.930 . S
C28 N25 1.279 . S
C28 C27 1.358 . S
C28 H31 0.930 . S
C29 C26 1.348 . S
C29 C27 1.356 . S
H30 C24 0.930 . S
H31 C28 0.930 . S
C32 C34 1.348 1_455 S
C32 C35 1.356 . S
C32 O62 1.325 . S
N33 C36 1.314 . S
N33 C37 1.279 . S
C34 C32 1.348 1_655 S
C34 C36 1.353 1_655 S
C34 H76 0.929 . S
C35 C32 1.356 . S
C35 C37 1.358 . S
C35 H77 0.930 . S
C36 N33 1.314 . S
C36 C34 1.353 1_455 S
C36 H78 0.930 1_455 S
C37 N33 1.279 . S
C37 C35 1.358 . S
C37 H79 0.930 . S
C38 C39 1.348 . S
C38 C40 1.356 . S
C38 O63 1.325 . S
C39 C38 1.348 . S
C39 C41 1.353 . S
C39 H80 0.929 . S
C40 C38 1.356 . S
C40 C42 1.358 . S
C40 H81 0.930 . S
C41 C39 1.353 . S
C41 N43 1.314 . S
C41 H82 0.930 . S
C42 C40 1.358 . S
C42 N43 1.279 . S
C42 H83 0.930 . S
N43 C41 1.314 . S
N43 C42 1.279 . S
C44 C46 1.353 . S
C44 N47 1.314 . S
C44 H50 0.930 . S
C45 N47 1.279 . S
C45 C48 1.358 . S
C45 H51 0.930 . S
C46 C44 1.353 . S
C46 C49 1.348 . S
C46 H84 0.929 . S
N47 Li2 1.990 . S
N47 C44 1.314 . S
N47 C45 1.279 . S
C48 C45 1.358 . S
C48 C49 1.356 . S
C48 H85 0.930 . S
C49 C46 1.348 . S
C49 C48 1.356 . S
H50 C44 0.930 . S
H51 C45 0.930 . S
C52 N53 1.314 . S
C52 C54 1.353 . S
C52 H58 0.930 . S
N53 Li3 1.990 . S
N53 C52 1.314 . S
N53 C56 1.279 . S
C54 C52 1.353 . S
C54 C57 1.348 . S
C54 H86 0.922 1_554 S
C55 C56 1.358 . S
C55 C57 1.356 . S
C55 H87 0.930 . S
C56 N53 1.279 . S
C56 C55 1.358 . S
C56 H59 0.930 . S
C57 C54 1.348 . S
C57 C55 1.356 . S
H58 C52 0.930 . S
H59 C56 0.930 . S
O60 Li0 1.956 . S
O60 Li1 1.970 1_455 S
O60 Li2 1.961 1_545 S
O60 C4 1.325 . S
O61 Li0 1.970 1_655 S
O61 Li1 1.956 . S
O61 Li3 1.961 1_545 S
O61 C10 1.325 . S
O62 Li0 1.961 1_565 S
O62 Li2 1.956 . S
O62 Li3 1.970 1_455 S
O62 C32 1.325 . S
O63 Li1 1.961 1_565 S
O63 Li2 1.970 1_655 S
O63 Li3 1.956 . S
O63 C38 1.325 . S
H64 C6 0.929 . S
H65 C7 0.930 . S
H66 C8 0.930 . S
H67 C9 0.930 . S
H68 C11 0.930 . S
H69 C13 0.929 . S
H70 C14 0.930 . S
H71 C15 0.930 1_455 S
H72 C18 0.930 . S
H73 C21 0.922 1_556 S
H74 C26 0.929 . S
H75 C27 0.930 . S
H76 C34 0.929 . S
H77 C35 0.930 . S
H78 C36 0.930 1_655 S
H79 C37 0.930 . S
H80 C39 0.929 . S
H81 C40 0.930 . S
H82 C41 0.930 . S
H83 C42 0.930 . S
H84 C46 0.929 . S
H85 C48 0.930 . S
H86 C54 0.922 1_556 S
H87 C55 0.930 . S
Li88 N105 1.990 . S
Li88 O148 1.956 . S
Li88 O149 1.970 1_665 S
Li88 O150 1.961 . S
Li89 N113 1.990 . S
Li89 O148 1.970 1_445 S
Li89 O149 1.956 . S
Li89 O151 1.961 . S
Li90 N135 1.990 . S
Li90 O148 1.961 . S
Li90 O150 1.956 . S
Li90 O151 1.970 1_665 S
Li91 N141 1.990 . S
Li91 O149 1.961 . S
Li91 O150 1.970 1_445 S
Li91 O151 1.956 . S
C92 C94 1.348 1_655 S
C92 C95 1.356 . S
C92 O148 1.325 . S
N93 C96 1.314 . S
N93 C97 1.279 . S
C94 C92 1.348 1_455 S
C94 C96 1.353 1_455 S
C94 H152 0.929 . S
C95 C92 1.356 . S
C95 C97 1.358 . S
C95 H153 0.930 . S
C96 N93 1.314 . S
C96 C94 1.353 1_655 S
C96 H154 0.930 1_655 S
C97 N93 1.279 . S
C97 C95 1.358 . S
C97 H155 0.930 . S
C98 C101 1.348 1_545 S
C98 C102 1.356 . S
C98 O149 1.325 . S
C99 N100 1.279 . S
C99 C102 1.358 . S
C99 H156 0.930 . S
N100 C99 1.279 . S
N100 C103 1.314 . S
C101 C98 1.348 1_565 S
C101 C103 1.353 1_565 S
C101 H157 0.929 . S
C102 C98 1.356 . S
C102 C99 1.358 . S
C102 H158 0.930 . S
C103 N100 1.314 . S
C103 C101 1.353 1_545 S
C103 H159 0.930 1_545 S
C104 N105 1.314 . S
C104 C109 1.353 . S
C104 H110 0.930 . S
N105 Li88 1.990 . S
N105 C104 1.314 . S
N105 C107 1.279 . S
C106 C107 1.358 . S
C106 C108 1.356 . S
C106 H160 0.930 . S
C107 N105 1.279 . S
C107 C106 1.358 . S
C107 H111 0.930 . S
C108 C106 1.356 . S
C108 C109 1.348 . S
C109 C104 1.353 . S
C109 C108 1.348 . S
C109 H161 0.929 . S
H110 C104 0.930 . S
H111 C107 0.930 . S
C112 N113 1.314 . S
C112 C114 1.353 . S
C112 H118 0.930 . S
N113 Li89 1.990 . S
N113 C112 1.314 . S
N113 C116 1.279 . S
C114 C112 1.353 . S
C114 C117 1.348 . S
C114 H162 0.929 . S
C115 C116 1.358 . S
C115 C117 1.356 . S
C115 H163 0.930 . S
C116 N113 1.279 . S
C116 C115 1.358 . S
C116 H119 0.930 . S
C117 C114 1.348 . S
C117 C115 1.356 . S
H118 C112 0.930 . S
H119 C116 0.930 . S
C120 C122 1.348 1_565 S
C120 C123 1.356 . S
C120 O150 1.325 . S
N121 C124 1.314 . S
N121 C125 1.279 . S
C122 C120 1.348 1_545 S
C122 C124 1.353 1_545 S
C122 H164 0.929 . S
C123 C120 1.356 . S
C123 C125 1.358 . S
C123 H165 0.930 . S
C124 N121 1.314 . S
C124 C122 1.353 1_565 S
C124 H166 0.930 1_565 S
C125 N121 1.279 . S
C125 C123 1.358 . S
C125 H167 0.930 . S
C126 C127 1.348 1_455 S
C126 C128 1.356 . S
C126 O151 1.325 . S
C127 C126 1.348 1_655 S
C127 C129 1.353 1_655 S
C127 H168 0.929 . S
C128 C126 1.356 . S
C128 C130 1.358 . S
C128 H169 0.930 . S
C129 C127 1.353 1_455 S
C129 N131 1.314 . S
C129 H170 0.930 1_455 S
C130 C128 1.358 . S
C130 N131 1.279 . S
C130 H171 0.930 . S
N131 C129 1.314 . S
N131 C130 1.279 . S
C132 C134 1.353 . S
C132 N135 1.314 . S
C132 H138 0.930 . S
C133 N135 1.279 . S
C133 C136 1.358 . S
C133 H139 0.930 . S
C134 C132 1.353 . S
C134 C137 1.348 . S
C134 H172 0.929 . S
N135 Li90 1.990 . S
N135 C132 1.314 . S
N135 C133 1.279 . S
C136 C133 1.358 . S
C136 C137 1.356 . S
C136 H173 0.930 . S
C137 C134 1.348 . S
C137 C136 1.356 . S
H138 C132 0.930 . S
H139 C133 0.930 . S
C140 N141 1.314 . S
C140 C142 1.353 . S
C140 H146 0.930 . S
N141 Li91 1.990 . S
N141 C140 1.314 . S
N141 C144 1.279 . S
C142 C140 1.353 . S
C142 C145 1.348 . S
C142 H174 0.929 . S
C143 C144 1.358 . S
C143 C145 1.356 . S
C143 H175 0.930 . S
C144 N141 1.279 . S
C144 C143 1.358 . S
C144 H147 0.930 . S
C145 C142 1.348 . S
C145 C143 1.356 . S
H146 C140 0.930 . S
H147 C144 0.930 . S
O148 Li88 1.956 . S
O148 Li89 1.970 1_665 S
O148 Li90 1.961 . S
O148 C92 1.325 . S
O149 Li88 1.970 1_445 S
O149 Li89 1.956 . S
O149 Li91 1.961 . S
O149 C98 1.325 . S
O150 Li88 1.961 . S
O150 Li90 1.956 . S
O150 Li91 1.970 1_665 S
O150 C120 1.325 . S
O151 Li89 1.961 . S
O151 Li90 1.970 1_445 S
O151 Li91 1.956 . S
O151 C126 1.325 . S
H152 C94 0.929 . S
H153 C95 0.930 . S
H154 C96 0.930 1_455 S
H155 C97 0.930 . S
H156 C99 0.930 . S
H157 C101 0.929 . S
H158 C102 0.930 . S
H159 C103 0.930 1_565 S
H160 C106 0.930 . S
H161 C109 0.929 . S
H162 C114 0.929 . S
H163 C115 0.930 . S
H164 C122 0.929 . S
H165 C123 0.930 . S
H166 C124 0.930 1_545 S
H167 C125 0.930 . S
H168 C127 0.929 . S
H169 C128 0.930 . S
H170 C129 0.930 1_655 S
H171 C130 0.930 . S
H172 C134 0.929 . S
H173 C136 0.930 . S
H174 C142 0.929 . S
H175 C143 0.930 . S
Li176 N193 1.990 . S
Li176 O236 1.956 . S
Li176 O237 1.970 1_565 S
Li176 O238 1.961 1_455 S
Li177 N201 1.990 . S
Li177 O236 1.970 1_545 S
Li177 O237 1.956 . S
Li177 O239 1.961 1_455 S
Li178 N223 1.990 . S
Li178 O236 1.961 1_655 S
Li178 O238 1.956 . S
Li178 O239 1.970 1_565 S
Li179 N229 1.990 . S
Li179 O237 1.961 1_655 S
Li179 O238 1.970 1_545 S
Li179 O239 1.956 . S
C180 C182 1.348 1_565 S
C180 C183 1.356 . S
C180 O236 1.325 . S
N181 C184 1.314 . S
N181 C185 1.279 . S
C182 C180 1.348 1_545 S
C182 C184 1.353 1_545 S
C182 H240 0.929 . S
C183 C180 1.356 . S
C183 C185 1.358 . S
C183 H241 0.930 . S
C184 N181 1.314 . S
C184 C182 1.353 1_565 S
C184 H242 0.930 1_565 S
C185 N181 1.279 . S
C185 C183 1.358 . S
C185 H243 0.930 . S
C186 C189 1.348 . S
C186 C190 1.356 . S
C186 O237 1.325 . S
C187 N188 1.279 . S
C187 C190 1.358 . S
C187 H244 0.930 . S
N188 C187 1.279 . S
N188 C191 1.314 . S
C189 C186 1.348 . S
C189 C191 1.353 . S
C189 H245 0.929 . S
C190 C186 1.356 . S
C190 C187 1.358 . S
C190 H246 0.930 . S
C191 N188 1.314 . S
C191 C189 1.353 . S
C191 H247 0.930 . S
C192 N193 1.314 . S
C192 C197 1.353 . S
C192 H198 0.930 . S
N193 Li176 1.990 . S
N193 C192 1.314 . S
N193 C195 1.279 . S
C194 C195 1.358 . S
C194 C196 1.356 . S
C194 H248 0.930 . S
C195 N193 1.279 . S
C195 C194 1.358 . S
C195 H199 0.930 . S
C196 C194 1.356 . S
C196 C197 1.348 . S
C197 C192 1.353 . S
C197 C196 1.348 . S
C197 H249 0.929 . S
H198 C192 0.930 . S
H199 C195 0.930 . S
C200 N201 1.314 . S
C200 C202 1.353 . S
C200 H206 0.930 . S
N201 Li177 1.990 . S
N201 C200 1.314 . S
N201 C204 1.279 . S
C202 C200 1.353 . S
C202 C205 1.348 . S
C202 H250 0.929 . S
C203 C204 1.358 . S
C203 C205 1.356 . S
C203 H251 0.930 . S
C204 N201 1.279 . S
C204 C203 1.358 . S
C204 H207 0.930 . S
C205 C202 1.348 . S
C205 C203 1.356 . S
H206 C200 0.930 . S
H207 C204 0.930 . S
C208 C210 1.348 . S
C208 C211 1.356 . S
C208 O238 1.325 . S
N209 C212 1.314 . S
N209 C213 1.279 . S
C210 C208 1.348 . S
C210 C212 1.353 . S
C210 H252 0.929 . S
C211 C208 1.356 . S
C211 C213 1.358 . S
C211 H253 0.930 . S
C212 N209 1.314 . S
C212 C210 1.353 . S
C212 H254 0.930 . S
C213 N209 1.279 . S
C213 C211 1.358 . S
C213 H255 0.930 . S
C214 C215 1.348 1_545 S
C214 C216 1.356 . S
C214 O239 1.325 . S
C215 C214 1.348 1_565 S
C215 C217 1.353 1_565 S
C215 H256 0.929 . S
C216 C214 1.356 . S
C216 C218 1.358 . S
C216 H257 0.930 . S
C217 C215 1.353 1_545 S
C217 N219 1.314 . S
C217 H258 0.930 1_545 S
C218 C216 1.358 . S
C218 N219 1.279 . S
C218 H259 0.930 . S
N219 C217 1.314 . S
N219 C218 1.279 . S
C220 C222 1.353 . S
C220 N223 1.314 . S
C220 H226 0.930 . S
C221 N223 1.279 . S
C221 C224 1.358 . S
C221 H227 0.930 . S
C222 C220 1.353 . S
C222 C225 1.348 . S
C222 H260 0.929 . S
N223 Li178 1.990 . S
N223 C220 1.314 . S
N223 C221 1.279 . S
C224 C221 1.358 . S
C224 C225 1.356 . S
C224 H261 0.930 . S
C225 C222 1.348 . S
C225 C224 1.356 . S
H226 C220 0.930 . S
H227 C221 0.930 . S
C228 N229 1.314 . S
C228 C230 1.353 . S
C228 H234 0.930 . S
N229 Li179 1.990 . S
N229 C228 1.314 . S
N229 C232 1.279 . S
C230 C228 1.353 . S
C230 C233 1.348 . S
C230 H262 0.929 . S
C231 C232 1.358 . S
C231 C233 1.356 . S
C231 H263 0.930 . S
C232 N229 1.279 . S
C232 C231 1.358 . S
C232 H235 0.930 . S
C233 C230 1.348 . S
C233 C231 1.356 . S
H234 C228 0.930 . S
H235 C232 0.930 . S
O236 Li176 1.956 . S
O236 Li177 1.970 1_565 S
O236 Li178 1.961 1_455 S
O236 C180 1.325 . S
O237 Li176 1.970 1_545 S
O237 Li177 1.956 . S
O237 Li179 1.961 1_455 S
O237 C186 1.325 . S
O238 Li176 1.961 1_655 S
O238 Li178 1.956 . S
O238 Li179 1.970 1_565 S
O238 C208 1.325 . S
O239 Li177 1.961 1_655 S
O239 Li178 1.970 1_545 S
O239 Li179 1.956 . S
O239 C214 1.325 . S
H240 C182 0.929 . S
H241 C183 0.930 . S
H242 C184 0.930 1_545 S
H243 C185 0.930 . S
H244 C187 0.930 . S
H245 C189 0.929 . S
H246 C190 0.930 . S
H247 C191 0.930 . S
H248 C194 0.930 . S
H249 C197 0.929 . S
H250 C202 0.929 . S
H251 C203 0.930 . S
H252 C210 0.929 . S
H253 C211 0.930 . S
H254 C212 0.930 . S
H255 C213 0.930 . S
H256 C215 0.929 . S
H257 C216 0.930 . S
H258 C217 0.930 1_565 S
H259 C218 0.930 . S
H260 C222 0.929 . S
H261 C224 0.930 . S
H262 C230 0.929 . S
H263 C231 0.930 . S
C264 C265 1.384 1_655 S
C264 C266 1.384 . S
C264 H292 0.931 . S
C265 C264 1.384 1_455 S
C265 C268 1.382 . S
C266 C264 1.384 . S
C266 C267 1.381 1_655 S
C266 H293 0.930 . S
C267 C266 1.381 1_455 S
C267 C269 1.381 . S
C267 C270 1.487 . S
C268 C265 1.382 . S
C268 C269 1.387 . S
C268 H294 0.930 . S
C269 C267 1.381 . S
C269 C268 1.387 . S
C269 H295 0.931 . S
C270 C267 1.487 . S
C270 C277 1.399 1_455 S
C270 N308 1.343 . S
C271 C272 1.367 1_455 S
C271 C273 1.384 . S
C271 H296 0.931 . S
C272 C271 1.367 1_655 S
C272 C275 1.413 . S
C273 C271 1.384 . S
C273 C274 1.381 1_455 S
C273 H297 0.930 . S
C274 C273 1.381 1_655 S
C274 C276 1.381 . S
C274 C277 1.487 . S
C275 C272 1.413 . S
C275 C276 1.387 . S
C275 H298 0.930 . S
C276 C274 1.381 . S
C276 C275 1.387 . S
C276 H299 0.931 . S
C277 C270 1.399 1_655 S
C277 C274 1.487 . S
C277 N309 1.343 . S
C278 C279 1.365 1_455 S
C278 C280 1.384 . S
C278 H300 0.931 . S
C279 C278 1.365 1_655 S
C279 C282 1.390 . S
C280 C278 1.384 . S
C280 C281 1.381 1_455 S
C280 H301 0.930 . S
C281 C280 1.381 1_655 S
C281 C283 1.381 . S
C281 C284 1.487 . S
C282 C279 1.390 . S
C282 C283 1.387 . S
C282 H302 0.930 . S
C283 C281 1.381 . S
C283 C282 1.387 . S
C283 H303 0.931 . S
C284 C281 1.487 . S
C284 C291 1.399 1_655 S
C284 N309 1.343 . S
C285 C286 1.384 1_655 S
C285 C287 1.384 . S
C285 H304 0.931 . S
C286 C285 1.384 1_455 S
C286 C289 1.382 . S
C287 C285 1.384 . S
C287 C288 1.381 1_655 S
C287 H305 0.930 . S
C288 C287 1.381 1_455 S
C288 C290 1.381 . S
C288 C291 1.487 . S
C289 C286 1.382 . S
C289 C290 1.387 . S
C289 H306 0.930 . S
C290 C288 1.381 . S
C290 C289 1.387 . S
C290 H307 0.931 . S
C291 C284 1.399 1_455 S
C291 C288 1.487 . S
C291 N308 1.343 . S
H292 C264 0.931 . S
H293 C266 0.930 . S
H294 C268 0.930 . S
H295 C269 0.931 . S
H296 C271 0.931 . S
H297 C273 0.930 . S
H298 C275 0.930 . S
H299 C276 0.931 . S
H300 C278 0.931 . S
H301 C280 0.930 . S
H302 C282 0.930 . S
H303 C283 0.931 . S
H304 C285 0.931 . S
H305 C287 0.930 . S
H306 C289 0.930 . S
H307 C290 0.931 . S
N308 C270 1.343 . S
N308 C291 1.343 . S
N309 C277 1.343 . S
N309 C284 1.343 . S
C310 C311 1.365 1_545 S
C310 C312 1.384 . S
C310 H338 0.931 . S
C311 C310 1.365 1_565 S
C311 C314 1.390 . S
C312 C310 1.384 . S
C312 C313 1.381 1_545 S
C312 H339 0.930 . S
C313 C312 1.381 1_565 S
C313 C315 1.381 . S
C313 C316 1.487 . S
C314 C311 1.390 . S
C314 C315 1.387 . S
C314 H340 0.930 . S
C315 C313 1.381 . S
C315 C314 1.387 . S
C315 H341 0.931 . S
C316 C313 1.487 . S
C316 C323 1.399 1_565 S
C316 N354 1.343 . S
C317 C318 1.384 1_565 S
C317 C319 1.384 . S
C317 H342 0.931 . S
C318 C317 1.384 1_545 S
C318 C321 1.382 . S
C319 C317 1.384 . S
C319 C320 1.381 1_565 S
C319 H343 0.930 . S
C320 C319 1.381 1_545 S
C320 C322 1.381 . S
C320 C323 1.487 . S
C321 C318 1.382 . S
C321 C322 1.387 . S
C321 H344 0.930 . S
C322 C320 1.381 . S
C322 C321 1.387 . S
C322 H345 0.931 . S
C323 C316 1.399 1_545 S
C323 C320 1.487 . S
C323 N355 1.343 . S
C324 C325 1.384 1_565 S
C324 C326 1.384 . S
C324 H346 0.931 . S
C325 C324 1.384 1_545 S
C325 C328 1.382 . S
C326 C324 1.384 . S
C326 C327 1.381 1_565 S
C326 H347 0.930 . S
C327 C326 1.381 1_545 S
C327 C329 1.381 . S
C327 C330 1.487 . S
C328 C325 1.382 . S
C328 C329 1.387 . S
C328 H348 0.930 . S
C329 C327 1.381 . S
C329 C328 1.387 . S
C329 H349 0.931 . S
C330 C327 1.487 . S
C330 C337 1.399 1_545 S
C330 N355 1.343 . S
C331 C332 1.367 1_545 S
C331 C333 1.384 . S
C331 H350 0.931 . S
C332 C331 1.367 1_565 S
C332 C335 1.413 . S
C333 C331 1.384 . S
C333 C334 1.381 1_545 S
C333 H351 0.930 . S
C334 C333 1.381 1_565 S
C334 C336 1.381 . S
C334 C337 1.487 . S
C335 C332 1.413 . S
C335 C336 1.387 . S
C335 H352 0.930 . S
C336 C334 1.381 . S
C336 C335 1.387 . S
C336 H353 0.931 . S
C337 C330 1.399 1_565 S
C337 C334 1.487 . S
C337 N354 1.343 . S
H338 C310 0.931 . S
H339 C312 0.930 . S
H340 C314 0.930 . S
H341 C315 0.931 . S
H342 C317 0.931 . S
H343 C319 0.930 . S
H344 C321 0.930 . S
H345 C322 0.931 . S
H346 C324 0.931 . S
H347 C326 0.930 . S
H348 C328 0.930 . S
H349 C329 0.931 . S
H350 C331 0.931 . S
H351 C333 0.930 . S
H352 C335 0.930 . S
H353 C336 0.931 . S
N354 C316 1.343 . S
N354 C337 1.343 . S
N355 C323 1.343 . S
N355 C330 1.343 . S
C356 C357 1.384 . S
C356 C358 1.384 . S
C356 H384 0.931 . S
C357 C356 1.384 . S
C357 C360 1.382 . S
C358 C356 1.384 . S
C358 C359 1.381 . S
C358 H385 0.930 . S
C359 C358 1.381 . S
C359 C361 1.381 . S
C359 C362 1.487 . S
C360 C357 1.382 . S
C360 C361 1.387 . S
C360 H386 0.930 . S
C361 C359 1.381 . S
C361 C360 1.387 . S
C361 H387 0.931 . S
C362 C359 1.487 . S
C362 C369 1.399 . S
C362 N400 1.343 . S
C363 C364 1.384 . S
C363 C365 1.384 . S
C363 H388 0.931 . S
C364 C363 1.384 . S
C364 C367 1.382 . S
C365 C363 1.384 . S
C365 C366 1.381 . S
C365 H389 0.930 . S
C366 C365 1.381 . S
C366 C368 1.381 . S
C366 C369 1.487 . S
C367 C364 1.382 . S
C367 C368 1.387 . S
C367 H390 0.930 . S
C368 C366 1.381 . S
C368 C367 1.387 . S
C368 H391 0.931 . S
C369 C362 1.399 . S
C369 C366 1.487 . S
C369 N401 1.343 . S
C370 C371 1.384 . S
C370 C372 1.384 . S
C370 H392 0.931 . S
C371 C370 1.384 . S
C371 C374 1.382 . S
C372 C370 1.384 . S
C372 C373 1.381 . S
C372 H393 0.930 . S
C373 C372 1.381 . S
C373 C375 1.381 . S
C373 C376 1.487 . S
C374 C371 1.382 . S
C374 C375 1.387 . S
C374 H394 0.930 . S
C375 C373 1.381 . S
C375 C374 1.387 . S
C375 H395 0.931 . S
C376 C373 1.487 . S
C376 C383 1.399 . S
C376 N401 1.343 . S
C377 C378 1.384 . S
C377 C379 1.384 . S
C377 H396 0.931 . S
C378 C377 1.384 . S
C378 C381 1.382 . S
C379 C377 1.384 . S
C379 C380 1.381 . S
C379 H397 0.930 . S
C380 C379 1.381 . S
C380 C382 1.381 . S
C380 C383 1.487 . S
C381 C378 1.382 . S
C381 C382 1.387 . S
C381 H398 0.930 . S
C382 C380 1.381 . S
C382 C381 1.387 . S
C382 H399 0.931 . S
C383 C376 1.399 . S
C383 C380 1.487 . S
C383 N400 1.343 . S
H384 C356 0.931 . S
H385 C358 0.930 . S
H386 C360 0.930 . S
H387 C361 0.931 . S
H388 C363 0.931 . S
H389 C365 0.930 . S
H390 C367 0.930 . S
H391 C368 0.931 . S
H392 C370 0.931 . S
H393 C372 0.930 . S
H394 C374 0.930 . S
H395 C375 0.931 . S
H396 C377 0.931 . S
H397 C379 0.930 . S
H398 C381 0.930 . S
H399 C382 0.931 . S
N400 C362 1.343 . S
N400 C383 1.343 . S
N401 C369 1.343 . S
N401 C376 1.343 . S
H402 C410 0.929 . S
H403 C412 0.930 . S
H404 C414 0.930 1_455 S
H405 C417 0.929 1_455 S
H406 C420 0.930 . S
H407 C422 0.960 . S
H408 C422 0.960 . S
H409 C422 0.960 1_455 S
C410 H402 0.929 . S
C410 C411 1.377 . S
C410 C412 1.384 . S
C411 C410 1.377 . S
C411 C417 1.390 . S
C412 H403 0.930 . S
C412 C410 1.384 . S
C412 C413 1.372 . S
C413 C412 1.372 . S
C413 C414 1.400 . S
C413 C418 1.490 . S
C414 H404 0.930 1_655 S
C414 C413 1.400 . S
C414 C417 1.386 . S
H415 C431 0.930 . S
H416 C432 0.931 . S
C417 H405 0.929 1_655 S
C417 C411 1.390 . S
C417 C414 1.386 . S
C418 C413 1.490 . S
C418 C420 1.395 . S
C418 C421 1.403 . S
H419 C425 0.930 . S
C420 H406 0.930 . S
C420 C418 1.395 . S
C420 C423 1.403 . S
C421 C418 1.403 . S
C421 C422 1.524 . S
C421 C425 1.400 . S
C422 H407 0.960 . S
C422 H408 0.960 . S
C422 H409 0.960 1_655 S
C422 C421 1.524 . S
C423 C420 1.403 . S
C423 C424 1.392 . S
C423 C427 1.495 . S
C424 C423 1.392 . S
C424 C425 1.385 . S
C424 C426 1.478 . S
C425 H419 0.930 . S
C425 C421 1.400 . S
C425 C424 1.385 . S
C426 C424 1.478 . S
C426 C428 1.381 . S
C426 C432 1.383 1_655 S
C427 C423 1.495 . S
C427 H433 0.959 . S
C427 H434 0.961 . S
C427 H435 0.960 . S
C428 C426 1.381 . S
C428 C429 1.394 . S
C428 H436 0.930 . S
C429 C428 1.394 . S
C429 C430 1.383 . S
C429 H437 0.929 . S
C430 C429 1.383 . S
C430 C431 1.377 1_655 S
C431 H415 0.930 . S
C431 C430 1.377 1_455 S
C431 C432 1.379 . S
C432 H416 0.931 . S
C432 C426 1.383 1_455 S
C432 C431 1.379 . S
H433 C427 0.959 . S
H434 C427 0.961 . S
H435 C427 0.960 . S
H436 C428 0.930 . S
H437 C429 0.929 . S
H438 C446 0.929 1_545 S
H439 C448 0.930 1_545 S
H440 C450 0.930 . S
H441 C453 0.929 . S
H442 C456 0.930 . S
H443 C458 0.960 . S
H444 C458 0.960 1_545 S
H445 C458 0.960 . S
C446 H438 0.929 1_565 S
C446 C447 1.377 . S
C446 C448 1.384 . S
C447 C446 1.377 . S
C447 C453 1.390 . S
C448 H439 0.930 1_565 S
C448 C446 1.384 . S
C448 C449 1.372 . S
C449 C448 1.372 . S
C449 C450 1.400 . S
C449 C454 1.490 . S
C450 H440 0.930 . S
C450 C449 1.400 . S
C450 C453 1.386 . S
H451 C467 0.930 . S
H452 C468 0.931 . S
C453 H441 0.929 . S
C453 C447 1.390 . S
C453 C450 1.386 . S
C454 C449 1.490 . S
C454 C456 1.395 . S
C454 C457 1.403 . S
H455 C461 0.930 . S
C456 H442 0.930 . S
C456 C454 1.395 . S
C456 C459 1.403 . S
C457 C454 1.403 . S
C457 C458 1.524 . S
C457 C461 1.400 . S
C458 H443 0.960 . S
C458 H444 0.960 1_565 S
C458 H445 0.960 . S
C458 C457 1.524 . S
C459 C456 1.403 . S
C459 C460 1.392 . S
C459 C463 1.495 . S
C460 C459 1.392 . S
C460 C461 1.385 . S
C460 C462 1.478 . S
C461 H455 0.930 . S
C461 C457 1.400 . S
C461 C460 1.385 . S
C462 C460 1.478 . S
C462 C464 1.381 1_565 S
C462 C468 1.383 . S
C463 C459 1.495 . S
C463 H469 0.959 . S
C463 H470 0.961 . S
C463 H471 0.960 . S
C464 C462 1.381 1_545 S
C464 C465 1.394 . S
C464 H472 0.930 . S
C465 C464 1.394 . S
C465 C466 1.383 1_545 S
C465 H473 0.929 . S
C466 C465 1.383 1_565 S
C466 C467 1.377 . S
C467 H451 0.930 . S
C467 C466 1.377 . S
C467 C468 1.379 . S
C468 H452 0.931 . S
C468 C462 1.383 . S
C468 C467 1.379 . S
H469 C463 0.959 . S
H470 C463 0.961 . S
H471 C463 0.960 . S
H472 C464 0.930 . S
H473 C465 0.929 . S
H474 C482 0.929 . S
H475 C484 0.930 . S
H476 C486 0.930 . S
H477 C489 0.929 . S
H478 C492 0.930 . S
H479 C494 0.960 . S
H480 C494 0.960 . S
H481 C494 0.960 . S
C482 H474 0.929 . S
C482 C483 1.377 . S
C482 C484 1.384 . S
C483 C482 1.377 . S
C483 C489 1.390 . S
C484 H475 0.930 . S
C484 C482 1.384 . S
C484 C485 1.372 . S
C485 C484 1.372 . S
C485 C486 1.400 . S
C485 C490 1.490 . S
C486 H476 0.930 . S
C486 C485 1.400 . S
C486 C489 1.386 . S
H487 C503 0.930 . S
H488 C504 0.931 . S
C489 H477 0.929 . S
C489 C483 1.390 . S
C489 C486 1.386 . S
C490 C485 1.490 . S
C490 C492 1.395 . S
C490 C493 1.403 . S
H491 C497 0.930 . S
C492 H478 0.930 . S
C492 C490 1.395 . S
C492 C495 1.403 . S
C493 C490 1.403 . S
C493 C494 1.524 . S
C493 C497 1.400 . S
C494 H479 0.960 . S
C494 H480 0.960 . S
C494 H481 0.960 . S
C494 C493 1.524 . S
C495 C492 1.403 . S
C495 C496 1.392 . S
C495 C499 1.495 . S
C496 C495 1.392 . S
C496 C497 1.385 . S
C496 C498 1.478 . S
C497 H491 0.930 . S
C497 C493 1.400 . S
C497 C496 1.385 . S
C498 C496 1.478 . S
C498 C500 1.381 . S
C498 C504 1.383 . S
C499 C495 1.495 . S
C499 H505 0.959 . S
C499 H506 0.961 . S
C499 H507 0.960 . S
C500 C498 1.381 . S
C500 C501 1.394 . S
C500 H508 0.930 . S
C501 C500 1.394 . S
C501 C502 1.383 . S
C501 H509 0.929 . S
C502 C501 1.383 . S
C502 C503 1.377 . S
C503 H487 0.930 . S
C503 C502 1.377 . S
C503 C504 1.379 . S
C504 H488 0.931 . S
C504 C498 1.383 . S
C504 C503 1.379 . S
H505 C499 0.959 . S
H506 C499 0.961 . S
H507 C499 0.960 . S
H508 C500 0.930 . S
H509 C501 0.929 . S
H510 C518 0.929 1_655 S
H511 C520 0.930 1_655 S
H512 C522 0.930 . S
H513 C525 0.929 . S
H514 C528 0.930 . S
H515 C530 0.960 . S
H516 C530 0.960 . S
H517 C530 0.960 . S
C518 H510 0.929 1_455 S
C518 C519 1.377 . S
C518 C520 1.384 . S
C519 C518 1.377 . S
C519 C525 1.390 . S
C520 H511 0.930 1_455 S
C520 C518 1.384 . S
C520 C521 1.372 . S
C521 C520 1.372 . S
C521 C522 1.400 . S
C521 C526 1.490 . S
C522 H512 0.930 . S
C522 C521 1.400 . S
C522 C525 1.386 . S
H523 C539 0.930 . S
H524 C540 0.931 . S
C525 H513 0.929 . S
C525 C519 1.390 . S
C525 C522 1.386 . S
C526 C521 1.490 . S
C526 C528 1.395 . S
C526 C529 1.403 . S
H527 C533 0.930 . S
C528 H514 0.930 . S
C528 C526 1.395 . S
C528 C531 1.403 . S
C529 C526 1.403 . S
C529 C530 1.524 . S
C529 C533 1.400 . S
C530 H515 0.960 . S
C530 H516 0.960 . S
C530 H517 0.960 . S
C530 C529 1.524 . S
C531 C528 1.403 . S
C531 C532 1.392 . S
C531 C535 1.495 . S
C532 C531 1.392 . S
C532 C533 1.385 . S
C532 C534 1.478 . S
C533 H527 0.930 . S
C533 C529 1.400 . S
C533 C532 1.385 . S
C534 C532 1.478 . S
C534 C536 1.381 1_455 S
C534 C540 1.383 . S
C535 C531 1.495 . S
C535 H541 0.959 . S
C535 H542 0.961 . S
C535 H543 0.960 1_455 S
C536 C534 1.381 1_655 S
C536 C537 1.394 . S
C536 H544 0.930 . S
C537 C536 1.394 . S
C537 C538 1.383 1_655 S
C537 H545 0.929 . S
C538 C537 1.383 1_455 S
C538 C539 1.377 . S
C539 H523 0.930 . S
C539 C538 1.377 . S
C539 C540 1.379 . S
C540 H524 0.931 . S
C540 C534 1.383 . S
C540 C539 1.379 . S
H541 C535 0.959 . S
H542 C535 0.961 . S
H543 C535 0.960 1_655 S
H544 C536 0.930 . S
H545 C537 0.929 . S
H546 C554 0.929 . S
H547 C556 0.930 . S
H548 C558 0.930 . S
H549 C561 0.929 . S
H550 C564 0.930 . S
H551 C566 0.960 . S
H552 C566 0.960 . S
H553 C566 0.960 . S
C554 H546 0.929 . S
C554 C555 1.377 . S
C554 C556 1.384 . S
C555 C554 1.377 . S
C555 C561 1.390 . S
C556 H547 0.930 . S
C556 C554 1.384 . S
C556 C557 1.372 . S
C557 C556 1.372 . S
C557 C558 1.400 . S
C557 C562 1.490 . S
C558 H548 0.930 . S
C558 C557 1.400 . S
C558 C561 1.386 . S
H559 C575 0.930 . S
H560 C576 0.931 . S
C561 H549 0.929 . S
C561 C555 1.390 . S
C561 C558 1.386 . S
C562 C557 1.490 . S
C562 C564 1.395 . S
C562 C565 1.423 . S
H563 C569 0.936 . S
C564 H550 0.930 . S
C564 C562 1.395 . S
C564 C567 1.403 . S
C565 C562 1.423 . S
C565 C566 1.519 1_545 S
C565 C569 1.379 1_545 S
C566 H551 0.960 . S
C566 H552 0.960 . S
C566 H553 0.960 . S
C566 C565 1.519 1_565 S
C567 C564 1.403 . S
C567 C568 1.392 . S
C567 C571 1.495 . S
C568 C567 1.392 . S
C568 C569 1.385 1_545 S
C568 C570 1.478 . S
C569 H563 0.936 . S
C569 C565 1.379 1_565 S
C569 C568 1.385 1_565 S
C570 C568 1.478 . S
C570 C572 1.367 1_545 S
C570 C576 1.383 . S
C571 C567 1.495 . S
C571 H577 0.959 . S
C571 H578 0.961 . S
C571 H579 0.960 . S
C572 C570 1.367 1_565 S
C572 C573 1.404 . S
C572 H580 0.935 . S
C573 C572 1.404 . S
C573 C574 1.383 1_565 S
C573 H581 0.929 . S
C574 C573 1.383 1_545 S
C574 C575 1.377 . S
C575 H559 0.930 . S
C575 C574 1.377 . S
C575 C576 1.379 . S
C576 H560 0.931 . S
C576 C570 1.383 . S
C576 C575 1.379 . S
H577 C571 0.959 . S
H578 C571 0.961 . S
H579 C571 0.960 . S
H580 C572 0.935 . S
H581 C573 0.929 . S
H582 C590 0.929 . S
H583 C592 0.930 . S
H584 C594 0.930 . S
H585 C597 0.929 . S
H586 C600 0.930 . S
H587 C602 0.960 . S
H588 C602 0.960 . S
H589 C602 0.960 . S
C590 H582 0.929 . S
C590 C591 1.377 . S
C590 C592 1.384 . S
C591 C590 1.377 . S
C591 C597 1.390 . S
C592 H583 0.930 . S
C592 C590 1.384 . S
C592 C593 1.372 . S
C593 C592 1.372 . S
C593 C594 1.400 . S
C593 C598 1.490 . S
C594 H584 0.930 . S
C594 C593 1.400 . S
C594 C597 1.386 . S
H595 C611 0.930 . S
H596 C612 0.931 . S
C597 H585 0.929 . S
C597 C591 1.390 . S
C597 C594 1.386 . S
C598 C593 1.490 . S
C598 C600 1.395 . S
C598 C601 1.403 . S
H599 C605 0.930 . S
C600 H586 0.930 . S
C600 C598 1.395 . S
C600 C603 1.403 . S
C601 C598 1.403 . S
C601 C602 1.524 . S
C601 C605 1.400 . S
C602 H587 0.960 . S
C602 H588 0.960 . S
C602 H589 0.960 . S
C602 C601 1.524 . S
C603 C600 1.403 . S
C603 C604 1.392 . S
C603 C607 1.495 . S
C604 C603 1.392 . S
C604 C605 1.385 . S
C604 C606 1.478 . S
C605 H599 0.930 . S
C605 C601 1.400 . S
C605 C604 1.385 . S
C606 C604 1.478 . S
C606 C608 1.381 . S
C606 C612 1.383 . S
C607 C603 1.495 . S
C607 H613 0.959 . S
C607 H614 0.961 . S
C607 H615 0.960 . S
C608 C606 1.381 . S
C608 C609 1.394 . S
C608 H616 0.930 . S
C609 C608 1.394 . S
C609 C610 1.383 . S
C609 H617 0.929 . S
C610 C609 1.383 . S
C610 C611 1.377 . S
C611 H595 0.930 . S
C611 C610 1.377 . S
C611 C612 1.379 . S
C612 H596 0.931 . S
C612 C606 1.383 . S
C612 C611 1.379 . S
H613 C607 0.959 . S
H614 C607 0.961 . S
H615 C607 0.960 . S
H616 C608 0.930 . S
H617 C609 0.929 . S
H618 C626 0.929 . S
H619 C628 0.930 . S
H620 C630 0.930 . S
H621 C633 0.929 . S
H622 C636 0.930 . S
H623 C638 0.960 . S
H624 C638 0.960 . S
H625 C638 0.960 . S
C626 H618 0.929 . S
C626 C627 1.377 . S
C626 C628 1.384 . S
C627 C626 1.377 . S
C627 C633 1.390 . S
C628 H619 0.930 . S
C628 C626 1.384 . S
C628 C629 1.372 . S
C629 C628 1.372 . S
C629 C630 1.400 . S
C629 C634 1.490 . S
C630 H620 0.930 . S
C630 C629 1.400 . S
C630 C633 1.386 . S
H631 C647 0.936 . S
H632 C648 0.931 . S
C633 H621 0.929 . S
C633 C627 1.390 . S
C633 C630 1.386 . S
C634 C629 1.490 . S
C634 C636 1.395 . S
C634 C637 1.403 1_545 S
H635 C641 0.930 . S
C636 H622 0.930 . S
C636 C634 1.395 . S
C636 C639 1.403 . S
C637 C634 1.403 1_565 S
C637 C638 1.524 . S
C637 C641 1.400 . S
C638 H623 0.960 . S
C638 H624 0.960 . S
C638 H625 0.960 . S
C638 C637 1.524 . S
C639 C636 1.403 . S
C639 C640 1.392 . S
C639 C643 1.495 . S
C640 C639 1.392 . S
C640 C641 1.385 1_545 S
C640 C642 1.478 . S
C641 H635 0.930 . S
C641 C637 1.400 . S
C641 C640 1.385 1_565 S
C642 C640 1.478 . S
C642 C644 1.381 . S
C642 C648 1.383 . S
C643 C639 1.495 . S
C643 H649 0.959 . S
C643 H650 0.961 . S
C643 H651 0.960 . S
C644 C642 1.381 . S
C644 C645 1.394 . S
C644 H652 0.930 . S
C645 C644 1.394 . S
C645 C646 1.383 . S
C645 H653 0.929 . S
C646 C645 1.383 . S
C646 C647 1.377 . S
C647 H631 0.936 . S
C647 C646 1.377 . S
C647 C648 1.379 . S
C648 H632 0.931 . S
C648 C642 1.383 . S
C648 C647 1.379 . S
H649 C643 0.959 . S
H650 C643 0.961 . S
H651 C643 0.960 . S
H652 C644 0.930 . S
H653 C645 0.929 . S
H654 C662 0.929 . S
H655 C664 0.930 . S
H656 C666 0.942 . S
H657 C669 0.929 . S
H658 C672 0.930 . S
H659 C674 0.960 . S
H660 C674 0.960 . S
H661 C674 0.960 . S
C662 H654 0.929 . S
C662 C663 1.377 1_556 S
C662 C664 1.384 . S
C663 C662 1.377 1_554 S
C663 C669 1.390 . S
C664 H655 0.930 . S
C664 C662 1.384 . S
C664 C665 1.372 . S
C665 C664 1.372 . S
C665 C666 1.369 1_556 S
C665 C670 1.490 . S
C666 H656 0.942 . S
C666 C665 1.369 1_554 S
C666 C669 1.406 . S
H667 C683 0.930 . S
H668 C684 0.931 . S
C669 H657 0.929 . S
C669 C663 1.390 . S
C669 C666 1.406 . S
C670 C665 1.490 . S
C670 C672 1.395 . S
C670 C673 1.403 . S
H671 C677 0.930 . S
C672 H658 0.930 . S
C672 C670 1.395 . S
C672 C675 1.403 . S
C673 C670 1.403 . S
C673 C674 1.524 . S
C673 C677 1.400 . S
C674 H659 0.960 . S
C674 H660 0.960 . S
C674 H661 0.960 . S
C674 C673 1.524 . S
C675 C672 1.403 . S
C675 C676 1.392 . S
C675 C679 1.495 . S
C676 C675 1.392 . S
C676 C677 1.385 . S
C676 C678 1.478 . S
C677 H671 0.930 . S
C677 C673 1.400 . S
C677 C676 1.385 . S
C678 C676 1.478 . S
C678 C680 1.381 . S
C678 C684 1.383 . S
C679 C675 1.495 . S
C679 H685 0.959 . S
C679 H686 0.961 . S
C679 H687 0.960 . S
C680 C678 1.381 . S
C680 C681 1.394 . S
C680 H688 0.930 . S
C681 C680 1.394 . S
C681 C682 1.383 . S
C681 H689 0.929 . S
C682 C681 1.383 . S
C682 C683 1.377 . S
C683 H667 0.930 . S
C683 C682 1.377 . S
C683 C684 1.379 . S
C684 H668 0.931 . S
C684 C678 1.383 . S
C684 C683 1.379 . S
H685 C679 0.959 . S
H686 C679 0.961 . S
H687 C679 0.960 . S
H688 C680 0.930 . S
H689 C681 0.929 . S
H690 C698 0.929 1_455 S
H691 C700 0.930 1_455 S
H692 C702 0.930 . S
H693 C705 0.929 . S
H694 C708 0.930 . S
H695 C710 0.960 . S
H696 C710 0.960 1_455 S
H697 C710 0.960 . S
C698 H690 0.929 1_655 S
C698 C699 1.377 . S
C698 C700 1.384 . S
C699 C698 1.377 . S
C699 C705 1.390 . S
C700 H691 0.930 1_655 S
C700 C698 1.384 . S
C700 C701 1.372 . S
C701 C700 1.372 . S
C701 C702 1.400 . S
C701 C706 1.490 . S
C702 H692 0.930 . S
C702 C701 1.400 . S
C702 C705 1.386 . S
H703 C719 0.930 . S
H704 C720 0.931 . S
C705 H693 0.929 . S
C705 C699 1.390 . S
C705 C702 1.386 . S
C706 C701 1.490 . S
C706 C708 1.395 . S
C706 C709 1.403 . S
H707 C713 0.930 . S
C708 H694 0.930 . S
C708 C706 1.395 . S
C708 C711 1.403 . S
C709 C706 1.403 . S
C709 C710 1.524 . S
C709 C713 1.400 . S
C710 H695 0.960 . S
C710 H696 0.960 1_655 S
C710 H697 0.960 . S
C710 C709 1.524 . S
C711 C708 1.403 . S
C711 C712 1.392 . S
C711 C715 1.495 . S
C712 C711 1.392 . S
C712 C713 1.385 . S
C712 C714 1.478 . S
C713 H707 0.930 . S
C713 C709 1.400 . S
C713 C712 1.385 . S
C714 C712 1.478 . S
C714 C716 1.381 1_655 S
C714 C720 1.383 . S
C715 C711 1.495 . S
C715 H721 0.959 . S
C715 H722 0.961 . S
C715 H723 0.960 1_655 S
C716 C714 1.381 1_455 S
C716 C717 1.394 . S
C716 H724 0.930 . S
C717 C716 1.394 . S
C717 C718 1.383 1_455 S
C717 H725 0.929 . S
C718 C717 1.383 1_655 S
C718 C719 1.377 . S
C719 H703 0.930 . S
C719 C718 1.377 . S
C719 C720 1.379 . S
C720 H704 0.931 . S
C720 C714 1.383 . S
C720 C719 1.379 . S
H721 C715 0.959 . S
H722 C715 0.961 . S
H723 C715 0.960 1_455 S
H724 C716 0.930 . S
H725 C717 0.929 . S
H726 C734 0.929 . S
H727 C736 0.930 . S
H728 C738 0.930 . S
H729 C741 0.929 . S
H730 C744 0.930 . S
H731 C746 0.960 . S
H732 C746 0.960 . S
H733 C746 0.960 . S
C734 H726 0.929 . S
C734 C735 1.377 . S
C734 C736 1.384 . S
C735 C734 1.377 . S
C735 C741 1.390 . S
C736 H727 0.930 . S
C736 C734 1.384 . S
C736 C737 1.372 . S
C737 C736 1.372 . S
C737 C738 1.400 . S
C737 C742 1.490 . S
C738 H728 0.930 . S
C738 C737 1.400 . S
C738 C741 1.386 . S
H739 C755 0.930 . S
H740 C756 0.931 . S
C741 H729 0.929 . S
C741 C735 1.390 . S
C741 C738 1.386 . S
C742 C737 1.490 . S
C742 C744 1.395 1_565 S
C742 C745 1.403 . S
H743 C749 0.930 . S
C744 H730 0.930 . S
C744 C742 1.395 1_545 S
C744 C747 1.403 . S
C745 C742 1.403 . S
C745 C746 1.524 . S
C745 C749 1.400 . S
C746 H731 0.960 . S
C746 H732 0.960 . S
C746 H733 0.960 . S
C746 C745 1.524 . S
C747 C744 1.403 . S
C747 C748 1.392 1_545 S
C747 C751 1.495 . S
C748 C747 1.392 1_565 S
C748 C749 1.385 . S
C748 C750 1.478 . S
C749 H743 0.930 . S
C749 C745 1.400 . S
C749 C748 1.385 . S
C750 C748 1.478 . S
C750 C752 1.381 1_565 S
C750 C756 1.383 . S
C751 C747 1.495 . S
C751 H757 0.959 . S
C751 H758 0.961 . S
C751 H759 0.960 . S
C752 C750 1.381 1_545 S
C752 C753 1.394 . S
C752 H760 0.930 . S
C753 C752 1.394 . S
C753 C754 1.403 . S
C753 H761 0.929 . S
C754 C753 1.403 . S
C754 C755 1.367 1_545 S
C755 H739 0.930 . S
C755 C754 1.367 1_565 S
C755 C756 1.379 . S
C756 H740 0.931 . S
C756 C750 1.383 . S
C756 C755 1.379 . S
H757 C751 0.959 . S
H758 C751 0.961 . S
H759 C751 0.960 . S
H760 C752 0.930 . S
H761 C753 0.929 . S
H762 C770 0.929 . S
H763 C772 0.930 . S
H764 C774 0.926 1_554 S
H765 C777 0.929 . S
H766 C780 0.930 . S
H767 C782 0.960 . S
H768 C782 0.960 . S
H769 C782 0.960 . S
C770 H762 0.929 . S
C770 C771 1.377 1_556 S
C770 C772 1.384 . S
C771 C770 1.377 1_554 S
C771 C777 1.390 . S
C772 H763 0.930 . S
C772 C770 1.384 . S
C772 C773 1.372 . S
C773 C772 1.372 . S
C773 C774 1.412 . S
C773 C778 1.490 . S
C774 H764 0.926 1_556 S
C774 C773 1.412 . S
C774 C777 1.378 1_556 S
H775 C791 0.930 . S
H776 C792 0.931 . S
C777 H765 0.929 . S
C777 C771 1.390 . S
C777 C774 1.378 1_554 S
C778 C773 1.490 . S
C778 C780 1.395 . S
C778 C781 1.403 . S
H779 C785 0.930 . S
C780 H766 0.930 . S
C780 C778 1.395 . S
C780 C783 1.403 . S
C781 C778 1.403 . S
C781 C782 1.524 . S
C781 C785 1.400 . S
C782 H767 0.960 . S
C782 H768 0.960 . S
C782 H769 0.960 . S
C782 C781 1.524 . S
C783 C780 1.403 . S
C783 C784 1.392 . S
C783 C787 1.495 . S
C784 C783 1.392 . S
C784 C785 1.385 . S
C784 C786 1.478 . S
C785 H779 0.930 . S
C785 C781 1.400 . S
C785 C784 1.385 . S
C786 C784 1.478 . S
C786 C788 1.381 . S
C786 C792 1.383 . S
C787 C783 1.495 . S
C787 H793 0.959 . S
C787 H794 0.961 . S
C787 H795 0.960 . S
C788 C786 1.381 . S
C788 C789 1.394 . S
C788 H796 0.930 . S
C789 C788 1.394 . S
C789 C790 1.383 . S
C789 H797 0.929 . S
C790 C789 1.383 . S
C790 C791 1.377 . S
C791 H775 0.930 . S
C791 C790 1.377 . S
C791 C792 1.379 . S
C792 H776 0.931 . S
C792 C786 1.383 . S
C792 C791 1.379 . S
H793 C787 0.959 . S
H794 C787 0.961 . S
H795 C787 0.960 . S
H796 C788 0.930 . S
H797 C789 0.929 . S
H798 C806 0.929 . S
H799 C808 0.930 . S
H800 C810 0.930 1_655 S
H801 C813 0.929 . S
H802 C816 0.930 . S
H803 C818 0.960 . S
H804 C818 0.960 . S
H805 C818 0.960 . S
C806 H798 0.929 . S
C806 C807 1.377 . S
C806 C808 1.384 . S
C807 C806 1.377 . S
C807 C813 1.390 . S
C808 H799 0.930 . S
C808 C806 1.384 . S
C808 C809 1.372 . S
C809 C808 1.372 . S
C809 C810 1.400 . S
C809 C814 1.490 . S
C810 H800 0.930 1_455 S
C810 C809 1.400 . S
C810 C813 1.386 . S
H811 C827 0.930 . S
H812 C828 0.928 . S
C813 H801 0.929 . S
C813 C807 1.390 . S
C813 C810 1.386 . S
C814 C809 1.490 . S
C814 C816 1.395 . S
C814 C817 1.403 1_455 S
H815 C821 0.930 . S
C816 H802 0.930 . S
C816 C814 1.395 . S
C816 C819 1.403 . S
C817 C814 1.403 1_655 S
C817 C818 1.524 . S
C817 C821 1.400 . S
C818 H803 0.960 . S
C818 H804 0.960 . S
C818 H805 0.960 . S
C818 C817 1.524 . S
C819 C816 1.403 . S
C819 C820 1.392 . S
C819 C823 1.495 . S
C820 C819 1.392 . S
C820 C821 1.385 1_455 S
C820 C822 1.478 . S
C821 H815 0.930 . S
C821 C817 1.400 . S
C821 C820 1.385 1_655 S
C822 C820 1.478 . S
C822 C824 1.381 . S
C822 C828 1.376 1_455 S
C823 C819 1.495 . S
C823 H829 0.959 . S
C823 H830 0.961 . S
C823 H831 0.960 . S
C824 C822 1.381 . S
C824 C825 1.394 . S
C824 H832 0.930 . S
C825 C824 1.394 . S
C825 C826 1.383 . S
C825 H833 0.929 . S
C826 C825 1.383 . S
C826 C827 1.377 1_455 S
C827 H811 0.930 . S
C827 C826 1.377 1_655 S
C827 C828 1.389 . S
C828 H812 0.928 . S
C828 C822 1.376 1_655 S
C828 C827 1.389 . S
H829 C823 0.959 . S
H830 C823 0.961 . S
H831 C823 0.960 . S
H832 C824 0.930 . S
H833 C825 0.929 . S
C430 C272 1.379 . S
C411 C29 1.386 . S
C447 C137 1.384 . S
C466 C311 1.411 . S
C483 C225 1.389 . S
C502 C378 1.406 . S
C519 C49 1.384 . S
C538 C279 1.414 1_455 S
C574 C332 1.382 1_545 S
C555 C117 1.381 . S
C591 C205 1.388 . S
C610 C357 1.384 . S
C646 C318 1.387 . S
C627 C233 1.388 . S
C663 C57 1.390 . S
C682 C371 1.405 . S
C718 C286 1.400 1_655 S
C699 C108 1.387 . S
C754 C325 1.393 . S
C735 C196 1.385 . S
C790 C364 1.404 . S
C771 C20 1.386 . S
C807 C145 1.386 . S
C826 C265 1.382 . S
