# Generated by pormake.
# Topology pth, (4,4)-cn, num edge types: 1
# Building blocks:
#     Node 0, Type 0, BuildingBlock: AZAVOO_clean_sbu_0, # of connection points: 4
#     Node 1, Type 0, BuildingBlock: AZAVOO_clean_sbu_0, # of connection points: 4
#     Node 2, Type 0, BuildingBlock: AZAVOO_clean_sbu_0, # of connection points: 4
#     Node 3, Type 1, BuildingBlock: MIFKUJ_clean_linker_1, # of connection points: 4
#     Node 4, Type 1, BuildingBlock: MIFKUJ_clean_linker_1, # of connection points: 4
#     Node 5, Type 1, BuildingBlock: MIFKUJ_clean_linker_1, # of connection points: 4
#     Edge 6, Type (0, 1), BuildingBlock: UVAHIK_clean_linker_0, # of connection points: 2
#     Edge 7, Type (0, 1), BuildingBlock: UVAHIK_clean_linker_0, # of connection points: 2
#     Edge 8, Type (0, 1), BuildingBlock: UVAHIK_clean_linker_0, # of connection points: 2
#     Edge 9, Type (0, 1), BuildingBlock: UVAHIK_clean_linker_0, # of connection points: 2
#     Edge 10, Type (0, 1), BuildingBlock: UVAHIK_clean_linker_0, # of connection points: 2
#     Edge 11, Type (0, 1), BuildingBlock: UVAHIK_clean_linker_0, # of connection points: 2
#     Edge 12, Type (0, 1), BuildingBlock: UVAHIK_clean_linker_0, # of connection points: 2
#     Edge 13, Type (0, 1), BuildingBlock: UVAHIK_clean_linker_0, # of connection points: 2
#     Edge 14, Type (0, 1), BuildingBlock: UVAHIK_clean_linker_0, # of connection points: 2
#     Edge 15, Type (0, 1), BuildingBlock: UVAHIK_clean_linker_0, # of connection points: 2
#     Edge 16, Type (0, 1), BuildingBlock: UVAHIK_clean_linker_0, # of connection points: 2
#     Edge 17, Type (0, 1), BuildingBlock: UVAHIK_clean_linker_0, # of connection points: 2
# Relax obj value: 0.066
# Max RMSD: 0.211
# Mean RMSD: 0.113
data_MOF--net-pth--node1-AZAVOO_clean_sbu_0--node2-MIFKUJ_clean_linker_1--edge1-UVAHIK_clean_linker_0
_symmetry_space_group_name_H-M    P1
_symmetry_Int_Tables_number       1
_symmetry_cell_setting            triclinic
loop_
_symmetry_equiv_pos_as_xyz
'x, y, z'
_cell_length_a     36.426925
_cell_length_b     37.063037
_cell_length_c     77.878862
_cell_angle_alpha  90.796106
_cell_angle_beta   92.379173
_cell_angle_gamma 121.73291
loop_
_atom_site_label
_atom_site_type_symbol
_atom_site_fract_x
_atom_site_fract_y
_atom_site_fract_z
_atom_type_partial_charge
Mg0 Mg 0.09182 0.05574 0.0395 0.0
O1 O 0.03233 0.01053 0.02191 0.0
O2 O 0.0204 0.04925 0.00339 0.0
Mg3 Mg 0.0729 0.11887 0.00879 0.0
C4 C 0.01042 0.01354 0.0094 0.0
C5 C 0.1042 0.00328 0.06708 0.0
O6 O 0.14425 0.03491 0.06587 0.0
O7 O 0.0524 0.07648 0.05386 0.0
O8 O 0.04492 0.11704 0.03484 0.0
O9 O 0.13481 0.05149 0.02104 0.0
O10 O 0.11579 0.09909 0.02013 0.0
C11 C 0.03889 0.10083 0.0496 0.0
C12 C 0.13544 0.08249 0.01329 0.0
O13 O 0.07431 0.00257 0.0578 0.0
Mg14 Mg 0.95682 0.99695 0.36124 0.0
O15 O 0.01668 0.01855 0.37938 0.0
O16 O 0.02936 0.07564 0.39489 0.0
Mg17 Mg 0.97758 0.09015 0.38699 0.0
C18 C 0.03888 0.04813 0.39084 0.0
C19 C 0.97864 0.92787 0.3526 0.0
O20 O 0.97498 0.92331 0.36926 0.0
O21 O -0.0034 0.05269 0.34426 0.0
O22 O 0.00554 0.10726 0.36047 0.0
O23 O 0.91344 0.95563 0.38145 0.0
O24 O 0.93501 0.02316 0.37862 0.0
C25 C 0.01103 0.09221 0.34663 0.0
C26 C 0.91506 0.98938 0.38725 0.0
O27 O 0.97284 0.95534 0.34556 0.0
Mg28 Mg 0.98855 0.97142 0.69998 0.0
O29 O 0.03647 0.0325 0.7156 0.0
O30 O -0.00016 0.04459 0.73486 0.0
Mg31 Mg 0.92941 0.98958 0.73254 0.0
C32 C 0.03492 0.05502 0.72778 0.0
C33 C 0.03204 0.96055 0.66853 0.0
O34 O -0.00269 0.92228 0.66869 0.0
O35 O 0.96034 0.00568 0.6859 0.0
O36 O 0.92156 0.01157 0.70601 0.0
O37 O 0.00012 0.93269 0.71877 0.0
O38 O 0.95072 0.94988 0.72091 0.0
C39 C 0.93432 0.0166 0.6907 0.0
C40 C 0.97068 0.93283 0.72748 0.0
O41 O 0.03777 0.98837 0.67981 0.0
H42 H 0.04998 0.47405 0.16153 0.0
H43 H 0.03419 0.41069 0.14477 0.0
H44 H 0.94277 0.33137 0.18153 0.0
H45 H 0.95799 0.3948 0.1981 0.0
H46 H 0.00715 0.50807 0.17007 0.0
H47 H 0.08178 0.4559 0.19972 0.0
H48 H 0.09561 0.40494 0.21351 0.0
H49 H 0.00944 0.38967 0.25305 0.0
H50 H 0.99438 0.43948 0.23893 0.0
H51 H 0.97811 0.53734 0.23795 0.0
H52 H 0.98138 0.59192 0.25697 0.0
H53 H 0.08742 0.68895 0.22965 0.0
H54 H 0.0844 0.63389 0.21069 0.0
H55 H 0.03939 0.51817 0.23306 0.0
H56 H 0.96837 0.57775 0.19669 0.0
H57 H 0.97097 0.63564 0.18071 0.0
H58 H 0.07801 0.64912 0.15328 0.0
H59 H 0.07502 0.59149 0.16911 0.0
C60 C 0.00557 0.4392 0.18118 0.0
C61 C 0.02617 0.44306 0.16588 0.0
C62 C 0.01711 0.40686 0.15632 0.0
C63 C 0.98737 0.36617 0.16191 0.0
C64 C 0.96622 0.36235 0.17706 0.0
C65 C 0.97494 0.39855 0.18652 0.0
C66 C 0.01641 0.47756 0.19172 0.0
C67 C 0.01449 0.51036 0.18384 0.0
C68 C 0.02743 0.48134 0.20956 0.0
C69 C 0.0365 0.45109 0.21814 0.0
C70 C 0.06534 0.44115 0.21122 0.0
C71 C 0.07336 0.41218 0.21911 0.0
C72 C 0.05355 0.39347 0.23429 0.0
C73 C 0.02535 0.40397 0.2414 0.0
C74 C 0.01678 0.43241 0.23336 0.0
C75 C 0.03072 0.58153 0.2228 0.0
C76 C 0.00223 0.57035 0.23609 0.0
C77 C 0.00422 0.60155 0.24699 0.0
C78 C 0.03475 0.64467 0.24482 0.0
C79 C 0.06333 0.65596 0.2315 0.0
C80 C 0.06158 0.62458 0.22066 0.0
C81 C 0.02796 0.54752 0.21155 0.0
C82 C 0.03178 0.51561 0.21932 0.0
C83 C 0.02092 0.54569 0.19348 0.0
C84 C 0.02161 0.58049 0.1841 0.0
C85 C 0.99242 0.59337 0.18726 0.0
C86 C 0.99399 0.62642 0.17816 0.0
C87 C 0.02451 0.64675 0.16565 0.0
C88 C 0.05358 0.63362 0.16258 0.0
C89 C 0.05205 0.6008 0.17167 0.0
H90 H 0.62423 0.12862 0.50063 0.0
H91 H 0.67664 0.11781 0.48642 0.0
H92 H 0.62506 0.99689 0.51021 0.0
H93 H 0.57375 0.00852 0.52463 0.0
H94 H 0.5332 0.07771 0.49862 0.0
H95 H 0.64983 0.13089 0.54092 0.0
H96 H 0.70598 0.12777 0.55787 0.0
H97 H 0.60734 0.01836 0.58311 0.0
H98 H 0.55154 0.02037 0.56551 0.0
H99 H 0.44095 0.00748 0.55738 0.0
H100 H 0.37652 0.99528 0.5711 0.0
H101 H 0.39647 0.11263 0.55172 0.0
H102 H 0.46159 0.12501 0.53815 0.0
H103 H 0.52571 0.07279 0.56211 0.0
H104 H 0.41355 0.00978 0.51572 0.0
H105 H 0.35534 0.0062 0.49744 0.0
H106 H 0.44444 0.13219 0.48044 0.0
H107 H 0.50241 0.13575 0.49898 0.0
C108 C 0.5955 0.06957 0.51377 0.0
C109 C 0.62438 0.09987 0.50275 0.0
C110 C 0.65415 0.09353 0.49462 0.0
C111 C 0.65513 0.0565 0.49721 0.0
C112 C 0.62581 0.02611 0.50818 0.0
C113 C 0.59629 0.03259 0.51636 0.0
C114 C 0.56399 0.07595 0.52254 0.0
C115 C 0.53213 0.07767 0.51252 0.0
C116 C 0.56244 0.07549 0.54065 0.0
C117 C 0.59648 0.07554 0.55179 0.0
C118 C 0.64035 0.10607 0.55003 0.0
C119 C 0.67242 0.10448 0.55984 0.0
C120 C 0.66118 0.0726 0.57174 0.0
C121 C 0.61715 0.04281 0.5738 0.0
C122 C 0.58516 0.04423 0.56391 0.0
C123 C 0.45592 0.06706 0.54673 0.0
C124 C 0.43158 0.0307 0.55616 0.0
C125 C 0.39457 0.02357 0.56384 0.0
C126 C 0.3813 0.05284 0.56235 0.0
C127 C 0.40605 0.08962 0.55311 0.0
C128 C 0.44306 0.09663 0.54531 0.0
C129 C 0.49418 0.0731 0.53816 0.0
C130 C 0.52741 0.07389 0.54824 0.0
C131 C 0.49695 0.07574 0.52012 0.0
C132 C 0.46204 0.07323 0.50881 0.0
C133 C 0.42044 0.03664 0.50809 0.0
C134 C 0.38736 0.03451 0.49755 0.0
C135 C 0.39538 0.06896 0.48755 0.0
C136 C 0.43725 0.10538 0.48816 0.0
C137 C 0.47039 0.10738 0.49864 0.0
H138 H 0.5136 0.45761 0.82695 0.0
H139 H 0.45779 0.40837 0.80564 0.0
H140 H 0.35987 0.40527 0.8363 0.0
H141 H 0.41597 0.45689 0.85677 0.0
H142 H 0.54303 0.53302 0.83758 0.0
H143 H 0.48164 0.40405 0.86511 0.0
H144 H 0.42702 0.33598 0.87608 0.0
H145 H 0.38796 0.40132 0.91015 0.0
H146 H 0.44164 0.46911 0.8987 0.0
H147 H 0.55691 0.60491 0.90199 0.0
H148 H 0.61286 0.66168 0.92131 0.0
H149 H 0.70229 0.62384 0.90791 0.0
H150 H 0.6465 0.56818 0.88825 0.0
H151 H 0.52669 0.50871 0.90009 0.0
H152 H 0.59254 0.63989 0.86456 0.0
H153 H 0.65825 0.70162 0.85437 0.0
H154 H 0.70202 0.61941 0.83781 0.0
H155 H 0.6362 0.55795 0.84782 0.0
C156 C 0.46903 0.46054 0.84362 0.0
C157 C 0.48013 0.44672 0.82896 0.0
C158 C 0.44807 0.41813 0.81687 0.0
C159 C 0.40416 0.40246 0.81926 0.0
C160 C 0.39328 0.41694 0.83385 0.0
C161 C 0.42537 0.44602 0.84577 0.0
C162 C 0.50296 0.49027 0.85668 0.0
C163 C 0.53932 0.52727 0.85121 0.0
C164 C 0.49905 0.48284 0.87451 0.0
C165 C 0.46539 0.4416 0.88097 0.0
C166 C 0.46089 0.40362 0.87477 0.0
C167 C 0.42995 0.36479 0.88116 0.0
C168 C 0.4031 0.36326 0.89394 0.0
C169 C 0.40768 0.40137 0.9001 0.0
C170 C 0.4386 0.44017 0.8937 0.0
C171 C 0.59782 0.58266 0.89373 0.0
C172 C 0.5885 0.60871 0.90341 0.0
C173 C 0.62047 0.64101 0.91447 0.0
C174 C 0.66219 0.6475 0.9161 0.0
C175 C 0.67081 0.62029 0.90672 0.0
C176 C 0.63893 0.58825 0.8956 0.0
C177 C 0.56538 0.55127 0.88087 0.0
C178 C 0.52965 0.51411 0.88642 0.0
C179 C 0.57077 0.5574 0.86312 0.0
C180 C 0.60966 0.59458 0.85679 0.0
C181 C 0.61633 0.63532 0.85869 0.0
C182 C 0.65375 0.6704 0.85292 0.0
C183 C 0.68516 0.66514 0.84542 0.0
C184 C 0.67851 0.6243 0.84374 0.0
C185 C 0.64086 0.58924 0.84927 0.0
C186 C 0.00205 0.13903 0.05767 0.0
C187 C 0.01811 0.11319 0.0624 0.0
C188 C 0.98723 0.15519 0.07001 0.0
C189 C 0.00505 0.18571 0.11577 0.0
H190 H 0.91624 0.2113 0.10544 0.0
C191 C 0.97946 0.29481 0.16064 0.0
C192 C 0.97929 0.32791 0.15212 0.0
C193 C 0.97501 0.26016 0.15127 0.0
C194 C 0.94101 0.20422 0.10853 0.0
H195 H 0.02867 0.08197 0.08372 0.0
H196 H 0.00237 0.11009 0.10531 0.0
H197 H 0.92342 0.16319 0.08612 0.0
H198 H 0.97241 0.34992 0.12727 0.0
H199 H 0.96484 0.28958 0.11088 0.0
H200 H 0.02346 0.22775 0.1379 0.0
C201 C 0.00193 0.11828 0.09204 0.0
C202 C 0.94516 0.17674 0.09748 0.0
C203 C 0.01681 0.10203 0.07965 0.0
C204 C 0.97306 0.32502 0.13413 0.0
C205 C 0.96824 0.29026 0.12478 0.0
C206 C 0.00072 0.213 0.12687 0.0
C207 C 0.98794 0.14586 0.0874 0.0
C208 C 0.97819 0.16834 0.10066 0.0
C209 C 0.96985 0.25781 0.13323 0.0
C210 C 0.96959 0.2236 0.12305 0.0
H211 H 0.0023 0.14811 0.0445 0.0
H212 H 0.97723 0.17676 0.066 0.0
H213 H 0.03114 0.18033 0.11852 0.0
H214 H 0.98447 0.29639 0.17451 0.0
H215 H 0.97621 0.23551 0.1581 0.0
C216 C 0.85334 0.95686 0.40646 0.0
C217 C 0.89523 0.98994 0.40322 0.0
C218 C 0.83128 0.96165 0.41974 0.0
C219 C 0.7951 0.97721 0.45205 0.0
H220 H 0.80709 0.08756 0.45087 0.0
C221 C 0.70594 0.02988 0.49656 0.0
C222 C 0.68583 0.04901 0.48821 0.0
C223 C 0.73391 0.02187 0.48788 0.0
C224 C 0.80341 0.05662 0.45136 0.0
H225 H 0.94902 0.05133 0.41251 0.0
H226 H 0.91092 0.05966 0.43569 0.0
H227 H 0.85228 0.07312 0.43356 0.0
H228 H 0.67899 0.07413 0.4641 0.0
H229 H 0.72834 0.06089 0.44911 0.0
H230 H 0.74507 0.96056 0.46953 0.0
C231 C 0.8944 0.03074 0.42766 0.0
C232 C 0.82966 0.04847 0.44161 0.0
C233 C 0.91617 0.02607 0.41436 0.0
C234 C 0.69456 0.06016 0.47103 0.0
C235 C 0.72272 0.05244 0.46242 0.0
C236 C 0.76891 0.9855 0.46192 0.0
C237 C 0.85108 -0.00054 0.43 0.0
C238 C 0.82549 0.00854 0.44167 0.0
C239 C 0.74263 0.03318 0.47074 0.0
C240 C 0.77237 0.02508 0.46142 0.0
H241 H 0.83664 0.92864 0.39803 0.0
H242 H 0.7979 0.93699 0.42122 0.0
H243 H 0.79132 0.94622 0.4524 0.0
H244 H 0.7004 0.02145 0.50987 0.0
H245 H 0.7492 0.00738 0.49464 0.0
C246 C 0.95575 0.93689 0.75801 0.0
C247 C 0.95996 0.91439 0.74442 0.0
C248 C 0.93791 0.91684 0.77316 0.0
C249 C 0.89423 0.81378 0.79538 0.0
H250 H 0.81418 0.84375 0.81168 0.0
C251 C 0.76507 0.70853 0.84226 0.0
C252 C 0.72378 0.70165 0.8385 0.0
C253 C 0.80097 0.74071 0.8344 0.0
C254 C 0.83618 0.83477 0.80725 0.0
H255 H 0.95135 0.85442 0.73608 0.0
H256 H 0.91789 0.81835 0.76206 0.0
H257 H 0.86568 0.8875 0.79111 0.0
H258 H 0.68748 0.72315 0.8239 0.0
H259 H 0.74944 0.77815 0.80971 0.0
H260 H 0.86188 0.75885 0.81041 0.0
C261 C 0.92954 0.85183 0.76147 0.0
C262 C 0.86649 0.86044 0.79564 0.0
C263 C 0.94852 0.87233 0.7465 0.0
C264 C 0.7191 0.72817 0.82715 0.0
C265 C 0.75478 0.75987 0.8191 0.0
C266 C 0.86329 0.78761 0.80676 0.0
C267 C 0.9226 0.87343 0.77477 0.0
C268 C 0.89521 0.84971 0.78916 0.0
C269 C 0.79612 0.7662 0.82242 0.0
C270 C 0.83303 0.79713 0.81244 0.0
H271 H 0.96518 0.9697 0.75673 0.0
H272 H 0.93457 0.935 0.7833 0.0
H273 H 0.91641 0.80495 0.79103 0.0
H274 H 0.76947 0.68867 0.85113 0.0
H275 H 0.83236 0.74514 0.83752 0.0
C276 C 0.05134 0.9348 0.08019 0.0
C277 C 0.09427 0.96823 0.0786 0.0
C278 C 0.0422 0.90086 0.09055 0.0
C279 C 0.09209 0.84448 0.10817 0.0
H280 H 0.99536 0.79426 0.13769 0.0
C281 C 0.03394 0.68416 0.13816 0.0
C282 C 0.02667 0.68176 0.15581 0.0
C283 C 0.03982 0.71884 0.1291 0.0
C284 C 0.02259 0.80812 0.12956 0.0
H285 H 0.16114 0.99272 0.08696 0.0
H286 H 0.14514 0.9335 0.10501 0.0
H287 H 0.01148 0.857 0.12175 0.0
H288 H 0.01837 0.71322 0.17765 0.0
H289 H 0.02834 0.77389 0.1617 0.0
H290 H 0.10342 0.79593 0.11597 0.0
C291 C 0.11862 0.93338 0.09812 0.0
C292 C 0.0316 0.84377 0.12035 0.0
C293 C 0.12775 0.96738 0.08783 0.0
C294 C 0.02363 0.71403 0.16404 0.0
C295 C 0.02939 0.74877 0.15493 0.0
C296 C 0.08293 0.80879 0.11727 0.0
C297 C 0.0758 0.89955 0.09945 0.0
C298 C 0.06646 0.86229 0.10955 0.0
C299 C 0.0384 0.75188 0.13744 0.0
C300 C 0.048 0.7901 0.128 0.0
H301 H 0.02479 0.93453 0.07327 0.0
H302 H 0.00893 0.87507 0.0912 0.0
H303 H 0.11887 0.85775 0.09983 0.0
H304 H 0.03549 0.65935 0.13136 0.0
H305 H 0.04578 0.71993 0.11555 0.0
C306 C 0.10484 0.08561 0.41092 0.0
C307 C 0.07662 0.05043 0.39993 0.0
C308 C 0.1399 0.08756 0.41983 0.0
C309 C 0.20894 0.04171 0.4205 0.0
H310 H 0.23634 0.08662 0.46769 0.0
C311 C 0.33109 0.03044 0.46659 0.0
C312 C 0.35997 0.06712 0.47673 0.0
C313 C 0.2971 0.02841 0.45672 0.0
C314 C 0.22934 0.07439 0.45447 0.0
H315 H 0.06337 0.98975 0.38961 0.0
H316 H 0.12416 0.99282 0.40544 0.0
H317 H 0.17562 0.08256 0.45144 0.0
H318 H 0.37592 0.13037 0.48452 0.0
H319 H 0.31661 0.1269 0.46722 0.0
H320 H 0.26251 0.03306 0.42372 0.0
C321 C 0.11953 0.01924 0.40694 0.0
C322 C 0.19459 0.07211 0.44514 0.0
C323 C 0.08454 0.01739 0.39793 0.0
C324 C 0.35436 0.10183 0.47672 0.0
C325 C 0.3202 0.09969 0.46696 0.0
C326 C 0.24358 0.04376 0.42989 0.0
C327 C 0.14747 0.05426 0.41808 0.0
C328 C 0.1841 0.05597 0.42802 0.0
C329 C 0.29112 0.0629 0.45692 0.0
C330 C 0.25423 0.06032 0.44694 0.0
H331 H 0.09996 0.11182 0.41266 0.0
H332 H 0.16125 0.11538 0.42804 0.0
H333 H 0.20209 0.02962 0.40728 0.0
H334 H 0.33489 0.00335 0.46625 0.0
H335 H 0.275 -0.00044 0.44919 0.0
C336 C 0.07376 0.12542 0.74387 0.0
C337 C 0.0753 0.09389 0.73427 0.0
C338 C 0.1118 0.16127 0.75068 0.0
C339 C 0.2201 0.19513 0.76673 0.0
H340 H 0.24343 0.30941 0.76267 0.0
C341 C 0.37386 0.33827 0.79913 0.0
C342 C 0.3697 0.37034 0.8069 0.0
C343 C 0.34052 0.30675 0.78827 0.0
C344 C 0.23721 0.27768 0.7641 0.0
H345 H 0.11795 0.07547 0.7241 0.0
H346 H 0.18442 0.13783 0.73638 0.0
H347 H 0.17967 0.25004 0.74747 0.0
H348 H 0.32758 0.39512 0.80868 0.0
H349 H 0.2687 0.33903 0.79059 0.0
H350 H 0.27607 0.22192 0.78397 0.0
C351 C 0.15371 0.13478 0.73848 0.0
C352 C 0.20084 0.24379 0.75531 0.0
C353 C 0.11571 0.09925 0.73142 0.0
C354 C 0.33167 0.37052 0.80321 0.0
C355 C 0.29808 0.33865 0.79256 0.0
C356 C 0.25606 0.22886 0.77574 0.0
C357 C 0.15202 0.16594 0.74825 0.0
C358 C 0.19185 0.20222 0.75665 0.0
C359 C 0.30186 0.30607 0.78508 0.0
C360 C 0.26494 0.27058 0.77466 0.0
H361 H 0.04313 0.1223 0.74622 0.0
H362 H 0.10967 0.18474 0.75829 0.0
H363 H 0.21352 0.16324 0.76813 0.0
H364 H 0.40242 0.33674 0.80177 0.0
H365 H 0.34498 0.28266 0.78251 0.0
C366 C 0.88454 0.04184 0.68291 0.0
C367 C 0.91529 0.03232 0.67793 0.0
C368 C 0.86193 0.05098 0.67067 0.0
C369 C 0.79636 0.02998 0.64119 0.0
H370 H 0.84505 0.10858 0.60443 0.0
C371 C 0.68962 0.03053 0.58532 0.0
C372 C 0.69503 0.07018 0.58201 0.0
C373 C 0.71989 0.02784 0.59587 0.0
C374 C 0.83116 0.08657 0.61466 0.0
H375 H 0.94843 0.02782 0.65622 0.0
H376 H 0.90876 0.04414 0.63477 0.0
H377 H 0.89331 0.1028 0.62568 0.0
H378 H 0.73736 0.13825 0.58674 0.0
H379 H 0.79066 0.13342 0.60503 0.0
H380 H 0.73439 0.01352 0.6303 0.0
C381 C 0.90224 0.04423 0.64821 0.0
C382 C 0.85866 0.08314 0.62671 0.0
C383 C 0.92478 0.03476 0.66049 0.0
C384 C 0.73238 0.10722 0.58893 0.0
C385 C 0.76289 0.10452 0.5994 0.0
C386 C 0.769 0.033 0.62907 0.0
C387 C 0.86971 0.05113 0.65317 0.0
C388 C 0.8414 0.05504 0.64016 0.0
C389 C 0.75644 0.06474 0.60323 0.0
C390 C 0.78608 0.06137 0.61572 0.0
H391 H 0.87666 0.04074 0.69623 0.0
H392 H 0.83746 0.05687 0.67484 0.0
H393 H 0.78222 0.0077 0.65132 0.0
H394 H 0.6618 0.00145 0.57985 0.0
H395 H 0.71452 0.9968 0.59842 0.0
C396 C 0.96455 0.93417 0.00567 0.0
C397 C 0.97253 0.97437 0.00145 0.0
C398 C 0.92953 0.89732 -0.00226 0.0
C399 C 0.82429 0.85555 0.97423 0.0
H400 H 0.84509 0.7708 0.95545 0.0
C401 C 0.68806 0.69485 0.94294 0.0
C402 C 0.69698 0.6833 0.92709 0.0
C403 C 0.72079 0.72913 0.95304 0.0
C404 C 0.83884 0.79421 0.96063 0.0
H405 H 0.94935 0.00723 0.98582 0.0
H406 H 0.8883 0.94293 0.97204 0.0
H407 H 0.90367 0.83334 0.97139 0.0
H408 H 0.74727 0.69932 0.90931 0.0
H409 H 0.80436 0.75846 0.92706 0.0
H410 H 0.75961 0.8167 0.96321 0.0
C411 C 0.90907 0.93998 0.98153 0.0
C412 C 0.87221 0.82978 0.96987 0.0
C413 C 0.94425 0.97682 0.98935 0.0
C414 C 0.73942 0.7067 0.92161 0.0
C415 C 0.77214 0.74069 0.93175 0.0
C416 C 0.79078 0.81977 0.96511 0.0
C417 C 0.90156 0.89989 0.98554 0.0
C418 C 0.86541 0.86103 0.9766 0.0
C419 C 0.76315 0.75232 0.94754 0.0
C420 C 0.79789 0.78902 0.95804 0.0
H421 H 0.98564 0.9311 0.01495 0.0
H422 H 0.92427 0.86679 0.00117 0.0
H423 H 0.81807 0.879 0.9794 0.0
H424 H 0.65588 0.67718 0.94765 0.0
H425 H 0.71308 0.7372 0.96523 0.0
C426 C 0.99271 0.86884 0.34956 0.0
C427 C 0.98885 0.90106 0.34208 0.0
C428 C 0.00136 0.84292 0.33952 0.0
C429 C 0.04434 0.83667 0.29819 0.0
H430 H 0.97686 0.71534 0.30439 0.0
C431 C 0.03859 0.71365 0.24977 0.0
C432 C 0.03613 0.67746 0.25642 0.0
C433 C 0.03638 0.74274 0.26063 0.0
C434 C -0.00351 0.74919 0.30265 0.0
H435 H 0.99171 0.93174 0.3182 0.0
H436 H 0.00657 0.88635 0.30069 0.0
H437 H 0.96643 0.76261 0.32269 0.0
H438 H 0.03174 0.64444 0.27973 0.0
H439 H 0.02843 0.69537 0.29871 0.0
H440 H 0.07427 0.82318 0.27807 0.0
C441 C 0.00325 0.88136 0.31435 0.0
C442 C 0.99045 0.77628 0.31315 0.0
C443 C 0.99444 0.90718 0.32437 0.0
C444 C 0.03294 0.67168 0.27421 0.0
C445 C 0.03094 0.7008 0.28506 0.0
C446 C 0.05049 0.80956 0.28771 0.0
C447 C 0.00652 0.84877 0.32178 0.0
C448 C 0.01414 0.82029 0.31098 0.0
C449 C 0.03188 0.73629 0.27837 0.0
C450 C 0.0265 0.76548 0.28978 0.0
H451 H 0.98876 0.8634 0.36318 0.0
H452 H 0.00419 0.81836 0.34565 0.0
H453 H 0.06346 0.87052 0.29635 0.0
H454 H 0.04068 0.71869 0.23609 0.0
H455 H 0.03675 0.7695 0.25503 0.0
C456 C 0.05999 0.93931 0.64398 0.0
C457 C 0.06476 0.97079 0.65575 0.0
C458 C 0.09176 0.94858 0.63237 0.0
C459 C 0.18461 0.037 0.61188 0.0
H460 H 0.22123 0.95649 0.60693 0.0
C461 C 0.34236 0.07725 0.58043 0.0
C462 C 0.34198 0.0449 0.57067 0.0
C463 C 0.30633 0.06863 0.58942 0.0
C464 C 0.21096 0.97903 0.60793 0.0
H465 H 0.1062 0.03693 0.6643 0.0
H466 H 0.16171 0.05296 0.64411 0.0
H467 H 0.16219 0.94045 0.62512 0.0
H468 H 0.30289 0.97884 0.56185 0.0
H469 H 0.23989 0.96387 0.57734 0.0
H470 H 0.23371 0.07574 0.59476 0.0
C471 C 0.13325 0.02122 0.64377 0.0
C472 C 0.17712 0.96983 0.61838 0.0
C473 C 0.10156 0.01194 0.65542 0.0
C474 C 0.30436 0.0042 0.56954 0.0
C475 C 0.26833 0.99563 0.57844 0.0
C476 C 0.21844 0.04618 0.60137 0.0
C477 C 0.1289 0.98954 0.63224 0.0
C478 C 0.16372 -0.00121 0.62055 0.0
C479 C 0.26915 0.02752 0.58874 0.0
C480 C 0.23215 0.01737 0.59934 0.0
H481 H 0.03195 0.90734 0.64384 0.0
H482 H 0.08726 0.92363 0.62349 0.0
H483 H 0.17465 0.05973 0.61315 0.0
H484 H 0.37105 0.10883 0.58164 0.0
H485 H 0.30821 0.09381 0.59738 0.0
C486 C 0.18415 0.08446 0.99094 0.0
C487 C 0.15731 0.09798 -0.00296 0.0
C488 C 0.20736 0.10185 0.97628 0.0
C489 C 0.21303 0.16197 0.93806 0.0
H490 H 0.33741 0.21833 0.94561 0.0
C491 C 0.33017 0.31375 0.90499 0.0
C492 C 0.37134 0.32232 0.90128 0.0
C493 C 0.30159 0.27702 0.91329 0.0
C494 C 0.30275 0.20198 0.94303 0.0
H495 H 0.13332 0.13972 0.99224 0.0
H496 H 0.17258 0.16893 0.96667 0.0
H497 H 0.29048 0.16861 0.96639 0.0
H498 H 0.41424 0.29824 0.90279 0.0
H499 H 0.36392 0.23357 0.91704 0.0
H500 H 0.22516 0.19632 0.91502 0.0
C501 C 0.17559 0.14482 0.97313 0.0
C502 C 0.27589 0.1735 0.95497 0.0
C503 C 0.15312 0.1281 0.98788 0.0
C504 C 0.38264 0.29243 0.9054 0.0
C505 C 0.35398 0.25558 0.9137 0.0
C506 C 0.23983 0.19017 0.92607 0.0
C507 C 0.20342 0.1324 0.96732 0.0
C508 C 0.23089 0.15459 0.95293 0.0
C509 C 0.31344 0.24786 0.91803 0.0
C510 C 0.28503 0.21183 0.92879 0.0
H511 H 0.1882 0.0614 -0.00225 0.0
H512 H 0.22877 0.09188 0.97206 0.0
H513 H 0.17835 0.1473 0.9361 0.0
H514 H 0.32028 0.33586 0.90175 0.0
H515 H 0.27088 0.27242 0.91662 0.0
C516 C 0.02791 0.10634 0.31557 0.0
C517 C 0.03222 0.12158 0.33263 0.0
C518 C 0.04242 0.13451 0.30213 0.0
C519 C 0.10619 0.24984 0.2929 0.0
H520 H 0.01663 0.21778 0.25678 0.0
C521 C 0.0732 0.36798 0.26054 0.0
C522 C 0.06231 0.36316 0.24282 0.0
C523 C 0.07945 0.33837 0.26883 0.0
C524 C 0.04243 0.22695 0.26654 0.0
H525 H 0.05814 0.1785 0.34909 0.0
H526 H 0.08269 0.22713 0.32585 0.0
H527 H 0.01116 0.16461 0.27631 0.0
H528 H 0.05013 0.32422 0.21975 0.0
H529 H 0.0603 0.27166 0.2344 0.0
H530 H 0.13583 0.31288 0.28377 0.0
C531 C 0.06845 0.19364 0.32272 0.0
C532 C 0.0394 0.19645 0.27772 0.0
C533 C 0.05388 0.16561 0.33608 0.0
C534 C 0.05867 0.32865 0.23343 0.0
C535 C 0.06433 0.29861 0.24179 0.0
C536 C 0.10901 0.28037 0.28182 0.0
C537 C 0.06177 0.1784 0.30555 0.0
C538 C 0.07033 0.20797 0.29146 0.0
C539 C 0.07446 0.30307 0.2596 0.0
C540 C 0.07628 0.26952 0.26896 0.0
H541 H 0.01154 0.07258 0.3125 0.0
H542 H 0.03724 0.12186 0.28904 0.0
H543 H 0.13103 0.25951 0.30314 0.0
H544 H 0.07652 0.39452 0.26802 0.0
H545 H 0.08664 0.34229 0.28261 0.0
loop_
_geom_bond_atom_site_label_1
_geom_bond_atom_site_label_2
_geom_bond_distance
_geom_bond_site_symmetry_2
_ccdc_geom_bond_type
Mg0 O1 2.028 1_545 S
Mg0 O7 1.986 . S
Mg0 O9 2.114 . S
Mg0 O10 2.251 . S
Mg0 O13 2.010 . S
O1 Mg0 2.028 1_565 S
O1 C4 1.250 1_455 S
O2 Mg3 2.028 . S
O2 C4 1.247 1_445 S
Mg3 O2 2.028 . S
Mg3 O8 2.032 . S
Mg3 O10 2.079 . S
C4 O1 1.250 1_655 S
C4 O2 1.247 1_665 S
C5 O6 1.264 . S
C5 O13 1.249 1_565 S
O6 C5 1.264 . S
O7 Mg0 1.986 . S
O7 C11 1.246 . S
O8 Mg3 2.032 . S
O8 C11 1.259 . S
O9 Mg0 2.114 . S
O9 C12 1.252 . S
O10 Mg0 2.251 . S
O10 Mg3 2.079 . S
O10 C12 1.273 . S
C11 O7 1.246 . S
C11 O8 1.259 . S
C12 O9 1.252 . S
C12 O10 1.273 . S
O13 Mg0 2.010 . S
O13 C5 1.249 1_545 S
Mg14 O15 2.028 1_655 S
Mg14 O21 1.986 1_655 S
Mg14 O23 2.114 1_545 S
Mg14 O24 2.251 . S
Mg14 O27 2.010 1_545 S
O15 Mg14 2.028 1_455 S
O15 C18 1.250 . S
O16 Mg17 2.028 . S
O16 C18 1.248 . S
Mg17 O16 2.028 . S
Mg17 O22 2.032 . S
Mg17 O24 2.079 1_455 S
C18 O15 1.250 . S
C18 O16 1.248 . S
C19 O20 1.264 . S
C19 O27 1.249 . S
O20 C19 1.264 . S
O21 Mg14 1.986 1_455 S
O21 C25 1.246 . S
O22 Mg17 2.032 . S
O22 C25 1.259 . S
O23 Mg14 2.114 1_565 S
O23 C26 1.252 1_565 S
O24 Mg14 2.251 . S
O24 Mg17 2.079 1_655 S
O24 C26 1.273 . S
C25 O21 1.246 . S
C25 O22 1.259 . S
C26 O23 1.252 1_545 S
C26 O24 1.273 . S
O27 Mg14 2.010 1_565 S
O27 C19 1.249 . S
Mg28 O29 2.028 1_565 S
Mg28 O35 1.986 1_465 S
Mg28 O37 2.114 . S
Mg28 O38 2.251 1_455 S
Mg28 O41 2.010 . S
O29 Mg28 2.028 1_545 S
O29 C32 1.250 . S
O30 Mg31 2.028 1_455 S
O30 C32 1.248 . S
Mg31 O30 2.028 1_655 S
Mg31 O36 2.032 . S
Mg31 O38 2.079 1_545 S
C32 O29 1.250 . S
C32 O30 1.248 . S
C33 O34 1.264 . S
C33 O41 1.249 . S
O34 C33 1.264 . S
O35 Mg28 1.986 1_645 S
O35 C39 1.246 . S
O36 Mg31 2.032 . S
O36 C39 1.259 . S
O37 Mg28 2.114 . S
O37 C40 1.252 1_455 S
O38 Mg28 2.251 1_655 S
O38 Mg31 2.079 1_565 S
O38 C40 1.273 . S
C39 O35 1.246 . S
C39 O36 1.259 . S
C40 O37 1.252 1_655 S
C40 O38 1.273 . S
O41 Mg28 2.010 . S
O41 C33 1.249 . S
H42 C61 0.949 . S
H43 C62 0.950 . S
H44 C64 0.950 1_655 S
H45 C65 0.950 1_655 S
H46 C67 0.950 . S
H47 C70 0.950 . S
H48 C71 0.950 . S
H49 C73 0.951 . S
H50 C74 0.949 . S
H51 C76 0.949 . S
H52 C77 0.950 . S
H53 C79 0.950 . S
H54 C80 0.950 . S
H55 C82 0.950 . S
H56 C85 0.950 1_655 S
H57 C86 0.950 1_655 S
H58 C88 0.951 . S
H59 C89 0.949 . S
C60 C61 1.376 . S
C60 C65 1.386 . S
C60 C66 1.483 . S
C61 H42 0.949 . S
C61 C60 1.376 . S
C61 C62 1.397 . S
C62 H43 0.950 . S
C62 C61 1.397 . S
C62 C63 1.391 . S
C63 C62 1.391 . S
C63 C64 1.405 . S
C64 H44 0.950 1_455 S
C64 C63 1.405 . S
C64 C65 1.367 . S
C65 H45 0.950 1_455 S
C65 C60 1.386 . S
C65 C64 1.367 . S
C66 C60 1.483 . S
C66 C67 1.382 . S
C66 C68 1.403 . S
C67 H46 0.950 . S
C67 C66 1.382 . S
C67 C83 1.411 . S
C68 C66 1.403 . S
C68 C69 1.489 . S
C68 C82 1.411 . S
C69 C68 1.489 . S
C69 C70 1.383 . S
C69 C74 1.382 1_455 S
C70 H47 0.950 . S
C70 C69 1.383 . S
C70 C71 1.395 . S
C71 H48 0.950 . S
C71 C70 1.395 . S
C71 C72 1.288 . S
C72 C71 1.288 . S
C72 C73 1.392 1_455 S
C73 H49 0.951 . S
C73 C72 1.392 1_655 S
C73 C74 1.392 . S
C74 H50 0.949 . S
C74 C69 1.382 1_655 S
C74 C73 1.392 . S
C75 C76 1.376 1_455 S
C75 C80 1.386 . S
C75 C81 1.483 . S
C76 H51 0.949 . S
C76 C75 1.376 1_655 S
C76 C77 1.397 . S
C77 H52 0.950 . S
C77 C76 1.397 . S
C77 C78 1.391 1_655 S
C78 C77 1.391 1_455 S
C78 C79 1.405 . S
C79 H53 0.950 . S
C79 C78 1.405 . S
C79 C80 1.367 . S
C80 H54 0.950 . S
C80 C75 1.386 . S
C80 C79 1.367 . S
C81 C75 1.483 . S
C81 C82 1.382 . S
C81 C83 1.403 . S
C82 H55 0.950 . S
C82 C68 1.411 . S
C82 C81 1.382 . S
C83 C67 1.411 . S
C83 C81 1.403 . S
C83 C84 1.489 . S
C84 C83 1.489 . S
C84 C85 1.383 . S
C84 C89 1.382 . S
C85 H56 0.950 1_455 S
C85 C84 1.383 . S
C85 C86 1.395 . S
C86 H57 0.950 1_455 S
C86 C85 1.395 . S
C86 C87 1.288 . S
C87 C86 1.288 . S
C87 C88 1.392 . S
C88 H58 0.951 . S
C88 C87 1.392 . S
C88 C89 1.392 . S
C89 H59 0.949 . S
C89 C84 1.382 . S
C89 C88 1.392 . S
H90 C109 0.949 . S
H91 C110 0.950 . S
H92 C112 0.950 1_565 S
H93 C113 0.950 1_565 S
H94 C115 0.950 . S
H95 C118 0.950 . S
H96 C119 0.950 . S
H97 C121 0.951 1_565 S
H98 C122 0.949 1_565 S
H99 C124 0.949 1_565 S
H100 C125 0.950 1_565 S
H101 C127 0.950 . S
H102 C128 0.950 . S
H103 C130 0.950 . S
H104 C133 0.950 1_565 S
H105 C134 0.955 . S
H106 C136 0.951 . S
H107 C137 0.949 . S
C108 C109 1.376 . S
C108 C113 1.386 . S
C108 C114 1.483 . S
C109 H90 0.949 . S
C109 C108 1.376 . S
C109 C110 1.397 . S
C110 H91 0.950 . S
C110 C109 1.397 . S
C110 C111 1.391 . S
C111 C110 1.391 . S
C111 C112 1.405 . S
C112 H92 0.950 1_545 S
C112 C111 1.405 . S
C112 C113 1.367 . S
C113 H93 0.950 1_545 S
C113 C108 1.386 . S
C113 C112 1.367 . S
C114 C108 1.483 . S
C114 C115 1.382 . S
C114 C116 1.403 . S
C115 H94 0.950 . S
C115 C114 1.382 . S
C115 C131 1.411 . S
C116 C114 1.403 . S
C116 C117 1.489 . S
C116 C130 1.411 . S
C117 C116 1.489 . S
C117 C118 1.383 . S
C117 C122 1.382 . S
C118 H95 0.950 . S
C118 C117 1.383 . S
C118 C119 1.395 . S
C119 H96 0.950 . S
C119 C118 1.395 . S
C119 C120 1.288 . S
C120 C119 1.288 . S
C120 C121 1.392 . S
C121 H97 0.951 1_545 S
C121 C120 1.392 . S
C121 C122 1.392 . S
C122 H98 0.949 1_545 S
C122 C117 1.382 . S
C122 C121 1.392 . S
C123 C124 1.376 . S
C123 C128 1.386 . S
C123 C129 1.483 . S
C124 H99 0.949 1_545 S
C124 C123 1.376 . S
C124 C125 1.397 . S
C125 H100 0.950 1_545 S
C125 C124 1.397 . S
C125 C126 1.391 . S
C126 C125 1.391 . S
C126 C127 1.405 . S
C127 H101 0.950 . S
C127 C126 1.405 . S
C127 C128 1.367 . S
C128 H102 0.950 . S
C128 C123 1.386 . S
C128 C127 1.367 . S
C129 C123 1.483 . S
C129 C130 1.382 . S
C129 C131 1.403 . S
C130 H103 0.950 . S
C130 C116 1.411 . S
C130 C129 1.382 . S
C131 C115 1.411 . S
C131 C129 1.403 . S
C131 C132 1.489 . S
C132 C131 1.489 . S
C132 C133 1.383 . S
C132 C137 1.382 . S
C133 H104 0.950 1_545 S
C133 C132 1.383 . S
C133 C134 1.395 . S
C134 H105 0.955 . S
C134 C133 1.395 . S
C134 C135 1.288 . S
C135 C134 1.288 . S
C135 C136 1.392 . S
C136 H106 0.951 . S
C136 C135 1.392 . S
C136 C137 1.392 . S
C137 H107 0.949 . S
C137 C132 1.382 . S
C137 C136 1.392 . S
H138 C157 0.949 . S
H139 C158 0.950 . S
H140 C160 0.950 . S
H141 C161 0.950 . S
H142 C163 0.950 . S
H143 C166 0.950 . S
H144 C167 0.950 . S
H145 C169 0.951 . S
H146 C170 0.949 . S
H147 C172 0.949 . S
H148 C173 0.950 . S
H149 C175 0.950 . S
H150 C176 0.950 . S
H151 C178 0.950 . S
H152 C181 0.950 . S
H153 C182 0.950 . S
H154 C184 0.951 . S
H155 C185 0.949 . S
C156 C157 1.376 . S
C156 C161 1.386 . S
C156 C162 1.483 . S
C157 H138 0.949 . S
C157 C156 1.376 . S
C157 C158 1.397 . S
C158 H139 0.950 . S
C158 C157 1.397 . S
C158 C159 1.391 . S
C159 C158 1.391 . S
C159 C160 1.405 . S
C160 H140 0.950 . S
C160 C159 1.405 . S
C160 C161 1.367 . S
C161 H141 0.950 . S
C161 C156 1.386 . S
C161 C160 1.367 . S
C162 C156 1.483 . S
C162 C163 1.382 . S
C162 C164 1.403 . S
C163 H142 0.950 . S
C163 C162 1.382 . S
C163 C179 1.411 . S
C164 C162 1.403 . S
C164 C165 1.489 . S
C164 C178 1.411 . S
C165 C164 1.489 . S
C165 C166 1.383 . S
C165 C170 1.382 . S
C166 H143 0.950 . S
C166 C165 1.383 . S
C166 C167 1.395 . S
C167 H144 0.950 . S
C167 C166 1.395 . S
C167 C168 1.288 . S
C168 C167 1.288 . S
C168 C169 1.392 . S
C169 H145 0.951 . S
C169 C168 1.392 . S
C169 C170 1.392 . S
C170 H146 0.949 . S
C170 C165 1.382 . S
C170 C169 1.392 . S
C171 C172 1.376 . S
C171 C176 1.386 . S
C171 C177 1.483 . S
C172 H147 0.949 . S
C172 C171 1.376 . S
C172 C173 1.397 . S
C173 H148 0.950 . S
C173 C172 1.397 . S
C173 C174 1.391 . S
C174 C173 1.391 . S
C174 C175 1.405 . S
C175 H149 0.950 . S
C175 C174 1.405 . S
C175 C176 1.367 . S
C176 H150 0.950 . S
C176 C171 1.386 . S
C176 C175 1.367 . S
C177 C171 1.483 . S
C177 C178 1.382 . S
C177 C179 1.403 . S
C178 H151 0.950 . S
C178 C164 1.411 . S
C178 C177 1.382 . S
C179 C163 1.411 . S
C179 C177 1.403 . S
C179 C180 1.489 . S
C180 C179 1.489 . S
C180 C181 1.383 . S
C180 C185 1.382 . S
C181 H152 0.950 . S
C181 C180 1.383 . S
C181 C182 1.395 . S
C182 H153 0.950 . S
C182 C181 1.395 . S
C182 C183 1.288 . S
C183 C182 1.288 . S
C183 C184 1.392 . S
C184 H154 0.951 . S
C184 C183 1.392 . S
C184 C185 1.392 . S
C185 H155 0.949 . S
C185 C180 1.382 . S
C185 C184 1.392 . S
C186 C187 1.349 . S
C186 C188 1.327 . S
C186 H211 0.950 . S
C187 C186 1.349 . S
C187 C203 1.349 . S
C188 C186 1.327 . S
C188 C207 1.429 . S
C188 H212 0.950 . S
C189 C206 1.574 . S
C189 C208 1.368 . S
C189 H213 0.949 . S
H190 C194 0.949 . S
C191 C192 1.349 . S
C191 C193 1.327 . S
C191 H214 0.950 . S
C192 C191 1.349 . S
C192 C204 1.349 . S
C193 C191 1.327 . S
C193 C209 1.429 . S
C193 H215 0.950 . S
C194 H190 0.949 . S
C194 C202 1.574 . S
C194 C210 1.368 . S
H195 C203 0.950 . S
H196 C201 0.950 . S
H197 C202 0.949 . S
H198 C204 0.950 . S
H199 C205 0.950 . S
H200 C206 0.949 . S
C201 H196 0.950 . S
C201 C203 1.327 . S
C201 C207 1.429 . S
C202 C194 1.574 . S
C202 H197 0.949 . S
C202 C208 1.368 . S
C203 C187 1.349 . S
C203 H195 0.950 . S
C203 C201 1.327 . S
C204 C192 1.349 . S
C204 H198 0.950 . S
C204 C205 1.327 . S
C205 H199 0.950 . S
C205 C204 1.327 . S
C205 C209 1.429 . S
C206 C189 1.574 . S
C206 H200 0.949 . S
C206 C210 1.368 . S
C207 C188 1.429 . S
C207 C201 1.429 . S
C207 C208 1.523 . S
C208 C189 1.368 . S
C208 C202 1.368 . S
C208 C207 1.523 . S
C209 C193 1.429 . S
C209 C205 1.429 . S
C209 C210 1.523 . S
C210 C194 1.368 . S
C210 C206 1.368 . S
C210 C209 1.523 . S
H211 C186 0.950 . S
H212 C188 0.950 . S
H213 C189 0.949 . S
H214 C191 0.950 . S
H215 C193 0.950 . S
C216 C217 1.372 . S
C216 C218 1.327 . S
C216 H241 0.950 . S
C217 C216 1.372 . S
C217 C233 1.343 1_545 S
C218 C216 1.327 . S
C218 C237 1.429 . S
C218 H242 0.950 . S
C219 C236 1.574 . S
C219 C238 1.368 . S
C219 H243 0.937 1_545 S
H220 C224 0.949 . S
C221 C222 1.349 . S
C221 C223 1.327 . S
C221 H244 0.950 . S
C222 C221 1.349 . S
C222 C234 1.349 . S
C223 C221 1.327 . S
C223 C239 1.429 . S
C223 H245 0.950 . S
C224 H220 0.949 . S
C224 C232 1.574 . S
C224 C240 1.368 . S
H225 C233 0.950 . S
H226 C231 0.950 . S
H227 C232 0.949 . S
H228 C234 0.950 . S
H229 C235 0.950 . S
H230 C236 0.949 . S
C231 H226 0.950 . S
C231 C233 1.327 . S
C231 C237 1.429 1_565 S
C232 C224 1.574 . S
C232 H227 0.949 . S
C232 C238 1.368 . S
C233 C217 1.343 1_565 S
C233 H225 0.950 . S
C233 C231 1.327 . S
C234 C222 1.349 . S
C234 H228 0.950 . S
C234 C235 1.327 . S
C235 H229 0.950 . S
C235 C234 1.327 . S
C235 C239 1.429 . S
C236 C219 1.574 . S
C236 H230 0.949 . S
C236 C240 1.368 . S
C237 C218 1.429 . S
C237 C231 1.429 1_545 S
C237 C238 1.523 . S
C238 C219 1.368 . S
C238 C232 1.368 . S
C238 C237 1.523 . S
C239 C223 1.429 . S
C239 C235 1.429 . S
C239 C240 1.523 . S
C240 C224 1.368 . S
C240 C236 1.368 . S
C240 C239 1.523 . S
H241 C216 0.950 . S
H242 C218 0.950 . S
H243 C219 0.937 1_565 S
H244 C221 0.950 . S
H245 C223 0.950 . S
C246 C247 1.349 . S
C246 C248 1.327 . S
C246 H271 0.950 . S
C247 C246 1.349 . S
C247 C263 1.349 . S
C248 C246 1.327 . S
C248 C267 1.429 . S
C248 H272 0.950 . S
C249 C266 1.574 . S
C249 C268 1.368 . S
C249 H273 0.949 . S
H250 C254 0.949 . S
C251 C252 1.349 . S
C251 C253 1.327 . S
C251 H274 0.950 . S
C252 C251 1.349 . S
C252 C264 1.349 . S
C253 C251 1.327 . S
C253 C269 1.429 . S
C253 H275 0.950 . S
C254 H250 0.949 . S
C254 C262 1.574 . S
C254 C270 1.368 . S
H255 C263 0.950 . S
H256 C261 0.950 . S
H257 C262 0.949 . S
H258 C264 0.950 . S
H259 C265 0.950 . S
H260 C266 0.949 . S
C261 H256 0.950 . S
C261 C263 1.327 . S
C261 C267 1.429 . S
C262 C254 1.574 . S
C262 H257 0.949 . S
C262 C268 1.368 . S
C263 C247 1.349 . S
C263 H255 0.950 . S
C263 C261 1.327 . S
C264 C252 1.349 . S
C264 H258 0.950 . S
C264 C265 1.327 . S
C265 H259 0.950 . S
C265 C264 1.327 . S
C265 C269 1.429 . S
C266 C249 1.574 . S
C266 H260 0.949 . S
C266 C270 1.368 . S
C267 C248 1.429 . S
C267 C261 1.429 . S
C267 C268 1.523 . S
C268 C249 1.368 . S
C268 C262 1.368 . S
C268 C267 1.523 . S
C269 C253 1.429 . S
C269 C265 1.429 . S
C269 C270 1.523 . S
C270 C254 1.368 . S
C270 C266 1.368 . S
C270 C269 1.523 . S
H271 C246 0.950 . S
H272 C248 0.950 . S
H273 C249 0.949 . S
H274 C251 0.950 . S
H275 C253 0.950 . S
C276 C277 1.349 . S
C276 C278 1.327 . S
C276 H301 0.950 . S
C277 C276 1.349 . S
C277 C293 1.349 . S
C278 C276 1.327 . S
C278 C297 1.429 . S
C278 H302 0.950 . S
C279 C296 1.574 . S
C279 C298 1.368 . S
C279 H303 0.949 . S
H280 C284 0.949 . S
C281 C282 1.349 . S
C281 C283 1.327 . S
C281 H304 0.950 . S
C282 C281 1.349 . S
C282 C294 1.349 . S
C283 C281 1.327 . S
C283 C299 1.429 . S
C283 H305 0.950 . S
C284 H280 0.949 . S
C284 C292 1.574 . S
C284 C300 1.368 . S
H285 C293 0.950 . S
H286 C291 0.950 . S
H287 C292 0.949 . S
H288 C294 0.950 . S
H289 C295 0.950 . S
H290 C296 0.949 . S
C291 H286 0.950 . S
C291 C293 1.327 . S
C291 C297 1.429 . S
C292 C284 1.574 . S
C292 H287 0.949 . S
C292 C298 1.368 . S
C293 C277 1.349 . S
C293 H285 0.950 . S
C293 C291 1.327 . S
C294 C282 1.349 . S
C294 H288 0.950 . S
C294 C295 1.327 . S
C295 H289 0.950 . S
C295 C294 1.327 . S
C295 C299 1.429 . S
C296 C279 1.574 . S
C296 H290 0.949 . S
C296 C300 1.368 . S
C297 C278 1.429 . S
C297 C291 1.429 . S
C297 C298 1.523 . S
C298 C279 1.368 . S
C298 C292 1.368 . S
C298 C297 1.523 . S
C299 C283 1.429 . S
C299 C295 1.429 . S
C299 C300 1.523 . S
C300 C284 1.368 . S
C300 C296 1.368 . S
C300 C299 1.523 . S
H301 C276 0.950 . S
H302 C278 0.950 . S
H303 C279 0.949 . S
H304 C281 0.950 . S
H305 C283 0.950 . S
C306 C307 1.349 . S
C306 C308 1.327 . S
C306 H331 0.950 . S
C307 C306 1.349 . S
C307 C323 1.349 . S
C308 C306 1.327 . S
C308 C327 1.429 . S
C308 H332 0.950 . S
C309 C326 1.574 . S
C309 C328 1.368 . S
C309 H333 0.949 1_545 S
H310 C314 0.949 . S
C311 C312 1.349 . S
C311 C313 1.327 . S
C311 H334 0.950 1_545 S
C312 C311 1.349 . S
C312 C324 1.349 . S
C313 C311 1.327 . S
C313 C329 1.429 . S
C313 H335 0.950 1_545 S
C314 H310 0.949 . S
C314 C322 1.574 . S
C314 C330 1.368 . S
H315 C323 0.950 1_565 S
H316 C321 0.950 1_565 S
H317 C322 0.949 . S
H318 C324 0.950 . S
H319 C325 0.950 . S
H320 C326 0.949 1_565 S
C321 H316 0.950 1_545 S
C321 C323 1.327 . S
C321 C327 1.429 . S
C322 C314 1.574 . S
C322 H317 0.949 . S
C322 C328 1.368 . S
C323 C307 1.349 . S
C323 H315 0.950 1_545 S
C323 C321 1.327 . S
C324 C312 1.349 . S
C324 H318 0.950 . S
C324 C325 1.327 . S
C325 H319 0.950 . S
C325 C324 1.327 . S
C325 C329 1.429 . S
C326 C309 1.574 . S
C326 H320 0.949 1_545 S
C326 C330 1.368 . S
C327 C308 1.429 . S
C327 C321 1.429 . S
C327 C328 1.523 . S
C328 C309 1.368 . S
C328 C322 1.368 . S
C328 C327 1.523 . S
C329 C313 1.429 . S
C329 C325 1.429 . S
C329 C330 1.523 . S
C330 C314 1.368 . S
C330 C326 1.368 . S
C330 C329 1.523 . S
H331 C306 0.950 . S
H332 C308 0.950 . S
H333 C309 0.949 1_565 S
H334 C311 0.950 1_565 S
H335 C313 0.950 1_565 S
C336 C337 1.349 . S
C336 C338 1.327 . S
C336 H361 0.950 . S
C337 C336 1.349 . S
C337 C353 1.349 . S
C338 C336 1.327 . S
C338 C357 1.429 . S
C338 H362 0.950 . S
C339 C356 1.574 . S
C339 C358 1.368 . S
C339 H363 0.949 . S
H340 C344 0.949 . S
C341 C342 1.349 . S
C341 C343 1.327 . S
C341 H364 0.950 . S
C342 C341 1.349 . S
C342 C354 1.349 . S
C343 C341 1.327 . S
C343 C359 1.429 . S
C343 H365 0.950 . S
C344 H340 0.949 . S
C344 C352 1.574 . S
C344 C360 1.368 . S
H345 C353 0.950 . S
H346 C351 0.950 . S
H347 C352 0.949 . S
H348 C354 0.950 . S
H349 C355 0.950 . S
H350 C356 0.949 . S
C351 H346 0.950 . S
C351 C353 1.327 . S
C351 C357 1.429 . S
C352 C344 1.574 . S
C352 H347 0.949 . S
C352 C358 1.368 . S
C353 C337 1.349 . S
C353 H345 0.950 . S
C353 C351 1.327 . S
C354 C342 1.349 . S
C354 H348 0.950 . S
C354 C355 1.327 . S
C355 H349 0.950 . S
C355 C354 1.327 . S
C355 C359 1.429 . S
C356 C339 1.574 . S
C356 H350 0.949 . S
C356 C360 1.368 . S
C357 C338 1.429 . S
C357 C351 1.429 . S
C357 C358 1.523 . S
C358 C339 1.368 . S
C358 C352 1.368 . S
C358 C357 1.523 . S
C359 C343 1.429 . S
C359 C355 1.429 . S
C359 C360 1.523 . S
C360 C344 1.368 . S
C360 C356 1.368 . S
C360 C359 1.523 . S
H361 C336 0.950 . S
H362 C338 0.950 . S
H363 C339 0.949 . S
H364 C341 0.950 . S
H365 C343 0.950 . S
C366 C367 1.349 . S
C366 C368 1.327 . S
C366 H391 0.950 . S
C367 C366 1.349 . S
C367 C383 1.349 . S
C368 C366 1.327 . S
C368 C387 1.429 . S
C368 H392 0.950 . S
C369 C386 1.574 . S
C369 C388 1.368 . S
C369 H393 0.949 1_545 S
H370 C374 0.949 . S
C371 C372 1.349 . S
C371 C373 1.327 . S
C371 H394 0.950 1_545 S
C372 C371 1.349 . S
C372 C384 1.349 . S
C373 C371 1.327 . S
C373 C389 1.429 . S
C373 H395 0.950 1_545 S
C374 H370 0.949 . S
C374 C382 1.574 . S
C374 C390 1.368 . S
H375 C383 0.950 1_565 S
H376 C381 0.950 1_565 S
H377 C382 0.949 . S
H378 C384 0.950 . S
H379 C385 0.950 . S
H380 C386 0.949 1_565 S
C381 H376 0.950 1_545 S
C381 C383 1.327 . S
C381 C387 1.429 . S
C382 C374 1.574 . S
C382 H377 0.949 . S
C382 C388 1.368 . S
C383 C367 1.349 . S
C383 H375 0.950 1_545 S
C383 C381 1.327 . S
C384 C372 1.349 . S
C384 H378 0.950 . S
C384 C385 1.327 . S
C385 H379 0.950 . S
C385 C384 1.327 . S
C385 C389 1.429 . S
C386 C369 1.574 . S
C386 H380 0.949 1_545 S
C386 C390 1.368 . S
C387 C368 1.429 . S
C387 C381 1.429 . S
C387 C388 1.523 . S
C388 C369 1.368 . S
C388 C382 1.368 . S
C388 C387 1.523 . S
C389 C373 1.429 . S
C389 C385 1.429 . S
C389 C390 1.523 . S
C390 C374 1.368 . S
C390 C386 1.368 . S
C390 C389 1.523 . S
H391 C366 0.950 . S
H392 C368 0.950 . S
H393 C369 0.949 1_565 S
H394 C371 0.950 1_565 S
H395 C373 0.950 1_565 S
C396 C397 1.349 1_556 S
C396 C398 1.327 . S
C396 H421 0.950 1_655 S
C397 C396 1.349 1_554 S
C397 C413 1.349 . S
C398 C396 1.327 . S
C398 C417 1.429 . S
C398 H422 0.950 . S
C399 C416 1.574 . S
C399 C418 1.368 . S
C399 H423 0.949 . S
H400 C404 0.949 . S
C401 C402 1.349 . S
C401 C403 1.327 . S
C401 H424 0.950 . S
C402 C401 1.349 . S
C402 C414 1.349 . S
C403 C401 1.327 . S
C403 C419 1.429 . S
C403 H425 0.950 . S
C404 H400 0.949 . S
C404 C412 1.574 . S
C404 C420 1.368 . S
H405 C413 0.950 . S
H406 C411 0.950 . S
H407 C412 0.949 . S
H408 C414 0.950 . S
H409 C415 0.950 . S
H410 C416 0.949 . S
C411 H406 0.950 . S
C411 C413 1.327 . S
C411 C417 1.429 1_554 S
C412 C404 1.574 . S
C412 H407 0.949 . S
C412 C418 1.368 . S
C413 C397 1.349 . S
C413 H405 0.950 . S
C413 C411 1.327 . S
C414 C402 1.349 . S
C414 H408 0.950 . S
C414 C415 1.327 . S
C415 H409 0.950 . S
C415 C414 1.327 . S
C415 C419 1.429 . S
C416 C399 1.574 . S
C416 H410 0.949 . S
C416 C420 1.368 . S
C417 C398 1.429 . S
C417 C411 1.429 1_556 S
C417 C418 1.523 . S
C418 C399 1.368 . S
C418 C412 1.368 . S
C418 C417 1.523 . S
C419 C403 1.429 . S
C419 C415 1.429 . S
C419 C420 1.523 . S
C420 C404 1.368 . S
C420 C416 1.368 . S
C420 C419 1.523 . S
H421 C396 0.950 1_455 S
H422 C398 0.950 . S
H423 C399 0.949 . S
H424 C401 0.950 . S
H425 C403 0.950 . S
C426 C427 1.349 . S
C426 C428 1.327 . S
C426 H451 0.950 . S
C427 C426 1.349 . S
C427 C443 1.349 1_655 S
C428 C426 1.327 . S
C428 C447 1.429 . S
C428 H452 0.950 . S
C429 C446 1.574 . S
C429 C448 1.368 . S
C429 H453 0.949 . S
H430 C434 0.949 . S
C431 C432 1.349 . S
C431 C433 1.327 . S
C431 H454 0.950 . S
C432 C431 1.349 . S
C432 C444 1.349 1_455 S
C433 C431 1.327 . S
C433 C449 1.429 . S
C433 H455 0.950 . S
C434 H430 0.949 . S
C434 C442 1.574 . S
C434 C450 1.368 1_655 S
H435 C443 0.950 . S
H436 C441 0.950 . S
H437 C442 0.949 . S
H438 C444 0.950 . S
H439 C445 0.950 . S
H440 C446 0.949 . S
C441 H436 0.950 . S
C441 C443 1.327 . S
C441 C447 1.429 1_455 S
C442 C434 1.574 . S
C442 H437 0.949 . S
C442 C448 1.368 1_655 S
C443 C427 1.349 1_455 S
C443 H435 0.950 . S
C443 C441 1.327 . S
C444 C432 1.349 1_655 S
C444 H438 0.950 . S
C444 C445 1.327 . S
C445 H439 0.950 . S
C445 C444 1.327 . S
C445 C449 1.429 1_655 S
C446 C429 1.574 . S
C446 H440 0.949 . S
C446 C450 1.368 . S
C447 C428 1.429 . S
C447 C441 1.429 1_655 S
C447 C448 1.523 1_655 S
C448 C429 1.368 . S
C448 C442 1.368 1_455 S
C448 C447 1.523 1_455 S
C449 C433 1.429 . S
C449 C445 1.429 1_455 S
C449 C450 1.523 . S
C450 C434 1.368 1_455 S
C450 C446 1.368 . S
C450 C449 1.523 . S
H451 C426 0.950 . S
H452 C428 0.950 . S
H453 C429 0.949 . S
H454 C431 0.950 . S
H455 C433 0.950 . S
C456 C457 1.334 1_565 S
C456 C458 1.327 . S
C456 H481 0.950 . S
C457 C456 1.334 1_545 S
C457 C473 1.357 . S
C458 C456 1.327 . S
C458 C477 1.429 1_565 S
C458 H482 0.950 . S
C459 C476 1.574 . S
C459 C478 1.368 . S
C459 H483 0.949 . S
H460 C464 0.949 . S
C461 C462 1.349 . S
C461 C463 1.327 . S
C461 H484 0.950 . S
C462 C461 1.349 . S
C462 C474 1.349 . S
C463 C461 1.327 . S
C463 C479 1.429 . S
C463 H485 0.950 . S
C464 H460 0.949 . S
C464 C472 1.574 . S
C464 C480 1.368 1_565 S
H465 C473 0.950 . S
H466 C471 0.950 . S
H467 C472 0.949 . S
H468 C474 0.950 1_565 S
H469 C475 0.950 1_565 S
H470 C476 0.949 . S
C471 H466 0.950 . S
C471 C473 1.327 . S
C471 C477 1.429 . S
C472 C464 1.574 . S
C472 H467 0.949 . S
C472 C478 1.368 1_565 S
C473 C457 1.357 . S
C473 H465 0.950 . S
C473 C471 1.327 . S
C474 C462 1.349 . S
C474 H468 0.950 1_545 S
C474 C475 1.327 . S
C475 H469 0.950 1_545 S
C475 C474 1.327 . S
C475 C479 1.429 . S
C476 C459 1.574 . S
C476 H470 0.949 . S
C476 C480 1.368 . S
C477 C458 1.429 1_545 S
C477 C471 1.429 . S
C477 C478 1.523 . S
C478 C459 1.368 . S
C478 C472 1.368 1_545 S
C478 C477 1.523 . S
C479 C463 1.429 . S
C479 C475 1.429 . S
C479 C480 1.523 . S
C480 C464 1.368 1_545 S
C480 C476 1.368 . S
C480 C479 1.523 . S
H481 C456 0.950 . S
H482 C458 0.950 . S
H483 C459 0.949 . S
H484 C461 0.950 . S
H485 C463 0.950 . S
C486 C487 1.349 . S
C486 C488 1.327 . S
C486 H511 0.950 . S
C487 C486 1.349 . S
C487 C503 1.349 1_554 S
C488 C486 1.327 . S
C488 C507 1.429 1_554 S
C488 H512 0.950 . S
C489 C506 1.574 . S
C489 C508 1.368 . S
C489 H513 0.949 . S
H490 C494 0.949 . S
C491 C492 1.349 . S
C491 C493 1.327 . S
C491 H514 0.950 . S
C492 C491 1.349 . S
C492 C504 1.349 . S
C493 C491 1.327 . S
C493 C509 1.429 . S
C493 H515 0.950 . S
C494 H490 0.949 . S
C494 C502 1.574 . S
C494 C510 1.368 . S
H495 C503 0.950 . S
H496 C501 0.950 . S
H497 C502 0.949 . S
H498 C504 0.950 . S
H499 C505 0.950 . S
H500 C506 0.949 . S
C501 H496 0.950 . S
C501 C503 1.327 . S
C501 C507 1.429 . S
C502 C494 1.574 . S
C502 H497 0.949 . S
C502 C508 1.368 . S
C503 C487 1.349 1_556 S
C503 H495 0.950 . S
C503 C501 1.327 . S
C504 C492 1.349 . S
C504 H498 0.950 . S
C504 C505 1.327 . S
C505 H499 0.950 . S
C505 C504 1.327 . S
C505 C509 1.429 . S
C506 C489 1.574 . S
C506 H500 0.949 . S
C506 C510 1.368 . S
C507 C488 1.429 1_556 S
C507 C501 1.429 . S
C507 C508 1.523 . S
C508 C489 1.368 . S
C508 C502 1.368 . S
C508 C507 1.523 . S
C509 C493 1.429 . S
C509 C505 1.429 . S
C509 C510 1.523 . S
C510 C494 1.368 . S
C510 C506 1.368 . S
C510 C509 1.523 . S
H511 C486 0.950 . S
H512 C488 0.950 . S
H513 C489 0.949 . S
H514 C491 0.950 . S
H515 C493 0.950 . S
C516 C517 1.349 1_655 S
C516 C518 1.327 . S
C516 H541 0.950 . S
C517 C516 1.349 1_455 S
C517 C533 1.349 . S
C518 C516 1.327 . S
C518 C537 1.429 1_655 S
C518 H542 0.950 . S
C519 C536 1.574 . S
C519 C538 1.368 . S
C519 H543 0.949 . S
H520 C524 0.949 . S
C521 C522 1.349 . S
C521 C523 1.327 . S
C521 H544 0.950 . S
C522 C521 1.349 . S
C522 C534 1.349 1_455 S
C523 C521 1.327 . S
C523 C539 1.429 . S
C523 H545 0.950 . S
C524 H520 0.949 . S
C524 C532 1.574 . S
C524 C540 1.368 1_655 S
H525 C533 0.950 . S
H526 C531 0.950 . S
H527 C532 0.949 . S
H528 C534 0.950 . S
H529 C535 0.950 . S
H530 C536 0.949 . S
C531 H526 0.950 . S
C531 C533 1.327 . S
C531 C537 1.429 . S
C532 C524 1.574 . S
C532 H527 0.949 . S
C532 C538 1.368 1_655 S
C533 C517 1.349 . S
C533 H525 0.950 . S
C533 C531 1.327 . S
C534 C522 1.349 1_655 S
C534 H528 0.950 . S
C534 C535 1.327 . S
C535 H529 0.950 . S
C535 C534 1.327 . S
C535 C539 1.429 1_655 S
C536 C519 1.574 . S
C536 H530 0.949 . S
C536 C540 1.368 . S
C537 C518 1.429 1_455 S
C537 C531 1.429 . S
C537 C538 1.523 . S
C538 C519 1.368 . S
C538 C532 1.368 1_455 S
C538 C537 1.523 . S
C539 C523 1.429 . S
C539 C535 1.429 1_455 S
C539 C540 1.523 . S
C540 C524 1.368 1_455 S
C540 C536 1.368 . S
C540 C539 1.523 . S
H541 C516 0.950 . S
H542 C518 0.950 . S
H543 C519 0.949 . S
H544 C521 0.950 . S
H545 C523 0.950 . S
C192 C63 1.359 . S
C187 C11 1.336 . S
C217 C26 1.516 . S
C222 C111 1.542 . S
C247 C40 1.399 . S
C252 C183 1.397 . S
C277 C5 1.205 . S
C282 C87 1.351 . S
C312 C135 1.524 . S
C307 C18 1.514 . S
C337 C32 1.377 . S
C342 C159 1.393 . S
C372 C120 1.229 . S
C367 C39 1.218 . S
C397 C4 1.386 . S
C402 C174 1.400 . S
C432 C78 1.366 . S
C427 C19 1.216 . S
C462 C126 1.262 . S
C457 C33 1.125 1_545 S
C492 C168 1.416 . S
C487 C12 1.407 . S
C517 C25 1.343 . S
C522 C72 1.365 . S
