# Generated by pormake.
# Topology rtl, (3,6)-cn, num edge types: 1
# Building blocks:
#     Node 0, Type 0, BuildingBlock: BELTOD_clean_linker_0, # of connection points: 3
#     Node 1, Type 0, BuildingBlock: BELTOD_clean_linker_0, # of connection points: 3
#     Node 2, Type 0, BuildingBlock: BELTOD_clean_linker_0, # of connection points: 3
#     Node 3, Type 0, BuildingBlock: BELTOD_clean_linker_0, # of connection points: 3
#     Node 4, Type 1, BuildingBlock: KUMBOL_clean_sbu_1, # of connection points: 6
#     Node 5, Type 1, BuildingBlock: KUMBOL_clean_sbu_1, # of connection points: 6
#     Edge 6, Type (0, 1), BuildingBlock: MIFKUJ_clean_linker_0, # of connection points: 2
#     Edge 7, Type (0, 1), BuildingBlock: MIFKUJ_clean_linker_0, # of connection points: 2
#     Edge 8, Type (0, 1), BuildingBlock: MIFKUJ_clean_linker_0, # of connection points: 2
#     Edge 9, Type (0, 1), BuildingBlock: MIFKUJ_clean_linker_0, # of connection points: 2
#     Edge 10, Type (0, 1), BuildingBlock: MIFKUJ_clean_linker_0, # of connection points: 2
#     Edge 11, Type (0, 1), BuildingBlock: MIFKUJ_clean_linker_0, # of connection points: 2
#     Edge 12, Type (0, 1), BuildingBlock: MIFKUJ_clean_linker_0, # of connection points: 2
#     Edge 13, Type (0, 1), BuildingBlock: MIFKUJ_clean_linker_0, # of connection points: 2
#     Edge 14, Type (0, 1), BuildingBlock: MIFKUJ_clean_linker_0, # of connection points: 2
#     Edge 15, Type (0, 1), BuildingBlock: MIFKUJ_clean_linker_0, # of connection points: 2
#     Edge 16, Type (0, 1), BuildingBlock: MIFKUJ_clean_linker_0, # of connection points: 2
#     Edge 17, Type (0, 1), BuildingBlock: MIFKUJ_clean_linker_0, # of connection points: 2
# Relax obj value: 0.018
# Max RMSD: 0.085
# Mean RMSD: 0.057
data_MOF--net-rtl--node1-KUMBOL_clean_sbu_1--node2-BELTOD_clean_linker_0--edge1-MIFKUJ_clean_linker_0
_symmetry_space_group_name_H-M    P1
_symmetry_Int_Tables_number       1
_symmetry_cell_setting            triclinic
loop_
_symmetry_equiv_pos_as_xyz
'x, y, z'
_cell_length_a     46.919533
_cell_length_b     47.370857
_cell_length_c     40.327566
_cell_angle_alpha  80.939732
_cell_angle_beta   99.78631
_cell_angle_gamma 90.324844
loop_
_atom_site_label
_atom_site_type_symbol
_atom_site_fract_x
_atom_site_fract_y
_atom_site_fract_z
_atom_type_partial_charge
P0 P 0.2587 0.89063 0.0256 0.0
H1 H 0.27808 0.9065 0.09245 0.0
H2 H 0.25323 0.91193 0.13973 0.0
H3 H 0.17347 0.88593 0.08304 0.0
H4 H 0.19855 0.8802 0.03607 0.0
H5 H 0.31135 0.87327 0.00472 0.0
H6 H 0.33647 0.82727 0.01099 0.0
H7 H 0.27072 0.7864 0.06382 0.0
H8 H 0.24548 0.8327 0.05715 0.0
H9 H 0.2456 0.94121 0.97361 0.0
H10 H 0.21796 0.8539 0.9894 0.0
O11 O 0.28378 0.91577 0.02516 0.0
H12 H 0.21351 0.94996 0.9187 0.0
H13 H 0.18463 0.86276 0.93504 0.0
C14 C 0.24006 0.8935 0.06048 0.0
C15 C 0.25522 0.90204 0.09017 0.0
C16 C 0.24096 0.90526 0.11711 0.0
C17 C 0.21129 0.89969 0.11498 0.0
C18 C 0.19635 0.89032 0.08551 0.0
C19 C 0.21064 0.88721 0.05851 0.0
C20 C 0.27693 0.85647 0.0311 0.0
C21 C 0.30246 0.85447 0.01793 0.0
C22 C 0.31686 0.82816 0.02165 0.0
C23 C 0.30579 0.80323 0.03831 0.0
C24 C 0.27978 0.80521 0.05088 0.0
C25 C 0.26545 0.83167 0.04727 0.0
C26 C 0.23446 0.89681 0.98533 0.0
C27 C 0.23251 0.92391 0.96529 0.0
C28 C 0.21385 0.92897 0.93397 0.0
C29 C 0.19634 0.90709 0.92229 0.0
C30 C 0.1981 0.87999 0.94285 0.0
C31 C 0.21705 0.8749 0.97405 0.0
P32 P 0.69882 0.67495 0.60156 0.0
H33 H 0.71656 0.64587 0.54947 0.0
H34 H 0.6923 0.63769 0.49357 0.0
H35 H 0.61705 0.6849 0.50543 0.0
H36 H 0.64145 0.69234 0.56213 0.0
H37 H 0.73177 0.70454 0.65355 0.0
H38 H 0.75961 0.74824 0.65023 0.0
H39 H 0.73297 0.76327 0.5407 0.0
H40 H 0.70377 0.72095 0.54465 0.0
H41 H 0.66438 0.62556 0.61686 0.0
H42 H 0.67888 0.70668 0.65197 0.0
O43 O 0.72598 0.651 0.61424 0.0
H44 H 0.63453 0.61109 0.6602 0.0
H45 H 0.65034 0.69176 0.69677 0.0
C46 C 0.68061 0.66931 0.56012 0.0
C47 C 0.6948 0.65435 0.54017 0.0
C48 C 0.68095 0.64993 0.50799 0.0
C49 C 0.65269 0.66069 0.49489 0.0
C50 C 0.63864 0.676 0.5149 0.0
C51 C 0.65257 0.68036 0.54723 0.0
C52 C 0.71502 0.70972 0.59954 0.0
C53 C 0.73113 0.71784 0.62899 0.0
C54 C 0.74752 0.74264 0.62692 0.0
C55 C 0.74886 0.75945 0.59513 0.0
C56 C 0.73217 0.75142 0.56575 0.0
C57 C 0.71541 0.72692 0.56796 0.0
C58 C 0.67417 0.66703 0.63138 0.0
C59 C 0.66108 0.64031 0.63392 0.0
C60 C 0.64425 0.63194 0.65901 0.0
C61 C 0.64042 0.65 0.68252 0.0
C62 C 0.65273 0.67729 0.6791 0.0
C63 C 0.66938 0.68578 0.65363 0.0
P64 P 0.81491 0.18977 0.01914 0.0
H65 H 0.82406 0.20692 0.94962 0.0
H66 H 0.82816 0.18032 0.90353 0.0
H67 H 0.80631 0.1027 0.96508 0.0
H68 H 0.80217 0.12969 0.01129 0.0
H69 H 0.80349 0.24257 0.04287 0.0
H70 H 0.75962 0.27118 0.03913 0.0
H71 H 0.71005 0.21112 0.98371 0.0
H72 H 0.75428 0.18231 0.98778 0.0
H73 H 0.85576 0.14191 0.04518 0.0
H74 H 0.79438 0.18964 0.08426 0.0
O75 O 0.84198 0.21263 0.017 0.0
H76 H 0.87262 0.116 0.10266 0.0
H77 H 0.81173 0.16437 0.14166 0.0
C78 C 0.81368 0.17013 0.98416 0.0
C79 C 0.81985 0.18424 0.95308 0.0
C80 C 0.82195 0.16901 0.92663 0.0
C81 C 0.81778 0.13932 0.93073 0.0
C82 C 0.81006 0.12547 0.96136 0.0
C83 C 0.80772 0.14086 0.98777 0.0
C84 C 0.78217 0.21056 0.01524 0.0
C85 C 0.78322 0.23559 0.0298 0.0
C86 C 0.7581 0.25179 0.02788 0.0
C87 C 0.73141 0.24334 0.01119 0.0
C88 C 0.73038 0.21822 0.9965 0.0
C89 C 0.75559 0.20177 0.99883 0.0
C90 C 0.82336 0.16732 0.06015 0.0
C91 C 0.84539 0.14633 0.0659 0.0
C92 C 0.85508 0.1316 0.09874 0.0
C93 C 0.84345 0.13824 0.12651 0.0
C94 C 0.82108 0.15893 0.12065 0.0
C95 C 0.81108 0.17329 0.08774 0.0
P96 P 0.37383 0.26746 0.47435 0.0
H97 H 0.40064 0.24901 0.54531 0.0
H98 H 0.40924 0.27331 0.59506 0.0
H99 H 0.36577 0.34924 0.53441 0.0
H100 H 0.35807 0.32494 0.4845 0.0
H101 H 0.35388 0.21603 0.44703 0.0
H102 H 0.30884 0.18984 0.44589 0.0
H103 H 0.27209 0.2556 0.48996 0.0
H104 H 0.31747 0.28142 0.49153 0.0
H105 H 0.41903 0.30761 0.4618 0.0
H106 H 0.34028 0.28071 0.40446 0.0
O107 O 0.39952 0.24206 0.48037 0.0
H108 H 0.42908 0.33841 0.41077 0.0
H109 H 0.35044 0.31118 0.35301 0.0
C110 C 0.3792 0.28536 0.51112 0.0
C111 C 0.3931 0.27094 0.5427 0.0
C112 C 0.39779 0.28482 0.57122 0.0
C113 C 0.38837 0.31334 0.56878 0.0
C114 C 0.37386 0.3275 0.53711 0.0
C115 C 0.36929 0.3136 0.50857 0.0
C116 C 0.33926 0.25033 0.47006 0.0
C117 C 0.33607 0.22489 0.45628 0.0
C118 C 0.31019 0.21003 0.4554 0.0
C119 C 0.28688 0.22045 0.46815 0.0
C120 C 0.28978 0.24669 0.48055 0.0
C121 C 0.31571 0.26155 0.48135 0.0
C122 C 0.3788 0.29211 0.43702 0.0
C123 C 0.40375 0.30856 0.43825 0.0
C124 C 0.40959 0.32597 0.40897 0.0
C125 C 0.39066 0.32714 0.37773 0.0
C126 C 0.36532 0.31099 0.37673 0.0
C127 C 0.35951 0.29349 0.40613 0.0
C128 C 0.95196 0.08382 0.49088 0.0
C129 C 0.90223 0.0687 0.48 0.0
C130 C 0.93107 0.06356 0.49689 0.0
C131 C 0.89507 0.09364 0.45608 0.0
C132 C 0.94472 0.10916 0.46744 0.0
C133 C 0.91624 0.11381 0.44984 0.0
N134 N 0.97961 0.07834 0.50737 0.0
C135 C 1.00082 0.09766 0.50271 0.0
C136 C 0.96644 0.12896 0.46219 0.0
C137 C 0.99456 0.12325 0.48007 0.0
Gd138 Gd 0.02091 0.97081 0.5068 0.0
Gd139 Gd 0.98803 0.03527 0.54526 0.0
N140 N 0.93866 0.03948 0.52011 0.0
C141 C 0.88123 0.04906 0.4884 0.0
C142 C 0.91765 0.02199 0.53079 0.0
C143 C 0.88888 0.02594 0.51443 0.0
H144 H 0.92253 0.00551 0.55269 0.0
H145 H 0.8725 0.01151 0.52248 0.0
H146 H 0.08917 0.99485 0.5243 0.0
H147 H 0.02255 0.09326 0.51657 0.0
H148 H 0.13559 0.97781 0.55943 0.0
H149 H 0.85885 0.05224 0.47603 0.0
H150 H 0.87307 0.09777 0.4427 0.0
H151 H 0.97548 0.91656 0.51596 0.0
H152 H 0.96172 0.14871 0.44444 0.0
H153 H 0.0114 0.13854 0.47646 0.0
H154 H 0.11726 0.88229 0.60979 0.0
H155 H 0.91032 0.13305 0.43153 0.0
H156 H 0.02171 0.84654 0.58334 0.0
H157 H 0.97641 0.86732 0.54757 0.0
N158 N 0.01947 0.92391 0.53519 0.0
C159 C 0.04478 0.91276 0.55427 0.0
C160 C 0.99518 0.90791 0.53223 0.0
C161 C 0.02139 0.86824 0.56985 0.0
C162 C 0.99572 0.87993 0.54971 0.0
C163 C 0.04637 0.88461 0.57225 0.0
H164 H 0.07427 0.85224 0.60625 0.0
N165 N 0.06663 0.95721 0.53941 0.0
C166 C 0.06908 0.92982 0.5563 0.0
C167 C 0.11952 0.93666 0.57779 0.0
C168 C 0.0955 0.91897 0.57632 0.0
C169 C 0.09032 0.97406 0.53961 0.0
C170 C 0.11695 0.96422 0.55911 0.0
O171 O 0.98877 0.04074 0.48844 0.0
O172 O 0.98087 0.99517 0.47819 0.0
O173 O 0.04503 0.97257 0.46484 0.0
O174 O 0.01216 0.94095 0.47097 0.0
O175 O 0.97183 0.9902 0.55877 0.0
O176 O 0.97345 0.97136 0.50984 0.0
O177 O 0.02495 0.96561 0.56445 0.0
O178 O 0.02801 0.01176 0.57543 0.0
O179 O 0.96824 0.03902 0.59013 0.0
O180 O 0.99844 0.07086 0.5724 0.0
O181 O 0.0411 0.01455 0.4969 0.0
O182 O 0.0355 0.03739 0.54229 0.0
C183 C 0.97978 0.02275 0.46753 0.0
C184 C 0.96349 0.97145 0.53835 0.0
C185 C 0.05208 0.92794 0.44753 0.0
C186 C 0.08006 0.91026 0.40894 0.0
C187 C 0.07586 0.88115 0.46309 0.0
C188 C 0.05859 0.90238 0.47051 0.0
C189 C 0.08645 0.88495 0.43245 0.0
C190 C 0.06311 0.9319 0.41685 0.0
C191 C 0.03283 0.95 0.45447 0.0
C192 C 0.09714 0.89093 0.59424 0.0
C193 C 0.07266 0.87381 0.59221 0.0
H194 H 0.1402 0.92912 0.59287 0.0
C195 C 0.03182 0.98414 0.58542 0.0
C196 C 0.0481 0.03451 0.51617 0.0
C197 C 0.97912 0.07902 0.62208 0.0
C198 C 0.95732 0.0874 0.67049 0.0
C199 C 0.9932 0.11981 0.65059 0.0
C200 C 0.99576 0.10358 0.62521 0.0
C201 C 0.974 0.11187 0.67305 0.0
C202 C 0.95997 0.07084 0.6451 0.0
C203 C 0.98178 0.06259 0.59448 0.0
H204 H 0.08076 0.86154 0.48099 0.0
H205 H 0.05 0.89851 0.49392 0.0
H206 H 0.09969 0.86811 0.42713 0.0
H207 H 0.05779 0.95139 0.39875 0.0
H208 H 0.00606 0.13869 0.65274 0.0
H209 H 0.01072 0.11036 0.60796 0.0
H210 H 0.97213 0.12481 0.69251 0.0
H211 H 0.94694 0.05203 0.64305 0.0
C212 C 0.58625 0.53904 0.03138 0.0
C213 C 0.58035 0.59066 0.01851 0.0
C214 C 0.5694 0.56355 0.02918 0.0
C215 C 0.60801 0.59269 0.00949 0.0
C216 C 0.61397 0.54101 0.02217 0.0
C217 C 0.6247 0.56795 0.01116 0.0
N218 N 0.57515 0.51319 0.04151 0.0
C219 C 0.59077 0.48857 0.04381 0.0
C220 C 0.62997 0.51579 0.02399 0.0
C221 C 0.61833 0.48946 0.03494 0.0
Gd222 Gd 0.45975 0.49311 0.9893 0.0
Gd223 Gd 0.52901 0.51368 0.05615 0.0
N224 N 0.54254 0.56089 0.03783 0.0
C225 C 0.56342 0.615 0.01782 0.0
C226 C 0.52687 0.58474 0.03928 0.0
C227 C 0.53672 0.61202 0.02863 0.0
H228 H 0.5073 0.58322 0.04976 0.0
H229 H 0.52396 0.63078 0.02947 0.0
H230 H 0.48303 0.42546 0.98706 0.0
H231 H 0.58218 0.4683 0.05313 0.0
H232 H 0.4719 0.37638 0.00954 0.0
H233 H 0.57109 0.6362 0.00995 0.0
H234 H 0.61683 0.61332 1.00152 0.0
H235 H 0.40555 0.53403 0.99986 0.0
H236 H 0.65133 0.51642 0.0171 0.0
H237 H 0.63063 0.46985 0.03676 0.0
H238 H 0.3859 0.38604 0.05644 0.0
H239 H 0.64595 0.5699 0.004 0.0
H240 H 0.34457 0.48006 0.0456 0.0
H241 H 0.35977 0.52831 0.02267 0.0
N242 N 0.41595 0.48963 0.00997 0.0
C243 C 0.40766 0.46283 0.02151 0.0
C244 C 0.39904 0.51297 0.00992 0.0
C245 C 0.36456 0.48245 0.03547 0.0
C246 C 0.37312 0.50975 0.0227 0.0
C247 C 0.38187 0.45856 0.03499 0.0
H248 H 0.35471 0.42705 0.05851 0.0
N249 N 0.45051 0.44462 0.00775 0.0
C250 C 0.42569 0.43976 0.02092 0.0
C251 C 0.43522 0.38879 0.02998 0.0
C252 C 0.41771 0.41173 0.03298 0.0
C253 C 0.46602 0.42214 1.00193 0.0
C254 C 0.45913 0.39402 0.01373 0.0
O255 O 0.53366 0.5204 1.0004 0.0
O256 O 0.48694 0.53066 0.97335 0.0
O257 O 0.45385 0.47731 0.94023 0.0
O258 O 0.42472 0.51014 0.94907 0.0
O259 O 0.48616 0.53701 0.05359 0.0
O260 O 0.46273 0.5389 0.99792 0.0
O261 O 0.45579 0.48932 0.04525 0.0
O262 O 0.50192 0.47561 0.06908 0.0
O263 O 0.53083 0.52995 0.10469 0.0
O264 O 0.56149 0.49696 0.09924 0.0
O265 O 0.50315 0.47167 0.98967 0.0
O266 O 0.52579 0.46827 0.04567 0.0
C267 C 0.51487 0.53063 0.97317 0.0
C268 C 0.46642 0.54813 0.02744 0.0
C269 C 0.41487 0.49594 0.89316 0.0
C270 C 0.40529 0.4796 0.83785 0.0
C271 C 0.37867 0.52052 0.84757 0.0
C272 C 0.39376 0.51774 0.88085 0.0
C273 C 0.38443 0.50169 0.82613 0.0
C274 C 0.4204 0.47669 0.87158 0.0
C275 C 0.43155 0.49432 0.92799 0.0
C276 C 0.39221 0.40741 0.04684 0.0
C277 C 0.37436 0.43075 0.04786 0.0
H278 H 0.42982 0.36694 0.03885 0.0
C279 C 0.47466 0.47766 0.07155 0.0
C280 C 0.52287 0.46014 0.01553 0.0
C281 C 0.56676 0.51082 0.15494 0.0
C282 C 0.5803 0.53165 0.20677 0.0
C283 C 0.59703 0.48371 0.20447 0.0
C284 C 0.58259 0.48583 0.17097 0.0
C285 C 0.59613 0.50655 0.22223 0.0
C286 C 0.56518 0.53358 0.17322 0.0
C287 C 0.5527 0.5129 0.11905 0.0
H288 H 0.36249 0.53741 0.83832 0.0
H289 H 0.38907 0.53289 0.89682 0.0
H290 H 0.3723 0.50419 0.80043 0.0
H291 H 0.4367 0.45986 0.88071 0.0
H292 H 0.60915 0.46438 0.21663 0.0
H293 H 0.58387 0.4679 0.15756 0.0
H294 H 0.60763 0.50458 0.2482 0.0
H295 H 0.55308 0.55299 0.16114 0.0
H296 H 0.25578 0.21175 0.52033 0.0
H297 H 0.21432 0.181 0.52547 0.0
H298 H 0.21701 0.15837 0.42656 0.0
H299 H 0.25806 0.18986 0.42072 0.0
H300 H 0.1615 0.16676 0.43553 0.0
H301 H 0.24551 0.11333 0.49738 0.0
H302 H 0.29058 0.10453 0.53933 0.0
H303 H 0.2439 0.11312 0.62015 0.0
H304 H 0.19859 0.12238 0.5786 0.0
H305 H 0.07453 0.04253 0.45975 0.0
H306 H 0.11422 0.07464 0.449 0.0
H307 H 0.11571 0.10218 0.54623 0.0
H308 H 0.0763 0.0702 0.55726 0.0
H309 H 0.16973 0.09 0.53597 0.0
H310 H 0.086 0.14452 0.47418 0.0
H311 H 0.04096 0.15398 0.43227 0.0
H312 H 0.08684 0.14313 0.35156 0.0
H313 H 0.13217 0.13327 0.39302 0.0
C314 C 0.24728 0.20067 0.49936 0.0
C315 C 0.26037 0.20323 0.47015 0.0
C316 C 0.22373 0.18284 0.5025 0.0
C317 C 0.21283 0.16702 0.47664 0.0
C318 C 0.22516 0.17025 0.44693 0.0
C319 C 0.24876 0.18809 0.44375 0.0
C320 C 0.18917 0.14649 0.48116 0.0
C321 C 0.16344 0.14971 0.45721 0.0
C322 C 0.19151 0.12451 0.50974 0.0
C323 C 0.2187 0.11881 0.53483 0.0
C324 C 0.24489 0.11356 0.52407 0.0
C325 C 0.27048 0.10845 0.54778 0.0
C326 C 0.27012 0.10834 0.58237 0.0
C327 C 0.24415 0.11325 0.59334 0.0
C328 C 0.21851 0.11841 0.56972 0.0
C329 C 0.08333 0.0554 0.47886 0.0
C330 C 0.07219 0.05378 0.50935 0.0
C331 C 0.10592 0.07384 0.4726 0.0
C332 C 0.11781 0.09095 0.49673 0.0
C333 C 0.10688 0.08919 0.52726 0.0
C334 C 0.08425 0.07092 0.53345 0.0
C335 C 0.14193 0.11046 0.49058 0.0
C336 C 0.1678 0.10698 0.5142 0.0
C337 C 0.13968 0.13215 0.46171 0.0
C338 C 0.11243 0.13784 0.43676 0.0
C339 C 0.08645 0.14385 0.44755 0.0
C340 C 0.06087 0.14931 0.42389 0.0
C341 C 0.06102 0.149 0.38935 0.0
C342 C 0.08676 0.14327 0.37836 0.0
C343 C 0.11241 0.13777 0.40191 0.0
H344 H 0.0412 0.15337 0.37112 0.0
H345 H 0.28995 0.10438 0.60069 0.0
H346 H 0.3639 0.79214 0.05658 0.0
H347 H 0.38992 0.74734 0.05789 0.0
H348 H 0.30904 0.70641 0.02961 0.0
H349 H 0.28279 0.75127 0.0283 0.0
H350 H 0.34612 0.67077 0.0769 0.0
H351 H 0.34904 0.73069 0.96981 0.0
H352 H 0.35831 0.77499 0.93243 0.0
H353 H 0.44829 0.76877 0.97735 0.0
H354 H 0.43947 0.72463 0.01536 0.0
H355 H 0.43216 0.58345 0.97627 0.0
H356 H 0.40337 0.62486 0.98086 0.0
H357 H 0.43245 0.61176 0.08965 0.0
H358 H 0.46093 0.56972 0.0854 0.0
H359 H 0.41948 0.67368 1.00116 0.0
H360 H 0.37855 0.63497 0.12766 0.0
H361 H 0.36689 0.58975 0.16168 0.0
H362 H 0.34785 0.55139 0.07104 0.0
H363 H 0.3591 0.59645 0.0364 0.0
C364 C 0.35163 0.7736 0.05068 0.0
C365 C 0.3213 0.77534 0.04193 0.0
C366 C 0.36653 0.74799 0.05154 0.0
C367 C 0.35145 0.72365 0.04335 0.0
C368 C 0.3211 0.72494 0.03602 0.0
C369 C 0.30614 0.75057 0.0353 0.0
C370 C 0.36748 0.6974 0.04061 0.0
C371 C 0.36221 0.67138 0.06041 0.0
C372 C 0.38812 0.6981 0.01866 0.0
C373 C 0.39353 0.72451 0.99564 0.0
C374 C 0.37076 0.73888 0.97188 0.0
C375 C 0.37594 0.76395 0.95056 0.0
C376 C 0.40386 0.77473 0.95257 0.0
C377 C 0.42667 0.76042 0.97585 0.0
C378 C 0.4216 0.73537 0.99727 0.0
C379 C 0.43235 0.5892 1.00126 0.0
C380 C 0.44885 0.57321 0.0305 0.0
C381 C 0.41594 0.61299 0.0038 0.0
C382 C 0.41559 0.62134 0.03559 0.0
C383 C 0.43208 0.6055 0.06488 0.0
C384 C 0.44848 0.58157 0.06238 0.0
C385 C 0.39842 0.64703 0.03775 0.0
C386 C 0.4035 0.67301 0.0178 0.0
C387 C 0.37726 0.64612 0.05907 0.0
C388 C 0.36995 0.61903 0.07951 0.0
C389 C 0.37177 0.61692 0.11497 0.0
C390 C 0.36527 0.5913 0.13436 0.0
C391 C 0.35676 0.56768 0.11853 0.0
C392 C 0.35461 0.56966 0.08326 0.0
C393 C 0.36107 0.59523 0.06375 0.0
H394 H 0.35177 0.54786 0.13359 0.0
H395 H 0.40783 0.79413 0.93604 0.0
H396 H 0.80237 0.76495 0.63378 0.0
H397 H 0.83642 0.8036 0.62644 0.0
H398 H 0.77649 0.84749 0.5413 0.0
H399 H 0.74138 0.80985 0.54954 0.0
H400 H 0.8366 0.83659 0.53037 0.0
H401 H 0.78338 0.8763 0.60547 0.0
H402 H 0.76271 0.87525 0.65792 0.0
H403 H 0.84753 0.86126 0.71833 0.0
H404 H 0.86866 0.86179 0.66624 0.0
H405 H 0.91573 0.96057 0.49464 0.0
H406 H 0.87737 0.92721 0.50612 0.0
H407 H 0.92178 0.90303 0.60971 0.0
H408 H 0.95902 0.93824 0.59873 0.0
H409 H 0.86866 0.90342 0.61181 0.0
H410 H 0.92297 0.8612 0.54137 0.0
H411 H 0.94632 0.85905 0.49133 0.0
H412 H 0.86385 0.87258 0.42553 0.0
H413 H 0.84009 0.87519 0.47508 0.0
C414 C 0.79591 0.78311 0.61404 0.0
C415 C 0.76893 0.78403 0.59222 0.0
C416 C 0.81561 0.8051 0.60974 0.0
C417 C 0.80896 0.8283 0.58329 0.0
C418 C 0.78204 0.82964 0.56177 0.0
C419 C 0.76208 0.80793 0.56642 0.0
C420 C 0.83072 0.85042 0.57709 0.0
C421 C 0.84338 0.85152 0.54786 0.0
C422 C 0.84024 0.86905 0.60065 0.0
C423 C 0.82756 0.86878 0.63197 0.0
C424 C 0.79759 0.87271 0.62995 0.0
C425 C 0.7858 0.87228 0.65962 0.0
C426 C 0.80379 0.86811 0.69144 0.0
C427 C 0.83362 0.86444 0.69366 0.0
C428 C 0.84551 0.86483 0.66408 0.0
C429 C 0.91712 0.94816 0.51987 0.0
C430 C 0.94024 0.95171 0.5458 0.0
C431 C 0.89535 0.92892 0.52639 0.0
C432 C 0.89697 0.91184 0.55855 0.0
C433 C 0.91997 0.9158 0.58465 0.0
C434 C 0.94127 0.93583 0.57842 0.0
C435 C 0.87478 0.88984 0.56482 0.0
C436 C 0.86203 0.8886 0.59416 0.0
C437 C 0.86564 0.87054 0.54172 0.0
C438 C 0.87982 0.86867 0.5119 0.0
C439 C 0.90987 0.8639 0.51619 0.0
C440 C 0.92317 0.86259 0.48794 0.0
C441 C 0.90659 0.86577 0.45529 0.0
C442 C 0.87667 0.87016 0.45083 0.0
C443 C 0.86327 0.87153 0.47899 0.0
H444 H 0.91693 0.86476 0.43346 0.0
H445 H 0.79462 0.86779 0.71438 0.0
H446 H 0.69011 0.26123 0.95518 0.0
H447 H 0.64899 0.29415 0.95119 0.0
H448 H 0.67235 0.29841 0.05843 0.0
H449 H 0.71321 0.26547 0.06259 0.0
H450 H 0.61289 0.29468 0.03759 0.0
H451 H 0.69354 0.34923 1.00173 0.0
H452 H 0.73084 0.36091 0.96569 0.0
H453 H 0.66502 0.37563 0.8764 0.0
H454 H 0.62734 0.36364 0.91192 0.0
H455 H 0.55481 0.42239 0.06614 0.0
H456 H 0.58499 0.38251 0.06039 0.0
H457 H 0.5599 0.40034 0.95102 0.0
H458 H 0.53069 0.44152 0.95655 0.0
H459 H 0.61498 0.38967 0.96583 0.0
H460 H 0.53356 0.34112 1.00134 0.0
H461 H 0.49571 0.32903 0.03653 0.0
H462 H 0.56077 0.30235 0.12439 0.0
H463 H 0.59903 0.3144 0.08982 0.0
C464 C 0.68615 0.26886 0.97797 0.0
C465 C 0.70497 0.26101 0.00914 0.0
C466 C 0.66279 0.28774 0.97563 0.0
C467 C 0.65781 0.2989 0.00446 0.0
C468 C 0.67583 0.29008 0.03588 0.0
C469 C 0.69927 0.27144 0.03817 0.0
C470 C 0.63494 0.32102 1.00186 0.0
C471 C 0.61332 0.3155 0.022 0.0
C472 C 0.63504 0.34783 0.9807 0.0
C473 C 0.65767 0.35521 0.95942 0.0
C474 C 0.68705 0.35473 0.97439 0.0
C475 C 0.70825 0.36145 0.95406 0.0
C476 C 0.70031 0.36892 0.91876 0.0
C477 C 0.67114 0.36978 0.90373 0.0
C478 C 0.64986 0.36304 0.92395 0.0
C479 C 0.55573 0.41797 0.0408 0.0
C480 C 0.54043 0.43528 0.01178 0.0
C481 C 0.57277 0.39486 0.03757 0.0
C482 C 0.57432 0.38797 0.0053 0.0
C483 C 0.55894 0.40511 0.97622 0.0
C484 C 0.54218 0.42858 0.97941 0.0
C485 C 0.59308 0.36365 1.00215 0.0
C486 C 0.61403 0.36872 0.98096 0.0
C487 C 0.59216 0.33631 0.02213 0.0
C488 C 0.56919 0.32882 0.04299 0.0
C489 C 0.53981 0.33282 0.0282 0.0
C490 C 0.51828 0.32596 0.04804 0.0
C491 C 0.52583 0.31505 0.08268 0.0
C492 C 0.55494 0.31083 0.09755 0.0
C493 C 0.57657 0.31758 0.07783 0.0
H494 H 0.50913 0.3098 0.09799 0.0
H495 H 0.71676 0.37412 0.90307 0.0
H496 H 0.21636 0.94394 0.15161 0.0
H497 H 0.19216 0.95015 0.19917 0.0
H498 H 0.14753 0.87114 0.19006 0.0
H499 H 0.17161 0.86484 0.14237 0.0
H500 H 0.11155 0.91141 0.20011 0.0
H501 H 0.20689 0.87465 0.25184 0.0
H502 H 0.26023 0.87383 0.26159 0.0
H503 H 0.26083 0.95632 0.29313 0.0
H504 H 0.20745 0.9578 0.28311 0.0
H505 H 0.07587 0.87208 0.36463 0.0
H506 H 0.09578 0.87574 0.31192 0.0
H507 H 0.1283 0.95912 0.32612 0.0
H508 H 0.10825 0.95557 0.3791 0.0
H509 H 0.16963 0.92188 0.31225 0.0
H510 H 0.07359 0.95607 0.26525 0.0
H511 H 0.02031 0.95559 0.25644 0.0
H512 H 0.02101 0.87658 0.21698 0.0
H513 H 0.07435 0.87635 0.22603 0.0
C514 C 0.20152 0.92779 0.15987 0.0
C515 C 0.19606 0.90378 0.14338 0.0
C516 C 0.18766 0.93141 0.18701 0.0
C517 C 0.16829 0.91094 0.19847 0.0
C518 C 0.16236 0.88723 0.18163 0.0
C519 C 0.17612 0.88367 0.15436 0.0
C520 C 0.15455 0.91393 0.22835 0.0
C521 C 0.12426 0.91344 0.2247 0.0
C522 C 0.17109 0.91736 0.26023 0.0
C523 C 0.20318 0.91647 0.26636 0.0
C524 C 0.2184 0.89272 0.26059 0.0
C525 C 0.24864 0.89211 0.26621 0.0
C526 C 0.26391 0.91505 0.27787 0.0
C527 C 0.24897 0.9386 0.28403 0.0
C528 C 0.21872 0.93932 0.27841 0.0
C529 C 0.08716 0.89125 0.35643 0.0
C530 C 0.09064 0.9135 0.37597 0.0
C531 C 0.09835 0.89339 0.32623 0.0
C532 C 0.11337 0.91776 0.31505 0.0
C533 C 0.11668 0.94018 0.33431 0.0
C534 C 0.10514 0.93819 0.3644 0.0
C535 C 0.12671 0.91897 0.28408 0.0
C536 C 0.15692 0.92019 0.28754 0.0
C537 C 0.11011 0.91604 0.25211 0.0
C538 C 0.07801 0.91608 0.24659 0.0
C539 C 0.06241 0.93846 0.25497 0.0
C540 C 0.03219 0.93834 0.24987 0.0
C541 C 0.01729 0.91604 0.23622 0.0
C542 C 0.03258 0.89384 0.22757 0.0
C543 C 0.06281 0.89383 0.23265 0.0
H544 H 0.99389 0.91599 0.23229 0.0
H545 H 0.28732 0.91454 0.28222 0.0
H546 H 0.64202 0.5963 0.71981 0.0
H547 H 0.61631 0.57917 0.76647 0.0
H548 H 0.57842 0.6632 0.75837 0.0
H549 H 0.60353 0.68051 0.71078 0.0
H550 H 0.60009 0.63975 0.82479 0.0
H551 H 0.53721 0.61221 0.72962 0.0
H552 H 0.52392 0.59006 0.67789 0.0
H553 H 0.55237 0.50789 0.73499 0.0
H554 H 0.56616 0.52957 0.78701 0.0
H555 H 0.48281 0.55622 0.91282 0.0
H556 H 0.50047 0.57967 0.86191 0.0
H557 H 0.58843 0.5609 0.91239 0.0
H558 H 0.57105 0.53646 0.96278 0.0
H559 H 0.53564 0.55638 0.82213 0.0
H560 H 0.62733 0.62208 0.88743 0.0
H561 H 0.63794 0.64669 0.93755 0.0
H562 H 0.54705 0.65586 0.93809 0.0
H563 H 0.53586 0.63182 0.88762 0.0
C564 C 0.62785 0.61112 0.72743 0.0
C565 C 0.62467 0.63978 0.71117 0.0
C566 C 0.61326 0.60127 0.75429 0.0
C567 C 0.59521 0.61982 0.76566 0.0
C568 C 0.59223 0.64852 0.74994 0.0
C569 C 0.60671 0.6584 0.72283 0.0
C570 C 0.58 0.60916 0.79443 0.0
C571 C 0.58593 0.62158 0.82417 0.0
C572 C 0.56116 0.58572 0.79342 0.0
C573 C 0.55294 0.57258 0.76217 0.0
C574 C 0.54085 0.58945 0.7311 0.0
C575 C 0.53317 0.57696 0.70174 0.0
C576 C 0.53732 0.54758 0.70316 0.0
C577 C 0.54913 0.53062 0.73395 0.0
C578 C 0.55686 0.543 0.76339 0.0
C579 C 0.50594 0.55708 0.91319 0.0
C580 C 0.52555 0.54489 0.9423 0.0
C581 C 0.51595 0.57046 0.88402 0.0
C582 C 0.54572 0.57231 0.88357 0.0
C583 C 0.56535 0.56008 0.91242 0.0
C584 C 0.55536 0.54626 0.94136 0.0
C585 C 0.5564 0.58648 0.85271 0.0
C586 C 0.54969 0.57464 0.82264 0.0
C587 C 0.57427 0.61061 0.85332 0.0
C588 C 0.58078 0.62493 0.88386 0.0
C589 C 0.6096 0.62944 0.89816 0.0
C590 C 0.61571 0.64335 0.92659 0.0
C591 C 0.59318 0.65293 0.94088 0.0
C592 C 0.56448 0.64847 0.92693 0.0
C593 C 0.55824 0.63465 0.89845 0.0
H594 H 0.59796 0.66374 0.96285 0.0
H595 H 0.53135 0.53795 0.68041 0.0
H596 H 0.8535 0.08149 0.15205 0.0
H597 H 0.87609 0.0605 0.21023 0.0
H598 H 0.88531 0.14481 0.23784 0.0
H599 H 0.86234 0.1658 0.18008 0.0
H600 H 0.93743 0.107 0.25502 0.0
H601 H 0.83598 0.10931 0.26556 0.0
H602 H 0.78455 0.09819 0.24957 0.0
H603 H 0.80581 0.00838 0.2703 0.0
H604 H 0.85746 0.019 0.28593 0.0
H605 H 0.98068 0.07718 0.43303 0.0
H606 H 0.95634 0.09574 0.37541 0.0
H607 H 0.92601 0.01124 0.36278 0.0
H608 H 0.9486 0.99303 0.42134 0.0
H609 H 0.88466 0.04743 0.33635 0.0
H610 H 0.98415 0.04212 0.32806 0.0
H611 H 0.03647 0.05019 0.34182 0.0
H612 H 0.02138 0.14074 0.31312 0.0
H613 H 0.96886 0.13331 0.30019 0.0
C614 C 0.86025 0.09545 0.17065 0.0
C615 C 0.85607 0.12521 0.16174 0.0
C616 C 0.87306 0.08348 0.20377 0.0
C617 C 0.88229 0.10116 0.22819 0.0
C618 C 0.87828 0.13086 0.21928 0.0
C619 C 0.86502 0.14278 0.18643 0.0
C620 C 0.89657 0.08881 0.263 0.0
C621 C 0.92591 0.09423 0.27305 0.0
C622 C 0.88166 0.07133 0.28583 0.0
C623 C 0.85062 0.06496 0.27652 0.0
C624 C 0.82973 0.0872 0.26637 0.0
C625 C 0.80053 0.08099 0.25745 0.0
C626 C 0.79193 0.0526 0.25881 0.0
C627 C 0.81251 0.03036 0.2692 0.0
C628 C 0.84174 0.03646 0.27811 0.0
C629 C 0.96835 0.06268 0.41826 0.0
C630 C 0.96614 0.03377 0.43203 0.0
C631 C 0.95481 0.07321 0.38506 0.0
C632 C 0.9396 0.05483 0.36449 0.0
C633 C 0.93756 0.02588 0.37812 0.0
C634 C 0.95067 0.01545 0.41156 0.0
C635 C 0.92571 0.06581 0.32885 0.0
C636 C 0.89639 0.0601 0.31849 0.0
C637 C 0.94087 0.08255 0.30545 0.0
C638 C 0.97248 0.08716 0.3135 0.0
C639 C 0.99193 0.06379 0.32507 0.0
C640 C 0.02164 0.06825 0.33275 0.0
C641 C 0.03223 0.09597 0.32854 0.0
C642 C 0.01313 0.11929 0.31659 0.0
C643 C 0.98338 0.11496 0.30912 0.0
H644 H 0.05525 0.09936 0.33438 0.0
H645 H 0.76931 0.04783 0.25191 0.0
H646 H 0.38523 0.29141 0.63525 0.0
H647 H 0.39386 0.316 0.68478 0.0
H648 H 0.41106 0.3938 0.62059 0.0
H649 H 0.4038 0.36902 0.57116 0.0
H650 H 0.44856 0.38691 0.67894 0.0
H651 H 0.34519 0.38237 0.64693 0.0
H652 H 0.29868 0.3586 0.63363 0.0
H653 H 0.31287 0.30877 0.73382 0.0
H654 H 0.35968 0.332 0.74756 0.0
H655 H 0.4156 0.49337 0.77292 0.0
H656 H 0.41877 0.46104 0.73197 0.0
H657 H 0.40989 0.38866 0.80882 0.0
H658 H 0.40668 0.42111 0.85004 0.0
H659 H 0.37129 0.38863 0.74873 0.0
H660 H 0.4729 0.39759 0.78225 0.0
H661 H 0.51845 0.42299 0.79509 0.0
H662 H 0.50675 0.46636 0.69173 0.0
H663 H 0.4609 0.44144 0.67833 0.0
C664 C 0.39123 0.31365 0.63168 0.0
C665 C 0.39366 0.32825 0.59909 0.0
C666 C 0.3959 0.32776 0.66002 0.0
C667 C 0.40274 0.35686 0.65638 0.0
C668 C 0.40572 0.37136 0.62404 0.0
C669 C 0.40121 0.35724 0.59571 0.0
C670 C 0.40607 0.37245 0.68603 0.0
C671 C 0.43157 0.38747 0.69403 0.0
C672 C 0.38423 0.37261 0.70632 0.0
C673 C 0.35607 0.35868 0.69813 0.0
C674 C 0.33849 0.36618 0.66603 0.0
C675 C 0.31206 0.35284 0.65843 0.0
C676 C 0.30287 0.33212 0.68283 0.0
C677 C 0.32005 0.32477 0.71492 0.0
C678 C 0.34652 0.33803 0.72264 0.0
C679 C 0.41468 0.47053 0.78118 0.0
C680 C 0.41077 0.45971 0.81457 0.0
C681 C 0.41666 0.45208 0.75784 0.0
C682 C 0.41467 0.42244 0.76738 0.0
C683 C 0.41155 0.41148 0.801 0.0
C684 C 0.40988 0.42997 0.82453 0.0
C685 C 0.41361 0.40334 0.74137 0.0
C686 C 0.38846 0.38773 0.73395 0.0
C687 C 0.43568 0.40283 0.72152 0.0
C688 C 0.46333 0.41777 0.72935 0.0
C689 C 0.47992 0.41269 0.7623 0.0
C690 C 0.50582 0.42697 0.76967 0.0
C691 C 0.51546 0.4463 0.74425 0.0
C692 C 0.49925 0.45136 0.71139 0.0
C693 C 0.47332 0.43712 0.70387 0.0
H694 H 0.53554 0.45728 0.75002 0.0
H695 H 0.2824 0.32182 0.6769 0.0
H696 H 0.67646 0.66243 0.43722 0.0
H697 H 0.65417 0.64958 0.3828 0.0
H698 H 0.57324 0.63564 0.41949 0.0
H699 H 0.59596 0.64714 0.47494 0.0
H700 H 0.58393 0.59315 0.38977 0.0
H701 H 0.5818 0.6931 0.35635 0.0
H702 H 0.59936 0.74247 0.351 0.0
H703 H 0.66321 0.71998 0.29446 0.0
H704 H 0.64634 0.67034 0.29988 0.0
H705 H 0.53406 0.55578 0.22568 0.0
H706 H 0.53601 0.58829 0.26794 0.0
H707 H 0.62851 0.59337 0.27373 0.0
H708 H 0.62666 0.56051 0.23231 0.0
H709 H 0.5993 0.64665 0.2783 0.0
H710 H 0.60557 0.54397 0.32526 0.0
H711 H 0.58493 0.49584 0.32728 0.0
H712 H 0.50844 0.52663 0.35654 0.0
H713 H 0.52843 0.57512 0.35398 0.0
C714 C 0.65392 0.6566 0.43383 0.0
C715 C 0.6381 0.65559 0.46063 0.0
C716 C 0.64103 0.64967 0.40242 0.0
C717 C 0.61184 0.64201 0.39674 0.0
C718 C 0.59574 0.64162 0.42316 0.0
C719 C 0.60871 0.64841 0.45478 0.0
C720 C 0.59915 0.63236 0.36411 0.0
C721 C 0.58661 0.60528 0.36537 0.0
C722 C 0.60255 0.64804 0.33209 0.0
C723 C 0.61286 0.67791 0.32868 0.0
C724 C 0.59972 0.69861 0.34297 0.0
C725 C 0.60953 0.72666 0.33989 0.0
C726 C 0.6324 0.73435 0.32243 0.0
C727 C 0.64548 0.71399 0.30796 0.0
C728 C 0.63576 0.6859 0.31098 0.0
C729 C 0.55462 0.56449 0.2354 0.0
C730 C 0.58026 0.55557 0.22619 0.0
C731 C 0.55572 0.58302 0.25942 0.0
C732 C 0.58244 0.59307 0.274 0.0
C733 C 0.6077 0.58594 0.26265 0.0
C734 C 0.60666 0.56711 0.23918 0.0
C735 C 0.58511 0.60739 0.30444 0.0
C736 C 0.59588 0.63513 0.30272 0.0
C737 C 0.5797 0.59258 0.33596 0.0
C738 C 0.56835 0.56318 0.33911 0.0
C739 C 0.58431 0.54048 0.33201 0.0
C740 C 0.57272 0.51316 0.33321 0.0
C741 C 0.54535 0.5082 0.34195 0.0
C742 C 0.5296 0.53052 0.34971 0.0
C743 C 0.54105 0.55793 0.34838 0.0
H744 H 0.53638 0.48705 0.34276 0.0
H745 H 0.63997 0.75608 0.32008 0.0
H746 H 0.84802 0.0887 0.93986 0.0
H747 H 0.86556 0.06641 0.89618 0.0
H748 H 0.82021 0.13109 0.81803 0.0
H749 H 0.802 0.15307 0.86149 0.0
H750 H 0.82048 0.07825 0.79656 0.0
H751 H 0.88869 0.14108 0.85184 0.0
H752 H 0.91863 0.15702 0.90164 0.0
H753 H 0.96353 0.07569 0.92678 0.0
H754 H 0.93351 0.05914 0.87736 0.0
H755 H 0.90493 0.11195 0.66746 0.0
H756 H 0.87536 0.10684 0.71246 0.0
H757 H 0.93531 0.04232 0.77312 0.0
H758 H 0.96507 0.04782 0.72793 0.0
H759 H 0.92724 0.08396 0.80765 0.0
H760 H 0.86532 0.02516 0.74424 0.0
H761 H 0.83568 0.0102 0.69368 0.0
H762 H 0.77933 0.08342 0.68264 0.0
H763 H 0.80888 0.09909 0.73284 0.0
C764 C 0.84103 0.09766 0.91332 0.0
C765 C 0.82393 0.12289 0.90414 0.0
C766 C 0.85122 0.08498 0.8884 0.0
C767 C 0.84456 0.09736 0.85392 0.0
C768 C 0.82569 0.12123 0.84449 0.0
C769 C 0.81552 0.13393 0.86938 0.0
C770 C 0.85992 0.08786 0.8282 0.0
C771 C 0.84381 0.07945 0.79887 0.0
C772 C 0.89044 0.08875 0.8317 0.0
C773 C 0.90863 0.09876 0.8612 0.0
C774 C 0.9048 0.12653 0.86815 0.0
C775 C 0.9218 0.13568 0.89628 0.0
C776 C 0.94291 0.11735 0.91743 0.0
C777 C 0.94713 0.08985 0.91042 0.0
C778 C 0.93013 0.08057 0.88237 0.0
C779 C 0.91119 0.09608 0.68999 0.0
C780 C 0.93691 0.07999 0.69432 0.0
C781 C 0.8943 0.09307 0.71564 0.0
C782 C 0.90294 0.07398 0.7461 0.0
C783 C 0.92811 0.05701 0.74976 0.0
C784 C 0.94497 0.05997 0.72398 0.0
C785 C 0.88782 0.07481 0.77546 0.0
C786 C 0.90398 0.08186 0.80552 0.0
C787 C 0.85739 0.0727 0.7725 0.0
C788 C 0.83945 0.06339 0.74226 0.0
C789 C 0.84674 0.03821 0.7309 0.0
C790 C 0.82992 0.02957 0.70232 0.0
C791 C 0.80566 0.04587 0.68493 0.0
C792 C 0.79813 0.07081 0.69614 0.0
C793 C 0.81489 0.07956 0.7247 0.0
H794 H 0.79267 0.03915 0.66281 0.0
H795 H 0.95606 0.12447 0.93919 0.0
H796 H 0.35461 0.36168 0.32681 0.0
H797 H 0.36714 0.38979 0.27509 0.0
H798 H 0.45567 0.3594 0.30565 0.0
H799 H 0.44334 0.33144 0.35728 0.0
H800 H 0.45419 0.41487 0.28279 0.0
H801 H 0.40827 0.33237 0.2437 0.0
H802 H 0.36919 0.29785 0.23524 0.0
H803 H 0.31149 0.36548 0.17918 0.0
H804 H 0.35014 0.40048 0.18772 0.0
H805 H 0.50644 0.44419 0.12652 0.0
H806 H 0.49047 0.42185 0.17877 0.0
H807 H 0.40515 0.45925 0.14159 0.0
H808 H 0.42108 0.4819 0.08917 0.0
H809 H 0.40271 0.40343 0.1678 0.0
H810 H 0.45193 0.48535 0.2032 0.0
H811 H 0.49215 0.51856 0.21219 0.0
H812 H 0.54538 0.45064 0.27535 0.0
H813 H 0.50571 0.41684 0.2662 0.0
C814 C 0.3767 0.36087 0.32238 0.0
C815 C 0.39798 0.34434 0.34621 0.0
C816 C 0.38385 0.37696 0.29282 0.0
C817 C 0.41233 0.37657 0.2863 0.0
C818 C 0.43359 0.36019 0.31016 0.0
C819 C 0.42651 0.34425 0.33973 0.0
C820 C 0.42015 0.39308 0.25467 0.0
C821 C 0.44313 0.41216 0.25763 0.0
C822 C 0.40527 0.39008 0.22183 0.0
C823 C 0.38199 0.36909 0.21671 0.0
C824 C 0.38717 0.33992 0.22983 0.0
C825 C 0.36512 0.32026 0.22497 0.0
C826 C 0.33785 0.32948 0.20678 0.0
C827 C 0.3326 0.35838 0.19333 0.0
C828 C 0.35458 0.37813 0.19816 0.0
C829 C 0.48428 0.44779 0.12943 0.0
C830 C 0.46491 0.46459 0.10345 0.0
C831 C 0.47523 0.43508 0.15944 0.0
C832 C 0.44669 0.43908 0.16427 0.0
C833 C 0.42728 0.45586 0.13841 0.0
C834 C 0.43637 0.46867 0.10837 0.0
C835 C 0.43698 0.42498 0.19591 0.0
C836 C 0.41364 0.40634 0.19296 0.0
C837 C 0.45174 0.42821 0.22875 0.0
C838 C 0.47584 0.44847 0.23378 0.0
C839 C 0.4723 0.47739 0.2187 0.0
C840 C 0.495 0.49634 0.22388 0.0
C841 C 0.52129 0.4867 0.24435 0.0
C842 C 0.52499 0.45806 0.25952 0.0
C843 C 0.50241 0.439 0.25434 0.0
H844 H 0.53874 0.5014 0.24862 0.0
H845 H 0.3208 0.31423 0.20304 0.0
H846 H 0.18322 0.87068 0.87533 0.0
H847 H 0.15228 0.88041 0.81954 0.0
H848 H 0.13533 0.96604 0.83622 0.0
H849 H 0.16464 0.95589 0.8929 0.0
H850 H 0.08796 0.94624 0.80622 0.0
H851 H 0.18617 0.95 0.78667 0.0
H852 H 0.23611 0.9322 0.79059 0.0
H853 H 0.2043 0.86222 0.73989 0.0
H854 H 0.15411 0.87941 0.73607 0.0
H855 H 0.05294 0.01638 0.63432 0.0
H856 H 0.07796 0.99973 0.69226 0.0
H857 H 0.06972 0.91238 0.67475 0.0
H858 H 0.04339 0.9287 0.61727 0.0
H859 H 0.12795 0.9298 0.70439 0.0
H860 H 0.0291 0.92955 0.7212 0.0
H861 H 0.98012 0.95032 0.71538 0.0
H862 H 0.0147 0.01743 0.76955 0.0
H863 H 0.06402 0.99726 0.77527 0.0
C864 C 0.17252 0.89143 0.86746 0.0
C865 C 0.1767 0.91256 0.88865 0.0
C866 C 0.15509 0.89709 0.83529 0.0
C867 C 0.1419 0.92417 0.82332 0.0
C868 C 0.1454 0.94503 0.84475 0.0
C869 C 0.1625 0.93929 0.87706 0.0
C870 C 0.12492 0.93104 0.78828 0.0
C871 C 0.09686 0.94285 0.784 0.0
C872 C 0.13623 0.92619 0.75917 0.0
C873 C 0.16638 0.9158 0.76145 0.0
C874 C 0.18981 0.93069 0.77661 0.0
C875 C 0.21816 0.92073 0.77877 0.0
C876 C 0.22337 0.89604 0.7656 0.0
C877 C 0.20023 0.8813 0.75015 0.0
C878 C 0.17183 0.89115 0.74796 0.0
C879 C 0.05631 0.99359 0.64269 0.0
C880 C 0.04662 0.97388 0.62074 0.0
C881 C 0.07062 0.98415 0.67585 0.0
C882 C 0.07573 0.95487 0.68763 0.0
C883 C 0.06613 0.93509 0.66595 0.0
C884 C 0.05128 0.9445 0.63298 0.0
C885 C 0.09134 0.9451 0.7226 0.0
C886 C 0.11908 0.93287 0.72677 0.0
C887 C 0.07993 0.94993 0.75152 0.0
C888 C 0.0503 0.96201 0.74842 0.0
C889 C 0.02631 0.94886 0.73163 0.0
C890 C 0.99847 0.9605 0.7284 0.0
C891 C 0.99431 0.98519 0.74205 0.0
C892 C 0.01797 0.99829 0.75899 0.0
C893 C 0.04588 0.98675 0.76227 0.0
H894 H 0.97272 0.99409 0.73959 0.0
H895 H 0.24533 0.88837 0.76728 0.0
loop_
_geom_bond_atom_site_label_1
_geom_bond_atom_site_label_2
_geom_bond_distance
_geom_bond_site_symmetry_2
_ccdc_geom_bond_type
P0 O11 1.490 . S
P0 C14 1.812 . S
P0 C20 1.803 . S
P0 C26 1.819 1_554 S
H1 C15 0.941 . S
H2 C16 0.939 . S
H3 C18 0.940 . S
H4 C19 0.940 . S
H5 C21 0.939 . S
H6 C22 0.942 . S
H7 C24 0.940 . S
H8 C25 0.939 . S
H9 C27 0.941 . S
H10 C31 0.939 . S
O11 P0 1.490 . S
H12 C28 0.939 . S
H13 C30 0.940 . S
C14 P0 1.812 . S
C14 C15 1.389 . S
C14 C19 1.391 . S
C15 H1 0.941 . S
C15 C14 1.389 . S
C15 C16 1.397 . S
C16 H2 0.939 . S
C16 C15 1.397 . S
C16 C17 1.378 . S
C17 C16 1.378 . S
C17 C18 1.378 . S
C18 H3 0.940 . S
C18 C17 1.378 . S
C18 C19 1.396 . S
C19 H4 0.940 . S
C19 C14 1.391 . S
C19 C18 1.396 . S
C20 P0 1.803 . S
C20 C21 1.378 . S
C20 C25 1.400 . S
C21 H5 0.939 . S
C21 C20 1.378 . S
C21 C22 1.361 . S
C22 H6 0.942 . S
C22 C21 1.361 . S
C22 C23 1.369 . S
C23 C22 1.369 . S
C23 C24 1.404 . S
C24 H7 0.940 . S
C24 C23 1.404 . S
C24 C25 1.389 . S
C25 H8 0.939 . S
C25 C20 1.400 . S
C25 C24 1.389 . S
C26 P0 1.819 1_556 S
C26 C27 1.391 . S
C26 C31 1.391 . S
C27 H9 0.941 . S
C27 C26 1.391 . S
C27 C28 1.396 . S
C28 H12 0.939 . S
C28 C27 1.396 . S
C28 C29 1.397 . S
C29 C28 1.397 . S
C29 C30 1.385 . S
C30 H13 0.940 . S
C30 C29 1.385 . S
C30 C31 1.388 . S
C31 H10 0.939 . S
C31 C26 1.391 . S
C31 C30 1.388 . S
P32 O43 1.490 . S
P32 C46 1.812 . S
P32 C52 1.803 . S
P32 C58 1.819 . S
H33 C47 0.941 . S
H34 C48 0.939 . S
H35 C50 0.940 . S
H36 C51 0.940 . S
H37 C53 0.939 . S
H38 C54 0.942 . S
H39 C56 0.940 . S
H40 C57 0.939 . S
H41 C59 0.941 . S
H42 C63 0.939 . S
O43 P32 1.490 . S
H44 C60 0.939 . S
H45 C62 0.940 . S
C46 P32 1.812 . S
C46 C47 1.389 . S
C46 C51 1.391 . S
C47 H33 0.941 . S
C47 C46 1.389 . S
C47 C48 1.397 . S
C48 H34 0.939 . S
C48 C47 1.397 . S
C48 C49 1.378 . S
C49 C48 1.378 . S
C49 C50 1.378 . S
C50 H35 0.940 . S
C50 C49 1.378 . S
C50 C51 1.396 . S
C51 H36 0.940 . S
C51 C46 1.391 . S
C51 C50 1.396 . S
C52 P32 1.803 . S
C52 C53 1.378 . S
C52 C57 1.400 . S
C53 H37 0.939 . S
C53 C52 1.378 . S
C53 C54 1.361 . S
C54 H38 0.942 . S
C54 C53 1.361 . S
C54 C55 1.369 . S
C55 C54 1.369 . S
C55 C56 1.404 . S
C56 H39 0.940 . S
C56 C55 1.404 . S
C56 C57 1.389 . S
C57 H40 0.939 . S
C57 C52 1.400 . S
C57 C56 1.389 . S
C58 P32 1.819 . S
C58 C59 1.391 . S
C58 C63 1.391 . S
C59 H41 0.941 . S
C59 C58 1.391 . S
C59 C60 1.396 . S
C60 H44 0.939 . S
C60 C59 1.396 . S
C60 C61 1.397 . S
C61 C60 1.397 . S
C61 C62 1.385 . S
C62 H45 0.940 . S
C62 C61 1.385 . S
C62 C63 1.388 . S
C63 H42 0.939 . S
C63 C58 1.391 . S
C63 C62 1.388 . S
P64 O75 1.490 . S
P64 C78 1.812 1_554 S
P64 C84 1.803 . S
P64 C90 1.819 . S
H65 C79 0.941 . S
H66 C80 0.939 . S
H67 C82 0.940 . S
H68 C83 0.940 1_554 S
H69 C85 0.939 . S
H70 C86 0.942 . S
H71 C88 0.940 1_556 S
H72 C89 0.941 . S
H73 C91 0.941 . S
H74 C95 0.939 . S
O75 P64 1.490 . S
H76 C92 0.939 . S
H77 C94 0.940 . S
C78 P64 1.812 1_556 S
C78 C79 1.389 . S
C78 C83 1.391 . S
C79 H65 0.941 . S
C79 C78 1.389 . S
C79 C80 1.397 . S
C80 H66 0.939 . S
C80 C79 1.397 . S
C80 C81 1.378 . S
C81 C80 1.378 . S
C81 C82 1.378 . S
C82 H67 0.940 . S
C82 C81 1.378 . S
C82 C83 1.396 . S
C83 H68 0.940 1_556 S
C83 C78 1.391 . S
C83 C82 1.396 . S
C84 P64 1.803 . S
C84 C85 1.378 . S
C84 C89 1.400 . S
C85 H69 0.939 . S
C85 C84 1.378 . S
C85 C86 1.361 . S
C86 H70 0.942 . S
C86 C85 1.361 . S
C86 C87 1.369 . S
C87 C86 1.369 . S
C87 C88 1.404 . S
C88 H71 0.940 1_554 S
C88 C87 1.404 . S
C88 C89 1.389 . S
C89 H72 0.941 . S
C89 C84 1.400 . S
C89 C88 1.389 . S
C90 P64 1.819 . S
C90 C91 1.391 . S
C90 C95 1.391 . S
C91 H73 0.941 . S
C91 C90 1.391 . S
C91 C92 1.396 . S
C92 H76 0.939 . S
C92 C91 1.396 . S
C92 C93 1.397 . S
C93 C92 1.397 . S
C93 C94 1.385 . S
C94 H77 0.940 . S
C94 C93 1.385 . S
C94 C95 1.388 . S
C95 H74 0.939 . S
C95 C90 1.391 . S
C95 C94 1.388 . S
P96 O107 1.490 . S
P96 C110 1.812 . S
P96 C116 1.803 . S
P96 C122 1.819 . S
H97 C111 0.941 . S
H98 C112 0.939 . S
H99 C114 0.940 . S
H100 C115 0.940 . S
H101 C117 0.939 . S
H102 C118 0.942 . S
H103 C120 0.940 . S
H104 C121 0.939 . S
H105 C123 0.941 . S
H106 C127 0.939 . S
O107 P96 1.490 . S
H108 C124 0.939 . S
H109 C126 0.940 . S
C110 P96 1.812 . S
C110 C111 1.389 . S
C110 C115 1.391 . S
C111 H97 0.941 . S
C111 C110 1.389 . S
C111 C112 1.397 . S
C112 H98 0.939 . S
C112 C111 1.397 . S
C112 C113 1.378 . S
C113 C112 1.378 . S
C113 C114 1.378 . S
C114 H99 0.940 . S
C114 C113 1.378 . S
C114 C115 1.396 . S
C115 H100 0.940 . S
C115 C110 1.391 . S
C115 C114 1.396 . S
C116 P96 1.803 . S
C116 C117 1.378 . S
C116 C121 1.400 . S
C117 H101 0.939 . S
C117 C116 1.378 . S
C117 C118 1.361 . S
C118 H102 0.942 . S
C118 C117 1.361 . S
C118 C119 1.369 . S
C119 C118 1.369 . S
C119 C120 1.404 . S
C120 H103 0.940 . S
C120 C119 1.404 . S
C120 C121 1.389 . S
C121 H104 0.939 . S
C121 C116 1.400 . S
C121 C120 1.389 . S
C122 P96 1.819 . S
C122 C123 1.391 . S
C122 C127 1.391 . S
C123 H105 0.941 . S
C123 C122 1.391 . S
C123 C124 1.396 . S
C124 H108 0.939 . S
C124 C123 1.396 . S
C124 C125 1.397 . S
C125 C124 1.397 . S
C125 C126 1.385 . S
C126 H109 0.940 . S
C126 C125 1.385 . S
C126 C127 1.388 . S
C127 H106 0.939 . S
C127 C122 1.391 . S
C127 C126 1.388 . S
C128 C130 1.422 . S
C128 C132 1.415 . S
C128 N134 1.369 . S
C129 C130 1.421 . S
C129 C131 1.417 . S
C129 C141 1.422 . S
C130 C128 1.422 . S
C130 C129 1.421 . S
C130 N140 1.359 . S
C131 C129 1.417 . S
C131 C133 1.329 . S
C131 H150 0.930 . S
C132 C128 1.415 . S
C132 C133 1.437 . S
C132 C136 1.413 . S
C133 C131 1.329 . S
C133 C132 1.437 . S
C133 H155 0.929 . S
N134 C128 1.369 . S
N134 C135 1.338 1_655 S
N134 Gd139 2.622 . S
C135 N134 1.338 1_455 S
C135 C137 1.378 1_455 S
C135 H147 0.929 . S
C136 C132 1.413 . S
C136 C137 1.358 . S
C136 H152 0.931 . S
C137 C135 1.378 1_655 S
C137 C136 1.358 . S
C137 H153 0.919 1_655 S
Gd138 N158 2.622 . S
Gd138 N165 2.570 . S
Gd138 O172 2.353 1_465 S
Gd138 O173 2.468 . S
Gd138 O174 2.427 . S
Gd138 O176 2.388 1_455 S
Gd138 O177 2.386 . S
Gd138 O181 2.307 1_565 S
Gd138 C191 2.805 . S
Gd139 N134 2.622 . S
Gd139 N140 2.570 . S
Gd139 O171 2.386 . S
Gd139 O175 2.307 1_545 S
Gd139 O178 2.353 1_655 S
Gd139 O179 2.468 . S
Gd139 O180 2.427 . S
Gd139 O182 2.388 1_655 S
Gd139 C203 2.805 . S
N140 C130 1.359 . S
N140 Gd139 2.570 . S
N140 C142 1.343 . S
C141 C129 1.422 . S
C141 C143 1.321 . S
C141 H149 0.931 . S
C142 N140 1.343 . S
C142 C143 1.390 . S
C142 H144 0.931 . S
C143 C141 1.321 . S
C143 C142 1.390 . S
C143 H145 0.930 . S
H144 C142 0.931 . S
H145 C143 0.930 . S
H146 C169 0.931 . S
H147 C135 0.929 . S
H148 C170 0.930 . S
H149 C141 0.931 . S
H150 C131 0.930 . S
H151 C160 0.929 1_655 S
H152 C136 0.931 . S
H153 C137 0.919 1_455 S
H154 C192 0.930 . S
H155 C133 0.929 . S
H156 C161 0.931 . S
H157 C162 0.930 1_655 S
N158 Gd138 2.622 . S
N158 C159 1.369 . S
N158 C160 1.338 . S
C159 N158 1.369 . S
C159 C163 1.415 . S
C159 C166 1.422 . S
C160 H151 0.929 1_455 S
C160 N158 1.338 . S
C160 C162 1.378 . S
C161 H156 0.931 . S
C161 C162 1.348 . S
C161 C163 1.413 . S
C162 H157 0.930 1_455 S
C162 C160 1.378 . S
C162 C161 1.348 . S
C163 C159 1.415 . S
C163 C161 1.413 . S
C163 C193 1.437 . S
H164 C193 0.929 . S
N165 Gd138 2.570 . S
N165 C166 1.359 . S
N165 C169 1.343 . S
C166 C159 1.422 . S
C166 N165 1.359 . S
C166 C168 1.421 . S
C167 C168 1.422 . S
C167 C170 1.321 . S
C167 H194 0.931 . S
C168 C166 1.421 . S
C168 C167 1.422 . S
C168 C192 1.417 . S
C169 H146 0.931 . S
C169 N165 1.343 . S
C169 C170 1.390 . S
C170 H148 0.930 . S
C170 C167 1.321 . S
C170 C169 1.390 . S
O171 Gd139 2.386 . S
O171 C183 1.265 . S
O172 Gd138 2.353 1_645 S
O172 C183 1.241 . S
O173 Gd138 2.468 . S
O173 C191 1.263 . S
O174 Gd138 2.427 . S
O174 C191 1.252 . S
O175 Gd139 2.307 1_565 S
O175 C184 1.261 . S
O176 Gd138 2.388 1_655 S
O176 C184 1.252 . S
O177 Gd138 2.386 . S
O177 C195 1.265 . S
O178 Gd139 2.353 1_455 S
O178 C195 1.242 1_545 S
O179 Gd139 2.468 . S
O179 C203 1.263 . S
O180 Gd139 2.427 . S
O180 C203 1.252 . S
O181 Gd138 2.307 1_545 S
O181 C196 1.261 . S
O182 Gd139 2.388 1_455 S
O182 C196 1.252 . S
C183 O171 1.265 . S
C183 O172 1.241 . S
C184 O175 1.261 . S
C184 O176 1.252 . S
C185 C188 1.394 . S
C185 C190 1.370 . S
C185 C191 1.500 . S
C186 C189 1.383 . S
C186 C190 1.395 . S
C187 C188 1.396 . S
C187 C189 1.365 . S
C187 H204 0.929 . S
C188 C185 1.394 . S
C188 C187 1.396 . S
C188 H205 0.930 . S
C189 C186 1.383 . S
C189 C187 1.365 . S
C189 H206 0.931 . S
C190 C185 1.370 . S
C190 C186 1.395 . S
C190 H207 0.930 . S
C191 Gd138 2.805 . S
C191 O173 1.263 . S
C191 O174 1.252 . S
C191 C185 1.500 . S
C192 H154 0.930 . S
C192 C168 1.417 . S
C192 C193 1.329 . S
C193 C163 1.437 . S
C193 H164 0.929 . S
C193 C192 1.329 . S
H194 C167 0.931 . S
C195 O177 1.265 . S
C195 O178 1.242 1_565 S
C196 O181 1.261 . S
C196 O182 1.252 . S
C197 C200 1.394 . S
C197 C202 1.370 . S
C197 C203 1.500 . S
C198 C201 1.383 . S
C198 C202 1.395 . S
C199 C200 1.396 . S
C199 C201 1.365 . S
C199 H208 0.929 . S
C200 C197 1.394 . S
C200 C199 1.396 . S
C200 H209 0.930 . S
C201 C198 1.383 . S
C201 C199 1.365 . S
C201 H210 0.931 . S
C202 C197 1.370 . S
C202 C198 1.395 . S
C202 H211 0.930 . S
C203 Gd139 2.805 . S
C203 O179 1.263 . S
C203 O180 1.252 . S
C203 C197 1.500 . S
H204 C187 0.929 . S
H205 C188 0.930 . S
H206 C189 0.931 . S
H207 C190 0.930 . S
H208 C199 0.929 . S
H209 C200 0.930 . S
H210 C201 0.931 . S
H211 C202 0.930 . S
C212 C214 1.422 . S
C212 C216 1.415 . S
C212 N218 1.369 . S
C213 C214 1.421 . S
C213 C215 1.417 . S
C213 C225 1.422 . S
C214 C212 1.422 . S
C214 C213 1.421 . S
C214 N224 1.359 . S
C215 C213 1.417 . S
C215 C217 1.329 . S
C215 H234 0.930 . S
C216 C212 1.415 . S
C216 C217 1.437 . S
C216 C220 1.413 . S
C217 C215 1.329 . S
C217 C216 1.437 . S
C217 H239 0.929 . S
N218 C212 1.369 . S
N218 C219 1.338 . S
N218 Gd223 2.622 . S
C219 N218 1.338 . S
C219 C221 1.378 . S
C219 H231 0.929 . S
C220 C216 1.413 . S
C220 C221 1.348 . S
C220 H236 0.931 . S
C221 C219 1.378 . S
C221 C220 1.348 . S
C221 H237 0.930 . S
Gd222 N242 2.622 . S
Gd222 N249 2.570 1_556 S
Gd222 O256 2.353 . S
Gd222 O257 2.468 . S
Gd222 O258 2.427 . S
Gd222 O260 2.388 . S
Gd222 O261 2.386 1_556 S
Gd222 O265 2.307 1_556 S
Gd222 C275 2.805 . S
Gd223 N218 2.622 . S
Gd223 N224 2.570 . S
Gd223 O255 2.386 1_554 S
Gd223 O259 2.307 . S
Gd223 O262 2.353 . S
Gd223 O263 2.468 . S
Gd223 O264 2.427 . S
Gd223 O266 2.388 . S
Gd223 C287 2.805 . S
N224 C214 1.359 . S
N224 Gd223 2.570 . S
N224 C226 1.343 . S
C225 C213 1.422 . S
C225 C227 1.321 . S
C225 H233 0.931 . S
C226 N224 1.343 . S
C226 C227 1.390 . S
C226 H228 0.931 . S
C227 C225 1.321 . S
C227 C226 1.390 . S
C227 H229 0.930 . S
H228 C226 0.931 . S
H229 C227 0.930 . S
H230 C253 0.931 . S
H231 C219 0.929 . S
H232 C254 0.930 . S
H233 C225 0.931 . S
H234 C215 0.930 . S
H235 C244 0.929 . S
H236 C220 0.931 . S
H237 C221 0.930 . S
H238 C276 0.930 . S
H239 C217 0.929 . S
H240 C245 0.931 . S
H241 C246 0.930 . S
N242 Gd222 2.622 . S
N242 C243 1.369 1_556 S
N242 C244 1.338 . S
C243 N242 1.369 1_554 S
C243 C247 1.415 . S
C243 C250 1.422 . S
C244 H235 0.929 . S
C244 N242 1.338 . S
C244 C246 1.378 . S
C245 H240 0.931 . S
C245 C246 1.348 1_554 S
C245 C247 1.413 . S
C246 H241 0.930 . S
C246 C244 1.378 . S
C246 C245 1.348 1_556 S
C247 C243 1.415 . S
C247 C245 1.413 . S
C247 C277 1.437 . S
H248 C277 0.929 . S
N249 Gd222 2.570 1_554 S
N249 C250 1.359 . S
N249 C253 1.343 . S
C250 C243 1.422 . S
C250 N249 1.359 . S
C250 C252 1.421 . S
C251 C252 1.422 . S
C251 C254 1.321 . S
C251 H278 0.931 . S
C252 C250 1.421 . S
C252 C251 1.422 . S
C252 C276 1.417 . S
C253 H230 0.931 . S
C253 N249 1.343 . S
C253 C254 1.390 . S
C254 H232 0.930 . S
C254 C251 1.321 . S
C254 C253 1.390 . S
O255 Gd223 2.386 1_556 S
O255 C267 1.265 . S
O256 Gd222 2.353 . S
O256 C267 1.242 . S
O257 Gd222 2.468 . S
O257 C275 1.263 . S
O258 Gd222 2.427 . S
O258 C275 1.252 . S
O259 Gd223 2.307 . S
O259 C268 1.261 . S
O260 Gd222 2.388 . S
O260 C268 1.252 1_556 S
O261 Gd222 2.386 1_554 S
O261 C279 1.265 . S
O262 Gd223 2.353 . S
O262 C279 1.242 . S
O263 Gd223 2.468 . S
O263 C287 1.263 . S
O264 Gd223 2.427 . S
O264 C287 1.252 . S
O265 Gd222 2.307 1_554 S
O265 C280 1.261 . S
O266 Gd223 2.388 . S
O266 C280 1.252 . S
C267 O255 1.265 . S
C267 O256 1.242 . S
C268 O259 1.261 . S
C268 O260 1.252 1_554 S
C269 C272 1.394 . S
C269 C274 1.370 . S
C269 C275 1.500 . S
C270 C273 1.383 . S
C270 C274 1.395 . S
C271 C272 1.396 . S
C271 C273 1.365 . S
C271 H288 0.929 . S
C272 C269 1.394 . S
C272 C271 1.396 . S
C272 H289 0.930 . S
C273 C270 1.383 . S
C273 C271 1.365 . S
C273 H290 0.931 . S
C274 C269 1.370 . S
C274 C270 1.395 . S
C274 H291 0.930 . S
C275 Gd222 2.805 . S
C275 O257 1.263 . S
C275 O258 1.252 . S
C275 C269 1.500 . S
C276 H238 0.930 . S
C276 C252 1.417 . S
C276 C277 1.329 . S
C277 C247 1.437 . S
C277 H248 0.929 . S
C277 C276 1.329 . S
H278 C251 0.931 . S
C279 O261 1.265 . S
C279 O262 1.242 . S
C280 O265 1.261 . S
C280 O266 1.252 . S
C281 C284 1.394 . S
C281 C286 1.370 . S
C281 C287 1.500 . S
C282 C285 1.383 . S
C282 C286 1.395 . S
C283 C284 1.396 . S
C283 C285 1.365 . S
C283 H292 0.929 . S
C284 C281 1.394 . S
C284 C283 1.396 . S
C284 H293 0.930 . S
C285 C282 1.383 . S
C285 C283 1.365 . S
C285 H294 0.931 . S
C286 C281 1.370 . S
C286 C282 1.395 . S
C286 H295 0.930 . S
C287 Gd223 2.805 . S
C287 O263 1.263 . S
C287 O264 1.252 . S
C287 C281 1.500 . S
H288 C271 0.929 . S
H289 C272 0.930 . S
H290 C273 0.931 . S
H291 C274 0.930 . S
H292 C283 0.929 . S
H293 C284 0.930 . S
H294 C285 0.931 . S
H295 C286 0.930 . S
H296 C314 0.951 . S
H297 C316 0.951 . S
H298 C318 0.950 . S
H299 C319 0.950 . S
H300 C321 0.950 . S
H301 C324 0.950 . S
H302 C325 0.950 . S
H303 C327 0.950 . S
H304 C328 0.950 . S
H305 C329 0.951 . S
H306 C331 0.951 . S
H307 C333 0.950 . S
H308 C334 0.950 . S
H309 C336 0.950 . S
H310 C339 0.950 . S
H311 C340 0.950 . S
H312 C342 0.950 . S
H313 C343 0.950 . S
C314 H296 0.951 . S
C314 C315 1.366 . S
C314 C316 1.388 . S
C315 C314 1.366 . S
C315 C319 1.385 . S
C316 H297 0.951 . S
C316 C314 1.388 . S
C316 C317 1.366 . S
C317 C316 1.366 . S
C317 C318 1.414 . S
C317 C320 1.499 . S
C318 H298 0.950 . S
C318 C317 1.414 . S
C318 C319 1.374 . S
C319 H299 0.950 . S
C319 C315 1.385 . S
C319 C318 1.374 . S
C320 C317 1.499 . S
C320 C321 1.373 . S
C320 C322 1.389 . S
C321 H300 0.950 . S
C321 C320 1.373 . S
C321 C337 1.377 . S
C322 C320 1.389 . S
C322 C323 1.524 . S
C322 C336 1.377 . S
C323 C322 1.524 . S
C323 C324 1.397 . S
C323 C328 1.363 . S
C324 H301 0.950 . S
C324 C323 1.397 . S
C324 C325 1.334 . S
C325 H302 0.950 . S
C325 C324 1.334 . S
C325 C326 1.287 . S
C326 C325 1.287 . S
C326 C327 1.524 . S
C326 H345 0.913 . S
C327 H303 0.950 . S
C327 C326 1.524 . S
C327 C328 1.415 . S
C328 H304 0.950 . S
C328 C323 1.363 . S
C328 C327 1.415 . S
C329 H305 0.951 . S
C329 C330 1.366 . S
C329 C331 1.388 . S
C330 C329 1.366 . S
C330 C334 1.385 . S
C331 H306 0.951 . S
C331 C329 1.388 . S
C331 C332 1.366 . S
C332 C331 1.366 . S
C332 C333 1.414 . S
C332 C335 1.499 . S
C333 H307 0.950 . S
C333 C332 1.414 . S
C333 C334 1.374 . S
C334 H308 0.950 . S
C334 C330 1.385 . S
C334 C333 1.374 . S
C335 C332 1.499 . S
C335 C336 1.373 . S
C335 C337 1.389 . S
C336 H309 0.950 . S
C336 C322 1.377 . S
C336 C335 1.373 . S
C337 C321 1.377 . S
C337 C335 1.389 . S
C337 C338 1.524 . S
C338 C337 1.524 . S
C338 C339 1.397 . S
C338 C343 1.363 . S
C339 H310 0.950 . S
C339 C338 1.397 . S
C339 C340 1.334 . S
C340 H311 0.950 . S
C340 C339 1.334 . S
C340 C341 1.287 . S
C341 C340 1.287 . S
C341 C342 1.524 . S
C341 H344 0.999 . S
C342 H312 0.950 . S
C342 C341 1.524 . S
C342 C343 1.415 . S
C343 H313 0.950 . S
C343 C338 1.363 . S
C343 C342 1.415 . S
H344 C341 0.999 . S
H345 C326 0.913 . S
H346 C364 0.951 . S
H347 C366 0.951 . S
H348 C368 0.950 . S
H349 C369 0.950 . S
H350 C371 0.950 . S
H351 C374 0.950 . S
H352 C375 0.950 . S
H353 C377 0.950 . S
H354 C378 0.950 1_554 S
H355 C379 0.951 . S
H356 C381 0.951 . S
H357 C383 0.950 . S
H358 C384 0.950 . S
H359 C386 0.950 . S
H360 C389 0.950 . S
H361 C390 0.950 . S
H362 C392 0.950 . S
H363 C393 0.950 . S
C364 H346 0.951 . S
C364 C365 1.366 . S
C364 C366 1.388 . S
C365 C364 1.366 . S
C365 C369 1.385 . S
C366 H347 0.951 . S
C366 C364 1.388 . S
C366 C367 1.366 . S
C367 C366 1.366 . S
C367 C368 1.414 . S
C367 C370 1.499 . S
C368 H348 0.950 . S
C368 C367 1.414 . S
C368 C369 1.374 . S
C369 H349 0.950 . S
C369 C365 1.385 . S
C369 C368 1.374 . S
C370 C367 1.499 . S
C370 C371 1.373 . S
C370 C372 1.389 . S
C371 H350 0.950 . S
C371 C370 1.373 . S
C371 C387 1.377 . S
C372 C370 1.389 . S
C372 C373 1.524 1_554 S
C372 C386 1.377 . S
C373 C372 1.524 1_556 S
C373 C374 1.397 . S
C373 C378 1.363 . S
C374 H351 0.950 . S
C374 C373 1.397 . S
C374 C375 1.334 . S
C375 H352 0.950 . S
C375 C374 1.334 . S
C375 C376 1.287 . S
C376 C375 1.287 . S
C376 C377 1.524 . S
C376 H395 0.913 . S
C377 H353 0.950 . S
C377 C376 1.524 . S
C377 C378 1.415 . S
C378 H354 0.950 1_556 S
C378 C373 1.363 . S
C378 C377 1.415 . S
C379 H355 0.951 . S
C379 C380 1.366 . S
C379 C381 1.388 . S
C380 C379 1.366 . S
C380 C384 1.385 . S
C381 H356 0.951 . S
C381 C379 1.388 . S
C381 C382 1.366 . S
C382 C381 1.366 . S
C382 C383 1.414 . S
C382 C385 1.499 . S
C383 H357 0.950 . S
C383 C382 1.414 . S
C383 C384 1.374 . S
C384 H358 0.950 . S
C384 C380 1.385 . S
C384 C383 1.374 . S
C385 C382 1.499 . S
C385 C386 1.373 . S
C385 C387 1.389 . S
C386 H359 0.950 . S
C386 C372 1.377 . S
C386 C385 1.373 . S
C387 C371 1.377 . S
C387 C385 1.389 . S
C387 C388 1.524 . S
C388 C387 1.524 . S
C388 C389 1.397 . S
C388 C393 1.363 . S
C389 H360 0.950 . S
C389 C388 1.397 . S
C389 C390 1.334 . S
C390 H361 0.950 . S
C390 C389 1.334 . S
C390 C391 1.287 . S
C391 C390 1.287 . S
C391 C392 1.524 . S
C391 H394 0.999 . S
C392 H362 0.950 . S
C392 C391 1.524 . S
C392 C393 1.415 . S
C393 H363 0.950 . S
C393 C388 1.363 . S
C393 C392 1.415 . S
H394 C391 0.999 . S
H395 C376 0.913 . S
H396 C414 0.951 . S
H397 C416 0.951 . S
H398 C418 0.950 . S
H399 C419 0.950 . S
H400 C421 0.950 . S
H401 C424 0.950 . S
H402 C425 0.950 . S
H403 C427 0.950 . S
H404 C428 0.950 . S
H405 C429 0.951 . S
H406 C431 0.951 . S
H407 C433 0.950 . S
H408 C434 0.950 . S
H409 C436 0.950 . S
H410 C439 0.950 . S
H411 C440 0.950 . S
H412 C442 0.950 . S
H413 C443 0.950 . S
C414 H396 0.951 . S
C414 C415 1.366 . S
C414 C416 1.388 . S
C415 C414 1.366 . S
C415 C419 1.385 . S
C416 H397 0.951 . S
C416 C414 1.388 . S
C416 C417 1.366 . S
C417 C416 1.366 . S
C417 C418 1.414 . S
C417 C420 1.499 . S
C418 H398 0.950 . S
C418 C417 1.414 . S
C418 C419 1.374 . S
C419 H399 0.950 . S
C419 C415 1.385 . S
C419 C418 1.374 . S
C420 C417 1.499 . S
C420 C421 1.373 . S
C420 C422 1.389 . S
C421 H400 0.950 . S
C421 C420 1.373 . S
C421 C437 1.377 . S
C422 C420 1.389 . S
C422 C423 1.524 . S
C422 C436 1.377 . S
C423 C422 1.524 . S
C423 C424 1.397 . S
C423 C428 1.363 . S
C424 H401 0.950 . S
C424 C423 1.397 . S
C424 C425 1.334 . S
C425 H402 0.950 . S
C425 C424 1.334 . S
C425 C426 1.287 . S
C426 C425 1.287 . S
C426 C427 1.524 . S
C426 H445 0.913 . S
C427 H403 0.950 . S
C427 C426 1.524 . S
C427 C428 1.415 . S
C428 H404 0.950 . S
C428 C423 1.363 . S
C428 C427 1.415 . S
C429 H405 0.951 . S
C429 C430 1.366 . S
C429 C431 1.388 . S
C430 C429 1.366 . S
C430 C434 1.385 . S
C431 H406 0.951 . S
C431 C429 1.388 . S
C431 C432 1.366 . S
C432 C431 1.366 . S
C432 C433 1.414 . S
C432 C435 1.499 . S
C433 H407 0.950 . S
C433 C432 1.414 . S
C433 C434 1.374 . S
C434 H408 0.950 . S
C434 C430 1.385 . S
C434 C433 1.374 . S
C435 C432 1.499 . S
C435 C436 1.373 . S
C435 C437 1.389 . S
C436 H409 0.950 . S
C436 C422 1.377 . S
C436 C435 1.373 . S
C437 C421 1.377 . S
C437 C435 1.389 . S
C437 C438 1.524 . S
C438 C437 1.524 . S
C438 C439 1.397 . S
C438 C443 1.363 . S
C439 H410 0.950 . S
C439 C438 1.397 . S
C439 C440 1.334 . S
C440 H411 0.950 . S
C440 C439 1.334 . S
C440 C441 1.287 . S
C441 C440 1.287 . S
C441 C442 1.524 . S
C441 H444 0.999 . S
C442 H412 0.950 . S
C442 C441 1.524 . S
C442 C443 1.415 . S
C443 H413 0.950 . S
C443 C438 1.363 . S
C443 C442 1.415 . S
H444 C441 0.999 . S
H445 C426 0.913 . S
H446 C464 0.951 . S
H447 C466 0.951 . S
H448 C468 0.950 . S
H449 C469 0.950 . S
H450 C471 0.950 . S
H451 C474 0.950 . S
H452 C475 0.950 . S
H453 C477 0.950 . S
H454 C478 0.950 . S
H455 C479 0.951 . S
H456 C481 0.951 . S
H457 C483 0.950 . S
H458 C484 0.950 . S
H459 C486 0.950 . S
H460 C489 0.950 . S
H461 C490 0.950 . S
H462 C492 0.950 . S
H463 C493 0.950 . S
C464 H446 0.951 . S
C464 C465 1.366 1_556 S
C464 C466 1.388 . S
C465 C464 1.366 1_554 S
C465 C469 1.385 . S
C466 H447 0.951 . S
C466 C464 1.388 . S
C466 C467 1.366 1_556 S
C467 C466 1.366 1_554 S
C467 C468 1.414 . S
C467 C470 1.499 . S
C468 H448 0.950 . S
C468 C467 1.414 . S
C468 C469 1.374 . S
C469 H449 0.950 . S
C469 C465 1.385 . S
C469 C468 1.374 . S
C470 C467 1.499 . S
C470 C471 1.373 . S
C470 C472 1.389 1_554 S
C471 H450 0.950 . S
C471 C470 1.373 . S
C471 C487 1.377 . S
C472 C470 1.389 1_556 S
C472 C473 1.524 . S
C472 C486 1.377 . S
C473 C472 1.524 . S
C473 C474 1.397 . S
C473 C478 1.363 . S
C474 H451 0.950 . S
C474 C473 1.397 . S
C474 C475 1.334 . S
C475 H452 0.950 . S
C475 C474 1.334 . S
C475 C476 1.287 . S
C476 C475 1.287 . S
C476 C477 1.524 . S
C476 H495 0.913 . S
C477 H453 0.950 . S
C477 C476 1.524 . S
C477 C478 1.415 . S
C478 H454 0.950 . S
C478 C473 1.363 . S
C478 C477 1.415 . S
C479 H455 0.951 . S
C479 C480 1.366 . S
C479 C481 1.388 . S
C480 C479 1.366 . S
C480 C484 1.385 1_554 S
C481 H456 0.951 . S
C481 C479 1.388 . S
C481 C482 1.366 . S
C482 C481 1.366 . S
C482 C483 1.414 1_554 S
C482 C485 1.499 . S
C483 H457 0.950 . S
C483 C482 1.414 1_556 S
C483 C484 1.374 . S
C484 H458 0.950 . S
C484 C480 1.385 1_556 S
C484 C483 1.374 . S
C485 C482 1.499 . S
C485 C486 1.373 1_554 S
C485 C487 1.389 . S
C486 H459 0.950 . S
C486 C472 1.377 . S
C486 C485 1.373 1_556 S
C487 C471 1.377 . S
C487 C485 1.389 . S
C487 C488 1.524 . S
C488 C487 1.524 . S
C488 C489 1.397 . S
C488 C493 1.363 . S
C489 H460 0.950 . S
C489 C488 1.397 . S
C489 C490 1.334 . S
C490 H461 0.950 . S
C490 C489 1.334 . S
C490 C491 1.287 . S
C491 C490 1.287 . S
C491 C492 1.524 . S
C491 H494 0.999 . S
C492 H462 0.950 . S
C492 C491 1.524 . S
C492 C493 1.415 . S
C493 H463 0.950 . S
C493 C488 1.363 . S
C493 C492 1.415 . S
H494 C491 0.999 . S
H495 C476 0.913 . S
H496 C514 0.951 . S
H497 C516 0.951 . S
H498 C518 0.950 . S
H499 C519 0.950 . S
H500 C521 0.950 . S
H501 C524 0.950 . S
H502 C525 0.950 . S
H503 C527 0.950 . S
H504 C528 0.950 . S
H505 C529 0.951 . S
H506 C531 0.951 . S
H507 C533 0.950 . S
H508 C534 0.950 . S
H509 C536 0.950 . S
H510 C539 0.950 . S
H511 C540 0.950 . S
H512 C542 0.950 . S
H513 C543 0.950 . S
C514 H496 0.951 . S
C514 C515 1.366 . S
C514 C516 1.388 . S
C515 C514 1.366 . S
C515 C519 1.385 . S
C516 H497 0.951 . S
C516 C514 1.388 . S
C516 C517 1.366 . S
C517 C516 1.366 . S
C517 C518 1.414 . S
C517 C520 1.499 . S
C518 H498 0.950 . S
C518 C517 1.414 . S
C518 C519 1.374 . S
C519 H499 0.950 . S
C519 C515 1.385 . S
C519 C518 1.374 . S
C520 C517 1.499 . S
C520 C521 1.373 . S
C520 C522 1.389 . S
C521 H500 0.950 . S
C521 C520 1.373 . S
C521 C537 1.377 . S
C522 C520 1.389 . S
C522 C523 1.524 . S
C522 C536 1.377 . S
C523 C522 1.524 . S
C523 C524 1.397 . S
C523 C528 1.363 . S
C524 H501 0.950 . S
C524 C523 1.397 . S
C524 C525 1.334 . S
C525 H502 0.950 . S
C525 C524 1.334 . S
C525 C526 1.287 . S
C526 C525 1.287 . S
C526 C527 1.524 . S
C526 H545 0.913 . S
C527 H503 0.950 . S
C527 C526 1.524 . S
C527 C528 1.415 . S
C528 H504 0.950 . S
C528 C523 1.363 . S
C528 C527 1.415 . S
C529 H505 0.951 . S
C529 C530 1.366 . S
C529 C531 1.388 . S
C530 C529 1.366 . S
C530 C534 1.385 . S
C531 H506 0.951 . S
C531 C529 1.388 . S
C531 C532 1.366 . S
C532 C531 1.366 . S
C532 C533 1.414 . S
C532 C535 1.499 . S
C533 H507 0.950 . S
C533 C532 1.414 . S
C533 C534 1.374 . S
C534 H508 0.950 . S
C534 C530 1.385 . S
C534 C533 1.374 . S
C535 C532 1.499 . S
C535 C536 1.373 . S
C535 C537 1.389 . S
C536 H509 0.950 . S
C536 C522 1.377 . S
C536 C535 1.373 . S
C537 C521 1.377 . S
C537 C535 1.389 . S
C537 C538 1.524 . S
C538 C537 1.524 . S
C538 C539 1.397 . S
C538 C543 1.363 . S
C539 H510 0.950 . S
C539 C538 1.397 . S
C539 C540 1.334 . S
C540 H511 0.950 . S
C540 C539 1.334 . S
C540 C541 1.287 . S
C541 C540 1.287 . S
C541 C542 1.524 . S
C541 H544 0.999 . S
C542 H512 0.950 . S
C542 C541 1.524 . S
C542 C543 1.415 . S
C543 H513 0.950 . S
C543 C538 1.363 . S
C543 C542 1.415 . S
H544 C541 0.999 . S
H545 C526 0.913 . S
H546 C564 0.951 . S
H547 C566 0.951 . S
H548 C568 0.950 . S
H549 C569 0.950 . S
H550 C571 0.950 . S
H551 C574 0.950 . S
H552 C575 0.950 . S
H553 C577 0.950 . S
H554 C578 0.950 . S
H555 C579 0.951 . S
H556 C581 0.951 . S
H557 C583 0.950 . S
H558 C584 0.950 . S
H559 C586 0.950 . S
H560 C589 0.950 . S
H561 C590 0.950 . S
H562 C592 0.950 . S
H563 C593 0.950 . S
C564 H546 0.951 . S
C564 C565 1.366 . S
C564 C566 1.388 . S
C565 C564 1.366 . S
C565 C569 1.385 . S
C566 H547 0.951 . S
C566 C564 1.388 . S
C566 C567 1.366 . S
C567 C566 1.366 . S
C567 C568 1.414 . S
C567 C570 1.499 . S
C568 H548 0.950 . S
C568 C567 1.414 . S
C568 C569 1.374 . S
C569 H549 0.950 . S
C569 C565 1.385 . S
C569 C568 1.374 . S
C570 C567 1.499 . S
C570 C571 1.373 . S
C570 C572 1.389 . S
C571 H550 0.950 . S
C571 C570 1.373 . S
C571 C587 1.377 . S
C572 C570 1.389 . S
C572 C573 1.524 . S
C572 C586 1.377 . S
C573 C572 1.524 . S
C573 C574 1.397 . S
C573 C578 1.363 . S
C574 H551 0.950 . S
C574 C573 1.397 . S
C574 C575 1.334 . S
C575 H552 0.950 . S
C575 C574 1.334 . S
C575 C576 1.287 . S
C576 C575 1.287 . S
C576 C577 1.524 . S
C576 H595 0.913 . S
C577 H553 0.950 . S
C577 C576 1.524 . S
C577 C578 1.415 . S
C578 H554 0.950 . S
C578 C573 1.363 . S
C578 C577 1.415 . S
C579 H555 0.951 . S
C579 C580 1.366 . S
C579 C581 1.388 . S
C580 C579 1.366 . S
C580 C584 1.385 . S
C581 H556 0.951 . S
C581 C579 1.388 . S
C581 C582 1.366 . S
C582 C581 1.366 . S
C582 C583 1.414 . S
C582 C585 1.499 . S
C583 H557 0.950 . S
C583 C582 1.414 . S
C583 C584 1.374 . S
C584 H558 0.950 . S
C584 C580 1.385 . S
C584 C583 1.374 . S
C585 C582 1.499 . S
C585 C586 1.373 . S
C585 C587 1.389 . S
C586 H559 0.950 . S
C586 C572 1.377 . S
C586 C585 1.373 . S
C587 C571 1.377 . S
C587 C585 1.389 . S
C587 C588 1.524 . S
C588 C587 1.524 . S
C588 C589 1.397 . S
C588 C593 1.363 . S
C589 H560 0.950 . S
C589 C588 1.397 . S
C589 C590 1.334 . S
C590 H561 0.950 . S
C590 C589 1.334 . S
C590 C591 1.287 . S
C591 C590 1.287 . S
C591 C592 1.524 . S
C591 H594 0.999 . S
C592 H562 0.950 . S
C592 C591 1.524 . S
C592 C593 1.415 . S
C593 H563 0.950 . S
C593 C588 1.363 . S
C593 C592 1.415 . S
H594 C591 0.999 . S
H595 C576 0.913 . S
H596 C614 0.951 . S
H597 C616 0.951 . S
H598 C618 0.950 . S
H599 C619 0.950 . S
H600 C621 0.950 . S
H601 C624 0.950 . S
H602 C625 0.950 . S
H603 C627 0.950 1_565 S
H604 C628 0.950 1_565 S
H605 C629 0.951 . S
H606 C631 0.951 . S
H607 C633 0.967 . S
H608 C634 0.950 1_565 S
H609 C636 0.950 . S
H610 C639 0.950 . S
H611 C640 0.950 1_455 S
H612 C642 0.950 . S
H613 C643 0.950 . S
C614 H596 0.951 . S
C614 C615 1.366 . S
C614 C616 1.388 . S
C615 C614 1.366 . S
C615 C619 1.385 . S
C616 H597 0.951 . S
C616 C614 1.388 . S
C616 C617 1.366 . S
C617 C616 1.366 . S
C617 C618 1.414 . S
C617 C620 1.499 . S
C618 H598 0.950 . S
C618 C617 1.414 . S
C618 C619 1.374 . S
C619 H599 0.950 . S
C619 C615 1.385 . S
C619 C618 1.374 . S
C620 C617 1.499 . S
C620 C621 1.373 . S
C620 C622 1.389 . S
C621 H600 0.950 . S
C621 C620 1.373 . S
C621 C637 1.377 . S
C622 C620 1.389 . S
C622 C623 1.524 . S
C622 C636 1.377 . S
C623 C622 1.524 . S
C623 C624 1.397 . S
C623 C628 1.363 . S
C624 H601 0.950 . S
C624 C623 1.397 . S
C624 C625 1.334 . S
C625 H602 0.950 . S
C625 C624 1.334 . S
C625 C626 1.287 . S
C626 C625 1.287 . S
C626 C627 1.524 . S
C626 H645 0.913 . S
C627 H603 0.950 1_545 S
C627 C626 1.524 . S
C627 C628 1.415 . S
C628 H604 0.950 1_545 S
C628 C623 1.363 . S
C628 C627 1.415 . S
C629 H605 0.951 . S
C629 C630 1.366 . S
C629 C631 1.388 . S
C630 C629 1.366 . S
C630 C634 1.385 . S
C631 H606 0.951 . S
C631 C629 1.388 . S
C631 C632 1.366 . S
C632 C631 1.366 . S
C632 C633 1.414 . S
C632 C635 1.499 . S
C633 H607 0.967 . S
C633 C632 1.414 . S
C633 C634 1.374 . S
C634 H608 0.950 1_545 S
C634 C630 1.385 . S
C634 C633 1.374 . S
C635 C632 1.499 . S
C635 C636 1.373 . S
C635 C637 1.389 . S
C636 H609 0.950 . S
C636 C622 1.377 . S
C636 C635 1.373 . S
C637 C621 1.377 . S
C637 C635 1.389 . S
C637 C638 1.524 . S
C638 C637 1.524 . S
C638 C639 1.397 . S
C638 C643 1.363 . S
C639 H610 0.950 . S
C639 C638 1.397 . S
C639 C640 1.334 . S
C640 H611 0.950 1_655 S
C640 C639 1.334 . S
C640 C641 1.287 1_655 S
C641 C640 1.287 1_455 S
C641 C642 1.524 1_455 S
C641 H644 0.999 . S
C642 H612 0.950 . S
C642 C641 1.524 1_655 S
C642 C643 1.415 . S
C643 H613 0.950 . S
C643 C638 1.363 . S
C643 C642 1.415 . S
H644 C641 0.999 . S
H645 C626 0.913 . S
H646 C664 0.951 . S
H647 C666 0.951 . S
H648 C668 0.950 . S
H649 C669 0.950 . S
H650 C671 0.950 . S
H651 C674 0.950 . S
H652 C675 0.950 . S
H653 C677 0.950 . S
H654 C678 0.950 . S
H655 C679 0.951 . S
H656 C681 0.951 . S
H657 C683 0.950 . S
H658 C684 0.950 . S
H659 C686 0.950 . S
H660 C689 0.950 . S
H661 C690 0.950 . S
H662 C692 0.950 . S
H663 C693 0.950 . S
C664 H646 0.951 . S
C664 C665 1.366 . S
C664 C666 1.388 . S
C665 C664 1.366 . S
C665 C669 1.385 . S
C666 H647 0.951 . S
C666 C664 1.388 . S
C666 C667 1.366 . S
C667 C666 1.366 . S
C667 C668 1.414 . S
C667 C670 1.499 . S
C668 H648 0.950 . S
C668 C667 1.414 . S
C668 C669 1.374 . S
C669 H649 0.950 . S
C669 C665 1.385 . S
C669 C668 1.374 . S
C670 C667 1.499 . S
C670 C671 1.373 . S
C670 C672 1.389 . S
C671 H650 0.950 . S
C671 C670 1.373 . S
C671 C687 1.377 . S
C672 C670 1.389 . S
C672 C673 1.524 . S
C672 C686 1.377 . S
C673 C672 1.524 . S
C673 C674 1.397 . S
C673 C678 1.363 . S
C674 H651 0.950 . S
C674 C673 1.397 . S
C674 C675 1.334 . S
C675 H652 0.950 . S
C675 C674 1.334 . S
C675 C676 1.287 . S
C676 C675 1.287 . S
C676 C677 1.524 . S
C676 H695 0.913 . S
C677 H653 0.950 . S
C677 C676 1.524 . S
C677 C678 1.415 . S
C678 H654 0.950 . S
C678 C673 1.363 . S
C678 C677 1.415 . S
C679 H655 0.951 . S
C679 C680 1.366 . S
C679 C681 1.388 . S
C680 C679 1.366 . S
C680 C684 1.385 . S
C681 H656 0.951 . S
C681 C679 1.388 . S
C681 C682 1.366 . S
C682 C681 1.366 . S
C682 C683 1.414 . S
C682 C685 1.499 . S
C683 H657 0.950 . S
C683 C682 1.414 . S
C683 C684 1.374 . S
C684 H658 0.950 . S
C684 C680 1.385 . S
C684 C683 1.374 . S
C685 C682 1.499 . S
C685 C686 1.373 . S
C685 C687 1.389 . S
C686 H659 0.950 . S
C686 C672 1.377 . S
C686 C685 1.373 . S
C687 C671 1.377 . S
C687 C685 1.389 . S
C687 C688 1.524 . S
C688 C687 1.524 . S
C688 C689 1.397 . S
C688 C693 1.363 . S
C689 H660 0.950 . S
C689 C688 1.397 . S
C689 C690 1.334 . S
C690 H661 0.950 . S
C690 C689 1.334 . S
C690 C691 1.287 . S
C691 C690 1.287 . S
C691 C692 1.524 . S
C691 H694 0.999 . S
C692 H662 0.950 . S
C692 C691 1.524 . S
C692 C693 1.415 . S
C693 H663 0.950 . S
C693 C688 1.363 . S
C693 C692 1.415 . S
H694 C691 0.999 . S
H695 C676 0.913 . S
H696 C714 0.951 . S
H697 C716 0.951 . S
H698 C718 0.950 . S
H699 C719 0.950 . S
H700 C721 0.950 . S
H701 C724 0.950 . S
H702 C725 0.950 . S
H703 C727 0.950 . S
H704 C728 0.950 . S
H705 C729 0.951 . S
H706 C731 0.951 . S
H707 C733 0.950 . S
H708 C734 0.950 . S
H709 C736 0.950 . S
H710 C739 0.950 . S
H711 C740 0.950 . S
H712 C742 0.950 . S
H713 C743 0.950 . S
C714 H696 0.951 . S
C714 C715 1.366 . S
C714 C716 1.388 . S
C715 C714 1.366 . S
C715 C719 1.385 . S
C716 H697 0.951 . S
C716 C714 1.388 . S
C716 C717 1.366 . S
C717 C716 1.366 . S
C717 C718 1.414 . S
C717 C720 1.499 . S
C718 H698 0.950 . S
C718 C717 1.414 . S
C718 C719 1.374 . S
C719 H699 0.950 . S
C719 C715 1.385 . S
C719 C718 1.374 . S
C720 C717 1.499 . S
C720 C721 1.373 . S
C720 C722 1.389 . S
C721 H700 0.950 . S
C721 C720 1.373 . S
C721 C737 1.377 . S
C722 C720 1.389 . S
C722 C723 1.524 . S
C722 C736 1.377 . S
C723 C722 1.524 . S
C723 C724 1.397 . S
C723 C728 1.363 . S
C724 H701 0.950 . S
C724 C723 1.397 . S
C724 C725 1.334 . S
C725 H702 0.950 . S
C725 C724 1.334 . S
C725 C726 1.287 . S
C726 C725 1.287 . S
C726 C727 1.524 . S
C726 H745 0.913 . S
C727 H703 0.950 . S
C727 C726 1.524 . S
C727 C728 1.415 . S
C728 H704 0.950 . S
C728 C723 1.363 . S
C728 C727 1.415 . S
C729 H705 0.951 . S
C729 C730 1.366 . S
C729 C731 1.388 . S
C730 C729 1.366 . S
C730 C734 1.385 . S
C731 H706 0.951 . S
C731 C729 1.388 . S
C731 C732 1.366 . S
C732 C731 1.366 . S
C732 C733 1.414 . S
C732 C735 1.499 . S
C733 H707 0.950 . S
C733 C732 1.414 . S
C733 C734 1.374 . S
C734 H708 0.950 . S
C734 C730 1.385 . S
C734 C733 1.374 . S
C735 C732 1.499 . S
C735 C736 1.373 . S
C735 C737 1.389 . S
C736 H709 0.950 . S
C736 C722 1.377 . S
C736 C735 1.373 . S
C737 C721 1.377 . S
C737 C735 1.389 . S
C737 C738 1.524 . S
C738 C737 1.524 . S
C738 C739 1.397 . S
C738 C743 1.363 . S
C739 H710 0.950 . S
C739 C738 1.397 . S
C739 C740 1.334 . S
C740 H711 0.950 . S
C740 C739 1.334 . S
C740 C741 1.287 . S
C741 C740 1.287 . S
C741 C742 1.524 . S
C741 H744 0.999 . S
C742 H712 0.950 . S
C742 C741 1.524 . S
C742 C743 1.415 . S
C743 H713 0.950 . S
C743 C738 1.363 . S
C743 C742 1.415 . S
H744 C741 0.999 . S
H745 C726 0.913 . S
H746 C764 0.951 . S
H747 C766 0.951 . S
H748 C768 0.950 . S
H749 C769 0.950 . S
H750 C771 0.950 . S
H751 C774 0.950 . S
H752 C775 0.950 . S
H753 C777 0.950 . S
H754 C778 0.950 . S
H755 C779 0.951 . S
H756 C781 0.951 . S
H757 C783 0.950 . S
H758 C784 0.950 . S
H759 C786 0.950 . S
H760 C789 0.950 . S
H761 C790 0.950 . S
H762 C792 0.950 . S
H763 C793 0.950 . S
C764 H746 0.951 . S
C764 C765 1.366 . S
C764 C766 1.388 . S
C765 C764 1.366 . S
C765 C769 1.385 . S
C766 H747 0.951 . S
C766 C764 1.388 . S
C766 C767 1.366 . S
C767 C766 1.366 . S
C767 C768 1.414 . S
C767 C770 1.499 . S
C768 H748 0.950 . S
C768 C767 1.414 . S
C768 C769 1.374 . S
C769 H749 0.950 . S
C769 C765 1.385 . S
C769 C768 1.374 . S
C770 C767 1.499 . S
C770 C771 1.373 . S
C770 C772 1.389 . S
C771 H750 0.950 . S
C771 C770 1.373 . S
C771 C787 1.377 . S
C772 C770 1.389 . S
C772 C773 1.524 . S
C772 C786 1.377 . S
C773 C772 1.524 . S
C773 C774 1.397 . S
C773 C778 1.363 . S
C774 H751 0.950 . S
C774 C773 1.397 . S
C774 C775 1.334 . S
C775 H752 0.950 . S
C775 C774 1.334 . S
C775 C776 1.287 . S
C776 C775 1.287 . S
C776 C777 1.524 . S
C776 H795 0.913 . S
C777 H753 0.950 . S
C777 C776 1.524 . S
C777 C778 1.415 . S
C778 H754 0.950 . S
C778 C773 1.363 . S
C778 C777 1.415 . S
C779 H755 0.951 . S
C779 C780 1.366 . S
C779 C781 1.388 . S
C780 C779 1.366 . S
C780 C784 1.385 . S
C781 H756 0.951 . S
C781 C779 1.388 . S
C781 C782 1.366 . S
C782 C781 1.366 . S
C782 C783 1.414 . S
C782 C785 1.499 . S
C783 H757 0.950 . S
C783 C782 1.414 . S
C783 C784 1.374 . S
C784 H758 0.950 . S
C784 C780 1.385 . S
C784 C783 1.374 . S
C785 C782 1.499 . S
C785 C786 1.373 . S
C785 C787 1.389 . S
C786 H759 0.950 . S
C786 C772 1.377 . S
C786 C785 1.373 . S
C787 C771 1.377 . S
C787 C785 1.389 . S
C787 C788 1.524 . S
C788 C787 1.524 . S
C788 C789 1.397 . S
C788 C793 1.363 . S
C789 H760 0.950 . S
C789 C788 1.397 . S
C789 C790 1.334 . S
C790 H761 0.950 . S
C790 C789 1.334 . S
C790 C791 1.287 . S
C791 C790 1.287 . S
C791 C792 1.524 . S
C791 H794 0.999 . S
C792 H762 0.950 . S
C792 C791 1.524 . S
C792 C793 1.415 . S
C793 H763 0.950 . S
C793 C788 1.363 . S
C793 C792 1.415 . S
H794 C791 0.999 . S
H795 C776 0.913 . S
H796 C814 0.951 . S
H797 C816 0.951 . S
H798 C818 0.950 . S
H799 C819 0.950 . S
H800 C821 0.950 . S
H801 C824 0.950 . S
H802 C825 0.950 . S
H803 C827 0.950 . S
H804 C828 0.950 . S
H805 C829 0.951 . S
H806 C831 0.951 . S
H807 C833 0.950 . S
H808 C834 0.950 . S
H809 C836 0.950 . S
H810 C839 0.950 . S
H811 C840 0.950 . S
H812 C842 0.950 . S
H813 C843 0.950 . S
C814 H796 0.951 . S
C814 C815 1.366 . S
C814 C816 1.388 . S
C815 C814 1.366 . S
C815 C819 1.385 . S
C816 H797 0.951 . S
C816 C814 1.388 . S
C816 C817 1.366 . S
C817 C816 1.366 . S
C817 C818 1.414 . S
C817 C820 1.499 . S
C818 H798 0.950 . S
C818 C817 1.414 . S
C818 C819 1.374 . S
C819 H799 0.950 . S
C819 C815 1.385 . S
C819 C818 1.374 . S
C820 C817 1.499 . S
C820 C821 1.373 . S
C820 C822 1.389 . S
C821 H800 0.950 . S
C821 C820 1.373 . S
C821 C837 1.377 . S
C822 C820 1.389 . S
C822 C823 1.524 . S
C822 C836 1.377 . S
C823 C822 1.524 . S
C823 C824 1.397 . S
C823 C828 1.363 . S
C824 H801 0.950 . S
C824 C823 1.397 . S
C824 C825 1.334 . S
C825 H802 0.950 . S
C825 C824 1.334 . S
C825 C826 1.287 . S
C826 C825 1.287 . S
C826 C827 1.524 . S
C826 H845 0.913 . S
C827 H803 0.950 . S
C827 C826 1.524 . S
C827 C828 1.415 . S
C828 H804 0.950 . S
C828 C823 1.363 . S
C828 C827 1.415 . S
C829 H805 0.951 . S
C829 C830 1.366 . S
C829 C831 1.388 . S
C830 C829 1.366 . S
C830 C834 1.385 . S
C831 H806 0.951 . S
C831 C829 1.388 . S
C831 C832 1.366 . S
C832 C831 1.366 . S
C832 C833 1.414 . S
C832 C835 1.499 . S
C833 H807 0.950 . S
C833 C832 1.414 . S
C833 C834 1.374 . S
C834 H808 0.950 . S
C834 C830 1.385 . S
C834 C833 1.374 . S
C835 C832 1.499 . S
C835 C836 1.373 . S
C835 C837 1.389 . S
C836 H809 0.950 . S
C836 C822 1.377 . S
C836 C835 1.373 . S
C837 C821 1.377 . S
C837 C835 1.389 . S
C837 C838 1.524 . S
C838 C837 1.524 . S
C838 C839 1.397 . S
C838 C843 1.363 . S
C839 H810 0.950 . S
C839 C838 1.397 . S
C839 C840 1.334 . S
C840 H811 0.950 . S
C840 C839 1.334 . S
C840 C841 1.287 . S
C841 C840 1.287 . S
C841 C842 1.524 . S
C841 H844 0.999 . S
C842 H812 0.950 . S
C842 C841 1.524 . S
C842 C843 1.415 . S
C843 H813 0.950 . S
C843 C838 1.363 . S
C843 C842 1.415 . S
H844 C841 0.999 . S
H845 C826 0.913 . S
H846 C864 0.951 . S
H847 C866 0.951 . S
H848 C868 0.950 . S
H849 C869 0.950 . S
H850 C871 0.950 . S
H851 C874 0.950 . S
H852 C875 0.950 . S
H853 C877 0.950 . S
H854 C878 0.950 . S
H855 C879 0.951 1_545 S
H856 C881 0.939 1_545 S
H857 C883 0.950 . S
H858 C884 0.950 . S
H859 C886 0.950 . S
H860 C889 0.950 . S
H861 C890 0.950 1_655 S
H862 C892 0.950 1_545 S
H863 C893 0.950 . S
C864 H846 0.951 . S
C864 C865 1.366 . S
C864 C866 1.388 . S
C865 C864 1.366 . S
C865 C869 1.385 . S
C866 H847 0.951 . S
C866 C864 1.388 . S
C866 C867 1.366 . S
C867 C866 1.366 . S
C867 C868 1.414 . S
C867 C870 1.499 . S
C868 H848 0.950 . S
C868 C867 1.414 . S
C868 C869 1.374 . S
C869 H849 0.950 . S
C869 C865 1.385 . S
C869 C868 1.374 . S
C870 C867 1.499 . S
C870 C871 1.373 . S
C870 C872 1.389 . S
C871 H850 0.950 . S
C871 C870 1.373 . S
C871 C887 1.377 . S
C872 C870 1.389 . S
C872 C873 1.524 . S
C872 C886 1.377 . S
C873 C872 1.524 . S
C873 C874 1.397 . S
C873 C878 1.363 . S
C874 H851 0.950 . S
C874 C873 1.397 . S
C874 C875 1.334 . S
C875 H852 0.950 . S
C875 C874 1.334 . S
C875 C876 1.287 . S
C876 C875 1.287 . S
C876 C877 1.524 . S
C876 H895 0.913 . S
C877 H853 0.950 . S
C877 C876 1.524 . S
C877 C878 1.415 . S
C878 H854 0.950 . S
C878 C873 1.363 . S
C878 C877 1.415 . S
C879 H855 0.951 1_565 S
C879 C880 1.366 . S
C879 C881 1.388 . S
C880 C879 1.366 . S
C880 C884 1.385 . S
C881 H856 0.939 1_565 S
C881 C879 1.388 . S
C881 C882 1.366 . S
C882 C881 1.366 . S
C882 C883 1.414 . S
C882 C885 1.499 . S
C883 H857 0.950 . S
C883 C882 1.414 . S
C883 C884 1.374 . S
C884 H858 0.950 . S
C884 C880 1.385 . S
C884 C883 1.374 . S
C885 C882 1.499 . S
C885 C886 1.373 . S
C885 C887 1.389 . S
C886 H859 0.950 . S
C886 C872 1.377 . S
C886 C885 1.373 . S
C887 C871 1.377 . S
C887 C885 1.389 . S
C887 C888 1.524 . S
C888 C887 1.524 . S
C888 C889 1.397 . S
C888 C893 1.363 . S
C889 H860 0.950 . S
C889 C888 1.397 . S
C889 C890 1.334 . S
C890 H861 0.950 1_455 S
C890 C889 1.334 . S
C890 C891 1.287 . S
C891 C890 1.287 . S
C891 C892 1.524 . S
C891 H894 0.999 1_455 S
C892 H862 0.950 1_565 S
C892 C891 1.524 . S
C892 C893 1.415 . S
C893 H863 0.950 . S
C893 C888 1.363 . S
C893 C892 1.415 . S
H894 C891 0.999 1_655 S
H895 C876 0.913 . S
C330 C196 1.612 . S
C315 C119 1.615 . S
C365 C23 1.604 . S
C380 C268 1.586 . S
C415 C55 1.567 . S
C430 C184 1.613 . S
C465 C87 1.538 . S
C480 C280 1.587 . S
C530 C186 1.397 . S
C515 C17 1.548 . S
C580 C267 1.604 . S
C565 C61 1.542 . S
C615 C93 1.501 . S
C630 C183 1.586 . S
C665 C113 1.529 . S
C680 C270 1.396 . S
C730 C282 1.397 . S
C715 C49 1.500 . S
C780 C198 1.396 . S
C765 C81 1.508 . S
C830 C279 1.604 . S
C815 C125 1.593 . S
C865 C29 1.577 . S
C880 C195 1.586 . S
