# Generated by pormake.
# Topology apo, (3,6)-cn, num edge types: 1
# Building blocks:
#     Node 0, Type 0, BuildingBlock: MIDCAF_clean_linker_0, # of connection points: 3
#     Node 1, Type 0, BuildingBlock: MIDCAF_clean_linker_0, # of connection points: 3
#     Node 2, Type 0, BuildingBlock: MIDCAF_clean_linker_0, # of connection points: 3
#     Node 3, Type 0, BuildingBlock: MIDCAF_clean_linker_0, # of connection points: 3
#     Node 4, Type 0, BuildingBlock: MIDCAF_clean_linker_0, # of connection points: 3
#     Node 5, Type 0, BuildingBlock: MIDCAF_clean_linker_0, # of connection points: 3
#     Node 6, Type 0, BuildingBlock: MIDCAF_clean_linker_0, # of connection points: 3
#     Node 7, Type 0, BuildingBlock: MIDCAF_clean_linker_0, # of connection points: 3
#     Node 8, Type 1, BuildingBlock: MIDCAF_clean_sbu_0, # of connection points: 6
#     Node 9, Type 1, BuildingBlock: MIDCAF_clean_sbu_0, # of connection points: 6
#     Node 10, Type 1, BuildingBlock: MIDCAF_clean_sbu_0, # of connection points: 6
#     Node 11, Type 1, BuildingBlock: MIDCAF_clean_sbu_0, # of connection points: 6
#     Edge 12, Type (0, 1), BuildingBlock: TEMPAE_clean_linker_10, # of connection points: 2
#     Edge 13, Type (0, 1), BuildingBlock: TEMPAE_clean_linker_10, # of connection points: 2
#     Edge 14, Type (0, 1), BuildingBlock: TEMPAE_clean_linker_10, # of connection points: 2
#     Edge 15, Type (0, 1), BuildingBlock: TEMPAE_clean_linker_10, # of connection points: 2
#     Edge 16, Type (0, 1), BuildingBlock: TEMPAE_clean_linker_10, # of connection points: 2
#     Edge 17, Type (0, 1), BuildingBlock: TEMPAE_clean_linker_10, # of connection points: 2
#     Edge 18, Type (0, 1), BuildingBlock: TEMPAE_clean_linker_10, # of connection points: 2
#     Edge 19, Type (0, 1), BuildingBlock: TEMPAE_clean_linker_10, # of connection points: 2
#     Edge 20, Type (0, 1), BuildingBlock: TEMPAE_clean_linker_10, # of connection points: 2
#     Edge 21, Type (0, 1), BuildingBlock: TEMPAE_clean_linker_10, # of connection points: 2
#     Edge 22, Type (0, 1), BuildingBlock: TEMPAE_clean_linker_10, # of connection points: 2
#     Edge 23, Type (0, 1), BuildingBlock: TEMPAE_clean_linker_10, # of connection points: 2
#     Edge 24, Type (0, 1), BuildingBlock: TEMPAE_clean_linker_10, # of connection points: 2
#     Edge 25, Type (0, 1), BuildingBlock: TEMPAE_clean_linker_10, # of connection points: 2
#     Edge 26, Type (0, 1), BuildingBlock: TEMPAE_clean_linker_10, # of connection points: 2
#     Edge 27, Type (0, 1), BuildingBlock: TEMPAE_clean_linker_10, # of connection points: 2
#     Edge 28, Type (0, 1), BuildingBlock: TEMPAE_clean_linker_10, # of connection points: 2
#     Edge 29, Type (0, 1), BuildingBlock: TEMPAE_clean_linker_10, # of connection points: 2
#     Edge 30, Type (0, 1), BuildingBlock: TEMPAE_clean_linker_10, # of connection points: 2
#     Edge 31, Type (0, 1), BuildingBlock: TEMPAE_clean_linker_10, # of connection points: 2
#     Edge 32, Type (0, 1), BuildingBlock: TEMPAE_clean_linker_10, # of connection points: 2
#     Edge 33, Type (0, 1), BuildingBlock: TEMPAE_clean_linker_10, # of connection points: 2
#     Edge 34, Type (0, 1), BuildingBlock: TEMPAE_clean_linker_10, # of connection points: 2
#     Edge 35, Type (0, 1), BuildingBlock: TEMPAE_clean_linker_10, # of connection points: 2
# Relax obj value: 0.088
# Max RMSD: 0.101
# Mean RMSD: 0.091
data_MOF--net-apo--node1-MIDCAF_clean_sbu_0--node2-MIDCAF_clean_linker_0--edge1-TEMPAE_clean_linker_10
_symmetry_space_group_name_H-M    P1
_symmetry_Int_Tables_number       1
_symmetry_cell_setting            triclinic
loop_
_symmetry_equiv_pos_as_xyz
'x, y, z'
_cell_length_a     43.605473
_cell_length_b     52.471169
_cell_length_c     46.398639
_cell_angle_alpha  89.718599
_cell_angle_beta   89.892873
_cell_angle_gamma 90.133237
loop_
_atom_site_label
_atom_site_type_symbol
_atom_site_fract_x
_atom_site_fract_y
_atom_site_fract_z
_atom_type_partial_charge
C0 C 0.34326 0.33736 0.49501 0.0
C1 C 0.3422 0.31365 0.50931 0.0
C2 C 0.33051 0.29253 0.49409 0.0
C3 C 0.32139 0.29494 0.46508 0.0
H4 H 0.26013 0.26692 0.39659 0.0
H5 H 0.22267 0.24095 0.37092 0.0
H6 H 0.23638 0.28678 0.29438 0.0
H7 H 0.27428 0.31221 0.31964 0.0
H8 H 0.33637 0.34902 0.31693 0.0
H9 H 0.36244 0.38419 0.29175 0.0
H10 H 0.37902 0.42099 0.37319 0.0
H11 H 0.35351 0.38603 0.39836 0.0
H12 H 0.33644 0.35822 0.45591 0.0
H13 H 0.35114 0.35427 0.50605 0.0
H14 H 0.32941 0.27393 0.50423 0.0
H15 H 0.31338 0.27821 0.45376 0.0
N16 N 0.29826 0.30512 0.40487 0.0
N17 N 0.30755 0.32747 0.36155 0.0
N18 N 0.33171 0.34028 0.4041 0.0
C19 C 0.29287 0.30831 0.37602 0.0
C20 C 0.32703 0.34351 0.37541 0.0
C21 C 0.3177 0.32118 0.41906 0.0
C22 C 0.27042 0.29179 0.36036 0.0
C23 C 0.2553 0.27142 0.37425 0.0
C24 C 0.23358 0.25659 0.35952 0.0
C25 C 0.22623 0.26172 0.33047 0.0
C26 C 0.24159 0.28194 0.31655 0.0
C27 C 0.26333 0.29668 0.33122 0.0
C28 C 0.34275 0.36467 0.35971 0.0
C29 C 0.34559 0.36461 0.32946 0.0
C30 C 0.36066 0.38465 0.31503 0.0
C31 C 0.37264 0.40537 0.3305 0.0
C32 C 0.36979 0.40538 0.36067 0.0
C33 C 0.35525 0.38525 0.37509 0.0
C34 C 0.32404 0.31847 0.45055 0.0
C35 C 0.33459 0.33967 0.46613 0.0
C36 C 0.11592 0.14218 0.98235 0.0
C37 C 0.13733 0.1518 0.00224 0.0
C38 C 0.16572 0.1607 0.99152 0.0
C39 C 0.17268 0.15933 0.9619 0.0
H40 H 0.22699 0.19147 0.89259 0.0
H41 H 0.26594 0.21689 0.86799 0.0
H42 H 0.24147 0.18199 0.7871 0.0
H43 H 0.20308 0.1561 0.81175 0.0
H44 H 0.16306 0.10282 0.81468 0.0
H45 H 0.1362 0.06817 0.79015 0.0
H46 H 0.06936 0.06549 0.85883 0.0
H47 H 0.09593 0.09999 0.88328 0.0
H48 H 0.10584 0.1327 0.93868 0.0
H49 H 0.09343 0.13592 0.98936 0.0
H50 H 0.18289 0.16817 0.00605 0.0
H51 H 0.19491 0.16587 0.95446 0.0
N52 N 0.18143 0.15934 0.89788 0.0
N53 N 0.17153 0.13812 0.85427 0.0
N54 N 0.14299 0.12803 0.8956 0.0
C55 C 0.18772 0.15591 0.86928 0.0
C56 C 0.14913 0.12408 0.86727 0.0
C57 C 0.15895 0.14546 0.91116 0.0
C58 C 0.21172 0.17158 0.85431 0.0
C59 C 0.22985 0.18915 0.86956 0.0
C60 C 0.25213 0.20393 0.85534 0.0
C61 C 0.25693 0.2017 0.8254 0.0
C62 C 0.2388 0.18411 0.81017 0.0
C63 C 0.21658 0.16928 0.82439 0.0
C64 C 0.13185 0.10418 0.85112 0.0
C65 C 0.14246 0.09503 0.82443 0.0
C66 C 0.12713 0.07509 0.81039 0.0
C67 C 0.10059 0.06404 0.8225 0.0
C68 C 0.08949 0.07373 0.8487 0.0
C69 C 0.10495 0.09342 0.86287 0.0
C70 C 0.15152 0.14882 0.94235 0.0
C71 C 0.12298 0.14052 0.95303 0.0
C72 C 0.84092 0.12459 0.49518 0.0
C73 C 0.83994 0.14838 0.48105 0.0
C74 C 0.82864 0.16946 0.49654 0.0
C75 C 0.8198 0.16693 0.52562 0.0
H76 H 0.75562 0.19188 0.59221 0.0
H77 H 0.71784 0.21787 0.6172 0.0
H78 H 0.73961 0.17991 0.69731 0.0
H79 H 0.77777 0.15416 0.6725 0.0
H80 H 0.84212 0.11606 0.6726 0.0
H81 H 0.86937 0.08125 0.6973 0.0
H82 H 0.87234 0.03907 0.61782 0.0
H83 H 0.84599 0.07375 0.59304 0.0
H84 H 0.83437 0.10358 0.5343 0.0
H85 H 0.84853 0.10771 0.48393 0.0
H86 H 0.82766 0.18813 0.48657 0.0
H87 H 0.81209 0.18364 0.53713 0.0
N88 N 0.79723 0.15683 0.58577 0.0
N89 N 0.80698 0.13501 0.62928 0.0
N90 N 0.83036 0.12165 0.58643 0.0
C91 C 0.7922 0.154 0.61471 0.0
C92 C 0.82608 0.11876 0.61525 0.0
C93 C 0.81633 0.14064 0.5715 0.0
C94 C 0.7699 0.17074 0.63018 0.0
C95 C 0.75254 0.18908 0.61517 0.0
C96 C 0.73063 0.20392 0.62952 0.0
C97 C 0.7254 0.20094 0.65933 0.0
C98 C 0.7431 0.18293 0.67443 0.0
C99 C 0.76497 0.16803 0.66008 0.0
C100 C 0.84186 0.0977 0.63083 0.0
C101 C 0.84858 0.09933 0.66044 0.0
C102 C 0.8643 0.07953 0.67455 0.0
C103 C 0.87286 0.05749 0.65945 0.0
C104 C 0.86587 0.0558 0.62999 0.0
C105 C 0.85085 0.07572 0.6158 0.0
C106 C 0.82239 0.14334 0.53997 0.0
C107 C 0.83257 0.12217 0.52418 0.0
C108 C 0.63145 0.33489 0.00173 0.0
C109 C 0.63936 0.31292 0.98615 0.0
C110 C 0.65618 0.29375 0.00046 0.0
C111 C 0.66394 0.29622 0.02979 0.0
H112 H 0.72987 0.27573 0.09647 0.0
H113 H 0.76827 0.25038 0.12153 0.0
H114 H 0.73503 0.27835 0.20322 0.0
H115 H 0.69737 0.30437 0.17811 0.0
H116 H 0.66378 0.36309 0.17352 0.0
H117 H 0.63673 0.39796 0.19752 0.0
H118 H 0.57087 0.40011 0.12825 0.0
H119 H 0.5977 0.36553 0.10428 0.0
H120 H 0.63199 0.35443 0.04193 0.0
H121 H 0.6193 0.35042 0.99142 0.0
H122 H 0.66261 0.27651 0.98926 0.0
H123 H 0.67631 0.28091 0.04028 0.0
N124 N 0.68198 0.30547 0.09093 0.0
N125 N 0.67142 0.32656 0.13454 0.0
N126 N 0.6455 0.33824 0.09235 0.0
C127 C 0.6873 0.30843 0.11977 0.0
C128 C 0.65038 0.34149 0.12098 0.0
C129 C 0.66109 0.32043 0.07705 0.0
C130 C 0.71039 0.29226 0.13512 0.0
C131 C 0.73065 0.27648 0.11978 0.0
C132 C 0.75265 0.26173 0.13426 0.0
C133 C 0.75493 0.2621 0.16458 0.0
C134 C 0.73446 0.27774 0.17991 0.0
C135 C 0.71263 0.29264 0.16541 0.0
C136 C 0.6331 0.36153 0.13683 0.0
C137 C 0.64337 0.37083 0.16354 0.0
C138 C 0.62794 0.39088 0.17726 0.0
C139 C 0.6016 0.40179 0.16484 0.0
C140 C 0.59085 0.39196 0.1386 0.0
C141 C 0.60646 0.37223 0.12472 0.0
C142 C 0.65493 0.31786 0.0455 0.0
C143 C 0.63893 0.33725 0.03087 0.0
C144 C 0.61216 0.64866 0.50153 0.0
C145 C 0.62951 0.66491 0.48366 0.0
C146 C 0.6555 0.67698 0.49546 0.0
C147 C 0.66356 0.67306 0.52456 0.0
H148 H 0.72136 0.69729 0.59357 0.0
H149 H 0.76082 0.72133 0.61883 0.0
H150 H 0.74 0.6803 0.69735 0.0
H151 H 0.7002 0.65647 0.67229 0.0
H152 H 0.65081 0.61027 0.6719 0.0
H153 H 0.62399 0.57425 0.69459 0.0
H154 H 0.57352 0.5618 0.61598 0.0
H155 H 0.6001 0.59725 0.59331 0.0
H156 H 0.60602 0.63192 0.54303 0.0
H157 H 0.59239 0.63861 0.49315 0.0
H158 H 0.66938 0.68964 0.48232 0.0
H159 H 0.68361 0.68265 0.533 0.0
N160 N 0.67638 0.66509 0.58707 0.0
N161 N 0.66726 0.64125 0.62944 0.0
N162 N 0.63876 0.63312 0.58779 0.0
C163 C 0.68307 0.66004 0.61533 0.0
C164 C 0.64504 0.62767 0.61577 0.0
C165 C 0.6541 0.65167 0.57316 0.0
C166 C 0.7074 0.6748 0.63074 0.0
C167 C 0.72509 0.69333 0.61622 0.0
C168 C 0.74795 0.70706 0.63071 0.0
C169 C 0.75379 0.70276 0.6602 0.0
C170 C 0.73602 0.68434 0.67476 0.0
C171 C 0.71323 0.67053 0.66025 0.0
C172 C 0.62796 0.60666 0.63061 0.0
C173 C 0.6339 0.59993 0.6595 0.0
C174 C 0.6184 0.57937 0.67258 0.0
C175 C 0.59679 0.565 0.65702 0.0
C176 C 0.59037 0.57217 0.62846 0.0
C177 C 0.60565 0.59266 0.61547 0.0
C178 C 0.646 0.65675 0.54235 0.0
C179 C 0.62022 0.64466 0.53028 0.0
C180 C 0.85892 0.83086 0.00708 0.0
C181 C 0.8475 0.81052 0.99059 0.0
C182 C 0.82753 0.79297 0.00411 0.0
C183 C 0.81988 0.79543 0.03348 0.0
H184 H 0.75535 0.77369 0.10007 0.0
H185 H 0.71607 0.74872 0.12483 0.0
H186 H 0.74761 0.77756 0.20666 0.0
H187 H 0.78614 0.80313 0.18188 0.0
H188 H 0.81984 0.8611 0.17749 0.0
H189 H 0.84623 0.89591 0.20224 0.0
H190 H 0.91499 0.89761 0.13525 0.0
H191 H 0.88871 0.86307 0.11043 0.0
H192 H 0.86103 0.84919 0.04793 0.0
H193 H 0.87369 0.84516 -0.00259 0.0
H194 H 0.81834 0.77701 0.99218 0.0
H195 H 0.80482 0.7814 0.04327 0.0
N196 N 0.80361 0.8035 0.09502 0.0
N197 N 0.81343 0.82459 0.13873 0.0
N198 N 0.84069 0.83595 0.09707 0.0
C199 C 0.79765 0.80655 0.12375 0.0
C200 C 0.83505 0.83932 0.12559 0.0
C201 C 0.82517 0.81823 0.0815 0.0
C202 C 0.77403 0.79059 0.13882 0.0
C203 C 0.75399 0.7747 0.12334 0.0
C204 C 0.7315 0.7602 0.13765 0.0
C205 C 0.7285 0.76095 0.16791 0.0
C206 C 0.74875 0.77668 0.18337 0.0
C207 C 0.77108 0.79131 0.16907 0.0
C208 C 0.85199 0.85932 0.14183 0.0
C209 C 0.84074 0.86872 0.16816 0.0
C210 C 0.8558 0.88872 0.18232 0.0
C211 C 0.88274 0.89949 0.17074 0.0
C212 C 0.89449 0.88955 0.14492 0.0
C213 C 0.87923 0.86986 0.13056 0.0
C214 C 0.83202 0.8155 0.05004 0.0
C215 C 0.85144 0.83325 0.03624 0.0
C216 C 0.13206 0.83663 0.49397 0.0
C217 C 0.13651 0.81354 0.50897 0.0
C218 C 0.15109 0.79342 0.49427 0.0
C219 C 0.15998 0.79613 0.4652 0.0
H220 H 0.22459 0.77183 0.39909 0.0
H221 H 0.26333 0.74643 0.37449 0.0
H222 H 0.24718 0.78863 0.29587 0.0
H223 H 0.2081 0.81366 0.32018 0.0
H224 H 0.1678 0.86639 0.32323 0.0
H225 H 0.14076 0.90071 0.29794 0.0
H226 H 0.07037 0.89974 0.36341 0.0
H227 H 0.09733 0.86576 0.38881 0.0
H228 H 0.13614 0.85722 0.45433 0.0
H229 H 0.12185 0.85289 0.50456 0.0
H230 H 0.15482 0.77529 0.50492 0.0
H231 H 0.1705 0.78013 0.45439 0.0
N232 N 0.18271 0.80714 0.40528 0.0
N233 N 0.17366 0.8289 0.36162 0.0
N234 N 0.14602 0.83978 0.40307 0.0
C235 C 0.18915 0.81063 0.37666 0.0
C236 C 0.15192 0.84344 0.37461 0.0
C237 C 0.16123 0.82183 0.41867 0.0
C238 C 0.213 0.79492 0.36178 0.0
C239 C 0.22922 0.77574 0.37656 0.0
C240 C 0.25165 0.76122 0.36243 0.0
C241 C 0.25859 0.76542 0.33309 0.0
C242 C 0.2423 0.78455 0.31832 0.0
C243 C 0.21991 0.79906 0.33242 0.0
C244 C 0.13489 0.86336 0.35819 0.0
C245 C 0.14644 0.87335 0.33212 0.0
C246 C 0.13101 0.89306 0.31766 0.0
C247 C 0.10337 0.9029 0.32863 0.0
C248 C 0.09141 0.89241 0.35422 0.0
C249 C 0.10705 0.87305 0.36891 0.0
C250 C 0.1542 0.81893 0.45005 0.0
C251 C 0.14048 0.83919 0.46502 0.0
C252 C 0.35827 0.63941 0.98736 0.0
C253 C 0.33709 0.64961 0.00712 0.0
C254 C 0.30886 0.6586 -0.0037 0.0
C255 C 0.30185 0.65677 0.96674 0.0
H256 H 0.25068 0.68983 0.89568 0.0
H257 H 0.21286 0.71551 0.87028 0.0
H258 H 0.23805 0.67961 0.79012 0.0
H259 H 0.27534 0.65343 0.81561 0.0
H260 H 0.33732 0.61408 0.81524 0.0
H261 H 0.36398 0.57861 0.79142 0.0
H262 H 0.37331 0.5404 0.8734 0.0
H263 H 0.3476 0.57572 0.89726 0.0
H264 H 0.36807 0.62897 0.94391 0.0
H265 H 0.38068 0.6331 0.99437 0.0
H266 H 0.29187 0.66653 0.01071 0.0
H267 H 0.27977 0.66342 0.9592 0.0
N268 N 0.29461 0.65667 0.9022 0.0
N269 N 0.30416 0.63428 0.85921 0.0
N270 N 0.32999 0.62305 0.90162 0.0
C271 C 0.28895 0.65311 0.87351 0.0
C272 C 0.32456 0.61906 0.8732 0.0
C273 C 0.31538 0.64178 0.91632 0.0
C274 C 0.26621 0.66939 0.85786 0.0
C275 C 0.24829 0.68739 0.87263 0.0
C276 C 0.22664 0.70231 0.85795 0.0
C277 C 0.22229 0.69981 0.82799 0.0
C278 C 0.24036 0.68192 0.81319 0.0
C279 C 0.26195 0.66694 0.82788 0.0
C280 C 0.34033 0.59777 0.85818 0.0
C281 C 0.34511 0.59811 0.82814 0.0
C282 C 0.36046 0.57792 0.81453 0.0
C283 C 0.37059 0.55678 0.8306 0.0
C284 C 0.36561 0.55641 0.8605 0.0
C285 C 0.35096 0.57672 0.87414 0.0
C286 C 0.32275 0.64563 0.9474 0.0
C287 C 0.35111 0.63722 0.95815 0.0
Zn288 Zn 0.01542 0.12352 0.29466 0.0
Zn289 Zn 0.96952 0.12221 0.19509 0.0
Zn290 Zn -0.00712 0.12373 0.24423 0.0
C291 C 0.027 0.14287 0.1857 0.0
C292 C 0.96803 0.07229 0.21178 0.0
O293 O 0.95852 0.14246 0.27402 0.0
O294 O 0.98259 0.14086 0.31591 0.0
C295 C 0.05788 0.15033 0.26218 0.0
O296 O 0.02745 0.14172 0.21355 0.0
O297 O 0.00422 0.13429 0.17214 0.0
O298 O 0.95824 0.08613 0.19153 0.0
O299 O 0.98277 0.08261 0.23292 0.0
O300 O 0.05323 0.14271 0.28761 0.0
O301 O 0.0382 0.1452 0.24216 0.0
O302 O 0.0015 0.08279 0.25748 0.0
O303 O 0.02059 0.08671 0.30128 0.0
C304 C 0.01305 0.07264 0.28049 0.0
O305 O 0.94908 0.14729 0.24534 0.0
O306 O 0.93654 0.14711 0.19923 0.0
C307 C 0.95925 0.14688 0.30143 0.0
C308 C 0.93178 0.155 0.22443 0.0
Zn309 Zn 0.51517 0.34711 0.69428 0.0
Zn310 Zn 0.47622 0.34283 0.79888 0.0
Zn311 Zn 0.49441 0.34173 0.74645 0.0
C312 C 0.47131 0.39237 0.78263 0.0
C313 C 0.43646 0.3095 0.7694 0.0
O314 O 0.53984 0.32099 0.74448 0.0
O315 O 0.55305 0.32714 0.6989 0.0
C316 C 0.51195 0.39595 0.71357 0.0
O317 O 0.48337 0.3819 0.76014 0.0
O318 O 0.46469 0.37889 0.80435 0.0
O319 O 0.44374 0.31703 0.79427 0.0
O320 O 0.45129 0.31788 0.74714 0.0
O321 O 0.5202 0.38448 0.69107 0.0
O322 O 0.50125 0.38325 0.73533 0.0
O323 O 0.45943 0.32294 0.71776 0.0
O324 O 0.48011 0.33059 0.67492 0.0
C325 C 0.45859 0.32139 0.68997 0.0
O326 O 0.5316 0.32384 0.77394 0.0
O327 O 0.51373 0.33113 0.81782 0.0
C328 C 0.55868 0.31752 0.72329 0.0
C329 C 0.53463 0.3228 0.80165 0.0
Zn330 Zn 0.0059 0.84214 0.7973 0.0
Zn331 Zn 0.96784 0.84325 0.69535 0.0
Zn332 Zn 0.98761 0.84095 0.74711 0.0
C333 C 0.97106 0.89338 0.71134 0.0
C334 C 0.92316 0.81595 0.72519 0.0
O335 O 0.03068 0.81689 0.74825 0.0
O336 O 0.03469 0.81345 0.7955 0.0
C337 C 0.014 0.89122 0.78067 0.0
O338 O 0.98057 0.88213 0.73453 0.0
O339 O 0.96463 0.88038 0.68937 0.0
O340 O 0.92901 0.82465 0.7004 0.0
O341 O 0.94205 0.81997 0.74616 0.0
O342 O 0.02294 0.87671 0.80068 0.0
O343 O -0.00149 0.88175 0.7595 0.0
O344 O 0.95035 0.82374 0.77544 0.0
O345 O 0.96755 0.83569 0.81808 0.0
C346 C 0.94677 0.82575 0.80301 0.0
O347 O 0.02319 0.82189 0.71891 0.0
O348 O 0.00159 0.8254 0.67595 0.0
C349 C 0.04343 0.80685 0.77072 0.0
C350 C 0.02376 0.81823 0.69136 0.0
Zn351 Zn 0.50974 0.62414 0.19348 0.0
Zn352 Zn 0.46653 0.61788 0.29398 0.0
Zn353 Zn 0.48798 0.62348 0.24314 0.0
C354 C 0.52449 0.63961 0.30092 0.0
C355 C 0.46728 0.56937 0.27416 0.0
O356 O 0.45214 0.64237 0.21488 0.0
O357 O 0.47358 0.63559 0.17242 0.0
C358 C 0.54733 0.6568 0.22367 0.0
O359 O 0.52304 0.64077 0.27312 0.0
O360 O 0.50273 0.62988 0.31515 0.0
O361 O 0.45849 0.58113 0.29627 0.0
O362 O 0.47966 0.58172 0.25289 0.0
O363 O 0.54134 0.65032 0.19818 0.0
O364 O 0.53151 0.64736 0.24479 0.0
O365 O 0.49868 0.58317 0.22884 0.0
O366 O 0.52304 0.58871 0.18757 0.0
C367 C 0.51366 0.57391 0.20719 0.0
O368 O 0.44309 0.64507 0.24426 0.0
O369 O 0.43059 0.64033 0.29022 0.0
C370 C 0.45137 0.64384 0.18705 0.0
C371 C 0.42491 0.64962 0.26568 0.0
C372 C 0.10485 0.94691 0.30728 0.0
C373 C 0.08792 0.92506 0.31462 0.0
C374 C 0.09023 0.96921 0.29757 0.0
C375 C 0.05787 0.96965 0.29475 0.0
C376 C 0.04087 0.9471 0.3002 0.0
C377 C 0.05603 0.92517 0.3104 0.0
C378 C 0.10929 -0.00722 0.29198 0.0
C379 C 0.00653 0.94646 0.29627 0.0
C380 C 0.02262 0.0341 0.31064 0.0
C381 C 0.01953 0.0449 0.28306 0.0
C382 C 0.03383 0.00931 0.31452 0.0
C383 C 0.04181 -0.00547 0.2902 0.0
C384 C 0.03678 0.00463 0.26216 0.0
C385 C 0.02622 0.02988 0.25893 0.0
C386 C 0.03872 -0.00052 0.34484 0.0
C387 C 0.04398 -0.01057 0.23551 0.0
H388 H 0.12946 0.94701 0.31057 0.0
H389 H 0.04286 0.9082 0.31555 0.0
H390 H 0.10396 0.00078 0.2704 0.0
H391 H 0.10356 0.00755 0.30816 0.0
H392 H 0.13429 -0.01113 0.29314 0.0
H393 H -0.00295 0.92688 0.29843 0.0
H394 H -0.0046 0.95879 0.31258 0.0
H395 H 0.0004 0.95416 0.27473 0.0
H396 H 0.01735 0.04547 0.32944 0.0
H397 H 0.02434 0.03813 0.23755 0.0
H398 H 0.06356 -0.00368 0.34858 0.0
H399 H 0.02694 0.98091 0.34785 0.0
H400 H 0.03012 0.01292 0.36141 0.0
H401 H 0.0685 -0.00786 0.22984 0.0
H402 H 0.02995 -0.00407 0.21691 0.0
H403 H 0.03993 0.96876 0.23898 0.0
C404 C 0.4134 0.53797 0.80116 0.0
C405 C 0.38598 0.53477 0.81664 0.0
C406 C 0.42999 0.51671 0.79114 0.0
C407 C 0.41855 0.49178 0.79634 0.0
C408 C 0.38994 0.48869 0.81052 0.0
C409 C 0.37423 0.51016 0.82075 0.0
C410 C 0.4605 0.52088 0.77642 0.0
C411 C 0.37649 0.46256 0.81605 0.0
C412 C 0.44782 0.43129 0.76038 0.0
C413 C 0.46361 0.41982 0.78327 0.0
C414 C 0.43454 0.4556 0.7635 0.0
C415 C 0.43755 0.46876 0.79 0.0
C416 C 0.45571 0.45801 0.81221 0.0
C417 C 0.46812 0.43356 0.80872 0.0
C418 C 0.41533 0.46623 0.73928 0.0
C419 C 0.46035 0.47156 0.84051 0.0
H420 H 0.42258 0.55701 0.79808 0.0
H421 H 0.3529 0.50769 0.8325 0.0
H422 H 0.4792 0.51429 0.79081 0.0
H423 H 0.46193 0.50952 0.75637 0.0
H424 H 0.46454 0.54126 0.77102 0.0
H425 H 0.35267 0.46352 0.82453 0.0
H426 H 0.37641 0.45124 0.79591 0.0
H427 H 0.39082 0.45221 0.83198 0.0
H428 H 0.444 0.42055 0.74082 0.0
H429 H 0.48047 0.42473 0.8264 0.0
H430 H 0.42078 0.48663 0.73545 0.0
H431 H 0.39073 0.46502 0.74532 0.0
H432 H 0.41879 0.45561 0.71888 0.0
H433 H 0.46681 0.49177 0.83673 0.0
H434 H 0.47838 0.46239 0.85387 0.0
H435 H 0.43858 0.47141 0.85292 0.0
C436 C 0.56968 0.54195 0.69779 0.0
C437 C 0.58187 0.54187 0.66974 0.0
C438 C 0.55523 0.52012 0.70943 0.0
C439 C 0.55347 0.49753 0.69285 0.0
C440 C 0.56582 0.49742 0.66458 0.0
C441 C 0.57971 0.51951 0.65341 0.0
C442 C 0.54222 0.52115 0.73956 0.0
C443 C 0.56478 0.47377 0.64615 0.0
C444 C 0.54859 0.43065 0.72389 0.0
C445 C 0.51901 0.42335 0.71565 0.0
C446 C 0.55942 0.45548 0.71864 0.0
C447 C 0.54004 0.47349 0.70499 0.0
C448 C 0.50917 0.46675 0.699 0.0
C449 C 0.49916 0.44155 0.70392 0.0
C450 C 0.59245 0.46169 0.72535 0.0
C451 C 0.4874 0.48559 0.68545 0.0
H452 H 0.57108 0.55919 0.71049 0.0
H453 H 0.58944 0.51914 0.6319 0.0
H454 H 0.51933 0.51192 0.74049 0.0
H455 H 0.55748 0.51053 0.75446 0.0
H456 H 0.54015 0.54103 0.74744 0.0
H457 H 0.57516 0.47688 0.62453 0.0
H458 H 0.57723 0.45802 0.65704 0.0
H459 H 0.54068 0.46747 0.64325 0.0
H460 H 0.56403 0.41638 0.73257 0.0
H461 H 0.4764 0.43577 0.6972 0.0
H462 H 0.59421 0.48029 0.73646 0.0
H463 H 0.60563 0.46326 0.70492 0.0
H464 H 0.60332 0.44683 0.73905 0.0
H465 H 0.48874 0.5042 0.69665 0.0
H466 H 0.4633 0.47871 0.68609 0.0
H467 H 0.494 0.48886 0.66262 0.0
C468 C 0.92949 0.92354 0.18741 0.0
C469 C 0.8975 0.92215 0.18426 0.0
C470 C 0.94385 0.94608 0.19681 0.0
C471 C 0.92588 0.96792 0.20256 0.0
C472 C 0.89348 0.96613 0.20103 0.0
C473 C 0.8797 0.94326 0.19206 0.0
C474 C 0.97832 0.94689 0.19938 0.0
C475 C 0.87342 -0.01111 0.20709 0.0
C476 C 0.9566 0.02972 0.23522 0.0
C477 C 0.96154 0.04451 0.21038 0.0
C478 C 0.94682 0.00413 0.2332 0.0
C479 C 0.94075 -0.00652 0.20572 0.0
C480 C 0.9467 0.00817 0.18064 0.0
C481 C 0.95717 0.0333 0.1833 0.0
C482 C 0.94168 -0.01087 0.26059 0.0
C483 C 0.94062 -0.00224 0.15087 0.0
H484 H 0.94336 0.90713 0.18193 0.0
H485 H 0.855 0.94237 0.18963 0.0
H486 H 0.98804 0.95904 0.18197 0.0
H487 H 0.98504 0.95552 0.22022 0.0
H488 H -0.01131 0.92762 0.19783 0.0
H489 H 0.84865 -0.01611 0.20728 0.0
H490 H 0.87949 -0.00266 0.2282 0.0
H491 H 0.87736 0.00372 0.19034 0.0
H492 H 0.95927 0.03834 0.25623 0.0
H493 H 0.96106 0.04456 0.16397 0.0
H494 H 0.94596 0.96849 0.25745 0.0
H495 H 0.91751 -0.00852 0.26758 0.0
H496 H 0.95672 -0.00387 0.27818 0.0
H497 H 0.95328 0.97968 0.1477 0.0
H498 H 0.94745 0.01133 0.13355 0.0
H499 H 0.91581 -0.00653 0.14849 0.0
C500 C 0.917 0.03951 0.68789 0.0
C501 C 0.88874 0.03595 0.67403 0.0
C502 C 0.93381 0.01855 0.69852 0.0
C503 C 0.9218 -0.00643 0.69556 0.0
C504 C 0.89244 -0.00983 0.68305 0.0
C505 C 0.87647 0.01133 0.67221 0.0
C506 C 0.96511 0.02303 0.71139 0.0
C507 C 0.87841 0.96399 0.6799 0.0
C508 C 0.96924 0.93422 0.68401 0.0
C509 C 0.96509 0.92115 0.71015 0.0
C510 C 0.95763 0.95888 0.67994 0.0
C511 C 0.94081 0.97063 0.70236 0.0
C512 C 0.93874 0.95835 0.72962 0.0
C513 C 0.95106 0.93373 0.73325 0.0
C514 C 0.96132 0.97148 0.65082 0.0
C515 C 0.92135 0.97025 0.75422 0.0
H516 H 0.92659 0.05855 0.6892 0.0
H517 H 0.8545 0.00858 0.66174 0.0
H518 H 0.96823 0.01146 0.73123 0.0
H519 H 0.98296 0.01701 0.69579 0.0
H520 H 0.96896 0.04343 0.71663 0.0
H521 H 0.85425 0.96482 0.6724 0.0
H522 H 0.89188 0.95278 0.66412 0.0
H523 H 0.87909 0.9536 0.70078 0.0
H524 H 0.98043 0.92465 0.66621 0.0
H525 H 0.94782 0.92367 0.7535 0.0
H526 H 0.9684 -0.00833 0.65328 0.0
H527 H 0.93901 0.97131 0.63936 0.0
H528 H 0.97852 0.9616 0.6372 0.0
H529 H 0.92681 -0.00916 0.75601 0.0
H530 H 0.92652 0.96077 0.77511 0.0
H531 H 0.89637 0.96855 0.75009 0.0
C532 C 0.60389 0.44535 0.18694 0.0
C533 C 0.58635 0.42441 0.17797 0.0
C534 C 0.58986 0.46819 0.19559 0.0
C535 C 0.55742 0.47013 0.19559 0.0
C536 C 0.53958 0.44848 0.18845 0.0
C537 C 0.55423 0.42598 0.17946 0.0
C538 C 0.60984 0.49078 0.20289 0.0
C539 C 0.50499 0.44945 0.18864 0.0
C540 C 0.52439 0.53064 0.22913 0.0
C541 C 0.521 0.54632 0.20477 0.0
C542 C 0.53476 0.5053 0.22652 0.0
C543 C 0.54266 0.49567 0.19897 0.0
C544 C 0.53834 0.51122 0.1743 0.0
C545 C 0.52749 0.53618 0.1775 0.0
C546 C 0.53818 0.48911 0.25327 0.0
C547 C 0.54634 0.50186 0.14447 0.0
H548 H 0.62869 0.44438 0.1857 0.0
H549 H 0.54049 0.40976 0.17296 0.0
H550 H 0.60756 0.50554 0.18581 0.0
H551 H 0.60232 0.49946 0.22347 0.0
H552 H 0.63442 0.48551 0.20474 0.0
H553 H 0.4947 0.43006 0.1891 0.0
H554 H 0.49641 0.46029 0.20746 0.0
H555 H 0.49693 0.45937 0.1689 0.0
H556 H 0.52031 0.53849 0.25031 0.0
H557 H 0.52483 0.54808 0.1585 0.0
H558 H 0.5627 0.48437 0.25663 0.0
H559 H 0.52562 0.47086 0.25064 0.0
H560 H 0.52941 0.49883 0.27283 0.0
H561 H 0.57125 0.49767 0.14324 0.0
H562 H 0.54065 0.516 0.12742 0.0
H563 H 0.53389 0.48389 0.13986 0.0
C564 C 0.37873 0.45222 0.32236 0.0
C565 C 0.38761 0.42731 0.31557 0.0
C566 C 0.39393 0.47339 0.31045 0.0
C567 C 0.41907 0.46969 0.2915 0.0
C568 C 0.42757 0.44456 0.28378 0.0
C569 C 0.41156 0.42364 0.29576 0.0
C570 C 0.38371 0.49979 0.319 0.0
C571 C 0.45432 0.4398 0.26386 0.0
C572 C 0.44192 0.53107 0.25306 0.0
C573 C 0.46192 0.54162 0.27336 0.0
C574 C 0.42943 0.50654 0.25731 0.0
C575 C 0.43767 0.49225 0.28216 0.0
C576 C 0.46047 0.50191 0.3009 0.0
C577 C 0.47188 0.52665 0.29655 0.0
C578 C 0.40523 0.49707 0.23678 0.0
C579 C 0.4708 0.4871 0.3271 0.0
H580 H 0.35996 0.45513 0.33734 0.0
H581 H 0.41855 0.4044 0.29052 0.0
H582 H 0.40193 0.50912 0.33188 0.0
H583 H 0.37986 0.51171 0.29953 0.0
H584 H 0.36227 0.49945 0.33198 0.0
H585 H 0.45626 0.41941 0.25782 0.0
H586 H 0.45211 0.45141 0.24395 0.0
H587 H 0.47593 0.44571 0.27455 0.0
H588 H 0.43403 0.54279 0.23525 0.0
H589 H 0.48745 0.53484 0.31219 0.0
H590 H 0.38228 0.49964 0.24671 0.0
H591 H 0.40814 0.47646 0.23239 0.0
H592 H 0.40575 0.5077 0.21601 0.0
H593 H 0.45247 0.48747 0.34371 0.0
H594 H 0.49203 0.49523 0.33659 0.0
H595 H 0.47505 0.46687 0.32154 0.0
C596 C 0.10335 0.02081 0.79963 0.0
C597 C 0.08558 0.04141 0.80907 0.0
C598 C 0.08959 -0.0021 0.7907 0.0
C599 C 0.0572 -0.00449 0.79098 0.0
C600 C 0.03909 0.01686 0.79851 0.0
C601 C 0.05347 0.03945 0.80771 0.0
C602 C 0.10982 0.97568 0.78285 0.0
C603 C 0.00452 0.0154 0.7985 0.0
C604 C 0.02485 0.93435 0.7581 0.0
C605 C 0.02175 0.9188 0.78261 0.0
C606 C 0.03474 0.95989 0.76045 0.0
C607 C 0.04281 0.96976 0.78784 0.0
C608 C 0.03899 0.95426 0.81265 0.0
C609 C 0.02836 0.92918 0.80974 0.0
C610 C 0.03755 0.97592 0.7335 0.0
C611 C 0.04719 0.96384 0.84233 0.0
H612 H 0.12814 0.02206 0.80073 0.0
H613 H 0.03953 0.05541 0.81449 0.0
H614 H 0.10785 0.96066 0.79969 0.0
H615 H 0.10228 0.9672 0.76219 0.0
H616 H 0.13432 0.98129 0.78086 0.0
H617 H -0.00604 0.03465 0.79843 0.0
H618 H -0.00394 0.00468 0.77955 0.0
H619 H -0.00335 0.00512 0.81812 0.0
H620 H 0.02075 0.92635 0.73702 0.0
H621 H 0.02589 0.91741 0.82887 0.0
H622 H 0.06203 0.9772 0.72709 0.0
H623 H 0.02927 -0.0044 0.73733 0.0
H624 H 0.02442 0.96762 0.7153 0.0
H625 H 0.07201 0.96852 0.84316 0.0
H626 H 0.04205 0.94964 0.85951 0.0
H627 H 0.03439 0.98157 0.84708 0.0
C628 C 0.13868 0.17251 0.05168 0.0
C629 C 0.12959 0.15226 0.03383 0.0
C630 C 0.12875 0.17399 0.08063 0.0
C631 C 0.10871 0.15508 0.09192 0.0
C632 C 0.10085 0.13396 0.07448 0.0
C633 C 0.11166 0.13266 0.04599 0.0
C634 C 0.13858 0.19642 0.09862 0.0
C635 C 0.07951 0.11329 0.08535 0.0
C636 C 0.08197 0.14342 0.16924 0.0
C637 C 0.05226 0.15348 0.16788 0.0
C638 C 0.1023 0.14606 0.14561 0.0
C639 C 0.09237 0.15868 0.12011 0.0
C640 C 0.06365 0.1712 0.12016 0.0
C641 C 0.04413 0.16855 0.14405 0.0
C642 C 0.13324 0.13339 0.14703 0.0
C643 C 0.05186 0.18494 0.09375 0.0
H644 H 0.15259 0.18778 0.04279 0.0
H645 H 0.10537 0.1164 0.03295 0.0
H646 H 0.11992 0.21074 0.09908 0.0
H647 H 0.14318 0.19047 0.12119 0.0
H648 H 0.15945 0.20574 0.08967 0.0
H649 H 0.07673 0.09757 0.06962 0.0
H650 H 0.08824 0.10517 0.10585 0.0
H651 H 0.05657 0.12153 0.08982 0.0
H652 H 0.08835 0.13164 0.18753 0.0
H653 H 0.02116 0.1764 0.14298 0.0
H654 H 0.15087 0.14496 0.13565 0.0
H655 H 0.13199 0.11456 0.13632 0.0
H656 H 0.14061 0.13029 0.16969 0.0
H657 H 0.06948 0.19817 0.08507 0.0
H658 H 0.03069 0.19596 0.09831 0.0
H659 H 0.04665 0.17083 0.07668 0.0
C660 C 0.34085 0.29508 0.56009 0.0
C661 C 0.35465 0.31113 0.53939 0.0
C662 C 0.35274 0.293 0.58834 0.0
C663 C 0.37901 0.30733 0.59621 0.0
C664 C 0.39293 0.32354 0.57543 0.0
C665 C 0.38081 0.32506 0.54745 0.0
C666 C 0.33735 0.27536 0.60971 0.0
C667 C 0.42102 0.33919 0.58262 0.0
C668 C 0.40533 0.3255 0.67153 0.0
C669 C 0.43213 0.31098 0.67394 0.0
C670 C 0.38575 0.32277 0.64755 0.0
C671 C 0.39317 0.30504 0.6256 0.0
C672 C 0.41825 0.28832 0.62986 0.0
C673 C 0.43757 0.29168 0.65379 0.0
C674 C 0.35923 0.34092 0.64417 0.0
C675 C 0.42685 0.26877 0.60752 0.0
H676 H 0.32055 0.28433 0.55434 0.0
H677 H 0.39227 0.33702 0.53165 0.0
H678 H 0.35367 0.26037 0.61667 0.0
H679 H 0.33058 0.28608 0.62926 0.0
H680 H 0.31666 0.26603 0.60058 0.0
H681 H 0.42838 0.35163 0.56442 0.0
H682 H 0.41637 0.35137 0.60161 0.0
H683 H 0.44032 0.32639 0.58832 0.0
H684 H 0.40137 0.34079 0.68672 0.0
H685 H 0.45853 0.28067 0.65537 0.0
H686 H 0.33893 0.33111 0.63503 0.0
H687 H 0.36585 0.35641 0.62901 0.0
H688 H 0.35269 0.34967 0.66505 0.0
H689 H 0.40618 0.25895 0.59915 0.0
H690 H 0.44287 0.25427 0.61634 0.0
H691 H 0.43824 0.27846 0.58906 0.0
C692 C 0.59996 0.31888 0.94719 0.0
C693 C 0.62908 0.31011 0.95545 0.0
C694 C 0.59007 0.31781 0.91844 0.0
C695 C 0.60949 0.30733 0.89704 0.0
C696 C 0.6386 0.29774 0.90521 0.0
C697 C 0.64809 0.29931 0.93427 0.0
C698 C 0.55876 0.32819 0.91095 0.0
C699 C 0.65988 0.28619 0.88321 0.0
C700 C 0.56113 0.29094 0.83194 0.0
C701 C 0.56265 0.31379 0.81624 0.0
C702 C 0.5792 0.28716 0.85671 0.0
C703 C 0.59883 0.30696 0.8663 0.0
C704 C 0.603 0.32879 0.84855 0.0
C705 C 0.58486 0.33191 0.82369 0.0
C706 C 0.57444 0.26329 0.87441 0.0
C707 C 0.62367 0.35038 0.85765 0.0
H708 H 0.58466 0.32662 0.96334 0.0
H709 H 0.67068 0.29256 0.94026 0.0
H710 H 0.561 0.34363 0.89464 0.0
H711 H 0.54441 0.31295 0.90138 0.0
H712 H 0.54657 0.33592 0.93004 0.0
H713 H 0.68055 0.27764 0.8933 0.0
H714 H 0.64773 0.27127 0.87076 0.0
H715 H 0.66737 0.30106 0.86764 0.0
H716 H 0.54355 0.2771 0.82659 0.0
H717 H 0.58561 0.34986 0.812 0.0
H718 H 0.55881 0.26751 0.89267 0.0
H719 H 0.59643 0.25645 0.88357 0.0
H720 H 0.56403 0.24778 0.86144 0.0
H721 H 0.61217 0.36146 0.87487 0.0
H722 H 0.62889 0.3635 0.83942 0.0
H723 H 0.64552 0.34303 0.86657 0.0
C724 C 0.83865 0.16769 0.43067 0.0
C725 C 0.8522 0.15114 0.4509 0.0
C726 C 0.85074 0.17044 0.40254 0.0
C727 C 0.87695 0.15627 0.39431 0.0
C728 C 0.89043 0.13935 0.41451 0.0
C729 C 0.87812 0.13717 0.44241 0.0
C730 C 0.83578 0.18879 0.38179 0.0
C731 C 0.91841 0.12381 0.40688 0.0
C732 C 0.90544 0.14153 0.31868 0.0
C733 C 0.9324 0.15609 0.31788 0.0
C734 C 0.8851 0.14316 0.3423 0.0
C735 C 0.8919 0.15988 0.36542 0.0
C736 C 0.91711 0.17681 0.36276 0.0
C737 C 0.93717 0.17453 0.33919 0.0
C738 C 0.8584 0.1249 0.34395 0.0
C739 C 0.92502 0.19536 0.38638 0.0
H740 H 0.81849 0.17844 0.43675 0.0
H741 H 0.88938 0.12479 0.45784 0.0
H742 H 0.85191 0.20455 0.37661 0.0
H743 H 0.83036 0.17905 0.36124 0.0
H744 H 0.81436 0.19708 0.39069 0.0
H745 H 0.92514 0.11051 0.42446 0.0
H746 H 0.91403 0.11256 0.38713 0.0
H747 H 0.93805 0.1367 0.40228 0.0
H748 H 0.90188 0.12699 0.30249 0.0
H749 H 0.95812 0.18572 0.33871 0.0
H750 H 0.83798 0.13417 0.35353 0.0
H751 H 0.86465 0.10855 0.35799 0.0
H752 H 0.85225 0.11742 0.32235 0.0
H753 H 0.90412 0.20487 0.39465 0.0
H754 H 0.94147 0.21017 0.37885 0.0
H755 H 0.93563 0.18487 0.40462 0.0
C756 C 0.88732 0.81352 0.95142 0.0
C757 C 0.85704 0.80783 0.95965 0.0
C758 C 0.89651 0.81324 0.92239 0.0
C759 C 0.8751 0.80674 0.90066 0.0
C760 C 0.84482 0.79987 0.9088 0.0
C761 C 0.83611 0.80058 0.93814 0.0
C762 C 0.92912 0.82062 0.91496 0.0
C763 C 0.82137 0.79248 0.88647 0.0
C764 C 0.90001 0.83672 0.82995 0.0
C765 C 0.91883 0.81763 0.81858 0.0
C766 C 0.88285 0.83259 0.85525 0.0
C767 C 0.88457 0.80872 0.8696 0.0
C768 C 0.90063 0.78846 0.85621 0.0
C769 C 0.91781 0.79323 0.83095 0.0
C770 C 0.86603 0.85478 0.86843 0.0
C771 C 0.90255 0.76252 0.87022 0.0
H772 H 0.90397 0.81847 0.96779 0.0
H773 H 0.81264 0.7962 0.94411 0.0
H774 H 0.94033 0.80508 0.90275 0.0
H775 H 0.92915 0.83782 0.90095 0.0
H776 H 0.9431 0.82471 0.93439 0.0
H777 H 0.80033 0.78428 0.89638 0.0
H778 H 0.81482 0.80955 0.87371 0.0
H779 H 0.83115 0.77842 0.87123 0.0
H780 H 0.90128 0.85577 0.8208 0.0
H781 H 0.93283 0.77855 0.82261 0.0
H782 H 0.87954 0.86228 0.8868 0.0
H783 H 0.84337 0.8487 0.87692 0.0
H784 H 0.86256 0.8705 0.85265 0.0
H785 H 0.91966 0.76309 0.88788 0.0
H786 H 0.90975 0.74772 0.85458 0.0
H787 H 0.88017 0.75693 0.87978 0.0
C788 C 0.58901 0.67086 0.44588 0.0
C789 C 0.62019 0.66855 0.45285 0.0
C790 C 0.57889 0.67001 0.41718 0.0
C791 C 0.60046 0.66708 0.39455 0.0
C792 C 0.63219 0.66691 0.40121 0.0
C793 C 0.6417 0.66752 0.43029 0.0
C794 C 0.54483 0.67046 0.41133 0.0
C795 C 0.65605 0.66453 0.37781 0.0
C796 C 0.5648 0.62779 0.33537 0.0
C797 C 0.55218 0.6466 0.31746 0.0
C798 C 0.58307 0.63417 0.3591 0.0
C799 C 0.58913 0.66013 0.36511 0.0
C800 C 0.57935 0.67906 0.34515 0.0
C801 C 0.56065 0.67209 0.32159 0.0
C802 C 0.59291 0.61319 0.37947 0.0
C803 C 0.58628 0.70686 0.35 0.0
H804 H 0.57225 0.6724 0.46306 0.0
H805 H 0.66587 0.66585 0.43536 0.0
H806 H 0.53942 0.6849 0.39458 0.0
H807 H 0.53741 0.65162 0.40303 0.0
H808 H 0.53122 0.67478 0.43096 0.0
H809 H 0.67906 0.67063 0.38541 0.0
H810 H 0.65758 0.64436 0.37095 0.0
H811 H 0.64971 0.67608 0.35863 0.0
H812 H 0.55811 0.60807 0.33223 0.0
H813 H 0.55075 0.68671 0.30792 0.0
H814 H 0.57942 0.61445 0.39973 0.0
H815 H 0.61745 0.61531 0.38517 0.0
H816 H 0.58936 0.59395 0.37014 0.0
H817 H 0.56935 0.71479 0.36539 0.0
H818 H 0.58477 0.71795 0.32959 0.0
H819 H 0.60946 0.70946 0.35937 0.0
C820 C 0.36297 0.63126 0.05105 0.0
C821 C 0.34497 0.6506 0.03865 0.0
C822 C 0.37424 0.63317 0.07929 0.0
C823 C 0.36661 0.6546 0.09633 0.0
C824 C 0.34631 0.67315 0.08493 0.0
C825 C 0.33607 0.67113 0.05616 0.0
C826 C 0.39588 0.61287 0.09024 0.0
C827 C 0.33652 0.69581 0.10256 0.0
C828 C 0.39576 0.64406 0.17288 0.0
C829 C 0.42531 0.65439 0.17042 0.0
C830 C 0.37459 0.6464 0.14995 0.0
C831 C 0.38357 0.6589 0.12401 0.0
C832 C 0.41211 0.67179 0.12304 0.0
C833 C 0.43241 0.66954 0.14631 0.0
C834 C 0.34376 0.63355 0.15257 0.0
C835 C 0.42292 0.68541 0.09611 0.0
H836 H 0.36906 0.61475 0.03835 0.0
H837 H 0.32206 0.6862 0.04713 0.0
H838 H 0.41877 0.6214 0.09431 0.0
H839 H 0.38741 0.60491 0.11096 0.0
H840 H 0.39867 0.59697 0.07474 0.0
H841 H 0.31476 0.70406 0.09437 0.0
H842 H 0.33349 0.69053 0.12558 0.0
H843 H 0.35445 0.7108 0.10129 0.0
H844 H 0.39014 0.63226 0.19141 0.0
H845 H 0.45524 0.67764 0.14441 0.0
H846 H 0.34479 0.61451 0.14233 0.0
H847 H 0.32576 0.64478 0.1414 0.0
H848 H 0.33706 0.63087 0.1755 0.0
H849 H 0.42752 0.67121 0.07898 0.0
H850 H 0.44423 0.69655 0.09982 0.0
H851 H 0.40498 0.6985 0.08797 0.0
C852 C 0.09728 0.82228 0.5476 0.0
C853 C 0.12487 0.81056 0.53935 0.0
C854 C 0.08601 0.82047 0.57592 0.0
C855 C 0.10225 0.80613 0.59684 0.0
C856 C 0.12989 0.79388 0.58874 0.0
C857 C 0.14092 0.79631 0.56018 0.0
C858 C 0.05642 0.8339 0.58336 0.0
C859 C 0.14771 0.77816 0.61022 0.0
C860 C 0.07626 0.82484 0.67206 0.0
C861 C 0.05096 0.80864 0.67577 0.0
C862 C 0.09545 0.82268 0.64768 0.0
C863 C 0.08929 0.80371 0.62675 0.0
C864 C 0.06615 0.78536 0.63249 0.0
C865 C 0.04705 0.78824 0.65672 0.0
C866 C 0.11984 0.84265 0.64269 0.0
C867 C 0.0591 0.7644 0.61134 0.0
H868 H 0.08409 0.83276 0.53174 0.0
H869 H 0.16234 0.78728 0.5543 0.0
H870 H 0.03884 0.81972 0.59002 0.0
H871 H 0.06009 0.84695 0.60179 0.0
H872 H 0.04722 0.84514 0.56497 0.0
H873 H 0.16876 0.7698 0.60064 0.0
H874 H 0.15437 0.79009 0.62887 0.0
H875 H 0.13309 0.76248 0.61869 0.0
H876 H 0.07901 0.84094 0.6864 0.0
H877 H 0.02724 0.77589 0.65929 0.0
H878 H 0.11118 0.85701 0.62708 0.0
H879 H 0.14085 0.83411 0.63336 0.0
H880 H 0.12598 0.85262 0.66296 0.0
H881 H 0.04599 0.77241 0.59294 0.0
H882 H 0.04516 0.74898 0.62138 0.0
H883 H 0.08051 0.75604 0.60261 0.0
C884 C 0.17573 0.23813 0.32922 0.0
C885 C 0.20241 0.24634 0.31489 0.0
C886 C 0.15335 0.22338 0.31515 0.0
C887 C 0.15741 0.21661 0.28583 0.0
C888 C 0.18392 0.22525 0.271 0.0
C889 C 0.20608 0.23989 0.28567 0.0
C890 C 0.12549 0.21464 0.33192 0.0
C891 C 0.1892 0.21858 0.23978 0.0
C892 C 0.11373 0.15615 0.26776 0.0
C893 C 0.08586 0.16582 0.25744 0.0
C894 C 0.13823 0.17238 0.2748 0.0
C895 C 0.13479 0.19908 0.27168 0.0
C896 C 0.10775 0.20876 0.2586 0.0
C897 C 0.08352 0.19197 0.25164 0.0
C898 C 0.16658 0.16102 0.28833 0.0
C899 C 0.10319 0.23701 0.25443 0.0
H900 H 0.17219 0.24336 0.35153 0.0
H901 H 0.22665 0.24583 0.27433 0.0
H902 H 0.10427 0.22085 0.32079 0.0
H903 H 0.12501 0.19351 0.33304 0.0
H904 H 0.12517 0.22219 0.35425 0.0
H905 H 0.20949 0.22856 0.23058 0.0
H906 H 0.19274 0.19773 0.23775 0.0
H907 H 0.16874 0.22353 0.22675 0.0
H908 H 0.11544 0.13596 0.27263 0.0
H909 H 0.06182 0.19958 0.24422 0.0
H910 H 0.16668 0.16522 0.31175 0.0
H911 H 0.18761 0.16959 0.27888 0.0
H912 H 0.16757 0.14002 0.28554 0.0
H913 H 0.098 0.24587 0.27554 0.0
H914 H 0.08394 0.24116 0.23949 0.0
H915 H 0.12437 0.24611 0.24593 0.0
C916 C 0.2993 0.20694 0.7884 0.0
C917 C 0.28097 0.21741 0.81033 0.0
C918 C 0.32341 0.221 0.77563 0.0
C919 C 0.32967 0.24611 0.78509 0.0
C920 C 0.31033 0.25719 0.80617 0.0
C921 C 0.2863 0.2428 0.81842 0.0
C922 C 0.34317 0.20845 0.75308 0.0
C923 C 0.31599 0.2839 0.81693 0.0
C924 C 0.41117 0.27107 0.78925 0.0
C925 C 0.41173 0.29007 0.76787 0.0
C926 C 0.38526 0.25574 0.79384 0.0
C927 C 0.35888 0.25936 0.77659 0.0
C928 C 0.36004 0.27723 0.75344 0.0
C929 C 0.38654 0.29247 0.74934 0.0
C930 C 0.38548 0.23689 0.81857 0.0
C931 C 0.33271 0.28141 0.73417 0.0
H932 H 0.29564 0.18736 0.78194 0.0
H933 H 0.2719 0.2514 0.83474 0.0
H934 H 0.34747 0.22169 0.73478 0.0
H935 H 0.36575 0.20355 0.76258 0.0
H936 H 0.33255 0.19071 0.7447 0.0
H937 H 0.29731 0.29065 0.83129 0.0
H938 H 0.33787 0.28444 0.8291 0.0
H939 H 0.31825 0.29735 0.79853 0.0
H940 H 0.4307 0.26904 0.80352 0.0
H941 H 0.38676 0.30724 0.73294 0.0
H942 H 0.37788 0.21784 0.81116 0.0
H943 H 0.36917 0.24318 0.83547 0.0
H944 H 0.40855 0.23496 0.82845 0.0
H945 H 0.32198 0.26297 0.72823 0.0
H946 H 0.33906 0.2919 0.71416 0.0
H947 H 0.31524 0.2927 0.74589 0.0
C948 C 0.67305 0.22111 0.6611 0.0
C949 C 0.70138 0.21639 0.6744 0.0
C950 C 0.65069 0.23649 0.67423 0.0
C951 C 0.65659 0.2476 0.70147 0.0
C952 C 0.68469 0.24223 0.71552 0.0
C953 C 0.70671 0.22674 0.70185 0.0
C954 C 0.62103 0.2415 0.65844 0.0
C955 C 0.692 0.25363 0.7445 0.0
C956 C 0.61302 0.30953 0.71059 0.0
C957 C 0.58668 0.30161 0.7256 0.0
C958 C 0.63699 0.29256 0.70456 0.0
C959 C 0.63457 0.26678 0.71347 0.0
C960 C 0.60918 0.25917 0.73076 0.0
C961 C 0.5855 0.27675 0.73673 0.0
C962 C 0.66369 0.3018 0.68652 0.0
C963 C 0.60577 0.232 0.741 0.0
H964 H 0.66833 0.21281 0.64022 0.0
H965 H 0.72852 0.22337 0.71233 0.0
H966 H 0.60118 0.23702 0.67259 0.0
H967 H 0.61957 0.262 0.65262 0.0
H968 H 0.61903 0.2301 0.63842 0.0
H969 H 0.71303 0.24527 0.75414 0.0
H970 H 0.69546 0.27449 0.74211 0.0
H971 H 0.67257 0.25074 0.75965 0.0
H972 H 0.61404 0.32877 0.70198 0.0
H973 H 0.56506 0.27046 0.74808 0.0
H974 H 0.66219 0.2934 0.66466 0.0
H975 H 0.68572 0.29556 0.6961 0.0
H976 H 0.66403 0.32289 0.68429 0.0
H977 H 0.59882 0.21985 0.72261 0.0
H978 H 0.58815 0.23015 0.75821 0.0
H979 H 0.6279 0.22457 0.74923 0.0
C980 C 0.79388 0.25588 0.20456 0.0
C981 C 0.77879 0.2465 0.17998 0.0
C982 C 0.81757 0.242 0.21806 0.0
C983 C 0.82687 0.21826 0.2066 0.0
C984 C 0.81098 0.20825 0.18252 0.0
C985 C 0.78716 0.22234 0.16969 0.0
C986 C 0.83349 0.25327 0.2439 0.0
C987 C 0.82003 0.18306 0.16945 0.0
C988 C 0.90951 0.19597 0.2092 0.0
C989 C 0.90784 0.17476 0.22764 0.0
C990 C 0.88381 0.21127 0.20375 0.0
C991 C 0.85546 0.20532 0.21712 0.0
C992 C 0.85427 0.18521 0.23777 0.0
C993 C 0.88051 0.16999 0.24267 0.0
C994 C 0.88649 0.23243 0.18169 0.0
C995 C 0.82479 0.17854 0.25309 0.0
H996 H 0.78795 0.27452 0.21276 0.0
H997 H 0.77527 0.21447 0.15127 0.0
H998 H 0.83627 0.23868 0.26108 0.0
H999 H 0.85677 0.25984 0.2376 0.0
H1000 H 0.82074 0.26975 0.25286 0.0
H1001 H 0.80422 0.1771 0.15197 0.0
H1002 H 0.84356 0.18451 0.16043 0.0
H1003 H 0.82032 0.16795 0.18626 0.0
H1004 H 0.93058 0.19953 0.19735 0.0
H1005 H 0.87896 0.15337 0.25655 0.0
H1006 H 0.87654 0.25032 0.19016 0.0
H1007 H 0.87336 0.22722 0.1621 0.0
H1008 H 0.91067 0.23615 0.17532 0.0
H1009 H 0.81243 0.19601 0.25976 0.0
H1010 H 0.82897 0.16646 0.27242 0.0
H1011 H 0.80963 0.16789 0.2382 0.0
C1012 C 0.77352 0.72685 0.70357 0.0
C1013 C 0.7783 0.71749 0.67556 0.0
C1014 C 0.79588 0.74183 0.71751 0.0
C1015 C 0.82378 0.74768 0.70319 0.0
C1016 C 0.82913 0.73753 0.67536 0.0
C1017 C 0.80643 0.72265 0.66195 0.0
C1018 C 0.78916 0.7522 0.74712 0.0
C1019 C 0.85855 0.74307 0.65926 0.0
C1020 C 0.86826 0.80906 0.71418 0.0
C1021 C 0.89481 0.8005 0.72818 0.0
C1022 C 0.84392 0.79244 0.70798 0.0
C1023 C 0.84618 0.76636 0.71566 0.0
C1024 C 0.87181 0.75805 0.73206 0.0
C1025 C 0.89587 0.77528 0.73822 0.0
C1026 C 0.81699 0.80241 0.69092 0.0
C1027 C 0.87508 0.73053 0.741 0.0
H1028 H 0.75186 0.72315 0.71429 0.0
H1029 H 0.8107 0.71512 0.64061 0.0
H1030 H 0.80882 0.74877 0.76177 0.0
H1031 H 0.78579 0.77312 0.74573 0.0
H1032 H 0.76824 0.74352 0.75677 0.0
H1033 H 0.86011 0.73241 0.63868 0.0
H1034 H 0.8601 0.76376 0.65436 0.0
H1035 H 0.8786 0.73805 0.67281 0.0
H1036 H 0.86742 0.82855 0.70631 0.0
H1037 H 0.91651 0.76848 0.74871 0.0
H1038 H 0.79507 0.79583 0.70059 0.0
H1039 H 0.81806 0.79488 0.66863 0.0
H1040 H 0.81681 0.82357 0.68976 0.0
H1041 H 0.85301 0.72287 0.74927 0.0
H1042 H 0.89294 0.72803 0.75782 0.0
H1043 H 0.88165 0.71903 0.72196 0.0
C1044 C 0.69582 0.72138 0.17324 0.0
C1045 C 0.70407 0.74571 0.18312 0.0
C1046 C 0.67142 0.70765 0.18578 0.0
C1047 C 0.65478 0.71825 0.2091 0.0
C1048 C 0.66401 0.74214 0.22026 0.0
C1049 C 0.68832 0.75563 0.20707 0.0
C1050 C 0.66252 0.68223 0.17312 0.0
C1051 C 0.64728 0.75404 0.24529 0.0
C1052 C 0.57169 0.69708 0.20839 0.0
C1053 C 0.57182 0.67614 0.22728 0.0
C1054 C 0.59797 0.71201 0.2039 0.0
C1055 C 0.62537 0.70594 0.21871 0.0
C1056 C 0.62488 0.68623 0.23987 0.0
C1057 C 0.59802 0.67143 0.24387 0.0
C1058 C 0.59702 0.73288 0.18137 0.0
C1059 C 0.65327 0.67951 0.25673 0.0
H1060 H 0.70822 0.71312 0.15532 0.0
H1061 H 0.69419 0.77442 0.21495 0.0
H1062 H 0.66098 0.66755 0.19035 0.0
H1063 H 0.63953 0.68373 0.16302 0.0
H1064 H 0.67909 0.67569 0.15654 0.0
H1065 H 0.66022 0.77033 0.25452 0.0
H1066 H 0.62461 0.76108 0.23796 0.0
H1067 H 0.64308 0.73973 0.26255 0.0
H1068 H 0.55139 0.70077 0.19554 0.0
H1069 H 0.59831 0.65514 0.25833 0.0
H1070 H 0.61108 0.72723 0.1625 0.0
H1071 H 0.60689 0.75078 0.18997 0.0
H1072 H 0.57331 0.7368 0.17384 0.0
H1073 H 0.66875 0.668 0.24298 0.0
H1074 H 0.64763 0.66819 0.27635 0.0
H1075 H 0.66595 0.69692 0.26318 0.0
C1076 C 0.30994 0.74332 0.33224 0.0
C1077 C 0.28268 0.74997 0.31803 0.0
C1078 C 0.33234 0.72812 0.31885 0.0
C1079 C 0.32761 0.7192 0.29038 0.0
C1080 C 0.30057 0.72639 0.27558 0.0
C1081 C 0.27847 0.74161 0.28953 0.0
C1082 C 0.36082 0.72106 0.33552 0.0
C1083 C 0.2945 0.71734 0.24529 0.0
C1084 C 0.39968 0.69162 0.25519 0.0
C1085 C 0.39731 0.66595 0.26339 0.0
C1086 C 0.3762 0.7091 0.26212 0.0
C1087 C 0.3498 0.70061 0.27744 0.0
C1088 C 0.34632 0.67426 0.28337 0.0
C1089 C 0.37012 0.65737 0.27646 0.0
C1090 C 0.38081 0.73694 0.25511 0.0
C1091 C 0.31856 0.66412 0.29924 0.0
H1092 H 0.31385 0.75003 0.35398 0.0
H1093 H 0.25747 0.74638 0.27832 0.0
H1094 H 0.36135 0.70015 0.33915 0.0
H1095 H 0.38161 0.72621 0.32295 0.0
H1096 H 0.36194 0.73067 0.35677 0.0
H1097 H 0.27404 0.72662 0.23565 0.0
H1098 H 0.31465 0.72122 0.2313 0.0
H1099 H 0.29076 0.69642 0.24545 0.0
H1100 H 0.42084 0.69841 0.24552 0.0
H1101 H 0.36831 0.63755 0.28299 0.0
H1102 H 0.38669 0.74735 0.27511 0.0
H1103 H 0.35942 0.74541 0.24644 0.0
H1104 H 0.39959 0.73992 0.23923 0.0
H1105 H 0.31924 0.67057 0.32198 0.0
H1106 H 0.31756 0.64296 0.29911 0.0
H1107 H 0.29717 0.67163 0.28953 0.0
C1108 C 0.18042 0.7048 0.79063 0.0
C1109 C 0.1986 0.71545 0.81252 0.0
C1110 C 0.15644 0.71872 0.77766 0.0
C1111 C 0.15016 0.74388 0.7869 0.0
C1112 C 0.16941 0.75516 0.8079 0.0
C1113 C 0.19332 0.7409 0.82033 0.0
C1114 C 0.13681 0.70598 0.75517 0.0
C1115 C 0.16373 0.78192 0.81843 0.0
C1116 C 0.09345 0.78985 0.75084 0.0
C1117 C 0.06818 0.78747 0.76938 0.0
C1118 C 0.11993 0.77472 0.75504 0.0
C1119 C 0.12099 0.75697 0.77829 0.0
C1120 C 0.09452 0.75333 0.79554 0.0
C1121 C 0.06862 0.76852 0.79084 0.0
C1122 C 0.14734 0.77889 0.73573 0.0
C1123 C 0.09419 0.73458 0.82038 0.0
H1124 H 0.18404 0.68517 0.78438 0.0
H1125 H 0.20762 0.74964 0.83662 0.0
H1126 H 0.11422 0.70095 0.7647 0.0
H1127 H 0.13252 0.71912 0.73681 0.0
H1128 H 0.14753 0.68828 0.74686 0.0
H1129 H 0.18235 0.78883 0.83272 0.0
H1130 H 0.16156 0.79524 0.79991 0.0
H1131 H 0.1418 0.78247 0.83058 0.0
H1132 H 0.09333 0.80454 0.73433 0.0
H1133 H 0.04901 0.76643 0.80508 0.0
H1134 H 0.15813 0.76047 0.72998 0.0
H1135 H 0.16473 0.79037 0.74734 0.0
H1136 H 0.14106 0.78919 0.71562 0.0
H1137 H 0.10177 0.71552 0.81308 0.0
H1138 H 0.07108 0.73265 0.8303 0.0
H1139 H 0.11047 0.74099 0.83723 0.0
loop_
_geom_bond_atom_site_label_1
_geom_bond_atom_site_label_2
_geom_bond_distance
_geom_bond_site_symmetry_2
_ccdc_geom_bond_type
C0 C1 1.384 . S
C0 H13 0.947 . S
C0 C35 1.382 . S
C1 C0 1.384 . S
C1 C2 1.378 . S
C2 C1 1.378 . S
C2 C3 1.378 . S
C2 H14 0.952 . S
C3 C2 1.378 . S
C3 H15 0.950 . S
C3 C34 1.383 . S
H4 C23 0.947 . S
H5 C24 0.946 . S
H6 C26 0.953 . S
H7 C27 0.945 . S
H8 C29 0.952 . S
H9 C30 0.949 . S
H10 C32 0.950 . S
H11 C33 0.948 . S
H12 C35 0.951 . S
H13 C0 0.947 . S
H14 C2 0.952 . S
H15 C3 0.950 . S
N16 C19 1.382 . S
N16 C21 1.363 . S
N17 C19 1.371 . S
N17 C20 1.372 . S
N18 C20 1.361 . S
N18 C21 1.377 . S
C19 N16 1.382 . S
C19 N17 1.371 . S
C19 C22 1.480 . S
C20 N17 1.372 . S
C20 N18 1.361 . S
C20 C28 1.457 . S
C21 N16 1.363 . S
C21 N18 1.377 . S
C21 C34 1.479 . S
C22 C19 1.480 . S
C22 C23 1.383 . S
C22 C27 1.385 . S
C23 H4 0.947 . S
C23 C22 1.383 . S
C23 C24 1.388 . S
C24 H5 0.946 . S
C24 C23 1.388 . S
C24 C25 1.384 . S
C25 C24 1.384 . S
C25 C26 1.377 . S
C26 H6 0.953 . S
C26 C25 1.377 . S
C26 C27 1.369 . S
C27 H7 0.945 . S
C27 C22 1.385 . S
C27 C26 1.369 . S
C28 C20 1.457 . S
C28 C29 1.372 . S
C28 C33 1.364 . S
C29 H8 0.952 . S
C29 C28 1.372 . S
C29 C30 1.389 . S
C30 H9 0.949 . S
C30 C29 1.389 . S
C30 C31 1.387 . S
C31 C30 1.387 . S
C31 C32 1.372 . S
C32 H10 0.950 . S
C32 C31 1.372 . S
C32 C33 1.379 . S
C33 H11 0.948 . S
C33 C28 1.364 . S
C33 C32 1.379 . S
C34 C3 1.383 . S
C34 C21 1.479 . S
C34 C35 1.398 . S
C35 C0 1.382 . S
C35 H12 0.951 . S
C35 C34 1.398 . S
C36 C37 1.384 1_556 S
C36 H49 0.947 . S
C36 C71 1.382 . S
C37 C36 1.384 1_554 S
C37 C38 1.378 1_554 S
C38 C37 1.378 1_556 S
C38 C39 1.378 . S
C38 H50 0.935 1_556 S
C39 C38 1.378 . S
C39 H51 0.950 . S
C39 C70 1.383 . S
H40 C59 0.947 . S
H41 C60 0.946 . S
H42 C62 0.953 . S
H43 C63 0.945 . S
H44 C65 0.952 . S
H45 C66 0.949 . S
H46 C68 0.950 . S
H47 C69 0.948 . S
H48 C71 0.951 . S
H49 C36 0.947 . S
H50 C38 0.935 1_554 S
H51 C39 0.950 . S
N52 C55 1.382 . S
N52 C57 1.363 . S
N53 C55 1.371 . S
N53 C56 1.372 . S
N54 C56 1.361 . S
N54 C57 1.377 . S
C55 N52 1.382 . S
C55 N53 1.371 . S
C55 C58 1.480 . S
C56 N53 1.372 . S
C56 N54 1.361 . S
C56 C64 1.457 . S
C57 N52 1.363 . S
C57 N54 1.377 . S
C57 C70 1.479 . S
C58 C55 1.480 . S
C58 C59 1.383 . S
C58 C63 1.385 . S
C59 H40 0.947 . S
C59 C58 1.383 . S
C59 C60 1.388 . S
C60 H41 0.946 . S
C60 C59 1.388 . S
C60 C61 1.384 . S
C61 C60 1.384 . S
C61 C62 1.377 . S
C62 H42 0.953 . S
C62 C61 1.377 . S
C62 C63 1.369 . S
C63 H43 0.945 . S
C63 C58 1.385 . S
C63 C62 1.369 . S
C64 C56 1.457 . S
C64 C65 1.372 . S
C64 C69 1.364 . S
C65 H44 0.952 . S
C65 C64 1.372 . S
C65 C66 1.389 . S
C66 H45 0.949 . S
C66 C65 1.389 . S
C66 C67 1.387 . S
C67 C66 1.387 . S
C67 C68 1.372 . S
C68 H46 0.950 . S
C68 C67 1.372 . S
C68 C69 1.379 . S
C69 H47 0.948 . S
C69 C64 1.364 . S
C69 C68 1.379 . S
C70 C39 1.383 . S
C70 C57 1.479 . S
C70 C71 1.398 . S
C71 C36 1.382 . S
C71 H48 0.951 . S
C71 C70 1.398 . S
C72 C73 1.384 . S
C72 H85 0.947 . S
C72 C107 1.382 . S
C73 C72 1.384 . S
C73 C74 1.378 . S
C74 C73 1.378 . S
C74 C75 1.378 . S
C74 H86 0.952 . S
C75 C74 1.378 . S
C75 H87 0.950 . S
C75 C106 1.383 . S
H76 C95 0.947 . S
H77 C96 0.946 . S
H78 C98 0.953 . S
H79 C99 0.945 . S
H80 C101 0.952 . S
H81 C102 0.949 . S
H82 C104 0.950 . S
H83 C105 0.948 . S
H84 C107 0.951 . S
H85 C72 0.947 . S
H86 C74 0.952 . S
H87 C75 0.950 . S
N88 C91 1.382 . S
N88 C93 1.363 . S
N89 C91 1.371 . S
N89 C92 1.372 . S
N90 C92 1.361 . S
N90 C93 1.377 . S
C91 N88 1.382 . S
C91 N89 1.371 . S
C91 C94 1.480 . S
C92 N89 1.372 . S
C92 N90 1.361 . S
C92 C100 1.457 . S
C93 N88 1.363 . S
C93 N90 1.377 . S
C93 C106 1.479 . S
C94 C91 1.480 . S
C94 C95 1.383 . S
C94 C99 1.385 . S
C95 H76 0.947 . S
C95 C94 1.383 . S
C95 C96 1.388 . S
C96 H77 0.946 . S
C96 C95 1.388 . S
C96 C97 1.384 . S
C97 C96 1.384 . S
C97 C98 1.377 . S
C98 H78 0.953 . S
C98 C97 1.377 . S
C98 C99 1.369 . S
C99 H79 0.945 . S
C99 C94 1.385 . S
C99 C98 1.369 . S
C100 C92 1.457 . S
C100 C101 1.372 . S
C100 C105 1.364 . S
C101 H80 0.952 . S
C101 C100 1.372 . S
C101 C102 1.389 . S
C102 H81 0.949 . S
C102 C101 1.389 . S
C102 C103 1.387 . S
C103 C102 1.387 . S
C103 C104 1.372 . S
C104 H82 0.950 . S
C104 C103 1.372 . S
C104 C105 1.379 . S
C105 H83 0.948 . S
C105 C100 1.364 . S
C105 C104 1.379 . S
C106 C75 1.383 . S
C106 C93 1.479 . S
C106 C107 1.398 . S
C107 C72 1.382 . S
C107 H84 0.951 . S
C107 C106 1.398 . S
C108 C109 1.384 1_554 S
C108 H121 0.947 . S
C108 C143 1.382 . S
C109 C108 1.384 1_556 S
C109 C110 1.379 1_556 S
C110 C109 1.379 1_554 S
C110 C111 1.378 . S
C110 H122 0.952 . S
C111 C110 1.378 . S
C111 H123 0.950 . S
C111 C142 1.383 . S
H112 C131 0.947 . S
H113 C132 0.946 . S
H114 C134 0.953 . S
H115 C135 0.945 . S
H116 C137 0.952 . S
H117 C138 0.949 . S
H118 C140 0.950 . S
H119 C141 0.948 . S
H120 C143 0.951 . S
H121 C108 0.947 . S
H122 C110 0.952 . S
H123 C111 0.950 . S
N124 C127 1.382 . S
N124 C129 1.363 . S
N125 C127 1.371 . S
N125 C128 1.372 . S
N126 C128 1.361 . S
N126 C129 1.377 . S
C127 N124 1.382 . S
C127 N125 1.371 . S
C127 C130 1.480 . S
C128 N125 1.372 . S
C128 N126 1.361 . S
C128 C136 1.457 . S
C129 N124 1.363 . S
C129 N126 1.377 . S
C129 C142 1.479 . S
C130 C127 1.480 . S
C130 C131 1.383 . S
C130 C135 1.385 . S
C131 H112 0.947 . S
C131 C130 1.383 . S
C131 C132 1.388 . S
C132 H113 0.946 . S
C132 C131 1.388 . S
C132 C133 1.384 . S
C133 C132 1.384 . S
C133 C134 1.377 . S
C134 H114 0.953 . S
C134 C133 1.377 . S
C134 C135 1.369 . S
C135 H115 0.945 . S
C135 C130 1.385 . S
C135 C134 1.369 . S
C136 C128 1.457 . S
C136 C137 1.372 . S
C136 C141 1.364 . S
C137 H116 0.952 . S
C137 C136 1.372 . S
C137 C138 1.389 . S
C138 H117 0.949 . S
C138 C137 1.389 . S
C138 C139 1.387 . S
C139 C138 1.387 . S
C139 C140 1.372 . S
C140 H118 0.950 . S
C140 C139 1.372 . S
C140 C141 1.379 . S
C141 H119 0.948 . S
C141 C136 1.364 . S
C141 C140 1.379 . S
C142 C111 1.383 . S
C142 C129 1.479 . S
C142 C143 1.398 . S
C143 C108 1.382 . S
C143 H120 0.951 . S
C143 C142 1.398 . S
C144 C145 1.384 . S
C144 H157 0.947 . S
C144 C179 1.382 . S
C145 C144 1.384 . S
C145 C146 1.378 . S
C146 C145 1.378 . S
C146 C147 1.378 . S
C146 H158 0.952 . S
C147 C146 1.378 . S
C147 H159 0.950 . S
C147 C178 1.383 . S
H148 C167 0.947 . S
H149 C168 0.946 . S
H150 C170 0.953 . S
H151 C171 0.945 . S
H152 C173 0.952 . S
H153 C174 0.949 . S
H154 C176 0.950 . S
H155 C177 0.948 . S
H156 C179 0.951 . S
H157 C144 0.947 . S
H158 C146 0.952 . S
H159 C147 0.950 . S
N160 C163 1.382 . S
N160 C165 1.363 . S
N161 C163 1.371 . S
N161 C164 1.372 . S
N162 C164 1.361 . S
N162 C165 1.377 . S
C163 N160 1.382 . S
C163 N161 1.371 . S
C163 C166 1.480 . S
C164 N161 1.372 . S
C164 N162 1.361 . S
C164 C172 1.457 . S
C165 N160 1.363 . S
C165 N162 1.377 . S
C165 C178 1.479 . S
C166 C163 1.480 . S
C166 C167 1.383 . S
C166 C171 1.385 . S
C167 H148 0.947 . S
C167 C166 1.383 . S
C167 C168 1.388 . S
C168 H149 0.946 . S
C168 C167 1.388 . S
C168 C169 1.384 . S
C169 C168 1.384 . S
C169 C170 1.377 . S
C170 H150 0.953 . S
C170 C169 1.377 . S
C170 C171 1.369 . S
C171 H151 0.945 . S
C171 C166 1.385 . S
C171 C170 1.369 . S
C172 C164 1.457 . S
C172 C173 1.372 . S
C172 C177 1.364 . S
C173 H152 0.952 . S
C173 C172 1.372 . S
C173 C174 1.389 . S
C174 H153 0.949 . S
C174 C173 1.389 . S
C174 C175 1.387 . S
C175 C174 1.387 . S
C175 C176 1.372 . S
C176 H154 0.950 . S
C176 C175 1.372 . S
C176 C177 1.379 . S
C177 H155 0.948 . S
C177 C172 1.364 . S
C177 C176 1.379 . S
C178 C147 1.383 . S
C178 C165 1.479 . S
C178 C179 1.398 . S
C179 C144 1.382 . S
C179 H156 0.951 . S
C179 C178 1.398 . S
C180 C181 1.384 1_554 S
C180 H193 0.947 . S
C180 C215 1.382 . S
C181 C180 1.384 1_556 S
C181 C182 1.378 1_556 S
C182 C181 1.378 1_554 S
C182 C183 1.378 . S
C182 H194 0.952 1_554 S
C183 C182 1.378 . S
C183 H195 0.950 . S
C183 C214 1.383 . S
H184 C203 0.947 . S
H185 C204 0.946 . S
H186 C206 0.953 . S
H187 C207 0.945 . S
H188 C209 0.952 . S
H189 C210 0.949 . S
H190 C212 0.950 . S
H191 C213 0.948 . S
H192 C215 0.951 . S
H193 C180 0.947 . S
H194 C182 0.952 1_556 S
H195 C183 0.950 . S
N196 C199 1.382 . S
N196 C201 1.363 . S
N197 C199 1.371 . S
N197 C200 1.372 . S
N198 C200 1.361 . S
N198 C201 1.377 . S
C199 N196 1.382 . S
C199 N197 1.371 . S
C199 C202 1.480 . S
C200 N197 1.372 . S
C200 N198 1.361 . S
C200 C208 1.457 . S
C201 N196 1.363 . S
C201 N198 1.377 . S
C201 C214 1.479 . S
C202 C199 1.480 . S
C202 C203 1.383 . S
C202 C207 1.385 . S
C203 H184 0.947 . S
C203 C202 1.383 . S
C203 C204 1.388 . S
C204 H185 0.946 . S
C204 C203 1.388 . S
C204 C205 1.384 . S
C205 C204 1.384 . S
C205 C206 1.377 . S
C206 H186 0.953 . S
C206 C205 1.377 . S
C206 C207 1.369 . S
C207 H187 0.945 . S
C207 C202 1.385 . S
C207 C206 1.369 . S
C208 C200 1.457 . S
C208 C209 1.372 . S
C208 C213 1.364 . S
C209 H188 0.952 . S
C209 C208 1.372 . S
C209 C210 1.389 . S
C210 H189 0.949 . S
C210 C209 1.389 . S
C210 C211 1.387 . S
C211 C210 1.387 . S
C211 C212 1.372 . S
C212 H190 0.950 . S
C212 C211 1.372 . S
C212 C213 1.379 . S
C213 H191 0.948 . S
C213 C208 1.364 . S
C213 C212 1.379 . S
C214 C183 1.383 . S
C214 C201 1.479 . S
C214 C215 1.398 . S
C215 C180 1.382 . S
C215 H192 0.951 . S
C215 C214 1.398 . S
C216 C217 1.384 . S
C216 H229 0.947 . S
C216 C251 1.382 . S
C217 C216 1.384 . S
C217 C218 1.378 . S
C218 C217 1.378 . S
C218 C219 1.378 . S
C218 H230 0.952 . S
C219 C218 1.378 . S
C219 H231 0.950 . S
C219 C250 1.383 . S
H220 C239 0.947 . S
H221 C240 0.946 . S
H222 C242 0.953 . S
H223 C243 0.945 . S
H224 C245 0.952 . S
H225 C246 0.949 . S
H226 C248 0.950 . S
H227 C249 0.948 . S
H228 C251 0.951 . S
H229 C216 0.947 . S
H230 C218 0.952 . S
H231 C219 0.950 . S
N232 C235 1.382 . S
N232 C237 1.363 . S
N233 C235 1.371 . S
N233 C236 1.372 . S
N234 C236 1.361 . S
N234 C237 1.377 . S
C235 N232 1.382 . S
C235 N233 1.371 . S
C235 C238 1.480 . S
C236 N233 1.372 . S
C236 N234 1.361 . S
C236 C244 1.457 . S
C237 N232 1.363 . S
C237 N234 1.377 . S
C237 C250 1.479 . S
C238 C235 1.480 . S
C238 C239 1.383 . S
C238 C243 1.385 . S
C239 H220 0.947 . S
C239 C238 1.383 . S
C239 C240 1.388 . S
C240 H221 0.946 . S
C240 C239 1.388 . S
C240 C241 1.384 . S
C241 C240 1.384 . S
C241 C242 1.377 . S
C242 H222 0.953 . S
C242 C241 1.377 . S
C242 C243 1.369 . S
C243 H223 0.945 . S
C243 C238 1.385 . S
C243 C242 1.369 . S
C244 C236 1.457 . S
C244 C245 1.372 . S
C244 C249 1.364 . S
C245 H224 0.952 . S
C245 C244 1.372 . S
C245 C246 1.389 . S
C246 H225 0.949 . S
C246 C245 1.389 . S
C246 C247 1.387 . S
C247 C246 1.387 . S
C247 C248 1.372 . S
C248 H226 0.950 . S
C248 C247 1.372 . S
C248 C249 1.379 . S
C249 H227 0.948 . S
C249 C244 1.364 . S
C249 C248 1.379 . S
C250 C219 1.383 . S
C250 C237 1.479 . S
C250 C251 1.398 . S
C251 C216 1.382 . S
C251 H228 0.951 . S
C251 C250 1.398 . S
C252 C253 1.384 1_556 S
C252 H265 0.947 . S
C252 C287 1.382 . S
C253 C252 1.384 1_554 S
C253 C254 1.378 1_554 S
C254 C253 1.378 1_556 S
C254 C255 1.378 . S
C254 H266 0.952 1_556 S
C255 C254 1.378 . S
C255 H267 0.950 . S
C255 C286 1.383 . S
H256 C275 0.947 . S
H257 C276 0.946 . S
H258 C278 0.953 . S
H259 C279 0.945 . S
H260 C281 0.952 . S
H261 C282 0.949 . S
H262 C284 0.950 . S
H263 C285 0.948 . S
H264 C287 0.951 . S
H265 C252 0.947 . S
H266 C254 0.952 1_554 S
H267 C255 0.950 . S
N268 C271 1.382 . S
N268 C273 1.363 . S
N269 C271 1.371 . S
N269 C272 1.372 . S
N270 C272 1.361 . S
N270 C273 1.377 . S
C271 N268 1.382 . S
C271 N269 1.371 . S
C271 C274 1.480 . S
C272 N269 1.372 . S
C272 N270 1.361 . S
C272 C280 1.457 . S
C273 N268 1.363 . S
C273 N270 1.377 . S
C273 C286 1.479 . S
C274 C271 1.480 . S
C274 C275 1.383 . S
C274 C279 1.385 . S
C275 H256 0.947 . S
C275 C274 1.383 . S
C275 C276 1.388 . S
C276 H257 0.946 . S
C276 C275 1.388 . S
C276 C277 1.384 . S
C277 C276 1.384 . S
C277 C278 1.377 . S
C278 H258 0.953 . S
C278 C277 1.377 . S
C278 C279 1.369 . S
C279 H259 0.945 . S
C279 C274 1.385 . S
C279 C278 1.369 . S
C280 C272 1.457 . S
C280 C281 1.372 . S
C280 C285 1.364 . S
C281 H260 0.952 . S
C281 C280 1.372 . S
C281 C282 1.389 . S
C282 H261 0.949 . S
C282 C281 1.389 . S
C282 C283 1.387 . S
C283 C282 1.387 . S
C283 C284 1.372 . S
C284 H262 0.950 . S
C284 C283 1.372 . S
C284 C285 1.379 . S
C285 H263 0.948 . S
C285 C280 1.364 . S
C285 C284 1.379 . S
C286 C255 1.383 . S
C286 C273 1.479 . S
C286 C287 1.398 . S
C287 C252 1.382 . S
C287 H264 0.951 . S
C287 C286 1.398 . S
Zn288 O294 1.920 1_455 S
Zn288 O300 1.898 . S
Zn288 O303 1.905 . S
Zn289 O297 1.905 1_655 S
Zn289 O298 1.898 . S
Zn289 O306 1.920 . S
Zn290 O293 2.080 1_455 S
Zn290 O296 2.114 . S
Zn290 O299 2.120 1_455 S
Zn290 O301 2.120 . S
Zn290 O302 2.114 . S
Zn290 O305 2.080 1_455 S
C291 O296 1.166 . S
C291 O297 1.182 . S
C292 O298 1.167 . S
C292 O299 1.299 . S
O293 Zn290 2.080 1_655 S
O293 C307 1.305 . S
O294 Zn288 1.920 1_655 S
O294 C307 1.234 . S
C295 O300 1.167 . S
C295 O301 1.299 . S
O296 Zn290 2.114 . S
O296 C291 1.166 . S
O297 Zn289 1.905 1_455 S
O297 C291 1.182 . S
O298 Zn289 1.898 . S
O298 C292 1.167 . S
O299 Zn290 2.120 1_655 S
O299 C292 1.299 . S
O300 Zn288 1.898 . S
O300 C295 1.167 . S
O301 Zn290 2.120 . S
O301 C295 1.299 . S
O302 Zn290 2.114 . S
O302 C304 1.166 . S
O303 Zn288 1.905 . S
O303 C304 1.182 . S
C304 O302 1.166 . S
C304 O303 1.182 . S
O305 Zn290 2.080 1_655 S
O305 C308 1.305 . S
O306 Zn289 1.920 . S
O306 C308 1.234 . S
C307 O293 1.305 . S
C307 O294 1.234 . S
C308 O305 1.305 . S
C308 O306 1.234 . S
Zn309 O315 1.920 . S
Zn309 O321 1.898 . S
Zn309 O324 1.905 . S
Zn310 O318 1.905 . S
Zn310 O319 1.898 . S
Zn310 O327 1.920 . S
Zn311 O314 2.080 . S
Zn311 O317 2.114 . S
Zn311 O320 2.120 . S
Zn311 O322 2.120 . S
Zn311 O323 2.114 . S
Zn311 O326 2.080 . S
C312 O317 1.166 . S
C312 O318 1.182 . S
C313 O319 1.167 . S
C313 O320 1.299 . S
O314 Zn311 2.080 . S
O314 C328 1.305 . S
O315 Zn309 1.920 . S
O315 C328 1.234 . S
C316 O321 1.167 . S
C316 O322 1.299 . S
O317 Zn311 2.114 . S
O317 C312 1.166 . S
O318 Zn310 1.905 . S
O318 C312 1.182 . S
O319 Zn310 1.898 . S
O319 C313 1.167 . S
O320 Zn311 2.120 . S
O320 C313 1.299 . S
O321 Zn309 1.898 . S
O321 C316 1.167 . S
O322 Zn311 2.120 . S
O322 C316 1.299 . S
O323 Zn311 2.114 . S
O323 C325 1.166 . S
O324 Zn309 1.905 . S
O324 C325 1.182 . S
C325 O323 1.166 . S
C325 O324 1.182 . S
O326 Zn311 2.080 . S
O326 C329 1.305 . S
O327 Zn310 1.920 . S
O327 C329 1.234 . S
C328 O314 1.305 . S
C328 O315 1.234 . S
C329 O326 1.305 . S
C329 O327 1.234 . S
Zn330 O336 1.920 . S
Zn330 O342 1.898 . S
Zn330 O345 1.905 1_455 S
Zn331 O339 1.905 . S
Zn331 O340 1.898 . S
Zn331 O348 1.920 1_655 S
Zn332 O335 2.080 . S
Zn332 O338 2.114 1_455 S
Zn332 O341 2.120 1_455 S
Zn332 O343 2.120 . S
Zn332 O344 2.114 1_455 S
Zn332 O347 2.080 . S
C333 O338 1.166 . S
C333 O339 1.182 . S
C334 O340 1.167 . S
C334 O341 1.299 . S
O335 Zn332 2.080 . S
O335 C349 1.305 . S
O336 Zn330 1.920 . S
O336 C349 1.234 . S
C337 O342 1.167 . S
C337 O343 1.299 . S
O338 Zn332 2.114 1_655 S
O338 C333 1.166 . S
O339 Zn331 1.905 . S
O339 C333 1.182 . S
O340 Zn331 1.898 . S
O340 C334 1.167 . S
O341 Zn332 2.120 1_655 S
O341 C334 1.299 . S
O342 Zn330 1.898 . S
O342 C337 1.167 . S
O343 Zn332 2.120 . S
O343 C337 1.299 . S
O344 Zn332 2.114 1_655 S
O344 C346 1.166 . S
O345 Zn330 1.905 1_655 S
O345 C346 1.182 . S
C346 O344 1.166 . S
C346 O345 1.182 . S
O347 Zn332 2.080 . S
O347 C350 1.305 . S
O348 Zn331 1.920 1_455 S
O348 C350 1.234 . S
C349 O335 1.305 . S
C349 O336 1.234 . S
C350 O347 1.305 . S
C350 O348 1.234 . S
Zn351 O357 1.920 . S
Zn351 O363 1.898 . S
Zn351 O366 1.905 . S
Zn352 O360 1.905 . S
Zn352 O361 1.898 . S
Zn352 O369 1.920 . S
Zn353 O356 2.080 . S
Zn353 O359 2.114 . S
Zn353 O362 2.120 . S
Zn353 O364 2.120 . S
Zn353 O365 2.114 . S
Zn353 O368 2.080 . S
C354 O359 1.166 . S
C354 O360 1.182 . S
C355 O361 1.167 . S
C355 O362 1.299 . S
O356 Zn353 2.080 . S
O356 C370 1.305 . S
O357 Zn351 1.920 . S
O357 C370 1.234 . S
C358 O363 1.167 . S
C358 O364 1.299 . S
O359 Zn353 2.114 . S
O359 C354 1.166 . S
O360 Zn352 1.905 . S
O360 C354 1.182 . S
O361 Zn352 1.898 . S
O361 C355 1.167 . S
O362 Zn353 2.120 . S
O362 C355 1.299 . S
O363 Zn351 1.898 . S
O363 C358 1.167 . S
O364 Zn353 2.120 . S
O364 C358 1.299 . S
O365 Zn353 2.114 . S
O365 C367 1.166 . S
O366 Zn351 1.905 . S
O366 C367 1.182 . S
C367 O365 1.166 . S
C367 O366 1.182 . S
O368 Zn353 2.080 . S
O368 C371 1.305 . S
O369 Zn352 1.920 . S
O369 C371 1.234 . S
C370 O356 1.305 . S
C370 O357 1.234 . S
C371 O368 1.305 . S
C371 O369 1.234 . S
C372 C373 1.391 . S
C372 C374 1.399 . S
C372 H388 0.931 . S
C373 C372 1.391 . S
C373 C377 1.376 . S
C374 C372 1.399 . S
C374 C375 1.368 1_565 S
C374 C378 1.526 1_565 S
C375 C374 1.368 1_545 S
C375 C376 1.410 1_545 S
C375 C383 1.503 . S
C376 C375 1.410 1_565 S
C376 C377 1.392 . S
C376 C379 1.511 . S
C377 C373 1.376 . S
C377 C376 1.392 . S
C377 H389 0.929 . S
C378 C374 1.526 1_545 S
C378 H390 0.960 . S
C378 H391 0.962 . S
C378 H392 0.960 . S
C379 C376 1.511 . S
C379 H393 0.961 . S
C379 H394 0.961 1_565 S
C379 H395 0.961 . S
C380 C381 1.370 . S
C380 C382 1.363 . S
C380 H396 0.931 . S
C381 C380 1.370 . S
C381 C385 1.408 . S
C382 C380 1.363 . S
C382 C383 1.370 . S
C382 C386 1.524 . S
C383 C375 1.503 . S
C383 C382 1.370 . S
C383 C384 1.403 . S
C384 C383 1.403 . S
C384 C385 1.404 . S
C384 C387 1.539 . S
C385 C381 1.408 . S
C385 C384 1.404 . S
C385 H397 0.930 . S
C386 C382 1.524 . S
C386 H398 0.956 . S
C386 H399 0.961 . S
C386 H400 0.961 . S
C387 C384 1.539 . S
C387 H401 0.958 . S
C387 H402 0.961 . S
C387 H403 0.960 1_545 S
H388 C372 0.931 . S
H389 C377 0.929 . S
H390 C378 0.960 . S
H391 C378 0.962 . S
H392 C378 0.960 . S
H393 C379 0.961 . S
H394 C379 0.961 1_545 S
H395 C379 0.961 . S
H396 C380 0.931 . S
H397 C385 0.930 . S
H398 C386 0.956 . S
H399 C386 0.961 . S
H400 C386 0.961 . S
H401 C387 0.958 . S
H402 C387 0.961 . S
H403 C387 0.960 1_565 S
C404 C405 1.391 . S
C404 C406 1.394 . S
C404 H420 0.931 . S
C405 C404 1.391 . S
C405 C409 1.376 . S
C406 C404 1.394 . S
C406 C407 1.369 . S
C406 C410 1.531 . S
C407 C406 1.369 . S
C407 C408 1.410 . S
C407 C415 1.503 . S
C408 C407 1.410 . S
C408 C409 1.392 . S
C408 C411 1.511 . S
C409 C405 1.376 . S
C409 C408 1.392 . S
C409 H421 0.929 . S
C410 C406 1.531 . S
C410 H422 0.960 . S
C410 H423 0.962 . S
C410 H424 0.960 . S
C411 C408 1.511 . S
C411 H425 0.961 . S
C411 H426 0.961 . S
C411 H427 0.961 . S
C412 C413 1.370 . S
C412 C414 1.363 . S
C412 H428 0.931 . S
C413 C412 1.370 . S
C413 C417 1.408 . S
C414 C412 1.363 . S
C414 C415 1.370 . S
C414 C418 1.524 . S
C415 C407 1.503 . S
C415 C414 1.370 . S
C415 C416 1.403 . S
C416 C415 1.403 . S
C416 C417 1.404 . S
C416 C419 1.539 . S
C417 C413 1.408 . S
C417 C416 1.404 . S
C417 H429 0.930 . S
C418 C414 1.524 . S
C418 H430 0.956 . S
C418 H431 0.961 . S
C418 H432 0.961 . S
C419 C416 1.539 . S
C419 H433 0.958 . S
C419 H434 0.961 . S
C419 H435 0.960 . S
H420 C404 0.931 . S
H421 C409 0.929 . S
H422 C410 0.960 . S
H423 C410 0.962 . S
H424 C410 0.960 . S
H425 C411 0.961 . S
H426 C411 0.961 . S
H427 C411 0.961 . S
H428 C412 0.931 . S
H429 C417 0.930 . S
H430 C418 0.956 . S
H431 C418 0.961 . S
H432 C418 0.961 . S
H433 C419 0.958 . S
H434 C419 0.961 . S
H435 C419 0.960 . S
C436 C437 1.391 . S
C436 C438 1.394 . S
C436 H452 0.931 . S
C437 C436 1.391 . S
C437 C441 1.376 . S
C438 C436 1.394 . S
C438 C439 1.369 . S
C438 C442 1.531 . S
C439 C438 1.369 . S
C439 C440 1.410 . S
C439 C447 1.503 . S
C440 C439 1.410 . S
C440 C441 1.392 . S
C440 C443 1.511 . S
C441 C437 1.376 . S
C441 C440 1.392 . S
C441 H453 0.929 . S
C442 C438 1.531 . S
C442 H454 0.960 . S
C442 H455 0.962 . S
C442 H456 0.960 . S
C443 C440 1.511 . S
C443 H457 0.961 . S
C443 H458 0.961 . S
C443 H459 0.961 . S
C444 C445 1.370 . S
C444 C446 1.363 . S
C444 H460 0.931 . S
C445 C444 1.370 . S
C445 C449 1.408 . S
C446 C444 1.363 . S
C446 C447 1.370 . S
C446 C450 1.524 . S
C447 C439 1.503 . S
C447 C446 1.370 . S
C447 C448 1.403 . S
C448 C447 1.403 . S
C448 C449 1.404 . S
C448 C451 1.539 . S
C449 C445 1.408 . S
C449 C448 1.404 . S
C449 H461 0.930 . S
C450 C446 1.524 . S
C450 H462 0.956 . S
C450 H463 0.961 . S
C450 H464 0.961 . S
C451 C448 1.539 . S
C451 H465 0.958 . S
C451 H466 0.961 . S
C451 H467 0.960 . S
H452 C436 0.931 . S
H453 C441 0.929 . S
H454 C442 0.960 . S
H455 C442 0.962 . S
H456 C442 0.960 . S
H457 C443 0.961 . S
H458 C443 0.961 . S
H459 C443 0.961 . S
H460 C444 0.931 . S
H461 C449 0.930 . S
H462 C450 0.956 . S
H463 C450 0.961 . S
H464 C450 0.961 . S
H465 C451 0.958 . S
H466 C451 0.961 . S
H467 C451 0.960 . S
C468 C469 1.391 . S
C468 C470 1.394 . S
C468 H484 0.931 . S
C469 C468 1.391 . S
C469 C473 1.376 . S
C470 C468 1.394 . S
C470 C471 1.369 1_565 S
C470 C474 1.531 . S
C471 C470 1.369 1_545 S
C471 C472 1.410 . S
C471 C479 1.503 . S
C472 C471 1.410 . S
C472 C473 1.392 1_545 S
C472 C475 1.511 . S
C473 C469 1.376 . S
C473 C472 1.392 1_565 S
C473 H485 0.929 . S
C474 C470 1.531 . S
C474 H486 0.960 . S
C474 H487 0.962 . S
C474 H488 0.960 . S
C475 C472 1.511 . S
C475 H489 0.961 . S
C475 H490 0.961 . S
C475 H491 0.961 . S
C476 C477 1.370 . S
C476 C478 1.363 . S
C476 H492 0.931 . S
C477 C476 1.370 . S
C477 C481 1.408 . S
C478 C476 1.363 . S
C478 C479 1.370 . S
C478 C482 1.524 . S
C479 C471 1.503 . S
C479 C478 1.370 . S
C479 C480 1.403 . S
C480 C479 1.403 . S
C480 C481 1.404 . S
C480 C483 1.539 . S
C481 C477 1.408 . S
C481 C480 1.404 . S
C481 H493 0.930 . S
C482 C478 1.524 . S
C482 H494 0.956 . S
C482 H495 0.961 . S
C482 H496 0.961 . S
C483 C480 1.539 . S
C483 H497 0.958 . S
C483 H498 0.961 . S
C483 H499 0.960 . S
H484 C468 0.931 . S
H485 C473 0.929 . S
H486 C474 0.960 . S
H487 C474 0.962 . S
H488 C474 0.960 . S
H489 C475 0.961 . S
H490 C475 0.961 . S
H491 C475 0.961 . S
H492 C476 0.931 . S
H493 C481 0.930 . S
H494 C482 0.956 . S
H495 C482 0.961 . S
H496 C482 0.961 . S
H497 C483 0.958 . S
H498 C483 0.961 . S
H499 C483 0.960 . S
C500 C501 1.391 . S
C500 C502 1.394 . S
C500 H516 0.931 . S
C501 C500 1.391 . S
C501 C505 1.376 . S
C502 C500 1.394 . S
C502 C503 1.369 1_545 S
C502 C506 1.531 . S
C503 C502 1.369 1_565 S
C503 C504 1.410 . S
C503 C511 1.503 . S
C504 C503 1.410 . S
C504 C505 1.392 1_565 S
C504 C507 1.511 . S
C505 C501 1.376 . S
C505 C504 1.392 1_545 S
C505 H517 0.929 . S
C506 C502 1.531 . S
C506 H518 0.922 1_545 S
C506 H519 0.962 . S
C506 H520 0.960 . S
C507 C504 1.511 . S
C507 H521 0.961 . S
C507 H522 0.961 . S
C507 H523 0.961 . S
C508 C509 1.370 . S
C508 C510 1.363 . S
C508 H524 0.931 . S
C509 C508 1.370 . S
C509 C513 1.408 . S
C510 C508 1.363 . S
C510 C511 1.370 . S
C510 C514 1.524 . S
C511 C503 1.503 . S
C511 C510 1.370 . S
C511 C512 1.403 . S
C512 C511 1.403 . S
C512 C513 1.404 . S
C512 C515 1.539 . S
C513 C509 1.408 . S
C513 C512 1.404 . S
C513 H525 0.930 . S
C514 C510 1.524 . S
C514 H526 0.956 . S
C514 H527 0.961 . S
C514 H528 0.961 . S
C515 C512 1.539 . S
C515 H529 0.958 . S
C515 H530 0.961 . S
C515 H531 0.960 . S
H516 C500 0.931 . S
H517 C505 0.929 . S
H518 C506 0.922 1_565 S
H519 C506 0.962 . S
H520 C506 0.960 . S
H521 C507 0.961 . S
H522 C507 0.961 . S
H523 C507 0.961 . S
H524 C508 0.931 . S
H525 C513 0.930 . S
H526 C514 0.956 . S
H527 C514 0.961 . S
H528 C514 0.961 . S
H529 C515 0.958 . S
H530 C515 0.961 . S
H531 C515 0.960 . S
C532 C533 1.391 . S
C532 C534 1.394 . S
C532 H548 0.931 . S
C533 C532 1.391 . S
C533 C537 1.376 . S
C534 C532 1.394 . S
C534 C535 1.369 . S
C534 C538 1.531 . S
C535 C534 1.369 . S
C535 C536 1.410 . S
C535 C543 1.503 . S
C536 C535 1.410 . S
C536 C537 1.392 . S
C536 C539 1.511 . S
C537 C533 1.376 . S
C537 C536 1.392 . S
C537 H549 0.929 . S
C538 C534 1.531 . S
C538 H550 0.960 . S
C538 H551 0.962 . S
C538 H552 0.960 . S
C539 C536 1.511 . S
C539 H553 0.961 . S
C539 H554 0.961 . S
C539 H555 0.961 . S
C540 C541 1.370 . S
C540 C542 1.363 . S
C540 H556 0.931 . S
C541 C540 1.370 . S
C541 C545 1.408 . S
C542 C540 1.363 . S
C542 C543 1.370 . S
C542 C546 1.524 . S
C543 C535 1.503 . S
C543 C542 1.370 . S
C543 C544 1.403 . S
C544 C543 1.403 . S
C544 C545 1.404 . S
C544 C547 1.539 . S
C545 C541 1.408 . S
C545 C544 1.404 . S
C545 H557 0.930 . S
C546 C542 1.524 . S
C546 H558 0.956 . S
C546 H559 0.961 . S
C546 H560 0.961 . S
C547 C544 1.539 . S
C547 H561 0.958 . S
C547 H562 0.961 . S
C547 H563 0.960 . S
H548 C532 0.931 . S
H549 C537 0.929 . S
H550 C538 0.960 . S
H551 C538 0.962 . S
H552 C538 0.960 . S
H553 C539 0.961 . S
H554 C539 0.961 . S
H555 C539 0.961 . S
H556 C540 0.931 . S
H557 C545 0.930 . S
H558 C546 0.956 . S
H559 C546 0.961 . S
H560 C546 0.961 . S
H561 C547 0.958 . S
H562 C547 0.961 . S
H563 C547 0.960 . S
C564 C565 1.391 . S
C564 C566 1.394 . S
C564 H580 0.931 . S
C565 C564 1.391 . S
C565 C569 1.376 . S
C566 C564 1.394 . S
C566 C567 1.369 . S
C566 C570 1.531 . S
C567 C566 1.369 . S
C567 C568 1.410 . S
C567 C575 1.503 . S
C568 C567 1.410 . S
C568 C569 1.392 . S
C568 C571 1.511 . S
C569 C565 1.376 . S
C569 C568 1.392 . S
C569 H581 0.929 . S
C570 C566 1.531 . S
C570 H582 0.960 . S
C570 H583 0.962 . S
C570 H584 0.960 . S
C571 C568 1.511 . S
C571 H585 0.961 . S
C571 H586 0.961 . S
C571 H587 0.961 . S
C572 C573 1.370 . S
C572 C574 1.363 . S
C572 H588 0.931 . S
C573 C572 1.370 . S
C573 C577 1.408 . S
C574 C572 1.363 . S
C574 C575 1.370 . S
C574 C578 1.524 . S
C575 C567 1.503 . S
C575 C574 1.370 . S
C575 C576 1.403 . S
C576 C575 1.403 . S
C576 C577 1.404 . S
C576 C579 1.539 . S
C577 C573 1.408 . S
C577 C576 1.404 . S
C577 H589 0.930 . S
C578 C574 1.524 . S
C578 H590 0.956 . S
C578 H591 0.961 . S
C578 H592 0.961 . S
C579 C576 1.539 . S
C579 H593 0.958 . S
C579 H594 0.961 . S
C579 H595 0.960 . S
H580 C564 0.931 . S
H581 C569 0.929 . S
H582 C570 0.960 . S
H583 C570 0.962 . S
H584 C570 0.960 . S
H585 C571 0.961 . S
H586 C571 0.961 . S
H587 C571 0.961 . S
H588 C572 0.931 . S
H589 C577 0.930 . S
H590 C578 0.956 . S
H591 C578 0.961 . S
H592 C578 0.961 . S
H593 C579 0.958 . S
H594 C579 0.961 . S
H595 C579 0.960 . S
C596 C597 1.391 . S
C596 C598 1.394 . S
C596 H612 0.931 . S
C597 C596 1.391 . S
C597 C601 1.376 . S
C598 C596 1.394 . S
C598 C599 1.369 1_545 S
C598 C602 1.531 1_545 S
C599 C598 1.369 1_565 S
C599 C600 1.410 1_565 S
C599 C607 1.503 . S
C600 C599 1.410 1_545 S
C600 C601 1.392 . S
C600 C603 1.511 . S
C601 C597 1.376 . S
C601 C600 1.392 . S
C601 H613 0.929 . S
C602 C598 1.531 1_565 S
C602 H614 0.960 . S
C602 H615 0.962 . S
C602 H616 0.960 . S
C603 C600 1.511 . S
C603 H617 0.961 . S
C603 H618 0.961 1_545 S
C603 H619 0.961 1_545 S
C604 C605 1.370 . S
C604 C606 1.363 . S
C604 H620 0.931 . S
C605 C604 1.370 . S
C605 C609 1.408 . S
C606 C604 1.363 . S
C606 C607 1.370 . S
C606 C610 1.524 . S
C607 C599 1.503 . S
C607 C606 1.370 . S
C607 C608 1.403 . S
C608 C607 1.403 . S
C608 C609 1.404 . S
C608 C611 1.539 . S
C609 C605 1.408 . S
C609 C608 1.404 . S
C609 H621 0.930 . S
C610 C606 1.524 . S
C610 H622 0.954 1_565 S
C610 H623 0.961 1_565 S
C610 H624 0.961 . S
C611 C608 1.539 . S
C611 H625 0.958 . S
C611 H626 0.961 . S
C611 H627 0.960 . S
H612 C596 0.931 . S
H613 C601 0.929 . S
H614 C602 0.960 . S
H615 C602 0.962 . S
H616 C602 0.960 . S
H617 C603 0.961 . S
H618 C603 0.961 1_565 S
H619 C603 0.961 1_565 S
H620 C604 0.931 . S
H621 C609 0.930 . S
H622 C610 0.954 1_545 S
H623 C610 0.961 1_545 S
H624 C610 0.961 . S
H625 C611 0.958 . S
H626 C611 0.961 . S
H627 C611 0.960 . S
C628 C629 1.391 . S
C628 C630 1.394 . S
C628 H644 0.931 . S
C629 C628 1.391 . S
C629 C633 1.376 . S
C630 C628 1.394 . S
C630 C631 1.369 . S
C630 C634 1.531 . S
C631 C630 1.369 . S
C631 C632 1.410 . S
C631 C639 1.503 . S
C632 C631 1.410 . S
C632 C633 1.392 . S
C632 C635 1.511 . S
C633 C629 1.376 . S
C633 C632 1.392 . S
C633 H645 0.929 . S
C634 C630 1.531 . S
C634 H646 0.960 . S
C634 H647 0.962 . S
C634 H648 0.960 . S
C635 C632 1.511 . S
C635 H649 0.961 . S
C635 H650 0.961 . S
C635 H651 0.961 . S
C636 C637 1.370 . S
C636 C638 1.363 . S
C636 H652 0.931 . S
C637 C636 1.370 . S
C637 C641 1.408 . S
C638 C636 1.363 . S
C638 C639 1.370 . S
C638 C642 1.524 . S
C639 C631 1.503 . S
C639 C638 1.370 . S
C639 C640 1.403 . S
C640 C639 1.403 . S
C640 C641 1.404 . S
C640 C643 1.539 . S
C641 C637 1.408 . S
C641 C640 1.404 . S
C641 H653 0.930 . S
C642 C638 1.524 . S
C642 H654 0.956 . S
C642 H655 0.961 . S
C642 H656 0.961 . S
C643 C640 1.539 . S
C643 H657 0.958 . S
C643 H658 0.961 1_455 S
C643 H659 0.960 . S
H644 C628 0.931 . S
H645 C633 0.929 . S
H646 C634 0.960 . S
H647 C634 0.962 . S
H648 C634 0.960 . S
H649 C635 0.961 . S
H650 C635 0.961 . S
H651 C635 0.961 . S
H652 C636 0.931 . S
H653 C641 0.930 . S
H654 C642 0.956 . S
H655 C642 0.961 . S
H656 C642 0.961 . S
H657 C643 0.958 . S
H658 C643 0.961 1_655 S
H659 C643 0.960 . S
C660 C661 1.391 . S
C660 C662 1.394 . S
C660 H676 0.931 . S
C661 C660 1.391 . S
C661 C665 1.376 . S
C662 C660 1.394 . S
C662 C663 1.369 . S
C662 C666 1.531 . S
C663 C662 1.369 . S
C663 C664 1.410 . S
C663 C671 1.503 . S
C664 C663 1.410 . S
C664 C665 1.392 . S
C664 C667 1.511 . S
C665 C661 1.376 . S
C665 C664 1.392 . S
C665 H677 0.929 . S
C666 C662 1.531 . S
C666 H678 0.960 . S
C666 H679 0.962 . S
C666 H680 0.960 . S
C667 C664 1.511 . S
C667 H681 0.961 . S
C667 H682 0.961 . S
C667 H683 0.961 . S
C668 C669 1.370 . S
C668 C670 1.363 . S
C668 H684 0.931 . S
C669 C668 1.370 . S
C669 C673 1.408 . S
C670 C668 1.363 . S
C670 C671 1.370 . S
C670 C674 1.524 . S
C671 C663 1.503 . S
C671 C670 1.370 . S
C671 C672 1.403 . S
C672 C671 1.403 . S
C672 C673 1.404 . S
C672 C675 1.539 . S
C673 C669 1.408 . S
C673 C672 1.404 . S
C673 H685 0.930 . S
C674 C670 1.524 . S
C674 H686 0.956 . S
C674 H687 0.961 . S
C674 H688 0.961 . S
C675 C672 1.539 . S
C675 H689 0.958 . S
C675 H690 0.961 . S
C675 H691 0.960 . S
H676 C660 0.931 . S
H677 C665 0.929 . S
H678 C666 0.960 . S
H679 C666 0.962 . S
H680 C666 0.960 . S
H681 C667 0.961 . S
H682 C667 0.961 . S
H683 C667 0.961 . S
H684 C668 0.931 . S
H685 C673 0.930 . S
H686 C674 0.956 . S
H687 C674 0.961 . S
H688 C674 0.961 . S
H689 C675 0.958 . S
H690 C675 0.961 . S
H691 C675 0.960 . S
C692 C693 1.391 . S
C692 C694 1.394 . S
C692 H708 0.931 . S
C693 C692 1.391 . S
C693 C697 1.376 . S
C694 C692 1.394 . S
C694 C695 1.369 . S
C694 C698 1.531 . S
C695 C694 1.369 . S
C695 C696 1.410 . S
C695 C703 1.503 . S
C696 C695 1.410 . S
C696 C697 1.392 . S
C696 C699 1.511 . S
C697 C693 1.376 . S
C697 C696 1.392 . S
C697 H709 0.929 . S
C698 C694 1.531 . S
C698 H710 0.960 . S
C698 H711 0.962 . S
C698 H712 0.960 . S
C699 C696 1.511 . S
C699 H713 0.961 . S
C699 H714 0.961 . S
C699 H715 0.961 . S
C700 C701 1.370 . S
C700 C702 1.363 . S
C700 H716 0.931 . S
C701 C700 1.370 . S
C701 C705 1.408 . S
C702 C700 1.363 . S
C702 C703 1.370 . S
C702 C706 1.524 . S
C703 C695 1.503 . S
C703 C702 1.370 . S
C703 C704 1.403 . S
C704 C703 1.403 . S
C704 C705 1.404 . S
C704 C707 1.539 . S
C705 C701 1.408 . S
C705 C704 1.404 . S
C705 H717 0.930 . S
C706 C702 1.524 . S
C706 H718 0.956 . S
C706 H719 0.961 . S
C706 H720 0.961 . S
C707 C704 1.539 . S
C707 H721 0.958 . S
C707 H722 0.961 . S
C707 H723 0.960 . S
H708 C692 0.931 . S
H709 C697 0.929 . S
H710 C698 0.960 . S
H711 C698 0.962 . S
H712 C698 0.960 . S
H713 C699 0.961 . S
H714 C699 0.961 . S
H715 C699 0.961 . S
H716 C700 0.931 . S
H717 C705 0.930 . S
H718 C706 0.956 . S
H719 C706 0.961 . S
H720 C706 0.961 . S
H721 C707 0.958 . S
H722 C707 0.961 . S
H723 C707 0.960 . S
C724 C725 1.391 . S
C724 C726 1.394 . S
C724 H740 0.931 . S
C725 C724 1.391 . S
C725 C729 1.376 . S
C726 C724 1.394 . S
C726 C727 1.369 . S
C726 C730 1.531 . S
C727 C726 1.369 . S
C727 C728 1.410 . S
C727 C735 1.503 . S
C728 C727 1.410 . S
C728 C729 1.392 . S
C728 C731 1.511 . S
C729 C725 1.376 . S
C729 C728 1.392 . S
C729 H741 0.929 . S
C730 C726 1.531 . S
C730 H742 0.960 . S
C730 H743 0.962 . S
C730 H744 0.960 . S
C731 C728 1.511 . S
C731 H745 0.961 . S
C731 H746 0.961 . S
C731 H747 0.961 . S
C732 C733 1.370 . S
C732 C734 1.363 . S
C732 H748 0.931 . S
C733 C732 1.370 . S
C733 C737 1.408 . S
C734 C732 1.363 . S
C734 C735 1.370 . S
C734 C738 1.524 . S
C735 C727 1.503 . S
C735 C734 1.370 . S
C735 C736 1.403 . S
C736 C735 1.403 . S
C736 C737 1.404 . S
C736 C739 1.539 . S
C737 C733 1.408 . S
C737 C736 1.404 . S
C737 H749 0.930 . S
C738 C734 1.524 . S
C738 H750 0.956 . S
C738 H751 0.961 . S
C738 H752 0.961 . S
C739 C736 1.539 . S
C739 H753 0.958 . S
C739 H754 0.961 . S
C739 H755 0.960 . S
H740 C724 0.931 . S
H741 C729 0.929 . S
H742 C730 0.960 . S
H743 C730 0.962 . S
H744 C730 0.960 . S
H745 C731 0.961 . S
H746 C731 0.961 . S
H747 C731 0.961 . S
H748 C732 0.931 . S
H749 C737 0.930 . S
H750 C738 0.956 . S
H751 C738 0.961 . S
H752 C738 0.961 . S
H753 C739 0.958 . S
H754 C739 0.961 . S
H755 C739 0.960 . S
C756 C757 1.391 . S
C756 C758 1.394 . S
C756 H772 0.931 . S
C757 C756 1.391 . S
C757 C761 1.376 . S
C758 C756 1.394 . S
C758 C759 1.369 . S
C758 C762 1.531 . S
C759 C758 1.369 . S
C759 C760 1.410 . S
C759 C767 1.503 . S
C760 C759 1.410 . S
C760 C761 1.392 . S
C760 C763 1.511 . S
C761 C757 1.376 . S
C761 C760 1.392 . S
C761 H773 0.929 . S
C762 C758 1.531 . S
C762 H774 0.960 . S
C762 H775 0.962 . S
C762 H776 0.960 . S
C763 C760 1.511 . S
C763 H777 0.961 . S
C763 H778 0.961 . S
C763 H779 0.961 . S
C764 C765 1.370 . S
C764 C766 1.363 . S
C764 H780 0.931 . S
C765 C764 1.370 . S
C765 C769 1.408 . S
C766 C764 1.363 . S
C766 C767 1.370 . S
C766 C770 1.524 . S
C767 C759 1.503 . S
C767 C766 1.370 . S
C767 C768 1.403 . S
C768 C767 1.403 . S
C768 C769 1.404 . S
C768 C771 1.539 . S
C769 C765 1.408 . S
C769 C768 1.404 . S
C769 H781 0.930 . S
C770 C766 1.524 . S
C770 H782 0.956 . S
C770 H783 0.961 . S
C770 H784 0.961 . S
C771 C768 1.539 . S
C771 H785 0.958 . S
C771 H786 0.961 . S
C771 H787 0.960 . S
H772 C756 0.931 . S
H773 C761 0.929 . S
H774 C762 0.960 . S
H775 C762 0.962 . S
H776 C762 0.960 . S
H777 C763 0.961 . S
H778 C763 0.961 . S
H779 C763 0.961 . S
H780 C764 0.931 . S
H781 C769 0.930 . S
H782 C770 0.956 . S
H783 C770 0.961 . S
H784 C770 0.961 . S
H785 C771 0.958 . S
H786 C771 0.961 . S
H787 C771 0.960 . S
C788 C789 1.391 . S
C788 C790 1.394 . S
C788 H804 0.931 . S
C789 C788 1.391 . S
C789 C793 1.376 . S
C790 C788 1.394 . S
C790 C791 1.369 . S
C790 C794 1.531 . S
C791 C790 1.369 . S
C791 C792 1.410 . S
C791 C799 1.503 . S
C792 C791 1.410 . S
C792 C793 1.392 . S
C792 C795 1.511 . S
C793 C789 1.376 . S
C793 C792 1.392 . S
C793 H805 0.929 . S
C794 C790 1.531 . S
C794 H806 0.960 . S
C794 H807 0.962 . S
C794 H808 0.960 . S
C795 C792 1.511 . S
C795 H809 0.961 . S
C795 H810 0.961 . S
C795 H811 0.961 . S
C796 C797 1.370 . S
C796 C798 1.363 . S
C796 H812 0.931 . S
C797 C796 1.370 . S
C797 C801 1.408 . S
C798 C796 1.363 . S
C798 C799 1.370 . S
C798 C802 1.524 . S
C799 C791 1.503 . S
C799 C798 1.370 . S
C799 C800 1.403 . S
C800 C799 1.403 . S
C800 C801 1.404 . S
C800 C803 1.539 . S
C801 C797 1.408 . S
C801 C800 1.404 . S
C801 H813 0.930 . S
C802 C798 1.524 . S
C802 H814 0.956 . S
C802 H815 0.961 . S
C802 H816 0.961 . S
C803 C800 1.539 . S
C803 H817 0.958 . S
C803 H818 0.961 . S
C803 H819 0.960 . S
H804 C788 0.931 . S
H805 C793 0.929 . S
H806 C794 0.960 . S
H807 C794 0.962 . S
H808 C794 0.960 . S
H809 C795 0.961 . S
H810 C795 0.961 . S
H811 C795 0.961 . S
H812 C796 0.931 . S
H813 C801 0.930 . S
H814 C802 0.956 . S
H815 C802 0.961 . S
H816 C802 0.961 . S
H817 C803 0.958 . S
H818 C803 0.961 . S
H819 C803 0.960 . S
C820 C821 1.391 . S
C820 C822 1.394 . S
C820 H836 0.931 . S
C821 C820 1.391 . S
C821 C825 1.376 . S
C822 C820 1.394 . S
C822 C823 1.369 . S
C822 C826 1.531 . S
C823 C822 1.369 . S
C823 C824 1.410 . S
C823 C831 1.503 . S
C824 C823 1.410 . S
C824 C825 1.392 . S
C824 C827 1.511 . S
C825 C821 1.376 . S
C825 C824 1.392 . S
C825 H837 0.929 . S
C826 C822 1.531 . S
C826 H838 0.960 . S
C826 H839 0.962 . S
C826 H840 0.960 . S
C827 C824 1.511 . S
C827 H841 0.961 . S
C827 H842 0.961 . S
C827 H843 0.961 . S
C828 C829 1.370 . S
C828 C830 1.363 . S
C828 H844 0.931 . S
C829 C828 1.370 . S
C829 C833 1.408 . S
C830 C828 1.363 . S
C830 C831 1.370 . S
C830 C834 1.524 . S
C831 C823 1.503 . S
C831 C830 1.370 . S
C831 C832 1.403 . S
C832 C831 1.403 . S
C832 C833 1.404 . S
C832 C835 1.539 . S
C833 C829 1.408 . S
C833 C832 1.404 . S
C833 H845 0.930 . S
C834 C830 1.524 . S
C834 H846 0.956 . S
C834 H847 0.961 . S
C834 H848 0.961 . S
C835 C832 1.539 . S
C835 H849 0.958 . S
C835 H850 0.961 . S
C835 H851 0.960 . S
H836 C820 0.931 . S
H837 C825 0.929 . S
H838 C826 0.960 . S
H839 C826 0.962 . S
H840 C826 0.960 . S
H841 C827 0.961 . S
H842 C827 0.961 . S
H843 C827 0.961 . S
H844 C828 0.931 . S
H845 C833 0.930 . S
H846 C834 0.956 . S
H847 C834 0.961 . S
H848 C834 0.961 . S
H849 C835 0.958 . S
H850 C835 0.961 . S
H851 C835 0.960 . S
C852 C853 1.391 . S
C852 C854 1.394 . S
C852 H868 0.931 . S
C853 C852 1.391 . S
C853 C857 1.376 . S
C854 C852 1.394 . S
C854 C855 1.369 . S
C854 C858 1.531 . S
C855 C854 1.369 . S
C855 C856 1.410 . S
C855 C863 1.503 . S
C856 C855 1.410 . S
C856 C857 1.392 . S
C856 C859 1.511 . S
C857 C853 1.376 . S
C857 C856 1.392 . S
C857 H869 0.929 . S
C858 C854 1.531 . S
C858 H870 0.960 . S
C858 H871 0.962 . S
C858 H872 0.960 . S
C859 C856 1.511 . S
C859 H873 0.961 . S
C859 H874 0.961 . S
C859 H875 0.961 . S
C860 C861 1.370 . S
C860 C862 1.363 . S
C860 H876 0.931 . S
C861 C860 1.370 . S
C861 C865 1.408 . S
C862 C860 1.363 . S
C862 C863 1.370 . S
C862 C866 1.524 . S
C863 C855 1.503 . S
C863 C862 1.370 . S
C863 C864 1.403 . S
C864 C863 1.403 . S
C864 C865 1.404 . S
C864 C867 1.539 . S
C865 C861 1.408 . S
C865 C864 1.404 . S
C865 H877 0.930 . S
C866 C862 1.524 . S
C866 H878 0.956 . S
C866 H879 0.961 . S
C866 H880 0.961 . S
C867 C864 1.539 . S
C867 H881 0.958 . S
C867 H882 0.961 . S
C867 H883 0.960 . S
H868 C852 0.931 . S
H869 C857 0.929 . S
H870 C858 0.960 . S
H871 C858 0.962 . S
H872 C858 0.960 . S
H873 C859 0.961 . S
H874 C859 0.961 . S
H875 C859 0.961 . S
H876 C860 0.931 . S
H877 C865 0.930 . S
H878 C866 0.956 . S
H879 C866 0.961 . S
H880 C866 0.961 . S
H881 C867 0.958 . S
H882 C867 0.961 . S
H883 C867 0.960 . S
C884 C885 1.391 . S
C884 C886 1.394 . S
C884 H900 0.931 . S
C885 C884 1.391 . S
C885 C889 1.376 . S
C886 C884 1.394 . S
C886 C887 1.369 . S
C886 C890 1.531 . S
C887 C886 1.369 . S
C887 C888 1.410 . S
C887 C895 1.503 . S
C888 C887 1.410 . S
C888 C889 1.392 . S
C888 C891 1.511 . S
C889 C885 1.376 . S
C889 C888 1.392 . S
C889 H901 0.929 . S
C890 C886 1.531 . S
C890 H902 0.960 . S
C890 H903 0.962 . S
C890 H904 0.960 . S
C891 C888 1.511 . S
C891 H905 0.961 . S
C891 H906 0.961 . S
C891 H907 0.961 . S
C892 C893 1.370 . S
C892 C894 1.363 . S
C892 H908 0.931 . S
C893 C892 1.370 . S
C893 C897 1.408 . S
C894 C892 1.363 . S
C894 C895 1.370 . S
C894 C898 1.524 . S
C895 C887 1.503 . S
C895 C894 1.370 . S
C895 C896 1.403 . S
C896 C895 1.403 . S
C896 C897 1.404 . S
C896 C899 1.539 . S
C897 C893 1.408 . S
C897 C896 1.404 . S
C897 H909 0.930 . S
C898 C894 1.524 . S
C898 H910 0.956 . S
C898 H911 0.961 . S
C898 H912 0.961 . S
C899 C896 1.539 . S
C899 H913 0.958 . S
C899 H914 0.961 . S
C899 H915 0.960 . S
H900 C884 0.931 . S
H901 C889 0.929 . S
H902 C890 0.960 . S
H903 C890 0.962 . S
H904 C890 0.960 . S
H905 C891 0.961 . S
H906 C891 0.961 . S
H907 C891 0.961 . S
H908 C892 0.931 . S
H909 C897 0.930 . S
H910 C898 0.956 . S
H911 C898 0.961 . S
H912 C898 0.961 . S
H913 C899 0.958 . S
H914 C899 0.961 . S
H915 C899 0.960 . S
C916 C917 1.391 . S
C916 C918 1.394 . S
C916 H932 0.931 . S
C917 C916 1.391 . S
C917 C921 1.376 . S
C918 C916 1.394 . S
C918 C919 1.369 . S
C918 C922 1.531 . S
C919 C918 1.369 . S
C919 C920 1.410 . S
C919 C927 1.503 . S
C920 C919 1.410 . S
C920 C921 1.392 . S
C920 C923 1.511 . S
C921 C917 1.376 . S
C921 C920 1.392 . S
C921 H933 0.929 . S
C922 C918 1.531 . S
C922 H934 0.960 . S
C922 H935 0.962 . S
C922 H936 0.960 . S
C923 C920 1.511 . S
C923 H937 0.961 . S
C923 H938 0.961 . S
C923 H939 0.961 . S
C924 C925 1.370 . S
C924 C926 1.363 . S
C924 H940 0.931 . S
C925 C924 1.370 . S
C925 C929 1.408 . S
C926 C924 1.363 . S
C926 C927 1.370 . S
C926 C930 1.524 . S
C927 C919 1.503 . S
C927 C926 1.370 . S
C927 C928 1.403 . S
C928 C927 1.403 . S
C928 C929 1.404 . S
C928 C931 1.539 . S
C929 C925 1.408 . S
C929 C928 1.404 . S
C929 H941 0.930 . S
C930 C926 1.524 . S
C930 H942 0.956 . S
C930 H943 0.961 . S
C930 H944 0.961 . S
C931 C928 1.539 . S
C931 H945 0.958 . S
C931 H946 0.961 . S
C931 H947 0.960 . S
H932 C916 0.931 . S
H933 C921 0.929 . S
H934 C922 0.960 . S
H935 C922 0.962 . S
H936 C922 0.960 . S
H937 C923 0.961 . S
H938 C923 0.961 . S
H939 C923 0.961 . S
H940 C924 0.931 . S
H941 C929 0.930 . S
H942 C930 0.956 . S
H943 C930 0.961 . S
H944 C930 0.961 . S
H945 C931 0.958 . S
H946 C931 0.961 . S
H947 C931 0.960 . S
C948 C949 1.391 . S
C948 C950 1.394 . S
C948 H964 0.931 . S
C949 C948 1.391 . S
C949 C953 1.376 . S
C950 C948 1.394 . S
C950 C951 1.369 . S
C950 C954 1.531 . S
C951 C950 1.369 . S
C951 C952 1.410 . S
C951 C959 1.503 . S
C952 C951 1.410 . S
C952 C953 1.392 . S
C952 C955 1.511 . S
C953 C949 1.376 . S
C953 C952 1.392 . S
C953 H965 0.929 . S
C954 C950 1.531 . S
C954 H966 0.960 . S
C954 H967 0.962 . S
C954 H968 0.960 . S
C955 C952 1.511 . S
C955 H969 0.961 . S
C955 H970 0.961 . S
C955 H971 0.961 . S
C956 C957 1.370 . S
C956 C958 1.363 . S
C956 H972 0.931 . S
C957 C956 1.370 . S
C957 C961 1.408 . S
C958 C956 1.363 . S
C958 C959 1.370 . S
C958 C962 1.524 . S
C959 C951 1.503 . S
C959 C958 1.370 . S
C959 C960 1.403 . S
C960 C959 1.403 . S
C960 C961 1.404 . S
C960 C963 1.539 . S
C961 C957 1.408 . S
C961 C960 1.404 . S
C961 H973 0.930 . S
C962 C958 1.524 . S
C962 H974 0.956 . S
C962 H975 0.961 . S
C962 H976 0.961 . S
C963 C960 1.539 . S
C963 H977 0.958 . S
C963 H978 0.961 . S
C963 H979 0.960 . S
H964 C948 0.931 . S
H965 C953 0.929 . S
H966 C954 0.960 . S
H967 C954 0.962 . S
H968 C954 0.960 . S
H969 C955 0.961 . S
H970 C955 0.961 . S
H971 C955 0.961 . S
H972 C956 0.931 . S
H973 C961 0.930 . S
H974 C962 0.956 . S
H975 C962 0.961 . S
H976 C962 0.961 . S
H977 C963 0.958 . S
H978 C963 0.961 . S
H979 C963 0.960 . S
C980 C981 1.391 . S
C980 C982 1.394 . S
C980 H996 0.931 . S
C981 C980 1.391 . S
C981 C985 1.376 . S
C982 C980 1.394 . S
C982 C983 1.369 . S
C982 C986 1.531 . S
C983 C982 1.369 . S
C983 C984 1.410 . S
C983 C991 1.503 . S
C984 C983 1.410 . S
C984 C985 1.392 . S
C984 C987 1.511 . S
C985 C981 1.376 . S
C985 C984 1.392 . S
C985 H997 0.929 . S
C986 C982 1.531 . S
C986 H998 0.960 . S
C986 H999 0.962 . S
C986 H1000 0.960 . S
C987 C984 1.511 . S
C987 H1001 0.961 . S
C987 H1002 0.961 . S
C987 H1003 0.961 . S
C988 C989 1.370 . S
C988 C990 1.363 . S
C988 H1004 0.931 . S
C989 C988 1.370 . S
C989 C993 1.408 . S
C990 C988 1.363 . S
C990 C991 1.370 . S
C990 C994 1.524 . S
C991 C983 1.503 . S
C991 C990 1.370 . S
C991 C992 1.403 . S
C992 C991 1.403 . S
C992 C993 1.404 . S
C992 C995 1.539 . S
C993 C989 1.408 . S
C993 C992 1.404 . S
C993 H1005 0.930 . S
C994 C990 1.524 . S
C994 H1006 0.956 . S
C994 H1007 0.961 . S
C994 H1008 0.961 . S
C995 C992 1.539 . S
C995 H1009 0.958 . S
C995 H1010 0.961 . S
C995 H1011 0.960 . S
H996 C980 0.931 . S
H997 C985 0.929 . S
H998 C986 0.960 . S
H999 C986 0.962 . S
H1000 C986 0.960 . S
H1001 C987 0.961 . S
H1002 C987 0.961 . S
H1003 C987 0.961 . S
H1004 C988 0.931 . S
H1005 C993 0.930 . S
H1006 C994 0.956 . S
H1007 C994 0.961 . S
H1008 C994 0.961 . S
H1009 C995 0.958 . S
H1010 C995 0.961 . S
H1011 C995 0.960 . S
C1012 C1013 1.391 . S
C1012 C1014 1.394 . S
C1012 H1028 0.931 . S
C1013 C1012 1.391 . S
C1013 C1017 1.376 . S
C1014 C1012 1.394 . S
C1014 C1015 1.369 . S
C1014 C1018 1.531 . S
C1015 C1014 1.369 . S
C1015 C1016 1.410 . S
C1015 C1023 1.503 . S
C1016 C1015 1.410 . S
C1016 C1017 1.392 . S
C1016 C1019 1.511 . S
C1017 C1013 1.376 . S
C1017 C1016 1.392 . S
C1017 H1029 0.929 . S
C1018 C1014 1.531 . S
C1018 H1030 0.960 . S
C1018 H1031 0.962 . S
C1018 H1032 0.960 . S
C1019 C1016 1.511 . S
C1019 H1033 0.961 . S
C1019 H1034 0.961 . S
C1019 H1035 0.961 . S
C1020 C1021 1.370 . S
C1020 C1022 1.363 . S
C1020 H1036 0.931 . S
C1021 C1020 1.370 . S
C1021 C1025 1.408 . S
C1022 C1020 1.363 . S
C1022 C1023 1.370 . S
C1022 C1026 1.524 . S
C1023 C1015 1.503 . S
C1023 C1022 1.370 . S
C1023 C1024 1.403 . S
C1024 C1023 1.403 . S
C1024 C1025 1.404 . S
C1024 C1027 1.539 . S
C1025 C1021 1.408 . S
C1025 C1024 1.404 . S
C1025 H1037 0.930 . S
C1026 C1022 1.524 . S
C1026 H1038 0.956 . S
C1026 H1039 0.961 . S
C1026 H1040 0.961 . S
C1027 C1024 1.539 . S
C1027 H1041 0.958 . S
C1027 H1042 0.961 . S
C1027 H1043 0.960 . S
H1028 C1012 0.931 . S
H1029 C1017 0.929 . S
H1030 C1018 0.960 . S
H1031 C1018 0.962 . S
H1032 C1018 0.960 . S
H1033 C1019 0.961 . S
H1034 C1019 0.961 . S
H1035 C1019 0.961 . S
H1036 C1020 0.931 . S
H1037 C1025 0.930 . S
H1038 C1026 0.956 . S
H1039 C1026 0.961 . S
H1040 C1026 0.961 . S
H1041 C1027 0.958 . S
H1042 C1027 0.961 . S
H1043 C1027 0.960 . S
C1044 C1045 1.391 . S
C1044 C1046 1.394 . S
C1044 H1060 0.931 . S
C1045 C1044 1.391 . S
C1045 C1049 1.376 . S
C1046 C1044 1.394 . S
C1046 C1047 1.369 . S
C1046 C1050 1.531 . S
C1047 C1046 1.369 . S
C1047 C1048 1.410 . S
C1047 C1055 1.503 . S
C1048 C1047 1.410 . S
C1048 C1049 1.392 . S
C1048 C1051 1.511 . S
C1049 C1045 1.376 . S
C1049 C1048 1.392 . S
C1049 H1061 0.929 . S
C1050 C1046 1.531 . S
C1050 H1062 0.960 . S
C1050 H1063 0.962 . S
C1050 H1064 0.960 . S
C1051 C1048 1.511 . S
C1051 H1065 0.961 . S
C1051 H1066 0.961 . S
C1051 H1067 0.961 . S
C1052 C1053 1.370 . S
C1052 C1054 1.363 . S
C1052 H1068 0.931 . S
C1053 C1052 1.370 . S
C1053 C1057 1.408 . S
C1054 C1052 1.363 . S
C1054 C1055 1.370 . S
C1054 C1058 1.524 . S
C1055 C1047 1.503 . S
C1055 C1054 1.370 . S
C1055 C1056 1.403 . S
C1056 C1055 1.403 . S
C1056 C1057 1.404 . S
C1056 C1059 1.539 . S
C1057 C1053 1.408 . S
C1057 C1056 1.404 . S
C1057 H1069 0.930 . S
C1058 C1054 1.524 . S
C1058 H1070 0.956 . S
C1058 H1071 0.961 . S
C1058 H1072 0.961 . S
C1059 C1056 1.539 . S
C1059 H1073 0.958 . S
C1059 H1074 0.961 . S
C1059 H1075 0.960 . S
H1060 C1044 0.931 . S
H1061 C1049 0.929 . S
H1062 C1050 0.960 . S
H1063 C1050 0.962 . S
H1064 C1050 0.960 . S
H1065 C1051 0.961 . S
H1066 C1051 0.961 . S
H1067 C1051 0.961 . S
H1068 C1052 0.931 . S
H1069 C1057 0.930 . S
H1070 C1058 0.956 . S
H1071 C1058 0.961 . S
H1072 C1058 0.961 . S
H1073 C1059 0.958 . S
H1074 C1059 0.961 . S
H1075 C1059 0.960 . S
C1076 C1077 1.391 . S
C1076 C1078 1.394 . S
C1076 H1092 0.931 . S
C1077 C1076 1.391 . S
C1077 C1081 1.376 . S
C1078 C1076 1.394 . S
C1078 C1079 1.369 . S
C1078 C1082 1.531 . S
C1079 C1078 1.369 . S
C1079 C1080 1.410 . S
C1079 C1087 1.503 . S
C1080 C1079 1.410 . S
C1080 C1081 1.392 . S
C1080 C1083 1.511 . S
C1081 C1077 1.376 . S
C1081 C1080 1.392 . S
C1081 H1093 0.929 . S
C1082 C1078 1.531 . S
C1082 H1094 0.960 . S
C1082 H1095 0.962 . S
C1082 H1096 0.960 . S
C1083 C1080 1.511 . S
C1083 H1097 0.961 . S
C1083 H1098 0.961 . S
C1083 H1099 0.961 . S
C1084 C1085 1.370 . S
C1084 C1086 1.363 . S
C1084 H1100 0.931 . S
C1085 C1084 1.370 . S
C1085 C1089 1.408 . S
C1086 C1084 1.363 . S
C1086 C1087 1.370 . S
C1086 C1090 1.524 . S
C1087 C1079 1.503 . S
C1087 C1086 1.370 . S
C1087 C1088 1.403 . S
C1088 C1087 1.403 . S
C1088 C1089 1.404 . S
C1088 C1091 1.539 . S
C1089 C1085 1.408 . S
C1089 C1088 1.404 . S
C1089 H1101 0.930 . S
C1090 C1086 1.524 . S
C1090 H1102 0.956 . S
C1090 H1103 0.961 . S
C1090 H1104 0.961 . S
C1091 C1088 1.539 . S
C1091 H1105 0.958 . S
C1091 H1106 0.961 . S
C1091 H1107 0.960 . S
H1092 C1076 0.931 . S
H1093 C1081 0.929 . S
H1094 C1082 0.960 . S
H1095 C1082 0.962 . S
H1096 C1082 0.960 . S
H1097 C1083 0.961 . S
H1098 C1083 0.961 . S
H1099 C1083 0.961 . S
H1100 C1084 0.931 . S
H1101 C1089 0.930 . S
H1102 C1090 0.956 . S
H1103 C1090 0.961 . S
H1104 C1090 0.961 . S
H1105 C1091 0.958 . S
H1106 C1091 0.961 . S
H1107 C1091 0.960 . S
C1108 C1109 1.391 . S
C1108 C1110 1.394 . S
C1108 H1124 0.931 . S
C1109 C1108 1.391 . S
C1109 C1113 1.376 . S
C1110 C1108 1.394 . S
C1110 C1111 1.369 . S
C1110 C1114 1.531 . S
C1111 C1110 1.369 . S
C1111 C1112 1.410 . S
C1111 C1119 1.503 . S
C1112 C1111 1.410 . S
C1112 C1113 1.392 . S
C1112 C1115 1.511 . S
C1113 C1109 1.376 . S
C1113 C1112 1.392 . S
C1113 H1125 0.929 . S
C1114 C1110 1.531 . S
C1114 H1126 0.960 . S
C1114 H1127 0.962 . S
C1114 H1128 0.960 . S
C1115 C1112 1.511 . S
C1115 H1129 0.961 . S
C1115 H1130 0.961 . S
C1115 H1131 0.961 . S
C1116 C1117 1.370 . S
C1116 C1118 1.363 . S
C1116 H1132 0.931 . S
C1117 C1116 1.370 . S
C1117 C1121 1.408 . S
C1118 C1116 1.363 . S
C1118 C1119 1.370 . S
C1118 C1122 1.524 . S
C1119 C1111 1.503 . S
C1119 C1118 1.370 . S
C1119 C1120 1.403 . S
C1120 C1119 1.403 . S
C1120 C1121 1.404 . S
C1120 C1123 1.539 . S
C1121 C1117 1.408 . S
C1121 C1120 1.404 . S
C1121 H1133 0.930 . S
C1122 C1118 1.524 . S
C1122 H1134 0.956 . S
C1122 H1135 0.961 . S
C1122 H1136 0.961 . S
C1123 C1120 1.539 . S
C1123 H1137 0.958 . S
C1123 H1138 0.961 . S
C1123 H1139 0.960 . S
H1124 C1108 0.931 . S
H1125 C1113 0.929 . S
H1126 C1114 0.960 . S
H1127 C1114 0.962 . S
H1128 C1114 0.960 . S
H1129 C1115 0.961 . S
H1130 C1115 0.961 . S
H1131 C1115 0.961 . S
H1132 C1116 0.931 . S
H1133 C1121 0.930 . S
H1134 C1122 0.956 . S
H1135 C1122 0.961 . S
H1136 C1122 0.961 . S
H1137 C1123 0.958 . S
H1138 C1123 0.961 . S
H1139 C1123 0.960 . S
C373 C247 1.427 . S
C381 C304 1.388 . S
C413 C312 1.366 . S
C405 C283 1.380 . S
C445 C316 1.364 . S
C437 C175 1.398 . S
C469 C211 1.360 . S
C477 C292 1.341 . S
C509 C333 1.373 . S
C501 C103 1.435 . S
C541 C367 1.360 . S
C533 C139 1.392 . S
C565 C31 1.383 . S
C573 C355 1.358 . S
C597 C67 1.393 . S
C605 C337 1.339 . S
C637 C291 1.279 . S
C629 C37 1.447 . S
C669 C325 1.282 . S
C661 C1 1.449 . S
C701 C329 1.310 . S
C693 C109 1.448 . S
C733 C307 1.292 . S
C725 C73 1.455 . S
C765 C346 1.320 . S
C757 C181 1.450 . S
C789 C145 1.452 . S
C797 C354 1.319 . S
C829 C370 1.287 . S
C821 C253 1.455 . S
C853 C217 1.459 . S
C861 C350 1.313 . S
C893 C295 1.329 . S
C885 C25 1.493 . S
C925 C313 1.327 . S
C917 C61 1.490 . S
C949 C97 1.476 . S
C957 C328 1.332 . S
C989 C308 1.326 . S
C981 C133 1.475 . S
C1021 C334 1.330 . S
C1013 C169 1.472 . S
C1045 C205 1.489 . S
C1053 C358 1.334 . S
C1077 C241 1.487 . S
C1085 C371 1.307 . S
C1109 C277 1.475 . S
C1117 C349 1.284 . S
