# Generated by pormake.
# Topology rtl, (3,6)-cn, num edge types: 1
# Building blocks:
#     Node 0, Type 0, BuildingBlock: MIDCAF_clean_linker_0, # of connection points: 3
#     Node 1, Type 0, BuildingBlock: MIDCAF_clean_linker_0, # of connection points: 3
#     Node 2, Type 0, BuildingBlock: MIDCAF_clean_linker_0, # of connection points: 3
#     Node 3, Type 0, BuildingBlock: MIDCAF_clean_linker_0, # of connection points: 3
#     Node 4, Type 1, BuildingBlock: KUMBOL_clean_sbu_1, # of connection points: 6
#     Node 5, Type 1, BuildingBlock: KUMBOL_clean_sbu_1, # of connection points: 6
#     Edge 6, Type (0, 1), BuildingBlock: XIVTED_clean_linker_0, # of connection points: 2
#     Edge 7, Type (0, 1), BuildingBlock: XIVTED_clean_linker_0, # of connection points: 2
#     Edge 8, Type (0, 1), BuildingBlock: XIVTED_clean_linker_0, # of connection points: 2
#     Edge 9, Type (0, 1), BuildingBlock: XIVTED_clean_linker_0, # of connection points: 2
#     Edge 10, Type (0, 1), BuildingBlock: XIVTED_clean_linker_0, # of connection points: 2
#     Edge 11, Type (0, 1), BuildingBlock: XIVTED_clean_linker_0, # of connection points: 2
#     Edge 12, Type (0, 1), BuildingBlock: XIVTED_clean_linker_0, # of connection points: 2
#     Edge 13, Type (0, 1), BuildingBlock: XIVTED_clean_linker_0, # of connection points: 2
#     Edge 14, Type (0, 1), BuildingBlock: XIVTED_clean_linker_0, # of connection points: 2
#     Edge 15, Type (0, 1), BuildingBlock: XIVTED_clean_linker_0, # of connection points: 2
#     Edge 16, Type (0, 1), BuildingBlock: XIVTED_clean_linker_0, # of connection points: 2
#     Edge 17, Type (0, 1), BuildingBlock: XIVTED_clean_linker_0, # of connection points: 2
# Relax obj value: 0.018
# Max RMSD: 0.096
# Mean RMSD: 0.058
data_MOF--net-rtl--node1-KUMBOL_clean_sbu_1--node2-MIDCAF_clean_linker_0--edge1-XIVTED_clean_linker_0
_symmetry_space_group_name_H-M    P1
_symmetry_Int_Tables_number       1
_symmetry_cell_setting            triclinic
loop_
_symmetry_equiv_pos_as_xyz
'x, y, z'
_cell_length_a     39.711868
_cell_length_b     40.324361
_cell_length_c     35.265141
_cell_angle_alpha  80.069092
_cell_angle_beta   99.758171
_cell_angle_gamma 90.309085
loop_
_atom_site_label
_atom_site_type_symbol
_atom_site_fract_x
_atom_site_fract_y
_atom_site_fract_z
_atom_type_partial_charge
C0 C 0.19398 0.93837 0.11386 0.0
C1 C 0.20141 0.91829 0.15119 0.0
C2 C 0.22201 0.88905 0.1561 0.0
C3 C 0.234 0.87964 0.1243 0.0
H4 H 0.30306 0.81396 0.09354 0.0
H5 H 0.34141 0.76537 0.09976 0.0
H6 H 0.32537 0.77497 0.97399 0.0
H7 H 0.28843 0.82364 0.96772 0.0
H8 H 0.25174 0.89113 0.91497 0.0
H9 H 0.22047 0.90971 0.84884 0.0
H10 H 0.13534 0.94204 0.89611 0.0
H11 H 0.16672 0.92399 0.96244 0.0
H12 H 0.19892 0.94467 0.05366 0.0
H13 H 0.17884 0.96144 0.10905 0.0
H14 H 0.22794 0.87269 0.18424 0.0
H15 H 0.24912 0.85656 0.12904 0.0
N16 N 0.25934 0.86239 0.05713 0.0
N17 N 0.25303 0.86657 0.98916 0.0
N18 N 0.22078 0.90227 0.01566 0.0
C19 C 0.26813 0.85164 0.02553 0.0
C20 C 0.22936 0.89179 0.98391 0.0
C21 C 0.23583 0.88791 0.05238 0.0
C22 C 0.29257 0.82286 0.03013 0.0
C23 C 0.30799 0.80585 0.06723 0.0
C24 C 0.32981 0.77782 0.07082 0.0
C25 C 0.33664 0.76621 0.03739 0.0
C26 C 0.32137 0.78347 1.00042 0.0
C27 C 0.29982 0.8114 0.99684 0.0
C28 C 0.21165 0.90592 0.94398 0.0
C29 C 0.2265 0.90251 0.91132 0.0
C30 C 0.2087 0.91325 0.87346 0.0
C31 C 0.17547 0.92707 0.86749 0.0
C32 C 0.16086 0.9312 0.90003 0.0
C33 C 0.17891 0.92105 0.93793 0.0
C34 C 0.22542 0.89907 0.08674 0.0
C35 C 0.20567 0.92881 0.08205 0.0
C36 C 0.58484 0.65961 0.49101 0.0
C37 C 0.59843 0.67062 0.45673 0.0
C38 C 0.62381 0.69504 0.45745 0.0
C39 C 0.63588 0.70753 0.49165 0.0
H40 H 0.71035 0.76243 0.5351 0.0
H41 H 0.75614 0.80164 0.53106 0.0
H42 H 0.7526 0.81835 0.64814 0.0
H43 H 0.70685 0.77759 0.65282 0.0
H44 H 0.64562 0.7325 0.69811 0.0
H45 H 0.628 0.70658 0.75968 0.0
H46 H 0.59658 0.61844 0.71001 0.0
H47 H 0.61344 0.6443 0.6485 0.0
H48 H 0.58632 0.66263 0.55133 0.0
H49 H 0.56493 0.64117 0.49141 0.0
H50 H 0.63536 0.70374 0.43193 0.0
H51 H 0.65591 0.72585 0.49103 0.0
N52 N 0.66218 0.73131 0.5627 0.0
N53 N 0.66605 0.7295 0.63011 0.0
N54 N 0.62749 0.69504 0.59734 0.0
C55 C 0.67663 0.74228 0.59589 0.0
C56 C 0.64149 0.70574 0.63099 0.0
C57 C 0.63756 0.70792 0.56297 0.0
C58 C 0.70458 0.76689 0.59424 0.0
C59 C 0.71904 0.77442 0.56011 0.0
C60 C 0.74534 0.79725 0.55764 0.0
C61 C 0.75786 0.81371 0.58902 0.0
C62 C 0.74371 0.80605 0.62345 0.0
C63 C 0.71737 0.78281 0.62606 0.0
C64 C 0.63091 0.69049 0.66839 0.0
C65 C 0.63493 0.7076 0.70036 0.0
C66 C 0.62474 0.69288 0.7355 0.0
C67 C 0.6111 0.66048 0.73956 0.0
C68 C 0.60729 0.64333 0.70773 0.0
C69 C 0.61677 0.65827 0.67245 0.0
C70 C 0.62304 0.69584 0.52624 0.0
C71 C 0.59703 0.67203 0.52537 0.0
C72 C 0.82412 0.08146 0.946 0.0
C73 C 0.80912 0.09602 0.90777 0.0
C74 C 0.78132 0.11879 0.90253 0.0
C75 C 0.76925 0.1272 0.93482 0.0
H76 H 0.71619 0.20543 0.97098 0.0
H77 H 0.67998 0.25487 0.9687 0.0
H78 H 0.66873 0.21988 0.08869 0.0
H79 H 0.70522 0.17132 0.09128 0.0
H80 H 0.76746 0.13273 0.14546 0.0
H81 H 0.79953 0.11342 0.21042 0.0
H82 H 0.86463 0.05159 0.16314 0.0
H83 H 0.83229 0.0707 0.09764 0.0
H84 H 0.82471 0.07823 0.00706 0.0
H85 H 0.84599 0.06433 0.9513 0.0
H86 H 0.76891 0.13019 0.87348 0.0
H87 H 0.74802 0.14506 0.92974 0.0
N88 N 0.74882 0.14738 0.00326 0.0
N89 N 0.75472 0.14186 0.07133 0.0
N90 N 0.78856 0.10828 0.0442 0.0
C91 C 0.73928 0.15684 0.03518 0.0
C92 C 0.77935 0.11765 0.07622 0.0
C93 C 0.77334 0.12284 0.00761 0.0
C94 C 0.71403 0.18465 0.03147 0.0
C95 C 0.70566 0.20816 0.99669 0.0
C96 C 0.68485 0.23647 0.99538 0.0
C97 C 0.67193 0.24168 0.02875 0.0
C98 C 0.679 0.21721 0.06278 0.0
C99 C 0.69982 0.18918 0.06417 0.0
C100 C 0.79742 0.10354 0.11609 0.0
C101 C 0.78845 0.11486 0.14869 0.0
C102 C 0.80696 0.10394 0.18603 0.0
C103 C 0.83484 0.08132 0.19183 0.0
C104 C 0.84317 0.06897 0.15956 0.0
C105 C 0.82469 0.08004 0.12202 0.0
C106 C 0.78471 0.11297 0.97305 0.0
C107 C 0.81203 0.08971 0.97815 0.0
C108 C 0.43417 0.33283 0.57924 0.0
C109 C 0.41805 0.32526 0.6122 0.0
C110 C 0.39052 0.30317 0.61091 0.0
C111 C 0.37874 0.28987 0.57719 0.0
H112 H 0.31851 0.21781 0.53718 0.0
H113 H 0.26974 0.18188 0.54027 0.0
H114 H 0.24379 0.20157 0.41434 0.0
H115 H 0.29351 0.23751 0.41101 0.0
H116 H 0.34138 0.29204 0.3635 0.0
H117 H 0.35833 0.32113 0.30331 0.0
H118 H 0.45157 0.35105 0.37008 0.0
H119 H 0.43411 0.32318 0.43001 0.0
H120 H 0.43478 0.32669 0.52028 0.0
H121 H 0.45583 0.34925 0.57939 0.0
H122 H 0.37709 0.29712 0.6354 0.0
H123 H 0.35692 0.27363 0.57709 0.0
N124 N 0.35367 0.26443 0.50659 0.0
N125 N 0.349 0.26802 0.43881 0.0
N126 N 0.38991 0.29945 0.47284 0.0
C127 C 0.33844 0.25476 0.4729 0.0
C128 C 0.37496 0.29025 0.43868 0.0
C129 C 0.37933 0.28671 0.50693 0.0
C130 C 0.3098 0.231 0.47383 0.0
C131 C 0.3026 0.21457 0.50999 0.0
C132 C 0.27444 0.194 0.51182 0.0
C133 C 0.25248 0.18933 0.4776 0.0
C134 C 0.26025 0.20466 0.44125 0.0
C135 C 0.28867 0.22533 0.43936 0.0
C136 C 0.38619 0.30555 0.40166 0.0
C137 C 0.36558 0.30469 0.36527 0.0
C138 C 0.37539 0.32127 0.3307 0.0
C139 C 0.40617 0.33884 0.33174 0.0
C140 C 0.42727 0.33859 0.36811 0.0
C141 C 0.41733 0.32237 0.40258 0.0
C142 C 0.39397 0.29851 0.54371 0.0
C143 C 0.42219 0.31973 0.54535 0.0
C144 C 0.9472 0.10598 0.49056 0.0
C145 C 0.88951 0.09244 0.46318 0.0
C146 C 0.92099 0.08298 0.4879 0.0
C147 C 0.88482 0.12507 0.44109 0.0
C148 C 0.94259 0.13871 0.46829 0.0
C149 C 0.91128 0.14812 0.44362 0.0
N150 N 0.97747 0.09605 0.51413 0.0
C151 C 0.0039 0.11768 0.51747 0.0
C152 C 0.96974 0.16095 0.47124 0.0
C153 C 1.00049 0.15039 0.496 0.0
Gd154 Gd 0.02469 0.96557 0.51211 0.0
Gd155 Gd 0.98035 0.04103 0.54918 0.0
N156 N 0.9266 0.05118 0.50877 0.0
C157 C 0.86362 0.06881 0.46141 0.0
C158 C 0.90083 0.02872 0.50864 0.0
C159 C 0.86921 0.03694 0.48455 0.0
H160 H 0.90401 0.00481 0.5277 0.0
H161 H 0.849 0.01882 0.48426 0.0
H162 H 0.10321 0.99915 0.52524 0.0
H163 H 0.02733 0.10997 0.53737 0.0
H164 H 0.15941 0.98485 0.5661 0.0
H165 H 0.83906 0.07511 0.4428 0.0
H166 H 0.86082 0.13272 0.42191 0.0
H167 H 0.97644 0.89816 0.52999 0.0
H168 H 0.9672 0.18631 0.45462 0.0
H169 H 0.02151 0.1675 0.49874 0.0
H170 H 0.14628 0.87411 0.63673 0.0
H171 H 0.90729 0.17315 0.42629 0.0
H172 H 0.03733 0.82282 0.61335 0.0
H173 H 0.98213 0.84176 0.57119 0.0
N174 N 0.02745 0.91149 0.54978 0.0
C175 C 0.0582 0.90139 0.57215 0.0
C176 C 1.00039 0.89048 0.54898 0.0
C177 C 0.03489 0.84773 0.59559 0.0
C178 C 0.00365 0.85836 0.57193 0.0
C179 C 0.06268 0.86926 0.59588 0.0
H180 H 0.09849 0.8351 0.63757 0.0
N181 N 0.07992 0.95455 0.54884 0.0
C182 C 0.08518 0.92353 0.57171 0.0
C183 C 0.14402 0.93652 0.59337 0.0
C184 C 0.11729 0.91386 0.59493 0.0
C185 C 0.10639 0.97596 0.54573 0.0
C186 C 0.13862 0.96755 0.56836 0.0
O187 O 0.97777 0.04423 0.48382 0.0
O188 O 0.97519 0.98884 0.47772 0.0
O189 O 0.05121 0.96852 0.4614 0.0
O190 O 0.01943 0.9258 0.47825 0.0
O191 O 0.96356 0.98749 0.56786 0.0
O192 O 0.96886 0.96134 0.51605 0.0
O193 O 0.02899 0.96364 0.57753 0.0
O194 O 0.02995 0.0191 0.58576 0.0
O195 O 0.94845 0.03732 0.59396 0.0
O196 O 0.98155 0.07971 0.58516 0.0
O197 O 0.04389 0.01861 0.49592 0.0
O198 O 0.03625 0.04686 0.54594 0.0
C199 C 0.97039 0.02073 0.46246 0.0
C200 C 0.95578 0.96326 0.54745 0.0
C201 C 0.04489 0.92353 0.42133 0.0
C202 C 0.07178 0.92087 0.36459 0.0
C203 C 0.03058 0.87916 0.38295 0.0
C204 C 0.0265 0.89465 0.41428 0.0
C205 C 0.05299 0.89221 0.35816 0.0
C206 C 0.06784 0.93661 0.39632 0.0
C207 C 0.03866 0.93988 0.45403 0.0
C208 C 0.12179 0.88192 0.61869 0.0
C209 C 0.09458 0.85968 0.61914 0.0
H210 H 0.16906 0.93005 0.61076 0.0
C211 C 0.03856 0.98719 0.59828 0.0
C212 C 0.05147 0.04288 0.51652 0.0
C213 C 0.9704 0.06134 0.64893 0.0
C214 C 0.95393 0.06158 0.71244 0.0
C215 C 0.01316 0.05057 0.70775 0.0
C216 C 0.00437 0.05391 0.66723 0.0
C217 C 0.98815 0.0543 0.73028 0.0
C218 C 0.94529 0.06528 0.67156 0.0
C219 C 0.9605 0.06433 0.60642 0.0
H220 H 0.01618 0.85705 0.37775 0.0
H221 H 0.00859 0.88406 0.43282 0.0
H222 H 0.05575 0.87989 0.33382 0.0
H223 H 0.08215 0.95891 0.40114 0.0
H224 H 0.03942 0.04497 0.72176 0.0
H225 H 0.02404 0.0507 0.65024 0.0
H226 H 0.99562 0.05176 0.76166 0.0
H227 H 0.91897 0.07058 0.65739 0.0
C228 C 0.60663 0.54909 0.03151 0.0
C229 C 0.59543 0.60888 0.00793 0.0
C230 C 0.58528 0.57746 0.02634 0.0
C231 C 0.62682 0.61132 0.99442 0.0
C232 C 0.63822 0.55153 0.01819 0.0
C233 C 0.64816 0.58277 0.99959 0.0
N234 N 0.59595 0.51887 0.04839 0.0
C235 C 0.61595 0.49047 0.05431 0.0
C236 C 0.65874 0.52237 0.0236 0.0
C237 C 0.64761 0.49175 0.04189 0.0
Gd238 Gd 0.46365 0.49091 0.99188 0.0
Gd239 Gd 0.54316 0.51969 0.06881 0.0
N240 N 0.55466 0.57432 0.0391 0.0
C241 C 0.57387 0.63705 0.00393 0.0
C242 C 0.53474 0.60209 0.03761 0.0
C243 C 0.54363 0.6337 0.01931 0.0
H244 H 0.51269 0.60038 0.05163 0.0
H245 H 0.52743 0.65557 0.01771 0.0
H246 H 0.48354 0.40877 0.00617 0.0
H247 H 0.60766 0.46692 0.06901 0.0
H248 H 0.45624 0.35452 0.02384 0.0
H249 H 0.58075 0.66162 0.98994 0.0
H250 H 0.63492 0.63526 0.9801 0.0
H251 H 0.4032 0.55132 0.98518 0.0
H252 H 0.68322 0.52324 0.01382 0.0
H253 H 0.66342 0.46915 0.04649 0.0
H254 H 0.34349 0.3859 0.03904 0.0
H255 H 0.67229 0.58511 0.98904 0.0
H256 H 0.31364 0.50338 0.01761 0.0
H257 H 0.34421 0.5552 0.99705 0.0
N258 N 0.40771 0.49816 0.00317 0.0
C259 C 0.39087 0.46926 0.01283 0.0
C260 C 0.39103 0.52868 0.99643 0.0
C261 C 0.33998 0.50158 0.01358 0.0
C262 C 0.3572 0.5309 0.00217 0.0
C263 C 0.35659 0.47023 0.01849 0.0
H264 H 0.31348 0.44029 0.03269 0.0
N265 N 0.44081 0.43827 0.01083 0.0
C266 C 0.40767 0.43846 0.01611 0.0
C267 C 0.40868 0.37758 0.02869 0.0
C268 C 0.3908 0.40805 0.02551 0.0
C269 C 0.45797 0.40871 0.01251 0.0
C270 C 0.44238 0.37794 0.02203 0.0
O271 O 0.54662 0.51993 0.00518 0.0
O272 O 0.493 0.53763 0.97517 0.0
O273 O 0.47057 0.47161 0.93855 0.0
O274 O 0.42563 0.50225 0.94028 0.0
O275 O 0.49082 0.54231 0.0675 0.0
O276 O 0.46503 0.54411 0.00369 0.0
O277 O 0.46418 0.46578 0.05481 0.0
O278 O 0.50496 0.4888 0.09805 0.0
O279 O 0.55509 0.54922 0.11552 0.0
O280 O 0.58064 0.50016 0.12034 0.0
O281 O 0.51488 0.46383 1.00058 0.0
O282 O 0.54222 0.46437 0.06436 0.0
C283 C 0.52594 0.53676 0.97527 0.0
C284 C 0.46674 0.55364 0.03772 0.0
C285 C 0.42702 0.48502 0.87866 0.0
C286 C 0.42453 0.46256 0.81835 0.0
C287 C 0.38596 0.50827 0.82092 0.0
C288 C 0.40032 0.50796 0.85982 0.0
C289 C 0.39804 0.48583 0.80022 0.0
C290 C 0.43896 0.46198 0.85781 0.0
C291 C 0.44153 0.48569 0.91992 0.0
C292 C 0.35684 0.409 0.03168 0.0
C293 C 0.33979 0.43999 0.02817 0.0
H294 H 0.39666 0.35369 0.03601 0.0
C295 C 0.47897 0.46936 0.09021 0.0
C296 C 0.53593 0.45042 0.03268 0.0
C297 C 0.59616 0.53013 0.17494 0.0
C298 C 0.60073 0.55095 0.23664 0.0
C299 C 0.64506 0.51388 0.22632 0.0
C300 C 0.6273 0.51232 0.18905 0.0
C301 C 0.63177 0.53283 0.25011 0.0
C302 C 0.58311 0.54999 0.19869 0.0
C303 C 0.57685 0.52638 0.13639 0.0
H304 H 0.36543 0.52603 0.80674 0.0
H305 H 0.39051 0.5259 0.87509 0.0
H306 H 0.38648 0.48644 0.76996 0.0
H307 H 0.45937 0.44401 0.87193 0.0
H308 H 0.66905 0.50006 0.23699 0.0
H309 H 0.63788 0.49703 0.17129 0.0
H310 H 0.64576 0.53338 0.27918 0.0
H311 H 0.5589 0.56359 0.18836 0.0
H312 H 0.20868 0.19058 0.52916 0.0
H313 H 0.08404 0.05065 0.45269 0.0
H314 H 0.22439 0.14314 0.43258 0.0
H315 H 0.08485 0.08542 0.56199 0.0
H316 H 0.13202 0.08732 0.44076 0.0
H317 H 0.15931 0.15579 0.53699 0.0
C318 C 0.20184 0.17268 0.50967 0.0
C319 C 0.2211 0.16943 0.48055 0.0
C320 C 0.12151 0.08698 0.46722 0.0
C321 C 0.16399 0.12959 0.48909 0.0
C322 C 0.09413 0.06609 0.47406 0.0
C323 C 0.08007 0.06522 0.5082 0.0
C324 C 0.13478 0.10721 0.49464 0.0
C325 C 0.09433 0.08563 0.53493 0.0
C326 C 0.1735 0.15287 0.51407 0.0
C327 C 0.21029 0.14649 0.45541 0.0
N328 N 0.12076 0.10577 0.52753 0.0
N329 N 0.18251 0.12728 0.46037 0.0
H330 H 0.38237 0.75545 0.99025 0.0
H331 H 0.44498 0.57135 0.10128 0.0
H332 H 0.34182 0.70746 0.09166 0.0
H333 H 0.4451 0.60586 0.97852 0.0
H334 H 0.41475 0.62386 0.10374 0.0
H335 H 0.41411 0.70363 0.99147 0.0
C336 C 0.38002 0.73404 0.01277 0.0
C337 C 0.35882 0.7358 0.0405 0.0
C338 C 0.42131 0.61975 0.0763 0.0
C339 C 0.39583 0.67643 0.04245 0.0
C340 C 0.4385 0.58992 0.07489 0.0
C341 C 0.44716 0.58419 0.03959 0.0
C342 C 0.41353 0.64422 0.04235 0.0
C343 C 0.43844 0.60906 0.00622 0.0
C344 C 0.39828 0.70448 0.01348 0.0
C345 C 0.35787 0.70743 0.06975 0.0
N346 N 0.4223 0.63805 0.00848 0.0
N347 N 0.37604 0.67885 0.0699 0.0
H348 H 0.76641 0.85929 0.52436 0.0
H349 H 0.93447 0.94366 0.61791 0.0
H350 H 0.81256 0.82532 0.64481 0.0
H351 H 0.91207 0.9328 0.49668 0.0
H352 H 0.88542 0.90826 0.63041 0.0
H353 H 0.81474 0.89552 0.51589 0.0
C354 C 0.78673 0.85929 0.54908 0.0
C355 C 0.78562 0.83851 0.58517 0.0
C356 C 0.89145 0.91362 0.60118 0.0
C357 C 0.84085 0.88086 0.57571 0.0
C358 C 0.91928 0.9338 0.59401 0.0
C359 C 0.92736 0.94101 0.55625 0.0
C360 C 0.87122 0.9014 0.57011 0.0
C361 C 0.90694 0.92763 0.52629 0.0
C362 C 0.81427 0.88014 0.54418 0.0
C363 C 0.81224 0.84081 0.61645 0.0
N364 N 0.87967 0.90874 0.5338 0.0
N365 N 0.83888 0.86154 0.61098 0.0
H366 H 0.67625 0.27876 0.08743 0.0
H367 H 0.5388 0.4197 0.96969 0.0
H368 H 0.62321 0.27633 0.97051 0.0
H369 H 0.57835 0.41073 0.09301 0.0
H370 H 0.57186 0.36932 0.96811 0.0
H371 H 0.64312 0.32914 0.0885 0.0
C372 C 0.65742 0.28864 0.06204 0.0
C373 C 0.65229 0.27295 0.02896 0.0
C374 C 0.57329 0.37836 0.99552 0.0
C375 C 0.61456 0.33125 0.02981 0.0
C376 C 0.55439 0.40717 0.99651 0.0
C377 C 0.55575 0.41962 0.03159 0.0
C378 C 0.59395 0.36187 0.02978 0.0
C379 C 0.57655 0.40223 0.06527 0.0
C380 C 0.63863 0.31757 0.06263 0.0
C381 C 0.62819 0.2876 0.99656 0.0
N382 N 0.59488 0.37432 0.06349 0.0
N383 N 0.61019 0.3159 0.99782 0.0
H384 H 0.22985 0.91025 0.22937 0.0
H385 H 0.05444 0.95771 0.29206 0.0
H386 H 0.1376 0.94533 0.14863 0.0
H387 H 0.14052 0.90986 0.37382 0.0
H388 H 0.08928 0.96458 0.24036 0.0
H389 H 0.20169 0.9194 0.2834 0.0
C390 C 0.20377 0.92 0.22289 0.0
C391 C 0.18606 0.92671 0.18423 0.0
C392 C 0.10088 0.95323 0.26975 0.0
C393 C 0.15388 0.93777 0.24603 0.0
C394 C 0.0811 0.94968 0.29926 0.0
C395 C 0.09489 0.93355 0.33709 0.0
C396 C 0.13453 0.94003 0.27807 0.0
C397 C 0.12926 0.92284 0.345 0.0
C398 C 0.18781 0.92545 0.25378 0.0
C399 C 0.15254 0.94006 0.17774 0.0
N400 N 0.14786 0.92587 0.31557 0.0
N401 N 0.13754 0.94489 0.20827 0.0
H402 H 0.56918 0.68644 0.78194 0.0
H403 H 0.58677 0.52576 0.95257 0.0
H404 H 0.62921 0.59781 0.78138 0.0
H405 H 0.49763 0.59185 0.92316 0.0
H406 H 0.60969 0.55771 0.89737 0.0
H407 H 0.5496 0.65763 0.84135 0.0
C408 C 0.57847 0.66106 0.79459 0.0
C409 C 0.60068 0.64436 0.77675 0.0
C410 C 0.58512 0.56519 0.90303 0.0
C411 C 0.5787 0.61151 0.84451 0.0
C412 C 0.57209 0.54708 0.93457 0.0
C413 C 0.54015 0.55606 0.94224 0.0
C414 C 0.56627 0.59272 0.87925 0.0
C415 C 0.52218 0.58386 0.91795 0.0
C416 C 0.56717 0.64461 0.82826 0.0
C417 C 0.61184 0.61142 0.79411 0.0
N418 N 0.53552 0.60129 0.88757 0.0
N419 N 0.60082 0.59609 0.82709 0.0
H420 H 0.85991 0.01855 0.22881 0.0
H421 H 0.95594 0.08406 0.41948 0.0
H422 H 0.85744 0.12224 0.24453 0.0
H423 H 0.94265 0.97875 0.41284 0.0
H424 H 0.92299 0.09874 0.35374 0.0
H425 H 0.89389 0.00363 0.29439 0.0
C426 C 0.86664 0.03817 0.246 0.0
C427 C 0.85569 0.07165 0.2313 0.0
C428 C 0.92724 0.07241 0.36669 0.0
C429 C 0.89443 0.05481 0.30623 0.0
C430 C 0.94594 0.06401 0.40436 0.0
C431 C 0.95163 0.03013 0.42205 0.0
C432 C 0.91457 0.04675 0.34622 0.0
C433 C 0.93874 0.00522 0.40051 0.0
C434 C 0.88585 0.02963 0.28348 0.0
C435 C 0.86491 0.09604 0.25494 0.0
N436 N 0.92083 0.01404 0.36373 0.0
N437 N 0.88377 0.08715 0.29117 0.0
H438 H 0.41995 0.29927 0.69032 0.0
H439 H 0.45281 0.47922 0.75332 0.0
H440 H 0.43869 0.39017 0.61285 0.0
H441 H 0.42093 0.39381 0.82924 0.0
H442 H 0.45949 0.44307 0.70611 0.0
H443 H 0.43015 0.33001 0.74513 0.0
C444 C 0.42641 0.32558 0.68478 0.0
C445 C 0.42813 0.34216 0.64666 0.0
C446 C 0.45157 0.43197 0.73333 0.0
C447 C 0.44038 0.37727 0.70946 0.0
C448 C 0.44802 0.45257 0.76033 0.0
C449 C 0.43627 0.43935 0.79496 0.0
C450 C 0.44282 0.39795 0.74074 0.0
C451 C 0.43022 0.40477 0.80282 0.0
C452 C 0.43245 0.34303 0.71617 0.0
C453 C 0.43738 0.3761 0.64157 0.0
N454 N 0.43305 0.38525 0.77556 0.0
N455 N 0.44287 0.3925 0.67249 0.0
H456 H 0.58986 0.70116 0.37933 0.0
H457 H 0.5794 0.52504 0.30437 0.0
H458 H 0.58381 0.60459 0.45272 0.0
H459 H 0.593 0.61926 0.23056 0.0
H460 H 0.56931 0.55565 0.35563 0.0
H461 H 0.58082 0.67352 0.32201 0.0
C462 C 0.5864 0.6742 0.38345 0.0
C463 C 0.58814 0.65516 0.42115 0.0
C464 C 0.57395 0.5698 0.32806 0.0
C465 C 0.57734 0.62343 0.35544 0.0
C466 C 0.5795 0.55231 0.29878 0.0
C467 C 0.58715 0.56974 0.26346 0.0
C468 C 0.57666 0.60501 0.32226 0.0
C469 C 0.58709 0.60502 0.25749 0.0
C470 C 0.58103 0.65848 0.35063 0.0
C471 C 0.58256 0.62044 0.42442 0.0
N472 N 0.58249 0.62155 0.28689 0.0
N473 N 0.5778 0.60572 0.39211 0.0
H474 H 0.83452 0.03556 0.89771 0.0
H475 H 0.90319 0.11026 0.70044 0.0
H476 H 0.81723 0.13919 0.84055 0.0
H477 H 0.94433 0.02036 0.77948 0.0
H478 H 0.86229 0.11687 0.7438 0.0
H479 H 0.86546 0.02544 0.84654 0.0
C480 C 0.83709 0.0562 0.87435 0.0
C481 C 0.82376 0.08847 0.87396 0.0
C482 C 0.88019 0.09563 0.75145 0.0
C483 C 0.8588 0.07682 0.81484 0.0
C484 C 0.90338 0.09176 0.7267 0.0
C485 C 0.92745 0.06494 0.73669 0.0
C486 C 0.88084 0.07227 0.78609 0.0
C487 C 0.92663 0.04173 0.77106 0.0
C488 C 0.85466 0.05033 0.84505 0.0
C489 C 0.82701 0.1139 0.84215 0.0
N490 N 0.9038 0.04598 0.79454 0.0
N491 N 0.84446 0.10761 0.81401 0.0
H492 H 0.4377 0.39964 0.3227 0.0
H493 H 0.43596 0.41516 0.09335 0.0
H494 H 0.39652 0.32286 0.25758 0.0
H495 H 0.49445 0.47807 0.16629 0.0
H496 H 0.41669 0.38352 0.15113 0.0
H497 H 0.45466 0.43079 0.26386 0.0
C498 C 0.43244 0.3891 0.29614 0.0
C499 C 0.41593 0.35826 0.29542 0.0
C500 C 0.43371 0.4043 0.15436 0.0
C501 C 0.43474 0.3945 0.22724 0.0
C502 C 0.44445 0.42261 0.12124 0.0
C503 C 0.46651 0.44968 0.12455 0.0
C504 C 0.44516 0.41314 0.19112 0.0
C505 C 0.47739 0.45751 0.16197 0.0
C506 C 0.44196 0.4071 0.26237 0.0
C507 C 0.40894 0.3466 0.25958 0.0
N508 N 0.46659 0.43941 0.19362 0.0
N509 N 0.4184 0.36472 0.22693 0.0
H510 H 0.11146 0.90708 0.84066 0.0
H511 H 0.08676 0.02509 0.63433 0.0
H512 H 0.19447 0.96636 0.80352 0.0
H513 H 0.04035 0.92778 0.64955 0.0
H514 H 0.12153 0.00981 0.69955 0.0
H515 H 0.07922 0.92055 0.77386 0.0
C516 C 0.12276 0.92309 0.81844 0.0
C517 C 0.15556 0.93574 0.82748 0.0
C518 C 0.1038 0.99183 0.68847 0.0
C519 C 0.11891 0.9513 0.75147 0.0
C520 C 0.08387 1.00054 0.65147 0.0
C521 C 0.0605 0.97773 0.63681 0.0
C522 C 0.09969 0.96043 0.71125 0.0
C523 C 0.05803 0.9461 0.65991 0.0
C524 C 0.10452 0.93051 0.7804 0.0
C525 C 0.16925 0.95609 0.79761 0.0
N526 N 0.07707 0.93851 0.6963 0.0
N527 N 0.1507 0.96355 0.76093 0.0
loop_
_geom_bond_atom_site_label_1
_geom_bond_atom_site_label_2
_geom_bond_distance
_geom_bond_site_symmetry_2
_ccdc_geom_bond_type
C0 C1 1.384 . S
C0 H13 0.947 . S
C0 C35 1.382 . S
C1 C0 1.384 . S
C1 C2 1.378 . S
C2 C1 1.378 . S
C2 C3 1.378 . S
C2 H14 0.952 . S
C3 C2 1.378 . S
C3 H15 0.950 . S
C3 C34 1.383 . S
H4 C23 0.947 . S
H5 C24 0.946 . S
H6 C26 0.953 . S
H7 C27 0.945 . S
H8 C29 0.952 . S
H9 C30 0.949 . S
H10 C32 0.950 . S
H11 C33 0.948 . S
H12 C35 0.951 . S
H13 C0 0.947 . S
H14 C2 0.952 . S
H15 C3 0.950 . S
N16 C19 1.382 . S
N16 C21 1.363 . S
N17 C19 1.371 1_556 S
N17 C20 1.372 . S
N18 C20 1.361 1_554 S
N18 C21 1.377 . S
C19 N16 1.382 . S
C19 N17 1.371 1_554 S
C19 C22 1.480 . S
C20 N17 1.372 . S
C20 N18 1.361 1_556 S
C20 C28 1.457 . S
C21 N16 1.363 . S
C21 N18 1.377 . S
C21 C34 1.479 . S
C22 C19 1.480 . S
C22 C23 1.383 . S
C22 C27 1.385 1_554 S
C23 H4 0.947 . S
C23 C22 1.383 . S
C23 C24 1.388 . S
C24 H5 0.946 . S
C24 C23 1.388 . S
C24 C25 1.384 . S
C25 C24 1.384 . S
C25 C26 1.377 1_554 S
C26 H6 0.953 . S
C26 C25 1.377 1_556 S
C26 C27 1.369 . S
C27 H7 0.945 . S
C27 C22 1.385 1_556 S
C27 C26 1.369 . S
C28 C20 1.457 . S
C28 C29 1.372 . S
C28 C33 1.364 . S
C29 H8 0.952 . S
C29 C28 1.372 . S
C29 C30 1.389 . S
C30 H9 0.949 . S
C30 C29 1.389 . S
C30 C31 1.387 . S
C31 C30 1.387 . S
C31 C32 1.372 . S
C32 H10 0.950 . S
C32 C31 1.372 . S
C32 C33 1.379 . S
C33 H11 0.948 . S
C33 C28 1.364 . S
C33 C32 1.379 . S
C34 C3 1.383 . S
C34 C21 1.479 . S
C34 C35 1.398 . S
C35 C0 1.382 . S
C35 H12 0.951 . S
C35 C34 1.398 . S
C36 C37 1.384 . S
C36 H49 0.947 . S
C36 C71 1.382 . S
C37 C36 1.384 . S
C37 C38 1.378 . S
C38 C37 1.378 . S
C38 C39 1.378 . S
C38 H50 0.952 . S
C39 C38 1.378 . S
C39 H51 0.950 . S
C39 C70 1.383 . S
H40 C59 0.947 . S
H41 C60 0.946 . S
H42 C62 0.953 . S
H43 C63 0.945 . S
H44 C65 0.952 . S
H45 C66 0.949 . S
H46 C68 0.950 . S
H47 C69 0.948 . S
H48 C71 0.951 . S
H49 C36 0.947 . S
H50 C38 0.952 . S
H51 C39 0.950 . S
N52 C55 1.382 . S
N52 C57 1.363 . S
N53 C55 1.371 . S
N53 C56 1.372 . S
N54 C56 1.361 . S
N54 C57 1.377 . S
C55 N52 1.382 . S
C55 N53 1.371 . S
C55 C58 1.480 . S
C56 N53 1.372 . S
C56 N54 1.361 . S
C56 C64 1.457 . S
C57 N52 1.363 . S
C57 N54 1.377 . S
C57 C70 1.479 . S
C58 C55 1.480 . S
C58 C59 1.383 . S
C58 C63 1.385 . S
C59 H40 0.947 . S
C59 C58 1.383 . S
C59 C60 1.388 . S
C60 H41 0.946 . S
C60 C59 1.388 . S
C60 C61 1.384 . S
C61 C60 1.384 . S
C61 C62 1.377 . S
C62 H42 0.953 . S
C62 C61 1.377 . S
C62 C63 1.369 . S
C63 H43 0.945 . S
C63 C58 1.385 . S
C63 C62 1.369 . S
C64 C56 1.457 . S
C64 C65 1.372 . S
C64 C69 1.364 . S
C65 H44 0.952 . S
C65 C64 1.372 . S
C65 C66 1.389 . S
C66 H45 0.949 . S
C66 C65 1.389 . S
C66 C67 1.387 . S
C67 C66 1.387 . S
C67 C68 1.372 . S
C68 H46 0.950 . S
C68 C67 1.372 . S
C68 C69 1.379 . S
C69 H47 0.948 . S
C69 C64 1.364 . S
C69 C68 1.379 . S
C70 C39 1.383 . S
C70 C57 1.479 . S
C70 C71 1.398 . S
C71 C36 1.382 . S
C71 H48 0.951 . S
C71 C70 1.398 . S
C72 C73 1.384 . S
C72 H85 0.947 . S
C72 C107 1.382 . S
C73 C72 1.384 . S
C73 C74 1.378 . S
C74 C73 1.378 . S
C74 C75 1.378 . S
C74 H86 0.952 . S
C75 C74 1.378 . S
C75 H87 0.950 . S
C75 C106 1.383 . S
H76 C95 0.947 . S
H77 C96 0.946 . S
H78 C98 0.953 . S
H79 C99 0.945 . S
H80 C101 0.952 . S
H81 C102 0.949 . S
H82 C104 0.950 . S
H83 C105 0.948 . S
H84 C107 0.951 1_554 S
H85 C72 0.947 . S
H86 C74 0.952 . S
H87 C75 0.950 . S
N88 C91 1.382 . S
N88 C93 1.363 . S
N89 C91 1.371 . S
N89 C92 1.372 . S
N90 C92 1.361 . S
N90 C93 1.377 . S
C91 N88 1.382 . S
C91 N89 1.371 . S
C91 C94 1.480 . S
C92 N89 1.372 . S
C92 N90 1.361 . S
C92 C100 1.457 . S
C93 N88 1.363 . S
C93 N90 1.377 . S
C93 C106 1.479 1_554 S
C94 C91 1.480 . S
C94 C95 1.383 1_554 S
C94 C99 1.385 . S
C95 H76 0.947 . S
C95 C94 1.383 1_556 S
C95 C96 1.388 . S
C96 H77 0.946 . S
C96 C95 1.388 . S
C96 C97 1.384 1_556 S
C97 C96 1.384 1_554 S
C97 C98 1.377 . S
C98 H78 0.953 . S
C98 C97 1.377 . S
C98 C99 1.369 . S
C99 H79 0.945 . S
C99 C94 1.385 . S
C99 C98 1.369 . S
C100 C92 1.457 . S
C100 C101 1.372 . S
C100 C105 1.364 . S
C101 H80 0.952 . S
C101 C100 1.372 . S
C101 C102 1.389 . S
C102 H81 0.949 . S
C102 C101 1.389 . S
C102 C103 1.387 . S
C103 C102 1.387 . S
C103 C104 1.372 . S
C104 H82 0.950 . S
C104 C103 1.372 . S
C104 C105 1.379 . S
C105 H83 0.948 . S
C105 C100 1.364 . S
C105 C104 1.379 . S
C106 C75 1.383 . S
C106 C93 1.479 1_556 S
C106 C107 1.398 . S
C107 C72 1.382 . S
C107 H84 0.951 1_556 S
C107 C106 1.398 . S
C108 C109 1.384 . S
C108 H121 0.947 . S
C108 C143 1.382 . S
C109 C108 1.384 . S
C109 C110 1.378 . S
C110 C109 1.378 . S
C110 C111 1.378 . S
C110 H122 0.952 . S
C111 C110 1.378 . S
C111 H123 0.950 . S
C111 C142 1.383 . S
H112 C131 0.947 . S
H113 C132 0.946 . S
H114 C134 0.953 . S
H115 C135 0.945 . S
H116 C137 0.952 . S
H117 C138 0.949 . S
H118 C140 0.950 . S
H119 C141 0.948 . S
H120 C143 0.951 . S
H121 C108 0.947 . S
H122 C110 0.952 . S
H123 C111 0.950 . S
N124 C127 1.382 . S
N124 C129 1.363 . S
N125 C127 1.371 . S
N125 C128 1.372 . S
N126 C128 1.361 . S
N126 C129 1.377 . S
C127 N124 1.382 . S
C127 N125 1.371 . S
C127 C130 1.480 . S
C128 N125 1.372 . S
C128 N126 1.361 . S
C128 C136 1.457 . S
C129 N124 1.363 . S
C129 N126 1.377 . S
C129 C142 1.479 . S
C130 C127 1.480 . S
C130 C131 1.383 . S
C130 C135 1.385 . S
C131 H112 0.947 . S
C131 C130 1.383 . S
C131 C132 1.388 . S
C132 H113 0.946 . S
C132 C131 1.388 . S
C132 C133 1.384 . S
C133 C132 1.384 . S
C133 C134 1.377 . S
C134 H114 0.953 . S
C134 C133 1.377 . S
C134 C135 1.369 . S
C135 H115 0.945 . S
C135 C130 1.385 . S
C135 C134 1.369 . S
C136 C128 1.457 . S
C136 C137 1.372 . S
C136 C141 1.364 . S
C137 H116 0.952 . S
C137 C136 1.372 . S
C137 C138 1.389 . S
C138 H117 0.949 . S
C138 C137 1.389 . S
C138 C139 1.387 . S
C139 C138 1.387 . S
C139 C140 1.372 . S
C140 H118 0.950 . S
C140 C139 1.372 . S
C140 C141 1.379 . S
C141 H119 0.948 . S
C141 C136 1.364 . S
C141 C140 1.379 . S
C142 C111 1.383 . S
C142 C129 1.479 . S
C142 C143 1.398 . S
C143 C108 1.382 . S
C143 H120 0.951 . S
C143 C142 1.398 . S
C144 C146 1.422 . S
C144 C148 1.415 . S
C144 N150 1.369 . S
C145 C146 1.421 . S
C145 C147 1.417 . S
C145 C157 1.422 . S
C146 C144 1.422 . S
C146 C145 1.421 . S
C146 N156 1.359 . S
C147 C145 1.417 . S
C147 C149 1.329 . S
C147 H166 0.930 . S
C148 C144 1.415 . S
C148 C149 1.437 . S
C148 C152 1.413 . S
C149 C147 1.329 . S
C149 C148 1.437 . S
C149 H171 0.929 . S
N150 C144 1.369 . S
N150 C151 1.317 1_655 S
N150 Gd155 2.622 . S
C151 N150 1.317 1_455 S
C151 C153 1.378 1_455 S
C151 H163 0.951 . S
C152 C148 1.413 . S
C152 C153 1.348 . S
C152 H168 0.931 . S
C153 C151 1.378 1_655 S
C153 C152 1.348 . S
C153 H169 0.930 1_655 S
Gd154 N174 2.622 . S
Gd154 N181 2.570 . S
Gd154 O188 2.370 1_455 S
Gd154 O189 2.468 . S
Gd154 O190 2.427 . S
Gd154 O192 2.388 1_455 S
Gd154 O193 2.386 . S
Gd154 O197 2.307 1_565 S
Gd154 C207 2.805 . S
Gd155 N150 2.622 . S
Gd155 N156 2.570 . S
Gd155 O187 2.386 . S
Gd155 O191 2.307 1_545 S
Gd155 O194 2.353 1_655 S
Gd155 O195 2.468 . S
Gd155 O196 2.427 . S
Gd155 O198 2.388 1_655 S
Gd155 C219 2.805 . S
N156 C146 1.359 . S
N156 Gd155 2.570 . S
N156 C158 1.343 . S
C157 C145 1.422 . S
C157 C159 1.321 . S
C157 H165 0.931 . S
C158 N156 1.343 . S
C158 C159 1.390 . S
C158 H160 0.931 . S
C159 C157 1.321 . S
C159 C158 1.390 . S
C159 H161 0.930 . S
H160 C158 0.931 . S
H161 C159 0.930 . S
H162 C185 0.931 . S
H163 C151 0.951 . S
H164 C186 0.930 . S
H165 C157 0.931 . S
H166 C147 0.930 . S
H167 C176 0.929 1_655 S
H168 C152 0.931 . S
H169 C153 0.930 1_455 S
H170 C208 0.930 . S
H171 C149 0.929 . S
H172 C177 0.931 . S
H173 C178 0.930 1_655 S
N174 Gd154 2.622 . S
N174 C175 1.369 . S
N174 C176 1.338 . S
C175 N174 1.369 . S
C175 C179 1.415 . S
C175 C182 1.422 . S
C176 H167 0.929 1_455 S
C176 N174 1.338 . S
C176 C178 1.378 . S
C177 H172 0.931 . S
C177 C178 1.348 . S
C177 C179 1.413 . S
C178 H173 0.930 1_455 S
C178 C176 1.378 . S
C178 C177 1.348 . S
C179 C175 1.415 . S
C179 C177 1.413 . S
C179 C209 1.437 . S
H180 C209 0.929 . S
N181 Gd154 2.570 . S
N181 C182 1.359 . S
N181 C185 1.343 . S
C182 C175 1.422 . S
C182 N181 1.359 . S
C182 C184 1.421 . S
C183 C184 1.422 . S
C183 C186 1.321 . S
C183 H210 0.931 . S
C184 C182 1.421 . S
C184 C183 1.422 . S
C184 C208 1.417 . S
C185 H162 0.931 . S
C185 N181 1.343 . S
C185 C186 1.390 . S
C186 H164 0.930 . S
C186 C183 1.321 . S
C186 C185 1.390 . S
O187 Gd155 2.386 . S
O187 C199 1.265 . S
O188 Gd154 2.370 1_655 S
O188 C199 1.215 1_565 S
O189 Gd154 2.468 . S
O189 C207 1.263 . S
O190 Gd154 2.427 . S
O190 C207 1.252 . S
O191 Gd155 2.307 1_565 S
O191 C200 1.261 . S
O192 Gd154 2.388 1_655 S
O192 C200 1.252 . S
O193 Gd154 2.386 . S
O193 C211 1.265 . S
O194 Gd155 2.353 1_455 S
O194 C211 1.242 1_545 S
O195 Gd155 2.468 . S
O195 C219 1.263 . S
O196 Gd155 2.427 . S
O196 C219 1.252 . S
O197 Gd154 2.307 1_545 S
O197 C212 1.261 . S
O198 Gd155 2.388 1_455 S
O198 C212 1.252 . S
C199 O187 1.265 . S
C199 O188 1.215 1_545 S
C200 O191 1.261 . S
C200 O192 1.252 . S
C201 C204 1.394 . S
C201 C206 1.370 . S
C201 C207 1.500 . S
C202 C205 1.383 . S
C202 C206 1.395 . S
C203 C204 1.396 . S
C203 C205 1.365 . S
C203 H220 0.929 . S
C204 C201 1.394 . S
C204 C203 1.396 . S
C204 H221 0.930 . S
C205 C202 1.383 . S
C205 C203 1.365 . S
C205 H222 0.931 . S
C206 C201 1.370 . S
C206 C202 1.395 . S
C206 H223 0.930 . S
C207 Gd154 2.805 . S
C207 O189 1.263 . S
C207 O190 1.252 . S
C207 C201 1.500 . S
C208 H170 0.930 . S
C208 C184 1.417 . S
C208 C209 1.329 . S
C209 C179 1.437 . S
C209 H180 0.929 . S
C209 C208 1.329 . S
H210 C183 0.931 . S
C211 O193 1.265 . S
C211 O194 1.242 1_565 S
C212 O197 1.261 . S
C212 O198 1.252 . S
C213 C216 1.394 . S
C213 C218 1.370 . S
C213 C219 1.500 . S
C214 C217 1.383 . S
C214 C218 1.395 . S
C215 C216 1.396 . S
C215 C217 1.365 . S
C215 H224 0.929 . S
C216 C213 1.394 . S
C216 C215 1.396 . S
C216 H225 0.930 . S
C217 C214 1.383 . S
C217 C215 1.365 . S
C217 H226 0.931 . S
C218 C213 1.370 . S
C218 C214 1.395 . S
C218 H227 0.930 . S
C219 Gd155 2.805 . S
C219 O195 1.263 . S
C219 O196 1.252 . S
C219 C213 1.500 . S
H220 C203 0.929 . S
H221 C204 0.930 . S
H222 C205 0.931 . S
H223 C206 0.930 . S
H224 C215 0.929 . S
H225 C216 0.930 . S
H226 C217 0.931 . S
H227 C218 0.930 . S
C228 C230 1.422 . S
C228 C232 1.415 . S
C228 N234 1.369 . S
C229 C230 1.421 . S
C229 C231 1.417 . S
C229 C241 1.422 . S
C230 C228 1.422 . S
C230 C229 1.421 . S
C230 N240 1.359 . S
C231 C229 1.417 . S
C231 C233 1.329 . S
C231 H250 0.930 . S
C232 C228 1.415 . S
C232 C233 1.437 . S
C232 C236 1.413 . S
C233 C231 1.329 . S
C233 C232 1.437 . S
C233 H255 0.929 . S
N234 C228 1.369 . S
N234 C235 1.338 . S
N234 Gd239 2.622 . S
C235 N234 1.338 . S
C235 C237 1.378 . S
C235 H247 0.929 . S
C236 C232 1.413 . S
C236 C237 1.348 . S
C236 H252 0.931 . S
C237 C235 1.378 . S
C237 C236 1.348 . S
C237 H253 0.930 . S
Gd238 N258 2.622 . S
Gd238 N265 2.570 1_556 S
Gd238 O272 2.353 . S
Gd238 O273 2.468 . S
Gd238 O274 2.427 . S
Gd238 O276 2.388 . S
Gd238 O277 2.386 1_556 S
Gd238 O281 2.307 1_556 S
Gd238 C291 2.805 . S
Gd239 N234 2.622 . S
Gd239 N240 2.570 . S
Gd239 O271 2.386 1_554 S
Gd239 O275 2.307 . S
Gd239 O278 2.353 . S
Gd239 O279 2.468 . S
Gd239 O280 2.427 . S
Gd239 O282 2.388 . S
Gd239 C303 2.805 . S
N240 C230 1.359 . S
N240 Gd239 2.570 . S
N240 C242 1.343 . S
C241 C229 1.422 . S
C241 C243 1.321 . S
C241 H249 0.931 . S
C242 N240 1.343 . S
C242 C243 1.390 . S
C242 H244 0.931 . S
C243 C241 1.321 . S
C243 C242 1.390 . S
C243 H245 0.930 . S
H244 C242 0.931 . S
H245 C243 0.930 . S
H246 C269 0.931 . S
H247 C235 0.929 . S
H248 C270 0.930 . S
H249 C241 0.931 . S
H250 C231 0.930 . S
H251 C260 0.929 . S
H252 C236 0.931 . S
H253 C237 0.930 . S
H254 C292 0.930 . S
H255 C233 0.929 . S
H256 C261 0.931 . S
H257 C262 0.930 . S
N258 Gd238 2.622 . S
N258 C259 1.369 1_556 S
N258 C260 1.338 . S
C259 N258 1.369 1_554 S
C259 C263 1.415 . S
C259 C266 1.422 . S
C260 H251 0.929 . S
C260 N258 1.338 . S
C260 C262 1.378 . S
C261 H256 0.931 . S
C261 C262 1.348 1_554 S
C261 C263 1.413 . S
C262 H257 0.930 . S
C262 C260 1.378 . S
C262 C261 1.348 1_556 S
C263 C259 1.415 . S
C263 C261 1.413 . S
C263 C293 1.437 . S
H264 C293 0.929 . S
N265 Gd238 2.570 1_554 S
N265 C266 1.359 . S
N265 C269 1.343 . S
C266 C259 1.422 . S
C266 N265 1.359 . S
C266 C268 1.421 . S
C267 C268 1.422 . S
C267 C270 1.321 . S
C267 H294 0.931 . S
C268 C266 1.421 . S
C268 C267 1.422 . S
C268 C292 1.417 . S
C269 H246 0.931 . S
C269 N265 1.343 . S
C269 C270 1.390 . S
C270 H248 0.930 . S
C270 C267 1.321 . S
C270 C269 1.390 . S
O271 Gd239 2.386 1_556 S
O271 C283 1.265 . S
O272 Gd238 2.353 . S
O272 C283 1.242 . S
O273 Gd238 2.468 . S
O273 C291 1.263 . S
O274 Gd238 2.427 . S
O274 C291 1.252 . S
O275 Gd239 2.307 . S
O275 C284 1.261 . S
O276 Gd238 2.388 . S
O276 C284 1.252 1_556 S
O277 Gd238 2.386 1_554 S
O277 C295 1.265 . S
O278 Gd239 2.353 . S
O278 C295 1.242 . S
O279 Gd239 2.468 . S
O279 C303 1.263 . S
O280 Gd239 2.427 . S
O280 C303 1.252 . S
O281 Gd238 2.307 1_554 S
O281 C296 1.261 . S
O282 Gd239 2.388 . S
O282 C296 1.252 . S
C283 O271 1.265 . S
C283 O272 1.242 . S
C284 O275 1.261 . S
C284 O276 1.252 1_554 S
C285 C288 1.394 . S
C285 C290 1.370 . S
C285 C291 1.500 . S
C286 C289 1.383 . S
C286 C290 1.395 . S
C287 C288 1.396 . S
C287 C289 1.365 . S
C287 H304 0.929 . S
C288 C285 1.394 . S
C288 C287 1.396 . S
C288 H305 0.930 . S
C289 C286 1.383 . S
C289 C287 1.365 . S
C289 H306 0.931 . S
C290 C285 1.370 . S
C290 C286 1.395 . S
C290 H307 0.930 . S
C291 Gd238 2.805 . S
C291 O273 1.263 . S
C291 O274 1.252 . S
C291 C285 1.500 . S
C292 H254 0.930 . S
C292 C268 1.417 . S
C292 C293 1.329 . S
C293 C263 1.437 . S
C293 H264 0.929 . S
C293 C292 1.329 . S
H294 C267 0.931 . S
C295 O277 1.265 . S
C295 O278 1.242 . S
C296 O281 1.261 . S
C296 O282 1.252 . S
C297 C300 1.394 . S
C297 C302 1.370 . S
C297 C303 1.500 . S
C298 C301 1.383 . S
C298 C302 1.395 . S
C299 C300 1.396 . S
C299 C301 1.365 . S
C299 H308 0.929 . S
C300 C297 1.394 . S
C300 C299 1.396 . S
C300 H309 0.930 . S
C301 C298 1.383 . S
C301 C299 1.365 . S
C301 H310 0.931 . S
C302 C297 1.370 . S
C302 C298 1.395 . S
C302 H311 0.930 . S
C303 Gd239 2.805 . S
C303 O279 1.263 . S
C303 O280 1.252 . S
C303 C297 1.500 . S
H304 C287 0.929 . S
H305 C288 0.930 . S
H306 C289 0.931 . S
H307 C290 0.930 . S
H308 C299 0.929 . S
H309 C300 0.930 . S
H310 C301 0.931 . S
H311 C302 0.930 . S
H312 C318 0.930 . S
H313 C322 0.930 . S
H314 C327 0.929 . S
H315 C325 0.929 . S
H316 C320 0.929 . S
H317 C326 0.929 . S
C318 H312 0.930 . S
C318 C319 1.367 . S
C318 C326 1.378 . S
C319 C318 1.367 . S
C319 C327 1.433 . S
C320 H316 0.929 . S
C320 C322 1.378 . S
C320 C324 1.350 . S
C321 C324 1.463 . S
C321 C326 1.350 . S
C321 N329 1.427 . S
C322 H313 0.930 . S
C322 C320 1.378 . S
C322 C323 1.367 . S
C323 C322 1.367 . S
C323 C325 1.433 . S
C324 C320 1.350 . S
C324 C321 1.463 . S
C324 N328 1.427 . S
C325 H315 0.929 . S
C325 C323 1.433 . S
C325 N328 1.384 . S
C326 H317 0.929 . S
C326 C318 1.378 . S
C326 C321 1.350 . S
C327 H314 0.929 . S
C327 C319 1.433 . S
C327 N329 1.384 . S
N328 C324 1.427 . S
N328 C325 1.384 . S
N329 C321 1.427 . S
N329 C327 1.384 . S
H330 C336 0.930 1_556 S
H331 C340 0.930 . S
H332 C345 0.929 . S
H333 C343 0.929 1_556 S
H334 C338 0.929 . S
H335 C344 0.929 1_556 S
C336 H330 0.930 1_554 S
C336 C337 1.367 . S
C336 C344 1.378 . S
C337 C336 1.367 . S
C337 C345 1.433 . S
C338 H334 0.929 . S
C338 C340 1.378 . S
C338 C342 1.350 . S
C339 C342 1.463 . S
C339 C344 1.350 . S
C339 N347 1.427 . S
C340 H331 0.930 . S
C340 C338 1.378 . S
C340 C341 1.367 . S
C341 C340 1.367 . S
C341 C343 1.433 . S
C342 C338 1.350 . S
C342 C339 1.463 . S
C342 N346 1.427 . S
C343 H333 0.929 1_554 S
C343 C341 1.433 . S
C343 N346 1.384 . S
C344 H335 0.929 1_554 S
C344 C336 1.378 . S
C344 C339 1.350 . S
C345 H332 0.929 . S
C345 C337 1.433 . S
C345 N347 1.384 . S
N346 C342 1.427 . S
N346 C343 1.384 . S
N347 C339 1.427 . S
N347 C345 1.384 . S
H348 C354 0.930 . S
H349 C358 0.930 . S
H350 C363 0.929 . S
H351 C361 0.929 . S
H352 C356 0.929 . S
H353 C362 0.929 . S
C354 H348 0.930 . S
C354 C355 1.367 . S
C354 C362 1.378 . S
C355 C354 1.367 . S
C355 C363 1.433 . S
C356 H352 0.929 . S
C356 C358 1.378 . S
C356 C360 1.350 . S
C357 C360 1.463 . S
C357 C362 1.350 . S
C357 N365 1.427 . S
C358 H349 0.930 . S
C358 C356 1.378 . S
C358 C359 1.367 . S
C359 C358 1.367 . S
C359 C361 1.433 . S
C360 C356 1.350 . S
C360 C357 1.463 . S
C360 N364 1.427 . S
C361 H351 0.929 . S
C361 C359 1.433 . S
C361 N364 1.384 . S
C362 H353 0.929 . S
C362 C354 1.378 . S
C362 C357 1.350 . S
C363 H350 0.929 . S
C363 C355 1.433 . S
C363 N365 1.384 . S
N364 C360 1.427 . S
N364 C361 1.384 . S
N365 C357 1.427 . S
N365 C363 1.384 . S
H366 C372 0.930 . S
H367 C376 0.930 . S
H368 C381 0.929 . S
H369 C379 0.929 . S
H370 C374 0.929 . S
H371 C380 0.929 . S
C372 H366 0.930 . S
C372 C373 1.367 . S
C372 C380 1.378 . S
C373 C372 1.367 . S
C373 C381 1.433 1_554 S
C374 H370 0.929 . S
C374 C376 1.378 . S
C374 C378 1.350 1_556 S
C375 C378 1.463 . S
C375 C380 1.350 . S
C375 N383 1.427 1_554 S
C376 H367 0.930 . S
C376 C374 1.378 . S
C376 C377 1.367 1_556 S
C377 C376 1.367 1_554 S
C377 C379 1.433 . S
C378 C374 1.350 1_554 S
C378 C375 1.463 . S
C378 N382 1.427 . S
C379 H369 0.929 . S
C379 C377 1.433 . S
C379 N382 1.384 . S
C380 H371 0.929 . S
C380 C372 1.378 . S
C380 C375 1.350 . S
C381 H368 0.929 . S
C381 C373 1.433 1_556 S
C381 N383 1.384 . S
N382 C378 1.427 . S
N382 C379 1.384 . S
N383 C375 1.427 1_556 S
N383 C381 1.384 . S
H384 C390 0.930 . S
H385 C394 0.930 . S
H386 C399 0.929 . S
H387 C397 0.929 . S
H388 C392 0.929 . S
H389 C398 0.929 . S
C390 H384 0.930 . S
C390 C391 1.367 . S
C390 C398 1.378 . S
C391 C390 1.367 . S
C391 C399 1.433 . S
C392 H388 0.929 . S
C392 C394 1.378 . S
C392 C396 1.350 . S
C393 C396 1.463 . S
C393 C398 1.350 . S
C393 N401 1.427 . S
C394 H385 0.930 . S
C394 C392 1.378 . S
C394 C395 1.367 . S
C395 C394 1.367 . S
C395 C397 1.433 . S
C396 C392 1.350 . S
C396 C393 1.463 . S
C396 N400 1.427 . S
C397 H387 0.929 . S
C397 C395 1.433 . S
C397 N400 1.384 . S
C398 H389 0.929 . S
C398 C390 1.378 . S
C398 C393 1.350 . S
C399 H386 0.929 . S
C399 C391 1.433 . S
C399 N401 1.384 . S
N400 C396 1.427 . S
N400 C397 1.384 . S
N401 C393 1.427 . S
N401 C399 1.384 . S
H402 C408 0.930 . S
H403 C412 0.930 . S
H404 C417 0.929 . S
H405 C415 0.929 . S
H406 C410 0.929 . S
H407 C416 0.929 . S
C408 H402 0.930 . S
C408 C409 1.367 . S
C408 C416 1.378 . S
C409 C408 1.367 . S
C409 C417 1.433 . S
C410 H406 0.929 . S
C410 C412 1.378 . S
C410 C414 1.350 . S
C411 C414 1.463 . S
C411 C416 1.350 . S
C411 N419 1.427 . S
C412 H403 0.930 . S
C412 C410 1.378 . S
C412 C413 1.367 . S
C413 C412 1.367 . S
C413 C415 1.433 . S
C414 C410 1.350 . S
C414 C411 1.463 . S
C414 N418 1.427 . S
C415 H405 0.929 . S
C415 C413 1.433 . S
C415 N418 1.384 . S
C416 H407 0.929 . S
C416 C408 1.378 . S
C416 C411 1.350 . S
C417 H404 0.929 . S
C417 C409 1.433 . S
C417 N419 1.384 . S
N418 C414 1.427 . S
N418 C415 1.384 . S
N419 C411 1.427 . S
N419 C417 1.384 . S
H420 C426 0.930 . S
H421 C430 0.930 . S
H422 C435 0.929 . S
H423 C433 0.929 1_565 S
H424 C428 0.929 . S
H425 C434 0.946 . S
C426 H420 0.930 . S
C426 C427 1.367 . S
C426 C434 1.378 . S
C427 C426 1.367 . S
C427 C435 1.433 . S
C428 H424 0.929 . S
C428 C430 1.378 . S
C428 C432 1.350 . S
C429 C432 1.463 . S
C429 C434 1.350 . S
C429 N437 1.427 . S
C430 H421 0.930 . S
C430 C428 1.378 . S
C430 C431 1.367 . S
C431 C430 1.367 . S
C431 C433 1.433 . S
C432 C428 1.350 . S
C432 C429 1.463 . S
C432 N436 1.427 . S
C433 H423 0.929 1_545 S
C433 C431 1.433 . S
C433 N436 1.384 . S
C434 H425 0.946 . S
C434 C426 1.378 . S
C434 C429 1.350 . S
C435 H422 0.929 . S
C435 C427 1.433 . S
C435 N437 1.384 . S
N436 C432 1.427 . S
N436 C433 1.384 . S
N437 C429 1.427 . S
N437 C435 1.384 . S
H438 C444 0.930 . S
H439 C448 0.930 . S
H440 C453 0.929 . S
H441 C451 0.929 . S
H442 C446 0.929 . S
H443 C452 0.929 . S
C444 H438 0.930 . S
C444 C445 1.367 . S
C444 C452 1.378 . S
C445 C444 1.367 . S
C445 C453 1.433 . S
C446 H442 0.929 . S
C446 C448 1.378 . S
C446 C450 1.350 . S
C447 C450 1.463 . S
C447 C452 1.350 . S
C447 N455 1.427 . S
C448 H439 0.930 . S
C448 C446 1.378 . S
C448 C449 1.367 . S
C449 C448 1.367 . S
C449 C451 1.433 . S
C450 C446 1.350 . S
C450 C447 1.463 . S
C450 N454 1.427 . S
C451 H441 0.929 . S
C451 C449 1.433 . S
C451 N454 1.384 . S
C452 H443 0.929 . S
C452 C444 1.378 . S
C452 C447 1.350 . S
C453 H440 0.929 . S
C453 C445 1.433 . S
C453 N455 1.384 . S
N454 C450 1.427 . S
N454 C451 1.384 . S
N455 C447 1.427 . S
N455 C453 1.384 . S
H456 C462 0.930 . S
H457 C466 0.930 . S
H458 C471 0.929 . S
H459 C469 0.929 . S
H460 C464 0.929 . S
H461 C470 0.929 . S
C462 H456 0.930 . S
C462 C463 1.367 . S
C462 C470 1.378 . S
C463 C462 1.367 . S
C463 C471 1.433 . S
C464 H460 0.929 . S
C464 C466 1.378 . S
C464 C468 1.350 . S
C465 C468 1.463 . S
C465 C470 1.350 . S
C465 N473 1.427 . S
C466 H457 0.930 . S
C466 C464 1.378 . S
C466 C467 1.367 . S
C467 C466 1.367 . S
C467 C469 1.433 . S
C468 C464 1.350 . S
C468 C465 1.463 . S
C468 N472 1.427 . S
C469 H459 0.929 . S
C469 C467 1.433 . S
C469 N472 1.384 . S
C470 H461 0.929 . S
C470 C462 1.378 . S
C470 C465 1.350 . S
C471 H458 0.929 . S
C471 C463 1.433 . S
C471 N473 1.384 . S
N472 C468 1.427 . S
N472 C469 1.384 . S
N473 C465 1.427 . S
N473 C471 1.384 . S
H474 C480 0.930 . S
H475 C484 0.930 . S
H476 C489 0.929 . S
H477 C487 0.900 1_565 S
H478 C482 0.929 . S
H479 C488 0.929 . S
C480 H474 0.930 . S
C480 C481 1.367 . S
C480 C488 1.378 . S
C481 C480 1.367 . S
C481 C489 1.433 . S
C482 H478 0.929 . S
C482 C484 1.378 . S
C482 C486 1.350 . S
C483 C486 1.463 . S
C483 C488 1.350 . S
C483 N491 1.427 . S
C484 H475 0.930 . S
C484 C482 1.378 . S
C484 C485 1.367 . S
C485 C484 1.367 . S
C485 C487 1.433 . S
C486 C482 1.350 . S
C486 C483 1.463 . S
C486 N490 1.427 . S
C487 H477 0.900 1_545 S
C487 C485 1.433 . S
C487 N490 1.384 . S
C488 H479 0.929 . S
C488 C480 1.378 . S
C488 C483 1.350 . S
C489 H476 0.929 . S
C489 C481 1.433 . S
C489 N491 1.384 . S
N490 C486 1.427 . S
N490 C487 1.384 . S
N491 C483 1.427 . S
N491 C489 1.384 . S
H492 C498 0.930 . S
H493 C502 0.930 . S
H494 C507 0.929 . S
H495 C505 0.929 . S
H496 C500 0.929 . S
H497 C506 0.929 . S
C498 H492 0.930 . S
C498 C499 1.367 . S
C498 C506 1.378 . S
C499 C498 1.367 . S
C499 C507 1.433 . S
C500 H496 0.929 . S
C500 C502 1.378 . S
C500 C504 1.350 . S
C501 C504 1.463 . S
C501 C506 1.350 . S
C501 N509 1.427 . S
C502 H493 0.930 . S
C502 C500 1.378 . S
C502 C503 1.367 . S
C503 C502 1.367 . S
C503 C505 1.433 . S
C504 C500 1.350 . S
C504 C501 1.463 . S
C504 N508 1.427 . S
C505 H495 0.929 . S
C505 C503 1.433 . S
C505 N508 1.384 . S
C506 H497 0.929 . S
C506 C498 1.378 . S
C506 C501 1.350 . S
C507 H494 0.929 . S
C507 C499 1.433 . S
C507 N509 1.384 . S
N508 C504 1.427 . S
N508 C505 1.384 . S
N509 C501 1.427 . S
N509 C507 1.384 . S
H510 C516 0.930 . S
H511 C520 0.930 . S
H512 C525 0.929 . S
H513 C523 0.929 . S
H514 C518 0.929 . S
H515 C524 0.929 . S
C516 H510 0.930 . S
C516 C517 1.367 . S
C516 C524 1.378 . S
C517 C516 1.367 . S
C517 C525 1.433 . S
C518 H514 0.929 . S
C518 C520 1.378 . S
C518 C522 1.350 . S
C519 C522 1.463 . S
C519 C524 1.350 . S
C519 N527 1.427 . S
C520 H511 0.930 . S
C520 C518 1.378 . S
C520 C521 1.367 . S
C521 C520 1.367 . S
C521 C523 1.433 . S
C522 C518 1.350 . S
C522 C519 1.463 . S
C522 N526 1.427 . S
C523 H513 0.929 . S
C523 C521 1.433 . S
C523 N526 1.384 . S
C524 H515 0.929 . S
C524 C516 1.378 . S
C524 C519 1.350 . S
C525 H512 0.929 . S
C525 C517 1.433 . S
C525 N527 1.384 . S
N526 C522 1.427 . S
N526 C523 1.384 . S
N527 C519 1.427 . S
N527 C525 1.384 . S
C323 C212 1.633 . S
C319 C133 1.640 . S
C337 C25 1.622 . S
C341 C284 1.620 . S
C355 C61 1.619 . S
C359 C200 1.634 . S
C373 C97 1.582 . S
C377 C296 1.619 . S
C395 C202 1.410 . S
C391 C1 1.558 . S
C413 C283 1.610 . S
C409 C67 1.585 . S
C427 C103 1.582 . S
C431 C199 1.618 . S
C445 C109 1.535 . S
C449 C286 1.394 . S
C467 C298 1.390 . S
C463 C37 1.528 . S
C485 C214 1.402 . S
C481 C73 1.546 . S
C503 C295 1.610 . S
C499 C139 1.598 . S
C517 C31 1.609 . S
C521 C211 1.617 . S
