# Generated by pormake.
# Topology pyr, (3,6)-cn, num edge types: 1
# Building blocks:
#     Node 0, Type 0, BuildingBlock: ESEHIV_clean_linker_0, # of connection points: 3
#     Node 1, Type 0, BuildingBlock: ESEHIV_clean_linker_0, # of connection points: 3
#     Node 2, Type 0, BuildingBlock: ESEHIV_clean_linker_0, # of connection points: 3
#     Node 3, Type 0, BuildingBlock: ESEHIV_clean_linker_0, # of connection points: 3
#     Node 4, Type 0, BuildingBlock: ESEHIV_clean_linker_0, # of connection points: 3
#     Node 5, Type 0, BuildingBlock: ESEHIV_clean_linker_0, # of connection points: 3
#     Node 6, Type 0, BuildingBlock: ESEHIV_clean_linker_0, # of connection points: 3
#     Node 7, Type 0, BuildingBlock: ESEHIV_clean_linker_0, # of connection points: 3
#     Node 8, Type 1, BuildingBlock: BETFAJ_clean_sbu_0, # of connection points: 6
#     Node 9, Type 1, BuildingBlock: BETFAJ_clean_sbu_0, # of connection points: 6
#     Node 10, Type 1, BuildingBlock: BETFAJ_clean_sbu_0, # of connection points: 6
#     Node 11, Type 1, BuildingBlock: BETFAJ_clean_sbu_0, # of connection points: 6
#     Edge 12, Type (0, 1), BuildingBlock: CIFDUS_clean_linker_0, # of connection points: 2
#     Edge 13, Type (0, 1), BuildingBlock: CIFDUS_clean_linker_0, # of connection points: 2
#     Edge 14, Type (0, 1), BuildingBlock: CIFDUS_clean_linker_0, # of connection points: 2
#     Edge 15, Type (0, 1), BuildingBlock: CIFDUS_clean_linker_0, # of connection points: 2
#     Edge 16, Type (0, 1), BuildingBlock: CIFDUS_clean_linker_0, # of connection points: 2
#     Edge 17, Type (0, 1), BuildingBlock: CIFDUS_clean_linker_0, # of connection points: 2
#     Edge 18, Type (0, 1), BuildingBlock: CIFDUS_clean_linker_0, # of connection points: 2
#     Edge 19, Type (0, 1), BuildingBlock: CIFDUS_clean_linker_0, # of connection points: 2
#     Edge 20, Type (0, 1), BuildingBlock: CIFDUS_clean_linker_0, # of connection points: 2
#     Edge 21, Type (0, 1), BuildingBlock: CIFDUS_clean_linker_0, # of connection points: 2
#     Edge 22, Type (0, 1), BuildingBlock: CIFDUS_clean_linker_0, # of connection points: 2
#     Edge 23, Type (0, 1), BuildingBlock: CIFDUS_clean_linker_0, # of connection points: 2
#     Edge 24, Type (0, 1), BuildingBlock: CIFDUS_clean_linker_0, # of connection points: 2
#     Edge 25, Type (0, 1), BuildingBlock: CIFDUS_clean_linker_0, # of connection points: 2
#     Edge 26, Type (0, 1), BuildingBlock: CIFDUS_clean_linker_0, # of connection points: 2
#     Edge 27, Type (0, 1), BuildingBlock: CIFDUS_clean_linker_0, # of connection points: 2
#     Edge 28, Type (0, 1), BuildingBlock: CIFDUS_clean_linker_0, # of connection points: 2
#     Edge 29, Type (0, 1), BuildingBlock: CIFDUS_clean_linker_0, # of connection points: 2
#     Edge 30, Type (0, 1), BuildingBlock: CIFDUS_clean_linker_0, # of connection points: 2
#     Edge 31, Type (0, 1), BuildingBlock: CIFDUS_clean_linker_0, # of connection points: 2
#     Edge 32, Type (0, 1), BuildingBlock: CIFDUS_clean_linker_0, # of connection points: 2
#     Edge 33, Type (0, 1), BuildingBlock: CIFDUS_clean_linker_0, # of connection points: 2
#     Edge 34, Type (0, 1), BuildingBlock: CIFDUS_clean_linker_0, # of connection points: 2
#     Edge 35, Type (0, 1), BuildingBlock: CIFDUS_clean_linker_0, # of connection points: 2
# Relax obj value: 0.167
# Max RMSD: 0.141
# Mean RMSD: 0.068
data_MOF--net-pyr--node1-BETFAJ_clean_sbu_0--node2-ESEHIV_clean_linker_0--edge1-CIFDUS_clean_linker_0
_symmetry_space_group_name_H-M    P1
_symmetry_Int_Tables_number       1
_symmetry_cell_setting            triclinic
loop_
_symmetry_equiv_pos_as_xyz
'x, y, z'
_cell_length_a     31.683013
_cell_length_b     33.319587
_cell_length_c     28.409154
_cell_angle_alpha  90.02789
_cell_angle_beta   88.307118
_cell_angle_gamma 104.11337
loop_
_atom_site_label
_atom_site_type_symbol
_atom_site_fract_x
_atom_site_fract_y
_atom_site_fract_z
_atom_type_partial_charge
H0 H 0.36738 0.38415 0.3096 0.0
H1 H 0.42916 0.28255 0.30549 0.0
H2 H 0.39535 0.3326 0.17756 0.0
C3 C 0.38253 0.36307 0.29031 0.0
C4 C 0.37866 0.36117 0.24121 0.0
C5 C 0.39712 0.3325 0.31463 0.0
C6 C 0.41849 0.30714 0.28826 0.0
C7 C 0.41969 0.3081 0.23879 0.0
C8 C 0.39904 0.33491 0.21535 0.0
H9 H 0.12835 0.8492 0.80934 0.0
H10 H 0.18095 0.74152 0.80271 0.0
H11 H 0.15294 0.79837 0.67577 0.0
C12 C 0.13763 0.82466 0.78976 0.0
C13 C 0.13487 0.82476 0.74056 0.0
C14 C 0.15522 0.79541 0.81297 0.0
C15 C 0.1675 0.76458 0.78586 0.0
C16 C 0.16851 0.76649 0.73654 0.0
C17 C 0.15127 0.79611 0.71388 0.0
H18 H 0.69599 0.34001 0.9876 0.0
H19 H 0.7156 0.44428 0.89226 0.0
H20 H 0.60155 0.3436 0.88312 0.0
C21 C 0.68554 0.35547 0.95819 0.0
C22 C 0.64565 0.33694 0.93757 0.0
C23 C 0.71138 0.39425 0.94246 0.0
C24 C 0.69598 0.41492 0.90545 0.0
C25 C 0.65645 0.39673 0.8835 0.0
C26 C 0.63175 0.35782 0.89998 0.0
H27 H 0.82528 0.76087 0.46332 0.0
H28 H 0.93312 0.74767 0.37313 0.0
H29 H 0.81655 0.64863 0.38667 0.0
C30 C 0.84026 0.74275 0.43937 0.0
C31 C 0.81634 0.70286 0.42771 0.0
C32 C 0.88282 0.75948 0.42105 0.0
C33 C 0.90051 0.73568 0.38772 0.0
C34 C 0.87695 0.69537 0.37496 0.0
C35 C 0.83511 0.67928 0.39597 0.0
H36 H 0.58703 0.79378 0.87303 0.0
H37 H 0.69431 0.73929 0.89786 0.0
H38 H 0.62029 0.77076 1.01415 0.0
C39 C 0.60595 0.78007 0.89663 0.0
C40 C 0.59905 0.78337 0.94536 0.0
C41 C 0.64215 0.76691 0.87882 0.0
C42 C 0.66541 0.74849 0.91024 0.0
C43 C 0.65677 0.74848 0.959 0.0
C44 C 0.62384 0.76652 0.97652 0.0
H45 H 0.86073 0.36945 0.36938 0.0
H46 H 0.92985 0.27335 0.36671 0.0
H47 H 0.90283 0.32784 0.49813 0.0
C48 C 0.87907 0.35074 0.38716 0.0
C49 C 0.88156 0.35297 0.43618 0.0
C50 C 0.89372 0.32017 0.36212 0.0
C51 C 0.91771 0.29646 0.38588 0.0
C52 C 0.92255 0.29964 0.43502 0.0
C53 C 0.90335 0.32756 0.45997 0.0
H54 H 0.34491 0.74656 0.20706 0.0
H55 H 0.33129 0.64813 0.30975 0.0
H56 H 0.43956 0.75453 0.31421 0.0
C57 C 0.35592 0.7336 0.238 0.0
C58 C 0.39475 0.75548 0.25859 0.0
C59 C 0.33258 0.69438 0.25555 0.0
C60 C 0.34903 0.67753 0.29485 0.0
C61 C 0.38741 0.69905 0.31654 0.0
C62 C 0.40987 0.73791 0.29799 0.0
H63 H 0.1047 0.36377 0.8205 0.0
H64 H 0.21536 0.34793 0.73688 0.0
H65 H 0.22168 0.4625 0.80832 0.0
C66 C 0.13782 0.37534 0.80716 0.0
C67 C 0.16108 0.416 0.81913 0.0
C68 C 0.15659 0.35068 0.77592 0.0
C69 C 0.19981 0.36675 0.75931 0.0
C70 C 0.22351 0.40685 0.77048 0.0
C71 C 0.20362 0.43148 0.79972 0.0
Sm72 Sm 0.05502 0.06415 0.55923 0.0
Sm73 Sm 0.98505 1.05123 0.63208 0.0
C74 C 0.111 0.085 0.48764 0.0
C75 C 0.14824 0.12103 0.4817 0.0
C76 C 0.1467 0.15887 0.50263 0.0
C77 C 0.18124 0.19359 0.49621 0.0
C78 C 0.21803 0.19114 0.46869 0.0
C79 C 0.2204 0.15277 0.44947 0.0
C80 C 0.18567 0.11791 0.45596 0.0
C81 C 0.07331 1.02545 0.63932 0.0
C82 C 0.06352 0.13267 0.64317 0.0
C83 C 0.92104 1.02721 0.69522 0.0
C84 C 0.88703 0.99102 0.71049 0.0
C85 C 0.86656 0.99206 0.75456 0.0
C86 C 0.82934 0.96164 0.76709 0.0
C87 C 0.81203 0.92962 0.7357 0.0
C88 C 0.83396 0.92718 0.69256 0.0
C89 C 0.8712 0.95799 0.67983 0.0
C90 C 0.98122 0.11105 0.56718 0.0
C91 C 0.97934 0.97865 0.54982 0.0
O92 O 0.07267 0.09327 0.48906 0.0
O93 O 0.11485 0.05811 0.51966 0.0
O94 O 0.03761 1.01754 0.61887 0.0
O95 O 0.10051 0.05643 0.6189 0.0
O96 O 0.07026 0.12696 0.59777 0.0
O97 O 0.03699 0.10295 0.66828 0.0
O98 O 0.96155 1.02763 0.704 0.0
O99 O 0.91612 1.04219 0.65378 0.0
O100 O 0.98818 0.07627 0.55732 0.0
O101 O 0.97591 0.11513 0.61202 0.0
O102 O 0.96198 0.99109 0.58852 0.0
O103 O 0.0153 1.00179 0.52991 0.0
H104 H 0.11826 0.1619 0.52299 0.0
H105 H 0.17862 0.22269 0.51155 0.0
H106 H 0.24815 0.15016 0.42754 0.0
H107 H 0.18761 0.08885 0.44001 0.0
H108 H 0.8783 1.01738 0.77852 0.0
H109 H 0.81334 0.96371 0.80093 0.0
H110 H 0.8212 0.90269 0.66795 0.0
H111 H 0.88649 0.95703 0.64543 0.0
Sm112 Sm 0.56382 0.05359 0.11328 0.0
Sm113 Sm 0.47288 1.03955 1.08197 0.0
C114 C 0.64593 0.07924 0.13806 0.0
C115 C 0.67714 0.11772 0.15003 0.0
C116 C 0.71677 0.11574 0.16911 0.0
C117 C 0.74536 0.1516 0.18488 0.0
C118 C 0.73469 0.19009 0.18182 0.0
C119 C 0.6957 0.19214 0.16049 0.0
C120 C 0.66704 0.15614 0.14477 0.0
C121 C 0.50941 0.98141 0.1504 0.0
C122 C 0.50158 0.11094 0.15676 0.0
C123 C 0.39118 1.00939 1.05874 0.0
C124 C 0.36453 0.96938 1.04309 0.0
C125 C 0.32322 0.95321 1.06398 0.0
C126 C 0.29633 0.91666 1.04709 0.0
C127 C 0.31025 0.89595 1.00868 0.0
C128 C 0.35259 0.91146 0.9894 0.0
C129 C 0.37952 0.94755 1.00665 0.0
C130 C 0.52707 0.11102 1.04341 0.0
C131 C 0.53651 0.98727 1.03294 0.0
O132 O 0.63406 0.07549 0.09432 0.0
O133 O 0.61355 0.06617 0.16829 0.0
O134 O 0.4994 1.01583 0.14646 0.0
O135 O 0.54956 0.98516 0.13693 0.0
O136 O 0.54182 0.1092 0.14559 0.0
O137 O 0.46796 0.08212 0.14326 0.0
O138 O 0.40377 1.01093 0.10224 0.0
O139 O 0.42156 1.02925 1.02911 0.0
O140 O 0.53733 0.07682 1.04853 0.0
O141 O 0.48651 0.10715 1.05546 0.0
O142 O 0.49635 0.9857 1.04764 0.0
O143 O 0.56935 1.01668 1.04683 0.0
H144 H 0.72493 0.08622 0.17334 0.0
H145 H 0.77466 0.14874 0.20185 0.0
H146 H 0.68673 0.22136 0.15735 0.0
H147 H 0.63653 0.1581 0.1298 0.0
H148 H 0.31136 0.96935 0.09265 0.0
H149 H 0.26428 0.90529 1.06331 0.0
H150 H 0.36439 0.89701 0.95929 0.0
H151 H 0.41155 0.95904 0.99033 0.0
Sm152 Sm 0.52788 0.51513 0.57708 0.0
Sm153 Sm 0.5174 0.58812 0.62836 0.0
C154 C 0.55192 0.4619 0.51929 0.0
C155 C 0.59038 0.44464 0.51779 0.0
C156 C 0.59077 0.40952 0.49089 0.0
C157 C 0.62774 0.39356 0.48927 0.0
C158 C 0.66493 0.41288 0.51412 0.0
C159 C 0.66427 0.44789 0.54132 0.0
C160 C 0.62705 0.46332 0.54357 0.0
C161 C 0.45118 0.50041 0.63101 0.0
C162 C 0.56573 0.52287 0.68172 0.0
C163 C 0.49182 0.64126 0.685 0.0
C164 C 0.45459 0.66025 0.68294 0.0
C165 C 0.4195 0.64304 0.65422 0.0
C166 C 0.38371 0.66051 0.65244 0.0
C167 C 0.38285 0.69605 0.67863 0.0
C168 C 0.41847 0.71373 0.70666 0.0
C169 C 0.454 0.69582 0.70895 0.0
C170 C 0.59318 0.60361 0.57313 0.0
C171 C 0.48044 0.58032 0.52306 0.0
O172 O 0.55957 0.50156 0.51035 0.0
O173 O 0.52499 0.45042 0.55522 0.0
O174 O 0.46642 0.53218 0.60577 0.0
O175 O 0.47559 0.4745 0.62675 0.0
O176 O 0.56905 0.50663 0.6399 0.0
O177 O 0.54507 0.55282 0.68701 0.0
O178 O 0.48192 0.60131 0.69272 0.0
O179 O 0.52187 0.65269 0.6519 0.0
O180 O 0.57896 0.57167 0.59861 0.0
O181 O 0.56837 0.6291 0.57812 0.0
O182 O 0.47734 0.59714 0.5646 0.0
O183 O 0.50064 0.55006 0.51825 0.0
H184 H 0.56264 0.39459 0.47101 0.0
H185 H 0.62764 0.36665 0.46783 0.0
H186 H 0.69237 0.46306 0.56109 0.0
H187 H 0.62686 0.48992 0.56533 0.0
H188 H 0.41982 0.61608 0.63315 0.0
H189 H 0.35692 0.64651 0.63025 0.0
H190 H 0.41844 0.74096 0.72748 0.0
H191 H 0.48091 0.70965 0.73107 0.0
Sm192 Sm 0.02007 0.51906 0.12166 0.0
Sm193 Sm 0.02014 0.60367 1.06201 0.0
C194 C 0.03808 0.44908 0.14742 0.0
C195 C 0.07787 0.43399 0.14866 0.0
C196 C 0.119 0.46157 0.14295 0.0
C197 C 0.15676 0.44847 0.1518 0.0
C198 C 0.15386 0.40754 0.16637 0.0
C199 C 0.11266 0.37939 0.16872 0.0
C200 C 0.07498 0.3926 0.16018 0.0
C201 C 0.97792 0.57032 0.17341 0.0
C202 C 0.10351 0.60334 0.12829 0.0
C203 C 0.99805 0.67198 1.0381 0.0
C204 C 0.95533 0.68157 1.04353 0.0
C205 C 0.92113 0.65316 1.06701 0.0
C206 C 0.87857 0.65765 1.06542 0.0
C207 C 0.86963 0.69106 1.04101 0.0
C208 C 0.90426 0.72094 1.02002 0.0
C209 C 0.94689 0.71602 1.02094 0.0
C210 C 0.06211 0.55166 1.01074 0.0
C211 C 0.93517 0.52123 1.05796 0.0
O212 O 0.02349 0.45447 0.1058 0.0
O213 O 0.03672 0.47917 0.17665 0.0
O214 O 0.99496 0.57593 0.13233 0.0
O215 O 0.98127 0.53426 0.1879 0.0
O216 O 0.0889 0.56257 0.13432 0.0
O217 O 0.08179 0.62587 0.10483 0.0
O218 O 0.01786 0.66855 1.07724 0.0
O219 O 0.9991 0.64222 1.00826 0.0
O220 O 0.04504 0.54686 1.05173 0.0
O221 O 0.05856 0.58746 0.99535 0.0
O222 O 0.95115 0.56167 1.05248 0.0
O223 O 0.9566 0.49732 1.07977 0.0
H224 H 0.1218 0.49368 0.13381 0.0
H225 H 0.18788 0.47096 0.14988 0.0
H226 H 0.10941 0.34744 0.17894 0.0
H227 H 0.0435 0.37087 0.16445 0.0
H228 H 0.92705 0.62645 1.08486 0.0
H229 H 0.85242 0.6343 1.08192 0.0
H230 H 0.898 0.74677 1.00063 0.0
H231 H 0.97284 0.73807 1.0024 0.0
H232 H 0.32073 0.34296 0.3555 0.0
H233 H 0.42844 0.28879 0.38386 0.0
H234 H 0.38219 0.2412 0.4401 0.0
H235 H 0.30693 0.20563 0.46688 0.0
H236 H 0.20166 0.26232 0.4373 0.0
H237 H 0.25216 0.31918 0.39666 0.0
C238 C 0.33546 0.32215 0.37464 0.0
C239 C 0.3777 0.31802 0.36237 0.0
C240 C 0.30869 0.29467 0.40648 0.0
C241 C 0.39528 0.2912 0.38995 0.0
C242 C 0.36882 0.26388 0.42233 0.0
C243 C 0.29539 0.23096 0.45237 0.0
C244 C 0.25056 0.22938 0.45422 0.0
C245 C 0.32463 0.26353 0.4283 0.0
C246 C 0.23598 0.26274 0.43627 0.0
C247 C 0.26482 0.2952 0.41275 0.0
H248 H 0.2259 0.77701 0.85327 0.0
H249 H 0.11728 0.8307 0.88613 0.0
H250 H 0.15406 0.86287 0.95569 0.0
H251 H 0.22317 0.88678 0.99613 0.0
H252 H 0.32799 0.82741 0.96685 0.0
H253 H 0.28498 0.78491 0.90726 0.0
C254 C 0.20875 0.79402 0.87624 0.0
C255 C 0.16939 0.80272 0.86268 0.0
C256 C 0.22966 0.81193 0.91654 0.0
C257 C 0.14855 0.82505 0.89401 0.0
C258 C 0.16944 0.84331 0.93411 0.0
C259 C 0.23617 0.8635 0.97819 0.0
C260 C 0.27962 0.86169 0.98457 0.0
C261 C 0.21114 0.83886 0.94407 0.0
C262 C 0.2954 0.83083 0.96116 0.0
C263 C 0.27075 0.80635 0.92718 0.0
H264 H 0.64044 0.47443 0.875 0.0
H265 H 0.63888 0.36318 0.79695 0.0
H266 H 0.6129 0.39258 0.72788 0.0
H267 H 0.58873 0.4491 0.68957 0.0
H268 H 0.58502 0.55888 0.76833 0.0
H269 H 0.61463 0.53117 0.83648 0.0
C270 C 0.63464 0.4568 0.84274 0.0
C271 C 0.64184 0.41654 0.84131 0.0
C272 C 0.6185 0.47367 0.80308 0.0
C273 C 0.63359 0.39405 0.79925 0.0
C274 C 0.61871 0.41091 0.75962 0.0
C275 C 0.59459 0.46719 0.72151 0.0
C276 C 0.58474 0.50635 0.72332 0.0
C277 C 0.61076 0.45058 0.7611 0.0
C278 C 0.59218 0.52879 0.76555 0.0
C279 C 0.6092 0.51288 0.80469 0.0
H280 H 0.91681 0.71415 0.28626 0.0
H281 H 0.87979 0.61536 0.38875 0.0
H282 H 0.90633 0.56887 0.33567 0.0
H283 H 0.93969 0.55525 0.26029 0.0
H284 H 0.97653 0.65201 0.15593 0.0
H285 H 0.95036 0.69975 0.20875 0.0
C286 C 0.91488 0.68254 0.29706 0.0
C287 C 0.89607 0.6685 0.34184 0.0
C288 C 0.92992 0.65532 0.26567 0.0
C289 C 0.89361 0.62717 0.35469 0.0
C290 C 0.90888 0.60043 0.32425 0.0
C291 C 0.94192 0.58676 0.24882 0.0
C292 C 0.9601 0.59978 0.20373 0.0
C293 C 0.92688 0.61398 0.2796 0.0
C294 C 0.96258 0.64086 0.18998 0.0
C295 C 0.94772 0.66828 0.2205 0.0
H296 H 0.49341 0.28121 0.24988 0.0
H297 H 0.37468 0.25734 0.17261 0.0
H298 H 0.38948 0.19385 0.1415 0.0
H299 H 0.43332 0.14297 0.14016 0.0
H300 H 0.55322 0.16632 0.21505 0.0
H301 H 0.54041 0.23188 0.2441 0.0
C302 C 0.4712 0.26233 0.22566 0.0
C303 C 0.43316 0.27412 0.21336 0.0
C304 C 0.47954 0.22538 0.20848 0.0
C305 C 0.4046 0.24947 0.18193 0.0
C306 C 0.4127 0.21281 0.16467 0.0
C307 C 0.45644 0.16216 0.1633 0.0
C308 C 0.49357 0.14943 0.17655 0.0
C309 C 0.44949 0.20005 0.17856 0.0
C310 C 0.52402 0.17526 0.20512 0.0
C311 C 0.51682 0.21276 0.22143 0.0
H312 H 0.16476 0.90765 0.75013 0.0
H313 H 0.0689 0.8151 0.67928 0.0
H314 H 0.0392 0.86929 0.64438 0.0
H315 H 0.04087 0.94277 0.63406 0.0
H316 H 0.14022 1.03586 0.69982 0.0
H317 H 0.168 0.98162 0.73756 0.0
C318 C 0.13736 0.89951 0.72703 0.0
C319 C 0.11874 0.85761 0.71733 0.0
C320 C 0.12099 0.9308 0.70671 0.0
C321 C 0.0837 0.84722 0.68695 0.0
C322 C 0.06665 0.87812 0.66729 0.0
C323 C 0.06833 0.95119 0.65708 0.0
C324 C 0.08824 0.99317 0.66481 0.0
C325 C 0.08495 0.91997 0.67709 0.0
C326 C 0.12429 1.00369 0.6938 0.0
C327 C 0.14022 0.97274 0.71513 0.0
H328 H 0.74958 0.47565 0.96403 0.0
H329 H 0.7718 0.35307 0.97027 0.0
H330 H 0.84083 0.38035 1.00819 0.0
H331 H 0.89633 0.43933 1.0392 0.0
H332 H 0.87489 0.56213 1.03059 0.0
H333 H 0.8052 0.5346 0.9943 0.0
C334 C 0.76961 0.45487 0.97327 0.0
C335 C 0.75474 0.41211 0.96436 0.0
C336 C 0.80988 0.47087 0.995 0.0
C337 C 0.78148 0.38593 0.97727 0.0
C338 C 0.82134 0.40158 0.99886 0.0
C339 C 0.87632 0.46006 1.02972 0.0
C340 C 0.89135 0.5029 1.03793 0.0
C341 C 0.83596 0.44401 1.00809 0.0
C342 C 0.86472 0.52909 1.0248 0.0
C343 C 0.82459 0.51335 1.00387 0.0
H344 H 0.78201 0.62969 0.47578 0.0
H345 H 0.74963 0.74084 0.42748 0.0
H346 H 0.67806 0.71949 0.46679 0.0
H347 H 0.62538 0.67088 0.51743 0.0
H348 H 0.65748 0.56096 0.56944 0.0
H349 H 0.72777 0.57971 0.52616 0.0
C350 C 0.75901 0.6489 0.47344 0.0
C351 C 0.77133 0.68692 0.44863 0.0
C352 C 0.71779 0.63669 0.49705 0.0
C353 C 0.74122 0.71163 0.44645 0.0
C354 C 0.70021 0.69943 0.46899 0.0
C355 C 0.64768 0.65091 0.51927 0.0
C356 C 0.63588 0.6143 0.5465 0.0
C357 C 0.68831 0.66234 0.49489 0.0
C358 C 0.66535 0.58894 0.54834 0.0
C359 C 0.70573 0.59985 0.52373 0.0
H360 H 0.29626 0.34457 0.27373 0.0
H361 H 0.3795 0.40784 0.16038 0.0
H362 H 0.31685 0.42769 0.12619 0.0
H363 H 0.23779 0.42638 0.12941 0.0
H364 H 0.15717 0.36225 0.24473 0.0
H365 H 0.21967 0.34337 0.27734 0.0
C366 C 0.30105 0.36352 0.24207 0.0
C367 C 0.34264 0.37582 0.22033 0.0
C368 C 0.26522 0.37419 0.22276 0.0
C369 C 0.34786 0.39866 0.17812 0.0
C370 C 0.31207 0.40984 0.15862 0.0
C371 C 0.23404 0.40834 0.16169 0.0
C372 C 0.19261 0.39533 0.18422 0.0
C373 C 0.27049 0.39771 0.18071 0.0
C374 C 0.18828 0.37184 0.22596 0.0
C375 C 0.22411 0.36134 0.24497 0.0
H376 H 0.67099 0.26649 0.96348 0.0
H377 H 0.55753 0.31574 0.95413 0.0
H378 H 0.51166 0.25102 0.98553 0.0
H379 H 0.50322 0.1805 1.01669 0.0
H380 H 0.6155 0.12962 1.02474 0.0
H381 H 0.66214 0.19462 0.99347 0.0
C382 C 0.63624 0.26314 0.96844 0.0
C383 C 0.61795 0.29634 0.95615 0.0
C384 C 0.60971 0.22537 0.98645 0.0
C385 C 0.57267 0.29089 0.96252 0.0
C386 C 0.54633 0.25382 0.9808 0.0
C387 C 0.5379 0.1835 1.01145 0.0
C388 C 0.55573 0.14998 1.02303 0.0
C389 C 0.56441 0.22085 0.99293 0.0
C390 C 0.60078 0.15466 1.01598 0.0
C391 C 0.6275 0.19196 0.99813 0.0
H392 H 0.88096 0.79272 0.50936 0.0
H393 H 0.94188 0.8218 0.37163 0.0
H394 H 0.97807 0.89118 0.39884 0.0
H395 H 0.99013 0.94535 0.46164 0.0
H396 H 0.92415 0.91512 0.59684 0.0
H397 H 0.89146 0.84554 0.57013 0.0
C398 C 0.90151 0.81419 0.48467 0.0
C399 C 0.90778 0.8015 0.43795 0.0
C400 C 0.92117 0.8545 0.50011 0.0
C401 C 0.93625 0.83 0.40775 0.0
C402 C 0.95677 0.87004 0.42326 0.0
C403 C 0.96853 0.92356 0.4852 0.0
C404 C 0.95943 0.93617 0.53128 0.0
C405 C 0.94913 0.88293 0.46932 0.0
C406 C 0.93137 0.90709 0.56109 0.0
C407 C 0.91277 0.86691 0.54591 0.0
H408 H 0.24423 0.8025 0.69321 0.0
H409 H 0.16029 0.68324 0.72791 0.0
H410 H 0.21922 0.6498 0.70725 0.0
H411 H 0.29753 0.65618 0.69095 0.0
H412 H 0.38272 0.77678 0.66441 0.0
H413 H 0.32068 0.80826 0.67041 0.0
C414 C 0.23849 0.76904 0.69445 0.0
C415 C 0.19797 0.74515 0.71113 0.0
C416 C 0.27316 0.75054 0.68524 0.0
C417 C 0.19109 0.70198 0.71426 0.0
C418 C 0.22492 0.68304 0.70308 0.0
C419 C 0.30227 0.68924 0.68564 0.0
C420 C 0.34459 0.71425 0.67764 0.0
C421 C 0.26657 0.7072 0.69035 0.0
C422 C 0.35048 0.75706 0.67124 0.0
C423 C 0.31503 0.77501 0.67447 0.0
H424 H 0.64064 0.84051 0.83792 0.0
H425 H 0.69444 0.73422 0.81689 0.0
H426 H 0.75056 0.77511 0.76355 0.0
H427 H 0.79266 0.84508 0.73731 0.0
H428 H 0.73724 0.94966 0.76139 0.0
H429 H 0.67251 0.90472 0.79837 0.0
C430 C 0.66312 0.82512 0.82052 0.0
C431 C 0.66395 0.78446 0.83331 0.0
C432 C 0.6957 0.84893 0.79097 0.0
C433 C 0.69383 0.76592 0.80935 0.0
C434 C 0.72608 0.78934 0.77885 0.0
C435 C 0.76579 0.85762 0.74957 0.0
C436 C 0.76995 0.9006 0.74798 0.0
C437 C 0.72887 0.83161 0.7718 0.0
C438 C 0.73498 0.91672 0.76343 0.0
C439 C 0.69799 0.89107 0.78445 0.0
H440 H 0.81195 0.31785 0.33445 0.0
H441 H 0.9316 0.28895 0.28587 0.0
H442 H 0.89333 0.24996 0.22033 0.0
H443 H 0.82351 0.21587 0.18464 0.0
H444 H 0.70498 0.245 0.23642 0.0
H445 H 0.74608 0.29415 0.29143 0.0
C446 C 0.83055 0.30472 0.30868 0.0
C447 C 0.87474 0.30612 0.31574 0.0
C448 C 0.8084 0.28218 0.27159 0.0
C449 C 0.89742 0.28775 0.28203 0.0
C450 C 0.87555 0.26547 0.24449 0.0
C451 C 0.80685 0.23352 0.20747 0.0
C452 C 0.76114 0.22628 0.20682 0.0
C453 C 0.8306 0.26101 0.2402 0.0
C454 C 0.74008 0.24999 0.23588 0.0
C455 C 0.76352 0.27785 0.2678 0.0
H456 H 0.40278 0.6219 0.32924 0.0
H457 H 0.40902 0.73737 0.40039 0.0
H458 H 0.43631 0.7107 0.47053 0.0
H459 H 0.4597 0.65493 0.51182 0.0
H460 H 0.45833 0.54098 0.43918 0.0
H461 H 0.42803 0.56642 0.37016 0.0
C462 C 0.40994 0.64112 0.3602 0.0
C463 C 0.40367 0.68168 0.35937 0.0
C464 C 0.42666 0.62579 0.40038 0.0
C465 C 0.41367 0.70622 0.39977 0.0
C466 C 0.42923 0.69091 0.44004 0.0
C467 C 0.45259 0.63551 0.481 0.0
C468 C 0.46118 0.59583 0.48114 0.0
C469 C 0.43604 0.65079 0.44079 0.0
C470 C 0.45218 0.57155 0.44039 0.0
C471 C 0.43476 0.58612 0.40076 0.0
H472 H 0.12893 0.40475 0.91136 0.0
H473 H 0.14904 0.49116 0.79524 0.0
H474 H 0.12068 0.54001 0.84351 0.0
H475 H 0.0909 0.55922 0.91902 0.0
H476 H 0.07474 0.47577 1.03735 0.0
H477 H 0.10052 0.42524 0.9887 0.0
C478 C 0.12667 0.43411 0.89659 0.0
C479 C 0.14085 0.44397 0.84932 0.0
C480 C 0.1111 0.46284 0.92523 0.0
C481 C 0.13832 0.48259 0.83121 0.0
C482 C 0.12214 0.51066 0.85893 0.0
C483 C 0.09302 0.52999 0.93432 0.0
C484 C 0.07997 0.52121 0.98199 0.0
C485 C 0.10865 0.50133 0.90606 0.0
C486 C 0.08347 0.48318 1.00085 0.0
C487 C 0.09852 0.45427 0.97287 0.0
H488 H 0.61634 0.86245 0.9176 0.0
H489 H 0.53357 0.77535 1.01331 0.0
H490 H 0.50255 0.83094 1.04538 0.0
H491 H 0.50355 0.90553 1.04953 0.0
H492 H 0.59249 0.99221 0.95838 0.0
H493 H 0.61607 0.93531 0.92003 0.0
C494 C 0.5907 0.85539 0.94468 0.0
C495 C 0.57648 0.81483 0.9625 0.0
C496 C 0.57432 0.88746 0.96358 0.0
C497 C 0.54452 0.80634 0.99881 0.0
C498 C 0.52696 0.83807 1.01708 0.0
C499 C 0.52738 0.91164 1.02055 0.0
C500 C 0.54602 0.9527 1.00612 0.0
C501 C 0.54211 0.87889 1.00015 0.0
C502 C 0.57768 0.96071 0.9696 0.0
C503 C 0.59121 0.92828 0.9479 0.0
H504 H 0.91876 0.21809 0.4152 0.0
H505 H 0.97096 0.31465 0.51436 0.0
H506 H 0.99547 0.26489 0.56281 0.0
H507 H 0.9974 0.19311 0.57987 0.0
H508 H 0.95058 0.09781 0.47822 0.0
H509 H 0.93005 0.14856 0.42669 0.0
C510 C 0.93661 0.22884 0.44657 0.0
C511 C 0.94239 0.2703 0.46117 0.0
C512 C 0.95155 0.20026 0.47382 0.0
C513 C 0.96498 0.28287 0.50268 0.0
C514 C 0.9793 0.25448 0.53033 0.0
C515 C 0.98313 0.18366 0.54613 0.0
C516 C 0.9748 0.14191 0.53291 0.0
C517 C 0.97189 0.21297 0.51675 0.0
C518 C 0.9571 0.12988 0.48896 0.0
C519 C 0.94519 0.15882 0.45973 0.0
H520 H 0.26921 0.7253 0.21434 0.0
H521 H 0.30228 0.6099 0.24455 0.0
H522 H 0.23514 0.57176 0.2093 0.0
H523 H 0.16628 0.57066 0.16916 0.0
H524 H 0.13602 0.68681 0.13597 0.0
H525 H 0.20268 0.72445 0.17189 0.0
C526 C 0.26229 0.69184 0.2128 0.0
C527 C 0.29136 0.67093 0.23274 0.0
C528 C 0.22374 0.66985 0.19154 0.0
C529 C 0.28064 0.62729 0.23068 0.0
C530 C 0.24217 0.60526 0.21004 0.0
C531 C 0.17424 0.6042 0.16968 0.0
C532 C 0.14561 0.62554 0.1496 0.0
C533 C 0.2133 0.62614 0.19038 0.0
C534 C 0.15703 0.66916 0.15073 0.0
C535 C 0.19534 0.69094 0.1715 0.0
H536 H 0.26065 0.47911 0.72196 0.0
H537 H 0.28916 0.36774 0.77516 0.0
H538 H 0.36177 0.38718 0.73799 0.0
H539 H 0.41646 0.43409 0.68754 0.0
H540 H 0.3884 0.54452 0.63153 0.0
H541 H 0.31704 0.52763 0.67258 0.0
C542 C 0.28304 0.45946 0.7259 0.0
C543 C 0.26928 0.4219 0.75134 0.0
C544 C 0.32491 0.4706 0.70362 0.0
C545 C 0.29866 0.39661 0.75561 0.0
C546 C 0.34026 0.40771 0.73429 0.0
C547 C 0.3948 0.45456 0.68437 0.0
C548 C 0.40799 0.49071 0.65657 0.0
C549 C 0.35357 0.44429 0.70765 0.0
C550 C 0.37939 0.51681 0.65303 0.0
C551 C 0.3384 0.50699 0.67639 0.0
H552 H 0.68299 0.6772 0.96417 0.0
H553 H 0.70581 0.80013 1.02136 0.0
H554 H 0.77321 0.79223 1.05576 0.0
H555 H 0.83065 0.75386 1.0596 0.0
H556 H 0.80709 0.63053 1.00317 0.0
H557 H 0.73502 0.63482 0.97861 0.0
C558 C 0.70214 0.70165 0.98544 0.0
C559 C 0.68964 0.7391 0.99034 0.0
C560 C 0.74112 0.6971 1.00443 0.0
C561 C 0.71462 0.77082 1.01768 0.0
C562 C 0.75343 0.76652 1.0368 0.0
C563 C 0.80932 0.7278 1.04258 0.0
C564 C 0.82408 0.69215 1.03268 0.0
C565 C 0.76782 0.73041 1.02883 0.0
C566 C 0.79623 0.65828 1.0111 0.0
C567 C 0.75514 0.66077 0.99693 0.0
H568 H 0.36769 0.82531 0.23374 0.0
H569 H 0.48143 0.77597 0.23609 0.0
H570 H 0.52602 0.84045 0.20262 0.0
H571 H 0.53347 0.91115 0.17295 0.0
H572 H 0.42159 0.96317 0.17372 0.0
H573 H 0.37576 0.89785 0.20527 0.0
C574 C 0.40221 0.8287 0.22677 0.0
C575 C 0.42108 0.79558 0.23765 0.0
C576 C 0.42812 0.86654 0.20806 0.0
C577 C 0.46601 0.80083 0.22863 0.0
C578 C 0.49158 0.83776 0.20929 0.0
C579 C 0.49905 0.90833 0.18011 0.0
C580 C 0.48109 0.94224 0.17081 0.0
C581 C 0.47312 0.87089 0.19902 0.0
C582 C 0.43639 0.93778 0.18044 0.0
C583 C 0.41014 0.9003 0.19853 0.0
H584 H 0.15932 0.31846 0.68774 0.0
H585 H 0.09808 0.28744 0.82484 0.0
H586 H 0.06378 0.21752 0.79705 0.0
H587 H 0.05318 0.16371 0.73336 0.0
H588 H 0.11895 0.19734 0.59849 0.0
H589 H 0.15 0.26652 0.62635 0.0
C590 C 0.13895 0.29645 0.71207 0.0
C591 C 0.13212 0.30861 0.75881 0.0
C592 C 0.12024 0.2561 0.69621 0.0
C593 C 0.1041 0.2795 0.78872 0.0
C594 C 0.0847 0.23921 0.77286 0.0
C595 C 0.07451 0.18609 0.71019 0.0
C596 C 0.08351 0.17452 0.66358 0.0
C597 C 0.0929 0.22685 0.72667 0.0
C598 C 0.11112 0.20453 0.63434 0.0
C599 C 0.12902 0.24454 0.65025 0.0
H600 H 0.81016 0.31515 0.48598 0.0
H601 H 0.88391 0.43543 0.43931 0.0
H602 H 0.82394 0.46591 0.46485 0.0
H603 H 0.74702 0.45612 0.49074 0.0
H604 H 0.67126 0.33405 0.52918 0.0
H605 H 0.73531 0.30617 0.51659 0.0
C606 C 0.8135 0.34826 0.48295 0.0
C607 C 0.85141 0.37332 0.46177 0.0
C608 C 0.77814 0.36489 0.49526 0.0
C609 C 0.85516 0.4159 0.45638 0.0
C610 C 0.82074 0.43312 0.47047 0.0
C611 C 0.74489 0.42357 0.49708 0.0
C612 C 0.70463 0.39703 0.51062 0.0
C613 C 0.78153 0.40763 0.48845 0.0
C614 C 0.70192 0.35485 0.51829 0.0
C615 C 0.73849 0.33899 0.51124 0.0
loop_
_geom_bond_atom_site_label_1
_geom_bond_atom_site_label_2
_geom_bond_distance
_geom_bond_site_symmetry_2
_ccdc_geom_bond_type
H0 C3 0.931 . S
H1 C6 0.928 . S
H2 C8 0.930 . S
C3 H0 0.931 . S
C3 C4 1.413 . S
C3 C5 1.360 . S
C4 C3 1.413 . S
C4 C8 1.429 . S
C5 C3 1.360 . S
C5 C6 1.372 . S
C6 H1 0.928 . S
C6 C5 1.372 . S
C6 C7 1.404 . S
C7 C6 1.404 . S
C7 C8 1.391 . S
C8 H2 0.930 . S
C8 C4 1.429 . S
C8 C7 1.391 . S
H9 C12 0.931 . S
H10 C15 0.928 . S
H11 C17 0.930 . S
C12 H9 0.931 . S
C12 C13 1.413 . S
C12 C14 1.360 . S
C13 C12 1.413 . S
C13 C17 1.429 . S
C14 C12 1.360 . S
C14 C15 1.372 . S
C15 H10 0.928 . S
C15 C14 1.372 . S
C15 C16 1.404 . S
C16 C15 1.404 . S
C16 C17 1.391 . S
C17 H11 0.930 . S
C17 C13 1.429 . S
C17 C16 1.391 . S
H18 C21 0.931 . S
H19 C24 0.928 . S
H20 C26 0.930 . S
C21 H18 0.931 . S
C21 C22 1.413 . S
C21 C23 1.360 . S
C22 C21 1.413 . S
C22 C26 1.429 . S
C23 C21 1.360 . S
C23 C24 1.372 . S
C24 H19 0.928 . S
C24 C23 1.372 . S
C24 C25 1.404 . S
C25 C24 1.404 . S
C25 C26 1.391 . S
C26 H20 0.930 . S
C26 C22 1.429 . S
C26 C25 1.391 . S
H27 C30 0.931 . S
H28 C33 0.928 . S
H29 C35 0.930 . S
C30 H27 0.931 . S
C30 C31 1.413 . S
C30 C32 1.360 . S
C31 C30 1.413 . S
C31 C35 1.429 . S
C32 C30 1.360 . S
C32 C33 1.372 . S
C33 H28 0.928 . S
C33 C32 1.372 . S
C33 C34 1.404 . S
C34 C33 1.404 . S
C34 C35 1.391 . S
C35 H29 0.930 . S
C35 C31 1.429 . S
C35 C34 1.391 . S
H36 C39 0.931 . S
H37 C42 0.928 . S
H38 C44 0.930 . S
C39 H36 0.931 . S
C39 C40 1.413 . S
C39 C41 1.360 . S
C40 C39 1.413 . S
C40 C44 1.429 . S
C41 C39 1.360 . S
C41 C42 1.372 . S
C42 H37 0.928 . S
C42 C41 1.372 . S
C42 C43 1.404 . S
C43 C42 1.404 . S
C43 C44 1.391 . S
C44 H38 0.930 . S
C44 C40 1.429 . S
C44 C43 1.391 . S
H45 C48 0.931 . S
H46 C51 0.928 . S
H47 C53 0.930 . S
C48 H45 0.931 . S
C48 C49 1.413 . S
C48 C50 1.360 . S
C49 C48 1.413 . S
C49 C53 1.429 . S
C50 C48 1.360 . S
C50 C51 1.372 . S
C51 H46 0.928 . S
C51 C50 1.372 . S
C51 C52 1.404 . S
C52 C51 1.404 . S
C52 C53 1.391 . S
C53 H47 0.930 . S
C53 C49 1.429 . S
C53 C52 1.391 . S
H54 C57 0.931 . S
H55 C60 0.928 . S
H56 C62 0.930 . S
C57 H54 0.931 . S
C57 C58 1.413 . S
C57 C59 1.360 . S
C58 C57 1.413 . S
C58 C62 1.429 . S
C59 C57 1.360 . S
C59 C60 1.372 . S
C60 H55 0.928 . S
C60 C59 1.372 . S
C60 C61 1.404 . S
C61 C60 1.404 . S
C61 C62 1.391 . S
C62 H56 0.930 . S
C62 C58 1.429 . S
C62 C61 1.391 . S
H63 C66 0.931 . S
H64 C69 0.928 . S
H65 C71 0.930 . S
C66 H63 0.931 . S
C66 C67 1.413 . S
C66 C68 1.360 . S
C67 C66 1.413 . S
C67 C71 1.429 . S
C68 C66 1.360 . S
C68 C69 1.372 . S
C69 H64 0.928 . S
C69 C68 1.372 . S
C69 C70 1.404 . S
C70 C69 1.404 . S
C70 C71 1.391 . S
C71 H65 0.930 . S
C71 C67 1.429 . S
C71 C70 1.391 . S
Sm72 C74 2.846 . S
Sm72 O92 2.543 . S
Sm72 O93 2.450 . S
Sm72 O94 2.681 1_545 S
Sm72 O95 2.464 1_545 S
Sm72 O96 2.396 . S
Sm72 O100 2.386 1_455 S
Sm72 O103 2.408 1_445 S
Sm73 C83 2.846 . S
Sm73 O94 2.386 1_655 S
Sm73 O97 2.408 1_665 S
Sm73 O98 2.543 . S
Sm73 O99 2.450 . S
Sm73 O100 2.681 1_565 S
Sm73 O101 2.464 1_565 S
Sm73 O102 2.396 . S
C74 Sm72 2.846 . S
C74 C75 1.506 . S
C74 O92 1.261 . S
C74 O93 1.242 . S
C75 C74 1.506 . S
C75 C76 1.358 . S
C75 C80 1.382 . S
C76 C75 1.358 . S
C76 C77 1.385 . S
C76 H104 0.930 . S
C77 C76 1.385 . S
C77 C78 1.395 . S
C77 H105 0.929 . S
C78 C77 1.395 . S
C78 C79 1.335 . S
C79 C78 1.335 . S
C79 C80 1.398 . S
C79 H106 0.930 . S
C80 C75 1.382 . S
C80 C79 1.398 . S
C80 H107 0.929 . S
C81 O94 1.271 . S
C81 O95 1.251 . S
C82 O96 1.252 . S
C82 O97 1.272 . S
C83 Sm73 2.846 . S
C83 C84 1.506 . S
C83 O98 1.261 . S
C83 O99 1.242 . S
C84 C83 1.506 . S
C84 C85 1.358 . S
C84 C89 1.382 . S
C85 C84 1.358 . S
C85 C86 1.385 . S
C85 H108 0.930 . S
C86 C85 1.385 . S
C86 C87 1.395 . S
C86 H109 0.929 . S
C87 C86 1.395 . S
C87 C88 1.335 . S
C88 C87 1.335 . S
C88 C89 1.398 . S
C88 H110 0.930 . S
C89 C84 1.382 . S
C89 C88 1.398 . S
C89 H111 0.929 . S
C90 O100 1.271 . S
C90 O101 1.251 . S
C91 O102 1.252 . S
C91 O103 1.272 . S
O92 Sm72 2.543 . S
O92 C74 1.261 . S
O93 Sm72 2.450 . S
O93 C74 1.242 . S
O94 Sm72 2.681 1_565 S
O94 Sm73 2.386 1_455 S
O94 C81 1.271 . S
O95 Sm72 2.464 1_565 S
O95 C81 1.251 . S
O96 Sm72 2.396 . S
O96 C82 1.252 . S
O97 Sm73 2.408 1_445 S
O97 C82 1.272 . S
O98 Sm73 2.543 . S
O98 C83 1.261 . S
O99 Sm73 2.450 . S
O99 C83 1.242 . S
O100 Sm72 2.386 1_655 S
O100 Sm73 2.681 1_545 S
O100 C90 1.271 . S
O101 Sm73 2.464 1_545 S
O101 C90 1.251 . S
O102 Sm73 2.396 . S
O102 C91 1.252 . S
O103 Sm72 2.408 1_665 S
O103 C91 1.272 . S
H104 C76 0.930 . S
H105 C77 0.929 . S
H106 C79 0.930 . S
H107 C80 0.929 . S
H108 C85 0.930 . S
H109 C86 0.929 . S
H110 C88 0.930 . S
H111 C89 0.929 . S
Sm112 C114 2.832 1_565 S
Sm112 O132 2.519 1_565 S
Sm112 O133 2.449 1_565 S
Sm112 O134 2.691 . S
Sm112 O135 2.485 . S
Sm112 O136 2.380 1_565 S
Sm112 O140 2.365 1_564 S
Sm112 O143 2.425 1_554 S
Sm113 C123 2.846 1_545 S
Sm113 O134 2.386 1_546 S
Sm113 O137 2.408 1_556 S
Sm113 O138 2.543 1_545 S
Sm113 O139 2.450 1_545 S
Sm113 O140 2.681 . S
Sm113 O141 2.464 . S
Sm113 O142 2.396 1_545 S
C114 Sm112 2.832 1_545 S
C114 C115 1.506 . S
C114 O132 1.261 . S
C114 O133 1.242 . S
C115 C114 1.506 . S
C115 C116 1.358 . S
C115 C120 1.382 . S
C116 C115 1.358 . S
C116 C117 1.385 . S
C116 H144 0.930 . S
C117 C116 1.385 . S
C117 C118 1.395 . S
C117 H145 0.929 . S
C118 C117 1.395 . S
C118 C119 1.335 . S
C119 C118 1.335 . S
C119 C120 1.398 . S
C119 H146 0.930 . S
C120 C115 1.382 . S
C120 C119 1.398 . S
C120 H147 0.929 . S
C121 O134 1.271 . S
C121 O135 1.251 . S
C122 O136 1.252 . S
C122 O137 1.272 . S
C123 Sm113 2.846 1_565 S
C123 C124 1.506 . S
C123 O138 1.261 . S
C123 O139 1.242 . S
C124 C123 1.506 . S
C124 C125 1.358 . S
C124 C129 1.382 . S
C125 C124 1.358 . S
C125 C126 1.385 . S
C125 H148 0.930 . S
C126 C125 1.385 . S
C126 C127 1.395 . S
C126 H149 0.929 . S
C127 C126 1.395 . S
C127 C128 1.335 . S
C128 C127 1.335 . S
C128 C129 1.398 . S
C128 H150 0.930 . S
C129 C124 1.382 . S
C129 C128 1.398 . S
C129 H151 0.929 . S
C130 O140 1.271 . S
C130 O141 1.251 . S
C131 O142 1.252 . S
C131 O143 1.272 . S
O132 Sm112 2.519 1_545 S
O132 C114 1.261 . S
O133 Sm112 2.449 1_545 S
O133 C114 1.242 . S
O134 Sm112 2.691 . S
O134 Sm113 2.386 1_564 S
O134 C121 1.271 . S
O135 Sm112 2.485 . S
O135 C121 1.251 . S
O136 Sm112 2.380 1_545 S
O136 C122 1.252 . S
O137 Sm113 2.408 1_554 S
O137 C122 1.272 . S
O138 Sm113 2.543 1_565 S
O138 C123 1.261 . S
O139 Sm113 2.450 1_565 S
O139 C123 1.242 . S
O140 Sm112 2.365 1_546 S
O140 Sm113 2.681 . S
O140 C130 1.271 . S
O141 Sm113 2.464 . S
O141 C130 1.251 . S
O142 Sm113 2.396 1_565 S
O142 C131 1.252 . S
O143 Sm112 2.425 1_556 S
O143 C131 1.272 . S
H144 C116 0.930 . S
H145 C117 0.929 . S
H146 C119 0.930 . S
H147 C120 0.929 . S
H148 C125 0.930 . S
H149 C126 0.929 . S
H150 C128 0.930 . S
H151 C129 0.929 . S
Sm152 C154 2.846 . S
Sm152 O172 2.543 . S
Sm152 O173 2.450 . S
Sm152 O174 2.681 . S
Sm152 O175 2.464 . S
Sm152 O176 2.396 . S
Sm152 O180 2.386 . S
Sm152 O183 2.408 . S
Sm153 C163 2.846 . S
Sm153 O174 2.386 . S
Sm153 O177 2.408 . S
Sm153 O178 2.543 . S
Sm153 O179 2.450 . S
Sm153 O180 2.681 . S
Sm153 O181 2.464 . S
Sm153 O182 2.396 . S
C154 Sm152 2.846 . S
C154 C155 1.506 . S
C154 O172 1.261 . S
C154 O173 1.242 . S
C155 C154 1.506 . S
C155 C156 1.358 . S
C155 C160 1.382 . S
C156 C155 1.358 . S
C156 C157 1.385 . S
C156 H184 0.930 . S
C157 C156 1.385 . S
C157 C158 1.395 . S
C157 H185 0.929 . S
C158 C157 1.395 . S
C158 C159 1.335 . S
C159 C158 1.335 . S
C159 C160 1.398 . S
C159 H186 0.930 . S
C160 C155 1.382 . S
C160 C159 1.398 . S
C160 H187 0.929 . S
C161 O174 1.271 . S
C161 O175 1.251 . S
C162 O176 1.252 . S
C162 O177 1.272 . S
C163 Sm153 2.846 . S
C163 C164 1.506 . S
C163 O178 1.261 . S
C163 O179 1.242 . S
C164 C163 1.506 . S
C164 C165 1.358 . S
C164 C169 1.382 . S
C165 C164 1.358 . S
C165 C166 1.385 . S
C165 H188 0.930 . S
C166 C165 1.385 . S
C166 C167 1.395 . S
C166 H189 0.929 . S
C167 C166 1.395 . S
C167 C168 1.335 . S
C168 C167 1.335 . S
C168 C169 1.398 . S
C168 H190 0.930 . S
C169 C164 1.382 . S
C169 C168 1.398 . S
C169 H191 0.929 . S
C170 O180 1.271 . S
C170 O181 1.251 . S
C171 O182 1.252 . S
C171 O183 1.272 . S
O172 Sm152 2.543 . S
O172 C154 1.261 . S
O173 Sm152 2.450 . S
O173 C154 1.242 . S
O174 Sm152 2.681 . S
O174 Sm153 2.386 . S
O174 C161 1.271 . S
O175 Sm152 2.464 . S
O175 C161 1.251 . S
O176 Sm152 2.396 . S
O176 C162 1.252 . S
O177 Sm153 2.408 . S
O177 C162 1.272 . S
O178 Sm153 2.543 . S
O178 C163 1.261 . S
O179 Sm153 2.450 . S
O179 C163 1.242 . S
O180 Sm152 2.386 . S
O180 Sm153 2.681 . S
O180 C170 1.271 . S
O181 Sm153 2.464 . S
O181 C170 1.251 . S
O182 Sm153 2.396 . S
O182 C171 1.252 . S
O183 Sm152 2.408 . S
O183 C171 1.272 . S
H184 C156 0.930 . S
H185 C157 0.929 . S
H186 C159 0.930 . S
H187 C160 0.929 . S
H188 C165 0.930 . S
H189 C166 0.929 . S
H190 C168 0.930 . S
H191 C169 0.929 . S
Sm192 C194 2.846 . S
Sm192 O212 2.543 . S
Sm192 O213 2.450 . S
Sm192 O214 2.681 1_455 S
Sm192 O215 2.464 1_455 S
Sm192 O216 2.396 . S
Sm192 O220 2.386 1_554 S
Sm192 O223 2.397 1_454 S
Sm193 C203 2.836 1_455 S
Sm193 O214 2.383 1_456 S
Sm193 O217 2.418 1_556 S
Sm193 O218 2.531 1_455 S
Sm193 O219 2.443 1_455 S
Sm193 O220 2.688 . S
Sm193 O221 2.469 . S
Sm193 O222 2.389 1_455 S
C194 Sm192 2.846 . S
C194 C195 1.506 . S
C194 O212 1.261 . S
C194 O213 1.242 . S
C195 C194 1.506 . S
C195 C196 1.358 . S
C195 C200 1.382 . S
C196 C195 1.358 . S
C196 C197 1.385 . S
C196 H224 0.930 . S
C197 C196 1.385 . S
C197 C198 1.395 . S
C197 H225 0.929 . S
C198 C197 1.395 . S
C198 C199 1.335 . S
C199 C198 1.335 . S
C199 C200 1.398 . S
C199 H226 0.930 . S
C200 C195 1.382 . S
C200 C199 1.398 . S
C200 H227 0.929 . S
C201 O214 1.271 . S
C201 O215 1.251 . S
C202 O216 1.252 . S
C202 O217 1.272 . S
C203 Sm193 2.836 1_655 S
C203 C204 1.506 . S
C203 O218 1.261 . S
C203 O219 1.242 . S
C204 C203 1.506 . S
C204 C205 1.358 . S
C204 C209 1.382 . S
C205 C204 1.358 . S
C205 C206 1.385 . S
C205 H228 0.930 . S
C206 C205 1.385 . S
C206 C207 1.395 . S
C206 H229 0.929 . S
C207 C206 1.395 . S
C207 C208 1.335 . S
C208 C207 1.335 . S
C208 C209 1.398 . S
C208 H230 0.930 . S
C209 C204 1.382 . S
C209 C208 1.398 . S
C209 H231 0.929 . S
C210 O220 1.271 . S
C210 O221 1.251 . S
C211 O222 1.252 . S
C211 O223 1.286 . S
O212 Sm192 2.543 . S
O212 C194 1.261 . S
O213 Sm192 2.450 . S
O213 C194 1.242 . S
O214 Sm192 2.681 1_655 S
O214 Sm193 2.383 1_654 S
O214 C201 1.271 . S
O215 Sm192 2.464 1_655 S
O215 C201 1.251 . S
O216 Sm192 2.396 . S
O216 C202 1.252 . S
O217 Sm193 2.418 1_554 S
O217 C202 1.272 . S
O218 Sm193 2.531 1_655 S
O218 C203 1.261 . S
O219 Sm193 2.443 1_655 S
O219 C203 1.242 . S
O220 Sm192 2.386 1_556 S
O220 Sm193 2.688 . S
O220 C210 1.271 . S
O221 Sm193 2.469 . S
O221 C210 1.251 . S
O222 Sm193 2.389 1_655 S
O222 C211 1.252 . S
O223 Sm192 2.397 1_656 S
O223 C211 1.286 . S
H224 C196 0.930 . S
H225 C197 0.929 . S
H226 C199 0.930 . S
H227 C200 0.929 . S
H228 C205 0.930 . S
H229 C206 0.929 . S
H230 C208 0.930 . S
H231 C209 0.929 . S
H232 C238 0.930 . S
H233 C241 0.930 . S
H234 C242 0.930 . S
H235 C243 0.930 . S
H236 C246 0.930 . S
H237 C247 0.930 . S
C238 H232 0.930 . S
C238 C239 1.355 . S
C238 C240 1.415 . S
C239 C238 1.355 . S
C239 C241 1.419 . S
C240 C238 1.415 . S
C240 C245 1.425 . S
C240 C247 1.409 . S
C241 H233 0.930 . S
C241 C239 1.419 . S
C241 C242 1.362 . S
C242 H234 0.930 . S
C242 C241 1.362 . S
C242 C245 1.409 . S
C243 H235 0.930 . S
C243 C244 1.355 . S
C243 C245 1.415 . S
C244 C243 1.355 . S
C244 C246 1.419 . S
C245 C240 1.425 . S
C245 C242 1.409 . S
C245 C243 1.415 . S
C246 H236 0.930 . S
C246 C244 1.419 . S
C246 C247 1.362 . S
C247 H237 0.930 . S
C247 C240 1.409 . S
C247 C246 1.362 . S
H248 C254 0.930 . S
H249 C257 0.930 . S
H250 C258 0.930 . S
H251 C259 0.930 . S
H252 C262 0.930 . S
H253 C263 0.930 . S
C254 H248 0.930 . S
C254 C255 1.355 . S
C254 C256 1.415 . S
C255 C254 1.355 . S
C255 C257 1.419 . S
C256 C254 1.415 . S
C256 C261 1.425 . S
C256 C263 1.409 . S
C257 H249 0.930 . S
C257 C255 1.419 . S
C257 C258 1.362 . S
C258 H250 0.930 . S
C258 C257 1.362 . S
C258 C261 1.409 . S
C259 H251 0.930 . S
C259 C260 1.355 . S
C259 C261 1.415 . S
C260 C259 1.355 . S
C260 C262 1.419 . S
C261 C256 1.425 . S
C261 C258 1.409 . S
C261 C259 1.415 . S
C262 H252 0.930 . S
C262 C260 1.419 . S
C262 C263 1.362 . S
C263 H253 0.930 . S
C263 C256 1.409 . S
C263 C262 1.362 . S
H264 C270 0.930 . S
H265 C273 0.930 . S
H266 C274 0.930 . S
H267 C275 0.930 . S
H268 C278 0.930 . S
H269 C279 0.930 . S
C270 H264 0.930 . S
C270 C271 1.355 . S
C270 C272 1.415 . S
C271 C270 1.355 . S
C271 C273 1.419 . S
C272 C270 1.415 . S
C272 C277 1.425 . S
C272 C279 1.409 . S
C273 H265 0.930 . S
C273 C271 1.419 . S
C273 C274 1.362 . S
C274 H266 0.930 . S
C274 C273 1.362 . S
C274 C277 1.409 . S
C275 H267 0.930 . S
C275 C276 1.355 . S
C275 C277 1.415 . S
C276 C275 1.355 . S
C276 C278 1.419 . S
C277 C272 1.425 . S
C277 C274 1.409 . S
C277 C275 1.415 . S
C278 H268 0.930 . S
C278 C276 1.419 . S
C278 C279 1.362 . S
C279 H269 0.930 . S
C279 C272 1.409 . S
C279 C278 1.362 . S
H280 C286 0.930 . S
H281 C289 0.930 . S
H282 C290 0.930 . S
H283 C291 0.930 . S
H284 C294 0.930 . S
H285 C295 0.930 . S
C286 H280 0.930 . S
C286 C287 1.355 . S
C286 C288 1.415 . S
C287 C286 1.355 . S
C287 C289 1.419 . S
C288 C286 1.415 . S
C288 C293 1.425 . S
C288 C295 1.409 . S
C289 H281 0.930 . S
C289 C287 1.419 . S
C289 C290 1.362 . S
C290 H282 0.930 . S
C290 C289 1.362 . S
C290 C293 1.409 . S
C291 H283 0.930 . S
C291 C292 1.355 . S
C291 C293 1.415 . S
C292 C291 1.355 . S
C292 C294 1.419 . S
C293 C288 1.425 . S
C293 C290 1.409 . S
C293 C291 1.415 . S
C294 H284 0.930 . S
C294 C292 1.419 . S
C294 C295 1.362 . S
C295 H285 0.930 . S
C295 C288 1.409 . S
C295 C294 1.362 . S
H296 C302 0.930 . S
H297 C305 0.930 . S
H298 C306 0.930 . S
H299 C307 0.930 . S
H300 C310 0.930 . S
H301 C311 0.930 . S
C302 H296 0.930 . S
C302 C303 1.355 . S
C302 C304 1.415 . S
C303 C302 1.355 . S
C303 C305 1.419 . S
C304 C302 1.415 . S
C304 C309 1.425 . S
C304 C311 1.409 . S
C305 H297 0.930 . S
C305 C303 1.419 . S
C305 C306 1.362 . S
C306 H298 0.930 . S
C306 C305 1.362 . S
C306 C309 1.409 . S
C307 H299 0.930 . S
C307 C308 1.355 . S
C307 C309 1.415 . S
C308 C307 1.355 . S
C308 C310 1.419 . S
C309 C304 1.425 . S
C309 C306 1.409 . S
C309 C307 1.415 . S
C310 H300 0.930 . S
C310 C308 1.419 . S
C310 C311 1.362 . S
C311 H301 0.930 . S
C311 C304 1.409 . S
C311 C310 1.362 . S
H312 C318 0.930 . S
H313 C321 0.930 . S
H314 C322 0.930 . S
H315 C323 0.930 . S
H316 C326 0.930 . S
H317 C327 0.930 . S
C318 H312 0.930 . S
C318 C319 1.355 . S
C318 C320 1.415 . S
C319 C318 1.355 . S
C319 C321 1.419 . S
C320 C318 1.415 . S
C320 C325 1.425 . S
C320 C327 1.409 . S
C321 H313 0.930 . S
C321 C319 1.419 . S
C321 C322 1.362 . S
C322 H314 0.930 . S
C322 C321 1.362 . S
C322 C325 1.409 . S
C323 H315 0.930 . S
C323 C324 1.355 . S
C323 C325 1.415 . S
C324 C323 1.355 . S
C324 C326 1.419 . S
C325 C320 1.425 . S
C325 C322 1.409 . S
C325 C323 1.415 . S
C326 H316 0.930 . S
C326 C324 1.419 . S
C326 C327 1.362 . S
C327 H317 0.930 . S
C327 C320 1.409 . S
C327 C326 1.362 . S
H328 C334 0.930 . S
H329 C337 0.930 . S
H330 C338 0.930 . S
H331 C339 0.930 . S
H332 C342 0.930 . S
H333 C343 0.930 . S
C334 H328 0.930 . S
C334 C335 1.355 . S
C334 C336 1.415 . S
C335 C334 1.355 . S
C335 C337 1.419 . S
C336 C334 1.415 . S
C336 C341 1.425 . S
C336 C343 1.409 . S
C337 H329 0.930 . S
C337 C335 1.419 . S
C337 C338 1.362 . S
C338 H330 0.930 . S
C338 C337 1.362 . S
C338 C341 1.409 . S
C339 H331 0.930 . S
C339 C340 1.355 . S
C339 C341 1.415 . S
C340 C339 1.355 . S
C340 C342 1.419 . S
C341 C336 1.425 . S
C341 C338 1.409 . S
C341 C339 1.415 . S
C342 H332 0.930 . S
C342 C340 1.419 . S
C342 C343 1.362 . S
C343 H333 0.930 . S
C343 C336 1.409 . S
C343 C342 1.362 . S
H344 C350 0.930 . S
H345 C353 0.930 . S
H346 C354 0.930 . S
H347 C355 0.930 . S
H348 C358 0.930 . S
H349 C359 0.930 . S
C350 H344 0.930 . S
C350 C351 1.355 . S
C350 C352 1.415 . S
C351 C350 1.355 . S
C351 C353 1.419 . S
C352 C350 1.415 . S
C352 C357 1.425 . S
C352 C359 1.409 . S
C353 H345 0.930 . S
C353 C351 1.419 . S
C353 C354 1.362 . S
C354 H346 0.930 . S
C354 C353 1.362 . S
C354 C357 1.409 . S
C355 H347 0.930 . S
C355 C356 1.355 . S
C355 C357 1.415 . S
C356 C355 1.355 . S
C356 C358 1.419 . S
C357 C352 1.425 . S
C357 C354 1.409 . S
C357 C355 1.415 . S
C358 H348 0.930 . S
C358 C356 1.419 . S
C358 C359 1.362 . S
C359 H349 0.930 . S
C359 C352 1.409 . S
C359 C358 1.362 . S
H360 C366 0.930 . S
H361 C369 0.930 . S
H362 C370 0.930 . S
H363 C371 0.930 . S
H364 C374 0.930 . S
H365 C375 0.930 . S
C366 H360 0.930 . S
C366 C367 1.355 . S
C366 C368 1.415 . S
C367 C366 1.355 . S
C367 C369 1.419 . S
C368 C366 1.415 . S
C368 C373 1.425 . S
C368 C375 1.409 . S
C369 H361 0.930 . S
C369 C367 1.419 . S
C369 C370 1.362 . S
C370 H362 0.930 . S
C370 C369 1.362 . S
C370 C373 1.409 . S
C371 H363 0.930 . S
C371 C372 1.355 . S
C371 C373 1.415 . S
C372 C371 1.355 . S
C372 C374 1.419 . S
C373 C368 1.425 . S
C373 C370 1.409 . S
C373 C371 1.415 . S
C374 H364 0.930 . S
C374 C372 1.419 . S
C374 C375 1.362 . S
C375 H365 0.930 . S
C375 C368 1.409 . S
C375 C374 1.362 . S
H376 C382 0.930 . S
H377 C385 0.930 . S
H378 C386 0.930 . S
H379 C387 0.930 . S
H380 C390 0.930 . S
H381 C391 0.930 . S
C382 H376 0.930 . S
C382 C383 1.355 . S
C382 C384 1.415 . S
C383 C382 1.355 . S
C383 C385 1.419 . S
C384 C382 1.415 . S
C384 C389 1.425 . S
C384 C391 1.409 . S
C385 H377 0.930 . S
C385 C383 1.419 . S
C385 C386 1.362 . S
C386 H378 0.930 . S
C386 C385 1.362 . S
C386 C389 1.409 . S
C387 H379 0.930 . S
C387 C388 1.355 . S
C387 C389 1.415 . S
C388 C387 1.355 . S
C388 C390 1.419 . S
C389 C384 1.425 . S
C389 C386 1.409 . S
C389 C387 1.415 . S
C390 H380 0.930 . S
C390 C388 1.419 . S
C390 C391 1.362 . S
C391 H381 0.930 . S
C391 C384 1.409 . S
C391 C390 1.362 . S
H392 C398 0.930 . S
H393 C401 0.930 . S
H394 C402 0.930 . S
H395 C403 0.930 . S
H396 C406 0.930 . S
H397 C407 0.930 . S
C398 H392 0.930 . S
C398 C399 1.355 . S
C398 C400 1.415 . S
C399 C398 1.355 . S
C399 C401 1.419 . S
C400 C398 1.415 . S
C400 C405 1.425 . S
C400 C407 1.409 . S
C401 H393 0.930 . S
C401 C399 1.419 . S
C401 C402 1.362 . S
C402 H394 0.930 . S
C402 C401 1.362 . S
C402 C405 1.409 . S
C403 H395 0.930 . S
C403 C404 1.355 . S
C403 C405 1.415 . S
C404 C403 1.355 . S
C404 C406 1.419 . S
C405 C400 1.425 . S
C405 C402 1.409 . S
C405 C403 1.415 . S
C406 H396 0.930 . S
C406 C404 1.419 . S
C406 C407 1.362 . S
C407 H397 0.930 . S
C407 C400 1.409 . S
C407 C406 1.362 . S
H408 C414 0.930 . S
H409 C417 0.930 . S
H410 C418 0.930 . S
H411 C419 0.930 . S
H412 C422 0.930 . S
H413 C423 0.930 . S
C414 H408 0.930 . S
C414 C415 1.355 . S
C414 C416 1.415 . S
C415 C414 1.355 . S
C415 C417 1.419 . S
C416 C414 1.415 . S
C416 C421 1.425 . S
C416 C423 1.409 . S
C417 H409 0.930 . S
C417 C415 1.419 . S
C417 C418 1.362 . S
C418 H410 0.930 . S
C418 C417 1.362 . S
C418 C421 1.409 . S
C419 H411 0.930 . S
C419 C420 1.355 . S
C419 C421 1.415 . S
C420 C419 1.355 . S
C420 C422 1.419 . S
C421 C416 1.425 . S
C421 C418 1.409 . S
C421 C419 1.415 . S
C422 H412 0.930 . S
C422 C420 1.419 . S
C422 C423 1.362 . S
C423 H413 0.930 . S
C423 C416 1.409 . S
C423 C422 1.362 . S
H424 C430 0.930 . S
H425 C433 0.930 . S
H426 C434 0.930 . S
H427 C435 0.930 . S
H428 C438 0.930 . S
H429 C439 0.930 . S
C430 H424 0.930 . S
C430 C431 1.355 . S
C430 C432 1.415 . S
C431 C430 1.355 . S
C431 C433 1.419 . S
C432 C430 1.415 . S
C432 C437 1.425 . S
C432 C439 1.409 . S
C433 H425 0.930 . S
C433 C431 1.419 . S
C433 C434 1.362 . S
C434 H426 0.930 . S
C434 C433 1.362 . S
C434 C437 1.409 . S
C435 H427 0.930 . S
C435 C436 1.355 . S
C435 C437 1.415 . S
C436 C435 1.355 . S
C436 C438 1.419 . S
C437 C432 1.425 . S
C437 C434 1.409 . S
C437 C435 1.415 . S
C438 H428 0.930 . S
C438 C436 1.419 . S
C438 C439 1.362 . S
C439 H429 0.930 . S
C439 C432 1.409 . S
C439 C438 1.362 . S
H440 C446 0.930 . S
H441 C449 0.930 . S
H442 C450 0.930 . S
H443 C451 0.930 . S
H444 C454 0.930 . S
H445 C455 0.930 . S
C446 H440 0.930 . S
C446 C447 1.355 . S
C446 C448 1.415 . S
C447 C446 1.355 . S
C447 C449 1.419 . S
C448 C446 1.415 . S
C448 C453 1.425 . S
C448 C455 1.409 . S
C449 H441 0.930 . S
C449 C447 1.419 . S
C449 C450 1.362 . S
C450 H442 0.930 . S
C450 C449 1.362 . S
C450 C453 1.409 . S
C451 H443 0.930 . S
C451 C452 1.355 . S
C451 C453 1.415 . S
C452 C451 1.355 . S
C452 C454 1.419 . S
C453 C448 1.425 . S
C453 C450 1.409 . S
C453 C451 1.415 . S
C454 H444 0.930 . S
C454 C452 1.419 . S
C454 C455 1.362 . S
C455 H445 0.930 . S
C455 C448 1.409 . S
C455 C454 1.362 . S
H456 C462 0.930 . S
H457 C465 0.930 . S
H458 C466 0.930 . S
H459 C467 0.930 . S
H460 C470 0.930 . S
H461 C471 0.930 . S
C462 H456 0.930 . S
C462 C463 1.355 . S
C462 C464 1.415 . S
C463 C462 1.355 . S
C463 C465 1.419 . S
C464 C462 1.415 . S
C464 C469 1.425 . S
C464 C471 1.409 . S
C465 H457 0.930 . S
C465 C463 1.419 . S
C465 C466 1.362 . S
C466 H458 0.930 . S
C466 C465 1.362 . S
C466 C469 1.409 . S
C467 H459 0.930 . S
C467 C468 1.355 . S
C467 C469 1.415 . S
C468 C467 1.355 . S
C468 C470 1.419 . S
C469 C464 1.425 . S
C469 C466 1.409 . S
C469 C467 1.415 . S
C470 H460 0.930 . S
C470 C468 1.419 . S
C470 C471 1.362 . S
C471 H461 0.930 . S
C471 C464 1.409 . S
C471 C470 1.362 . S
H472 C478 0.930 . S
H473 C481 0.930 . S
H474 C482 0.930 . S
H475 C483 0.930 . S
H476 C486 0.930 . S
H477 C487 0.930 . S
C478 H472 0.930 . S
C478 C479 1.355 . S
C478 C480 1.415 . S
C479 C478 1.355 . S
C479 C481 1.419 . S
C480 C478 1.415 . S
C480 C485 1.425 . S
C480 C487 1.409 . S
C481 H473 0.930 . S
C481 C479 1.419 . S
C481 C482 1.362 . S
C482 H474 0.930 . S
C482 C481 1.362 . S
C482 C485 1.409 . S
C483 H475 0.930 . S
C483 C484 1.355 . S
C483 C485 1.415 . S
C484 C483 1.355 . S
C484 C486 1.419 . S
C485 C480 1.425 . S
C485 C482 1.409 . S
C485 C483 1.415 . S
C486 H476 0.930 . S
C486 C484 1.419 . S
C486 C487 1.362 . S
C487 H477 0.930 . S
C487 C480 1.409 . S
C487 C486 1.362 . S
H488 C494 0.930 . S
H489 C497 0.930 . S
H490 C498 0.930 . S
H491 C499 0.930 . S
H492 C502 0.930 . S
H493 C503 0.930 . S
C494 H488 0.930 . S
C494 C495 1.355 . S
C494 C496 1.415 . S
C495 C494 1.355 . S
C495 C497 1.419 . S
C496 C494 1.415 . S
C496 C501 1.425 . S
C496 C503 1.409 . S
C497 H489 0.930 . S
C497 C495 1.419 . S
C497 C498 1.362 . S
C498 H490 0.930 . S
C498 C497 1.362 . S
C498 C501 1.409 . S
C499 H491 0.930 . S
C499 C500 1.355 . S
C499 C501 1.415 . S
C500 C499 1.355 . S
C500 C502 1.419 . S
C501 C496 1.425 . S
C501 C498 1.409 . S
C501 C499 1.415 . S
C502 H492 0.930 . S
C502 C500 1.419 . S
C502 C503 1.362 . S
C503 H493 0.930 . S
C503 C496 1.409 . S
C503 C502 1.362 . S
H504 C510 0.930 . S
H505 C513 0.930 . S
H506 C514 0.930 . S
H507 C515 0.930 . S
H508 C518 0.930 1_565 S
H509 C519 0.930 . S
C510 H504 0.930 . S
C510 C511 1.355 . S
C510 C512 1.415 . S
C511 C510 1.355 . S
C511 C513 1.419 . S
C512 C510 1.415 . S
C512 C517 1.425 . S
C512 C519 1.409 . S
C513 H505 0.930 . S
C513 C511 1.419 . S
C513 C514 1.362 . S
C514 H506 0.930 . S
C514 C513 1.362 . S
C514 C517 1.409 . S
C515 H507 0.930 . S
C515 C516 1.355 . S
C515 C517 1.415 . S
C516 C515 1.355 . S
C516 C518 1.419 . S
C517 C512 1.425 . S
C517 C514 1.409 . S
C517 C515 1.415 . S
C518 H508 0.930 1_545 S
C518 C516 1.419 . S
C518 C519 1.362 . S
C519 H509 0.930 . S
C519 C512 1.409 . S
C519 C518 1.362 . S
H520 C526 0.930 . S
H521 C529 0.930 . S
H522 C530 0.930 . S
H523 C531 0.930 . S
H524 C534 0.930 . S
H525 C535 0.930 . S
C526 H520 0.930 . S
C526 C527 1.355 . S
C526 C528 1.415 . S
C527 C526 1.355 . S
C527 C529 1.419 . S
C528 C526 1.415 . S
C528 C533 1.425 . S
C528 C535 1.409 . S
C529 H521 0.930 . S
C529 C527 1.419 . S
C529 C530 1.362 . S
C530 H522 0.930 . S
C530 C529 1.362 . S
C530 C533 1.409 . S
C531 H523 0.930 . S
C531 C532 1.355 . S
C531 C533 1.415 . S
C532 C531 1.355 . S
C532 C534 1.419 . S
C533 C528 1.425 . S
C533 C530 1.409 . S
C533 C531 1.415 . S
C534 H524 0.930 . S
C534 C532 1.419 . S
C534 C535 1.362 . S
C535 H525 0.930 . S
C535 C528 1.409 . S
C535 C534 1.362 . S
H536 C542 0.930 . S
H537 C545 0.930 . S
H538 C546 0.930 . S
H539 C547 0.930 . S
H540 C550 0.930 . S
H541 C551 0.930 . S
C542 H536 0.930 . S
C542 C543 1.355 . S
C542 C544 1.415 . S
C543 C542 1.355 . S
C543 C545 1.419 . S
C544 C542 1.415 . S
C544 C549 1.425 . S
C544 C551 1.409 . S
C545 H537 0.930 . S
C545 C543 1.419 . S
C545 C546 1.362 . S
C546 H538 0.930 . S
C546 C545 1.362 . S
C546 C549 1.409 . S
C547 H539 0.930 . S
C547 C548 1.355 . S
C547 C549 1.415 . S
C548 C547 1.355 . S
C548 C550 1.419 . S
C549 C544 1.425 . S
C549 C546 1.409 . S
C549 C547 1.415 . S
C550 H540 0.930 . S
C550 C548 1.419 . S
C550 C551 1.362 . S
C551 H541 0.930 . S
C551 C544 1.409 . S
C551 C550 1.362 . S
H552 C558 0.930 . S
H553 C561 0.930 . S
H554 C562 0.930 . S
H555 C563 0.930 . S
H556 C566 0.930 . S
H557 C567 0.930 . S
C558 H552 0.930 . S
C558 C559 1.355 . S
C558 C560 1.415 . S
C559 C558 1.355 . S
C559 C561 1.419 . S
C560 C558 1.415 . S
C560 C565 1.425 . S
C560 C567 1.409 . S
C561 H553 0.930 . S
C561 C559 1.419 . S
C561 C562 1.362 . S
C562 H554 0.930 . S
C562 C561 1.362 . S
C562 C565 1.409 . S
C563 H555 0.930 . S
C563 C564 1.355 . S
C563 C565 1.415 . S
C564 C563 1.355 . S
C564 C566 1.419 . S
C565 C560 1.425 . S
C565 C562 1.409 . S
C565 C563 1.415 . S
C566 H556 0.930 . S
C566 C564 1.419 . S
C566 C567 1.362 . S
C567 H557 0.930 . S
C567 C560 1.409 . S
C567 C566 1.362 . S
H568 C574 0.930 . S
H569 C577 0.930 . S
H570 C578 0.930 . S
H571 C579 0.930 . S
H572 C582 0.930 . S
H573 C583 0.930 . S
C574 H568 0.930 . S
C574 C575 1.355 . S
C574 C576 1.415 . S
C575 C574 1.355 . S
C575 C577 1.419 . S
C576 C574 1.415 . S
C576 C581 1.425 . S
C576 C583 1.409 . S
C577 H569 0.930 . S
C577 C575 1.419 . S
C577 C578 1.362 . S
C578 H570 0.930 . S
C578 C577 1.362 . S
C578 C581 1.409 . S
C579 H571 0.930 . S
C579 C580 1.355 . S
C579 C581 1.415 . S
C580 C579 1.355 . S
C580 C582 1.419 . S
C581 C576 1.425 . S
C581 C578 1.409 . S
C581 C579 1.415 . S
C582 H572 0.930 . S
C582 C580 1.419 . S
C582 C583 1.362 . S
C583 H573 0.930 . S
C583 C576 1.409 . S
C583 C582 1.362 . S
H584 C590 0.930 . S
H585 C593 0.930 . S
H586 C594 0.930 . S
H587 C595 0.930 . S
H588 C598 0.930 . S
H589 C599 0.930 . S
C590 H584 0.930 . S
C590 C591 1.355 . S
C590 C592 1.415 . S
C591 C590 1.355 . S
C591 C593 1.419 . S
C592 C590 1.415 . S
C592 C597 1.425 . S
C592 C599 1.409 . S
C593 H585 0.930 . S
C593 C591 1.419 . S
C593 C594 1.362 . S
C594 H586 0.930 . S
C594 C593 1.362 . S
C594 C597 1.409 . S
C595 H587 0.930 . S
C595 C596 1.355 . S
C595 C597 1.415 . S
C596 C595 1.355 . S
C596 C598 1.419 . S
C597 C592 1.425 . S
C597 C594 1.409 . S
C597 C595 1.415 . S
C598 H588 0.930 . S
C598 C596 1.419 . S
C598 C599 1.362 . S
C599 H589 0.930 . S
C599 C592 1.409 . S
C599 C598 1.362 . S
H600 C606 0.930 . S
H601 C609 0.930 . S
H602 C610 0.930 . S
H603 C611 0.930 . S
H604 C614 0.930 . S
H605 C615 0.930 . S
C606 H600 0.930 . S
C606 C607 1.355 . S
C606 C608 1.415 . S
C607 C606 1.355 . S
C607 C609 1.419 . S
C608 C606 1.415 . S
C608 C613 1.425 . S
C608 C615 1.409 . S
C609 H601 0.930 . S
C609 C607 1.419 . S
C609 C610 1.362 . S
C610 H602 0.930 . S
C610 C609 1.362 . S
C610 C613 1.409 . S
C611 H603 0.930 . S
C611 C612 1.355 . S
C611 C613 1.415 . S
C612 C611 1.355 . S
C612 C614 1.419 . S
C613 C608 1.425 . S
C613 C610 1.409 . S
C613 C611 1.415 . S
C614 H604 0.930 . S
C614 C612 1.419 . S
C614 C615 1.362 . S
C615 H605 0.930 . S
C615 C608 1.409 . S
C615 C614 1.362 . S
C239 C5 1.055 . S
C244 C78 1.032 . S
C255 C14 0.960 . S
C260 C127 0.949 . S
C276 C162 2.499 . S
C271 C25 2.550 . S
C287 C34 2.482 . S
C292 C201 2.439 . S
C308 C122 2.004 . S
C303 C7 1.866 . S
C324 C81 0.639 . S
C319 C13 0.684 . S
C340 C211 1.952 . S
C335 C23 1.985 . S
C356 C170 1.748 . S
C351 C31 1.754 . S
C367 C4 1.378 . S
C372 C198 1.435 . S
C388 C130 2.320 . S
C383 C22 2.415 . S
C399 C32 2.357 . S
C404 C91 2.357 . S
C415 C16 0.945 . S
C420 C167 0.969 . S
C436 C87 1.000 . S
C431 C41 1.031 . S
C447 C50 0.928 . S
C452 C118 0.919 . S
C463 C61 2.533 . S
C468 C171 2.469 . S
C479 C67 2.491 . S
C484 C210 2.433 . S
C495 C40 1.946 . S
C500 C131 2.021 . S
C516 C90 0.691 . S
C511 C52 0.726 . S
C532 C202 1.910 . S
C527 C59 1.982 . S
C548 C161 1.748 . S
C543 C70 1.747 . S
C559 C43 1.342 . S
C564 C207 1.412 . S
C580 C121 2.315 . S
C575 C58 2.425 . S
C596 C82 2.339 . S
C591 C68 2.342 . S
C607 C49 0.973 . S
C612 C158 0.973 . S
