# Generated by pormake.
# Topology pyr, (3,6)-cn, num edge types: 1
# Building blocks:
#     Node 0, Type 0, BuildingBlock: QEWDON_clean_linker_0, # of connection points: 3
#     Node 1, Type 0, BuildingBlock: QEWDON_clean_linker_0, # of connection points: 3
#     Node 2, Type 0, BuildingBlock: QEWDON_clean_linker_0, # of connection points: 3
#     Node 3, Type 0, BuildingBlock: QEWDON_clean_linker_0, # of connection points: 3
#     Node 4, Type 0, BuildingBlock: QEWDON_clean_linker_0, # of connection points: 3
#     Node 5, Type 0, BuildingBlock: QEWDON_clean_linker_0, # of connection points: 3
#     Node 6, Type 0, BuildingBlock: QEWDON_clean_linker_0, # of connection points: 3
#     Node 7, Type 0, BuildingBlock: QEWDON_clean_linker_0, # of connection points: 3
#     Node 8, Type 1, BuildingBlock: INOVEN_clean_sbu_0, # of connection points: 6
#     Node 9, Type 1, BuildingBlock: INOVEN_clean_sbu_0, # of connection points: 6
#     Node 10, Type 1, BuildingBlock: INOVEN_clean_sbu_0, # of connection points: 6
#     Node 11, Type 1, BuildingBlock: INOVEN_clean_sbu_0, # of connection points: 6
#     Edge 12, Type (0, 1), BuildingBlock: UVAHIK_clean_linker_0, # of connection points: 2
#     Edge 13, Type (0, 1), BuildingBlock: UVAHIK_clean_linker_0, # of connection points: 2
#     Edge 14, Type (0, 1), BuildingBlock: UVAHIK_clean_linker_0, # of connection points: 2
#     Edge 15, Type (0, 1), BuildingBlock: UVAHIK_clean_linker_0, # of connection points: 2
#     Edge 16, Type (0, 1), BuildingBlock: UVAHIK_clean_linker_0, # of connection points: 2
#     Edge 17, Type (0, 1), BuildingBlock: UVAHIK_clean_linker_0, # of connection points: 2
#     Edge 18, Type (0, 1), BuildingBlock: UVAHIK_clean_linker_0, # of connection points: 2
#     Edge 19, Type (0, 1), BuildingBlock: UVAHIK_clean_linker_0, # of connection points: 2
#     Edge 20, Type (0, 1), BuildingBlock: UVAHIK_clean_linker_0, # of connection points: 2
#     Edge 21, Type (0, 1), BuildingBlock: UVAHIK_clean_linker_0, # of connection points: 2
#     Edge 22, Type (0, 1), BuildingBlock: UVAHIK_clean_linker_0, # of connection points: 2
#     Edge 23, Type (0, 1), BuildingBlock: UVAHIK_clean_linker_0, # of connection points: 2
#     Edge 24, Type (0, 1), BuildingBlock: UVAHIK_clean_linker_0, # of connection points: 2
#     Edge 25, Type (0, 1), BuildingBlock: UVAHIK_clean_linker_0, # of connection points: 2
#     Edge 26, Type (0, 1), BuildingBlock: UVAHIK_clean_linker_0, # of connection points: 2
#     Edge 27, Type (0, 1), BuildingBlock: UVAHIK_clean_linker_0, # of connection points: 2
#     Edge 28, Type (0, 1), BuildingBlock: UVAHIK_clean_linker_0, # of connection points: 2
#     Edge 29, Type (0, 1), BuildingBlock: UVAHIK_clean_linker_0, # of connection points: 2
#     Edge 30, Type (0, 1), BuildingBlock: UVAHIK_clean_linker_0, # of connection points: 2
#     Edge 31, Type (0, 1), BuildingBlock: UVAHIK_clean_linker_0, # of connection points: 2
#     Edge 32, Type (0, 1), BuildingBlock: UVAHIK_clean_linker_0, # of connection points: 2
#     Edge 33, Type (0, 1), BuildingBlock: UVAHIK_clean_linker_0, # of connection points: 2
#     Edge 34, Type (0, 1), BuildingBlock: UVAHIK_clean_linker_0, # of connection points: 2
#     Edge 35, Type (0, 1), BuildingBlock: UVAHIK_clean_linker_0, # of connection points: 2
# Relax obj value: 0.141
# Max RMSD: 0.267
# Mean RMSD: 0.197
data_MOF--net-pyr--node1-INOVEN_clean_sbu_0--node2-QEWDON_clean_linker_0--edge1-UVAHIK_clean_linker_0
_symmetry_space_group_name_H-M    P1
_symmetry_Int_Tables_number       1
_symmetry_cell_setting            triclinic
loop_
_symmetry_equiv_pos_as_xyz
'x, y, z'
_cell_length_a     49.177978
_cell_length_b     52.867506
_cell_length_c     50.363068
_cell_angle_alpha  91.885005
_cell_angle_beta   89.608578
_cell_angle_gamma 107.43559
loop_
_atom_site_label
_atom_site_type_symbol
_atom_site_fract_x
_atom_site_fract_y
_atom_site_fract_z
_atom_type_partial_charge
H0 H 0.37957 0.31128 0.19046 0.0
C1 C 0.36494 0.30487 0.20679 0.0
C2 C 0.36124 0.27984 0.2175 0.0
C3 C 0.34918 0.32147 0.21636 0.0
H4 H 0.33947 0.25305 0.24746 0.0
C5 C 0.34153 0.27171 0.23816 0.0
C6 C 0.3246 0.28743 0.24721 0.0
C7 C 0.32874 0.31243 0.23629 0.0
C8 C 0.35417 0.34821 0.20538 0.0
H9 H 0.31607 0.32489 0.24326 0.0
C10 C 0.33117 0.35759 0.19893 0.0
C11 C 0.336 0.38272 0.18801 0.0
C12 C 0.38214 0.36446 0.20108 0.0
H13 H 0.40027 0.35793 0.20618 0.0
C14 C 0.38704 0.38947 0.19046 0.0
H15 H 0.30951 0.345 0.20162 0.0
C16 C 0.36417 0.39856 0.18388 0.0
H17 H 0.36852 0.4181 0.17579 0.0
H18 H 0.40866 0.40186 0.18732 0.0
H19 H 0.23087 0.87171 0.72243 0.0
C20 C 0.24508 0.86368 0.71066 0.0
C21 C 0.27371 0.86899 0.71833 0.0
C22 C 0.23441 0.84702 0.68843 0.0
H23 H 0.31391 0.86248 0.70864 0.0
C24 C 0.29176 0.85832 0.70288 0.0
C25 C 0.28145 0.842 0.68036 0.0
C26 C 0.2526 0.8362 0.67344 0.0
C27 C 0.2043 0.84097 0.68044 0.0
H28 H 0.24436 0.82372 0.65602 0.0
C29 C 0.19359 0.86142 0.67282 0.0
C30 C 0.16581 0.85555 0.66256 0.0
C31 C 0.1868 0.81457 0.67859 0.0
H32 H 0.1948 0.79853 0.68429 0.0
C33 C 0.15889 0.80871 0.66917 0.0
H34 H 0.2074 0.88173 0.67354 0.0
C35 C 0.14847 0.82904 0.66096 0.0
H36 H 0.12694 0.82405 0.65324 0.0
H37 H 0.14546 0.78832 0.6678 0.0
H38 H 0.69183 0.43565 0.88159 0.0
C39 C 0.68405 0.41545 0.88819 0.0
C40 C 0.70146 0.40529 0.90439 0.0
C41 C 0.65603 0.40006 0.88157 0.0
H42 H 0.70351 0.37139 0.92612 0.0
C43 C 0.69045 0.37921 0.91346 0.0
C44 C 0.66253 0.36338 0.90723 0.0
C45 C 0.64571 0.37403 0.891 0.0
C46 C 0.63568 0.41223 0.86886 0.0
H47 H 0.62387 0.36251 0.88669 0.0
C48 C 0.64122 0.42572 0.84449 0.0
C49 C 0.62094 0.43701 0.8339 0.0
C50 C 0.60992 0.41041 0.88211 0.0
H51 H 0.60518 0.40059 0.90088 0.0
C52 C 0.59012 0.42149 0.87171 0.0
H53 H 0.66094 0.4274 0.83397 0.0
C54 C 0.59554 0.43466 0.8479 0.0
H55 H 0.57966 0.44301 0.84024 0.0
H56 H 0.57044 0.41991 0.88223 0.0
H57 H 0.89412 0.77668 0.36518 0.0
C58 C 0.87752 0.76274 0.37616 0.0
C59 C 0.8721 0.76882 0.40271 0.0
C60 C 0.86094 0.73929 0.36318 0.0
H61 H 0.84456 0.75611 0.43621 0.0
C62 C 0.84977 0.75085 0.41625 0.0
C63 C 0.83266 0.7273 0.40362 0.0
C64 C 0.83869 0.72159 0.37703 0.0
C65 C 0.86323 0.73637 0.33391 0.0
H66 H 0.82541 0.70397 0.36668 0.0
C67 C 0.87716 0.71924 0.32158 0.0
C68 C 0.88047 0.71888 0.29363 0.0
C69 C 0.85207 0.75229 0.31813 0.0
H70 H 0.84132 0.76552 0.32721 0.0
C71 C 0.85479 0.75151 0.2906 0.0
H72 H 0.8861 0.70706 0.33361 0.0
C73 C 0.86901 0.7351 0.27844 0.0
H74 H 0.87105 0.73502 0.257 0.0
H75 H 0.84609 0.76389 0.27864 0.0
H76 H 0.72376 0.78984 0.91484 0.0
C77 C 0.73408 0.80294 0.89923 0.0
C78 C 0.76083 0.80235 0.88983 0.0
C79 C 0.72037 0.8201 0.88837 0.0
H80 H 0.79483 0.81942 0.86261 0.0
C81 C 0.77383 0.81924 0.86946 0.0
C82 C 0.76038 0.83628 0.85813 0.0
C83 C 0.73376 0.83688 0.86795 0.0
C84 C 0.69148 0.8195 0.89757 0.0
H85 H 0.72297 0.84963 0.85904 0.0
C86 C 0.68486 0.84315 0.9038 0.0
C87 C 0.65734 0.84237 0.91247 0.0
C88 C 0.67027 0.79506 0.90003 0.0
H89 H 0.67471 0.77659 0.89511 0.0
C90 C 0.64297 0.79419 0.9085 0.0
H91 H 0.70112 0.86209 0.90197 0.0
C92 C 0.6365 0.81763 0.9147 0.0
H93 H 0.61526 0.81635 0.92168 0.0
H94 H 0.62678 0.77526 0.91034 0.0
H95 H 0.76057 0.19503 0.51857 0.0
C96 C 0.7525 0.19323 0.49841 0.0
C97 C 0.76613 0.18289 0.47808 0.0
C98 C 0.72882 0.20177 0.49304 0.0
H99 H 0.76586 0.17301 0.4362 0.0
C100 C 0.75611 0.18179 0.45189 0.0
C101 C 0.73291 0.19103 0.44591 0.0
C102 C 0.71933 0.20096 0.46669 0.0
C103 C 0.71399 0.21123 0.51522 0.0
H104 H 0.70125 0.20789 0.46242 0.0
C105 C 0.70573 0.23431 0.51299 0.0
C106 C 0.69227 0.2436 0.53426 0.0
C107 C 0.70847 0.19737 0.539 0.0
H108 H 0.7143 0.17934 0.54118 0.0
C109 C 0.69512 0.2065 0.56015 0.0
H110 H 0.71047 0.24542 0.49495 0.0
C111 C 0.68707 0.22948 0.55787 0.0
H112 H 0.67639 0.23599 0.57444 0.0
H113 H 0.69087 0.19565 0.57834 0.0
H114 H 0.42167 0.78629 0.23312 0.0
C115 C 0.3998 0.7755 0.22802 0.0
C116 C 0.38381 0.78742 0.21222 0.0
C117 C 0.38863 0.74902 0.23585 0.0
H118 H 0.34304 0.78171 0.19373 0.0
C119 C 0.35592 0.77236 0.20486 0.0
C120 C 0.34464 0.74537 0.21115 0.0
C121 C 0.36116 0.73405 0.22718 0.0
C122 C 0.40818 0.73577 0.24791 0.0
H123 H 0.3536 0.71317 0.23151 0.0
C124 C 0.40626 0.72797 0.27476 0.0
C125 C 0.42698 0.71726 0.28537 0.0
C126 C 0.43019 0.73192 0.23193 0.0
H127 H 0.43204 0.73764 0.21137 0.0
C128 C 0.45009 0.72084 0.24218 0.0
H129 H 0.38954 0.73105 0.28739 0.0
C130 C 0.44864 0.71373 0.26864 0.0
H131 H 0.46459 0.70538 0.27613 0.0
H132 H 0.46693 0.71799 0.22959 0.0
H133 H 0.2269 0.44649 0.75098 0.0
C134 C 0.2147 0.42878 0.74004 0.0
C135 C 0.22159 0.42441 0.71333 0.0
C136 C 0.19312 0.40958 0.75318 0.0
H137 H 0.21209 0.39653 0.67985 0.0
C138 C 0.20609 0.40069 0.69989 0.0
C139 C 0.18448 0.38128 0.71267 0.0
C140 C 0.17805 0.38609 0.73925 0.0
C141 C 0.18974 0.41128 0.78251 0.0
H142 H 0.16181 0.37113 0.74955 0.0
C143 C 0.18024 0.43122 0.79558 0.0
C144 C 0.17713 0.43146 0.82361 0.0
C145 C 0.19601 0.39187 0.79762 0.0
H146 H 0.20337 0.37645 0.78808 0.0
C147 C 0.19302 0.39209 0.8251 0.0
H148 H 0.17526 0.44625 0.7841 0.0
C149 C 0.18364 0.41162 0.83799 0.0
H150 H 0.18107 0.41094 0.85936 0.0
H151 H 0.19786 0.37696 0.83648 0.0
Gd152 Gd 0.04167 0.08601 0.52773 0.0
Gd153 Gd 0.03081 0.06353 0.58319 0.0
C154 C 0.06489 0.12445 0.57979 0.0
C155 C 0.04632 0.11277 0.48499 0.0
C156 C 0.06982 0.13072 0.47032 0.0
C157 C 0.097 0.12719 0.47012 0.0
C158 C 0.0649 0.15096 0.45558 0.0
C159 C 0.11354 0.16277 0.43905 0.0
C160 C 0.08666 0.167 0.44013 0.0
C161 C 0.11862 0.14298 0.45449 0.0
C162 C 0.08137 0.06447 0.54565 0.0
C163 C 1.00713 0.02519 0.53118 0.0
C164 C 0.02624 0.03686 0.62598 0.0
C165 C 1.00234 0.01946 0.64057 0.0
C166 C 0.97431 0.0194 0.6355 0.0
C167 C 1.00759 1.00382 0.66063 0.0
C168 C 0.95703 0.98927 0.67163 0.0
C169 C 0.98513 0.98877 0.676 0.0
C170 C 0.95185 1.0045 0.65094 0.0
C171 C 0.99075 0.0845 0.56542 0.0
O172 O 0.05505 0.12269 0.55516 0.0
O173 O 0.06299 0.10286 0.59313 0.0
O174 O 0.04616 0.088 0.48516 0.0
O175 O 0.04015 0.1216 0.50812 0.0
O176 O 0.07459 0.0643 0.52086 0.0
O177 O 0.069 0.07814 0.55896 0.0
O178 O 0.0173 0.02684 0.55569 0.0
O179 O 0.009 0.04688 0.51799 0.0
O180 O 0.02686 0.06174 0.62583 0.0
O181 O 0.03195 0.02785 0.60278 0.0
O182 O 0.99682 0.08395 0.59029 0.0
O183 O 1.00338 0.07127 0.55186 0.0
H184 H 0.10136 0.11187 0.48163 0.0
H185 H 0.04407 0.154 0.4556 0.0
H186 H 0.0822 0.18206 0.42832 0.0
H187 H 0.13927 0.13955 0.45425 0.0
H188 H 0.9699 0.03141 0.62003 0.0
H189 H 0.02912 1.00357 0.6647 0.0
H190 H 0.98981 0.97688 0.69142 0.0
H191 H 0.93058 1.00557 0.64717 0.0
Gd192 Gd 0.55793 0.08937 0.07773 0.0
Gd193 Gd 0.49773 0.06179 0.04587 0.0
C194 C 0.50058 0.10358 0.0952 0.0
C195 C 0.60524 0.12134 0.09552 0.0
C196 C 0.6162 0.12925 0.12253 0.0
C197 C 0.60145 0.11584 0.14431 0.0
C198 C 0.64082 0.15068 0.12682 0.0
C199 C 0.63583 0.14527 0.17468 0.0
C200 C 0.6506 0.15865 0.15271 0.0
C201 C 0.61122 0.12368 0.17011 0.0
C202 C 0.52466 0.04463 0.10172 0.0
C203 C 0.5551 0.04733 0.02867 0.0
C204 C 0.44916 0.03007 0.03058 0.0
C205 C 0.43356 0.02217 1.00545 0.0
C206 C 0.44006 0.0385 0.98345 0.0
C207 C 0.41226 0.99774 1.00328 0.0
C208 C 0.40412 1.00575 0.95708 0.0
C209 C 0.39767 0.98956 0.97931 0.0
C210 C 0.42539 0.0304 0.95948 0.0
C211 C 0.53057 0.10648 0.02172 0.0
O212 O 0.52879 0.11075 0.09565 0.0
O213 O 0.48465 0.08341 0.08047 0.0
O214 O 0.60224 0.09658 0.08827 0.0
O215 O 0.58338 0.12922 0.08898 0.0
O216 O 0.54937 0.05896 0.11062 0.0
O217 O 0.5197 0.0556 0.08135 0.0
O218 O 0.52685 0.03997 0.02896 0.0
O219 O 0.57128 0.06783 0.04297 0.0
O220 O 0.45268 0.05453 0.03919 0.0
O221 O 0.472 0.02243 0.03318 0.0
O222 O 0.50598 0.09183 0.01276 0.0
O223 O 0.53578 0.09581 0.04225 0.0
H224 H 0.58228 0.09933 0.14137 0.0
H225 H 0.65231 0.16137 0.11019 0.0
H226 H 0.66943 0.17553 0.15554 0.0
H227 H 0.59959 0.11263 0.18648 0.0
H228 H 0.45653 0.05744 0.98478 0.0
H229 H 0.40713 0.98484 0.02005 0.0
H230 H 0.3818 0.97028 0.97804 0.0
H231 H 0.43069 0.04346 0.94286 0.0
Gd232 Gd 0.52693 0.5601 0.54231 0.0
Gd233 Gd 0.52713 0.60477 0.57948 0.0
C234 C 0.55109 0.56046 0.60315 0.0
C235 C 0.5411 0.52599 0.51165 0.0
C236 C 0.55473 0.50505 0.51389 0.0
C237 C 0.55437 0.4921 0.5378 0.0
C238 C 0.56895 0.49841 0.49182 0.0
C239 C 0.58181 0.46535 0.51722 0.0
C240 C 0.58241 0.47874 0.49345 0.0
C241 C 0.56779 0.47234 0.53945 0.0
C242 C 0.47708 0.55347 0.56828 0.0
C243 C 0.50176 0.60366 0.51923 0.0
C244 C 0.51478 0.64083 0.60881 0.0
C245 C 0.49897 0.66005 0.60554 0.0
C246 C 0.50596 0.68331 0.62146 0.0
C247 C 0.47674 0.65529 0.58693 0.0
C248 C 0.46774 0.69646 0.60111 0.0
C249 C 0.46124 0.67335 0.58474 0.0
C250 C 0.49048 0.7014 0.61928 0.0
C251 C 0.57663 0.61087 0.55303 0.0
O252 O 0.54995 0.55073 0.5784 0.0
O253 O 0.54107 0.58047 0.60917 0.0
O254 O 0.51576 0.52158 0.52215 0.0
O255 O 0.55765 0.55014 0.51633 0.0
O256 O 0.47891 0.54658 0.5435 0.0
O257 O 0.50166 0.5627 0.57833 0.0
O258 O 0.50185 0.6124 0.54422 0.0
O259 O 0.51341 0.58485 0.51281 0.0
O260 O 0.53853 0.64518 0.59549 0.0
O261 O 0.49958 0.61583 0.60824 0.0
O262 O 0.57529 0.61741 0.57796 0.0
O263 O 0.55189 0.60213 0.54336 0.0
H264 H 0.54361 0.49715 0.5551 0.0
H265 H 0.56968 0.50849 0.47332 0.0
H266 H 0.59344 0.47415 0.47613 0.0
H267 H 0.56673 0.46222 0.55796 0.0
H268 H 0.52308 0.68727 0.63589 0.0
H269 H 0.4711 0.63745 0.57438 0.0
H270 H 0.44403 0.66915 0.57039 0.0
H271 H 0.49576 0.71883 0.63241 0.0
Gd272 Gd 0.02431 0.54766 0.06698 0.0
Gd273 Gd 0.02387 0.59968 0.04617 0.0
C274 C 0.07808 0.60054 0.08065 0.0
C275 C 0.03685 0.50502 0.07808 0.0
C276 C 0.06098 0.49723 0.08864 0.0
C277 C 0.07307 0.50636 0.1137 0.0
C278 C 0.07201 0.48005 0.0732 0.0
C279 C 0.10687 0.48114 0.10754 0.0
C280 C 0.09478 0.47217 0.08247 0.0
C281 C 0.09575 0.49825 0.12312 0.0
C282 C 0.99611 0.57408 0.09822 0.0
C283 C 0.96994 0.54696 0.03288 0.0
C284 C 0.01162 0.64207 0.0337 0.0
C285 C 0.98797 0.64927 0.0214 0.0
C286 C 0.99403 0.66764 1.0011 0.0
C287 C 0.95964 0.6386 0.02985 0.0
C288 C 0.94397 0.66528 0.9983 0.0
C289 C 0.93784 0.64667 0.01849 0.0
C290 C 0.97224 0.6755 0.98958 0.0
C291 C 0.05258 0.5735 0.01524 0.0
O292 O 0.06855 0.57428 0.07886 0.0
O293 O 0.06301 0.61528 0.07149 0.0
O294 O 0.02327 0.51668 0.09446 0.0
O295 O 0.04062 0.51541 0.05464 0.0
O296 O 0.98774 0.54853 0.09404 0.0
O297 O 0.01939 0.58421 0.08643 0.0
O298 O 0.97925 0.57318 0.03528 0.0
O299 O 0.98533 0.53226 0.04145 0.0
O300 O 0.02585 0.63041 0.01808 0.0
O301 O 1.00715 0.63196 0.05728 0.0
O302 O 0.0608 0.59898 0.01969 0.0
O303 O 0.02907 0.56323 0.02664 0.0
H304 H 0.06507 0.51973 0.126 0.0
H305 H 0.06294 0.47267 0.05388 0.0
H306 H 0.10266 0.45871 0.07017 0.0
H307 H 0.10483 0.50561 0.14243 0.0
H308 H 0.01573 0.67613 0.99433 0.0
H309 H 0.95435 0.6242 0.04535 0.0
H310 H 0.91619 0.63831 0.02541 0.0
H311 H 0.97764 0.69009 0.97427 0.0
C312 C 0.28684 0.25017 0.26752 0.0
C313 C 0.30242 0.27727 0.26774 0.0
C314 C 0.26709 0.24006 0.28739 0.0
C315 C 0.21894 0.25539 0.33525 0.0
H316 H 0.22769 0.195 0.37208 0.0
C317 C 0.14294 0.20564 0.41996 0.0
C318 C 0.13582 0.17789 0.42084 0.0
C319 C 0.16417 0.21964 0.4027 0.0
C320 C 0.22466 0.21163 0.3618 0.0
H321 H 0.3086 0.31509 0.28881 0.0
H322 H 0.27309 0.29734 0.32313 0.0
H323 H 0.26242 0.21606 0.33872 0.0
H324 H 0.14446 0.14293 0.40384 0.0
H325 H 0.18069 0.16704 0.37327 0.0
H326 H 0.1805 0.25032 0.35744 0.0
C327 C 0.27667 0.28406 0.30758 0.0
C328 C 0.24469 0.22377 0.34283 0.0
C329 C 0.29687 0.29418 0.28787 0.0
C330 C 0.14993 0.16437 0.40392 0.0
C331 C 0.17081 0.17826 0.38648 0.0
C332 C 0.19857 0.24296 0.35399 0.0
C333 C 0.26201 0.25683 0.3077 0.0
C334 C 0.24181 0.24551 0.32915 0.0
C335 C 0.17842 0.2061 0.38577 0.0
C336 C 0.20096 0.22065 0.36721 0.0
H337 H 0.28987 0.23666 0.25195 0.0
H338 H 0.25566 0.21905 0.28684 0.0
H339 H 0.21627 0.27209 0.32482 0.0
H340 H 0.13241 0.21651 0.43291 0.0
H341 H 0.16965 0.24106 0.4029 0.0
C342 C 0.27912 0.90895 0.74874 0.0
C343 C 0.28488 0.88489 0.74286 0.0
C344 C 0.29119 0.92442 0.77123 0.0
C345 C 0.35164 0.93511 0.8177 0.0
H346 H 0.30874 0.96942 0.86357 0.0
C347 C 0.40479 1.00064 0.90737 0.0
C348 C 0.38943 0.99644 0.93129 0.0
C349 C 0.39151 0.99018 0.88331 0.0
C350 C 0.32097 0.95991 0.85097 0.0
H351 H 0.30645 0.85749 0.75661 0.0
H352 H 0.32726 0.88425 0.79574 0.0
H353 H 0.28602 0.94405 0.82399 0.0
H354 H 0.34768 0.97902 0.94847 0.0
H355 H 0.32473 0.96008 0.90662 0.0
H356 H 0.38621 0.95001 0.84497 0.0
C357 C 0.31413 0.8916 0.78269 0.0
C358 C 0.30804 0.9456 0.82817 0.0
C359 C 0.30216 0.87623 0.76029 0.0
C360 C 0.36024 0.98226 0.93046 0.0
C361 C 0.34698 0.97171 0.9064 0.0
C362 C 0.36451 0.94934 0.84042 0.0
C363 C 0.30916 0.91605 0.78823 0.0
C364 C 0.32313 0.93271 0.81152 0.0
C365 C 0.36259 0.97515 0.88261 0.0
C366 C 0.34927 0.96167 0.8575 0.0
H367 H 0.26596 0.91614 0.73557 0.0
H368 H 0.28706 0.94323 0.77491 0.0
H369 H 0.364 0.92577 0.80506 0.0
H370 H 0.42734 0.01129 0.90727 0.0
H371 H 0.40405 0.99352 0.86529 0.0
C372 C 0.62319 0.438 0.78378 0.0
C373 C 0.62489 0.45154 0.80852 0.0
C374 C 0.61895 0.45007 0.76022 0.0
C375 C 0.58752 0.502 0.7392 0.0
H376 H 0.61947 0.49396 0.67003 0.0
C377 C 0.56673 0.5603 0.65066 0.0
C378 C 0.5627 0.54816 0.6251 0.0
C379 C 0.57623 0.54853 0.67181 0.0
C380 C 0.61006 0.49619 0.68912 0.0
H381 H 0.62503 0.48876 0.82775 0.0
H382 H 0.61853 0.50999 0.78701 0.0
H383 H 0.63374 0.47384 0.70865 0.0
H384 H 0.56623 0.51401 0.60192 0.0
H385 H 0.58229 0.49315 0.63896 0.0
H386 H 0.56344 0.52376 0.72001 0.0
C387 C 0.61985 0.48991 0.7856 0.0
C388 C 0.61834 0.48467 0.71135 0.0
C389 C 0.62402 0.47788 0.80898 0.0
C390 C 0.56905 0.52401 0.62126 0.0
C391 C 0.57843 0.51208 0.64258 0.0
C392 C 0.57916 0.51334 0.7171 0.0
C393 C 0.61616 0.4759 0.76095 0.0
C394 C 0.60742 0.48767 0.73681 0.0
C395 C 0.58183 0.524 0.66833 0.0
C396 C 0.59047 0.51094 0.69169 0.0
H397 H 0.62321 0.41751 0.78284 0.0
H398 H 0.61618 0.4386 0.74169 0.0
H399 H 0.57795 0.50419 0.75823 0.0
H400 H 0.56244 0.57902 0.65448 0.0
H401 H 0.57922 0.55883 0.69101 0.0
C402 C 0.91875 0.71466 0.26243 0.0
C403 C 0.89624 0.70245 0.27949 0.0
C404 C 0.93079 0.69948 0.24546 0.0
C405 C 0.91278 0.63458 0.21008 0.0
H406 H 0.99364 0.65498 0.1946 0.0
C407 C 0.96116 0.57415 0.13485 0.0
C408 C 0.98417 0.58814 0.11917 0.0
C409 C 0.95076 0.58711 0.1555 0.0
C410 C 0.97093 0.64916 0.19836 0.0
H411 H 0.86917 0.66471 0.29267 0.0
H412 H 0.89025 0.63792 0.26287 0.0
H413 H 0.9759 0.67867 0.22967 0.0
H414 H 0.014 0.62685 0.11262 0.0
H415 H 0.99543 0.64965 0.14797 0.0
H416 H 0.90763 0.60553 0.17836 0.0
C417 C 0.89855 0.65934 0.26264 0.0
C418 C 0.96077 0.6627 0.21865 0.0
C419 C 0.88669 0.67462 0.27993 0.0
C420 C 0.99625 0.61549 0.12434 0.0
C421 C 0.98575 0.62851 0.14486 0.0
C422 C 0.92291 0.62114 0.18964 0.0
C423 C 0.92044 0.67161 0.24485 0.0
C424 C 0.93153 0.65577 0.22466 0.0
C425 C 0.96297 0.6145 0.16094 0.0
C426 C 0.95214 0.62836 0.18327 0.0
H427 H 0.92641 0.73608 0.26157 0.0
H428 H 0.94739 0.70967 0.23194 0.0
H429 H 0.89008 0.62893 0.21386 0.0
H430 H 0.95144 0.55303 0.13146 0.0
H431 H 0.93348 0.57548 0.16753 0.0
C432 C 0.36447 0.23418 0.20563 0.0
C433 C 0.37731 0.26187 0.2068 0.0
C434 C 0.37931 0.21724 0.19554 0.0
C435 C 0.43152 0.21261 0.14759 0.0
H436 H 0.44191 0.15513 0.18842 0.0
C437 C 0.45966 0.12176 0.10231 0.0
C438 C 0.48615 0.11991 0.11078 0.0
C439 C 0.44717 0.13916 0.11537 0.0
C440 C 0.43915 0.17115 0.17691 0.0
H441 H 0.41623 0.29321 0.19833 0.0
H442 H 0.44147 0.2635 0.17938 0.0
H443 H 0.41877 0.18616 0.20897 0.0
H444 H 0.51982 0.13402 0.14014 0.0
H445 H 0.49723 0.16383 0.16364 0.0
H446 H 0.45085 0.197 0.11522 0.0
C447 C 0.41998 0.25514 0.18671 0.0
C448 C 0.42594 0.18877 0.18857 0.0
C449 C 0.40539 0.27211 0.19736 0.0
C450 C 0.49942 0.1351 0.13316 0.0
C451 C 0.48655 0.15206 0.1466 0.0
C452 C 0.4441 0.19464 0.13576 0.0
C453 C 0.40706 0.2276 0.18582 0.0
C454 C 0.42204 0.20962 0.17397 0.0
C455 C 0.46062 0.15454 0.13747 0.0
C456 C 0.44795 0.17379 0.15032 0.0
H457 H 0.34269 0.22548 0.21202 0.0
H458 H 0.36881 0.19605 0.19469 0.0
H459 H 0.42853 0.22845 0.13595 0.0
H460 H 0.44903 0.11046 0.08501 0.0
H461 H 0.42708 0.14076 0.1081 0.0
C462 C 0.14357 0.8739 0.62639 0.0
C463 C 0.15576 0.87691 0.65185 0.0
C464 C 0.13578 0.89462 0.61541 0.0
C465 C 0.14902 0.96743 0.62228 0.0
H466 H 0.08274 0.95236 0.57632 0.0
C467 C 0.10039 0.04699 0.58443 0.0
C468 C 0.09361 0.04513 0.55726 0.0
C469 C 0.10926 0.02718 0.5961 0.0
C470 C 0.10143 0.95681 0.58896 0.0
H471 H 0.16874 0.90356 0.68613 0.0
H472 H 0.15427 0.93958 0.66736 0.0
H473 H 0.09418 0.91601 0.59747 0.0
H474 H 0.0912 0.02157 0.52082 0.0
H475 H 0.10643 0.98673 0.54133 0.0
H476 H 0.15565 1.0084 0.61414 0.0
C477 C 0.15142 0.92149 0.65552 0.0
C478 C 0.10806 0.93601 0.60104 0.0
C479 C 0.15954 0.90085 0.66637 0.0
C480 C 0.09643 0.0235 0.5418 0.0
C481 C 0.10492 1.00351 0.55354 0.0
C482 C 0.14213 0.98827 0.61046 0.0
C483 C 0.1397 0.91874 0.62978 0.0
C484 C 0.13207 0.94102 0.6177 0.0
C485 C 0.1111 1.00504 0.58084 0.0
C486 C 0.11841 0.9831 0.59353 0.0
H487 H 0.14086 0.85579 0.61462 0.0
H488 H 0.12736 0.89192 0.59536 0.0
H489 H 0.16794 0.97204 0.6346 0.0
H490 H 0.09824 0.06346 0.59676 0.0
H491 H 0.11373 0.0287 0.61722 0.0
C492 C 0.7352 0.44891 0.9219 0.0
C493 C 0.73033 0.42215 0.91377 0.0
C494 C 0.76126 0.46363 0.93358 0.0
C495 C 0.82149 0.45403 0.97123 0.0
H496 H 0.86093 0.52701 0.95504 0.0
C497 C 0.93429 0.50638 0.01275 0.0
C498 C 0.94211 0.53366 0.01941 0.0
C499 C 0.90852 0.49373 0.99965 0.0
C500 C 0.85005 0.50677 0.96015 0.0
H501 H 0.75015 0.39063 0.9102 0.0
H502 H 0.79512 0.41606 0.93079 0.0
H503 H 0.81637 0.50371 0.9321 0.0
H504 H 0.92855 0.56898 0.01748 0.0
H505 H 0.88323 0.54682 0.9953 0.0
H506 H 0.85451 0.45698 0.9996 0.0
C507 C 0.77861 0.42556 0.92856 0.0
C508 C 0.82448 0.49336 0.94687 0.0
C509 C 0.75273 0.41095 0.91672 0.0
C510 C 0.9233 0.54795 0.01264 0.0
C511 C 0.89732 0.53522 0.9997 0.0
C512 C 0.84681 0.46745 0.98467 0.0
C513 C 0.78309 0.45195 0.93762 0.0
C514 C 0.81001 0.4667 0.95203 0.0
C515 C 0.88948 0.50786 0.993 0.0
C516 C 0.86174 0.49397 0.97918 0.0
H517 H 0.71846 0.45821 0.92028 0.0
H518 H 0.7639 0.48387 0.9404 0.0
H519 H 0.81065 0.4337 0.97616 0.0
H520 H 0.94827 0.4947 0.01734 0.0
H521 H 0.90378 0.47284 0.99441 0.0
C522 C 0.80783 0.70635 0.44509 0.0
C523 C 0.80704 0.71027 0.41762 0.0
C524 C 0.78313 0.69282 0.45879 0.0
C525 C 0.70404 0.67367 0.4532 0.0
H526 H 0.70664 0.63141 0.51407 0.0
C527 C 0.60184 0.61645 0.50911 0.0
C528 C 0.60308 0.61867 0.537 0.0
C529 C 0.62667 0.62544 0.49393 0.0
C530 C 0.70558 0.64328 0.4972 0.0
H531 H 0.77934 0.70214 0.38303 0.0
H532 H 0.73668 0.67773 0.40662 0.0
H533 H 0.74986 0.65032 0.48845 0.0
H534 H 0.6314 0.63134 0.57084 0.0
H535 H 0.67475 0.64691 0.54439 0.0
H536 H 0.65973 0.66654 0.46196 0.0
C537 C 0.75631 0.68568 0.41777 0.0
C538 C 0.73041 0.65421 0.4825 0.0
C539 C 0.78099 0.69935 0.40409 0.0
C540 C 0.62976 0.62939 0.54938 0.0
C541 C 0.65462 0.63819 0.53421 0.0
C542 C 0.67919 0.66259 0.46778 0.0
C543 C 0.75687 0.6826 0.44542 0.0
C544 C 0.7301 0.66977 0.46039 0.0
C545 C 0.65337 0.63664 0.50627 0.0
C546 C 0.67966 0.64743 0.4901 0.0
H547 H 0.82752 0.71414 0.45619 0.0
H548 H 0.78453 0.69113 0.48007 0.0
H549 H 0.70292 0.68592 0.43668 0.0
H550 H 0.58159 0.60821 0.49899 0.0
H551 H 0.62494 0.62363 0.47248 0.0
C552 C 0.31191 0.40447 0.1561 0.0
C553 C 0.31176 0.39231 0.18051 0.0
C554 C 0.28926 0.41369 0.14897 0.0
C555 C 0.23077 0.43591 0.17669 0.0
H556 H 0.2006 0.42193 0.10498 0.0
C557 C 0.13081 0.46325 0.14316 0.0
C558 C 0.13089 0.47238 0.11726 0.0
C559 C 0.15268 0.45351 0.15166 0.0
C560 C 0.209 0.42634 0.12498 0.0
H561 H 0.28784 0.38039 0.21667 0.0
H562 H 0.24812 0.39653 0.20416 0.0
H563 H 0.23885 0.40455 0.11826 0.0
H564 H 0.15447 0.47956 0.08037 0.0
H565 H 0.19286 0.46312 0.09528 0.0
H566 H 0.20121 0.45806 0.18332 0.0
C567 C 0.26585 0.39897 0.1906 0.0
C568 C 0.23087 0.41628 0.1326 0.0
C569 C 0.28844 0.38953 0.19765 0.0
C570 C 0.15362 0.47224 0.10029 0.0
C571 C 0.17555 0.46271 0.10883 0.0
C572 C 0.20898 0.44614 0.16902 0.0
C573 C 0.26602 0.41109 0.16615 0.0
C574 C 0.24212 0.42109 0.15847 0.0
C575 C 0.17518 0.45287 0.13448 0.0
C576 C 0.19796 0.44163 0.143 0.0
H577 H 0.32945 0.40667 0.14237 0.0
H578 H 0.29011 0.42316 0.1301 0.0
H579 H 0.23922 0.44015 0.1967 0.0
H580 H 0.1134 0.46291 0.15658 0.0
H581 H 0.15154 0.44584 0.17144 0.0
C582 C 0.6578 0.33163 0.94492 0.0
C583 C 0.6505 0.33644 0.91894 0.0
C584 C 0.64654 0.30664 0.956 0.0
C585 C 0.60882 0.23526 0.93787 0.0
H586 H 0.59253 0.23068 0.01331 0.0
C587 C 0.53925 0.13891 0.9853 0.0
C588 C 0.5475 0.13189 0.01 0.0
C589 C 0.55353 0.16331 0.97431 0.0
C590 C 0.59726 0.23155 0.99226 0.0
H591 H 0.62526 0.31802 0.88443 0.0
H592 H 0.60485 0.27496 0.904 0.0
H593 H 0.613 0.27397 0.99404 0.0
H594 H 0.57757 0.14506 0.04237 0.0
H595 H 0.60248 0.18804 0.02339 0.0
H596 H 0.5923 0.1928 0.9361 0.0
C597 C 0.61988 0.29038 0.9157 0.0
C598 C 0.6091 0.25648 0.98113 0.0
C599 C 0.63133 0.31535 0.90452 0.0
C600 C 0.57069 0.14985 0.02336 0.0
C601 C 0.58484 0.17454 0.0125 0.0
C602 C 0.59673 0.21039 0.94897 0.0
C603 C 0.62731 0.28555 0.94164 0.0
C604 C 0.61499 0.25881 0.95369 0.0
C605 C 0.57637 0.18163 0.98782 0.0
C606 C 0.59064 0.20815 0.97631 0.0
H607 H 0.672 0.34731 0.95702 0.0
H608 H 0.65321 0.30387 0.97586 0.0
H609 H 0.61353 0.23594 0.91684 0.0
H610 H 0.52141 0.12558 0.97447 0.0
H611 H 0.54614 0.1681 0.95546 0.0
C612 C 0.8937 0.8185 0.40167 0.0
C613 C 0.888 0.79488 0.41568 0.0
C614 C 0.90704 0.84311 0.41423 0.0
C615 C 0.95129 0.87493 0.47268 0.0
H616 H 0.92222 0.93372 0.45858 0.0
C617 C 0.98963 0.97527 0.53236 0.0
C618 C 0.99308 0.99868 0.51845 0.0
C619 C 0.97689 0.95033 0.52011 0.0
C620 C 0.93091 0.91766 0.46253 0.0
H621 H 0.89258 0.77877 0.45384 0.0
H622 H 0.91571 0.8217 0.47579 0.0
H623 H 0.90068 0.89071 0.43655 0.0
H624 H 0.9859 0.01401 0.48056 0.0
H625 H 0.96418 0.97074 0.45919 0.0
H626 H 0.98165 0.90192 0.49855 0.0
C627 C 0.90996 0.82117 0.45501 0.0
C628 C 0.9185 0.89292 0.44987 0.0
C629 C 0.89647 0.79655 0.44248 0.0
C630 C 0.98345 0.99647 0.49199 0.0
C631 C 0.9708 0.97156 0.47974 0.0
C632 C 0.9638 0.89973 0.48529 0.0
C633 C 0.91517 0.84483 0.44113 0.0
C634 C 0.92853 0.8712 0.45471 0.0
C635 C 0.96732 0.94809 0.49359 0.0
C636 C 0.95382 0.92149 0.48038 0.0
H637 H 0.88719 0.81807 0.38112 0.0
H638 H 0.911 0.86084 0.4028 0.0
H639 H 0.95981 0.85877 0.47667 0.0
H640 H 0.99675 0.97616 0.55276 0.0
H641 H 0.97427 0.9328 0.53159 0.0
C642 C 0.32873 0.84594 0.65907 0.0
C643 C 0.30073 0.83051 0.66464 0.0
C644 C 0.34762 0.83457 0.64614 0.0
C645 C 0.352 0.77548 0.60675 0.0
H646 H 0.42541 0.78974 0.64152 0.0
C647 C 0.41999 0.70414 0.59981 0.0
C648 C 0.44983 0.71454 0.60053 0.0
C649 C 0.40292 0.72094 0.60215 0.0
C650 C 0.40529 0.78593 0.63115 0.0
H651 H 0.27036 0.79125 0.66034 0.0
H652 H 0.30333 0.77139 0.63779 0.0
H653 H 0.39319 0.81459 0.65553 0.0
H654 H 0.48522 0.75077 0.60262 0.0
H655 H 0.45535 0.78021 0.6066 0.0
H656 H 0.36388 0.74625 0.58286 0.0
C657 C 0.31058 0.79236 0.64313 0.0
C658 C 0.38678 0.80017 0.63922 0.0
C659 C 0.2917 0.80372 0.65609 0.0
C660 C 0.46226 0.74218 0.60245 0.0
C661 C 0.44517 0.75901 0.60472 0.0
C662 C 0.37057 0.76126 0.59861 0.0
C663 C 0.33889 0.80755 0.63846 0.0
C664 C 0.35969 0.79468 0.62752 0.0
C665 C 0.41531 0.74853 0.6052 0.0
C666 C 0.39715 0.76591 0.61116 0.0
H667 H 0.33614 0.86677 0.66496 0.0
H668 H 0.36919 0.84685 0.64246 0.0
H669 H 0.33142 0.77111 0.5971 0.0
H670 H 0.40977 0.68291 0.5987 0.0
H671 H 0.38001 0.71218 0.60285 0.0
C672 C 0.78776 0.84222 0.81557 0.0
C673 C 0.7743 0.85295 0.83579 0.0
C674 C 0.8032 0.8582 0.79578 0.0
C675 C 0.84228 0.92782 0.78392 0.0
H676 H 0.84816 0.9 0.71261 0.0
C677 C 0.9379 0.97409 0.71662 0.0
C678 C 0.93342 0.97473 0.68915 0.0
C679 C 0.91577 0.96074 0.73323 0.0
C680 C 0.84653 0.90828 0.73229 0.0
H681 H 0.7654 0.88866 0.85042 0.0
H682 H 0.79202 0.91662 0.81541 0.0
H683 H 0.8125 0.87419 0.74285 0.0
H684 H 0.90199 0.96171 0.65762 0.0
H685 H 0.86315 0.93896 0.68672 0.0
H686 H 0.87614 0.96201 0.77329 0.0
C687 C 0.79101 0.89587 0.8152 0.0
C688 C 0.82628 0.89333 0.74976 0.0
C689 C 0.77554 0.87983 0.83509 0.0
C690 C 0.90615 0.96181 0.67872 0.0
C691 C 0.88393 0.94853 0.69537 0.0
C692 C 0.86243 0.94284 0.76641 0.0
C693 C 0.80545 0.88532 0.79558 0.0
C694 C 0.82435 0.90264 0.77598 0.0
C695 C 0.88849 0.9478 0.72284 0.0
C696 C 0.86525 0.93299 0.74058 0.0
H697 H 0.78679 0.82147 0.8153 0.0
H698 H 0.81425 0.84941 0.78122 0.0
H699 H 0.84156 0.93555 0.804 0.0
H700 H 0.9585 0.98416 0.72542 0.0
H701 H 0.9202 0.96026 0.75421 0.0
C702 C 0.74202 0.19531 0.39685 0.0
C703 C 0.72257 0.18964 0.41804 0.0
C704 C 0.73237 0.19277 0.37059 0.0
C705 C 0.66898 0.15906 0.32962 0.0
H706 H 0.7091 0.20694 0.27575 0.0
C707 C 0.62621 0.15314 0.2228 0.0
C708 C 0.64591 0.1536 0.2023 0.0
C709 C 0.63542 0.15945 0.24901 0.0
C710 C 0.6978 0.19334 0.29057 0.0
H711 H 0.67764 0.17724 0.42812 0.0
H712 H 0.66084 0.17369 0.38241 0.0
H713 H 0.72509 0.21481 0.32192 0.0
H714 H 0.69086 0.16159 0.19333 0.0
H715 H 0.70694 0.17294 0.23916 0.0
H716 H 0.64165 0.13768 0.29828 0.0
C717 C 0.68359 0.1796 0.38607 0.0
C718 C 0.70697 0.19779 0.31701 0.0
C719 C 0.69323 0.18199 0.41233 0.0
C720 C 0.67514 0.1613 0.20857 0.0
C721 C 0.68436 0.16778 0.23482 0.0
C722 C 0.65971 0.15474 0.30325 0.0
C723 C 0.70302 0.18465 0.36485 0.0
C724 C 0.69275 0.18061 0.33685 0.0
C725 C 0.66455 0.16655 0.25536 0.0
C726 C 0.67409 0.17174 0.28343 0.0
H727 H 0.76477 0.20164 0.40054 0.0
H728 H 0.74797 0.19657 0.35478 0.0
H729 H 0.65785 0.14512 0.34422 0.0
H730 H 0.6036 0.14788 0.2186 0.0
H731 H 0.6197 0.15878 0.26436 0.0
C732 C 0.45244 0.72127 0.32893 0.0
C733 C 0.42756 0.71005 0.31378 0.0
C734 C 0.45621 0.7111 0.35352 0.0
C735 C 0.45653 0.69187 0.40994 0.0
H736 H 0.43483 0.61522 0.41237 0.0
C737 C 0.47945 0.63778 0.50273 0.0
C738 C 0.4893 0.61567 0.49766 0.0
C739 C 0.46885 0.64946 0.48201 0.0
C740 C 0.44115 0.63667 0.41208 0.0
H741 H 0.38666 0.6798 0.31309 0.0
H742 H 0.39299 0.66204 0.35635 0.0
H743 H 0.4216 0.636 0.37402 0.0
H744 H 0.49523 0.58845 0.46655 0.0
H745 H 0.47705 0.60869 0.43079 0.0
H746 H 0.4769 0.69253 0.4476 0.0
C747 C 0.40976 0.6787 0.34907 0.0
C748 C 0.43319 0.64864 0.39013 0.0
C749 C 0.4059 0.68909 0.32444 0.0
C750 C 0.48784 0.60539 0.47137 0.0
C751 C 0.47717 0.61695 0.45076 0.0
C752 C 0.46439 0.6799 0.43194 0.0
C753 C 0.43529 0.68918 0.36372 0.0
C754 C 0.44116 0.67645 0.38847 0.0
C755 C 0.46763 0.63926 0.45565 0.0
C756 C 0.45727 0.65209 0.43316 0.0
H757 H 0.46965 0.73726 0.32113 0.0
H758 H 0.47627 0.71962 0.36386 0.0
H759 H 0.46283 0.71331 0.40963 0.0
H760 H 0.48019 0.6463 0.52266 0.0
H761 H 0.46148 0.66643 0.48671 0.0
C762 C 0.14132 0.45673 0.83149 0.0
C763 C 0.16667 0.45154 0.83864 0.0
C764 C 0.12916 0.47202 0.8485 0.0
C765 C 0.14502 0.5183 0.90846 0.0
H766 H 0.06314 0.49425 0.91818 0.0
C767 C 0.08898 0.57464 0.97989 0.0
C768 C 0.06539 0.55996 0.99448 0.0
C769 C 0.10084 0.56244 0.95972 0.0
C770 C 0.08607 0.50114 0.91593 0.0
H771 H 0.19993 0.45966 0.86852 0.0
H772 H 0.17889 0.48577 0.89803 0.0
H773 H 0.08506 0.47233 0.88467 0.0
H774 H 0.03577 0.52081 0.99933 0.0
H775 H 0.05697 0.49921 0.9647 0.0
H776 H 0.14631 0.5463 0.94038 0.0
C777 C 0.16824 0.47833 0.87936 0.0
C778 C 0.09865 0.48879 0.89633 0.0
C779 C 0.18029 0.46313 0.86245 0.0
C780 C 0.054 0.53267 0.9885 0.0
C781 C 0.06602 0.52036 0.96841 0.0
C782 C 0.1325 0.53051 0.92811 0.0
C783 C 0.14218 0.48261 0.87298 0.0
C784 C 0.12837 0.49703 0.89245 0.0
C785 C 0.08965 0.53507 0.95367 0.0
C786 C 0.10283 0.52207 0.93231 0.0
H787 H 0.1302 0.44796 0.81338 0.0
H788 H 0.10932 0.47519 0.84265 0.0
H789 H 0.1679 0.52555 0.90595 0.0
H790 H 0.09818 0.59574 0.98385 0.0
H791 H 0.1186 0.57466 0.94863 0.0
C792 C 0.62399 0.87008 0.91212 0.0
C793 C 0.65023 0.86709 0.91983 0.0
C794 C 0.61587 0.89199 0.92113 0.0
C795 C 0.64175 0.9593 0.95264 0.0
H796 H 0.56381 0.94226 0.97767 0.0
C797 C 0.59736 0.03173 0.01683 0.0
C798 C 0.5689 0.03086 0.01233 0.0
C799 C 0.60903 0.01379 1.00339 0.0
C800 C 0.58551 0.94751 0.97041 0.0
H801 H 0.68901 0.88529 0.94229 0.0
H802 H 0.67473 0.92364 0.95819 0.0
H803 H 0.58102 0.90747 0.95794 0.0
H804 H 0.53102 0.01165 0.98888 0.0
H805 H 0.55145 0.98094 0.96526 0.0
H806 H 0.64615 0.99945 0.96546 0.0
C807 C 0.66055 0.90909 0.94496 0.0
C808 C 0.59539 0.92751 0.95909 0.0
C809 C 0.66873 0.88713 0.93586 0.0
C810 C 0.55287 0.01262 0.99316 0.0
C811 C 0.56455 0.99489 0.97968 0.0
C812 C 0.6318 0.97942 0.96399 0.0
C813 C 0.63374 0.91144 0.93817 0.0
C814 C 0.62357 0.93313 0.94995 0.0
C815 C 0.59249 0.99474 0.98513 0.0
C816 C 0.60349 0.97374 0.97289 0.0
H817 H 0.60952 0.85525 0.89934 0.0
H818 H 0.59535 0.8935 0.91504 0.0
H819 H 0.66354 0.96429 0.94566 0.0
H820 H 0.61027 0.04552 0.03148 0.0
H821 H 0.63059 0.01415 1.00814 0.0
C822 C 0.79098 0.16026 0.5085 0.0
C823 C 0.79057 0.17304 0.48449 0.0
C824 C 0.81447 0.15229 0.51539 0.0
C825 C 0.87091 0.12913 0.49097 0.0
H826 H 0.91031 0.15836 0.55666 0.0
C827 C 0.96748 0.09888 0.52739 0.0
C828 C 0.96968 0.09622 0.55485 0.0
C829 C 0.9475 0.11012 0.51736 0.0
C830 C 0.89936 0.14971 0.53845 0.0
H831 H 0.81449 0.18677 0.44859 0.0
H832 H 0.8551 0.17154 0.46031 0.0
H833 H 0.87119 0.17371 0.54149 0.0
H834 H 0.95283 0.10282 0.5934 0.0
H835 H 0.91705 0.12125 0.57599 0.0
H836 H 0.8978 0.10403 0.48848 0.0
C837 C 0.83721 0.16824 0.4738 0.0
C838 C 0.87716 0.15871 0.5297 0.0
C839 C 0.8139 0.17676 0.4671 0.0
C840 C 0.9516 0.10482 0.57214 0.0
C841 C 0.93129 0.11561 0.56211 0.0
C842 C 0.89278 0.11971 0.49996 0.0
C843 C 0.83777 0.15634 0.49818 0.0
C844 C 0.86263 0.14828 0.50608 0.0
C845 C 0.92902 0.11849 0.53459 0.0
C846 C 0.90703 0.12965 0.52402 0.0
H847 H 0.77312 0.15635 0.52205 0.0
H848 H 0.81439 0.14277 0.53413 0.0
H849 H 0.85974 0.12075 0.47275 0.0
H850 H 0.98133 0.09245 0.51368 0.0
H851 H 0.94671 0.11238 0.49611 0.0
C852 C 0.3082 0.73469 0.17389 0.0
C853 C 0.31667 0.72888 0.19914 0.0
C854 C 0.28211 0.71996 0.1626 0.0
C855 C 0.22853 0.65557 0.15934 0.0
H856 H 0.17759 0.69389 0.13585 0.0
C857 C 0.11722 0.60062 0.11285 0.0
C858 C 0.10578 0.61386 0.09418 0.0
C859 C 0.14252 0.61383 0.12663 0.0
C860 C 0.19164 0.68274 0.14172 0.0
H861 H 0.30377 0.70195 0.23172 0.0
H862 H 0.2587 0.67549 0.21124 0.0
H863 H 0.22224 0.71787 0.1577 0.0
H864 H 0.11265 0.65113 0.07463 0.0
H865 H 0.15717 0.67363 0.09729 0.0
H866 H 0.19881 0.62058 0.14232 0.0
C867 C 0.2724 0.69195 0.20059 0.0
C868 C 0.2172 0.69659 0.15457 0.0
C869 C 0.29834 0.70712 0.21226 0.0
C870 C 0.12065 0.64039 0.08911 0.0
C871 C 0.14619 0.65342 0.10242 0.0
C872 C 0.20318 0.64171 0.14595 0.0
C873 C 0.26387 0.69845 0.17577 0.0
C874 C 0.23601 0.68322 0.16343 0.0
C875 C 0.15742 0.64056 0.12176 0.0
C876 C 0.18433 0.65509 0.13672 0.0
H877 H 0.32186 0.75048 0.16245 0.0
H878 H 0.27637 0.72518 0.14325 0.0
H879 H 0.24273 0.64476 0.16576 0.0
H880 H 0.10621 0.58021 0.11738 0.0
H881 H 0.14995 0.60314 0.14151 0.0
C882 C 0.2453 0.44794 0.67268 0.0
C883 C 0.24654 0.44307 0.6999 0.0
C884 C 0.26961 0.46254 0.65914 0.0
C885 C 0.34263 0.50924 0.66772 0.0
H886 H 0.35591 0.47889 0.59955 0.0
C887 C 0.45089 0.54548 0.6118 0.0
C888 C 0.45036 0.54463 0.58388 0.0
C889 C 0.42576 0.53505 0.62632 0.0
C890 C 0.35244 0.48801 0.61832 0.0
H891 H 0.27446 0.45078 0.7343 0.0
H892 H 0.31676 0.47658 0.71074 0.0
H893 H 0.31272 0.458 0.62405 0.0
H894 H 0.42292 0.53329 0.54933 0.0
H895 H 0.37913 0.51587 0.57444 0.0
H896 H 0.38238 0.53935 0.66191 0.0
C897 C 0.29687 0.46909 0.69989 0.0
C898 C 0.32757 0.47592 0.63244 0.0
C899 C 0.27253 0.45434 0.71345 0.0
C900 C 0.42407 0.534 0.57083 0.0
C901 C 0.39895 0.5238 0.58529 0.0
C902 C 0.36749 0.52149 0.65347 0.0
C903 C 0.29588 0.47286 0.67242 0.0
C904 C 0.32229 0.48632 0.65734 0.0
C905 C 0.39944 0.5237 0.61326 0.0
C906 C 0.37278 0.51104 0.62853 0.0
H907 H 0.22557 0.44003 0.66166 0.0
H908 H 0.26788 0.46552 0.63812 0.0
H909 H 0.33916 0.51793 0.68673 0.0
H910 H 0.47085 0.55352 0.62244 0.0
H911 H 0.42717 0.53518 0.64777 0.0
C912 C 0.77609 0.78079 0.92852 0.0
C913 C 0.77539 0.78414 0.90098 0.0
C914 C 0.79166 0.76513 0.93893 0.0
C915 C 0.85297 0.74172 0.92275 0.0
H916 H 0.82594 0.69306 0.97982 0.0
C917 C 0.9196 0.67725 0.95925 0.0
C918 C 0.92124 0.67476 0.98682 0.0
C919 C 0.89964 0.68811 0.94854 0.0
C920 C 0.8339 0.70676 0.96405 0.0
H921 H 0.78907 0.77242 0.8627 0.0
H922 H 0.81638 0.74541 0.88085 0.0
H923 H 0.79483 0.71679 0.96183 0.0
H924 H 0.90294 0.68118 0.02477 0.0
H925 H 0.86838 0.70062 1.00614 0.0
H926 H 0.89217 0.73237 0.92521 0.0
C927 C 0.80533 0.75523 0.89443 0.0
C928 C 0.81606 0.7203 0.95374 0.0
C929 C 0.78972 0.77075 0.88405 0.0
C930 C 0.90197 0.68265 1.00341 0.0
C931 C 0.88214 0.69374 0.99271 0.0
C932 C 0.87082 0.72836 0.93313 0.0
C933 C 0.80688 0.75261 0.92199 0.0
C934 C 0.82542 0.73788 0.93294 0.0
C935 C 0.88103 0.69699 0.96516 0.0
C936 C 0.86154 0.71067 0.95388 0.0
H937 H 0.76544 0.79099 0.9421 0.0
H938 H 0.79263 0.76362 0.96028 0.0
H939 H 0.86099 0.75553 0.90706 0.0
H940 H 0.9339 0.67094 0.94596 0.0
H941 H 0.89896 0.68974 0.92719 0.0
C942 C 0.39004 0.82075 0.17585 0.0
C943 C 0.3968 0.81474 0.20162 0.0
C944 C 0.40257 0.84588 0.16549 0.0
C945 C 0.46601 0.90483 0.17235 0.0
H946 H 0.42131 0.93965 0.13222 0.0
C947 C 0.51559 0.01199 0.1379 0.0
C948 C 0.50747 0.01924 0.11327 0.0
C949 C 0.50111 0.9876 0.14876 0.0
C950 C 0.43428 0.93014 0.14303 0.0
H951 H 0.42226 0.83126 0.2366 0.0
H952 H 0.44448 0.87484 0.21831 0.0
H953 H 0.39826 0.8965 0.15102 0.0
H954 H 0.47732 1.00656 0.08092 0.0
H955 H 0.45231 0.96349 0.09939 0.0
H956 H 0.50213 0.93792 0.16396 0.0
C957 C 0.42941 0.85992 0.20611 0.0
C958 C 0.42098 0.90534 0.15393 0.0
C959 C 0.41665 0.83482 0.21661 0.0
C960 C 0.48407 1.00159 0.09991 0.0
C961 C 0.46966 0.9769 0.11067 0.0
C962 C 0.47935 0.92946 0.16125 0.0
C963 C 0.42257 0.86581 0.18037 0.0
C964 C 0.43663 0.89237 0.16886 0.0
C965 C 0.47817 0.96937 0.13518 0.0
C966 C 0.46372 0.94267 0.14653 0.0
H967 H 0.37549 0.80582 0.16326 0.0
H968 H 0.39709 0.84947 0.14546 0.0
H969 H 0.47889 0.89529 0.18326 0.0
H970 H 0.53339 0.02522 0.14886 0.0
H971 H 0.50799 0.98312 0.16795 0.0
C972 C 0.16253 0.35367 0.67194 0.0
C973 C 0.17038 0.35515 0.6989 0.0
C974 C 0.15055 0.32907 0.6588 0.0
C975 C 0.11504 0.25751 0.67109 0.0
H976 H 0.13762 0.24724 0.5986 0.0
C977 C 0.08691 0.15342 0.61941 0.0
C978 C 0.07804 0.15105 0.5927 0.0
C979 C 0.09805 0.17842 0.63198 0.0
C980 C 0.13083 0.24982 0.61874 0.0
H981 H 0.17198 0.3316 0.73299 0.0
H982 H 0.15123 0.28889 0.71019 0.0
H983 H 0.15657 0.29046 0.62116 0.0
H984 H 0.07434 0.17336 0.55823 0.0
H985 H 0.09373 0.21689 0.58014 0.0
H986 H 0.08947 0.21681 0.66872 0.0
C987 C 0.15378 0.30675 0.69926 0.0
C988 C 0.14168 0.27468 0.63171 0.0
C989 C 0.1657 0.33133 0.71239 0.0
C990 C 0.081 0.17437 0.57879 0.0
C991 C 0.09225 0.19939 0.59134 0.0
C992 C 0.10426 0.23265 0.65815 0.0
C993 C 0.14614 0.30522 0.67223 0.0
C994 C 0.13403 0.27887 0.65812 0.0
C995 C 0.10074 0.20177 0.61818 0.0
C996 C 0.11208 0.22841 0.63183 0.0
H997 H 0.16555 0.37159 0.66099 0.0
H998 H 0.14454 0.32876 0.63812 0.0
H999 H 0.1082 0.26002 0.69122 0.0
H1000 H 0.085 0.13594 0.63079 0.0
H1001 H 0.10474 0.17944 0.65253 0.0
C1002 C 0.67016 0.272 0.50833 0.0
C1003 C 0.68336 0.26782 0.53173 0.0
C1004 C 0.66085 0.29433 0.50624 0.0
C1005 C 0.66944 0.36129 0.53508 0.0
H1006 H 0.59405 0.35038 0.50546 0.0
C1007 C 0.61065 0.44115 0.54112 0.0
C1008 C 0.59521 0.44376 0.51852 0.0
C1009 C 0.62272 0.42042 0.5424 0.0
C1010 C 0.61529 0.35384 0.51346 0.0
H1011 H 0.69798 0.28415 0.57098 0.0
H1012 H 0.68128 0.323 0.56748 0.0
H1013 H 0.61308 0.31302 0.50799 0.0
H1014 H 0.58034 0.42666 0.47956 0.0
H1015 H 0.60192 0.39095 0.48154 0.0
H1016 H 0.67154 0.40218 0.5406 0.0
C1017 C 0.67829 0.30907 0.55071 0.0
C1018 C 0.62618 0.33243 0.51491 0.0
C1019 C 0.68755 0.28669 0.55282 0.0
C1020 C 0.59235 0.42537 0.49715 0.0
C1021 C 0.60443 0.40472 0.49841 0.0
C1022 C 0.65854 0.38277 0.53359 0.0
C1023 C 0.66458 0.31296 0.52749 0.0
C1024 C 0.65336 0.33592 0.52571 0.0
C1025 C 0.61955 0.40188 0.52111 0.0
C1026 C 0.63134 0.37925 0.52273 0.0
H1027 H 0.66647 0.25773 0.49181 0.0
H1028 H 0.65066 0.29697 0.48798 0.0
H1029 H 0.69058 0.36461 0.54326 0.0
H1030 H 0.61349 0.45518 0.55779 0.0
H1031 H 0.63408 0.41864 0.56025 0.0
loop_
_geom_bond_atom_site_label_1
_geom_bond_atom_site_label_2
_geom_bond_distance
_geom_bond_site_symmetry_2
_ccdc_geom_bond_type
H0 C1 0.949 . S
C1 H0 0.949 . S
C1 C2 1.395 . S
C1 C3 1.391 . S
C2 C1 1.395 . S
C2 C5 1.390 . S
C3 C1 1.391 . S
C3 C7 1.387 . S
C3 C8 1.491 . S
H4 C5 0.950 . S
C5 C2 1.390 . S
C5 H4 0.950 . S
C5 C6 1.378 . S
C6 C5 1.378 . S
C6 C7 1.409 . S
C7 C3 1.387 . S
C7 C6 1.409 . S
C7 H9 0.951 . S
C8 C3 1.491 . S
C8 C10 1.382 . S
C8 C12 1.404 . S
H9 C7 0.951 . S
C10 C8 1.382 . S
C10 C11 1.390 . S
C10 H15 0.949 . S
C11 C10 1.390 . S
C11 C16 1.399 . S
C12 C8 1.404 . S
C12 H13 0.950 . S
C12 C14 1.375 . S
H13 C12 0.950 . S
C14 C12 1.375 . S
C14 C16 1.382 . S
C14 H18 0.950 . S
H15 C10 0.949 . S
C16 C11 1.399 . S
C16 C14 1.382 . S
C16 H17 0.952 . S
H17 C16 0.952 . S
H18 C14 0.950 . S
H19 C20 0.949 . S
C20 H19 0.949 . S
C20 C21 1.395 . S
C20 C22 1.391 . S
C21 C20 1.395 . S
C21 C24 1.390 . S
C22 C20 1.391 . S
C22 C26 1.387 . S
C22 C27 1.491 . S
H23 C24 0.950 . S
C24 C21 1.390 . S
C24 H23 0.950 . S
C24 C25 1.378 . S
C25 C24 1.378 . S
C25 C26 1.409 . S
C26 C22 1.387 . S
C26 C25 1.409 . S
C26 H28 0.951 . S
C27 C22 1.491 . S
C27 C29 1.382 . S
C27 C31 1.404 . S
H28 C26 0.951 . S
C29 C27 1.382 . S
C29 C30 1.390 . S
C29 H34 0.949 . S
C30 C29 1.390 . S
C30 C35 1.399 . S
C31 C27 1.404 . S
C31 H32 0.950 . S
C31 C33 1.375 . S
H32 C31 0.950 . S
C33 C31 1.375 . S
C33 C35 1.382 . S
C33 H37 0.950 . S
H34 C29 0.949 . S
C35 C30 1.399 . S
C35 C33 1.382 . S
C35 H36 0.952 . S
H36 C35 0.952 . S
H37 C33 0.950 . S
H38 C39 0.949 . S
C39 H38 0.949 . S
C39 C40 1.395 . S
C39 C41 1.391 . S
C40 C39 1.395 . S
C40 C43 1.390 . S
C41 C39 1.391 . S
C41 C45 1.387 . S
C41 C46 1.491 . S
H42 C43 0.950 . S
C43 C40 1.390 . S
C43 H42 0.950 . S
C43 C44 1.378 . S
C44 C43 1.378 . S
C44 C45 1.409 . S
C45 C41 1.387 . S
C45 C44 1.409 . S
C45 H47 0.951 . S
C46 C41 1.491 . S
C46 C48 1.382 . S
C46 C50 1.404 . S
H47 C45 0.951 . S
C48 C46 1.382 . S
C48 C49 1.390 . S
C48 H53 0.949 . S
C49 C48 1.390 . S
C49 C54 1.399 . S
C50 C46 1.404 . S
C50 H51 0.950 . S
C50 C52 1.375 . S
H51 C50 0.950 . S
C52 C50 1.375 . S
C52 C54 1.382 . S
C52 H56 0.950 . S
H53 C48 0.949 . S
C54 C49 1.399 . S
C54 C52 1.382 . S
C54 H55 0.952 . S
H55 C54 0.952 . S
H56 C52 0.950 . S
H57 C58 0.949 . S
C58 H57 0.949 . S
C58 C59 1.395 . S
C58 C60 1.391 . S
C59 C58 1.395 . S
C59 C62 1.390 . S
C60 C58 1.391 . S
C60 C64 1.387 . S
C60 C65 1.491 . S
H61 C62 0.950 . S
C62 C59 1.390 . S
C62 H61 0.950 . S
C62 C63 1.378 . S
C63 C62 1.378 . S
C63 C64 1.409 . S
C64 C60 1.387 . S
C64 C63 1.409 . S
C64 H66 0.951 . S
C65 C60 1.491 . S
C65 C67 1.382 . S
C65 C69 1.404 . S
H66 C64 0.951 . S
C67 C65 1.382 . S
C67 C68 1.390 . S
C67 H72 0.949 . S
C68 C67 1.390 . S
C68 C73 1.399 . S
C69 C65 1.404 . S
C69 H70 0.950 . S
C69 C71 1.375 . S
H70 C69 0.950 . S
C71 C69 1.375 . S
C71 C73 1.382 . S
C71 H75 0.950 . S
H72 C67 0.949 . S
C73 C68 1.399 . S
C73 C71 1.382 . S
C73 H74 0.952 . S
H74 C73 0.952 . S
H75 C71 0.950 . S
H76 C77 0.949 . S
C77 H76 0.949 . S
C77 C78 1.395 . S
C77 C79 1.391 . S
C78 C77 1.395 . S
C78 C81 1.390 . S
C79 C77 1.391 . S
C79 C83 1.387 . S
C79 C84 1.491 . S
H80 C81 0.950 . S
C81 C78 1.390 . S
C81 H80 0.950 . S
C81 C82 1.378 . S
C82 C81 1.378 . S
C82 C83 1.409 . S
C83 C79 1.387 . S
C83 C82 1.409 . S
C83 H85 0.951 . S
C84 C79 1.491 . S
C84 C86 1.382 . S
C84 C88 1.404 . S
H85 C83 0.951 . S
C86 C84 1.382 . S
C86 C87 1.390 . S
C86 H91 0.949 . S
C87 C86 1.390 . S
C87 C92 1.399 . S
C88 C84 1.404 . S
C88 H89 0.950 . S
C88 C90 1.375 . S
H89 C88 0.950 . S
C90 C88 1.375 . S
C90 C92 1.382 . S
C90 H94 0.950 . S
H91 C86 0.949 . S
C92 C87 1.399 . S
C92 C90 1.382 . S
C92 H93 0.952 . S
H93 C92 0.952 . S
H94 C90 0.950 . S
H95 C96 0.949 . S
C96 H95 0.949 . S
C96 C97 1.395 . S
C96 C98 1.391 . S
C97 C96 1.395 . S
C97 C100 1.390 . S
C98 C96 1.391 . S
C98 C102 1.387 . S
C98 C103 1.491 . S
H99 C100 0.950 . S
C100 C97 1.390 . S
C100 H99 0.950 . S
C100 C101 1.378 . S
C101 C100 1.378 . S
C101 C102 1.409 . S
C102 C98 1.387 . S
C102 C101 1.409 . S
C102 H104 0.951 . S
C103 C98 1.491 . S
C103 C105 1.382 . S
C103 C107 1.404 . S
H104 C102 0.951 . S
C105 C103 1.382 . S
C105 C106 1.390 . S
C105 H110 0.949 . S
C106 C105 1.390 . S
C106 C111 1.399 . S
C107 C103 1.404 . S
C107 H108 0.950 . S
C107 C109 1.375 . S
H108 C107 0.950 . S
C109 C107 1.375 . S
C109 C111 1.382 . S
C109 H113 0.950 . S
H110 C105 0.949 . S
C111 C106 1.399 . S
C111 C109 1.382 . S
C111 H112 0.952 . S
H112 C111 0.952 . S
H113 C109 0.950 . S
H114 C115 0.949 . S
C115 H114 0.949 . S
C115 C116 1.395 . S
C115 C117 1.391 . S
C116 C115 1.395 . S
C116 C119 1.390 . S
C117 C115 1.391 . S
C117 C121 1.387 . S
C117 C122 1.491 . S
H118 C119 0.950 . S
C119 C116 1.390 . S
C119 H118 0.950 . S
C119 C120 1.378 . S
C120 C119 1.378 . S
C120 C121 1.409 . S
C121 C117 1.387 . S
C121 C120 1.409 . S
C121 H123 0.951 . S
C122 C117 1.491 . S
C122 C124 1.382 . S
C122 C126 1.404 . S
H123 C121 0.951 . S
C124 C122 1.382 . S
C124 C125 1.390 . S
C124 H129 0.949 . S
C125 C124 1.390 . S
C125 C130 1.399 . S
C126 C122 1.404 . S
C126 H127 0.950 . S
C126 C128 1.375 . S
H127 C126 0.950 . S
C128 C126 1.375 . S
C128 C130 1.382 . S
C128 H132 0.950 . S
H129 C124 0.949 . S
C130 C125 1.399 . S
C130 C128 1.382 . S
C130 H131 0.952 . S
H131 C130 0.952 . S
H132 C128 0.950 . S
H133 C134 0.949 . S
C134 H133 0.949 . S
C134 C135 1.395 . S
C134 C136 1.391 . S
C135 C134 1.395 . S
C135 C138 1.390 . S
C136 C134 1.391 . S
C136 C140 1.387 . S
C136 C141 1.491 . S
H137 C138 0.950 . S
C138 C135 1.390 . S
C138 H137 0.950 . S
C138 C139 1.378 . S
C139 C138 1.378 . S
C139 C140 1.409 . S
C140 C136 1.387 . S
C140 C139 1.409 . S
C140 H142 0.951 . S
C141 C136 1.491 . S
C141 C143 1.382 . S
C141 C145 1.404 . S
H142 C140 0.951 . S
C143 C141 1.382 . S
C143 C144 1.390 . S
C143 H148 0.949 . S
C144 C143 1.390 . S
C144 C149 1.399 . S
C145 C141 1.404 . S
C145 H146 0.950 . S
C145 C147 1.375 . S
H146 C145 0.950 . S
C147 C145 1.375 . S
C147 C149 1.382 . S
C147 H151 0.950 . S
H148 C143 0.949 . S
C149 C144 1.399 . S
C149 C147 1.382 . S
C149 H150 0.952 . S
H150 C149 0.952 . S
H151 C147 0.950 . S
Gd152 C155 2.818 . S
Gd152 O172 2.377 . S
Gd152 O174 2.448 . S
Gd152 O175 2.506 . S
Gd152 O176 2.435 . S
Gd152 O177 2.717 . S
Gd152 O179 2.395 . S
Gd152 O183 2.299 1_455 S
Gd153 C164 2.818 1_545 S
Gd153 O173 2.395 1_655 S
Gd153 O177 2.327 1_655 S
Gd153 O178 2.381 . S
Gd153 O180 2.448 . S
Gd153 O181 2.506 1_545 S
Gd153 O182 2.435 . S
Gd153 O183 2.717 . S
C154 O172 1.240 . S
C154 O173 1.240 . S
C155 Gd152 2.818 . S
C155 C156 1.510 . S
C155 O174 1.249 . S
C155 O175 1.252 . S
C156 C155 1.510 . S
C156 C157 1.404 . S
C156 C158 1.352 . S
C157 C156 1.404 . S
C157 C161 1.389 . S
C157 H184 0.930 . S
C158 C156 1.352 . S
C158 C160 1.374 . S
C158 H185 0.931 . S
C159 C160 1.359 . S
C159 C161 1.364 . S
C160 C158 1.374 . S
C160 C159 1.359 . S
C160 H186 0.931 . S
C161 C157 1.389 . S
C161 C159 1.364 . S
C161 H187 0.931 . S
C162 O176 1.256 . S
C162 O177 1.257 . S
C163 O178 1.237 1_565 S
C163 O179 1.240 1_665 S
C164 Gd153 2.818 1_565 S
C164 C165 1.510 . S
C164 O180 1.249 1_565 S
C164 O181 1.252 . S
C165 C164 1.510 . S
C165 C166 1.404 . S
C165 C167 1.352 . S
C166 C165 1.404 . S
C166 C170 1.389 . S
C166 H188 0.930 . S
C167 C165 1.352 . S
C167 C169 1.374 . S
C167 H189 0.931 . S
C168 C169 1.359 . S
C168 C170 1.364 . S
C169 C167 1.374 . S
C169 C168 1.359 . S
C169 H190 0.931 . S
C170 C166 1.389 . S
C170 C168 1.364 . S
C170 H191 0.931 . S
C171 O182 1.256 . S
C171 O183 1.289 . S
O172 Gd152 2.377 . S
O172 C154 1.240 . S
O173 Gd153 2.395 1_455 S
O173 C154 1.240 . S
O174 Gd152 2.448 . S
O174 C155 1.249 . S
O175 Gd152 2.506 . S
O175 C155 1.252 . S
O176 Gd152 2.435 . S
O176 C162 1.256 . S
O177 Gd152 2.717 . S
O177 Gd153 2.327 1_455 S
O177 C162 1.257 . S
O178 Gd153 2.381 . S
O178 C163 1.237 1_545 S
O179 Gd152 2.395 . S
O179 C163 1.240 1_445 S
O180 Gd153 2.448 . S
O180 C164 1.249 1_545 S
O181 Gd153 2.506 1_565 S
O181 C164 1.252 . S
O182 Gd153 2.435 . S
O182 C171 1.256 . S
O183 Gd152 2.299 1_655 S
O183 Gd153 2.717 . S
O183 C171 1.289 . S
H184 C157 0.930 . S
H185 C158 0.931 . S
H186 C160 0.931 . S
H187 C161 0.931 . S
H188 C166 0.930 . S
H189 C167 0.931 . S
H190 C169 0.931 . S
H191 C170 0.931 . S
Gd192 C195 2.818 . S
Gd192 O212 2.377 . S
Gd192 O214 2.448 . S
Gd192 O215 2.506 . S
Gd192 O216 2.435 . S
Gd192 O217 2.717 . S
Gd192 O219 2.395 . S
Gd192 O223 2.327 . S
Gd193 C204 2.818 1_545 S
Gd193 O213 2.395 . S
Gd193 O217 2.327 . S
Gd193 O218 2.377 . S
Gd193 O220 2.441 1_554 S
Gd193 O221 2.506 1_545 S
Gd193 O222 2.435 . S
Gd193 O223 2.717 . S
C194 O212 1.240 . S
C194 O213 1.240 . S
C195 Gd192 2.818 . S
C195 C196 1.510 . S
C195 O214 1.249 . S
C195 O215 1.252 . S
C196 C195 1.510 . S
C196 C197 1.404 . S
C196 C198 1.352 . S
C197 C196 1.404 . S
C197 C201 1.389 . S
C197 H224 0.930 . S
C198 C196 1.352 . S
C198 C200 1.374 . S
C198 H225 0.931 . S
C199 C200 1.359 . S
C199 C201 1.364 . S
C200 C198 1.374 . S
C200 C199 1.359 . S
C200 H226 0.931 . S
C201 C197 1.389 . S
C201 C199 1.364 . S
C201 H227 0.931 . S
C202 O216 1.256 1_565 S
C202 O217 1.257 1_565 S
C203 O218 1.240 . S
C203 O219 1.240 . S
C204 Gd193 2.818 1_565 S
C204 C205 1.510 1_554 S
C204 O220 1.248 1_564 S
C204 O221 1.252 . S
C205 C204 1.510 1_556 S
C205 C206 1.404 . S
C205 C207 1.352 . S
C206 C205 1.404 . S
C206 C210 1.389 . S
C206 H228 0.930 1_565 S
C207 C205 1.352 . S
C207 C209 1.374 . S
C207 H229 0.931 . S
C208 C209 1.359 . S
C208 C210 1.364 . S
C209 C207 1.374 . S
C209 C208 1.359 . S
C209 H230 0.931 . S
C210 C206 1.389 . S
C210 C208 1.364 . S
C210 H231 0.931 . S
C211 O222 1.256 . S
C211 O223 1.257 . S
O212 Gd192 2.377 . S
O212 C194 1.240 . S
O213 Gd193 2.395 . S
O213 C194 1.240 . S
O214 Gd192 2.448 . S
O214 C195 1.249 . S
O215 Gd192 2.506 . S
O215 C195 1.252 . S
O216 Gd192 2.435 . S
O216 C202 1.256 1_545 S
O217 Gd192 2.717 . S
O217 Gd193 2.327 . S
O217 C202 1.257 1_545 S
O218 Gd193 2.377 . S
O218 C203 1.240 . S
O219 Gd192 2.395 . S
O219 C203 1.240 . S
O220 Gd193 2.441 1_556 S
O220 C204 1.248 1_546 S
O221 Gd193 2.506 1_565 S
O221 C204 1.252 . S
O222 Gd193 2.435 . S
O222 C211 1.256 . S
O223 Gd192 2.327 . S
O223 Gd193 2.717 . S
O223 C211 1.257 . S
H224 C197 0.930 . S
H225 C198 0.931 . S
H226 C200 0.931 . S
H227 C201 0.931 . S
H228 C206 0.930 1_545 S
H229 C207 0.931 . S
H230 C209 0.931 . S
H231 C210 0.931 . S
Gd232 C235 2.818 . S
Gd232 O252 2.377 . S
Gd232 O254 2.448 . S
Gd232 O255 2.506 . S
Gd232 O256 2.435 . S
Gd232 O257 2.717 . S
Gd232 O259 2.395 . S
Gd232 O263 2.327 . S
Gd233 C244 2.818 . S
Gd233 O253 2.395 . S
Gd233 O257 2.327 . S
Gd233 O258 2.377 . S
Gd233 O260 2.448 . S
Gd233 O261 2.506 . S
Gd233 O262 2.435 . S
Gd233 O263 2.717 . S
C234 O252 1.240 . S
C234 O253 1.240 . S
C235 Gd232 2.818 . S
C235 C236 1.510 . S
C235 O254 1.249 . S
C235 O255 1.252 . S
C236 C235 1.510 . S
C236 C237 1.404 . S
C236 C238 1.352 . S
C237 C236 1.404 . S
C237 C241 1.389 . S
C237 H264 0.930 . S
C238 C236 1.352 . S
C238 C240 1.374 . S
C238 H265 0.931 . S
C239 C240 1.359 . S
C239 C241 1.364 . S
C240 C238 1.374 . S
C240 C239 1.359 . S
C240 H266 0.931 . S
C241 C237 1.389 . S
C241 C239 1.364 . S
C241 H267 0.931 . S
C242 O256 1.256 . S
C242 O257 1.257 . S
C243 O258 1.240 . S
C243 O259 1.240 . S
C244 Gd233 2.818 . S
C244 C245 1.510 . S
C244 O260 1.249 . S
C244 O261 1.252 . S
C245 C244 1.510 . S
C245 C246 1.404 . S
C245 C247 1.352 . S
C246 C245 1.404 . S
C246 C250 1.389 . S
C246 H268 0.930 . S
C247 C245 1.352 . S
C247 C249 1.374 . S
C247 H269 0.931 . S
C248 C249 1.359 . S
C248 C250 1.364 . S
C249 C247 1.374 . S
C249 C248 1.359 . S
C249 H270 0.931 . S
C250 C246 1.389 . S
C250 C248 1.364 . S
C250 H271 0.931 . S
C251 O262 1.256 . S
C251 O263 1.257 . S
O252 Gd232 2.377 . S
O252 C234 1.240 . S
O253 Gd233 2.395 . S
O253 C234 1.240 . S
O254 Gd232 2.448 . S
O254 C235 1.249 . S
O255 Gd232 2.506 . S
O255 C235 1.252 . S
O256 Gd232 2.435 . S
O256 C242 1.256 . S
O257 Gd232 2.717 . S
O257 Gd233 2.327 . S
O257 C242 1.257 . S
O258 Gd233 2.377 . S
O258 C243 1.240 . S
O259 Gd232 2.395 . S
O259 C243 1.240 . S
O260 Gd233 2.448 . S
O260 C244 1.249 . S
O261 Gd233 2.506 . S
O261 C244 1.252 . S
O262 Gd233 2.435 . S
O262 C251 1.256 . S
O263 Gd232 2.327 . S
O263 Gd233 2.717 . S
O263 C251 1.257 . S
H264 C237 0.930 . S
H265 C238 0.931 . S
H266 C240 0.931 . S
H267 C241 0.931 . S
H268 C246 0.930 . S
H269 C247 0.931 . S
H270 C249 0.931 . S
H271 C250 0.931 . S
Gd272 C275 2.818 . S
Gd272 O292 2.377 . S
Gd272 O294 2.448 . S
Gd272 O295 2.506 . S
Gd272 O296 2.435 . S
Gd272 O297 2.717 . S
Gd272 O299 2.395 1_455 S
Gd272 O303 2.327 1_554 S
Gd273 C284 2.818 1_455 S
Gd273 O293 2.395 1_556 S
Gd273 O297 2.327 1_556 S
Gd273 O298 2.372 1_455 S
Gd273 O300 2.448 . S
Gd273 O301 2.506 1_455 S
Gd273 O302 2.435 . S
Gd273 O303 2.717 . S
C274 O292 1.240 . S
C274 O293 1.240 . S
C275 Gd272 2.818 . S
C275 C276 1.510 . S
C275 O294 1.249 . S
C275 O295 1.252 . S
C276 C275 1.510 . S
C276 C277 1.404 . S
C276 C278 1.352 . S
C277 C276 1.404 . S
C277 C281 1.389 . S
C277 H304 0.930 . S
C278 C276 1.352 . S
C278 C280 1.374 . S
C278 H305 0.931 . S
C279 C280 1.359 . S
C279 C281 1.364 . S
C280 C278 1.374 . S
C280 C279 1.359 . S
C280 H306 0.931 . S
C281 C277 1.389 . S
C281 C279 1.364 . S
C281 H307 0.931 . S
C282 O296 1.256 . S
C282 O297 1.257 . S
C283 O298 1.244 . S
C283 O299 1.240 1_556 S
C284 Gd273 2.818 1_655 S
C284 C285 1.510 . S
C284 O300 1.249 1_655 S
C284 O301 1.252 . S
C285 C284 1.510 . S
C285 C286 1.404 . S
C285 C287 1.352 . S
C286 C285 1.404 . S
C286 C290 1.389 . S
C286 H308 0.930 . S
C287 C285 1.352 . S
C287 C289 1.374 . S
C287 H309 0.931 . S
C288 C289 1.359 . S
C288 C290 1.364 . S
C289 C287 1.374 . S
C289 C288 1.359 . S
C289 H310 0.931 . S
C290 C286 1.389 . S
C290 C288 1.364 . S
C290 H311 0.931 . S
C291 O302 1.256 . S
C291 O303 1.257 . S
O292 Gd272 2.377 . S
O292 C274 1.240 . S
O293 Gd273 2.395 1_554 S
O293 C274 1.240 . S
O294 Gd272 2.448 . S
O294 C275 1.249 . S
O295 Gd272 2.506 . S
O295 C275 1.252 . S
O296 Gd272 2.435 . S
O296 C282 1.256 . S
O297 Gd272 2.717 . S
O297 Gd273 2.327 1_554 S
O297 C282 1.257 . S
O298 Gd273 2.372 1_655 S
O298 C283 1.244 . S
O299 Gd272 2.395 1_655 S
O299 C283 1.240 1_554 S
O300 Gd273 2.448 . S
O300 C284 1.249 1_455 S
O301 Gd273 2.506 1_655 S
O301 C284 1.252 . S
O302 Gd273 2.435 . S
O302 C291 1.256 . S
O303 Gd272 2.327 1_556 S
O303 Gd273 2.717 . S
O303 C291 1.257 . S
H304 C277 0.930 . S
H305 C278 0.931 . S
H306 C280 0.931 . S
H307 C281 0.931 . S
H308 C286 0.930 . S
H309 C287 0.931 . S
H310 C289 0.931 . S
H311 C290 0.931 . S
C312 C313 1.349 . S
C312 C314 1.327 . S
C312 H337 0.950 . S
C313 C312 1.349 . S
C313 C329 1.349 . S
C314 C312 1.327 . S
C314 C333 1.429 . S
C314 H338 0.950 . S
C315 C332 1.574 . S
C315 C334 1.368 . S
C315 H339 0.949 . S
H316 C320 0.949 . S
C317 C318 1.349 . S
C317 C319 1.327 . S
C317 H340 0.950 . S
C318 C317 1.349 . S
C318 C330 1.349 . S
C319 C317 1.327 . S
C319 C335 1.429 . S
C319 H341 0.950 . S
C320 H316 0.949 . S
C320 C328 1.574 . S
C320 C336 1.368 . S
H321 C329 0.950 . S
H322 C327 0.950 . S
H323 C328 0.949 . S
H324 C330 0.950 . S
H325 C331 0.950 . S
H326 C332 0.949 . S
C327 H322 0.950 . S
C327 C329 1.327 . S
C327 C333 1.429 . S
C328 C320 1.574 . S
C328 H323 0.949 . S
C328 C334 1.368 . S
C329 C313 1.349 . S
C329 H321 0.950 . S
C329 C327 1.327 . S
C330 C318 1.349 . S
C330 H324 0.950 . S
C330 C331 1.327 . S
C331 H325 0.950 . S
C331 C330 1.327 . S
C331 C335 1.429 . S
C332 C315 1.574 . S
C332 H326 0.949 . S
C332 C336 1.368 . S
C333 C314 1.429 . S
C333 C327 1.429 . S
C333 C334 1.523 . S
C334 C315 1.368 . S
C334 C328 1.368 . S
C334 C333 1.523 . S
C335 C319 1.429 . S
C335 C331 1.429 . S
C335 C336 1.523 . S
C336 C320 1.368 . S
C336 C332 1.368 . S
C336 C335 1.523 . S
H337 C312 0.950 . S
H338 C314 0.950 . S
H339 C315 0.949 . S
H340 C317 0.950 . S
H341 C319 0.950 . S
C342 C343 1.349 . S
C342 C344 1.327 . S
C342 H367 0.950 . S
C343 C342 1.349 . S
C343 C359 1.349 . S
C344 C342 1.327 . S
C344 C363 1.429 . S
C344 H368 0.950 . S
C345 C362 1.574 . S
C345 C364 1.368 . S
C345 H369 0.949 . S
H346 C350 0.949 . S
C347 C348 1.349 . S
C347 C349 1.327 . S
C347 H370 0.950 . S
C348 C347 1.349 . S
C348 C360 1.349 . S
C349 C347 1.327 . S
C349 C365 1.429 . S
C349 H371 0.950 . S
C350 H346 0.949 . S
C350 C358 1.574 . S
C350 C366 1.368 . S
H351 C359 0.950 . S
H352 C357 0.950 . S
H353 C358 0.949 . S
H354 C360 0.950 . S
H355 C361 0.950 . S
H356 C362 0.949 . S
C357 H352 0.950 . S
C357 C359 1.327 . S
C357 C363 1.429 . S
C358 C350 1.574 . S
C358 H353 0.949 . S
C358 C364 1.368 . S
C359 C343 1.349 . S
C359 H351 0.950 . S
C359 C357 1.327 . S
C360 C348 1.349 . S
C360 H354 0.950 . S
C360 C361 1.327 . S
C361 H355 0.950 . S
C361 C360 1.327 . S
C361 C365 1.429 . S
C362 C345 1.574 . S
C362 H356 0.949 . S
C362 C366 1.368 . S
C363 C344 1.429 . S
C363 C357 1.429 . S
C363 C364 1.523 . S
C364 C345 1.368 . S
C364 C358 1.368 . S
C364 C363 1.523 . S
C365 C349 1.429 . S
C365 C361 1.429 . S
C365 C366 1.523 . S
C366 C350 1.368 . S
C366 C362 1.368 . S
C366 C365 1.523 . S
H367 C342 0.950 . S
H368 C344 0.950 . S
H369 C345 0.949 . S
H370 C347 0.950 . S
H371 C349 0.950 . S
C372 C373 1.349 . S
C372 C374 1.327 . S
C372 H397 0.950 . S
C373 C372 1.349 . S
C373 C389 1.349 . S
C374 C372 1.327 . S
C374 C393 1.429 . S
C374 H398 0.950 . S
C375 C392 1.574 . S
C375 C394 1.368 . S
C375 H399 0.949 . S
H376 C380 0.949 . S
C377 C378 1.349 . S
C377 C379 1.327 . S
C377 H400 0.950 . S
C378 C377 1.349 . S
C378 C390 1.349 . S
C379 C377 1.327 . S
C379 C395 1.429 . S
C379 H401 0.950 . S
C380 H376 0.949 . S
C380 C388 1.574 . S
C380 C396 1.368 . S
H381 C389 0.950 . S
H382 C387 0.950 . S
H383 C388 0.949 . S
H384 C390 0.950 . S
H385 C391 0.950 . S
H386 C392 0.949 . S
C387 H382 0.950 . S
C387 C389 1.327 . S
C387 C393 1.429 . S
C388 C380 1.574 . S
C388 H383 0.949 . S
C388 C394 1.368 . S
C389 C373 1.349 . S
C389 H381 0.950 . S
C389 C387 1.327 . S
C390 C378 1.349 . S
C390 H384 0.950 . S
C390 C391 1.327 . S
C391 H385 0.950 . S
C391 C390 1.327 . S
C391 C395 1.429 . S
C392 C375 1.574 . S
C392 H386 0.949 . S
C392 C396 1.368 . S
C393 C374 1.429 . S
C393 C387 1.429 . S
C393 C394 1.523 . S
C394 C375 1.368 . S
C394 C388 1.368 . S
C394 C393 1.523 . S
C395 C379 1.429 . S
C395 C391 1.429 . S
C395 C396 1.523 . S
C396 C380 1.368 . S
C396 C392 1.368 . S
C396 C395 1.523 . S
H397 C372 0.950 . S
H398 C374 0.950 . S
H399 C375 0.949 . S
H400 C377 0.950 . S
H401 C379 0.950 . S
C402 C403 1.349 . S
C402 C404 1.327 . S
C402 H427 0.950 . S
C403 C402 1.349 . S
C403 C419 1.349 . S
C404 C402 1.327 . S
C404 C423 1.429 . S
C404 H428 0.950 . S
C405 C422 1.574 . S
C405 C424 1.368 . S
C405 H429 0.949 . S
H406 C410 0.949 . S
C407 C408 1.349 . S
C407 C409 1.327 . S
C407 H430 0.950 . S
C408 C407 1.349 . S
C408 C420 1.351 . S
C409 C407 1.327 . S
C409 C425 1.429 . S
C409 H431 0.950 . S
C410 H406 0.949 . S
C410 C418 1.574 . S
C410 C426 1.368 . S
H411 C419 0.950 . S
H412 C417 0.950 . S
H413 C418 0.949 . S
H414 C420 0.937 1_455 S
H415 C421 0.950 . S
H416 C422 0.949 . S
C417 H412 0.950 . S
C417 C419 1.327 . S
C417 C423 1.429 . S
C418 C410 1.574 . S
C418 H413 0.949 . S
C418 C424 1.368 . S
C419 C403 1.349 . S
C419 H411 0.950 . S
C419 C417 1.327 . S
C420 C408 1.351 . S
C420 H414 0.937 1_655 S
C420 C421 1.338 . S
C421 H415 0.950 . S
C421 C420 1.338 . S
C421 C425 1.429 . S
C422 C405 1.574 . S
C422 H416 0.949 . S
C422 C426 1.368 . S
C423 C404 1.429 . S
C423 C417 1.429 . S
C423 C424 1.523 . S
C424 C405 1.368 . S
C424 C418 1.368 . S
C424 C423 1.523 . S
C425 C409 1.429 . S
C425 C421 1.429 . S
C425 C426 1.523 . S
C426 C410 1.368 . S
C426 C422 1.368 . S
C426 C425 1.523 . S
H427 C402 0.950 . S
H428 C404 0.950 . S
H429 C405 0.949 . S
H430 C407 0.950 . S
H431 C409 0.950 . S
C432 C433 1.349 . S
C432 C434 1.327 . S
C432 H457 0.950 . S
C433 C432 1.349 . S
C433 C449 1.349 . S
C434 C432 1.327 . S
C434 C453 1.429 . S
C434 H458 0.950 . S
C435 C452 1.574 . S
C435 C454 1.368 . S
C435 H459 0.949 . S
H436 C440 0.949 . S
C437 C438 1.349 . S
C437 C439 1.327 . S
C437 H460 0.950 . S
C438 C437 1.349 . S
C438 C450 1.349 . S
C439 C437 1.327 . S
C439 C455 1.429 . S
C439 H461 0.950 . S
C440 H436 0.949 . S
C440 C448 1.574 . S
C440 C456 1.368 . S
H441 C449 0.950 . S
H442 C447 0.950 . S
H443 C448 0.949 . S
H444 C450 0.950 . S
H445 C451 0.950 . S
H446 C452 0.949 . S
C447 H442 0.950 . S
C447 C449 1.327 . S
C447 C453 1.429 . S
C448 C440 1.574 . S
C448 H443 0.949 . S
C448 C454 1.368 . S
C449 C433 1.349 . S
C449 H441 0.950 . S
C449 C447 1.327 . S
C450 C438 1.349 . S
C450 H444 0.950 . S
C450 C451 1.327 . S
C451 H445 0.950 . S
C451 C450 1.327 . S
C451 C455 1.429 . S
C452 C435 1.574 . S
C452 H446 0.949 . S
C452 C456 1.368 . S
C453 C434 1.429 . S
C453 C447 1.429 . S
C453 C454 1.523 . S
C454 C435 1.368 . S
C454 C448 1.368 . S
C454 C453 1.523 . S
C455 C439 1.429 . S
C455 C451 1.429 . S
C455 C456 1.523 . S
C456 C440 1.368 . S
C456 C452 1.368 . S
C456 C455 1.523 . S
H457 C432 0.950 . S
H458 C434 0.950 . S
H459 C435 0.949 . S
H460 C437 0.950 . S
H461 C439 0.950 . S
C462 C463 1.349 . S
C462 C464 1.327 . S
C462 H487 0.950 . S
C463 C462 1.349 . S
C463 C479 1.349 . S
C464 C462 1.327 . S
C464 C483 1.429 . S
C464 H488 0.950 . S
C465 C482 1.574 . S
C465 C484 1.368 . S
C465 H489 0.949 . S
H466 C470 0.949 . S
C467 C468 1.349 . S
C467 C469 1.327 . S
C467 H490 0.950 . S
C468 C467 1.349 . S
C468 C480 1.349 1_545 S
C469 C467 1.327 . S
C469 C485 1.429 1_545 S
C469 H491 0.950 . S
C470 H466 0.949 . S
C470 C478 1.574 . S
C470 C486 1.368 . S
H471 C479 0.950 . S
H472 C477 0.950 . S
H473 C478 0.949 . S
H474 C480 0.950 . S
H475 C481 0.950 . S
H476 C482 0.949 1_545 S
C477 H472 0.950 . S
C477 C479 1.327 . S
C477 C483 1.429 . S
C478 C470 1.574 . S
C478 H473 0.949 . S
C478 C484 1.368 . S
C479 C463 1.349 . S
C479 H471 0.950 . S
C479 C477 1.327 . S
C480 C468 1.349 1_565 S
C480 H474 0.950 . S
C480 C481 1.327 . S
C481 H475 0.950 . S
C481 C480 1.327 . S
C481 C485 1.429 . S
C482 C465 1.574 . S
C482 H476 0.949 1_565 S
C482 C486 1.368 . S
C483 C464 1.429 . S
C483 C477 1.429 . S
C483 C484 1.523 . S
C484 C465 1.368 . S
C484 C478 1.368 . S
C484 C483 1.523 . S
C485 C469 1.429 1_565 S
C485 C481 1.429 . S
C485 C486 1.523 . S
C486 C470 1.368 . S
C486 C482 1.368 . S
C486 C485 1.523 . S
H487 C462 0.950 . S
H488 C464 0.950 . S
H489 C465 0.949 . S
H490 C467 0.950 . S
H491 C469 0.950 . S
C492 C493 1.349 . S
C492 C494 1.327 . S
C492 H517 0.950 . S
C493 C492 1.349 . S
C493 C509 1.349 . S
C494 C492 1.327 . S
C494 C513 1.429 . S
C494 H518 0.950 . S
C495 C512 1.574 . S
C495 C514 1.368 . S
C495 H519 0.949 . S
H496 C500 0.949 . S
C497 C498 1.349 . S
C497 C499 1.327 . S
C497 H520 0.950 1_556 S
C498 C497 1.349 . S
C498 C510 1.349 . S
C499 C497 1.327 . S
C499 C515 1.429 . S
C499 H521 0.950 . S
C500 H496 0.949 . S
C500 C508 1.574 . S
C500 C516 1.368 . S
H501 C509 0.950 . S
H502 C507 0.950 . S
H503 C508 0.949 . S
H504 C510 0.950 . S
H505 C511 0.950 . S
H506 C512 0.949 . S
C507 H502 0.950 . S
C507 C509 1.327 . S
C507 C513 1.429 . S
C508 C500 1.574 . S
C508 H503 0.949 . S
C508 C514 1.368 . S
C509 C493 1.349 . S
C509 H501 0.950 . S
C509 C507 1.327 . S
C510 C498 1.349 . S
C510 H504 0.950 . S
C510 C511 1.327 . S
C511 H505 0.950 . S
C511 C510 1.327 . S
C511 C515 1.429 . S
C512 C495 1.574 . S
C512 H506 0.949 . S
C512 C516 1.368 . S
C513 C494 1.429 . S
C513 C507 1.429 . S
C513 C514 1.523 . S
C514 C495 1.368 . S
C514 C508 1.368 . S
C514 C513 1.523 . S
C515 C499 1.429 . S
C515 C511 1.429 . S
C515 C516 1.523 . S
C516 C500 1.368 . S
C516 C512 1.368 . S
C516 C515 1.523 . S
H517 C492 0.950 . S
H518 C494 0.950 . S
H519 C495 0.949 . S
H520 C497 0.950 1_554 S
H521 C499 0.950 . S
C522 C523 1.349 . S
C522 C524 1.327 . S
C522 H547 0.950 . S
C523 C522 1.349 . S
C523 C539 1.349 . S
C524 C522 1.327 . S
C524 C543 1.429 . S
C524 H548 0.950 . S
C525 C542 1.574 . S
C525 C544 1.368 . S
C525 H549 0.949 . S
H526 C530 0.949 . S
C527 C528 1.349 . S
C527 C529 1.327 . S
C527 H550 0.950 . S
C528 C527 1.349 . S
C528 C540 1.349 . S
C529 C527 1.327 . S
C529 C545 1.429 . S
C529 H551 0.950 . S
C530 H526 0.949 . S
C530 C538 1.574 . S
C530 C546 1.368 . S
H531 C539 0.950 . S
H532 C537 0.950 . S
H533 C538 0.949 . S
H534 C540 0.950 . S
H535 C541 0.950 . S
H536 C542 0.949 . S
C537 H532 0.950 . S
C537 C539 1.327 . S
C537 C543 1.429 . S
C538 C530 1.574 . S
C538 H533 0.949 . S
C538 C544 1.368 . S
C539 C523 1.349 . S
C539 H531 0.950 . S
C539 C537 1.327 . S
C540 C528 1.349 . S
C540 H534 0.950 . S
C540 C541 1.327 . S
C541 H535 0.950 . S
C541 C540 1.327 . S
C541 C545 1.429 . S
C542 C525 1.574 . S
C542 H536 0.949 . S
C542 C546 1.368 . S
C543 C524 1.429 . S
C543 C537 1.429 . S
C543 C544 1.523 . S
C544 C525 1.368 . S
C544 C538 1.368 . S
C544 C543 1.523 . S
C545 C529 1.429 . S
C545 C541 1.429 . S
C545 C546 1.523 . S
C546 C530 1.368 . S
C546 C542 1.368 . S
C546 C545 1.523 . S
H547 C522 0.950 . S
H548 C524 0.950 . S
H549 C525 0.949 . S
H550 C527 0.950 . S
H551 C529 0.950 . S
C552 C553 1.349 . S
C552 C554 1.327 . S
C552 H577 0.950 . S
C553 C552 1.349 . S
C553 C569 1.349 . S
C554 C552 1.327 . S
C554 C573 1.429 . S
C554 H578 0.950 . S
C555 C572 1.574 . S
C555 C574 1.368 . S
C555 H579 0.949 . S
H556 C560 0.949 . S
C557 C558 1.349 . S
C557 C559 1.327 . S
C557 H580 0.950 . S
C558 C557 1.349 . S
C558 C570 1.349 . S
C559 C557 1.327 . S
C559 C575 1.429 . S
C559 H581 0.950 . S
C560 H556 0.949 . S
C560 C568 1.574 . S
C560 C576 1.368 . S
H561 C569 0.950 . S
H562 C567 0.950 . S
H563 C568 0.949 . S
H564 C570 0.950 . S
H565 C571 0.950 . S
H566 C572 0.949 . S
C567 H562 0.950 . S
C567 C569 1.327 . S
C567 C573 1.429 . S
C568 C560 1.574 . S
C568 H563 0.949 . S
C568 C574 1.368 . S
C569 C553 1.349 . S
C569 H561 0.950 . S
C569 C567 1.327 . S
C570 C558 1.349 . S
C570 H564 0.950 . S
C570 C571 1.327 . S
C571 H565 0.950 . S
C571 C570 1.327 . S
C571 C575 1.429 . S
C572 C555 1.574 . S
C572 H566 0.949 . S
C572 C576 1.368 . S
C573 C554 1.429 . S
C573 C567 1.429 . S
C573 C574 1.523 . S
C574 C555 1.368 . S
C574 C568 1.368 . S
C574 C573 1.523 . S
C575 C559 1.429 . S
C575 C571 1.429 . S
C575 C576 1.523 . S
C576 C560 1.368 . S
C576 C572 1.368 . S
C576 C575 1.523 . S
H577 C552 0.950 . S
H578 C554 0.950 . S
H579 C555 0.949 . S
H580 C557 0.950 . S
H581 C559 0.950 . S
C582 C583 1.349 . S
C582 C584 1.327 . S
C582 H607 0.950 . S
C583 C582 1.349 . S
C583 C599 1.349 . S
C584 C582 1.327 . S
C584 C603 1.429 . S
C584 H608 0.950 . S
C585 C602 1.574 . S
C585 C604 1.368 . S
C585 H609 0.949 . S
H586 C590 0.949 1_554 S
C587 C588 1.349 . S
C587 C589 1.327 1_554 S
C587 H610 0.950 1_554 S
C588 C587 1.349 . S
C588 C600 1.349 . S
C589 C587 1.327 1_556 S
C589 C605 1.429 . S
C589 H611 0.950 . S
C590 H586 0.949 1_556 S
C590 C598 1.574 . S
C590 C606 1.368 . S
H591 C599 0.950 . S
H592 C597 0.950 . S
H593 C598 0.949 . S
H594 C600 0.950 . S
H595 C601 0.950 . S
H596 C602 0.949 . S
C597 H592 0.950 . S
C597 C599 1.327 . S
C597 C603 1.429 . S
C598 C590 1.574 . S
C598 H593 0.949 . S
C598 C604 1.368 . S
C599 C583 1.349 . S
C599 H591 0.950 . S
C599 C597 1.327 . S
C600 C588 1.349 . S
C600 H594 0.950 . S
C600 C601 1.327 . S
C601 H595 0.950 . S
C601 C600 1.327 . S
C601 C605 1.429 1_554 S
C602 C585 1.574 . S
C602 H596 0.949 . S
C602 C606 1.368 . S
C603 C584 1.429 . S
C603 C597 1.429 . S
C603 C604 1.523 . S
C604 C585 1.368 . S
C604 C598 1.368 . S
C604 C603 1.523 . S
C605 C589 1.429 . S
C605 C601 1.429 1_556 S
C605 C606 1.523 . S
C606 C590 1.368 . S
C606 C602 1.368 . S
C606 C605 1.523 . S
H607 C582 0.950 . S
H608 C584 0.950 . S
H609 C585 0.949 . S
H610 C587 0.950 1_556 S
H611 C589 0.950 . S
C612 C613 1.349 . S
C612 C614 1.327 . S
C612 H637 0.950 . S
C613 C612 1.349 . S
C613 C629 1.349 . S
C614 C612 1.327 . S
C614 C633 1.429 . S
C614 H638 0.950 . S
C615 C632 1.574 . S
C615 C634 1.368 . S
C615 H639 0.949 . S
H616 C620 0.949 . S
C617 C618 1.349 . S
C617 C619 1.327 . S
C617 H640 0.950 . S
C618 C617 1.349 . S
C618 C630 1.349 . S
C619 C617 1.327 . S
C619 C635 1.429 . S
C619 H641 0.950 . S
C620 H616 0.949 . S
C620 C628 1.574 . S
C620 C636 1.368 . S
H621 C629 0.950 . S
H622 C627 0.950 . S
H623 C628 0.949 . S
H624 C630 0.950 . S
H625 C631 0.950 . S
H626 C632 0.949 . S
C627 H622 0.950 . S
C627 C629 1.327 . S
C627 C633 1.429 . S
C628 C620 1.574 . S
C628 H623 0.949 . S
C628 C634 1.368 . S
C629 C613 1.349 . S
C629 H621 0.950 . S
C629 C627 1.327 . S
C630 C618 1.349 . S
C630 H624 0.950 . S
C630 C631 1.327 . S
C631 H625 0.950 . S
C631 C630 1.327 . S
C631 C635 1.429 . S
C632 C615 1.574 . S
C632 H626 0.949 . S
C632 C636 1.368 . S
C633 C614 1.429 . S
C633 C627 1.429 . S
C633 C634 1.523 . S
C634 C615 1.368 . S
C634 C628 1.368 . S
C634 C633 1.523 . S
C635 C619 1.429 . S
C635 C631 1.429 . S
C635 C636 1.523 . S
C636 C620 1.368 . S
C636 C632 1.368 . S
C636 C635 1.523 . S
H637 C612 0.950 . S
H638 C614 0.950 . S
H639 C615 0.949 . S
H640 C617 0.950 . S
H641 C619 0.950 . S
C642 C643 1.349 . S
C642 C644 1.327 . S
C642 H667 0.950 . S
C643 C642 1.349 . S
C643 C659 1.349 . S
C644 C642 1.327 . S
C644 C663 1.429 . S
C644 H668 0.950 . S
C645 C662 1.574 . S
C645 C664 1.368 . S
C645 H669 0.949 . S
H646 C650 0.949 . S
C647 C648 1.349 . S
C647 C649 1.327 . S
C647 H670 0.950 . S
C648 C647 1.349 . S
C648 C660 1.349 . S
C649 C647 1.327 . S
C649 C665 1.429 . S
C649 H671 0.950 . S
C650 H646 0.949 . S
C650 C658 1.574 . S
C650 C666 1.368 . S
H651 C659 0.950 . S
H652 C657 0.950 . S
H653 C658 0.949 . S
H654 C660 0.950 . S
H655 C661 0.950 . S
H656 C662 0.949 . S
C657 H652 0.950 . S
C657 C659 1.327 . S
C657 C663 1.429 . S
C658 C650 1.574 . S
C658 H653 0.949 . S
C658 C664 1.368 . S
C659 C643 1.349 . S
C659 H651 0.950 . S
C659 C657 1.327 . S
C660 C648 1.349 . S
C660 H654 0.950 . S
C660 C661 1.327 . S
C661 H655 0.950 . S
C661 C660 1.327 . S
C661 C665 1.429 . S
C662 C645 1.574 . S
C662 H656 0.949 . S
C662 C666 1.368 . S
C663 C644 1.429 . S
C663 C657 1.429 . S
C663 C664 1.523 . S
C664 C645 1.368 . S
C664 C658 1.368 . S
C664 C663 1.523 . S
C665 C649 1.429 . S
C665 C661 1.429 . S
C665 C666 1.523 . S
C666 C650 1.368 . S
C666 C662 1.368 . S
C666 C665 1.523 . S
H667 C642 0.950 . S
H668 C644 0.950 . S
H669 C645 0.949 . S
H670 C647 0.950 . S
H671 C649 0.950 . S
C672 C673 1.349 . S
C672 C674 1.327 . S
C672 H697 0.950 . S
C673 C672 1.349 . S
C673 C689 1.349 . S
C674 C672 1.327 . S
C674 C693 1.429 . S
C674 H698 0.950 . S
C675 C692 1.574 . S
C675 C694 1.368 . S
C675 H699 0.949 . S
H676 C680 0.949 . S
C677 C678 1.349 . S
C677 C679 1.327 . S
C677 H700 0.950 . S
C678 C677 1.349 . S
C678 C690 1.349 . S
C679 C677 1.327 . S
C679 C695 1.429 . S
C679 H701 0.950 . S
C680 H676 0.949 . S
C680 C688 1.574 . S
C680 C696 1.368 . S
H681 C689 0.950 . S
H682 C687 0.950 . S
H683 C688 0.949 . S
H684 C690 0.950 . S
H685 C691 0.950 . S
H686 C692 0.949 . S
C687 H682 0.950 . S
C687 C689 1.327 . S
C687 C693 1.429 . S
C688 C680 1.574 . S
C688 H683 0.949 . S
C688 C694 1.368 . S
C689 C673 1.349 . S
C689 H681 0.950 . S
C689 C687 1.327 . S
C690 C678 1.349 . S
C690 H684 0.950 . S
C690 C691 1.327 . S
C691 H685 0.950 . S
C691 C690 1.327 . S
C691 C695 1.429 . S
C692 C675 1.574 . S
C692 H686 0.949 . S
C692 C696 1.368 . S
C693 C674 1.429 . S
C693 C687 1.429 . S
C693 C694 1.523 . S
C694 C675 1.368 . S
C694 C688 1.368 . S
C694 C693 1.523 . S
C695 C679 1.429 . S
C695 C691 1.429 . S
C695 C696 1.523 . S
C696 C680 1.368 . S
C696 C692 1.368 . S
C696 C695 1.523 . S
H697 C672 0.950 . S
H698 C674 0.950 . S
H699 C675 0.949 . S
H700 C677 0.950 . S
H701 C679 0.950 . S
C702 C703 1.349 . S
C702 C704 1.327 . S
C702 H727 0.950 . S
C703 C702 1.349 . S
C703 C719 1.349 . S
C704 C702 1.327 . S
C704 C723 1.429 . S
C704 H728 0.950 . S
C705 C722 1.574 . S
C705 C724 1.368 . S
C705 H729 0.949 . S
H706 C710 0.949 . S
C707 C708 1.349 . S
C707 C709 1.327 . S
C707 H730 0.950 . S
C708 C707 1.349 . S
C708 C720 1.349 . S
C709 C707 1.327 . S
C709 C725 1.429 . S
C709 H731 0.950 . S
C710 H706 0.949 . S
C710 C718 1.574 . S
C710 C726 1.368 . S
H711 C719 0.950 . S
H712 C717 0.950 . S
H713 C718 0.949 . S
H714 C720 0.950 . S
H715 C721 0.950 . S
H716 C722 0.949 . S
C717 H712 0.950 . S
C717 C719 1.327 . S
C717 C723 1.429 . S
C718 C710 1.574 . S
C718 H713 0.949 . S
C718 C724 1.368 . S
C719 C703 1.349 . S
C719 H711 0.950 . S
C719 C717 1.327 . S
C720 C708 1.349 . S
C720 H714 0.950 . S
C720 C721 1.327 . S
C721 H715 0.950 . S
C721 C720 1.327 . S
C721 C725 1.429 . S
C722 C705 1.574 . S
C722 H716 0.949 . S
C722 C726 1.368 . S
C723 C704 1.429 . S
C723 C717 1.429 . S
C723 C724 1.523 . S
C724 C705 1.368 . S
C724 C718 1.368 . S
C724 C723 1.523 . S
C725 C709 1.429 . S
C725 C721 1.429 . S
C725 C726 1.523 . S
C726 C710 1.368 . S
C726 C722 1.368 . S
C726 C725 1.523 . S
H727 C702 0.950 . S
H728 C704 0.950 . S
H729 C705 0.949 . S
H730 C707 0.950 . S
H731 C709 0.950 . S
C732 C733 1.349 . S
C732 C734 1.327 . S
C732 H757 0.950 . S
C733 C732 1.349 . S
C733 C749 1.349 . S
C734 C732 1.327 . S
C734 C753 1.429 . S
C734 H758 0.950 . S
C735 C752 1.574 . S
C735 C754 1.368 . S
C735 H759 0.949 . S
H736 C740 0.949 . S
C737 C738 1.349 . S
C737 C739 1.327 . S
C737 H760 0.950 . S
C738 C737 1.349 . S
C738 C750 1.349 . S
C739 C737 1.327 . S
C739 C755 1.429 . S
C739 H761 0.950 . S
C740 H736 0.949 . S
C740 C748 1.574 . S
C740 C756 1.368 . S
H741 C749 0.950 . S
H742 C747 0.950 . S
H743 C748 0.949 . S
H744 C750 0.950 . S
H745 C751 0.950 . S
H746 C752 0.949 . S
C747 H742 0.950 . S
C747 C749 1.327 . S
C747 C753 1.429 . S
C748 C740 1.574 . S
C748 H743 0.949 . S
C748 C754 1.368 . S
C749 C733 1.349 . S
C749 H741 0.950 . S
C749 C747 1.327 . S
C750 C738 1.349 . S
C750 H744 0.950 . S
C750 C751 1.327 . S
C751 H745 0.950 . S
C751 C750 1.327 . S
C751 C755 1.429 . S
C752 C735 1.574 . S
C752 H746 0.949 . S
C752 C756 1.368 . S
C753 C734 1.429 . S
C753 C747 1.429 . S
C753 C754 1.523 . S
C754 C735 1.368 . S
C754 C748 1.368 . S
C754 C753 1.523 . S
C755 C739 1.429 . S
C755 C751 1.429 . S
C755 C756 1.523 . S
C756 C740 1.368 . S
C756 C752 1.368 . S
C756 C755 1.523 . S
H757 C732 0.950 . S
H758 C734 0.950 . S
H759 C735 0.949 . S
H760 C737 0.950 . S
H761 C739 0.950 . S
C762 C763 1.349 . S
C762 C764 1.327 . S
C762 H787 0.950 . S
C763 C762 1.349 . S
C763 C779 1.349 . S
C764 C762 1.327 . S
C764 C783 1.429 . S
C764 H788 0.950 . S
C765 C782 1.574 . S
C765 C784 1.368 . S
C765 H789 0.949 . S
H766 C770 0.949 . S
C767 C768 1.349 . S
C767 C769 1.327 . S
C767 H790 0.950 . S
C768 C767 1.349 . S
C768 C780 1.349 . S
C769 C767 1.327 . S
C769 C785 1.429 . S
C769 H791 0.950 . S
C770 H766 0.949 . S
C770 C778 1.574 . S
C770 C786 1.368 . S
H771 C779 0.950 . S
H772 C777 0.950 . S
H773 C778 0.949 . S
H774 C780 0.950 . S
H775 C781 0.950 . S
H776 C782 0.949 . S
C777 H772 0.950 . S
C777 C779 1.327 . S
C777 C783 1.429 . S
C778 C770 1.574 . S
C778 H773 0.949 . S
C778 C784 1.368 . S
C779 C763 1.349 . S
C779 H771 0.950 . S
C779 C777 1.327 . S
C780 C768 1.349 . S
C780 H774 0.950 . S
C780 C781 1.327 . S
C781 H775 0.950 . S
C781 C780 1.327 . S
C781 C785 1.429 . S
C782 C765 1.574 . S
C782 H776 0.949 . S
C782 C786 1.368 . S
C783 C764 1.429 . S
C783 C777 1.429 . S
C783 C784 1.523 . S
C784 C765 1.368 . S
C784 C778 1.368 . S
C784 C783 1.523 . S
C785 C769 1.429 . S
C785 C781 1.429 . S
C785 C786 1.523 . S
C786 C770 1.368 . S
C786 C782 1.368 . S
C786 C785 1.523 . S
H787 C762 0.950 . S
H788 C764 0.950 . S
H789 C765 0.949 . S
H790 C767 0.950 . S
H791 C769 0.950 . S
C792 C793 1.349 . S
C792 C794 1.327 . S
C792 H817 0.950 . S
C793 C792 1.349 . S
C793 C809 1.349 . S
C794 C792 1.327 . S
C794 C813 1.429 . S
C794 H818 0.950 . S
C795 C812 1.574 . S
C795 C814 1.368 . S
C795 H819 0.949 . S
H796 C800 0.949 . S
C797 C798 1.349 . S
C797 C799 1.327 . S
C797 H820 0.950 . S
C798 C797 1.349 . S
C798 C810 1.349 1_554 S
C799 C797 1.327 . S
C799 C815 1.429 1_554 S
C799 H821 0.950 . S
C800 H796 0.949 . S
C800 C808 1.574 . S
C800 C816 1.368 . S
H801 C809 0.950 . S
H802 C807 0.950 . S
H803 C808 0.949 . S
H804 C810 0.950 . S
H805 C811 0.950 . S
H806 C812 0.949 . S
C807 H802 0.950 . S
C807 C809 1.327 . S
C807 C813 1.429 . S
C808 C800 1.574 . S
C808 H803 0.949 . S
C808 C814 1.368 . S
C809 C793 1.349 . S
C809 H801 0.950 . S
C809 C807 1.327 . S
C810 C798 1.349 1_556 S
C810 H804 0.950 . S
C810 C811 1.327 . S
C811 H805 0.950 . S
C811 C810 1.327 . S
C811 C815 1.429 . S
C812 C795 1.574 . S
C812 H806 0.949 . S
C812 C816 1.368 . S
C813 C794 1.429 . S
C813 C807 1.429 . S
C813 C814 1.523 . S
C814 C795 1.368 . S
C814 C808 1.368 . S
C814 C813 1.523 . S
C815 C799 1.429 1_556 S
C815 C811 1.429 . S
C815 C816 1.523 . S
C816 C800 1.368 . S
C816 C812 1.368 . S
C816 C815 1.523 . S
H817 C792 0.950 . S
H818 C794 0.950 . S
H819 C795 0.949 . S
H820 C797 0.950 . S
H821 C799 0.950 . S
C822 C823 1.349 . S
C822 C824 1.327 . S
C822 H847 0.950 . S
C823 C822 1.349 . S
C823 C839 1.349 . S
C824 C822 1.327 . S
C824 C843 1.429 . S
C824 H848 0.950 . S
C825 C842 1.574 . S
C825 C844 1.368 . S
C825 H849 0.949 . S
H826 C830 0.949 . S
C827 C828 1.349 . S
C827 C829 1.327 . S
C827 H850 0.950 . S
C828 C827 1.349 . S
C828 C840 1.349 . S
C829 C827 1.327 . S
C829 C845 1.429 . S
C829 H851 0.950 . S
C830 H826 0.949 . S
C830 C838 1.574 . S
C830 C846 1.368 . S
H831 C839 0.950 . S
H832 C837 0.950 . S
H833 C838 0.949 . S
H834 C840 0.950 . S
H835 C841 0.950 . S
H836 C842 0.949 . S
C837 H832 0.950 . S
C837 C839 1.327 . S
C837 C843 1.429 . S
C838 C830 1.574 . S
C838 H833 0.949 . S
C838 C844 1.368 . S
C839 C823 1.349 . S
C839 H831 0.950 . S
C839 C837 1.327 . S
C840 C828 1.349 . S
C840 H834 0.950 . S
C840 C841 1.327 . S
C841 H835 0.950 . S
C841 C840 1.327 . S
C841 C845 1.429 . S
C842 C825 1.574 . S
C842 H836 0.949 . S
C842 C846 1.368 . S
C843 C824 1.429 . S
C843 C837 1.429 . S
C843 C844 1.523 . S
C844 C825 1.368 . S
C844 C838 1.368 . S
C844 C843 1.523 . S
C845 C829 1.429 . S
C845 C841 1.429 . S
C845 C846 1.523 . S
C846 C830 1.368 . S
C846 C842 1.368 . S
C846 C845 1.523 . S
H847 C822 0.950 . S
H848 C824 0.950 . S
H849 C825 0.949 . S
H850 C827 0.950 . S
H851 C829 0.950 . S
C852 C853 1.349 . S
C852 C854 1.327 . S
C852 H877 0.950 . S
C853 C852 1.349 . S
C853 C869 1.349 . S
C854 C852 1.327 . S
C854 C873 1.429 . S
C854 H878 0.950 . S
C855 C872 1.574 . S
C855 C874 1.368 . S
C855 H879 0.949 . S
H856 C860 0.949 . S
C857 C858 1.349 . S
C857 C859 1.327 . S
C857 H880 0.950 . S
C858 C857 1.349 . S
C858 C870 1.349 . S
C859 C857 1.327 . S
C859 C875 1.429 . S
C859 H881 0.950 . S
C860 H856 0.949 . S
C860 C868 1.574 . S
C860 C876 1.368 . S
H861 C869 0.950 . S
H862 C867 0.950 . S
H863 C868 0.949 . S
H864 C870 0.950 . S
H865 C871 0.950 . S
H866 C872 0.949 . S
C867 H862 0.950 . S
C867 C869 1.327 . S
C867 C873 1.429 . S
C868 C860 1.574 . S
C868 H863 0.949 . S
C868 C874 1.368 . S
C869 C853 1.349 . S
C869 H861 0.950 . S
C869 C867 1.327 . S
C870 C858 1.349 . S
C870 H864 0.950 . S
C870 C871 1.327 . S
C871 H865 0.950 . S
C871 C870 1.327 . S
C871 C875 1.429 . S
C872 C855 1.574 . S
C872 H866 0.949 . S
C872 C876 1.368 . S
C873 C854 1.429 . S
C873 C867 1.429 . S
C873 C874 1.523 . S
C874 C855 1.368 . S
C874 C868 1.368 . S
C874 C873 1.523 . S
C875 C859 1.429 . S
C875 C871 1.429 . S
C875 C876 1.523 . S
C876 C860 1.368 . S
C876 C872 1.368 . S
C876 C875 1.523 . S
H877 C852 0.950 . S
H878 C854 0.950 . S
H879 C855 0.949 . S
H880 C857 0.950 . S
H881 C859 0.950 . S
C882 C883 1.349 . S
C882 C884 1.327 . S
C882 H907 0.950 . S
C883 C882 1.349 . S
C883 C899 1.349 . S
C884 C882 1.327 . S
C884 C903 1.429 . S
C884 H908 0.950 . S
C885 C902 1.574 . S
C885 C904 1.368 . S
C885 H909 0.949 . S
H886 C890 0.949 . S
C887 C888 1.349 . S
C887 C889 1.327 . S
C887 H910 0.950 . S
C888 C887 1.349 . S
C888 C900 1.349 . S
C889 C887 1.327 . S
C889 C905 1.429 . S
C889 H911 0.950 . S
C890 H886 0.949 . S
C890 C898 1.574 . S
C890 C906 1.368 . S
H891 C899 0.950 . S
H892 C897 0.950 . S
H893 C898 0.949 . S
H894 C900 0.950 . S
H895 C901 0.950 . S
H896 C902 0.949 . S
C897 H892 0.950 . S
C897 C899 1.327 . S
C897 C903 1.429 . S
C898 C890 1.574 . S
C898 H893 0.949 . S
C898 C904 1.368 . S
C899 C883 1.349 . S
C899 H891 0.950 . S
C899 C897 1.327 . S
C900 C888 1.349 . S
C900 H894 0.950 . S
C900 C901 1.327 . S
C901 H895 0.950 . S
C901 C900 1.327 . S
C901 C905 1.429 . S
C902 C885 1.574 . S
C902 H896 0.949 . S
C902 C906 1.368 . S
C903 C884 1.429 . S
C903 C897 1.429 . S
C903 C904 1.523 . S
C904 C885 1.368 . S
C904 C898 1.368 . S
C904 C903 1.523 . S
C905 C889 1.429 . S
C905 C901 1.429 . S
C905 C906 1.523 . S
C906 C890 1.368 . S
C906 C902 1.368 . S
C906 C905 1.523 . S
H907 C882 0.950 . S
H908 C884 0.950 . S
H909 C885 0.949 . S
H910 C887 0.950 . S
H911 C889 0.950 . S
C912 C913 1.349 . S
C912 C914 1.327 . S
C912 H937 0.950 . S
C913 C912 1.349 . S
C913 C929 1.349 . S
C914 C912 1.327 . S
C914 C933 1.429 . S
C914 H938 0.950 . S
C915 C932 1.574 . S
C915 C934 1.368 . S
C915 H939 0.949 . S
H916 C920 0.949 . S
C917 C918 1.349 . S
C917 C919 1.327 . S
C917 H940 0.950 . S
C918 C917 1.349 . S
C918 C930 1.349 . S
C919 C917 1.327 . S
C919 C935 1.429 . S
C919 H941 0.950 . S
C920 H916 0.949 . S
C920 C928 1.574 . S
C920 C936 1.368 . S
H921 C929 0.950 . S
H922 C927 0.950 . S
H923 C928 0.949 . S
H924 C930 0.950 . S
H925 C931 0.950 . S
H926 C932 0.949 . S
C927 H922 0.950 . S
C927 C929 1.327 . S
C927 C933 1.429 . S
C928 C920 1.574 . S
C928 H923 0.949 . S
C928 C934 1.368 . S
C929 C913 1.349 . S
C929 H921 0.950 . S
C929 C927 1.327 . S
C930 C918 1.349 . S
C930 H924 0.950 . S
C930 C931 1.327 . S
C931 H925 0.950 . S
C931 C930 1.327 . S
C931 C935 1.429 . S
C932 C915 1.574 . S
C932 H926 0.949 . S
C932 C936 1.368 . S
C933 C914 1.429 . S
C933 C927 1.429 . S
C933 C934 1.523 . S
C934 C915 1.368 . S
C934 C928 1.368 . S
C934 C933 1.523 . S
C935 C919 1.429 . S
C935 C931 1.429 . S
C935 C936 1.523 . S
C936 C920 1.368 . S
C936 C932 1.368 . S
C936 C935 1.523 . S
H937 C912 0.950 . S
H938 C914 0.950 . S
H939 C915 0.949 . S
H940 C917 0.950 . S
H941 C919 0.950 . S
C942 C943 1.349 . S
C942 C944 1.327 . S
C942 H967 0.950 . S
C943 C942 1.349 . S
C943 C959 1.349 . S
C944 C942 1.327 . S
C944 C963 1.429 . S
C944 H968 0.950 . S
C945 C962 1.574 . S
C945 C964 1.368 . S
C945 H969 0.949 . S
H946 C950 0.949 . S
C947 C948 1.349 . S
C947 C949 1.327 . S
C947 H970 0.950 . S
C948 C947 1.349 . S
C948 C960 1.349 . S
C949 C947 1.327 . S
C949 C965 1.429 . S
C949 H971 0.950 . S
C950 H946 0.949 . S
C950 C958 1.574 . S
C950 C966 1.368 . S
H951 C959 0.950 . S
H952 C957 0.950 . S
H953 C958 0.949 . S
H954 C960 0.950 . S
H955 C961 0.950 . S
H956 C962 0.949 . S
C957 H952 0.950 . S
C957 C959 1.327 . S
C957 C963 1.429 . S
C958 C950 1.574 . S
C958 H953 0.949 . S
C958 C964 1.368 . S
C959 C943 1.349 . S
C959 H951 0.950 . S
C959 C957 1.327 . S
C960 C948 1.349 . S
C960 H954 0.950 . S
C960 C961 1.327 . S
C961 H955 0.950 . S
C961 C960 1.327 . S
C961 C965 1.429 . S
C962 C945 1.574 . S
C962 H956 0.949 . S
C962 C966 1.368 . S
C963 C944 1.429 . S
C963 C957 1.429 . S
C963 C964 1.523 . S
C964 C945 1.368 . S
C964 C958 1.368 . S
C964 C963 1.523 . S
C965 C949 1.429 . S
C965 C961 1.429 . S
C965 C966 1.523 . S
C966 C950 1.368 . S
C966 C962 1.368 . S
C966 C965 1.523 . S
H967 C942 0.950 . S
H968 C944 0.950 . S
H969 C945 0.949 . S
H970 C947 0.950 . S
H971 C949 0.950 . S
C972 C973 1.349 . S
C972 C974 1.327 . S
C972 H997 0.950 . S
C973 C972 1.349 . S
C973 C989 1.349 . S
C974 C972 1.327 . S
C974 C993 1.429 . S
C974 H998 0.950 . S
C975 C992 1.574 . S
C975 C994 1.368 . S
C975 H999 0.949 . S
H976 C980 0.949 . S
C977 C978 1.349 . S
C977 C979 1.327 . S
C977 H1000 0.950 . S
C978 C977 1.349 . S
C978 C990 1.349 . S
C979 C977 1.327 . S
C979 C995 1.429 . S
C979 H1001 0.950 . S
C980 H976 0.949 . S
C980 C988 1.574 . S
C980 C996 1.368 . S
H981 C989 0.950 . S
H982 C987 0.950 . S
H983 C988 0.949 . S
H984 C990 0.950 . S
H985 C991 0.950 . S
H986 C992 0.949 . S
C987 H982 0.950 . S
C987 C989 1.327 . S
C987 C993 1.429 . S
C988 C980 1.574 . S
C988 H983 0.949 . S
C988 C994 1.368 . S
C989 C973 1.349 . S
C989 H981 0.950 . S
C989 C987 1.327 . S
C990 C978 1.349 . S
C990 H984 0.950 . S
C990 C991 1.327 . S
C991 H985 0.950 . S
C991 C990 1.327 . S
C991 C995 1.429 . S
C992 C975 1.574 . S
C992 H986 0.949 . S
C992 C996 1.368 . S
C993 C974 1.429 . S
C993 C987 1.429 . S
C993 C994 1.523 . S
C994 C975 1.368 . S
C994 C988 1.368 . S
C994 C993 1.523 . S
C995 C979 1.429 . S
C995 C991 1.429 . S
C995 C996 1.523 . S
C996 C980 1.368 . S
C996 C992 1.368 . S
C996 C995 1.523 . S
H997 C972 0.950 . S
H998 C974 0.950 . S
H999 C975 0.949 . S
H1000 C977 0.950 . S
H1001 C979 0.950 . S
C1002 C1003 1.349 . S
C1002 C1004 1.327 . S
C1002 H1027 0.950 . S
C1003 C1002 1.349 . S
C1003 C1019 1.349 . S
C1004 C1002 1.327 . S
C1004 C1023 1.429 . S
C1004 H1028 0.950 . S
C1005 C1022 1.574 . S
C1005 C1024 1.368 . S
C1005 H1029 0.949 . S
H1006 C1010 0.949 . S
C1007 C1008 1.349 . S
C1007 C1009 1.327 . S
C1007 H1030 0.950 . S
C1008 C1007 1.349 . S
C1008 C1020 1.349 . S
C1009 C1007 1.327 . S
C1009 C1025 1.429 . S
C1009 H1031 0.950 . S
C1010 H1006 0.949 . S
C1010 C1018 1.574 . S
C1010 C1026 1.368 . S
H1011 C1019 0.950 . S
H1012 C1017 0.950 . S
H1013 C1018 0.949 . S
H1014 C1020 0.950 . S
H1015 C1021 0.950 . S
H1016 C1022 0.949 . S
C1017 H1012 0.950 . S
C1017 C1019 1.327 . S
C1017 C1023 1.429 . S
C1018 C1010 1.574 . S
C1018 H1013 0.949 . S
C1018 C1024 1.368 . S
C1019 C1003 1.349 . S
C1019 H1011 0.950 . S
C1019 C1017 1.327 . S
C1020 C1008 1.349 . S
C1020 H1014 0.950 . S
C1020 C1021 1.327 . S
C1021 H1015 0.950 . S
C1021 C1020 1.327 . S
C1021 C1025 1.429 . S
C1022 C1005 1.574 . S
C1022 H1016 0.949 . S
C1022 C1026 1.368 . S
C1023 C1004 1.429 . S
C1023 C1017 1.429 . S
C1023 C1024 1.523 . S
C1024 C1005 1.368 . S
C1024 C1018 1.368 . S
C1024 C1023 1.523 . S
C1025 C1009 1.429 . S
C1025 C1021 1.429 . S
C1025 C1026 1.523 . S
C1026 C1010 1.368 . S
C1026 C1022 1.368 . S
C1026 C1025 1.523 . S
H1027 C1002 0.950 . S
H1028 C1004 0.950 . S
H1029 C1005 0.949 . S
H1030 C1007 0.950 . S
H1031 C1009 0.950 . S
C313 C6 1.227 . S
C318 C159 1.245 . S
C343 C21 1.548 . S
C348 C208 1.566 . S
C378 C234 1.665 . S
C373 C49 1.599 . S
C403 C68 1.943 . S
C408 C282 1.995 1_655 S
C438 C194 3.227 . S
C433 C2 3.138 . S
C468 C162 0.448 . S
C463 C30 0.496 . S
C498 C283 1.753 . S
C493 C40 1.778 . S
C528 C251 1.297 . S
C523 C63 1.302 . S
C553 C11 1.499 . S
C558 C279 1.641 . S
C588 C211 2.609 . S
C583 C44 2.681 . S
C613 C59 1.903 . S
C618 C163 1.908 . S
C643 C25 1.146 . S
C648 C248 1.130 . S
C678 C168 1.573 . S
C673 C82 1.568 . S
C703 C101 1.222 . S
C708 C199 1.225 . S
C733 C125 2.157 . S
C738 C243 2.284 . S
C763 C144 1.612 . S
C768 C291 1.697 . S
C793 C87 1.922 . S
C798 C203 2.049 1_565 S
C828 C171 1.979 . S
C823 C97 2.018 . S
C858 C274 1.555 . S
C853 C120 1.593 . S
C888 C242 1.325 . S
C883 C135 1.378 . S
C913 C78 2.036 . S
C918 C288 2.117 . S
C948 C202 1.810 . S
C943 C116 1.853 . S
C978 C154 2.656 . S
C973 C139 2.660 . S
C1003 C106 0.797 . S
C1008 C239 0.843 . S
