# Generated by pormake.
# Topology tsx, (6,3)-cn, num edge types: 1
# Building blocks:
#     Node 0, Type 0, BuildingBlock: FUNLAD_clean_sbu_0, # of connection points: 6
#     Node 1, Type 0, BuildingBlock: FUNLAD_clean_sbu_0, # of connection points: 6
#     Node 2, Type 1, BuildingBlock: BETDAH_clean_linker_0, # of connection points: 3
#     Node 3, Type 1, BuildingBlock: BETDAH_clean_linker_0, # of connection points: 3
#     Node 4, Type 1, BuildingBlock: BETDAH_clean_linker_0, # of connection points: 3
#     Node 5, Type 1, BuildingBlock: BETDAH_clean_linker_0, # of connection points: 3
#     Edge 6, Type (0, 1), BuildingBlock: TEMPAE_clean_linker_10, # of connection points: 2
#     Edge 7, Type (0, 1), BuildingBlock: TEMPAE_clean_linker_10, # of connection points: 2
#     Edge 8, Type (0, 1), BuildingBlock: TEMPAE_clean_linker_10, # of connection points: 2
#     Edge 9, Type (0, 1), BuildingBlock: TEMPAE_clean_linker_10, # of connection points: 2
#     Edge 10, Type (0, 1), BuildingBlock: TEMPAE_clean_linker_10, # of connection points: 2
#     Edge 11, Type (0, 1), BuildingBlock: TEMPAE_clean_linker_10, # of connection points: 2
#     Edge 12, Type (0, 1), BuildingBlock: TEMPAE_clean_linker_10, # of connection points: 2
#     Edge 13, Type (0, 1), BuildingBlock: TEMPAE_clean_linker_10, # of connection points: 2
#     Edge 14, Type (0, 1), BuildingBlock: TEMPAE_clean_linker_10, # of connection points: 2
#     Edge 15, Type (0, 1), BuildingBlock: TEMPAE_clean_linker_10, # of connection points: 2
#     Edge 16, Type (0, 1), BuildingBlock: TEMPAE_clean_linker_10, # of connection points: 2
#     Edge 17, Type (0, 1), BuildingBlock: TEMPAE_clean_linker_10, # of connection points: 2
# Relax obj value: 0.108
# Max RMSD: 0.112
# Mean RMSD: 0.108
data_MOF--net-tsx--node1-FUNLAD_clean_sbu_0--node2-BETDAH_clean_linker_0--edge1-TEMPAE_clean_linker_10
_symmetry_space_group_name_H-M    P1
_symmetry_Int_Tables_number       1
_symmetry_cell_setting            triclinic
loop_
_symmetry_equiv_pos_as_xyz
'x, y, z'
_cell_length_a     19.735583
_cell_length_b     21.778934
_cell_length_c     39.487476
_cell_angle_alpha  90.841872
_cell_angle_beta   101.74911
_cell_angle_gamma 90.044525
loop_
_atom_site_label
_atom_site_type_symbol
_atom_site_fract_x
_atom_site_fract_y
_atom_site_fract_z
_atom_type_partial_charge
C0 C 0.89545 0.8892 0.9932 0.0
N1 N 0.03058 0.97778 0.07549 0.0
C2 C 0.9749 0.98502 0.09054 0.0
C3 C 0.98358 0.98995 0.12635 0.0
C4 C 0.05022 0.98657 0.14718 0.0
C5 C 0.10682 0.97796 0.13099 0.0
C6 C 0.09579 0.97389 0.09489 0.0
Zn7 Zn 0.01255 0.97828 0.02275 0.0
C8 C 0.09182 0.88878 0.99173 0.0
N9 N 0.96074 0.98607 0.91314 0.0
C10 C 0.89599 0.99054 0.89321 0.0
C11 C 0.01802 0.99505 0.89956 0.0
C12 C 0.01165 0.01266 0.86533 0.0
C13 C 0.94575 0.02007 0.84462 0.0
C14 C 0.88726 0.00704 0.85842 0.0
Zn15 Zn 0.97785 0.97927 0.96583 0.0
O16 O 0.93131 0.91356 0.02055 0.0
C17 C 0.90193 0.07074 0.99652 0.0
O18 O 0.90472 0.9067 0.96383 0.0
H19 H 0.06903 0.99137 0.91577 0.0
H20 H 0.9235 0.98817 0.07467 0.0
H21 H 0.85119 0.98381 0.90461 0.0
O22 O 0.94425 0.05319 0.0232 0.0
O23 O 0.90038 0.04408 0.96762 0.0
H24 H 0.13934 0.96829 0.08235 0.0
O25 O 0.04957 0.05364 0.96912 0.0
O26 O 0.09284 0.04198 0.02436 0.0
O27 O 0.05696 0.91363 0.96477 0.0
O28 O 0.08205 0.90563 0.02131 0.0
C29 C 0.09246 0.06962 0.99631 0.0
H30 H 0.93846 0.99758 0.1375 0.0
H31 H 0.15903 0.97419 0.146 0.0
H32 H 0.05782 0.02152 0.85528 0.0
H33 H 0.83562 0.01213 0.84294 0.0
C34 C 0.45518 0.40754 0.50929 0.0
N35 N 0.57941 0.50615 0.59113 0.0
C36 C 0.52271 0.51332 0.60546 0.0
C37 C 0.53021 0.52603 0.6407 0.0
C38 C 0.59661 0.53017 0.66152 0.0
C39 C 0.65434 0.51972 0.64659 0.0
C40 C 0.64451 0.50832 0.61094 0.0
Zn41 Zn 0.5632 0.50182 0.53836 0.0
C42 C 0.65275 0.41584 0.51012 0.0
N43 N 0.51908 0.50189 0.42814 0.0
C44 C 0.45408 0.50189 0.40829 0.0
C45 C 0.57569 0.5089 0.41381 0.0
C46 C 0.56821 0.51781 0.37837 0.0
C47 C 0.50179 0.51935 0.35725 0.0
C48 C 0.4442 0.51052 0.37259 0.0
Zn49 Zn 0.53498 0.50071 0.48092 0.0
O50 O 0.489 0.43202 0.53705 0.0
C51 C 0.44661 0.58751 0.50791 0.0
O52 O 0.46486 0.42629 0.48024 0.0
H53 H 0.6269 0.50946 0.43006 0.0
H54 H 0.4714 0.51099 0.58937 0.0
H55 H 0.40978 0.49657 0.42024 0.0
O56 O 0.48511 0.57096 0.5361 0.0
O57 O 0.4545 0.56273 0.47974 0.0
H58 H 0.68884 0.50296 0.59896 0.0
O59 O 0.6026 0.57659 0.48278 0.0
O60 O 0.63632 0.57169 0.53918 0.0
O61 O 0.61697 0.43805 0.48261 0.0
O62 O 0.6412 0.4335 0.5393 0.0
C63 C 0.6394 0.59686 0.51082 0.0
H64 H 0.48456 0.53286 0.65158 0.0
H65 H 0.7063 0.52231 0.6621 0.0
H66 H 0.61404 0.52508 0.36779 0.0
H67 H 0.39208 0.51038 0.3572 0.0
H68 H 0.18252 0.94672 0.42005 0.0
H69 H 0.97802 0.025 0.39712 0.0
H70 H 0.04652 0.92923 0.4916 0.0
C71 C 0.13411 0.95767 0.42762 0.0
C72 C 0.12162 0.93534 0.45899 0.0
C73 C 0.08229 0.98877 0.40445 0.0
C74 C 0.0197 0.00267 0.41471 0.0
C75 C 0.00772 0.9822 0.44643 0.0
C76 C 0.05788 0.94763 0.46803 0.0
N77 N 0.94186 0.98877 0.45471 0.0
C78 C 0.91628 0.04557 0.46205 0.0
H79 H 0.85086 0.02866 0.59907 0.0
H80 H 0.0484 0.10506 0.59141 0.0
H81 H 0.95632 0.96317 0.52093 0.0
C82 C 0.89309 0.03238 0.58545 0.0
C83 C 0.89465 0.99322 0.55713 0.0
C84 C 0.94951 0.07109 0.59881 0.0
C85 C 0.00439 0.0758 0.58108 0.0
C86 C 0.00485 0.03827 0.55184 0.0
C87 C 0.95167 0.99587 0.54117 0.0
N88 N 0.06051 0.03748 0.53421 0.0
C89 C 0.10644 0.08555 0.53427 0.0
H90 H 0.68255 0.49462 0.91401 0.0
H91 H 0.47719 0.56244 0.91178 0.0
H92 H 0.55921 0.42085 0.9821 0.0
C93 C 0.63617 0.49538 0.92469 0.0
C94 C 0.62959 0.45473 0.95115 0.0
C95 C 0.58034 0.53235 0.90933 0.0
C96 C 0.52053 0.53411 0.92349 0.0
C97 C 0.51436 0.49496 0.95064 0.0
C98 C 0.56749 0.45413 0.96323 0.0
N99 N 0.45329 0.49201 0.96407 0.0
C100 C 0.41044 0.54194 0.96515 0.0
H101 H 0.33184 0.48214 0.08866 0.0
H102 H 0.54335 0.54179 0.10002 0.0
H103 H 0.458 0.41573 0.01901 0.0
C104 C 0.38021 0.48171 0.07974 0.0
C105 C 0.38692 0.44425 0.05134 0.0
C106 C 0.43766 0.51321 0.09928 0.0
C107 C 0.49819 0.51774 0.08573 0.0
C108 C 0.50341 0.48494 0.05552 0.0
C109 C 0.44958 0.44595 0.03975 0.0
N110 N 0.56573 0.48407 0.04314 0.0
C111 C 0.599 0.53719 0.0363 0.0
C112 C 0.2049 0.12502 0.0111 0.0
C113 C 0.13426 0.12525 0.99645 0.0
C114 C 0.24341 0.1797 0.01465 0.0
C115 C 0.20942 0.23595 0.0048 0.0
C116 C 0.13812 0.23599 0.98928 0.0
C117 C 0.1016 0.18024 0.98471 0.0
C118 C 0.31978 0.1776 0.0304 0.0
C119 C 0.09927 0.29505 0.97985 0.0
C120 C 0.29621 0.3683 0.05971 0.0
C121 C 0.33328 0.39692 0.03741 0.0
C122 C 0.25207 0.31855 0.04852 0.0
C123 C 0.2469 0.29473 0.0146 0.0
C124 C 0.28191 0.3243 0.99145 0.0
C125 C 0.32366 0.3758 0.00294 0.0
C126 C 0.21372 0.28956 0.07371 0.0
C127 C 0.27843 0.29954 0.95524 0.0
H128 H 0.22973 0.08219 0.0201 0.0
H129 H 0.04648 0.18009 0.97385 0.0
H130 H 0.34953 0.20489 0.01485 0.0
H131 H 0.32928 0.1982 0.05681 0.0
H132 H 0.33995 0.12989 0.03222 0.0
H133 H 0.04625 0.2867 0.96446 0.0
H134 H 0.09491 0.3205 0.00387 0.0
H135 H 0.12763 0.32502 0.96497 0.0
H136 H 0.30381 0.38259 0.0866 0.0
H137 H 0.35053 0.39819 0.98515 0.0
H138 H 0.23687 0.24431 0.0817 0.0
H139 H 0.15866 0.28154 0.06132 0.0
H140 H 0.21579 0.31849 0.09731 0.0
H141 H 0.30459 0.25428 0.95652 0.0
H142 H 0.30375 0.33071 0.93951 0.0
H143 H 0.2239 0.29212 0.94184 0.0
C144 C 0.15391 0.82293 0.9557 0.0
C145 C 0.14235 0.84008 0.98843 0.0
C146 C 0.19989 0.77555 0.9519 0.0
C147 C 0.23509 0.74454 0.98153 0.0
C148 C 0.22463 0.76222 0.01471 0.0
C149 C 0.17834 0.80987 0.01778 0.0
C150 C 0.21 0.75804 0.9161 0.0
C151 C 0.26143 0.73011 0.04688 0.0
C152 C 0.29657 0.58277 0.96836 0.0
C153 C 0.36652 0.59294 0.96873 0.0
C154 C 0.25313 0.63188 0.97268 0.0
C155 C 0.28096 0.69211 0.97758 0.0
C156 C 0.35212 0.7022 0.97813 0.0
C157 C 0.39431 0.65212 0.97373 0.0
C158 C 0.17755 0.61937 0.9719 0.0
C159 C 0.38366 0.76566 0.9835 0.0
H160 H 0.12656 0.84621 0.9329 0.0
H161 H 0.16981 0.82295 0.04317 0.0
H162 H 0.26566 0.76077 0.91503 0.0
H163 H 0.19316 0.70982 0.90998 0.0
H164 H 0.18043 0.78807 0.89584 0.0
H165 H 0.24948 0.75084 0.07085 0.0
H166 H 0.24617 0.68095 0.04551 0.0
H167 H 0.31822 0.7319 0.04864 0.0
H168 H 0.27595 0.5364 0.96477 0.0
H169 H 0.44896 0.65915 0.97429 0.0
H170 H 0.14497 0.64526 0.95064 0.0
H171 H 0.16395 0.63547 0.99645 0.0
H172 H 0.16438 0.56979 0.96814 0.0
H173 H 0.35471 0.79759 0.96417 0.0
H174 H 0.43892 0.76599 0.98137 0.0
H175 H 0.37987 0.78366 0.00947 0.0
C176 C 0.84332 0.81673 0.02915 0.0
C177 C 0.84567 0.83948 0.99632 0.0
C178 C 0.79924 0.76814 0.03316 0.0
C179 C 0.75559 0.74168 0.00366 0.0
C180 C 0.75651 0.76497 0.97043 0.0
C181 C 0.80185 0.81352 0.96712 0.0
C182 C 0.80042 0.74435 0.06904 0.0
C183 C 0.71032 0.73809 0.93843 0.0
C184 C 0.69985 0.57862 0.01705 0.0
C185 C 0.63588 0.58845 0.0261 0.0
C186 C 0.73802 0.62792 0.008 0.0
C187 C 0.71113 0.68825 0.00802 0.0
C188 C 0.64481 0.69772 0.01579 0.0
C189 C 0.60781 0.64741 0.0248 0.0
C190 C 0.80835 0.61568 -0.00012 0.0
C191 C 0.61394 0.76111 0.0156 0.0
H192 H 0.87694 0.83628 0.05192 0.0
H193 H 0.80318 0.83088 0.94168 0.0
H194 H 0.74788 0.74687 0.07494 0.0
H195 H 0.81606 0.69537 0.07038 0.0
H196 H 0.83672 0.77057 0.08935 0.0
H197 H 0.71499 0.76302 0.91466 0.0
H198 H 0.7237 0.68921 0.93514 0.0
H199 H 0.65551 0.73933 0.94121 0.0
H200 H 0.7206 0.53244 0.01765 0.0
H201 H 0.55752 0.65427 0.03132 0.0
H202 H 0.84897 0.63657 0.02043 0.0
H203 H 0.81257 0.6372 0.97511 0.0
H204 H 0.81902 0.56578 0.99808 0.0
H205 H 0.64696 0.79067 0.03547 0.0
H206 H 0.56078 0.7603 0.0209 0.0
H207 H 0.61221 0.78265 0.99015 0.0
C208 C 0.90182 0.18168 0.00962 0.0
C209 C 0.86447 0.12828 0.99766 0.0
C210 C 0.86994 0.23928 0.00568 0.0
C211 C 0.79863 0.24275 0.9906 0.0
C212 C 0.75995 0.1883 0.98038 0.0
C213 C 0.79389 0.13157 0.9833 0.0
C214 C 0.91353 0.29631 0.01547 0.0
C215 C 0.68335 0.19015 0.96509 0.0
C216 C 0.69403 0.38629 0.99729 0.0
C217 C 0.68292 0.40733 0.96315 0.0
C218 C 0.73373 0.33378 0.00714 0.0
C219 C 0.76526 0.30313 0.98261 0.0
C220 C 0.75952 0.32726 0.9491 0.0
C221 C 0.71741 0.37837 0.93956 0.0
C222 C 0.73801 0.30888 0.04299 0.0
C223 C 0.79452 0.29698 0.92258 0.0
H224 H 0.95696 0.17868 0.02009 0.0
H225 H 0.7656 0.08991 0.97397 0.0
H226 H 0.9182 0.32099 0.99166 0.0
H227 H 0.88862 0.32809 0.03139 0.0
H228 H 0.96644 0.28546 0.02997 0.0
H229 H 0.6596 0.1436 0.96233 0.0
H230 H 0.65626 0.21896 0.98155 0.0
H231 H 0.6747 0.21121 0.93917 0.0
H232 H 0.66923 0.40932 0.016 0.0
H233 H 0.70886 0.39335 0.913 0.0
H234 H 0.79247 0.29906 0.05539 0.0
H235 H 0.70901 0.26486 0.04115 0.0
H236 H 0.71599 0.34111 0.05994 0.0
H237 H 0.84925 0.28634 0.93414 0.0
H238 H 0.79325 0.32631 0.89968 0.0
H239 H 0.76807 0.25295 0.91365 0.0
C240 C 0.74475 0.66224 0.52127 0.0
C241 C 0.673 0.65658 0.51149 0.0
C242 C 0.77588 0.72048 0.5254 0.0
C243 C 0.73358 0.77356 0.52097 0.0
C244 C 0.6609 0.76765 0.5107 0.0
C245 C 0.63149 0.70892 0.50558 0.0
C246 C 0.85375 0.72521 0.53545 0.0
C247 C 0.61406 0.82303 0.50691 0.0
C248 C 0.81923 0.91004 0.57257 0.0
C249 C 0.84274 0.94342 0.54708 0.0
C250 C 0.7798 0.8565 0.564 0.0
C251 C 0.76544 0.8349 0.5293 0.0
C252 C 0.78587 0.86985 0.50319 0.0
C253 C 0.82318 0.92436 0.51234 0.0
C254 C 0.7568 0.82134 0.5924 0.0
C255 C 0.77226 0.84781 0.46597 0.0
H256 H 0.77621 0.62124 0.52598 0.0
H257 H 0.57566 0.70375 0.49857 0.0
H258 H 0.87357 0.75694 0.51795 0.0
H259 H 0.86899 0.74443 0.56209 0.0
H260 H 0.8792 0.6799 0.53452 0.0
H261 H 0.55895 0.81055 0.49684 0.0
H262 H 0.61827 0.84629 0.53245 0.0
H263 H 0.63021 0.85669 0.48927 0.0
H264 H 0.83457 0.9237 0.59954 0.0
H265 H 0.83971 0.95068 0.49241 0.0
H266 H 0.78694 0.77826 0.59724 0.0
H267 H 0.70137 0.80839 0.58454 0.0
H268 H 0.76426 0.84826 0.61701 0.0
H269 H 0.80256 0.80549 0.46391 0.0
H270 H 0.78684 0.88269 0.44845 0.0
H271 H 0.71685 0.83586 0.4569 0.0
C272 C 0.73392 0.33183 0.53585 0.0
C273 C 0.70407 0.36733 0.5073 0.0
C274 C 0.77616 0.28123 0.53189 0.0
C275 C 0.78855 0.26603 0.49868 0.0
C276 C 0.76151 0.30368 0.47025 0.0
C277 C 0.71977 0.35376 0.47491 0.0
C278 C 0.80499 0.24248 0.56287 0.0
C279 C 0.77407 0.28945 0.43447 0.0
C280 C 0.92615 0.15285 0.48314 0.0
C281 C 0.88568 0.10069 0.47251 0.0
C282 C 0.89584 0.20683 0.49305 0.0
C283 C 0.82377 0.20778 0.49251 0.0
C284 C 0.78355 0.154 0.48284 0.0
C285 C 0.81519 0.10097 0.47295 0.0
C286 C 0.9407 0.26279 0.50372 0.0
C287 C 0.70663 0.15302 0.4818 0.0
H288 H 0.72234 0.34219 0.56099 0.0
H289 H 0.69775 0.38135 0.45277 0.0
H290 H 0.77989 0.19657 0.5597 0.0
H291 H 0.8613 0.23521 0.56488 0.0
H292 H 0.79649 0.2637 0.58742 0.0
H293 H 0.75327 0.32556 0.41562 0.0
H294 H 0.83033 0.28461 0.43526 0.0
H295 H 0.74908 0.24507 0.42496 0.0
H296 H 0.98118 0.15158 0.48337 0.0
H297 H 0.78461 0.05982 0.46519 0.0
H298 H 0.94519 0.27173 0.53182 0.0
H299 H 0.91703 0.30398 0.48993 0.0
H300 H 0.99354 0.25691 0.49848 0.0
H301 H 0.69593 0.16877 0.50702 0.0
H302 H 0.68376 0.10653 0.47573 0.0
H303 H 0.68018 0.18516 0.46186 0.0
C304 C 0.35615 0.3391 0.48193 0.0
C305 C 0.40419 0.35862 0.51136 0.0
C306 C 0.30589 0.29453 0.48435 0.0
C307 C 0.30426 0.26866 0.51688 0.0
C308 C 0.35322 0.28761 0.54653 0.0
C309 C 0.40236 0.33248 0.54344 0.0
C310 C 0.25416 0.27553 0.45222 0.0
C311 C 0.35361 0.26062 0.5816 0.0
C312 C 0.14068 0.19384 0.53375 0.0
C313 C 0.1559 0.13179 0.53033 0.0
C314 C 0.18797 0.23922 0.52863 0.0
C315 C 0.25169 0.22147 0.52015 0.0
C316 C 0.2666 0.15841 0.51644 0.0
C317 C 0.21814 0.11417 0.5215 0.0
C318 C 0.17008 0.30596 0.53257 0.0
C319 C 0.33398 0.13765 0.50758 0.0
H320 H 0.35711 0.35932 0.45711 0.0
H321 H 0.43948 0.34709 0.56631 0.0
H322 H 0.25764 0.22539 0.44755 0.0
H323 H 0.20085 0.285 0.45587 0.0
H324 H 0.26243 0.29998 0.4289 0.0
H325 H 0.39573 0.2799 0.60203 0.0
H326 H 0.30338 0.26954 0.58921 0.0
H327 H 0.36003 0.21007 0.58046 0.0
H328 H 0.09188 0.20677 0.54037 0.0
H329 H 0.22889 0.06574 0.51855 0.0
H330 H 0.17387 0.33116 0.50881 0.0
H331 H 0.20768 0.32734 0.55428 0.0
H332 H 0.11711 0.31201 0.53763 0.0
H333 H 0.34097 0.15903 0.4832 0.0
H334 H 0.33649 0.08695 0.50457 0.0
H335 H 0.37794 0.15289 0.52823 0.0
C336 C 0.39023 0.6694 0.53786 0.0
C337 C 0.39644 0.63801 0.50734 0.0
C338 C 0.34622 0.72034 0.53686 0.0
C339 C 0.30809 0.74021 0.5046 0.0
C340 C 0.3133 0.70795 0.47385 0.0
C341 C 0.35719 0.65723 0.47563 0.0
C342 C 0.34143 0.75346 0.57012 0.0
C343 C 0.27335 0.72762 0.43888 0.0
C344 C 0.14592 0.83554 0.48933 0.0
C345 C 0.17072 0.8912 0.47903 0.0
C346 C 0.19124 0.78738 0.50108 0.0
C347 C 0.26286 0.79501 0.50223 0.0
C348 C 0.28882 0.85294 0.495 0.0
C349 C 0.24232 0.90051 0.48355 0.0
C350 C 0.16158 0.72654 0.50896 0.0
C351 C 0.36497 0.86306 0.49622 0.0
H352 H 0.4205 0.65481 0.56246 0.0
H353 H 0.36162 0.63325 0.45192 0.0
H354 H 0.36167 0.80093 0.5698 0.0
H355 H 0.28659 0.75708 0.57262 0.0
H356 H 0.37115 0.72997 0.59323 0.0
H357 H 0.28294 0.69723 0.41752 0.0
H358 H 0.21703 0.72742 0.43863 0.0
H359 H 0.28799 0.77524 0.43369 0.0
H360 H 0.09065 0.82775 0.48577 0.0
H361 H 0.26174 0.94394 0.47628 0.0
H362 H 0.19403 0.70583 0.53222 0.0
H363 H 0.16084 0.69421 0.48689 0.0
H364 H 0.10784 0.73128 0.51316 0.0
H365 H 0.39671 0.84292 0.51985 0.0
H366 H 0.37801 0.91261 0.49555 0.0
H367 H 0.37959 0.83974 0.47358 0.0
C368 C 0.01162 0.96577 0.20257 0.0
C369 C 0.05999 0.99212 0.18548 0.0
C370 C 0.01886 0.97147 0.2385 0.0
C371 C 0.07666 0.00331 0.25806 0.0
C372 C 0.12587 0.02997 0.24112 0.0
C373 C 0.11674 0.02437 0.20498 0.0
C374 C 0.96509 0.94248 0.2556 0.0
C375 C 0.18861 0.06353 0.26123 0.0
C376 C 0.05971 0.04875 0.34917 0.0
C377 C 0.08932 -0.00216 0.36798 0.0
C378 C 0.05781 0.05271 0.3135 0.0
C379 C 0.08711 0.00509 0.2964 0.0
C380 C 0.12059 0.9555 0.31557 0.0
C381 C 0.12052 0.95208 0.35092 0.0
C382 C 0.02121 0.10611 0.29381 0.0
C383 C 0.15316 0.90408 0.29838 0.0
H384 H 0.96832 0.93979 0.18791 0.0
H385 H 0.15385 0.04569 0.19199 0.0
H386 H 0.98905 0.90535 0.27293 0.0
H387 H 0.94467 0.97706 0.27182 0.0
H388 H 0.92102 0.92269 0.23649 0.0
H389 H 0.22087 0.0834 0.24409 0.0
H390 H 0.17243 0.10106 0.27711 0.0
H391 H 0.22094 0.03155 0.27929 0.0
H392 H 0.0363 0.08472 0.36213 0.0
H393 H 0.14215 0.91169 0.36474 0.0
H394 H 0.97304 0.08951 0.27644 0.0
H395 H 0.05406 0.12684 0.27729 0.0
H396 H 0.00736 0.14229 0.31131 0.0
H397 H 0.11205 0.87654 0.28147 0.0
H398 H 0.18431 0.87297 0.31752 0.0
H399 H 0.18703 0.9229 0.28178 0.0
C400 C 0.90719 0.00621 0.78082 0.0
C401 C 0.93923 0.04258 0.80901 0.0
C402 C 0.90882 0.02348 0.74689 0.0
C403 C 0.94198 0.07912 0.74118 0.0
C404 C 0.97067 0.11778 0.76958 0.0
C405 C 0.96982 0.09858 0.80327 0.0
C406 C 0.87831 0.98056 0.7173 0.0
C407 C 0.00461 0.17815 0.76452 0.0
C408 C 0.01345 0.07072 0.65954 0.0
C409 C 0.9574 0.09263 0.63511 0.0
C410 C 0.01127 0.07014 0.69477 0.0
C411 C 0.95213 0.09319 0.7058 0.0
C412 C 0.89905 0.12191 0.68172 0.0
C413 C 0.90197 0.12074 0.64647 0.0
C414 C 0.06894 0.03884 0.71951 0.0
C415 C 0.83638 0.14903 0.69264 0.0
H416 H 0.88386 0.96284 0.78543 0.0
H417 H 0.99411 0.12685 0.82524 0.0
H418 H 0.84028 0.00527 0.69767 0.0
H419 H 0.91988 0.96371 0.70441 0.0
H420 H 0.85214 0.94029 0.72601 0.0
H421 H 0.01481 0.20682 0.78854 0.0
H422 H 0.05459 0.16947 0.75662 0.0
H423 H 0.97163 0.20446 0.74358 0.0
H424 H 0.05598 0.04829 0.65078 0.0
H425 H 0.85864 0.1378 0.62754 0.0
H426 H 0.04972 0.99455 0.72753 0.0
H427 H 0.0861 0.06732 0.7432 0.0
H428 H 0.1144 0.02942 0.70765 0.0
H429 H 0.80085 0.11149 0.69654 0.0
H430 H 0.80771 0.18029 0.67277 0.0
H431 H 0.85144 0.17475 0.71751 0.0
C432 C 0.63695 0.50357 0.72347 0.0
C433 C 0.60457 0.54509 0.69871 0.0
C434 C 0.63612 0.51296 0.75861 0.0
C435 C 0.60339 0.56585 0.76912 0.0
C436 C 0.57492 0.61004 0.74437 0.0
C437 C 0.57494 0.59865 0.70931 0.0
C438 C 0.66629 0.4643 0.78413 0.0
C439 C 0.54149 0.66778 0.75468 0.0
C440 C 0.52531 0.53746 0.84721 0.0
C441 C 0.57911 0.55623 0.87431 0.0
C442 C 0.53098 0.54367 0.81267 0.0
C443 C 0.59146 0.57038 0.80504 0.0
C444 C 0.64308 0.59471 0.8322 0.0
C445 C 0.6367 0.58664 0.86666 0.0
C446 C 0.47489 0.51661 0.78456 0.0
C447 C 0.70715 0.62543 0.82507 0.0
H448 H 0.65962 0.46212 0.71511 0.0
H449 H 0.55049 0.631 0.69002 0.0
H450 H 0.70325 0.48523 0.80622 0.0
H451 H 0.62425 0.44257 0.7947 0.0
H452 H 0.6935 0.42788 0.77216 0.0
H453 H 0.53235 0.70182 0.73356 0.0
H454 H 0.49099 0.65621 0.76123 0.0
H455 H 0.57425 0.68931 0.77802 0.0
H456 H 0.48117 0.51312 0.853 0.0
H457 H 0.67827 0.60131 0.88763 0.0
H458 H 0.49559 0.47624 0.77255 0.0
H459 H 0.45792 0.55047 0.76389 0.0
H460 H 0.42898 0.50165 0.7946 0.0
H461 H 0.74314 0.58994 0.81878 0.0
H462 H 0.73456 0.65262 0.84779 0.0
H463 H 0.69399 0.65612 0.80251 0.0
C464 C 0.53779 0.50193 0.3006 0.0
C465 C 0.49297 0.52996 0.31948 0.0
C466 C 0.52886 0.5095 0.26478 0.0
C467 C 0.47338 0.54561 0.24727 0.0
C468 C 0.42942 0.57589 0.26628 0.0
C469 C 0.43972 0.56769 0.30219 0.0
C470 C 0.57683 0.47625 0.24545 0.0
C471 C 0.36975 0.61476 0.24852 0.0
C472 C 0.47741 0.57862 0.15326 0.0
C473 C 0.43865 0.52896 0.1363 0.0
C474 C 0.48669 0.58676 0.18937 0.0
C475 C 0.45629 0.54438 0.20881 0.0
C476 C 0.41417 0.49631 0.19163 0.0
C477 C 0.40647 0.48889 0.15585 0.0
C478 C 0.5318 0.63872 0.20686 0.0
C479 C 0.38054 0.45011 0.21129 0.0
H480 H 0.57867 0.47227 0.31364 0.0
H481 H 0.40572 0.59053 0.3167 0.0
H482 H 0.54788 0.4393 0.22893 0.0
H483 H 0.59686 0.50823 0.22817 0.0
H484 H 0.62146 0.45525 0.26319 0.0
H485 H 0.34578 0.64117 0.26728 0.0
H486 H 0.3872 0.64735 0.23069 0.0
H487 H 0.32953 0.5848 0.23271 0.0
H488 H 0.50205 0.61014 0.1385 0.0
H489 H 0.37801 0.44921 0.14357 0.0
H490 H 0.58114 0.61988 0.22157 0.0
H491 H 0.50629 0.66326 0.22565 0.0
H492 H 0.54397 0.6722 0.18798 0.0
H493 H 0.42103 0.42167 0.22738 0.0
H494 H 0.34414 0.41905 0.19379 0.0
H495 H 0.35179 0.47389 0.229 0.0
loop_
_geom_bond_atom_site_label_1
_geom_bond_atom_site_label_2
_geom_bond_distance
_geom_bond_site_symmetry_2
_ccdc_geom_bond_type
C0 O16 1.251 . S
C0 O18 1.254 1_554 S
N1 C2 1.333 1_445 S
N1 C6 1.307 . S
N1 Zn7 2.020 . S
C2 N1 1.333 1_665 S
C2 C3 1.379 . S
C2 H20 0.952 . S
C3 C2 1.379 . S
C3 C4 1.390 1_665 S
C3 H30 0.949 . S
C4 C3 1.390 1_445 S
C4 C5 1.357 . S
C5 C4 1.357 . S
C5 C6 1.370 . S
C5 H31 0.950 . S
C6 N1 1.307 . S
C6 C5 1.370 . S
C6 H24 0.948 . S
Zn7 N1 2.020 . S
Zn7 O16 2.039 1_445 S
Zn7 O22 2.034 1_455 S
Zn7 O26 2.025 . S
Zn7 O28 2.024 1_545 S
C8 O27 1.246 1_554 S
C8 O28 1.249 . S
N9 C10 1.309 1_545 S
N9 C11 1.331 1_655 S
N9 Zn15 2.020 1_655 S
C10 N9 1.309 1_565 S
C10 C14 1.370 . S
C10 H21 0.948 . S
C11 N9 1.331 1_455 S
C11 C12 1.379 . S
C11 H19 0.952 . S
C12 C11 1.379 . S
C12 C13 1.390 1_455 S
C12 H32 0.949 . S
C13 C12 1.390 1_655 S
C13 C14 1.357 1_545 S
C14 C10 1.370 . S
C14 C13 1.357 1_565 S
C14 H33 0.950 . S
Zn15 N9 2.020 1_455 S
Zn15 O18 2.025 1_445 S
Zn15 O23 2.024 1_455 S
Zn15 O25 2.039 . S
Zn15 O27 2.034 1_545 S
O16 C0 1.251 . S
O16 Zn7 2.039 1_665 S
C17 O22 1.246 . S
C17 O23 1.249 1_554 S
O18 C0 1.254 1_556 S
O18 Zn15 2.025 1_665 S
H19 C11 0.952 . S
H20 C2 0.952 . S
H21 C10 0.948 . S
O22 Zn7 2.034 1_655 S
O22 C17 1.246 . S
O23 Zn15 2.024 1_655 S
O23 C17 1.249 1_556 S
H24 C6 0.948 . S
O25 Zn15 2.039 . S
O25 C29 1.251 1_556 S
O26 Zn7 2.025 . S
O26 C29 1.254 . S
O27 C8 1.246 1_556 S
O27 Zn15 2.034 1_565 S
O28 Zn7 2.024 1_565 S
O28 C8 1.249 . S
C29 O25 1.251 1_554 S
C29 O26 1.254 . S
H30 C3 0.949 . S
H31 C5 0.950 . S
H32 C12 0.949 . S
H33 C14 0.950 . S
C34 O50 1.251 . S
C34 O52 1.254 . S
N35 C36 1.333 . S
N35 C40 1.307 . S
N35 Zn41 2.020 . S
C36 N35 1.333 . S
C36 C37 1.379 . S
C36 H54 0.952 . S
C37 C36 1.379 . S
C37 C38 1.390 . S
C37 H64 0.949 . S
C38 C37 1.390 . S
C38 C39 1.357 . S
C39 C38 1.357 . S
C39 C40 1.370 . S
C39 H65 0.950 . S
C40 N35 1.307 . S
C40 C39 1.370 . S
C40 H58 0.948 . S
Zn41 N35 2.020 . S
Zn41 O50 2.039 . S
Zn41 O56 2.034 . S
Zn41 O60 2.025 . S
Zn41 O62 2.024 . S
C42 O61 1.246 . S
C42 O62 1.249 . S
N43 C44 1.307 . S
N43 C45 1.333 . S
N43 Zn49 2.020 . S
C44 N43 1.307 . S
C44 C48 1.370 . S
C44 H55 0.948 . S
C45 N43 1.333 . S
C45 C46 1.379 . S
C45 H53 0.952 . S
C46 C45 1.379 . S
C46 C47 1.390 . S
C46 H66 0.949 . S
C47 C46 1.390 . S
C47 C48 1.357 . S
C48 C44 1.370 . S
C48 C47 1.357 . S
C48 H67 0.950 . S
Zn49 N43 2.020 . S
Zn49 O52 2.025 . S
Zn49 O57 2.024 . S
Zn49 O59 2.039 . S
Zn49 O61 2.034 . S
O50 C34 1.251 . S
O50 Zn41 2.039 . S
C51 O56 1.246 . S
C51 O57 1.249 . S
O52 C34 1.254 . S
O52 Zn49 2.025 . S
H53 C45 0.952 . S
H54 C36 0.952 . S
H55 C44 0.948 . S
O56 Zn41 2.034 . S
O56 C51 1.246 . S
O57 Zn49 2.024 . S
O57 C51 1.249 . S
H58 C40 0.948 . S
O59 Zn49 2.039 . S
O59 C63 1.251 . S
O60 Zn41 2.025 . S
O60 C63 1.254 . S
O61 C42 1.246 . S
O61 Zn49 2.034 . S
O62 Zn41 2.024 . S
O62 C42 1.249 . S
C63 O59 1.251 . S
C63 O60 1.254 . S
H64 C37 0.949 . S
H65 C39 0.950 . S
H66 C46 0.949 . S
H67 C48 0.950 . S
H68 C71 0.929 . S
H69 C74 0.929 1_655 S
H70 C76 0.930 . S
C71 H68 0.929 . S
C71 C72 1.398 . S
C71 C73 1.396 1_565 S
C72 C71 1.398 . S
C72 C76 1.407 . S
C73 C71 1.396 1_545 S
C73 C74 1.394 . S
C74 H69 0.929 1_455 S
C74 C73 1.394 . S
C74 C75 1.382 . S
C75 C74 1.382 . S
C75 C76 1.392 1_545 S
C75 N77 1.420 1_455 S
C76 H70 0.930 . S
C76 C72 1.407 . S
C76 C75 1.392 1_565 S
N77 C75 1.420 1_655 S
N77 C78 1.244 . S
C78 N77 1.244 . S
H79 C82 0.929 . S
H80 C85 0.929 . S
H81 C87 0.930 . S
C82 H79 0.929 . S
C82 C83 1.398 . S
C82 C84 1.396 1_565 S
C83 C82 1.398 . S
C83 C87 1.407 . S
C84 C82 1.396 1_545 S
C84 C85 1.394 1_655 S
C85 H80 0.929 . S
C85 C84 1.394 1_455 S
C85 C86 1.382 . S
C86 C85 1.382 . S
C86 C87 1.392 1_445 S
C86 N88 1.420 . S
C87 H81 0.930 . S
C87 C83 1.407 . S
C87 C86 1.392 1_665 S
N88 C86 1.420 . S
N88 C89 1.244 . S
C89 N88 1.244 . S
H90 C93 0.929 . S
H91 C96 0.929 . S
H92 C98 0.930 1_554 S
C93 H90 0.929 . S
C93 C94 1.398 . S
C93 C95 1.396 . S
C94 C93 1.398 . S
C94 C98 1.407 . S
C95 C93 1.396 . S
C95 C96 1.394 . S
C96 H91 0.929 . S
C96 C95 1.394 . S
C96 C97 1.382 . S
C97 C96 1.382 . S
C97 C98 1.392 . S
C97 N99 1.420 . S
C98 H92 0.930 1_556 S
C98 C94 1.407 . S
C98 C97 1.392 . S
N99 C97 1.420 . S
N99 C100 1.244 . S
C100 N99 1.244 . S
H101 C104 0.929 . S
H102 C107 0.929 . S
H103 C109 0.930 1_556 S
C104 H101 0.929 . S
C104 C105 1.398 . S
C104 C106 1.396 . S
C105 C104 1.398 . S
C105 C109 1.407 . S
C106 C104 1.396 . S
C106 C107 1.394 . S
C107 H102 0.929 . S
C107 C106 1.394 . S
C107 C108 1.382 . S
C108 C107 1.382 . S
C108 C109 1.392 . S
C108 N110 1.420 . S
C109 H103 0.930 1_554 S
C109 C105 1.407 . S
C109 C108 1.392 . S
N110 C108 1.420 . S
N110 C111 1.244 . S
C111 N110 1.244 . S
C112 C113 1.391 . S
C112 C114 1.394 . S
C112 H128 0.931 . S
C113 C112 1.391 . S
C113 C117 1.376 . S
C114 C112 1.394 . S
C114 C115 1.369 . S
C114 C118 1.531 . S
C115 C114 1.369 . S
C115 C116 1.410 . S
C115 C123 1.503 . S
C116 C115 1.410 . S
C116 C117 1.392 . S
C116 C119 1.511 . S
C117 C113 1.376 . S
C117 C116 1.392 . S
C117 H129 0.929 . S
C118 C114 1.531 . S
C118 H130 0.960 . S
C118 H131 0.962 . S
C118 H132 0.960 . S
C119 C116 1.511 . S
C119 H133 0.961 . S
C119 H134 0.961 . S
C119 H135 0.961 1_554 S
C120 C121 1.370 . S
C120 C122 1.363 . S
C120 H136 0.931 . S
C121 C120 1.370 . S
C121 C125 1.408 1_554 S
C122 C120 1.363 . S
C122 C123 1.370 . S
C122 C126 1.524 . S
C123 C115 1.503 . S
C123 C122 1.370 . S
C123 C124 1.403 1_554 S
C124 C123 1.403 1_556 S
C124 C125 1.404 . S
C124 C127 1.539 . S
C125 C121 1.408 1_556 S
C125 C124 1.404 . S
C125 H137 0.930 . S
C126 C122 1.524 . S
C126 H138 0.956 . S
C126 H139 0.961 . S
C126 H140 0.961 . S
C127 C124 1.539 . S
C127 H141 0.958 . S
C127 H142 0.961 . S
C127 H143 0.960 . S
H128 C112 0.931 . S
H129 C117 0.929 . S
H130 C118 0.960 . S
H131 C118 0.962 . S
H132 C118 0.960 . S
H133 C119 0.961 . S
H134 C119 0.961 . S
H135 C119 0.961 1_556 S
H136 C120 0.931 . S
H137 C125 0.930 . S
H138 C126 0.956 . S
H139 C126 0.961 . S
H140 C126 0.961 . S
H141 C127 0.958 . S
H142 C127 0.961 . S
H143 C127 0.960 . S
C144 C145 1.391 . S
C144 C146 1.394 . S
C144 H160 0.931 . S
C145 C144 1.391 . S
C145 C149 1.376 . S
C146 C144 1.394 . S
C146 C147 1.369 . S
C146 C150 1.531 . S
C147 C146 1.369 . S
C147 C148 1.410 . S
C147 C155 1.503 . S
C148 C147 1.410 . S
C148 C149 1.392 . S
C148 C151 1.511 . S
C149 C145 1.376 . S
C149 C148 1.392 . S
C149 H161 0.929 . S
C150 C146 1.531 . S
C150 H162 0.960 . S
C150 H163 0.962 1_554 S
C150 H164 0.960 . S
C151 C148 1.511 . S
C151 H165 0.961 . S
C151 H166 0.961 . S
C151 H167 0.961 . S
C152 C153 1.387 . S
C152 C154 1.363 . S
C152 H168 0.931 . S
C153 C152 1.387 . S
C153 C157 1.384 1_556 S
C154 C152 1.363 . S
C154 C155 1.370 1_556 S
C154 C158 1.524 . S
C155 C147 1.503 . S
C155 C154 1.370 1_554 S
C155 C156 1.403 . S
C156 C155 1.403 . S
C156 C157 1.404 . S
C156 C159 1.539 . S
C157 C153 1.384 1_554 S
C157 C156 1.404 . S
C157 H169 0.930 . S
C158 C154 1.524 . S
C158 H170 0.956 . S
C158 H171 0.961 . S
C158 H172 0.961 . S
C159 C156 1.539 . S
C159 H173 0.958 . S
C159 H174 0.961 . S
C159 H175 0.960 . S
H160 C144 0.931 . S
H161 C149 0.929 . S
H162 C150 0.960 . S
H163 C150 0.962 1_556 S
H164 C150 0.960 . S
H165 C151 0.961 . S
H166 C151 0.961 . S
H167 C151 0.961 . S
H168 C152 0.931 . S
H169 C157 0.930 . S
H170 C158 0.956 . S
H171 C158 0.961 . S
H172 C158 0.961 . S
H173 C159 0.958 . S
H174 C159 0.961 . S
H175 C159 0.960 . S
C176 C177 1.391 . S
C176 C178 1.394 . S
C176 H192 0.931 . S
C177 C176 1.391 . S
C177 C181 1.376 1_554 S
C178 C176 1.394 . S
C178 C179 1.369 . S
C178 C182 1.531 . S
C179 C178 1.369 . S
C179 C180 1.410 . S
C179 C187 1.503 . S
C180 C179 1.410 . S
C180 C181 1.390 1_554 S
C180 C183 1.511 1_554 S
C181 C177 1.376 1_556 S
C181 C180 1.390 1_556 S
C181 H193 0.931 . S
C182 C178 1.531 . S
C182 H194 0.960 . S
C182 H195 0.962 . S
C182 H196 0.960 . S
C183 C180 1.511 1_556 S
C183 H197 0.961 . S
C183 H198 0.961 . S
C183 H199 0.961 1_556 S
C184 C185 1.370 1_556 S
C184 C186 1.363 . S
C184 H200 0.931 . S
C185 C184 1.370 1_554 S
C185 C189 1.408 . S
C186 C184 1.363 . S
C186 C187 1.370 1_556 S
C186 C190 1.524 . S
C187 C179 1.503 . S
C187 C186 1.370 1_554 S
C187 C188 1.403 . S
C188 C187 1.403 . S
C188 C189 1.404 . S
C188 C191 1.539 . S
C189 C185 1.408 . S
C189 C188 1.404 . S
C189 H201 0.930 . S
C190 C186 1.524 . S
C190 H202 0.956 . S
C190 H203 0.961 . S
C190 H204 0.961 . S
C191 C188 1.539 . S
C191 H205 0.958 . S
C191 H206 0.961 . S
C191 H207 0.960 . S
H192 C176 0.931 . S
H193 C181 0.931 . S
H194 C182 0.960 . S
H195 C182 0.962 . S
H196 C182 0.960 . S
H197 C183 0.961 . S
H198 C183 0.961 . S
H199 C183 0.961 1_554 S
H200 C184 0.931 . S
H201 C189 0.930 . S
H202 C190 0.956 . S
H203 C190 0.961 . S
H204 C190 0.961 . S
H205 C191 0.958 . S
H206 C191 0.961 . S
H207 C191 0.960 . S
C208 C209 1.391 . S
C208 C210 1.394 . S
C208 H224 0.931 1_556 S
C209 C208 1.391 . S
C209 C213 1.376 . S
C210 C208 1.394 . S
C210 C211 1.369 . S
C210 C214 1.531 . S
C211 C210 1.369 . S
C211 C212 1.410 . S
C211 C219 1.503 . S
C212 C211 1.410 . S
C212 C213 1.392 . S
C212 C215 1.511 . S
C213 C209 1.376 . S
C213 C212 1.392 . S
C213 H225 0.929 . S
C214 C210 1.531 . S
C214 H226 0.960 . S
C214 H227 0.962 1_556 S
C214 H228 0.960 . S
C215 C212 1.511 . S
C215 H229 0.961 . S
C215 H230 0.961 . S
C215 H231 0.961 . S
C216 C217 1.370 1_554 S
C216 C218 1.363 . S
C216 H232 0.931 . S
C217 C216 1.370 1_556 S
C217 C221 1.408 . S
C218 C216 1.363 . S
C218 C219 1.370 1_554 S
C218 C222 1.524 . S
C219 C211 1.503 . S
C219 C218 1.370 1_556 S
C219 C220 1.403 . S
C220 C219 1.403 . S
C220 C221 1.404 . S
C220 C223 1.539 . S
C221 C217 1.408 . S
C221 C220 1.404 . S
C221 H233 0.930 . S
C222 C218 1.524 . S
C222 H234 0.956 . S
C222 H235 0.961 . S
C222 H236 0.961 . S
C223 C220 1.539 . S
C223 H237 0.958 . S
C223 H238 0.961 . S
C223 H239 0.960 . S
H224 C208 0.931 1_554 S
H225 C213 0.929 . S
H226 C214 0.960 . S
H227 C214 0.962 1_554 S
H228 C214 0.960 . S
H229 C215 0.961 . S
H230 C215 0.961 . S
H231 C215 0.961 . S
H232 C216 0.931 . S
H233 C221 0.930 . S
H234 C222 0.956 . S
H235 C222 0.961 . S
H236 C222 0.961 . S
H237 C223 0.958 . S
H238 C223 0.961 . S
H239 C223 0.960 . S
C240 C241 1.391 . S
C240 C242 1.394 . S
C240 H256 0.931 . S
C241 C240 1.391 . S
C241 C245 1.376 . S
C242 C240 1.394 . S
C242 C243 1.369 . S
C242 C246 1.531 . S
C243 C242 1.369 . S
C243 C244 1.410 . S
C243 C251 1.503 . S
C244 C243 1.410 . S
C244 C245 1.392 . S
C244 C247 1.511 . S
C245 C241 1.376 . S
C245 C244 1.392 . S
C245 H257 0.929 . S
C246 C242 1.531 . S
C246 H258 0.960 . S
C246 H259 0.962 . S
C246 H260 0.960 . S
C247 C244 1.511 . S
C247 H261 0.961 . S
C247 H262 0.961 . S
C247 H263 0.961 . S
C248 C249 1.370 . S
C248 C250 1.363 . S
C248 H264 0.931 . S
C249 C248 1.370 . S
C249 C253 1.408 . S
C250 C248 1.363 . S
C250 C251 1.370 . S
C250 C254 1.524 . S
C251 C243 1.503 . S
C251 C250 1.370 . S
C251 C252 1.403 . S
C252 C251 1.403 . S
C252 C253 1.404 . S
C252 C255 1.539 . S
C253 C249 1.408 . S
C253 C252 1.404 . S
C253 H265 0.930 . S
C254 C250 1.524 . S
C254 H266 0.956 . S
C254 H267 0.961 . S
C254 H268 0.961 . S
C255 C252 1.539 . S
C255 H269 0.958 . S
C255 H270 0.961 . S
C255 H271 0.960 . S
H256 C240 0.931 . S
H257 C245 0.929 . S
H258 C246 0.960 . S
H259 C246 0.962 . S
H260 C246 0.960 . S
H261 C247 0.961 . S
H262 C247 0.961 . S
H263 C247 0.961 . S
H264 C248 0.931 . S
H265 C253 0.930 . S
H266 C254 0.956 . S
H267 C254 0.961 . S
H268 C254 0.961 . S
H269 C255 0.958 . S
H270 C255 0.961 . S
H271 C255 0.960 . S
C272 C273 1.391 . S
C272 C274 1.394 . S
C272 H288 0.931 . S
C273 C272 1.391 . S
C273 C277 1.376 . S
C274 C272 1.394 . S
C274 C275 1.369 . S
C274 C278 1.531 . S
C275 C274 1.369 . S
C275 C276 1.410 . S
C275 C283 1.503 . S
C276 C275 1.410 . S
C276 C277 1.392 . S
C276 C279 1.511 . S
C277 C273 1.376 . S
C277 C276 1.392 . S
C277 H289 0.929 . S
C278 C274 1.531 . S
C278 H290 0.960 . S
C278 H291 0.962 . S
C278 H292 0.960 . S
C279 C276 1.511 . S
C279 H293 0.961 . S
C279 H294 0.961 . S
C279 H295 0.961 . S
C280 C281 1.370 . S
C280 C282 1.363 . S
C280 H296 0.931 . S
C281 C280 1.370 . S
C281 C285 1.408 . S
C282 C280 1.363 . S
C282 C283 1.370 . S
C282 C286 1.524 . S
C283 C275 1.503 . S
C283 C282 1.370 . S
C283 C284 1.403 . S
C284 C283 1.403 . S
C284 C285 1.404 . S
C284 C287 1.539 . S
C285 C281 1.408 . S
C285 C284 1.404 . S
C285 H297 0.930 . S
C286 C282 1.524 . S
C286 H298 0.956 . S
C286 H299 0.961 . S
C286 H300 0.961 . S
C287 C284 1.539 . S
C287 H301 0.958 . S
C287 H302 0.961 . S
C287 H303 0.960 . S
H288 C272 0.931 . S
H289 C277 0.929 . S
H290 C278 0.960 . S
H291 C278 0.962 . S
H292 C278 0.960 . S
H293 C279 0.961 . S
H294 C279 0.961 . S
H295 C279 0.961 . S
H296 C280 0.931 . S
H297 C285 0.930 . S
H298 C286 0.956 . S
H299 C286 0.961 . S
H300 C286 0.961 . S
H301 C287 0.958 . S
H302 C287 0.961 . S
H303 C287 0.960 . S
C304 C305 1.391 . S
C304 C306 1.394 . S
C304 H320 0.931 . S
C305 C304 1.391 . S
C305 C309 1.376 . S
C306 C304 1.394 . S
C306 C307 1.369 . S
C306 C310 1.531 . S
C307 C306 1.369 . S
C307 C308 1.410 . S
C307 C315 1.503 . S
C308 C307 1.410 . S
C308 C309 1.392 . S
C308 C311 1.511 . S
C309 C305 1.376 . S
C309 C308 1.392 . S
C309 H321 0.929 . S
C310 C306 1.531 . S
C310 H322 0.960 . S
C310 H323 0.962 . S
C310 H324 0.960 . S
C311 C308 1.511 . S
C311 H325 0.961 . S
C311 H326 0.961 . S
C311 H327 0.961 . S
C312 C313 1.370 . S
C312 C314 1.363 . S
C312 H328 0.931 . S
C313 C312 1.370 . S
C313 C317 1.408 . S
C314 C312 1.363 . S
C314 C315 1.370 . S
C314 C318 1.524 . S
C315 C307 1.503 . S
C315 C314 1.370 . S
C315 C316 1.403 . S
C316 C315 1.403 . S
C316 C317 1.404 . S
C316 C319 1.539 . S
C317 C313 1.408 . S
C317 C316 1.404 . S
C317 H329 0.930 . S
C318 C314 1.524 . S
C318 H330 0.956 . S
C318 H331 0.961 . S
C318 H332 0.961 . S
C319 C316 1.539 . S
C319 H333 0.958 . S
C319 H334 0.961 . S
C319 H335 0.960 . S
H320 C304 0.931 . S
H321 C309 0.929 . S
H322 C310 0.960 . S
H323 C310 0.962 . S
H324 C310 0.960 . S
H325 C311 0.961 . S
H326 C311 0.961 . S
H327 C311 0.961 . S
H328 C312 0.931 . S
H329 C317 0.930 . S
H330 C318 0.956 . S
H331 C318 0.961 . S
H332 C318 0.961 . S
H333 C319 0.958 . S
H334 C319 0.961 . S
H335 C319 0.960 . S
C336 C337 1.391 . S
C336 C338 1.394 . S
C336 H352 0.931 . S
C337 C336 1.391 . S
C337 C341 1.376 . S
C338 C336 1.394 . S
C338 C339 1.369 . S
C338 C342 1.531 . S
C339 C338 1.369 . S
C339 C340 1.410 . S
C339 C347 1.503 . S
C340 C339 1.410 . S
C340 C341 1.392 . S
C340 C343 1.511 . S
C341 C337 1.376 . S
C341 C340 1.392 . S
C341 H353 0.929 . S
C342 C338 1.531 . S
C342 H354 0.960 . S
C342 H355 0.962 . S
C342 H356 0.960 . S
C343 C340 1.511 . S
C343 H357 0.961 . S
C343 H358 0.961 . S
C343 H359 0.961 . S
C344 C345 1.370 . S
C344 C346 1.363 . S
C344 H360 0.931 . S
C345 C344 1.370 . S
C345 C349 1.408 . S
C346 C344 1.363 . S
C346 C347 1.370 . S
C346 C350 1.524 . S
C347 C339 1.503 . S
C347 C346 1.370 . S
C347 C348 1.403 . S
C348 C347 1.403 . S
C348 C349 1.404 . S
C348 C351 1.539 . S
C349 C345 1.408 . S
C349 C348 1.404 . S
C349 H361 0.930 . S
C350 C346 1.524 . S
C350 H362 0.956 . S
C350 H363 0.961 . S
C350 H364 0.961 . S
C351 C348 1.539 . S
C351 H365 0.958 . S
C351 H366 0.961 . S
C351 H367 0.960 . S
H352 C336 0.931 . S
H353 C341 0.929 . S
H354 C342 0.960 . S
H355 C342 0.962 . S
H356 C342 0.960 . S
H357 C343 0.961 . S
H358 C343 0.961 . S
H359 C343 0.961 . S
H360 C344 0.931 . S
H361 C349 0.930 . S
H362 C350 0.956 . S
H363 C350 0.961 . S
H364 C350 0.961 . S
H365 C351 0.958 . S
H366 C351 0.961 . S
H367 C351 0.960 . S
C368 C369 1.386 1_665 S
C368 C370 1.395 1_655 S
C368 H384 0.935 . S
C369 C368 1.386 1_445 S
C369 C373 1.376 . S
C370 C368 1.395 1_455 S
C370 C371 1.369 . S
C370 C374 1.531 1_455 S
C371 C370 1.369 . S
C371 C372 1.410 1_565 S
C371 C379 1.503 1_565 S
C372 C371 1.410 1_545 S
C372 C373 1.392 . S
C372 C375 1.511 . S
C373 C369 1.376 . S
C373 C372 1.392 . S
C373 H385 0.929 . S
C374 C370 1.531 1_655 S
C374 H386 0.960 . S
C374 H387 0.962 . S
C374 H388 0.960 . S
C375 C372 1.511 . S
C375 H389 0.961 . S
C375 H390 0.961 . S
C375 H391 0.961 . S
C376 C377 1.370 . S
C376 C378 1.363 . S
C376 H392 0.931 1_455 S
C377 C376 1.370 . S
C377 C381 1.408 1_545 S
C378 C376 1.363 . S
C378 C379 1.383 . S
C378 C382 1.524 1_455 S
C379 C371 1.503 1_545 S
C379 C378 1.383 . S
C379 C380 1.390 1_545 S
C380 C379 1.390 1_565 S
C380 C381 1.404 . S
C380 C383 1.539 . S
C381 C377 1.408 1_565 S
C381 C380 1.404 . S
C381 H393 0.930 . S
C382 C378 1.524 1_655 S
C382 H394 0.956 . S
C382 H395 0.961 1_655 S
C382 H396 0.961 . S
C383 C380 1.539 . S
C383 H397 0.958 . S
C383 H398 0.961 . S
C383 H399 0.960 . S
H384 C368 0.935 . S
H385 C373 0.929 . S
H386 C374 0.960 . S
H387 C374 0.962 . S
H388 C374 0.960 . S
H389 C375 0.961 . S
H390 C375 0.961 . S
H391 C375 0.961 . S
H392 C376 0.931 1_655 S
H393 C381 0.930 . S
H394 C382 0.956 . S
H395 C382 0.961 1_455 S
H396 C382 0.961 . S
H397 C383 0.958 . S
H398 C383 0.961 . S
H399 C383 0.960 . S
C400 C401 1.391 1_565 S
C400 C402 1.394 . S
C400 H416 0.931 1_655 S
C401 C400 1.391 1_545 S
C401 C405 1.376 . S
C402 C400 1.394 . S
C402 C403 1.369 1_565 S
C402 C406 1.531 1_655 S
C403 C402 1.369 1_545 S
C403 C404 1.410 . S
C403 C411 1.503 . S
C404 C403 1.410 . S
C404 C405 1.392 . S
C404 C407 1.511 . S
C405 C401 1.376 . S
C405 C404 1.392 . S
C405 H417 0.929 . S
C406 C402 1.531 1_455 S
C406 H418 0.960 1_455 S
C406 H419 0.962 . S
C406 H420 0.960 1_455 S
C407 C404 1.511 . S
C407 H421 0.961 . S
C407 H422 0.961 . S
C407 H423 0.961 . S
C408 C409 1.370 1_455 S
C408 C410 1.363 . S
C408 H424 0.931 . S
C409 C408 1.370 1_655 S
C409 C413 1.408 . S
C410 C408 1.363 . S
C410 C411 1.370 1_455 S
C410 C414 1.524 . S
C411 C403 1.503 . S
C411 C410 1.370 1_655 S
C411 C412 1.400 1_545 S
C412 C411 1.400 1_565 S
C412 C413 1.403 1_565 S
C412 C415 1.542 . S
C413 C409 1.408 . S
C413 C412 1.403 1_545 S
C413 H425 0.930 1_545 S
C414 C410 1.524 . S
C414 H426 0.956 . S
C414 H427 0.961 . S
C414 H428 0.961 . S
C415 C412 1.542 . S
C415 H429 0.958 . S
C415 H430 0.961 1_565 S
C415 H431 0.960 1_565 S
H416 C400 0.931 1_455 S
H417 C405 0.929 . S
H418 C406 0.960 1_655 S
H419 C406 0.962 . S
H420 C406 0.960 1_655 S
H421 C407 0.961 . S
H422 C407 0.961 . S
H423 C407 0.961 . S
H424 C408 0.931 . S
H425 C413 0.930 1_565 S
H426 C414 0.956 . S
H427 C414 0.961 . S
H428 C414 0.961 . S
H429 C415 0.958 . S
H430 C415 0.961 1_545 S
H431 C415 0.960 1_545 S
C432 C433 1.391 . S
C432 C434 1.394 . S
C432 H448 0.931 . S
C433 C432 1.391 . S
C433 C437 1.376 . S
C434 C432 1.394 . S
C434 C435 1.369 . S
C434 C438 1.531 . S
C435 C434 1.369 . S
C435 C436 1.410 . S
C435 C443 1.503 . S
C436 C435 1.410 . S
C436 C437 1.392 . S
C436 C439 1.511 . S
C437 C433 1.376 . S
C437 C436 1.392 . S
C437 H449 0.929 . S
C438 C434 1.531 . S
C438 H450 0.960 . S
C438 H451 0.962 . S
C438 H452 0.960 . S
C439 C436 1.511 . S
C439 H453 0.961 . S
C439 H454 0.961 . S
C439 H455 0.961 . S
C440 C441 1.370 . S
C440 C442 1.363 . S
C440 H456 0.931 . S
C441 C440 1.370 . S
C441 C445 1.408 . S
C442 C440 1.363 . S
C442 C443 1.370 . S
C442 C446 1.524 . S
C443 C435 1.503 . S
C443 C442 1.370 . S
C443 C444 1.403 . S
C444 C443 1.403 . S
C444 C445 1.404 . S
C444 C447 1.539 . S
C445 C441 1.408 . S
C445 C444 1.404 . S
C445 H457 0.930 . S
C446 C442 1.524 . S
C446 H458 0.956 . S
C446 H459 0.961 . S
C446 H460 0.961 . S
C447 C444 1.539 . S
C447 H461 0.958 . S
C447 H462 0.961 . S
C447 H463 0.960 . S
H448 C432 0.931 . S
H449 C437 0.929 . S
H450 C438 0.960 . S
H451 C438 0.962 . S
H452 C438 0.960 . S
H453 C439 0.961 . S
H454 C439 0.961 . S
H455 C439 0.961 . S
H456 C440 0.931 . S
H457 C445 0.930 . S
H458 C446 0.956 . S
H459 C446 0.961 . S
H460 C446 0.961 . S
H461 C447 0.958 . S
H462 C447 0.961 . S
H463 C447 0.960 . S
C464 C465 1.391 . S
C464 C466 1.394 . S
C464 H480 0.931 . S
C465 C464 1.391 . S
C465 C469 1.376 . S
C466 C464 1.394 . S
C466 C467 1.369 . S
C466 C470 1.531 . S
C467 C466 1.369 . S
C467 C468 1.410 . S
C467 C475 1.503 . S
C468 C467 1.410 . S
C468 C469 1.392 . S
C468 C471 1.511 . S
C469 C465 1.376 . S
C469 C468 1.392 . S
C469 H481 0.929 . S
C470 C466 1.531 . S
C470 H482 0.960 . S
C470 H483 0.962 . S
C470 H484 0.960 . S
C471 C468 1.511 . S
C471 H485 0.961 . S
C471 H486 0.961 . S
C471 H487 0.961 . S
C472 C473 1.370 . S
C472 C474 1.363 . S
C472 H488 0.931 . S
C473 C472 1.370 . S
C473 C477 1.408 . S
C474 C472 1.363 . S
C474 C475 1.370 . S
C474 C478 1.524 . S
C475 C467 1.503 . S
C475 C474 1.370 . S
C475 C476 1.403 . S
C476 C475 1.403 . S
C476 C477 1.404 . S
C476 C479 1.539 . S
C477 C473 1.408 . S
C477 C476 1.404 . S
C477 H489 0.930 . S
C478 C474 1.524 . S
C478 H490 0.956 . S
C478 H491 0.961 . S
C478 H492 0.961 . S
C479 C476 1.539 . S
C479 H493 0.958 . S
C479 H494 0.961 . S
C479 H495 0.960 . S
H480 C464 0.931 . S
H481 C469 0.929 . S
H482 C470 0.960 . S
H483 C470 0.962 . S
H484 C470 0.960 . S
H485 C471 0.961 . S
H486 C471 0.961 . S
H487 C471 0.961 . S
H488 C472 0.931 . S
H489 C477 0.930 . S
H490 C478 0.956 . S
H491 C478 0.961 . S
H492 C478 0.961 . S
H493 C479 0.958 . S
H494 C479 0.961 . S
H495 C479 0.960 . S
C121 C105 1.462 . S
C113 C29 1.485 . S
C145 C8 1.402 . S
C153 C100 1.388 . S
C177 C0 1.398 . S
C185 C111 1.357 . S
C209 C17 1.479 1_556 S
C217 C94 1.446 . S
C241 C63 1.486 . S
C249 C83 1.462 . S
C273 C42 1.402 . S
C281 C78 1.352 . S
C313 C89 1.379 . S
C305 C34 1.413 . S
C345 C72 1.448 . S
C337 C51 1.482 . S
C369 C4 1.518 . S
C377 C73 1.508 . S
C401 C13 1.506 . S
C409 C84 1.502 . S
C441 C95 1.510 . S
C433 C38 1.516 . S
C465 C47 1.503 . S
C473 C106 1.500 . S
