# Generated by pormake.
# Topology pyr, (3,6)-cn, num edge types: 1
# Building blocks:
#     Node 0, Type 0, BuildingBlock: MIDCAF_clean_linker_0, # of connection points: 3
#     Node 1, Type 0, BuildingBlock: MIDCAF_clean_linker_0, # of connection points: 3
#     Node 2, Type 0, BuildingBlock: MIDCAF_clean_linker_0, # of connection points: 3
#     Node 3, Type 0, BuildingBlock: MIDCAF_clean_linker_0, # of connection points: 3
#     Node 4, Type 0, BuildingBlock: MIDCAF_clean_linker_0, # of connection points: 3
#     Node 5, Type 0, BuildingBlock: MIDCAF_clean_linker_0, # of connection points: 3
#     Node 6, Type 0, BuildingBlock: MIDCAF_clean_linker_0, # of connection points: 3
#     Node 7, Type 0, BuildingBlock: MIDCAF_clean_linker_0, # of connection points: 3
#     Node 8, Type 1, BuildingBlock: MIFKUJ_clean_sbu_0, # of connection points: 6
#     Node 9, Type 1, BuildingBlock: MIFKUJ_clean_sbu_0, # of connection points: 6
#     Node 10, Type 1, BuildingBlock: MIFKUJ_clean_sbu_0, # of connection points: 6
#     Node 11, Type 1, BuildingBlock: MIFKUJ_clean_sbu_0, # of connection points: 6
#     Edge 12, Type (0, 1), BuildingBlock: MIFKUJ_clean_linker_0, # of connection points: 2
#     Edge 13, Type (0, 1), BuildingBlock: MIFKUJ_clean_linker_0, # of connection points: 2
#     Edge 14, Type (0, 1), BuildingBlock: MIFKUJ_clean_linker_0, # of connection points: 2
#     Edge 15, Type (0, 1), BuildingBlock: MIFKUJ_clean_linker_0, # of connection points: 2
#     Edge 16, Type (0, 1), BuildingBlock: MIFKUJ_clean_linker_0, # of connection points: 2
#     Edge 17, Type (0, 1), BuildingBlock: MIFKUJ_clean_linker_0, # of connection points: 2
#     Edge 18, Type (0, 1), BuildingBlock: MIFKUJ_clean_linker_0, # of connection points: 2
#     Edge 19, Type (0, 1), BuildingBlock: MIFKUJ_clean_linker_0, # of connection points: 2
#     Edge 20, Type (0, 1), BuildingBlock: MIFKUJ_clean_linker_0, # of connection points: 2
#     Edge 21, Type (0, 1), BuildingBlock: MIFKUJ_clean_linker_0, # of connection points: 2
#     Edge 22, Type (0, 1), BuildingBlock: MIFKUJ_clean_linker_0, # of connection points: 2
#     Edge 23, Type (0, 1), BuildingBlock: MIFKUJ_clean_linker_0, # of connection points: 2
#     Edge 24, Type (0, 1), BuildingBlock: MIFKUJ_clean_linker_0, # of connection points: 2
#     Edge 25, Type (0, 1), BuildingBlock: MIFKUJ_clean_linker_0, # of connection points: 2
#     Edge 26, Type (0, 1), BuildingBlock: MIFKUJ_clean_linker_0, # of connection points: 2
#     Edge 27, Type (0, 1), BuildingBlock: MIFKUJ_clean_linker_0, # of connection points: 2
#     Edge 28, Type (0, 1), BuildingBlock: MIFKUJ_clean_linker_0, # of connection points: 2
#     Edge 29, Type (0, 1), BuildingBlock: MIFKUJ_clean_linker_0, # of connection points: 2
#     Edge 30, Type (0, 1), BuildingBlock: MIFKUJ_clean_linker_0, # of connection points: 2
#     Edge 31, Type (0, 1), BuildingBlock: MIFKUJ_clean_linker_0, # of connection points: 2
#     Edge 32, Type (0, 1), BuildingBlock: MIFKUJ_clean_linker_0, # of connection points: 2
#     Edge 33, Type (0, 1), BuildingBlock: MIFKUJ_clean_linker_0, # of connection points: 2
#     Edge 34, Type (0, 1), BuildingBlock: MIFKUJ_clean_linker_0, # of connection points: 2
#     Edge 35, Type (0, 1), BuildingBlock: MIFKUJ_clean_linker_0, # of connection points: 2
# Relax obj value: 0.025
# Max RMSD: 0.078
# Mean RMSD: 0.046
data_MOF--net-pyr--node1-MIFKUJ_clean_sbu_0--node2-MIDCAF_clean_linker_0--edge1-MIFKUJ_clean_linker_0
_symmetry_space_group_name_H-M    P1
_symmetry_Int_Tables_number       1
_symmetry_cell_setting            triclinic
loop_
_symmetry_equiv_pos_as_xyz
'x, y, z'
_cell_length_a     59.166089
_cell_length_b     53.147983
_cell_length_c     57.869565
_cell_angle_alpha  86.694787
_cell_angle_beta   88.65496
_cell_angle_gamma 95.445576
loop_
_atom_site_label
_atom_site_type_symbol
_atom_site_fract_x
_atom_site_fract_y
_atom_site_fract_z
_atom_type_partial_charge
C0 C 0.16132 0.16346 0.28355 0.0
C1 C 0.17193 0.14435 0.29563 0.0
C2 C 0.19295 0.13791 0.28713 0.0
C3 C 0.20298 0.15011 0.26685 0.0
H4 H 0.24853 0.14015 0.21323 0.0
H5 H 0.27924 0.12263 0.19287 0.0
H6 H 0.28664 0.18859 0.14501 0.0
H7 H 0.25541 0.20578 0.16492 0.0
H8 H 0.21427 0.24061 0.16177 0.0
H9 H 0.19379 0.27236 0.14139 0.0
H10 H 0.13986 0.26039 0.19366 0.0
H11 H 0.16049 0.22925 0.21435 0.0
H12 H 0.16247 0.19012 0.25446 0.0
H13 H 0.14493 0.1686 0.28934 0.0
H14 H 0.2017 0.12348 0.29618 0.0
H15 H 0.21912 0.14459 0.26071 0.0
N16 N 0.22091 0.17323 0.22263 0.0
N17 N 0.21952 0.20361 0.19174 0.0
N18 N 0.19232 0.20084 0.22204 0.0
C19 C 0.22968 0.18422 0.20214 0.0
C20 C 0.20082 0.21202 0.2016 0.0
C21 C 0.20227 0.18152 0.23273 0.0
C22 C 0.24938 0.17433 0.19066 0.0
C23 C 0.25676 0.15103 0.19845 0.0
C24 C 0.27449 0.14101 0.18682 0.0
C25 C 0.2854 0.15415 0.16723 0.0
C26 C 0.27835 0.17774 0.15977 0.0
C27 C 0.2605 0.18767 0.17129 0.0
C28 C 0.18903 0.23225 0.18969 0.0
C29 C 0.19812 0.24485 0.16902 0.0
C30 C 0.18631 0.26296 0.15725 0.0
C31 C 0.16513 0.26884 0.16583 0.0
C32 C 0.15627 0.25658 0.18671 0.0
C33 C 0.16809 0.23857 0.19852 0.0
C34 C 0.19222 0.16907 0.25467 0.0
C35 C 0.17135 0.17571 0.26339 0.0
C36 C 0.26012 0.88644 0.6733 0.0
C37 C 0.25048 0.87662 0.65334 0.0
C38 C 0.26095 0.85758 0.64252 0.0
C39 C 0.28066 0.84866 0.65133 0.0
H40 H 0.32243 0.79222 0.64447 0.0
H41 H 0.33959 0.75905 0.62511 0.0
H42 H 0.40062 0.77361 0.66372 0.0
H43 H 0.38318 0.80626 0.68369 0.0
H44 H 0.37963 0.83774 0.72822 0.0
H45 H 0.3968 0.85454 0.76255 0.0
H46 H 0.34323 0.90377 0.76877 0.0
H47 H 0.32612 0.8873 0.7341 0.0
H48 H 0.28693 0.88567 0.69745 0.0
H49 H 0.25258 0.90129 0.68192 0.0
H50 H 0.25377 0.84933 0.62731 0.0
H51 H 0.28819 0.83397 0.64247 0.0
N52 N 0.32141 0.83074 0.66963 0.0
N53 N 0.35046 0.83214 0.69646 0.0
N54 N 0.32139 0.85901 0.69927 0.0
C55 C 0.34084 0.82211 0.67755 0.0
C56 C 0.34084 0.85056 0.70747 0.0
C57 C 0.31158 0.84921 0.68032 0.0
C58 C 0.3514 0.80196 0.66567 0.0
C59 C 0.33952 0.78839 0.64887 0.0
C60 C 0.34942 0.76942 0.63764 0.0
C61 C 0.37154 0.76366 0.64277 0.0
C62 C 0.38343 0.77725 0.65957 0.0
C63 C 0.37346 0.7961 0.67094 0.0
C64 C 0.35141 0.86109 0.72832 0.0
C65 C 0.37145 0.85216 0.73682 0.0
C66 C 0.38127 0.86169 0.75663 0.0
C67 C 0.37133 0.8804 0.76848 0.0
C68 C 0.35142 0.88953 0.75991 0.0
C69 C 0.34156 0.87997 0.74008 0.0
C70 C 0.29045 0.85857 0.67122 0.0
C71 C 0.2799 0.87755 0.68213 0.0
C72 C 0.65414 0.27375 0.86593 0.0
C73 C 0.63438 0.26217 0.85647 0.0
C74 C 0.62633 0.27312 0.83593 0.0
C75 C 0.63763 0.29521 0.82525 0.0
H76 H 0.62895 0.35149 0.77677 0.0
H77 H 0.61261 0.37005 0.74254 0.0
H78 H 0.67263 0.42274 0.73138 0.0
H79 H 0.68889 0.40452 0.76619 0.0
H80 H 0.71659 0.413 0.82079 0.0
H81 H 0.75127 0.43096 0.83861 0.0
H82 H 0.76515 0.35605 0.86347 0.0
H83 H 0.73044 0.33813 0.8462 0.0
H84 H 0.68053 0.30427 0.86316 0.0
H85 H 0.66065 0.26606 0.8819 0.0
H86 H 0.61136 0.26451 0.82797 0.0
H87 H 0.63086 0.30308 0.80948 0.0
N88 N 0.66005 0.34239 0.80509 0.0
N89 N 0.69007 0.37471 0.80378 0.0
N90 N 0.68873 0.34113 0.83217 0.0
C91 C 0.67041 0.36434 0.79496 0.0
C92 C 0.69933 0.36312 0.82239 0.0
C93 C 0.66903 0.33067 0.8237 0.0
C94 C 0.66035 0.37639 0.77429 0.0
C95 C 0.63875 0.36705 0.76711 0.0
C96 C 0.62939 0.37761 0.74731 0.0
C97 C 0.64136 0.39774 0.73399 0.0
C98 C 0.66284 0.40738 0.74131 0.0
C99 C 0.67221 0.39685 0.76124 0.0
C100 C 0.72075 0.37415 0.83213 0.0
C101 C 0.72711 0.40038 0.82997 0.0
C102 C 0.74684 0.41067 0.84025 0.0
C103 C 0.76084 0.39485 0.85236 0.0
C104 C 0.75472 0.36863 0.8541 0.0
C105 C 0.73479 0.35842 0.84431 0.0
C106 C 0.65731 0.3069 0.83479 0.0
C107 C 0.66548 0.29581 0.85522 0.0
C108 C 0.76066 0.64433 0.3581 0.0
C109 C 0.74922 0.62265 0.34938 0.0
C110 C 0.75907 0.61192 0.33036 0.0
C111 C 0.78 0.62243 0.32053 0.0
H112 H 0.82795 0.61463 0.26853 0.0
H113 H 0.84556 0.59638 0.23579 0.0
H114 H 0.90387 0.65142 0.23848 0.0
H115 H 0.8865 0.66948 0.2715 0.0
H116 H 0.89033 0.70576 0.31594 0.0
H117 H 0.90886 0.74128 0.33563 0.0
H118 H 0.84475 0.75251 0.3689 0.0
H119 H 0.82654 0.7168 0.35 0.0
H120 H 0.78971 0.6715 0.35564 0.0
H121 H 0.75343 0.65336 0.37246 0.0
H122 H 0.75081 0.59509 0.32332 0.0
H123 H 0.78717 0.61351 0.30606 0.0
N124 N 0.82415 0.64481 0.30147 0.0
N125 N 0.85554 0.67535 0.30256 0.0
N126 N 0.82489 0.67554 0.32893 0.0
C127 C 0.8449 0.65485 0.29279 0.0
C128 C 0.84558 0.68585 0.32062 0.0
C129 C 0.81404 0.65505 0.31958 0.0
C130 C 0.85574 0.64361 0.27279 0.0
C131 C 0.84455 0.62288 0.26223 0.0
C132 C 0.8546 0.61247 0.2433 0.0
C133 C 0.87615 0.62242 0.23441 0.0
C134 C 0.88739 0.64305 0.24502 0.0
C135 C 0.87733 0.65352 0.26392 0.0
C136 C 0.85696 0.70819 0.3315 0.0
C137 C 0.88021 0.71586 0.32743 0.0
C138 C 0.89082 0.73632 0.33867 0.0
C139 C 0.87841 0.74969 0.35412 0.0
C140 C 0.85505 0.74234 0.35765 0.0
C141 C 0.84453 0.72186 0.34663 0.0
C142 C 0.79155 0.64398 0.32946 0.0
C143 C 0.78149 0.65483 0.34829 0.0
C144 C 0.72813 0.85529 0.82161 0.0
C145 C 0.72031 0.8465 0.84402 0.0
C146 C 0.72905 0.82506 0.85442 0.0
C147 C 0.74566 0.81308 0.84291 0.0
H148 H 0.7899 0.75881 0.85341 0.0
H149 H 0.81021 0.72714 0.87425 0.0
H150 H 0.85483 0.72422 0.81451 0.0
H151 H 0.83445 0.75541 0.79353 0.0
H152 H 0.84052 0.80242 0.7587 0.0
H153 H 0.86021 0.82463 0.72526 0.0
H154 H 0.80437 0.87073 0.71582 0.0
H155 H 0.78487 0.84899 0.74996 0.0
H156 H 0.75056 0.85088 0.79297 0.0
H157 H 0.72146 0.87152 0.81297 0.0
H158 H 0.72355 0.81796 0.87176 0.0
H159 H 0.75233 0.79693 0.85167 0.0
N160 N 0.78183 0.79063 0.81968 0.0
N161 N 0.80883 0.79146 0.78934 0.0
N162 N 0.78199 0.82114 0.78869 0.0
C163 C 0.79982 0.78079 0.80978 0.0
C164 C 0.80004 0.81157 0.77864 0.0
C165 C 0.77274 0.81074 0.8092 0.0
C166 C 0.81064 0.75988 0.82183 0.0
C167 C 0.80386 0.75121 0.84459 0.0
C168 C 0.81556 0.73315 0.8566 0.0
C169 C 0.8342 0.7233 0.84608 0.0
C170 C 0.84041 0.73124 0.82304 0.0
C171 C 0.82878 0.74931 0.81107 0.0
C172 C 0.81111 0.82396 0.75714 0.0
C173 C 0.83228 0.81715 0.74946 0.0
C174 C 0.84356 0.82982 0.73012 0.0
C175 C 0.8339 0.84949 0.71779 0.0
C176 C 0.81246 0.85593 0.72512 0.0
C177 C 0.80122 0.84336 0.74463 0.0
C178 C 0.75395 0.82229 0.82073 0.0
C179 C 0.74475 0.84334 0.8101 0.0
C180 C 0.64976 0.10923 0.25958 0.0
C181 C 0.63694 0.12438 0.24521 0.0
C182 C 0.63491 0.14949 0.25088 0.0
C183 C 0.64482 0.15895 0.27066 0.0
H184 H 0.6343 0.21096 0.31933 0.0
H185 H 0.6168 0.24429 0.33819 0.0
H186 H 0.65769 0.23262 0.39807 0.0
H187 H 0.67569 0.19981 0.37899 0.0
H188 H 0.7175 0.16778 0.37374 0.0
H189 H 0.75114 0.15144 0.38983 0.0
H190 H 0.75063 0.09694 0.33724 0.0
H191 H 0.71719 0.1136 0.32073 0.0
H192 H 0.66954 0.10662 0.29003 0.0
H193 H 0.65148 0.08972 0.25604 0.0
H194 H 0.62573 0.16201 0.23998 0.0
H195 H 0.64274 0.1783 0.27455 0.0
N196 N 0.65825 0.17296 0.31652 0.0
N197 N 0.685 0.17181 0.34567 0.0
N198 N 0.68539 0.14354 0.31604 0.0
C199 C 0.66689 0.18206 0.33626 0.0
C200 C 0.69443 0.15263 0.33565 0.0
C201 C 0.66734 0.15368 0.30636 0.0
C202 C 0.65643 0.20264 0.34761 0.0
C203 C 0.63962 0.21551 0.3365 0.0
C204 C 0.62946 0.23455 0.34739 0.0
C205 C 0.63576 0.24112 0.3697 0.0
C206 C 0.65265 0.22833 0.38075 0.0
C207 C 0.6629 0.20938 0.36982 0.0
C208 C 0.71457 0.14208 0.34586 0.0
C209 C 0.72447 0.15227 0.36557 0.0
C210 C 0.74373 0.1428 0.37492 0.0
C211 C 0.75359 0.12287 0.36484 0.0
C212 C 0.74363 0.11253 0.34524 0.0
C213 C 0.72435 0.12201 0.33586 0.0
C214 C 0.65743 0.14373 0.28507 0.0
C215 C 0.66004 0.11887 0.27918 0.0
C216 C 0.26687 0.59114 0.15969 0.0
C217 C 0.25356 0.60693 0.14661 0.0
C218 C 0.2609 0.6328 0.14319 0.0
C219 C 0.28116 0.6427 0.15251 0.0
H220 H 0.3344 0.69663 0.13495 0.0
H221 H 0.35392 0.73488 0.11603 0.0
H222 H 0.40207 0.73863 0.17101 0.0
H223 H 0.38288 0.69995 0.18973 0.0
H224 H 0.36756 0.66176 0.23721 0.0
H225 H 0.38422 0.64331 0.2713 0.0
H226 H 0.36081 0.56837 0.25098 0.0
H227 H 0.34281 0.58724 0.21755 0.0
H228 H 0.29689 0.5886 0.17951 0.0
H229 H 0.26152 0.57112 0.16263 0.0
H230 H 0.25106 0.64536 0.13304 0.0
H231 H 0.28627 0.66276 0.14945 0.0
N232 N 0.32629 0.66022 0.16607 0.0
N233 N 0.35424 0.65988 0.19398 0.0
N234 N 0.32503 0.62661 0.1944 0.0
C235 C 0.34554 0.6712 0.17499 0.0
C236 C 0.34416 0.63762 0.20376 0.0
C237 C 0.31588 0.63803 0.17562 0.0
C238 C 0.35705 0.69507 0.16389 0.0
C239 C 0.34911 0.70558 0.1431 0.0
C240 C 0.36025 0.72765 0.13227 0.0
C241 C 0.37959 0.73987 0.14197 0.0
C242 C 0.38743 0.72951 0.16287 0.0
C243 C 0.37632 0.70738 0.17368 0.0
C244 C 0.35393 0.62595 0.22465 0.0
C245 C 0.36593 0.64133 0.24007 0.0
C246 C 0.37569 0.63065 0.25958 0.0
C247 C 0.37426 0.60419 0.26398 0.0
C248 C 0.36209 0.5888 0.24852 0.0
C249 C 0.35184 0.59958 0.22922 0.0
C250 C 0.29444 0.62706 0.16581 0.0
C251 C 0.28702 0.60116 0.16942 0.0
C252 C 0.14284 0.2687 0.64685 0.0
C253 C 0.1231 0.25507 0.65674 0.0
C254 C 0.11334 0.26375 0.67685 0.0
C255 C 0.12331 0.28532 0.68699 0.0
H256 H 0.11518 0.33467 0.73968 0.0
H257 H 0.0981 0.35206 0.77321 0.0
H258 H 0.15541 0.40864 0.77472 0.0
H259 H 0.1723 0.39165 0.74093 0.0
H260 H 0.21363 0.39212 0.7041 0.0
H261 H 0.24945 0.41157 0.68634 0.0
H262 H 0.24161 0.36162 0.63022 0.0
H263 H 0.20588 0.34242 0.64763 0.0
H264 H 0.16799 0.29998 0.64869 0.0
H265 H 0.15058 0.26294 0.63111 0.0
H266 H 0.09822 0.25363 0.68501 0.0
H267 H 0.11547 0.29132 0.70258 0.0
N268 N 0.14506 0.33073 0.70697 0.0
N269 N 0.17547 0.36261 0.70706 0.0
N270 N 0.17424 0.33294 0.67862 0.0
C271 C 0.1555 0.35139 0.71667 0.0
C272 C 0.18495 0.35349 0.688 0.0
C273 C 0.15436 0.32138 0.68791 0.0
C274 C 0.14516 0.36172 0.73744 0.0
C275 C 0.12419 0.35081 0.74712 0.0
C276 C 0.11442 0.36072 0.76649 0.0
C277 C 0.12533 0.3818 0.77674 0.0
C278 C 0.14633 0.39263 0.76712 0.0
C279 C 0.1561 0.38275 0.74776 0.0
C280 C 0.20675 0.36566 0.67735 0.0
C281 C 0.21949 0.38531 0.68794 0.0
C282 C 0.24011 0.39639 0.67783 0.0
C283 C 0.24838 0.38821 0.65682 0.0
C284 C 0.2356 0.36864 0.64623 0.0
C285 C 0.21512 0.3575 0.65636 0.0
C286 C 0.14324 0.29873 0.6772 0.0
C287 C 0.15277 0.29015 0.65693 0.0
Zn288 Zn 0.02391 0.98987 0.52028 0.0
Zn289 Zn 0.98215 0.00954 0.49517 0.0
C290 C 0.04745 0.03461 0.53541 0.0
O291 O 0.06383 0.02421 0.52491 0.0
C292 C 0.96069 0.96176 0.48318 0.0
O293 O 0.9454 0.96844 0.49787 0.0
O294 O 0.04891 0.9706 0.53322 0.0
O295 O 0.99472 0.96973 0.53084 0.0
O296 O 0.97535 0.00299 0.52943 0.0
C297 C 0.04951 0.96615 0.55501 0.0
O298 O 0.03323 0.97328 0.56826 0.0
O299 O 0.02737 0.02359 0.53547 0.0
C300 C 0.95479 0.03093 0.4607 0.0
O301 O 0.96996 0.02215 0.44715 0.0
O302 O 0.95678 0.02842 0.48251 0.0
O303 O 0.01151 0.02972 0.48458 0.0
O304 O 0.03059 0.99619 0.48614 0.0
O305 O 0.97899 0.97617 0.47939 0.0
C306 C 0.97844 0.98122 0.5383 0.0
C307 C 0.02789 0.01813 0.47741 0.0
Zn308 Zn 0.52332 0.99043 0.99447 0.0
Zn309 Zn 0.48813 0.01966 0.0148 0.0
C310 C 0.49453 0.96095 0.96605 0.0
O311 O 0.50421 0.94318 0.97778 0.0
C312 C 0.51537 0.04836 0.04514 0.0
O313 O 0.50398 0.06595 0.03535 0.0
O314 O 0.54981 0.97302 0.98324 0.0
O315 O 0.53378 0.0277 0.99336 0.0
O316 O 0.49986 0.03817 0.98483 0.0
C317 C 0.56205 0.9832 0.96624 0.0
O318 O 0.55776 0.00543 0.9572 0.0
O319 O 0.49972 0.98395 0.97034 0.0
C320 C 0.45529 0.0305 0.04754 0.0
O321 O 0.46602 0.0137 0.05937 0.0
O322 O 0.46139 0.03639 0.02655 0.0
O323 O 0.47752 0.98249 0.01598 0.0
O324 O 0.51146 0.9721 0.02447 0.0
O325 O 0.51211 0.02587 0.03869 0.0
C326 C 0.52133 0.04288 0.98326 0.0
C327 C 0.49 0.96728 0.02597 0.0
Zn328 Zn 0.50966 0.4799 0.49053 0.0
Zn329 Zn 0.49178 0.52343 0.51753 0.0
C330 C 0.53892 0.50803 0.45673 0.0
O331 O 0.52455 0.49562 0.44349 0.0
C332 C 0.46205 0.49478 0.55069 0.0
O333 O 0.47706 0.50554 0.56433 0.0
O334 O 0.51709 0.44745 0.47709 0.0
O335 O 0.5113 0.47323 0.5251 0.0
O336 O 0.52062 0.51303 0.53182 0.0
C337 C 0.5366 0.44071 0.4818 0.0
O338 O 0.54962 0.45456 0.49526 0.0
O339 O 0.53574 0.50536 0.47861 0.0
C340 C 0.46836 0.567 0.5237 0.0
O341 O 0.45761 0.55821 0.5058 0.0
O342 O 0.48475 0.55565 0.53165 0.0
O343 O 0.4908 0.52995 0.48278 0.0
O344 O 0.48065 0.49013 0.47658 0.0
O345 O 0.46511 0.49854 0.52886 0.0
C346 C 0.52177 0.48965 0.53707 0.0
C347 C 0.48041 0.51352 0.47072 0.0
Zn348 Zn 0.99296 0.522 0.98835 0.0
Zn349 Zn 0.01296 0.48167 0.02344 0.0
C350 C 0.96445 0.48968 0.96156 0.0
O351 O 0.9807 0.49732 0.94618 0.0
C352 C 0.04322 0.51578 0.0471 0.0
O353 O 0.02685 0.5112 0.06292 0.0
O354 O 0.98619 0.5518 0.96751 0.0
O355 O 0.9902 0.53242 0.02144 0.0
O356 O 0.98544 0.49429 0.03894 0.0
C357 C 0.98231 0.57324 0.97453 0.0
O358 O 0.98511 0.57772 0.9964 0.0
O359 O 0.96628 0.49669 0.98216 0.0
C360 C 0.03655 0.43922 0.03398 0.0
O361 O 0.04541 0.44671 0.01342 0.0
O362 O 0.02081 0.45097 0.04234 0.0
O363 O 0.0117 0.47122 0.9903 0.0
O364 O 0.02197 0.50967 0.97569 0.0
O365 O 0.04078 0.50626 0.02752 0.0
C366 C 0.9825 0.5177 0.03852 0.0
C367 C 0.02208 0.48587 0.97456 0.0
H368 H 0.14837 0.16426 0.33036 0.0
H369 H 0.12671 0.14142 0.36265 0.0
H370 H 0.14881 0.07103 0.34127 0.0
H371 H 0.16961 0.09363 0.30816 0.0
H372 H 0.10505 0.06566 0.34992 0.0
H373 H 0.16921 0.09914 0.39044 0.0
H374 H 0.19821 0.1317 0.40271 0.0
H375 H 0.1461 0.17176 0.43252 0.0
H376 H 0.11675 0.13963 0.42014 0.0
H377 H 0.06006 0.9963 0.45288 0.0
H378 H 0.08703 0.01684 0.42334 0.0
H379 H 0.0599 0.08825 0.43235 0.0
H380 H 0.03274 0.06788 0.46179 0.0
H381 H 0.10822 0.09092 0.43109 0.0
H382 H 0.04428 0.05795 0.38787 0.0
H383 H 0.01586 0.02451 0.37607 0.0
H384 H 0.06915 0.98223 0.35194 0.0
H385 H 0.09792 0.01528 0.36393 0.0
C386 C 0.14861 0.14391 0.33248 0.0
C387 C 0.16063 0.13077 0.31657 0.0
C388 C 0.13644 0.1309 0.35114 0.0
C389 C 0.13632 0.10453 0.35455 0.0
C390 C 0.14872 0.0914 0.33902 0.0
C391 C 0.16078 0.10438 0.32022 0.0
C392 C 0.12214 0.09056 0.37348 0.0
C393 C 0.10609 0.07089 0.36774 0.0
C394 C 0.12315 0.09768 0.39667 0.0
C395 C 0.14076 0.11706 0.40418 0.0
C396 C 0.16392 0.115 0.39945 0.0
C397 C 0.18042 0.13336 0.40646 0.0
C398 C 0.174 0.15382 0.41835 0.0
C399 C 0.15105 0.15592 0.4233 0.0
C400 C 0.13447 0.13762 0.41631 0.0
C401 C 0.05983 0.01638 0.44859 0.0
C402 C 0.0442 0.03046 0.45958 0.0
C403 C 0.07523 0.02805 0.43172 0.0
C404 C 0.07535 0.054 0.42567 0.0
C405 C 0.06004 0.0682 0.43684 0.0
C406 C 0.04447 0.05649 0.45354 0.0
C407 C 0.09119 0.0663 0.40738 0.0
C408 C 0.10746 0.08562 0.41327 0.0
C409 C 0.09053 0.05875 0.38437 0.0
C410 C 0.07325 0.03894 0.37704 0.0
C411 C 0.04995 0.04141 0.38024 0.0
C412 C 0.03377 0.02255 0.37348 0.0
C413 C 0.04069 0.00122 0.36333 0.0
C414 C 0.06381 0.99874 0.35985 0.0
C415 C 0.08006 0.01754 0.36661 0.0
H416 H 0.02815 0.98664 0.3581 0.0
H417 H 0.18681 0.16801 0.42376 0.0
H418 H 0.38925 0.85337 0.80406 0.0
H419 H 0.4073 0.86944 0.83846 0.0
H420 H 0.39447 0.94544 0.81595 0.0
H421 H 0.37696 0.92954 0.78103 0.0
H422 H 0.43725 0.94392 0.8305 0.0
H423 H 0.36301 0.91353 0.86006 0.0
H424 H 0.32933 0.88278 0.86717 0.0
H425 H 0.36973 0.83186 0.90423 0.0
H426 H 0.40375 0.86215 0.89705 0.0
H427 H 0.47296 0.99285 0.93696 0.0
H428 H 0.44885 0.98136 0.90467 0.0
H429 H 0.45678 0.9024 0.92046 0.0
H430 H 0.48046 0.91364 0.95296 0.0
H431 H 0.41397 0.9086 0.90966 0.0
H432 H 0.48862 0.93748 0.87727 0.0
H433 H 0.52234 0.96828 0.87039 0.0
H434 H 0.48101 0.02196 0.83863 0.0
H435 H 0.44695 0.99165 0.84568 0.0
C436 C 0.39038 0.87353 0.80633 0.0
C437 C 0.38169 0.89018 0.78976 0.0
C438 C 0.40049 0.88266 0.82615 0.0
C439 C 0.402 0.90861 0.82993 0.0
C440 C 0.39339 0.92532 0.81343 0.0
C441 C 0.38324 0.91619 0.79358 0.0
C442 C 0.41315 0.91826 0.85082 0.0
C443 C 0.4319 0.93653 0.84784 0.0
C444 C 0.40643 0.9083 0.87342 0.0
C445 C 0.38598 0.89004 0.87784 0.0
C446 C 0.36476 0.8957 0.86957 0.0
C447 C 0.3456 0.87836 0.87364 0.0
C448 C 0.3474 0.85536 0.8861 0.0
C449 C 0.36837 0.84968 0.89456 0.0
C450 C 0.38759 0.86694 0.89052 0.0
C451 C 0.46943 0.97303 0.93365 0.0
C452 C 0.47881 0.95418 0.94739 0.0
C453 C 0.45572 0.9665 0.91514 0.0
C454 C 0.45131 0.94104 0.90992 0.0
C455 C 0.46002 0.92217 0.92411 0.0
C456 C 0.47364 0.92865 0.94264 0.0
C457 C 0.43824 0.93396 0.8893 0.0
C458 C 0.41916 0.91616 0.89233 0.0
C459 C 0.44468 0.94432 0.86674 0.0
C460 C 0.4652 0.9624 0.86222 0.0
C461 C 0.4867 0.95591 0.86896 0.0
C462 C 0.50587 0.97327 0.86501 0.0
C463 C 0.50381 0.99706 0.85413 0.0
C464 C 0.48257 0.00353 0.8471 0.0
C465 C 0.46333 0.98628 0.85106 0.0
H466 H 0.51868 0.01047 0.85111 0.0
H467 H 0.33254 0.84196 0.88924 0.0
H468 H 0.64285 0.4476 0.71786 0.0
H469 H 0.62522 0.46485 0.68335 0.0
H470 H 0.59898 0.38945 0.66758 0.0
H471 H 0.61738 0.37201 0.70136 0.0
H472 H 0.6138 0.41544 0.62917 0.0
H473 H 0.56566 0.43041 0.69421 0.0
H474 H 0.55674 0.44678 0.73205 0.0
H475 H 0.57791 0.52257 0.70521 0.0
H476 H 0.58724 0.5066 0.66728 0.0
H477 H 0.52493 0.44134 0.55473 0.0
H478 H 0.54711 0.42763 0.58731 0.0
H479 H 0.57141 0.50532 0.59704 0.0
H480 H 0.54876 0.5193 0.56471 0.0
H481 H 0.55984 0.48052 0.63762 0.0
H482 H 0.60456 0.46454 0.5707 0.0
H483 H 0.61118 0.44694 0.53289 0.0
H484 H 0.59507 0.37162 0.56336 0.0
H485 H 0.58783 0.38875 0.60121 0.0
C486 C 0.63361 0.43465 0.70687 0.0
C487 C 0.63138 0.40841 0.71257 0.0
C488 C 0.62334 0.44457 0.68725 0.0
C489 C 0.61044 0.4285 0.67303 0.0
C490 C 0.60873 0.40227 0.67832 0.0
C491 C 0.61907 0.39234 0.69783 0.0
C492 C 0.59828 0.43888 0.65292 0.0
C493 C 0.60187 0.42953 0.63105 0.0
C494 C 0.58303 0.45765 0.65523 0.0
C495 C 0.57739 0.46728 0.678 0.0
C496 C 0.56858 0.45055 0.69644 0.0
C497 C 0.56342 0.45975 0.71789 0.0
C498 C 0.56682 0.48569 0.72105 0.0
C499 C 0.57533 0.50248 0.70275 0.0
C500 C 0.58054 0.49337 0.68127 0.0
C501 C 0.53497 0.45556 0.56377 0.0
C502 C 0.53513 0.48144 0.55702 0.0
C503 C 0.54776 0.44766 0.58235 0.0
C504 C 0.56126 0.4654 0.59441 0.0
C505 C 0.56121 0.49128 0.58794 0.0
C506 C 0.54828 0.49923 0.56942 0.0
C507 C 0.57519 0.45691 0.61391 0.0
C508 C 0.57194 0.46662 0.63566 0.0
C509 C 0.59062 0.43834 0.6115 0.0
C510 C 0.59547 0.42797 0.58879 0.0
C511 C 0.60228 0.44423 0.56931 0.0
C512 C 0.60612 0.43433 0.54785 0.0
C513 C 0.60346 0.40817 0.54568 0.0
C514 C 0.59705 0.39187 0.56501 0.0
C515 C 0.59308 0.40167 0.58648 0.0
H516 H 0.6064 0.40053 0.52905 0.0
H517 H 0.56281 0.49278 0.73767 0.0
H518 H 0.92077 0.61366 0.22762 0.0
H519 H 0.93815 0.59599 0.1942 0.0
H520 H 0.87313 0.58839 0.16183 0.0
H521 H 0.85564 0.60607 0.19517 0.0
H522 H 0.89397 0.54735 0.15633 0.0
H523 H 0.91415 0.63638 0.14443 0.0
H524 H 0.92985 0.67887 0.15449 0.0
H525 H 0.99561 0.65218 0.16272 0.0
H526 H 0.98022 0.6094 0.15302 0.0
H527 H 0.96757 0.56474 0.04088 0.0
H528 H 0.94873 0.58205 0.07355 0.0
H529 H 0.95313 0.51223 0.11434 0.0
H530 H 0.97143 0.49453 0.08145 0.0
H531 H 0.96126 0.59291 0.11451 0.0
H532 H 0.90938 0.50177 0.15354 0.0
H533 H 0.8909 0.46163 0.14059 0.0
H534 H 0.88356 0.4967 0.07281 0.0
H535 H 0.90172 0.53712 0.08544 0.0
C536 C 0.91018 0.60844 0.21331 0.0
C537 C 0.88678 0.61141 0.21411 0.0
C538 C 0.92015 0.59828 0.1942 0.0
C539 C 0.90703 0.59106 0.17531 0.0
C540 C 0.88363 0.59373 0.17617 0.0
C541 C 0.87363 0.60381 0.19531 0.0
C542 C 0.91768 0.58081 0.15466 0.0
C543 C 0.90871 0.5573 0.14722 0.0
C544 C 0.93665 0.59394 0.1424 0.0
C545 C 0.94598 0.61963 0.14823 0.0
C546 C 0.93192 0.63952 0.14857 0.0
C547 C 0.94077 0.66366 0.15417 0.0
C548 C 0.9637 0.66821 0.1593 0.0
C549 C 0.97784 0.64862 0.15878 0.0
C550 C 0.96907 0.62443 0.15321 0.0
C551 C 0.96447 0.553 0.05675 0.0
C552 C 0.97093 0.52816 0.05844 0.0
C553 C 0.95373 0.56297 0.0755 0.0
C554 C 0.94924 0.54843 0.09643 0.0
C555 C 0.95595 0.52372 0.09827 0.0
C556 C 0.9665 0.51363 0.07944 0.0
C557 C 0.93775 0.55926 0.11632 0.0
C558 C 0.94657 0.58288 0.12365 0.0
C559 C 0.91829 0.54652 0.1281 0.0
C560 C 0.90712 0.52238 0.12039 0.0
C561 C 0.90374 0.50093 0.1359 0.0
C562 C 0.89334 0.47813 0.12861 0.0
C563 C 0.88613 0.47659 0.10587 0.0
C564 C 0.88923 0.49789 0.09039 0.0
C565 C 0.8996 0.52074 0.0976 0.0
H566 H 0.8781 0.45892 0.10026 0.0
H567 H 0.97052 0.68691 0.16363 0.0
H568 H 0.31915 0.1274 0.18493 0.0
H569 H 0.34797 0.10747 0.16358 0.0
H570 H 0.32253 0.13646 0.09907 0.0
H571 H 0.29286 0.1553 0.12025 0.0
H572 H 0.33018 0.08908 0.0959 0.0
H573 H 0.3726 0.16266 0.12189 0.0
H574 H 0.38704 0.1929 0.15007 0.0
H575 H 0.41898 0.13409 0.18695 0.0
H576 H 0.40446 0.1034 0.15917 0.0
H577 H 0.42651 0.06228 0.02754 0.0
H578 H 0.39763 0.08427 0.04707 0.0
H579 H 0.41505 0.05004 0.11285 0.0
H580 H 0.44386 0.02802 0.09356 0.0
H581 H 0.41189 0.10155 0.11396 0.0
H582 H 0.36805 0.02792 0.08798 0.0
H583 H 0.35391 0.99837 0.05909 0.0
H584 H 0.32516 0.05879 0.0211 0.0
H585 H 0.33941 0.0888 0.04961 0.0
C586 C 0.31955 0.1294 0.1662 0.0
C587 C 0.30367 0.14299 0.15433 0.0
C588 C 0.33623 0.11824 0.15401 0.0
C589 C 0.33762 0.12077 0.12971 0.0
C590 C 0.32185 0.13436 0.11781 0.0
C591 C 0.30504 0.14535 0.12998 0.0
C592 C 0.35514 0.10863 0.11672 0.0
C593 C 0.34809 0.09215 0.0996 0.0
C594 C 0.37847 0.11226 0.12182 0.0
C595 C 0.38726 0.13068 0.13856 0.0
C596 C 0.38255 0.15613 0.13611 0.0
C597 C 0.39078 0.17336 0.152 0.0
C598 C 0.40387 0.16541 0.17032 0.0
C599 C 0.40881 0.14022 0.17277 0.0
C600 C 0.40061 0.1229 0.15694 0.0
C601 C 0.42412 0.05937 0.04615 0.0
C602 C 0.4374 0.04334 0.059 0.0
C603 C 0.40761 0.07189 0.05726 0.0
C604 C 0.40417 0.06865 0.08137 0.0
C605 C 0.41746 0.05277 0.09422 0.0
C606 C 0.43384 0.04011 0.08314 0.0
C607 C 0.38687 0.08198 0.09333 0.0
C608 C 0.39398 0.09865 0.11022 0.0
C609 C 0.36364 0.07868 0.08791 0.0
C610 C 0.35501 0.06065 0.07079 0.0
C611 C 0.35888 0.03495 0.07336 0.0
C612 C 0.35082 0.01811 0.05707 0.0
C613 C 0.33871 0.02671 0.03823 0.0
C614 C 0.33458 0.05217 0.03568 0.0
C615 C 0.34263 0.06909 0.0519 0.0
H616 H 0.33247 0.01364 0.02565 0.0
H617 H 0.41023 0.17878 0.1826 0.0
H618 H 0.21228 0.88751 0.67703 0.0
H619 H 0.17778 0.90261 0.66095 0.0
H620 H 0.20675 0.90182 0.59192 0.0
H621 H 0.24151 0.88744 0.60788 0.0
H622 H 0.18627 0.94439 0.59751 0.0
H623 H 0.16747 0.85482 0.61293 0.0
H624 H 0.16336 0.81472 0.63696 0.0
H625 H 0.11631 0.84543 0.68272 0.0
H626 H 0.12039 0.88587 0.65912 0.0
H627 H 0.0874 0.95254 0.53279 0.0
H628 H 0.12088 0.93674 0.5503 0.0
H629 H 0.08984 0.93901 0.61824 0.0
H630 H 0.05611 0.95453 0.60087 0.0
H631 H 0.11105 0.89626 0.61418 0.0
H632 H 0.12916 0.98546 0.59856 0.0
H633 H 0.13287 0.02553 0.57448 0.0
H634 H 0.18113 0.9958 0.52939 0.0
H635 H 0.17742 0.95538 0.553 0.0
C636 C 0.21139 0.89079 0.65844 0.0
C637 C 0.22961 0.88616 0.64372 0.0
C638 C 0.19159 0.8992 0.64927 0.0
C639 C 0.18959 0.90304 0.62522 0.0
C640 C 0.20789 0.89888 0.61053 0.0
C641 C 0.22767 0.89045 0.61967 0.0
C642 C 0.16843 0.91139 0.6153 0.0
C643 C 0.16986 0.9337 0.60093 0.0
C644 C 0.14695 0.89778 0.62023 0.0
C645 C 0.14442 0.87346 0.6344 0.0
C646 C 0.15639 0.8531 0.62822 0.0
C647 C 0.15404 0.83029 0.64175 0.0
C648 C 0.13963 0.82755 0.66139 0.0
C649 C 0.12749 0.84759 0.66752 0.0
C650 C 0.12981 0.87045 0.65407 0.0
C651 C 0.0876 0.94952 0.55145 0.0
C652 C 0.06914 0.95497 0.56544 0.0
C653 C 0.1068 0.94059 0.56143 0.0
C654 C 0.10799 0.93708 0.58559 0.0
C655 C 0.0893 0.94169 0.59957 0.0
C656 C 0.07007 0.95062 0.5896 0.0
C657 C 0.12894 0.92914 0.59626 0.0
C658 C 0.12746 0.90696 0.61079 0.0
C659 C 0.15038 0.9429 0.59153 0.0
C660 C 0.15285 0.9673 0.57743 0.0
C661 C 0.14044 0.9874 0.58342 0.0
C662 C 0.14255 0.01018 0.56987 0.0
C663 C 0.15719 0.01319 0.55039 0.0
C664 C 0.16978 0.99343 0.54447 0.0
C665 C 0.16769 0.97058 0.55794 0.0
H666 H 0.1588 0.03084 0.53992 0.0
H667 H 0.13783 0.80988 0.67184 0.0
H668 H 0.76458 0.43221 0.88288 0.0
H669 H 0.7984 0.44759 0.90342 0.0
H670 H 0.83785 0.39727 0.86696 0.0
H671 H 0.80377 0.38107 0.84735 0.0
H672 H 0.84905 0.39456 0.90855 0.0
H673 H 0.84064 0.46492 0.85515 0.0
H674 H 0.82205 0.49931 0.8352 0.0
H675 H 0.81308 0.53347 0.89983 0.0
H676 H 0.83132 0.49908 0.92022 0.0
H677 H 0.95915 0.46011 0.92487 0.0
H678 H 0.92344 0.44238 0.90905 0.0
H679 H 0.8859 0.47235 0.96421 0.0
H680 H 0.92165 0.48963 0.98051 0.0
H681 H 0.87329 0.48564 0.91559 0.0
H682 H 0.88481 0.41411 0.9676 0.0
H683 H 0.90689 0.38095 0.9846 0.0
H684 H 0.9136 0.35031 0.918 0.0
H685 H 0.89183 0.38354 0.90052 0.0
C686 C 0.78055 0.42466 0.87916 0.0
C687 C 0.78162 0.40551 0.86353 0.0
C688 C 0.79992 0.43351 0.89082 0.0
C689 C 0.82088 0.42388 0.8866 0.0
C690 C 0.82194 0.40499 0.87066 0.0
C691 C 0.8025 0.39578 0.85938 0.0
C692 C 0.84154 0.43275 0.89928 0.0
C693 C 0.85441 0.41451 0.90978 0.0
C694 C 0.84849 0.45879 0.90143 0.0
C695 C 0.83709 0.47922 0.88926 0.0
C696 C 0.83448 0.47961 0.86515 0.0
C697 C 0.82405 0.49914 0.85375 0.0
C698 C 0.81632 0.51852 0.86625 0.0
C699 C 0.81902 0.51842 0.89017 0.0
C700 C 0.8294 0.49891 0.90166 0.0
C701 C 0.94331 0.46254 0.93386 0.0
C702 C 0.94316 0.47621 0.95393 0.0
C703 C 0.92295 0.45241 0.9248 0.0
C704 C 0.90209 0.45614 0.93545 0.0
C705 C 0.90187 0.46929 0.95578 0.0
C706 C 0.92228 0.47899 0.96514 0.0
C707 C 0.88057 0.44747 0.9245 0.0
C708 C 0.86767 0.46573 0.91436 0.0
C709 C 0.87387 0.42154 0.92221 0.0
C710 C 0.88686 0.40147 0.93271 0.0
C711 C 0.89116 0.40045 0.95653 0.0
C712 C 0.90359 0.3816 0.96626 0.0
C713 C 0.91169 0.36357 0.95238 0.0
C714 C 0.90733 0.36431 0.92873 0.0
C715 C 0.89493 0.38312 0.91891 0.0
H716 H 0.9213 0.349 0.95994 0.0
H717 H 0.80831 0.53366 0.85738 0.0
H718 H 0.73776 0.61621 0.39562 0.0
H719 H 0.70161 0.59843 0.4137 0.0
H720 H 0.67485 0.58486 0.34639 0.0
H721 H 0.71087 0.60336 0.32807 0.0
H722 H 0.64414 0.6048 0.37385 0.0
H723 H 0.69152 0.53654 0.38081 0.0
H724 H 0.72576 0.51592 0.39139 0.0
H725 H 0.71429 0.53025 0.46278 0.0
H726 H 0.68014 0.55128 0.45258 0.0
H727 H 0.54897 0.51901 0.41076 0.0
H728 H 0.58407 0.54012 0.39305 0.0
H729 H 0.61066 0.55182 0.46078 0.0
H730 H 0.57558 0.53028 0.47871 0.0
H731 H 0.64139 0.53342 0.43333 0.0
H732 H 0.59379 0.60122 0.4266 0.0
H733 H 0.55937 0.62156 0.41618 0.0
H734 H 0.57095 0.60787 0.34467 0.0
H735 H 0.60531 0.58714 0.3547 0.0
C736 C 0.72415 0.60965 0.38461 0.0
C737 C 0.72726 0.61125 0.36035 0.0
C738 C 0.70352 0.59927 0.39501 0.0
C739 C 0.68555 0.59006 0.38144 0.0
C740 C 0.68849 0.59178 0.35722 0.0
C741 C 0.70916 0.60215 0.34678 0.0
C742 C 0.66372 0.57865 0.39258 0.0
C743 C 0.6435 0.58897 0.38663 0.0
C744 C 0.6629 0.5584 0.4097 0.0
C745 C 0.6834 0.54571 0.41589 0.0
C746 C 0.6964 0.53547 0.39874 0.0
C747 C 0.71577 0.52368 0.40467 0.0
C748 C 0.72223 0.52184 0.42773 0.0
C749 C 0.70929 0.53173 0.44492 0.0
C750 C 0.68991 0.54356 0.43908 0.0
C751 C 0.56219 0.52624 0.42195 0.0
C752 C 0.55946 0.5229 0.44619 0.0
C753 C 0.58225 0.53843 0.41176 0.0
C754 C 0.60001 0.54774 0.42555 0.0
C755 C 0.5972 0.5448 0.44978 0.0
C756 C 0.57709 0.5326 0.46001 0.0
C757 C 0.6218 0.55959 0.41466 0.0
C758 C 0.64202 0.54931 0.42062 0.0
C759 C 0.6226 0.57987 0.39757 0.0
C760 C 0.60204 0.59247 0.39143 0.0
C761 C 0.58892 0.6024 0.40867 0.0
C762 C 0.56944 0.61403 0.40283 0.0
C763 C 0.56298 0.61601 0.37979 0.0
C764 C 0.576 0.60636 0.36252 0.0
C765 C 0.59549 0.59469 0.36826 0.0
H766 H 0.54791 0.62505 0.37531 0.0
H767 H 0.73723 0.5127 0.43229 0.0
H768 H 0.15999 0.27385 0.11898 0.0
H769 H 0.13738 0.30291 0.09755 0.0
H770 H 0.11717 0.33347 0.16146 0.0
H771 H 0.14014 0.30479 0.18306 0.0
H772 H 0.08099 0.32237 0.13306 0.0
H773 H 0.15547 0.36719 0.12689 0.0
H774 H 0.19669 0.37241 0.11812 0.0
H775 H 0.18464 0.35697 0.0472 0.0
H776 H 0.14334 0.3513 0.05562 0.0
H777 H 0.03342 0.42977 0.08096 0.0
H778 H 0.05407 0.40012 0.10419 0.0
H779 H 0.08289 0.37395 0.04176 0.0
H780 H 0.06294 0.40414 0.01855 0.0
H781 H 0.11479 0.38342 0.07076 0.0
H782 H 0.04064 0.33762 0.07648 0.0
H783 H 0.99936 0.33154 0.08486 0.0
H784 H 0.0104 0.34772 0.15578 0.0
H785 H 0.05175 0.35422 0.14775 0.0
C786 C 0.15105 0.28702 0.12848 0.0
C787 C 0.15195 0.28705 0.15274 0.0
C788 C 0.13804 0.30351 0.11621 0.0
C789 C 0.12572 0.3204 0.12793 0.0
C790 C 0.12651 0.3205 0.15212 0.0
C791 C 0.13959 0.30406 0.16442 0.0
C792 C 0.11185 0.33778 0.11489 0.0
C793 C 0.08837 0.33599 0.11964 0.0
C794 C 0.12148 0.35508 0.09707 0.0
C795 C 0.14632 0.35859 0.09194 0.0
C796 C 0.16161 0.3647 0.10946 0.0
C797 C 0.18499 0.36778 0.10455 0.0
C798 C 0.19328 0.36496 0.08213 0.0
C799 C 0.1782 0.35912 0.06457 0.0
C800 C 0.1548 0.356 0.0694 0.0
C801 C 0.04389 0.41741 0.07221 0.0
C802 C 0.04662 0.41928 0.04796 0.0
C803 C 0.05565 0.40043 0.08549 0.0
C804 C 0.06995 0.38467 0.07472 0.0
C805 C 0.07205 0.38598 0.05046 0.0
C806 C 0.06058 0.40318 0.03721 0.0
C807 C 0.08375 0.36784 0.08864 0.0
C808 C 0.1073 0.36981 0.08414 0.0
C809 C 0.07413 0.3506 0.10658 0.0
C810 C 0.04928 0.34665 0.11145 0.0
C811 C 0.03426 0.34007 0.09382 0.0
C812 C 0.01085 0.33651 0.09851 0.0
C813 C 0.00226 0.33931 0.12082 0.0
C814 C 0.01707 0.3456 0.1385 0.0
C815 C 0.0405 0.34919 0.13389 0.0
H816 H 0.98413 0.33655 0.12442 0.0
H817 H 0.21139 0.36736 0.07836 0.0
H818 H 0.58835 0.25043 0.86193 0.0
H819 H 0.56817 0.21278 0.88175 0.0
H820 H 0.63211 0.18421 0.89815 0.0
H821 H 0.65242 0.22134 0.87751 0.0
H822 H 0.6026 0.14699 0.88501 0.0
H823 H 0.60141 0.21272 0.93848 0.0
H824 H 0.59406 0.25468 0.9514 0.0
H825 H 0.52295 0.23847 0.93946 0.0
H826 H 0.52993 0.19652 0.92617 0.0
H827 H 0.56657 0.05756 0.97643 0.0
H828 H 0.58428 0.09458 0.95373 0.0
H829 H 0.51818 0.11686 0.93663 0.0
H830 H 0.50019 0.07983 0.9596 0.0
H831 H 0.54723 0.15691 0.94883 0.0
H832 H 0.54881 0.0897 0.8971 0.0
H833 H 0.55671 0.0471 0.88637 0.0
H834 H 0.62785 0.06572 0.89655 0.0
H835 H 0.62033 0.10834 0.90767 0.0
C836 C 0.59815 0.236 0.86946 0.0
C837 C 0.62204 0.239 0.86819 0.0
C838 C 0.58657 0.21458 0.88101 0.0
C839 C 0.59862 0.19582 0.89174 0.0
C840 C 0.62244 0.19849 0.89009 0.0
C841 C 0.63404 0.21986 0.87848 0.0
C842 C 0.58642 0.17361 0.90497 0.0
C843 C 0.59066 0.14918 0.8991 0.0
C844 C 0.57048 0.17641 0.92307 0.0
C845 C 0.56623 0.2016 0.93109 0.0
C846 C 0.58423 0.21819 0.93843 0.0
C847 C 0.58013 0.24195 0.94585 0.0
C848 C 0.55806 0.24926 0.94618 0.0
C849 C 0.54004 0.23279 0.93915 0.0
C850 C 0.54406 0.20902 0.93169 0.0
C851 C 0.55573 0.07029 0.96787 0.0
C852 C 0.53193 0.06565 0.96974 0.0
C853 C 0.56591 0.09142 0.95482 0.0
C854 C 0.55255 0.10828 0.94323 0.0
C855 C 0.52879 0.10401 0.94537 0.0
C856 C 0.51855 0.08282 0.95845 0.0
C857 C 0.5635 0.13038 0.92893 0.0
C858 C 0.55904 0.15476 0.93461 0.0
C859 C 0.57931 0.12753 0.91075 0.0
C860 C 0.58398 0.10217 0.90339 0.0
C861 C 0.56613 0.08468 0.89715 0.0
C862 C 0.57054 0.06052 0.891 0.0
C863 C 0.59277 0.05368 0.89084 0.0
C864 C 0.61064 0.07104 0.8967 0.0
C865 C 0.60632 0.09522 0.9029 0.0
H866 H 0.59614 0.03495 0.88614 0.0
H867 H 0.55491 0.26767 0.95194 0.0
H868 H 0.9122 0.78643 0.3383 0.0
H869 H 0.92913 0.82219 0.35902 0.0
H870 H 0.88647 0.79745 0.419 0.0
H871 H 0.87002 0.76138 0.39884 0.0
H872 H 0.88543 0.84856 0.40618 0.0
H873 H 0.94135 0.78869 0.41903 0.0
H874 H 0.96921 0.76012 0.40664 0.0
H875 H 0.00779 0.82235 0.36881 0.0
H876 H 0.97997 0.85123 0.38072 0.0
H877 H 0.92841 0.92253 0.49366 0.0
H878 H 0.91743 0.88663 0.47058 0.0
H879 H 0.96969 0.91351 0.41941 0.0
H880 H 0.98129 0.94923 0.44295 0.0
H881 H 0.96701 0.86353 0.42421 0.0
H882 H 0.91354 0.92389 0.41133 0.0
H883 H 0.88602 0.95371 0.42175 0.0
H884 H 0.84297 0.89272 0.4563 0.0
H885 H 0.8704 0.86257 0.44637 0.0
C886 C 0.90666 0.78835 0.35602 0.0
C887 C 0.88955 0.77103 0.36677 0.0
C888 C 0.9163 0.80888 0.3678 0.0
C889 C 0.90903 0.81251 0.39055 0.0
C890 C 0.89222 0.79513 0.4014 0.0
C891 C 0.88272 0.77457 0.38975 0.0
C892 C 0.91833 0.83475 0.403 0.0
C893 C 0.90323 0.8517 0.41033 0.0
C894 C 0.94169 0.83939 0.40763 0.0
C895 C 0.95845 0.82205 0.40055 0.0
C896 C 0.95567 0.79623 0.4079 0.0
C897 C 0.97147 0.77999 0.401 0.0
C898 C 0.99022 0.7894 0.38689 0.0
C899 C 0.99324 0.81508 0.37971 0.0
C900 C 0.97747 0.83139 0.38654 0.0
C901 C 0.93771 0.92073 0.47759 0.0
C902 C 0.95559 0.93887 0.47003 0.0
C903 C 0.93133 0.90024 0.46432 0.0
C904 C 0.94233 0.89765 0.44293 0.0
C905 C 0.96083 0.91516 0.43577 0.0
C906 C 0.96744 0.93557 0.44923 0.0
C907 C 0.93399 0.87706 0.42791 0.0
C908 C 0.94923 0.86051 0.41998 0.0
C909 C 0.91076 0.87296 0.42236 0.0
C910 C 0.89413 0.891 0.42826 0.0
C911 C 0.89827 0.91686 0.42128 0.0
C912 C 0.88268 0.93382 0.42709 0.0
C913 C 0.86278 0.92512 0.43972 0.0
C914 C 0.85841 0.89943 0.44653 0.0
C915 C 0.87396 0.88239 0.4408 0.0
H916 H 0.85073 0.93828 0.4442 0.0
H917 H 0.00244 0.77679 0.38156 0.0
H918 H 0.39883 0.72885 0.6608 0.0
H919 H 0.41629 0.69612 0.64061 0.0
H920 H 0.38529 0.71971 0.57727 0.0
H921 H 0.36827 0.75294 0.5971 0.0
H922 H 0.38011 0.66761 0.58649 0.0
H923 H 0.43998 0.73581 0.58369 0.0
H924 H 0.46637 0.76827 0.60025 0.0
H925 H 0.49556 0.71054 0.64146 0.0
H926 H 0.46911 0.67775 0.62538 0.0
H927 H 0.43937 0.60032 0.50728 0.0
H928 H 0.42387 0.63408 0.52769 0.0
H929 H 0.46244 0.61534 0.5876 0.0
H930 H 0.47862 0.58205 0.56696 0.0
H931 H 0.46362 0.66455 0.58115 0.0
H932 H 0.40449 0.59601 0.5838 0.0
H933 H 0.37785 0.56333 0.56779 0.0
H934 H 0.34677 0.62077 0.52819 0.0
H935 H 0.37344 0.65379 0.54359 0.0
C936 C 0.39595 0.72733 0.6425 0.0
C937 C 0.38215 0.74361 0.63059 0.0
C938 C 0.40586 0.70853 0.63102 0.0
C939 C 0.40216 0.70559 0.60743 0.0
C940 C 0.38828 0.72161 0.59552 0.0
C941 C 0.37848 0.74052 0.60693 0.0
C942 C 0.41264 0.68571 0.59515 0.0
C943 C 0.39838 0.66707 0.58506 0.0
C944 C 0.43644 0.68468 0.59389 0.0
C945 C 0.4524 0.70436 0.60351 0.0
C946 C 0.4519 0.73006 0.59643 0.0
C947 C 0.46689 0.74851 0.6057 0.0
C948 C 0.48259 0.74148 0.62195 0.0
C949 C 0.48336 0.71596 0.62891 0.0
C950 C 0.46839 0.69744 0.61971 0.0
C951 C 0.44466 0.60348 0.52475 0.0
C952 C 0.46014 0.58845 0.53555 0.0
C953 C 0.43567 0.62269 0.53646 0.0
C954 C 0.4416 0.62691 0.55938 0.0
C955 C 0.45753 0.61237 0.56998 0.0
C956 C 0.46677 0.59336 0.55815 0.0
C957 C 0.4311 0.6464 0.57231 0.0
C958 C 0.44535 0.66497 0.58259 0.0
C959 C 0.40724 0.64725 0.57389 0.0
C960 C 0.39112 0.62737 0.5647 0.0
C961 C 0.39209 0.60167 0.57155 0.0
C962 C 0.37697 0.58309 0.56261 0.0
C963 C 0.36067 0.58997 0.54699 0.0
C964 C 0.35942 0.61547 0.54028 0.0
C965 C 0.37453 0.63412 0.54911 0.0
H966 H 0.34899 0.57555 0.5401 0.0
H967 H 0.49418 0.75579 0.6291 0.0
H968 H 0.83665 0.90051 0.70619 0.0
H969 H 0.85957 0.92403 0.67491 0.0
H970 H 0.88355 0.85454 0.65376 0.0
H971 H 0.86013 0.83071 0.68442 0.0
H972 H 0.91834 0.89356 0.6599 0.0
H973 H 0.84678 0.8808 0.62172 0.0
H974 H 0.80563 0.88322 0.61773 0.0
H975 H 0.81535 0.96419 0.61929 0.0
H976 H 0.85655 0.96222 0.62362 0.0
H977 H 0.97474 0.93168 0.5541 0.0
H978 H 0.94882 0.91092 0.58421 0.0
H979 H 0.92072 0.98165 0.59421 0.0
H980 H 0.94622 0.00248 0.56346 0.0
H981 H 0.88787 0.94427 0.59515 0.0
H982 H 0.95868 0.95848 0.63211 0.0
H983 H 0.99994 0.95753 0.63653 0.0
H984 H 0.99204 0.87626 0.63906 0.0
H985 H 0.95076 0.87673 0.63427 0.0
C986 C 0.84642 0.89013 0.69461 0.0
C987 C 0.8466 0.86369 0.6979 0.0
C988 C 0.8596 0.90364 0.67684 0.0
C989 C 0.87325 0.89098 0.66211 0.0
C990 C 0.87322 0.86463 0.66508 0.0
C991 C 0.8599 0.85108 0.68268 0.0
C992 C 0.88817 0.90527 0.64406 0.0
C993 C 0.91171 0.90443 0.64558 0.0
C994 C 0.87946 0.92013 0.62592 0.0
C995 C 0.85471 0.92133 0.62326 0.0
C996 C 0.84012 0.8991 0.62143 0.0
C997 C 0.81679 0.9004 0.61906 0.0
C998 C 0.80787 0.92384 0.61833 0.0
C999 C 0.82228 0.94604 0.6199 0.0
C1000 C 0.84562 0.94485 0.62229 0.0
C1001 C 0.96308 0.94286 0.56271 0.0
C1002 C 0.96265 0.96877 0.55654 0.0
C1003 C 0.94831 0.93097 0.57998 0.0
C1004 C 0.93312 0.94484 0.59176 0.0
C1005 C 0.93237 0.97062 0.58539 0.0
C1006 C 0.94699 0.9825 0.56788 0.0
C1007 C 0.91811 0.93229 0.61075 0.0
C1008 C 0.89457 0.93352 0.6095 0.0
C1009 C 0.92684 0.91805 0.62936 0.0
C1010 C 0.95163 0.91765 0.63264 0.0
C1011 C 0.96575 0.94041 0.63347 0.0
C1012 C 0.98915 0.93996 0.63605 0.0
C1013 C 0.99862 0.91685 0.63802 0.0
C1014 C 0.98469 0.89415 0.63751 0.0
C1015 C 0.96128 0.89449 0.63488 0.0
H1016 H 0.01674 0.91654 0.63999 0.0
H1017 H 0.78981 0.9248 0.61649 0.0
H1018 H 0.65174 0.09014 0.2156 0.0
H1019 H 0.63248 0.07324 0.18221 0.0
H1020 H 0.57761 0.11947 0.19374 0.0
H1021 H 0.59575 0.13483 0.22814 0.0
H1022 H 0.56035 0.07653 0.18266 0.0
H1023 H 0.62196 0.1345 0.15065 0.0
H1024 H 0.66183 0.1523 0.14458 0.0
H1025 H 0.6791 0.08218 0.11885 0.0
H1026 H 0.63936 0.06386 0.12505 0.0
H1027 H 0.51606 0.0897 0.07075 0.0
H1028 H 0.53863 0.09866 0.10463 0.0
H1029 H 0.57085 0.02996 0.09769 0.0
H1030 H 0.54789 0.02047 0.06384 0.0
H1031 H 0.60058 0.07921 0.10621 0.0
H1032 H 0.53557 0.02384 0.13605 0.0
H1033 H 0.49451 0.01048 0.1396 0.0
H1034 H 0.48273 0.08138 0.16749 0.0
H1035 H 0.52371 0.09534 0.16374 0.0
C1036 C 0.6354 0.09644 0.2113 0.0
C1037 C 0.62545 0.11407 0.22461 0.0
C1038 C 0.62454 0.087 0.19194 0.0
C1039 C 0.60375 0.09539 0.18512 0.0
C1040 C 0.59368 0.11273 0.19852 0.0
C1041 C 0.60429 0.12182 0.21808 0.0
C1042 C 0.59234 0.08626 0.16411 0.0
C1043 C 0.5692 0.0773 0.16597 0.0
C1044 C 0.60386 0.08676 0.14228 0.0
C1045 C 0.62776 0.09772 0.13858 0.0
C1046 C 0.6343 0.12282 0.14387 0.0
C1047 C 0.65687 0.13301 0.14038 0.0
C1048 C 0.67301 0.11836 0.13141 0.0
C1049 C 0.66659 0.09349 0.12585 0.0
C1050 C 0.64405 0.0832 0.12934 0.0
C1051 C 0.52806 0.07655 0.07627 0.0
C1052 C 0.53017 0.05434 0.06468 0.0
C1053 C 0.5409 0.0817 0.09565 0.0
C1054 C 0.55628 0.06492 0.10361 0.0
C1055 C 0.55902 0.0431 0.09171 0.0
C1056 C 0.54587 0.03769 0.07249 0.0
C1057 C 0.56878 0.06998 0.12492 0.0
C1058 C 0.59199 0.07817 0.12306 0.0
C1059 C 0.55726 0.0693 0.14664 0.0
C1060 C 0.53269 0.0607 0.14944 0.0
C1061 C 0.52421 0.03665 0.14279 0.0
C1062 C 0.50095 0.02896 0.14486 0.0
C1063 C 0.48601 0.0451 0.15372 0.0
C1064 C 0.49432 0.06891 0.16062 0.0
C1065 C 0.51756 0.07671 0.15855 0.0
H1066 H 0.46801 0.03912 0.15527 0.0
H1067 H 0.69047 0.12628 0.12871 0.0
H1068 H 0.3606 0.56026 0.29058 0.0
H1069 H 0.37898 0.54243 0.3241 0.0
H1070 H 0.43075 0.60555 0.31894 0.0
H1071 H 0.41384 0.62217 0.28413 0.0
H1072 H 0.45018 0.56724 0.3305 0.0
H1073 H 0.38275 0.59909 0.35966 0.0
H1074 H 0.34179 0.604 0.36302 0.0
H1075 H 0.32795 0.52473 0.38243 0.0
H1076 H 0.36883 0.51928 0.3789 0.0
H1077 H 0.48523 0.56014 0.44768 0.0
H1078 H 0.46718 0.57334 0.41197 0.0
H1079 H 0.43183 0.4988 0.40972 0.0
H1080 H 0.45004 0.48527 0.44536 0.0
H1081 H 0.4042 0.54054 0.40203 0.0
H1082 H 0.47549 0.51267 0.37637 0.0
H1083 H 0.51718 0.51288 0.37635 0.0
H1084 H 0.52445 0.59134 0.35265 0.0
H1085 H 0.48285 0.59187 0.35329 0.0
C1086 C 0.37614 0.57017 0.29621 0.0
C1087 C 0.38548 0.59293 0.28454 0.0
C1088 C 0.38647 0.56011 0.31574 0.0
C1089 C 0.40601 0.5729 0.32455 0.0
C1090 C 0.41561 0.59532 0.3127 0.0
C1091 C 0.40563 0.60507 0.29289 0.0
C1092 C 0.41645 0.56315 0.34613 0.0
C1093 C 0.44008 0.56168 0.34616 0.0
C1094 C 0.4034 0.55553 0.36665 0.0
C1095 C 0.37881 0.55873 0.36875 0.0
C1096 C 0.37095 0.58267 0.36447 0.0
C1097 C 0.34776 0.58556 0.36644 0.0
C1098 C 0.33227 0.56468 0.37286 0.0
C1099 C 0.33996 0.54088 0.37741 0.0
C1100 C 0.36314 0.53788 0.37544 0.0
C1101 C 0.47359 0.54653 0.43964 0.0
C1102 C 0.46911 0.52162 0.44933 0.0
C1103 C 0.46334 0.55411 0.4192 0.0
C1104 C 0.44829 0.537 0.40816 0.0
C1105 C 0.44344 0.51226 0.41799 0.0
C1106 C 0.45391 0.50455 0.43828 0.0
C1107 C 0.43773 0.54495 0.38628 0.0
C1108 C 0.41415 0.54602 0.38624 0.0
C1109 C 0.45091 0.55289 0.36599 0.0
C1110 C 0.47599 0.55238 0.36513 0.0
C1111 C 0.48597 0.53006 0.37139 0.0
C1112 C 0.50961 0.53005 0.3713 0.0
C1113 C 0.52348 0.55216 0.36467 0.0
C1114 C 0.51373 0.57428 0.35798 0.0
C1115 C 0.49011 0.57444 0.35821 0.0
H1116 H 0.54178 0.55213 0.36463 0.0
H1117 H 0.31432 0.56695 0.37438 0.0
H1118 H 0.10265 0.35613 0.81427 0.0
H1119 H 0.08527 0.37378 0.84769 0.0
H1120 H 0.10697 0.44931 0.81948 0.0
H1121 H 0.12425 0.43183 0.78592 0.0
H1122 H 0.11486 0.44498 0.86496 0.0
H1123 H 0.05164 0.42433 0.81679 0.0
H1124 H 0.02634 0.39678 0.79366 0.0
H1125 H 0.00911 0.34686 0.85378 0.0
H1126 H 0.03457 0.37393 0.87721 0.0
H1127 H 0.04536 0.51159 0.9375 0.0
H1128 H 0.06307 0.49385 0.90428 0.0
H1129 H 0.04159 0.41836 0.93276 0.0
H1130 H 0.02366 0.43593 0.96591 0.0
H1131 H 0.03364 0.42262 0.88724 0.0
H1132 H 0.09667 0.44317 0.93546 0.0
H1133 H 0.12189 0.47064 0.95874 0.0
H1134 H 0.13947 0.52059 0.89872 0.0
H1135 H 0.11409 0.4936 0.87514 0.0
C1136 C 0.10355 0.37651 0.81502 0.0
C1137 C 0.11482 0.39252 0.79728 0.0
C1138 C 0.09362 0.38659 0.83421 0.0
C1139 C 0.09458 0.41292 0.83604 0.0
C1140 C 0.10603 0.42895 0.81851 0.0
C1141 C 0.11598 0.41889 0.79933 0.0
C1142 C 0.08371 0.42376 0.85625 0.0
C1143 C 0.09702 0.44034 0.86963 0.0
C1144 C 0.06055 0.41731 0.86274 0.0
C1145 C 0.04519 0.40102 0.8487 0.0
C1146 C 0.0426 0.40737 0.82504 0.0
C1147 C 0.0282 0.39186 0.81188 0.0
C1148 C 0.01617 0.37004 0.82223 0.0
C1149 C 0.01847 0.36374 0.84578 0.0
C1150 C 0.03286 0.37917 0.85901 0.0
C1151 C 0.04444 0.49121 0.93675 0.0
C1152 C 0.03313 0.47521 0.95446 0.0
C1153 C 0.05465 0.48108 0.91775 0.0
C1154 C 0.05388 0.45473 0.91608 0.0
C1155 C 0.04244 0.43873 0.93364 0.0
C1156 C 0.03225 0.44883 0.95264 0.0
C1157 C 0.0648 0.44384 0.89594 0.0
C1158 C 0.05148 0.42725 0.88257 0.0
C1159 C 0.08796 0.45027 0.88948 0.0
C1160 C 0.1033 0.46649 0.90359 0.0
C1161 C 0.10577 0.46012 0.92727 0.0
C1162 C 0.12012 0.47558 0.94051 0.0
C1163 C 0.13223 0.49738 0.93023 0.0
C1164 C 0.13005 0.50372 0.90666 0.0
C1165 C 0.1157 0.48833 0.89335 0.0
H1166 H 0.14333 0.50933 0.94051 0.0
H1167 H 0.00503 0.35806 0.81201 0.0
H1168 H 0.71946 0.89766 0.84588 0.0
H1169 H 0.69273 0.92027 0.86754 0.0
H1170 H 0.65744 0.84913 0.8935 0.0
H1171 H 0.68371 0.82633 0.8712 0.0
H1172 H 0.628 0.88236 0.88053 0.0
H1173 H 0.69317 0.88272 0.92763 0.0
H1174 H 0.73374 0.88956 0.93661 0.0
H1175 H 0.73354 0.96908 0.91869 0.0
H1176 H 0.69302 0.96265 0.90928 0.0
H1177 H 0.56744 0.93282 0.97217 0.0
H1178 H 0.59489 0.90943 0.95213 0.0
H1179 H 0.62387 0.97875 0.91616 0.0
H1180 H 0.59624 0.0023 0.93586 0.0
H1181 H 0.65635 0.94579 0.93534 0.0
H1182 H 0.59085 0.94423 0.88725 0.0
H1183 H 0.55 0.93671 0.87973 0.0
H1184 H 0.5508 0.85817 0.90137 0.0
H1185 H 0.59164 0.8653 0.90934 0.0
C1186 C 0.70585 0.88681 0.85595 0.0
C1187 C 0.70372 0.86018 0.85683 0.0
C1188 C 0.69073 0.89976 0.86853 0.0
C1189 C 0.6733 0.88637 0.88239 0.0
C1190 C 0.67085 0.85981 0.883 0.0
C1191 C 0.68597 0.84682 0.87039 0.0
C1192 C 0.65762 0.90016 0.89619 0.0
C1193 C 0.63419 0.89595 0.89276 0.0
C1194 C 0.66573 0.91819 0.91188 0.0
C1195 C 0.69011 0.92215 0.91753 0.0
C1196 C 0.70182 0.90163 0.92541 0.0
C1197 C 0.7248 0.90544 0.93061 0.0
C1198 C 0.73622 0.92973 0.92816 0.0
C1199 C 0.72468 0.95027 0.92055 0.0
C1200 C 0.7017 0.94655 0.9153 0.0
C1201 C 0.57979 0.94313 0.96017 0.0
C1202 C 0.57968 0.96938 0.95554 0.0
C1203 C 0.59538 0.92973 0.9487 0.0
C1204 C 0.61126 0.9424 0.93263 0.0
C1205 C 0.61171 0.96871 0.92853 0.0
C1206 C 0.5959 0.98208 0.93974 0.0
C1207 C 0.62689 0.92803 0.91953 0.0
C1208 C 0.65025 0.93213 0.92313 0.0
C1209 C 0.61873 0.90977 0.90414 0.0
C1210 C 0.59424 0.90536 0.89914 0.0
C1211 C 0.58227 0.9254 0.8906 0.0
C1212 C 0.55913 0.92121 0.88622 0.0
C1213 C 0.54778 0.89701 0.89015 0.0
C1214 C 0.55959 0.87692 0.89838 0.0
C1215 C 0.58275 0.88102 0.90281 0.0
H1216 H 0.52986 0.89381 0.88676 0.0
H1217 H 0.75401 0.93264 0.93221 0.0
H1218 H 0.79091 0.10945 0.34132 0.0
H1219 H 0.8252 0.09409 0.3575 0.0
H1220 H 0.79774 0.09931 0.42658 0.0
H1221 H 0.76329 0.11446 0.41054 0.0
H1222 H 0.84155 0.11933 0.42246 0.0
H1223 H 0.79864 0.04238 0.40339 0.0
H1224 H 0.7771 0.01368 0.37804 0.0
H1225 H 0.83561 0.01481 0.33253 0.0
H1226 H 0.85742 0.04382 0.35745 0.0
H1227 H 0.91868 0.04753 0.48383 0.0
H1228 H 0.88504 0.06392 0.4672 0.0
H1229 H 0.91227 0.05613 0.39845 0.0
H1230 H 0.9458 0.03931 0.41494 0.0
H1231 H 0.86878 0.03775 0.40206 0.0
H1232 H 0.91187 0.11437 0.42108 0.0
H1233 H 0.93352 0.14319 0.44624 0.0
H1234 H 0.87496 0.14295 0.49154 0.0
H1235 H 0.85304 0.11383 0.46681 0.0
C1236 C 0.79203 0.10704 0.35995 0.0
C1237 C 0.77432 0.11313 0.37463 0.0
C1238 C 0.81168 0.09832 0.36917 0.0
C1239 C 0.81395 0.09537 0.39325 0.0
C1240 C 0.79636 0.10152 0.40795 0.0
C1241 C 0.77671 0.11024 0.39875 0.0
C1242 C 0.83478 0.08614 0.40312 0.0
C1243 C 0.84736 0.10134 0.41825 0.0
C1244 C 0.84265 0.06297 0.39716 0.0
C1245 C 0.82959 0.04548 0.38217 0.0
C1246 C 0.80686 0.03668 0.38788 0.0
C1247 C 0.79461 0.02033 0.3736 0.0
C1248 C 0.80496 0.01248 0.35365 0.0
C1249 C 0.82761 0.02093 0.34797 0.0
C1250 C 0.83992 0.03731 0.36217 0.0
C1251 C 0.9176 0.04946 0.46517 0.0
C1252 C 0.93495 0.04214 0.45071 0.0
C1253 C 0.89838 0.05892 0.45568 0.0
C1254 C 0.89622 0.06148 0.43156 0.0
C1255 C 0.91357 0.05432 0.4171 0.0
C1256 C 0.93277 0.04479 0.42657 0.0
C1257 C 0.87558 0.07094 0.42142 0.0
C1258 C 0.86302 0.05578 0.40626 0.0
C1259 C 0.86775 0.09417 0.42732 0.0
C1260 C 0.88088 0.11172 0.4422 0.0
C1261 C 0.90366 0.1203 0.43651 0.0
C1262 C 0.91597 0.13672 0.45067 0.0
C1263 C 0.90564 0.14485 0.47051 0.0
C1264 C 0.88295 0.13661 0.47619 0.0
C1265 C 0.87057 0.12017 0.46209 0.0
H1266 H 0.9152 0.15756 0.48145 0.0
H1267 H 0.79546 0.99982 0.34262 0.0
H1268 H 0.24658 0.56609 0.12008 0.0
H1269 H 0.2113 0.55089 0.10155 0.0
H1270 H 0.17689 0.60952 0.13185 0.0
H1271 H 0.21211 0.62496 0.1501 0.0
H1272 H 0.15286 0.55919 0.13613 0.0
H1273 H 0.1919 0.61894 0.07864 0.0
H1274 H 0.22456 0.63564 0.0532 0.0
H1275 H 0.22152 0.56557 0.01946 0.0
H1276 H 0.18902 0.54832 0.04496 0.0
H1277 H 0.05056 0.55174 0.0783 0.0
H1278 H 0.08692 0.56833 0.09324 0.0
H1279 H 0.12201 0.52344 0.0468 0.0
H1280 H 0.08562 0.50793 0.03091 0.0
H1281 H 0.14684 0.56509 0.05063 0.0
H1282 H 0.10929 0.50425 0.10594 0.0
H1283 H 0.07787 0.48442 0.13154 0.0
H1284 H 0.07966 0.55136 0.16988 0.0
H1285 H 0.11091 0.57173 0.1443 0.0
C1286 C 0.23142 0.57557 0.12289 0.0
C1287 C 0.23204 0.59671 0.13646 0.0
C1288 C 0.21136 0.56698 0.11222 0.0
C1289 C 0.19156 0.5792 0.11525 0.0
C1290 C 0.19201 0.59988 0.12928 0.0
C1291 C 0.21212 0.60872 0.13961 0.0
C1292 C 0.17033 0.57061 0.10367 0.0
C1293 C 0.15142 0.56071 0.11746 0.0
C1294 C 0.16877 0.57182 0.07929 0.0
C1295 C 0.1882 0.58225 0.06387 0.0
C1296 C 0.19832 0.60701 0.06594 0.0
C1297 C 0.21678 0.61659 0.05148 0.0
C1298 C 0.22516 0.60165 0.03477 0.0
C1299 C 0.21504 0.57711 0.03244 0.0
C1300 C 0.19659 0.56743 0.04687 0.0
C1301 C 0.06607 0.54578 0.07101 0.0
C1302 C 0.06528 0.52847 0.05355 0.0
C1303 C 0.08686 0.55507 0.0797 0.0
C1304 C 0.10725 0.54653 0.07172 0.0
C1305 C 0.10655 0.53021 0.05341 0.0
C1306 C 0.08575 0.52138 0.0443 0.0
C1307 C 0.12907 0.55385 0.08309 0.0
C1308 C 0.14817 0.56346 0.06931 0.0
C1309 C 0.13098 0.55185 0.10752 0.0
C1310 C 0.11231 0.53959 0.12307 0.0
C1311 C 0.10289 0.5148 0.11974 0.0
C1312 C 0.08513 0.50346 0.13426 0.0
C1313 C 0.07674 0.51664 0.15229 0.0
C1314 C 0.08616 0.54118 0.15589 0.0
C1315 C 0.10391 0.55262 0.1414 0.0
H1316 H 0.06298 0.50784 0.16351 0.0
H1317 H 0.23945 0.6091 0.02359 0.0
H1318 H 0.2579 0.40168 0.61097 0.0
H1319 H 0.29423 0.41898 0.59288 0.0
H1320 H 0.3249 0.4182 0.65977 0.0
H1321 H 0.28851 0.40099 0.67802 0.0
H1322 H 0.33874 0.46092 0.63527 0.0
H1323 H 0.33333 0.3726 0.62103 0.0
H1324 H 0.31543 0.33252 0.60746 0.0
H1325 H 0.31491 0.36617 0.53823 0.0
H1326 H 0.33253 0.40658 0.55146 0.0
H1327 H 0.45317 0.47856 0.59585 0.0
H1328 H 0.41725 0.45942 0.61345 0.0
H1329 H 0.38675 0.46112 0.54647 0.0
H1330 H 0.42291 0.47976 0.52861 0.0
H1331 H 0.37277 0.41803 0.57091 0.0
H1332 H 0.37969 0.50655 0.58581 0.0
H1333 H 0.39876 0.5457 0.60015 0.0
H1334 H 0.39682 0.51108 0.6691 0.0
H1335 H 0.37834 0.47146 0.65513 0.0
C1336 C 0.2724 0.40507 0.62184 0.0
C1337 C 0.27031 0.39977 0.64595 0.0
C1338 C 0.29319 0.41496 0.61146 0.0
C1339 C 0.31246 0.41953 0.62489 0.0
C1340 C 0.31031 0.41481 0.64902 0.0
C1341 C 0.28947 0.40503 0.65945 0.0
C1342 C 0.33483 0.42915 0.61376 0.0
C1343 C 0.34631 0.45135 0.6214 0.0
C1344 C 0.34455 0.417 0.59531 0.0
C1345 C 0.33405 0.39269 0.58729 0.0
C1346 C 0.32925 0.37151 0.60295 0.0
C1347 C 0.31918 0.34872 0.59531 0.0
C1348 C 0.31398 0.34682 0.57201 0.0
C1349 C 0.31891 0.36768 0.55628 0.0
C1350 C 0.32896 0.39053 0.56384 0.0
C1351 C 0.43889 0.47468 0.5848 0.0
C1352 C 0.44087 0.48088 0.56083 0.0
C1353 C 0.4183 0.46383 0.59493 0.0
C1354 C 0.3991 0.45934 0.58139 0.0
C1355 C 0.40127 0.46455 0.55731 0.0
C1356 C 0.42196 0.47521 0.54711 0.0
C1357 C 0.3767 0.44977 0.59244 0.0
C1358 C 0.36519 0.42761 0.58476 0.0
C1359 C 0.367 0.46192 0.61093 0.0
C1360 C 0.37779 0.48593 0.61938 0.0
C1361 C 0.38346 0.50721 0.60401 0.0
C1362 C 0.39415 0.5295 0.61206 0.0
C1363 C 0.39896 0.53088 0.6355 0.0
C1364 C 0.39309 0.50998 0.65094 0.0
C1365 C 0.38253 0.48759 0.64297 0.0
H1366 H 0.40722 0.54816 0.64168 0.0
H1367 H 0.30619 0.32916 0.56613 0.0
H1368 H 0.85207 0.6809 0.83172 0.0
H1369 H 0.87806 0.65517 0.8526 0.0
H1370 H 0.87365 0.70098 0.91141 0.0
H1371 H 0.8482 0.72717 0.89044 0.0
H1372 H 0.91705 0.69514 0.89978 0.0
H1373 H 0.84734 0.64141 0.91217 0.0
H1374 H 0.81251 0.61621 0.90122 0.0
H1375 H 0.85245 0.56886 0.86263 0.0
H1376 H 0.88754 0.59407 0.87299 0.0
H1377 H 0.96641 0.6179 0.98531 0.0
H1378 H 0.94277 0.64378 0.96166 0.0
H1379 H 0.94866 0.5947 0.90543 0.0
H1380 H 0.97204 0.56847 0.92907 0.0
H1381 H 0.90535 0.60186 0.91416 0.0
H1382 H 0.97499 0.65483 0.90203 0.0
H1383 H 0.01001 0.67956 0.91317 0.0
H1384 H 0.97042 0.72779 0.95116 0.0
H1385 H 0.93516 0.70313 0.9405 0.0
C1386 C 0.85659 0.68542 0.84913 0.0
C1387 C 0.8481 0.70607 0.85943 0.0
C1388 C 0.8713 0.6706 0.86109 0.0
C1389 C 0.8777 0.67612 0.88359 0.0
C1390 C 0.8689 0.6964 0.89407 0.0
C1391 C 0.85419 0.71119 0.88214 0.0
C1392 C 0.8944 0.66154 0.89584 0.0
C1393 C 0.91437 0.67477 0.9032 0.0
C1394 C 0.89119 0.63488 0.8996 0.0
C1395 C 0.87007 0.61986 0.89312 0.0
C1396 C 0.8487 0.62582 0.90112 0.0
C1397 C 0.82891 0.61149 0.89506 0.0
C1398 C 0.83026 0.59102 0.88116 0.0
C1399 C 0.85142 0.58478 0.87333 0.0
C1400 C 0.87127 0.59909 0.8793 0.0
C1401 C 0.96303 0.61285 0.96777 0.0
C1402 C 0.97103 0.59106 0.95912 0.0
C1403 C 0.94953 0.6277 0.95425 0.0
C1404 C 0.94399 0.62118 0.93176 0.0
C1405 C 0.95268 0.6 0.92277 0.0
C1406 C 0.96613 0.58511 0.93628 0.0
C1407 C 0.92792 0.63548 0.91825 0.0
C1408 C 0.90808 0.62221 0.91064 0.0
C1409 C 0.93126 0.66208 0.91419 0.0
C1410 C 0.95244 0.67698 0.92063 0.0
C1411 C 0.97376 0.67058 0.91291 0.0
C1412 C 0.99365 0.68461 0.91911 0.0
C1413 C 0.99244 0.7052 0.93291 0.0
C1414 C 0.97133 0.71183 0.94049 0.0
C1415 C 0.95138 0.69785 0.93435 0.0
H1416 H 0.00786 0.71604 0.93769 0.0
H1417 H 0.81492 0.57996 0.8765 0.0
H1418 H 0.42551 0.75281 0.13712 0.0
H1419 H 0.44515 0.79103 0.11762 0.0
H1420 H 0.3807 0.81768 0.10026 0.0
H1421 H 0.3609 0.77971 0.12001 0.0
H1422 H 0.41072 0.82338 0.06337 0.0
H1423 H 0.4106 0.84245 0.14366 0.0
H1424 H 0.41785 0.835 0.18517 0.0
H1425 H 0.48922 0.83551 0.16965 0.0
H1426 H 0.48235 0.84261 0.12799 0.0
H1427 H 0.44484 0.95179 0.03215 0.0
H1428 H 0.42746 0.91266 0.05188 0.0
H1429 H 0.49384 0.89017 0.06754 0.0
H1430 H 0.51146 0.92952 0.04796 0.0
H1431 H 0.46435 0.88138 0.10468 0.0
H1432 H 0.46486 0.86428 0.02454 0.0
H1433 H 0.45781 0.87286 0.98314 0.0
H1434 H 0.38608 0.86869 0.99809 0.0
H1435 H 0.39273 0.86058 0.03967 0.0
C1436 C 0.41549 0.76692 0.1294 0.0
C1437 C 0.39161 0.76319 0.13021 0.0
C1438 C 0.42676 0.78872 0.11818 0.0
C1439 C 0.41439 0.80728 0.10762 0.0
C1440 C 0.39058 0.80355 0.10822 0.0
C1441 C 0.3793 0.78179 0.11947 0.0
C1442 C 0.42625 0.83062 0.09594 0.0
C1443 C 0.42225 0.83621 0.07246 0.0
C1444 C 0.44175 0.847 0.10765 0.0
C1445 C 0.44592 0.84278 0.13269 0.0
C1446 C 0.42781 0.84076 0.14908 0.0
C1447 C 0.43186 0.83664 0.17264 0.0
C1448 C 0.45397 0.83471 0.18003 0.0
C1449 C 0.4721 0.83696 0.16389 0.0
C1450 C 0.46814 0.84105 0.14031 0.0
C1451 C 0.4558 0.93856 0.03978 0.0
C1452 C 0.47956 0.94373 0.03836 0.0
C1453 C 0.44581 0.91615 0.051 0.0
C1454 C 0.45936 0.89836 0.06091 0.0
C1455 C 0.48308 0.90364 0.05994 0.0
C1456 C 0.49311 0.92609 0.0487 0.0
C1457 C 0.44868 0.87423 0.07219 0.0
C1458 C 0.4529 0.86848 0.09556 0.0
C1459 C 0.43343 0.85767 0.06036 0.0
C1460 C 0.42931 0.86203 0.03528 0.0
C1461 C 0.44759 0.86536 0.01903 0.0
C1462 C 0.44367 0.87013 0.99552 0.0
C1463 C 0.42152 0.87137 0.98799 0.0
C1464 C 0.40324 0.86775 0.00395 0.0
C1465 C 0.40707 0.86305 0.0275 0.0
H1466 H 0.41852 0.8751 0.96979 0.0
H1467 H 0.45707 0.83153 0.19828 0.0
H1468 H 0.14541 0.21776 0.63832 0.0
H1469 H 0.12936 0.18147 0.61815 0.0
H1470 H 0.06192 0.20297 0.63076 0.0
H1471 H 0.07792 0.23972 0.65082 0.0
H1472 H 0.06429 0.15089 0.63751 0.0
H1473 H 0.08616 0.21638 0.57868 0.0
H1474 H 0.11211 0.24978 0.55809 0.0
H1475 H 0.15853 0.1951 0.54308 0.0
H1476 H 0.13301 0.16142 0.56389 0.0
H1477 H 0.0179 0.06399 0.55628 0.0
H1478 H 0.02756 0.10233 0.57706 0.0
H1479 H 0.09881 0.09593 0.56385 0.0
H1480 H 0.08931 0.05826 0.5427 0.0
H1481 H 0.09071 0.14294 0.55649 0.0
H1482 H 0.07114 0.0783 0.61757 0.0
H1483 H 0.04621 0.04446 0.63886 0.0
H1484 H 0.99652 0.09669 0.65012 0.0
H1485 H 0.02104 0.13078 0.62861 0.0
C1486 C 0.12716 0.21492 0.63673 0.0
C1487 C 0.113 0.23193 0.64594 0.0
C1488 C 0.118 0.19408 0.62525 0.0
C1489 C 0.09446 0.18971 0.62261 0.0
C1490 C 0.08014 0.20602 0.63253 0.0
C1491 C 0.08932 0.22698 0.64404 0.0
C1492 C 0.08507 0.16848 0.60891 0.0
C1493 C 0.06975 0.14932 0.61967 0.0
C1494 C 0.09246 0.16624 0.58573 0.0
C1495 C 0.10774 0.18641 0.573 0.0
C1496 C 0.10197 0.21151 0.57113 0.0
C1497 C 0.11659 0.23049 0.5594 0.0
C1498 C 0.13697 0.22457 0.54932 0.0
C1499 C 0.14274 0.19966 0.5509 0.0
C1500 C 0.1282 0.18061 0.56264 0.0
C1501 C 0.03561 0.07082 0.55777 0.0
C1502 C 0.05282 0.05804 0.5478 0.0
C1503 C 0.04113 0.09267 0.56977 0.0
C1504 C 0.06396 0.10196 0.57226 0.0
C1505 C 0.08108 0.08926 0.56215 0.0
C1506 C 0.07559 0.06763 0.55006 0.0
C1507 C 0.07032 0.12492 0.58522 0.0
C1508 C 0.08505 0.14452 0.57427 0.0
C1509 C 0.06249 0.12743 0.60824 0.0
C1510 C 0.0478 0.107 0.62126 0.0
C1511 C 0.05482 0.08252 0.62444 0.0
C1512 C 0.04078 0.0633 0.63657 0.0
C1513 C 0.01977 0.0684 0.64577 0.0
C1514 C 0.01278 0.09275 0.64293 0.0
C1515 C 0.02675 0.11203 0.63079 0.0
H1516 H 0.00892 0.0535 0.65516 0.0
H1517 H 0.14827 0.2393 0.54025 0.0
H1518 H 0.59087 0.25014 0.36945 0.0
H1519 H 0.5728 0.28306 0.38872 0.0
H1520 H 0.63714 0.30984 0.41634 0.0
H1521 H 0.6555 0.27736 0.39671 0.0
H1522 H 0.60208 0.30503 0.44927 0.0
H1523 H 0.61685 0.34194 0.37168 0.0
H1524 H 0.61504 0.3432 0.3291 0.0
H1525 H 0.54218 0.33711 0.33404 0.0
H1526 H 0.54355 0.33545 0.37669 0.0
H1527 H 0.57864 0.4242 0.48608 0.0
H1528 H 0.59365 0.38897 0.46767 0.0
H1529 H 0.52919 0.37132 0.43603 0.0
H1530 H 0.51417 0.40715 0.45395 0.0
H1531 H 0.56245 0.36986 0.40538 0.0
H1532 H 0.54683 0.33409 0.48225 0.0
H1533 H 0.54765 0.3316 0.5249 0.0
H1534 H 0.62041 0.33431 0.52172 0.0
H1535 H 0.62007 0.33709 0.47902 0.0
C1536 C 0.60127 0.26321 0.37937 0.0
C1537 C 0.62469 0.26112 0.38145 0.0
C1538 C 0.59087 0.28195 0.39046 0.0
C1539 C 0.60366 0.29896 0.40385 0.0
C1540 C 0.62696 0.29682 0.40615 0.0
C1541 C 0.6374 0.27817 0.39499 0.0
C1542 C 0.59277 0.319 0.4155 0.0
C1543 C 0.59363 0.3194 0.43968 0.0
C1544 C 0.58115 0.33722 0.40301 0.0
C1545 C 0.5803 0.3383 0.37738 0.0
C1546 C 0.60044 0.34065 0.36369 0.0
C1547 C 0.59949 0.34148 0.33955 0.0
C1548 C 0.57851 0.34016 0.32888 0.0
C1549 C 0.55842 0.33808 0.34233 0.0
C1550 C 0.55927 0.33722 0.36649 0.0
C1551 C 0.56757 0.41278 0.4753 0.0
C1552 C 0.54518 0.41849 0.47149 0.0
C1553 C 0.57616 0.39252 0.46488 0.0
C1554 C 0.56247 0.37725 0.4507 0.0
C1555 C 0.54006 0.38281 0.44694 0.0
C1556 C 0.53147 0.40324 0.45725 0.0
C1557 C 0.57187 0.35606 0.43922 0.0
C1558 C 0.57076 0.35543 0.41504 0.0
C1559 C 0.5831 0.33749 0.45174 0.0
C1560 C 0.58342 0.33596 0.47742 0.0
C1561 C 0.56302 0.33434 0.49064 0.0
C1562 C 0.5634 0.33284 0.51482 0.0
C1563 C 0.58407 0.33278 0.526 0.0
C1564 C 0.60442 0.33432 0.51302 0.0
C1565 C 0.60414 0.33582 0.48883 0.0
H1566 H 0.5843 0.33143 0.54472 0.0
H1567 H 0.57781 0.34081 0.31018 0.0
loop_
_geom_bond_atom_site_label_1
_geom_bond_atom_site_label_2
_geom_bond_distance
_geom_bond_site_symmetry_2
_ccdc_geom_bond_type
C0 C1 1.384 . S
C0 H13 0.947 . S
C0 C35 1.382 . S
C1 C0 1.384 . S
C1 C2 1.378 . S
C2 C1 1.378 . S
C2 C3 1.378 . S
C2 H14 0.952 . S
C3 C2 1.378 . S
C3 H15 0.950 . S
C3 C34 1.383 . S
H4 C23 0.947 . S
H5 C24 0.946 . S
H6 C26 0.953 . S
H7 C27 0.945 . S
H8 C29 0.952 . S
H9 C30 0.949 . S
H10 C32 0.950 . S
H11 C33 0.948 . S
H12 C35 0.951 . S
H13 C0 0.947 . S
H14 C2 0.952 . S
H15 C3 0.950 . S
N16 C19 1.382 . S
N16 C21 1.363 . S
N17 C19 1.371 . S
N17 C20 1.372 . S
N18 C20 1.361 . S
N18 C21 1.377 . S
C19 N16 1.382 . S
C19 N17 1.371 . S
C19 C22 1.480 . S
C20 N17 1.372 . S
C20 N18 1.361 . S
C20 C28 1.457 . S
C21 N16 1.363 . S
C21 N18 1.377 . S
C21 C34 1.479 . S
C22 C19 1.480 . S
C22 C23 1.383 . S
C22 C27 1.385 . S
C23 H4 0.947 . S
C23 C22 1.383 . S
C23 C24 1.388 . S
C24 H5 0.946 . S
C24 C23 1.388 . S
C24 C25 1.384 . S
C25 C24 1.384 . S
C25 C26 1.377 . S
C26 H6 0.953 . S
C26 C25 1.377 . S
C26 C27 1.369 . S
C27 H7 0.945 . S
C27 C22 1.385 . S
C27 C26 1.369 . S
C28 C20 1.457 . S
C28 C29 1.372 . S
C28 C33 1.364 . S
C29 H8 0.952 . S
C29 C28 1.372 . S
C29 C30 1.389 . S
C30 H9 0.949 . S
C30 C29 1.389 . S
C30 C31 1.387 . S
C31 C30 1.387 . S
C31 C32 1.372 . S
C32 H10 0.950 . S
C32 C31 1.372 . S
C32 C33 1.379 . S
C33 H11 0.948 . S
C33 C28 1.364 . S
C33 C32 1.379 . S
C34 C3 1.383 . S
C34 C21 1.479 . S
C34 C35 1.398 . S
C35 C0 1.382 . S
C35 H12 0.951 . S
C35 C34 1.398 . S
C36 C37 1.384 . S
C36 H49 0.947 . S
C36 C71 1.382 . S
C37 C36 1.384 . S
C37 C38 1.378 . S
C38 C37 1.378 . S
C38 C39 1.378 . S
C38 H50 0.952 . S
C39 C38 1.378 . S
C39 H51 0.950 . S
C39 C70 1.383 . S
H40 C59 0.947 . S
H41 C60 0.946 . S
H42 C62 0.953 . S
H43 C63 0.945 . S
H44 C65 0.952 . S
H45 C66 0.949 . S
H46 C68 0.950 . S
H47 C69 0.948 . S
H48 C71 0.951 . S
H49 C36 0.947 . S
H50 C38 0.952 . S
H51 C39 0.950 . S
N52 C55 1.382 . S
N52 C57 1.363 . S
N53 C55 1.371 . S
N53 C56 1.372 . S
N54 C56 1.361 . S
N54 C57 1.377 . S
C55 N52 1.382 . S
C55 N53 1.371 . S
C55 C58 1.480 . S
C56 N53 1.372 . S
C56 N54 1.361 . S
C56 C64 1.457 . S
C57 N52 1.363 . S
C57 N54 1.377 . S
C57 C70 1.479 . S
C58 C55 1.480 . S
C58 C59 1.383 . S
C58 C63 1.385 . S
C59 H40 0.947 . S
C59 C58 1.383 . S
C59 C60 1.388 . S
C60 H41 0.946 . S
C60 C59 1.388 . S
C60 C61 1.384 . S
C61 C60 1.384 . S
C61 C62 1.377 . S
C62 H42 0.953 . S
C62 C61 1.377 . S
C62 C63 1.369 . S
C63 H43 0.945 . S
C63 C58 1.385 . S
C63 C62 1.369 . S
C64 C56 1.457 . S
C64 C65 1.372 . S
C64 C69 1.364 . S
C65 H44 0.952 . S
C65 C64 1.372 . S
C65 C66 1.389 . S
C66 H45 0.949 . S
C66 C65 1.389 . S
C66 C67 1.387 . S
C67 C66 1.387 . S
C67 C68 1.372 . S
C68 H46 0.950 . S
C68 C67 1.372 . S
C68 C69 1.379 . S
C69 H47 0.948 . S
C69 C64 1.364 . S
C69 C68 1.379 . S
C70 C39 1.383 . S
C70 C57 1.479 . S
C70 C71 1.398 . S
C71 C36 1.382 . S
C71 H48 0.951 . S
C71 C70 1.398 . S
C72 C73 1.384 . S
C72 H85 0.947 . S
C72 C107 1.382 . S
C73 C72 1.384 . S
C73 C74 1.378 . S
C74 C73 1.378 . S
C74 C75 1.378 . S
C74 H86 0.952 . S
C75 C74 1.378 . S
C75 H87 0.950 . S
C75 C106 1.383 . S
H76 C95 0.947 . S
H77 C96 0.946 . S
H78 C98 0.953 . S
H79 C99 0.945 . S
H80 C101 0.952 . S
H81 C102 0.949 . S
H82 C104 0.950 . S
H83 C105 0.948 . S
H84 C107 0.951 . S
H85 C72 0.947 . S
H86 C74 0.952 . S
H87 C75 0.950 . S
N88 C91 1.382 . S
N88 C93 1.363 . S
N89 C91 1.371 . S
N89 C92 1.372 . S
N90 C92 1.361 . S
N90 C93 1.377 . S
C91 N88 1.382 . S
C91 N89 1.371 . S
C91 C94 1.480 . S
C92 N89 1.372 . S
C92 N90 1.361 . S
C92 C100 1.457 . S
C93 N88 1.363 . S
C93 N90 1.377 . S
C93 C106 1.479 . S
C94 C91 1.480 . S
C94 C95 1.383 . S
C94 C99 1.385 . S
C95 H76 0.947 . S
C95 C94 1.383 . S
C95 C96 1.388 . S
C96 H77 0.946 . S
C96 C95 1.388 . S
C96 C97 1.384 . S
C97 C96 1.384 . S
C97 C98 1.377 . S
C98 H78 0.953 . S
C98 C97 1.377 . S
C98 C99 1.369 . S
C99 H79 0.945 . S
C99 C94 1.385 . S
C99 C98 1.369 . S
C100 C92 1.457 . S
C100 C101 1.372 . S
C100 C105 1.364 . S
C101 H80 0.952 . S
C101 C100 1.372 . S
C101 C102 1.389 . S
C102 H81 0.949 . S
C102 C101 1.389 . S
C102 C103 1.387 . S
C103 C102 1.387 . S
C103 C104 1.372 . S
C104 H82 0.950 . S
C104 C103 1.372 . S
C104 C105 1.379 . S
C105 H83 0.948 . S
C105 C100 1.364 . S
C105 C104 1.379 . S
C106 C75 1.383 . S
C106 C93 1.479 . S
C106 C107 1.398 . S
C107 C72 1.382 . S
C107 H84 0.951 . S
C107 C106 1.398 . S
C108 C109 1.384 . S
C108 H121 0.947 . S
C108 C143 1.382 . S
C109 C108 1.384 . S
C109 C110 1.378 . S
C110 C109 1.378 . S
C110 C111 1.378 . S
C110 H122 0.952 . S
C111 C110 1.378 . S
C111 H123 0.950 . S
C111 C142 1.383 . S
H112 C131 0.947 . S
H113 C132 0.946 . S
H114 C134 0.953 . S
H115 C135 0.945 . S
H116 C137 0.952 . S
H117 C138 0.949 . S
H118 C140 0.950 . S
H119 C141 0.948 . S
H120 C143 0.951 . S
H121 C108 0.947 . S
H122 C110 0.952 . S
H123 C111 0.950 . S
N124 C127 1.382 . S
N124 C129 1.363 . S
N125 C127 1.371 . S
N125 C128 1.372 . S
N126 C128 1.361 . S
N126 C129 1.377 . S
C127 N124 1.382 . S
C127 N125 1.371 . S
C127 C130 1.480 . S
C128 N125 1.372 . S
C128 N126 1.361 . S
C128 C136 1.457 . S
C129 N124 1.363 . S
C129 N126 1.377 . S
C129 C142 1.479 . S
C130 C127 1.480 . S
C130 C131 1.383 . S
C130 C135 1.385 . S
C131 H112 0.947 . S
C131 C130 1.383 . S
C131 C132 1.388 . S
C132 H113 0.946 . S
C132 C131 1.388 . S
C132 C133 1.384 . S
C133 C132 1.384 . S
C133 C134 1.377 . S
C134 H114 0.953 . S
C134 C133 1.377 . S
C134 C135 1.369 . S
C135 H115 0.945 . S
C135 C130 1.385 . S
C135 C134 1.369 . S
C136 C128 1.457 . S
C136 C137 1.372 . S
C136 C141 1.364 . S
C137 H116 0.952 . S
C137 C136 1.372 . S
C137 C138 1.389 . S
C138 H117 0.949 . S
C138 C137 1.389 . S
C138 C139 1.387 . S
C139 C138 1.387 . S
C139 C140 1.372 . S
C140 H118 0.950 . S
C140 C139 1.372 . S
C140 C141 1.379 . S
C141 H119 0.948 . S
C141 C136 1.364 . S
C141 C140 1.379 . S
C142 C111 1.383 . S
C142 C129 1.479 . S
C142 C143 1.398 . S
C143 C108 1.382 . S
C143 H120 0.951 . S
C143 C142 1.398 . S
C144 C145 1.384 . S
C144 H157 0.947 . S
C144 C179 1.382 . S
C145 C144 1.384 . S
C145 C146 1.378 . S
C146 C145 1.378 . S
C146 C147 1.378 . S
C146 H158 0.952 . S
C147 C146 1.378 . S
C147 H159 0.950 . S
C147 C178 1.383 . S
H148 C167 0.947 . S
H149 C168 0.946 . S
H150 C170 0.953 . S
H151 C171 0.945 . S
H152 C173 0.952 . S
H153 C174 0.949 . S
H154 C176 0.950 . S
H155 C177 0.948 . S
H156 C179 0.951 . S
H157 C144 0.947 . S
H158 C146 0.952 . S
H159 C147 0.950 . S
N160 C163 1.382 . S
N160 C165 1.363 . S
N161 C163 1.371 . S
N161 C164 1.372 . S
N162 C164 1.361 . S
N162 C165 1.377 . S
C163 N160 1.382 . S
C163 N161 1.371 . S
C163 C166 1.480 . S
C164 N161 1.372 . S
C164 N162 1.361 . S
C164 C172 1.457 . S
C165 N160 1.363 . S
C165 N162 1.377 . S
C165 C178 1.479 . S
C166 C163 1.480 . S
C166 C167 1.383 . S
C166 C171 1.385 . S
C167 H148 0.947 . S
C167 C166 1.383 . S
C167 C168 1.388 . S
C168 H149 0.946 . S
C168 C167 1.388 . S
C168 C169 1.384 . S
C169 C168 1.384 . S
C169 C170 1.377 . S
C170 H150 0.953 . S
C170 C169 1.377 . S
C170 C171 1.369 . S
C171 H151 0.945 . S
C171 C166 1.385 . S
C171 C170 1.369 . S
C172 C164 1.457 . S
C172 C173 1.372 . S
C172 C177 1.364 . S
C173 H152 0.952 . S
C173 C172 1.372 . S
C173 C174 1.389 . S
C174 H153 0.949 . S
C174 C173 1.389 . S
C174 C175 1.387 . S
C175 C174 1.387 . S
C175 C176 1.372 . S
C176 H154 0.950 . S
C176 C175 1.372 . S
C176 C177 1.379 . S
C177 H155 0.948 . S
C177 C172 1.364 . S
C177 C176 1.379 . S
C178 C147 1.383 . S
C178 C165 1.479 . S
C178 C179 1.398 . S
C179 C144 1.382 . S
C179 H156 0.951 . S
C179 C178 1.398 . S
C180 C181 1.384 . S
C180 H193 0.947 . S
C180 C215 1.382 . S
C181 C180 1.384 . S
C181 C182 1.378 . S
C182 C181 1.378 . S
C182 C183 1.378 . S
C182 H194 0.952 . S
C183 C182 1.378 . S
C183 H195 0.950 . S
C183 C214 1.383 . S
H184 C203 0.947 . S
H185 C204 0.946 . S
H186 C206 0.953 . S
H187 C207 0.945 . S
H188 C209 0.952 . S
H189 C210 0.949 . S
H190 C212 0.950 . S
H191 C213 0.948 . S
H192 C215 0.951 . S
H193 C180 0.947 . S
H194 C182 0.952 . S
H195 C183 0.950 . S
N196 C199 1.382 . S
N196 C201 1.363 . S
N197 C199 1.371 . S
N197 C200 1.372 . S
N198 C200 1.361 . S
N198 C201 1.377 . S
C199 N196 1.382 . S
C199 N197 1.371 . S
C199 C202 1.480 . S
C200 N197 1.372 . S
C200 N198 1.361 . S
C200 C208 1.457 . S
C201 N196 1.363 . S
C201 N198 1.377 . S
C201 C214 1.479 . S
C202 C199 1.480 . S
C202 C203 1.383 . S
C202 C207 1.385 . S
C203 H184 0.947 . S
C203 C202 1.383 . S
C203 C204 1.388 . S
C204 H185 0.946 . S
C204 C203 1.388 . S
C204 C205 1.384 . S
C205 C204 1.384 . S
C205 C206 1.377 . S
C206 H186 0.953 . S
C206 C205 1.377 . S
C206 C207 1.369 . S
C207 H187 0.945 . S
C207 C202 1.385 . S
C207 C206 1.369 . S
C208 C200 1.457 . S
C208 C209 1.372 . S
C208 C213 1.364 . S
C209 H188 0.952 . S
C209 C208 1.372 . S
C209 C210 1.389 . S
C210 H189 0.949 . S
C210 C209 1.389 . S
C210 C211 1.387 . S
C211 C210 1.387 . S
C211 C212 1.372 . S
C212 H190 0.950 . S
C212 C211 1.372 . S
C212 C213 1.379 . S
C213 H191 0.948 . S
C213 C208 1.364 . S
C213 C212 1.379 . S
C214 C183 1.383 . S
C214 C201 1.479 . S
C214 C215 1.398 . S
C215 C180 1.382 . S
C215 H192 0.951 . S
C215 C214 1.398 . S
C216 C217 1.384 . S
C216 H229 0.947 . S
C216 C251 1.382 . S
C217 C216 1.384 . S
C217 C218 1.378 . S
C218 C217 1.378 . S
C218 C219 1.378 . S
C218 H230 0.952 . S
C219 C218 1.378 . S
C219 H231 0.950 . S
C219 C250 1.383 . S
H220 C239 0.947 . S
H221 C240 0.946 . S
H222 C242 0.953 . S
H223 C243 0.945 . S
H224 C245 0.952 . S
H225 C246 0.949 . S
H226 C248 0.950 . S
H227 C249 0.948 . S
H228 C251 0.951 . S
H229 C216 0.947 . S
H230 C218 0.952 . S
H231 C219 0.950 . S
N232 C235 1.382 . S
N232 C237 1.363 . S
N233 C235 1.371 . S
N233 C236 1.372 . S
N234 C236 1.361 . S
N234 C237 1.377 . S
C235 N232 1.382 . S
C235 N233 1.371 . S
C235 C238 1.480 . S
C236 N233 1.372 . S
C236 N234 1.361 . S
C236 C244 1.457 . S
C237 N232 1.363 . S
C237 N234 1.377 . S
C237 C250 1.479 . S
C238 C235 1.480 . S
C238 C239 1.383 . S
C238 C243 1.385 . S
C239 H220 0.947 . S
C239 C238 1.383 . S
C239 C240 1.388 . S
C240 H221 0.946 . S
C240 C239 1.388 . S
C240 C241 1.384 . S
C241 C240 1.384 . S
C241 C242 1.377 . S
C242 H222 0.953 . S
C242 C241 1.377 . S
C242 C243 1.369 . S
C243 H223 0.945 . S
C243 C238 1.385 . S
C243 C242 1.369 . S
C244 C236 1.457 . S
C244 C245 1.372 . S
C244 C249 1.364 . S
C245 H224 0.952 . S
C245 C244 1.372 . S
C245 C246 1.389 . S
C246 H225 0.949 . S
C246 C245 1.389 . S
C246 C247 1.387 . S
C247 C246 1.387 . S
C247 C248 1.372 . S
C248 H226 0.950 . S
C248 C247 1.372 . S
C248 C249 1.379 . S
C249 H227 0.948 . S
C249 C244 1.364 . S
C249 C248 1.379 . S
C250 C219 1.383 . S
C250 C237 1.479 . S
C250 C251 1.398 . S
C251 C216 1.382 . S
C251 H228 0.951 . S
C251 C250 1.398 . S
C252 C253 1.384 . S
C252 H265 0.947 . S
C252 C287 1.382 . S
C253 C252 1.384 . S
C253 C254 1.378 . S
C254 C253 1.378 . S
C254 C255 1.378 . S
C254 H266 0.952 . S
C255 C254 1.378 . S
C255 H267 0.950 . S
C255 C286 1.383 . S
H256 C275 0.947 . S
H257 C276 0.946 . S
H258 C278 0.953 . S
H259 C279 0.945 . S
H260 C281 0.952 . S
H261 C282 0.949 . S
H262 C284 0.950 . S
H263 C285 0.948 . S
H264 C287 0.951 . S
H265 C252 0.947 . S
H266 C254 0.952 . S
H267 C255 0.950 . S
N268 C271 1.382 . S
N268 C273 1.363 . S
N269 C271 1.371 . S
N269 C272 1.372 . S
N270 C272 1.361 . S
N270 C273 1.377 . S
C271 N268 1.382 . S
C271 N269 1.371 . S
C271 C274 1.480 . S
C272 N269 1.372 . S
C272 N270 1.361 . S
C272 C280 1.457 . S
C273 N268 1.363 . S
C273 N270 1.377 . S
C273 C286 1.479 . S
C274 C271 1.480 . S
C274 C275 1.383 . S
C274 C279 1.385 . S
C275 H256 0.947 . S
C275 C274 1.383 . S
C275 C276 1.388 . S
C276 H257 0.946 . S
C276 C275 1.388 . S
C276 C277 1.384 . S
C277 C276 1.384 . S
C277 C278 1.377 . S
C278 H258 0.953 . S
C278 C277 1.377 . S
C278 C279 1.369 . S
C279 H259 0.945 . S
C279 C274 1.385 . S
C279 C278 1.369 . S
C280 C272 1.457 . S
C280 C281 1.372 . S
C280 C285 1.364 . S
C281 H260 0.952 . S
C281 C280 1.372 . S
C281 C282 1.389 . S
C282 H261 0.949 . S
C282 C281 1.389 . S
C282 C283 1.387 . S
C283 C282 1.387 . S
C283 C284 1.372 . S
C284 H262 0.950 . S
C284 C283 1.372 . S
C284 C285 1.379 . S
C285 H263 0.948 . S
C285 C280 1.364 . S
C285 C284 1.379 . S
C286 C255 1.383 . S
C286 C273 1.479 . S
C286 C287 1.398 . S
C287 C252 1.382 . S
C287 H264 0.951 . S
C287 C286 1.398 . S
Zn288 O294 1.969 1_545 S
Zn288 O295 1.965 1_545 S
Zn288 O299 2.024 . S
Zn288 O304 1.969 . S
Zn289 O296 1.969 . S
Zn289 O302 1.969 1_565 S
Zn289 O303 1.965 1_565 S
Zn289 O305 2.024 . S
C290 O291 1.229 . S
C290 O299 1.058 . S
O291 C290 1.229 . S
C292 O293 1.229 . S
C292 O305 1.058 . S
O293 C292 1.229 . S
O294 Zn288 1.969 1_565 S
O294 C297 1.267 . S
O295 Zn288 1.965 1_565 S
O295 C306 1.260 1_455 S
O296 Zn289 1.969 . S
O296 C306 1.258 . S
C297 O294 1.267 . S
C297 O298 1.228 . S
O298 C297 1.228 . S
O299 Zn288 2.024 . S
O299 C290 1.058 . S
C300 O301 1.228 . S
C300 O302 1.267 . S
O301 C300 1.228 . S
O302 Zn289 1.969 1_545 S
O302 C300 1.267 . S
O303 Zn289 1.965 1_545 S
O303 C307 1.260 1_655 S
O304 Zn288 1.969 . S
O304 C307 1.258 . S
O305 Zn289 2.024 . S
O305 C292 1.058 . S
C306 O295 1.260 1_655 S
C306 O296 1.258 . S
C307 O303 1.260 1_455 S
C307 O304 1.258 . S
Zn308 O314 1.969 . S
Zn308 O315 1.965 1_565 S
Zn308 O319 2.024 . S
Zn308 O324 1.932 1_556 S
Zn309 O316 1.969 . S
Zn309 O322 1.969 . S
Zn309 O323 1.965 1_545 S
Zn309 O325 2.024 . S
C310 O311 1.229 . S
C310 O319 1.058 . S
O311 C310 1.229 . S
C312 O313 1.229 . S
C312 O325 1.058 . S
O313 C312 1.229 . S
O314 Zn308 1.969 . S
O314 C317 1.267 . S
O315 Zn308 1.965 1_545 S
O315 C326 1.260 . S
O316 Zn309 1.969 . S
O316 C326 1.258 1_554 S
C317 O314 1.267 . S
C317 O318 1.228 . S
O318 C317 1.228 . S
O319 Zn308 2.024 . S
O319 C310 1.058 . S
C320 O321 1.228 . S
C320 O322 1.267 . S
O321 C320 1.228 . S
O322 Zn309 1.969 . S
O322 C320 1.267 . S
O323 Zn309 1.965 1_565 S
O323 C327 1.260 . S
O324 Zn308 1.932 1_554 S
O324 C327 1.299 . S
O325 Zn309 2.024 . S
O325 C312 1.058 . S
C326 O315 1.260 . S
C326 O316 1.258 1_556 S
C327 O323 1.260 . S
C327 O324 1.299 . S
Zn328 O334 1.969 . S
Zn328 O335 1.965 . S
Zn328 O339 2.024 . S
Zn328 O344 1.969 . S
Zn329 O336 1.969 . S
Zn329 O342 1.969 . S
Zn329 O343 1.965 . S
Zn329 O345 2.024 . S
C330 O331 1.229 . S
C330 O339 1.058 . S
O331 C330 1.229 . S
C332 O333 1.229 . S
C332 O345 1.058 . S
O333 C332 1.229 . S
O334 Zn328 1.969 . S
O334 C337 1.267 . S
O335 Zn328 1.965 . S
O335 C346 1.260 . S
O336 Zn329 1.969 . S
O336 C346 1.258 . S
C337 O334 1.267 . S
C337 O338 1.228 . S
O338 C337 1.228 . S
O339 Zn328 2.024 . S
O339 C330 1.058 . S
C340 O341 1.228 . S
C340 O342 1.267 . S
O341 C340 1.228 . S
O342 Zn329 1.969 . S
O342 C340 1.267 . S
O343 Zn329 1.965 . S
O343 C347 1.260 . S
O344 Zn328 1.969 . S
O344 C347 1.258 . S
O345 Zn329 2.024 . S
O345 C332 1.058 . S
C346 O335 1.260 . S
C346 O336 1.258 . S
C347 O343 1.260 . S
C347 O344 1.258 . S
Zn348 O354 1.969 . S
Zn348 O355 1.965 1_556 S
Zn348 O359 2.024 . S
Zn348 O364 1.969 1_655 S
Zn349 O356 1.969 . S
Zn349 O362 1.969 . S
Zn349 O363 1.965 1_554 S
Zn349 O365 2.024 . S
C350 O351 1.229 . S
C350 O359 1.058 . S
O351 C350 1.229 . S
C352 O353 1.229 . S
C352 O365 1.058 . S
O353 C352 1.229 . S
O354 Zn348 1.969 . S
O354 C357 1.267 . S
O355 Zn348 1.965 1_554 S
O355 C366 1.260 . S
O356 Zn349 1.969 . S
O356 C366 1.258 1_455 S
C357 O354 1.267 . S
C357 O358 1.228 . S
O358 C357 1.228 . S
O359 Zn348 2.024 . S
O359 C350 1.058 . S
C360 O361 1.228 . S
C360 O362 1.267 . S
O361 C360 1.228 . S
O362 Zn349 1.969 . S
O362 C360 1.267 . S
O363 Zn349 1.965 1_556 S
O363 C367 1.260 . S
O364 Zn348 1.969 1_455 S
O364 C367 1.258 . S
O365 Zn349 2.024 . S
O365 C352 1.058 . S
C366 O355 1.260 . S
C366 O356 1.258 1_655 S
C367 O363 1.260 . S
C367 O364 1.258 . S
H368 C386 0.951 . S
H369 C388 0.951 . S
H370 C390 0.950 . S
H371 C391 0.950 . S
H372 C393 0.950 . S
H373 C396 0.950 . S
H374 C397 0.950 . S
H375 C399 0.950 . S
H376 C400 0.950 . S
H377 C401 0.951 . S
H378 C403 0.951 . S
H379 C405 0.950 . S
H380 C406 0.950 . S
H381 C408 0.950 . S
H382 C411 0.950 . S
H383 C412 0.950 1_655 S
H384 C414 0.950 . S
H385 C415 0.950 . S
C386 H368 0.951 . S
C386 C387 1.366 . S
C386 C388 1.388 . S
C387 C386 1.366 . S
C387 C391 1.385 . S
C388 H369 0.951 . S
C388 C386 1.388 . S
C388 C389 1.366 . S
C389 C388 1.366 . S
C389 C390 1.414 . S
C389 C392 1.499 . S
C390 H370 0.950 . S
C390 C389 1.414 . S
C390 C391 1.374 . S
C391 H371 0.950 . S
C391 C387 1.385 . S
C391 C390 1.374 . S
C392 C389 1.499 . S
C392 C393 1.373 . S
C392 C394 1.389 . S
C393 H372 0.950 . S
C393 C392 1.373 . S
C393 C409 1.377 . S
C394 C392 1.389 . S
C394 C395 1.524 . S
C394 C408 1.377 . S
C395 C394 1.524 . S
C395 C396 1.397 . S
C395 C400 1.363 . S
C396 H373 0.950 . S
C396 C395 1.397 . S
C396 C397 1.334 . S
C397 H374 0.950 . S
C397 C396 1.334 . S
C397 C398 1.287 . S
C398 C397 1.287 . S
C398 C399 1.524 . S
C398 H417 0.913 . S
C399 H375 0.950 . S
C399 C398 1.524 . S
C399 C400 1.415 . S
C400 H376 0.950 . S
C400 C395 1.363 . S
C400 C399 1.415 . S
C401 H377 0.951 . S
C401 C402 1.366 . S
C401 C403 1.388 . S
C402 C401 1.366 . S
C402 C406 1.385 . S
C403 H378 0.951 . S
C403 C401 1.388 . S
C403 C404 1.366 . S
C404 C403 1.366 . S
C404 C405 1.414 . S
C404 C407 1.499 . S
C405 H379 0.950 . S
C405 C404 1.414 . S
C405 C406 1.374 . S
C406 H380 0.950 . S
C406 C402 1.385 . S
C406 C405 1.374 . S
C407 C404 1.499 . S
C407 C408 1.373 . S
C407 C409 1.389 . S
C408 H381 0.950 . S
C408 C394 1.377 . S
C408 C407 1.373 . S
C409 C393 1.377 . S
C409 C407 1.389 . S
C409 C410 1.524 . S
C410 C409 1.524 . S
C410 C411 1.397 . S
C410 C415 1.363 . S
C411 H382 0.950 . S
C411 C410 1.397 . S
C411 C412 1.334 . S
C412 H383 0.950 1_455 S
C412 C411 1.334 . S
C412 C413 1.287 . S
C413 C412 1.287 . S
C413 C414 1.524 . S
C413 H416 0.999 1_455 S
C414 H384 0.950 . S
C414 C413 1.524 . S
C414 C415 1.415 . S
C415 H385 0.950 . S
C415 C410 1.363 . S
C415 C414 1.415 . S
H416 C413 0.999 1_655 S
H417 C398 0.913 . S
H418 C436 0.951 . S
H419 C438 0.951 . S
H420 C440 0.950 . S
H421 C441 0.950 . S
H422 C443 0.950 . S
H423 C446 0.950 . S
H424 C447 0.950 . S
H425 C449 0.950 . S
H426 C450 0.950 . S
H427 C451 0.951 . S
H428 C453 0.951 . S
H429 C455 0.950 . S
H430 C456 0.950 . S
H431 C458 0.950 . S
H432 C461 0.950 . S
H433 C462 0.950 . S
H434 C464 0.950 . S
H435 C465 0.950 . S
C436 H418 0.951 . S
C436 C437 1.366 . S
C436 C438 1.388 . S
C437 C436 1.366 . S
C437 C441 1.385 . S
C438 H419 0.951 . S
C438 C436 1.388 . S
C438 C439 1.366 . S
C439 C438 1.366 . S
C439 C440 1.414 . S
C439 C442 1.499 . S
C440 H420 0.950 . S
C440 C439 1.414 . S
C440 C441 1.374 . S
C441 H421 0.950 . S
C441 C437 1.385 . S
C441 C440 1.374 . S
C442 C439 1.499 . S
C442 C443 1.373 . S
C442 C444 1.389 . S
C443 H422 0.950 . S
C443 C442 1.373 . S
C443 C459 1.377 . S
C444 C442 1.389 . S
C444 C445 1.524 . S
C444 C458 1.377 . S
C445 C444 1.524 . S
C445 C446 1.397 . S
C445 C450 1.363 . S
C446 H423 0.950 . S
C446 C445 1.397 . S
C446 C447 1.334 . S
C447 H424 0.950 . S
C447 C446 1.334 . S
C447 C448 1.287 . S
C448 C447 1.287 . S
C448 C449 1.524 . S
C448 H467 0.913 . S
C449 H425 0.950 . S
C449 C448 1.524 . S
C449 C450 1.415 . S
C450 H426 0.950 . S
C450 C445 1.363 . S
C450 C449 1.415 . S
C451 H427 0.951 . S
C451 C452 1.366 . S
C451 C453 1.388 . S
C452 C451 1.366 . S
C452 C456 1.385 . S
C453 H428 0.951 . S
C453 C451 1.388 . S
C453 C454 1.366 . S
C454 C453 1.366 . S
C454 C455 1.414 . S
C454 C457 1.499 . S
C455 H429 0.950 . S
C455 C454 1.414 . S
C455 C456 1.374 . S
C456 H430 0.950 . S
C456 C452 1.385 . S
C456 C455 1.374 . S
C457 C454 1.499 . S
C457 C458 1.373 . S
C457 C459 1.389 . S
C458 H431 0.950 . S
C458 C444 1.377 . S
C458 C457 1.373 . S
C459 C443 1.377 . S
C459 C457 1.389 . S
C459 C460 1.524 . S
C460 C459 1.524 . S
C460 C461 1.397 . S
C460 C465 1.363 . S
C461 H432 0.950 . S
C461 C460 1.397 . S
C461 C462 1.334 1_565 S
C462 H433 0.950 . S
C462 C461 1.334 1_545 S
C462 C463 1.287 . S
C463 C462 1.287 . S
C463 C464 1.524 . S
C463 H466 0.999 . S
C464 H434 0.950 . S
C464 C463 1.524 . S
C464 C465 1.415 1_545 S
C465 H435 0.950 . S
C465 C460 1.363 . S
C465 C464 1.415 1_565 S
H466 C463 0.999 . S
H467 C448 0.913 . S
H468 C486 0.951 . S
H469 C488 0.951 . S
H470 C490 0.950 . S
H471 C491 0.950 . S
H472 C493 0.950 . S
H473 C496 0.950 . S
H474 C497 0.950 . S
H475 C499 0.950 . S
H476 C500 0.950 . S
H477 C501 0.951 . S
H478 C503 0.951 . S
H479 C505 0.950 . S
H480 C506 0.950 . S
H481 C508 0.950 . S
H482 C511 0.950 . S
H483 C512 0.950 . S
H484 C514 0.950 . S
H485 C515 0.950 . S
C486 H468 0.951 . S
C486 C487 1.366 . S
C486 C488 1.388 . S
C487 C486 1.366 . S
C487 C491 1.385 . S
C488 H469 0.951 . S
C488 C486 1.388 . S
C488 C489 1.366 . S
C489 C488 1.366 . S
C489 C490 1.414 . S
C489 C492 1.499 . S
C490 H470 0.950 . S
C490 C489 1.414 . S
C490 C491 1.374 . S
C491 H471 0.950 . S
C491 C487 1.385 . S
C491 C490 1.374 . S
C492 C489 1.499 . S
C492 C493 1.373 . S
C492 C494 1.389 . S
C493 H472 0.950 . S
C493 C492 1.373 . S
C493 C509 1.377 . S
C494 C492 1.389 . S
C494 C495 1.524 . S
C494 C508 1.377 . S
C495 C494 1.524 . S
C495 C496 1.397 . S
C495 C500 1.363 . S
C496 H473 0.950 . S
C496 C495 1.397 . S
C496 C497 1.334 . S
C497 H474 0.950 . S
C497 C496 1.334 . S
C497 C498 1.287 . S
C498 C497 1.287 . S
C498 C499 1.524 . S
C498 H517 0.913 . S
C499 H475 0.950 . S
C499 C498 1.524 . S
C499 C500 1.415 . S
C500 H476 0.950 . S
C500 C495 1.363 . S
C500 C499 1.415 . S
C501 H477 0.951 . S
C501 C502 1.366 . S
C501 C503 1.388 . S
C502 C501 1.366 . S
C502 C506 1.385 . S
C503 H478 0.951 . S
C503 C501 1.388 . S
C503 C504 1.366 . S
C504 C503 1.366 . S
C504 C505 1.414 . S
C504 C507 1.499 . S
C505 H479 0.950 . S
C505 C504 1.414 . S
C505 C506 1.374 . S
C506 H480 0.950 . S
C506 C502 1.385 . S
C506 C505 1.374 . S
C507 C504 1.499 . S
C507 C508 1.373 . S
C507 C509 1.389 . S
C508 H481 0.950 . S
C508 C494 1.377 . S
C508 C507 1.373 . S
C509 C493 1.377 . S
C509 C507 1.389 . S
C509 C510 1.524 . S
C510 C509 1.524 . S
C510 C511 1.397 . S
C510 C515 1.363 . S
C511 H482 0.950 . S
C511 C510 1.397 . S
C511 C512 1.334 . S
C512 H483 0.950 . S
C512 C511 1.334 . S
C512 C513 1.287 . S
C513 C512 1.287 . S
C513 C514 1.524 . S
C513 H516 0.999 . S
C514 H484 0.950 . S
C514 C513 1.524 . S
C514 C515 1.415 . S
C515 H485 0.950 . S
C515 C510 1.363 . S
C515 C514 1.415 . S
H516 C513 0.999 . S
H517 C498 0.913 . S
H518 C536 0.951 . S
H519 C538 0.951 . S
H520 C540 0.950 . S
H521 C541 0.950 . S
H522 C543 0.950 . S
H523 C546 0.950 . S
H524 C547 0.950 . S
H525 C549 0.950 . S
H526 C550 0.950 . S
H527 C551 0.951 . S
H528 C553 0.951 . S
H529 C555 0.950 . S
H530 C556 0.950 . S
H531 C558 0.950 . S
H532 C561 0.950 . S
H533 C562 0.950 . S
H534 C564 0.950 . S
H535 C565 0.950 . S
C536 H518 0.951 . S
C536 C537 1.366 . S
C536 C538 1.388 . S
C537 C536 1.366 . S
C537 C541 1.385 . S
C538 H519 0.951 . S
C538 C536 1.388 . S
C538 C539 1.366 . S
C539 C538 1.366 . S
C539 C540 1.414 . S
C539 C542 1.499 . S
C540 H520 0.950 . S
C540 C539 1.414 . S
C540 C541 1.374 . S
C541 H521 0.950 . S
C541 C537 1.385 . S
C541 C540 1.374 . S
C542 C539 1.499 . S
C542 C543 1.373 . S
C542 C544 1.389 . S
C543 H522 0.950 . S
C543 C542 1.373 . S
C543 C559 1.377 . S
C544 C542 1.389 . S
C544 C545 1.524 . S
C544 C558 1.377 . S
C545 C544 1.524 . S
C545 C546 1.397 . S
C545 C550 1.363 . S
C546 H523 0.950 . S
C546 C545 1.397 . S
C546 C547 1.334 . S
C547 H524 0.950 . S
C547 C546 1.334 . S
C547 C548 1.287 . S
C548 C547 1.287 . S
C548 C549 1.524 . S
C548 H567 0.913 . S
C549 H525 0.950 . S
C549 C548 1.524 . S
C549 C550 1.415 . S
C550 H526 0.950 . S
C550 C545 1.363 . S
C550 C549 1.415 . S
C551 H527 0.951 . S
C551 C552 1.366 . S
C551 C553 1.388 . S
C552 C551 1.366 . S
C552 C556 1.385 . S
C553 H528 0.951 . S
C553 C551 1.388 . S
C553 C554 1.366 . S
C554 C553 1.366 . S
C554 C555 1.414 . S
C554 C557 1.499 . S
C555 H529 0.950 . S
C555 C554 1.414 . S
C555 C556 1.374 . S
C556 H530 0.950 . S
C556 C552 1.385 . S
C556 C555 1.374 . S
C557 C554 1.499 . S
C557 C558 1.373 . S
C557 C559 1.389 . S
C558 H531 0.950 . S
C558 C544 1.377 . S
C558 C557 1.373 . S
C559 C543 1.377 . S
C559 C557 1.389 . S
C559 C560 1.524 . S
C560 C559 1.524 . S
C560 C561 1.397 . S
C560 C565 1.363 . S
C561 H532 0.950 . S
C561 C560 1.397 . S
C561 C562 1.334 . S
C562 H533 0.950 . S
C562 C561 1.334 . S
C562 C563 1.287 . S
C563 C562 1.287 . S
C563 C564 1.524 . S
C563 H566 0.999 . S
C564 H534 0.950 . S
C564 C563 1.524 . S
C564 C565 1.415 . S
C565 H535 0.950 . S
C565 C560 1.363 . S
C565 C564 1.415 . S
H566 C563 0.999 . S
H567 C548 0.913 . S
H568 C586 0.951 . S
H569 C588 0.951 . S
H570 C590 0.950 . S
H571 C591 0.950 . S
H572 C593 0.950 . S
H573 C596 0.950 . S
H574 C597 0.950 . S
H575 C599 0.950 . S
H576 C600 0.950 . S
H577 C601 0.951 . S
H578 C603 0.951 . S
H579 C605 0.950 . S
H580 C606 0.950 . S
H581 C608 0.950 . S
H582 C611 0.950 . S
H583 C612 0.950 . S
H584 C614 0.950 . S
H585 C615 0.950 . S
C586 H568 0.951 . S
C586 C587 1.366 . S
C586 C588 1.388 . S
C587 C586 1.366 . S
C587 C591 1.385 . S
C588 H569 0.951 . S
C588 C586 1.388 . S
C588 C589 1.366 . S
C589 C588 1.366 . S
C589 C590 1.414 . S
C589 C592 1.499 . S
C590 H570 0.950 . S
C590 C589 1.414 . S
C590 C591 1.374 . S
C591 H571 0.950 . S
C591 C587 1.385 . S
C591 C590 1.374 . S
C592 C589 1.499 . S
C592 C593 1.373 . S
C592 C594 1.389 . S
C593 H572 0.950 . S
C593 C592 1.373 . S
C593 C609 1.377 . S
C594 C592 1.389 . S
C594 C595 1.524 . S
C594 C608 1.377 . S
C595 C594 1.524 . S
C595 C596 1.397 . S
C595 C600 1.363 . S
C596 H573 0.950 . S
C596 C595 1.397 . S
C596 C597 1.334 . S
C597 H574 0.950 . S
C597 C596 1.334 . S
C597 C598 1.287 . S
C598 C597 1.287 . S
C598 C599 1.524 . S
C598 H617 0.913 . S
C599 H575 0.950 . S
C599 C598 1.524 . S
C599 C600 1.415 . S
C600 H576 0.950 . S
C600 C595 1.363 . S
C600 C599 1.415 . S
C601 H577 0.951 . S
C601 C602 1.366 . S
C601 C603 1.388 . S
C602 C601 1.366 . S
C602 C606 1.385 . S
C603 H578 0.951 . S
C603 C601 1.388 . S
C603 C604 1.366 . S
C604 C603 1.366 . S
C604 C605 1.414 . S
C604 C607 1.499 . S
C605 H579 0.950 . S
C605 C604 1.414 . S
C605 C606 1.374 . S
C606 H580 0.950 . S
C606 C602 1.385 . S
C606 C605 1.374 . S
C607 C604 1.499 . S
C607 C608 1.373 . S
C607 C609 1.389 . S
C608 H581 0.950 . S
C608 C594 1.377 . S
C608 C607 1.373 . S
C609 C593 1.377 . S
C609 C607 1.389 . S
C609 C610 1.524 . S
C610 C609 1.524 . S
C610 C611 1.397 . S
C610 C615 1.363 . S
C611 H582 0.950 . S
C611 C610 1.397 . S
C611 C612 1.334 . S
C612 H583 0.950 . S
C612 C611 1.334 . S
C612 C613 1.287 . S
C613 C612 1.287 . S
C613 C614 1.524 . S
C613 H616 0.999 . S
C614 H584 0.950 . S
C614 C613 1.524 . S
C614 C615 1.415 . S
C615 H585 0.950 . S
C615 C610 1.363 . S
C615 C614 1.415 . S
H616 C613 0.999 . S
H617 C598 0.913 . S
H618 C636 0.951 . S
H619 C638 0.951 . S
H620 C640 0.950 . S
H621 C641 0.950 . S
H622 C643 0.950 . S
H623 C646 0.950 . S
H624 C647 0.950 . S
H625 C649 0.950 . S
H626 C650 0.950 . S
H627 C651 0.951 . S
H628 C653 0.951 . S
H629 C655 0.950 . S
H630 C656 0.950 . S
H631 C658 0.950 . S
H632 C661 0.950 . S
H633 C662 0.950 . S
H634 C664 0.950 . S
H635 C665 0.950 . S
C636 H618 0.951 . S
C636 C637 1.366 . S
C636 C638 1.388 . S
C637 C636 1.366 . S
C637 C641 1.385 . S
C638 H619 0.951 . S
C638 C636 1.388 . S
C638 C639 1.366 . S
C639 C638 1.366 . S
C639 C640 1.414 . S
C639 C642 1.499 . S
C640 H620 0.950 . S
C640 C639 1.414 . S
C640 C641 1.374 . S
C641 H621 0.950 . S
C641 C637 1.385 . S
C641 C640 1.374 . S
C642 C639 1.499 . S
C642 C643 1.373 . S
C642 C644 1.389 . S
C643 H622 0.950 . S
C643 C642 1.373 . S
C643 C659 1.377 . S
C644 C642 1.389 . S
C644 C645 1.524 . S
C644 C658 1.377 . S
C645 C644 1.524 . S
C645 C646 1.397 . S
C645 C650 1.363 . S
C646 H623 0.950 . S
C646 C645 1.397 . S
C646 C647 1.334 . S
C647 H624 0.950 . S
C647 C646 1.334 . S
C647 C648 1.287 . S
C648 C647 1.287 . S
C648 C649 1.524 . S
C648 H667 0.913 . S
C649 H625 0.950 . S
C649 C648 1.524 . S
C649 C650 1.415 . S
C650 H626 0.950 . S
C650 C645 1.363 . S
C650 C649 1.415 . S
C651 H627 0.951 . S
C651 C652 1.366 . S
C651 C653 1.388 . S
C652 C651 1.366 . S
C652 C656 1.385 . S
C653 H628 0.951 . S
C653 C651 1.388 . S
C653 C654 1.366 . S
C654 C653 1.366 . S
C654 C655 1.414 . S
C654 C657 1.499 . S
C655 H629 0.950 . S
C655 C654 1.414 . S
C655 C656 1.374 . S
C656 H630 0.950 . S
C656 C652 1.385 . S
C656 C655 1.374 . S
C657 C654 1.499 . S
C657 C658 1.373 . S
C657 C659 1.389 . S
C658 H631 0.950 . S
C658 C644 1.377 . S
C658 C657 1.373 . S
C659 C643 1.377 . S
C659 C657 1.389 . S
C659 C660 1.524 . S
C660 C659 1.524 . S
C660 C661 1.397 . S
C660 C665 1.363 . S
C661 H632 0.950 . S
C661 C660 1.397 . S
C661 C662 1.334 1_565 S
C662 H633 0.950 . S
C662 C661 1.334 1_545 S
C662 C663 1.287 . S
C663 C662 1.287 . S
C663 C664 1.524 1_545 S
C663 H666 0.999 . S
C664 H634 0.950 . S
C664 C663 1.524 1_565 S
C664 C665 1.415 . S
C665 H635 0.950 . S
C665 C660 1.363 . S
C665 C664 1.415 . S
H666 C663 0.999 . S
H667 C648 0.913 . S
H668 C686 0.951 . S
H669 C688 0.951 . S
H670 C690 0.950 . S
H671 C691 0.950 . S
H672 C693 0.950 . S
H673 C696 0.950 . S
H674 C697 0.950 . S
H675 C699 0.950 . S
H676 C700 0.950 . S
H677 C701 0.951 . S
H678 C703 0.951 . S
H679 C705 0.950 . S
H680 C706 0.950 . S
H681 C708 0.950 . S
H682 C711 0.950 . S
H683 C712 0.950 . S
H684 C714 0.950 . S
H685 C715 0.950 . S
C686 H668 0.951 . S
C686 C687 1.366 . S
C686 C688 1.388 . S
C687 C686 1.366 . S
C687 C691 1.385 . S
C688 H669 0.951 . S
C688 C686 1.388 . S
C688 C689 1.366 . S
C689 C688 1.366 . S
C689 C690 1.414 . S
C689 C692 1.499 . S
C690 H670 0.950 . S
C690 C689 1.414 . S
C690 C691 1.374 . S
C691 H671 0.950 . S
C691 C687 1.385 . S
C691 C690 1.374 . S
C692 C689 1.499 . S
C692 C693 1.373 . S
C692 C694 1.389 . S
C693 H672 0.950 . S
C693 C692 1.373 . S
C693 C709 1.377 . S
C694 C692 1.389 . S
C694 C695 1.524 . S
C694 C708 1.377 . S
C695 C694 1.524 . S
C695 C696 1.397 . S
C695 C700 1.363 . S
C696 H673 0.950 . S
C696 C695 1.397 . S
C696 C697 1.334 . S
C697 H674 0.950 . S
C697 C696 1.334 . S
C697 C698 1.287 . S
C698 C697 1.287 . S
C698 C699 1.524 . S
C698 H717 0.913 . S
C699 H675 0.950 . S
C699 C698 1.524 . S
C699 C700 1.415 . S
C700 H676 0.950 . S
C700 C695 1.363 . S
C700 C699 1.415 . S
C701 H677 0.951 . S
C701 C702 1.366 . S
C701 C703 1.388 . S
C702 C701 1.366 . S
C702 C706 1.385 . S
C703 H678 0.951 . S
C703 C701 1.388 . S
C703 C704 1.366 . S
C704 C703 1.366 . S
C704 C705 1.414 . S
C704 C707 1.499 . S
C705 H679 0.950 . S
C705 C704 1.414 . S
C705 C706 1.374 . S
C706 H680 0.950 . S
C706 C702 1.385 . S
C706 C705 1.374 . S
C707 C704 1.499 . S
C707 C708 1.373 . S
C707 C709 1.389 . S
C708 H681 0.950 . S
C708 C694 1.377 . S
C708 C707 1.373 . S
C709 C693 1.377 . S
C709 C707 1.389 . S
C709 C710 1.524 . S
C710 C709 1.524 . S
C710 C711 1.397 . S
C710 C715 1.363 . S
C711 H682 0.950 . S
C711 C710 1.397 . S
C711 C712 1.334 . S
C712 H683 0.950 . S
C712 C711 1.334 . S
C712 C713 1.287 . S
C713 C712 1.287 . S
C713 C714 1.524 . S
C713 H716 0.999 . S
C714 H684 0.950 . S
C714 C713 1.524 . S
C714 C715 1.415 . S
C715 H685 0.950 . S
C715 C710 1.363 . S
C715 C714 1.415 . S
H716 C713 0.999 . S
H717 C698 0.913 . S
H718 C736 0.951 . S
H719 C738 0.951 . S
H720 C740 0.950 . S
H721 C741 0.950 . S
H722 C743 0.950 . S
H723 C746 0.950 . S
H724 C747 0.950 . S
H725 C749 0.950 . S
H726 C750 0.950 . S
H727 C751 0.951 . S
H728 C753 0.951 . S
H729 C755 0.950 . S
H730 C756 0.950 . S
H731 C758 0.950 . S
H732 C761 0.950 . S
H733 C762 0.950 . S
H734 C764 0.950 . S
H735 C765 0.950 . S
C736 H718 0.951 . S
C736 C737 1.366 . S
C736 C738 1.388 . S
C737 C736 1.366 . S
C737 C741 1.385 . S
C738 H719 0.951 . S
C738 C736 1.388 . S
C738 C739 1.366 . S
C739 C738 1.366 . S
C739 C740 1.414 . S
C739 C742 1.499 . S
C740 H720 0.950 . S
C740 C739 1.414 . S
C740 C741 1.374 . S
C741 H721 0.950 . S
C741 C737 1.385 . S
C741 C740 1.374 . S
C742 C739 1.499 . S
C742 C743 1.373 . S
C742 C744 1.389 . S
C743 H722 0.950 . S
C743 C742 1.373 . S
C743 C759 1.377 . S
C744 C742 1.389 . S
C744 C745 1.524 . S
C744 C758 1.377 . S
C745 C744 1.524 . S
C745 C746 1.397 . S
C745 C750 1.363 . S
C746 H723 0.950 . S
C746 C745 1.397 . S
C746 C747 1.334 . S
C747 H724 0.950 . S
C747 C746 1.334 . S
C747 C748 1.287 . S
C748 C747 1.287 . S
C748 C749 1.524 . S
C748 H767 0.913 . S
C749 H725 0.950 . S
C749 C748 1.524 . S
C749 C750 1.415 . S
C750 H726 0.950 . S
C750 C745 1.363 . S
C750 C749 1.415 . S
C751 H727 0.951 . S
C751 C752 1.366 . S
C751 C753 1.388 . S
C752 C751 1.366 . S
C752 C756 1.385 . S
C753 H728 0.951 . S
C753 C751 1.388 . S
C753 C754 1.366 . S
C754 C753 1.366 . S
C754 C755 1.414 . S
C754 C757 1.499 . S
C755 H729 0.950 . S
C755 C754 1.414 . S
C755 C756 1.374 . S
C756 H730 0.950 . S
C756 C752 1.385 . S
C756 C755 1.374 . S
C757 C754 1.499 . S
C757 C758 1.373 . S
C757 C759 1.389 . S
C758 H731 0.950 . S
C758 C744 1.377 . S
C758 C757 1.373 . S
C759 C743 1.377 . S
C759 C757 1.389 . S
C759 C760 1.524 . S
C760 C759 1.524 . S
C760 C761 1.397 . S
C760 C765 1.363 . S
C761 H732 0.950 . S
C761 C760 1.397 . S
C761 C762 1.334 . S
C762 H733 0.950 . S
C762 C761 1.334 . S
C762 C763 1.287 . S
C763 C762 1.287 . S
C763 C764 1.524 . S
C763 H766 0.999 . S
C764 H734 0.950 . S
C764 C763 1.524 . S
C764 C765 1.415 . S
C765 H735 0.950 . S
C765 C760 1.363 . S
C765 C764 1.415 . S
H766 C763 0.999 . S
H767 C748 0.913 . S
H768 C786 0.951 . S
H769 C788 0.951 . S
H770 C790 0.950 . S
H771 C791 0.950 . S
H772 C793 0.950 . S
H773 C796 0.950 . S
H774 C797 0.950 . S
H775 C799 0.950 . S
H776 C800 0.950 . S
H777 C801 0.951 . S
H778 C803 0.951 . S
H779 C805 0.950 . S
H780 C806 0.950 . S
H781 C808 0.950 . S
H782 C811 0.950 . S
H783 C812 0.950 . S
H784 C814 0.950 . S
H785 C815 0.950 . S
C786 H768 0.951 . S
C786 C787 1.366 . S
C786 C788 1.388 . S
C787 C786 1.366 . S
C787 C791 1.385 . S
C788 H769 0.951 . S
C788 C786 1.388 . S
C788 C789 1.366 . S
C789 C788 1.366 . S
C789 C790 1.414 . S
C789 C792 1.499 . S
C790 H770 0.950 . S
C790 C789 1.414 . S
C790 C791 1.374 . S
C791 H771 0.950 . S
C791 C787 1.385 . S
C791 C790 1.374 . S
C792 C789 1.499 . S
C792 C793 1.373 . S
C792 C794 1.389 . S
C793 H772 0.950 . S
C793 C792 1.373 . S
C793 C809 1.377 . S
C794 C792 1.389 . S
C794 C795 1.524 . S
C794 C808 1.377 . S
C795 C794 1.524 . S
C795 C796 1.397 . S
C795 C800 1.363 . S
C796 H773 0.950 . S
C796 C795 1.397 . S
C796 C797 1.334 . S
C797 H774 0.950 . S
C797 C796 1.334 . S
C797 C798 1.287 . S
C798 C797 1.287 . S
C798 C799 1.524 . S
C798 H817 0.913 . S
C799 H775 0.950 . S
C799 C798 1.524 . S
C799 C800 1.415 . S
C800 H776 0.950 . S
C800 C795 1.363 . S
C800 C799 1.415 . S
C801 H777 0.951 . S
C801 C802 1.366 . S
C801 C803 1.388 . S
C802 C801 1.366 . S
C802 C806 1.385 . S
C803 H778 0.951 . S
C803 C801 1.388 . S
C803 C804 1.366 . S
C804 C803 1.366 . S
C804 C805 1.414 . S
C804 C807 1.499 . S
C805 H779 0.950 . S
C805 C804 1.414 . S
C805 C806 1.374 . S
C806 H780 0.950 . S
C806 C802 1.385 . S
C806 C805 1.374 . S
C807 C804 1.499 . S
C807 C808 1.373 . S
C807 C809 1.389 . S
C808 H781 0.950 . S
C808 C794 1.377 . S
C808 C807 1.373 . S
C809 C793 1.377 . S
C809 C807 1.389 . S
C809 C810 1.524 . S
C810 C809 1.524 . S
C810 C811 1.397 . S
C810 C815 1.363 . S
C811 H782 0.950 . S
C811 C810 1.397 . S
C811 C812 1.334 . S
C812 H783 0.950 . S
C812 C811 1.334 . S
C812 C813 1.287 . S
C813 C812 1.287 . S
C813 C814 1.524 . S
C813 H816 0.999 . S
C814 H784 0.950 . S
C814 C813 1.524 . S
C814 C815 1.415 . S
C815 H785 0.950 . S
C815 C810 1.363 . S
C815 C814 1.415 . S
H816 C813 0.999 . S
H817 C798 0.913 . S
H818 C836 0.951 . S
H819 C838 0.951 . S
H820 C840 0.950 . S
H821 C841 0.950 . S
H822 C843 0.950 . S
H823 C846 0.950 . S
H824 C847 0.950 . S
H825 C849 0.950 . S
H826 C850 0.950 . S
H827 C851 0.951 . S
H828 C853 0.951 . S
H829 C855 0.950 . S
H830 C856 0.950 . S
H831 C858 0.950 . S
H832 C861 0.950 . S
H833 C862 0.950 . S
H834 C864 0.950 . S
H835 C865 0.950 . S
C836 H818 0.951 . S
C836 C837 1.366 . S
C836 C838 1.388 . S
C837 C836 1.366 . S
C837 C841 1.385 . S
C838 H819 0.951 . S
C838 C836 1.388 . S
C838 C839 1.366 . S
C839 C838 1.366 . S
C839 C840 1.414 . S
C839 C842 1.499 . S
C840 H820 0.950 . S
C840 C839 1.414 . S
C840 C841 1.374 . S
C841 H821 0.950 . S
C841 C837 1.385 . S
C841 C840 1.374 . S
C842 C839 1.499 . S
C842 C843 1.373 . S
C842 C844 1.389 . S
C843 H822 0.950 . S
C843 C842 1.373 . S
C843 C859 1.377 . S
C844 C842 1.389 . S
C844 C845 1.524 . S
C844 C858 1.377 . S
C845 C844 1.524 . S
C845 C846 1.397 . S
C845 C850 1.363 . S
C846 H823 0.950 . S
C846 C845 1.397 . S
C846 C847 1.334 . S
C847 H824 0.950 . S
C847 C846 1.334 . S
C847 C848 1.287 . S
C848 C847 1.287 . S
C848 C849 1.524 . S
C848 H867 0.913 . S
C849 H825 0.950 . S
C849 C848 1.524 . S
C849 C850 1.415 . S
C850 H826 0.950 . S
C850 C845 1.363 . S
C850 C849 1.415 . S
C851 H827 0.951 . S
C851 C852 1.366 . S
C851 C853 1.388 . S
C852 C851 1.366 . S
C852 C856 1.385 . S
C853 H828 0.951 . S
C853 C851 1.388 . S
C853 C854 1.366 . S
C854 C853 1.366 . S
C854 C855 1.414 . S
C854 C857 1.499 . S
C855 H829 0.950 . S
C855 C854 1.414 . S
C855 C856 1.374 . S
C856 H830 0.950 . S
C856 C852 1.385 . S
C856 C855 1.374 . S
C857 C854 1.499 . S
C857 C858 1.373 . S
C857 C859 1.389 . S
C858 H831 0.950 . S
C858 C844 1.377 . S
C858 C857 1.373 . S
C859 C843 1.377 . S
C859 C857 1.389 . S
C859 C860 1.524 . S
C860 C859 1.524 . S
C860 C861 1.397 . S
C860 C865 1.363 . S
C861 H832 0.950 . S
C861 C860 1.397 . S
C861 C862 1.334 . S
C862 H833 0.950 . S
C862 C861 1.334 . S
C862 C863 1.287 . S
C863 C862 1.287 . S
C863 C864 1.524 . S
C863 H866 0.999 . S
C864 H834 0.950 . S
C864 C863 1.524 . S
C864 C865 1.415 . S
C865 H835 0.950 . S
C865 C860 1.363 . S
C865 C864 1.415 . S
H866 C863 0.999 . S
H867 C848 0.913 . S
H868 C886 0.951 . S
H869 C888 0.951 . S
H870 C890 0.950 . S
H871 C891 0.950 . S
H872 C893 0.950 . S
H873 C896 0.950 . S
H874 C897 0.950 . S
H875 C899 0.950 . S
H876 C900 0.950 . S
H877 C901 0.951 . S
H878 C903 0.951 . S
H879 C905 0.950 . S
H880 C906 0.950 . S
H881 C908 0.950 . S
H882 C911 0.950 . S
H883 C912 0.950 . S
H884 C914 0.950 . S
H885 C915 0.950 . S
C886 H868 0.951 . S
C886 C887 1.366 . S
C886 C888 1.388 . S
C887 C886 1.366 . S
C887 C891 1.385 . S
C888 H869 0.951 . S
C888 C886 1.388 . S
C888 C889 1.366 . S
C889 C888 1.366 . S
C889 C890 1.414 . S
C889 C892 1.499 . S
C890 H870 0.950 . S
C890 C889 1.414 . S
C890 C891 1.374 . S
C891 H871 0.950 . S
C891 C887 1.385 . S
C891 C890 1.374 . S
C892 C889 1.499 . S
C892 C893 1.373 . S
C892 C894 1.389 . S
C893 H872 0.950 . S
C893 C892 1.373 . S
C893 C909 1.377 . S
C894 C892 1.389 . S
C894 C895 1.524 . S
C894 C908 1.377 . S
C895 C894 1.524 . S
C895 C896 1.397 . S
C895 C900 1.363 . S
C896 H873 0.950 . S
C896 C895 1.397 . S
C896 C897 1.334 . S
C897 H874 0.950 . S
C897 C896 1.334 . S
C897 C898 1.287 . S
C898 C897 1.287 . S
C898 C899 1.524 . S
C898 H917 0.913 . S
C899 H875 0.950 . S
C899 C898 1.524 . S
C899 C900 1.415 . S
C900 H876 0.950 . S
C900 C895 1.363 . S
C900 C899 1.415 . S
C901 H877 0.951 . S
C901 C902 1.366 . S
C901 C903 1.388 . S
C902 C901 1.366 . S
C902 C906 1.385 . S
C903 H878 0.951 . S
C903 C901 1.388 . S
C903 C904 1.366 . S
C904 C903 1.366 . S
C904 C905 1.414 . S
C904 C907 1.499 . S
C905 H879 0.950 . S
C905 C904 1.414 . S
C905 C906 1.374 . S
C906 H880 0.950 . S
C906 C902 1.385 . S
C906 C905 1.374 . S
C907 C904 1.499 . S
C907 C908 1.373 . S
C907 C909 1.389 . S
C908 H881 0.950 . S
C908 C894 1.377 . S
C908 C907 1.373 . S
C909 C893 1.377 . S
C909 C907 1.389 . S
C909 C910 1.524 . S
C910 C909 1.524 . S
C910 C911 1.397 . S
C910 C915 1.363 . S
C911 H882 0.950 . S
C911 C910 1.397 . S
C911 C912 1.334 . S
C912 H883 0.950 . S
C912 C911 1.334 . S
C912 C913 1.287 . S
C913 C912 1.287 . S
C913 C914 1.524 . S
C913 H916 0.999 . S
C914 H884 0.950 . S
C914 C913 1.524 . S
C914 C915 1.415 . S
C915 H885 0.950 . S
C915 C910 1.363 . S
C915 C914 1.415 . S
H916 C913 0.999 . S
H917 C898 0.913 . S
H918 C936 0.951 . S
H919 C938 0.951 . S
H920 C940 0.950 . S
H921 C941 0.950 . S
H922 C943 0.950 . S
H923 C946 0.950 . S
H924 C947 0.950 . S
H925 C949 0.950 . S
H926 C950 0.950 . S
H927 C951 0.951 . S
H928 C953 0.951 . S
H929 C955 0.950 . S
H930 C956 0.950 . S
H931 C958 0.950 . S
H932 C961 0.950 . S
H933 C962 0.950 . S
H934 C964 0.950 . S
H935 C965 0.950 . S
C936 H918 0.951 . S
C936 C937 1.366 . S
C936 C938 1.388 . S
C937 C936 1.366 . S
C937 C941 1.385 . S
C938 H919 0.951 . S
C938 C936 1.388 . S
C938 C939 1.366 . S
C939 C938 1.366 . S
C939 C940 1.414 . S
C939 C942 1.499 . S
C940 H920 0.950 . S
C940 C939 1.414 . S
C940 C941 1.374 . S
C941 H921 0.950 . S
C941 C937 1.385 . S
C941 C940 1.374 . S
C942 C939 1.499 . S
C942 C943 1.373 . S
C942 C944 1.389 . S
C943 H922 0.950 . S
C943 C942 1.373 . S
C943 C959 1.377 . S
C944 C942 1.389 . S
C944 C945 1.524 . S
C944 C958 1.377 . S
C945 C944 1.524 . S
C945 C946 1.397 . S
C945 C950 1.363 . S
C946 H923 0.950 . S
C946 C945 1.397 . S
C946 C947 1.334 . S
C947 H924 0.950 . S
C947 C946 1.334 . S
C947 C948 1.287 . S
C948 C947 1.287 . S
C948 C949 1.524 . S
C948 H967 0.913 . S
C949 H925 0.950 . S
C949 C948 1.524 . S
C949 C950 1.415 . S
C950 H926 0.950 . S
C950 C945 1.363 . S
C950 C949 1.415 . S
C951 H927 0.951 . S
C951 C952 1.366 . S
C951 C953 1.388 . S
C952 C951 1.366 . S
C952 C956 1.385 . S
C953 H928 0.951 . S
C953 C951 1.388 . S
C953 C954 1.366 . S
C954 C953 1.366 . S
C954 C955 1.414 . S
C954 C957 1.499 . S
C955 H929 0.950 . S
C955 C954 1.414 . S
C955 C956 1.374 . S
C956 H930 0.950 . S
C956 C952 1.385 . S
C956 C955 1.374 . S
C957 C954 1.499 . S
C957 C958 1.373 . S
C957 C959 1.389 . S
C958 H931 0.950 . S
C958 C944 1.377 . S
C958 C957 1.373 . S
C959 C943 1.377 . S
C959 C957 1.389 . S
C959 C960 1.524 . S
C960 C959 1.524 . S
C960 C961 1.397 . S
C960 C965 1.363 . S
C961 H932 0.950 . S
C961 C960 1.397 . S
C961 C962 1.334 . S
C962 H933 0.950 . S
C962 C961 1.334 . S
C962 C963 1.287 . S
C963 C962 1.287 . S
C963 C964 1.524 . S
C963 H966 0.999 . S
C964 H934 0.950 . S
C964 C963 1.524 . S
C964 C965 1.415 . S
C965 H935 0.950 . S
C965 C960 1.363 . S
C965 C964 1.415 . S
H966 C963 0.999 . S
H967 C948 0.913 . S
H968 C986 0.951 . S
H969 C988 0.951 . S
H970 C990 0.950 . S
H971 C991 0.950 . S
H972 C993 0.950 . S
H973 C996 0.950 . S
H974 C997 0.950 . S
H975 C999 0.950 . S
H976 C1000 0.950 . S
H977 C1001 0.951 . S
H978 C1003 0.951 . S
H979 C1005 0.950 . S
H980 C1006 0.950 1_545 S
H981 C1008 0.950 . S
H982 C1011 0.950 . S
H983 C1012 0.950 1_455 S
H984 C1014 0.950 . S
H985 C1015 0.950 . S
C986 H968 0.951 . S
C986 C987 1.366 . S
C986 C988 1.388 . S
C987 C986 1.366 . S
C987 C991 1.385 . S
C988 H969 0.951 . S
C988 C986 1.388 . S
C988 C989 1.366 . S
C989 C988 1.366 . S
C989 C990 1.414 . S
C989 C992 1.499 . S
C990 H970 0.950 . S
C990 C989 1.414 . S
C990 C991 1.374 . S
C991 H971 0.950 . S
C991 C987 1.385 . S
C991 C990 1.374 . S
C992 C989 1.499 . S
C992 C993 1.373 . S
C992 C994 1.389 . S
C993 H972 0.950 . S
C993 C992 1.373 . S
C993 C1009 1.377 . S
C994 C992 1.389 . S
C994 C995 1.524 . S
C994 C1008 1.377 . S
C995 C994 1.524 . S
C995 C996 1.397 . S
C995 C1000 1.363 . S
C996 H973 0.950 . S
C996 C995 1.397 . S
C996 C997 1.334 . S
C997 H974 0.950 . S
C997 C996 1.334 . S
C997 C998 1.287 . S
C998 C997 1.287 . S
C998 C999 1.524 . S
C998 H1017 0.913 . S
C999 H975 0.950 . S
C999 C998 1.524 . S
C999 C1000 1.415 . S
C1000 H976 0.950 . S
C1000 C995 1.363 . S
C1000 C999 1.415 . S
C1001 H977 0.951 . S
C1001 C1002 1.366 . S
C1001 C1003 1.388 . S
C1002 C1001 1.366 . S
C1002 C1006 1.385 . S
C1003 H978 0.951 . S
C1003 C1001 1.388 . S
C1003 C1004 1.366 . S
C1004 C1003 1.366 . S
C1004 C1005 1.414 . S
C1004 C1007 1.499 . S
C1005 H979 0.950 . S
C1005 C1004 1.414 . S
C1005 C1006 1.374 . S
C1006 H980 0.950 1_565 S
C1006 C1002 1.385 . S
C1006 C1005 1.374 . S
C1007 C1004 1.499 . S
C1007 C1008 1.373 . S
C1007 C1009 1.389 . S
C1008 H981 0.950 . S
C1008 C994 1.377 . S
C1008 C1007 1.373 . S
C1009 C993 1.377 . S
C1009 C1007 1.389 . S
C1009 C1010 1.524 . S
C1010 C1009 1.524 . S
C1010 C1011 1.397 . S
C1010 C1015 1.363 . S
C1011 H982 0.950 . S
C1011 C1010 1.397 . S
C1011 C1012 1.334 . S
C1012 H983 0.950 1_655 S
C1012 C1011 1.334 . S
C1012 C1013 1.287 1_655 S
C1013 C1012 1.287 1_455 S
C1013 C1014 1.524 1_455 S
C1013 H1016 0.999 . S
C1014 H984 0.950 . S
C1014 C1013 1.524 1_655 S
C1014 C1015 1.415 . S
C1015 H985 0.950 . S
C1015 C1010 1.363 . S
C1015 C1014 1.415 . S
H1016 C1013 0.999 . S
H1017 C998 0.913 . S
H1018 C1036 0.951 . S
H1019 C1038 0.951 . S
H1020 C1040 0.950 . S
H1021 C1041 0.950 . S
H1022 C1043 0.950 . S
H1023 C1046 0.950 . S
H1024 C1047 0.950 . S
H1025 C1049 0.950 . S
H1026 C1050 0.950 . S
H1027 C1051 0.951 . S
H1028 C1053 0.951 . S
H1029 C1055 0.950 . S
H1030 C1056 0.950 . S
H1031 C1058 0.950 . S
H1032 C1061 0.950 . S
H1033 C1062 0.950 1_565 S
H1034 C1064 0.950 . S
H1035 C1065 0.950 . S
C1036 H1018 0.951 . S
C1036 C1037 1.366 . S
C1036 C1038 1.388 . S
C1037 C1036 1.366 . S
C1037 C1041 1.385 . S
C1038 H1019 0.951 . S
C1038 C1036 1.388 . S
C1038 C1039 1.366 . S
C1039 C1038 1.366 . S
C1039 C1040 1.414 . S
C1039 C1042 1.499 . S
C1040 H1020 0.950 . S
C1040 C1039 1.414 . S
C1040 C1041 1.374 . S
C1041 H1021 0.950 . S
C1041 C1037 1.385 . S
C1041 C1040 1.374 . S
C1042 C1039 1.499 . S
C1042 C1043 1.373 . S
C1042 C1044 1.389 . S
C1043 H1022 0.950 . S
C1043 C1042 1.373 . S
C1043 C1059 1.377 . S
C1044 C1042 1.389 . S
C1044 C1045 1.524 . S
C1044 C1058 1.377 . S
C1045 C1044 1.524 . S
C1045 C1046 1.397 . S
C1045 C1050 1.363 . S
C1046 H1023 0.950 . S
C1046 C1045 1.397 . S
C1046 C1047 1.334 . S
C1047 H1024 0.950 . S
C1047 C1046 1.334 . S
C1047 C1048 1.287 . S
C1048 C1047 1.287 . S
C1048 C1049 1.524 . S
C1048 H1067 0.913 . S
C1049 H1025 0.950 . S
C1049 C1048 1.524 . S
C1049 C1050 1.415 . S
C1050 H1026 0.950 . S
C1050 C1045 1.363 . S
C1050 C1049 1.415 . S
C1051 H1027 0.951 . S
C1051 C1052 1.366 . S
C1051 C1053 1.388 . S
C1052 C1051 1.366 . S
C1052 C1056 1.385 . S
C1053 H1028 0.951 . S
C1053 C1051 1.388 . S
C1053 C1054 1.366 . S
C1054 C1053 1.366 . S
C1054 C1055 1.414 . S
C1054 C1057 1.499 . S
C1055 H1029 0.950 . S
C1055 C1054 1.414 . S
C1055 C1056 1.374 . S
C1056 H1030 0.950 . S
C1056 C1052 1.385 . S
C1056 C1055 1.374 . S
C1057 C1054 1.499 . S
C1057 C1058 1.373 . S
C1057 C1059 1.389 . S
C1058 H1031 0.950 . S
C1058 C1044 1.377 . S
C1058 C1057 1.373 . S
C1059 C1043 1.377 . S
C1059 C1057 1.389 . S
C1059 C1060 1.524 . S
C1060 C1059 1.524 . S
C1060 C1061 1.397 . S
C1060 C1065 1.363 . S
C1061 H1032 0.950 . S
C1061 C1060 1.397 . S
C1061 C1062 1.334 . S
C1062 H1033 0.950 1_545 S
C1062 C1061 1.334 . S
C1062 C1063 1.287 . S
C1063 C1062 1.287 . S
C1063 C1064 1.524 . S
C1063 H1066 0.999 . S
C1064 H1034 0.950 . S
C1064 C1063 1.524 . S
C1064 C1065 1.415 . S
C1065 H1035 0.950 . S
C1065 C1060 1.363 . S
C1065 C1064 1.415 . S
H1066 C1063 0.999 . S
H1067 C1048 0.913 . S
H1068 C1086 0.951 . S
H1069 C1088 0.951 . S
H1070 C1090 0.950 . S
H1071 C1091 0.950 . S
H1072 C1093 0.950 . S
H1073 C1096 0.950 . S
H1074 C1097 0.950 . S
H1075 C1099 0.950 . S
H1076 C1100 0.950 . S
H1077 C1101 0.951 . S
H1078 C1103 0.951 . S
H1079 C1105 0.950 . S
H1080 C1106 0.950 . S
H1081 C1108 0.950 . S
H1082 C1111 0.950 . S
H1083 C1112 0.950 . S
H1084 C1114 0.950 . S
H1085 C1115 0.950 . S
C1086 H1068 0.951 . S
C1086 C1087 1.366 . S
C1086 C1088 1.388 . S
C1087 C1086 1.366 . S
C1087 C1091 1.385 . S
C1088 H1069 0.951 . S
C1088 C1086 1.388 . S
C1088 C1089 1.366 . S
C1089 C1088 1.366 . S
C1089 C1090 1.414 . S
C1089 C1092 1.499 . S
C1090 H1070 0.950 . S
C1090 C1089 1.414 . S
C1090 C1091 1.374 . S
C1091 H1071 0.950 . S
C1091 C1087 1.385 . S
C1091 C1090 1.374 . S
C1092 C1089 1.499 . S
C1092 C1093 1.373 . S
C1092 C1094 1.389 . S
C1093 H1072 0.950 . S
C1093 C1092 1.373 . S
C1093 C1109 1.377 . S
C1094 C1092 1.389 . S
C1094 C1095 1.524 . S
C1094 C1108 1.377 . S
C1095 C1094 1.524 . S
C1095 C1096 1.397 . S
C1095 C1100 1.363 . S
C1096 H1073 0.950 . S
C1096 C1095 1.397 . S
C1096 C1097 1.334 . S
C1097 H1074 0.950 . S
C1097 C1096 1.334 . S
C1097 C1098 1.287 . S
C1098 C1097 1.287 . S
C1098 C1099 1.524 . S
C1098 H1117 0.913 . S
C1099 H1075 0.950 . S
C1099 C1098 1.524 . S
C1099 C1100 1.415 . S
C1100 H1076 0.950 . S
C1100 C1095 1.363 . S
C1100 C1099 1.415 . S
C1101 H1077 0.951 . S
C1101 C1102 1.366 . S
C1101 C1103 1.388 . S
C1102 C1101 1.366 . S
C1102 C1106 1.385 . S
C1103 H1078 0.951 . S
C1103 C1101 1.388 . S
C1103 C1104 1.366 . S
C1104 C1103 1.366 . S
C1104 C1105 1.414 . S
C1104 C1107 1.499 . S
C1105 H1079 0.950 . S
C1105 C1104 1.414 . S
C1105 C1106 1.374 . S
C1106 H1080 0.950 . S
C1106 C1102 1.385 . S
C1106 C1105 1.374 . S
C1107 C1104 1.499 . S
C1107 C1108 1.373 . S
C1107 C1109 1.389 . S
C1108 H1081 0.950 . S
C1108 C1094 1.377 . S
C1108 C1107 1.373 . S
C1109 C1093 1.377 . S
C1109 C1107 1.389 . S
C1109 C1110 1.524 . S
C1110 C1109 1.524 . S
C1110 C1111 1.397 . S
C1110 C1115 1.363 . S
C1111 H1082 0.950 . S
C1111 C1110 1.397 . S
C1111 C1112 1.334 . S
C1112 H1083 0.950 . S
C1112 C1111 1.334 . S
C1112 C1113 1.287 . S
C1113 C1112 1.287 . S
C1113 C1114 1.524 . S
C1113 H1116 0.999 . S
C1114 H1084 0.950 . S
C1114 C1113 1.524 . S
C1114 C1115 1.415 . S
C1115 H1085 0.950 . S
C1115 C1110 1.363 . S
C1115 C1114 1.415 . S
H1116 C1113 0.999 . S
H1117 C1098 0.913 . S
H1118 C1136 0.951 . S
H1119 C1138 0.951 . S
H1120 C1140 0.950 . S
H1121 C1141 0.950 . S
H1122 C1143 0.950 . S
H1123 C1146 0.950 . S
H1124 C1147 0.950 . S
H1125 C1149 0.950 . S
H1126 C1150 0.950 . S
H1127 C1151 0.951 . S
H1128 C1153 0.951 . S
H1129 C1155 0.950 . S
H1130 C1156 0.950 . S
H1131 C1158 0.950 . S
H1132 C1161 0.950 . S
H1133 C1162 0.950 . S
H1134 C1164 0.950 . S
H1135 C1165 0.950 . S
C1136 H1118 0.951 . S
C1136 C1137 1.366 . S
C1136 C1138 1.388 . S
C1137 C1136 1.366 . S
C1137 C1141 1.385 . S
C1138 H1119 0.951 . S
C1138 C1136 1.388 . S
C1138 C1139 1.366 . S
C1139 C1138 1.366 . S
C1139 C1140 1.414 . S
C1139 C1142 1.499 . S
C1140 H1120 0.950 . S
C1140 C1139 1.414 . S
C1140 C1141 1.374 . S
C1141 H1121 0.950 . S
C1141 C1137 1.385 . S
C1141 C1140 1.374 . S
C1142 C1139 1.499 . S
C1142 C1143 1.373 . S
C1142 C1144 1.389 . S
C1143 H1122 0.950 . S
C1143 C1142 1.373 . S
C1143 C1159 1.377 . S
C1144 C1142 1.389 . S
C1144 C1145 1.524 . S
C1144 C1158 1.377 . S
C1145 C1144 1.524 . S
C1145 C1146 1.397 . S
C1145 C1150 1.363 . S
C1146 H1123 0.950 . S
C1146 C1145 1.397 . S
C1146 C1147 1.334 . S
C1147 H1124 0.950 . S
C1147 C1146 1.334 . S
C1147 C1148 1.287 . S
C1148 C1147 1.287 . S
C1148 C1149 1.524 . S
C1148 H1167 0.913 . S
C1149 H1125 0.950 . S
C1149 C1148 1.524 . S
C1149 C1150 1.415 . S
C1150 H1126 0.950 . S
C1150 C1145 1.363 . S
C1150 C1149 1.415 . S
C1151 H1127 0.951 . S
C1151 C1152 1.366 . S
C1151 C1153 1.388 . S
C1152 C1151 1.366 . S
C1152 C1156 1.385 . S
C1153 H1128 0.951 . S
C1153 C1151 1.388 . S
C1153 C1154 1.366 . S
C1154 C1153 1.366 . S
C1154 C1155 1.414 . S
C1154 C1157 1.499 . S
C1155 H1129 0.950 . S
C1155 C1154 1.414 . S
C1155 C1156 1.374 . S
C1156 H1130 0.950 . S
C1156 C1152 1.385 . S
C1156 C1155 1.374 . S
C1157 C1154 1.499 . S
C1157 C1158 1.373 . S
C1157 C1159 1.389 . S
C1158 H1131 0.950 . S
C1158 C1144 1.377 . S
C1158 C1157 1.373 . S
C1159 C1143 1.377 . S
C1159 C1157 1.389 . S
C1159 C1160 1.524 . S
C1160 C1159 1.524 . S
C1160 C1161 1.397 . S
C1160 C1165 1.363 . S
C1161 H1132 0.950 . S
C1161 C1160 1.397 . S
C1161 C1162 1.334 . S
C1162 H1133 0.950 . S
C1162 C1161 1.334 . S
C1162 C1163 1.287 . S
C1163 C1162 1.287 . S
C1163 C1164 1.524 . S
C1163 H1166 0.999 . S
C1164 H1134 0.950 . S
C1164 C1163 1.524 . S
C1164 C1165 1.415 . S
C1165 H1135 0.950 . S
C1165 C1160 1.363 . S
C1165 C1164 1.415 . S
H1166 C1163 0.999 . S
H1167 C1148 0.913 . S
H1168 C1186 0.951 . S
H1169 C1188 0.951 . S
H1170 C1190 0.950 . S
H1171 C1191 0.950 . S
H1172 C1193 0.950 . S
H1173 C1196 0.950 . S
H1174 C1197 0.950 . S
H1175 C1199 0.950 . S
H1176 C1200 0.950 . S
H1177 C1201 0.951 . S
H1178 C1203 0.951 . S
H1179 C1205 0.950 . S
H1180 C1206 0.950 . S
H1181 C1208 0.950 . S
H1182 C1211 0.950 . S
H1183 C1212 0.950 . S
H1184 C1214 0.950 . S
H1185 C1215 0.950 . S
C1186 H1168 0.951 . S
C1186 C1187 1.366 . S
C1186 C1188 1.388 . S
C1187 C1186 1.366 . S
C1187 C1191 1.385 . S
C1188 H1169 0.951 . S
C1188 C1186 1.388 . S
C1188 C1189 1.366 . S
C1189 C1188 1.366 . S
C1189 C1190 1.414 . S
C1189 C1192 1.499 . S
C1190 H1170 0.950 . S
C1190 C1189 1.414 . S
C1190 C1191 1.374 . S
C1191 H1171 0.950 . S
C1191 C1187 1.385 . S
C1191 C1190 1.374 . S
C1192 C1189 1.499 . S
C1192 C1193 1.373 . S
C1192 C1194 1.389 . S
C1193 H1172 0.950 . S
C1193 C1192 1.373 . S
C1193 C1209 1.377 . S
C1194 C1192 1.389 . S
C1194 C1195 1.524 . S
C1194 C1208 1.377 . S
C1195 C1194 1.524 . S
C1195 C1196 1.397 . S
C1195 C1200 1.363 . S
C1196 H1173 0.950 . S
C1196 C1195 1.397 . S
C1196 C1197 1.334 . S
C1197 H1174 0.950 . S
C1197 C1196 1.334 . S
C1197 C1198 1.287 . S
C1198 C1197 1.287 . S
C1198 C1199 1.524 . S
C1198 H1217 0.913 . S
C1199 H1175 0.950 . S
C1199 C1198 1.524 . S
C1199 C1200 1.415 . S
C1200 H1176 0.950 . S
C1200 C1195 1.363 . S
C1200 C1199 1.415 . S
C1201 H1177 0.951 . S
C1201 C1202 1.366 . S
C1201 C1203 1.388 . S
C1202 C1201 1.366 . S
C1202 C1206 1.385 . S
C1203 H1178 0.951 . S
C1203 C1201 1.388 . S
C1203 C1204 1.366 . S
C1204 C1203 1.366 . S
C1204 C1205 1.414 . S
C1204 C1207 1.499 . S
C1205 H1179 0.950 . S
C1205 C1204 1.414 . S
C1205 C1206 1.374 . S
C1206 H1180 0.950 . S
C1206 C1202 1.385 . S
C1206 C1205 1.374 . S
C1207 C1204 1.499 . S
C1207 C1208 1.373 . S
C1207 C1209 1.389 . S
C1208 H1181 0.950 . S
C1208 C1194 1.377 . S
C1208 C1207 1.373 . S
C1209 C1193 1.377 . S
C1209 C1207 1.389 . S
C1209 C1210 1.524 . S
C1210 C1209 1.524 . S
C1210 C1211 1.397 . S
C1210 C1215 1.363 . S
C1211 H1182 0.950 . S
C1211 C1210 1.397 . S
C1211 C1212 1.334 . S
C1212 H1183 0.950 . S
C1212 C1211 1.334 . S
C1212 C1213 1.287 . S
C1213 C1212 1.287 . S
C1213 C1214 1.524 . S
C1213 H1216 0.999 . S
C1214 H1184 0.950 . S
C1214 C1213 1.524 . S
C1214 C1215 1.415 . S
C1215 H1185 0.950 . S
C1215 C1210 1.363 . S
C1215 C1214 1.415 . S
H1216 C1213 0.999 . S
H1217 C1198 0.913 . S
H1218 C1236 0.951 . S
H1219 C1238 0.951 . S
H1220 C1240 0.950 . S
H1221 C1241 0.950 . S
H1222 C1243 0.950 . S
H1223 C1246 0.950 . S
H1224 C1247 0.950 . S
H1225 C1249 0.950 . S
H1226 C1250 0.950 . S
H1227 C1251 0.951 . S
H1228 C1253 0.951 . S
H1229 C1255 0.950 . S
H1230 C1256 0.950 . S
H1231 C1258 0.950 . S
H1232 C1261 0.950 . S
H1233 C1262 0.950 . S
H1234 C1264 0.950 . S
H1235 C1265 0.950 . S
C1236 H1218 0.951 . S
C1236 C1237 1.366 . S
C1236 C1238 1.388 . S
C1237 C1236 1.366 . S
C1237 C1241 1.385 . S
C1238 H1219 0.951 . S
C1238 C1236 1.388 . S
C1238 C1239 1.366 . S
C1239 C1238 1.366 . S
C1239 C1240 1.414 . S
C1239 C1242 1.499 . S
C1240 H1220 0.950 . S
C1240 C1239 1.414 . S
C1240 C1241 1.374 . S
C1241 H1221 0.950 . S
C1241 C1237 1.385 . S
C1241 C1240 1.374 . S
C1242 C1239 1.499 . S
C1242 C1243 1.373 . S
C1242 C1244 1.389 . S
C1243 H1222 0.950 . S
C1243 C1242 1.373 . S
C1243 C1259 1.377 . S
C1244 C1242 1.389 . S
C1244 C1245 1.524 . S
C1244 C1258 1.377 . S
C1245 C1244 1.524 . S
C1245 C1246 1.397 . S
C1245 C1250 1.363 . S
C1246 H1223 0.950 . S
C1246 C1245 1.397 . S
C1246 C1247 1.334 . S
C1247 H1224 0.950 . S
C1247 C1246 1.334 . S
C1247 C1248 1.287 . S
C1248 C1247 1.287 . S
C1248 C1249 1.524 . S
C1248 H1267 0.913 . S
C1249 H1225 0.950 . S
C1249 C1248 1.524 . S
C1249 C1250 1.415 . S
C1250 H1226 0.950 . S
C1250 C1245 1.363 . S
C1250 C1249 1.415 . S
C1251 H1227 0.951 . S
C1251 C1252 1.366 . S
C1251 C1253 1.388 . S
C1252 C1251 1.366 . S
C1252 C1256 1.385 . S
C1253 H1228 0.951 . S
C1253 C1251 1.388 . S
C1253 C1254 1.366 . S
C1254 C1253 1.366 . S
C1254 C1255 1.414 . S
C1254 C1257 1.499 . S
C1255 H1229 0.950 . S
C1255 C1254 1.414 . S
C1255 C1256 1.374 . S
C1256 H1230 0.950 . S
C1256 C1252 1.385 . S
C1256 C1255 1.374 . S
C1257 C1254 1.499 . S
C1257 C1258 1.373 . S
C1257 C1259 1.389 . S
C1258 H1231 0.950 . S
C1258 C1244 1.377 . S
C1258 C1257 1.373 . S
C1259 C1243 1.377 . S
C1259 C1257 1.389 . S
C1259 C1260 1.524 . S
C1260 C1259 1.524 . S
C1260 C1261 1.397 . S
C1260 C1265 1.363 . S
C1261 H1232 0.950 . S
C1261 C1260 1.397 . S
C1261 C1262 1.334 . S
C1262 H1233 0.950 . S
C1262 C1261 1.334 . S
C1262 C1263 1.287 . S
C1263 C1262 1.287 . S
C1263 C1264 1.524 . S
C1263 H1266 0.999 . S
C1264 H1234 0.950 . S
C1264 C1263 1.524 . S
C1264 C1265 1.415 . S
C1265 H1235 0.950 . S
C1265 C1260 1.363 . S
C1265 C1264 1.415 . S
H1266 C1263 0.999 . S
H1267 C1248 0.913 . S
H1268 C1286 0.951 . S
H1269 C1288 0.951 . S
H1270 C1290 0.950 . S
H1271 C1291 0.950 . S
H1272 C1293 0.950 . S
H1273 C1296 0.950 . S
H1274 C1297 0.950 . S
H1275 C1299 0.950 . S
H1276 C1300 0.950 . S
H1277 C1301 0.951 . S
H1278 C1303 0.951 . S
H1279 C1305 0.950 . S
H1280 C1306 0.950 . S
H1281 C1308 0.950 . S
H1282 C1311 0.950 . S
H1283 C1312 0.950 . S
H1284 C1314 0.950 . S
H1285 C1315 0.950 . S
C1286 H1268 0.951 . S
C1286 C1287 1.366 . S
C1286 C1288 1.388 . S
C1287 C1286 1.366 . S
C1287 C1291 1.385 . S
C1288 H1269 0.951 . S
C1288 C1286 1.388 . S
C1288 C1289 1.366 . S
C1289 C1288 1.366 . S
C1289 C1290 1.414 . S
C1289 C1292 1.499 . S
C1290 H1270 0.950 . S
C1290 C1289 1.414 . S
C1290 C1291 1.374 . S
C1291 H1271 0.950 . S
C1291 C1287 1.385 . S
C1291 C1290 1.374 . S
C1292 C1289 1.499 . S
C1292 C1293 1.373 . S
C1292 C1294 1.389 . S
C1293 H1272 0.950 . S
C1293 C1292 1.373 . S
C1293 C1309 1.377 . S
C1294 C1292 1.389 . S
C1294 C1295 1.524 . S
C1294 C1308 1.377 . S
C1295 C1294 1.524 . S
C1295 C1296 1.397 . S
C1295 C1300 1.363 . S
C1296 H1273 0.950 . S
C1296 C1295 1.397 . S
C1296 C1297 1.334 . S
C1297 H1274 0.950 . S
C1297 C1296 1.334 . S
C1297 C1298 1.287 . S
C1298 C1297 1.287 . S
C1298 C1299 1.524 . S
C1298 H1317 0.913 . S
C1299 H1275 0.950 . S
C1299 C1298 1.524 . S
C1299 C1300 1.415 . S
C1300 H1276 0.950 . S
C1300 C1295 1.363 . S
C1300 C1299 1.415 . S
C1301 H1277 0.951 . S
C1301 C1302 1.366 . S
C1301 C1303 1.388 . S
C1302 C1301 1.366 . S
C1302 C1306 1.385 . S
C1303 H1278 0.951 . S
C1303 C1301 1.388 . S
C1303 C1304 1.366 . S
C1304 C1303 1.366 . S
C1304 C1305 1.414 . S
C1304 C1307 1.499 . S
C1305 H1279 0.950 . S
C1305 C1304 1.414 . S
C1305 C1306 1.374 . S
C1306 H1280 0.950 . S
C1306 C1302 1.385 . S
C1306 C1305 1.374 . S
C1307 C1304 1.499 . S
C1307 C1308 1.373 . S
C1307 C1309 1.389 . S
C1308 H1281 0.950 . S
C1308 C1294 1.377 . S
C1308 C1307 1.373 . S
C1309 C1293 1.377 . S
C1309 C1307 1.389 . S
C1309 C1310 1.524 . S
C1310 C1309 1.524 . S
C1310 C1311 1.397 . S
C1310 C1315 1.363 . S
C1311 H1282 0.950 . S
C1311 C1310 1.397 . S
C1311 C1312 1.334 . S
C1312 H1283 0.950 . S
C1312 C1311 1.334 . S
C1312 C1313 1.287 . S
C1313 C1312 1.287 . S
C1313 C1314 1.524 . S
C1313 H1316 0.999 . S
C1314 H1284 0.950 . S
C1314 C1313 1.524 . S
C1314 C1315 1.415 . S
C1315 H1285 0.950 . S
C1315 C1310 1.363 . S
C1315 C1314 1.415 . S
H1316 C1313 0.999 . S
H1317 C1298 0.913 . S
H1318 C1336 0.951 . S
H1319 C1338 0.951 . S
H1320 C1340 0.950 . S
H1321 C1341 0.950 . S
H1322 C1343 0.950 . S
H1323 C1346 0.950 . S
H1324 C1347 0.950 . S
H1325 C1349 0.950 . S
H1326 C1350 0.950 . S
H1327 C1351 0.951 . S
H1328 C1353 0.951 . S
H1329 C1355 0.950 . S
H1330 C1356 0.950 . S
H1331 C1358 0.950 . S
H1332 C1361 0.950 . S
H1333 C1362 0.950 . S
H1334 C1364 0.950 . S
H1335 C1365 0.950 . S
C1336 H1318 0.951 . S
C1336 C1337 1.366 . S
C1336 C1338 1.388 . S
C1337 C1336 1.366 . S
C1337 C1341 1.385 . S
C1338 H1319 0.951 . S
C1338 C1336 1.388 . S
C1338 C1339 1.366 . S
C1339 C1338 1.366 . S
C1339 C1340 1.414 . S
C1339 C1342 1.499 . S
C1340 H1320 0.950 . S
C1340 C1339 1.414 . S
C1340 C1341 1.374 . S
C1341 H1321 0.950 . S
C1341 C1337 1.385 . S
C1341 C1340 1.374 . S
C1342 C1339 1.499 . S
C1342 C1343 1.373 . S
C1342 C1344 1.389 . S
C1343 H1322 0.950 . S
C1343 C1342 1.373 . S
C1343 C1359 1.377 . S
C1344 C1342 1.389 . S
C1344 C1345 1.524 . S
C1344 C1358 1.377 . S
C1345 C1344 1.524 . S
C1345 C1346 1.397 . S
C1345 C1350 1.363 . S
C1346 H1323 0.950 . S
C1346 C1345 1.397 . S
C1346 C1347 1.334 . S
C1347 H1324 0.950 . S
C1347 C1346 1.334 . S
C1347 C1348 1.287 . S
C1348 C1347 1.287 . S
C1348 C1349 1.524 . S
C1348 H1367 0.913 . S
C1349 H1325 0.950 . S
C1349 C1348 1.524 . S
C1349 C1350 1.415 . S
C1350 H1326 0.950 . S
C1350 C1345 1.363 . S
C1350 C1349 1.415 . S
C1351 H1327 0.951 . S
C1351 C1352 1.366 . S
C1351 C1353 1.388 . S
C1352 C1351 1.366 . S
C1352 C1356 1.385 . S
C1353 H1328 0.951 . S
C1353 C1351 1.388 . S
C1353 C1354 1.366 . S
C1354 C1353 1.366 . S
C1354 C1355 1.414 . S
C1354 C1357 1.499 . S
C1355 H1329 0.950 . S
C1355 C1354 1.414 . S
C1355 C1356 1.374 . S
C1356 H1330 0.950 . S
C1356 C1352 1.385 . S
C1356 C1355 1.374 . S
C1357 C1354 1.499 . S
C1357 C1358 1.373 . S
C1357 C1359 1.389 . S
C1358 H1331 0.950 . S
C1358 C1344 1.377 . S
C1358 C1357 1.373 . S
C1359 C1343 1.377 . S
C1359 C1357 1.389 . S
C1359 C1360 1.524 . S
C1360 C1359 1.524 . S
C1360 C1361 1.397 . S
C1360 C1365 1.363 . S
C1361 H1332 0.950 . S
C1361 C1360 1.397 . S
C1361 C1362 1.334 . S
C1362 H1333 0.950 . S
C1362 C1361 1.334 . S
C1362 C1363 1.287 . S
C1363 C1362 1.287 . S
C1363 C1364 1.524 . S
C1363 H1366 0.999 . S
C1364 H1334 0.950 . S
C1364 C1363 1.524 . S
C1364 C1365 1.415 . S
C1365 H1335 0.950 . S
C1365 C1360 1.363 . S
C1365 C1364 1.415 . S
H1366 C1363 0.999 . S
H1367 C1348 0.913 . S
H1368 C1386 0.951 . S
H1369 C1388 0.951 . S
H1370 C1390 0.950 . S
H1371 C1391 0.950 . S
H1372 C1393 0.950 . S
H1373 C1396 0.950 . S
H1374 C1397 0.950 . S
H1375 C1399 0.950 . S
H1376 C1400 0.950 . S
H1377 C1401 0.951 . S
H1378 C1403 0.951 . S
H1379 C1405 0.950 . S
H1380 C1406 0.950 . S
H1381 C1408 0.950 . S
H1382 C1411 0.950 . S
H1383 C1412 0.947 . S
H1384 C1414 0.950 . S
H1385 C1415 0.950 . S
C1386 H1368 0.951 . S
C1386 C1387 1.366 . S
C1386 C1388 1.388 . S
C1387 C1386 1.366 . S
C1387 C1391 1.385 . S
C1388 H1369 0.951 . S
C1388 C1386 1.388 . S
C1388 C1389 1.366 . S
C1389 C1388 1.366 . S
C1389 C1390 1.414 . S
C1389 C1392 1.499 . S
C1390 H1370 0.950 . S
C1390 C1389 1.414 . S
C1390 C1391 1.374 . S
C1391 H1371 0.950 . S
C1391 C1387 1.385 . S
C1391 C1390 1.374 . S
C1392 C1389 1.499 . S
C1392 C1393 1.373 . S
C1392 C1394 1.389 . S
C1393 H1372 0.950 . S
C1393 C1392 1.373 . S
C1393 C1409 1.377 . S
C1394 C1392 1.389 . S
C1394 C1395 1.524 . S
C1394 C1408 1.377 . S
C1395 C1394 1.524 . S
C1395 C1396 1.397 . S
C1395 C1400 1.363 . S
C1396 H1373 0.950 . S
C1396 C1395 1.397 . S
C1396 C1397 1.334 . S
C1397 H1374 0.950 . S
C1397 C1396 1.334 . S
C1397 C1398 1.287 . S
C1398 C1397 1.287 . S
C1398 C1399 1.524 . S
C1398 H1417 0.913 . S
C1399 H1375 0.950 . S
C1399 C1398 1.524 . S
C1399 C1400 1.415 . S
C1400 H1376 0.950 . S
C1400 C1395 1.363 . S
C1400 C1399 1.415 . S
C1401 H1377 0.951 . S
C1401 C1402 1.366 . S
C1401 C1403 1.388 . S
C1402 C1401 1.366 . S
C1402 C1406 1.385 . S
C1403 H1378 0.951 . S
C1403 C1401 1.388 . S
C1403 C1404 1.366 . S
C1404 C1403 1.366 . S
C1404 C1405 1.414 . S
C1404 C1407 1.499 . S
C1405 H1379 0.950 . S
C1405 C1404 1.414 . S
C1405 C1406 1.374 . S
C1406 H1380 0.950 . S
C1406 C1402 1.385 . S
C1406 C1405 1.374 . S
C1407 C1404 1.499 . S
C1407 C1408 1.373 . S
C1407 C1409 1.389 . S
C1408 H1381 0.950 . S
C1408 C1394 1.377 . S
C1408 C1407 1.373 . S
C1409 C1393 1.377 . S
C1409 C1407 1.389 . S
C1409 C1410 1.524 . S
C1410 C1409 1.524 . S
C1410 C1411 1.397 . S
C1410 C1415 1.363 . S
C1411 H1382 0.950 . S
C1411 C1410 1.397 . S
C1411 C1412 1.334 . S
C1412 H1383 0.947 . S
C1412 C1411 1.334 . S
C1412 C1413 1.287 . S
C1413 C1412 1.287 . S
C1413 C1414 1.524 . S
C1413 H1416 0.999 1_655 S
C1414 H1384 0.950 . S
C1414 C1413 1.524 . S
C1414 C1415 1.415 . S
C1415 H1385 0.950 . S
C1415 C1410 1.363 . S
C1415 C1414 1.415 . S
H1416 C1413 0.999 1_455 S
H1417 C1398 0.913 . S
H1418 C1436 0.951 . S
H1419 C1438 0.951 . S
H1420 C1440 0.950 . S
H1421 C1441 0.950 . S
H1422 C1443 0.950 . S
H1423 C1446 0.950 . S
H1424 C1447 0.950 . S
H1425 C1449 0.950 . S
H1426 C1450 0.950 . S
H1427 C1451 0.951 . S
H1428 C1453 0.951 . S
H1429 C1455 0.950 . S
H1430 C1456 0.950 . S
H1431 C1458 0.950 . S
H1432 C1461 0.950 . S
H1433 C1462 0.950 1_556 S
H1434 C1464 0.950 1_556 S
H1435 C1465 0.950 . S
C1436 H1418 0.951 . S
C1436 C1437 1.366 . S
C1436 C1438 1.388 . S
C1437 C1436 1.366 . S
C1437 C1441 1.385 . S
C1438 H1419 0.951 . S
C1438 C1436 1.388 . S
C1438 C1439 1.366 . S
C1439 C1438 1.366 . S
C1439 C1440 1.414 . S
C1439 C1442 1.499 . S
C1440 H1420 0.950 . S
C1440 C1439 1.414 . S
C1440 C1441 1.374 . S
C1441 H1421 0.950 . S
C1441 C1437 1.385 . S
C1441 C1440 1.374 . S
C1442 C1439 1.499 . S
C1442 C1443 1.373 . S
C1442 C1444 1.389 . S
C1443 H1422 0.950 . S
C1443 C1442 1.373 . S
C1443 C1459 1.377 . S
C1444 C1442 1.389 . S
C1444 C1445 1.524 . S
C1444 C1458 1.377 . S
C1445 C1444 1.524 . S
C1445 C1446 1.397 . S
C1445 C1450 1.363 . S
C1446 H1423 0.950 . S
C1446 C1445 1.397 . S
C1446 C1447 1.334 . S
C1447 H1424 0.950 . S
C1447 C1446 1.334 . S
C1447 C1448 1.287 . S
C1448 C1447 1.287 . S
C1448 C1449 1.524 . S
C1448 H1467 0.913 . S
C1449 H1425 0.950 . S
C1449 C1448 1.524 . S
C1449 C1450 1.415 . S
C1450 H1426 0.950 . S
C1450 C1445 1.363 . S
C1450 C1449 1.415 . S
C1451 H1427 0.951 . S
C1451 C1452 1.366 . S
C1451 C1453 1.388 . S
C1452 C1451 1.366 . S
C1452 C1456 1.385 . S
C1453 H1428 0.951 . S
C1453 C1451 1.388 . S
C1453 C1454 1.366 . S
C1454 C1453 1.366 . S
C1454 C1455 1.414 . S
C1454 C1457 1.499 . S
C1455 H1429 0.950 . S
C1455 C1454 1.414 . S
C1455 C1456 1.374 . S
C1456 H1430 0.950 . S
C1456 C1452 1.385 . S
C1456 C1455 1.374 . S
C1457 C1454 1.499 . S
C1457 C1458 1.373 . S
C1457 C1459 1.389 . S
C1458 H1431 0.950 . S
C1458 C1444 1.377 . S
C1458 C1457 1.373 . S
C1459 C1443 1.377 . S
C1459 C1457 1.389 . S
C1459 C1460 1.524 . S
C1460 C1459 1.524 . S
C1460 C1461 1.397 . S
C1460 C1465 1.363 . S
C1461 H1432 0.950 . S
C1461 C1460 1.397 . S
C1461 C1462 1.334 . S
C1462 H1433 0.950 1_554 S
C1462 C1461 1.334 . S
C1462 C1463 1.287 1_554 S
C1463 C1462 1.287 1_556 S
C1463 C1464 1.524 1_556 S
C1463 H1466 0.999 . S
C1464 H1434 0.950 1_554 S
C1464 C1463 1.524 1_554 S
C1464 C1465 1.415 . S
C1465 H1435 0.950 . S
C1465 C1460 1.363 . S
C1465 C1464 1.415 . S
H1466 C1463 0.999 . S
H1467 C1448 0.913 . S
H1468 C1486 0.951 . S
H1469 C1488 0.951 . S
H1470 C1490 0.950 . S
H1471 C1491 0.950 . S
H1472 C1493 0.950 . S
H1473 C1496 0.950 . S
H1474 C1497 0.950 . S
H1475 C1499 0.950 . S
H1476 C1500 0.950 . S
H1477 C1501 0.951 . S
H1478 C1503 0.951 . S
H1479 C1505 0.950 . S
H1480 C1506 0.950 . S
H1481 C1508 0.950 . S
H1482 C1511 0.950 . S
H1483 C1512 0.950 . S
H1484 C1514 0.991 . S
H1485 C1515 0.950 . S
C1486 H1468 0.951 . S
C1486 C1487 1.366 . S
C1486 C1488 1.388 . S
C1487 C1486 1.366 . S
C1487 C1491 1.385 . S
C1488 H1469 0.951 . S
C1488 C1486 1.388 . S
C1488 C1489 1.366 . S
C1489 C1488 1.366 . S
C1489 C1490 1.414 . S
C1489 C1492 1.499 . S
C1490 H1470 0.950 . S
C1490 C1489 1.414 . S
C1490 C1491 1.374 . S
C1491 H1471 0.950 . S
C1491 C1487 1.385 . S
C1491 C1490 1.374 . S
C1492 C1489 1.499 . S
C1492 C1493 1.373 . S
C1492 C1494 1.389 . S
C1493 H1472 0.950 . S
C1493 C1492 1.373 . S
C1493 C1509 1.377 . S
C1494 C1492 1.389 . S
C1494 C1495 1.524 . S
C1494 C1508 1.377 . S
C1495 C1494 1.524 . S
C1495 C1496 1.397 . S
C1495 C1500 1.363 . S
C1496 H1473 0.950 . S
C1496 C1495 1.397 . S
C1496 C1497 1.334 . S
C1497 H1474 0.950 . S
C1497 C1496 1.334 . S
C1497 C1498 1.287 . S
C1498 C1497 1.287 . S
C1498 C1499 1.524 . S
C1498 H1517 0.913 . S
C1499 H1475 0.950 . S
C1499 C1498 1.524 . S
C1499 C1500 1.415 . S
C1500 H1476 0.950 . S
C1500 C1495 1.363 . S
C1500 C1499 1.415 . S
C1501 H1477 0.951 . S
C1501 C1502 1.366 . S
C1501 C1503 1.388 . S
C1502 C1501 1.366 . S
C1502 C1506 1.385 . S
C1503 H1478 0.951 . S
C1503 C1501 1.388 . S
C1503 C1504 1.366 . S
C1504 C1503 1.366 . S
C1504 C1505 1.414 . S
C1504 C1507 1.499 . S
C1505 H1479 0.950 . S
C1505 C1504 1.414 . S
C1505 C1506 1.374 . S
C1506 H1480 0.950 . S
C1506 C1502 1.385 . S
C1506 C1505 1.374 . S
C1507 C1504 1.499 . S
C1507 C1508 1.373 . S
C1507 C1509 1.389 . S
C1508 H1481 0.950 . S
C1508 C1494 1.377 . S
C1508 C1507 1.373 . S
C1509 C1493 1.377 . S
C1509 C1507 1.389 . S
C1509 C1510 1.524 . S
C1510 C1509 1.524 . S
C1510 C1511 1.397 . S
C1510 C1515 1.363 . S
C1511 H1482 0.950 . S
C1511 C1510 1.397 . S
C1511 C1512 1.334 . S
C1512 H1483 0.950 . S
C1512 C1511 1.334 . S
C1512 C1513 1.287 1_455 S
C1513 C1512 1.287 1_655 S
C1513 C1514 1.523 . S
C1513 H1516 0.999 . S
C1514 H1484 0.991 . S
C1514 C1513 1.523 . S
C1514 C1515 1.370 1_655 S
C1515 H1485 0.950 . S
C1515 C1510 1.363 . S
C1515 C1514 1.370 1_455 S
H1516 C1513 0.999 . S
H1517 C1498 0.913 . S
H1518 C1536 0.951 . S
H1519 C1538 0.951 . S
H1520 C1540 0.950 . S
H1521 C1541 0.950 . S
H1522 C1543 0.950 . S
H1523 C1546 0.950 . S
H1524 C1547 0.950 . S
H1525 C1549 0.950 . S
H1526 C1550 0.950 . S
H1527 C1551 0.951 . S
H1528 C1553 0.951 . S
H1529 C1555 0.950 . S
H1530 C1556 0.950 . S
H1531 C1558 0.950 . S
H1532 C1561 0.950 . S
H1533 C1562 0.950 . S
H1534 C1564 0.950 . S
H1535 C1565 0.950 . S
C1536 H1518 0.951 . S
C1536 C1537 1.366 . S
C1536 C1538 1.388 . S
C1537 C1536 1.366 . S
C1537 C1541 1.385 . S
C1538 H1519 0.951 . S
C1538 C1536 1.388 . S
C1538 C1539 1.366 . S
C1539 C1538 1.366 . S
C1539 C1540 1.414 . S
C1539 C1542 1.499 . S
C1540 H1520 0.950 . S
C1540 C1539 1.414 . S
C1540 C1541 1.374 . S
C1541 H1521 0.950 . S
C1541 C1537 1.385 . S
C1541 C1540 1.374 . S
C1542 C1539 1.499 . S
C1542 C1543 1.373 . S
C1542 C1544 1.389 . S
C1543 H1522 0.950 . S
C1543 C1542 1.373 . S
C1543 C1559 1.377 . S
C1544 C1542 1.389 . S
C1544 C1545 1.524 . S
C1544 C1558 1.377 . S
C1545 C1544 1.524 . S
C1545 C1546 1.397 . S
C1545 C1550 1.363 . S
C1546 H1523 0.950 . S
C1546 C1545 1.397 . S
C1546 C1547 1.334 . S
C1547 H1524 0.950 . S
C1547 C1546 1.334 . S
C1547 C1548 1.287 . S
C1548 C1547 1.287 . S
C1548 C1549 1.524 . S
C1548 H1567 0.913 . S
C1549 H1525 0.950 . S
C1549 C1548 1.524 . S
C1549 C1550 1.415 . S
C1550 H1526 0.950 . S
C1550 C1545 1.363 . S
C1550 C1549 1.415 . S
C1551 H1527 0.951 . S
C1551 C1552 1.366 . S
C1551 C1553 1.388 . S
C1552 C1551 1.366 . S
C1552 C1556 1.385 . S
C1553 H1528 0.951 . S
C1553 C1551 1.388 . S
C1553 C1554 1.366 . S
C1554 C1553 1.366 . S
C1554 C1555 1.414 . S
C1554 C1557 1.499 . S
C1555 H1529 0.950 . S
C1555 C1554 1.414 . S
C1555 C1556 1.374 . S
C1556 H1530 0.950 . S
C1556 C1552 1.385 . S
C1556 C1555 1.374 . S
C1557 C1554 1.499 . S
C1557 C1558 1.373 . S
C1557 C1559 1.389 . S
C1558 H1531 0.950 . S
C1558 C1544 1.377 . S
C1558 C1557 1.373 . S
C1559 C1543 1.377 . S
C1559 C1557 1.389 . S
C1559 C1560 1.524 . S
C1560 C1559 1.524 . S
C1560 C1561 1.397 . S
C1560 C1565 1.363 . S
C1561 H1532 0.950 . S
C1561 C1560 1.397 . S
C1561 C1562 1.334 . S
C1562 H1533 0.950 . S
C1562 C1561 1.334 . S
C1562 C1563 1.287 . S
C1563 C1562 1.287 . S
C1563 C1564 1.524 . S
C1563 H1566 0.999 . S
C1564 H1534 0.950 . S
C1564 C1563 1.524 . S
C1564 C1565 1.415 . S
C1565 H1535 0.950 . S
C1565 C1560 1.363 . S
C1565 C1564 1.415 . S
H1566 C1563 0.999 . S
H1567 C1548 0.913 . S
C387 C1 1.522 . S
C402 C307 1.483 . S
C437 C67 1.323 . S
C452 C310 1.272 . S
C502 C346 1.704 . S
C487 C97 1.732 . S
C537 C133 1.636 . S
C552 C366 1.627 . S
C602 C320 1.739 . S
C587 C25 1.777 . S
C652 C297 1.555 . S
C637 C37 1.580 . S
C702 C350 1.530 . S
C687 C103 1.640 . S
C752 C330 1.363 . S
C737 C109 1.436 . S
C787 C31 1.359 . S
C802 C360 1.306 . S
C852 C326 1.564 . S
C837 C73 1.588 . S
C887 C139 1.654 . S
C902 C292 1.601 . S
C937 C61 1.343 . S
C952 C340 1.315 . S
C1002 C306 1.493 . S
C987 C175 1.508 . S
C1037 C181 1.303 . S
C1052 C312 1.255 . S
C1087 C247 1.745 . S
C1102 C347 1.723 . S
C1137 C277 1.629 . S
C1152 C367 1.618 . S
C1187 C145 1.757 . S
C1202 C317 1.735 . S
C1252 C300 1.560 . S
C1237 C211 1.586 . S
C1302 C352 1.520 . S
C1287 C217 1.619 . S
C1352 C332 1.385 . S
C1337 C283 1.447 . S
C1387 C169 1.333 . S
C1402 C357 1.301 . S
C1452 C327 1.572 . S
C1437 C241 1.586 . S
C1502 C290 1.583 . S
C1487 C253 1.648 . S
C1537 C205 1.349 . S
C1552 C337 1.321 . S
