# Generated by pormake.
# Topology wbl, (4,4)-cn, num edge types: 1
# Building blocks:
#     Node 0, Type 0, BuildingBlock: MIFKUJ_clean_linker_1, # of connection points: 4
#     Node 1, Type 0, BuildingBlock: MIFKUJ_clean_linker_1, # of connection points: 4
#     Node 2, Type 0, BuildingBlock: MIFKUJ_clean_linker_1, # of connection points: 4
#     Node 3, Type 0, BuildingBlock: MIFKUJ_clean_linker_1, # of connection points: 4
#     Node 4, Type 0, BuildingBlock: MIFKUJ_clean_linker_1, # of connection points: 4
#     Node 5, Type 0, BuildingBlock: MIFKUJ_clean_linker_1, # of connection points: 4
#     Node 6, Type 0, BuildingBlock: MIFKUJ_clean_linker_1, # of connection points: 4
#     Node 7, Type 0, BuildingBlock: MIFKUJ_clean_linker_1, # of connection points: 4
#     Node 8, Type 1, BuildingBlock: CEKHIL_clean_sbu_0, # of connection points: 4
#     Node 9, Type 1, BuildingBlock: CEKHIL_clean_sbu_0, # of connection points: 4
#     Node 10, Type 1, BuildingBlock: CEKHIL_clean_sbu_0, # of connection points: 4
#     Node 11, Type 1, BuildingBlock: CEKHIL_clean_sbu_0, # of connection points: 4
#     Node 12, Type 1, BuildingBlock: CEKHIL_clean_sbu_0, # of connection points: 4
#     Node 13, Type 1, BuildingBlock: CEKHIL_clean_sbu_0, # of connection points: 4
#     Node 14, Type 1, BuildingBlock: CEKHIL_clean_sbu_0, # of connection points: 4
#     Node 15, Type 1, BuildingBlock: CEKHIL_clean_sbu_0, # of connection points: 4
#     Edge 16, Type (0, 1), BuildingBlock: EZIPEK_clean_linker_0, # of connection points: 2
#     Edge 17, Type (0, 1), BuildingBlock: EZIPEK_clean_linker_0, # of connection points: 2
#     Edge 18, Type (0, 1), BuildingBlock: EZIPEK_clean_linker_0, # of connection points: 2
#     Edge 19, Type (0, 1), BuildingBlock: EZIPEK_clean_linker_0, # of connection points: 2
#     Edge 20, Type (0, 1), BuildingBlock: EZIPEK_clean_linker_0, # of connection points: 2
#     Edge 21, Type (0, 1), BuildingBlock: EZIPEK_clean_linker_0, # of connection points: 2
#     Edge 22, Type (0, 1), BuildingBlock: EZIPEK_clean_linker_0, # of connection points: 2
#     Edge 23, Type (0, 1), BuildingBlock: EZIPEK_clean_linker_0, # of connection points: 2
#     Edge 24, Type (0, 1), BuildingBlock: EZIPEK_clean_linker_0, # of connection points: 2
#     Edge 25, Type (0, 1), BuildingBlock: EZIPEK_clean_linker_0, # of connection points: 2
#     Edge 26, Type (0, 1), BuildingBlock: EZIPEK_clean_linker_0, # of connection points: 2
#     Edge 27, Type (0, 1), BuildingBlock: EZIPEK_clean_linker_0, # of connection points: 2
#     Edge 28, Type (0, 1), BuildingBlock: EZIPEK_clean_linker_0, # of connection points: 2
#     Edge 29, Type (0, 1), BuildingBlock: EZIPEK_clean_linker_0, # of connection points: 2
#     Edge 30, Type (0, 1), BuildingBlock: EZIPEK_clean_linker_0, # of connection points: 2
#     Edge 31, Type (0, 1), BuildingBlock: EZIPEK_clean_linker_0, # of connection points: 2
#     Edge 32, Type (0, 1), BuildingBlock: EZIPEK_clean_linker_0, # of connection points: 2
#     Edge 33, Type (0, 1), BuildingBlock: EZIPEK_clean_linker_0, # of connection points: 2
#     Edge 34, Type (0, 1), BuildingBlock: EZIPEK_clean_linker_0, # of connection points: 2
#     Edge 35, Type (0, 1), BuildingBlock: EZIPEK_clean_linker_0, # of connection points: 2
#     Edge 36, Type (0, 1), BuildingBlock: EZIPEK_clean_linker_0, # of connection points: 2
#     Edge 37, Type (0, 1), BuildingBlock: EZIPEK_clean_linker_0, # of connection points: 2
#     Edge 38, Type (0, 1), BuildingBlock: EZIPEK_clean_linker_0, # of connection points: 2
#     Edge 39, Type (0, 1), BuildingBlock: EZIPEK_clean_linker_0, # of connection points: 2
#     Edge 40, Type (0, 1), BuildingBlock: EZIPEK_clean_linker_0, # of connection points: 2
#     Edge 41, Type (0, 1), BuildingBlock: EZIPEK_clean_linker_0, # of connection points: 2
#     Edge 42, Type (0, 1), BuildingBlock: EZIPEK_clean_linker_0, # of connection points: 2
#     Edge 43, Type (0, 1), BuildingBlock: EZIPEK_clean_linker_0, # of connection points: 2
#     Edge 44, Type (0, 1), BuildingBlock: EZIPEK_clean_linker_0, # of connection points: 2
#     Edge 45, Type (0, 1), BuildingBlock: EZIPEK_clean_linker_0, # of connection points: 2
#     Edge 46, Type (0, 1), BuildingBlock: EZIPEK_clean_linker_0, # of connection points: 2
#     Edge 47, Type (0, 1), BuildingBlock: EZIPEK_clean_linker_0, # of connection points: 2
# Relax obj value: 0.158
# Max RMSD: 0.159
# Mean RMSD: 0.138
data_MOF--net-wbl--node1-CEKHIL_clean_sbu_0--node2-MIFKUJ_clean_linker_1--edge1-EZIPEK_clean_linker_0
_symmetry_space_group_name_H-M    P1
_symmetry_Int_Tables_number       1
_symmetry_cell_setting            triclinic
loop_
_symmetry_equiv_pos_as_xyz
'x, y, z'
_cell_length_a     35.620885
_cell_length_b     35.804259
_cell_length_c     58.281234
_cell_angle_alpha  90.358666
_cell_angle_beta   90.092288
_cell_angle_gamma 89.945728
loop_
_atom_site_label
_atom_site_type_symbol
_atom_site_fract_x
_atom_site_fract_y
_atom_site_fract_z
_atom_type_partial_charge
H0 H 0.01098 0.08765 0.37179 0.0
H1 H 0.9698 0.12244 0.39778 0.0
H2 H 0.87284 0.07398 0.3647 0.0
H3 H 0.91432 0.03606 0.34019 0.0
H4 H 0.01825 0.01488 0.3696 0.0
H5 H 0.97176 0.10946 0.31566 0.0
H6 H 0.91302 0.1377 0.30196 0.0
H7 H 0.88096 0.0326 0.27128 0.0
H8 H 0.9388 0.0039 0.28567 0.0
H9 H 0.03228 0.93269 0.28497 0.0
H10 H 0.08167 0.89245 0.2684 0.0
H11 H 0.16643 0.9617 0.3 0.0
H12 H 0.11745 0.0016 0.31657 0.0
H13 H 0.01425 0.01096 0.2845 0.0
H14 H 0.04816 0.91561 0.33562 0.0
H15 H 0.0821 0.87328 0.36129 0.0
H16 H 0.124 0.9678 0.39967 0.0
H17 H 0.0911 0.01034 0.37362 0.0
C18 C 0.96572 0.05976 0.35369 0.0
C19 C 0.98086 0.08437 0.37012 0.0
C20 C 0.95739 0.10438 0.38487 0.0
C21 C 0.91825 0.10087 0.38314 0.0
C22 C 0.90297 0.07713 0.36626 0.0
C23 C 0.92657 0.05589 0.35212 0.0
C24 C 0.99136 0.03657 0.33942 0.0
C25 C 0.01794 0.01481 0.35098 0.0
C26 C 0.98929 0.03465 0.3151 0.0
C27 C 0.95927 0.05431 0.30216 0.0
C28 C 0.9525 0.09267 0.30556 0.0
C29 C 0.91916 0.10886 0.29766 0.0
C30 C 0.89275 0.0871 0.28573 0.0
C31 C 0.90117 0.04978 0.28039 0.0
C32 C 0.93419 0.03347 0.28858 0.0
C33 C 0.0713 0.97002 0.30199 0.0
C34 C 0.06151 0.93957 0.28792 0.0
C35 C 0.08953 0.91654 0.27865 0.0
C36 C 0.12753 0.92414 0.28315 0.0
C37 C 0.13724 0.95543 0.29644 0.0
C38 C 0.10936 0.9782 0.30577 0.0
C39 C 0.04233 0.99105 0.31488 0.0
C40 C 0.01506 0.01194 0.3031 0.0
C41 C 0.04286 0.99155 0.3391 0.0
C42 C 0.06721 0.9662 0.35264 0.0
C43 C 0.0656 0.92735 0.34907 0.0
C44 C 0.08476 0.90318 0.36374 0.0
C45 C 0.10525 0.91757 0.38235 0.0
C46 C 0.10827 0.95633 0.38535 0.0
C47 C 0.0894 0.9805 0.37059 0.0
H48 H 0.00995 0.42117 0.54295 0.0
H49 H 0.97583 0.3674 0.52697 0.0
H50 H 0.8713 0.427 0.53471 0.0
H51 H 0.90556 0.48115 0.55041 0.0
H52 H 0.00579 0.50842 0.53154 0.0
H53 H 0.99474 0.41949 0.60718 0.0
H54 H 0.95441 0.38552 0.63419 0.0
H55 H 0.86334 0.46123 0.61958 0.0
H56 H 0.90381 0.49551 0.59292 0.0
H57 H 0.02972 0.60982 0.58774 0.0
H58 H 0.06436 0.64892 0.61546 0.0
H59 H 0.10688 0.54975 0.64816 0.0
H60 H 0.07375 0.51082 0.62009 0.0
H61 H 0.99902 0.50831 0.6166 0.0
H62 H 0.0027 0.58715 0.53376 0.0
H63 H 0.03947 0.63903 0.5182 0.0
H64 H 0.13971 0.59392 0.54904 0.0
H65 H 0.10296 0.54174 0.5646 0.0
C66 C 0.96015 0.45488 0.54787 0.0
C67 C 0.97982 0.42303 0.5406 0.0
C68 C 0.96044 0.39244 0.53161 0.0
C69 C 0.9212 0.39343 0.52979 0.0
C70 C 0.90163 0.42597 0.53597 0.0
C71 C 0.92108 0.45667 0.54491 0.0
C72 C 0.9801 0.48373 0.56124 0.0
C73 C 0.0042 0.5087 0.55012 0.0
C74 C 0.9779 0.48415 0.58535 0.0
C75 C 0.95202 0.45972 0.59804 0.0
C76 C 0.96579 0.42809 0.60937 0.0
C77 C 0.94286 0.40874 0.62466 0.0
C78 C 0.90604 0.42099 0.62877 0.0
C79 C 0.89161 0.45131 0.61642 0.0
C80 C 0.91461 0.47076 0.60126 0.0
C81 C 0.04916 0.55734 0.60185 0.0
C82 C 0.04732 0.59652 0.60047 0.0
C83 C 0.06692 0.61881 0.61628 0.0
C84 C 0.08774 0.60209 0.63394 0.0
C85 C 0.0908 0.56309 0.6347 0.0
C86 C 0.07176 0.54093 0.61877 0.0
C87 C 0.02543 0.533 0.5871 0.0
C88 C 0.00076 0.50839 0.598 0.0
C89 C 0.02666 0.53366 0.56282 0.0
C90 C 0.05011 0.56093 0.55049 0.0
C91 C 0.03274 0.58787 0.53669 0.0
C92 C 0.05359 0.61742 0.52788 0.0
C93 C 0.09208 0.6201 0.53261 0.0
C94 C 0.11 0.59203 0.54524 0.0
C95 C 0.08908 0.56248 0.55412 0.0
H96 H 0.50635 0.5926 0.86736 0.0
H97 H 0.46659 0.62198 0.89654 0.0
H98 H 0.37 0.5643 0.86918 0.0
H99 H 0.41023 0.53357 0.84037 0.0
H100 H 0.51393 0.51595 0.86697 0.0
H101 H 0.46724 0.61188 0.81435 0.0
H102 H 0.4087 0.64097 0.80102 0.0
H103 H 0.37527 0.53675 0.76976 0.0
H104 H 0.4331 0.50726 0.7836 0.0
H105 H 0.52801 0.43373 0.7829 0.0
H106 H 0.57808 0.39307 0.76749 0.0
H107 H 0.66163 0.46561 0.79747 0.0
H108 H 0.61197 0.50582 0.81293 0.0
H109 H 0.50911 0.51428 0.78184 0.0
H110 H 0.53957 0.41734 0.83195 0.0
H111 H 0.5721 0.37279 0.8568 0.0
H112 H 0.61958 0.46411 0.89565 0.0
H113 H 0.58782 0.50893 0.87042 0.0
C114 C 0.46124 0.56096 0.85169 0.0
C115 C 0.47651 0.58674 0.86735 0.0
C116 C 0.45386 0.60358 0.88392 0.0
C117 C 0.41553 0.59502 0.88508 0.0
C118 C 0.39959 0.57117 0.8685 0.0
C119 C 0.42246 0.55381 0.85206 0.0
C120 C 0.48689 0.53852 0.83707 0.0
C121 C 0.51345 0.51636 0.84835 0.0
C122 C 0.48444 0.53716 0.8128 0.0
C123 C 0.45417 0.55717 0.80037 0.0
C124 C 0.4477 0.59546 0.80422 0.0
C125 C 0.41451 0.61214 0.79652 0.0
C126 C 0.38782 0.59088 0.7845 0.0
C127 C 0.39574 0.55354 0.77891 0.0
C128 C 0.42873 0.53679 0.78679 0.0
C129 C 0.5664 0.47276 0.79896 0.0
C130 C 0.55712 0.44129 0.78563 0.0
C131 C 0.58553 0.41799 0.77708 0.0
C132 C 0.62339 0.42636 0.78154 0.0
C133 C 0.63256 0.45873 0.79395 0.0
C134 C 0.6043 0.48174 0.8026 0.0
C135 C 0.53729 0.49341 0.81194 0.0
C136 C 0.51007 0.51475 0.80044 0.0
C137 C 0.53791 0.49313 0.83615 0.0
C138 C 0.5615 0.46651 0.84923 0.0
C139 C 0.55799 0.42789 0.84528 0.0
C140 C 0.57638 0.40246 0.85947 0.0
C141 C 0.59817 0.41534 0.87791 0.0
C142 C 0.60303 0.45384 0.88134 0.0
C143 C 0.58478 0.47929 0.86708 0.0
H144 H 0.51044 0.92876 0.03783 0.0
H145 H 0.48099 0.87026 0.0251 0.0
H146 H 0.37234 0.91346 0.04417 0.0
H147 H 0.40161 0.97255 0.05622 0.0
H148 H 0.50284 0.0091 0.03105 0.0
H149 H 0.49005 0.91844 0.10093 0.0
H150 H 0.45283 0.88152 0.12821 0.0
H151 H 0.36521 0.96469 0.12612 0.0
H152 H 0.40282 0.00197 0.09946 0.0
H153 H 0.50192 0.08257 0.12297 0.0
H154 H 0.5456 0.11059 0.15069 0.0
H155 H 0.6392 0.0746 0.10929 0.0
H156 H 0.59597 0.04451 0.08233 0.0
H157 H 0.49354 0.01402 0.11601 0.0
H158 H 0.51117 0.11218 0.06396 0.0
H159 H 0.55069 0.16069 0.04705 0.0
H160 H 0.62014 0.07596 0.01567 0.0
H161 H 0.58007 0.02705 0.0324 0.0
C162 C 0.45825 0.95472 0.04827 0.0
C163 C 0.48015 0.92625 0.03845 0.0
C164 C 0.46341 0.89289 0.03127 0.0
C165 C 0.42462 0.88766 0.03387 0.0
C166 C 0.40231 0.91715 0.04203 0.0
C167 C 0.41902 0.95067 0.04898 0.0
C168 C 0.47698 0.98533 0.06106 0.0
C169 C 0.50073 0.01037 0.0496 0.0
C170 C 0.47354 0.98788 0.08514 0.0
C171 C 0.44903 0.96279 0.09834 0.0
C172 C 0.46251 0.92825 0.10604 0.0
C173 C 0.44131 0.90722 0.12146 0.0
C174 C 0.40641 0.92052 0.12913 0.0
C175 C 0.39202 0.954 0.12028 0.0
C176 C 0.41344 0.97524 0.1052 0.0
C177 C 0.54547 0.06133 0.10046 0.0
C178 C 0.53179 0.0811 0.11963 0.0
C179 C 0.55663 0.09731 0.13536 0.0
C180 C 0.5955 0.09442 0.13202 0.0
C181 C 0.60924 0.07719 0.11205 0.0
C182 C 0.58445 0.06026 0.09658 0.0
C183 C 0.51963 0.03812 0.0862 0.0
C184 C 0.49503 0.01382 0.09741 0.0
C185 C 0.52127 0.03743 0.06193 0.0
C186 C 0.54282 0.06611 0.04945 0.0
C187 C 0.53458 0.104 0.05319 0.0
C188 C 0.5571 0.13159 0.04364 0.0
C189 C 0.5883 0.12175 0.03029 0.0
C190 C 0.59612 0.08391 0.02598 0.0
C191 C 0.57321 0.05617 0.03535 0.0
H192 H 0.01894 0.6086 0.90988 0.0
H193 H 0.05363 0.64815 0.88303 0.0
H194 H 0.12845 0.5565 0.86798 0.0
H195 H 0.094 0.51699 0.89524 0.0
H196 H 0.00505 0.51359 0.88639 0.0
H197 H 0.03085 0.60809 0.9523 0.0
H198 H 0.085 0.64323 0.96738 0.0
H199 H 0.14641 0.54025 0.97524 0.0
H200 H 0.0927 0.50524 0.95962 0.0
H201 H 0.97437 0.42923 0.96685 0.0
H202 H 0.91822 0.39553 0.98031 0.0
H203 H 0.84785 0.48345 0.95382 0.0
H204 H 0.90347 0.51628 0.93985 0.0
H205 H 0.00097 0.51222 0.97155 0.0
H206 H 0.95999 0.41692 0.91969 0.0
H207 H 0.92419 0.37834 0.89258 0.0
H208 H 0.90253 0.47545 0.85121 0.0
H209 H 0.93569 0.51459 0.87914 0.0
C210 C 0.05428 0.56013 0.90466 0.0
C211 C 0.04364 0.59745 0.90145 0.0
C212 C 0.06332 0.61994 0.88616 0.0
C213 C 0.09351 0.60514 0.87364 0.0
C214 C 0.10537 0.56836 0.87768 0.0
C215 C 0.08575 0.54589 0.89311 0.0
C216 C 0.02924 0.53501 0.9175 0.0
C217 C 0.00381 0.51326 0.90499 0.0
C218 C 0.029 0.53388 0.94166 0.0
C219 C 0.05796 0.55416 0.95488 0.0
C220 C 0.05574 0.59307 0.95765 0.0
C221 C 0.0865 0.61306 0.96617 0.0
C222 C 0.11953 0.5942 0.97229 0.0
C223 C 0.12103 0.55513 0.97062 0.0
C224 C 0.09043 0.53522 0.96188 0.0
C225 C 0.94283 0.47502 0.95228 0.0
C226 C 0.94687 0.44157 0.96449 0.0
C227 C 0.91499 0.4224 0.9721 0.0
C228 C 0.87904 0.43713 0.96803 0.0
C229 C 0.87539 0.47178 0.95716 0.0
C230 C 0.90702 0.49048 0.94923 0.0
C231 C 0.97496 0.49204 0.94031 0.0
C232 C 0.0019 0.51226 0.95295 0.0
C233 C 0.97657 0.49163 0.91603 0.0
C234 C 0.9506 0.46885 0.90158 0.0
C235 C 0.94619 0.43032 0.90539 0.0
C236 C 0.92607 0.40817 0.88979 0.0
C237 C 0.91138 0.42396 0.86969 0.0
C238 C 0.91396 0.46267 0.86652 0.0
C239 C 0.93313 0.48494 0.88239 0.0
H240 H 0.51566 0.58167 0.21527 0.0
H241 H 0.48345 0.63822 0.22882 0.0
H242 H 0.37649 0.58796 0.21301 0.0
H243 H 0.40866 0.53077 0.20021 0.0
H244 H 0.51209 0.49852 0.22157 0.0
H245 H 0.49508 0.5918 0.15077 0.0
H246 H 0.45505 0.62713 0.1241 0.0
H247 H 0.36749 0.54506 0.13185 0.0
H248 H 0.40783 0.50934 0.15793 0.0
H249 H 0.53043 0.398 0.16305 0.0
H250 H 0.56243 0.35983 0.13367 0.0
H251 H 0.60696 0.45987 0.1032 0.0
H252 H 0.57597 0.4978 0.13267 0.0
H253 H 0.49962 0.49964 0.13673 0.0
H254 H 0.50981 0.41953 0.21905 0.0
H255 H 0.54768 0.36669 0.23244 0.0
H256 H 0.64497 0.41215 0.19874 0.0
H257 H 0.60717 0.46539 0.18546 0.0
C258 C 0.46454 0.55231 0.20646 0.0
C259 C 0.48526 0.58217 0.21564 0.0
C260 C 0.46693 0.61441 0.22329 0.0
C261 C 0.42771 0.61716 0.22175 0.0
C262 C 0.40677 0.58619 0.21437 0.0
C263 C 0.42512 0.55374 0.20698 0.0
C264 C 0.48411 0.52355 0.19261 0.0
C265 C 0.50924 0.4985 0.20304 0.0
C266 C 0.48041 0.52334 0.16851 0.0
C267 C 0.45418 0.5482 0.1563 0.0
C268 C 0.46691 0.58201 0.14713 0.0
C269 C 0.44413 0.60213 0.13204 0.0
C270 C 0.40845 0.58858 0.12607 0.0
C271 C 0.39487 0.55599 0.13642 0.0
C272 C 0.41781 0.53567 0.15123 0.0
C273 C 0.55081 0.45076 0.14999 0.0
C274 C 0.54787 0.4116 0.1504 0.0
C275 C 0.56599 0.38987 0.13368 0.0
C276 C 0.58669 0.40721 0.11623 0.0
C277 C 0.59101 0.44609 0.11651 0.0
C278 C 0.57324 0.46768 0.13324 0.0
C279 C 0.52802 0.47471 0.16547 0.0
C280 C 0.50248 0.49929 0.15528 0.0
C281 C 0.53104 0.47374 0.18968 0.0
C282 C 0.55562 0.44615 0.20111 0.0
C283 C 0.5395 0.41873 0.21507 0.0
C284 C 0.561 0.38858 0.22262 0.0
C285 C 0.59893 0.38564 0.21645 0.0
C286 C 0.61572 0.41414 0.20366 0.0
C287 C 0.59419 0.44435 0.1961 0.0
H288 H 0.50807 0.92097 0.38474 0.0
H289 H 0.46874 0.88827 0.35664 0.0
H290 H 0.37011 0.94061 0.38519 0.0
H291 H 0.40963 0.97499 0.41262 0.0
H292 H 0.51371 0.99595 0.38423 0.0
H293 H 0.48073 0.90354 0.44702 0.0
H294 H 0.42733 0.86953 0.46367 0.0
H295 H 0.36921 0.97401 0.47436 0.0
H296 H 0.42317 0.0079 0.45889 0.0
H297 H 0.52806 0.0832 0.46724 0.0
H298 H 0.57899 0.12027 0.485 0.0
H299 H 0.6607 0.04402 0.45663 0.0
H300 H 0.61034 0.00759 0.43874 0.0
H301 H 0.50831 0.00335 0.46924 0.0
H302 H 0.53881 0.09716 0.41632 0.0
H303 H 0.57062 0.13938 0.38964 0.0
H304 H 0.62003 0.04472 0.35497 0.0
H305 H 0.58831 0.00234 0.38164 0.0
C306 C 0.46189 0.95041 0.40086 0.0
C307 C 0.47793 0.92498 0.38526 0.0
C308 C 0.45552 0.90621 0.36931 0.0
C309 C 0.41667 0.91235 0.36876 0.0
C310 C 0.4001 0.93558 0.38541 0.0
C311 C 0.42266 0.95496 0.40116 0.0
C312 C 0.48684 0.9751 0.41462 0.0
C313 C 0.51305 0.99693 0.40284 0.0
C314 C 0.48446 0.9783 0.43877 0.0
C315 C 0.45553 0.95807 0.45169 0.0
C316 C 0.45684 0.91904 0.45353 0.0
C317 C 0.42649 0.89974 0.46291 0.0
C318 C 0.39416 0.9193 0.46979 0.0
C319 C 0.39381 0.95847 0.46898 0.0
C320 C 0.42452 0.97776 0.46024 0.0
C321 C 0.56566 0.0429 0.45164 0.0
C322 C 0.55693 0.07426 0.46522 0.0
C323 C 0.58579 0.0953 0.47528 0.0
C324 C 0.62336 0.0846 0.47211 0.0
C325 C 0.6318 0.05245 0.45931 0.0
C326 C 0.60318 0.0318 0.4491 0.0
C327 C 0.53633 0.02262 0.43876 0.0
C328 C 0.50936 0.00186 0.45065 0.0
C329 C 0.53729 0.02117 0.41457 0.0
C330 C 0.56125 0.04659 0.40097 0.0
C331 C 0.55738 0.08549 0.40344 0.0
C332 C 0.57541 0.10957 0.38824 0.0
C333 C 0.59763 0.09501 0.37048 0.0
C334 C 0.60316 0.05631 0.36873 0.0
C335 C 0.58497 0.03223 0.38383 0.0
H336 H 0.0125 0.0842 0.71873 0.0
H337 H 0.98097 0.14087 0.73265 0.0
H338 H 0.87763 0.10441 0.70117 0.0
H339 H 0.9088 0.0471 0.68773 0.0
H340 H 0.00775 0.00782 0.71978 0.0
H341 H 0.98839 0.10722 0.66167 0.0
H342 H 0.95633 0.14713 0.63342 0.0
H343 H 0.89758 0.05081 0.60689 0.0
H344 H 0.92859 0.01133 0.63536 0.0
H345 H 0.03093 0.90422 0.66381 0.0
H346 H 0.06495 0.86442 0.63615 0.0
H347 H 0.11627 0.96231 0.60705 0.0
H348 H 0.08325 0.00182 0.63484 0.0
H349 H 0.00644 0.00487 0.63466 0.0
H350 H 0.00543 0.92554 0.71663 0.0
H351 H 0.04248 0.8732 0.73169 0.0
H352 H 0.14359 0.92321 0.70542 0.0
H353 H 0.10655 0.9756 0.69025 0.0
C354 C 0.96318 0.06172 0.70186 0.0
C355 C 0.98273 0.08763 0.71554 0.0
C356 C 0.9648 0.11996 0.72345 0.0
C357 C 0.92712 0.12673 0.71781 0.0
C358 C 0.9067 0.0995 0.70573 0.0
C359 C 0.92455 0.06699 0.69798 0.0
C360 C 0.98438 0.0325 0.68915 0.0
C361 C 0.00733 0.00716 0.70118 0.0
C362 C 0.98374 0.03107 0.66487 0.0
C363 C 0.96069 0.05639 0.65062 0.0
C364 C 0.96775 0.09498 0.65022 0.0
C365 C 0.94964 0.11765 0.63412 0.0
C366 C 0.92496 0.10171 0.618 0.0
C367 C 0.91661 0.06352 0.61917 0.0
C368 C 0.93433 0.04104 0.63534 0.0
C369 C 0.05452 0.95598 0.65129 0.0
C370 C 0.05033 0.91697 0.65191 0.0
C371 C 0.0696 0.89431 0.63616 0.0
C372 C 0.0927 0.91062 0.61948 0.0
C373 C 0.09845 0.94932 0.61976 0.0
C374 C 0.07954 0.97181 0.63553 0.0
C375 C 0.03016 0.98098 0.66513 0.0
C376 C 0.00661 0.00545 0.65329 0.0
C377 C 0.03016 0.9813 0.68937 0.0
C378 C 0.05327 0.95428 0.70229 0.0
C379 C 0.03567 0.92579 0.71468 0.0
C380 C 0.0567 0.89593 0.72314 0.0
C381 C 0.09559 0.89445 0.71951 0.0
C382 C 0.11359 0.92405 0.70837 0.0
C383 C 0.09251 0.95383 0.69979 0.0
Co384 Co 0.31885 0.67337 0.01158 0.0
O385 O 0.28423 0.63301 0.00645 0.0
O386 O 0.27189 0.69285 -2e-05 0.0
C387 C 0.33785 0.65348 0.04645 0.0
O388 O 0.34692 0.72274 0.01579 0.0
Co389 Co 0.40435 0.65812 0.0172 0.0
O390 O 0.40747 0.7119 0.02494 0.0
C391 C 0.36781 0.64908 0.97212 0.0
C392 C 0.26066 0.65829 -0.00026 0.0
C393 C 0.37993 0.73397 0.02173 0.0
O394 O 0.33854 0.66658 0.97935 0.0
O395 O 0.39518 0.63969 0.98511 0.0
O396 O 0.30709 0.67274 0.04443 0.0
O397 O 0.35435 0.64509 0.0274 0.0
Co398 Co 0.31937 0.83153 0.24305 0.0
O399 O 0.28596 0.87296 0.24776 0.0
O400 O 0.27155 0.8137 0.25436 0.0
C401 C 0.33916 0.85105 0.20827 0.0
O402 O 0.34623 0.78135 0.23916 0.0
Co403 Co 0.40527 0.84464 0.23794 0.0
O404 O 0.40704 0.79085 0.23016 0.0
C405 C 0.36839 0.8547 0.28278 0.0
C406 C 0.26141 0.84863 0.25436 0.0
C407 C 0.37908 0.7694 0.23338 0.0
O408 O 0.33878 0.83794 0.2754 0.0
O409 O 0.39614 0.86335 0.26996 0.0
O410 O 0.30803 0.8324 0.21012 0.0
O411 O 0.35573 0.85882 0.22742 0.0
Co412 Co 0.17882 0.81593 0.49486 0.0
O413 O 0.13545 0.7844 0.4977 0.0
O414 O 0.194 0.76769 0.50605 0.0
C415 C 0.16387 0.8383 0.45994 0.0
O416 O 0.23074 0.8393 0.49347 0.0
Co417 Co 0.17177 0.90187 0.49099 0.0
O418 O 0.22637 0.90022 0.48468 0.0
C419 C 0.15519 0.86454 0.53461 0.0
C420 C 0.15861 0.75908 0.50497 0.0
C421 C 0.24553 0.87076 0.48819 0.0
O422 O 0.17073 0.83438 0.52723 0.0
O423 O 0.14953 0.89323 0.5221 0.0
O424 O 0.18076 0.80623 0.46175 0.0
O425 O 0.15443 0.8543 0.47896 0.0
Co426 Co 0.17399 0.69621 0.75875 0.0
O427 O 0.13378 0.73092 0.75343 0.0
O428 O 0.19414 0.74263 0.74724 0.0
C429 C 0.15373 0.67751 0.7935 0.0
O430 O 0.22317 0.66769 0.76322 0.0
Co431 Co 0.1569 0.61134 0.7636 0.0
O432 O 0.21102 0.60718 0.77082 0.0
C433 C 0.14863 0.64838 0.71906 0.0
C434 C 0.15947 0.75408 0.74682 0.0
C435 C 0.23373 0.63437 0.76853 0.0
O436 O 0.16768 0.67647 0.72645 0.0
O437 O 0.13793 0.62154 0.73185 0.0
O438 O 0.17297 0.70817 0.79161 0.0
O439 O 0.14509 0.66129 0.77438 0.0
Co440 Co 0.83423 0.19574 0.4943 0.0
O441 O 0.87713 0.22827 0.49561 0.0
O442 O 0.81933 0.24367 0.5065 0.0
C443 C 0.84549 0.17393 0.45848 0.0
O444 O 0.78287 0.17103 0.49466 0.0
Co445 Co 0.84373 0.11011 0.49003 0.0
O446 O 0.78821 0.10902 0.48896 0.0
C447 C 0.86307 0.14798 0.5331 0.0
C448 C 0.85429 0.25308 0.50397 0.0
C449 C 0.76857 0.13843 0.49163 0.0
O450 O 0.84618 0.17761 0.52623 0.0
O451 O 0.86868 0.11938 0.52034 0.0
O452 O 0.8282 0.20557 0.46147 0.0
O453 O 0.85747 0.15796 0.47692 0.0
Co454 Co 0.81809 0.33857 0.74396 0.0
O455 O 0.78336 0.37861 0.74937 0.0
O456 O 0.7713 0.31874 0.75568 0.0
C457 C 0.83593 0.35885 0.709 0.0
O458 O 0.84676 0.28963 0.73918 0.0
Co459 Co 0.90311 0.35589 0.73791 0.0
O460 O 0.90712 0.30208 0.73039 0.0
C461 C 0.86805 0.36177 0.78357 0.0
C462 C 0.75981 0.35326 0.75586 0.0
C463 C 0.88009 0.27931 0.73328 0.0
O464 O 0.83866 0.34457 0.77617 0.0
O465 O 0.89503 0.37188 0.77053 0.0
O466 O 0.80542 0.33938 0.71123 0.0
O467 O 0.85269 0.36751 0.72794 0.0
Co468 Co 0.67258 0.31524 0.99012 0.0
O469 O 0.63292 0.27958 0.99363 0.0
O470 O 0.69284 0.26899 0.00191 0.0
C471 C 0.65495 0.33396 0.95476 0.0
O472 O 0.72134 0.34497 0.98767 0.0
Co473 Co 0.65384 0.39962 0.98506 0.0
O474 O 0.70819 0.40489 0.97894 0.0
C475 C 0.64402 0.36247 0.02951 0.0
C476 C 0.65846 0.25679 0.001 0.0
C477 C 0.73137 0.37841 0.98242 0.0
O478 O 0.66291 0.33411 0.02233 0.0
O479 O 0.63417 0.3896 0.01665 0.0
O480 O 0.67492 0.30388 0.95724 0.0
O481 O 0.64407 0.34965 0.97362 0.0
Co482 Co 0.67683 0.18682 0.25636 0.0
O483 O 0.63583 0.21961 0.2491 0.0
O484 O 0.69597 0.23305 0.24393 0.0
C485 C 0.65497 0.1705 0.29126 0.0
O486 O 0.72666 0.16063 0.26297 0.0
Co487 Co 0.66219 0.10223 0.26381 0.0
O488 O 0.71607 0.10038 0.27195 0.0
C489 C 0.663 0.13228 0.21677 0.0
C490 C 0.661 0.24342 0.24261 0.0
C491 C 0.73804 0.12805 0.26924 0.0
O492 O 0.67465 0.16396 0.22449 0.0
O493 O 0.65253 0.10593 0.23006 0.0
O494 O 0.67317 0.20162 0.28872 0.0
O495 O 0.64783 0.15239 0.27254 0.0
C496 C 0.17675 0.87574 0.29056 0.0
C497 C 0.15769 0.899 0.2747 0.0
C498 C 0.20087 0.87929 0.24431 0.0
C499 C 0.22329 0.86101 0.26094 0.0
N500 N 0.23439 0.84328 0.30023 0.0
N501 N 0.1524 0.92518 0.2368 0.0
C502 C 0.21148 0.85907 0.28413 0.0
C503 C 0.16965 0.90105 0.25156 0.0
N504 N 0.16147 0.86956 0.31171 0.0
N505 N 0.20925 0.87535 0.22154 0.0
H506 H 0.1291 0.94122 0.24137 0.0
H507 H 0.16266 0.93126 0.22053 0.0
H508 H 0.23173 0.85918 0.21571 0.0
H509 H 0.19201 0.88498 0.2084 0.0
H510 H 0.1721 0.85022 0.32331 0.0
H511 H 0.13608 0.88143 0.31691 0.0
H512 H 0.2295 0.84505 0.31781 0.0
H513 H 0.25979 0.83039 0.29614 0.0
C514 C 0.11079 0.68573 0.54138 0.0
C515 C 0.1125 0.65448 0.52634 0.0
C516 C 0.14983 0.69037 0.49895 0.0
C517 C 0.14468 0.72261 0.51288 0.0
N518 N 0.11865 0.75245 0.54654 0.0
N519 N 0.13106 0.62653 0.49043 0.0
C520 C 0.12478 0.72068 0.53392 0.0
C521 C 0.13158 0.65654 0.50506 0.0
N522 N 0.09641 0.6817 0.56299 0.0
N523 N 0.17213 0.69221 0.4799 0.0
H524 H 0.11889 0.60101 0.49472 0.0
H525 H 0.14067 0.62733 0.47359 0.0
H526 H 0.18468 0.71689 0.47442 0.0
H527 H 0.18026 0.66897 0.47031 0.0
H528 H 0.09812 0.70215 0.57572 0.0
H529 H 0.0852 0.65667 0.56894 0.0
H530 H 0.10029 0.75394 0.56039 0.0
H531 H 0.13038 0.77818 0.54244 0.0
C532 C 0.32192 0.59956 0.79821 0.0
C533 C 0.34929 0.60557 0.78096 0.0
C534 C 0.3012 0.63165 0.75548 0.0
C535 C 0.27404 0.62693 0.77308 0.0
N536 N 0.25958 0.61273 0.81253 0.0
N537 N 0.36721 0.63278 0.74497 0.0
C538 C 0.28476 0.61275 0.79485 0.0
C539 C 0.33961 0.62347 0.76016 0.0
N540 N 0.33119 0.58008 0.81754 0.0
N541 N 0.29 0.64182 0.73395 0.0
H542 H 0.39543 0.62636 0.74773 0.0
H543 H 0.36267 0.64933 0.73061 0.0
H544 H 0.26214 0.64759 0.72974 0.0
H545 H 0.30771 0.64172 0.71976 0.0
H546 H 0.31158 0.57049 0.82934 0.0
H547 H 0.3584 0.57117 0.82116 0.0
H548 H 0.26681 0.6073 0.8295 0.0
H549 H 0.23175 0.62105 0.81065 0.0
C550 C 0.41088 0.82469 0.05009 0.0
C551 C 0.40864 0.84963 0.0313 0.0
C552 C 0.38494 0.79941 0.00643 0.0
C553 C 0.3868 0.77446 0.02528 0.0
N554 N 0.39531 0.76416 0.0658 0.0
N555 N 0.38741 0.86355 0.99309 0.0
C556 C 0.3979 0.78742 0.04735 0.0
C557 C 0.39357 0.83786 0.00994 0.0
N558 N 0.42651 0.83642 0.07037 0.0
N559 N 0.37711 0.78594 0.98494 0.0
H560 H 0.3943 0.89172 0.995 0.0
H561 H 0.37288 0.85772 0.97798 0.0
H562 H 0.37068 0.75803 0.98165 0.0
H563 H 0.37954 0.8017 0.97008 0.0
H564 H 0.43341 0.81864 0.08379 0.0
H565 H 0.43454 0.86398 0.0735 0.0
H566 H 0.39847 0.77287 0.08276 0.0
H567 H 0.38728 0.73631 0.0643 0.0
C568 C 0.18077 0.62425 0.96211 0.0
C569 C 0.15364 0.61532 0.97905 0.0
C570 C 0.19525 0.63876 0.0094 0.0
C571 C 0.22239 0.64758 0.99248 0.0
N572 N 0.23948 0.6552 0.95283 0.0
N573 N 0.13133 0.61977 0.01795 0.0
C574 C 0.21456 0.6425 0.96882 0.0
C575 C 0.15972 0.62447 0.00246 0.0
N576 N 0.17466 0.61409 0.93974 0.0
N577 N 0.20398 0.64307 0.03213 0.0
H578 H 0.1053 0.60852 0.01349 0.0
H579 H 0.13239 0.62934 0.03483 0.0
H580 H 0.22893 0.65531 0.03777 0.0
H581 H 0.18749 0.63306 0.04546 0.0
H582 H 0.19495 0.61557 0.92696 0.0
H583 H 0.14958 0.60218 0.93401 0.0
H584 H 0.23409 0.6557 0.93529 0.0
H585 H 0.26484 0.66793 0.95724 0.0
C586 C 0.39485 0.66595 0.24559 0.0
C587 C 0.40964 0.65432 0.22415 0.0
C588 C 0.39576 0.71571 0.20776 0.0
C589 C 0.38536 0.72881 0.2299 0.0
N590 N 0.37687 0.71772 0.27035 0.0
N591 N 0.42491 0.66719 0.18467 0.0
C592 C 0.38481 0.70414 0.24892 0.0
C593 C 0.4099 0.67885 0.20511 0.0
N594 N 0.39041 0.6404 0.2627 0.0
N595 N 0.39152 0.73853 0.18922 0.0
H596 H 0.43359 0.63979 0.18158 0.0
H597 H 0.43055 0.68489 0.17101 0.0
H598 H 0.38246 0.76608 0.1907 0.0
H599 H 0.39426 0.72965 0.17226 0.0
H600 H 0.37634 0.64597 0.27798 0.0
H601 H 0.39835 0.61248 0.26088 0.0
H602 H 0.38024 0.70239 0.28532 0.0
H603 H 0.36907 0.74536 0.27344 0.0
C604 C 0.34446 0.90534 0.49885 0.0
C605 C 0.35952 0.8993 0.4766 0.0
C606 C 0.30529 0.86048 0.46684 0.0
C607 C 0.28679 0.87383 0.4867 0.0
N608 N 0.28862 0.90741 0.52261 0.0
N609 N 0.35177 0.87442 0.4381 0.0
C610 C 0.3065 0.89556 0.50316 0.0
C611 C 0.33962 0.87722 0.46029 0.0
N612 N 0.36663 0.92006 0.51579 0.0
N613 N 0.29015 0.83199 0.45424 0.0
H614 H 0.37586 0.88755 0.43205 0.0
H615 H 0.3359 0.86196 0.42512 0.0
H616 H 0.26568 0.81826 0.45915 0.0
H617 H 0.30411 0.81929 0.44055 0.0
H618 H 0.35828 0.92229 0.53285 0.0
H619 H 0.3948 0.92676 0.51313 0.0
H620 H 0.29993 0.92698 0.53396 0.0
H621 H 0.26158 0.89868 0.52689 0.0
C622 C 0.11828 0.83032 0.70943 0.0
C623 C 0.11669 0.86016 0.72554 0.0
C624 C 0.15146 0.82269 0.75357 0.0
C625 C 0.14886 0.79153 0.73851 0.0
N626 N 0.12903 0.76429 0.70256 0.0
N627 N 0.13006 0.8854 0.76306 0.0
C628 C 0.1323 0.79503 0.71647 0.0
C629 C 0.13317 0.85667 0.7476 0.0
N630 N 0.10676 0.83596 0.68731 0.0
N631 N 0.17136 0.81965 0.77355 0.0
H632 H 0.11791 0.91103 0.75895 0.0
H633 H 0.13757 0.88337 0.78026 0.0
H634 H 0.18433 0.7949 0.77861 0.0
H635 H 0.17745 0.84212 0.78433 0.0
H636 H 0.11084 0.81675 0.67407 0.0
H637 H 0.09557 0.8612 0.68166 0.0
H638 H 0.11299 0.76361 0.68762 0.0
H639 H 0.141 0.73854 0.70653 0.0
C640 C 0.66619 0.40139 0.75084 0.0
C641 C 0.65401 0.40102 0.77398 0.0
C642 C 0.70874 0.36341 0.78492 0.0
C643 C 0.72094 0.36401 0.76179 0.0
N644 N 0.70702 0.37438 0.7219 0.0
N645 N 0.65794 0.3746 0.81184 0.0
C646 C 0.69816 0.38002 0.74447 0.0
C647 C 0.67344 0.37956 0.79063 0.0
N648 N 0.64846 0.42368 0.73524 0.0
N649 N 0.73174 0.34931 0.80155 0.0
H650 H 0.63209 0.3861 0.8165 0.0
H651 H 0.66892 0.35652 0.82407 0.0
H652 H 0.75738 0.33653 0.79789 0.0
H653 H 0.72655 0.35225 0.81905 0.0
H654 H 0.65879 0.42864 0.71883 0.0
H655 H 0.62463 0.43939 0.73915 0.0
H656 H 0.68969 0.38229 0.70837 0.0
H657 H 0.73006 0.35841 0.71674 0.0
C658 C 0.63617 0.17182 0.03705 0.0
C659 C 0.61298 0.15168 0.02146 0.0
C660 C 0.62952 0.19546 0.99096 0.0
C661 C 0.64799 0.21832 0.00743 0.0
N662 N 0.67082 0.22751 0.04619 0.0
N663 N 0.58559 0.14503 0.98378 0.0
C664 C 0.65232 0.20606 0.03035 0.0
C665 C 0.60957 0.16334 0.99833 0.0
N666 N 0.6425 0.15953 0.0588 0.0
N667 N 0.63187 0.20416 0.96819 0.0
H668 H 0.57094 0.12104 0.9884 0.0
H669 H 0.57827 0.15488 0.96761 0.0
H670 H 0.64694 0.22713 0.96227 0.0
H671 H 0.62215 0.18682 0.95507 0.0
H672 H 0.63226 0.13436 0.06522 0.0
H673 H 0.63226 0.13436 0.06522 0.0
H674 H 0.67396 0.21938 0.06326 0.0
H675 H 0.68251 0.25343 0.04243 0.0
C676 C 0.84435 0.11976 0.26148 0.0
C677 C 0.854 0.10124 0.28209 0.0
C678 C 0.78923 0.10739 0.29573 0.0
C679 C 0.77852 0.12184 0.27404 0.0
N680 N 0.79486 0.13727 0.23502 0.0
N681 N 0.83529 0.07367 0.31797 0.0
C682 C 0.80586 0.12727 0.25661 0.0
C683 C 0.82637 0.09421 0.29903 0.0
N684 N 0.87201 0.13012 0.24661 0.0
N685 N 0.76404 0.107 0.3134 0.0
H686 H 0.86237 0.06429 0.3214 0.0
H687 H 0.81547 0.06349 0.32945 0.0
H688 H 0.73624 0.11542 0.31157 0.0
H689 H 0.77135 0.1013 0.33033 0.0
H690 H 0.86735 0.14717 0.23248 0.0
H691 H 0.90031 0.1241 0.24945 0.0
H692 H 0.8129 0.13763 0.22099 0.0
H693 H 0.76696 0.14223 0.23055 0.0
C694 C 0.88733 0.35357 0.50082 0.0
C695 C 0.90063 0.35894 0.52355 0.0
C696 C 0.8826 0.29513 0.53359 0.0
C697 C 0.86813 0.29015 0.5111 0.0
N698 N 0.85078 0.31545 0.47438 0.0
N699 N 0.9044 0.33842 0.56284 0.0
C700 C 0.86858 0.31972 0.49504 0.0
C701 C 0.89625 0.33076 0.54034 0.0
N702 N 0.89389 0.38024 0.48463 0.0
N703 N 0.88434 0.2655 0.54825 0.0
H704 H 0.91455 0.36424 0.56845 0.0
H705 H 0.89817 0.32041 0.57625 0.0
H706 H 0.8734 0.23928 0.54423 0.0
H707 H 0.8988 0.26608 0.56379 0.0
H708 H 0.88869 0.37642 0.4672 0.0
H709 H 0.90687 0.40565 0.48842 0.0
H710 H 0.84672 0.33711 0.46281 0.0
H711 H 0.83749 0.2907 0.46946 0.0
C712 C 0.67258 0.13235 0.46453 0.0
C713 C 0.65483 0.10812 0.48031 0.0
C714 C 0.70819 0.11305 0.50663 0.0
C715 C 0.72738 0.13445 0.48993 0.0
N716 N 0.72568 0.17212 0.45571 0.0
N717 N 0.65035 0.08225 0.51814 0.0
C718 C 0.70864 0.14698 0.46986 0.0
C719 C 0.67086 0.10098 0.50209 0.0
N720 N 0.65569 0.13944 0.44389 0.0
N721 N 0.72637 0.10342 0.52642 0.0
H722 H 0.62302 0.07308 0.51502 0.0
H723 H 0.65902 0.07796 0.53496 0.0
H724 H 0.75285 0.11384 0.5307 0.0
H725 H 0.71594 0.08474 0.53841 0.0
H726 H 0.66874 0.15281 0.43027 0.0
H727 H 0.62849 0.13063 0.43999 0.0
H728 H 0.71236 0.18506 0.442 0.0
H729 H 0.75267 0.18231 0.4585 0.0
C730 C 0.89355 0.17443 0.7422 0.0
C731 C 0.91125 0.1647 0.72123 0.0
C732 C 0.90163 0.22823 0.70694 0.0
C733 C 0.88788 0.23917 0.72884 0.0
N734 N 0.87475 0.22403 0.76833 0.0
N735 N 0.93543 0.1825 0.68423 0.0
C736 C 0.88446 0.21255 0.74671 0.0
C737 C 0.91596 0.1916 0.7037 0.0
N738 N 0.88532 0.14716 0.75769 0.0
N739 N 0.90024 0.25271 0.68904 0.0
H740 H 0.9454 0.15569 0.6808 0.0
H741 H 0.94405 0.20197 0.67214 0.0
H742 H 0.891 0.28015 0.69084 0.0
H743 H 0.90534 0.24513 0.67206 0.0
H744 H 0.86898 0.15165 0.77224 0.0
H745 H 0.89237 0.11917 0.75502 0.0
H746 H 0.87583 0.20679 0.78263 0.0
H747 H 0.86838 0.2517 0.77243 0.0
C748 C 0.8237 0.4018 0.95346 0.0
C749 C 0.84465 0.415 0.97253 0.0
C750 C 0.79493 0.39393 0.99847 0.0
C751 C 0.77165 0.38681 0.97915 0.0
N752 N 0.76228 0.38753 0.93815 0.0
N753 N 0.85026 0.42558 0.01327 0.0
C754 C 0.7857 0.39143 0.95659 0.0
C755 C 0.83057 0.41109 0.99515 0.0
N756 N 0.84032 0.39904 0.93238 0.0
N757 N 0.78271 0.3848 0.01992 0.0
H758 H 0.87656 0.43796 0.01147 0.0
H759 H 0.83961 0.4275 0.02986 0.0
H760 H 0.75638 0.37311 0.02291 0.0
H761 H 0.79965 0.386 0.03448 0.0
H762 H 0.82756 0.38641 0.91823 0.0
H763 H 0.86838 0.40602 0.9296 0.0
H764 H 0.76978 0.39464 0.92147 0.0
H765 H 0.7342 0.38002 0.9398 0.0
C766 C 0.64249 0.34819 0.24138 0.0
C767 C 0.61965 0.3507 0.22151 0.0
C768 C 0.62594 0.28347 0.21466 0.0
C769 C 0.64959 0.28081 0.23426 0.0
N770 N 0.68478 0.311 0.26462 0.0
N771 N 0.59672 0.3234 0.18632 0.0
C772 C 0.65959 0.31339 0.24696 0.0
C773 C 0.61368 0.31912 0.20722 0.0
N774 N 0.64636 0.37869 0.25543 0.0
N775 N 0.61419 0.25185 0.20353 0.0
H776 H 0.58707 0.34911 0.18038 0.0
H777 H 0.59523 0.30231 0.17397 0.0
H778 H 0.62337 0.22519 0.20783 0.0
H779 H 0.59336 0.25165 0.19097 0.0
H780 H 0.65879 0.37788 0.27158 0.0
H781 H 0.63507 0.40477 0.25148 0.0
H782 H 0.69649 0.33415 0.27279 0.0
H783 H 0.69588 0.28583 0.2704 0.0
C784 C 0.15969 0.88658 0.40186 0.0
C785 C 0.12042 0.89235 0.40018 0.0
C786 C 0.11051 0.85362 0.43409 0.0
C787 C 0.14981 0.85285 0.43783 0.0
N788 N 0.21221 0.87048 0.42635 0.0
N789 N 0.05819 0.88485 0.41594 0.0
C790 C 0.17463 0.86944 0.42185 0.0
C791 C 0.09566 0.8765 0.4165 0.0
N792 N 0.18253 0.89722 0.38425 0.0
N793 N 0.08743 0.83195 0.44717 0.0
H794 H 0.04596 0.90153 0.40338 0.0
H795 H 0.03963 0.87773 0.42899 0.0
H796 H 0.09749 0.81446 0.46005 0.0
H797 H 0.05894 0.82841 0.44376 0.0
H798 H 0.21098 0.89065 0.38343 0.0
H799 H 0.17228 0.90986 0.36941 0.0
H800 H 0.23138 0.88581 0.41679 0.0
H801 H 0.22379 0.8579 0.44074 0.0
C802 C 0.08044 0.63868 0.6706 0.0
C803 C 0.10415 0.62442 0.65303 0.0
C804 C 0.15953 0.63509 0.67724 0.0
C805 C 0.13555 0.64772 0.69502 0.0
N806 N 0.07597 0.6733 0.70641 0.0
N807 N 0.16601 0.61861 0.63689 0.0
C808 C 0.09689 0.65363 0.69084 0.0
C809 C 0.14376 0.62602 0.65545 0.0
N810 N 0.04231 0.63545 0.66878 0.0
N811 N 0.19688 0.62999 0.68157 0.0
H812 H 0.15487 0.61214 0.62077 0.0
H813 H 0.19502 0.62208 0.63691 0.0
H814 H 0.20926 0.63759 0.69715 0.0
H815 H 0.21521 0.61682 0.67022 0.0
H816 H 0.02398 0.64112 0.68227 0.0
H817 H 0.02885 0.62457 0.65434 0.0
H818 H 0.04838 0.68161 0.70341 0.0
H819 H 0.08757 0.68457 0.72139 0.0
C820 C 0.3864 0.64706 0.9079 0.0
C821 C 0.3937 0.60831 0.90524 0.0
C822 C 0.3693 0.59716 0.94383 0.0
C823 C 0.36942 0.63612 0.948 0.0
N824 N 0.37729 0.69896 0.93435 0.0
N825 N 0.39456 0.54616 0.92134 0.0
C826 C 0.37703 0.66143 0.93 0.0
C827 C 0.38513 0.58309 0.92321 0.0
N828 N 0.38858 0.66991 0.88926 0.0
N829 N 0.35412 0.57368 0.95971 0.0
H830 H 0.40664 0.53443 0.90671 0.0
H831 H 0.39312 0.52759 0.93499 0.0
H832 H 0.34207 0.58344 0.97493 0.0
H833 H 0.34998 0.54526 0.95676 0.0
H834 H 0.38062 0.69789 0.88954 0.0
H835 H 0.39523 0.65985 0.87291 0.0
H836 H 0.3869 0.71871 0.92273 0.0
H837 H 0.36955 0.71026 0.95018 0.0
C838 C 0.3862 0.92119 0.1701 0.0
C839 C 0.38722 0.90235 0.14867 0.0
C840 C 0.35386 0.84912 0.16547 0.0
C841 C 0.35144 0.8691 0.18663 0.0
N842 N 0.35232 0.92942 0.20549 0.0
N843 N 0.36614 0.85178 0.12445 0.0
C844 C 0.36373 0.90673 0.18787 0.0
C845 C 0.36923 0.86726 0.14587 0.0
N846 N 0.40767 0.95228 0.17385 0.0
N847 N 0.34266 0.81271 0.16417 0.0
H848 H 0.37725 0.86433 0.10985 0.0
H849 H 0.35009 0.82817 0.12083 0.0
H850 H 0.3299 0.79879 0.17768 0.0
H851 H 0.34808 0.79546 0.15011 0.0
H852 H 0.41066 0.96463 0.18999 0.0
H853 H 0.42551 0.96348 0.1615 0.0
H854 H 0.35796 0.95797 0.20605 0.0
H855 H 0.33313 0.9209 0.2179 0.0
C856 C 0.08733 0.62879 0.83363 0.0
C857 C 0.10889 0.62626 0.854 0.0
C858 C 0.16028 0.66061 0.83571 0.0
C859 C 0.13791 0.66408 0.81555 0.0
N860 N 0.0756 0.66372 0.79911 0.0
N861 N 0.16226 0.64582 0.8764 0.0
C862 C 0.10005 0.65181 0.81564 0.0
C863 C 0.14429 0.64416 0.85568 0.0
N864 N 0.05517 0.60831 0.8311 0.0
N865 N 0.19702 0.67151 0.83563 0.0
H866 H 0.15139 0.63358 0.89116 0.0
H867 H 0.18621 0.66175 0.87943 0.0
H868 H 0.20997 0.68372 0.82156 0.0
H869 H 0.21571 0.6658 0.8489 0.0
H870 H 0.04078 0.60608 0.81556 0.0
H871 H 0.04471 0.59079 0.8438 0.0
H872 H 0.04689 0.65826 0.79959 0.0
H873 H 0.08305 0.68299 0.78657 0.0
C874 C 0.38563 0.58507 0.08558 0.0
C875 C 0.38764 0.60518 0.10656 0.0
C876 C 0.35365 0.65753 0.08908 0.0
C877 C 0.3505 0.63645 0.06836 0.0
N878 N 0.3507 0.57527 0.05062 0.0
N879 N 0.36737 0.65698 0.13 0.0
C880 C 0.36263 0.59872 0.06774 0.0
C881 C 0.36967 0.64038 0.10887 0.0
N882 N 0.40676 0.55359 0.08227 0.0
N883 N 0.34271 0.69409 0.08976 0.0
H884 H 0.37894 0.64509 0.1447 0.0
H885 H 0.35145 0.6808 0.13335 0.0
H886 H 0.33009 0.70757 0.07599 0.0
H887 H 0.34848 0.71196 0.10348 0.0
H888 H 0.40912 0.54031 0.06637 0.0
H889 H 0.42484 0.54282 0.09467 0.0
H890 H 0.35618 0.54667 0.05055 0.0
H891 H 0.33134 0.58337 0.03815 0.0
C892 C 0.38372 0.92207 0.33111 0.0
C893 C 0.3947 0.89758 0.34902 0.0
C894 C 0.3798 0.84334 0.32476 0.0
C895 C 0.36989 0.86798 0.30681 0.0
N896 N 0.35055 0.92929 0.29505 0.0
N897 N 0.39405 0.83599 0.3653 0.0
C898 C 0.36772 0.9069 0.31082 0.0
C899 C 0.38953 0.85845 0.34663 0.0
N900 N 0.39107 0.95949 0.33269 0.0
N901 N 0.38168 0.80582 0.32054 0.0
H902 H 0.40093 0.84662 0.38149 0.0
H903 H 0.38779 0.8076 0.36526 0.0
H904 H 0.37351 0.79402 0.3049 0.0
H905 H 0.39289 0.78666 0.33204 0.0
H906 H 0.38779 0.97779 0.31901 0.0
H907 H 0.40326 0.97206 0.34704 0.0
H908 H 0.34489 0.95747 0.29794 0.0
H909 H 0.3385 0.91868 0.28002 0.0
C910 C 0.08442 0.87896 0.58129 0.0
C911 C 0.10814 0.88853 0.60004 0.0
C912 C 0.16384 0.87383 0.57703 0.0
C913 C 0.14005 0.86573 0.55815 0.0
N914 N 0.07884 0.84901 0.544 0.0
N915 N 0.16887 0.88592 0.61804 0.0
C916 C 0.10065 0.86428 0.56095 0.0
C917 C 0.14746 0.88271 0.59866 0.0
N918 N 0.04678 0.88634 0.58228 0.0
N919 N 0.20185 0.87483 0.57396 0.0
H920 H 0.15724 0.89224 0.63403 0.0
H921 H 0.19728 0.8792 0.61871 0.0
H922 H 0.21456 0.86728 0.55849 0.0
H923 H 0.22062 0.88468 0.58628 0.0
H924 H 0.02899 0.88436 0.56813 0.0
H925 H 0.03349 0.89694 0.59684 0.0
H926 H 0.05025 0.84383 0.54587 0.0
H927 H 0.09015 0.83809 0.52887 0.0
C928 C 0.64921 0.37527 0.89462 0.0
C929 C 0.61178 0.3888 0.89545 0.0
C930 C 0.60087 0.35542 0.93128 0.0
C931 C 0.63964 0.34662 0.93236 0.0
N932 N 0.69779 0.33685 0.91187 0.0
N933 N 0.55193 0.39351 0.91466 0.0
C934 C 0.66304 0.35293 0.913 0.0
C935 C 0.58742 0.37892 0.91364 0.0
N936 N 0.67188 0.38541 0.87679 0.0
N937 N 0.57659 0.33941 0.94649 0.0
H938 H 0.54039 0.41005 0.90177 0.0
H939 H 0.5347 0.39142 0.929 0.0
H940 H 0.58528 0.32002 0.9587 0.0
H941 H 0.54752 0.34171 0.94534 0.0
H942 H 0.70062 0.38042 0.87615 0.0
H943 H 0.66209 0.4006 0.86277 0.0
H944 H 0.71487 0.33734 0.89743 0.0
H945 H 0.70908 0.32068 0.92494 0.0
C946 C 0.62873 0.14345 0.15569 0.0
C947 C 0.62154 0.10517 0.15084 0.0
C948 C 0.65959 0.08728 0.18394 0.0
C949 C 0.65962 0.12493 0.19146 0.0
N950 N 0.66436 0.18839 0.17816 0.0
N951 N 0.62951 0.04004 0.16065 0.0
C952 C 0.65017 0.15324 0.17552 0.0
C953 C 0.63756 0.07683 0.16472 0.0
N954 N 0.61405 0.17033 0.14175 0.0
N955 N 0.68196 0.06192 0.19483 0.0
H956 H 0.613 0.03082 0.14697 0.0
H957 H 0.63674 0.01874 0.17192 0.0
H958 H 0.7002 0.06983 0.20805 0.0
H959 H 0.68588 0.03463 0.18902 0.0
H960 H 0.61402 0.19866 0.14588 0.0
H961 H 0.60012 0.16401 0.12645 0.0
H962 H 0.66063 0.2096 0.16624 0.0
H963 H 0.68423 0.19506 0.19063 0.0
C964 C 0.89675 0.16085 0.40167 0.0
C965 C 0.89376 0.12139 0.39965 0.0
C966 C 0.84644 0.12217 0.42988 0.0
C967 C 0.85628 0.15926 0.43556 0.0
N968 N 0.89307 0.21425 0.42723 0.0
N969 N 0.86896 0.06353 0.41486 0.0
C970 C 0.88167 0.17905 0.42137 0.0
C971 C 0.86918 0.10167 0.41442 0.0
N972 N 0.91355 0.18091 0.38469 0.0
N973 N 0.81462 0.10699 0.43874 0.0
H974 H 0.88683 0.04703 0.40494 0.0
H975 H 0.85371 0.04846 0.42692 0.0
H976 H 0.79564 0.12337 0.44792 0.0
H977 H 0.80471 0.08063 0.43406 0.0
H978 H 0.91362 0.21001 0.38437 0.0
H979 H 0.92386 0.16847 0.36973 0.0
H980 H 0.91483 0.22801 0.41886 0.0
H981 H 0.88271 0.22878 0.44141 0.0
C982 C 0.88179 0.42678 0.66881 0.0
C983 C 0.88457 0.40556 0.64828 0.0
C984 C 0.85156 0.35345 0.6665 0.0
C985 C 0.84818 0.37529 0.6869 0.0
N986 N 0.84715 0.43704 0.70381 0.0
N987 N 0.86558 0.35239 0.62564 0.0
C988 C 0.8594 0.41329 0.68694 0.0
C989 C 0.8673 0.36999 0.6465 0.0
N990 N 0.9016 0.45925 0.6714 0.0
N991 N 0.84126 0.31671 0.66638 0.0
H992 H 0.87716 0.36379 0.61082 0.0
H993 H 0.85013 0.3282 0.62258 0.0
H994 H 0.82928 0.30347 0.68042 0.0
H995 H 0.84709 0.2984 0.6529 0.0
H996 H 0.90371 0.47344 0.68701 0.0
H997 H 0.91874 0.47025 0.65863 0.0
H998 H 0.85179 0.46577 0.70348 0.0
H999 H 0.82835 0.42888 0.71653 0.0
C1000 C 0.64653 0.13703 0.35333 0.0
C1001 C 0.61089 0.11959 0.35181 0.0
C1002 C 0.60097 0.14678 0.31391 0.0
C1003 C 0.63909 0.15814 0.31351 0.0
N1004 N 0.69829 0.16632 0.33327 0.0
N1005 N 0.55402 0.1066 0.33064 0.0
C1006 C 0.6618 0.15458 0.33351 0.0
C1007 C 0.58794 0.12434 0.33216 0.0
N1008 N 0.6656 0.13668 0.37371 0.0
N1009 N 0.57678 0.15896 0.2973 0.0
H1010 H 0.5425 0.09122 0.34404 0.0
H1011 H 0.53835 0.10511 0.31556 0.0
H1012 H 0.58491 0.17728 0.28438 0.0
H1013 H 0.5479 0.15456 0.29782 0.0
H1014 H 0.68994 0.15193 0.37685 0.0
H1015 H 0.65543 0.12319 0.38825 0.0
H1016 H 0.71743 0.16097 0.34634 0.0
H1017 H 0.71058 0.1794 0.31928 0.0
C1018 C 0.87112 0.13114 0.59717 0.0
C1019 C 0.91015 0.1235 0.59838 0.0
C1020 C 0.91801 0.14657 0.55924 0.0
C1021 C 0.87855 0.14682 0.5566 0.0
N1022 N 0.81668 0.14036 0.57269 0.0
N1023 N 0.97113 0.12211 0.5802 0.0
C1024 C 0.85475 0.14012 0.5756 0.0
C1025 C 0.93391 0.13143 0.57948 0.0
N1026 N 0.84994 0.12962 0.61666 0.0
N1027 N 0.94017 0.16076 0.54228 0.0
H1028 H 0.98414 0.11086 0.59461 0.0
H1029 H 0.98866 0.12303 0.56593 0.0
H1030 H 0.92902 0.17224 0.52732 0.0
H1031 H 0.96901 0.1646 0.54403 0.0
H1032 H 0.82192 0.13784 0.61742 0.0
H1033 H 0.86151 0.12325 0.63264 0.0
H1034 H 0.79782 0.1314 0.58512 0.0
H1035 H 0.80392 0.14787 0.55727 0.0
C1036 C 0.92123 0.3765 0.83812 0.0
C1037 C 0.89657 0.4002 0.85068 0.0
C1038 C 0.84821 0.39221 0.82102 0.0
C1039 C 0.87317 0.36881 0.8085 0.0
N1040 N 0.92681 0.32793 0.80924 0.0
N1041 N 0.83338 0.42122 0.85771 0.0
C1042 C 0.9074 0.35723 0.81858 0.0
C1043 C 0.85884 0.40477 0.84334 0.0
N1044 N 0.9585 0.3745 0.84362 0.0
N1045 N 0.81566 0.40443 0.81116 0.0
H1046 H 0.84053 0.4303 0.8742 0.0
H1047 H 0.80473 0.42244 0.85418 0.0
H1048 H 0.80679 0.39592 0.79492 0.0
H1049 H 0.7986 0.42489 0.8185 0.0
H1050 H 0.97817 0.36085 0.83335 0.0
H1051 H 0.97063 0.38922 0.8572 0.0
H1052 H 0.95034 0.31615 0.81701 0.0
H1053 H 0.91682 0.3129 0.79508 0.0
C1054 C 0.57647 0.37551 0.07821 0.0
C1055 C 0.60129 0.3858 0.09626 0.0
C1056 C 0.65559 0.37246 0.07171 0.0
C1057 C 0.63065 0.36351 0.05351 0.0
N1058 N 0.5689 0.34502 0.0412 0.0
N1059 N 0.66337 0.38491 0.11251 0.0
C1060 C 0.59153 0.36111 0.05744 0.0
C1061 C 0.6406 0.38103 0.09376 0.0
N1062 N 0.53875 0.3818 0.08029 0.0
N1063 N 0.69326 0.37475 0.06759 0.0
H1064 H 0.65285 0.39109 0.12881 0.0
H1065 H 0.69195 0.37883 0.11239 0.0
H1066 H 0.70508 0.36763 0.0518 0.0
H1067 H 0.71256 0.38536 0.07935 0.0
H1068 H 0.51994 0.37925 0.06668 0.0
H1069 H 0.52635 0.39204 0.09524 0.0
H1070 H 0.5406 0.33923 0.04387 0.0
H1071 H 0.5794 0.33402 0.02587 0.0
loop_
_geom_bond_atom_site_label_1
_geom_bond_atom_site_label_2
_geom_bond_distance
_geom_bond_site_symmetry_2
_ccdc_geom_bond_type
H0 C19 0.949 . S
H1 C20 0.950 . S
H2 C22 0.950 . S
H3 C23 0.950 . S
H4 C25 0.950 . S
H5 C28 0.950 . S
H6 C29 0.950 . S
H7 C31 0.951 . S
H8 C32 0.949 1_565 S
H9 C34 0.949 . S
H10 C35 0.950 . S
H11 C37 0.950 . S
H12 C38 0.950 . S
H13 C40 0.956 . S
H14 C43 0.950 . S
H15 C44 0.950 . S
H16 C46 0.951 . S
H17 C47 0.949 1_545 S
C18 C19 1.376 . S
C18 C23 1.386 . S
C18 C24 1.483 . S
C19 H0 0.949 . S
C19 C18 1.376 . S
C19 C20 1.397 . S
C20 H1 0.950 . S
C20 C19 1.397 . S
C20 C21 1.391 . S
C21 C20 1.391 . S
C21 C22 1.405 . S
C22 H2 0.950 . S
C22 C21 1.405 . S
C22 C23 1.367 . S
C23 H3 0.950 . S
C23 C18 1.386 . S
C23 C22 1.367 . S
C24 C18 1.483 . S
C24 C25 1.382 1_655 S
C24 C26 1.403 . S
C25 H4 0.950 . S
C25 C24 1.382 1_455 S
C25 C41 1.411 1_545 S
C26 C24 1.403 . S
C26 C27 1.489 . S
C26 C40 1.396 1_645 S
C27 C26 1.489 . S
C27 C28 1.383 . S
C27 C32 1.382 . S
C28 H5 0.950 . S
C28 C27 1.383 . S
C28 C29 1.395 . S
C29 H6 0.950 . S
C29 C28 1.395 . S
C29 C30 1.288 . S
C30 C29 1.288 . S
C30 C31 1.392 . S
C31 H7 0.951 . S
C31 C30 1.392 . S
C31 C32 1.392 . S
C32 H8 0.949 1_545 S
C32 C27 1.382 . S
C32 C31 1.392 . S
C33 C34 1.376 . S
C33 C38 1.386 . S
C33 C39 1.483 . S
C34 H9 0.949 . S
C34 C33 1.376 . S
C34 C35 1.397 . S
C35 H10 0.950 . S
C35 C34 1.397 . S
C35 C36 1.391 . S
C36 C35 1.391 . S
C36 C37 1.405 . S
C37 H11 0.950 . S
C37 C36 1.405 . S
C37 C38 1.367 . S
C38 H12 0.950 . S
C38 C33 1.386 . S
C38 C37 1.367 . S
C39 C33 1.483 . S
C39 C40 1.394 . S
C39 C41 1.403 . S
C40 H13 0.956 . S
C40 C26 1.396 1_465 S
C40 C39 1.394 . S
C41 C25 1.411 1_565 S
C41 C39 1.403 . S
C41 C42 1.489 . S
C42 C41 1.489 . S
C42 C43 1.383 . S
C42 C47 1.382 . S
C43 H14 0.950 . S
C43 C42 1.383 . S
C43 C44 1.395 . S
C44 H15 0.950 . S
C44 C43 1.395 . S
C44 C45 1.288 . S
C45 C44 1.288 . S
C45 C46 1.392 . S
C46 H16 0.951 . S
C46 C45 1.392 . S
C46 C47 1.392 . S
C47 H17 0.949 1_565 S
C47 C42 1.382 . S
C47 C46 1.392 . S
H48 C67 0.949 1_455 S
H49 C68 0.950 . S
H50 C70 0.950 . S
H51 C71 0.950 . S
H52 C73 0.950 . S
H53 C76 0.950 . S
H54 C77 0.950 . S
H55 C79 0.951 . S
H56 C80 0.949 . S
H57 C82 0.949 . S
H58 C83 0.950 . S
H59 C85 0.950 . S
H60 C86 0.950 . S
H61 C88 0.947 1_655 S
H62 C91 0.950 . S
H63 C92 0.950 . S
H64 C94 0.951 . S
H65 C95 0.949 . S
C66 C67 1.376 . S
C66 C71 1.386 . S
C66 C72 1.483 . S
C67 H48 0.949 1_655 S
C67 C66 1.376 . S
C67 C68 1.397 . S
C68 H49 0.950 . S
C68 C67 1.397 . S
C68 C69 1.391 . S
C69 C68 1.391 . S
C69 C70 1.405 . S
C70 H50 0.950 . S
C70 C69 1.405 . S
C70 C71 1.367 . S
C71 H51 0.950 . S
C71 C66 1.386 . S
C71 C70 1.367 . S
C72 C66 1.483 . S
C72 C73 1.382 1_655 S
C72 C74 1.403 . S
C73 H52 0.950 . S
C73 C72 1.382 1_455 S
C73 C89 1.411 . S
C74 C72 1.403 . S
C74 C75 1.489 . S
C74 C88 1.397 1_655 S
C75 C74 1.489 . S
C75 C76 1.383 . S
C75 C80 1.382 . S
C76 H53 0.950 . S
C76 C75 1.383 . S
C76 C77 1.395 . S
C77 H54 0.950 . S
C77 C76 1.395 . S
C77 C78 1.288 . S
C78 C77 1.288 . S
C78 C79 1.392 . S
C79 H55 0.951 . S
C79 C78 1.392 . S
C79 C80 1.392 . S
C80 H56 0.949 . S
C80 C75 1.382 . S
C80 C79 1.392 . S
C81 C82 1.376 . S
C81 C86 1.386 . S
C81 C87 1.483 . S
C82 H57 0.949 . S
C82 C81 1.376 . S
C82 C83 1.397 . S
C83 H58 0.950 . S
C83 C82 1.397 . S
C83 C84 1.391 . S
C84 C83 1.391 . S
C84 C85 1.405 . S
C85 H59 0.950 . S
C85 C84 1.405 . S
C85 C86 1.367 . S
C86 H60 0.950 . S
C86 C81 1.386 . S
C86 C85 1.367 . S
C87 C81 1.483 . S
C87 C88 1.399 . S
C87 C89 1.403 . S
C88 H61 0.947 1_455 S
C88 C74 1.397 1_455 S
C88 C87 1.399 . S
C89 C73 1.411 . S
C89 C87 1.403 . S
C89 C90 1.489 . S
C90 C89 1.489 . S
C90 C91 1.383 . S
C90 C95 1.382 . S
C91 H62 0.950 . S
C91 C90 1.383 . S
C91 C92 1.395 . S
C92 H63 0.950 . S
C92 C91 1.395 . S
C92 C93 1.288 . S
C93 C92 1.288 . S
C93 C94 1.392 . S
C94 H64 0.951 . S
C94 C93 1.392 . S
C94 C95 1.392 . S
C95 H65 0.949 . S
C95 C90 1.382 . S
C95 C94 1.392 . S
H96 C115 0.949 . S
H97 C116 0.950 . S
H98 C118 0.950 . S
H99 C119 0.950 . S
H100 C121 0.950 . S
H101 C124 0.950 . S
H102 C125 0.950 . S
H103 C127 0.951 . S
H104 C128 0.949 . S
H105 C130 0.949 . S
H106 C131 0.950 . S
H107 C133 0.950 . S
H108 C134 0.950 . S
H109 C136 0.950 . S
H110 C139 0.950 . S
H111 C140 0.950 . S
H112 C142 0.951 . S
H113 C143 0.949 . S
C114 C115 1.376 . S
C114 C119 1.386 . S
C114 C120 1.483 . S
C115 H96 0.949 . S
C115 C114 1.376 . S
C115 C116 1.397 . S
C116 H97 0.950 . S
C116 C115 1.397 . S
C116 C117 1.391 . S
C117 C116 1.391 . S
C117 C118 1.405 . S
C118 H98 0.950 . S
C118 C117 1.405 . S
C118 C119 1.367 . S
C119 H99 0.950 . S
C119 C114 1.386 . S
C119 C118 1.367 . S
C120 C114 1.483 . S
C120 C121 1.382 . S
C120 C122 1.403 . S
C121 H100 0.950 . S
C121 C120 1.382 . S
C121 C137 1.411 . S
C122 C120 1.403 . S
C122 C123 1.489 . S
C122 C136 1.411 . S
C123 C122 1.489 . S
C123 C124 1.383 . S
C123 C128 1.382 . S
C124 H101 0.950 . S
C124 C123 1.383 . S
C124 C125 1.395 . S
C125 H102 0.950 . S
C125 C124 1.395 . S
C125 C126 1.288 . S
C126 C125 1.288 . S
C126 C127 1.392 . S
C127 H103 0.951 . S
C127 C126 1.392 . S
C127 C128 1.392 . S
C128 H104 0.949 . S
C128 C123 1.382 . S
C128 C127 1.392 . S
C129 C130 1.376 . S
C129 C134 1.386 . S
C129 C135 1.483 . S
C130 H105 0.949 . S
C130 C129 1.376 . S
C130 C131 1.397 . S
C131 H106 0.950 . S
C131 C130 1.397 . S
C131 C132 1.391 . S
C132 C131 1.391 . S
C132 C133 1.405 . S
C133 H107 0.950 . S
C133 C132 1.405 . S
C133 C134 1.367 . S
C134 H108 0.950 . S
C134 C129 1.386 . S
C134 C133 1.367 . S
C135 C129 1.483 . S
C135 C136 1.382 . S
C135 C137 1.403 . S
C136 H109 0.950 . S
C136 C122 1.411 . S
C136 C135 1.382 . S
C137 C121 1.411 . S
C137 C135 1.403 . S
C137 C138 1.489 . S
C138 C137 1.489 . S
C138 C139 1.383 . S
C138 C143 1.382 . S
C139 H110 0.950 . S
C139 C138 1.383 . S
C139 C140 1.395 . S
C140 H111 0.950 . S
C140 C139 1.395 . S
C140 C141 1.288 . S
C141 C140 1.288 . S
C141 C142 1.392 . S
C142 H112 0.951 . S
C142 C141 1.392 . S
C142 C143 1.392 . S
C143 H113 0.949 . S
C143 C138 1.382 . S
C143 C142 1.392 . S
H144 C163 0.949 . S
H145 C164 0.950 . S
H146 C166 0.950 . S
H147 C167 0.950 . S
H148 C169 0.950 . S
H149 C172 0.950 . S
H150 C173 0.950 . S
H151 C175 0.951 . S
H152 C176 0.949 . S
H153 C178 0.949 . S
H154 C179 0.950 . S
H155 C181 0.950 . S
H156 C182 0.950 . S
H157 C184 0.950 . S
H158 C187 0.950 . S
H159 C188 0.950 . S
H160 C190 0.951 . S
H161 C191 0.949 . S
C162 C163 1.376 . S
C162 C167 1.386 . S
C162 C168 1.483 . S
C163 H144 0.949 . S
C163 C162 1.376 . S
C163 C164 1.397 . S
C164 H145 0.950 . S
C164 C163 1.397 . S
C164 C165 1.391 . S
C165 C164 1.391 . S
C165 C166 1.405 . S
C166 H146 0.950 . S
C166 C165 1.405 . S
C166 C167 1.367 . S
C167 H147 0.950 . S
C167 C162 1.386 . S
C167 C166 1.367 . S
C168 C162 1.483 . S
C168 C169 1.382 . S
C168 C170 1.403 . S
C169 H148 0.950 . S
C169 C168 1.382 . S
C169 C185 1.411 1_565 S
C170 C168 1.403 . S
C170 C171 1.489 . S
C170 C184 1.411 1_565 S
C171 C170 1.489 . S
C171 C172 1.383 . S
C171 C176 1.382 . S
C172 H149 0.950 . S
C172 C171 1.383 . S
C172 C173 1.395 . S
C173 H150 0.950 . S
C173 C172 1.395 . S
C173 C174 1.288 . S
C174 C173 1.288 . S
C174 C175 1.392 . S
C175 H151 0.951 . S
C175 C174 1.392 . S
C175 C176 1.392 . S
C176 H152 0.949 . S
C176 C171 1.382 . S
C176 C175 1.392 . S
C177 C178 1.376 . S
C177 C182 1.386 . S
C177 C183 1.483 . S
C178 H153 0.949 . S
C178 C177 1.376 . S
C178 C179 1.397 . S
C179 H154 0.950 . S
C179 C178 1.397 . S
C179 C180 1.391 . S
C180 C179 1.391 . S
C180 C181 1.405 . S
C181 H155 0.950 . S
C181 C180 1.405 . S
C181 C182 1.367 . S
C182 H156 0.950 . S
C182 C177 1.386 . S
C182 C181 1.367 . S
C183 C177 1.483 . S
C183 C184 1.382 . S
C183 C185 1.403 . S
C184 H157 0.950 . S
C184 C170 1.411 1_545 S
C184 C183 1.382 . S
C185 C169 1.411 1_545 S
C185 C183 1.403 . S
C185 C186 1.489 . S
C186 C185 1.489 . S
C186 C187 1.383 . S
C186 C191 1.382 . S
C187 H158 0.950 . S
C187 C186 1.383 . S
C187 C188 1.395 . S
C188 H159 0.950 . S
C188 C187 1.395 . S
C188 C189 1.288 . S
C189 C188 1.288 . S
C189 C190 1.392 . S
C190 H160 0.951 . S
C190 C189 1.392 . S
C190 C191 1.392 . S
C191 H161 0.949 . S
C191 C186 1.382 . S
C191 C190 1.392 . S
H192 C211 0.949 . S
H193 C212 0.950 . S
H194 C214 0.950 . S
H195 C215 0.950 . S
H196 C217 0.950 . S
H197 C220 0.950 . S
H198 C221 0.950 . S
H199 C223 0.951 . S
H200 C224 0.949 . S
H201 C226 0.949 . S
H202 C227 0.950 . S
H203 C229 0.950 . S
H204 C230 0.950 . S
H205 C232 0.950 . S
H206 C235 0.950 . S
H207 C236 0.950 . S
H208 C238 0.951 . S
H209 C239 0.949 . S
C210 C211 1.376 . S
C210 C215 1.386 . S
C210 C216 1.483 . S
C211 H192 0.949 . S
C211 C210 1.376 . S
C211 C212 1.397 . S
C212 H193 0.950 . S
C212 C211 1.397 . S
C212 C213 1.391 . S
C213 C212 1.391 . S
C213 C214 1.405 . S
C214 H194 0.950 . S
C214 C213 1.405 . S
C214 C215 1.367 . S
C215 H195 0.950 . S
C215 C210 1.386 . S
C215 C214 1.367 . S
C216 C210 1.483 . S
C216 C217 1.382 1_455 S
C216 C218 1.403 . S
C217 H196 0.950 . S
C217 C216 1.382 1_655 S
C217 C233 1.411 . S
C218 C216 1.403 . S
C218 C219 1.489 . S
C218 C232 1.411 . S
C219 C218 1.489 . S
C219 C220 1.383 . S
C219 C224 1.382 . S
C220 H197 0.950 . S
C220 C219 1.383 . S
C220 C221 1.395 . S
C221 H198 0.950 . S
C221 C220 1.395 . S
C221 C222 1.288 . S
C222 C221 1.288 . S
C222 C223 1.392 . S
C223 H199 0.951 . S
C223 C222 1.392 . S
C223 C224 1.392 . S
C224 H200 0.949 . S
C224 C219 1.382 . S
C224 C223 1.392 . S
C225 C226 1.376 . S
C225 C230 1.386 . S
C225 C231 1.483 . S
C226 H201 0.949 . S
C226 C225 1.376 . S
C226 C227 1.397 . S
C227 H202 0.950 . S
C227 C226 1.397 . S
C227 C228 1.391 . S
C228 C227 1.391 . S
C228 C229 1.405 . S
C229 H203 0.950 . S
C229 C228 1.405 . S
C229 C230 1.367 . S
C230 H204 0.950 . S
C230 C225 1.386 . S
C230 C229 1.367 . S
C231 C225 1.483 . S
C231 C232 1.382 1_655 S
C231 C233 1.403 . S
C232 H205 0.950 . S
C232 C218 1.411 . S
C232 C231 1.382 1_455 S
C233 C217 1.411 . S
C233 C231 1.403 . S
C233 C234 1.489 . S
C234 C233 1.489 . S
C234 C235 1.383 . S
C234 C239 1.382 . S
C235 H206 0.950 . S
C235 C234 1.383 . S
C235 C236 1.395 . S
C236 H207 0.950 . S
C236 C235 1.395 . S
C236 C237 1.288 . S
C237 C236 1.288 . S
C237 C238 1.392 . S
C238 H208 0.951 . S
C238 C237 1.392 . S
C238 C239 1.392 . S
C239 H209 0.949 . S
C239 C234 1.382 . S
C239 C238 1.392 . S
H240 C259 0.949 . S
H241 C260 0.950 . S
H242 C262 0.950 . S
H243 C263 0.950 . S
H244 C265 0.950 . S
H245 C268 0.950 . S
H246 C269 0.950 . S
H247 C271 0.951 . S
H248 C272 0.949 . S
H249 C274 0.949 . S
H250 C275 0.950 . S
H251 C277 0.950 . S
H252 C278 0.950 . S
H253 C280 0.950 . S
H254 C283 0.950 . S
H255 C284 0.950 . S
H256 C286 0.951 . S
H257 C287 0.949 . S
C258 C259 1.376 . S
C258 C263 1.386 . S
C258 C264 1.483 . S
C259 H240 0.949 . S
C259 C258 1.376 . S
C259 C260 1.397 . S
C260 H241 0.950 . S
C260 C259 1.397 . S
C260 C261 1.391 . S
C261 C260 1.391 . S
C261 C262 1.405 . S
C262 H242 0.950 . S
C262 C261 1.405 . S
C262 C263 1.367 . S
C263 H243 0.950 . S
C263 C258 1.386 . S
C263 C262 1.367 . S
C264 C258 1.483 . S
C264 C265 1.382 . S
C264 C266 1.403 . S
C265 H244 0.950 . S
C265 C264 1.382 . S
C265 C281 1.411 . S
C266 C264 1.403 . S
C266 C267 1.489 . S
C266 C280 1.411 . S
C267 C266 1.489 . S
C267 C268 1.383 . S
C267 C272 1.382 . S
C268 H245 0.950 . S
C268 C267 1.383 . S
C268 C269 1.395 . S
C269 H246 0.950 . S
C269 C268 1.395 . S
C269 C270 1.288 . S
C270 C269 1.288 . S
C270 C271 1.392 . S
C271 H247 0.951 . S
C271 C270 1.392 . S
C271 C272 1.392 . S
C272 H248 0.949 . S
C272 C267 1.382 . S
C272 C271 1.392 . S
C273 C274 1.376 . S
C273 C278 1.386 . S
C273 C279 1.483 . S
C274 H249 0.949 . S
C274 C273 1.376 . S
C274 C275 1.397 . S
C275 H250 0.950 . S
C275 C274 1.397 . S
C275 C276 1.391 . S
C276 C275 1.391 . S
C276 C277 1.405 . S
C277 H251 0.950 . S
C277 C276 1.405 . S
C277 C278 1.367 . S
C278 H252 0.950 . S
C278 C273 1.386 . S
C278 C277 1.367 . S
C279 C273 1.483 . S
C279 C280 1.382 . S
C279 C281 1.403 . S
C280 H253 0.950 . S
C280 C266 1.411 . S
C280 C279 1.382 . S
C281 C265 1.411 . S
C281 C279 1.403 . S
C281 C282 1.489 . S
C282 C281 1.489 . S
C282 C283 1.383 . S
C282 C287 1.382 . S
C283 H254 0.950 . S
C283 C282 1.383 . S
C283 C284 1.395 . S
C284 H255 0.950 . S
C284 C283 1.395 . S
C284 C285 1.288 . S
C285 C284 1.288 . S
C285 C286 1.392 . S
C286 H256 0.951 . S
C286 C285 1.392 . S
C286 C287 1.392 . S
C287 H257 0.949 . S
C287 C282 1.382 . S
C287 C286 1.392 . S
H288 C307 0.949 . S
H289 C308 0.950 . S
H290 C310 0.950 . S
H291 C311 0.950 . S
H292 C313 0.950 . S
H293 C316 0.950 . S
H294 C317 0.950 . S
H295 C319 0.951 . S
H296 C320 0.949 1_545 S
H297 C322 0.949 . S
H298 C323 0.950 . S
H299 C325 0.950 . S
H300 C326 0.950 . S
H301 C328 0.950 . S
H302 C331 0.950 . S
H303 C332 0.950 . S
H304 C334 0.951 . S
H305 C335 0.949 1_565 S
C306 C307 1.376 . S
C306 C311 1.386 . S
C306 C312 1.483 . S
C307 H288 0.949 . S
C307 C306 1.376 . S
C307 C308 1.397 . S
C308 H289 0.950 . S
C308 C307 1.397 . S
C308 C309 1.391 . S
C309 C308 1.391 . S
C309 C310 1.405 . S
C310 H290 0.950 . S
C310 C309 1.405 . S
C310 C311 1.367 . S
C311 H291 0.950 . S
C311 C306 1.386 . S
C311 C310 1.367 . S
C312 C306 1.483 . S
C312 C313 1.382 . S
C312 C314 1.403 . S
C313 H292 0.950 . S
C313 C312 1.382 . S
C313 C329 1.411 1_565 S
C314 C312 1.403 . S
C314 C315 1.489 . S
C314 C328 1.411 1_565 S
C315 C314 1.489 . S
C315 C316 1.383 . S
C315 C320 1.382 . S
C316 H293 0.950 . S
C316 C315 1.383 . S
C316 C317 1.395 . S
C317 H294 0.950 . S
C317 C316 1.395 . S
C317 C318 1.288 . S
C318 C317 1.288 . S
C318 C319 1.392 . S
C319 H295 0.951 . S
C319 C318 1.392 . S
C319 C320 1.392 . S
C320 H296 0.949 1_565 S
C320 C315 1.382 . S
C320 C319 1.392 . S
C321 C322 1.376 . S
C321 C326 1.386 . S
C321 C327 1.483 . S
C322 H297 0.949 . S
C322 C321 1.376 . S
C322 C323 1.397 . S
C323 H298 0.950 . S
C323 C322 1.397 . S
C323 C324 1.391 . S
C324 C323 1.391 . S
C324 C325 1.405 . S
C325 H299 0.950 . S
C325 C324 1.405 . S
C325 C326 1.367 . S
C326 H300 0.950 . S
C326 C321 1.386 . S
C326 C325 1.367 . S
C327 C321 1.483 . S
C327 C328 1.382 . S
C327 C329 1.403 . S
C328 H301 0.950 . S
C328 C314 1.411 1_545 S
C328 C327 1.382 . S
C329 C313 1.411 1_545 S
C329 C327 1.403 . S
C329 C330 1.489 . S
C330 C329 1.489 . S
C330 C331 1.383 . S
C330 C335 1.382 . S
C331 H302 0.950 . S
C331 C330 1.383 . S
C331 C332 1.395 . S
C332 H303 0.950 . S
C332 C331 1.395 . S
C332 C333 1.288 . S
C333 C332 1.288 . S
C333 C334 1.392 . S
C334 H304 0.951 . S
C334 C333 1.392 . S
C334 C335 1.392 . S
C335 H305 0.949 1_545 S
C335 C330 1.382 . S
C335 C334 1.392 . S
H336 C355 0.949 1_455 S
H337 C356 0.950 . S
H338 C358 0.950 . S
H339 C359 0.950 . S
H340 C361 0.950 . S
H341 C364 0.950 . S
H342 C365 0.950 . S
H343 C367 0.951 . S
H344 C368 0.949 . S
H345 C370 0.949 . S
H346 C371 0.950 . S
H347 C373 0.950 . S
H348 C374 0.950 . S
H349 C376 0.950 . S
H350 C379 0.950 . S
H351 C380 0.950 . S
H352 C382 0.951 . S
H353 C383 0.931 1_545 S
C354 C355 1.376 . S
C354 C359 1.386 . S
C354 C360 1.483 . S
C355 H336 0.949 1_655 S
C355 C354 1.376 . S
C355 C356 1.397 . S
C356 H337 0.950 . S
C356 C355 1.397 . S
C356 C357 1.391 . S
C357 C356 1.391 . S
C357 C358 1.405 . S
C358 H338 0.950 . S
C358 C357 1.405 . S
C358 C359 1.367 . S
C359 H339 0.950 . S
C359 C354 1.386 . S
C359 C358 1.367 . S
C360 C354 1.483 . S
C360 C361 1.382 1_655 S
C360 C362 1.403 . S
C361 H340 0.950 . S
C361 C360 1.382 1_455 S
C361 C377 1.411 1_545 S
C362 C360 1.403 . S
C362 C363 1.489 . S
C362 C376 1.411 1_655 S
C363 C362 1.489 . S
C363 C364 1.383 . S
C363 C368 1.382 . S
C364 H341 0.950 . S
C364 C363 1.383 . S
C364 C365 1.395 . S
C365 H342 0.950 . S
C365 C364 1.395 . S
C365 C366 1.288 . S
C366 C365 1.288 . S
C366 C367 1.392 . S
C367 H343 0.951 . S
C367 C366 1.392 . S
C367 C368 1.392 . S
C368 H344 0.949 . S
C368 C363 1.382 . S
C368 C367 1.392 . S
C369 C370 1.376 . S
C369 C374 1.386 . S
C369 C375 1.483 . S
C370 H345 0.949 . S
C370 C369 1.376 . S
C370 C371 1.397 . S
C371 H346 0.950 . S
C371 C370 1.397 . S
C371 C372 1.391 . S
C372 C371 1.391 . S
C372 C373 1.405 . S
C373 H347 0.950 . S
C373 C372 1.405 . S
C373 C374 1.367 . S
C374 H348 0.950 . S
C374 C369 1.386 . S
C374 C373 1.367 . S
C375 C369 1.483 . S
C375 C376 1.382 1_565 S
C375 C377 1.403 . S
C376 H349 0.950 . S
C376 C362 1.411 1_455 S
C376 C375 1.382 1_545 S
C377 C361 1.411 1_565 S
C377 C375 1.403 . S
C377 C378 1.489 . S
C378 C377 1.489 . S
C378 C379 1.383 . S
C378 C383 1.382 . S
C379 H350 0.950 . S
C379 C378 1.383 . S
C379 C380 1.395 . S
C380 H351 0.950 . S
C380 C379 1.395 . S
C380 C381 1.288 . S
C381 C380 1.288 . S
C381 C382 1.392 . S
C382 H352 0.951 . S
C382 C381 1.392 . S
C382 C383 1.392 . S
C383 H353 0.931 1_565 S
C383 C378 1.382 . S
C383 C382 1.392 . S
Co384 O385 2.216 1_554 S
Co384 O386 2.091 1_554 S
Co384 O388 2.004 . S
Co384 O394 2.021 1_554 S
Co384 O396 2.137 . S
Co384 O397 2.244 . S
O385 Co384 2.216 1_556 S
O385 C392 1.247 . S
O386 Co384 2.091 1_556 S
O386 C392 1.261 . S
C387 O396 1.247 . S
C387 O397 1.272 . S
O388 Co384 2.004 . S
O388 C393 1.259 . S
Co389 O390 2.061 . S
Co389 O395 2.052 1_554 S
Co389 O397 2.135 . S
O390 Co389 2.061 . S
O390 C393 1.235 . S
C391 O394 1.238 . S
C391 O395 1.241 . S
C392 O385 1.247 . S
C392 O386 1.261 . S
C393 O388 1.259 . S
C393 O390 1.235 . S
O394 Co384 2.021 1_556 S
O394 C391 1.238 . S
O395 Co389 2.052 1_556 S
O395 C391 1.241 . S
O396 Co384 2.137 . S
O396 C387 1.247 . S
O397 Co384 2.244 . S
O397 C387 1.272 . S
O397 Co389 2.135 . S
Co398 O399 2.216 . S
Co398 O400 2.091 . S
Co398 O402 2.004 . S
Co398 O408 2.021 . S
Co398 O410 2.137 . S
Co398 O411 2.244 . S
O399 Co398 2.216 . S
O399 C406 1.247 . S
O400 Co398 2.091 . S
O400 C406 1.261 . S
C401 O410 1.247 . S
C401 O411 1.272 . S
O402 Co398 2.004 . S
O402 C407 1.259 . S
Co403 O404 2.061 . S
Co403 O409 2.052 . S
Co403 O411 2.135 . S
O404 Co403 2.061 . S
O404 C407 1.235 . S
C405 O408 1.238 . S
C405 O409 1.241 . S
C406 O399 1.247 . S
C406 O400 1.261 . S
C407 O402 1.259 . S
C407 O404 1.235 . S
O408 Co398 2.021 . S
O408 C405 1.238 . S
O409 Co403 2.052 . S
O409 C405 1.241 . S
O410 Co398 2.137 . S
O410 C401 1.247 . S
O411 Co398 2.244 . S
O411 C401 1.272 . S
O411 Co403 2.135 . S
Co412 O413 2.216 . S
Co412 O414 2.091 . S
Co412 O416 2.004 . S
Co412 O422 2.021 . S
Co412 O424 2.137 . S
Co412 O425 2.244 . S
O413 Co412 2.216 . S
O413 C420 1.247 . S
O414 Co412 2.091 . S
O414 C420 1.261 . S
C415 O424 1.247 . S
C415 O425 1.272 . S
O416 Co412 2.004 . S
O416 C421 1.259 . S
Co417 O418 2.061 . S
Co417 O423 2.052 . S
Co417 O425 2.135 . S
O418 Co417 2.061 . S
O418 C421 1.235 . S
C419 O422 1.238 . S
C419 O423 1.241 . S
C420 O413 1.247 . S
C420 O414 1.261 . S
C421 O416 1.259 . S
C421 O418 1.235 . S
O422 Co412 2.021 . S
O422 C419 1.238 . S
O423 Co417 2.052 . S
O423 C419 1.241 . S
O424 Co412 2.137 . S
O424 C415 1.247 . S
O425 Co412 2.244 . S
O425 C415 1.272 . S
O425 Co417 2.135 . S
Co426 O427 2.216 . S
Co426 O428 2.091 . S
Co426 O430 2.004 . S
Co426 O436 2.021 . S
Co426 O438 2.137 . S
Co426 O439 2.244 . S
O427 Co426 2.216 . S
O427 C434 1.247 . S
O428 Co426 2.091 . S
O428 C434 1.261 . S
C429 O438 1.247 . S
C429 O439 1.272 . S
O430 Co426 2.004 . S
O430 C435 1.259 . S
Co431 O432 2.061 . S
Co431 O437 2.052 . S
Co431 O439 2.135 . S
O432 Co431 2.061 . S
O432 C435 1.235 . S
C433 O436 1.238 . S
C433 O437 1.241 . S
C434 O427 1.247 . S
C434 O428 1.261 . S
C435 O430 1.259 . S
C435 O432 1.235 . S
O436 Co426 2.021 . S
O436 C433 1.238 . S
O437 Co431 2.052 . S
O437 C433 1.241 . S
O438 Co426 2.137 . S
O438 C429 1.247 . S
O439 Co426 2.244 . S
O439 C429 1.272 . S
O439 Co431 2.135 . S
Co440 O441 2.216 . S
Co440 O442 2.091 . S
Co440 O444 2.004 . S
Co440 O450 2.021 . S
Co440 O452 2.137 . S
Co440 O453 2.244 . S
O441 Co440 2.216 . S
O441 C448 1.247 . S
O442 Co440 2.091 . S
O442 C448 1.261 . S
C443 O452 1.247 . S
C443 O453 1.272 . S
O444 Co440 2.004 . S
O444 C449 1.259 . S
Co445 O446 2.061 . S
Co445 O451 2.052 . S
Co445 O453 2.135 . S
O446 Co445 2.061 . S
O446 C449 1.235 . S
C447 O450 1.238 . S
C447 O451 1.241 . S
C448 O441 1.247 . S
C448 O442 1.261 . S
C449 O444 1.259 . S
C449 O446 1.235 . S
O450 Co440 2.021 . S
O450 C447 1.238 . S
O451 Co445 2.052 . S
O451 C447 1.241 . S
O452 Co440 2.137 . S
O452 C443 1.247 . S
O453 Co440 2.244 . S
O453 C443 1.272 . S
O453 Co445 2.135 . S
Co454 O455 2.216 . S
Co454 O456 2.091 . S
Co454 O458 2.004 . S
Co454 O464 2.021 . S
Co454 O466 2.137 . S
Co454 O467 2.244 . S
O455 Co454 2.216 . S
O455 C462 1.247 . S
O456 Co454 2.091 . S
O456 C462 1.261 . S
C457 O466 1.247 . S
C457 O467 1.272 . S
O458 Co454 2.004 . S
O458 C463 1.259 . S
Co459 O460 2.061 . S
Co459 O465 2.052 . S
Co459 O467 2.135 . S
O460 Co459 2.061 . S
O460 C463 1.235 . S
C461 O464 1.238 . S
C461 O465 1.241 . S
C462 O455 1.247 . S
C462 O456 1.261 . S
C463 O458 1.259 . S
C463 O460 1.235 . S
O464 Co454 2.021 . S
O464 C461 1.238 . S
O465 Co459 2.052 . S
O465 C461 1.241 . S
O466 Co454 2.137 . S
O466 C457 1.247 . S
O467 Co454 2.244 . S
O467 C457 1.272 . S
O467 Co459 2.135 . S
Co468 O469 2.216 1_556 S
Co468 O470 2.091 1_556 S
Co468 O472 2.004 . S
Co468 O478 2.021 1_556 S
Co468 O480 2.137 . S
Co468 O481 2.244 . S
O469 Co468 2.216 1_554 S
O469 C476 1.247 . S
O470 Co468 2.091 1_554 S
O470 C476 1.261 . S
C471 O480 1.247 . S
C471 O481 1.272 . S
O472 Co468 2.004 . S
O472 C477 1.259 . S
Co473 O474 2.061 . S
Co473 O479 2.052 1_556 S
Co473 O481 2.135 . S
O474 Co473 2.061 . S
O474 C477 1.235 . S
C475 O478 1.238 . S
C475 O479 1.241 . S
C476 O469 1.247 . S
C476 O470 1.261 . S
C477 O472 1.259 . S
C477 O474 1.235 . S
O478 Co468 2.021 1_554 S
O478 C475 1.238 . S
O479 Co473 2.052 1_554 S
O479 C475 1.241 . S
O480 Co468 2.137 . S
O480 C471 1.247 . S
O481 Co468 2.244 . S
O481 C471 1.272 . S
O481 Co473 2.135 . S
Co482 O483 2.216 . S
Co482 O484 2.091 . S
Co482 O486 2.004 . S
Co482 O492 2.021 . S
Co482 O494 2.137 . S
Co482 O495 2.244 . S
O483 Co482 2.216 . S
O483 C490 1.247 . S
O484 Co482 2.091 . S
O484 C490 1.261 . S
C485 O494 1.247 . S
C485 O495 1.272 . S
O486 Co482 2.004 . S
O486 C491 1.259 . S
Co487 O488 2.061 . S
Co487 O493 2.052 . S
Co487 O495 2.135 . S
O488 Co487 2.061 . S
O488 C491 1.235 . S
C489 O492 1.238 . S
C489 O493 1.241 . S
C490 O483 1.247 . S
C490 O484 1.261 . S
C491 O486 1.259 . S
C491 O488 1.235 . S
O492 Co482 2.021 . S
O492 C489 1.238 . S
O493 Co487 2.052 . S
O493 C489 1.241 . S
O494 Co482 2.137 . S
O494 C485 1.247 . S
O495 Co482 2.244 . S
O495 C485 1.272 . S
O495 Co487 2.135 . S
C496 C497 1.363 . S
C496 C502 1.379 . S
C496 N504 1.356 . S
C497 C496 1.363 . S
C497 C503 1.363 . S
C498 C499 1.363 . S
C498 C503 1.379 . S
C498 N505 1.356 . S
C499 C498 1.363 . S
C499 C502 1.363 . S
N500 C502 1.356 . S
N500 H512 0.984 . S
N500 H513 0.985 . S
N501 C503 1.356 . S
N501 H506 0.984 . S
N501 H507 0.985 . S
C502 C496 1.379 . S
C502 C499 1.363 . S
C502 N500 1.356 . S
C503 C497 1.363 . S
C503 C498 1.379 . S
C503 N501 1.356 . S
N504 C496 1.356 . S
N504 H510 0.984 . S
N504 H511 0.984 . S
N505 C498 1.356 . S
N505 H508 0.984 . S
N505 H509 0.985 . S
H506 N501 0.984 . S
H507 N501 0.985 . S
H508 N505 0.984 . S
H509 N505 0.985 . S
H510 N504 0.984 . S
H511 N504 0.984 . S
H512 N500 0.984 . S
H513 N500 0.985 . S
C514 C515 1.363 . S
C514 C520 1.379 . S
C514 N522 1.356 . S
C515 C514 1.363 . S
C515 C521 1.363 . S
C516 C517 1.363 . S
C516 C521 1.379 . S
C516 N523 1.356 . S
C517 C516 1.363 . S
C517 C520 1.363 . S
N518 C520 1.356 . S
N518 H530 0.984 . S
N518 H531 0.985 . S
N519 C521 1.356 . S
N519 H524 0.984 . S
N519 H525 0.985 . S
C520 C514 1.379 . S
C520 C517 1.363 . S
C520 N518 1.356 . S
C521 C515 1.363 . S
C521 C516 1.379 . S
C521 N519 1.356 . S
N522 C514 1.356 . S
N522 H528 0.984 . S
N522 H529 0.984 . S
N523 C516 1.356 . S
N523 H526 0.984 . S
N523 H527 0.985 . S
H524 N519 0.984 . S
H525 N519 0.985 . S
H526 N523 0.984 . S
H527 N523 0.985 . S
H528 N522 0.984 . S
H529 N522 0.984 . S
H530 N518 0.984 . S
H531 N518 0.985 . S
C532 C533 1.363 . S
C532 C538 1.379 . S
C532 N540 1.356 . S
C533 C532 1.363 . S
C533 C539 1.363 . S
C534 C535 1.363 . S
C534 C539 1.379 . S
C534 N541 1.356 . S
C535 C534 1.363 . S
C535 C538 1.363 . S
N536 C538 1.356 . S
N536 H548 0.984 . S
N536 H549 0.985 . S
N537 C539 1.356 . S
N537 H542 0.984 . S
N537 H543 0.985 . S
C538 C532 1.379 . S
C538 C535 1.363 . S
C538 N536 1.356 . S
C539 C533 1.363 . S
C539 C534 1.379 . S
C539 N537 1.356 . S
N540 C532 1.356 . S
N540 H546 0.984 . S
N540 H547 0.984 . S
N541 C534 1.356 . S
N541 H544 0.984 . S
N541 H545 0.985 . S
H542 N537 0.984 . S
H543 N537 0.985 . S
H544 N541 0.984 . S
H545 N541 0.985 . S
H546 N540 0.984 . S
H547 N540 0.984 . S
H548 N536 0.984 . S
H549 N536 0.985 . S
C550 C551 1.363 . S
C550 C556 1.379 . S
C550 N558 1.356 . S
C551 C550 1.363 . S
C551 C557 1.363 1_554 S
C552 C553 1.363 1_556 S
C552 C557 1.379 . S
C552 N559 1.356 . S
C553 C552 1.363 1_554 S
C553 C556 1.363 . S
N554 C556 1.356 . S
N554 H566 0.984 . S
N554 H567 0.985 . S
N555 C557 1.356 . S
N555 H560 0.984 . S
N555 H561 0.985 . S
C556 C550 1.379 . S
C556 C553 1.363 . S
C556 N554 1.356 . S
C557 C551 1.363 1_556 S
C557 C552 1.379 . S
C557 N555 1.356 . S
N558 C550 1.356 . S
N558 H564 0.984 . S
N558 H565 0.984 . S
N559 C552 1.356 . S
N559 H562 0.984 . S
N559 H563 0.985 . S
H560 N555 0.984 . S
H561 N555 0.985 . S
H562 N559 0.984 . S
H563 N559 0.985 . S
H564 N558 0.984 . S
H565 N558 0.984 . S
H566 N554 0.984 . S
H567 N554 0.985 . S
C568 C569 1.363 . S
C568 C574 1.379 . S
C568 N576 1.356 . S
C569 C568 1.363 . S
C569 C575 1.363 1_556 S
C570 C571 1.363 1_554 S
C570 C575 1.379 . S
C570 N577 1.356 . S
C571 C570 1.363 1_556 S
C571 C574 1.363 . S
N572 C574 1.356 . S
N572 H584 0.984 . S
N572 H585 0.985 . S
N573 C575 1.356 . S
N573 H578 0.984 . S
N573 H579 0.985 . S
C574 C568 1.379 . S
C574 C571 1.363 . S
C574 N572 1.356 . S
C575 C569 1.363 1_554 S
C575 C570 1.379 . S
C575 N573 1.356 . S
N576 C568 1.356 . S
N576 H582 0.984 . S
N576 H583 0.984 . S
N577 C570 1.356 . S
N577 H580 0.984 . S
N577 H581 0.985 . S
H578 N573 0.984 . S
H579 N573 0.985 . S
H580 N577 0.984 . S
H581 N577 0.985 . S
H582 N576 0.984 . S
H583 N576 0.984 . S
H584 N572 0.984 . S
H585 N572 0.985 . S
C586 C587 1.363 . S
C586 C592 1.379 . S
C586 N594 1.356 . S
C587 C586 1.363 . S
C587 C593 1.363 . S
C588 C589 1.363 . S
C588 C593 1.379 . S
C588 N595 1.356 . S
C589 C588 1.363 . S
C589 C592 1.363 . S
N590 C592 1.356 . S
N590 H602 0.984 . S
N590 H603 0.985 . S
N591 C593 1.356 . S
N591 H596 0.984 . S
N591 H597 0.985 . S
C592 C586 1.379 . S
C592 C589 1.363 . S
C592 N590 1.356 . S
C593 C587 1.363 . S
C593 C588 1.379 . S
C593 N591 1.356 . S
N594 C586 1.356 . S
N594 H600 0.984 . S
N594 H601 0.984 . S
N595 C588 1.356 . S
N595 H598 0.984 . S
N595 H599 0.985 . S
H596 N591 0.984 . S
H597 N591 0.985 . S
H598 N595 0.984 . S
H599 N595 0.985 . S
H600 N594 0.984 . S
H601 N594 0.984 . S
H602 N590 0.984 . S
H603 N590 0.985 . S
C604 C605 1.363 . S
C604 C610 1.379 . S
C604 N612 1.356 . S
C605 C604 1.363 . S
C605 C611 1.363 . S
C606 C607 1.363 . S
C606 C611 1.379 . S
C606 N613 1.356 . S
C607 C606 1.363 . S
C607 C610 1.363 . S
N608 C610 1.356 . S
N608 H620 0.984 . S
N608 H621 0.985 . S
N609 C611 1.356 . S
N609 H614 0.984 . S
N609 H615 0.985 . S
C610 C604 1.379 . S
C610 C607 1.363 . S
C610 N608 1.356 . S
C611 C605 1.363 . S
C611 C606 1.379 . S
C611 N609 1.356 . S
N612 C604 1.356 . S
N612 H618 0.984 . S
N612 H619 0.984 . S
N613 C606 1.356 . S
N613 H616 0.984 . S
N613 H617 0.985 . S
H614 N609 0.984 . S
H615 N609 0.985 . S
H616 N613 0.984 . S
H617 N613 0.985 . S
H618 N612 0.984 . S
H619 N612 0.984 . S
H620 N608 0.984 . S
H621 N608 0.985 . S
C622 C623 1.363 . S
C622 C628 1.379 . S
C622 N630 1.356 . S
C623 C622 1.363 . S
C623 C629 1.363 . S
C624 C625 1.363 . S
C624 C629 1.379 . S
C624 N631 1.356 . S
C625 C624 1.363 . S
C625 C628 1.363 . S
N626 C628 1.356 . S
N626 H638 0.984 . S
N626 H639 0.985 . S
N627 C629 1.356 . S
N627 H632 0.984 . S
N627 H633 0.985 . S
C628 C622 1.379 . S
C628 C625 1.363 . S
C628 N626 1.356 . S
C629 C623 1.363 . S
C629 C624 1.379 . S
C629 N627 1.356 . S
N630 C622 1.356 . S
N630 H636 0.984 . S
N630 H637 0.984 . S
N631 C624 1.356 . S
N631 H634 0.984 . S
N631 H635 0.985 . S
H632 N627 0.984 . S
H633 N627 0.985 . S
H634 N631 0.984 . S
H635 N631 0.985 . S
H636 N630 0.984 . S
H637 N630 0.984 . S
H638 N626 0.984 . S
H639 N626 0.985 . S
C640 C641 1.363 . S
C640 C646 1.379 . S
C640 N648 1.356 . S
C641 C640 1.363 . S
C641 C647 1.363 . S
C642 C643 1.363 . S
C642 C647 1.379 . S
C642 N649 1.356 . S
C643 C642 1.363 . S
C643 C646 1.363 . S
N644 C646 1.356 . S
N644 H656 0.984 . S
N644 H657 0.985 . S
N645 C647 1.356 . S
N645 H650 0.984 . S
N645 H651 0.985 . S
C646 C640 1.379 . S
C646 C643 1.363 . S
C646 N644 1.356 . S
C647 C641 1.363 . S
C647 C642 1.379 . S
C647 N645 1.356 . S
N648 C640 1.356 . S
N648 H654 0.984 . S
N648 H655 0.984 . S
N649 C642 1.356 . S
N649 H652 0.984 . S
N649 H653 0.985 . S
H650 N645 0.984 . S
H651 N645 0.985 . S
H652 N649 0.984 . S
H653 N649 0.985 . S
H654 N648 0.984 . S
H655 N648 0.984 . S
H656 N644 0.984 . S
H657 N644 0.985 . S
C658 C659 1.363 . S
C658 C664 1.379 . S
C658 N666 1.356 . S
C659 C658 1.363 . S
C659 C665 1.363 1_554 S
C660 C661 1.363 1_556 S
C660 C665 1.379 . S
C660 N667 1.356 . S
C661 C660 1.363 1_554 S
C661 C664 1.363 . S
N662 C664 1.356 . S
N662 H674 0.984 . S
N662 H675 0.985 . S
N663 C665 1.356 . S
N663 H668 0.984 . S
N663 H669 0.985 . S
C664 C658 1.379 . S
C664 C661 1.363 . S
C664 N662 1.356 . S
C665 C659 1.363 1_556 S
C665 C660 1.379 . S
C665 N663 1.356 . S
N666 C658 1.356 . S
N666 H672 0.984 . S
N666 H673 0.984 . S
N667 C660 1.356 . S
N667 H670 0.984 . S
N667 H671 0.985 . S
H668 N663 0.984 . S
H669 N663 0.985 . S
H670 N667 0.984 . S
H671 N667 0.985 . S
H672 N666 0.984 . S
H673 N666 0.984 . S
H674 N662 0.984 . S
H675 N662 0.985 . S
C676 C677 1.363 . S
C676 C682 1.379 . S
C676 N684 1.356 . S
C677 C676 1.363 . S
C677 C683 1.363 . S
C678 C679 1.363 . S
C678 C683 1.379 . S
C678 N685 1.356 . S
C679 C678 1.363 . S
C679 C682 1.363 . S
N680 C682 1.356 . S
N680 H692 0.984 . S
N680 H693 0.985 . S
N681 C683 1.356 . S
N681 H686 0.984 . S
N681 H687 0.985 . S
C682 C676 1.379 . S
C682 C679 1.363 . S
C682 N680 1.356 . S
C683 C677 1.363 . S
C683 C678 1.379 . S
C683 N681 1.356 . S
N684 C676 1.356 . S
N684 H690 0.984 . S
N684 H691 0.984 . S
N685 C678 1.356 . S
N685 H688 0.984 . S
N685 H689 0.985 . S
H686 N681 0.984 . S
H687 N681 0.985 . S
H688 N685 0.984 . S
H689 N685 0.985 . S
H690 N684 0.984 . S
H691 N684 0.984 . S
H692 N680 0.984 . S
H693 N680 0.985 . S
C694 C695 1.363 . S
C694 C700 1.379 . S
C694 N702 1.356 . S
C695 C694 1.363 . S
C695 C701 1.363 . S
C696 C697 1.363 . S
C696 C701 1.379 . S
C696 N703 1.356 . S
C697 C696 1.363 . S
C697 C700 1.363 . S
N698 C700 1.356 . S
N698 H710 0.984 . S
N698 H711 0.985 . S
N699 C701 1.356 . S
N699 H704 0.984 . S
N699 H705 0.985 . S
C700 C694 1.379 . S
C700 C697 1.363 . S
C700 N698 1.356 . S
C701 C695 1.363 . S
C701 C696 1.379 . S
C701 N699 1.356 . S
N702 C694 1.356 . S
N702 H708 0.984 . S
N702 H709 0.984 . S
N703 C696 1.356 . S
N703 H706 0.984 . S
N703 H707 0.985 . S
H704 N699 0.984 . S
H705 N699 0.985 . S
H706 N703 0.984 . S
H707 N703 0.985 . S
H708 N702 0.984 . S
H709 N702 0.984 . S
H710 N698 0.984 . S
H711 N698 0.985 . S
C712 C713 1.363 . S
C712 C718 1.379 . S
C712 N720 1.356 . S
C713 C712 1.363 . S
C713 C719 1.363 . S
C714 C715 1.363 . S
C714 C719 1.379 . S
C714 N721 1.356 . S
C715 C714 1.363 . S
C715 C718 1.363 . S
N716 C718 1.356 . S
N716 H728 0.984 . S
N716 H729 0.985 . S
N717 C719 1.356 . S
N717 H722 0.984 . S
N717 H723 0.985 . S
C718 C712 1.379 . S
C718 C715 1.363 . S
C718 N716 1.356 . S
C719 C713 1.363 . S
C719 C714 1.379 . S
C719 N717 1.356 . S
N720 C712 1.356 . S
N720 H726 0.984 . S
N720 H727 0.984 . S
N721 C714 1.356 . S
N721 H724 0.984 . S
N721 H725 0.985 . S
H722 N717 0.984 . S
H723 N717 0.985 . S
H724 N721 0.984 . S
H725 N721 0.985 . S
H726 N720 0.984 . S
H727 N720 0.984 . S
H728 N716 0.984 . S
H729 N716 0.985 . S
C730 C731 1.363 . S
C730 C736 1.379 . S
C730 N738 1.356 . S
C731 C730 1.363 . S
C731 C737 1.363 . S
C732 C733 1.363 . S
C732 C737 1.379 . S
C732 N739 1.356 . S
C733 C732 1.363 . S
C733 C736 1.363 . S
N734 C736 1.356 . S
N734 H746 0.984 . S
N734 H747 0.985 . S
N735 C737 1.356 . S
N735 H740 0.984 . S
N735 H741 0.985 . S
C736 C730 1.379 . S
C736 C733 1.363 . S
C736 N734 1.356 . S
C737 C731 1.363 . S
C737 C732 1.379 . S
C737 N735 1.356 . S
N738 C730 1.356 . S
N738 H744 0.984 . S
N738 H745 0.984 . S
N739 C732 1.356 . S
N739 H742 0.984 . S
N739 H743 0.985 . S
H740 N735 0.984 . S
H741 N735 0.985 . S
H742 N739 0.984 . S
H743 N739 0.985 . S
H744 N738 0.984 . S
H745 N738 0.984 . S
H746 N734 0.984 . S
H747 N734 0.985 . S
C748 C749 1.363 . S
C748 C754 1.379 . S
C748 N756 1.356 . S
C749 C748 1.363 . S
C749 C755 1.363 1_556 S
C750 C751 1.363 1_554 S
C750 C755 1.379 . S
C750 N757 1.356 . S
C751 C750 1.363 1_556 S
C751 C754 1.363 . S
N752 C754 1.356 . S
N752 H764 0.984 . S
N752 H765 0.985 . S
N753 C755 1.356 . S
N753 H758 0.984 . S
N753 H759 0.985 . S
C754 C748 1.379 . S
C754 C751 1.363 . S
C754 N752 1.356 . S
C755 C749 1.363 1_554 S
C755 C750 1.379 . S
C755 N753 1.356 . S
N756 C748 1.356 . S
N756 H762 0.984 . S
N756 H763 0.984 . S
N757 C750 1.356 . S
N757 H760 0.984 . S
N757 H761 0.985 . S
H758 N753 0.984 . S
H759 N753 0.985 . S
H760 N757 0.984 . S
H761 N757 0.985 . S
H762 N756 0.984 . S
H763 N756 0.984 . S
H764 N752 0.984 . S
H765 N752 0.985 . S
C766 C767 1.363 . S
C766 C772 1.379 . S
C766 N774 1.356 . S
C767 C766 1.363 . S
C767 C773 1.363 . S
C768 C769 1.363 . S
C768 C773 1.379 . S
C768 N775 1.356 . S
C769 C768 1.363 . S
C769 C772 1.363 . S
N770 C772 1.356 . S
N770 H782 0.984 . S
N770 H783 0.985 . S
N771 C773 1.356 . S
N771 H776 0.984 . S
N771 H777 0.985 . S
C772 C766 1.379 . S
C772 C769 1.363 . S
C772 N770 1.356 . S
C773 C767 1.363 . S
C773 C768 1.379 . S
C773 N771 1.356 . S
N774 C766 1.356 . S
N774 H780 0.984 . S
N774 H781 0.984 . S
N775 C768 1.356 . S
N775 H778 0.984 . S
N775 H779 0.985 . S
H776 N771 0.984 . S
H777 N771 0.985 . S
H778 N775 0.984 . S
H779 N775 0.985 . S
H780 N774 0.984 . S
H781 N774 0.984 . S
H782 N770 0.984 . S
H783 N770 0.985 . S
C784 C785 1.363 . S
C784 C790 1.379 . S
C784 N792 1.356 . S
C785 C784 1.363 . S
C785 C791 1.363 . S
C786 C787 1.363 . S
C786 C791 1.379 . S
C786 N793 1.356 . S
C787 C786 1.363 . S
C787 C790 1.363 . S
N788 C790 1.356 . S
N788 H800 0.984 . S
N788 H801 0.985 . S
N789 C791 1.356 . S
N789 H794 0.984 . S
N789 H795 0.985 . S
C790 C784 1.379 . S
C790 C787 1.363 . S
C790 N788 1.356 . S
C791 C785 1.363 . S
C791 C786 1.379 . S
C791 N789 1.356 . S
N792 C784 1.356 . S
N792 H798 0.984 . S
N792 H799 0.984 . S
N793 C786 1.356 . S
N793 H796 0.984 . S
N793 H797 0.985 . S
H794 N789 0.984 . S
H795 N789 0.985 . S
H796 N793 0.984 . S
H797 N793 0.985 . S
H798 N792 0.984 . S
H799 N792 0.984 . S
H800 N788 0.984 . S
H801 N788 0.985 . S
C802 C803 1.363 . S
C802 C808 1.379 . S
C802 N810 1.356 . S
C803 C802 1.363 . S
C803 C809 1.363 . S
C804 C805 1.363 . S
C804 C809 1.379 . S
C804 N811 1.356 . S
C805 C804 1.363 . S
C805 C808 1.363 . S
N806 C808 1.356 . S
N806 H818 0.984 . S
N806 H819 0.985 . S
N807 C809 1.356 . S
N807 H812 0.984 . S
N807 H813 0.985 . S
C808 C802 1.379 . S
C808 C805 1.363 . S
C808 N806 1.356 . S
C809 C803 1.363 . S
C809 C804 1.379 . S
C809 N807 1.356 . S
N810 C802 1.356 . S
N810 H816 0.984 . S
N810 H817 0.984 . S
N811 C804 1.356 . S
N811 H814 0.984 . S
N811 H815 0.985 . S
H812 N807 0.984 . S
H813 N807 0.985 . S
H814 N811 0.984 . S
H815 N811 0.985 . S
H816 N810 0.984 . S
H817 N810 0.984 . S
H818 N806 0.984 . S
H819 N806 0.985 . S
C820 C821 1.363 . S
C820 C826 1.379 . S
C820 N828 1.356 . S
C821 C820 1.363 . S
C821 C827 1.363 . S
C822 C823 1.363 . S
C822 C827 1.379 . S
C822 N829 1.356 . S
C823 C822 1.363 . S
C823 C826 1.363 . S
N824 C826 1.356 . S
N824 H836 0.984 . S
N824 H837 0.985 . S
N825 C827 1.356 . S
N825 H830 0.984 . S
N825 H831 0.985 . S
C826 C820 1.379 . S
C826 C823 1.363 . S
C826 N824 1.356 . S
C827 C821 1.363 . S
C827 C822 1.379 . S
C827 N825 1.356 . S
N828 C820 1.356 . S
N828 H834 0.984 . S
N828 H835 0.984 . S
N829 C822 1.356 . S
N829 H832 0.984 . S
N829 H833 0.985 . S
H830 N825 0.984 . S
H831 N825 0.985 . S
H832 N829 0.984 . S
H833 N829 0.985 . S
H834 N828 0.984 . S
H835 N828 0.984 . S
H836 N824 0.984 . S
H837 N824 0.985 . S
C838 C839 1.363 . S
C838 C844 1.379 . S
C838 N846 1.356 . S
C839 C838 1.363 . S
C839 C845 1.363 . S
C840 C841 1.363 . S
C840 C845 1.379 . S
C840 N847 1.356 . S
C841 C840 1.363 . S
C841 C844 1.363 . S
N842 C844 1.356 . S
N842 H854 0.984 . S
N842 H855 0.985 . S
N843 C845 1.356 . S
N843 H848 0.984 . S
N843 H849 0.985 . S
C844 C838 1.379 . S
C844 C841 1.363 . S
C844 N842 1.356 . S
C845 C839 1.363 . S
C845 C840 1.379 . S
C845 N843 1.356 . S
N846 C838 1.356 . S
N846 H852 0.984 . S
N846 H853 0.984 . S
N847 C840 1.356 . S
N847 H850 0.984 . S
N847 H851 0.985 . S
H848 N843 0.984 . S
H849 N843 0.985 . S
H850 N847 0.984 . S
H851 N847 0.985 . S
H852 N846 0.984 . S
H853 N846 0.984 . S
H854 N842 0.984 . S
H855 N842 0.985 . S
C856 C857 1.363 . S
C856 C862 1.379 . S
C856 N864 1.356 . S
C857 C856 1.363 . S
C857 C863 1.363 . S
C858 C859 1.363 . S
C858 C863 1.379 . S
C858 N865 1.356 . S
C859 C858 1.363 . S
C859 C862 1.363 . S
N860 C862 1.356 . S
N860 H872 0.984 . S
N860 H873 0.985 . S
N861 C863 1.356 . S
N861 H866 0.984 . S
N861 H867 0.985 . S
C862 C856 1.379 . S
C862 C859 1.363 . S
C862 N860 1.356 . S
C863 C857 1.363 . S
C863 C858 1.379 . S
C863 N861 1.356 . S
N864 C856 1.356 . S
N864 H870 0.984 . S
N864 H871 0.984 . S
N865 C858 1.356 . S
N865 H868 0.984 . S
N865 H869 0.985 . S
H866 N861 0.984 . S
H867 N861 0.985 . S
H868 N865 0.984 . S
H869 N865 0.985 . S
H870 N864 0.984 . S
H871 N864 0.984 . S
H872 N860 0.984 . S
H873 N860 0.985 . S
C874 C875 1.363 . S
C874 C880 1.379 . S
C874 N882 1.356 . S
C875 C874 1.363 . S
C875 C881 1.363 . S
C876 C877 1.363 . S
C876 C881 1.379 . S
C876 N883 1.356 . S
C877 C876 1.363 . S
C877 C880 1.363 . S
N878 C880 1.356 . S
N878 H890 0.984 . S
N878 H891 0.985 . S
N879 C881 1.356 . S
N879 H884 0.984 . S
N879 H885 0.985 . S
C880 C874 1.379 . S
C880 C877 1.363 . S
C880 N878 1.356 . S
C881 C875 1.363 . S
C881 C876 1.379 . S
C881 N879 1.356 . S
N882 C874 1.356 . S
N882 H888 0.984 . S
N882 H889 0.984 . S
N883 C876 1.356 . S
N883 H886 0.984 . S
N883 H887 0.985 . S
H884 N879 0.984 . S
H885 N879 0.985 . S
H886 N883 0.984 . S
H887 N883 0.985 . S
H888 N882 0.984 . S
H889 N882 0.984 . S
H890 N878 0.984 . S
H891 N878 0.985 . S
C892 C893 1.363 . S
C892 C898 1.379 . S
C892 N900 1.356 . S
C893 C892 1.363 . S
C893 C899 1.363 . S
C894 C895 1.363 . S
C894 C899 1.379 . S
C894 N901 1.356 . S
C895 C894 1.363 . S
C895 C898 1.363 . S
N896 C898 1.356 . S
N896 H908 0.984 . S
N896 H909 0.985 . S
N897 C899 1.356 . S
N897 H902 0.984 . S
N897 H903 0.985 . S
C898 C892 1.379 . S
C898 C895 1.363 . S
C898 N896 1.356 . S
C899 C893 1.363 . S
C899 C894 1.379 . S
C899 N897 1.356 . S
N900 C892 1.356 . S
N900 H906 0.984 . S
N900 H907 0.984 . S
N901 C894 1.356 . S
N901 H904 0.984 . S
N901 H905 0.985 . S
H902 N897 0.984 . S
H903 N897 0.985 . S
H904 N901 0.984 . S
H905 N901 0.985 . S
H906 N900 0.984 . S
H907 N900 0.984 . S
H908 N896 0.984 . S
H909 N896 0.985 . S
C910 C911 1.363 . S
C910 C916 1.379 . S
C910 N918 1.356 . S
C911 C910 1.363 . S
C911 C917 1.363 . S
C912 C913 1.363 . S
C912 C917 1.379 . S
C912 N919 1.356 . S
C913 C912 1.363 . S
C913 C916 1.363 . S
N914 C916 1.356 . S
N914 H926 0.984 . S
N914 H927 0.985 . S
N915 C917 1.356 . S
N915 H920 0.984 . S
N915 H921 0.985 . S
C916 C910 1.379 . S
C916 C913 1.363 . S
C916 N914 1.356 . S
C917 C911 1.363 . S
C917 C912 1.379 . S
C917 N915 1.356 . S
N918 C910 1.356 . S
N918 H924 0.984 . S
N918 H925 0.984 . S
N919 C912 1.356 . S
N919 H922 0.984 . S
N919 H923 0.985 . S
H920 N915 0.984 . S
H921 N915 0.985 . S
H922 N919 0.984 . S
H923 N919 0.985 . S
H924 N918 0.984 . S
H925 N918 0.984 . S
H926 N914 0.984 . S
H927 N914 0.985 . S
C928 C929 1.363 . S
C928 C934 1.379 . S
C928 N936 1.356 . S
C929 C928 1.363 . S
C929 C935 1.363 . S
C930 C931 1.363 . S
C930 C935 1.379 . S
C930 N937 1.356 . S
C931 C930 1.363 . S
C931 C934 1.363 . S
N932 C934 1.356 . S
N932 H944 0.984 . S
N932 H945 0.985 . S
N933 C935 1.356 . S
N933 H938 0.984 . S
N933 H939 0.985 . S
C934 C928 1.379 . S
C934 C931 1.363 . S
C934 N932 1.356 . S
C935 C929 1.363 . S
C935 C930 1.379 . S
C935 N933 1.356 . S
N936 C928 1.356 . S
N936 H942 0.984 . S
N936 H943 0.984 . S
N937 C930 1.356 . S
N937 H940 0.984 . S
N937 H941 0.985 . S
H938 N933 0.984 . S
H939 N933 0.985 . S
H940 N937 0.984 . S
H941 N937 0.985 . S
H942 N936 0.984 . S
H943 N936 0.984 . S
H944 N932 0.984 . S
H945 N932 0.985 . S
C946 C947 1.363 . S
C946 C952 1.379 . S
C946 N954 1.356 . S
C947 C946 1.363 . S
C947 C953 1.363 . S
C948 C949 1.363 . S
C948 C953 1.379 . S
C948 N955 1.356 . S
C949 C948 1.363 . S
C949 C952 1.363 . S
N950 C952 1.356 . S
N950 H962 0.984 . S
N950 H963 0.985 . S
N951 C953 1.356 . S
N951 H956 0.984 . S
N951 H957 0.985 . S
C952 C946 1.379 . S
C952 C949 1.363 . S
C952 N950 1.356 . S
C953 C947 1.363 . S
C953 C948 1.379 . S
C953 N951 1.356 . S
N954 C946 1.356 . S
N954 H960 0.984 . S
N954 H961 0.984 . S
N955 C948 1.356 . S
N955 H958 0.984 . S
N955 H959 0.985 . S
H956 N951 0.984 . S
H957 N951 0.985 . S
H958 N955 0.984 . S
H959 N955 0.985 . S
H960 N954 0.984 . S
H961 N954 0.984 . S
H962 N950 0.984 . S
H963 N950 0.985 . S
C964 C965 1.363 . S
C964 C970 1.379 . S
C964 N972 1.356 . S
C965 C964 1.363 . S
C965 C971 1.363 . S
C966 C967 1.363 . S
C966 C971 1.379 . S
C966 N973 1.356 . S
C967 C966 1.363 . S
C967 C970 1.363 . S
N968 C970 1.356 . S
N968 H980 0.984 . S
N968 H981 0.985 . S
N969 C971 1.356 . S
N969 H974 0.984 . S
N969 H975 0.985 . S
C970 C964 1.379 . S
C970 C967 1.363 . S
C970 N968 1.356 . S
C971 C965 1.363 . S
C971 C966 1.379 . S
C971 N969 1.356 . S
N972 C964 1.356 . S
N972 H978 0.984 . S
N972 H979 0.984 . S
N973 C966 1.356 . S
N973 H976 0.984 . S
N973 H977 0.985 . S
H974 N969 0.984 . S
H975 N969 0.985 . S
H976 N973 0.984 . S
H977 N973 0.985 . S
H978 N972 0.984 . S
H979 N972 0.984 . S
H980 N968 0.984 . S
H981 N968 0.985 . S
C982 C983 1.363 . S
C982 C988 1.379 . S
C982 N990 1.356 . S
C983 C982 1.363 . S
C983 C989 1.363 . S
C984 C985 1.363 . S
C984 C989 1.379 . S
C984 N991 1.356 . S
C985 C984 1.363 . S
C985 C988 1.363 . S
N986 C988 1.356 . S
N986 H998 0.984 . S
N986 H999 0.985 . S
N987 C989 1.356 . S
N987 H992 0.984 . S
N987 H993 0.985 . S
C988 C982 1.379 . S
C988 C985 1.363 . S
C988 N986 1.356 . S
C989 C983 1.363 . S
C989 C984 1.379 . S
C989 N987 1.356 . S
N990 C982 1.356 . S
N990 H996 0.984 . S
N990 H997 0.984 . S
N991 C984 1.356 . S
N991 H994 0.984 . S
N991 H995 0.985 . S
H992 N987 0.984 . S
H993 N987 0.985 . S
H994 N991 0.984 . S
H995 N991 0.985 . S
H996 N990 0.984 . S
H997 N990 0.984 . S
H998 N986 0.984 . S
H999 N986 0.985 . S
C1000 C1001 1.363 . S
C1000 C1006 1.379 . S
C1000 N1008 1.356 . S
C1001 C1000 1.363 . S
C1001 C1007 1.363 . S
C1002 C1003 1.363 . S
C1002 C1007 1.379 . S
C1002 N1009 1.356 . S
C1003 C1002 1.363 . S
C1003 C1006 1.363 . S
N1004 C1006 1.356 . S
N1004 H1016 0.984 . S
N1004 H1017 0.985 . S
N1005 C1007 1.356 . S
N1005 H1010 0.984 . S
N1005 H1011 0.985 . S
C1006 C1000 1.379 . S
C1006 C1003 1.363 . S
C1006 N1004 1.356 . S
C1007 C1001 1.363 . S
C1007 C1002 1.379 . S
C1007 N1005 1.356 . S
N1008 C1000 1.356 . S
N1008 H1014 0.984 . S
N1008 H1015 0.984 . S
N1009 C1002 1.356 . S
N1009 H1012 0.984 . S
N1009 H1013 0.985 . S
H1010 N1005 0.984 . S
H1011 N1005 0.985 . S
H1012 N1009 0.984 . S
H1013 N1009 0.985 . S
H1014 N1008 0.984 . S
H1015 N1008 0.984 . S
H1016 N1004 0.984 . S
H1017 N1004 0.985 . S
C1018 C1019 1.363 . S
C1018 C1024 1.379 . S
C1018 N1026 1.356 . S
C1019 C1018 1.363 . S
C1019 C1025 1.363 . S
C1020 C1021 1.363 . S
C1020 C1025 1.379 . S
C1020 N1027 1.356 . S
C1021 C1020 1.363 . S
C1021 C1024 1.363 . S
N1022 C1024 1.356 . S
N1022 H1034 0.984 . S
N1022 H1035 0.985 . S
N1023 C1025 1.356 . S
N1023 H1028 0.984 . S
N1023 H1029 0.985 . S
C1024 C1018 1.379 . S
C1024 C1021 1.363 . S
C1024 N1022 1.356 . S
C1025 C1019 1.363 . S
C1025 C1020 1.379 . S
C1025 N1023 1.356 . S
N1026 C1018 1.356 . S
N1026 H1032 0.984 . S
N1026 H1033 0.984 . S
N1027 C1020 1.356 . S
N1027 H1030 0.984 . S
N1027 H1031 0.985 . S
H1028 N1023 0.984 . S
H1029 N1023 0.985 . S
H1030 N1027 0.984 . S
H1031 N1027 0.985 . S
H1032 N1026 0.984 . S
H1033 N1026 0.984 . S
H1034 N1022 0.984 . S
H1035 N1022 0.985 . S
C1036 C1037 1.363 . S
C1036 C1042 1.379 . S
C1036 N1044 1.356 . S
C1037 C1036 1.363 . S
C1037 C1043 1.363 . S
C1038 C1039 1.363 . S
C1038 C1043 1.379 . S
C1038 N1045 1.356 . S
C1039 C1038 1.363 . S
C1039 C1042 1.363 . S
N1040 C1042 1.356 . S
N1040 H1052 0.984 . S
N1040 H1053 0.985 . S
N1041 C1043 1.356 . S
N1041 H1046 0.984 . S
N1041 H1047 0.985 . S
C1042 C1036 1.379 . S
C1042 C1039 1.363 . S
C1042 N1040 1.356 . S
C1043 C1037 1.363 . S
C1043 C1038 1.379 . S
C1043 N1041 1.356 . S
N1044 C1036 1.356 . S
N1044 H1050 0.984 . S
N1044 H1051 0.984 . S
N1045 C1038 1.356 . S
N1045 H1048 0.984 . S
N1045 H1049 0.985 . S
H1046 N1041 0.984 . S
H1047 N1041 0.985 . S
H1048 N1045 0.984 . S
H1049 N1045 0.985 . S
H1050 N1044 0.984 . S
H1051 N1044 0.984 . S
H1052 N1040 0.984 . S
H1053 N1040 0.985 . S
C1054 C1055 1.363 . S
C1054 C1060 1.379 . S
C1054 N1062 1.356 . S
C1055 C1054 1.363 . S
C1055 C1061 1.363 . S
C1056 C1057 1.363 . S
C1056 C1061 1.379 . S
C1056 N1063 1.356 . S
C1057 C1056 1.363 . S
C1057 C1060 1.363 . S
N1058 C1060 1.356 . S
N1058 H1070 0.984 . S
N1058 H1071 0.985 . S
N1059 C1061 1.356 . S
N1059 H1064 0.984 . S
N1059 H1065 0.985 . S
C1060 C1054 1.379 . S
C1060 C1057 1.363 . S
C1060 N1058 1.356 . S
C1061 C1055 1.363 . S
C1061 C1056 1.379 . S
C1061 N1059 1.356 . S
N1062 C1054 1.356 . S
N1062 H1068 0.984 . S
N1062 H1069 0.984 . S
N1063 C1056 1.356 . S
N1063 H1066 0.984 . S
N1063 H1067 0.985 . S
H1064 N1059 0.984 . S
H1065 N1059 0.985 . S
H1066 N1063 0.984 . S
H1067 N1063 0.985 . S
H1068 N1062 0.984 . S
H1069 N1062 0.984 . S
H1070 N1058 0.984 . S
H1071 N1058 0.985 . S
C499 C406 1.462 . S
C497 C36 1.401 . S
C517 C420 1.459 . S
C515 C93 1.422 . S
C535 C435 1.442 . S
C533 C126 1.421 . S
C551 C165 1.394 . S
C553 C393 1.429 . S
C569 C222 1.397 . S
C571 C392 1.450 . S
C587 C261 1.388 . S
C589 C407 1.424 . S
C607 C421 1.466 . S
C605 C318 1.433 . S
C625 C434 1.471 . S
C623 C381 1.433 . S
C641 C132 1.391 . S
C643 C462 1.451 . S
C661 C476 1.484 . S
C659 C189 1.440 . S
C677 C30 1.404 . S
C679 C491 1.429 . S
C697 C448 1.435 . S
C695 C69 1.372 . S
C713 C324 1.408 . S
C715 C449 1.441 . S
C731 C357 1.404 . S
C733 C463 1.435 . S
C751 C477 1.440 . S
C749 C228 1.411 . S
C767 C285 1.442 . S
C769 C490 1.481 . S
C787 C415 1.752 . S
C785 C45 1.742 . S
C805 C433 1.736 . S
C803 C84 1.752 . S
C821 C117 1.744 . S
C823 C391 1.747 . S
C839 C174 1.714 . S
C841 C401 1.772 . S
C857 C213 1.733 . S
C859 C429 1.748 . S
C877 C387 1.761 . S
C875 C270 1.708 . S
C895 C405 1.735 . S
C893 C309 1.737 . S
C913 C419 1.729 . S
C911 C372 1.749 . S
C931 C471 1.747 . S
C929 C141 1.743 . S
C949 C489 1.723 . S
C947 C180 1.741 . S
C965 C21 1.735 . S
C967 C443 1.754 . S
C985 C457 1.749 . S
C983 C78 1.699 . S
C1003 C485 1.767 . S
C1001 C333 1.760 . S
C1019 C366 1.717 . S
C1021 C447 1.755 . S
C1039 C461 1.747 . S
C1037 C237 1.759 . S
C1057 C475 1.734 . S
C1055 C276 1.748 . S
