# Generated by pormake.
# Topology eea, (3,6)-cn, num edge types: 1
# Building blocks:
#     Node 0, Type 0, BuildingBlock: BETDIP_clean_linker_0, # of connection points: 3
#     Node 1, Type 0, BuildingBlock: BETDIP_clean_linker_0, # of connection points: 3
#     Node 2, Type 0, BuildingBlock: BETDIP_clean_linker_0, # of connection points: 3
#     Node 3, Type 0, BuildingBlock: BETDIP_clean_linker_0, # of connection points: 3
#     Node 4, Type 0, BuildingBlock: BETDIP_clean_linker_0, # of connection points: 3
#     Node 5, Type 0, BuildingBlock: BETDIP_clean_linker_0, # of connection points: 3
#     Node 6, Type 0, BuildingBlock: BETDIP_clean_linker_0, # of connection points: 3
#     Node 7, Type 0, BuildingBlock: BETDIP_clean_linker_0, # of connection points: 3
#     Node 8, Type 0, BuildingBlock: BETDIP_clean_linker_0, # of connection points: 3
#     Node 9, Type 0, BuildingBlock: BETDIP_clean_linker_0, # of connection points: 3
#     Node 10, Type 0, BuildingBlock: BETDIP_clean_linker_0, # of connection points: 3
#     Node 11, Type 0, BuildingBlock: BETDIP_clean_linker_0, # of connection points: 3
#     Node 12, Type 0, BuildingBlock: BETDIP_clean_linker_0, # of connection points: 3
#     Node 13, Type 0, BuildingBlock: BETDIP_clean_linker_0, # of connection points: 3
#     Node 14, Type 0, BuildingBlock: BETDIP_clean_linker_0, # of connection points: 3
#     Node 15, Type 0, BuildingBlock: BETDIP_clean_linker_0, # of connection points: 3
#     Node 16, Type 0, BuildingBlock: BETDIP_clean_linker_0, # of connection points: 3
#     Node 17, Type 0, BuildingBlock: BETDIP_clean_linker_0, # of connection points: 3
#     Node 18, Type 1, BuildingBlock: KUMBOL_clean_sbu_0, # of connection points: 6
#     Node 19, Type 1, BuildingBlock: KUMBOL_clean_sbu_0, # of connection points: 6
#     Node 20, Type 1, BuildingBlock: KUMBOL_clean_sbu_0, # of connection points: 6
#     Node 21, Type 1, BuildingBlock: KUMBOL_clean_sbu_0, # of connection points: 6
#     Node 22, Type 1, BuildingBlock: KUMBOL_clean_sbu_0, # of connection points: 6
#     Node 23, Type 1, BuildingBlock: KUMBOL_clean_sbu_0, # of connection points: 6
#     Node 24, Type 1, BuildingBlock: KUMBOL_clean_sbu_0, # of connection points: 6
#     Node 25, Type 1, BuildingBlock: KUMBOL_clean_sbu_0, # of connection points: 6
#     Node 26, Type 1, BuildingBlock: KUMBOL_clean_sbu_0, # of connection points: 6
#     Edge 27, Type (0, 1), BuildingBlock: CIFDUS_clean_linker_0, # of connection points: 2
#     Edge 28, Type (0, 1), BuildingBlock: CIFDUS_clean_linker_0, # of connection points: 2
#     Edge 29, Type (0, 1), BuildingBlock: CIFDUS_clean_linker_0, # of connection points: 2
#     Edge 30, Type (0, 1), BuildingBlock: CIFDUS_clean_linker_0, # of connection points: 2
#     Edge 31, Type (0, 1), BuildingBlock: CIFDUS_clean_linker_0, # of connection points: 2
#     Edge 32, Type (0, 1), BuildingBlock: CIFDUS_clean_linker_0, # of connection points: 2
#     Edge 33, Type (0, 1), BuildingBlock: CIFDUS_clean_linker_0, # of connection points: 2
#     Edge 34, Type (0, 1), BuildingBlock: CIFDUS_clean_linker_0, # of connection points: 2
#     Edge 35, Type (0, 1), BuildingBlock: CIFDUS_clean_linker_0, # of connection points: 2
#     Edge 36, Type (0, 1), BuildingBlock: CIFDUS_clean_linker_0, # of connection points: 2
#     Edge 37, Type (0, 1), BuildingBlock: CIFDUS_clean_linker_0, # of connection points: 2
#     Edge 38, Type (0, 1), BuildingBlock: CIFDUS_clean_linker_0, # of connection points: 2
#     Edge 39, Type (0, 1), BuildingBlock: CIFDUS_clean_linker_0, # of connection points: 2
#     Edge 40, Type (0, 1), BuildingBlock: CIFDUS_clean_linker_0, # of connection points: 2
#     Edge 41, Type (0, 1), BuildingBlock: CIFDUS_clean_linker_0, # of connection points: 2
#     Edge 42, Type (0, 1), BuildingBlock: CIFDUS_clean_linker_0, # of connection points: 2
#     Edge 43, Type (0, 1), BuildingBlock: CIFDUS_clean_linker_0, # of connection points: 2
#     Edge 44, Type (0, 1), BuildingBlock: CIFDUS_clean_linker_0, # of connection points: 2
#     Edge 45, Type (0, 1), BuildingBlock: CIFDUS_clean_linker_0, # of connection points: 2
#     Edge 46, Type (0, 1), BuildingBlock: CIFDUS_clean_linker_0, # of connection points: 2
#     Edge 47, Type (0, 1), BuildingBlock: CIFDUS_clean_linker_0, # of connection points: 2
#     Edge 48, Type (0, 1), BuildingBlock: CIFDUS_clean_linker_0, # of connection points: 2
#     Edge 49, Type (0, 1), BuildingBlock: CIFDUS_clean_linker_0, # of connection points: 2
#     Edge 50, Type (0, 1), BuildingBlock: CIFDUS_clean_linker_0, # of connection points: 2
#     Edge 51, Type (0, 1), BuildingBlock: CIFDUS_clean_linker_0, # of connection points: 2
#     Edge 52, Type (0, 1), BuildingBlock: CIFDUS_clean_linker_0, # of connection points: 2
#     Edge 53, Type (0, 1), BuildingBlock: CIFDUS_clean_linker_0, # of connection points: 2
#     Edge 54, Type (0, 1), BuildingBlock: CIFDUS_clean_linker_0, # of connection points: 2
#     Edge 55, Type (0, 1), BuildingBlock: CIFDUS_clean_linker_0, # of connection points: 2
#     Edge 56, Type (0, 1), BuildingBlock: CIFDUS_clean_linker_0, # of connection points: 2
#     Edge 57, Type (0, 1), BuildingBlock: CIFDUS_clean_linker_0, # of connection points: 2
#     Edge 58, Type (0, 1), BuildingBlock: CIFDUS_clean_linker_0, # of connection points: 2
#     Edge 59, Type (0, 1), BuildingBlock: CIFDUS_clean_linker_0, # of connection points: 2
#     Edge 60, Type (0, 1), BuildingBlock: CIFDUS_clean_linker_0, # of connection points: 2
#     Edge 61, Type (0, 1), BuildingBlock: CIFDUS_clean_linker_0, # of connection points: 2
#     Edge 62, Type (0, 1), BuildingBlock: CIFDUS_clean_linker_0, # of connection points: 2
#     Edge 63, Type (0, 1), BuildingBlock: CIFDUS_clean_linker_0, # of connection points: 2
#     Edge 64, Type (0, 1), BuildingBlock: CIFDUS_clean_linker_0, # of connection points: 2
#     Edge 65, Type (0, 1), BuildingBlock: CIFDUS_clean_linker_0, # of connection points: 2
#     Edge 66, Type (0, 1), BuildingBlock: CIFDUS_clean_linker_0, # of connection points: 2
#     Edge 67, Type (0, 1), BuildingBlock: CIFDUS_clean_linker_0, # of connection points: 2
#     Edge 68, Type (0, 1), BuildingBlock: CIFDUS_clean_linker_0, # of connection points: 2
#     Edge 69, Type (0, 1), BuildingBlock: CIFDUS_clean_linker_0, # of connection points: 2
#     Edge 70, Type (0, 1), BuildingBlock: CIFDUS_clean_linker_0, # of connection points: 2
#     Edge 71, Type (0, 1), BuildingBlock: CIFDUS_clean_linker_0, # of connection points: 2
#     Edge 72, Type (0, 1), BuildingBlock: CIFDUS_clean_linker_0, # of connection points: 2
#     Edge 73, Type (0, 1), BuildingBlock: CIFDUS_clean_linker_0, # of connection points: 2
#     Edge 74, Type (0, 1), BuildingBlock: CIFDUS_clean_linker_0, # of connection points: 2
#     Edge 75, Type (0, 1), BuildingBlock: CIFDUS_clean_linker_0, # of connection points: 2
#     Edge 76, Type (0, 1), BuildingBlock: CIFDUS_clean_linker_0, # of connection points: 2
#     Edge 77, Type (0, 1), BuildingBlock: CIFDUS_clean_linker_0, # of connection points: 2
#     Edge 78, Type (0, 1), BuildingBlock: CIFDUS_clean_linker_0, # of connection points: 2
#     Edge 79, Type (0, 1), BuildingBlock: CIFDUS_clean_linker_0, # of connection points: 2
#     Edge 80, Type (0, 1), BuildingBlock: CIFDUS_clean_linker_0, # of connection points: 2
# Relax obj value: 0.026
# Max RMSD: 0.173
# Mean RMSD: 0.124
data_MOF--net-eea--node1-KUMBOL_clean_sbu_0--node2-BETDIP_clean_linker_0--edge1-CIFDUS_clean_linker_0
_symmetry_space_group_name_H-M    P1
_symmetry_Int_Tables_number       1
_symmetry_cell_setting            triclinic
loop_
_symmetry_equiv_pos_as_xyz
'x, y, z'
_cell_length_a     47.237787
_cell_length_b     48.599986
_cell_length_c     59.928412
_cell_angle_alpha  89.876331
_cell_angle_beta   89.752806
_cell_angle_gamma 120.03908
loop_
_atom_site_label
_atom_site_type_symbol
_atom_site_fract_x
_atom_site_fract_y
_atom_site_fract_z
_atom_type_partial_charge
H0 H 0.22473 0.08881 0.38035 0.0
H1 H 0.26974 0.161 0.43054 0.0
H2 H 0.28289 0.08011 0.43218 0.0
H3 H 0.22648 0.16623 0.42481 0.0
C4 C 0.22304 0.16398 0.40686 0.0
C5 C 0.23953 0.09776 0.39521 0.0
C6 C 0.25361 0.08098 0.40488 0.0
C7 C 0.24431 0.12613 0.40469 0.0
C8 C 0.26465 0.13854 0.42347 0.0
C9 C 0.27842 0.12191 0.43348 0.0
C10 C 0.27255 0.09311 0.42422 0.0
N11 N 0.22875 0.1419 0.39497 0.0
H12 H 0.93901 0.1406 0.38189 0.0
H13 H 0.86467 0.10509 0.43316 0.0
H14 H 0.94083 0.2024 0.43416 0.0
H15 H 0.86035 0.0592 0.42561 0.0
C16 C 0.86262 0.05943 0.40757 0.0
C17 C 0.92887 0.14432 0.39707 0.0
C18 C 0.9434 0.17488 0.40671 0.0
C19 C 0.90071 0.11863 0.40671 0.0
C20 C 0.88695 0.12406 0.42593 0.0
C21 C 0.90141 0.15402 0.43605 0.0
C22 C 0.92974 0.17916 0.42646 0.0
N23 N 0.88568 0.08802 0.39637 0.0
H24 H 0.89719 0.82649 0.37615 0.0
H25 H 0.92546 0.78566 0.42921 0.0
H26 H 0.83323 0.78344 0.43264 0.0
H27 H 0.94369 0.77068 0.39546 0.0
C28 C 0.95837 0.79498 0.38944 0.0
C29 C 0.89208 0.81455 0.39219 0.0
C30 C 0.86213 0.80528 0.40314 0.0
C31 C 0.91471 0.80686 0.40127 0.0
C32 C 0.9079 0.79127 0.42213 0.0
C33 C 0.8787 0.78286 0.43384 0.0
C34 C 0.85585 0.78968 0.42395 0.0
N35 N 0.94416 0.8149 0.38934 0.0
H36 H 0.08869 0.20076 0.66269 0.0
H37 H 0.16065 0.23713 0.61031 0.0
H38 H 0.07528 0.24718 0.60561 0.0
H39 H 0.14675 0.17409 0.62753 0.0
C40 C 0.16007 0.19106 0.64064 0.0
C41 C 0.0968 0.21239 0.64659 0.0
C42 C 0.07768 0.22249 0.63497 0.0
C43 C 0.12653 0.21737 0.63758 0.0
C44 C 0.13745 0.23297 0.61697 0.0
C45 C 0.11949 0.24438 0.60542 0.0
C46 C 0.08939 0.23864 0.61442 0.0
N47 N 0.14671 0.209 0.65004 0.0
H48 H 0.81999 0.89712 0.64501 0.0
H49 H 0.76139 0.90777 0.59489 0.0
H50 H 0.76304 0.82084 0.59915 0.0
H51 H 0.7988 0.95801 0.59591 0.0
C52 C 0.80521 0.96261 0.61341 0.0
C53 C 0.80352 0.88752 0.63099 0.0
C54 C 0.79196 0.85593 0.62402 0.0
C55 C 0.79377 0.90695 0.61997 0.0
C56 C 0.77111 0.89407 0.60249 0.0
C57 C 0.76006 0.86315 0.59486 0.0
C58 C 0.77077 0.84436 0.60557 0.0
N59 N 0.80638 0.93905 0.62696 0.0
H60 H 0.12334 0.91325 0.64763 0.0
H61 H 0.10062 0.85196 0.5911 0.0
H62 H 0.18704 0.94432 0.58988 0.0
H63 H 0.0635 0.88435 0.64932 0.0
C64 C 0.05798 0.86042 0.6452 0.0
C65 C 0.12916 0.90937 0.63086 0.0
C66 C 0.15857 0.93244 0.62039 0.0
C67 C 0.10802 0.8805 0.62005 0.0
C68 C 0.11651 0.87466 0.5989 0.0
C69 C 0.14492 0.89747 0.58778 0.0
C70 C 0.1656 0.92632 0.59863 0.0
N71 N 0.07873 0.85599 0.63011 0.0
H72 H 0.86813 0.42071 0.7234 0.0
H73 H 0.91385 0.48042 0.78035 0.0
H74 H 0.90674 0.38942 0.77661 0.0
H75 H 0.88526 0.50234 0.77173 0.0
C76 C 0.88262 0.50127 0.75373 0.0
C77 C 0.87983 0.42449 0.7395 0.0
C78 C 0.88678 0.40161 0.74834 0.0
C79 C 0.8886 0.45272 0.75113 0.0
C80 C 0.90535 0.45832 0.77152 0.0
C81 C 0.91161 0.43544 0.78084 0.0
C82 C 0.90185 0.40705 0.76934 0.0
N83 N 0.88134 0.47546 0.74163 0.0
H84 H 0.60587 0.47044 0.70709 0.0
H85 H 0.54303 0.43068 0.76448 0.0
H86 H 0.61959 0.52828 0.76497 0.0
H87 H 0.50542 0.40717 0.7362 0.0
C88 C 0.51842 0.39801 0.72655 0.0
C89 C 0.59906 0.47301 0.72392 0.0
C90 C 0.61646 0.50251 0.7349 0.0
C91 C 0.57165 0.4473 0.73418 0.0
C92 C 0.56299 0.45081 0.75605 0.0
C93 C 0.57992 0.47991 0.76729 0.0
C94 C 0.60664 0.50557 0.75657 0.0
N95 N 0.55258 0.41825 0.72233 0.0
H96 H 0.56108 0.1381 0.71176 0.0
H97 H 0.59149 0.10243 0.76724 0.0
H98 H 0.49377 0.08721 0.76521 0.0
H99 H 0.61504 0.09136 0.7343 0.0
C100 C 0.62829 0.11589 0.72851 0.0
C101 C 0.55592 0.12616 0.7278 0.0
C102 C 0.52431 0.11286 0.73721 0.0
C103 C 0.58024 0.12204 0.73837 0.0
C104 C 0.57302 0.10572 0.75902 0.0
C105 C 0.54179 0.09292 0.76881 0.0
C106 C 0.51792 0.09696 0.75781 0.0
N107 N 0.61135 0.13333 0.72776 0.0
H108 H 0.7487 0.53562 0.98376 0.0
H109 H 0.82459 0.57002 0.93381 0.0
H110 H 0.74239 0.5839 0.92505 0.0
H111 H 0.85336 0.58578 0.9707 0.0
C112 C 0.842 0.56086 0.9755 0.0
C113 C 0.75833 0.54705 0.96779 0.0
C114 C 0.74145 0.5591 0.95534 0.0
C115 C 0.78887 0.55173 0.96034 0.0
C116 C 0.8016 0.5672 0.9398 0.0
C117 C 0.78507 0.57884 0.92685 0.0
C118 C 0.75497 0.57446 0.93473 0.0
N119 N 0.80723 0.54172 0.97367 0.0
H120 H 0.46121 0.20345 0.98422 0.0
H121 H 0.42828 0.23389 0.92747 0.0
H122 H 0.43026 0.14679 0.92442 0.0
H123 H 0.40467 0.24682 0.95779 0.0
C124 C 0.42783 0.26133 0.96622 0.0
C125 C 0.45234 0.19971 0.96723 0.0
C126 C 0.44671 0.1722 0.95553 0.0
C127 C 0.44482 0.22162 0.95741 0.0
C128 C 0.43298 0.21656 0.93544 0.0
C129 C 0.42746 0.18957 0.9235 0.0
C130 C 0.43463 0.16773 0.9336 0.0
N131 N 0.4488 0.24847 0.96968 0.0
H132 H 0.80429 0.25339 0.99038 0.0
H133 H 0.78414 0.18524 0.93814 0.0
H134 H 0.87485 0.2737 0.93801 0.0
H135 H 0.74514 0.22472 0.99215 0.0
C136 C 0.73921 0.20042 0.98895 0.0
C137 C 0.81123 0.24678 0.97493 0.0
C138 C 0.84248 0.26699 0.96553 0.0
C139 C 0.78998 0.21715 0.96487 0.0
C140 C 0.8001 0.20831 0.94544 0.0
C141 C 0.83073 0.22848 0.93572 0.0
C142 C 0.85138 0.2578 0.94572 0.0
N143 N 0.75936 0.19438 0.97441 0.0
H144 H 0.56434 0.7505 0.04283 0.0
H145 H 0.6026 0.81489 0.09832 0.0
H146 H 0.60923 0.73026 0.09815 0.0
H147 H 0.60989 0.85019 0.07152 0.0
C148 C 0.58709 0.83823 0.06234 0.0
C149 C 0.57616 0.75659 0.05896 0.0
C150 C 0.58653 0.73685 0.06899 0.0
C151 C 0.58219 0.78504 0.06922 0.0
C152 C 0.59807 0.79332 0.09004 0.0
C153 C 0.60863 0.77403 0.10024 0.0
C154 C 0.60218 0.74569 0.0898 0.0
N155 N 0.57223 0.80496 0.05831 0.0
H156 H 0.28439 0.80884 0.04486 0.0
H157 H 0.21969 0.77215 0.10199 0.0
H158 H 0.29765 0.86869 0.10133 0.0
H159 H 0.20901 0.72585 0.0897 0.0
C160 C 0.20961 0.72743 0.07163 0.0
C161 C 0.27719 0.81202 0.06141 0.0
C162 C 0.29413 0.84205 0.07173 0.0
C163 C 0.25039 0.78623 0.07221 0.0
C164 C 0.2409 0.79094 0.09362 0.0
C165 C 0.25788 0.82054 0.1042 0.0
C166 C 0.28429 0.84586 0.09311 0.0
N167 N 0.23248 0.75648 0.06086 0.0
H168 H 0.20795 0.45837 0.04445 0.0
H169 H 0.25172 0.44001 0.10114 0.0
H170 H 0.15828 0.43489 0.10789 0.0
H171 H 0.30064 0.49336 0.07489 0.0
C172 C 0.29369 0.4735 0.06364 0.0
C173 C 0.2074 0.45305 0.06207 0.0
C174 C 0.18006 0.44733 0.07521 0.0
C175 C 0.23377 0.4512 0.07155 0.0
C176 C 0.23225 0.44299 0.09427 0.0
C177 C 0.20472 0.43621 0.10755 0.0
C178 C 0.17926 0.43921 0.09784 0.0
N179 N 0.26004 0.45431 0.05776 0.0
H180 H 0.41915 0.87701 0.32375 0.0
H181 H 0.48674 0.90657 0.2687 0.0
H182 H 0.39932 0.91325 0.26379 0.0
H183 H 0.47773 0.84882 0.28996 0.0
C184 C 0.49078 0.86677 0.30257 0.0
C185 C 0.42584 0.88633 0.30692 0.0
C186 C 0.4051 0.89378 0.29465 0.0
C187 C 0.45524 0.89085 0.29754 0.0
C188 C 0.46402 0.9031 0.27577 0.0
C189 C 0.44429 0.91171 0.26342 0.0
C190 C 0.4148 0.9068 0.27306 0.0
N191 N 0.477 0.88515 0.31055 0.0
H192 H 0.13219 0.54419 0.31543 0.0
H193 H 0.10179 0.57867 0.25974 0.0
H194 H 0.08475 0.48349 0.25906 0.0
H195 H 0.14411 0.62501 0.26961 0.0
C196 C 0.14328 0.62437 0.28772 0.0
C197 C 0.12115 0.54019 0.29908 0.0
C198 C 0.10858 0.51037 0.28864 0.0
C199 C 0.11983 0.56529 0.28852 0.0
C200 C 0.10417 0.55998 0.26776 0.0
C201 C 0.09136 0.53047 0.25714 0.0
C202 C 0.09409 0.50603 0.26752 0.0
N203 N 0.13389 0.5954 0.29925 0.0
H204 H 0.45977 0.57815 0.31834 0.0
H205 H 0.44855 0.51862 0.26223 0.0
H206 H 0.52738 0.61524 0.26298 0.0
H207 H 0.40211 0.5423 0.32104 0.0
C208 C 0.40006 0.51981 0.31632 0.0
C209 C 0.46753 0.57528 0.30192 0.0
C210 C 0.49629 0.60034 0.29225 0.0
C211 C 0.44997 0.54588 0.2908 0.0
C212 C 0.46143 0.54166 0.27021 0.0
C213 C 0.48954 0.56644 0.26013 0.0
C214 C 0.50625 0.59578 0.27106 0.0
N215 N 0.42201 0.51916 0.30028 0.0
Gd216 Gd 0.52976 0.0311 0.04963 0.0
Gd217 Gd 0.50992 0.99465 0.99338 0.0
C218 C 0.41342 0.90283 0.98149 0.0
C219 C 0.43176 0.8651 0.97394 0.0
C220 C 0.47128 0.92052 0.98125 0.0
C221 C 0.44624 0.92705 0.9841 0.0
C222 C 0.46443 0.88967 0.97554 0.0
C223 C 0.40628 0.87167 0.97693 0.0
C224 C 0.38886 0.91085 0.98295 0.0
C225 C 0.39743 0.94253 0.98612 0.0
N226 N 0.45407 0.95745 0.98833 0.0
C227 C 0.43036 0.96572 0.98851 0.0
H228 H 0.43654 0.99003 0.99111 0.0
C229 C 0.52805 0.94068 0.97672 0.0
N230 N 0.50248 0.9449 0.98263 0.0
C231 C 0.52254 0.91046 0.97115 0.0
C232 C 0.4906 0.88472 0.97088 0.0
H233 H 0.55279 0.96049 0.97706 0.0
H234 H 0.38121 0.85267 0.97511 0.0
H235 H 0.60427 0.03901 0.05488 0.0
H236 H 0.36334 0.89294 0.98112 0.0
H237 H 0.37868 0.9491 0.98687 0.0
H238 H 0.42596 0.84115 0.9698 0.0
H239 H 0.48286 0.06267 0.06215 0.0
H240 H 0.67342 0.13685 0.06678 0.0
H241 H 0.661 0.0815 0.06116 0.0
H242 H 0.60611 0.1844 0.07397 0.0
H243 H 0.54291 0.90703 0.9671 0.0
H244 H 0.48638 0.86136 0.96646 0.0
H245 H 0.65274 0.17521 0.07118 0.0
H246 H 0.48967 0.1152 0.07126 0.0
N247 N 0.58455 0.06985 0.05645 0.0
C248 C 0.64839 0.11823 0.06409 0.0
C249 C 0.64147 0.08701 0.06098 0.0
C250 C 0.6228 0.12489 0.06427 0.0
C251 C 0.59069 0.0998 0.06056 0.0
C252 C 0.60919 0.06292 0.05745 0.0
N253 N 0.53396 0.07984 0.05965 0.0
C254 C 0.56456 0.10498 0.0622 0.0
C255 C 0.51095 0.11267 0.06868 0.0
C256 C 0.54232 0.13909 0.07036 0.0
C257 C 0.50717 0.08295 0.06361 0.0
C258 C 0.56963 0.13537 0.06745 0.0
H259 H 0.54517 0.16208 0.07436 0.0
O260 O 0.50112 0.0172 0.08032 0.0
O261 O 0.49418 0.99121 0.02863 0.0
O262 O 0.49252 0.0306 0.99895 0.0
O263 O 0.52702 0.06561 0.02594 0.0
O264 O 0.47456 0.00918 0.05085 0.0
O265 O 0.54545 0.0146 0.07824 0.0
O266 O 0.53868 0.00929 0.96275 0.0
O267 O 0.54629 0.03384 0.0145 0.0
O268 O 0.54947 0.99734 0.04417 0.0
O269 O 0.51822 0.96197 0.01602 0.0
O270 O 0.56463 0.01523 0.99142 0.0
O271 O 0.49354 0.01031 0.9646 0.0
C272 C 0.46753 0.98742 0.03617 0.0
C273 C 0.60166 0.16079 0.07015 0.0
C274 C 0.62821 0.15555 0.06856 0.0
C275 C 0.5216 0.0115 0.09106 0.0
C276 C 0.53065 0.02515 0.11362 0.0
C277 C 0.55051 0.05807 0.11624 0.0
C278 C 0.51942 0.00537 0.13271 0.0
C279 C 0.52849 0.01852 0.15427 0.0
C280 C 0.55921 0.07123 0.13747 0.0
C281 C 0.54837 0.0517 0.15633 0.0
C282 C 0.50657 0.05863 0.00911 0.0
C283 C 0.57242 0.0365 1.00662 0.0
C284 C 0.51777 0.01418 0.95189 0.0
C285 C 0.50941 1.0005 0.9293 0.0
C286 C 0.49165 0.96747 0.92654 0.0
C287 C 0.51991 0.02045 0.91031 0.0
C288 C 0.51282 0.00741 0.8886 0.0
C289 C 0.48483 0.95438 0.90523 0.0
C290 C 0.49543 0.97407 0.88643 0.0
C291 C 0.53841 0.97011 0.03322 0.0
H292 H 0.55931 0.07361 0.10189 0.0
H293 H 0.50422 0.97988 0.13075 0.0
H294 H 0.57446 0.09669 0.13931 0.0
H295 H 0.55537 0.06263 0.17262 0.0
H296 H 0.48324 0.95178 0.94082 0.0
H297 H 0.53324 0.046 0.91251 0.0
H298 H 0.47141 0.92882 0.90327 0.0
H299 H 0.49024 0.96304 0.87015 0.0
Gd300 Gd 0.98957 0.49674 0.0447 0.0
Gd301 Gd 0.03278 0.50837 0.99101 0.0
C302 C 0.12392 0.49857 0.98538 0.0
C303 C 0.16579 0.55222 0.97513 0.0
C304 C 0.10947 0.53946 0.98064 0.0
C305 C 0.10052 0.50851 0.98587 0.0
C306 C 0.14201 0.56149 0.97456 0.0
C307 C 0.15676 0.5208 0.98058 0.0
C308 C 0.11344 0.46644 0.98911 0.0
C309 C 0.0802 0.44498 0.99233 0.0
N310 N 0.06853 0.48766 0.99016 0.0
C311 C 0.05791 0.45597 0.99248 0.0
H312 H 0.03236 0.43906 0.99511 0.0
C313 C 0.09238 0.57622 0.97161 0.0
N314 N 0.08578 0.54739 0.97993 0.0
C315 C 0.12431 0.59896 0.96543 0.0
C316 C 0.14936 0.59176 0.96728 0.0
H317 H 0.07314 0.58199 0.97029 0.0
H318 H 0.17516 0.51371 0.98038 0.0
H319 H 0.98742 0.5647 0.04684 0.0
H320 H 0.13065 0.45787 0.98898 0.0
H321 H 0.07172 0.41996 0.99479 0.0
H322 H 0.19101 0.56889 0.97077 0.0
H323 H 0.95004 0.41937 0.05807 0.0
H324 H 0.8874 0.54135 0.05168 0.0
H325 H 0.94622 0.5816 0.04931 0.0
H326 H 0.82941 0.42785 0.05904 0.0
H327 H 0.12958 0.62204 0.95934 0.0
H328 H 0.17406 0.60937 0.96243 0.0
H329 H 0.84388 0.4838 0.05483 0.0
H330 H 0.89316 0.37611 0.06458 0.0
N331 N 0.95229 0.51531 0.04732 0.0
C332 C 0.90538 0.53377 0.05066 0.0
C333 C 0.93856 0.55657 0.04938 0.0
C334 C 0.89588 0.50149 0.05126 0.0
C335 C 0.92027 0.49292 0.04979 0.0
C336 C 0.96185 0.54687 0.04798 0.0
N337 N 0.93657 0.45449 0.05238 0.0
C338 C 0.91212 0.46149 0.05242 0.0
C339 C 0.89816 0.40001 0.06112 0.0
C340 C 0.87253 0.40652 0.06018 0.0
C341 C 0.9303 0.42452 0.05753 0.0
C342 C 0.87939 0.43767 0.05618 0.0
H343 H 0.84767 0.38751 0.06306 0.0
O344 O 0.99563 0.48166 0.07758 0.0
O345 O 0.03198 0.49846 0.02719 0.0
O346 O 0.99287 0.4566 0.9979 0.0
O347 O 0.95512 0.46102 0.02016 0.0
O348 O 1.00964 0.46325 0.0506 0.0
O349 O 1.00379 0.52937 0.0725 0.0
O350 O 0.0221 0.52004 0.95826 0.0
O351 O 0.99195 0.5093 0.00892 0.0
O352 O 0.02902 0.54857 0.0395 0.0
O353 O 0.06642 0.55016 0.01294 0.0
O354 O 0.01585 0.54386 0.9849 0.0
O355 O 0.01611 0.47353 0.96439 0.0
C356 C 0.03397 0.47644 0.03687 0.0
C357 C 0.85477 0.44585 0.0564 0.0
C358 C 0.86301 0.47771 0.05398 0.0
C359 C 1.00195 0.50837 0.08691 0.0
C360 C 0.98446 0.50571 0.10784 0.0
C361 C 0.95106 0.49591 0.10795 0.0
C362 C 1.00149 0.51292 0.12804 0.0
C363 C 0.98529 0.51023 0.1484 0.0
C364 C 0.93482 0.4933 0.12802 0.0
C365 C 0.95175 0.50036 0.14816 0.0
C366 C 0.96272 0.44515 1.00587 0.0
C367 C 0.99233 0.53265 0.99928 0.0
C368 C 0.01561 0.49297 0.94959 0.0
C369 C 0.0313 0.49477 0.92798 0.0
C370 C 0.06434 0.50326 0.92679 0.0
C371 C 0.01329 0.48891 0.90823 0.0
C372 C 0.02837 0.49211 0.88733 0.0
C373 C 0.07939 0.50635 0.90612 0.0
C374 C 0.06162 0.501 0.88647 0.0
C375 C 0.05841 0.56277 0.02979 0.0
H376 H 0.93753 0.49022 0.09262 0.0
H377 H 0.02742 0.52086 0.12784 0.0
H378 H 0.90899 0.48559 0.12798 0.0
H379 H 0.93847 0.49763 0.16355 0.0
H380 H 0.07852 0.50761 0.94177 0.0
H381 H 0.98778 0.48252 0.90911 0.0
H382 H 0.10494 0.513 0.90532 0.0
H383 H 0.07376 0.50348 0.8706 0.0
Gd384 Gd 0.49942 0.50767 0.98156 0.0
Gd385 Gd 0.52564 0.50019 0.03788 0.0
C386 C 0.62203 0.50185 0.04908 0.0
C387 C 0.60337 0.44774 0.06149 0.0
C388 C 0.56404 0.46451 0.05281 0.0
C389 C 0.58922 0.49447 0.04715 0.0
C390 C 0.5708 0.44098 0.06049 0.0
C391 C 0.62894 0.47812 0.05578 0.0
C392 C 0.64688 0.53307 0.04484 0.0
C393 C 0.6387 0.55623 0.03966 0.0
N394 N 0.58165 0.51691 0.04101 0.0
C395 C 0.60579 0.5478 0.03813 0.0
H396 H 0.59991 0.56596 0.03402 0.0
C397 C 0.50746 0.43096 0.05971 0.0
N398 N 0.53291 0.45889 0.05183 0.0
C399 C 0.5129 0.40678 0.06733 0.0
C400 C 0.54468 0.41167 0.06748 0.0
H401 H 0.48285 0.42705 0.05947 0.0
H402 H 0.65398 0.48325 0.05714 0.0
H403 H 0.42634 0.44035 0.98514 0.0
H404 H 0.6724 0.53968 0.04605 0.0
H405 H 0.65773 0.58058 0.03676 0.0
H406 H 0.60907 0.42988 0.06715 0.0
H407 H 0.53921 0.58094 0.95974 0.0
H408 H 0.35137 0.4644 0.97748 0.0
H409 H 0.36798 0.4242 0.98398 0.0
H410 H 0.41115 0.57518 0.95853 0.0
H411 H 0.49261 0.3844 0.07306 0.0
H412 H 0.54884 0.39295 0.07346 0.0
H413 H 0.36776 0.52101 0.9684 0.0
H414 H 0.52731 0.62305 0.94824 0.0
N415 N 0.44296 0.48942 0.97959 0.0
C416 C 0.3771 0.47165 0.97788 0.0
C417 C 0.38638 0.44888 0.98146 0.0
C418 C 0.40113 0.50333 0.97408 0.0
C419 C 0.43427 0.51151 0.97485 0.0
C420 C 0.4196 0.45818 0.98209 0.0
N421 N 0.48998 0.54822 0.96889 0.0
C422 C 0.45858 0.5419 0.96926 0.0
C423 C 0.50778 0.60038 0.95422 0.0
C424 C 0.47579 0.59481 0.95561 0.0
C425 C 0.51441 0.57649 0.96062 0.0
C426 C 0.45061 0.5651 0.96283 0.0
H427 H 0.47069 0.6133 0.95055 0.0
O428 O 0.52343 0.51815 0.94911 0.0
O429 O 0.53825 0.50639 1.00169 0.0
O430 O 0.5435 0.55198 0.02847 0.0
O431 O 0.50733 0.55018 1.00142 0.0
O432 O 0.55407 0.53991 0.97668 0.0
O433 O 0.4803 0.47238 0.95523 0.0
O434 O 0.50172 0.4915 0.07026 0.0
O435 O 0.48724 0.50145 0.01756 0.0
O436 O 0.48317 0.45588 0.99049 0.0
O437 O 0.51845 0.45778 0.01834 0.0
O438 O 0.47044 0.46909 0.04292 0.0
O439 O 0.54538 0.53665 0.06339 0.0
C440 C 0.56362 0.52776 0.99198 0.0
C441 C 0.41777 0.55759 0.96318 0.0
C442 C 0.39306 0.52675 0.96881 0.0
C443 C 0.50167 0.49124 0.94046 0.0
C444 C 0.48874 0.49333 0.91859 0.0
C445 C 0.46366 0.50072 0.91726 0.0
C446 C 0.50163 0.48813 0.89884 0.0
C447 C 0.4892 0.48997 0.87786 0.0
C448 C 0.45161 0.50303 0.89659 0.0
C449 C 0.46421 0.4977 0.87703 0.0
C450 C 0.52914 0.56518 0.01721 0.0
C451 C 0.46133 0.48108 0.02723 0.0
C452 C 0.52377 0.51873 0.07836 0.0
C453 C 0.53631 0.51768 0.1006 0.0
C454 C 0.56134 0.51041 0.10299 0.0
C455 C 0.52286 0.52368 0.11969 0.0
C456 C 0.53439 0.52248 0.14115 0.0
C457 C 0.57272 0.50892 0.12413 0.0
C458 C 0.55937 0.51483 0.14309 0.0
C459 C 0.49706 0.44268 1.00235 0.0
H460 H 0.45334 0.50463 0.93218 0.0
H461 H 0.5208 0.4821 0.89985 0.0
H462 H 0.43235 0.5089 0.89573 0.0
H463 H 0.45449 0.49983 0.86119 0.0
H464 H 0.57211 0.50589 0.08857 0.0
H465 H 0.50377 0.52967 0.11778 0.0
H466 H 0.59192 0.50309 0.12584 0.0
H467 H 0.56839 0.51308 0.1593 0.0
Gd468 Gd 0.17919 0.36162 0.38499 0.0
Gd469 Gd 0.1622 0.32763 0.32793 0.0
C470 C 0.06818 0.23419 0.31471 0.0
C471 C 0.08884 0.19846 0.30641 0.0
C472 C 0.12649 0.25399 0.31482 0.0
C473 C 0.10053 0.25917 0.31778 0.0
C474 C 0.12105 0.22385 0.3084 0.0
C475 C 0.06244 0.20362 0.30961 0.0
C476 C 0.04271 0.24096 0.31612 0.0
C477 C 0.04997 0.27222 0.31958 0.0
N478 N 0.10704 0.2891 0.32232 0.0
C479 C 0.0825 0.29623 0.32232 0.0
H480 H 0.08777 0.32026 0.32511 0.0
C481 C 0.18364 0.2765 0.31031 0.0
N482 N 0.15723 0.27914 0.31656 0.0
C483 C 0.17952 0.24706 0.30388 0.0
C484 C 0.14811 0.22048 0.3033 0.0
H485 H 0.20796 0.29699 0.31091 0.0
H486 H 0.03774 0.18404 0.30742 0.0
H487 H 0.25416 0.36962 0.38879 0.0
H488 H 0.01751 0.22243 0.31395 0.0
H489 H 0.03052 0.27784 0.32023 0.0
H490 H 0.08412 0.17501 0.30175 0.0
H491 H 0.1321 0.39244 0.39859 0.0
H492 H 0.32263 0.46631 0.4044 0.0
H493 H 0.31063 0.41175 0.3959 0.0
H494 H 0.2549 0.51278 0.41517 0.0
H495 H 0.20054 0.24487 0.29948 0.0
H496 H 0.14497 0.19772 0.29827 0.0
H497 H 0.30164 0.50392 0.41138 0.0
H498 H 0.13864 0.44417 0.40987 0.0
N499 N 0.23394 0.39994 0.3926 0.0
C500 C 0.29767 0.44786 0.40128 0.0
C501 C 0.29097 0.41708 0.39653 0.0
C502 C 0.27195 0.45428 0.40245 0.0
C503 C 0.23992 0.42944 0.39811 0.0
C504 C 0.25877 0.39319 0.3925 0.0
N505 N 0.18325 0.40964 0.39671 0.0
C506 C 0.21374 0.43447 0.40021 0.0
C507 C 0.15998 0.4418 0.40713 0.0
C508 C 0.19128 0.46796 0.40987 0.0
C509 C 0.15636 0.41253 0.40081 0.0
C510 C 0.21865 0.4644 0.40672 0.0
H511 H 0.19402 0.49058 0.41485 0.0
O512 O 0.14898 0.3453 0.41499 0.0
O513 O 0.14457 0.32235 0.36301 0.0
O514 O 0.14371 0.36269 0.3337 0.0
O515 O 0.17569 0.39631 0.3623 0.0
O516 O 0.12422 0.34006 0.38495 0.0
O517 O 0.19391 0.34378 0.41331 0.0
O518 O 0.19057 0.34285 0.29709 0.0
O519 O 0.19677 0.36622 0.35003 0.0
O520 O 0.20001 0.32921 0.37893 0.0
O521 O 0.17018 0.29441 0.35025 0.0
O522 O 0.21748 0.35082 0.3266 0.0
O523 O 0.14536 0.34357 0.29953 0.0
C524 C 0.11768 0.31861 0.3701 0.0
C525 C 0.25058 0.48953 0.41032 0.0
C526 C 0.27719 0.48448 0.40817 0.0
C527 C 0.16917 0.33923 0.42573 0.0
C528 C 0.17662 0.35088 0.44885 0.0
C529 C 0.1976 0.38324 0.45306 0.0
C530 C 0.1626 0.32953 0.46691 0.0
C531 C 0.16971 0.34046 0.48913 0.0
C532 C 0.20455 0.39427 0.47493 0.0
C533 C 0.19076 0.37315 0.49284 0.0
C534 C 0.15666 0.39003 0.34474 0.0
C535 C 0.22381 0.37112 0.34232 0.0
C536 C 0.16936 0.34764 0.2865 0.0
C537 C 0.16034 0.33385 0.26388 0.0
C538 C 0.14541 0.30085 0.26121 0.0
C539 C 0.16628 0.35335 0.24485 0.0
C540 C 0.15672 0.33959 0.22346 0.0
C541 C 0.13649 0.28727 0.24014 0.0
C542 C 0.14199 0.3064 0.22142 0.0
C543 C 0.189 0.30198 0.36815 0.0
H544 H 0.20861 0.39998 0.43946 0.0
H545 H 0.14661 0.30446 0.46364 0.0
H546 H 0.22067 0.41934 0.47803 0.0
H547 H 0.19631 0.38251 0.50962 0.0
H548 H 0.14056 0.28548 0.27541 0.0
H549 H 0.17751 0.37887 0.24674 0.0
H550 H 0.12505 0.26176 0.23831 0.0
H551 H 0.13464 0.29518 0.20523 0.0
Gd552 Gd 0.65264 0.82011 0.37749 0.0
Gd553 Gd 0.6974 0.84173 0.3239 0.0
C554 C 0.79744 0.8498 0.31569 0.0
C555 C 0.83271 0.90632 0.3086 0.0
C556 C 0.77427 0.88432 0.31414 0.0
C557 C 0.77034 0.85446 0.31737 0.0
C558 C 0.80532 0.91044 0.30905 0.0
C559 C 0.82878 0.87604 0.31197 0.0
C560 C 0.79202 0.81877 0.31693 0.0
C561 C 0.76007 0.79331 0.31874 0.0
N562 N 0.73964 0.82962 0.32052 0.0
C563 C 0.73398 0.79918 0.32013 0.0
H564 H 0.70944 0.7793 0.32162 0.0
C565 C 0.74908 0.91523 0.3082 0.0
N566 N 0.74724 0.88732 0.31448 0.0
C567 C 0.77934 0.94184 0.30296 0.0
C568 C 0.80767 0.93959 0.30375 0.0
H569 H 0.7273 0.91717 0.30776 0.0
H570 H 0.84995 0.873 0.31091 0.0
H571 H 0.64745 0.88664 0.3806 0.0
H572 H 0.81218 0.81417 0.3158 0.0
H573 H 0.75551 0.76916 0.31917 0.0
H574 H 0.85685 0.92618 0.305 0.0
H575 H 0.61541 0.7429 0.39085 0.0
H576 H 0.54649 0.85977 0.38489 0.0
H577 H 0.60481 0.90149 0.38308 0.0
H578 H 0.49199 0.74625 0.39137 0.0
H579 H 0.78081 0.9641 0.29845 0.0
H580 H 0.83108 0.96024 0.2997 0.0
H581 H 0.50445 0.80168 0.38754 0.0
H582 H 0.55921 0.69821 0.39705 0.0
N583 N 0.61379 0.83681 0.38079 0.0
C584 C 0.56515 0.85306 0.38393 0.0
C585 C 0.59804 0.87667 0.38299 0.0
C586 C 0.5568 0.82109 0.38434 0.0
C587 C 0.58205 0.81367 0.38299 0.0
C588 C 0.6222 0.86809 0.38159 0.0
N589 N 0.60022 0.77676 0.38508 0.0
C590 C 0.57502 0.78259 0.38516 0.0
C591 C 0.56329 0.7218 0.39363 0.0
C592 C 0.53687 0.72712 0.39255 0.0
C593 C 0.59506 0.74714 0.3902 0.0
C594 C 0.54259 0.75791 0.38869 0.0
H595 H 0.5123 0.70748 0.3953 0.0
O596 O 0.66243 0.80348 0.40851 0.0
O597 O 0.69712 0.82703 0.35929 0.0
O598 O 0.66296 0.78815 0.32764 0.0
O599 O 0.62224 0.78176 0.35275 0.0
O600 O 0.67337 0.78744 0.37975 0.0
O601 O 0.66473 0.84917 0.40725 0.0
O602 O 0.68421 0.85413 0.29232 0.0
O603 O 0.65371 0.83438 0.34254 0.0
O604 O 0.6898 0.87333 0.37494 0.0
O605 O 0.72879 0.8808 0.34788 0.0
O606 O 0.67279 0.87179 0.32083 0.0
O607 O 0.68637 0.81079 0.29523 0.0
C608 C 0.69836 0.80331 0.36689 0.0
C609 C 0.51713 0.76493 0.38891 0.0
C610 C 0.52422 0.79648 0.38674 0.0
C611 C 0.66671 0.82819 0.41971 0.0
C612 C 0.65113 0.82189 0.44176 0.0
C613 C 0.61704 0.80496 0.44433 0.0
C614 C 0.67109 0.83249 0.46064 0.0
C615 C 0.65733 0.82621 0.48218 0.0
C616 C 0.60313 0.79852 0.46569 0.0
C617 C 0.62311 0.80895 0.48456 0.0
C618 C 0.63319 0.77118 0.33646 0.0
C619 C 0.64923 0.85595 0.33475 0.0
C620 C 0.68213 0.82967 0.28193 0.0
C621 C 0.69832 0.83615 0.26001 0.0
C622 C 0.73247 0.85144 0.25828 0.0
C623 C 0.67934 0.82724 0.24055 0.0
C624 C 0.69434 0.83354 0.21933 0.0
C625 C 0.74755 0.85796 0.23735 0.0
C626 C 0.72871 0.84916 0.21799 0.0
C627 C 0.71915 0.89044 0.36549 0.0
H628 H 0.60129 0.79665 0.42991 0.0
H629 H 0.69745 0.84523 0.45851 0.0
H630 H 0.5768 0.7854 0.46764 0.0
H631 H 0.61182 0.80393 0.50095 0.0
H632 H 0.74745 0.85834 0.27304 0.0
H633 H 0.65291 0.81502 0.242 0.0
H634 H 0.77395 0.86993 0.23612 0.0
H635 H 0.74109 0.85486 0.20197 0.0
Gd636 Gd 0.17088 0.85672 0.31776 0.0
Gd637 Gd 0.19948 0.84288 0.37148 0.0
C638 C 0.30191 0.85575 0.37782 0.0
C639 C 0.2899 0.8017 0.38494 0.0
C640 C 0.24572 0.81314 0.38023 0.0
C641 C 0.26809 0.8448 0.37675 0.0
C642 C 0.2563 0.79134 0.38513 0.0
C643 C 0.3127 0.83388 0.38124 0.0
C644 C 0.3238 0.88844 0.37617 0.0
C645 C 0.31169 0.90932 0.37449 0.0
N646 N 0.25671 0.86521 0.37381 0.0
C647 C 0.2779 0.89727 0.37372 0.0
H648 H 0.26902 0.91374 0.37234 0.0
C649 C 0.19078 0.77439 0.38771 0.0
N650 N 0.21357 0.80418 0.38065 0.0
C651 C 0.20002 0.75185 0.39273 0.0
C652 C 0.23286 0.76018 0.39101 0.0
H653 H 0.16531 0.76773 0.38885 0.0
H654 H 0.33858 0.84177 0.3818 0.0
H655 H 0.10297 0.78243 0.31161 0.0
H656 H 0.34997 0.89782 0.37681 0.0
H657 H 0.32836 0.93471 0.37372 0.0
H658 H 0.29853 0.78525 0.38837 0.0
H659 H 0.2023 0.93456 0.30538 0.0
H660 H 0.01983 0.79461 0.30952 0.0
H661 H 0.04387 0.75971 0.30968 0.0
H662 H 0.06559 0.90717 0.30562 0.0
H663 H 0.18177 0.72803 0.39778 0.0
H664 H 0.23997 0.74272 0.39494 0.0
H665 H 0.02815 0.84956 0.30839 0.0
H666 H 0.18211 0.97209 0.29996 0.0
N667 N 0.11353 0.83064 0.31388 0.0
C668 C 0.04613 0.805 0.31048 0.0
C669 C 0.05961 0.78523 0.31058 0.0
C670 C 0.06677 0.83797 0.31076 0.0
C671 C 0.10089 0.85037 0.31215 0.0
C672 C 0.09351 0.79846 0.3119 0.0
N673 N 0.15487 0.89451 0.31068 0.0
C674 C 0.12206 0.88308 0.31057 0.0
C675 C 0.165 0.94717 0.30301 0.0
C676 C 0.13151 0.93623 0.30425 0.0
C677 C 0.17633 0.9258 0.30589 0.0
C678 C 0.10955 0.90381 0.30764 0.0
H679 H 0.12281 0.95287 0.30198 0.0
O680 O 0.19465 0.84409 0.29158 0.0
O681 O 0.21274 0.85853 0.33599 0.0
O682 O 0.21105 0.8942 0.36807 0.0
O683 O 0.17396 0.89311 0.34215 0.0
O684 O 0.223 0.89755 0.31655 0.0
O685 O 0.16134 0.86007 0.28262 0.0
O686 O 0.17614 0.82677 0.40399 0.0
O687 O 0.15805 0.84179 0.35306 0.0
O688 O 0.15676 0.80526 0.322 0.0
O689 O 0.1939 0.80447 0.34737 0.0
O690 O 0.14598 0.80563 0.37564 0.0
O691 O 0.2143 0.87558 0.39944 0.0
C692 C 0.2358 0.8846 0.32862 0.0
C693 C 0.07561 0.89154 0.30754 0.0
C694 C 0.05429 0.85872 0.3091 0.0
C695 C 0.18249 0.85255 0.27533 0.0
C696 C 0.20579 0.8739 0.2582 0.0
C697 C 0.2266 0.90618 0.26296 0.0
C698 C 0.20684 0.86245 0.23676 0.0
C699 C 0.22846 0.88334 0.22027 0.0
C700 C 0.24863 0.92661 0.24701 0.0
C701 C 0.24966 0.91535 0.22586 0.0
C702 C 0.19465 0.90664 0.35868 0.0
C703 C 0.13426 0.81738 0.36161 0.0
C704 C 0.19469 0.85398 0.41361 0.0
C705 C 0.20905 0.85294 0.43517 0.0
C706 C 0.23104 0.84158 0.4363 0.0
C707 C 0.20104 0.86365 0.45477 0.0
C708 C 0.21512 0.86313 0.47541 0.0
C709 C 0.2448 0.84071 0.45663 0.0
C710 C 0.23694 0.85134 0.47603 0.0
C711 C 0.17313 0.79217 0.33049 0.0
H712 H 0.22572 0.91589 0.27888 0.0
H713 H 0.19035 0.83771 0.23278 0.0
H714 H 0.26477 0.95139 0.25098 0.0
H715 H 0.26706 0.93183 0.21379 0.0
H716 H 0.23758 0.83338 0.4215 0.0
H717 H 0.18433 0.87279 0.45385 0.0
H718 H 0.26163 0.83173 0.45735 0.0
H719 H 0.24774 0.84999 0.4916 0.0
Gd720 Gd 0.8491 0.68925 0.70395 0.0
Gd721 Gd 0.82666 0.65488 0.64716 0.0
C722 C 0.73148 0.56176 0.63506 0.0
C723 C 0.75135 0.52638 0.62379 0.0
C724 C 0.78969 0.58163 0.63254 0.0
C725 C 0.76406 0.58666 0.63733 0.0
C726 C 0.78369 0.55169 0.62512 0.0
C727 C 0.72527 0.5314 0.62881 0.0
C728 C 0.70618 0.56838 0.63848 0.0
C729 C 0.71375 0.59946 0.64313 0.0
N730 N 0.77101 0.6164 0.64297 0.0
C731 C 0.74649 0.6234 0.64496 0.0
H732 H 0.75191 0.64723 0.64865 0.0
C733 C 0.8465 0.60405 0.6264 0.0
N734 N 0.82054 0.60669 0.63379 0.0
C735 C 0.84182 0.57482 0.6189 0.0
C736 C 0.81032 0.54839 0.61856 0.0
H737 H 0.87093 0.62432 0.62673 0.0
H738 H 0.70041 0.51189 0.62719 0.0
H739 H 0.92126 0.69118 0.70668 0.0
H740 H 0.68082 0.5499 0.637 0.0
H741 H 0.6944 0.605 0.64537 0.0
H742 H 0.74622 0.50309 0.61835 0.0
H743 H 0.80751 0.72498 0.71961 0.0
H744 H 0.99606 0.78667 0.71989 0.0
H745 H 0.97927 0.73049 0.71252 0.0
H746 H 0.93611 0.84109 0.73134 0.0
H747 H 0.86251 0.57268 0.61347 0.0
H748 H 0.80674 0.52579 0.61272 0.0
H749 H 0.97976 0.82792 0.72654 0.0
H750 H 0.81882 0.77863 0.73049 0.0
N751 N 0.90505 0.72473 0.71013 0.0
C752 C 0.97046 0.76947 0.71737 0.0
C753 C 0.96107 0.73778 0.71325 0.0
C754 C 0.94658 0.77841 0.71877 0.0
C755 C 0.91363 0.75511 0.71522 0.0
C756 C 0.92804 0.71551 0.70994 0.0
N757 N 0.8577 0.73905 0.71554 0.0
C758 C 0.88917 0.76254 0.71793 0.0
C759 C 0.83884 0.77447 0.72691 0.0
C760 C 0.87114 0.79934 0.72833 0.0
C761 C 0.83251 0.74415 0.72084 0.0
C762 C 0.89682 0.79344 0.72421 0.0
H763 H 0.876 0.82278 0.73314 0.0
O764 O 0.82087 0.67595 0.73486 0.0
O765 O 0.81215 0.65029 0.68293 0.0
O766 O 0.80796 0.68871 0.65552 0.0
O767 O 0.84411 0.72412 0.68166 0.0
O768 O 0.79425 0.66867 0.70625 0.0
O769 O 0.86347 0.67053 0.73198 0.0
O770 O 0.85273 0.67121 0.61548 0.0
O771 O 0.86426 0.69322 0.66839 0.0
O772 O 0.86549 0.65308 0.6972 0.0
O773 O 0.8336 0.62015 0.66817 0.0
O774 O 0.88127 0.67515 0.6441 0.0
O775 O 0.80837 0.67274 0.62084 0.0
C776 C 0.78605 0.64682 0.69143 0.0
C777 C 0.9297 0.81712 0.72675 0.0
C778 C 0.95454 0.80961 0.72404 0.0
C779 C 0.84015 0.66811 0.74505 0.0
C780 C 0.84935 0.67982 0.76809 0.0
C781 C 0.87288 0.71162 0.77195 0.0
C782 C 0.83426 0.65916 0.78642 0.0
C783 C 0.84274 0.67023 0.80857 0.0
C784 C 0.88127 0.7228 0.79371 0.0
C785 C 0.86637 0.7024 0.81185 0.0
C786 C 0.82193 0.71648 0.66589 0.0
C787 C 0.88995 0.69578 0.65981 0.0
C788 C 0.83113 0.677 0.60656 0.0
C789 C 0.82004 0.66432 0.58389 0.0
C790 C 0.80147 0.63139 0.58073 0.0
C791 C 0.82759 0.68489 0.56531 0.0
C792 C 0.81613 0.67239 0.54379 0.0
C793 C 0.79058 0.61894 0.55955 0.0
C794 C 0.79778 0.63918 0.54125 0.0
C795 C 0.85259 0.62602 0.68583 0.0
H796 H 0.8847 0.72783 0.75816 0.0
H797 H 0.81627 0.6345 0.78338 0.0
H798 H 0.89934 0.74746 0.79654 0.0
H799 H 0.87306 0.71204 0.82851 0.0
H800 H 0.7953 0.61526 0.59465 0.0
H801 H 0.84168 0.71039 0.56766 0.0
H802 H 0.77638 0.59345 0.55732 0.0
H803 H 0.78907 0.62875 0.52498 0.0
Gd804 Gd 0.32541 0.14557 0.7087 0.0
Gd805 Gd 0.36998 0.16865 0.65493 0.0
C806 C 0.47048 0.17768 0.6473 0.0
C807 C 0.5057 0.23457 0.64168 0.0
C808 C 0.44706 0.21202 0.64644 0.0
C809 C 0.44321 0.18207 0.64891 0.0
C810 C 0.47822 0.23853 0.64223 0.0
C811 C 0.50184 0.20419 0.64423 0.0
C812 C 0.46529 0.14672 0.64819 0.0
C813 C 0.43342 0.12106 0.6498 0.0
N814 N 0.41254 0.157 0.65167 0.0
C815 C 0.40714 0.12664 0.65122 0.0
H816 H 0.38266 0.10661 0.65263 0.0
C817 C 0.42188 0.24314 0.64139 0.0
N818 N 0.41995 0.21489 0.64679 0.0
C819 C 0.45228 0.27019 0.63727 0.0
C820 C 0.48064 0.26799 0.638 0.0
H821 H 0.40002 0.24496 0.64099 0.0
H822 H 0.52314 0.20134 0.6432 0.0
H823 H 0.31259 0.20744 0.713 0.0
H824 H 0.48559 0.14233 0.6471 0.0
H825 H 0.42907 0.09698 0.65008 0.0
H826 H 0.52991 0.25469 0.6387 0.0
H827 H 0.29479 0.06851 0.72091 0.0
H828 H 0.20954 0.17152 0.71707 0.0
H829 H 0.26617 0.21693 0.71597 0.0
H830 H 0.16484 0.05873 0.72165 0.0
H831 H 0.45383 0.29272 0.6336 0.0
H832 H 0.50415 0.28895 0.63474 0.0
H833 H 0.17181 0.11232 0.71871 0.0
H834 H 0.24068 0.02037 0.72648 0.0
N835 N 0.28273 0.15706 0.71223 0.0
C836 C 0.22987 0.16717 0.7159 0.0
C837 C 0.2618 0.19286 0.71537 0.0
C838 C 0.22462 0.13617 0.71568 0.0
C839 C 0.25195 0.13187 0.71409 0.0
C840 C 0.2881 0.18734 0.71369 0.0
N841 N 0.27515 0.09898 0.71577 0.0
C842 C 0.24801 0.10181 0.7159 0.0
C843 C 0.24239 0.04312 0.72344 0.0
C844 C 0.21408 0.04538 0.7225 0.0
C845 C 0.27297 0.0704 0.72038 0.0
C846 C 0.21668 0.07508 0.7191 0.0
H847 H 0.19043 0.02424 0.72495 0.0
O848 O 0.33504 0.1307 0.7406 0.0
O849 O 0.37019 0.15492 0.69019 0.0
O850 O 0.33578 0.11465 0.65809 0.0
O851 O 0.29534 0.10785 0.68353 0.0
O852 O 0.35103 0.11672 0.71157 0.0
O853 O 0.33699 0.17609 0.73761 0.0
O854 O 0.35844 0.18238 0.62331 0.0
O855 O 0.32595 0.15992 0.67372 0.0
O856 O 0.35884 0.19954 0.70527 0.0
O857 O 0.3994 0.20777 0.67934 0.0
O858 O 0.34362 0.19699 0.65159 0.0
O859 O 0.35966 0.13842 0.62595 0.0
C860 C 0.3748 0.13339 0.69798 0.0
C861 C 0.18918 0.07901 0.71945 0.0
C862 C 0.19314 0.10952 0.71776 0.0
C863 C 0.33827 0.15561 0.75105 0.0
C864 C 0.32027 0.14952 0.77221 0.0
C865 C 0.28603 0.13401 0.77254 0.0
C866 C 0.33755 0.15942 0.79234 0.0
C867 C 0.32073 0.15384 0.81281 0.0
C868 C 0.26917 0.12834 0.79273 0.0
C869 C 0.28633 0.13813 0.81276 0.0
C870 C 0.30586 0.09765 0.66675 0.0
C871 C 0.32058 0.18089 0.66582 0.0
C872 C 0.35643 0.15804 0.61275 0.0
C873 C 0.37337 0.16486 0.59115 0.0
C874 C 0.40754 0.18311 0.58963 0.0
C875 C 0.35485 0.15345 0.57167 0.0
C876 C 0.37023 0.16043 0.55062 0.0
C877 C 0.423 0.19014 0.56879 0.0
C878 C 0.40449 0.179 0.54935 0.0
C879 C 0.38815 0.21757 0.69594 0.0
H880 H 0.27234 0.12626 0.75726 0.0
H881 H 0.36405 0.17177 0.79198 0.0
H882 H 0.24272 0.11623 0.79287 0.0
H883 H 0.27262 0.13302 0.82823 0.0
H884 H 0.42222 0.19201 0.60445 0.0
H885 H 0.3284 0.13958 0.57289 0.0
H886 H 0.44938 0.20428 0.5677 0.0
H887 H 0.41696 0.18455 0.53335 0.0
Gd888 Gd 0.84489 0.19083 0.65951 0.0
Gd889 Gd 0.87497 0.17745 0.71296 0.0
C890 C 0.97601 0.1874 0.71998 0.0
C891 C 0.96242 0.13314 0.72816 0.0
C892 C 0.9193 0.14596 0.72289 0.0
C893 C 0.94238 0.17735 0.71894 0.0
C894 C 0.92902 0.12364 0.7282 0.0
C895 C 0.98589 0.16498 0.724 0.0
C896 C 0.99866 0.21982 0.71762 0.0
C897 C 0.98751 0.24138 0.71521 0.0
N898 N 0.93193 0.19838 0.71537 0.0
C899 C 0.95389 0.23023 0.71447 0.0
H900 H 0.9457 0.24716 0.71243 0.0
C901 C 0.86384 0.10806 0.7298 0.0
N902 N 0.8873 0.13772 0.72293 0.0
C903 C 0.87225 0.08507 0.73527 0.0
C904 C 0.90494 0.09274 0.73412 0.0
H905 H 0.8385 0.10182 0.73065 0.0
H906 H 0.01161 0.17218 0.72458 0.0
H907 H 0.77774 0.11852 0.65526 0.0
H908 H 0.02471 0.22851 0.71821 0.0
H909 H 1.00479 0.26658 0.71382 0.0
H910 H 0.97037 0.11626 0.73193 0.0
H911 H 0.87711 0.26787 0.64687 0.0
H912 H 0.69425 0.13039 0.65 0.0
H913 H 0.71819 0.09536 0.65202 0.0
H914 H 0.74128 0.2434 0.64467 0.0
H915 H 0.85351 0.06143 0.74026 0.0
H916 H 0.9114 0.0749 0.73838 0.0
H917 H 0.70308 0.18581 0.64773 0.0
H918 H 0.85841 0.30657 0.64063 0.0
N919 N 0.78774 0.16639 0.65563 0.0
C920 C 0.7205 0.14074 0.65137 0.0
C921 C 0.73392 0.1209 0.65246 0.0
C922 C 0.74121 0.17373 0.65139 0.0
C923 C 0.77519 0.18597 0.65331 0.0
C924 C 0.76781 0.1342 0.6543 0.0
N925 N 0.82911 0.2288 0.65202 0.0
C926 C 0.79658 0.21826 0.65154 0.0
C927 C 0.84076 0.28182 0.64377 0.0
C928 C 0.80737 0.27162 0.64444 0.0
C929 C 0.85125 0.25987 0.64722 0.0
C930 C 0.78476 0.23938 0.64792 0.0
H931 H 0.79928 0.28863 0.64164 0.0
O932 O 0.87012 0.21009 0.62801 0.0
O933 O 0.88641 0.1914 0.67726 0.0
O934 O 0.88765 0.2287 0.70784 0.0
O935 O 0.84759 0.22697 0.68447 0.0
O936 O 0.89803 0.22882 0.65582 0.0
O937 O 0.8317 0.16078 0.63016 0.0
O938 O 0.84802 0.16381 0.74429 0.0
O939 O 0.83312 0.17619 0.69491 0.0
O940 O 0.83534 0.13988 0.6631 0.0
O941 O 0.87205 0.14033 0.68939 0.0
O942 O 0.82203 0.13913 0.71662 0.0
O943 O 0.89305 0.20885 0.74165 0.0
C944 C 0.91004 0.21611 0.66878 0.0
C945 C 0.75088 0.22752 0.64719 0.0
C946 C 0.72913 0.19474 0.64892 0.0
C947 C 0.85243 0.18372 0.6172 0.0
C948 C 0.84041 0.18678 0.59528 0.0
C949 C 0.81459 0.19302 0.59354 0.0
C950 C 0.85545 0.18395 0.57581 0.0
C951 C 0.84484 0.18734 0.55455 0.0
C952 C 0.80392 0.19646 0.57258 0.0
C953 C 0.81889 0.19369 0.55322 0.0
C954 C 0.87052 0.24124 0.69976 0.0
C955 C 0.80981 0.15096 0.70308 0.0
C956 C 0.86965 0.18891 0.75482 0.0
C957 C 0.87926 0.18299 0.7768 0.0
C958 C 0.90094 0.17133 0.77861 0.0
C959 C 0.86563 0.18795 0.79619 0.0
C960 C 0.8734 0.18112 0.81743 0.0
C961 C 0.90858 0.16426 0.79952 0.0
C962 C 0.89486 0.16896 0.8188 0.0
C963 C 0.85155 0.12709 0.67259 0.0
H964 H 0.80278 0.19533 0.60834 0.0
H965 H 0.87518 0.17876 0.57728 0.0
H966 H 0.78406 0.20142 0.57133 0.0
H967 H 0.81041 0.19695 0.5372 0.0
H968 H 0.9118 0.16753 0.76392 0.0
H969 H 0.84928 0.19745 0.79468 0.0
H970 H 0.92511 0.15497 0.80079 0.0
H971 H 0.9009 0.16282 0.83476 0.0
H972 H 0.35077 0.84776 0.05445 0.0
H973 H 0.30011 0.89985 0.06489 0.0
H974 H 0.34861 0.94903 0.05308 0.0
H975 H 0.40709 0.97834 0.04347 0.0
H976 H 0.4589 0.92725 0.03413 0.0
H977 H 0.40867 0.87688 0.04152 0.0
C978 C 0.35022 0.86978 0.05363 0.0
C979 C 0.32192 0.87018 0.06066 0.0
C980 C 0.3786 0.8983 0.04722 0.0
C981 C 0.32166 0.89897 0.05971 0.0
C982 C 0.34942 0.92714 0.05303 0.0
C983 C 0.4072 0.95609 0.04276 0.0
C984 C 0.43655 0.95652 0.03794 0.0
C985 C 0.3783 0.92728 0.04737 0.0
C986 C 0.43652 0.92757 0.03737 0.0
C987 C 0.40778 0.89873 0.04175 0.0
H988 H 0.17591 0.49678 0.05596 0.0
H989 H 0.11801 0.39776 0.0738 0.0
H990 H 0.06814 0.39757 0.06278 0.0
H991 H 0.04021 0.42619 0.0501 0.0
H992 H 0.09739 0.52583 0.034 0.0
H993 H 0.14775 0.52526 0.04218 0.0
C994 C 0.15241 0.47509 0.05705 0.0
C995 C 0.15077 0.44724 0.06559 0.0
C996 C 0.12349 0.47535 0.05116 0.0
C997 C 0.12 0.41945 0.06724 0.0
C998 C 0.09141 0.41937 0.06102 0.0
C999 C 0.06374 0.44771 0.04824 0.0
C1000 C 0.0649 0.47582 0.0409 0.0
C1001 C 0.09272 0.44728 0.05332 0.0
C1002 C 0.09563 0.50365 0.03903 0.0
C1003 C 0.12455 0.50337 0.04386 0.0
H1004 H 0.53431 0.69328 0.04426 0.0
H1005 H 0.62889 0.71386 0.06852 0.0
H1006 H 0.61956 0.66299 0.0548 0.0
H1007 H 0.58369 0.61133 0.0375 0.0
H1008 H 0.49101 0.592 0.01053 0.0
H1009 H 0.50083 0.64374 0.02324 0.0
C1010 C 0.55314 0.68694 0.04623 0.0
C1011 C 0.58189 0.70724 0.05802 0.0
C1012 C 0.54798 0.6577 0.03783 0.0
C1013 C 0.60597 0.6984 0.06027 0.0
C1014 C 0.60082 0.66932 0.05226 0.0
C1015 C 0.56571 0.6185 0.03431 0.0
C1016 C 0.53652 0.59764 0.02333 0.0
C1017 C 0.57169 0.64851 0.04139 0.0
C1018 C 0.5137 0.60753 0.01901 0.0
C1019 C 0.51924 0.63714 0.02633 0.0
H1020 H 0.83489 0.31606 0.98118 0.0
H1021 H 0.90618 0.28603 0.97339 0.0
H1022 H 0.94979 0.33847 0.98437 0.0
H1023 H 0.96851 0.39401 0.99426 0.0
H1024 H 0.89745 0.42389 1.00399 0.0
H1025 H 0.85329 0.37083 0.99427 0.0
C1026 C 0.85987 0.32088 0.98232 0.0
C1027 C 0.86726 0.29725 0.97615 0.0
C1028 C 0.88509 0.35133 0.98868 0.0
C1029 C 0.89986 0.30394 0.9777 0.0
C1030 C 0.92489 0.33397 0.98394 0.0
C1031 C 0.94337 0.38891 0.99411 0.0
C1032 C 0.93637 0.41298 0.99949 0.0
C1033 C 0.91795 0.3581 0.98897 0.0
C1034 C 0.90356 0.40581 0.99974 0.0
C1035 C 0.87823 0.37542 0.99424 0.0
H1036 H 0.68614 0.50907 0.97492 0.0
H1037 H 0.72852 0.60768 0.9559 0.0
H1038 H 0.67843 0.60695 0.96669 0.0
H1039 H 0.62128 0.57793 0.97936 0.0
H1040 H 0.57739 0.47931 0.99803 0.0
H1041 H 0.62897 0.4805 0.99001 0.0
C1042 C 0.68451 0.53046 0.97338 0.0
C1043 C 0.71113 0.55825 0.96415 0.0
C1044 C 0.65518 0.5299 0.9796 0.0
C1045 C 0.70837 0.58573 0.96238 0.0
C1046 C 0.67969 0.58541 0.96867 0.0
C1047 C 0.62314 0.55679 0.98191 0.0
C1048 C 0.59561 0.52875 0.98965 0.0
C1049 C 0.65274 0.55756 0.97691 0.0
C1050 C 0.59831 0.50142 0.99257 0.0
C1051 C 0.62783 0.50205 0.98779 0.0
H1052 H 0.49766 0.18016 0.98195 0.0
H1053 H 0.40759 0.10775 0.95284 0.0
H1054 H 0.4183 0.06657 0.96629 0.0
H1055 H 0.45392 0.05077 0.98534 0.0
H1056 H 0.5428 0.1226 0.01603 0.0
H1057 H 0.53166 0.16395 1.00327 0.0
C1058 C 0.48017 0.15536 0.97882 0.0
C1059 C 0.45217 0.14728 0.96599 0.0
C1060 C 0.4863 0.13152 0.98683 0.0
C1061 C 0.42981 0.11489 0.96212 0.0
C1062 C 0.4358 0.09119 0.96991 0.0
C1063 C 0.47087 0.07547 0.98921 0.0
C1064 C 0.49922 0.08348 1.00151 0.0
C1065 C 0.46418 0.09922 0.982 0.0
C1066 C 0.52071 0.11564 1.00662 0.0
C1067 C 0.51441 0.1394 0.99929 0.0
H1068 H 0.72076 0.13778 0.99227 0.0
H1069 H 0.68493 0.20289 1.00169 0.0
H1070 H 0.62993 0.15817 0.0097 0.0
H1071 H 0.59102 0.09982 0.01064 0.0
H1072 H 0.62848 0.03574 1.00254 0.0
H1073 H 0.68369 0.08063 0.99727 0.0
C1074 C 0.70097 0.14223 0.99617 0.0
C1075 C 0.70677 0.17357 0.99598 0.0
C1076 C 0.66961 0.11649 1.00089 0.0
C1077 C 0.681 0.17894 1.00155 0.0
C1078 C 0.64954 0.15337 1.00604 0.0
C1079 C 0.61144 0.09582 0.00832 0.0
C1080 C 0.60579 0.06449 0.00733 0.0
C1081 C 0.64337 0.12193 1.00532 0.0
C1082 C 0.63233 0.05963 1.00362 0.0
C1083 C 0.66389 0.08528 1.00053 0.0
H1084 H 0.90628 0.59612 0.98274 0.0
H1085 H 0.82768 0.49894 0.98478 0.0
H1086 H 0.86686 0.48125 0.99396 0.0
H1087 H 0.92487 0.49369 0.99885 0.0
H1088 H 1.00213 0.5916 0.99621 0.0
H1089 H 0.9623 0.60867 0.98976 0.0
C1090 C 0.89761 0.57104 0.98535 0.0
C1091 C 0.86411 0.54893 0.98295 0.0
C1092 C 0.92023 0.56117 0.99042 0.0
C1093 C 0.85331 0.51652 0.98648 0.0
C1094 C 0.87579 0.5064 0.99164 0.0
C1095 C 0.93276 0.51875 0.99733 0.0
C1096 C 0.96645 0.54149 0.99851 0.0
C1097 C 0.90948 0.5285 0.99333 0.0
C1098 C 0.9764 0.57377 0.99573 0.0
C1099 C 0.95363 0.58354 0.99197 0.0
H1100 H 0.48133 0.30613 0.98959 0.0
H1101 H 0.39439 0.29073 0.95552 0.0
H1102 H 0.40795 0.34526 0.96322 0.0
H1103 H 0.44452 0.39756 0.97943 0.0
H1104 H 0.53097 0.41304 0.01434 0.0
H1105 H 0.51757 0.35858 1.00666 0.0
C1106 C 0.46538 0.31475 0.98392 0.0
C1107 C 0.43691 0.29444 0.97196 0.0
C1108 C 0.47321 0.34624 0.98857 0.0
C1109 C 0.41644 0.30592 0.96478 0.0
C1110 C 0.42418 0.33712 0.96914 0.0
C1111 C 0.46048 0.38907 0.98532 0.0
C1112 C 0.48865 0.40947 0.99749 0.0
C1113 C 0.45254 0.35756 0.98096 0.0
C1114 C 0.50892 0.39787 1.0051 0.0
C1115 C 0.50135 0.36668 1.00064 0.0
H1116 H 0.15241 0.68208 0.08801 0.0
H1117 H 0.21062 0.7096 0.02789 0.0
H1118 H 0.1692 0.66077 0.00946 0.0
H1119 H 0.1166 0.60938 0.01116 0.0
H1120 H 0.05765 0.5855 0.07104 0.0
H1121 H 0.09904 0.6336 0.08876 0.0
C1122 C 0.15596 0.67744 0.07082 0.0
C1123 C 0.18453 0.69924 0.05937 0.0
C1124 C 0.13184 0.64989 0.0603 0.0
C1125 C 0.18875 0.69317 0.03704 0.0
C1126 C 0.16511 0.66522 0.02655 0.0
C1127 C 0.11267 0.6148 0.02796 0.0
C1128 C 0.08374 0.59351 0.03957 0.0
C1129 C 0.13655 0.64325 0.03808 0.0
C1130 C 0.07932 0.6012 0.06147 0.0
C1131 C 0.10313 0.6288 0.07175 0.0
H1132 H 0.35458 0.51931 0.05097 0.0
H1133 H 0.2925 0.41765 0.05441 0.0
H1134 H 0.33859 0.41071 0.04311 0.0
H1135 H 0.39808 0.43401 0.0348 0.0
H1136 H 0.45819 0.53562 0.02804 0.0
H1137 H 0.41173 0.54217 0.03773 0.0
C1138 C 0.35106 0.49563 0.04891 0.0
C1139 C 0.32017 0.46903 0.05365 0.0
C1140 C 0.37751 0.49186 0.04184 0.0
C1141 C 0.31592 0.4385 0.05076 0.0
C1142 C 0.34238 0.43456 0.04444 0.0
C1143 C 0.4008 0.45753 0.03516 0.0
C1144 C 0.43168 0.48428 0.03041 0.0
C1145 C 0.3735 0.46109 0.04032 0.0
C1146 C 0.43478 0.51459 0.03108 0.0
C1147 C 0.40815 0.51837 0.03684 0.0
H1148 H 0.6089 0.89921 0.07196 0.0
H1149 H 0.53397 0.82113 0.03472 0.0
H1150 H 0.51235 0.85514 0.02209 0.0
H1151 H 0.5147 0.90739 0.02215 0.0
H1152 H 0.58983 0.98433 0.06046 0.0
H1153 H 0.61108 0.95042 0.07224 0.0
C1154 C 0.58783 0.88963 0.06105 0.0
C1155 C 0.57312 0.8578 0.05426 0.0
C1156 C 0.57547 0.90914 0.05409 0.0
C1157 C 0.54575 0.8456 0.0402 0.0
C1158 C 0.5334 0.86505 0.03299 0.0
C1159 C 0.53587 0.91679 0.03292 0.0
C1160 C 0.55071 0.94861 0.0402 0.0
C1161 C 0.54806 0.89693 0.03986 0.0
C1162 C 0.5778 0.96011 0.05451 0.0
C1163 C 0.59009 0.94069 0.06129 0.0
H1164 H 1.00054 0.17997 0.39041 0.0
H1165 H 0.95075 0.23326 0.39933 0.0
H1166 H 0.99941 0.28168 0.38698 0.0
H1167 H 0.0576 0.31012 0.37694 0.0
H1168 H 0.10858 0.25812 0.36834 0.0
H1169 H 0.0582 0.20817 0.37676 0.0
C1170 C 1.00022 0.20208 0.38927 0.0
C1171 C 0.97212 0.203 0.39621 0.0
C1172 C 0.02863 0.23019 0.38225 0.0
C1173 C 0.97219 0.23193 0.39459 0.0
C1174 C 1.00002 0.25968 0.38746 0.0
C1175 C 0.05749 0.28774 0.37658 0.0
C1176 C 0.08664 0.28778 0.37178 0.0
C1177 C 0.02861 0.25928 0.38181 0.0
C1178 C 0.08633 0.2587 0.3716 0.0
C1179 C 0.05754 0.23014 0.37661 0.0
H1180 H 0.79944 0.76115 0.39438 0.0
H1181 H 0.86756 0.86149 0.3886 0.0
H1182 H 0.82363 0.87035 0.37509 0.0
H1183 H 0.7641 0.84952 0.36811 0.0
H1184 H 0.69766 0.74847 0.37275 0.0
H1185 H 0.74239 0.73995 0.38346 0.0
C1186 C 0.80469 0.78494 0.39002 0.0
C1187 C 0.83657 0.81067 0.39279 0.0
C1188 C 0.77946 0.78974 0.38214 0.0
C1189 C 0.84317 0.8413 0.38671 0.0
C1190 C 0.81801 0.84637 0.37907 0.0
C1191 C 0.75968 0.82565 0.37096 0.0
C1192 C 0.72755 0.79959 0.36949 0.0
C1193 C 0.78581 0.8208 0.37713 0.0
C1194 C 0.72213 0.76886 0.37367 0.0
C1195 C 0.7477 0.76395 0.37987 0.0
H1196 H 0.19752 0.03284 0.38693 0.0
H1197 H 0.29777 0.06038 0.40134 0.0
H1198 H 0.28796 0.00851 0.38935 0.0
H1199 H 0.25078 0.9549 0.37537 0.0
H1200 H 0.15183 0.92857 0.35823 0.0
H1201 H 0.16143 0.98054 0.37034 0.0
C1202 C 0.2174 0.02776 0.3871 0.0
C1203 C 0.24819 0.05043 0.39539 0.0
C1204 C 0.21181 0.99801 0.37978 0.0
C1205 C 0.27356 0.04317 0.39561 0.0
C1206 C 0.26806 0.01354 0.38864 0.0
C1207 C 0.23131 0.96052 0.37442 0.0
C1208 C 0.20059 0.93792 0.3662 0.0
C1209 C 0.23719 0.99064 0.38096 0.0
C1210 C 0.17571 0.94566 0.36459 0.0
C1211 C 0.18116 0.97534 0.3715 0.0
H1212 H 0.56271 0.63496 0.29315 0.0
H1213 H 0.47697 0.63482 0.31846 0.0
H1214 H 0.51179 0.68695 0.33544 0.0
H1215 H 0.56667 0.73414 0.34097 0.0
H1216 H 0.65135 0.73444 0.31316 0.0
H1217 H 0.61667 0.6811 0.2987 0.0
C1218 C 0.55143 0.64638 0.30212 0.0
C1219 C 0.51709 0.63102 0.30414 0.0
C1220 C 0.57145 0.67663 0.3112 0.0
C1221 C 0.50325 0.6459 0.31662 0.0
C1222 C 0.52317 0.67587 0.32618 0.0
C1223 C 0.57755 0.72243 0.33188 0.0
C1224 C 0.61167 0.73841 0.32816 0.0
C1225 C 0.55731 0.69169 0.32329 0.0
C1226 C 0.62525 0.72294 0.31617 0.0
C1227 C 0.60541 0.69232 0.30793 0.0
H1228 H 0.38196 0.93507 0.29748 0.0
H1229 H 0.35612 0.83858 0.31278 0.0
H1230 H 0.30154 0.82687 0.32494 0.0
H1231 H 0.25983 0.84336 0.32897 0.0
H1232 H 0.28743 0.94097 0.31616 0.0
H1233 H 0.34218 0.95277 0.30486 0.0
C1234 C 0.36441 0.91152 0.30359 0.0
C1235 C 0.37304 0.88766 0.30402 0.0
C1236 C 0.33321 0.90508 0.3108 0.0
C1237 C 0.35015 0.85738 0.31229 0.0
C1238 C 0.31885 0.85062 0.31911 0.0
C1239 C 0.27808 0.86736 0.32421 0.0
C1240 C 0.26968 0.89142 0.32383 0.0
C1241 C 0.30991 0.87418 0.31817 0.0
C1242 C 0.29335 0.92214 0.31688 0.0
C1243 C 0.32468 0.9289 0.31039 0.0
H1244 H 0.15836 0.51479 0.31434 0.0
H1245 H 0.0648 0.44609 0.28704 0.0
H1246 H 0.07178 0.40288 0.3012 0.0
H1247 H 0.10507 0.38434 0.32073 0.0
H1248 H 0.19577 0.45341 0.35112 0.0
H1249 H 0.18873 0.4965 0.33687 0.0
C1250 C 0.13907 0.49046 0.31184 0.0
C1251 C 0.11135 0.48399 0.29924 0.0
C1252 C 0.1427 0.4656 0.32059 0.0
C1253 C 0.08693 0.45203 0.29605 0.0
C1254 C 0.09073 0.42717 0.30431 0.0
C1255 C 0.12323 0.40883 0.32421 0.0
C1256 C 0.15105 0.41563 0.33671 0.0
C1257 C 0.11871 0.43366 0.31638 0.0
C1258 C 0.17414 0.44747 0.34145 0.0
C1259 C 0.17019 0.4722 0.33329 0.0
H1260 H 0.34292 0.5116 0.33349 0.0
H1261 H 0.39143 0.45991 0.31458 0.0
H1262 H 0.34199 0.40966 0.32315 0.0
H1263 H 0.28372 0.38001 0.33347 0.0
H1264 H 0.23375 0.43121 0.34927 0.0
H1265 H 0.28463 0.48169 0.34492 0.0
C1266 C 0.34267 0.4893 0.33148 0.0
C1267 C 0.37073 0.48951 0.32325 0.0
C1268 C 0.31379 0.46031 0.33597 0.0
C1269 C 0.37009 0.46046 0.32065 0.0
C1270 C 0.34181 0.43166 0.32559 0.0
C1271 C 0.28415 0.40226 0.33627 0.0
C1272 C 0.25512 0.40176 0.34235 0.0
C1273 C 0.31335 0.43126 0.33287 0.0
C1274 C 0.25583 0.43077 0.34535 0.0
C1275 C 0.28496 0.45974 0.34259 0.0
H1276 H 0.50484 0.81988 0.30933 0.0
H1277 H 0.54553 0.92092 0.31623 0.0
H1278 H 0.59837 0.92673 0.32692 0.0
H1279 H 0.63404 0.90309 0.33203 0.0
H1280 H 0.59119 0.80139 0.3284 0.0
H1281 H 0.53839 0.79569 0.31896 0.0
C1282 C 0.52521 0.8431 0.31347 0.0
C1283 C 0.52141 0.86996 0.31187 0.0
C1284 C 0.55522 0.8461 0.32012 0.0
C1285 C 0.54784 0.89988 0.31744 0.0
C1286 C 0.57811 0.90321 0.3234 0.0
C1287 C 0.61298 0.87971 0.32939 0.0
C1288 C 0.61653 0.85268 0.33122 0.0
C1289 C 0.58227 0.87654 0.32444 0.0
C1290 C 0.5891 0.82252 0.32764 0.0
C1291 C 0.55885 0.81926 0.32205 0.0
H1292 H 0.14473 0.67544 0.26983 0.0
H1293 H 0.15826 0.63911 0.33209 0.0
H1294 H 0.17037 0.68868 0.35079 0.0
H1295 H 0.17598 0.74204 0.34923 0.0
H1296 H 0.15846 0.77597 0.28721 0.0
H1297 H 0.14903 0.7277 0.26856 0.0
C1298 C 0.1504 0.67845 0.28749 0.0
C1299 C 0.15069 0.65385 0.29957 0.0
C1300 C 0.15655 0.70655 0.29813 0.0
C1301 C 0.1578 0.65777 0.32247 0.0
C1302 C 0.16476 0.6861 0.33313 0.0
C1303 C 0.17031 0.73895 0.33169 0.0
C1304 C 0.16802 0.76267 0.31972 0.0
C1305 C 0.16409 0.71063 0.32113 0.0
C1306 C 0.1602 0.75804 0.29691 0.0
C1307 C 0.15485 0.73045 0.28618 0.0
H1308 H 0.80376 0.01465 0.42239 0.0
H1309 H 0.8692 0.03841 0.36617 0.0
H1310 H 0.83079 0.98777 0.34835 0.0
H1311 H 0.77937 0.93605 0.34971 0.0
H1312 H 0.71203 0.91533 0.40458 0.0
H1313 H 0.75063 0.96527 0.42217 0.0
C1314 C 0.80951 0.00877 0.40617 0.0
C1315 C 0.83927 0.03005 0.39564 0.0
C1316 C 0.78704 0.98012 0.39589 0.0
C1317 C 0.84639 0.0224 0.37456 0.0
C1318 C 0.82448 0.99343 0.36444 0.0
C1319 C 0.77273 0.94264 0.36523 0.0
C1320 C 0.74245 0.92178 0.37555 0.0
C1321 C 0.79477 0.97202 0.37502 0.0
C1322 C 0.73491 0.93071 0.39606 0.0
C1323 C 0.75704 0.95937 0.40621 0.0
H1324 H 0.98402 0.7576 0.38177 0.0
H1325 H 1.00825 0.85555 0.37826 0.0
H1326 H 0.06472 0.87136 0.36756 0.0
H1327 H 0.10845 0.85729 0.36211 0.0
H1328 H 0.0825 0.75879 0.36556 0.0
H1329 H 0.02566 0.74324 0.37337 0.0
C1330 C 1.0016 0.78241 0.37848 0.0
C1331 C 0.99199 0.80535 0.38099 0.0
C1332 C 0.03384 0.79123 0.37241 0.0
C1333 C 0.01498 0.83739 0.37653 0.0
C1334 C 0.04733 0.84644 0.37049 0.0
C1335 C 0.09012 0.83242 0.36405 0.0
C1336 C 0.09951 0.80909 0.36283 0.0
C1337 C 0.05723 0.8236 0.36875 0.0
C1338 C 0.07574 0.77705 0.36611 0.0
C1339 C 0.04326 0.76817 0.37066 0.0
H1340 H 0.23548 0.22031 0.42202 0.0
H1341 H 0.19243 0.15695 0.36644 0.0
H1342 H 0.17742 0.19396 0.34943 0.0
H1343 H 0.1754 0.24392 0.35136 0.0
H1344 H 0.22358 0.30854 0.40592 0.0
H1345 H 0.23732 0.27129 0.42242 0.0
C1346 C 0.22289 0.21469 0.40614 0.0
C1347 C 0.21486 0.18606 0.39553 0.0
C1348 C 0.21515 0.23625 0.39634 0.0
C1349 C 0.19888 0.17901 0.37486 0.0
C1350 C 0.19025 0.20009 0.3652 0.0
C1351 C 0.1894 0.25013 0.36659 0.0
C1352 C 0.19844 0.27924 0.37718 0.0
C1353 C 0.19817 0.22879 0.37587 0.0
C1354 C 0.21612 0.28646 0.39724 0.0
C1355 C 0.2241 0.26513 0.4068 0.0
H1356 H 0.67062 0.50781 0.71347 0.0
H1357 H 0.62383 0.56145 0.73144 0.0
H1358 H 0.67095 0.61017 0.7176 0.0
H1359 H 0.72736 0.63855 0.70348 0.0
H1360 H 0.77575 0.5861 0.68682 0.0
H1361 H 0.72631 0.53618 0.69651 0.0
C1362 C 0.6706 0.5301 0.71399 0.0
C1363 C 0.64385 0.531 0.72376 0.0
C1364 C 0.69819 0.55836 0.70625 0.0
C1365 C 0.64427 0.56014 0.72436 0.0
C1366 C 0.6712 0.58805 0.71641 0.0
C1367 C 0.72687 0.61611 0.70167 0.0
C1368 C 0.75507 0.61607 0.69414 0.0
C1369 C 0.69861 0.5876 0.70783 0.0
C1370 C 0.75425 0.58685 0.69214 0.0
C1371 C 0.72599 0.55825 0.69789 0.0
H1372 H 0.51813 0.1633 0.72208 0.0
H1373 H 0.46726 0.06099 0.72619 0.0
H1374 H 0.41717 0.05828 0.713 0.0
H1375 H 0.38612 0.08483 0.70387 0.0
H1376 H 0.43566 0.18697 0.69988 0.0
H1377 H 0.48762 0.19001 0.70919 0.0
C1378 C 0.49624 0.14048 0.7196 0.0
C1379 C 0.49638 0.11237 0.72528 0.0
C1380 C 0.46708 0.13907 0.71225 0.0
C1381 C 0.46773 0.08294 0.7221 0.0
C1382 C 0.43901 0.08136 0.71463 0.0
C1383 C 0.40842 0.10772 0.70477 0.0
C1384 C 0.40708 0.13556 0.70094 0.0
C1385 C 0.43812 0.10924 0.71027 0.0
C1386 C 0.43608 0.16512 0.70236 0.0
C1387 C 0.46581 0.16686 0.70783 0.0
H1388 H 0.92551 0.37562 0.74402 0.0
H1389 H 0.83185 0.36209 0.72392 0.0
H1390 H 0.81915 0.31212 0.7056 0.0
H1391 H 0.83345 0.27033 0.69763 0.0
H1392 H 0.92654 0.28429 0.72005 0.0
H1393 H 0.94025 0.33558 0.73542 0.0
C1394 C 0.90215 0.36167 0.73581 0.0
C1395 C 0.87948 0.3724 0.73569 0.0
C1396 C 0.89476 0.33279 0.72585 0.0
C1397 C 0.84979 0.35445 0.72429 0.0
C1398 C 0.84243 0.32575 0.71394 0.0
C1399 C 0.85682 0.28475 0.70572 0.0
C1400 C 0.8788 0.27323 0.70779 0.0
C1401 C 0.86454 0.31439 0.71493 0.0
C1402 C 0.90895 0.29223 0.71838 0.0
C1403 C 0.91692 0.32171 0.72717 0.0
H1404 H 0.2257 0.96521 0.6178 0.0
H1405 H 0.14503 0.96874 0.6491 0.0
H1406 H 0.18336 0.01891 0.66684 0.0
H1407 H 0.23953 0.06311 0.67216 0.0
H1408 H 0.31985 0.06098 0.63922 0.0
H1409 H 0.28171 0.00948 0.6229 0.0
C1410 C 0.21626 0.97702 0.62824 0.0
C1411 C 0.18217 0.96289 0.63187 0.0
C1412 C 0.23843 0.00639 0.63798 0.0
C1413 C 0.17093 0.97851 0.64607 0.0
C1414 C 0.19289 0.00746 0.65612 0.0
C1415 C 0.24882 0.0513 0.66159 0.0
C1416 C 0.28271 0.06598 0.65709 0.0
C1417 C 0.22667 0.02176 0.65205 0.0
C1418 C 0.29403 0.0504 0.64301 0.0
C1419 C 0.27218 0.02086 0.63368 0.0
H1420 H 0.05596 0.26468 0.6392 0.0
H1421 H 0.02744 0.16682 0.65183 0.0
H1422 H 0.97345 0.15603 0.66465 0.0
H1423 H 0.93282 0.17378 0.66965 0.0
H1424 H 0.96277 0.27229 0.65825 0.0
H1425 H 0.01735 0.28334 0.64732 0.0
C1426 C 0.03793 0.24099 0.64476 0.0
C1427 C 0.04564 0.21652 0.64426 0.0
C1428 C 1.00702 0.23502 0.65221 0.0
C1429 C 0.02217 0.1861 0.652 0.0
C1430 C 0.99121 0.17987 0.65922 0.0
C1431 C 0.95153 0.19776 0.66524 0.0
C1432 C 0.94385 0.22231 0.66505 0.0
C1433 C 0.98314 0.20404 0.65908 0.0
C1434 C 0.96815 0.25308 0.65872 0.0
C1435 C 0.99937 0.25941 0.65242 0.0
H1436 H 0.75485 0.79229 0.63176 0.0
H1437 H 0.85183 0.87187 0.6423 0.0
H1438 H 0.86883 0.83615 0.65834 0.0
H1439 H 0.85729 0.78139 0.66658 0.0
H1440 H 0.76163 0.70223 0.65207 0.0
H1441 H 0.74329 0.73859 0.63997 0.0
C1442 C 0.77987 0.80196 0.6373 0.0
C1443 C 0.80205 0.83483 0.63546 0.0
C1444 C 0.78986 0.7812 0.64564 0.0
C1445 C 0.83403 0.84679 0.64356 0.0
C1446 C 0.84391 0.82629 0.65258 0.0
C1447 C 0.83239 0.77223 0.66091 0.0
C1448 C 0.8109 0.73916 0.66005 0.0
C1449 C 0.82219 0.79335 0.65332 0.0
C1450 C 0.77875 0.72754 0.65262 0.0
C1451 C 0.7682 0.74832 0.64575 0.0
H1452 H 0.03862 0.79719 0.64477 0.0
H1453 H 1.0042 0.86212 0.65993 0.0
H1454 H 0.94908 0.81722 0.66713 0.0
H1455 H 0.90959 0.75905 0.66622 0.0
H1456 H 0.94554 0.69486 0.6527 0.0
H1457 H 1.00085 0.7397 0.6476 0.0
C1458 C 0.01911 0.80155 0.64973 0.0
C1459 C 0.02539 0.83298 0.65145 0.0
C1460 C 0.98761 0.77564 0.65404 0.0
C1461 C 0.99993 0.83814 0.65832 0.0
C1462 C 0.96837 0.81247 0.66236 0.0
C1463 C 0.92972 0.75496 0.66273 0.0
C1464 C 0.92357 0.72361 0.66024 0.0
C1465 C 0.96174 0.78104 0.65991 0.0
C1466 C 0.94974 0.71873 0.65498 0.0
C1467 C 0.98137 0.74438 0.65199 0.0
H1468 H 0.17499 0.14435 0.64438 0.0
H1469 H 0.215 0.2448 0.65435 0.0
H1470 H 0.26855 0.25078 0.6629 0.0
H1471 H 0.30482 0.22756 0.66548 0.0
H1472 H 0.2629 0.12626 0.65902 0.0
H1473 H 0.20947 0.12033 0.65133 0.0
C1474 C 0.1954 0.16745 0.64871 0.0
C1475 C 0.19121 0.19412 0.64863 0.0
C1476 C 0.22582 0.17052 0.65415 0.0
C1477 C 0.21765 0.22391 0.65442 0.0
C1478 C 0.2483 0.22735 0.65915 0.0
C1479 C 0.28384 0.20422 0.66259 0.0
C1480 C 0.28773 0.17734 0.66316 0.0
C1481 C 0.25283 0.20089 0.65872 0.0
C1482 C 0.26045 0.14721 0.65925 0.0
C1483 C 0.22988 0.14383 0.65467 0.0
H1484 H 0.84194 0.99556 0.64937 0.0
H1485 H 0.7802 0.99764 0.59744 0.0
H1486 H 0.78799 0.04819 0.61141 0.0
H1487 H 0.81271 0.09197 0.63815 0.0
H1488 H 0.87951 0.09288 0.68745 0.0
H1489 H 0.86927 0.04116 0.67493 0.0
C1490 C 0.83008 0.00706 0.64126 0.0
C1491 C 0.81024 0.99288 0.6226 0.0
C1492 C 0.83551 0.03664 0.64896 0.0
C1493 C 0.7955 0.00821 0.61191 0.0
C1494 C 0.79994 0.03707 0.61988 0.0
C1495 C 0.825 0.0809 0.64623 0.0
C1496 C 0.84608 0.09605 0.66425 0.0
C1497 C 0.81997 0.05157 0.63836 0.0
C1498 C 0.86227 0.08145 0.6741 0.0
C1499 C 0.85667 0.05188 0.6668 0.0
H1500 H 0.45549 0.35656 0.73567 0.0
H1501 H 0.53852 0.3647 0.69962 0.0
H1502 H 0.50552 0.3094 0.68719 0.0
H1503 H 0.453 0.25864 0.68698 0.0
H1504 H 0.37025 0.25137 0.72321 0.0
H1505 H 0.40341 0.30621 0.7355 0.0
C1506 C 0.46636 0.34622 0.72506 0.0
C1507 C 0.49935 0.3647 0.71853 0.0
C1508 C 0.44733 0.3145 0.71815 0.0
C1509 C 0.51319 0.35101 0.70487 0.0
C1510 C 0.49431 0.31938 0.69779 0.0
C1511 C 0.44207 0.2691 0.69738 0.0
C1512 C 0.4089 0.2508 0.70389 0.0
C1513 C 0.46133 0.30089 0.70435 0.0
C1514 C 0.39556 0.26469 0.71784 0.0
C1515 C 0.41452 0.29617 0.72486 0.0
H1516 H 0.65836 0.08242 0.72137 0.0
H1517 H 0.67553 0.17813 0.71822 0.0
H1518 H 0.73324 0.19784 0.70847 0.0
H1519 H 0.78003 0.18775 0.70358 0.0
H1520 H 0.7606 0.09115 0.70651 0.0
H1521 H 0.70284 0.07197 0.71364 0.0
C1522 C 0.67467 0.10761 0.71839 0.0
C1523 C 0.6627 0.12875 0.7207 0.0
C1524 C 0.70759 0.11864 0.71285 0.0
C1525 C 0.68409 0.1613 0.71662 0.0
C1526 C 0.71715 0.17258 0.71113 0.0
C1527 C 0.76293 0.1625 0.7053 0.0
C1528 C 0.7745 0.14078 0.70414 0.0
C1529 C 0.72937 0.1515 0.70955 0.0
C1530 C 0.75224 0.10823 0.70708 0.0
C1531 C 0.7192 0.09725 0.71122 0.0
H1532 H 0.85859 0.50262 0.71229 0.0
H1533 H 0.90308 0.55919 0.77081 0.0
H1534 H 0.90011 0.60365 0.75433 0.0
H1535 H 0.88319 0.62577 0.72411 0.0
H1536 H 0.83376 0.5679 0.66696 0.0
H1537 H 0.84075 0.52497 0.68186 0.0
C1538 C 0.86784 0.52479 0.72129 0.0
C1539 C 0.88121 0.52779 0.74267 0.0
C1540 C 0.86526 0.55007 0.71193 0.0
C1541 C 0.89269 0.55643 0.75431 0.0
C1542 C 0.89103 0.58185 0.74491 0.0
C1543 C 0.87413 0.60393 0.71474 0.0
C1544 C 0.85842 0.60047 0.69419 0.0
C1545 C 0.87712 0.57886 0.72382 0.0
C1546 C 0.84652 0.57165 0.68257 0.0
C1547 C 0.85028 0.54689 0.69119 0.0
H1548 H 0.50593 0.95583 0.24992 0.0
H1549 H 0.40684 0.90203 0.22602 0.0
H1550 H 0.42411 0.92893 0.18985 0.0
H1551 H 0.46731 0.96954 0.1653 0.0
H1552 H 0.56623 0.02231 0.18959 0.0
H1553 H 0.54918 0.99359 0.22499 0.0
C1554 C 0.48812 0.9495 0.23672 0.0
C1555 C 0.45505 0.9269 0.24087 0.0
C1556 C 0.49823 0.96497 0.21591 0.0
C1557 C 0.43236 0.91963 0.22354 0.0
C1558 C 0.44226 0.9349 0.20275 0.0
C1559 C 0.48517 0.97439 0.17823 0.0
C1560 C 0.51797 0.9983 0.17481 0.0
C1561 C 0.47511 0.95786 0.19878 0.0
C1562 C 0.54075 0.00441 0.19186 0.0
C1563 C 0.53104 0.98794 0.21213 0.0
H1564 H 0.04725 0.54777 0.24449 0.0
H1565 H 0.09856 0.5009 0.22059 0.0
H1566 H 0.07028 0.49051 0.18491 0.0
H1567 H 0.03036 0.49397 0.16078 0.0
H1568 H 0.98039 0.5424 0.18422 0.0
H1569 H 1.00882 0.55296 0.21983 0.0
C1570 C 0.05254 0.53563 0.23137 0.0
C1571 C 0.0749 0.52506 0.23522 0.0
C1572 C 0.03634 0.52989 0.21087 0.0
C1573 C 0.08111 0.5089 0.21817 0.0
C1574 C 0.06508 0.5031 0.19773 0.0
C1575 C 0.02598 0.50719 0.17356 0.0
C1576 C 1.00322 0.51732 0.16983 0.0
C1577 C 0.04256 0.51337 0.19393 0.0
C1578 C 0.99744 0.53394 0.18675 0.0
C1579 C 0.01382 0.54015 0.20708 0.0
H1580 H 0.45563 0.53506 0.22271 0.0
H1581 H 0.55317 0.58633 0.24969 0.0
H1582 H 0.57548 0.57846 0.21515 0.0
H1583 H 0.56755 0.55649 0.17755 0.0
H1584 H 0.47019 0.5034 0.15061 0.0
H1585 H 0.44768 0.51278 0.18471 0.0
C1586 C 0.48173 0.54434 0.22106 0.0
C1587 C 0.50265 0.56142 0.2388 0.0
C1588 C 0.4945 0.53951 0.20112 0.0
C1589 C 0.53649 0.57357 0.23624 0.0
C1590 C 0.54931 0.56891 0.21652 0.0
C1591 C 0.54136 0.54671 0.17917 0.0
C1592 C 0.52063 0.5291 0.16154 0.0
C1593 C 0.52856 0.55185 0.19889 0.0
C1594 C 0.4868 0.51728 0.1638 0.0
C1595 C 0.47387 0.52244 0.18337 0.0
H1596 H 0.96856 0.48771 0.79245 0.0
H1597 H 0.89383 0.39658 0.81738 0.0
H1598 H 0.92274 0.40642 0.85289 0.0
H1599 H 0.9698 0.44085 0.87669 0.0
H1600 H 0.04548 0.53102 0.85104 0.0
H1601 H 0.01568 0.52182 0.81603 0.0
C1602 C 0.95854 0.47015 0.80575 0.0
C1603 C 0.92908 0.44154 0.80239 0.0
C1604 C 0.97548 0.47581 0.82596 0.0
C1605 C 0.91657 0.41872 0.81958 0.0
C1606 C 0.93302 0.42438 0.83988 0.0
C1607 C 0.97956 0.45852 0.86346 0.0
C1608 C 1.0097 0.48658 0.8664 0.0
C1609 C 0.96254 0.45282 0.84325 0.0
C1610 C 0.02239 0.50916 0.84906 0.0
C1611 C 1.00535 0.50394 0.82909 0.0
H1612 H 0.5172 0.45646 0.78158 0.0
H1613 H 0.61708 0.51234 0.80361 0.0
H1614 H 0.59806 0.51964 0.83997 0.0
H1615 H 0.55274 0.51107 0.86532 0.0
H1616 H 0.45318 0.45407 0.84291 0.0
H1617 H 0.47242 0.44589 0.8071 0.0
C1618 C 0.53489 0.46983 0.79441 0.0
C1619 C 0.56856 0.48376 0.78977 0.0
C1620 C 0.52381 0.47377 0.81529 0.0
C1621 C 0.59103 0.50162 0.80655 0.0
C1622 C 0.58015 0.50566 0.82743 0.0
C1623 C 0.5353 0.49655 0.85268 0.0
C1624 C 0.50155 0.48345 0.85676 0.0
C1625 C 0.54657 0.49197 0.83197 0.0
C1626 C 0.47928 0.46489 0.84011 0.0
C1627 C 0.49025 0.46009 0.81963 0.0
H1628 H 0.57692 0.10513 0.80772 0.0
H1629 H 0.48635 0.03658 0.7769 0.0
H1630 H 0.46914 0.00541 0.81119 0.0
H1631 H 0.479 0.99758 0.84992 0.0
H1632 H 0.57021 0.06389 0.88103 0.0
H1633 H 0.58754 0.09614 0.84692 0.0
C1634 C 0.55356 0.08323 0.80848 0.0
C1635 C 0.53285 0.0735 0.78974 0.0
C1636 C 0.54371 0.06512 0.82841 0.0
C1637 C 0.50256 0.04507 0.79112 0.0
C1638 C 0.4927 0.02709 0.81073 0.0
C1639 C 0.5029 0.01885 0.84926 0.0
C1640 C 0.52326 0.02802 0.86814 0.0
C1641 C 0.51296 0.03693 0.82949 0.0
C1642 C 0.55376 0.05627 0.86695 0.0
C1643 C 0.56384 0.07463 0.84733 0.0
H1644 H 0.08838 0.2414 0.56604 0.0
H1645 H 0.18214 0.29193 0.59848 0.0
H1646 H 0.20593 0.32476 0.56531 0.0
H1647 H 0.20032 0.33999 0.52738 0.0
H1648 H 0.10682 0.29085 0.49462 0.0
H1649 H 0.08295 0.2565 0.52739 0.0
C1650 C 0.11397 0.25968 0.56586 0.0
C1651 C 0.13342 0.264 0.58478 0.0
C1652 C 0.12764 0.2787 0.54661 0.0
C1653 C 0.16665 0.28766 0.58411 0.0
C1654 C 0.1803 0.30662 0.56516 0.0
C1655 C 0.17465 0.3219 0.52741 0.0
C1656 C 0.1554 0.31824 0.50855 0.0
C1657 C 0.16104 0.30245 0.54636 0.0
C1658 C 0.12233 0.29412 0.50879 0.0
C1659 C 0.10859 0.27459 0.52762 0.0
H1660 H 0.76406 0.89458 0.55647 0.0
H1661 H 0.70598 0.80415 0.58955 0.0
H1662 H 0.66879 0.78475 0.55773 0.0
H1663 H 0.65268 0.79374 0.52049 0.0
H1664 H 0.71061 0.88481 0.48815 0.0
H1665 H 0.74772 0.90383 0.51985 0.0
C1666 C 0.74308 0.87072 0.55683 0.0
C1667 C 0.73773 0.85091 0.57541 0.0
C1668 C 0.72172 0.85987 0.53864 0.0
C1669 C 0.71082 0.8198 0.57538 0.0
C1670 C 0.68943 0.80877 0.55726 0.0
C1671 C 0.67325 0.81784 0.52052 0.0
C1672 C 0.67892 0.83781 0.50198 0.0
C1673 C 0.69458 0.82864 0.53882 0.0
C1674 C 0.70592 0.86885 0.5021 0.0
C1675 C 0.7271 0.87978 0.52024 0.0
H1676 H 0.20499 0.91247 0.57107 0.0
H1677 H 0.10314 0.86749 0.55296 0.0
H1678 H 0.11579 0.85392 0.51649 0.0
H1679 H 0.15555 0.85291 0.49011 0.0
H1680 H 0.25752 0.89941 0.50804 0.0
H1681 H 0.24504 0.91458 0.54391 0.0
C1682 C 0.18557 0.90014 0.55906 0.0
C1683 C 0.15308 0.89086 0.56498 0.0
C1684 C 0.19302 0.89255 0.53799 0.0
C1685 C 0.12829 0.87446 0.54915 0.0
C1686 C 0.13552 0.86684 0.52817 0.0
C1687 C 0.1751 0.86676 0.50173 0.0
C1688 C 0.20739 0.87465 0.49639 0.0
C1689 C 0.16776 0.87547 0.52247 0.0
C1690 C 0.23235 0.89243 0.51181 0.0
C1691 C 0.22527 0.90126 0.53234 0.0
H1692 H 0.59729 0.79922 0.13783 0.0
H1693 H 0.66341 0.77125 0.10983 0.0
H1694 H 0.69505 0.78647 0.14413 0.0
H1695 H 0.7041 0.80755 0.18204 0.0
H1696 H 0.63947 0.83726 0.21009 0.0
H1697 H 0.60705 0.82136 0.17594 0.0
C1698 C 0.61876 0.79669 0.1392 0.0
C1699 C 0.62779 0.78391 0.12129 0.0
C1700 C 0.63707 0.80568 0.15902 0.0
C1701 C 0.65554 0.78051 0.12345 0.0
C1702 C 0.6738 0.78938 0.14303 0.0
C1703 C 0.68314 0.81089 0.18063 0.0
C1704 C 0.67436 0.82369 0.19863 0.0
C1705 C 0.6648 0.80196 0.16091 0.0
C1706 C 0.64664 0.82717 0.19662 0.0
C1707 C 0.62818 0.81826 0.17702 0.0
H1708 H 0.248 0.86827 0.11776 0.0
H1709 H 0.24578 0.78343 0.14144 0.0
H1710 H 0.23399 0.79378 0.1794 0.0
H1711 H 0.22827 0.8294 0.20638 0.0
H1712 H 0.22989 0.91373 0.18183 0.0
H1713 H 0.23794 0.90117 0.14385 0.0
C1714 C 0.24486 0.85202 0.13124 0.0
C1715 C 0.24811 0.82534 0.12686 0.0
C1716 C 0.23812 0.85813 0.15294 0.0
C1717 C 0.24336 0.80414 0.1444 0.0
C1718 C 0.23675 0.81013 0.16611 0.0
C1719 C 0.22985 0.8447 0.19265 0.0
C1720 C 0.22904 0.87276 0.19704 0.0
C1721 C 0.23456 0.83735 0.17067 0.0
C1722 C 0.23115 0.89235 0.17902 0.0
C1723 C 0.23567 0.88516 0.15725 0.0
H1724 H 0.14924 0.39097 0.12848 0.0
H1725 H 0.25245 0.45297 0.13965 0.0
H1726 H 0.2467 0.43042 0.17708 0.0
H1727 H 0.21233 0.39096 0.20631 0.0
H1728 H 0.10921 0.33032 0.19436 0.0
H1729 H 0.11481 0.35526 0.15802 0.0
C1730 C 0.17049 0.40024 0.13917 0.0
C1731 C 0.20127 0.42383 0.131 0.0
C1732 C 0.16697 0.38741 0.16074 0.0
C1733 C 0.22849 0.43459 0.14518 0.0
C1734 C 0.22518 0.42183 0.16673 0.0
C1735 C 0.19107 0.38371 0.19588 0.0
C1736 C 0.16039 0.3587 0.20302 0.0
C1737 C 0.19455 0.39796 0.17466 0.0
C1738 C 0.1331 0.34934 0.18921 0.0
C1739 C 0.13629 0.36354 0.16838 0.0
H1740 H 0.75577 0.57648 0.88665 0.0
H1741 H 0.84922 0.62327 0.91978 0.0
H1742 H 0.87514 0.65388 0.88611 0.0
H1743 H 0.8716 0.66843 0.84753 0.0
H1744 H 0.77832 0.6237 0.81429 0.0
H1745 H 0.75232 0.59113 0.84749 0.0
C1746 C 0.78177 0.59348 0.88654 0.0
C1747 C 0.80042 0.59727 0.90585 0.0
C1748 C 0.7967 0.61138 0.86701 0.0
C1749 C 0.83421 0.61928 0.90519 0.0
C1750 C 0.84911 0.63703 0.88592 0.0
C1751 C 0.84551 0.65174 0.84752 0.0
C1752 C 0.82703 0.64883 0.82833 0.0
C1753 C 0.83062 0.6334 0.86678 0.0
C1754 C 0.79335 0.62639 0.82863 0.0
C1755 C 0.77837 0.60789 0.84773 0.0
H1756 H 0.37734 0.19758 0.90966 0.0
H1757 H 0.44396 0.16716 0.88663 0.0
H1758 H 0.41729 0.15402 0.85024 0.0
H1759 H 0.3738 0.14948 0.82542 0.0
H1760 H 0.30829 0.18134 0.84837 0.0
H1761 H 0.33595 0.19576 0.8843 0.0
C1762 C 0.38641 0.18857 0.89658 0.0
C1763 C 0.41259 0.18332 0.90091 0.0
C1764 C 0.37104 0.18114 0.87571 0.0
C1765 C 0.42359 0.17106 0.88385 0.0
C1766 C 0.40844 0.16366 0.863 0.0
C1767 C 0.36586 0.15999 0.83817 0.0
C1768 C 0.33884 0.1641 0.83422 0.0
C1769 C 0.38196 0.16835 0.85881 0.0
C1770 C 0.32864 0.17739 0.85107 0.0
C1771 C 0.34455 0.18581 0.87159 0.0
H1772 H 0.79723 0.20173 0.89724 0.0
H1773 H 0.89025 0.23378 0.92915 0.0
H1774 H 0.91143 0.22209 0.89555 0.0
H1775 H 0.90449 0.20476 0.8568 0.0
H1776 H 0.81131 0.17095 0.82467 0.0
H1777 H 0.78946 0.18172 0.8585 0.0
C1778 C 0.82199 0.20577 0.89688 0.0
C1779 C 0.84222 0.2189 0.91561 0.0
C1780 C 0.83414 0.19902 0.87739 0.0
C1781 C 0.87434 0.2242 0.91485 0.0
C1782 C 0.88647 0.21744 0.89566 0.0
C1783 C 0.87923 0.19925 0.85723 0.0
C1784 C 0.85966 0.18705 0.83813 0.0
C1785 C 0.86672 0.20516 0.87677 0.0
C1786 C 0.82716 0.18077 0.83897 0.0
C1787 C 0.81454 0.1867 0.85839 0.0
H1788 H 0.27341 0.08933 0.47143 0.0
H1789 H 0.32831 0.18225 0.44121 0.0
H1790 H 0.36184 0.20239 0.47474 0.0
H1791 H 0.37558 0.1934 0.51265 0.0
H1792 H 0.3203 0.10042 0.54277 0.0
H1793 H 0.28694 0.08039 0.50923 0.0
C1794 C 0.29289 0.11393 0.47215 0.0
C1795 C 0.29851 0.13425 0.45388 0.0
C1796 C 0.31196 0.12529 0.49143 0.0
C1797 C 0.32341 0.16622 0.45515 0.0
C1798 C 0.34266 0.17769 0.47425 0.0
C1799 C 0.35639 0.1687 0.51175 0.0
C1800 C 0.35042 0.14838 0.5301 0.0
C1801 C 0.3372 0.15741 0.49248 0.0
C1802 C 0.32516 0.11656 0.52891 0.0
C1803 C 0.30617 0.10508 0.50973 0.0
H1804 H 0.93175 0.18504 0.47433 0.0
H1805 H 0.8369 0.13392 0.44347 0.0
H1806 H 0.81121 0.13947 0.47726 0.0
H1807 H 0.81537 0.15785 0.51578 0.0
H1808 H 0.91013 0.21 0.54667 0.0
H1809 H 0.93604 0.2048 0.51281 0.0
C1810 C 0.9055 0.17541 0.47495 0.0
C1811 C 0.88629 0.15894 0.45641 0.0
C1812 C 0.89081 0.17865 0.49451 0.0
C1813 C 0.85224 0.14631 0.45758 0.0
C1814 C 0.83752 0.14957 0.47688 0.0
C1815 C 0.84173 0.16842 0.51506 0.0
C1816 C 0.86069 0.18428 0.53384 0.0
C1817 C 0.85652 0.16554 0.49548 0.0
C1818 C 0.89481 0.19728 0.53264 0.0
C1819 C 0.90971 0.19451 0.5132 0.0
H1820 H 0.8203 0.73548 0.45056 0.0
H1821 H 0.92205 0.79389 0.46786 0.0
H1822 H 0.91173 0.76637 0.50369 0.0
H1823 H 0.87396 0.72409 0.52987 0.0
H1824 H 0.77216 0.66707 0.51248 0.0
H1825 H 0.78226 0.69613 0.47742 0.0
C1826 C 0.84022 0.74265 0.46224 0.0
C1827 C 0.872 0.76672 0.45622 0.0
C1828 C 0.83408 0.72692 0.483 0.0
C1829 C 0.89743 0.77508 0.47167 0.0
C1830 C 0.89151 0.75949 0.49233 0.0
C1831 C 0.85394 0.7184 0.51855 0.0
C1832 C 0.82239 0.69317 0.52379 0.0
C1833 C 0.85996 0.73515 0.49815 0.0
C1834 C 0.79678 0.68602 0.50879 0.0
C1835 C 0.80251 0.70266 0.48869 0.0
loop_
_geom_bond_atom_site_label_1
_geom_bond_atom_site_label_2
_geom_bond_distance
_geom_bond_site_symmetry_2
_ccdc_geom_bond_type
H0 C5 0.930 . S
H1 C8 0.930 . S
H2 C10 0.930 . S
H3 C4 1.016 . S
C4 H3 1.016 . S
C4 N11 1.286 . S
C5 H0 0.930 . S
C5 C6 1.397 . S
C5 C7 1.361 . S
C6 C5 1.397 . S
C6 C10 1.390 . S
C7 C5 1.361 . S
C7 C8 1.393 . S
C7 N11 1.413 . S
C8 H1 0.930 . S
C8 C7 1.393 . S
C8 C9 1.399 . S
C9 C8 1.399 . S
C9 C10 1.381 . S
C10 H2 0.930 . S
C10 C6 1.390 . S
C10 C9 1.381 . S
N11 C4 1.286 . S
N11 C7 1.413 . S
H12 C17 0.930 . S
H13 C20 0.930 . S
H14 C22 0.930 . S
H15 C16 1.016 . S
C16 H15 1.016 . S
C16 N23 1.286 . S
C17 H12 0.930 . S
C17 C18 1.397 . S
C17 C19 1.361 . S
C18 C17 1.397 . S
C18 C22 1.390 . S
C19 C17 1.361 . S
C19 C20 1.393 . S
C19 N23 1.413 . S
C20 H13 0.930 . S
C20 C19 1.393 . S
C20 C21 1.399 . S
C21 C20 1.399 . S
C21 C22 1.381 . S
C22 H14 0.930 . S
C22 C18 1.390 . S
C22 C21 1.381 . S
N23 C16 1.286 . S
N23 C19 1.413 . S
H24 C29 0.930 . S
H25 C32 0.930 . S
H26 C34 0.930 . S
H27 C28 1.016 . S
C28 H27 1.016 . S
C28 N35 1.286 . S
C29 H24 0.930 . S
C29 C30 1.397 . S
C29 C31 1.361 . S
C30 C29 1.397 . S
C30 C34 1.390 . S
C31 C29 1.361 . S
C31 C32 1.393 . S
C31 N35 1.413 . S
C32 H25 0.930 . S
C32 C31 1.393 . S
C32 C33 1.399 . S
C33 C32 1.399 . S
C33 C34 1.381 . S
C34 H26 0.930 . S
C34 C30 1.390 . S
C34 C33 1.381 . S
N35 C28 1.286 . S
N35 C31 1.413 . S
H36 C41 0.930 . S
H37 C44 0.930 . S
H38 C46 0.930 . S
H39 C40 1.016 . S
C40 H39 1.016 . S
C40 N47 1.286 . S
C41 H36 0.930 . S
C41 C42 1.397 . S
C41 C43 1.361 . S
C42 C41 1.397 . S
C42 C46 1.390 . S
C43 C41 1.361 . S
C43 C44 1.393 . S
C43 N47 1.413 . S
C44 H37 0.930 . S
C44 C43 1.393 . S
C44 C45 1.399 . S
C45 C44 1.399 . S
C45 C46 1.381 . S
C46 H38 0.930 . S
C46 C42 1.390 . S
C46 C45 1.381 . S
N47 C40 1.286 . S
N47 C43 1.413 . S
H48 C53 0.930 . S
H49 C56 0.930 . S
H50 C58 0.930 . S
H51 C52 1.016 . S
C52 H51 1.016 . S
C52 N59 1.286 . S
C53 H48 0.930 . S
C53 C54 1.397 . S
C53 C55 1.361 . S
C54 C53 1.397 . S
C54 C58 1.390 . S
C55 C53 1.361 . S
C55 C56 1.393 . S
C55 N59 1.413 . S
C56 H49 0.930 . S
C56 C55 1.393 . S
C56 C57 1.399 . S
C57 C56 1.399 . S
C57 C58 1.381 . S
C58 H50 0.930 . S
C58 C54 1.390 . S
C58 C57 1.381 . S
N59 C52 1.286 . S
N59 C55 1.413 . S
H60 C65 0.930 . S
H61 C68 0.930 . S
H62 C70 0.930 . S
H63 C64 1.016 . S
C64 H63 1.016 . S
C64 N71 1.286 . S
C65 H60 0.930 . S
C65 C66 1.397 . S
C65 C67 1.361 . S
C66 C65 1.397 . S
C66 C70 1.390 . S
C67 C65 1.361 . S
C67 C68 1.393 . S
C67 N71 1.413 . S
C68 H61 0.930 . S
C68 C67 1.393 . S
C68 C69 1.399 . S
C69 C68 1.399 . S
C69 C70 1.381 . S
C70 H62 0.930 . S
C70 C66 1.390 . S
C70 C69 1.381 . S
N71 C64 1.286 . S
N71 C67 1.413 . S
H72 C77 0.930 . S
H73 C80 0.930 . S
H74 C82 0.930 . S
H75 C76 1.016 . S
C76 H75 1.016 . S
C76 N83 1.286 . S
C77 H72 0.930 . S
C77 C78 1.397 . S
C77 C79 1.361 . S
C78 C77 1.397 . S
C78 C82 1.390 . S
C79 C77 1.361 . S
C79 C80 1.393 . S
C79 N83 1.413 . S
C80 H73 0.930 . S
C80 C79 1.393 . S
C80 C81 1.399 . S
C81 C80 1.399 . S
C81 C82 1.381 . S
C82 H74 0.930 . S
C82 C78 1.390 . S
C82 C81 1.381 . S
N83 C76 1.286 . S
N83 C79 1.413 . S
H84 C89 0.930 . S
H85 C92 0.930 . S
H86 C94 0.930 . S
H87 C88 1.016 . S
C88 H87 1.016 . S
C88 N95 1.286 . S
C89 H84 0.930 . S
C89 C90 1.397 . S
C89 C91 1.361 . S
C90 C89 1.397 . S
C90 C94 1.390 . S
C91 C89 1.361 . S
C91 C92 1.393 . S
C91 N95 1.413 . S
C92 H85 0.930 . S
C92 C91 1.393 . S
C92 C93 1.399 . S
C93 C92 1.399 . S
C93 C94 1.381 . S
C94 H86 0.930 . S
C94 C90 1.390 . S
C94 C93 1.381 . S
N95 C88 1.286 . S
N95 C91 1.413 . S
H96 C101 0.930 . S
H97 C104 0.930 . S
H98 C106 0.930 . S
H99 C100 1.016 . S
C100 H99 1.016 . S
C100 N107 1.286 . S
C101 H96 0.930 . S
C101 C102 1.397 . S
C101 C103 1.361 . S
C102 C101 1.397 . S
C102 C106 1.390 . S
C103 C101 1.361 . S
C103 C104 1.393 . S
C103 N107 1.413 . S
C104 H97 0.930 . S
C104 C103 1.393 . S
C104 C105 1.399 . S
C105 C104 1.399 . S
C105 C106 1.381 . S
C106 H98 0.930 . S
C106 C102 1.390 . S
C106 C105 1.381 . S
N107 C100 1.286 . S
N107 C103 1.413 . S
H108 C113 0.930 . S
H109 C116 0.930 . S
H110 C118 0.930 . S
H111 C112 1.016 . S
C112 H111 1.016 . S
C112 N119 1.286 . S
C113 H108 0.930 . S
C113 C114 1.397 . S
C113 C115 1.361 . S
C114 C113 1.397 . S
C114 C118 1.390 . S
C115 C113 1.361 . S
C115 C116 1.393 . S
C115 N119 1.413 . S
C116 H109 0.930 . S
C116 C115 1.393 . S
C116 C117 1.399 . S
C117 C116 1.399 . S
C117 C118 1.381 . S
C118 H110 0.930 . S
C118 C114 1.390 . S
C118 C117 1.381 . S
N119 C112 1.286 . S
N119 C115 1.413 . S
H120 C125 0.930 . S
H121 C128 0.930 . S
H122 C130 0.930 . S
H123 C124 1.016 . S
C124 H123 1.016 . S
C124 N131 1.286 . S
C125 H120 0.930 . S
C125 C126 1.397 . S
C125 C127 1.361 . S
C126 C125 1.397 . S
C126 C130 1.390 . S
C127 C125 1.361 . S
C127 C128 1.393 . S
C127 N131 1.413 . S
C128 H121 0.930 . S
C128 C127 1.393 . S
C128 C129 1.399 . S
C129 C128 1.399 . S
C129 C130 1.381 . S
C130 H122 0.930 . S
C130 C126 1.390 . S
C130 C129 1.381 . S
N131 C124 1.286 . S
N131 C127 1.413 . S
H132 C137 0.930 . S
H133 C140 0.930 . S
H134 C142 0.930 . S
H135 C136 1.016 . S
C136 H135 1.016 . S
C136 N143 1.286 . S
C137 H132 0.930 . S
C137 C138 1.397 . S
C137 C139 1.361 . S
C138 C137 1.397 . S
C138 C142 1.390 . S
C139 C137 1.361 . S
C139 C140 1.393 . S
C139 N143 1.413 . S
C140 H133 0.930 . S
C140 C139 1.393 . S
C140 C141 1.399 . S
C141 C140 1.399 . S
C141 C142 1.381 . S
C142 H134 0.930 . S
C142 C138 1.390 . S
C142 C141 1.381 . S
N143 C136 1.286 . S
N143 C139 1.413 . S
H144 C149 0.930 . S
H145 C152 0.930 . S
H146 C154 0.930 . S
H147 C148 1.016 . S
C148 H147 1.016 . S
C148 N155 1.286 . S
C149 H144 0.930 . S
C149 C150 1.397 . S
C149 C151 1.361 . S
C150 C149 1.397 . S
C150 C154 1.390 . S
C151 C149 1.361 . S
C151 C152 1.393 . S
C151 N155 1.413 . S
C152 H145 0.930 . S
C152 C151 1.393 . S
C152 C153 1.399 . S
C153 C152 1.399 . S
C153 C154 1.381 . S
C154 H146 0.930 . S
C154 C150 1.390 . S
C154 C153 1.381 . S
N155 C148 1.286 . S
N155 C151 1.413 . S
H156 C161 0.930 . S
H157 C164 0.930 . S
H158 C166 0.930 . S
H159 C160 1.016 . S
C160 H159 1.016 . S
C160 N167 1.286 . S
C161 H156 0.930 . S
C161 C162 1.397 . S
C161 C163 1.361 . S
C162 C161 1.397 . S
C162 C166 1.390 . S
C163 C161 1.361 . S
C163 C164 1.393 . S
C163 N167 1.413 . S
C164 H157 0.930 . S
C164 C163 1.393 . S
C164 C165 1.399 . S
C165 C164 1.399 . S
C165 C166 1.381 . S
C166 H158 0.930 . S
C166 C162 1.390 . S
C166 C165 1.381 . S
N167 C160 1.286 . S
N167 C163 1.413 . S
H168 C173 0.930 . S
H169 C176 0.930 . S
H170 C178 0.930 . S
H171 C172 1.016 . S
C172 H171 1.016 . S
C172 N179 1.286 . S
C173 H168 0.930 . S
C173 C174 1.397 . S
C173 C175 1.361 . S
C174 C173 1.397 . S
C174 C178 1.390 . S
C175 C173 1.361 . S
C175 C176 1.393 . S
C175 N179 1.413 . S
C176 H169 0.930 . S
C176 C175 1.393 . S
C176 C177 1.399 . S
C177 C176 1.399 . S
C177 C178 1.381 . S
C178 H170 0.930 . S
C178 C174 1.390 . S
C178 C177 1.381 . S
N179 C172 1.286 . S
N179 C175 1.413 . S
H180 C185 0.930 . S
H181 C188 0.930 . S
H182 C190 0.930 . S
H183 C184 1.016 . S
C184 H183 1.016 . S
C184 N191 1.286 . S
C185 H180 0.930 . S
C185 C186 1.397 . S
C185 C187 1.361 . S
C186 C185 1.397 . S
C186 C190 1.390 . S
C187 C185 1.361 . S
C187 C188 1.393 . S
C187 N191 1.413 . S
C188 H181 0.930 . S
C188 C187 1.393 . S
C188 C189 1.399 . S
C189 C188 1.399 . S
C189 C190 1.381 . S
C190 H182 0.930 . S
C190 C186 1.390 . S
C190 C189 1.381 . S
N191 C184 1.286 . S
N191 C187 1.413 . S
H192 C197 0.930 . S
H193 C200 0.930 . S
H194 C202 0.930 . S
H195 C196 1.016 . S
C196 H195 1.016 . S
C196 N203 1.286 . S
C197 H192 0.930 . S
C197 C198 1.397 . S
C197 C199 1.361 . S
C198 C197 1.397 . S
C198 C202 1.390 . S
C199 C197 1.361 . S
C199 C200 1.393 . S
C199 N203 1.413 . S
C200 H193 0.930 . S
C200 C199 1.393 . S
C200 C201 1.399 . S
C201 C200 1.399 . S
C201 C202 1.381 . S
C202 H194 0.930 . S
C202 C198 1.390 . S
C202 C201 1.381 . S
N203 C196 1.286 . S
N203 C199 1.413 . S
H204 C209 0.930 . S
H205 C212 0.930 . S
H206 C214 0.930 . S
H207 C208 1.016 . S
C208 H207 1.016 . S
C208 N215 1.286 . S
C209 H204 0.930 . S
C209 C210 1.397 . S
C209 C211 1.361 . S
C210 C209 1.397 . S
C210 C214 1.390 . S
C211 C209 1.361 . S
C211 C212 1.393 . S
C211 N215 1.413 . S
C212 H205 0.930 . S
C212 C211 1.393 . S
C212 C213 1.399 . S
C213 C212 1.399 . S
C213 C214 1.381 . S
C214 H206 0.930 . S
C214 C210 1.390 . S
C214 C213 1.381 . S
N215 C208 1.286 . S
N215 C211 1.413 . S
Gd216 N247 2.661 . S
Gd216 N253 2.601 . S
Gd216 O260 2.545 . S
Gd216 O261 2.606 1_545 S
Gd216 O263 2.429 . S
Gd216 O264 2.545 1_545 S
Gd216 O265 2.412 1_545 S
Gd216 O267 2.362 . S
Gd216 O268 2.324 1_545 S
Gd216 C275 2.828 . S
Gd217 N226 2.661 . S
Gd217 N230 2.601 . S
Gd217 O261 2.362 1_556 S
Gd217 O262 2.324 1_565 S
Gd217 O266 2.545 . S
Gd217 O267 2.606 1_566 S
Gd217 O269 2.429 . S
Gd217 O270 2.545 1_565 S
Gd217 O271 2.412 1_565 S
Gd217 C284 2.828 . S
C218 C221 1.417 . S
C218 C223 1.431 . S
C218 C224 1.412 . S
C219 C222 1.437 . S
C219 C223 1.317 . S
C219 H238 0.929 . S
C220 C221 1.426 . S
C220 C222 1.413 . S
C220 N230 1.359 . S
C221 C218 1.417 . S
C221 C220 1.426 . S
C221 N226 1.350 . S
C222 C219 1.437 . S
C222 C220 1.413 . S
C222 C232 1.391 . S
C223 C218 1.431 . S
C223 C219 1.317 . S
C223 H234 0.930 . S
C224 C218 1.412 . S
C224 C225 1.355 . S
C224 H236 0.930 . S
C225 C224 1.355 . S
C225 C227 1.402 . S
C225 H237 0.930 . S
N226 Gd217 2.661 . S
N226 C221 1.350 . S
N226 C227 1.307 . S
C227 C225 1.402 . S
C227 N226 1.307 . S
C227 H228 0.930 . S
H228 C227 0.930 . S
C229 N230 1.334 . S
C229 C231 1.394 . S
C229 H233 0.930 . S
N230 Gd217 2.601 . S
N230 C220 1.359 . S
N230 C229 1.334 . S
C231 C229 1.394 . S
C231 C232 1.359 . S
C231 H243 0.930 . S
C232 C222 1.391 . S
C232 C231 1.359 . S
C232 H244 0.929 . S
H233 C229 0.930 . S
H234 C223 0.930 . S
H235 C252 0.930 . S
H236 C224 0.930 . S
H237 C225 0.930 . S
H238 C219 0.929 . S
H239 C257 0.930 . S
H240 C248 0.930 . S
H241 C249 0.930 . S
H242 C273 0.929 . S
H243 C231 0.930 . S
H244 C232 0.929 . S
H245 C274 0.930 . S
H246 C255 0.930 . S
N247 Gd216 2.661 . S
N247 C251 1.350 . S
N247 C252 1.307 . S
C248 H240 0.930 . S
C248 C249 1.355 . S
C248 C250 1.412 . S
C249 H241 0.930 . S
C249 C248 1.355 . S
C249 C252 1.402 . S
C250 C248 1.412 . S
C250 C251 1.417 . S
C250 C274 1.431 . S
C251 N247 1.350 . S
C251 C250 1.417 . S
C251 C254 1.426 . S
C252 H235 0.930 . S
C252 N247 1.307 . S
C252 C249 1.402 . S
N253 Gd216 2.601 . S
N253 C254 1.359 . S
N253 C257 1.334 . S
C254 C251 1.426 . S
C254 N253 1.359 . S
C254 C258 1.413 . S
C255 H246 0.930 . S
C255 C256 1.359 . S
C255 C257 1.394 . S
C256 C255 1.359 . S
C256 C258 1.391 . S
C256 H259 0.929 . S
C257 H239 0.930 . S
C257 N253 1.334 . S
C257 C255 1.394 . S
C258 C254 1.413 . S
C258 C256 1.391 . S
C258 C273 1.437 . S
H259 C256 0.929 . S
O260 Gd216 2.545 . S
O260 C275 1.258 . S
O261 Gd216 2.606 1_565 S
O261 Gd217 2.362 1_554 S
O261 C272 1.284 . S
O262 Gd217 2.324 1_545 S
O262 C282 1.242 1_556 S
O263 Gd216 2.429 . S
O263 C282 1.284 . S
O264 Gd216 2.545 1_565 S
O264 C272 1.250 . S
O265 Gd216 2.412 1_565 S
O265 C275 1.252 1_565 S
O266 Gd217 2.545 . S
O266 C284 1.258 . S
O267 Gd216 2.362 . S
O267 Gd217 2.606 1_544 S
O267 C283 1.284 1_554 S
O268 Gd216 2.324 1_565 S
O268 C291 1.254 . S
O269 Gd217 2.429 . S
O269 C291 1.268 1_556 S
O270 Gd217 2.545 1_545 S
O270 C283 1.250 . S
O271 Gd217 2.412 1_545 S
O271 C284 1.252 1_545 S
C272 O261 1.284 . S
C272 O264 1.250 . S
C273 H242 0.929 . S
C273 C258 1.437 . S
C273 C274 1.317 . S
C274 H245 0.930 . S
C274 C250 1.431 . S
C274 C273 1.317 . S
C275 Gd216 2.828 . S
C275 O260 1.258 . S
C275 O265 1.252 1_545 S
C275 C276 1.497 1_545 S
C276 C275 1.497 1_565 S
C276 C277 1.395 1_565 S
C276 C278 1.381 . S
C277 C276 1.395 1_545 S
C277 C280 1.398 . S
C277 H292 0.930 . S
C278 C276 1.381 . S
C278 C279 1.391 . S
C278 H293 0.930 . S
C279 C278 1.391 . S
C279 C281 1.387 . S
C280 C277 1.398 . S
C280 C281 1.380 1_545 S
C280 H294 0.930 . S
C281 C279 1.387 . S
C281 C280 1.380 1_565 S
C281 H295 0.930 . S
C282 O262 1.242 1_554 S
C282 O263 1.284 . S
C283 O267 1.284 1_556 S
C283 O270 1.250 . S
C284 Gd217 2.828 . S
C284 O266 1.258 . S
C284 O271 1.252 1_565 S
C284 C285 1.497 1_565 S
C285 C284 1.497 1_545 S
C285 C286 1.395 1_545 S
C285 C287 1.380 . S
C286 C285 1.395 1_565 S
C286 C289 1.398 . S
C286 H296 0.930 . S
C287 C285 1.380 . S
C287 C288 1.391 . S
C287 H297 0.930 . S
C288 C287 1.391 . S
C288 C290 1.387 . S
C289 C286 1.398 . S
C289 C290 1.380 1_565 S
C289 H298 0.930 . S
C290 C288 1.387 . S
C290 C289 1.380 1_545 S
C290 H299 0.930 . S
C291 O268 1.254 . S
C291 O269 1.268 1_554 S
H292 C277 0.930 . S
H293 C278 0.930 . S
H294 C280 0.930 . S
H295 C281 0.930 . S
H296 C286 0.930 . S
H297 C287 0.930 . S
H298 C289 0.930 . S
H299 C290 0.930 . S
Gd300 N331 2.661 . S
Gd300 N337 2.601 . S
Gd300 O344 2.545 . S
Gd300 O345 2.606 1_655 S
Gd300 O347 2.429 . S
Gd300 O348 2.545 1_655 S
Gd300 O349 2.412 1_655 S
Gd300 O351 2.362 . S
Gd300 O352 2.324 1_655 S
Gd300 C359 2.828 . S
Gd301 N310 2.661 . S
Gd301 N314 2.601 . S
Gd301 O345 2.362 1_556 S
Gd301 O346 2.324 1_455 S
Gd301 O350 2.545 . S
Gd301 O351 2.606 1_456 S
Gd301 O353 2.429 . S
Gd301 O354 2.545 1_455 S
Gd301 O355 2.408 1_455 S
Gd301 C368 2.828 . S
C302 C305 1.417 . S
C302 C307 1.431 . S
C302 C308 1.412 . S
C303 C306 1.437 . S
C303 C307 1.317 . S
C303 H322 0.929 . S
C304 C305 1.426 . S
C304 C306 1.413 . S
C304 N314 1.359 . S
C305 C302 1.417 . S
C305 C304 1.426 . S
C305 N310 1.350 . S
C306 C303 1.437 . S
C306 C304 1.413 . S
C306 C316 1.391 . S
C307 C302 1.431 . S
C307 C303 1.317 . S
C307 H318 0.930 . S
C308 C302 1.412 . S
C308 C309 1.355 . S
C308 H320 0.930 . S
C309 C308 1.355 . S
C309 C311 1.402 . S
C309 H321 0.930 . S
N310 Gd301 2.661 . S
N310 C305 1.350 . S
N310 C311 1.307 . S
C311 C309 1.402 . S
C311 N310 1.307 . S
C311 H312 0.930 . S
H312 C311 0.930 . S
C313 N314 1.334 . S
C313 C315 1.394 . S
C313 H317 0.930 . S
N314 Gd301 2.601 . S
N314 C304 1.359 . S
N314 C313 1.334 . S
C315 C313 1.394 . S
C315 C316 1.359 . S
C315 H327 0.930 . S
C316 C306 1.391 . S
C316 C315 1.359 . S
C316 H328 0.929 . S
H317 C313 0.930 . S
H318 C307 0.930 . S
H319 C336 0.930 . S
H320 C308 0.930 . S
H321 C309 0.930 . S
H322 C303 0.929 . S
H323 C341 0.930 . S
H324 C332 0.930 . S
H325 C333 0.930 . S
H326 C357 0.929 . S
H327 C315 0.930 . S
H328 C316 0.929 . S
H329 C358 0.930 . S
H330 C339 0.930 . S
N331 Gd300 2.661 . S
N331 C335 1.350 . S
N331 C336 1.307 . S
C332 H324 0.930 . S
C332 C333 1.355 . S
C332 C334 1.412 . S
C333 H325 0.930 . S
C333 C332 1.355 . S
C333 C336 1.402 . S
C334 C332 1.412 . S
C334 C335 1.417 . S
C334 C358 1.431 . S
C335 N331 1.350 . S
C335 C334 1.417 . S
C335 C338 1.426 . S
C336 H319 0.930 . S
C336 N331 1.307 . S
C336 C333 1.402 . S
N337 Gd300 2.601 . S
N337 C338 1.359 . S
N337 C341 1.334 . S
C338 C335 1.426 . S
C338 N337 1.359 . S
C338 C342 1.413 . S
C339 H330 0.930 . S
C339 C340 1.359 . S
C339 C341 1.394 . S
C340 C339 1.359 . S
C340 C342 1.391 . S
C340 H343 0.929 . S
C341 H323 0.930 . S
C341 N337 1.334 . S
C341 C339 1.394 . S
C342 C338 1.413 . S
C342 C340 1.391 . S
C342 C357 1.437 . S
H343 C340 0.929 . S
O344 Gd300 2.545 . S
O344 C359 1.258 . S
O345 Gd300 2.606 1_455 S
O345 Gd301 2.362 1_554 S
O345 C356 1.284 . S
O346 Gd301 2.324 1_655 S
O346 C366 1.277 . S
O347 Gd300 2.429 . S
O347 C366 1.233 1_554 S
O348 Gd300 2.545 1_455 S
O348 C356 1.250 . S
O349 Gd300 2.412 1_455 S
O349 C359 1.252 1_455 S
O350 Gd301 2.545 . S
O350 C368 1.258 . S
O351 Gd300 2.362 . S
O351 Gd301 2.606 1_654 S
O351 C367 1.284 1_554 S
O352 Gd300 2.324 1_455 S
O352 C375 1.254 . S
O353 Gd301 2.429 . S
O353 C375 1.268 1_556 S
O354 Gd301 2.545 1_655 S
O354 C367 1.250 . S
O355 Gd301 2.408 1_655 S
O355 C368 1.254 1_655 S
C356 O345 1.284 . S
C356 O348 1.250 . S
C357 H326 0.929 . S
C357 C342 1.437 . S
C357 C358 1.317 . S
C358 H329 0.930 . S
C358 C334 1.431 . S
C358 C357 1.317 . S
C359 Gd300 2.828 . S
C359 O344 1.258 . S
C359 O349 1.252 1_655 S
C359 C360 1.497 1_655 S
C360 C359 1.497 1_455 S
C360 C361 1.395 1_455 S
C360 C362 1.380 . S
C361 C360 1.395 1_655 S
C361 C364 1.398 . S
C361 H376 0.930 . S
C362 C360 1.380 . S
C362 C363 1.391 . S
C362 H377 0.930 . S
C363 C362 1.391 . S
C363 C365 1.387 . S
C364 C361 1.398 . S
C364 C365 1.380 1_655 S
C364 H378 0.930 . S
C365 C363 1.387 . S
C365 C364 1.380 1_455 S
C365 H379 0.930 . S
C366 O346 1.277 . S
C366 O347 1.233 1_556 S
C367 O351 1.284 1_556 S
C367 O354 1.250 . S
C368 Gd301 2.828 . S
C368 O350 1.258 . S
C368 O355 1.254 1_455 S
C368 C369 1.497 . S
C369 C368 1.497 . S
C369 C370 1.395 . S
C369 C371 1.380 1_455 S
C370 C369 1.395 . S
C370 C373 1.398 . S
C370 H380 0.930 . S
C371 C369 1.380 1_655 S
C371 C372 1.391 . S
C371 H381 0.930 . S
C372 C371 1.391 . S
C372 C374 1.387 . S
C373 C370 1.398 . S
C373 C374 1.380 1_455 S
C373 H382 0.930 . S
C374 C372 1.387 . S
C374 C373 1.380 1_655 S
C374 H383 0.930 . S
C375 O352 1.254 . S
C375 O353 1.268 1_554 S
H376 C361 0.930 . S
H377 C362 0.930 . S
H378 C364 0.930 . S
H379 C365 0.930 . S
H380 C370 0.930 . S
H381 C371 0.930 . S
H382 C373 0.930 . S
H383 C374 0.930 . S
Gd384 N415 2.661 . S
Gd384 N421 2.601 . S
Gd384 O428 2.545 . S
Gd384 O429 2.606 1_556 S
Gd384 O431 2.456 . S
Gd384 O432 2.545 . S
Gd384 O433 2.412 . S
Gd384 O435 2.362 1_556 S
Gd384 O436 2.324 . S
Gd384 C443 2.828 . S
Gd385 N394 2.661 . S
Gd385 N398 2.601 . S
Gd385 O429 2.362 . S
Gd385 O430 2.324 . S
Gd385 O434 2.545 . S
Gd385 O435 2.606 . S
Gd385 O437 2.429 . S
Gd385 O438 2.545 . S
Gd385 O439 2.412 . S
Gd385 C452 2.828 . S
C386 C389 1.417 . S
C386 C391 1.431 . S
C386 C392 1.412 . S
C387 C390 1.437 . S
C387 C391 1.317 . S
C387 H406 0.929 . S
C388 C389 1.426 . S
C388 C390 1.413 . S
C388 N398 1.359 . S
C389 C386 1.417 . S
C389 C388 1.426 . S
C389 N394 1.350 . S
C390 C387 1.437 . S
C390 C388 1.413 . S
C390 C400 1.391 . S
C391 C386 1.431 . S
C391 C387 1.317 . S
C391 H402 0.930 . S
C392 C386 1.412 . S
C392 C393 1.355 . S
C392 H404 0.930 . S
C393 C392 1.355 . S
C393 C395 1.402 . S
C393 H405 0.930 . S
N394 Gd385 2.661 . S
N394 C389 1.350 . S
N394 C395 1.307 . S
C395 C393 1.402 . S
C395 N394 1.307 . S
C395 H396 0.930 . S
H396 C395 0.930 . S
C397 N398 1.334 . S
C397 C399 1.394 . S
C397 H401 0.930 . S
N398 Gd385 2.601 . S
N398 C388 1.359 . S
N398 C397 1.334 . S
C399 C397 1.394 . S
C399 C400 1.359 . S
C399 H411 0.930 . S
C400 C390 1.391 . S
C400 C399 1.359 . S
C400 H412 0.929 . S
H401 C397 0.930 . S
H402 C391 0.930 . S
H403 C420 0.930 . S
H404 C392 0.930 . S
H405 C393 0.930 . S
H406 C387 0.929 . S
H407 C425 0.930 . S
H408 C416 0.930 . S
H409 C417 0.930 . S
H410 C441 0.929 . S
H411 C399 0.930 . S
H412 C400 0.929 . S
H413 C442 0.930 . S
H414 C423 0.930 . S
N415 Gd384 2.661 . S
N415 C419 1.350 . S
N415 C420 1.307 . S
C416 H408 0.930 . S
C416 C417 1.355 . S
C416 C418 1.412 . S
C417 H409 0.930 . S
C417 C416 1.355 . S
C417 C420 1.402 . S
C418 C416 1.412 . S
C418 C419 1.417 . S
C418 C442 1.431 . S
C419 N415 1.350 . S
C419 C418 1.417 . S
C419 C422 1.426 . S
C420 H403 0.930 . S
C420 N415 1.307 . S
C420 C417 1.402 . S
N421 Gd384 2.601 . S
N421 C422 1.359 . S
N421 C425 1.334 . S
C422 C419 1.426 . S
C422 N421 1.359 . S
C422 C426 1.413 . S
C423 H414 0.930 . S
C423 C424 1.359 . S
C423 C425 1.394 . S
C424 C423 1.359 . S
C424 C426 1.391 . S
C424 H427 0.929 . S
C425 H407 0.930 . S
C425 N421 1.334 . S
C425 C423 1.394 . S
C426 C422 1.413 . S
C426 C424 1.391 . S
C426 C441 1.437 . S
H427 C424 0.929 . S
O428 Gd384 2.545 . S
O428 C443 1.258 . S
O429 Gd384 2.606 1_554 S
O429 Gd385 2.362 . S
O429 C440 1.284 1_554 S
O430 Gd385 2.324 . S
O430 C450 1.254 . S
O431 Gd384 2.456 . S
O431 C450 1.216 1_556 S
O432 Gd384 2.545 . S
O432 C440 1.250 . S
O433 Gd384 2.412 . S
O433 C443 1.252 . S
O434 Gd385 2.545 . S
O434 C452 1.258 . S
O435 Gd384 2.362 1_554 S
O435 Gd385 2.606 . S
O435 C451 1.284 . S
O436 Gd384 2.324 . S
O436 C459 1.223 1_556 S
O437 Gd385 2.429 . S
O437 C459 1.313 . S
O438 Gd385 2.545 . S
O438 C451 1.250 . S
O439 Gd385 2.412 . S
O439 C452 1.252 . S
C440 O429 1.284 1_556 S
C440 O432 1.250 . S
C441 H410 0.929 . S
C441 C426 1.437 . S
C441 C442 1.317 . S
C442 H413 0.930 . S
C442 C418 1.431 . S
C442 C441 1.317 . S
C443 Gd384 2.828 . S
C443 O428 1.258 . S
C443 O433 1.252 . S
C443 C444 1.497 . S
C444 C443 1.497 . S
C444 C445 1.395 . S
C444 C446 1.380 . S
C445 C444 1.395 . S
C445 C448 1.398 . S
C445 H460 0.930 . S
C446 C444 1.380 . S
C446 C447 1.391 . S
C446 H461 0.930 . S
C447 C446 1.391 . S
C447 C449 1.387 . S
C448 C445 1.398 . S
C448 C449 1.380 . S
C448 H462 0.930 . S
C449 C447 1.387 . S
C449 C448 1.380 . S
C449 H463 0.930 . S
C450 O430 1.254 . S
C450 O431 1.216 1_554 S
C451 O435 1.284 . S
C451 O438 1.250 . S
C452 Gd385 2.828 . S
C452 O434 1.258 . S
C452 O439 1.252 . S
C452 C453 1.497 . S
C453 C452 1.497 . S
C453 C454 1.395 . S
C453 C455 1.380 . S
C454 C453 1.395 . S
C454 C457 1.398 . S
C454 H464 0.930 . S
C455 C453 1.380 . S
C455 C456 1.391 . S
C455 H465 0.930 . S
C456 C455 1.391 . S
C456 C458 1.387 . S
C457 C454 1.398 . S
C457 C458 1.380 . S
C457 H466 0.930 . S
C458 C456 1.387 . S
C458 C457 1.380 . S
C458 H467 0.930 . S
C459 O436 1.223 1_554 S
C459 O437 1.313 . S
H460 C445 0.930 . S
H461 C446 0.930 . S
H462 C448 0.930 . S
H463 C449 0.930 . S
H464 C454 0.930 . S
H465 C455 0.930 . S
H466 C457 0.930 . S
H467 C458 0.930 . S
Gd468 N499 2.661 . S
Gd468 N505 2.601 . S
Gd468 O512 2.545 . S
Gd468 O513 2.606 . S
Gd468 O515 2.429 . S
Gd468 O516 2.545 . S
Gd468 O517 2.412 . S
Gd468 O519 2.362 . S
Gd468 O520 2.324 . S
Gd468 C527 2.828 . S
Gd469 N478 2.661 . S
Gd469 N482 2.601 . S
Gd469 O513 2.362 . S
Gd469 O514 2.324 . S
Gd469 O518 2.545 . S
Gd469 O519 2.606 . S
Gd469 O521 2.429 . S
Gd469 O522 2.545 . S
Gd469 O523 2.412 . S
Gd469 C536 2.828 . S
C470 C473 1.417 . S
C470 C475 1.432 1_455 S
C470 C476 1.412 1_455 S
C471 C474 1.437 . S
C471 C475 1.286 1_455 S
C471 H490 0.929 . S
C472 C473 1.426 . S
C472 C474 1.413 . S
C472 N482 1.359 . S
C473 C470 1.417 . S
C473 C472 1.426 . S
C473 N478 1.350 . S
C474 C471 1.437 . S
C474 C472 1.413 . S
C474 C484 1.391 . S
C475 C470 1.432 1_655 S
C475 C471 1.286 1_655 S
C475 H486 0.962 . S
C476 C470 1.412 1_655 S
C476 C477 1.355 1_655 S
C476 H488 0.930 . S
C477 C476 1.355 1_455 S
C477 C479 1.402 . S
C477 H489 0.930 . S
N478 Gd469 2.661 . S
N478 C473 1.350 . S
N478 C479 1.307 . S
C479 C477 1.402 . S
C479 N478 1.307 . S
C479 H480 0.930 . S
H480 C479 0.930 . S
C481 N482 1.334 . S
C481 C483 1.394 . S
C481 H485 0.930 . S
N482 Gd469 2.601 . S
N482 C472 1.359 . S
N482 C481 1.334 . S
C483 C481 1.394 . S
C483 C484 1.359 . S
C483 H495 0.930 . S
C484 C474 1.391 . S
C484 C483 1.359 . S
C484 H496 0.929 . S
H485 C481 0.930 . S
H486 C475 0.962 . S
H487 C504 0.930 . S
H488 C476 0.930 . S
H489 C477 0.930 . S
H490 C471 0.929 . S
H491 C509 0.930 . S
H492 C500 0.930 . S
H493 C501 0.930 . S
H494 C525 0.929 . S
H495 C483 0.930 . S
H496 C484 0.929 . S
H497 C526 0.930 . S
H498 C507 0.930 . S
N499 Gd468 2.661 . S
N499 C503 1.350 . S
N499 C504 1.307 . S
C500 H492 0.930 . S
C500 C501 1.355 . S
C500 C502 1.412 . S
C501 H493 0.930 . S
C501 C500 1.355 . S
C501 C504 1.402 . S
C502 C500 1.412 . S
C502 C503 1.417 . S
C502 C526 1.431 . S
C503 N499 1.350 . S
C503 C502 1.417 . S
C503 C506 1.426 . S
C504 H487 0.930 . S
C504 N499 1.307 . S
C504 C501 1.402 . S
N505 Gd468 2.601 . S
N505 C506 1.359 . S
N505 C509 1.334 . S
C506 C503 1.426 . S
C506 N505 1.359 . S
C506 C510 1.413 . S
C507 H498 0.930 . S
C507 C508 1.359 . S
C507 C509 1.394 . S
C508 C507 1.359 . S
C508 C510 1.391 . S
C508 H511 0.929 . S
C509 H491 0.930 . S
C509 N505 1.334 . S
C509 C507 1.394 . S
C510 C506 1.413 . S
C510 C508 1.391 . S
C510 C525 1.437 . S
H511 C508 0.929 . S
O512 Gd468 2.545 . S
O512 C527 1.258 . S
O513 Gd468 2.606 . S
O513 Gd469 2.362 . S
O513 C524 1.284 . S
O514 Gd469 2.324 . S
O514 C534 1.254 . S
O515 Gd468 2.429 . S
O515 C534 1.268 . S
O516 Gd468 2.545 . S
O516 C524 1.250 . S
O517 Gd468 2.412 . S
O517 C527 1.252 . S
O518 Gd469 2.545 . S
O518 C536 1.258 . S
O519 Gd468 2.362 . S
O519 Gd469 2.606 . S
O519 C535 1.284 . S
O520 Gd468 2.324 . S
O520 C543 1.254 . S
O521 Gd469 2.429 . S
O521 C543 1.268 . S
O522 Gd469 2.545 . S
O522 C535 1.250 . S
O523 Gd469 2.412 . S
O523 C536 1.252 . S
C524 O513 1.284 . S
C524 O516 1.250 . S
C525 H494 0.929 . S
C525 C510 1.437 . S
C525 C526 1.317 . S
C526 H497 0.930 . S
C526 C502 1.431 . S
C526 C525 1.317 . S
C527 Gd468 2.828 . S
C527 O512 1.258 . S
C527 O517 1.252 . S
C527 C528 1.497 . S
C528 C527 1.497 . S
C528 C529 1.395 . S
C528 C530 1.380 . S
C529 C528 1.395 . S
C529 C532 1.398 . S
C529 H544 0.930 . S
C530 C528 1.380 . S
C530 C531 1.391 . S
C530 H545 0.930 . S
C531 C530 1.391 . S
C531 C533 1.387 . S
C532 C529 1.398 . S
C532 C533 1.380 . S
C532 H546 0.930 . S
C533 C531 1.387 . S
C533 C532 1.380 . S
C533 H547 0.930 . S
C534 O514 1.254 . S
C534 O515 1.268 . S
C535 O519 1.284 . S
C535 O522 1.250 . S
C536 Gd469 2.828 . S
C536 O518 1.258 . S
C536 O523 1.252 . S
C536 C537 1.497 . S
C537 C536 1.497 . S
C537 C538 1.395 . S
C537 C539 1.380 . S
C538 C537 1.395 . S
C538 C541 1.398 . S
C538 H548 0.930 . S
C539 C537 1.380 . S
C539 C540 1.391 . S
C539 H549 0.930 . S
C540 C539 1.391 . S
C540 C542 1.387 . S
C541 C538 1.398 . S
C541 C542 1.380 . S
C541 H550 0.930 . S
C542 C540 1.387 . S
C542 C541 1.380 . S
C542 H551 0.930 . S
C543 O520 1.254 . S
C543 O521 1.268 . S
H544 C529 0.930 . S
H545 C530 0.930 . S
H546 C532 0.930 . S
H547 C533 0.930 . S
H548 C538 0.930 . S
H549 C539 0.930 . S
H550 C541 0.930 . S
H551 C542 0.930 . S
Gd552 N583 2.661 . S
Gd552 N589 2.601 . S
Gd552 O596 2.545 . S
Gd552 O597 2.606 . S
Gd552 O599 2.429 . S
Gd552 O600 2.545 . S
Gd552 O601 2.412 . S
Gd552 O603 2.362 . S
Gd552 O604 2.324 . S
Gd552 C611 2.828 . S
Gd553 N562 2.661 . S
Gd553 N566 2.601 . S
Gd553 O597 2.362 . S
Gd553 O598 2.324 . S
Gd553 O602 2.545 . S
Gd553 O603 2.606 . S
Gd553 O605 2.429 . S
Gd553 O606 2.545 . S
Gd553 O607 2.412 . S
Gd553 C620 2.828 . S
C554 C557 1.417 . S
C554 C559 1.431 . S
C554 C560 1.412 . S
C555 C558 1.437 . S
C555 C559 1.317 . S
C555 H574 0.929 . S
C556 C557 1.426 . S
C556 C558 1.413 . S
C556 N566 1.359 . S
C557 C554 1.417 . S
C557 C556 1.426 . S
C557 N562 1.350 . S
C558 C555 1.437 . S
C558 C556 1.413 . S
C558 C568 1.391 . S
C559 C554 1.431 . S
C559 C555 1.317 . S
C559 H570 0.930 . S
C560 C554 1.412 . S
C560 C561 1.355 . S
C560 H572 0.930 . S
C561 C560 1.355 . S
C561 C563 1.402 . S
C561 H573 0.930 . S
N562 Gd553 2.661 . S
N562 C557 1.350 . S
N562 C563 1.307 . S
C563 C561 1.402 . S
C563 N562 1.307 . S
C563 H564 0.930 . S
H564 C563 0.930 . S
C565 N566 1.334 . S
C565 C567 1.394 . S
C565 H569 0.930 . S
N566 Gd553 2.601 . S
N566 C556 1.359 . S
N566 C565 1.334 . S
C567 C565 1.394 . S
C567 C568 1.359 . S
C567 H579 0.930 . S
C568 C558 1.391 . S
C568 C567 1.359 . S
C568 H580 0.929 . S
H569 C565 0.930 . S
H570 C559 0.930 . S
H571 C588 0.930 . S
H572 C560 0.930 . S
H573 C561 0.930 . S
H574 C555 0.929 . S
H575 C593 0.930 . S
H576 C584 0.930 . S
H577 C585 0.930 . S
H578 C609 0.929 . S
H579 C567 0.930 . S
H580 C568 0.929 . S
H581 C610 0.930 . S
H582 C591 0.930 . S
N583 Gd552 2.661 . S
N583 C587 1.350 . S
N583 C588 1.307 . S
C584 H576 0.930 . S
C584 C585 1.355 . S
C584 C586 1.412 . S
C585 H577 0.930 . S
C585 C584 1.355 . S
C585 C588 1.402 . S
C586 C584 1.412 . S
C586 C587 1.417 . S
C586 C610 1.431 . S
C587 N583 1.350 . S
C587 C586 1.417 . S
C587 C590 1.426 . S
C588 H571 0.930 . S
C588 N583 1.307 . S
C588 C585 1.402 . S
N589 Gd552 2.601 . S
N589 C590 1.359 . S
N589 C593 1.334 . S
C590 C587 1.426 . S
C590 N589 1.359 . S
C590 C594 1.413 . S
C591 H582 0.930 . S
C591 C592 1.359 . S
C591 C593 1.394 . S
C592 C591 1.359 . S
C592 C594 1.391 . S
C592 H595 0.929 . S
C593 H575 0.930 . S
C593 N589 1.334 . S
C593 C591 1.394 . S
C594 C590 1.413 . S
C594 C592 1.391 . S
C594 C609 1.437 . S
H595 C592 0.929 . S
O596 Gd552 2.545 . S
O596 C611 1.258 . S
O597 Gd552 2.606 . S
O597 Gd553 2.362 . S
O597 C608 1.284 . S
O598 Gd553 2.324 . S
O598 C618 1.254 . S
O599 Gd552 2.429 . S
O599 C618 1.268 . S
O600 Gd552 2.545 . S
O600 C608 1.250 . S
O601 Gd552 2.412 . S
O601 C611 1.252 . S
O602 Gd553 2.545 . S
O602 C620 1.258 . S
O603 Gd552 2.362 . S
O603 Gd553 2.606 . S
O603 C619 1.284 . S
O604 Gd552 2.324 . S
O604 C627 1.254 . S
O605 Gd553 2.429 . S
O605 C627 1.268 . S
O606 Gd553 2.545 . S
O606 C619 1.250 . S
O607 Gd553 2.412 . S
O607 C620 1.252 . S
C608 O597 1.284 . S
C608 O600 1.250 . S
C609 H578 0.929 . S
C609 C594 1.437 . S
C609 C610 1.317 . S
C610 H581 0.930 . S
C610 C586 1.431 . S
C610 C609 1.317 . S
C611 Gd552 2.828 . S
C611 O596 1.258 . S
C611 O601 1.252 . S
C611 C612 1.497 . S
C612 C611 1.497 . S
C612 C613 1.395 . S
C612 C614 1.380 . S
C613 C612 1.395 . S
C613 C616 1.398 . S
C613 H628 0.930 . S
C614 C612 1.380 . S
C614 C615 1.391 . S
C614 H629 0.930 . S
C615 C614 1.391 . S
C615 C617 1.387 . S
C616 C613 1.398 . S
C616 C617 1.380 . S
C616 H630 0.930 . S
C617 C615 1.387 . S
C617 C616 1.380 . S
C617 H631 0.930 . S
C618 O598 1.254 . S
C618 O599 1.268 . S
C619 O603 1.284 . S
C619 O606 1.250 . S
C620 Gd553 2.828 . S
C620 O602 1.258 . S
C620 O607 1.252 . S
C620 C621 1.497 . S
C621 C620 1.497 . S
C621 C622 1.395 . S
C621 C623 1.380 . S
C622 C621 1.395 . S
C622 C625 1.398 . S
C622 H632 0.930 . S
C623 C621 1.380 . S
C623 C624 1.391 . S
C623 H633 0.930 . S
C624 C623 1.391 . S
C624 C626 1.387 . S
C625 C622 1.398 . S
C625 C626 1.380 . S
C625 H634 0.930 . S
C626 C624 1.387 . S
C626 C625 1.380 . S
C626 H635 0.930 . S
C627 O604 1.254 . S
C627 O605 1.268 . S
H628 C613 0.930 . S
H629 C614 0.930 . S
H630 C616 0.930 . S
H631 C617 0.930 . S
H632 C622 0.930 . S
H633 C623 0.930 . S
H634 C625 0.930 . S
H635 C626 0.930 . S
Gd636 N667 2.661 . S
Gd636 N673 2.601 . S
Gd636 O680 2.545 . S
Gd636 O681 2.606 . S
Gd636 O683 2.429 . S
Gd636 O684 2.545 . S
Gd636 O685 2.412 . S
Gd636 O687 2.362 . S
Gd636 O688 2.324 . S
Gd636 C695 2.828 . S
Gd637 N646 2.661 . S
Gd637 N650 2.601 . S
Gd637 O681 2.362 . S
Gd637 O682 2.324 . S
Gd637 O686 2.545 . S
Gd637 O687 2.606 . S
Gd637 O689 2.429 . S
Gd637 O690 2.545 . S
Gd637 O691 2.412 . S
Gd637 C704 2.828 . S
C638 C641 1.417 . S
C638 C643 1.431 . S
C638 C644 1.412 . S
C639 C642 1.437 . S
C639 C643 1.317 . S
C639 H658 0.929 . S
C640 C641 1.426 . S
C640 C642 1.413 . S
C640 N650 1.359 . S
C641 C638 1.417 . S
C641 C640 1.426 . S
C641 N646 1.350 . S
C642 C639 1.437 . S
C642 C640 1.413 . S
C642 C652 1.391 . S
C643 C638 1.431 . S
C643 C639 1.317 . S
C643 H654 0.930 . S
C644 C638 1.412 . S
C644 C645 1.355 . S
C644 H656 0.930 . S
C645 C644 1.355 . S
C645 C647 1.402 . S
C645 H657 0.930 . S
N646 Gd637 2.661 . S
N646 C641 1.350 . S
N646 C647 1.307 . S
C647 C645 1.402 . S
C647 N646 1.307 . S
C647 H648 0.930 . S
H648 C647 0.930 . S
C649 N650 1.334 . S
C649 C651 1.394 . S
C649 H653 0.930 . S
N650 Gd637 2.601 . S
N650 C640 1.359 . S
N650 C649 1.334 . S
C651 C649 1.394 . S
C651 C652 1.359 . S
C651 H663 0.930 . S
C652 C642 1.391 . S
C652 C651 1.359 . S
C652 H664 0.929 . S
H653 C649 0.930 . S
H654 C643 0.930 . S
H655 C672 0.930 . S
H656 C644 0.930 . S
H657 C645 0.930 . S
H658 C639 0.929 . S
H659 C677 0.930 . S
H660 C668 0.930 . S
H661 C669 0.930 . S
H662 C693 0.929 . S
H663 C651 0.930 . S
H664 C652 0.929 . S
H665 C694 0.930 . S
H666 C675 0.930 . S
N667 Gd636 2.661 . S
N667 C671 1.350 . S
N667 C672 1.307 . S
C668 H660 0.930 . S
C668 C669 1.355 . S
C668 C670 1.412 . S
C669 H661 0.930 . S
C669 C668 1.355 . S
C669 C672 1.402 . S
C670 C668 1.412 . S
C670 C671 1.417 . S
C670 C694 1.431 . S
C671 N667 1.350 . S
C671 C670 1.417 . S
C671 C674 1.426 . S
C672 H655 0.930 . S
C672 N667 1.307 . S
C672 C669 1.402 . S
N673 Gd636 2.601 . S
N673 C674 1.359 . S
N673 C677 1.334 . S
C674 C671 1.426 . S
C674 N673 1.359 . S
C674 C678 1.413 . S
C675 H666 0.930 . S
C675 C676 1.359 . S
C675 C677 1.394 . S
C676 C675 1.359 . S
C676 C678 1.391 . S
C676 H679 0.929 . S
C677 H659 0.930 . S
C677 N673 1.334 . S
C677 C675 1.394 . S
C678 C674 1.413 . S
C678 C676 1.391 . S
C678 C693 1.437 . S
H679 C676 0.929 . S
O680 Gd636 2.545 . S
O680 C695 1.258 . S
O681 Gd636 2.606 . S
O681 Gd637 2.362 . S
O681 C692 1.284 . S
O682 Gd637 2.324 . S
O682 C702 1.254 . S
O683 Gd636 2.429 . S
O683 C702 1.268 . S
O684 Gd636 2.545 . S
O684 C692 1.250 . S
O685 Gd636 2.412 . S
O685 C695 1.252 . S
O686 Gd637 2.545 . S
O686 C704 1.258 . S
O687 Gd636 2.362 . S
O687 Gd637 2.606 . S
O687 C703 1.284 . S
O688 Gd636 2.324 . S
O688 C711 1.254 . S
O689 Gd637 2.429 . S
O689 C711 1.268 . S
O690 Gd637 2.545 . S
O690 C703 1.250 . S
O691 Gd637 2.412 . S
O691 C704 1.252 . S
C692 O681 1.284 . S
C692 O684 1.250 . S
C693 H662 0.929 . S
C693 C678 1.437 . S
C693 C694 1.317 . S
C694 H665 0.930 . S
C694 C670 1.431 . S
C694 C693 1.317 . S
C695 Gd636 2.828 . S
C695 O680 1.258 . S
C695 O685 1.252 . S
C695 C696 1.497 . S
C696 C695 1.497 . S
C696 C697 1.395 . S
C696 C698 1.380 . S
C697 C696 1.395 . S
C697 C700 1.398 . S
C697 H712 0.930 . S
C698 C696 1.380 . S
C698 C699 1.391 . S
C698 H713 0.930 . S
C699 C698 1.391 . S
C699 C701 1.387 . S
C700 C697 1.398 . S
C700 C701 1.380 . S
C700 H714 0.930 . S
C701 C699 1.387 . S
C701 C700 1.380 . S
C701 H715 0.930 . S
C702 O682 1.254 . S
C702 O683 1.268 . S
C703 O687 1.284 . S
C703 O690 1.250 . S
C704 Gd637 2.828 . S
C704 O686 1.258 . S
C704 O691 1.252 . S
C704 C705 1.497 . S
C705 C704 1.497 . S
C705 C706 1.395 . S
C705 C707 1.380 . S
C706 C705 1.395 . S
C706 C709 1.398 . S
C706 H716 0.930 . S
C707 C705 1.380 . S
C707 C708 1.391 . S
C707 H717 0.930 . S
C708 C707 1.391 . S
C708 C710 1.387 . S
C709 C706 1.398 . S
C709 C710 1.380 . S
C709 H718 0.930 . S
C710 C708 1.387 . S
C710 C709 1.380 . S
C710 H719 0.930 . S
C711 O688 1.254 . S
C711 O689 1.268 . S
H712 C697 0.930 . S
H713 C698 0.930 . S
H714 C700 0.930 . S
H715 C701 0.930 . S
H716 C706 0.930 . S
H717 C707 0.930 . S
H718 C709 0.930 . S
H719 C710 0.930 . S
Gd720 N751 2.661 . S
Gd720 N757 2.601 . S
Gd720 O764 2.545 . S
Gd720 O765 2.606 . S
Gd720 O767 2.429 . S
Gd720 O768 2.545 . S
Gd720 O769 2.412 . S
Gd720 O771 2.362 . S
Gd720 O772 2.324 . S
Gd720 C779 2.828 . S
Gd721 N730 2.661 . S
Gd721 N734 2.601 . S
Gd721 O765 2.362 . S
Gd721 O766 2.324 . S
Gd721 O770 2.545 . S
Gd721 O771 2.606 . S
Gd721 O773 2.429 . S
Gd721 O774 2.545 . S
Gd721 O775 2.412 . S
Gd721 C788 2.828 . S
C722 C725 1.417 . S
C722 C727 1.431 . S
C722 C728 1.412 . S
C723 C726 1.437 . S
C723 C727 1.317 . S
C723 H742 0.929 . S
C724 C725 1.426 . S
C724 C726 1.413 . S
C724 N734 1.359 . S
C725 C722 1.417 . S
C725 C724 1.426 . S
C725 N730 1.350 . S
C726 C723 1.437 . S
C726 C724 1.413 . S
C726 C736 1.391 . S
C727 C722 1.431 . S
C727 C723 1.317 . S
C727 H738 0.930 . S
C728 C722 1.412 . S
C728 C729 1.355 . S
C728 H740 0.930 . S
C729 C728 1.355 . S
C729 C731 1.402 . S
C729 H741 0.930 . S
N730 Gd721 2.661 . S
N730 C725 1.350 . S
N730 C731 1.307 . S
C731 C729 1.402 . S
C731 N730 1.307 . S
C731 H732 0.930 . S
H732 C731 0.930 . S
C733 N734 1.334 . S
C733 C735 1.394 . S
C733 H737 0.930 . S
N734 Gd721 2.601 . S
N734 C724 1.359 . S
N734 C733 1.334 . S
C735 C733 1.394 . S
C735 C736 1.359 . S
C735 H747 0.930 . S
C736 C726 1.391 . S
C736 C735 1.359 . S
C736 H748 0.929 . S
H737 C733 0.930 . S
H738 C727 0.930 . S
H739 C756 0.930 . S
H740 C728 0.930 . S
H741 C729 0.930 . S
H742 C723 0.929 . S
H743 C761 0.930 . S
H744 C752 0.930 . S
H745 C753 0.930 . S
H746 C777 0.929 . S
H747 C735 0.930 . S
H748 C736 0.929 . S
H749 C778 0.930 . S
H750 C759 0.930 . S
N751 Gd720 2.661 . S
N751 C755 1.350 . S
N751 C756 1.307 . S
C752 H744 0.930 . S
C752 C753 1.355 . S
C752 C754 1.412 . S
C753 H745 0.930 . S
C753 C752 1.355 . S
C753 C756 1.402 . S
C754 C752 1.412 . S
C754 C755 1.417 . S
C754 C778 1.431 . S
C755 N751 1.350 . S
C755 C754 1.417 . S
C755 C758 1.426 . S
C756 H739 0.930 . S
C756 N751 1.307 . S
C756 C753 1.402 . S
N757 Gd720 2.601 . S
N757 C758 1.359 . S
N757 C761 1.334 . S
C758 C755 1.426 . S
C758 N757 1.359 . S
C758 C762 1.413 . S
C759 H750 0.930 . S
C759 C760 1.359 . S
C759 C761 1.394 . S
C760 C759 1.359 . S
C760 C762 1.391 . S
C760 H763 0.929 . S
C761 H743 0.930 . S
C761 N757 1.334 . S
C761 C759 1.394 . S
C762 C758 1.413 . S
C762 C760 1.391 . S
C762 C777 1.437 . S
H763 C760 0.929 . S
O764 Gd720 2.545 . S
O764 C779 1.258 . S
O765 Gd720 2.606 . S
O765 Gd721 2.362 . S
O765 C776 1.284 . S
O766 Gd721 2.324 . S
O766 C786 1.254 . S
O767 Gd720 2.429 . S
O767 C786 1.268 . S
O768 Gd720 2.545 . S
O768 C776 1.250 . S
O769 Gd720 2.412 . S
O769 C779 1.252 . S
O770 Gd721 2.545 . S
O770 C788 1.258 . S
O771 Gd720 2.362 . S
O771 Gd721 2.606 . S
O771 C787 1.284 . S
O772 Gd720 2.324 . S
O772 C795 1.254 . S
O773 Gd721 2.429 . S
O773 C795 1.268 . S
O774 Gd721 2.545 . S
O774 C787 1.250 . S
O775 Gd721 2.412 . S
O775 C788 1.252 . S
C776 O765 1.284 . S
C776 O768 1.250 . S
C777 H746 0.929 . S
C777 C762 1.437 . S
C777 C778 1.317 . S
C778 H749 0.930 . S
C778 C754 1.431 . S
C778 C777 1.317 . S
C779 Gd720 2.828 . S
C779 O764 1.258 . S
C779 O769 1.252 . S
C779 C780 1.497 . S
C780 C779 1.497 . S
C780 C781 1.395 . S
C780 C782 1.380 . S
C781 C780 1.395 . S
C781 C784 1.398 . S
C781 H796 0.930 . S
C782 C780 1.380 . S
C782 C783 1.391 . S
C782 H797 0.930 . S
C783 C782 1.391 . S
C783 C785 1.387 . S
C784 C781 1.398 . S
C784 C785 1.380 . S
C784 H798 0.930 . S
C785 C783 1.387 . S
C785 C784 1.380 . S
C785 H799 0.930 . S
C786 O766 1.254 . S
C786 O767 1.268 . S
C787 O771 1.284 . S
C787 O774 1.250 . S
C788 Gd721 2.828 . S
C788 O770 1.258 . S
C788 O775 1.252 . S
C788 C789 1.497 . S
C789 C788 1.497 . S
C789 C790 1.395 . S
C789 C791 1.380 . S
C790 C789 1.395 . S
C790 C793 1.398 . S
C790 H800 0.930 . S
C791 C789 1.380 . S
C791 C792 1.391 . S
C791 H801 0.930 . S
C792 C791 1.391 . S
C792 C794 1.387 . S
C793 C790 1.398 . S
C793 C794 1.380 . S
C793 H802 0.930 . S
C794 C792 1.387 . S
C794 C793 1.380 . S
C794 H803 0.930 . S
C795 O772 1.254 . S
C795 O773 1.268 . S
H796 C781 0.930 . S
H797 C782 0.930 . S
H798 C784 0.930 . S
H799 C785 0.930 . S
H800 C790 0.930 . S
H801 C791 0.930 . S
H802 C793 0.930 . S
H803 C794 0.930 . S
Gd804 N835 2.661 . S
Gd804 N841 2.601 . S
Gd804 O848 2.545 . S
Gd804 O849 2.606 . S
Gd804 O851 2.429 . S
Gd804 O852 2.545 . S
Gd804 O853 2.412 . S
Gd804 O855 2.362 . S
Gd804 O856 2.324 . S
Gd804 C863 2.828 . S
Gd805 N814 2.661 . S
Gd805 N818 2.601 . S
Gd805 O849 2.362 . S
Gd805 O850 2.324 . S
Gd805 O854 2.545 . S
Gd805 O855 2.606 . S
Gd805 O857 2.429 . S
Gd805 O858 2.545 . S
Gd805 O859 2.412 . S
Gd805 C872 2.828 . S
C806 C809 1.417 . S
C806 C811 1.431 . S
C806 C812 1.412 . S
C807 C810 1.437 . S
C807 C811 1.317 . S
C807 H826 0.929 . S
C808 C809 1.426 . S
C808 C810 1.413 . S
C808 N818 1.359 . S
C809 C806 1.417 . S
C809 C808 1.426 . S
C809 N814 1.350 . S
C810 C807 1.437 . S
C810 C808 1.413 . S
C810 C820 1.391 . S
C811 C806 1.431 . S
C811 C807 1.317 . S
C811 H822 0.930 . S
C812 C806 1.412 . S
C812 C813 1.355 . S
C812 H824 0.930 . S
C813 C812 1.355 . S
C813 C815 1.402 . S
C813 H825 0.930 . S
N814 Gd805 2.661 . S
N814 C809 1.350 . S
N814 C815 1.307 . S
C815 C813 1.402 . S
C815 N814 1.307 . S
C815 H816 0.930 . S
H816 C815 0.930 . S
C817 N818 1.334 . S
C817 C819 1.394 . S
C817 H821 0.930 . S
N818 Gd805 2.601 . S
N818 C808 1.359 . S
N818 C817 1.334 . S
C819 C817 1.394 . S
C819 C820 1.359 . S
C819 H831 0.930 . S
C820 C810 1.391 . S
C820 C819 1.359 . S
C820 H832 0.929 . S
H821 C817 0.930 . S
H822 C811 0.930 . S
H823 C840 0.930 . S
H824 C812 0.930 . S
H825 C813 0.930 . S
H826 C807 0.929 . S
H827 C845 0.930 . S
H828 C836 0.930 . S
H829 C837 0.930 . S
H830 C861 0.929 . S
H831 C819 0.930 . S
H832 C820 0.929 . S
H833 C862 0.930 . S
H834 C843 0.930 . S
N835 Gd804 2.661 . S
N835 C839 1.350 . S
N835 C840 1.307 . S
C836 H828 0.930 . S
C836 C837 1.355 . S
C836 C838 1.412 . S
C837 H829 0.930 . S
C837 C836 1.355 . S
C837 C840 1.402 . S
C838 C836 1.412 . S
C838 C839 1.417 . S
C838 C862 1.431 . S
C839 N835 1.350 . S
C839 C838 1.417 . S
C839 C842 1.426 . S
C840 H823 0.930 . S
C840 N835 1.307 . S
C840 C837 1.402 . S
N841 Gd804 2.601 . S
N841 C842 1.359 . S
N841 C845 1.334 . S
C842 C839 1.426 . S
C842 N841 1.359 . S
C842 C846 1.413 . S
C843 H834 0.930 . S
C843 C844 1.359 . S
C843 C845 1.394 . S
C844 C843 1.359 . S
C844 C846 1.391 . S
C844 H847 0.929 . S
C845 H827 0.930 . S
C845 N841 1.334 . S
C845 C843 1.394 . S
C846 C842 1.413 . S
C846 C844 1.391 . S
C846 C861 1.437 . S
H847 C844 0.929 . S
O848 Gd804 2.545 . S
O848 C863 1.258 . S
O849 Gd804 2.606 . S
O849 Gd805 2.362 . S
O849 C860 1.284 . S
O850 Gd805 2.324 . S
O850 C870 1.254 . S
O851 Gd804 2.429 . S
O851 C870 1.268 . S
O852 Gd804 2.545 . S
O852 C860 1.250 . S
O853 Gd804 2.412 . S
O853 C863 1.252 . S
O854 Gd805 2.545 . S
O854 C872 1.258 . S
O855 Gd804 2.362 . S
O855 Gd805 2.606 . S
O855 C871 1.284 . S
O856 Gd804 2.324 . S
O856 C879 1.254 . S
O857 Gd805 2.429 . S
O857 C879 1.268 . S
O858 Gd805 2.545 . S
O858 C871 1.250 . S
O859 Gd805 2.412 . S
O859 C872 1.252 . S
C860 O849 1.284 . S
C860 O852 1.250 . S
C861 H830 0.929 . S
C861 C846 1.437 . S
C861 C862 1.317 . S
C862 H833 0.930 . S
C862 C838 1.431 . S
C862 C861 1.317 . S
C863 Gd804 2.828 . S
C863 O848 1.258 . S
C863 O853 1.252 . S
C863 C864 1.497 . S
C864 C863 1.497 . S
C864 C865 1.395 . S
C864 C866 1.380 . S
C865 C864 1.395 . S
C865 C868 1.398 . S
C865 H880 0.930 . S
C866 C864 1.380 . S
C866 C867 1.391 . S
C866 H881 0.930 . S
C867 C866 1.391 . S
C867 C869 1.387 . S
C868 C865 1.398 . S
C868 C869 1.380 . S
C868 H882 0.930 . S
C869 C867 1.387 . S
C869 C868 1.380 . S
C869 H883 0.930 . S
C870 O850 1.254 . S
C870 O851 1.268 . S
C871 O855 1.284 . S
C871 O858 1.250 . S
C872 Gd805 2.828 . S
C872 O854 1.258 . S
C872 O859 1.252 . S
C872 C873 1.497 . S
C873 C872 1.497 . S
C873 C874 1.395 . S
C873 C875 1.380 . S
C874 C873 1.395 . S
C874 C877 1.398 . S
C874 H884 0.930 . S
C875 C873 1.380 . S
C875 C876 1.391 . S
C875 H885 0.930 . S
C876 C875 1.391 . S
C876 C878 1.387 . S
C877 C874 1.398 . S
C877 C878 1.380 . S
C877 H886 0.930 . S
C878 C876 1.387 . S
C878 C877 1.380 . S
C878 H887 0.930 . S
C879 O856 1.254 . S
C879 O857 1.268 . S
H880 C865 0.930 . S
H881 C866 0.930 . S
H882 C868 0.930 . S
H883 C869 0.930 . S
H884 C874 0.930 . S
H885 C875 0.930 . S
H886 C877 0.930 . S
H887 C878 0.930 . S
Gd888 N919 2.661 . S
Gd888 N925 2.601 . S
Gd888 O932 2.545 . S
Gd888 O933 2.606 . S
Gd888 O935 2.429 . S
Gd888 O936 2.545 . S
Gd888 O937 2.412 . S
Gd888 O939 2.362 . S
Gd888 O940 2.324 . S
Gd888 C947 2.828 . S
Gd889 N898 2.661 . S
Gd889 N902 2.601 . S
Gd889 O933 2.362 . S
Gd889 O934 2.324 . S
Gd889 O938 2.545 . S
Gd889 O939 2.606 . S
Gd889 O941 2.429 . S
Gd889 O942 2.545 . S
Gd889 O943 2.412 . S
Gd889 C956 2.828 . S
C890 C893 1.417 . S
C890 C895 1.431 1_655 S
C890 C896 1.412 1_655 S
C891 C894 1.437 . S
C891 C895 1.317 1_655 S
C891 H910 0.929 1_655 S
C892 C893 1.426 . S
C892 C894 1.413 . S
C892 N902 1.359 . S
C893 C890 1.417 . S
C893 C892 1.426 . S
C893 N898 1.350 . S
C894 C891 1.437 . S
C894 C892 1.413 . S
C894 C904 1.391 . S
C895 C890 1.431 1_455 S
C895 C891 1.317 1_455 S
C895 H906 0.930 . S
C896 C890 1.412 1_455 S
C896 C897 1.355 1_455 S
C896 H908 0.930 . S
C897 C896 1.355 1_655 S
C897 C899 1.402 . S
C897 H909 0.930 1_655 S
N898 Gd889 2.661 . S
N898 C893 1.350 . S
N898 C899 1.307 . S
C899 C897 1.402 . S
C899 N898 1.307 . S
C899 H900 0.930 . S
H900 C899 0.930 . S
C901 N902 1.334 . S
C901 C903 1.394 . S
C901 H905 0.930 . S
N902 Gd889 2.601 . S
N902 C892 1.359 . S
N902 C901 1.334 . S
C903 C901 1.394 . S
C903 C904 1.359 . S
C903 H915 0.930 . S
C904 C894 1.391 . S
C904 C903 1.359 . S
C904 H916 0.929 . S
H905 C901 0.930 . S
H906 C895 0.930 . S
H907 C924 0.930 . S
H908 C896 0.930 . S
H909 C897 0.930 1_455 S
H910 C891 0.929 1_455 S
H911 C929 0.930 . S
H912 C920 0.930 . S
H913 C921 0.930 . S
H914 C945 0.929 . S
H915 C903 0.930 . S
H916 C904 0.929 . S
H917 C946 0.930 . S
H918 C927 0.930 . S
N919 Gd888 2.661 . S
N919 C923 1.350 . S
N919 C924 1.307 . S
C920 H912 0.930 . S
C920 C921 1.355 . S
C920 C922 1.412 . S
C921 H913 0.930 . S
C921 C920 1.355 . S
C921 C924 1.402 . S
C922 C920 1.412 . S
C922 C923 1.417 . S
C922 C946 1.431 . S
C923 N919 1.350 . S
C923 C922 1.417 . S
C923 C926 1.426 . S
C924 H907 0.930 . S
C924 N919 1.307 . S
C924 C921 1.402 . S
N925 Gd888 2.601 . S
N925 C926 1.359 . S
N925 C929 1.334 . S
C926 C923 1.426 . S
C926 N925 1.359 . S
C926 C930 1.413 . S
C927 H918 0.930 . S
C927 C928 1.359 . S
C927 C929 1.394 . S
C928 C927 1.359 . S
C928 C930 1.391 . S
C928 H931 0.929 . S
C929 H911 0.930 . S
C929 N925 1.334 . S
C929 C927 1.394 . S
C930 C926 1.413 . S
C930 C928 1.391 . S
C930 C945 1.437 . S
H931 C928 0.929 . S
O932 Gd888 2.545 . S
O932 C947 1.258 . S
O933 Gd888 2.606 . S
O933 Gd889 2.362 . S
O933 C944 1.284 . S
O934 Gd889 2.324 . S
O934 C954 1.254 . S
O935 Gd888 2.429 . S
O935 C954 1.268 . S
O936 Gd888 2.545 . S
O936 C944 1.250 . S
O937 Gd888 2.412 . S
O937 C947 1.252 . S
O938 Gd889 2.545 . S
O938 C956 1.258 . S
O939 Gd888 2.362 . S
O939 Gd889 2.606 . S
O939 C955 1.284 . S
O940 Gd888 2.324 . S
O940 C963 1.254 . S
O941 Gd889 2.429 . S
O941 C963 1.268 . S
O942 Gd889 2.545 . S
O942 C955 1.250 . S
O943 Gd889 2.412 . S
O943 C956 1.252 . S
C944 O933 1.284 . S
C944 O936 1.250 . S
C945 H914 0.929 . S
C945 C930 1.437 . S
C945 C946 1.317 . S
C946 H917 0.930 . S
C946 C922 1.431 . S
C946 C945 1.317 . S
C947 Gd888 2.828 . S
C947 O932 1.258 . S
C947 O937 1.252 . S
C947 C948 1.497 . S
C948 C947 1.497 . S
C948 C949 1.395 . S
C948 C950 1.380 . S
C949 C948 1.395 . S
C949 C952 1.398 . S
C949 H964 0.930 . S
C950 C948 1.380 . S
C950 C951 1.391 . S
C950 H965 0.930 . S
C951 C950 1.391 . S
C951 C953 1.387 . S
C952 C949 1.398 . S
C952 C953 1.380 . S
C952 H966 0.930 . S
C953 C951 1.387 . S
C953 C952 1.380 . S
C953 H967 0.930 . S
C954 O934 1.254 . S
C954 O935 1.268 . S
C955 O939 1.284 . S
C955 O942 1.250 . S
C956 Gd889 2.828 . S
C956 O938 1.258 . S
C956 O943 1.252 . S
C956 C957 1.497 . S
C957 C956 1.497 . S
C957 C958 1.395 . S
C957 C959 1.380 . S
C958 C957 1.395 . S
C958 C961 1.398 . S
C958 H968 0.930 . S
C959 C957 1.380 . S
C959 C960 1.391 . S
C959 H969 0.930 . S
C960 C959 1.391 . S
C960 C962 1.387 . S
C961 C958 1.398 . S
C961 C962 1.380 . S
C961 H970 0.930 . S
C962 C960 1.387 . S
C962 C961 1.380 . S
C962 H971 0.930 . S
C963 O940 1.254 . S
C963 O941 1.268 . S
H964 C949 0.930 . S
H965 C950 0.930 . S
H966 C952 0.930 . S
H967 C953 0.930 . S
H968 C958 0.930 . S
H969 C959 0.930 . S
H970 C961 0.930 . S
H971 C962 0.930 . S
H972 C978 0.930 . S
H973 C981 0.930 . S
H974 C982 0.930 . S
H975 C983 0.930 . S
H976 C986 0.930 . S
H977 C987 0.930 . S
C978 H972 0.930 . S
C978 C979 1.355 . S
C978 C980 1.415 . S
C979 C978 1.355 . S
C979 C981 1.419 . S
C980 C978 1.415 . S
C980 C985 1.425 . S
C980 C987 1.409 . S
C981 H973 0.930 . S
C981 C979 1.419 . S
C981 C982 1.362 . S
C982 H974 0.930 . S
C982 C981 1.362 . S
C982 C985 1.409 . S
C983 H975 0.930 . S
C983 C984 1.355 . S
C983 C985 1.415 . S
C984 C983 1.355 . S
C984 C986 1.419 . S
C985 C980 1.425 . S
C985 C982 1.409 . S
C985 C983 1.415 . S
C986 H976 0.930 . S
C986 C984 1.419 . S
C986 C987 1.362 . S
C987 H977 0.930 . S
C987 C980 1.409 . S
C987 C986 1.362 . S
H988 C994 0.930 . S
H989 C997 0.930 . S
H990 C998 0.930 . S
H991 C999 0.930 . S
H992 C1002 0.930 . S
H993 C1003 0.930 . S
C994 H988 0.930 . S
C994 C995 1.355 . S
C994 C996 1.415 . S
C995 C994 1.355 . S
C995 C997 1.419 . S
C996 C994 1.415 . S
C996 C1001 1.425 . S
C996 C1003 1.409 . S
C997 H989 0.930 . S
C997 C995 1.419 . S
C997 C998 1.362 . S
C998 H990 0.930 . S
C998 C997 1.362 . S
C998 C1001 1.409 . S
C999 H991 0.930 . S
C999 C1000 1.355 . S
C999 C1001 1.415 . S
C1000 C999 1.355 . S
C1000 C1002 1.419 . S
C1001 C996 1.425 . S
C1001 C998 1.409 . S
C1001 C999 1.415 . S
C1002 H992 0.930 . S
C1002 C1000 1.419 . S
C1002 C1003 1.362 . S
C1003 H993 0.930 . S
C1003 C996 1.409 . S
C1003 C1002 1.362 . S
H1004 C1010 0.930 . S
H1005 C1013 0.930 . S
H1006 C1014 0.930 . S
H1007 C1015 0.930 . S
H1008 C1018 0.930 . S
H1009 C1019 0.930 . S
C1010 H1004 0.930 . S
C1010 C1011 1.355 . S
C1010 C1012 1.415 . S
C1011 C1010 1.355 . S
C1011 C1013 1.419 . S
C1012 C1010 1.415 . S
C1012 C1017 1.425 . S
C1012 C1019 1.409 . S
C1013 H1005 0.930 . S
C1013 C1011 1.419 . S
C1013 C1014 1.362 . S
C1014 H1006 0.930 . S
C1014 C1013 1.362 . S
C1014 C1017 1.409 . S
C1015 H1007 0.930 . S
C1015 C1016 1.355 . S
C1015 C1017 1.415 . S
C1016 C1015 1.355 . S
C1016 C1018 1.419 . S
C1017 C1012 1.425 . S
C1017 C1014 1.409 . S
C1017 C1015 1.415 . S
C1018 H1008 0.930 . S
C1018 C1016 1.419 . S
C1018 C1019 1.362 . S
C1019 H1009 0.930 . S
C1019 C1012 1.409 . S
C1019 C1018 1.362 . S
H1020 C1026 0.930 . S
H1021 C1029 0.930 . S
H1022 C1030 0.930 . S
H1023 C1031 0.930 . S
H1024 C1034 0.930 1_554 S
H1025 C1035 0.930 . S
C1026 H1020 0.930 . S
C1026 C1027 1.355 . S
C1026 C1028 1.415 . S
C1027 C1026 1.355 . S
C1027 C1029 1.419 . S
C1028 C1026 1.415 . S
C1028 C1033 1.425 . S
C1028 C1035 1.409 . S
C1029 H1021 0.930 . S
C1029 C1027 1.419 . S
C1029 C1030 1.362 . S
C1030 H1022 0.930 . S
C1030 C1029 1.362 . S
C1030 C1033 1.409 . S
C1031 H1023 0.930 . S
C1031 C1032 1.355 . S
C1031 C1033 1.415 . S
C1032 C1031 1.355 . S
C1032 C1034 1.419 . S
C1033 C1028 1.425 . S
C1033 C1030 1.409 . S
C1033 C1031 1.415 . S
C1034 H1024 0.930 1_556 S
C1034 C1032 1.419 . S
C1034 C1035 1.362 . S
C1035 H1025 0.930 . S
C1035 C1028 1.409 . S
C1035 C1034 1.362 . S
H1036 C1042 0.930 . S
H1037 C1045 0.930 . S
H1038 C1046 0.930 . S
H1039 C1047 0.930 . S
H1040 C1050 0.930 . S
H1041 C1051 0.930 . S
C1042 H1036 0.930 . S
C1042 C1043 1.355 . S
C1042 C1044 1.415 . S
C1043 C1042 1.355 . S
C1043 C1045 1.419 . S
C1044 C1042 1.415 . S
C1044 C1049 1.425 . S
C1044 C1051 1.409 . S
C1045 H1037 0.930 . S
C1045 C1043 1.419 . S
C1045 C1046 1.362 . S
C1046 H1038 0.930 . S
C1046 C1045 1.362 . S
C1046 C1049 1.409 . S
C1047 H1039 0.930 . S
C1047 C1048 1.355 . S
C1047 C1049 1.415 . S
C1048 C1047 1.355 . S
C1048 C1050 1.419 . S
C1049 C1044 1.425 . S
C1049 C1046 1.409 . S
C1049 C1047 1.415 . S
C1050 H1040 0.930 . S
C1050 C1048 1.419 . S
C1050 C1051 1.362 . S
C1051 H1041 0.930 . S
C1051 C1044 1.409 . S
C1051 C1050 1.362 . S
H1052 C1058 0.930 . S
H1053 C1061 0.930 . S
H1054 C1062 0.930 . S
H1055 C1063 0.930 . S
H1056 C1066 0.930 . S
H1057 C1067 0.930 . S
C1058 H1052 0.930 . S
C1058 C1059 1.355 . S
C1058 C1060 1.415 . S
C1059 C1058 1.355 . S
C1059 C1061 1.419 . S
C1060 C1058 1.415 . S
C1060 C1065 1.425 . S
C1060 C1067 1.409 . S
C1061 H1053 0.930 . S
C1061 C1059 1.419 . S
C1061 C1062 1.362 . S
C1062 H1054 0.930 . S
C1062 C1061 1.362 . S
C1062 C1065 1.409 . S
C1063 H1055 0.930 . S
C1063 C1064 1.355 . S
C1063 C1065 1.415 . S
C1064 C1063 1.355 . S
C1064 C1066 1.419 . S
C1065 C1060 1.425 . S
C1065 C1062 1.409 . S
C1065 C1063 1.415 . S
C1066 H1056 0.930 . S
C1066 C1064 1.419 . S
C1066 C1067 1.362 . S
C1067 H1057 0.930 . S
C1067 C1060 1.409 . S
C1067 C1066 1.362 . S
H1068 C1074 0.930 . S
H1069 C1077 0.930 . S
H1070 C1078 0.930 . S
H1071 C1079 0.930 . S
H1072 C1082 0.930 . S
H1073 C1083 0.930 . S
C1074 H1068 0.930 . S
C1074 C1075 1.355 . S
C1074 C1076 1.415 . S
C1075 C1074 1.355 . S
C1075 C1077 1.419 . S
C1076 C1074 1.415 . S
C1076 C1081 1.425 . S
C1076 C1083 1.409 1_556 S
C1077 H1069 0.930 . S
C1077 C1075 1.419 . S
C1077 C1078 1.362 . S
C1078 H1070 0.930 . S
C1078 C1077 1.362 . S
C1078 C1081 1.409 . S
C1079 H1071 0.930 . S
C1079 C1080 1.355 . S
C1079 C1081 1.415 . S
C1080 C1079 1.355 . S
C1080 C1082 1.419 1_556 S
C1081 C1076 1.425 . S
C1081 C1078 1.409 . S
C1081 C1079 1.415 . S
C1082 H1072 0.930 . S
C1082 C1080 1.419 1_554 S
C1082 C1083 1.362 . S
C1083 H1073 0.930 . S
C1083 C1076 1.409 1_554 S
C1083 C1082 1.362 . S
H1084 C1090 0.930 . S
H1085 C1093 0.930 . S
H1086 C1094 0.930 . S
H1087 C1095 0.930 . S
H1088 C1098 0.930 . S
H1089 C1099 0.930 . S
C1090 H1084 0.930 . S
C1090 C1091 1.355 . S
C1090 C1092 1.415 . S
C1091 C1090 1.355 . S
C1091 C1093 1.419 . S
C1092 C1090 1.415 . S
C1092 C1097 1.425 . S
C1092 C1099 1.409 . S
C1093 H1085 0.930 . S
C1093 C1091 1.419 . S
C1093 C1094 1.362 . S
C1094 H1086 0.930 . S
C1094 C1093 1.362 . S
C1094 C1097 1.409 . S
C1095 H1087 0.930 . S
C1095 C1096 1.355 . S
C1095 C1097 1.415 . S
C1096 C1095 1.355 . S
C1096 C1098 1.419 . S
C1097 C1092 1.425 . S
C1097 C1094 1.409 . S
C1097 C1095 1.415 . S
C1098 H1088 0.930 . S
C1098 C1096 1.419 . S
C1098 C1099 1.362 . S
C1099 H1089 0.930 . S
C1099 C1092 1.409 . S
C1099 C1098 1.362 . S
H1100 C1106 0.930 1_554 S
H1101 C1109 0.930 . S
H1102 C1110 0.930 . S
H1103 C1111 0.930 . S
H1104 C1114 0.930 . S
H1105 C1115 0.930 . S
C1106 H1100 0.930 1_556 S
C1106 C1107 1.355 . S
C1106 C1108 1.415 . S
C1107 C1106 1.355 . S
C1107 C1109 1.419 . S
C1108 C1106 1.415 . S
C1108 C1113 1.425 . S
C1108 C1115 1.409 1_556 S
C1109 H1101 0.930 . S
C1109 C1107 1.419 . S
C1109 C1110 1.362 . S
C1110 H1102 0.930 . S
C1110 C1109 1.362 . S
C1110 C1113 1.409 . S
C1111 H1103 0.930 . S
C1111 C1112 1.355 . S
C1111 C1113 1.415 . S
C1112 C1111 1.355 . S
C1112 C1114 1.419 1_556 S
C1113 C1108 1.425 . S
C1113 C1110 1.409 . S
C1113 C1111 1.415 . S
C1114 H1104 0.930 . S
C1114 C1112 1.419 1_554 S
C1114 C1115 1.362 . S
C1115 H1105 0.930 . S
C1115 C1108 1.409 1_554 S
C1115 C1114 1.362 . S
H1116 C1122 0.930 . S
H1117 C1125 0.930 . S
H1118 C1126 0.930 . S
H1119 C1127 0.930 . S
H1120 C1130 0.930 . S
H1121 C1131 0.930 . S
C1122 H1116 0.930 . S
C1122 C1123 1.355 . S
C1122 C1124 1.415 . S
C1123 C1122 1.355 . S
C1123 C1125 1.419 . S
C1124 C1122 1.415 . S
C1124 C1129 1.425 . S
C1124 C1131 1.409 . S
C1125 H1117 0.930 . S
C1125 C1123 1.419 . S
C1125 C1126 1.362 . S
C1126 H1118 0.930 . S
C1126 C1125 1.362 . S
C1126 C1129 1.409 . S
C1127 H1119 0.930 . S
C1127 C1128 1.355 . S
C1127 C1129 1.415 . S
C1128 C1127 1.355 . S
C1128 C1130 1.419 . S
C1129 C1124 1.425 . S
C1129 C1126 1.409 . S
C1129 C1127 1.415 . S
C1130 H1120 0.930 . S
C1130 C1128 1.419 . S
C1130 C1131 1.362 . S
C1131 H1121 0.930 . S
C1131 C1124 1.409 . S
C1131 C1130 1.362 . S
H1132 C1138 0.930 . S
H1133 C1141 0.930 . S
H1134 C1142 0.930 . S
H1135 C1143 0.930 . S
H1136 C1146 0.930 1_556 S
H1137 C1147 0.959 . S
C1138 H1132 0.930 . S
C1138 C1139 1.355 . S
C1138 C1140 1.415 . S
C1139 C1138 1.355 . S
C1139 C1141 1.419 . S
C1140 C1138 1.415 . S
C1140 C1145 1.425 . S
C1140 C1147 1.409 . S
C1141 H1133 0.930 . S
C1141 C1139 1.419 . S
C1141 C1142 1.362 . S
C1142 H1134 0.930 . S
C1142 C1141 1.362 . S
C1142 C1145 1.409 . S
C1143 H1135 0.930 . S
C1143 C1144 1.355 . S
C1143 C1145 1.415 . S
C1144 C1143 1.355 . S
C1144 C1146 1.419 . S
C1145 C1140 1.425 . S
C1145 C1142 1.409 . S
C1145 C1143 1.415 . S
C1146 H1136 0.930 1_554 S
C1146 C1144 1.419 . S
C1146 C1147 1.362 . S
C1147 H1137 0.959 . S
C1147 C1140 1.409 . S
C1147 C1146 1.362 . S
H1148 C1154 0.930 . S
H1149 C1157 0.930 . S
H1150 C1158 0.930 . S
H1151 C1159 0.930 . S
H1152 C1162 0.930 . S
H1153 C1163 0.930 . S
C1154 H1148 0.930 . S
C1154 C1155 1.355 . S
C1154 C1156 1.415 . S
C1155 C1154 1.355 . S
C1155 C1157 1.419 . S
C1156 C1154 1.415 . S
C1156 C1161 1.425 . S
C1156 C1163 1.409 . S
C1157 H1149 0.930 . S
C1157 C1155 1.419 . S
C1157 C1158 1.362 . S
C1158 H1150 0.930 . S
C1158 C1157 1.362 . S
C1158 C1161 1.409 . S
C1159 H1151 0.930 . S
C1159 C1160 1.355 . S
C1159 C1161 1.415 . S
C1160 C1159 1.355 . S
C1160 C1162 1.419 . S
C1161 C1156 1.425 . S
C1161 C1158 1.409 . S
C1161 C1159 1.415 . S
C1162 H1152 0.930 . S
C1162 C1160 1.419 . S
C1162 C1163 1.362 . S
C1163 H1153 0.930 . S
C1163 C1156 1.409 . S
C1163 C1162 1.362 . S
H1164 C1170 0.930 . S
H1165 C1173 0.930 . S
H1166 C1174 0.930 . S
H1167 C1175 0.930 . S
H1168 C1178 0.930 . S
H1169 C1179 0.930 . S
C1170 H1164 0.930 . S
C1170 C1171 1.355 . S
C1170 C1172 1.415 1_655 S
C1171 C1170 1.355 . S
C1171 C1173 1.419 . S
C1172 C1170 1.415 1_455 S
C1172 C1177 1.428 . S
C1172 C1179 1.409 . S
C1173 H1165 0.930 . S
C1173 C1171 1.419 . S
C1173 C1174 1.362 . S
C1174 H1166 0.930 . S
C1174 C1173 1.362 . S
C1174 C1177 1.405 1_655 S
C1175 H1167 0.930 . S
C1175 C1176 1.355 . S
C1175 C1177 1.416 . S
C1176 C1175 1.355 . S
C1176 C1178 1.419 . S
C1177 C1172 1.428 . S
C1177 C1174 1.405 1_455 S
C1177 C1175 1.416 . S
C1178 H1168 0.930 . S
C1178 C1176 1.419 . S
C1178 C1179 1.362 . S
C1179 H1169 0.930 . S
C1179 C1172 1.409 . S
C1179 C1178 1.362 . S
H1180 C1186 0.930 . S
H1181 C1189 0.930 . S
H1182 C1190 0.930 . S
H1183 C1191 0.930 . S
H1184 C1194 0.930 . S
H1185 C1195 0.930 . S
C1186 H1180 0.930 . S
C1186 C1187 1.355 . S
C1186 C1188 1.415 . S
C1187 C1186 1.355 . S
C1187 C1189 1.419 . S
C1188 C1186 1.415 . S
C1188 C1193 1.425 . S
C1188 C1195 1.409 . S
C1189 H1181 0.930 . S
C1189 C1187 1.419 . S
C1189 C1190 1.362 . S
C1190 H1182 0.930 . S
C1190 C1189 1.362 . S
C1190 C1193 1.409 . S
C1191 H1183 0.930 . S
C1191 C1192 1.355 . S
C1191 C1193 1.415 . S
C1192 C1191 1.355 . S
C1192 C1194 1.419 . S
C1193 C1188 1.425 . S
C1193 C1190 1.409 . S
C1193 C1191 1.415 . S
C1194 H1184 0.930 . S
C1194 C1192 1.419 . S
C1194 C1195 1.362 . S
C1195 H1185 0.930 . S
C1195 C1188 1.409 . S
C1195 C1194 1.362 . S
H1196 C1202 0.930 . S
H1197 C1205 0.930 . S
H1198 C1206 0.930 . S
H1199 C1207 0.930 . S
H1200 C1210 0.930 . S
H1201 C1211 0.930 . S
C1202 H1196 0.930 . S
C1202 C1203 1.355 . S
C1202 C1204 1.415 . S
C1203 C1202 1.355 . S
C1203 C1205 1.419 . S
C1204 C1202 1.415 . S
C1204 C1209 1.425 . S
C1204 C1211 1.409 1_545 S
C1205 H1197 0.930 . S
C1205 C1203 1.419 . S
C1205 C1206 1.362 . S
C1206 H1198 0.930 . S
C1206 C1205 1.362 . S
C1206 C1209 1.409 . S
C1207 H1199 0.930 . S
C1207 C1208 1.355 . S
C1207 C1209 1.415 1_565 S
C1208 C1207 1.355 . S
C1208 C1210 1.419 . S
C1209 C1204 1.425 . S
C1209 C1206 1.409 . S
C1209 C1207 1.415 1_545 S
C1210 H1200 0.930 . S
C1210 C1208 1.419 . S
C1210 C1211 1.362 . S
C1211 H1201 0.930 . S
C1211 C1204 1.409 1_565 S
C1211 C1210 1.362 . S
H1212 C1218 0.930 . S
H1213 C1221 0.930 . S
H1214 C1222 0.930 . S
H1215 C1223 0.930 . S
H1216 C1226 0.930 . S
H1217 C1227 0.930 . S
C1218 H1212 0.930 . S
C1218 C1219 1.355 . S
C1218 C1220 1.415 . S
C1219 C1218 1.355 . S
C1219 C1221 1.419 . S
C1220 C1218 1.415 . S
C1220 C1225 1.425 . S
C1220 C1227 1.409 . S
C1221 H1213 0.930 . S
C1221 C1219 1.419 . S
C1221 C1222 1.362 . S
C1222 H1214 0.930 . S
C1222 C1221 1.362 . S
C1222 C1225 1.409 . S
C1223 H1215 0.930 . S
C1223 C1224 1.355 . S
C1223 C1225 1.415 . S
C1224 C1223 1.355 . S
C1224 C1226 1.419 . S
C1225 C1220 1.425 . S
C1225 C1222 1.409 . S
C1225 C1223 1.415 . S
C1226 H1216 0.930 . S
C1226 C1224 1.419 . S
C1226 C1227 1.362 . S
C1227 H1217 0.930 . S
C1227 C1220 1.409 . S
C1227 C1226 1.362 . S
H1228 C1234 0.930 . S
H1229 C1237 0.930 . S
H1230 C1238 0.930 . S
H1231 C1239 0.930 . S
H1232 C1242 0.930 . S
H1233 C1243 0.930 . S
C1234 H1228 0.930 . S
C1234 C1235 1.355 . S
C1234 C1236 1.415 . S
C1235 C1234 1.355 . S
C1235 C1237 1.419 . S
C1236 C1234 1.415 . S
C1236 C1241 1.425 . S
C1236 C1243 1.409 . S
C1237 H1229 0.930 . S
C1237 C1235 1.419 . S
C1237 C1238 1.362 . S
C1238 H1230 0.930 . S
C1238 C1237 1.362 . S
C1238 C1241 1.409 . S
C1239 H1231 0.930 . S
C1239 C1240 1.355 . S
C1239 C1241 1.415 . S
C1240 C1239 1.355 . S
C1240 C1242 1.419 . S
C1241 C1236 1.425 . S
C1241 C1238 1.409 . S
C1241 C1239 1.415 . S
C1242 H1232 0.930 . S
C1242 C1240 1.419 . S
C1242 C1243 1.362 . S
C1243 H1233 0.930 . S
C1243 C1236 1.409 . S
C1243 C1242 1.362 . S
H1244 C1250 0.930 . S
H1245 C1253 0.930 . S
H1246 C1254 0.930 . S
H1247 C1255 0.930 . S
H1248 C1258 0.930 . S
H1249 C1259 0.930 . S
C1250 H1244 0.930 . S
C1250 C1251 1.355 . S
C1250 C1252 1.415 . S
C1251 C1250 1.355 . S
C1251 C1253 1.419 . S
C1252 C1250 1.415 . S
C1252 C1257 1.425 . S
C1252 C1259 1.409 . S
C1253 H1245 0.930 . S
C1253 C1251 1.419 . S
C1253 C1254 1.362 . S
C1254 H1246 0.930 . S
C1254 C1253 1.362 . S
C1254 C1257 1.409 . S
C1255 H1247 0.930 . S
C1255 C1256 1.355 . S
C1255 C1257 1.415 . S
C1256 C1255 1.355 . S
C1256 C1258 1.419 . S
C1257 C1252 1.425 . S
C1257 C1254 1.409 . S
C1257 C1255 1.415 . S
C1258 H1248 0.930 . S
C1258 C1256 1.419 . S
C1258 C1259 1.362 . S
C1259 H1249 0.930 . S
C1259 C1252 1.409 . S
C1259 C1258 1.362 . S
H1260 C1266 0.930 . S
H1261 C1269 0.930 . S
H1262 C1270 0.930 . S
H1263 C1271 0.930 . S
H1264 C1274 0.930 . S
H1265 C1275 0.930 . S
C1266 H1260 0.930 . S
C1266 C1267 1.355 . S
C1266 C1268 1.415 . S
C1267 C1266 1.355 . S
C1267 C1269 1.419 . S
C1268 C1266 1.415 . S
C1268 C1273 1.425 . S
C1268 C1275 1.409 . S
C1269 H1261 0.930 . S
C1269 C1267 1.419 . S
C1269 C1270 1.362 . S
C1270 H1262 0.930 . S
C1270 C1269 1.362 . S
C1270 C1273 1.409 . S
C1271 H1263 0.930 . S
C1271 C1272 1.355 . S
C1271 C1273 1.415 . S
C1272 C1271 1.355 . S
C1272 C1274 1.419 . S
C1273 C1268 1.425 . S
C1273 C1270 1.409 . S
C1273 C1271 1.415 . S
C1274 H1264 0.930 . S
C1274 C1272 1.419 . S
C1274 C1275 1.362 . S
C1275 H1265 0.930 . S
C1275 C1268 1.409 . S
C1275 C1274 1.362 . S
H1276 C1282 0.930 . S
H1277 C1285 0.930 . S
H1278 C1286 0.930 . S
H1279 C1287 0.930 . S
H1280 C1290 0.930 . S
H1281 C1291 0.930 . S
C1282 H1276 0.930 . S
C1282 C1283 1.355 . S
C1282 C1284 1.415 . S
C1283 C1282 1.355 . S
C1283 C1285 1.419 . S
C1284 C1282 1.415 . S
C1284 C1289 1.425 . S
C1284 C1291 1.409 . S
C1285 H1277 0.930 . S
C1285 C1283 1.419 . S
C1285 C1286 1.362 . S
C1286 H1278 0.930 . S
C1286 C1285 1.362 . S
C1286 C1289 1.409 . S
C1287 H1279 0.930 . S
C1287 C1288 1.355 . S
C1287 C1289 1.415 . S
C1288 C1287 1.355 . S
C1288 C1290 1.419 . S
C1289 C1284 1.425 . S
C1289 C1286 1.409 . S
C1289 C1287 1.415 . S
C1290 H1280 0.930 . S
C1290 C1288 1.419 . S
C1290 C1291 1.362 . S
C1291 H1281 0.930 . S
C1291 C1284 1.409 . S
C1291 C1290 1.362 . S
H1292 C1298 0.930 . S
H1293 C1301 0.930 . S
H1294 C1302 0.930 . S
H1295 C1303 0.930 . S
H1296 C1306 0.930 . S
H1297 C1307 0.930 . S
C1298 H1292 0.930 . S
C1298 C1299 1.355 . S
C1298 C1300 1.415 . S
C1299 C1298 1.355 . S
C1299 C1301 1.419 . S
C1300 C1298 1.415 . S
C1300 C1305 1.425 . S
C1300 C1307 1.409 . S
C1301 H1293 0.930 . S
C1301 C1299 1.419 . S
C1301 C1302 1.362 . S
C1302 H1294 0.930 . S
C1302 C1301 1.362 . S
C1302 C1305 1.409 . S
C1303 H1295 0.930 . S
C1303 C1304 1.355 . S
C1303 C1305 1.415 . S
C1304 C1303 1.355 . S
C1304 C1306 1.419 . S
C1305 C1300 1.425 . S
C1305 C1302 1.409 . S
C1305 C1303 1.415 . S
C1306 H1296 0.930 . S
C1306 C1304 1.419 . S
C1306 C1307 1.362 . S
C1307 H1297 0.930 . S
C1307 C1300 1.409 . S
C1307 C1306 1.362 . S
H1308 C1314 0.930 . S
H1309 C1317 0.930 1_545 S
H1310 C1318 0.930 . S
H1311 C1319 0.930 . S
H1312 C1322 0.930 . S
H1313 C1323 0.930 . S
C1314 H1308 0.930 . S
C1314 C1315 1.355 1_565 S
C1314 C1316 1.415 . S
C1315 C1314 1.355 1_545 S
C1315 C1317 1.419 1_545 S
C1316 C1314 1.415 . S
C1316 C1321 1.425 . S
C1316 C1323 1.409 . S
C1317 H1309 0.930 1_565 S
C1317 C1315 1.419 1_565 S
C1317 C1318 1.362 . S
C1318 H1310 0.930 . S
C1318 C1317 1.362 . S
C1318 C1321 1.409 . S
C1319 H1311 0.930 . S
C1319 C1320 1.355 . S
C1319 C1321 1.415 . S
C1320 C1319 1.355 . S
C1320 C1322 1.419 . S
C1321 C1316 1.425 . S
C1321 C1318 1.409 . S
C1321 C1319 1.415 . S
C1322 H1312 0.930 . S
C1322 C1320 1.419 . S
C1322 C1323 1.362 . S
C1323 H1313 0.930 . S
C1323 C1316 1.409 . S
C1323 C1322 1.362 . S
H1324 C1330 0.930 . S
H1325 C1333 0.930 . S
H1326 C1334 0.930 . S
H1327 C1335 0.930 . S
H1328 C1338 0.930 . S
H1329 C1339 0.930 . S
C1330 H1324 0.930 . S
C1330 C1331 1.355 . S
C1330 C1332 1.415 . S
C1331 C1330 1.355 . S
C1331 C1333 1.419 . S
C1332 C1330 1.415 . S
C1332 C1337 1.425 . S
C1332 C1339 1.409 . S
C1333 H1325 0.930 . S
C1333 C1331 1.419 . S
C1333 C1334 1.362 . S
C1334 H1326 0.930 . S
C1334 C1333 1.362 . S
C1334 C1337 1.409 . S
C1335 H1327 0.930 . S
C1335 C1336 1.355 . S
C1335 C1337 1.415 . S
C1336 C1335 1.355 . S
C1336 C1338 1.419 . S
C1337 C1332 1.425 . S
C1337 C1334 1.409 . S
C1337 C1335 1.415 . S
C1338 H1328 0.930 . S
C1338 C1336 1.419 . S
C1338 C1339 1.362 . S
C1339 H1329 0.930 . S
C1339 C1332 1.409 . S
C1339 C1338 1.362 . S
H1340 C1346 0.930 . S
H1341 C1349 0.930 . S
H1342 C1350 0.930 . S
H1343 C1351 0.930 . S
H1344 C1354 0.930 . S
H1345 C1355 0.930 . S
C1346 H1340 0.930 . S
C1346 C1347 1.355 . S
C1346 C1348 1.415 . S
C1347 C1346 1.355 . S
C1347 C1349 1.419 . S
C1348 C1346 1.415 . S
C1348 C1353 1.425 . S
C1348 C1355 1.409 . S
C1349 H1341 0.930 . S
C1349 C1347 1.419 . S
C1349 C1350 1.362 . S
C1350 H1342 0.930 . S
C1350 C1349 1.362 . S
C1350 C1353 1.409 . S
C1351 H1343 0.930 . S
C1351 C1352 1.355 . S
C1351 C1353 1.415 . S
C1352 C1351 1.355 . S
C1352 C1354 1.419 . S
C1353 C1348 1.425 . S
C1353 C1350 1.409 . S
C1353 C1351 1.415 . S
C1354 H1344 0.930 . S
C1354 C1352 1.419 . S
C1354 C1355 1.362 . S
C1355 H1345 0.930 . S
C1355 C1348 1.409 . S
C1355 C1354 1.362 . S
H1356 C1362 0.930 . S
H1357 C1365 0.930 . S
H1358 C1366 0.930 . S
H1359 C1367 0.930 . S
H1360 C1370 0.930 . S
H1361 C1371 0.930 . S
C1362 H1356 0.930 . S
C1362 C1363 1.355 . S
C1362 C1364 1.415 . S
C1363 C1362 1.355 . S
C1363 C1365 1.419 . S
C1364 C1362 1.415 . S
C1364 C1369 1.425 . S
C1364 C1371 1.409 . S
C1365 H1357 0.930 . S
C1365 C1363 1.419 . S
C1365 C1366 1.362 . S
C1366 H1358 0.930 . S
C1366 C1365 1.362 . S
C1366 C1369 1.409 . S
C1367 H1359 0.930 . S
C1367 C1368 1.355 . S
C1367 C1369 1.415 . S
C1368 C1367 1.355 . S
C1368 C1370 1.419 . S
C1369 C1364 1.425 . S
C1369 C1366 1.409 . S
C1369 C1367 1.415 . S
C1370 H1360 0.930 . S
C1370 C1368 1.419 . S
C1370 C1371 1.362 . S
C1371 H1361 0.930 . S
C1371 C1364 1.409 . S
C1371 C1370 1.362 . S
H1372 C1378 0.930 . S
H1373 C1381 0.930 . S
H1374 C1382 0.930 . S
H1375 C1383 0.930 . S
H1376 C1386 0.930 . S
H1377 C1387 0.930 . S
C1378 H1372 0.930 . S
C1378 C1379 1.355 . S
C1378 C1380 1.415 . S
C1379 C1378 1.355 . S
C1379 C1381 1.419 . S
C1380 C1378 1.415 . S
C1380 C1385 1.425 . S
C1380 C1387 1.409 . S
C1381 H1373 0.930 . S
C1381 C1379 1.419 . S
C1381 C1382 1.362 . S
C1382 H1374 0.930 . S
C1382 C1381 1.362 . S
C1382 C1385 1.409 . S
C1383 H1375 0.930 . S
C1383 C1384 1.355 . S
C1383 C1385 1.415 . S
C1384 C1383 1.355 . S
C1384 C1386 1.419 . S
C1385 C1380 1.425 . S
C1385 C1382 1.409 . S
C1385 C1383 1.415 . S
C1386 H1376 0.930 . S
C1386 C1384 1.419 . S
C1386 C1387 1.362 . S
C1387 H1377 0.930 . S
C1387 C1380 1.409 . S
C1387 C1386 1.362 . S
H1388 C1394 0.930 . S
H1389 C1397 0.930 . S
H1390 C1398 0.930 . S
H1391 C1399 0.930 . S
H1392 C1402 0.930 . S
H1393 C1403 0.930 . S
C1394 H1388 0.930 . S
C1394 C1395 1.355 . S
C1394 C1396 1.415 . S
C1395 C1394 1.355 . S
C1395 C1397 1.419 . S
C1396 C1394 1.415 . S
C1396 C1401 1.425 . S
C1396 C1403 1.409 . S
C1397 H1389 0.930 . S
C1397 C1395 1.419 . S
C1397 C1398 1.362 . S
C1398 H1390 0.930 . S
C1398 C1397 1.362 . S
C1398 C1401 1.409 . S
C1399 H1391 0.930 . S
C1399 C1400 1.355 . S
C1399 C1401 1.415 . S
C1400 C1399 1.355 . S
C1400 C1402 1.419 . S
C1401 C1396 1.425 . S
C1401 C1398 1.409 . S
C1401 C1399 1.415 . S
C1402 H1392 0.930 . S
C1402 C1400 1.419 . S
C1402 C1403 1.362 . S
C1403 H1393 0.930 . S
C1403 C1396 1.409 . S
C1403 C1402 1.362 . S
H1404 C1410 0.930 . S
H1405 C1413 0.930 . S
H1406 C1414 0.930 . S
H1407 C1415 0.930 . S
H1408 C1418 0.930 . S
H1409 C1419 0.930 . S
C1410 H1404 0.930 . S
C1410 C1411 1.355 . S
C1410 C1412 1.415 . S
C1411 C1410 1.355 . S
C1411 C1413 1.419 . S
C1412 C1410 1.415 . S
C1412 C1417 1.425 1_565 S
C1412 C1419 1.409 . S
C1413 H1405 0.930 . S
C1413 C1411 1.419 . S
C1413 C1414 1.362 1_565 S
C1414 H1406 0.930 . S
C1414 C1413 1.362 1_545 S
C1414 C1417 1.409 . S
C1415 H1407 0.930 . S
C1415 C1416 1.355 . S
C1415 C1417 1.415 . S
C1416 C1415 1.355 . S
C1416 C1418 1.419 . S
C1417 C1412 1.425 1_545 S
C1417 C1414 1.409 . S
C1417 C1415 1.415 . S
C1418 H1408 0.930 . S
C1418 C1416 1.419 . S
C1418 C1419 1.362 1_545 S
C1419 H1409 0.930 . S
C1419 C1412 1.409 . S
C1419 C1418 1.362 1_565 S
H1420 C1426 0.930 . S
H1421 C1429 0.930 . S
H1422 C1430 0.932 . S
H1423 C1431 0.930 . S
H1424 C1434 0.930 . S
H1425 C1435 0.928 1_455 S
C1426 H1420 0.930 . S
C1426 C1427 1.355 . S
C1426 C1428 1.415 . S
C1427 C1426 1.355 . S
C1427 C1429 1.419 . S
C1428 C1426 1.415 . S
C1428 C1433 1.425 1_455 S
C1428 C1435 1.409 1_455 S
C1429 H1421 0.930 . S
C1429 C1427 1.419 . S
C1429 C1430 1.362 . S
C1430 H1422 0.932 . S
C1430 C1429 1.362 . S
C1430 C1433 1.409 1_455 S
C1431 H1423 0.930 . S
C1431 C1432 1.355 . S
C1431 C1433 1.415 . S
C1432 C1431 1.355 . S
C1432 C1434 1.419 . S
C1433 C1428 1.425 1_655 S
C1433 C1430 1.409 1_655 S
C1433 C1431 1.415 . S
C1434 H1424 0.930 . S
C1434 C1432 1.419 . S
C1434 C1435 1.362 . S
C1435 H1425 0.928 1_655 S
C1435 C1428 1.409 1_655 S
C1435 C1434 1.362 . S
H1436 C1442 0.930 . S
H1437 C1445 0.930 . S
H1438 C1446 0.930 . S
H1439 C1447 0.930 . S
H1440 C1450 0.930 . S
H1441 C1451 0.930 . S
C1442 H1436 0.930 . S
C1442 C1443 1.355 . S
C1442 C1444 1.415 . S
C1443 C1442 1.355 . S
C1443 C1445 1.419 . S
C1444 C1442 1.415 . S
C1444 C1449 1.425 . S
C1444 C1451 1.409 . S
C1445 H1437 0.930 . S
C1445 C1443 1.419 . S
C1445 C1446 1.362 . S
C1446 H1438 0.930 . S
C1446 C1445 1.362 . S
C1446 C1449 1.409 . S
C1447 H1439 0.930 . S
C1447 C1448 1.355 . S
C1447 C1449 1.415 . S
C1448 C1447 1.355 . S
C1448 C1450 1.419 . S
C1449 C1444 1.425 . S
C1449 C1446 1.409 . S
C1449 C1447 1.415 . S
C1450 H1440 0.930 . S
C1450 C1448 1.419 . S
C1450 C1451 1.362 . S
C1451 H1441 0.930 . S
C1451 C1444 1.409 . S
C1451 C1450 1.362 . S
H1452 C1458 0.929 1_455 S
H1453 C1461 0.930 . S
H1454 C1462 0.930 . S
H1455 C1463 0.930 . S
H1456 C1466 0.930 . S
H1457 C1467 0.930 . S
C1458 H1452 0.929 1_655 S
C1458 C1459 1.354 . S
C1458 C1460 1.415 . S
C1459 C1458 1.354 . S
C1459 C1461 1.456 . S
C1460 C1458 1.415 . S
C1460 C1465 1.425 . S
C1460 C1467 1.409 . S
C1461 H1453 0.930 . S
C1461 C1459 1.456 . S
C1461 C1462 1.362 . S
C1462 H1454 0.930 . S
C1462 C1461 1.362 . S
C1462 C1465 1.409 . S
C1463 H1455 0.930 . S
C1463 C1464 1.355 . S
C1463 C1465 1.415 . S
C1464 C1463 1.355 . S
C1464 C1466 1.419 . S
C1465 C1460 1.425 . S
C1465 C1462 1.409 . S
C1465 C1463 1.415 . S
C1466 H1456 0.930 . S
C1466 C1464 1.419 . S
C1466 C1467 1.362 . S
C1467 H1457 0.930 . S
C1467 C1460 1.409 . S
C1467 C1466 1.362 . S
H1468 C1474 0.930 . S
H1469 C1477 0.930 . S
H1470 C1478 0.930 . S
H1471 C1479 0.930 . S
H1472 C1482 0.930 . S
H1473 C1483 0.930 . S
C1474 H1468 0.930 . S
C1474 C1475 1.355 . S
C1474 C1476 1.415 . S
C1475 C1474 1.355 . S
C1475 C1477 1.419 . S
C1476 C1474 1.415 . S
C1476 C1481 1.425 . S
C1476 C1483 1.409 . S
C1477 H1469 0.930 . S
C1477 C1475 1.419 . S
C1477 C1478 1.362 . S
C1478 H1470 0.930 . S
C1478 C1477 1.362 . S
C1478 C1481 1.409 . S
C1479 H1471 0.930 . S
C1479 C1480 1.355 . S
C1479 C1481 1.415 . S
C1480 C1479 1.355 . S
C1480 C1482 1.419 . S
C1481 C1476 1.425 . S
C1481 C1478 1.409 . S
C1481 C1479 1.415 . S
C1482 H1472 0.930 . S
C1482 C1480 1.419 . S
C1482 C1483 1.362 . S
C1483 H1473 0.930 . S
C1483 C1476 1.409 . S
C1483 C1482 1.362 . S
H1484 C1490 0.930 . S
H1485 C1493 0.930 . S
H1486 C1494 0.930 . S
H1487 C1495 0.930 . S
H1488 C1498 0.930 . S
H1489 C1499 0.930 . S
C1490 H1484 0.930 . S
C1490 C1491 1.345 1_545 S
C1490 C1492 1.415 . S
C1491 C1490 1.345 1_565 S
C1491 C1493 1.405 1_565 S
C1492 C1490 1.415 . S
C1492 C1497 1.425 . S
C1492 C1499 1.409 . S
C1493 H1485 0.930 . S
C1493 C1491 1.405 1_545 S
C1493 C1494 1.362 . S
C1494 H1486 0.930 . S
C1494 C1493 1.362 . S
C1494 C1497 1.409 . S
C1495 H1487 0.930 . S
C1495 C1496 1.355 . S
C1495 C1497 1.415 . S
C1496 C1495 1.355 . S
C1496 C1498 1.419 . S
C1497 C1492 1.425 . S
C1497 C1494 1.409 . S
C1497 C1495 1.415 . S
C1498 H1488 0.930 . S
C1498 C1496 1.419 . S
C1498 C1499 1.362 . S
C1499 H1489 0.930 . S
C1499 C1492 1.409 . S
C1499 C1498 1.362 . S
H1500 C1506 0.930 . S
H1501 C1509 0.930 . S
H1502 C1510 0.930 . S
H1503 C1511 0.930 . S
H1504 C1514 0.930 . S
H1505 C1515 0.930 . S
C1506 H1500 0.930 . S
C1506 C1507 1.355 . S
C1506 C1508 1.415 . S
C1507 C1506 1.355 . S
C1507 C1509 1.419 . S
C1508 C1506 1.415 . S
C1508 C1513 1.425 . S
C1508 C1515 1.409 . S
C1509 H1501 0.930 . S
C1509 C1507 1.419 . S
C1509 C1510 1.362 . S
C1510 H1502 0.930 . S
C1510 C1509 1.362 . S
C1510 C1513 1.409 . S
C1511 H1503 0.930 . S
C1511 C1512 1.355 . S
C1511 C1513 1.415 . S
C1512 C1511 1.355 . S
C1512 C1514 1.419 . S
C1513 C1508 1.425 . S
C1513 C1510 1.409 . S
C1513 C1511 1.415 . S
C1514 H1504 0.930 . S
C1514 C1512 1.419 . S
C1514 C1515 1.362 . S
C1515 H1505 0.930 . S
C1515 C1508 1.409 . S
C1515 C1514 1.362 . S
H1516 C1522 0.930 . S
H1517 C1525 0.930 . S
H1518 C1526 0.930 . S
H1519 C1527 0.930 . S
H1520 C1530 0.930 . S
H1521 C1531 0.930 . S
C1522 H1516 0.930 . S
C1522 C1523 1.355 . S
C1522 C1524 1.415 . S
C1523 C1522 1.355 . S
C1523 C1525 1.419 . S
C1524 C1522 1.415 . S
C1524 C1529 1.425 . S
C1524 C1531 1.409 . S
C1525 H1517 0.930 . S
C1525 C1523 1.419 . S
C1525 C1526 1.362 . S
C1526 H1518 0.930 . S
C1526 C1525 1.362 . S
C1526 C1529 1.409 . S
C1527 H1519 0.930 . S
C1527 C1528 1.355 . S
C1527 C1529 1.415 . S
C1528 C1527 1.355 . S
C1528 C1530 1.419 . S
C1529 C1524 1.425 . S
C1529 C1526 1.409 . S
C1529 C1527 1.415 . S
C1530 H1520 0.930 . S
C1530 C1528 1.419 . S
C1530 C1531 1.362 . S
C1531 H1521 0.930 . S
C1531 C1524 1.409 . S
C1531 C1530 1.362 . S
H1532 C1538 0.930 . S
H1533 C1541 0.930 . S
H1534 C1542 0.930 . S
H1535 C1543 0.930 . S
H1536 C1546 0.930 . S
H1537 C1547 0.930 . S
C1538 H1532 0.930 . S
C1538 C1539 1.355 . S
C1538 C1540 1.415 . S
C1539 C1538 1.355 . S
C1539 C1541 1.419 . S
C1540 C1538 1.415 . S
C1540 C1545 1.425 . S
C1540 C1547 1.409 . S
C1541 H1533 0.930 . S
C1541 C1539 1.419 . S
C1541 C1542 1.362 . S
C1542 H1534 0.930 . S
C1542 C1541 1.362 . S
C1542 C1545 1.409 . S
C1543 H1535 0.930 . S
C1543 C1544 1.355 . S
C1543 C1545 1.415 . S
C1544 C1543 1.355 . S
C1544 C1546 1.419 . S
C1545 C1540 1.425 . S
C1545 C1542 1.409 . S
C1545 C1543 1.415 . S
C1546 H1536 0.930 . S
C1546 C1544 1.419 . S
C1546 C1547 1.362 . S
C1547 H1537 0.930 . S
C1547 C1540 1.409 . S
C1547 C1546 1.362 . S
H1548 C1554 0.930 . S
H1549 C1557 0.930 . S
H1550 C1558 0.930 . S
H1551 C1559 0.930 . S
H1552 C1562 0.930 . S
H1553 C1563 0.930 . S
C1554 H1548 0.930 . S
C1554 C1555 1.355 . S
C1554 C1556 1.415 . S
C1555 C1554 1.355 . S
C1555 C1557 1.419 . S
C1556 C1554 1.415 . S
C1556 C1561 1.425 . S
C1556 C1563 1.409 . S
C1557 H1549 0.930 . S
C1557 C1555 1.419 . S
C1557 C1558 1.362 . S
C1558 H1550 0.930 . S
C1558 C1557 1.362 . S
C1558 C1561 1.409 . S
C1559 H1551 0.930 . S
C1559 C1560 1.355 . S
C1559 C1561 1.415 . S
C1560 C1559 1.355 . S
C1560 C1562 1.419 . S
C1561 C1556 1.425 . S
C1561 C1558 1.409 . S
C1561 C1559 1.415 . S
C1562 H1552 0.930 . S
C1562 C1560 1.419 . S
C1562 C1563 1.362 . S
C1563 H1553 0.930 . S
C1563 C1556 1.409 . S
C1563 C1562 1.362 . S
H1564 C1570 0.930 . S
H1565 C1573 0.930 . S
H1566 C1574 0.930 . S
H1567 C1575 0.930 . S
H1568 C1578 0.930 . S
H1569 C1579 0.930 . S
C1570 H1564 0.930 . S
C1570 C1571 1.355 . S
C1570 C1572 1.415 . S
C1571 C1570 1.355 . S
C1571 C1573 1.419 . S
C1572 C1570 1.415 . S
C1572 C1577 1.425 . S
C1572 C1579 1.409 . S
C1573 H1565 0.930 . S
C1573 C1571 1.419 . S
C1573 C1574 1.362 . S
C1574 H1566 0.930 . S
C1574 C1573 1.362 . S
C1574 C1577 1.409 . S
C1575 H1567 0.930 . S
C1575 C1576 1.355 . S
C1575 C1577 1.415 . S
C1576 C1575 1.355 . S
C1576 C1578 1.419 . S
C1577 C1572 1.425 . S
C1577 C1574 1.409 . S
C1577 C1575 1.415 . S
C1578 H1568 0.930 . S
C1578 C1576 1.419 . S
C1578 C1579 1.362 . S
C1579 H1569 0.930 . S
C1579 C1572 1.409 . S
C1579 C1578 1.362 . S
H1580 C1586 0.930 . S
H1581 C1589 0.930 . S
H1582 C1590 0.930 . S
H1583 C1591 0.930 . S
H1584 C1594 0.930 . S
H1585 C1595 0.930 . S
C1586 H1580 0.930 . S
C1586 C1587 1.355 . S
C1586 C1588 1.415 . S
C1587 C1586 1.355 . S
C1587 C1589 1.419 . S
C1588 C1586 1.415 . S
C1588 C1593 1.425 . S
C1588 C1595 1.409 . S
C1589 H1581 0.930 . S
C1589 C1587 1.419 . S
C1589 C1590 1.362 . S
C1590 H1582 0.930 . S
C1590 C1589 1.362 . S
C1590 C1593 1.409 . S
C1591 H1583 0.930 . S
C1591 C1592 1.355 . S
C1591 C1593 1.415 . S
C1592 C1591 1.355 . S
C1592 C1594 1.419 . S
C1593 C1588 1.425 . S
C1593 C1590 1.409 . S
C1593 C1591 1.415 . S
C1594 H1584 0.930 . S
C1594 C1592 1.419 . S
C1594 C1595 1.362 . S
C1595 H1585 0.930 . S
C1595 C1588 1.409 . S
C1595 C1594 1.362 . S
H1596 C1602 0.930 . S
H1597 C1605 0.930 . S
H1598 C1606 0.930 . S
H1599 C1607 0.930 . S
H1600 C1610 0.930 . S
H1601 C1611 0.930 . S
C1602 H1596 0.930 . S
C1602 C1603 1.355 . S
C1602 C1604 1.415 . S
C1603 C1602 1.355 . S
C1603 C1605 1.419 . S
C1604 C1602 1.415 . S
C1604 C1609 1.425 . S
C1604 C1611 1.409 . S
C1605 H1597 0.930 . S
C1605 C1603 1.419 . S
C1605 C1606 1.362 . S
C1606 H1598 0.930 . S
C1606 C1605 1.362 . S
C1606 C1609 1.409 . S
C1607 H1599 0.930 . S
C1607 C1608 1.355 . S
C1607 C1609 1.415 . S
C1608 C1607 1.355 . S
C1608 C1610 1.419 . S
C1609 C1604 1.425 . S
C1609 C1606 1.409 . S
C1609 C1607 1.415 . S
C1610 H1600 0.930 . S
C1610 C1608 1.419 . S
C1610 C1611 1.362 . S
C1611 H1601 0.930 . S
C1611 C1604 1.409 . S
C1611 C1610 1.362 . S
H1612 C1618 0.930 . S
H1613 C1621 0.930 . S
H1614 C1622 0.930 . S
H1615 C1623 0.930 . S
H1616 C1626 0.930 . S
H1617 C1627 0.930 . S
C1618 H1612 0.930 . S
C1618 C1619 1.355 . S
C1618 C1620 1.415 . S
C1619 C1618 1.355 . S
C1619 C1621 1.419 . S
C1620 C1618 1.415 . S
C1620 C1625 1.425 . S
C1620 C1627 1.409 . S
C1621 H1613 0.930 . S
C1621 C1619 1.419 . S
C1621 C1622 1.362 . S
C1622 H1614 0.930 . S
C1622 C1621 1.362 . S
C1622 C1625 1.409 . S
C1623 H1615 0.930 . S
C1623 C1624 1.355 . S
C1623 C1625 1.415 . S
C1624 C1623 1.355 . S
C1624 C1626 1.419 . S
C1625 C1620 1.425 . S
C1625 C1622 1.409 . S
C1625 C1623 1.415 . S
C1626 H1616 0.930 . S
C1626 C1624 1.419 . S
C1626 C1627 1.362 . S
C1627 H1617 0.930 . S
C1627 C1620 1.409 . S
C1627 C1626 1.362 . S
H1628 C1634 0.930 . S
H1629 C1637 0.930 . S
H1630 C1638 0.930 . S
H1631 C1639 0.930 . S
H1632 C1642 0.930 . S
H1633 C1643 0.930 . S
C1634 H1628 0.930 . S
C1634 C1635 1.355 . S
C1634 C1636 1.415 . S
C1635 C1634 1.355 . S
C1635 C1637 1.419 . S
C1636 C1634 1.415 . S
C1636 C1641 1.425 . S
C1636 C1643 1.409 . S
C1637 H1629 0.930 . S
C1637 C1635 1.419 . S
C1637 C1638 1.362 . S
C1638 H1630 0.930 . S
C1638 C1637 1.362 . S
C1638 C1641 1.409 . S
C1639 H1631 0.930 . S
C1639 C1640 1.355 . S
C1639 C1641 1.415 . S
C1640 C1639 1.355 . S
C1640 C1642 1.419 . S
C1641 C1636 1.425 . S
C1641 C1638 1.409 . S
C1641 C1639 1.415 . S
C1642 H1632 0.930 . S
C1642 C1640 1.419 . S
C1642 C1643 1.362 . S
C1643 H1633 0.930 . S
C1643 C1636 1.409 . S
C1643 C1642 1.362 . S
H1644 C1650 0.930 . S
H1645 C1653 0.930 . S
H1646 C1654 0.930 . S
H1647 C1655 0.930 . S
H1648 C1658 0.930 . S
H1649 C1659 0.930 . S
C1650 H1644 0.930 . S
C1650 C1651 1.355 . S
C1650 C1652 1.415 . S
C1651 C1650 1.355 . S
C1651 C1653 1.419 . S
C1652 C1650 1.415 . S
C1652 C1657 1.425 . S
C1652 C1659 1.409 . S
C1653 H1645 0.930 . S
C1653 C1651 1.419 . S
C1653 C1654 1.362 . S
C1654 H1646 0.930 . S
C1654 C1653 1.362 . S
C1654 C1657 1.409 . S
C1655 H1647 0.930 . S
C1655 C1656 1.355 . S
C1655 C1657 1.415 . S
C1656 C1655 1.355 . S
C1656 C1658 1.419 . S
C1657 C1652 1.425 . S
C1657 C1654 1.409 . S
C1657 C1655 1.415 . S
C1658 H1648 0.930 . S
C1658 C1656 1.419 . S
C1658 C1659 1.362 . S
C1659 H1649 0.930 . S
C1659 C1652 1.409 . S
C1659 C1658 1.362 . S
H1660 C1666 0.930 . S
H1661 C1669 0.930 . S
H1662 C1670 0.930 . S
H1663 C1671 0.930 . S
H1664 C1674 0.930 . S
H1665 C1675 0.930 . S
C1666 H1660 0.930 . S
C1666 C1667 1.355 . S
C1666 C1668 1.415 . S
C1667 C1666 1.355 . S
C1667 C1669 1.419 . S
C1668 C1666 1.415 . S
C1668 C1673 1.425 . S
C1668 C1675 1.409 . S
C1669 H1661 0.930 . S
C1669 C1667 1.419 . S
C1669 C1670 1.362 . S
C1670 H1662 0.930 . S
C1670 C1669 1.362 . S
C1670 C1673 1.409 . S
C1671 H1663 0.930 . S
C1671 C1672 1.355 . S
C1671 C1673 1.415 . S
C1672 C1671 1.355 . S
C1672 C1674 1.419 . S
C1673 C1668 1.425 . S
C1673 C1670 1.409 . S
C1673 C1671 1.415 . S
C1674 H1664 0.930 . S
C1674 C1672 1.419 . S
C1674 C1675 1.362 . S
C1675 H1665 0.930 . S
C1675 C1668 1.409 . S
C1675 C1674 1.362 . S
H1676 C1682 0.930 . S
H1677 C1685 0.930 . S
H1678 C1686 0.930 . S
H1679 C1687 0.930 . S
H1680 C1690 0.930 . S
H1681 C1691 0.930 . S
C1682 H1676 0.930 . S
C1682 C1683 1.355 . S
C1682 C1684 1.415 . S
C1683 C1682 1.355 . S
C1683 C1685 1.419 . S
C1684 C1682 1.415 . S
C1684 C1689 1.425 . S
C1684 C1691 1.409 . S
C1685 H1677 0.930 . S
C1685 C1683 1.419 . S
C1685 C1686 1.362 . S
C1686 H1678 0.930 . S
C1686 C1685 1.362 . S
C1686 C1689 1.409 . S
C1687 H1679 0.930 . S
C1687 C1688 1.355 . S
C1687 C1689 1.415 . S
C1688 C1687 1.355 . S
C1688 C1690 1.419 . S
C1689 C1684 1.425 . S
C1689 C1686 1.409 . S
C1689 C1687 1.415 . S
C1690 H1680 0.930 . S
C1690 C1688 1.419 . S
C1690 C1691 1.362 . S
C1691 H1681 0.930 . S
C1691 C1684 1.409 . S
C1691 C1690 1.362 . S
H1692 C1698 0.930 . S
H1693 C1701 0.930 . S
H1694 C1702 0.930 . S
H1695 C1703 0.930 . S
H1696 C1706 0.930 . S
H1697 C1707 0.930 . S
C1698 H1692 0.930 . S
C1698 C1699 1.355 . S
C1698 C1700 1.415 . S
C1699 C1698 1.355 . S
C1699 C1701 1.419 . S
C1700 C1698 1.415 . S
C1700 C1705 1.425 . S
C1700 C1707 1.409 . S
C1701 H1693 0.930 . S
C1701 C1699 1.419 . S
C1701 C1702 1.362 . S
C1702 H1694 0.930 . S
C1702 C1701 1.362 . S
C1702 C1705 1.409 . S
C1703 H1695 0.930 . S
C1703 C1704 1.355 . S
C1703 C1705 1.415 . S
C1704 C1703 1.355 . S
C1704 C1706 1.419 . S
C1705 C1700 1.425 . S
C1705 C1702 1.409 . S
C1705 C1703 1.415 . S
C1706 H1696 0.930 . S
C1706 C1704 1.419 . S
C1706 C1707 1.362 . S
C1707 H1697 0.930 . S
C1707 C1700 1.409 . S
C1707 C1706 1.362 . S
H1708 C1714 0.930 . S
H1709 C1717 0.930 . S
H1710 C1718 0.930 . S
H1711 C1719 0.930 . S
H1712 C1722 0.930 . S
H1713 C1723 0.930 . S
C1714 H1708 0.930 . S
C1714 C1715 1.355 . S
C1714 C1716 1.415 . S
C1715 C1714 1.355 . S
C1715 C1717 1.419 . S
C1716 C1714 1.415 . S
C1716 C1721 1.425 . S
C1716 C1723 1.409 . S
C1717 H1709 0.930 . S
C1717 C1715 1.419 . S
C1717 C1718 1.362 . S
C1718 H1710 0.930 . S
C1718 C1717 1.362 . S
C1718 C1721 1.409 . S
C1719 H1711 0.930 . S
C1719 C1720 1.355 . S
C1719 C1721 1.415 . S
C1720 C1719 1.355 . S
C1720 C1722 1.419 . S
C1721 C1716 1.425 . S
C1721 C1718 1.409 . S
C1721 C1719 1.415 . S
C1722 H1712 0.930 . S
C1722 C1720 1.419 . S
C1722 C1723 1.362 . S
C1723 H1713 0.930 . S
C1723 C1716 1.409 . S
C1723 C1722 1.362 . S
H1724 C1730 0.930 . S
H1725 C1733 0.930 . S
H1726 C1734 0.930 . S
H1727 C1735 0.930 . S
H1728 C1738 0.930 . S
H1729 C1739 0.930 . S
C1730 H1724 0.930 . S
C1730 C1731 1.355 . S
C1730 C1732 1.415 . S
C1731 C1730 1.355 . S
C1731 C1733 1.419 . S
C1732 C1730 1.415 . S
C1732 C1737 1.425 . S
C1732 C1739 1.409 . S
C1733 H1725 0.930 . S
C1733 C1731 1.419 . S
C1733 C1734 1.362 . S
C1734 H1726 0.930 . S
C1734 C1733 1.362 . S
C1734 C1737 1.409 . S
C1735 H1727 0.930 . S
C1735 C1736 1.355 . S
C1735 C1737 1.415 . S
C1736 C1735 1.355 . S
C1736 C1738 1.419 . S
C1737 C1732 1.425 . S
C1737 C1734 1.409 . S
C1737 C1735 1.415 . S
C1738 H1728 0.930 . S
C1738 C1736 1.419 . S
C1738 C1739 1.362 . S
C1739 H1729 0.930 . S
C1739 C1732 1.409 . S
C1739 C1738 1.362 . S
H1740 C1746 0.930 . S
H1741 C1749 0.930 . S
H1742 C1750 0.930 . S
H1743 C1751 0.930 . S
H1744 C1754 0.930 . S
H1745 C1755 0.930 . S
C1746 H1740 0.930 . S
C1746 C1747 1.355 . S
C1746 C1748 1.415 . S
C1747 C1746 1.355 . S
C1747 C1749 1.419 . S
C1748 C1746 1.415 . S
C1748 C1753 1.425 . S
C1748 C1755 1.409 . S
C1749 H1741 0.930 . S
C1749 C1747 1.419 . S
C1749 C1750 1.362 . S
C1750 H1742 0.930 . S
C1750 C1749 1.362 . S
C1750 C1753 1.409 . S
C1751 H1743 0.930 . S
C1751 C1752 1.355 . S
C1751 C1753 1.415 . S
C1752 C1751 1.355 . S
C1752 C1754 1.419 . S
C1753 C1748 1.425 . S
C1753 C1750 1.409 . S
C1753 C1751 1.415 . S
C1754 H1744 0.930 . S
C1754 C1752 1.419 . S
C1754 C1755 1.362 . S
C1755 H1745 0.930 . S
C1755 C1748 1.409 . S
C1755 C1754 1.362 . S
H1756 C1762 0.930 . S
H1757 C1765 0.930 . S
H1758 C1766 0.930 . S
H1759 C1767 0.930 . S
H1760 C1770 0.930 . S
H1761 C1771 0.930 . S
C1762 H1756 0.930 . S
C1762 C1763 1.355 . S
C1762 C1764 1.415 . S
C1763 C1762 1.355 . S
C1763 C1765 1.419 . S
C1764 C1762 1.415 . S
C1764 C1769 1.425 . S
C1764 C1771 1.409 . S
C1765 H1757 0.930 . S
C1765 C1763 1.419 . S
C1765 C1766 1.362 . S
C1766 H1758 0.930 . S
C1766 C1765 1.362 . S
C1766 C1769 1.409 . S
C1767 H1759 0.930 . S
C1767 C1768 1.355 . S
C1767 C1769 1.415 . S
C1768 C1767 1.355 . S
C1768 C1770 1.419 . S
C1769 C1764 1.425 . S
C1769 C1766 1.409 . S
C1769 C1767 1.415 . S
C1770 H1760 0.930 . S
C1770 C1768 1.419 . S
C1770 C1771 1.362 . S
C1771 H1761 0.930 . S
C1771 C1764 1.409 . S
C1771 C1770 1.362 . S
H1772 C1778 0.930 . S
H1773 C1781 0.930 . S
H1774 C1782 0.930 . S
H1775 C1783 0.930 . S
H1776 C1786 0.930 . S
H1777 C1787 0.930 . S
C1778 H1772 0.930 . S
C1778 C1779 1.355 . S
C1778 C1780 1.415 . S
C1779 C1778 1.355 . S
C1779 C1781 1.419 . S
C1780 C1778 1.415 . S
C1780 C1785 1.425 . S
C1780 C1787 1.409 . S
C1781 H1773 0.930 . S
C1781 C1779 1.419 . S
C1781 C1782 1.362 . S
C1782 H1774 0.930 . S
C1782 C1781 1.362 . S
C1782 C1785 1.409 . S
C1783 H1775 0.930 . S
C1783 C1784 1.355 . S
C1783 C1785 1.415 . S
C1784 C1783 1.355 . S
C1784 C1786 1.419 . S
C1785 C1780 1.425 . S
C1785 C1782 1.409 . S
C1785 C1783 1.415 . S
C1786 H1776 0.930 . S
C1786 C1784 1.419 . S
C1786 C1787 1.362 . S
C1787 H1777 0.930 . S
C1787 C1780 1.409 . S
C1787 C1786 1.362 . S
H1788 C1794 0.930 . S
H1789 C1797 0.930 . S
H1790 C1798 0.930 . S
H1791 C1799 0.930 . S
H1792 C1802 0.930 . S
H1793 C1803 0.930 . S
C1794 H1788 0.930 . S
C1794 C1795 1.355 . S
C1794 C1796 1.415 . S
C1795 C1794 1.355 . S
C1795 C1797 1.419 . S
C1796 C1794 1.415 . S
C1796 C1801 1.425 . S
C1796 C1803 1.409 . S
C1797 H1789 0.930 . S
C1797 C1795 1.419 . S
C1797 C1798 1.362 . S
C1798 H1790 0.930 . S
C1798 C1797 1.362 . S
C1798 C1801 1.409 . S
C1799 H1791 0.930 . S
C1799 C1800 1.355 . S
C1799 C1801 1.415 . S
C1800 C1799 1.355 . S
C1800 C1802 1.419 . S
C1801 C1796 1.425 . S
C1801 C1798 1.409 . S
C1801 C1799 1.415 . S
C1802 H1792 0.930 . S
C1802 C1800 1.419 . S
C1802 C1803 1.362 . S
C1803 H1793 0.930 . S
C1803 C1796 1.409 . S
C1803 C1802 1.362 . S
H1804 C1810 0.930 . S
H1805 C1813 0.930 . S
H1806 C1814 0.930 . S
H1807 C1815 0.930 . S
H1808 C1818 0.930 . S
H1809 C1819 0.930 . S
C1810 H1804 0.930 . S
C1810 C1811 1.355 . S
C1810 C1812 1.415 . S
C1811 C1810 1.355 . S
C1811 C1813 1.419 . S
C1812 C1810 1.415 . S
C1812 C1817 1.425 . S
C1812 C1819 1.409 . S
C1813 H1805 0.930 . S
C1813 C1811 1.419 . S
C1813 C1814 1.362 . S
C1814 H1806 0.930 . S
C1814 C1813 1.362 . S
C1814 C1817 1.409 . S
C1815 H1807 0.930 . S
C1815 C1816 1.355 . S
C1815 C1817 1.415 . S
C1816 C1815 1.355 . S
C1816 C1818 1.419 . S
C1817 C1812 1.425 . S
C1817 C1814 1.409 . S
C1817 C1815 1.415 . S
C1818 H1808 0.930 . S
C1818 C1816 1.419 . S
C1818 C1819 1.362 . S
C1819 H1809 0.930 . S
C1819 C1812 1.409 . S
C1819 C1818 1.362 . S
H1820 C1826 0.930 . S
H1821 C1829 0.930 . S
H1822 C1830 0.930 . S
H1823 C1831 0.930 . S
H1824 C1834 0.930 . S
H1825 C1835 0.930 . S
C1826 H1820 0.930 . S
C1826 C1827 1.355 . S
C1826 C1828 1.415 . S
C1827 C1826 1.355 . S
C1827 C1829 1.419 . S
C1828 C1826 1.415 . S
C1828 C1833 1.425 . S
C1828 C1835 1.409 . S
C1829 H1821 0.930 . S
C1829 C1827 1.419 . S
C1829 C1830 1.362 . S
C1830 H1822 0.930 . S
C1830 C1829 1.362 . S
C1830 C1833 1.409 . S
C1831 H1823 0.930 . S
C1831 C1832 1.355 . S
C1831 C1833 1.415 . S
C1832 C1831 1.355 . S
C1832 C1834 1.419 . S
C1833 C1828 1.425 . S
C1833 C1830 1.409 . S
C1833 C1831 1.415 . S
C1834 H1824 0.930 . S
C1834 C1832 1.419 . S
C1834 C1835 1.362 . S
C1835 H1825 0.930 . S
C1835 C1828 1.409 . S
C1835 C1834 1.362 . S
C979 C162 1.449 . S
C984 C272 1.393 . S
C995 C174 1.472 . S
C1000 C356 1.414 . S
C1011 C150 1.438 . S
C1016 C450 1.453 . S
C1027 C138 1.423 . S
C1032 C366 1.451 . S
C1048 C440 1.403 . S
C1043 C114 1.430 . S
C1059 C126 1.407 . S
C1064 C282 1.421 1_556 S
C1080 C283 1.472 . S
C1075 C136 1.471 . S
C1096 C367 1.465 . S
C1091 C112 1.506 . S
C1107 C124 1.483 . S
C1112 C459 1.447 1_556 S
C1123 C160 1.511 . S
C1128 C375 1.474 . S
C1139 C172 1.459 . S
C1144 C451 1.462 . S
C1160 C291 1.394 . S
C1155 C148 1.456 . S
C1176 C524 1.421 . S
C1171 C18 1.443 . S
C1187 C30 1.486 . S
C1192 C608 1.388 . S
C1203 C6 1.442 . S
C1208 C702 1.461 . S
C1219 C210 1.445 . S
C1224 C618 1.421 . S
C1235 C186 1.456 . S
C1240 C692 1.356 . S
C1251 C198 1.402 . S
C1256 C534 1.410 . S
C1267 C208 1.511 . S
C1272 C535 1.448 . S
C1283 C184 1.509 . S
C1288 C619 1.505 . S
C1304 C711 1.476 . S
C1299 C196 1.531 . S
C1315 C16 1.501 . S
C1320 C627 1.440 . S
C1336 C703 1.423 . S
C1331 C28 1.459 1_455 S
C1347 C4 1.466 . S
C1352 C543 1.399 . S
C1368 C776 1.430 . S
C1363 C90 1.442 . S
C1379 C102 1.472 . S
C1384 C860 1.415 . S
C1400 C954 1.438 . S
C1395 C78 1.463 . S
C1416 C870 1.425 . S
C1411 C66 1.450 . S
C1432 C944 1.344 . S
C1427 C42 1.454 . S
C1443 C54 1.428 . S
C1448 C786 1.404 . S
C1459 C64 1.443 1_655 S
C1464 C787 1.456 . S
C1475 C40 1.502 . S
C1480 C871 1.509 . S
C1496 C963 1.485 . S
C1491 C52 1.514 . S
C1507 C88 1.471 . S
C1512 C879 1.416 . S
C1523 C100 1.491 . S
C1528 C955 1.378 . S
C1539 C76 1.453 . S
C1544 C795 1.394 . S
C1555 C189 1.549 . S
C1560 C279 1.465 . S
C1576 C363 1.422 . S
C1571 C201 1.617 . S
C1587 C213 1.559 . S
C1592 C456 1.422 . S
C1603 C81 1.569 . S
C1608 C372 1.348 . S
C1619 C93 1.566 . S
C1624 C447 1.441 . S
C1640 C288 1.398 . S
C1635 C105 1.523 . S
C1651 C45 1.579 . S
C1656 C531 1.482 . S
C1667 C57 1.604 . S
C1672 C615 1.521 . S
C1683 C69 1.573 . S
C1688 C708 1.328 . S
C1699 C153 1.570 . S
C1704 C624 1.389 . S
C1720 C699 1.397 . S
C1715 C165 1.585 . S
C1731 C177 1.556 . S
C1736 C540 1.356 . S
C1747 C117 1.586 . S
C1752 C783 1.413 . S
C1763 C129 1.622 . S
C1768 C867 1.422 . S
C1784 C960 1.402 . S
C1779 C141 1.554 . S
C1795 C9 1.601 . S
C1800 C876 1.442 . S
C1811 C21 1.576 . S
C1816 C951 1.503 . S
C1827 C33 1.550 . S
C1832 C792 1.330 . S
