# Generated by pormake.
# Topology zzz, (3,6)-cn, num edge types: 1
# Building blocks:
#     Node 0, Type 0, BuildingBlock: QEWDON_clean_linker_0, # of connection points: 3
#     Node 1, Type 0, BuildingBlock: QEWDON_clean_linker_0, # of connection points: 3
#     Node 2, Type 0, BuildingBlock: QEWDON_clean_linker_0, # of connection points: 3
#     Node 3, Type 0, BuildingBlock: QEWDON_clean_linker_0, # of connection points: 3
#     Node 4, Type 0, BuildingBlock: QEWDON_clean_linker_0, # of connection points: 3
#     Node 5, Type 0, BuildingBlock: QEWDON_clean_linker_0, # of connection points: 3
#     Node 6, Type 0, BuildingBlock: QEWDON_clean_linker_0, # of connection points: 3
#     Node 7, Type 0, BuildingBlock: QEWDON_clean_linker_0, # of connection points: 3
#     Node 8, Type 1, BuildingBlock: BETFAJ_clean_sbu_0, # of connection points: 6
#     Node 9, Type 1, BuildingBlock: BETFAJ_clean_sbu_0, # of connection points: 6
#     Node 10, Type 1, BuildingBlock: BETFAJ_clean_sbu_0, # of connection points: 6
#     Node 11, Type 1, BuildingBlock: BETFAJ_clean_sbu_0, # of connection points: 6
#     Edge 12, Type (0, 1), BuildingBlock: UVAHIK_clean_linker_0, # of connection points: 2
#     Edge 13, Type (0, 1), BuildingBlock: UVAHIK_clean_linker_0, # of connection points: 2
#     Edge 14, Type (0, 1), BuildingBlock: UVAHIK_clean_linker_0, # of connection points: 2
#     Edge 15, Type (0, 1), BuildingBlock: UVAHIK_clean_linker_0, # of connection points: 2
#     Edge 16, Type (0, 1), BuildingBlock: UVAHIK_clean_linker_0, # of connection points: 2
#     Edge 17, Type (0, 1), BuildingBlock: UVAHIK_clean_linker_0, # of connection points: 2
#     Edge 18, Type (0, 1), BuildingBlock: UVAHIK_clean_linker_0, # of connection points: 2
#     Edge 19, Type (0, 1), BuildingBlock: UVAHIK_clean_linker_0, # of connection points: 2
#     Edge 20, Type (0, 1), BuildingBlock: UVAHIK_clean_linker_0, # of connection points: 2
#     Edge 21, Type (0, 1), BuildingBlock: UVAHIK_clean_linker_0, # of connection points: 2
#     Edge 22, Type (0, 1), BuildingBlock: UVAHIK_clean_linker_0, # of connection points: 2
#     Edge 23, Type (0, 1), BuildingBlock: UVAHIK_clean_linker_0, # of connection points: 2
#     Edge 24, Type (0, 1), BuildingBlock: UVAHIK_clean_linker_0, # of connection points: 2
#     Edge 25, Type (0, 1), BuildingBlock: UVAHIK_clean_linker_0, # of connection points: 2
#     Edge 26, Type (0, 1), BuildingBlock: UVAHIK_clean_linker_0, # of connection points: 2
#     Edge 27, Type (0, 1), BuildingBlock: UVAHIK_clean_linker_0, # of connection points: 2
#     Edge 28, Type (0, 1), BuildingBlock: UVAHIK_clean_linker_0, # of connection points: 2
#     Edge 29, Type (0, 1), BuildingBlock: UVAHIK_clean_linker_0, # of connection points: 2
#     Edge 30, Type (0, 1), BuildingBlock: UVAHIK_clean_linker_0, # of connection points: 2
#     Edge 31, Type (0, 1), BuildingBlock: UVAHIK_clean_linker_0, # of connection points: 2
#     Edge 32, Type (0, 1), BuildingBlock: UVAHIK_clean_linker_0, # of connection points: 2
#     Edge 33, Type (0, 1), BuildingBlock: UVAHIK_clean_linker_0, # of connection points: 2
#     Edge 34, Type (0, 1), BuildingBlock: UVAHIK_clean_linker_0, # of connection points: 2
#     Edge 35, Type (0, 1), BuildingBlock: UVAHIK_clean_linker_0, # of connection points: 2
# Relax obj value: 0.141
# Max RMSD: 0.161
# Mean RMSD: 0.121
data_MOF--net-zzz--node1-BETFAJ_clean_sbu_0--node2-QEWDON_clean_linker_0--edge1-UVAHIK_clean_linker_0
_symmetry_space_group_name_H-M    P1
_symmetry_Int_Tables_number       1
_symmetry_cell_setting            triclinic
loop_
_symmetry_equiv_pos_as_xyz
'x, y, z'
_cell_length_a     72.381811
_cell_length_b     72.434059
_cell_length_c     16.160984
_cell_angle_alpha  90.016723
_cell_angle_beta   90.164256
_cell_angle_gamma 90.028413
loop_
_atom_site_label
_atom_site_type_symbol
_atom_site_fract_x
_atom_site_fract_y
_atom_site_fract_z
_atom_type_partial_charge
H0 H 0.75601 0.50982 0.13917 0.0
C1 C 0.76612 0.50828 0.18809 0.0
C2 C 0.78302 0.50005 0.16842 0.0
C3 C 0.76249 0.51482 0.26872 0.0
H4 H 0.8103 0.49346 0.21219 0.0
C5 C 0.79687 0.49893 0.22888 0.0
C6 C 0.7942 0.50594 0.30867 0.0
C7 C 0.77689 0.51369 0.32879 0.0
C8 C 0.74399 0.52336 0.28778 0.0
H9 H 0.77478 0.51859 0.39127 0.0
C10 C 0.72797 0.51882 0.24093 0.0
C11 C 0.71093 0.52774 0.25475 0.0
C12 C 0.74222 0.53672 0.35066 0.0
H13 H 0.754 0.54118 0.38676 0.0
C14 C 0.72521 0.54507 0.36663 0.0
H15 H 0.72849 0.50825 0.1937 0.0
C16 C 0.7097 0.5407 0.31904 0.0
H17 H 0.69686 0.54787 0.33103 0.0
H18 H 0.72414 0.55534 0.41506 0.0
H19 H 0.0182 0.75273 0.14394 0.0
C20 C 0.01905 0.76256 0.19418 0.0
C21 C 0.02761 0.7795 0.17881 0.0
C22 C 1.01115 0.75875 0.27218 0.0
H23 H 0.034 0.80647 0.22575 0.0
C24 C 0.02793 0.79313 0.23987 0.0
C25 C 0.0196 0.79024 0.31669 0.0
C26 C 0.01141 0.77295 0.33319 0.0
C27 C 1.00218 0.74029 0.28786 0.0
H28 H 1.0055 0.77072 0.39375 0.0
C29 C 1.00733 0.72432 0.24239 0.0
C30 C 0.99833 0.70726 0.25445 0.0
C31 C 0.98795 0.73851 0.3467 0.0
H32 H 0.98295 0.75027 0.3812 0.0
C33 C 0.97945 0.72149 0.36069 0.0
H34 H 0.01844 0.72489 0.19787 0.0
C35 C 0.98455 0.70599 0.31504 0.0
H36 H 0.97732 0.6931 0.32542 0.0
H37 H 0.96854 0.72041 0.40611 0.0
H38 H 0.77582 0.01854 0.14854 0.0
C39 C 0.76548 0.01665 0.19596 0.0
C40 C 0.74849 0.02565 0.18609 0.0
C41 C 0.7688 1.00498 0.26466 0.0
H42 H 0.72078 0.02847 0.23229 0.0
C43 C 0.73426 0.02229 0.24244 0.0
C44 C 0.73669 1.01029 0.3091 0.0
C45 C 0.75414 1.00219 0.32208 0.0
C46 C 0.787 0.99496 0.27286 0.0
H47 H 0.75591 0.9934 0.37555 0.0
C48 C 0.80337 1.00161 0.23455 0.0
C49 C 0.82004 0.99149 0.23784 0.0
C50 C 0.78803 0.97806 0.31597 0.0
H51 H 0.77597 0.97186 0.34376 0.0
C52 C 0.80463 0.96838 0.32188 0.0
H53 H 0.80338 0.01468 0.20224 0.0
C54 C 0.82048 0.97495 0.28307 0.0
H55 H 0.83296 0.96673 0.28621 0.0
H56 H 0.8051 0.95541 0.35509 0.0
H57 H 0.50563 0.77327 0.14584 0.0
C58 C 0.50592 0.76355 0.19675 0.0
C59 C 0.49518 0.74755 0.19079 0.0
C60 C 0.51757 0.7665 0.26567 0.0
H61 H 0.48861 0.72132 0.24469 0.0
C62 C 0.49624 0.7341 0.25261 0.0
C63 C 0.50833 0.73605 0.31978 0.0
C64 C 0.51879 0.75242 0.32683 0.0
C65 C 0.5292 0.78367 0.27011 0.0
H66 H 0.52781 0.75405 0.37984 0.0
C67 C 0.52324 0.8005 0.23378 0.0
C68 C 0.53468 0.81632 0.2337 0.0
C69 C 0.54677 0.7832 0.30765 0.0
H70 H 0.55222 0.77059 0.33401 0.0
C71 C 0.55795 0.79889 0.30943 0.0
H72 H 0.50965 0.80142 0.20604 0.0
C73 C 0.55204 0.81527 0.27264 0.0
H74 H 0.56133 0.82699 0.27284 0.0
H75 H 0.57146 0.79824 0.33811 0.0
H76 H 0.28051 0.51546 0.21223 0.0
C77 C 0.27013 0.51206 0.16638 0.0
C78 C 0.25197 0.50918 0.193 0.0
C79 C 0.27475 0.51124 0.08175 0.0
H80 H 0.22388 0.50423 0.15456 0.0
C81 C 0.2381 0.50566 0.13442 0.0
C82 C 0.24198 0.5054 0.04967 0.0
C83 C 0.26035 0.50808 0.02333 0.0
C84 C 0.29436 0.51483 0.0558 0.0
H85 H 0.26329 0.50759 0.95775 0.0
C86 C 0.30942 0.51064 0.10903 0.0
C87 C 0.32769 0.51581 0.08896 0.0
C88 C 0.29816 0.52356 0.97996 0.0
H89 H 0.28717 0.52746 0.93799 0.0
C90 C 0.31626 0.52809 0.95832 0.0
H91 H 0.30701 0.50334 0.1664 0.0
C92 C 0.33087 0.52444 0.01238 0.0
H93 H 0.3446 0.52889 0.99497 0.0
H94 H 0.31892 0.53497 0.90009 0.0
H95 H 1.0082 0.27707 0.21621 0.0
C96 C 1.01119 0.26641 0.17129 0.0
C97 C 0.01161 0.24809 0.19841 0.0
C98 C 0.01393 0.27081 0.08708 0.0
H99 H 0.01338 0.21959 0.16165 0.0
C100 C 0.01399 0.23384 0.14102 0.0
C101 C 0.01593 0.23756 0.05673 0.0
C102 C 0.01642 0.25607 0.02986 0.0
C103 C 0.01275 0.29062 0.0596 0.0
H104 H 0.01827 0.25879 0.96458 0.0
C105 C 0.01719 0.30532 0.11426 0.0
C106 C 0.01416 0.32393 0.09186 0.0
C107 C 1.00599 0.29509 0.98034 0.0
H108 H 1.00191 0.28446 0.93694 0.0
C109 C 1.00364 0.31346 0.95664 0.0
H110 H 0.02301 0.3024 0.17459 0.0
C111 C 1.0075 0.32775 0.01188 0.0
H112 H 1.00472 0.34179 0.99253 0.0
H113 H 0.99826 0.31663 0.89571 0.0
H114 H 0.25152 0.99984 0.21497 0.0
C115 C 0.26203 1.0043 0.17179 0.0
C116 C 0.28031 1.00552 0.19956 0.0
C117 C 0.25742 1.00833 0.08886 0.0
H118 H 0.30854 1.01073 0.16502 0.0
C119 C 0.29428 1.01042 0.14402 0.0
C120 C 0.29038 0.01373 0.06061 0.0
C121 C 0.2719 0.0128 0.03298 0.0
C122 C 0.23764 1.0069 0.06117 0.0
H123 H 0.26894 0.01572 0.96862 0.0
C124 C 0.22288 1.01077 0.11612 0.0
C125 C 0.20426 1.00793 0.09246 0.0
C126 C 0.23333 1.00074 0.98088 0.0
H127 H 0.24409 0.99721 0.93733 0.0
C128 C 0.21499 0.99837 0.95633 0.0
H129 H 0.22582 0.01608 0.17737 0.0
C130 C 0.2006 1.00177 0.0115 0.0
H131 H 0.18659 0.99907 0.9911 0.0
H132 H 0.21191 0.99343 0.89457 0.0
H133 H 0.50207 0.25091 0.20839 0.0
C134 C 0.50163 0.26038 0.15657 0.0
C135 C 0.4909 0.27636 0.1636 0.0
C136 C 0.51245 0.25716 0.08563 0.0
H137 H 0.48354 0.30229 0.10811 0.0
C138 C 0.49106 0.28946 0.09995 0.0
C139 C 0.50237 0.28724 0.03055 0.0
C140 C 0.51287 0.27093 0.02297 0.0
C141 C 0.52426 0.24015 0.08105 0.0
H142 H 0.52138 0.26914 0.96858 0.0
C143 C 0.51881 0.22344 0.11982 0.0
C144 C 0.53055 0.20785 0.12084 0.0
C145 C 0.54156 0.24073 0.04159 0.0
H146 H 0.54659 0.25328 0.01318 0.0
C147 C 0.55302 0.22526 0.04069 0.0
H148 H 0.5054 0.22246 0.14892 0.0
C149 C 0.54766 0.20902 0.08021 0.0
H150 H 0.5572 0.1975 0.08069 0.0
H151 H 0.56635 0.226 0.01066 0.0
Sm152 Sm 0.0221 1.007 0.78138 0.0
Sm153 Sm 1.00753 0.0202 0.59431 0.0
C154 C 0.02367 0.9892 0.92227 0.0
C155 C 0.03071 0.97022 0.93515 0.0
C156 C 0.02034 0.95503 0.90668 0.0
C157 C 0.02842 0.93767 0.89991 0.0
C158 C 0.04691 0.93499 0.92267 0.0
C159 C 0.05692 0.9497 0.95728 0.0
C160 C 0.0489 0.96725 0.96309 0.0
C161 C 0.05075 1.00972 0.66708 0.0
C162 C 0.01423 0.97613 0.62933 0.0
C163 C 1.00509 0.03799 0.45382 0.0
C164 C 0.99552 0.05568 0.44307 0.0
C165 C 1.00211 0.06884 0.38697 0.0
C166 C 0.99589 0.0871 0.39151 0.0
C167 C 0.98321 0.09242 0.453 0.0
C168 C 0.97595 0.07899 0.5061 0.0
C169 C 0.98204 0.0608 0.50113 0.0
C170 C 0.97877 0.01671 0.70766 0.0
C171 C 0.01591 0.05117 0.74604 0.0
O172 O 1.00842 0.9905 0.87857 0.0
O173 O 0.03604 1.00168 0.90187 0.0
O174 O 0.03375 0.01229 0.65638 0.0
O175 O 0.05332 1.00567 0.74461 0.0
O176 O 0.01623 0.97987 0.70946 0.0
O177 O 0.01242 0.98913 0.5718 0.0
O178 O 0.01972 0.0391 0.50164 0.0
O179 O 0.99451 0.02374 0.47077 0.0
O180 O 0.99584 0.01483 0.71898 0.0
O181 O 0.97623 0.02041 0.62985 0.0
O182 O 0.01319 0.0474 0.66635 0.0
O183 O 0.01822 0.03819 0.80332 0.0
H184 H 1.00624 0.95668 0.88531 0.0
H185 H 0.0203 0.92636 0.87505 0.0
H186 H 0.07115 0.94781 0.97644 0.0
H187 H 0.0572 0.97864 0.98563 0.0
H188 H 0.01279 0.06524 0.34299 0.0
H189 H 1.00184 0.09727 0.35027 0.0
H190 H 0.96608 0.08269 0.55355 0.0
H191 H 0.97698 0.05098 0.54611 0.0
Sm192 Sm 0.52013 0.02265 0.76822 0.0
Sm193 Sm 0.50752 1.00526 0.60287 0.0
C194 C 0.53929 0.03337 0.89832 0.0
C195 C 0.55741 0.04247 0.89634 0.0
C196 C 0.56938 0.04169 0.96438 0.0
C197 C 0.58752 0.04819 0.9571 0.0
C198 C 0.59393 0.05535 0.88136 0.0
C199 C 0.58165 0.05664 0.8143 0.0
C200 C 0.56355 0.0503 0.82179 0.0
C201 C 0.51163 0.04747 0.64459 0.0
C202 C 0.55174 1.00916 0.62864 0.0
C203 C 0.48942 1.00208 0.463 0.0
C204 C 0.47001 0.99589 0.45394 0.0
C205 C 0.45554 1.00752 0.47961 0.0
C206 C 0.4378 1.00056 0.49075 0.0
C207 C 0.43399 0.98192 0.47503 0.0
C208 C 0.44798 0.97054 0.44328 0.0
C209 C 0.46592 0.97745 0.43325 0.0
C210 C 0.50855 0.97732 0.72017 0.0
C211 C 0.47694 0.01467 0.74947 0.0
O212 O 0.53933 0.0163 0.87187 0.0
O213 O 0.52561 0.04304 0.86796 0.0
O214 O 0.52057 0.03264 0.63535 0.0
O215 O 0.50695 0.04964 0.72137 0.0
O216 O 0.54787 0.0155 0.70356 0.0
O217 O 0.53861 1.00483 0.57492 0.0
O218 O 0.49172 0.01799 0.50043 0.0
O219 O 0.50128 0.98952 0.4878 0.0
O220 O 0.51244 0.99408 0.73185 0.0
O221 O 0.50431 0.97477 0.64308 0.0
O222 O 0.48056 0.01419 0.66927 0.0
O223 O 0.49043 0.01504 0.8048 0.0
H224 H 0.56492 0.03549 0.02197 0.0
H225 H 0.59678 0.04682 0.00953 0.0
H226 H 0.58617 0.06218 0.75546 0.0
H227 H 0.55452 0.0509 0.76825 0.0
H228 H 0.45805 0.02184 0.49538 0.0
H229 H 0.42708 1.00971 0.51313 0.0
H230 H 0.44523 0.95616 0.42955 0.0
H231 H 0.47674 0.96817 0.41314 0.0
Sm232 Sm 0.51149 0.51828 0.77333 0.0
Sm233 Sm 0.52527 0.50547 0.59481 0.0
C234 C 0.51053 0.53513 0.91677 0.0
C235 C 0.50318 0.55379 0.93394 0.0
C236 C 0.5114 0.56935 0.89708 0.0
C237 C 0.50248 0.58638 0.89784 0.0
C238 C 0.4853 0.58834 0.9366 0.0
C239 C 0.47759 0.57318 0.97834 0.0
C240 C 0.48642 0.55599 0.97659 0.0
C241 C 0.48176 0.51604 0.66409 0.0
C242 C 0.51976 0.54934 0.62372 0.0
C243 C 0.52728 0.48602 0.45847 0.0
C244 C 0.51711 0.4687 0.44395 0.0
C245 C 0.49917 0.4667 0.4759 0.0
C246 C 0.49083 0.44939 0.47986 0.0
C247 C 0.50031 0.43364 0.45268 0.0
C248 C 0.51796 0.43575 0.41726 0.0
C249 C 0.5263 0.45315 0.41312 0.0
C250 C 0.55259 0.51435 0.70672 0.0
C251 C 0.513 0.47441 0.73857 0.0
O252 O 0.52549 0.5345 0.87107 0.0
O253 O 0.49823 0.52263 0.89574 0.0
O254 O 0.49853 0.51291 0.65063 0.0
O255 O 0.47997 0.52038 0.74156 0.0
O256 O 0.51826 0.5455 0.70372 0.0
O257 O 0.521 0.53627 0.56667 0.0
O258 O 0.5172 0.50102 0.46362 0.0
O259 O 0.53987 0.48495 0.51663 0.0
O260 O 0.53778 0.50584 0.72289 0.0
O261 O 0.55389 0.51751 0.62755 0.0
O262 O 0.51473 0.47878 0.65928 0.0
O263 O 0.51323 0.48709 0.79757 0.0
H264 H 0.52439 0.56829 0.86431 0.0
H265 H 0.50892 0.598 0.86702 0.0
H266 H 0.46442 0.57447 0.00945 0.0
H267 H 0.47977 0.54425 0.00549 0.0
H268 H 0.49194 0.47833 0.50251 0.0
H269 H 0.47736 0.44825 0.50842 0.0
H270 H 0.52548 0.42389 0.39437 0.0
H271 H 0.54025 0.45433 0.3895 0.0
Sm272 Sm 0.01198 0.50704 0.77563 0.0
Sm273 Sm 0.02397 0.52212 0.60098 0.0
C274 C 0.99478 0.50606 0.91776 0.0
C275 C 0.9759 0.49931 0.93164 0.0
C276 C 0.96309 0.51103 0.96966 0.0
C277 C 0.94419 0.50781 0.96052 0.0
C278 C 0.93774 0.4927 0.9137 0.0
C279 C 0.95065 0.48021 0.88105 0.0
C280 C 0.96955 0.48354 0.88949 0.0
C281 C 0.01412 0.47777 0.66501 0.0
C282 C 0.98062 0.51413 0.62614 0.0
C283 C 0.04299 0.53016 0.4673 0.0
C284 C 0.06323 0.53194 0.46086 0.0
C285 C 0.07477 0.51779 0.49054 0.0
C286 C 0.09352 0.52107 0.50381 0.0
C287 C 0.10113 0.53851 0.48771 0.0
C288 C 0.08988 0.55232 0.45311 0.0
C289 C 0.07104 0.54906 0.43998 0.0
C290 C 0.01442 0.54823 0.71703 0.0
C291 C 0.05588 0.51055 0.74364 0.0
O292 O 0.99541 0.52095 0.87178 0.0
O293 O 1.00728 0.49369 0.89761 0.0
O294 O 0.01717 0.49457 0.6512 0.0
O295 O 1.01007 0.47576 0.74266 0.0
O296 O 0.9845 0.51349 0.70639 0.0
O297 O 0.99379 0.51521 0.56958 0.0
O298 O 0.03644 0.51358 0.48134 0.0
O299 O 0.03517 0.54278 0.51313 0.0
O300 O 0.02397 0.53393 0.73055 0.0
O301 O 1.00976 0.54922 0.63947 0.0
O302 O 0.05166 0.51386 0.66505 0.0
O303 O 0.04311 0.50902 0.80163 0.0
H304 H 0.96767 0.52347 0.00088 0.0
H305 H 0.93468 0.51786 0.98579 0.0
H306 H 0.94617 0.46824 0.84615 0.0
H307 H 0.97912 0.4744 0.85839 0.0
H308 H 0.06921 0.50444 0.50746 0.0
H309 H 0.10203 0.51002 0.52811 0.0
H310 H 0.09546 0.56586 0.4395 0.0
H311 H 0.0624 0.56023 0.41775 0.0
C312 C 0.17133 0.01704 0.1258 0.0
C313 C 0.18868 1.01049 0.1525 0.0
C314 C 0.15629 0.01788 0.18016 0.0
C315 C 0.13985 0.99835 0.38062 0.0
H316 H 0.10244 0.03648 0.36357 0.0
C317 C 0.08413 1.00808 0.63064 0.0
C318 C 0.0658 1.01103 0.60501 0.0
C319 C 0.09865 1.00851 0.57383 0.0
C320 C 0.11268 0.02563 0.36857 0.0
H321 H 0.20369 1.00015 0.25924 0.0
H322 H 0.17781 1.00233 0.35443 0.0
H323 H 0.12897 0.03695 0.27032 0.0
H324 H 0.04833 0.01667 0.49916 0.0
H325 H 0.07386 0.01777 0.39922 0.0
H326 H 0.12372 0.98723 0.4797 0.0
C327 C 0.17565 1.00638 0.29066 0.0
C328 C 0.12793 0.02587 0.31499 0.0
C329 C 0.19066 1.00541 0.23613 0.0
C330 C 0.06232 0.01461 0.52094 0.0
C331 C 0.07695 0.01521 0.46381 0.0
C332 C 0.12473 0.99821 0.43447 0.0
C333 C 0.15813 0.01233 0.26326 0.0
C334 C 0.14181 0.01226 0.32041 0.0
C335 C 0.09529 0.01197 0.48956 0.0
C336 C 0.11098 0.01189 0.42953 0.0
H337 H 0.16926 0.02139 0.06236 0.0
H338 H 0.14308 0.02243 0.15616 0.0
H339 H 0.1499 0.98734 0.38573 0.0
H340 H 0.08731 1.00529 0.69498 0.0
H341 H 0.11258 1.00621 0.59616 0.0
C342 C 0.53028 0.17313 0.13543 0.0
C343 C 0.52552 0.19063 0.16687 0.0
C344 C 0.52718 0.15709 0.18174 0.0
C345 C 0.50095 0.13818 0.3601 0.0
H346 H 0.54056 0.1022 0.36756 0.0
C347 C 0.50332 0.07981 0.60466 0.0
C348 C 0.51093 0.06265 0.58291 0.0
C349 C 0.50384 0.09471 0.54955 0.0
C350 C 0.5292 0.1119 0.36529 0.0
H351 H 0.51331 0.20473 0.27172 0.0
H352 H 0.50773 0.17675 0.35205 0.0
H353 H 0.54354 0.12939 0.28006 0.0
H354 H 0.52456 0.04747 0.48509 0.0
H355 H 0.52518 0.07338 0.38791 0.0
H356 H 0.48661 0.12072 0.44543 0.0
C357 C 0.51379 0.17545 0.29114 0.0
C358 C 0.53093 0.12757 0.31505 0.0
C359 C 0.51696 0.19153 0.24489 0.0
C360 C 0.51864 0.06056 0.50377 0.0
C361 C 0.51911 0.07548 0.44836 0.0
C362 C 0.49917 0.12246 0.41008 0.0
C363 C 0.51914 0.15803 0.26075 0.0
C364 C 0.5169 0.141 0.31218 0.0
C365 C 0.51192 0.09285 0.47083 0.0
C366 C 0.51334 0.10915 0.41401 0.0
H367 H 0.53656 0.17181 0.07498 0.0
H368 H 0.53114 0.14391 0.15557 0.0
H369 H 0.48975 0.14808 0.35857 0.0
H370 H 0.49731 0.0819 0.66526 0.0
H371 H 0.49838 0.10786 0.56987 0.0
C372 C 0.36121 0.5089 0.12163 0.0
C373 C 0.34328 0.51324 0.14919 0.0
C374 C 0.37611 0.50811 0.17715 0.0
C375 C 0.3904 0.52465 0.38606 0.0
H376 H 0.43069 0.48998 0.35787 0.0
C377 C 0.44799 0.51648 0.6317 0.0
C378 C 0.46628 0.51472 0.60391 0.0
C379 C 0.43316 0.51568 0.57601 0.0
C380 C 0.41964 0.49987 0.36616 0.0
H381 H 0.32712 0.51974 0.25823 0.0
H382 H 0.35286 0.51774 0.355 0.0
H383 H 0.40437 0.48911 0.26302 0.0
H384 H 0.48335 0.51111 0.49558 0.0
H385 H 0.45745 0.50943 0.39785 0.0
H386 H 0.40559 0.53532 0.48941 0.0
C387 C 0.35552 0.51533 0.29 0.0
C388 C 0.40451 0.49939 0.31166 0.0
C389 C 0.34063 0.51619 0.23443 0.0
C390 C 0.46942 0.51213 0.51898 0.0
C391 C 0.45455 0.5112 0.46307 0.0
C392 C 0.40545 0.52505 0.44068 0.0
C393 C 0.37355 0.51156 0.26208 0.0
C394 C 0.38964 0.51178 0.32081 0.0
C395 C 0.43621 0.51309 0.49085 0.0
C396 C 0.42028 0.51267 0.43164 0.0
H397 H 0.36382 0.50627 0.05675 0.0
H398 H 0.38975 0.50529 0.15287 0.0
H399 H 0.37949 0.5347 0.3943 0.0
H400 H 0.4451 0.51849 0.69681 0.0
H401 H 0.41926 0.51694 0.59993 0.0
C402 C 0.02338 0.3567 0.12731 0.0
C403 C 0.01678 0.33932 0.15282 0.0
C404 C 0.02414 0.3716 0.1826 0.0
C405 C 1.00367 0.38783 0.38059 0.0
H406 H 0.0425 0.42467 0.37163 0.0
C407 C 1.01103 0.44433 0.63033 0.0
C408 C 0.01527 0.46237 0.60466 0.0
C409 C 0.01172 0.42957 0.57462 0.0
C410 C 0.03145 0.41461 0.37437 0.0
H411 H 1.00624 0.32406 0.2581 0.0
H412 H 1.00814 0.34976 0.35482 0.0
H413 H 0.04339 0.39821 0.27791 0.0
H414 H 0.02364 0.47906 0.50029 0.0
H415 H 0.02493 0.45321 0.40232 0.0
H416 H 0.99179 0.40413 0.47725 0.0
C417 C 0.01237 0.35202 0.29142 0.0
C418 C 0.03195 0.3994 0.32057 0.0
C419 C 0.01156 0.33713 0.23607 0.0
C420 C 0.02037 0.46531 0.5219 0.0
C421 C 0.02117 0.45048 0.46596 0.0
C422 C 1.00322 0.40296 0.43449 0.0
C423 C 0.01838 0.36956 0.26522 0.0
C424 C 0.01808 0.38575 0.32303 0.0
C425 C 0.01673 0.43241 0.49156 0.0
C426 C 0.01712 0.41654 0.43239 0.0
H427 H 0.02778 0.3589 0.06409 0.0
H428 H 0.02874 0.38487 0.15971 0.0
H429 H 0.9925 0.3779 0.38331 0.0
H430 H 1.00709 0.44158 0.69377 0.0
H431 H 1.00849 0.41586 0.59698 0.0
C432 C 0.85453 0.99577 0.22456 0.0
C433 C 0.83671 0.99727 0.18997 0.0
C434 C 0.8703 0.99896 0.17642 0.0
C435 C 0.8856 0.99711 0.95964 0.0
H436 H 0.92881 0.02368 0.03739 0.0
C437 C 0.94521 0.01451 0.73876 0.0
C438 C 0.96351 0.0142 0.76791 0.0
C439 C 0.93035 0.01263 0.79302 0.0
C440 C 0.91699 0.01597 0.01505 0.0
H441 H 0.8216 1.00387 0.07791 0.0
H442 H 0.84907 1.0095 0.99402 0.0
H443 H 0.90169 0.02094 0.12661 0.0
H444 H 0.98052 0.01237 0.87779 0.0
H445 H 0.9545 1.00834 0.97329 0.0
H446 H 0.9008 0.99174 0.84913 0.0
C447 C 0.85084 1.00572 0.0584 0.0
C448 C 0.90138 0.01449 0.06616 0.0
C449 C 0.83507 1.00271 0.10675 0.0
C450 C 0.96661 0.01217 0.85325 0.0
C451 C 0.95165 1.01015 0.908 0.0
C452 C 0.90119 0.99844 0.90902 0.0
C453 C 0.86867 1.00356 0.09217 0.0
C454 C 0.88541 1.0052 0.03868 0.0
C455 C 0.93327 1.01028 0.87846 0.0
C456 C 0.91707 1.00808 0.93535 0.0
H457 H 0.85629 0.99174 0.28863 0.0
H458 H 0.88378 0.99712 0.20443 0.0
H459 H 0.87373 0.98948 0.93716 0.0
H460 H 0.9423 0.01632 0.67347 0.0
H461 H 0.9165 0.01332 0.76769 0.0
C462 C 0.52057 0.83307 0.11192 0.0
C463 C 0.52909 0.83369 0.19022 0.0
C464 C 0.51693 0.84935 0.06784 0.0
C465 C 0.53199 0.89831 0.05274 0.0
H466 H 0.48837 0.90317 0.91492 0.0
C467 C 0.51612 0.96504 0.8628 0.0
C468 C 0.50968 0.96215 0.78172 0.0
C469 C 0.51752 0.95018 0.91852 0.0
C470 C 0.5007 0.90201 0.95263 0.0
H471 H 0.53962 0.85216 0.28495 0.0
H472 H 0.53319 0.88046 0.20853 0.0
H473 H 0.49231 0.87575 0.0005 0.0
H474 H 0.49951 0.9415 0.69582 0.0
H475 H 0.502 0.91582 0.79178 0.0
H476 H 0.54047 0.92451 0.00398 0.0
C477 C 0.52969 0.86736 0.18024 0.0
C478 C 0.50297 0.88624 0.00175 0.0
C479 C 0.53334 0.85109 0.22424 0.0
C480 C 0.50449 0.94422 0.75792 0.0
C481 C 0.5058 0.92947 0.8133 0.0
C482 C 0.52971 0.91412 0.00357 0.0
C483 C 0.52167 0.86673 0.10088 0.0
C484 C 0.51875 0.88403 0.0518 0.0
C485 C 0.51236 0.93217 0.89437 0.0
C486 C 0.51415 0.91607 0.95192 0.0
H487 H 0.51733 0.81994 0.08319 0.0
H488 H 0.51094 0.84825 0.00656 0.0
H489 H 0.54444 0.89705 0.08958 0.0
H490 H 0.5202 0.97872 0.8829 0.0
H491 H 0.5225 0.95282 0.98064 0.0
C492 C 0.69673 0.52467 0.11299 0.0
C493 C 0.69469 0.52439 0.19951 0.0
C494 C 0.68129 0.52324 0.06082 0.0
C495 C 0.63289 0.50736 0.05055 0.0
H496 H 0.62833 0.54295 0.87265 0.0
C497 C 0.56637 0.51182 0.84951 0.0
C498 C 0.5683 0.51636 0.76545 0.0
C499 C 0.5815 0.51303 0.90376 0.0
C500 C 0.62943 0.53267 0.92102 0.0
H501 H 0.67482 0.52175 0.29886 0.0
H502 H 0.64789 0.51891 0.20772 0.0
H503 H 0.65538 0.54364 0.96248 0.0
H504 H 0.58766 0.52564 0.67237 0.0
H505 H 0.61408 0.52713 0.76542 0.0
H506 H 0.60724 0.49603 0.0082 0.0
C507 C 0.66144 0.52037 0.1803 0.0
C508 C 0.64498 0.53314 0.97283 0.0
C509 C 0.67686 0.52209 0.23251 0.0
C510 C 0.58566 0.52217 0.73693 0.0
C511 C 0.60084 0.52315 0.79076 0.0
C512 C 0.61744 0.50671 0.99799 0.0
C513 C 0.66343 0.52122 0.09381 0.0
C514 C 0.64692 0.5205 0.03827 0.0
C515 C 0.59905 0.51856 0.87513 0.0
C516 C 0.61544 0.51937 0.93229 0.0
H517 H 0.71024 0.52659 0.08557 0.0
H518 H 0.68332 0.52377 0.99449 0.0
H519 H 0.63403 0.49732 0.09997 0.0
H520 H 0.55317 0.50726 0.87338 0.0
H521 H 0.57937 0.50968 0.9683 0.0
C522 C 1.00249 0.69274 0.11443 0.0
C523 C 1.00245 0.69098 0.20107 0.0
C524 C 1.00436 0.67715 0.06376 0.0
C525 C 0.02109 0.62924 0.05679 0.0
H526 H 0.98455 0.62294 0.88335 0.0
C527 C 0.01777 0.5622 0.85909 0.0
C528 C 0.01243 0.56385 0.77579 0.0
C529 C 0.01644 0.57735 0.91302 0.0
C530 C 0.99511 0.62454 0.93036 0.0
H531 H 1.00506 0.67158 0.30241 0.0
H532 H 1.00878 0.64438 0.21378 0.0
H533 H 0.98362 0.65027 0.97078 0.0
H534 H 1.00165 0.58272 0.68358 0.0
H535 H 1.00003 0.60914 0.77563 0.0
H536 H 0.03299 0.60385 0.0152 0.0
C537 C 1.00719 0.65781 0.18517 0.0
C538 C 0.99449 0.64024 0.98082 0.0
C539 C 1.00498 0.67336 0.23586 0.0
C540 C 1.00574 0.58093 0.74762 0.0
C541 C 1.00468 0.59611 0.80094 0.0
C542 C 0.02192 0.61365 0.00537 0.0
C543 C 1.00655 0.65948 0.09853 0.0
C544 C 1.00747 0.6428 0.04459 0.0
C545 C 1.00999 0.59461 0.88464 0.0
C546 C 1.00895 0.61105 0.94113 0.0
H547 H 1.00041 0.7061 0.08578 0.0
H548 H 1.00396 0.67889 0.99721 0.0
H549 H 0.03135 0.63088 0.10517 0.0
H550 H 0.02301 0.54921 0.88262 0.0
H551 H 0.02039 0.57544 0.97709 0.0
C552 C 0.01923 0.23081 0.32656 0.0
C553 C 1.00754 0.24314 0.285 0.0
C554 C 0.01279 0.22093 0.39453 0.0
C555 C 0.99571 0.19719 0.52455 0.0
H556 H 0.95202 0.17632 0.42144 0.0
C557 C 0.98003 0.11977 0.54652 0.0
C558 C 0.97887 0.11214 0.46658 0.0
C559 C 0.97807 0.13878 0.55839 0.0
C560 C 0.96402 0.18208 0.4522 0.0
H561 H 0.98101 0.2569 0.28798 0.0
H562 H 0.96967 0.23967 0.40769 0.0
H563 H 0.96055 0.20796 0.39196 0.0
H564 H 0.97371 0.1181 0.33737 0.0
H565 H 0.97035 0.15124 0.35758 0.0
H566 H 1.00018 0.1705 0.57745 0.0
C567 C 0.98373 0.23741 0.3872 0.0
C568 C 0.96884 0.20037 0.43623 0.0
C569 C 0.99023 0.24735 0.31902 0.0
C570 C 0.97478 0.12367 0.39944 0.0
C571 C 0.97262 0.14261 0.41137 0.0
C572 C 0.99092 0.17882 0.54019 0.0
C573 C 0.99444 0.22311 0.42159 0.0
C574 C 0.98556 0.20764 0.46687 0.0
C575 C 0.97468 0.15043 0.49064 0.0
C576 C 0.97581 0.17077 0.49898 0.0
H577 H 0.03271 0.2275 0.30156 0.0
H578 H 0.02151 0.21008 0.41904 0.0
H579 H 1.00841 0.20255 0.55081 0.0
H580 H 0.98329 0.11116 0.59936 0.0
H581 H 0.97978 0.14443 0.62002 0.0
C582 C 0.28193 0.9823 0.3136 0.0
C583 C 0.28559 1.00019 0.28459 0.0
C584 C 0.29171 0.97531 0.38157 0.0
C585 C 0.32974 0.98775 0.53124 0.0
H586 H 0.35229 0.94382 0.43933 0.0
C587 C 0.40676 0.97803 0.56792 0.0
C588 C 0.41527 0.97472 0.49133 0.0
C589 C 0.38801 0.97419 0.57881 0.0
C590 C 0.34614 0.95603 0.46642 0.0
H591 H 0.30021 0.02564 0.3093 0.0
H592 H 0.31741 0.01364 0.42593 0.0
H593 H 0.32125 0.95221 0.398 0.0
H594 H 0.41145 0.96365 0.36826 0.0
H595 H 0.37867 0.95772 0.38514 0.0
H596 H 0.35544 0.99286 0.59143 0.0
C597 C 0.30708 1.0048 0.39784 0.0
C598 C 0.32812 0.96072 0.44378 0.0
C599 C 0.29734 0.01172 0.33026 0.0
C600 C 0.40515 0.96628 0.42786 0.0
C601 C 0.38634 0.96274 0.43815 0.0
C602 C 0.3479 0.98328 0.55254 0.0
C603 C 0.3053 0.98614 0.421 0.0
C604 C 0.32029 0.97745 0.47073 0.0
C605 C 0.37734 0.96736 0.51267 0.0
C606 C 0.35678 0.96814 0.51509 0.0
H607 H 0.27283 0.97317 0.27938 0.0
H608 H 0.28971 0.96101 0.39886 0.0
H609 H 0.32385 1.00036 0.5556 0.0
H610 H 0.41445 0.98428 0.61829 0.0
H611 H 0.38169 0.97749 0.63762 0.0
C612 C 0.49368 0.28547 0.31066 0.0
C613 C 0.48225 0.28155 0.24276 0.0
C614 C 0.48753 0.29725 0.37308 0.0
C615 C 0.45795 0.33751 0.36651 0.0
H616 H 0.48421 0.34832 0.5701 0.0
C617 C 0.47315 0.41206 0.44956 0.0
C618 C 0.49208 0.41505 0.46399 0.0
C619 C 0.46567 0.39433 0.45559 0.0
C620 C 0.47661 0.34547 0.51369 0.0
H621 H 0.45464 0.28413 0.19274 0.0
H622 H 0.44345 0.30393 0.30411 0.0
H623 H 0.48065 0.31629 0.52525 0.0
H624 H 0.51764 0.40205 0.50301 0.0
H625 H 0.50485 0.37106 0.50979 0.0
H626 H 0.45493 0.36653 0.35158 0.0
C627 C 0.45741 0.29863 0.3078 0.0
C628 C 0.47453 0.32712 0.48805 0.0
C629 C 0.46372 0.28716 0.24439 0.0
C630 C 0.50312 0.40011 0.48915 0.0
C631 C 0.49567 0.38239 0.49486 0.0
C632 C 0.45995 0.35574 0.39222 0.0
C633 C 0.46977 0.30516 0.36864 0.0
C634 C 0.46622 0.32303 0.41133 0.0
C635 C 0.47697 0.37919 0.47565 0.0
C636 C 0.47028 0.36 0.46336 0.0
H637 H 0.50806 0.28129 0.31047 0.0
H638 H 0.49749 0.30181 0.41877 0.0
H639 H 0.45156 0.33511 0.30683 0.0
H640 H 0.46423 0.42328 0.43043 0.0
H641 H 0.45117 0.39237 0.44135 0.0
C642 C 0.25228 0.5277 0.32399 0.0
C643 C 0.24678 0.51176 0.28086 0.0
C644 C 0.24345 0.53266 0.39756 0.0
C645 C 0.20428 0.51845 0.53687 0.0
H646 H 0.18668 0.56743 0.48149 0.0
C647 C 0.12856 0.53603 0.58189 0.0
C648 C 0.12081 0.54205 0.5067 0.0
C649 C 0.14762 0.537 0.59514 0.0
C650 C 0.19152 0.55381 0.49883 0.0
H651 H 0.22981 0.48719 0.28637 0.0
H652 H 0.21399 0.49599 0.41192 0.0
H653 H 0.21681 0.55766 0.43444 0.0
H654 H 0.12664 0.55503 0.38904 0.0
H655 H 0.15977 0.55649 0.41079 0.0
H656 H 0.17796 0.51388 0.59243 0.0
C657 C 0.22511 0.50475 0.39053 0.0
C658 C 0.209 0.54824 0.47278 0.0
C659 C 0.234 0.49976 0.31755 0.0
C660 C 0.13224 0.55032 0.44755 0.0
C661 C 0.15126 0.55126 0.46058 0.0
C662 C 0.18665 0.52393 0.56179 0.0
C663 C 0.22887 0.52185 0.42854 0.0
C664 C 0.2149 0.52993 0.48542 0.0
C665 C 0.15927 0.54404 0.5333 0.0
C666 C 0.17956 0.54114 0.53686 0.0
H667 H 0.26223 0.53715 0.29743 0.0
H668 H 0.247 0.5457 0.42629 0.0
H669 H 0.20872 0.50449 0.55039 0.0
H670 H 0.11991 0.53009 0.62944 0.0
H671 H 0.15328 0.53155 0.65225 0.0
C672 C 0.05384 0.78298 0.08129 0.0
C673 C 0.03485 0.78423 0.09671 0.0
C674 C 0.06175 0.79331 0.01744 0.0
C675 C 0.04974 0.83027 0.86128 0.0
H676 H 0.08903 0.85611 0.97619 0.0
C677 C 0.05438 0.9081 0.83225 0.0
C678 C 0.05543 0.91672 0.90997 0.0
C679 C 0.05954 0.88964 0.8231 0.0
C680 C 0.07809 0.84908 0.94289 0.0
H681 H 1.00889 0.79549 0.05438 0.0
H682 H 0.02241 0.8139 0.94542 0.0
H683 H 0.08234 0.82445 0.0118 0.0
H684 H 0.06382 0.91347 0.03756 0.0
H685 H 0.07209 0.88116 0.02342 0.0
H686 H 0.04395 0.85566 0.80012 0.0
C687 C 0.03145 0.80478 0.97978 0.0
C688 C 0.07443 0.83067 0.96224 0.0
C689 C 0.02358 0.79427 0.04266 0.0
C690 C 0.06294 0.90708 0.97706 0.0
C691 C 0.06782 0.88854 0.96838 0.0
C692 C 0.0531 0.84883 0.84345 0.0
C693 C 0.05079 0.80543 0.96995 0.0
C694 C 0.05922 0.82149 0.92635 0.0
C695 C 0.06554 0.87936 0.89198 0.0
C696 C 0.06641 0.85882 0.88879 0.0
H697 H 0.06274 0.77529 0.12286 0.0
H698 H 0.07662 0.79303 0.01023 0.0
H699 H 0.03845 0.8234 0.82969 0.0
H700 H 0.04891 0.91548 0.77927 0.0
H701 H 0.05799 0.88322 0.76296 0.0
C702 C 0.74579 0.02982 0.03292 0.0
C703 C 0.74434 0.03721 0.11291 0.0
C704 C 0.73609 0.03791 0.96722 0.0
C705 C 0.70141 0.07556 0.92102 0.0
H706 H 0.67337 0.03399 0.83674 0.0
C707 C 0.62344 0.05346 0.80128 0.0
C708 C 0.61371 0.06003 0.87052 0.0
C709 C 0.64259 0.05556 0.79639 0.0
C710 C 0.6812 0.04587 0.85759 0.0
H711 H 0.73413 0.06018 0.18504 0.0
H712 H 0.71689 0.07394 0.07267 0.0
H713 H 0.70435 0.02911 0.88781 0.0
H714 H 0.61612 0.07523 0.98545 0.0
H715 H 0.64957 0.07889 0.97723 0.0
H716 H 0.67719 0.09184 0.89817 0.0
C717 C 0.72541 0.06207 0.05885 0.0
C718 C 0.69913 0.04311 0.88675 0.0
C719 C 0.7352 0.05409 0.12396 0.0
C720 C 0.62331 0.06985 0.93193 0.0
C721 C 0.64242 0.07215 0.92657 0.0
C722 C 0.68332 0.07825 0.89302 0.0
C723 C 0.72464 0.05334 0.98106 0.0
C724 C 0.70903 0.05768 0.9239 0.0
C725 C 0.65233 0.0645 0.86016 0.0
C726 C 0.67272 0.0632 0.86551 0.0
H727 H 0.75289 0.01686 0.02272 0.0
H728 H 0.73629 0.03113 0.90749 0.0
H729 H 0.70884 0.08722 0.94664 0.0
H730 H 0.61639 0.04581 0.75303 0.0
H731 H 0.64989 0.04952 0.74458 0.0
C732 C 0.46603 0.74026 0.116 0.0
C733 C 0.48522 0.74275 0.11429 0.0
C734 C 0.45745 0.72877 0.05791 0.0
C735 C 0.46944 0.69385 0.89178 0.0
H736 H 0.43946 0.66261 0.03212 0.0
C737 C 0.47349 0.61553 0.85732 0.0
C738 C 0.47571 0.60631 0.93319 0.0
C739 C 0.46662 0.63354 0.85502 0.0
C740 C 0.44787 0.67111 0.99197 0.0
H741 H 0.51026 0.73721 0.0464 0.0
H742 H 0.49584 0.71661 0.94822 0.0
H743 H 0.4424 0.69493 0.06427 0.0
H744 H 0.47174 0.60818 0.06545 0.0
H745 H 0.46062 0.63977 0.06269 0.0
H746 H 0.47676 0.66944 0.82594 0.0
C747 C 0.48696 0.72366 0.99168 0.0
C748 C 0.44929 0.68992 0.00938 0.0
C749 C 0.49539 0.73553 0.0483 0.0
C750 C 0.47006 0.615 0.00622 0.0
C751 C 0.46351 0.63311 0.0042 0.0
C752 C 0.46846 0.67491 0.87586 0.0
C753 C 0.46812 0.71898 0.99971 0.0
C754 C 0.4612 0.70132 0.96309 0.0
C755 C 0.46217 0.64284 0.92878 0.0
C756 C 0.45866 0.66312 0.92937 0.0
H757 H 0.45796 0.7458 0.16661 0.0
H758 H 0.44279 0.72621 0.06397 0.0
H759 H 0.47803 0.70228 0.85215 0.0
H760 H 0.47754 0.60894 0.79995 0.0
H761 H 0.46543 0.64037 0.79567 0.0
C762 C 0.78471 0.5064 0.01627 0.0
C763 C 0.78731 0.49419 0.08278 0.0
C764 C 0.79398 0.50347 0.9416 0.0
C765 C 0.83134 0.47346 0.84939 0.0
H766 H 0.85743 0.52018 0.85221 0.0
C767 C 0.9117 0.48505 0.81551 0.0
C768 C 0.91775 0.49081 0.89453 0.0
C769 C 0.89284 0.48479 0.79582 0.0
C770 C 0.85014 0.50713 0.84823 0.0
H771 H 0.79884 0.46785 0.11923 0.0
H772 H 0.81552 0.46305 0.99177 0.0
H773 H 0.82495 0.51947 0.88574 0.0
H774 H 0.90861 0.49987 0.01569 0.0
H775 H 0.87593 0.49979 0.98067 0.0
H776 H 0.85753 0.46109 0.82153 0.0
C777 C 0.80641 0.47488 0.99543 0.0
C778 C 0.83139 0.50665 0.86702 0.0
C779 C 0.79704 0.47772 0.06947 0.0
C780 C 0.90453 0.49581 0.95379 0.0
C781 C 0.88583 0.49576 0.93383 0.0
C782 C 0.85021 0.47396 0.83094 0.0
C783 C 0.80623 0.48849 0.93321 0.0
C784 C 0.82219 0.48962 0.8755 0.0
C785 C 0.87987 0.49048 0.85459 0.0
C786 C 0.85992 0.49065 0.83696 0.0
H787 H 0.77705 0.51911 0.02445 0.0
H788 H 0.79306 0.51393 0.89392 0.0
H789 H 0.8245 0.46018 0.85258 0.0
H790 H 0.92152 0.48129 0.76802 0.0
H791 H 0.88844 0.48056 0.73455 0.0
C792 C 0.03165 0.21444 0.96405 0.0
C793 C 0.01541 0.2216 0.99895 0.0
C794 C 0.03163 0.19686 0.92684 0.0
C795 C 1.00624 0.15274 0.94157 0.0
H796 H 0.03345 0.13866 0.7453 0.0
C797 C 0.01815 0.07604 0.85532 0.0
C798 C 0.01626 0.07101 0.77161 0.0
C799 C 0.01826 0.09467 0.87908 0.0
C800 C 0.0257 0.14237 0.80003 0.0
H801 H 0.98636 0.21643 0.01966 0.0
H802 H 0.98618 0.1861 0.95379 0.0
H803 H 0.03288 0.17107 0.78881 0.0
H804 H 0.01304 0.08197 0.64722 0.0
H805 H 0.0133 0.11433 0.68883 0.0
H806 H 0.99899 0.1242 0.95308 0.0
C807 C 0.99899 0.19382 0.95561 0.0
C808 C 0.0255 0.16094 0.82531 0.0
C809 C 0.99902 0.21131 0.99237 0.0
C810 C 0.01459 0.0852 0.71232 0.0
C811 C 0.01483 0.10384 0.73609 0.0
C812 C 1.00656 0.13421 0.91679 0.0
C813 C 0.0154 0.18607 0.92471 0.0
C814 C 0.0157 0.16639 0.89632 0.0
C815 C 0.01657 0.10885 0.81987 0.0
C816 C 0.0163 0.12872 0.84573 0.0
H817 H 0.04453 0.22194 0.96984 0.0
H818 H 0.04454 0.19131 0.90403 0.0
H819 H 0.99874 0.15633 0.9972 0.0
H820 H 0.0195 0.06559 0.90283 0.0
H821 H 0.01986 0.09798 0.94407 0.0
C822 C 0.31801 0.03211 0.0181 0.0
C823 C 0.3063 0.01695 0.00434 0.0
C824 C 0.33552 0.03292 0.98159 0.0
C825 C 0.36672 1.01026 0.82598 0.0
H826 H 0.4049 0.03001 0.96965 0.0
C827 C 0.44296 0.01763 0.71811 0.0
C828 C 0.45722 0.01507 0.77645 0.0
C829 C 0.42439 0.018 0.74243 0.0
C830 C 0.39452 0.02423 0.92881 0.0
H831 H 0.30354 0.99096 0.93974 0.0
H832 H 0.3342 0.99214 0.87638 0.0
H833 H 0.37295 0.03064 0.01404 0.0
H834 H 0.4629 1.01061 0.9066 0.0
H835 H 0.43058 1.01089 0.94906 0.0
H836 H 0.3885 1.0032 0.74218 0.0
C837 C 0.32978 1.00369 0.91397 0.0
C838 C 0.376 0.02491 0.95376 0.0
C839 C 0.31213 1.00301 0.94992 0.0
C840 C 0.45235 0.01277 0.85996 0.0
C841 C 0.43373 0.01303 0.88434 0.0
C842 C 0.3853 1.00949 0.80118 0.0
C843 C 0.34201 0.01837 0.9315 0.0
C844 C 0.36176 0.01798 0.9028 0.0
C845 C 0.41943 0.01574 0.82602 0.0
C846 C 0.39953 0.01645 0.85228 0.0
H847 H 0.31394 0.04295 0.06053 0.0
H848 H 0.34422 0.04472 0.99501 0.0
H849 H 0.35625 1.00488 0.7845 0.0
H850 H 0.44613 0.0196 0.65333 0.0
H851 H 0.41396 0.0204 0.69555 0.0
C852 C 0.52201 0.31118 0.96034 0.0
C853 C 0.50453 0.30325 0.97324 0.0
C854 C 0.52366 0.32868 0.9237 0.0
C855 C 0.49847 0.36481 0.80361 0.0
H856 H 0.53 0.39874 0.92462 0.0
C857 C 0.51093 0.44078 0.69901 0.0
C858 C 0.51141 0.45446 0.76102 0.0
C859 C 0.51026 0.42198 0.71953 0.0
C860 C 0.52106 0.3895 0.89026 0.0
H861 H 0.47518 0.30695 0.95309 0.0
H862 H 0.47803 0.33723 0.88783 0.0
H863 H 0.52905 0.36627 0.96418 0.0
H864 H 0.51145 0.45884 0.89375 0.0
H865 H 0.51029 0.42611 0.92951 0.0
H866 H 0.49028 0.38815 0.73044 0.0
C867 C 0.4905 0.33004 0.90619 0.0
C868 C 0.52071 0.37078 0.91227 0.0
C869 C 0.48884 0.31266 0.94361 0.0
C870 C 0.51108 0.44877 0.84423 0.0
C871 C 0.51055 0.42995 0.86477 0.0
C872 C 0.49896 0.38353 0.78105 0.0
C873 C 0.50787 0.33857 0.89826 0.0
C874 C 0.50927 0.3582 0.86988 0.0
C875 C 0.51023 0.41628 0.80272 0.0
C876 C 0.51009 0.39619 0.82478 0.0
H877 H 0.53433 0.30439 0.98337 0.0
H878 H 0.53727 0.33473 0.9176 0.0
H879 H 0.48958 0.35552 0.76925 0.0
H880 H 0.51134 0.44454 0.63426 0.0
H881 H 0.51021 0.4119 0.67005 0.0
C882 C 0.22112 0.51867 0.94024 0.0
C883 C 0.22612 0.50374 0.99108 0.0
C884 C 0.2038 0.51902 0.9007 0.0
C885 C 0.16327 0.49032 0.83975 0.0
H886 H 0.13503 0.53503 0.87703 0.0
C887 C 0.08865 0.50173 0.71107 0.0
C888 C 0.07573 0.50904 0.76697 0.0
C889 C 0.10747 0.5008 0.73176 0.0
C890 C 0.14272 0.52244 0.86609 0.0
H891 H 0.21731 0.47713 0.03723 0.0
H892 H 0.18741 0.47743 0.96646 0.0
H893 H 0.16749 0.53372 0.91893 0.0
H894 H 0.07245 0.52107 0.88872 0.0
H895 H 0.10536 0.51989 0.92419 0.0
H896 H 0.1384 0.47899 0.78768 0.0
C897 C 0.19676 0.48891 0.95708 0.0
C898 C 0.1614 0.52176 0.88928 0.0
C899 C 0.21392 0.4887 0.99752 0.0
C900 C 0.08205 0.51533 0.84432 0.0
C901 C 0.10093 0.51479 0.86433 0.0
C902 C 0.14465 0.4911 0.81544 0.0
C903 C 0.19121 0.50433 0.91029 0.0
C904 C 0.17187 0.50559 0.87765 0.0
C905 C 0.11391 0.50757 0.80821 0.0
C906 C 0.13403 0.50706 0.82963 0.0
H907 H 0.23011 0.53057 0.93525 0.0
H908 H 0.20003 0.53104 0.86455 0.0
H909 H 0.17093 0.47769 0.82948 0.0
H910 H 0.08417 0.49654 0.65149 0.0
H911 H 0.11706 0.49517 0.68703 0.0
C912 C 0.03461 0.81637 0.39347 0.0
C913 C 0.01859 0.80613 0.37516 0.0
C914 C 0.03343 0.8336 0.43243 0.0
C915 C 1.00133 0.8727 0.45328 0.0
H916 H 0.03774 0.89103 0.60945 0.0
C917 C 1.01061 0.95098 0.52164 0.0
C918 C 0.01412 0.95628 0.60399 0.0
C919 C 1.01049 0.93226 0.49891 0.0
C920 C 0.02736 0.88614 0.56629 0.0
H921 H 0.98882 0.80563 0.38654 0.0
H922 H 0.9867 0.83576 0.45533 0.0
H923 H 0.03835 0.85865 0.56771 0.0
H924 H 0.02032 0.94576 0.72666 0.0
H925 H 0.01992 0.91336 0.68738 0.0
H926 H 0.99038 0.9002 0.45156 0.0
C927 C 1.0002 0.83047 0.43904 0.0
C928 C 0.0278 0.86756 0.54188 0.0
C929 C 1.00141 0.8131 0.40072 0.0
C930 C 0.01754 0.94231 0.66273 0.0
C931 C 0.01746 0.92365 0.64004 0.0
C932 C 1.00097 0.89131 0.47724 0.0
C933 C 0.01617 0.84117 0.45344 0.0
C934 C 0.01487 0.8606 0.48456 0.0
C935 C 0.01395 0.91832 0.5578 0.0
C936 C 0.01406 0.89835 0.53362 0.0
H937 H 0.04803 0.81141 0.37399 0.0
H938 H 0.04601 0.84143 0.4419 0.0
H939 H 0.99129 0.86792 0.40835 0.0
H940 H 1.00795 0.96128 0.47454 0.0
H941 H 1.00795 0.92872 0.43476 0.0
C942 C 0.71805 1.01083 0.4411 0.0
C943 C 0.72007 1.00531 0.35833 0.0
C944 C 0.70083 1.0092 0.48078 0.0
C945 C 0.65395 0.98736 0.45915 0.0
H946 H 0.63745 0.0294 0.58762 0.0
C947 C 0.57653 1.00067 0.52583 0.0
C948 C 0.57155 1.00745 0.60424 0.0
C949 C 0.59516 0.99925 0.503 0.0
C950 C 0.64187 0.01743 0.55274 0.0
H951 H 0.70602 0.99318 0.25324 0.0
H952 H 0.67628 0.99029 0.32137 0.0
H953 H 0.66928 0.02819 0.53856 0.0
H954 H 0.58254 0.01796 0.72027 0.0
H955 H 0.6149 0.01532 0.68055 0.0
H956 H 0.62644 0.97682 0.47163 0.0
C957 C 0.6878 0.99569 0.35676 0.0
C958 C 0.66021 0.0167 0.52479 0.0
C959 C 0.70487 0.99737 0.3174 0.0
C960 C 0.58576 0.01273 0.65921 0.0
C961 C 0.60438 0.01134 0.63629 0.0
C962 C 0.63563 0.98814 0.48667 0.0
C963 C 0.68535 1.00193 0.43847 0.0
C964 C 0.66644 1.0018 0.47631 0.0
C965 C 0.60936 1.0046 0.55782 0.0
C966 C 0.62923 1.00332 0.53272 0.0
H967 H 0.72949 0.01719 0.47368 0.0
H968 H 0.69956 0.01396 0.54401 0.0
H969 H 0.65827 0.97546 0.42361 0.0
H970 H 0.56604 0.99652 0.4817 0.0
H971 H 0.59843 0.99423 0.44164 0.0
C972 C 0.52866 0.71233 0.38862 0.0
C973 C 0.51099 0.71986 0.3758 0.0
C974 C 0.53075 0.69481 0.42486 0.0
C975 C 0.50566 0.65802 0.5425 0.0
H976 H 0.54025 0.62514 0.43426 0.0
C977 C 0.51765 0.58321 0.65779 0.0
C978 C 0.51991 0.56918 0.5983 0.0
C979 C 0.51741 0.60185 0.63493 0.0
C980 C 0.53043 0.63408 0.46494 0.0
H981 H 0.48175 0.71539 0.39576 0.0
H982 H 0.48532 0.68508 0.45895 0.0
H983 H 0.53845 0.6574 0.39172 0.0
H984 H 0.52373 0.56406 0.46727 0.0
H985 H 0.52317 0.59658 0.42714 0.0
H986 H 0.49723 0.63462 0.61396 0.0
C987 C 0.49764 0.69258 0.44131 0.0
C988 C 0.52959 0.6527 0.44133 0.0
C989 C 0.49556 0.70999 0.40484 0.0
C990 C 0.52202 0.57441 0.51499 0.0
C991 C 0.52181 0.59312 0.49202 0.0
C992 C 0.50652 0.63942 0.56619 0.0
C993 C 0.51521 0.68447 0.44967 0.0
C994 C 0.51708 0.66493 0.47926 0.0
C995 C 0.51943 0.60713 0.55167 0.0
C996 C 0.51883 0.62711 0.52737 0.0
H997 H 0.5408 0.71948 0.36619 0.0
H998 H 0.54452 0.68917 0.43149 0.0
H999 H 0.49596 0.66699 0.57373 0.0
H1000 H 0.51596 0.57982 0.72245 0.0
H1001 H 0.5158 0.61215 0.68296 0.0
C1002 C 0.81685 0.52245 0.40217 0.0
C1003 C 0.81032 0.50593 0.36681 0.0
C1004 C 0.83435 0.52314 0.44027 0.0
C1005 C 0.87936 0.49871 0.43142 0.0
H1006 H 0.89244 0.52924 0.61957 0.0
C1007 C 0.95583 0.51338 0.51572 0.0
C1008 C 0.96079 0.51369 0.59993 0.0
C1009 C 0.9372 0.51262 0.49153 0.0
C1010 C 0.88904 0.52053 0.56722 0.0
H1011 H 0.81642 0.47693 0.34956 0.0
H1012 H 0.84655 0.478 0.41713 0.0
H1013 H 0.86012 0.52697 0.57588 0.0
H1014 H 0.94973 0.5136 0.72476 0.0
H1015 H 0.91742 0.5124 0.68249 0.0
H1016 H 0.90809 0.49207 0.42293 0.0
C1017 C 0.8385 0.49057 0.41365 0.0
C1018 C 0.87048 0.51937 0.54169 0.0
C1019 C 0.82111 0.4899 0.37562 0.0
C1020 C 0.94654 0.51341 0.65923 0.0
C1021 C 0.92792 0.51278 0.63499 0.0
C1022 C 0.89785 0.49992 0.45665 0.0
C1023 C 0.8457 0.50733 0.44388 0.0
C1024 C 0.86536 0.50842 0.47335 0.0
C1025 C 0.92294 0.51221 0.55077 0.0
C1026 C 0.90304 0.5109 0.52471 0.0
H1027 H 0.80897 0.53508 0.3956 0.0
H1028 H 0.8394 0.53631 0.46264 0.0
H1029 H 0.87609 0.49034 0.37782 0.0
H1030 H 0.96634 0.51363 0.46818 0.0
H1031 H 0.93398 0.51252 0.42606 0.0
loop_
_geom_bond_atom_site_label_1
_geom_bond_atom_site_label_2
_geom_bond_distance
_geom_bond_site_symmetry_2
_ccdc_geom_bond_type
H0 C1 0.949 . S
C1 H0 0.949 . S
C1 C2 1.395 . S
C1 C3 1.391 . S
C2 C1 1.395 . S
C2 C5 1.390 . S
C3 C1 1.391 . S
C3 C7 1.387 . S
C3 C8 1.491 . S
H4 C5 0.950 . S
C5 C2 1.390 . S
C5 H4 0.950 . S
C5 C6 1.378 . S
C6 C5 1.378 . S
C6 C7 1.409 . S
C7 C3 1.387 . S
C7 C6 1.409 . S
C7 H9 0.951 . S
C8 C3 1.491 . S
C8 C10 1.382 . S
C8 C12 1.404 . S
H9 C7 0.951 . S
C10 C8 1.382 . S
C10 C11 1.390 . S
C10 H15 0.949 . S
C11 C10 1.390 . S
C11 C16 1.399 . S
C12 C8 1.404 . S
C12 H13 0.950 . S
C12 C14 1.375 . S
H13 C12 0.950 . S
C14 C12 1.375 . S
C14 C16 1.382 . S
C14 H18 0.950 . S
H15 C10 0.949 . S
C16 C11 1.399 . S
C16 C14 1.382 . S
C16 H17 0.952 . S
H17 C16 0.952 . S
H18 C14 0.950 . S
H19 C20 0.949 . S
C20 H19 0.949 . S
C20 C21 1.401 . S
C20 C22 1.391 . S
C21 C20 1.401 . S
C21 C24 1.387 1_655 S
C22 C20 1.391 . S
C22 C26 1.387 . S
C22 C27 1.491 . S
H23 C24 0.955 . S
C24 C21 1.387 1_455 S
C24 H23 0.955 . S
C24 C25 1.374 1_455 S
C25 C24 1.374 1_655 S
C25 C26 1.419 . S
C26 C22 1.387 . S
C26 C25 1.419 . S
C26 H28 0.951 . S
C27 C22 1.491 . S
C27 C29 1.382 . S
C27 C31 1.404 . S
H28 C26 0.951 . S
C29 C27 1.382 . S
C29 C30 1.390 . S
C29 H34 0.949 1_655 S
C30 C29 1.390 . S
C30 C35 1.399 . S
C31 C27 1.404 . S
C31 H32 0.950 . S
C31 C33 1.375 . S
H32 C31 0.950 . S
C33 C31 1.375 . S
C33 C35 1.382 . S
C33 H37 0.950 . S
H34 C29 0.949 1_455 S
C35 C30 1.399 . S
C35 C33 1.382 . S
C35 H36 0.952 . S
H36 C35 0.952 . S
H37 C33 0.950 . S
H38 C39 0.949 . S
C39 H38 0.949 . S
C39 C40 1.403 . S
C39 C41 1.391 . S
C40 C39 1.403 . S
C40 C43 1.387 1_565 S
C41 C39 1.391 . S
C41 C45 1.387 . S
C41 C46 1.491 . S
H42 C43 0.954 . S
C43 C40 1.387 1_545 S
C43 H42 0.954 . S
C43 C44 1.374 1_545 S
C44 C43 1.374 1_565 S
C44 C45 1.421 . S
C45 C41 1.387 . S
C45 C44 1.421 . S
C45 H47 0.951 . S
C46 C41 1.491 . S
C46 C48 1.382 . S
C46 C50 1.404 . S
H47 C45 0.951 . S
C48 C46 1.382 . S
C48 C49 1.390 . S
C48 H53 0.949 1_565 S
C49 C48 1.390 . S
C49 C54 1.399 . S
C50 C46 1.404 . S
C50 H51 0.950 . S
C50 C52 1.375 . S
H51 C50 0.950 . S
C52 C50 1.375 . S
C52 C54 1.382 . S
C52 H56 0.950 . S
H53 C48 0.949 1_545 S
C54 C49 1.399 . S
C54 C52 1.382 . S
C54 H55 0.952 . S
H55 C54 0.952 . S
H56 C52 0.950 . S
H57 C58 0.949 . S
C58 H57 0.949 . S
C58 C59 1.395 . S
C58 C60 1.391 . S
C59 C58 1.395 . S
C59 C62 1.390 . S
C60 C58 1.391 . S
C60 C64 1.387 . S
C60 C65 1.491 . S
H61 C62 0.950 . S
C62 C59 1.390 . S
C62 H61 0.950 . S
C62 C63 1.378 . S
C63 C62 1.378 . S
C63 C64 1.409 . S
C64 C60 1.387 . S
C64 C63 1.409 . S
C64 H66 0.951 . S
C65 C60 1.491 . S
C65 C67 1.382 . S
C65 C69 1.404 . S
H66 C64 0.951 . S
C67 C65 1.382 . S
C67 C68 1.390 . S
C67 H72 0.949 . S
C68 C67 1.390 . S
C68 C73 1.399 . S
C69 C65 1.404 . S
C69 H70 0.950 . S
C69 C71 1.375 . S
H70 C69 0.950 . S
C71 C69 1.375 . S
C71 C73 1.382 . S
C71 H75 0.950 . S
H72 C67 0.949 . S
C73 C68 1.399 . S
C73 C71 1.382 . S
C73 H74 0.952 . S
H74 C73 0.952 . S
H75 C71 0.950 . S
H76 C77 0.949 . S
C77 H76 0.949 . S
C77 C78 1.395 . S
C77 C79 1.391 1_554 S
C78 C77 1.395 . S
C78 C81 1.390 1_554 S
C79 C77 1.391 1_556 S
C79 C83 1.387 . S
C79 C84 1.491 . S
H80 C81 0.950 . S
C81 C78 1.390 1_556 S
C81 H80 0.950 . S
C81 C82 1.378 . S
C82 C81 1.378 . S
C82 C83 1.409 . S
C83 C79 1.387 . S
C83 C82 1.409 . S
C83 H85 0.951 . S
C84 C79 1.491 . S
C84 C86 1.382 1_556 S
C84 C88 1.404 . S
H85 C83 0.951 . S
C86 C84 1.382 1_554 S
C86 C87 1.390 . S
C86 H91 0.949 . S
C87 C86 1.390 . S
C87 C92 1.399 1_554 S
C88 C84 1.404 . S
C88 H89 0.950 . S
C88 C90 1.375 . S
H89 C88 0.950 . S
C90 C88 1.375 . S
C90 C92 1.382 . S
C90 H94 0.950 . S
H91 C86 0.949 . S
C92 C87 1.399 1_556 S
C92 C90 1.382 . S
C92 H93 0.952 . S
H93 C92 0.952 . S
H94 C90 0.950 . S
H95 C96 0.952 . S
C96 H95 0.952 . S
C96 C97 1.395 . S
C96 C98 1.387 1_454 S
C97 C96 1.395 . S
C97 C100 1.390 1_554 S
C98 C96 1.387 1_656 S
C98 C102 1.383 1_655 S
C98 C103 1.500 . S
H99 C100 0.950 . S
C100 C97 1.390 1_556 S
C100 H99 0.950 . S
C100 C101 1.378 . S
C101 C100 1.378 . S
C101 C102 1.418 . S
C102 C98 1.383 1_455 S
C102 C101 1.418 . S
C102 H104 0.948 1_455 S
C103 C98 1.500 . S
C103 C105 1.382 1_656 S
C103 C107 1.404 . S
H104 C102 0.948 1_655 S
C105 C103 1.382 1_454 S
C105 C106 1.382 1_455 S
C105 H110 0.949 . S
C106 C105 1.382 1_655 S
C106 C111 1.424 1_554 S
C107 C103 1.404 . S
C107 H108 0.950 . S
C107 C109 1.375 . S
H108 C107 0.950 . S
C109 C107 1.375 . S
C109 C111 1.382 . S
C109 H113 0.950 . S
H110 C105 0.949 . S
C111 C106 1.424 1_556 S
C111 C109 1.382 . S
C111 H112 0.952 . S
H112 C111 0.952 . S
H113 C109 0.950 . S
H114 C115 0.952 . S
C115 H114 0.952 . S
C115 C116 1.395 . S
C115 C117 1.387 1_544 S
C116 C115 1.395 . S
C116 C119 1.390 1_554 S
C117 C115 1.387 1_566 S
C117 C121 1.383 1_565 S
C117 C122 1.502 . S
H118 C119 0.950 . S
C119 C116 1.390 1_556 S
C119 H118 0.950 . S
C119 C120 1.378 . S
C120 C119 1.378 . S
C120 C121 1.417 . S
C121 C117 1.383 1_545 S
C121 C120 1.417 . S
C121 H123 0.948 1_545 S
C122 C117 1.502 . S
C122 C124 1.382 1_566 S
C122 C126 1.404 . S
H123 C121 0.948 1_565 S
C124 C122 1.382 1_544 S
C124 C125 1.381 1_545 S
C124 H129 0.949 . S
C125 C124 1.381 1_565 S
C125 C130 1.429 1_554 S
C126 C122 1.404 . S
C126 H127 0.950 . S
C126 C128 1.375 . S
H127 C126 0.950 . S
C128 C126 1.375 . S
C128 C130 1.382 . S
C128 H132 0.950 . S
H129 C124 0.949 . S
C130 C125 1.429 1_556 S
C130 C128 1.382 . S
C130 H131 0.952 . S
H131 C130 0.952 . S
H132 C128 0.950 . S
H133 C134 0.949 . S
C134 H133 0.949 . S
C134 C135 1.395 . S
C134 C136 1.391 1_554 S
C135 C134 1.395 . S
C135 C138 1.390 1_554 S
C136 C134 1.391 1_556 S
C136 C140 1.387 . S
C136 C141 1.491 . S
H137 C138 0.950 . S
C138 C135 1.390 1_556 S
C138 H137 0.950 . S
C138 C139 1.378 . S
C139 C138 1.378 . S
C139 C140 1.409 . S
C140 C136 1.387 . S
C140 C139 1.409 . S
C140 H142 0.951 . S
C141 C136 1.491 . S
C141 C143 1.382 1_556 S
C141 C145 1.404 . S
H142 C140 0.951 . S
C143 C141 1.382 1_554 S
C143 C144 1.390 . S
C143 H148 0.949 . S
C144 C143 1.390 . S
C144 C149 1.399 1_554 S
C145 C141 1.404 . S
C145 H146 0.950 . S
C145 C147 1.375 . S
H146 C145 0.950 . S
C147 C145 1.375 . S
C147 C149 1.382 . S
C147 H151 0.950 . S
H148 C143 0.949 . S
C149 C144 1.399 1_556 S
C149 C147 1.382 . S
C149 H150 0.952 . S
H150 C149 0.952 . S
H151 C147 0.950 . S
Sm152 C154 2.846 . S
Sm152 O172 2.544 1_455 S
Sm152 O173 2.450 . S
Sm152 O174 2.681 1_565 S
Sm152 O175 2.464 . S
Sm152 O176 2.396 . S
Sm152 O180 2.386 1_455 S
Sm152 O183 2.408 1_565 S
Sm153 C163 2.846 . S
Sm153 O174 2.386 1_655 S
Sm153 O177 2.408 1_545 S
Sm153 O178 2.543 1_655 S
Sm153 O179 2.450 . S
Sm153 O180 2.681 1_545 S
Sm153 O181 2.464 . S
Sm153 O182 2.396 . S
C154 Sm152 2.846 . S
C154 C155 1.506 . S
C154 O172 1.264 1_455 S
C154 O173 1.242 . S
C155 C154 1.506 . S
C155 C156 1.358 . S
C155 C160 1.382 . S
C156 C155 1.358 . S
C156 C157 1.385 . S
C156 H184 0.930 1_455 S
C157 C156 1.385 . S
C157 C158 1.395 . S
C157 H185 0.929 1_455 S
C158 C157 1.395 . S
C158 C159 1.335 . S
C159 C158 1.335 . S
C159 C160 1.398 . S
C159 H186 0.930 . S
C160 C155 1.382 . S
C160 C159 1.398 . S
C160 H187 0.929 . S
C161 O174 1.289 . S
C161 O175 1.226 1_545 S
C162 O176 1.252 1_655 S
C162 O177 1.272 . S
C163 Sm153 2.846 . S
C163 C164 1.506 . S
C163 O178 1.261 1_655 S
C163 O179 1.242 . S
C164 C163 1.506 . S
C164 C165 1.358 1_655 S
C164 C169 1.382 . S
C165 C164 1.358 1_455 S
C165 C166 1.385 1_455 S
C165 H188 0.930 . S
C166 C165 1.385 1_655 S
C166 C167 1.406 . S
C166 H189 0.919 1_655 S
C167 C166 1.406 . S
C167 C168 1.335 . S
C168 C167 1.335 . S
C168 C169 1.398 . S
C168 H190 0.930 . S
C169 C164 1.382 . S
C169 C168 1.398 . S
C169 H191 0.929 . S
C170 O180 1.271 1_545 S
C170 O181 1.251 . S
C171 O182 1.252 1_455 S
C171 O183 1.272 . S
O172 Sm152 2.544 1_655 S
O172 C154 1.264 1_655 S
O173 Sm152 2.450 . S
O173 C154 1.242 . S
O174 Sm152 2.681 1_545 S
O174 Sm153 2.386 1_455 S
O174 C161 1.289 . S
O175 Sm152 2.464 . S
O175 C161 1.226 1_565 S
O176 Sm152 2.396 . S
O176 C162 1.252 1_455 S
O177 Sm153 2.408 1_565 S
O177 C162 1.272 . S
O178 Sm153 2.543 1_455 S
O178 C163 1.261 1_455 S
O179 Sm153 2.450 . S
O179 C163 1.242 . S
O180 Sm152 2.386 1_655 S
O180 Sm153 2.681 1_565 S
O180 C170 1.271 1_565 S
O181 Sm153 2.464 . S
O181 C170 1.251 . S
O182 Sm153 2.396 . S
O182 C171 1.252 1_655 S
O183 Sm152 2.408 1_545 S
O183 C171 1.272 . S
H184 C156 0.930 1_655 S
H185 C157 0.929 1_655 S
H186 C159 0.930 . S
H187 C160 0.929 . S
H188 C165 0.930 . S
H189 C166 0.919 1_455 S
H190 C168 0.930 . S
H191 C169 0.929 . S
Sm192 C194 2.846 . S
Sm192 O212 2.540 1_545 S
Sm192 O213 2.450 . S
Sm192 O214 2.681 . S
Sm192 O215 2.464 . S
Sm192 O216 2.396 . S
Sm192 O220 2.386 1_545 S
Sm192 O223 2.408 . S
Sm193 C203 2.846 . S
Sm193 O214 2.386 1_565 S
Sm193 O217 2.408 . S
Sm193 O218 2.543 1_565 S
Sm193 O219 2.450 . S
Sm193 O220 2.681 . S
Sm193 O221 2.464 . S
Sm193 O222 2.396 . S
C194 Sm192 2.846 . S
C194 C195 1.506 . S
C194 O212 1.256 1_545 S
C194 O213 1.242 . S
C195 C194 1.506 . S
C195 C196 1.358 . S
C195 C200 1.382 . S
C196 C195 1.358 . S
C196 C197 1.385 . S
C196 H224 0.930 1_545 S
C197 C196 1.385 . S
C197 C198 1.395 . S
C197 H225 0.929 1_545 S
C198 C197 1.395 . S
C198 C199 1.335 . S
C199 C198 1.335 . S
C199 C200 1.398 . S
C199 H226 0.930 . S
C200 C195 1.382 . S
C200 C199 1.398 . S
C200 H227 0.929 . S
C201 O214 1.271 . S
C201 O215 1.251 . S
C202 O216 1.252 1_565 S
C202 O217 1.272 . S
C203 Sm193 2.846 . S
C203 C204 1.506 . S
C203 O218 1.261 1_565 S
C203 O219 1.242 . S
C204 C203 1.506 . S
C204 C205 1.358 1_565 S
C204 C209 1.382 . S
C205 C204 1.358 1_545 S
C205 C206 1.384 1_545 S
C205 H228 0.930 . S
C206 C205 1.384 1_565 S
C206 C207 1.412 . S
C206 H229 0.913 1_565 S
C207 C206 1.412 . S
C207 C208 1.335 . S
C208 C207 1.335 . S
C208 C209 1.398 . S
C208 H230 0.930 . S
C209 C204 1.382 . S
C209 C208 1.398 . S
C209 H231 0.929 . S
C210 O220 1.271 . S
C210 O221 1.251 . S
C211 O222 1.252 1_545 S
C211 O223 1.272 . S
O212 Sm192 2.540 1_565 S
O212 C194 1.256 1_565 S
O213 Sm192 2.450 . S
O213 C194 1.242 . S
O214 Sm192 2.681 . S
O214 Sm193 2.386 1_545 S
O214 C201 1.271 . S
O215 Sm192 2.464 . S
O215 C201 1.251 . S
O216 Sm192 2.396 . S
O216 C202 1.252 1_545 S
O217 Sm193 2.408 . S
O217 C202 1.272 . S
O218 Sm193 2.543 1_545 S
O218 C203 1.261 1_545 S
O219 Sm193 2.450 . S
O219 C203 1.242 . S
O220 Sm192 2.386 1_565 S
O220 Sm193 2.681 . S
O220 C210 1.271 . S
O221 Sm193 2.464 . S
O221 C210 1.251 . S
O222 Sm193 2.396 . S
O222 C211 1.252 1_565 S
O223 Sm192 2.408 . S
O223 C211 1.272 . S
H224 C196 0.930 1_565 S
H225 C197 0.929 1_565 S
H226 C199 0.930 . S
H227 C200 0.929 . S
H228 C205 0.930 . S
H229 C206 0.913 1_545 S
H230 C208 0.930 . S
H231 C209 0.929 . S
Sm232 C234 2.846 . S
Sm232 O252 2.543 . S
Sm232 O253 2.450 . S
Sm232 O254 2.681 . S
Sm232 O255 2.464 . S
Sm232 O256 2.396 . S
Sm232 O260 2.386 . S
Sm232 O263 2.408 . S
Sm233 C243 2.846 . S
Sm233 O254 2.386 . S
Sm233 O257 2.408 . S
Sm233 O258 2.543 . S
Sm233 O259 2.450 . S
Sm233 O260 2.681 . S
Sm233 O261 2.464 . S
Sm233 O262 2.396 . S
C234 Sm232 2.846 . S
C234 C235 1.506 . S
C234 O252 1.261 . S
C234 O253 1.242 . S
C235 C234 1.506 . S
C235 C236 1.358 . S
C235 C240 1.382 . S
C236 C235 1.358 . S
C236 C237 1.385 . S
C236 H264 0.930 . S
C237 C236 1.385 . S
C237 C238 1.395 . S
C237 H265 0.929 . S
C238 C237 1.395 . S
C238 C239 1.335 . S
C239 C238 1.335 . S
C239 C240 1.398 . S
C239 H266 0.930 . S
C240 C235 1.382 . S
C240 C239 1.398 . S
C240 H267 0.929 . S
C241 O254 1.271 . S
C241 O255 1.251 . S
C242 O256 1.252 . S
C242 O257 1.272 . S
C243 Sm233 2.846 . S
C243 C244 1.506 . S
C243 O258 1.261 . S
C243 O259 1.242 . S
C244 C243 1.506 . S
C244 C245 1.358 . S
C244 C249 1.382 . S
C245 C244 1.358 . S
C245 C246 1.385 . S
C245 H268 0.930 . S
C246 C245 1.385 . S
C246 C247 1.395 . S
C246 H269 0.929 . S
C247 C246 1.395 . S
C247 C248 1.335 . S
C248 C247 1.335 . S
C248 C249 1.398 . S
C248 H270 0.930 . S
C249 C244 1.382 . S
C249 C248 1.398 . S
C249 H271 0.929 . S
C250 O260 1.271 . S
C250 O261 1.251 . S
C251 O262 1.252 . S
C251 O263 1.272 . S
O252 Sm232 2.543 . S
O252 C234 1.261 . S
O253 Sm232 2.450 . S
O253 C234 1.242 . S
O254 Sm232 2.681 . S
O254 Sm233 2.386 . S
O254 C241 1.271 . S
O255 Sm232 2.464 . S
O255 C241 1.251 . S
O256 Sm232 2.396 . S
O256 C242 1.252 . S
O257 Sm233 2.408 . S
O257 C242 1.272 . S
O258 Sm233 2.543 . S
O258 C243 1.261 . S
O259 Sm233 2.450 . S
O259 C243 1.242 . S
O260 Sm232 2.386 . S
O260 Sm233 2.681 . S
O260 C250 1.271 . S
O261 Sm233 2.464 . S
O261 C250 1.251 . S
O262 Sm233 2.396 . S
O262 C251 1.252 . S
O263 Sm232 2.408 . S
O263 C251 1.272 . S
H264 C236 0.930 . S
H265 C237 0.929 . S
H266 C239 0.930 . S
H267 C240 0.929 . S
H268 C245 0.930 . S
H269 C246 0.929 . S
H270 C248 0.930 . S
H271 C249 0.929 . S
Sm272 C274 2.846 . S
Sm272 O292 2.543 . S
Sm272 O293 2.450 . S
Sm272 O294 2.681 1_655 S
Sm272 O295 2.464 . S
Sm272 O296 2.396 . S
Sm272 O300 2.386 . S
Sm272 O303 2.408 1_655 S
Sm273 C283 2.846 . S
Sm273 O294 2.386 . S
Sm273 O297 2.408 1_455 S
Sm273 O298 2.543 . S
Sm273 O299 2.450 . S
Sm273 O300 2.681 1_455 S
Sm273 O301 2.464 . S
Sm273 O302 2.396 . S
C274 Sm272 2.846 . S
C274 C275 1.506 . S
C274 O292 1.261 . S
C274 O293 1.242 . S
C275 C274 1.506 . S
C275 C276 1.358 . S
C275 C280 1.382 . S
C276 C275 1.358 . S
C276 C277 1.385 . S
C276 H304 0.930 . S
C277 C276 1.385 . S
C277 C278 1.395 . S
C277 H305 0.929 . S
C278 C277 1.395 . S
C278 C279 1.335 . S
C279 C278 1.335 . S
C279 C280 1.398 . S
C279 H306 0.930 . S
C280 C275 1.382 . S
C280 C279 1.398 . S
C280 H307 0.929 . S
C281 O294 1.292 . S
C281 O295 1.221 1_455 S
C282 O296 1.252 . S
C282 O297 1.272 . S
C283 Sm273 2.846 . S
C283 C284 1.506 . S
C283 O298 1.261 . S
C283 O299 1.242 . S
C284 C283 1.506 . S
C284 C285 1.358 . S
C284 C289 1.382 . S
C285 C284 1.358 . S
C285 C286 1.385 . S
C285 H308 0.930 . S
C286 C285 1.385 . S
C286 C287 1.395 . S
C286 H309 0.929 . S
C287 C286 1.395 . S
C287 C288 1.335 . S
C288 C287 1.335 . S
C288 C289 1.398 . S
C288 H310 0.930 . S
C289 C284 1.382 . S
C289 C288 1.398 . S
C289 H311 0.929 . S
C290 O300 1.271 1_455 S
C290 O301 1.251 . S
C291 O302 1.252 . S
C291 O303 1.272 . S
O292 Sm272 2.543 . S
O292 C274 1.261 . S
O293 Sm272 2.450 . S
O293 C274 1.242 . S
O294 Sm272 2.681 1_455 S
O294 Sm273 2.386 . S
O294 C281 1.292 . S
O295 Sm272 2.464 . S
O295 C281 1.221 1_655 S
O296 Sm272 2.396 . S
O296 C282 1.252 . S
O297 Sm273 2.408 1_655 S
O297 C282 1.272 . S
O298 Sm273 2.543 . S
O298 C283 1.261 . S
O299 Sm273 2.450 . S
O299 C283 1.242 . S
O300 Sm272 2.386 . S
O300 Sm273 2.681 1_655 S
O300 C290 1.271 1_655 S
O301 Sm273 2.464 . S
O301 C290 1.251 . S
O302 Sm273 2.396 . S
O302 C291 1.252 . S
O303 Sm272 2.408 1_455 S
O303 C291 1.272 . S
H304 C276 0.930 . S
H305 C277 0.929 . S
H306 C279 0.930 . S
H307 C280 0.929 . S
H308 C285 0.930 . S
H309 C286 0.929 . S
H310 C288 0.930 . S
H311 C289 0.929 . S
C312 C313 1.349 . S
C312 C314 1.327 . S
C312 H337 0.950 . S
C313 C312 1.349 . S
C313 C329 1.349 1_545 S
C314 C312 1.327 . S
C314 C333 1.429 . S
C314 H338 0.950 . S
C315 C332 1.574 . S
C315 C334 1.368 1_565 S
C315 H339 0.949 . S
H316 C320 0.949 . S
C317 C318 1.349 1_565 S
C317 C319 1.327 . S
C317 H340 0.950 . S
C318 C317 1.349 1_545 S
C318 C330 1.349 . S
C319 C317 1.327 . S
C319 C335 1.429 1_565 S
C319 H341 0.950 . S
C320 H316 0.949 . S
C320 C328 1.574 . S
C320 C336 1.368 . S
H321 C329 0.950 . S
H322 C327 0.950 . S
H323 C328 0.949 . S
H324 C330 0.950 . S
H325 C331 0.950 . S
H326 C332 0.949 . S
C327 H322 0.950 . S
C327 C329 1.327 . S
C327 C333 1.429 1_565 S
C328 C320 1.574 . S
C328 H323 0.949 . S
C328 C334 1.368 . S
C329 C313 1.349 1_565 S
C329 H321 0.950 . S
C329 C327 1.327 . S
C330 C318 1.349 . S
C330 H324 0.950 . S
C330 C331 1.327 . S
C331 H325 0.950 . S
C331 C330 1.327 . S
C331 C335 1.429 . S
C332 C315 1.574 . S
C332 H326 0.949 . S
C332 C336 1.368 1_565 S
C333 C314 1.429 . S
C333 C327 1.429 1_545 S
C333 C334 1.523 . S
C334 C315 1.368 1_545 S
C334 C328 1.368 . S
C334 C333 1.523 . S
C335 C319 1.429 1_545 S
C335 C331 1.429 . S
C335 C336 1.523 . S
C336 C320 1.368 . S
C336 C332 1.368 1_545 S
C336 C335 1.523 . S
H337 C312 0.950 . S
H338 C314 0.950 . S
H339 C315 0.949 . S
H340 C317 0.950 . S
H341 C319 0.950 . S
C342 C343 1.349 . S
C342 C344 1.327 . S
C342 H367 0.950 . S
C343 C342 1.349 . S
C343 C359 1.349 . S
C344 C342 1.327 . S
C344 C363 1.429 . S
C344 H368 0.950 . S
C345 C362 1.574 . S
C345 C364 1.368 . S
C345 H369 0.949 . S
H346 C350 0.949 . S
C347 C348 1.349 . S
C347 C349 1.327 . S
C347 H370 0.950 . S
C348 C347 1.349 . S
C348 C360 1.349 . S
C349 C347 1.327 . S
C349 C365 1.429 . S
C349 H371 0.950 . S
C350 H346 0.949 . S
C350 C358 1.574 . S
C350 C366 1.368 . S
H351 C359 0.950 . S
H352 C357 0.950 . S
H353 C358 0.949 . S
H354 C360 0.950 . S
H355 C361 0.950 . S
H356 C362 0.949 . S
C357 H352 0.950 . S
C357 C359 1.327 . S
C357 C363 1.429 . S
C358 C350 1.574 . S
C358 H353 0.949 . S
C358 C364 1.368 . S
C359 C343 1.349 . S
C359 H351 0.950 . S
C359 C357 1.327 . S
C360 C348 1.349 . S
C360 H354 0.950 . S
C360 C361 1.327 . S
C361 H355 0.950 . S
C361 C360 1.327 . S
C361 C365 1.429 . S
C362 C345 1.574 . S
C362 H356 0.949 . S
C362 C366 1.368 . S
C363 C344 1.429 . S
C363 C357 1.429 . S
C363 C364 1.523 . S
C364 C345 1.368 . S
C364 C358 1.368 . S
C364 C363 1.523 . S
C365 C349 1.429 . S
C365 C361 1.429 . S
C365 C366 1.523 . S
C366 C350 1.368 . S
C366 C362 1.368 . S
C366 C365 1.523 . S
H367 C342 0.950 . S
H368 C344 0.950 . S
H369 C345 0.949 . S
H370 C347 0.950 . S
H371 C349 0.950 . S
C372 C373 1.349 . S
C372 C374 1.327 . S
C372 H397 0.950 . S
C373 C372 1.349 . S
C373 C389 1.349 . S
C374 C372 1.327 . S
C374 C393 1.429 . S
C374 H398 0.950 . S
C375 C392 1.574 . S
C375 C394 1.368 . S
C375 H399 0.949 . S
H376 C380 0.949 . S
C377 C378 1.349 . S
C377 C379 1.327 . S
C377 H400 0.950 . S
C378 C377 1.349 . S
C378 C390 1.349 . S
C379 C377 1.327 . S
C379 C395 1.429 . S
C379 H401 0.950 . S
C380 H376 0.949 . S
C380 C388 1.574 . S
C380 C396 1.368 . S
H381 C389 0.950 . S
H382 C387 0.950 . S
H383 C388 0.949 . S
H384 C390 0.950 . S
H385 C391 0.950 . S
H386 C392 0.949 . S
C387 H382 0.950 . S
C387 C389 1.327 . S
C387 C393 1.429 . S
C388 C380 1.574 . S
C388 H383 0.949 . S
C388 C394 1.368 . S
C389 C373 1.349 . S
C389 H381 0.950 . S
C389 C387 1.327 . S
C390 C378 1.349 . S
C390 H384 0.950 . S
C390 C391 1.327 . S
C391 H385 0.950 . S
C391 C390 1.327 . S
C391 C395 1.429 . S
C392 C375 1.574 . S
C392 H386 0.949 . S
C392 C396 1.368 . S
C393 C374 1.429 . S
C393 C387 1.429 . S
C393 C394 1.523 . S
C394 C375 1.368 . S
C394 C388 1.368 . S
C394 C393 1.523 . S
C395 C379 1.429 . S
C395 C391 1.429 . S
C395 C396 1.523 . S
C396 C380 1.368 . S
C396 C392 1.368 . S
C396 C395 1.523 . S
H397 C372 0.950 . S
H398 C374 0.950 . S
H399 C375 0.949 . S
H400 C377 0.950 . S
H401 C379 0.950 . S
C402 C403 1.349 . S
C402 C404 1.327 . S
C402 H427 0.950 . S
C403 C402 1.349 . S
C403 C419 1.349 1_455 S
C404 C402 1.327 . S
C404 C423 1.429 . S
C404 H428 0.950 . S
C405 C422 1.574 . S
C405 C424 1.368 1_655 S
C405 H429 0.949 . S
H406 C410 0.949 . S
C407 C408 1.349 1_655 S
C407 C409 1.327 . S
C407 H430 0.950 . S
C408 C407 1.349 1_455 S
C408 C420 1.349 . S
C409 C407 1.327 . S
C409 C425 1.429 1_655 S
C409 H431 0.950 . S
C410 H406 0.949 . S
C410 C418 1.574 . S
C410 C426 1.368 . S
H411 C419 0.950 . S
H412 C417 0.950 . S
H413 C418 0.949 . S
H414 C420 0.950 . S
H415 C421 0.950 . S
H416 C422 0.949 . S
C417 H412 0.950 . S
C417 C419 1.327 . S
C417 C423 1.429 1_655 S
C418 C410 1.574 . S
C418 H413 0.949 . S
C418 C424 1.368 . S
C419 C403 1.349 1_655 S
C419 H411 0.950 . S
C419 C417 1.327 . S
C420 C408 1.349 . S
C420 H414 0.950 . S
C420 C421 1.327 . S
C421 H415 0.950 . S
C421 C420 1.327 . S
C421 C425 1.429 . S
C422 C405 1.574 . S
C422 H416 0.949 . S
C422 C426 1.368 1_655 S
C423 C404 1.429 . S
C423 C417 1.429 1_455 S
C423 C424 1.523 . S
C424 C405 1.368 1_455 S
C424 C418 1.368 . S
C424 C423 1.523 . S
C425 C409 1.429 1_455 S
C425 C421 1.429 . S
C425 C426 1.523 . S
C426 C410 1.368 . S
C426 C422 1.368 1_455 S
C426 C425 1.523 . S
H427 C402 0.950 . S
H428 C404 0.950 . S
H429 C405 0.949 . S
H430 C407 0.950 . S
H431 C409 0.950 . S
C432 C433 1.322 1_545 S
C432 C434 1.327 . S
C432 H457 0.950 . S
C433 C432 1.322 1_565 S
C433 C449 1.376 . S
C434 C432 1.327 . S
C434 C453 1.415 1_545 S
C434 H458 0.950 . S
C435 C452 1.574 1_554 S
C435 C454 1.377 . S
C435 H459 0.949 . S
H436 C440 0.949 . S
C437 C438 1.337 1_565 S
C437 C439 1.327 . S
C437 H460 0.950 . S
C438 C437 1.337 1_545 S
C438 C450 1.360 . S
C439 C437 1.327 . S
C439 C455 1.429 1_565 S
C439 H461 0.950 . S
C440 H436 0.949 . S
C440 C448 1.574 . S
C440 C456 1.372 1_544 S
H441 C449 0.950 . S
H442 C447 0.950 . S
H443 C448 0.949 . S
H444 C450 0.950 . S
H445 C451 0.950 . S
H446 C452 0.949 . S
C447 H442 0.950 . S
C447 C449 1.327 . S
C447 C453 1.443 . S
C448 C440 1.574 . S
C448 H443 0.949 . S
C448 C454 1.360 1_545 S
C449 C433 1.376 . S
C449 H441 0.950 . S
C449 C447 1.327 . S
C450 C438 1.360 . S
C450 H444 0.950 . S
C450 C451 1.327 . S
C451 H445 0.950 . S
C451 C450 1.327 . S
C451 C455 1.428 . S
C452 C435 1.574 1_556 S
C452 H446 0.949 . S
C452 C456 1.365 . S
C453 C434 1.415 1_565 S
C453 C447 1.443 . S
C453 C454 1.523 . S
C454 C435 1.377 . S
C454 C448 1.360 1_565 S
C454 C453 1.523 . S
C455 C439 1.429 1_545 S
C455 C451 1.428 . S
C455 C456 1.523 1_545 S
C456 C440 1.372 1_566 S
C456 C452 1.365 . S
C456 C455 1.523 1_565 S
H457 C432 0.950 . S
H458 C434 0.950 . S
H459 C435 0.949 . S
H460 C437 0.950 . S
H461 C439 0.950 . S
C462 C463 1.349 . S
C462 C464 1.327 . S
C462 H487 0.950 . S
C463 C462 1.349 . S
C463 C479 1.349 . S
C464 C462 1.327 . S
C464 C483 1.429 . S
C464 H488 0.950 . S
C465 C482 1.574 . S
C465 C484 1.368 . S
C465 H489 0.949 . S
H466 C470 0.949 . S
C467 C468 1.349 . S
C467 C469 1.327 . S
C467 H490 0.950 . S
C468 C467 1.349 . S
C468 C480 1.349 . S
C469 C467 1.327 . S
C469 C485 1.429 . S
C469 H491 0.950 . S
C470 H466 0.949 . S
C470 C478 1.574 1_556 S
C470 C486 1.368 . S
H471 C479 0.950 . S
H472 C477 0.950 . S
H473 C478 0.949 1_556 S
H474 C480 0.950 . S
H475 C481 0.950 . S
H476 C482 0.949 . S
C477 H472 0.950 . S
C477 C479 1.327 . S
C477 C483 1.429 . S
C478 C470 1.574 1_554 S
C478 H473 0.949 1_554 S
C478 C484 1.368 . S
C479 C463 1.349 . S
C479 H471 0.950 . S
C479 C477 1.327 . S
C480 C468 1.349 . S
C480 H474 0.950 . S
C480 C481 1.327 . S
C481 H475 0.950 . S
C481 C480 1.327 . S
C481 C485 1.429 . S
C482 C465 1.574 . S
C482 H476 0.949 . S
C482 C486 1.368 1_554 S
C483 C464 1.429 . S
C483 C477 1.429 . S
C483 C484 1.523 . S
C484 C465 1.368 . S
C484 C478 1.368 . S
C484 C483 1.523 . S
C485 C469 1.429 . S
C485 C481 1.429 . S
C485 C486 1.523 . S
C486 C470 1.368 . S
C486 C482 1.368 1_556 S
C486 C485 1.523 . S
H487 C462 0.950 . S
H488 C464 0.950 . S
H489 C465 0.949 . S
H490 C467 0.950 . S
H491 C469 0.950 . S
C492 C493 1.349 . S
C492 C494 1.327 . S
C492 H517 0.950 . S
C493 C492 1.349 . S
C493 C509 1.349 . S
C494 C492 1.327 . S
C494 C513 1.429 . S
C494 H518 0.950 . S
C495 C512 1.574 . S
C495 C514 1.368 . S
C495 H519 0.949 . S
H496 C500 0.949 . S
C497 C498 1.349 . S
C497 C499 1.327 . S
C497 H520 0.950 . S
C498 C497 1.349 . S
C498 C510 1.349 . S
C499 C497 1.327 . S
C499 C515 1.429 . S
C499 H521 0.950 . S
C500 H496 0.949 . S
C500 C508 1.574 1_556 S
C500 C516 1.368 . S
H501 C509 0.950 . S
H502 C507 0.950 . S
H503 C508 0.949 . S
H504 C510 0.950 . S
H505 C511 0.950 . S
H506 C512 0.949 . S
C507 H502 0.950 . S
C507 C509 1.327 . S
C507 C513 1.429 . S
C508 C500 1.574 1_554 S
C508 H503 0.949 . S
C508 C514 1.368 . S
C509 C493 1.349 . S
C509 H501 0.950 . S
C509 C507 1.327 . S
C510 C498 1.349 . S
C510 H504 0.950 . S
C510 C511 1.327 . S
C511 H505 0.950 . S
C511 C510 1.327 . S
C511 C515 1.429 . S
C512 C495 1.574 . S
C512 H506 0.949 . S
C512 C516 1.368 1_554 S
C513 C494 1.429 . S
C513 C507 1.429 . S
C513 C514 1.523 . S
C514 C495 1.368 . S
C514 C508 1.368 . S
C514 C513 1.523 . S
C515 C499 1.429 . S
C515 C511 1.429 . S
C515 C516 1.523 . S
C516 C500 1.368 . S
C516 C512 1.368 1_556 S
C516 C515 1.523 . S
H517 C492 0.950 . S
H518 C494 0.950 . S
H519 C495 0.949 . S
H520 C497 0.950 . S
H521 C499 0.950 . S
C522 C523 1.366 . S
C522 C524 1.327 . S
C522 H547 0.950 . S
C523 C522 1.366 . S
C523 C539 1.332 1_655 S
C524 C522 1.327 . S
C524 C543 1.435 . S
C524 H548 0.950 . S
C525 C542 1.574 . S
C525 C544 1.367 1_455 S
C525 H549 0.949 . S
H526 C530 0.949 . S
C527 C528 1.365 . S
C527 C529 1.327 . S
C527 H550 0.950 . S
C528 C527 1.365 . S
C528 C540 1.333 1_455 S
C529 C527 1.327 . S
C529 C545 1.434 . S
C529 H551 0.950 . S
C530 H526 0.949 . S
C530 C538 1.574 1_556 S
C530 C546 1.368 1_655 S
H531 C539 0.950 . S
H532 C537 0.950 . S
H533 C538 0.949 . S
H534 C540 0.950 . S
H535 C541 0.950 . S
H536 C542 0.949 . S
C537 H532 0.950 . S
C537 C539 1.327 . S
C537 C543 1.422 1_455 S
C538 C530 1.574 1_554 S
C538 H533 0.949 . S
C538 C544 1.369 . S
C539 C523 1.332 1_455 S
C539 H531 0.950 . S
C539 C537 1.327 . S
C540 C528 1.333 1_655 S
C540 H534 0.950 . S
C540 C541 1.327 . S
C541 H535 0.950 . S
C541 C540 1.327 . S
C541 C545 1.423 1_655 S
C542 C525 1.574 . S
C542 H536 0.949 . S
C542 C546 1.368 1_554 S
C543 C524 1.435 . S
C543 C537 1.422 1_655 S
C543 C544 1.523 . S
C544 C525 1.367 1_655 S
C544 C538 1.369 . S
C544 C543 1.523 . S
C545 C529 1.434 . S
C545 C541 1.423 1_455 S
C545 C546 1.523 . S
C546 C530 1.368 1_455 S
C546 C542 1.368 1_556 S
C546 C545 1.523 . S
H547 C522 0.950 . S
H548 C524 0.950 . S
H549 C525 0.949 . S
H550 C527 0.950 . S
H551 C529 0.950 . S
C552 C553 1.349 . S
C552 C554 1.327 . S
C552 H577 0.950 1_554 S
C553 C552 1.349 . S
C553 C569 1.349 1_455 S
C554 C552 1.327 . S
C554 C573 1.429 1_455 S
C554 H578 0.950 . S
C555 C572 1.574 . S
C555 C574 1.368 . S
C555 H579 0.949 . S
H556 C560 0.952 . S
C557 C558 1.349 . S
C557 C559 1.327 . S
C557 H580 0.950 . S
C558 C557 1.349 . S
C558 C570 1.349 . S
C559 C557 1.327 . S
C559 C575 1.429 . S
C559 H581 0.950 . S
C560 H556 0.952 . S
C560 C568 1.569 1_655 S
C560 C576 1.368 . S
H561 C569 0.950 . S
H562 C567 0.950 . S
H563 C568 0.961 . S
H564 C570 0.950 . S
H565 C571 0.950 . S
H566 C572 0.949 . S
C567 H562 0.950 . S
C567 C569 1.327 . S
C567 C573 1.429 . S
C568 C560 1.569 1_455 S
C568 H563 0.961 . S
C568 C574 1.361 1_455 S
C569 C553 1.349 1_655 S
C569 H561 0.950 . S
C569 C567 1.327 . S
C570 C558 1.349 . S
C570 H564 0.950 . S
C570 C571 1.327 . S
C571 H565 0.950 . S
C571 C570 1.327 . S
C571 C575 1.429 . S
C572 C555 1.574 . S
C572 H566 0.949 . S
C572 C576 1.368 . S
C573 C554 1.429 1_655 S
C573 C567 1.429 . S
C573 C574 1.523 . S
C574 C555 1.368 . S
C574 C568 1.361 1_655 S
C574 C573 1.523 . S
C575 C559 1.429 . S
C575 C571 1.429 . S
C575 C576 1.523 . S
C576 C560 1.368 . S
C576 C572 1.368 . S
C576 C575 1.523 . S
H577 C552 0.950 1_556 S
H578 C554 0.950 . S
H579 C555 0.949 . S
H580 C557 0.950 . S
H581 C559 0.950 . S
C582 C583 1.349 1_565 S
C582 C584 1.327 . S
C582 H607 0.950 1_554 S
C583 C582 1.349 1_545 S
C583 C599 1.349 . S
C584 C582 1.327 . S
C584 C603 1.429 . S
C584 H608 0.950 . S
C585 C602 1.579 . S
C585 C604 1.368 1_545 S
C585 H609 0.949 . S
H586 C590 0.949 . S
C587 C588 1.349 . S
C587 C589 1.327 . S
C587 H610 0.950 . S
C588 C587 1.349 . S
C588 C600 1.349 . S
C589 C587 1.327 . S
C589 C605 1.429 . S
C589 H611 0.950 1_565 S
C590 H586 0.949 . S
C590 C598 1.574 . S
C590 C606 1.368 . S
H591 C599 0.950 . S
H592 C597 0.950 . S
H593 C598 0.949 . S
H594 C600 0.950 . S
H595 C601 0.950 . S
H596 C602 0.961 . S
C597 H592 0.950 . S
C597 C599 1.327 . S
C597 C603 1.429 1_545 S
C598 C590 1.574 . S
C598 H593 0.949 . S
C598 C604 1.368 . S
C599 C583 1.349 . S
C599 H591 0.950 . S
C599 C597 1.327 . S
C600 C588 1.349 . S
C600 H594 0.950 . S
C600 C601 1.327 . S
C601 H595 0.950 . S
C601 C600 1.327 . S
C601 C605 1.429 . S
C602 C585 1.579 . S
C602 H596 0.961 . S
C602 C606 1.351 1_545 S
C603 C584 1.429 . S
C603 C597 1.429 1_565 S
C603 C604 1.523 . S
C604 C585 1.368 1_565 S
C604 C598 1.368 . S
C604 C603 1.523 . S
C605 C589 1.429 . S
C605 C601 1.429 . S
C605 C606 1.523 . S
C606 C590 1.368 . S
C606 C602 1.351 1_565 S
C606 C605 1.523 . S
H607 C582 0.950 1_556 S
H608 C584 0.950 . S
H609 C585 0.949 . S
H610 C587 0.950 . S
H611 C589 0.950 1_545 S
C612 C613 1.349 . S
C612 C614 1.327 . S
C612 H637 0.950 . S
C613 C612 1.349 . S
C613 C629 1.349 . S
C614 C612 1.327 . S
C614 C633 1.429 . S
C614 H638 0.950 . S
C615 C632 1.574 . S
C615 C634 1.368 . S
C615 H639 0.949 . S
H616 C620 0.949 . S
C617 C618 1.349 . S
C617 C619 1.327 . S
C617 H640 0.950 . S
C618 C617 1.349 . S
C618 C630 1.349 . S
C619 C617 1.327 . S
C619 C635 1.429 . S
C619 H641 0.950 . S
C620 H616 0.949 . S
C620 C628 1.574 . S
C620 C636 1.368 . S
H621 C629 0.950 . S
H622 C627 0.950 . S
H623 C628 0.949 . S
H624 C630 0.950 . S
H625 C631 0.950 . S
H626 C632 0.949 . S
C627 H622 0.950 . S
C627 C629 1.327 . S
C627 C633 1.429 . S
C628 C620 1.574 . S
C628 H623 0.949 . S
C628 C634 1.368 . S
C629 C613 1.349 . S
C629 H621 0.950 . S
C629 C627 1.327 . S
C630 C618 1.349 . S
C630 H624 0.950 . S
C630 C631 1.327 . S
C631 H625 0.950 . S
C631 C630 1.327 . S
C631 C635 1.429 . S
C632 C615 1.574 . S
C632 H626 0.949 . S
C632 C636 1.368 . S
C633 C614 1.429 . S
C633 C627 1.429 . S
C633 C634 1.523 . S
C634 C615 1.368 . S
C634 C628 1.368 . S
C634 C633 1.523 . S
C635 C619 1.429 . S
C635 C631 1.429 . S
C635 C636 1.523 . S
C636 C620 1.368 . S
C636 C632 1.368 . S
C636 C635 1.523 . S
H637 C612 0.950 . S
H638 C614 0.950 . S
H639 C615 0.949 . S
H640 C617 0.950 . S
H641 C619 0.950 . S
C642 C643 1.349 . S
C642 C644 1.327 . S
C642 H667 0.950 1_554 S
C643 C642 1.349 . S
C643 C659 1.349 . S
C644 C642 1.327 . S
C644 C663 1.429 . S
C644 H668 0.950 . S
C645 C662 1.574 . S
C645 C664 1.368 . S
C645 H669 0.949 . S
H646 C650 0.949 . S
C647 C648 1.349 . S
C647 C649 1.327 . S
C647 H670 0.950 . S
C648 C647 1.349 . S
C648 C660 1.349 . S
C649 C647 1.327 . S
C649 C665 1.429 . S
C649 H671 0.950 . S
C650 H646 0.949 . S
C650 C658 1.574 . S
C650 C666 1.368 . S
H651 C659 0.950 . S
H652 C657 0.950 . S
H653 C658 0.949 . S
H654 C660 0.950 . S
H655 C661 0.950 . S
H656 C662 0.949 . S
C657 H652 0.950 . S
C657 C659 1.327 . S
C657 C663 1.429 . S
C658 C650 1.574 . S
C658 H653 0.949 . S
C658 C664 1.368 . S
C659 C643 1.349 . S
C659 H651 0.950 . S
C659 C657 1.327 . S
C660 C648 1.349 . S
C660 H654 0.950 . S
C660 C661 1.327 . S
C661 H655 0.950 . S
C661 C660 1.327 . S
C661 C665 1.429 . S
C662 C645 1.574 . S
C662 H656 0.949 . S
C662 C666 1.368 . S
C663 C644 1.429 . S
C663 C657 1.429 . S
C663 C664 1.523 . S
C664 C645 1.368 . S
C664 C658 1.368 . S
C664 C663 1.523 . S
C665 C649 1.429 . S
C665 C661 1.429 . S
C665 C666 1.523 . S
C666 C650 1.368 . S
C666 C662 1.368 . S
C666 C665 1.523 . S
H667 C642 0.950 1_556 S
H668 C644 0.950 . S
H669 C645 0.949 . S
H670 C647 0.950 . S
H671 C649 0.950 . S
C672 C673 1.349 1_455 S
C672 C674 1.327 . S
C672 H697 0.950 . S
C673 C672 1.349 1_655 S
C673 C689 1.349 . S
C674 C672 1.327 . S
C674 C693 1.429 . S
C674 H698 0.950 . S
C675 C692 1.574 . S
C675 C694 1.368 1_655 S
C675 H699 0.949 . S
H676 C680 0.949 . S
C677 C678 1.349 . S
C677 C679 1.327 . S
C677 H700 0.962 . S
C678 C677 1.349 . S
C678 C690 1.349 1_556 S
C679 C677 1.327 . S
C679 C695 1.429 1_556 S
C679 H701 0.950 1_455 S
C680 H676 0.949 . S
C680 C688 1.574 . S
C680 C696 1.368 . S
H681 C689 0.950 . S
H682 C687 0.950 . S
H683 C688 0.949 . S
H684 C690 0.950 . S
H685 C691 0.950 . S
H686 C692 0.949 . S
C687 H682 0.950 . S
C687 C689 1.327 . S
C687 C693 1.429 1_655 S
C688 C680 1.574 . S
C688 H683 0.949 . S
C688 C694 1.368 . S
C689 C673 1.349 . S
C689 H681 0.950 . S
C689 C687 1.327 . S
C690 C678 1.349 1_554 S
C690 H684 0.950 . S
C690 C691 1.327 . S
C691 H685 0.950 . S
C691 C690 1.327 . S
C691 C695 1.429 . S
C692 C675 1.574 . S
C692 H686 0.949 . S
C692 C696 1.368 1_655 S
C693 C674 1.429 . S
C693 C687 1.429 1_455 S
C693 C694 1.523 . S
C694 C675 1.368 1_455 S
C694 C688 1.368 . S
C694 C693 1.523 . S
C695 C679 1.429 1_554 S
C695 C691 1.429 . S
C695 C696 1.523 . S
C696 C680 1.368 . S
C696 C692 1.368 1_455 S
C696 C695 1.523 . S
H697 C672 0.950 . S
H698 C674 0.950 . S
H699 C675 0.949 . S
H700 C677 0.962 . S
H701 C679 0.950 1_655 S
C702 C703 1.349 . S
C702 C704 1.327 . S
C702 H727 0.950 . S
C703 C702 1.349 . S
C703 C719 1.349 1_565 S
C704 C702 1.327 . S
C704 C723 1.429 1_565 S
C704 H728 0.950 . S
C705 C722 1.574 . S
C705 C724 1.368 . S
C705 H729 0.949 . S
H706 C710 0.949 . S
C707 C708 1.349 . S
C707 C709 1.327 1_556 S
C707 H730 0.950 . S
C708 C707 1.349 . S
C708 C720 1.349 1_556 S
C709 C707 1.327 1_554 S
C709 C725 1.429 . S
C709 H731 0.950 . S
C710 H706 0.949 . S
C710 C718 1.574 . S
C710 C726 1.368 1_565 S
H711 C719 0.950 . S
H712 C717 0.950 . S
H713 C718 0.949 . S
H714 C720 0.950 1_565 S
H715 C721 0.950 1_565 S
H716 C722 0.949 . S
C717 H712 0.950 . S
C717 C719 1.327 . S
C717 C723 1.429 . S
C718 C710 1.574 . S
C718 H713 0.949 . S
C718 C724 1.368 1_565 S
C719 C703 1.349 1_545 S
C719 H711 0.950 . S
C719 C717 1.327 . S
C720 C708 1.349 1_554 S
C720 H714 0.950 1_545 S
C720 C721 1.327 . S
C721 H715 0.950 1_545 S
C721 C720 1.327 . S
C721 C725 1.429 . S
C722 C705 1.574 . S
C722 H716 0.949 . S
C722 C726 1.368 . S
C723 C704 1.429 1_545 S
C723 C717 1.429 . S
C723 C724 1.523 . S
C724 C705 1.368 . S
C724 C718 1.368 1_545 S
C724 C723 1.523 . S
C725 C709 1.429 . S
C725 C721 1.429 . S
C725 C726 1.523 . S
C726 C710 1.368 1_545 S
C726 C722 1.368 . S
C726 C725 1.523 . S
H727 C702 0.950 . S
H728 C704 0.950 . S
H729 C705 0.949 . S
H730 C707 0.950 . S
H731 C709 0.950 . S
C732 C733 1.349 . S
C732 C734 1.327 . S
C732 H757 0.950 . S
C733 C732 1.349 . S
C733 C749 1.349 . S
C734 C732 1.327 . S
C734 C753 1.429 . S
C734 H758 0.950 . S
C735 C752 1.574 . S
C735 C754 1.368 . S
C735 H759 0.949 . S
H736 C740 0.949 . S
C737 C738 1.349 . S
C737 C739 1.327 . S
C737 H760 0.950 . S
C738 C737 1.349 . S
C738 C750 1.349 1_556 S
C739 C737 1.327 . S
C739 C755 1.429 1_556 S
C739 H761 0.950 . S
C740 H736 0.949 . S
C740 C748 1.574 . S
C740 C756 1.368 . S
H741 C749 0.950 . S
H742 C747 0.950 . S
H743 C748 0.949 . S
H744 C750 0.950 . S
H745 C751 0.950 . S
H746 C752 0.949 . S
C747 H742 0.950 . S
C747 C749 1.327 . S
C747 C753 1.429 . S
C748 C740 1.574 . S
C748 H743 0.949 . S
C748 C754 1.368 . S
C749 C733 1.349 . S
C749 H741 0.950 . S
C749 C747 1.327 . S
C750 C738 1.349 1_554 S
C750 H744 0.950 . S
C750 C751 1.327 . S
C751 H745 0.950 . S
C751 C750 1.327 . S
C751 C755 1.429 . S
C752 C735 1.574 . S
C752 H746 0.949 . S
C752 C756 1.368 . S
C753 C734 1.429 . S
C753 C747 1.429 . S
C753 C754 1.523 . S
C754 C735 1.368 . S
C754 C748 1.368 . S
C754 C753 1.523 . S
C755 C739 1.429 1_554 S
C755 C751 1.429 . S
C755 C756 1.523 . S
C756 C740 1.368 . S
C756 C752 1.368 . S
C756 C755 1.523 . S
H757 C732 0.950 . S
H758 C734 0.950 . S
H759 C735 0.949 . S
H760 C737 0.950 . S
H761 C739 0.950 . S
C762 C763 1.349 . S
C762 C764 1.327 . S
C762 H787 0.950 . S
C763 C762 1.349 . S
C763 C779 1.349 . S
C764 C762 1.327 . S
C764 C783 1.429 . S
C764 H788 0.950 . S
C765 C782 1.574 . S
C765 C784 1.368 . S
C765 H789 0.949 . S
H766 C770 0.949 . S
C767 C768 1.349 1_554 S
C767 C769 1.327 . S
C767 H790 0.950 1_554 S
C768 C767 1.349 1_556 S
C768 C780 1.349 . S
C769 C767 1.327 . S
C769 C785 1.429 . S
C769 H791 0.950 . S
C770 H766 0.949 . S
C770 C778 1.574 . S
C770 C786 1.368 . S
H771 C779 0.950 . S
H772 C777 0.950 . S
H773 C778 0.949 . S
H774 C780 0.950 . S
H775 C781 0.950 . S
H776 C782 0.949 . S
C777 H772 0.950 . S
C777 C779 1.327 . S
C777 C783 1.429 . S
C778 C770 1.574 . S
C778 H773 0.949 . S
C778 C784 1.368 . S
C779 C763 1.349 . S
C779 H771 0.950 . S
C779 C777 1.327 . S
C780 C768 1.349 . S
C780 H774 0.950 . S
C780 C781 1.327 1_556 S
C781 H775 0.950 . S
C781 C780 1.327 1_554 S
C781 C785 1.429 . S
C782 C765 1.574 . S
C782 H776 0.949 . S
C782 C786 1.368 . S
C783 C764 1.429 . S
C783 C777 1.429 . S
C783 C784 1.523 . S
C784 C765 1.368 . S
C784 C778 1.368 . S
C784 C783 1.523 . S
C785 C769 1.429 . S
C785 C781 1.429 . S
C785 C786 1.523 . S
C786 C770 1.368 . S
C786 C782 1.368 . S
C786 C785 1.523 . S
H787 C762 0.950 . S
H788 C764 0.950 . S
H789 C765 0.949 . S
H790 C767 0.950 1_556 S
H791 C769 0.950 . S
C792 C793 1.349 . S
C792 C794 1.327 . S
C792 H817 0.950 . S
C793 C792 1.349 . S
C793 C809 1.349 1_455 S
C794 C792 1.327 . S
C794 C813 1.429 . S
C794 H818 0.950 . S
C795 C812 1.574 . S
C795 C814 1.368 1_655 S
C795 H819 0.949 . S
H796 C800 0.949 . S
C797 C798 1.349 1_655 S
C797 C799 1.327 . S
C797 H820 0.950 . S
C798 C797 1.349 1_455 S
C798 C810 1.349 . S
C799 C797 1.327 . S
C799 C815 1.429 1_655 S
C799 H821 0.950 . S
C800 H796 0.949 . S
C800 C808 1.574 . S
C800 C816 1.368 . S
H801 C809 0.950 . S
H802 C807 0.950 . S
H803 C808 0.949 . S
H804 C810 0.950 . S
H805 C811 0.950 . S
H806 C812 0.949 . S
C807 H802 0.950 . S
C807 C809 1.327 . S
C807 C813 1.429 1_655 S
C808 C800 1.574 . S
C808 H803 0.949 . S
C808 C814 1.368 . S
C809 C793 1.349 1_655 S
C809 H801 0.950 . S
C809 C807 1.327 . S
C810 C798 1.349 . S
C810 H804 0.950 . S
C810 C811 1.327 . S
C811 H805 0.950 . S
C811 C810 1.327 . S
C811 C815 1.429 . S
C812 C795 1.574 . S
C812 H806 0.949 . S
C812 C816 1.368 1_655 S
C813 C794 1.429 . S
C813 C807 1.429 1_455 S
C813 C814 1.523 . S
C814 C795 1.368 1_455 S
C814 C808 1.368 . S
C814 C813 1.523 . S
C815 C799 1.429 1_455 S
C815 C811 1.429 . S
C815 C816 1.523 . S
C816 C800 1.368 . S
C816 C812 1.368 1_455 S
C816 C815 1.523 . S
H817 C792 0.950 . S
H818 C794 0.950 . S
H819 C795 0.949 . S
H820 C797 0.950 . S
H821 C799 0.950 . S
C822 C823 1.349 . S
C822 C824 1.327 . S
C822 H847 0.950 . S
C823 C822 1.349 . S
C823 C839 1.349 1_545 S
C824 C822 1.327 . S
C824 C843 1.429 . S
C824 H848 0.950 . S
C825 C842 1.573 . S
C825 C844 1.349 1_565 S
C825 H849 0.970 . S
H826 C830 0.949 . S
C827 C828 1.349 . S
C827 C829 1.327 . S
C827 H850 0.950 1_545 S
C828 C827 1.349 . S
C828 C840 1.349 . S
C829 C827 1.327 . S
C829 C845 1.429 . S
C829 H851 0.950 1_545 S
C830 H826 0.949 . S
C830 C838 1.574 . S
C830 C846 1.368 . S
H831 C839 0.950 . S
H832 C837 0.950 . S
H833 C838 0.949 . S
H834 C840 0.950 . S
H835 C841 0.950 . S
H836 C842 0.950 . S
C837 H832 0.950 . S
C837 C839 1.327 . S
C837 C843 1.429 1_565 S
C838 C830 1.574 . S
C838 H833 0.949 . S
C838 C844 1.368 . S
C839 C823 1.349 1_565 S
C839 H831 0.950 . S
C839 C837 1.327 . S
C840 C828 1.349 . S
C840 H834 0.950 . S
C840 C841 1.327 . S
C841 H835 0.950 . S
C841 C840 1.327 . S
C841 C845 1.429 . S
C842 C825 1.573 . S
C842 H836 0.950 . S
C842 C846 1.367 1_565 S
C843 C824 1.429 . S
C843 C837 1.429 1_545 S
C843 C844 1.523 . S
C844 C825 1.349 1_545 S
C844 C838 1.368 . S
C844 C843 1.523 . S
C845 C829 1.429 . S
C845 C841 1.429 . S
C845 C846 1.523 . S
C846 C830 1.368 . S
C846 C842 1.367 1_545 S
C846 C845 1.523 . S
H847 C822 0.950 . S
H848 C824 0.950 . S
H849 C825 0.970 . S
H850 C827 0.950 1_565 S
H851 C829 0.950 1_565 S
C852 C853 1.349 . S
C852 C854 1.327 . S
C852 H877 0.950 . S
C853 C852 1.349 . S
C853 C869 1.349 . S
C854 C852 1.327 . S
C854 C873 1.429 . S
C854 H878 0.950 . S
C855 C872 1.574 . S
C855 C874 1.368 . S
C855 H879 0.949 . S
H856 C860 0.949 . S
C857 C858 1.349 . S
C857 C859 1.327 . S
C857 H880 0.950 . S
C858 C857 1.349 . S
C858 C870 1.349 . S
C859 C857 1.327 . S
C859 C875 1.429 . S
C859 H881 0.950 . S
C860 H856 0.949 . S
C860 C868 1.574 . S
C860 C876 1.368 . S
H861 C869 0.950 . S
H862 C867 0.950 . S
H863 C868 0.949 . S
H864 C870 0.950 . S
H865 C871 0.950 . S
H866 C872 0.949 . S
C867 H862 0.950 . S
C867 C869 1.327 . S
C867 C873 1.429 . S
C868 C860 1.574 . S
C868 H863 0.949 . S
C868 C874 1.368 . S
C869 C853 1.349 . S
C869 H861 0.950 . S
C869 C867 1.327 . S
C870 C858 1.349 . S
C870 H864 0.950 . S
C870 C871 1.327 . S
C871 H865 0.950 . S
C871 C870 1.327 . S
C871 C875 1.429 . S
C872 C855 1.574 . S
C872 H866 0.949 . S
C872 C876 1.368 . S
C873 C854 1.429 . S
C873 C867 1.429 . S
C873 C874 1.523 . S
C874 C855 1.368 . S
C874 C868 1.368 . S
C874 C873 1.523 . S
C875 C859 1.429 . S
C875 C871 1.429 . S
C875 C876 1.523 . S
C876 C860 1.368 . S
C876 C872 1.368 . S
C876 C875 1.523 . S
H877 C852 0.950 . S
H878 C854 0.950 . S
H879 C855 0.949 . S
H880 C857 0.950 . S
H881 C859 0.950 . S
C882 C883 1.349 . S
C882 C884 1.327 . S
C882 H907 0.950 . S
C883 C882 1.349 . S
C883 C899 1.349 . S
C884 C882 1.327 . S
C884 C903 1.429 . S
C884 H908 0.950 . S
C885 C902 1.574 . S
C885 C904 1.368 . S
C885 H909 0.949 . S
H886 C890 0.949 . S
C887 C888 1.349 . S
C887 C889 1.327 . S
C887 H910 0.950 . S
C888 C887 1.349 . S
C888 C900 1.349 . S
C889 C887 1.327 . S
C889 C905 1.429 . S
C889 H911 0.950 . S
C890 H886 0.949 . S
C890 C898 1.574 . S
C890 C906 1.368 . S
H891 C899 0.950 . S
H892 C897 0.950 . S
H893 C898 0.949 . S
H894 C900 0.950 . S
H895 C901 0.950 . S
H896 C902 0.949 . S
C897 H892 0.950 . S
C897 C899 1.327 . S
C897 C903 1.429 . S
C898 C890 1.574 . S
C898 H893 0.949 . S
C898 C904 1.368 . S
C899 C883 1.349 . S
C899 H891 0.950 . S
C899 C897 1.327 . S
C900 C888 1.349 . S
C900 H894 0.950 . S
C900 C901 1.327 . S
C901 H895 0.950 . S
C901 C900 1.327 . S
C901 C905 1.429 . S
C902 C885 1.574 . S
C902 H896 0.949 . S
C902 C906 1.368 . S
C903 C884 1.429 . S
C903 C897 1.429 . S
C903 C904 1.523 . S
C904 C885 1.368 . S
C904 C898 1.368 . S
C904 C903 1.523 . S
C905 C889 1.429 . S
C905 C901 1.429 . S
C905 C906 1.523 . S
C906 C890 1.368 . S
C906 C902 1.368 . S
C906 C905 1.523 . S
H907 C882 0.950 . S
H908 C884 0.950 . S
H909 C885 0.949 . S
H910 C887 0.950 . S
H911 C889 0.950 . S
C912 C913 1.349 1_455 S
C912 C914 1.327 . S
C912 H937 0.950 . S
C913 C912 1.349 1_655 S
C913 C929 1.349 . S
C914 C912 1.327 . S
C914 C933 1.429 1_455 S
C914 H938 0.950 . S
C915 C932 1.574 . S
C915 C934 1.368 . S
C915 H939 0.949 . S
H916 C920 0.949 . S
C917 C918 1.349 . S
C917 C919 1.327 . S
C917 H940 0.950 . S
C918 C917 1.349 . S
C918 C930 1.349 1_655 S
C919 C917 1.327 . S
C919 C935 1.429 . S
C919 H941 0.950 . S
C920 H916 0.949 . S
C920 C928 1.574 . S
C920 C936 1.368 1_455 S
H921 C929 0.950 . S
H922 C927 0.950 . S
H923 C928 0.949 . S
H924 C930 0.950 . S
H925 C931 0.950 . S
H926 C932 0.949 . S
C927 H922 0.950 . S
C927 C929 1.327 . S
C927 C933 1.429 . S
C928 C920 1.574 . S
C928 H923 0.949 . S
C928 C934 1.368 1_455 S
C929 C913 1.349 . S
C929 H921 0.950 . S
C929 C927 1.327 . S
C930 C918 1.349 1_455 S
C930 H924 0.950 . S
C930 C931 1.327 . S
C931 H925 0.950 . S
C931 C930 1.327 . S
C931 C935 1.429 1_455 S
C932 C915 1.574 . S
C932 H926 0.949 . S
C932 C936 1.368 . S
C933 C914 1.429 1_655 S
C933 C927 1.429 . S
C933 C934 1.523 . S
C934 C915 1.368 . S
C934 C928 1.368 1_655 S
C934 C933 1.523 . S
C935 C919 1.429 . S
C935 C931 1.429 1_655 S
C935 C936 1.523 . S
C936 C920 1.368 1_655 S
C936 C932 1.368 . S
C936 C935 1.523 . S
H937 C912 0.950 . S
H938 C914 0.950 . S
H939 C915 0.949 . S
H940 C917 0.950 . S
H941 C919 0.950 . S
C942 C943 1.349 1_545 S
C942 C944 1.327 . S
C942 H967 0.950 . S
C943 C942 1.349 1_565 S
C943 C959 1.349 . S
C944 C942 1.327 . S
C944 C963 1.429 1_545 S
C944 H968 0.950 . S
C945 C962 1.574 . S
C945 C964 1.368 . S
C945 H969 0.949 . S
H946 C950 0.949 . S
C947 C948 1.349 . S
C947 C949 1.327 . S
C947 H970 0.950 . S
C948 C947 1.349 . S
C948 C960 1.349 1_565 S
C949 C947 1.327 . S
C949 C965 1.429 . S
C949 H971 0.950 . S
C950 H946 0.949 . S
C950 C958 1.574 . S
C950 C966 1.368 1_545 S
H951 C959 0.950 . S
H952 C957 0.950 . S
H953 C958 0.949 . S
H954 C960 0.950 . S
H955 C961 0.950 . S
H956 C962 0.949 . S
C957 H952 0.950 . S
C957 C959 1.327 . S
C957 C963 1.429 . S
C958 C950 1.574 . S
C958 H953 0.949 . S
C958 C964 1.368 1_545 S
C959 C943 1.349 . S
C959 H951 0.950 . S
C959 C957 1.327 . S
C960 C948 1.349 1_545 S
C960 H954 0.950 . S
C960 C961 1.327 . S
C961 H955 0.950 . S
C961 C960 1.327 . S
C961 C965 1.429 1_545 S
C962 C945 1.574 . S
C962 H956 0.949 . S
C962 C966 1.368 . S
C963 C944 1.429 1_565 S
C963 C957 1.429 . S
C963 C964 1.523 . S
C964 C945 1.368 . S
C964 C958 1.368 1_565 S
C964 C963 1.523 . S
C965 C949 1.429 . S
C965 C961 1.429 1_565 S
C965 C966 1.523 . S
C966 C950 1.368 1_565 S
C966 C962 1.368 . S
C966 C965 1.523 . S
H967 C942 0.950 . S
H968 C944 0.950 . S
H969 C945 0.949 . S
H970 C947 0.950 . S
H971 C949 0.950 . S
C972 C973 1.349 . S
C972 C974 1.327 . S
C972 H997 0.950 . S
C973 C972 1.349 . S
C973 C989 1.349 . S
C974 C972 1.327 . S
C974 C993 1.429 . S
C974 H998 0.950 . S
C975 C992 1.574 . S
C975 C994 1.368 . S
C975 H999 0.949 . S
H976 C980 0.949 . S
C977 C978 1.349 . S
C977 C979 1.327 . S
C977 H1000 0.950 . S
C978 C977 1.349 . S
C978 C990 1.349 . S
C979 C977 1.327 . S
C979 C995 1.429 . S
C979 H1001 0.950 . S
C980 H976 0.949 . S
C980 C988 1.574 . S
C980 C996 1.368 . S
H981 C989 0.950 . S
H982 C987 0.950 . S
H983 C988 0.949 . S
H984 C990 0.950 . S
H985 C991 0.950 . S
H986 C992 0.949 . S
C987 H982 0.950 . S
C987 C989 1.327 . S
C987 C993 1.429 . S
C988 C980 1.574 . S
C988 H983 0.949 . S
C988 C994 1.368 . S
C989 C973 1.349 . S
C989 H981 0.950 . S
C989 C987 1.327 . S
C990 C978 1.349 . S
C990 H984 0.950 . S
C990 C991 1.327 . S
C991 H985 0.950 . S
C991 C990 1.327 . S
C991 C995 1.429 . S
C992 C975 1.574 . S
C992 H986 0.949 . S
C992 C996 1.368 . S
C993 C974 1.429 . S
C993 C987 1.429 . S
C993 C994 1.523 . S
C994 C975 1.368 . S
C994 C988 1.368 . S
C994 C993 1.523 . S
C995 C979 1.429 . S
C995 C991 1.429 . S
C995 C996 1.523 . S
C996 C980 1.368 . S
C996 C992 1.368 . S
C996 C995 1.523 . S
H997 C972 0.950 . S
H998 C974 0.950 . S
H999 C975 0.949 . S
H1000 C977 0.950 . S
H1001 C979 0.950 . S
C1002 C1003 1.349 . S
C1002 C1004 1.327 . S
C1002 H1027 0.950 . S
C1003 C1002 1.349 . S
C1003 C1019 1.349 . S
C1004 C1002 1.327 . S
C1004 C1023 1.429 . S
C1004 H1028 0.950 . S
C1005 C1022 1.574 . S
C1005 C1024 1.368 . S
C1005 H1029 0.949 . S
H1006 C1010 0.949 . S
C1007 C1008 1.349 . S
C1007 C1009 1.327 . S
C1007 H1030 0.950 . S
C1008 C1007 1.349 . S
C1008 C1020 1.349 . S
C1009 C1007 1.327 . S
C1009 C1025 1.429 . S
C1009 H1031 0.950 . S
C1010 H1006 0.949 . S
C1010 C1018 1.574 . S
C1010 C1026 1.368 . S
H1011 C1019 0.950 . S
H1012 C1017 0.950 . S
H1013 C1018 0.949 . S
H1014 C1020 0.950 . S
H1015 C1021 0.950 . S
H1016 C1022 0.949 . S
C1017 H1012 0.950 . S
C1017 C1019 1.327 . S
C1017 C1023 1.429 . S
C1018 C1010 1.574 . S
C1018 H1013 0.949 . S
C1018 C1024 1.368 . S
C1019 C1003 1.349 . S
C1019 H1011 0.950 . S
C1019 C1017 1.327 . S
C1020 C1008 1.349 . S
C1020 H1014 0.950 . S
C1020 C1021 1.327 . S
C1021 H1015 0.950 . S
C1021 C1020 1.327 . S
C1021 C1025 1.429 . S
C1022 C1005 1.574 . S
C1022 H1016 0.949 . S
C1022 C1026 1.368 . S
C1023 C1004 1.429 . S
C1023 C1017 1.429 . S
C1023 C1024 1.523 . S
C1024 C1005 1.368 . S
C1024 C1018 1.368 . S
C1024 C1023 1.523 . S
C1025 C1009 1.429 . S
C1025 C1021 1.429 . S
C1025 C1026 1.523 . S
C1026 C1010 1.368 . S
C1026 C1022 1.368 . S
C1026 C1025 1.523 . S
H1027 C1002 0.950 . S
H1028 C1004 0.950 . S
H1029 C1005 0.949 . S
H1030 C1007 0.950 . S
H1031 C1009 0.950 . S
C313 C125 1.782 1_545 S
C318 C161 1.835 . S
C348 C201 1.829 . S
C343 C144 1.789 . S
C378 C241 1.829 . S
C373 C87 1.789 . S
C408 C281 1.835 . S
C403 C106 1.782 1_455 S
C438 C170 1.831 . S
C433 C49 1.800 . S
C463 C68 1.791 . S
C468 C210 1.829 . S
C493 C11 1.792 . S
C498 C250 1.829 . S
C523 C30 1.798 . S
C528 C290 1.832 . S
C558 C167 0.367 . S
C553 C97 0.468 . S
C588 C207 0.367 . S
C583 C116 0.468 . S
C618 C247 0.366 . S
C613 C135 0.468 . S
C643 C78 0.468 . S
C648 C287 0.367 . S
C673 C21 0.474 . S
C678 C158 0.367 . S
C708 C198 0.367 . S
C703 C40 0.476 . S
C738 C238 0.367 . S
C733 C59 0.467 . S
C763 C2 0.467 . S
C768 C278 0.367 . S
C793 C101 1.919 . S
C798 C171 2.089 . S
C823 C120 1.919 . S
C828 C211 2.090 . S
C858 C251 2.090 . S
C853 C139 1.920 . S
C888 C291 2.089 . S
C883 C82 1.919 . S
C913 C25 1.920 . S
C918 C162 2.090 . S
C948 C202 2.090 . S
C943 C44 1.920 . S
C978 C242 2.089 . S
C973 C63 1.918 . S
C1003 C6 1.919 . S
C1008 C282 2.090 . S
