# Generated by pormake.
# Topology pth, (4,4)-cn, num edge types: 1
# Building blocks:
#     Node 0, Type 0, BuildingBlock: TATPOV_clean_sbu_0, # of connection points: 4
#     Node 1, Type 0, BuildingBlock: TATPOV_clean_sbu_0, # of connection points: 4
#     Node 2, Type 0, BuildingBlock: TATPOV_clean_sbu_0, # of connection points: 4
#     Node 3, Type 1, BuildingBlock: AZAVOO_clean_linker_0, # of connection points: 4
#     Node 4, Type 1, BuildingBlock: AZAVOO_clean_linker_0, # of connection points: 4
#     Node 5, Type 1, BuildingBlock: AZAVOO_clean_linker_0, # of connection points: 4
#     Edge 6, Type (0, 1), BuildingBlock: XUDNAN_clean_linker_2, # of connection points: 2
#     Edge 7, Type (0, 1), BuildingBlock: XUDNAN_clean_linker_2, # of connection points: 2
#     Edge 8, Type (0, 1), BuildingBlock: XUDNAN_clean_linker_2, # of connection points: 2
#     Edge 9, Type (0, 1), BuildingBlock: XUDNAN_clean_linker_2, # of connection points: 2
#     Edge 10, Type (0, 1), BuildingBlock: XUDNAN_clean_linker_2, # of connection points: 2
#     Edge 11, Type (0, 1), BuildingBlock: XUDNAN_clean_linker_2, # of connection points: 2
#     Edge 12, Type (0, 1), BuildingBlock: XUDNAN_clean_linker_2, # of connection points: 2
#     Edge 13, Type (0, 1), BuildingBlock: XUDNAN_clean_linker_2, # of connection points: 2
#     Edge 14, Type (0, 1), BuildingBlock: XUDNAN_clean_linker_2, # of connection points: 2
#     Edge 15, Type (0, 1), BuildingBlock: XUDNAN_clean_linker_2, # of connection points: 2
#     Edge 16, Type (0, 1), BuildingBlock: XUDNAN_clean_linker_2, # of connection points: 2
#     Edge 17, Type (0, 1), BuildingBlock: XUDNAN_clean_linker_2, # of connection points: 2
# Relax obj value: 0.151
# Max RMSD: 0.230
# Mean RMSD: 0.204
data_MOF--net-pth--node1-TATPOV_clean_sbu_0--node2-AZAVOO_clean_linker_0--edge1-XUDNAN_clean_linker_2
_symmetry_space_group_name_H-M    P1
_symmetry_Int_Tables_number       1
_symmetry_cell_setting            triclinic
loop_
_symmetry_equiv_pos_as_xyz
'x, y, z'
_cell_length_a     26.538065
_cell_length_b     26.352808
_cell_length_c     69.263044
_cell_angle_alpha  94.121668
_cell_angle_beta   91.439994
_cell_angle_gamma 121.31256
loop_
_atom_site_label
_atom_site_type_symbol
_atom_site_fract_x
_atom_site_fract_y
_atom_site_fract_z
_atom_type_partial_charge
Zn0 Zn 0.21591 0.00943 0.05157 0.0
Zn1 Zn 0.18105 0.08446 0.06559 0.0
O2 O 0.16431 0.02778 0.08642 0.0
O3 O 0.18418 0.96088 0.07462 0.0
O4 O 0.16167 0.14292 0.07824 0.0
O5 O 0.30043 0.07899 0.05215 0.0
O6 O 0.26743 0.13846 0.05987 0.0
C7 C 0.1656 0.98072 0.08806 0.0
C8 C 0.12757 0.01367 0.02662 0.0
O9 O 0.12654 0.04687 0.04071 0.0
O10 O 0.16221 0.99415 0.0276 0.0
C11 C 0.12084 0.12735 0.08984 0.0
O12 O 0.08761 0.07079 0.09275 0.0
C13 C 0.30949 0.13118 0.05515 0.0
Zn14 Zn 0.13892 0.04444 0.36479 0.0
Zn15 Zn 0.07242 0.04011 0.39472 0.0
O16 O 0.15686 0.07584 0.40648 0.0
O17 O 0.21412 0.08891 0.38255 0.0
O18 O 0.03324 0.05008 0.41789 0.0
O19 O 0.10951 0.09025 0.35051 0.0
O20 O 0.0588 0.08755 0.37547 0.0
C21 C 0.20798 0.09406 0.40052 0.0
C22 C 0.04505 0.92426 0.37334 0.0
O23 O 0.03009 0.95105 0.38578 0.0
O24 O 0.08932 0.95337 0.36352 0.0
C25 C 0.0039 0.0121 0.42968 0.0
O26 O 0.99404 0.95777 0.42677 0.0
C27 C 0.07508 0.10347 0.35869 0.0
Zn28 Zn 0.14938 0.97541 0.75629 0.0
Zn29 Zn 0.09116 0.0008 0.72946 0.0
O30 O 0.1353 0.96804 0.71406 0.0
O31 O 0.18252 0.94629 0.73538 0.0
O32 O 0.04636 0.01156 0.70787 0.0
O33 O 0.07041 0.92024 0.76723 0.0
O34 O 0.02548 0.94342 0.74559 0.0
C35 C 0.16937 0.94894 0.71795 0.0
C36 C 0.18571 0.1012 0.75759 0.0
O37 O 0.14545 0.08411 0.74395 0.0
O38 O 0.19553 0.06405 0.76483 0.0
C39 C 0.00295 0.0186 0.71025 0.0
O40 O 0.98731 0.02241 0.72789 0.0
C41 C 0.02349 0.91525 0.76001 0.0
H42 H 0.06396 0.51684 0.1068 0.0
H43 H 0.94243 0.7714 0.30843 0.0
H44 H 0.93145 0.36229 0.20535 0.0
H45 H 0.96025 0.30811 0.18244 0.0
H46 H 0.14375 0.44763 0.19469 0.0
H47 H 0.11433 0.50179 0.21719 0.0
H48 H 0.94599 0.45196 0.17905 0.0
H49 H 0.98024 0.46444 0.14627 0.0
H50 H 0.14536 0.62235 0.16869 0.0
H51 H 0.11088 0.60877 0.20144 0.0
H52 H 0.92621 0.55641 0.18963 0.0
H53 H 0.94764 0.63849 0.17002 0.0
H54 H 0.09268 0.76136 0.2113 0.0
H55 H 0.07285 0.67901 0.23034 0.0
H56 H 0.86834 0.54916 0.23936 0.0
H57 H 0.84144 0.61154 0.25899 0.0
H58 H 0.02056 0.71655 0.2851 0.0
H59 H 0.04687 0.65435 0.26527 0.0
H60 H 0.86512 0.45764 0.26723 0.0
H61 H 0.84873 0.49108 0.29889 0.0
H62 H 0.03875 0.60155 0.31151 0.0
H63 H 0.05317 0.5627 0.28106 0.0
H64 H 0.89175 0.3711 0.25431 0.0
H65 H 0.89348 0.30063 0.27514 0.0
H66 H 0.08416 0.39629 0.27552 0.0
H67 H 0.08188 0.46631 0.25467 0.0
O68 O 0.05134 0.51265 0.11988 0.0
O69 O 0.1349 0.5943 0.13208 0.0
O70 O 0.86204 0.69556 0.28499 0.0
O71 O 0.95247 0.74792 0.29982 0.0
C72 C 0.00289 0.47535 0.22258 0.0
C73 C 0.00535 0.52137 0.21252 0.0
C74 C 0.99087 0.5613 0.22169 0.0
C75 C 0.97369 0.55499 0.24086 0.0
C76 C 0.9713 0.50898 0.25094 0.0
C77 C 0.98591 0.46914 0.24183 0.0
C78 C 0.02083 0.43587 0.21285 0.0
C79 C 0.97794 0.38007 0.2035 0.0
C80 C 0.9945 0.34935 0.19039 0.0
C81 C 0.05421 0.37416 0.18651 0.0
C82 C 0.09732 0.428 0.19706 0.0
C83 C 0.08073 0.45862 0.21009 0.0
C84 C 0.02595 0.52945 0.19258 0.0
C85 C 0.9896 0.48907 0.17684 0.0
C86 C 0.00925 0.49639 0.15814 0.0
C87 C 0.06554 0.54443 0.15485 0.0
C88 C 0.10177 0.5849 0.17071 0.0
C89 C 0.08216 0.57736 0.18941 0.0
C90 C 0.99759 0.61187 0.21151 0.0
C91 C 0.962 0.60122 0.19458 0.0
C92 C 0.97431 0.64789 0.1834 0.0
C93 C 0.02163 0.706 0.18925 0.0
C94 C 0.05548 0.71704 0.20666 0.0
C95 C 0.04395 0.67018 0.21759 0.0
C96 C 0.95954 0.59745 0.25084 0.0
C97 C 0.90189 0.58637 0.24906 0.0
C98 C 0.88661 0.62182 0.26038 0.0
C99 C 0.92883 0.6689 0.27369 0.0
C100 C 0.98697 0.68071 0.27503 0.0
C101 C 0.0022 0.64543 0.26364 0.0
C102 C 0.96036 0.5086 0.27181 0.0
C103 C 0.90281 0.48642 0.27743 0.0
C104 C 0.89375 0.50697 0.29542 0.0
C105 C 0.9422 0.55187 0.30767 0.0
C106 C -0.00037 0.56743 0.30286 0.0
C107 C 0.0084 0.54514 0.28523 0.0
C108 C 0.98665 0.42355 0.25293 0.0
C109 C 0.93377 0.37635 0.25875 0.0
C110 C 0.9349 0.33642 0.27071 0.0
C111 C 0.98898 0.34303 0.27701 0.0
C112 C 0.04176 0.38954 0.2707 0.0
C113 C 0.04058 0.42958 0.25882 0.0
C114 C 0.08622 0.55217 0.13496 0.0
C115 C 0.91226 0.70491 0.28641 0.0
H116 H 0.68396 0.1185 0.43953 0.0
H117 H 0.30829 0.13472 0.60081 0.0
H118 H 0.62943 0.97891 0.53008 0.0
H119 H 0.71042 0.97888 0.51431 0.0
H120 H 0.83625 0.13247 0.55317 0.0
H121 H 0.7542 0.13328 0.56841 0.0
H122 H 0.55737 0.02218 0.50848 0.0
H123 H 0.59584 0.04829 0.47662 0.0
H124 H 0.75329 0.20536 0.5041 0.0
H125 H 0.71388 0.17916 0.53585 0.0
H126 H 0.45097 0.01549 0.53088 0.0
H127 H 0.40385 0.0412 0.50587 0.0
H128 H 0.5567 0.22038 0.51023 0.0
H129 H 0.60327 0.19456 0.53568 0.0
H130 H 0.42447 0.97525 0.56885 0.0
H131 H 0.3392 0.97918 0.57942 0.0
H132 H 0.44809 0.17177 0.58836 0.0
H133 H 0.53329 0.16707 0.57807 0.0
H134 H 0.49648 0.93282 0.5864 0.0
H135 H 0.42313 0.89264 0.61065 0.0
H136 H 0.49279 0.07097 0.63812 0.0
H137 H 0.56529 0.11101 0.6136 0.0
H138 H 0.62846 0.9511 0.57325 0.0
H139 H 0.6939 0.93611 0.5945 0.0
H140 H 0.74001 0.09754 0.63034 0.0
H141 H 0.67484 0.11229 0.60898 0.0
O142 O 0.6694 0.10922 0.45228 0.0
O143 O 0.74967 0.18913 0.46713 0.0
O144 O 0.28753 0.03272 0.59209 0.0
O145 O 0.34123 0.13189 0.5965 0.0
C146 C 0.63672 0.0629 0.55674 0.0
C147 C 0.60967 0.08243 0.54381 0.0
C148 C 0.56032 0.08554 0.54917 0.0
C149 C 0.53751 0.06827 0.56732 0.0
C150 C 0.56472 0.0489 0.58029 0.0
C151 C 0.61514 0.04746 0.57521 0.0
C152 C 0.68606 0.0564 0.55023 0.0
C153 C 0.67453 0.01175 0.53544 0.0
C154 C 0.72098 0.01163 0.52654 0.0
C155 C 0.77995 0.056 0.53237 0.0
C156 C 0.79132 0.09827 0.54814 0.0
C157 C 0.74464 0.09853 0.55699 0.0
C158 C 0.63278 0.09886 0.52445 0.0
C159 C 0.59998 0.0624 0.50756 0.0
C160 C 0.62215 0.07734 0.4894 0.0
C161 C 0.67768 0.12891 0.48781 0.0
C162 C 0.71039 0.16534 0.5048 0.0
C163 C 0.68805 0.15046 0.52295 0.0
C164 C 0.53032 0.10324 0.53518 0.0
C165 C 0.47373 0.06067 0.52677 0.0
C166 C 0.44694 0.07543 0.51249 0.0
C167 C 0.47663 0.13286 0.50618 0.0
C168 C 0.53303 0.17576 0.5148 0.0
C169 C 0.55951 0.16116 0.52931 0.0
C170 C 0.48509 0.07085 0.57286 0.0
C171 C 0.42983 0.0182 0.57317 0.0
C172 C 0.38119 0.0206 0.57916 0.0
C173 C 0.38687 0.07582 0.58479 0.0
C174 C 0.4422 0.12853 0.58416 0.0
C175 C 0.49089 0.12602 0.57825 0.0
C176 C 0.53598 0.02476 0.59826 0.0
C177 C 0.49754 0.96292 0.59814 0.0
C178 C 0.45542 0.94011 0.61185 0.0
C179 C 0.45218 0.97887 0.62607 0.0
C180 C 0.49473 0.04023 0.62735 0.0
C181 C 0.53624 0.06312 0.61344 0.0
C182 C 0.6473 0.03303 0.58949 0.0
C183 C 0.65215 0.98275 0.58583 0.0
C184 C 0.68968 0.97443 0.59792 0.0
C185 C 0.72249 0.01597 0.61398 0.0
C186 C 0.715 0.06454 0.61817 0.0
C187 C 0.67783 0.07305 0.60599 0.0
C188 C 0.70127 0.14444 0.4685 0.0
C189 C 0.33543 0.07859 0.59133 0.0
H190 H 0.7533 0.77048 0.03077 0.0
H191 H 0.31978 0.196 0.90963 0.0
H192 H 0.65947 0.74486 0.92798 0.0
H193 H 0.75182 0.83884 0.93819 0.0
H194 H 0.85042 0.76429 0.91351 0.0
H195 H 0.75816 0.67169 0.90302 0.0
H196 H 0.59299 0.6514 0.96088 0.0
H197 H 0.64611 0.70174 0.9924 0.0
H198 H 0.79575 0.69156 0.97441 0.0
H199 H 0.74192 0.6407 0.94309 0.0
H200 H 0.48361 0.50511 0.94989 0.0
H201 H 0.46067 0.4421 0.97646 0.0
H202 H 0.63448 0.46524 0.97578 0.0
H203 H 0.65458 0.52353 0.94817 0.0
H204 H 0.43511 0.48753 0.9041 0.0
H205 H 0.34855 0.38606 0.90208 0.0
H206 H 0.46233 0.31901 0.91521 0.0
H207 H 0.5485 0.42051 0.91695 0.0
H208 H 0.51 0.58421 0.87012 0.0
H209 H 0.44775 0.52741 0.84056 0.0
H210 H 0.48791 0.39006 0.84806 0.0
H211 H 0.55377 0.44971 0.87628 0.0
H212 H 0.62805 0.70815 0.88074 0.0
H213 H 0.68165 0.75685 0.85272 0.0
H214 H 0.72295 0.6194 0.8418 0.0
H215 H 0.66998 0.57153 0.86982 0.0
O216 O 0.73316 0.75082 0.01818 0.0
O217 O 0.80512 0.73651 0.00926 0.0
O218 O 0.29667 0.27325 0.90356 0.0
O219 O 0.35322 0.23656 0.91035 0.0
C220 C 0.64891 0.64081 0.91353 0.0
C221 C 0.63096 0.61169 0.93064 0.0
C222 C 0.58304 0.55217 0.92963 0.0
C223 C 0.55042 0.52304 0.9117 0.0
C224 C 0.56865 0.55207 0.89452 0.0
C225 C 0.61916 0.61026 0.89539 0.0
C226 C 0.70232 0.70157 0.91485 0.0
C227 C 0.70107 0.74989 0.92416 0.0
C228 C 0.75384 0.80324 0.93014 0.0
C229 C 0.80858 0.80883 0.92696 0.0
C230 C 0.80922 0.76198 0.91605 0.0
C231 C 0.75646 0.70882 0.91002 0.0
C232 C 0.66377 0.64286 0.94967 0.0
C233 C 0.63727 0.66018 0.96379 0.0
C234 C 0.66775 0.68899 0.98175 0.0
C235 C 0.72517 0.70065 0.98592 0.0
C236 C 0.75158 0.68322 0.97169 0.0
C237 C 0.72107 0.65447 0.95374 0.0
C238 C 0.57066 0.51879 0.94705 0.0
C239 C 0.51661 0.49649 0.95552 0.0
C240 C 0.50397 0.46106 0.9709 0.0
C241 C 0.54573 0.44834 0.97835 0.0
C242 C 0.60078 0.47299 0.97025 0.0
C243 C 0.61274 0.50711 0.95462 0.0
C244 C 0.49799 0.4614 0.91079 0.0
C245 C 0.44119 0.45084 0.90654 0.0
C246 C 0.39187 0.39287 0.90541 0.0
C247 C 0.39852 0.34441 0.90852 0.0
C248 C 0.4556 0.35527 0.91278 0.0
C249 C 0.50488 0.41323 0.91385 0.0
C250 C 0.53562 0.52061 0.87555 0.0
C251 C 0.50624 0.54244 0.86504 0.0
C252 C 0.47006 0.50946 0.84827 0.0
C253 C 0.46186 0.45351 0.84187 0.0
C254 C 0.49343 0.43316 0.85215 0.0
C255 C 0.5306 0.46682 0.86857 0.0
C256 C 0.6452 0.63639 0.87728 0.0
C257 C 0.64801 0.68825 0.8721 0.0
C258 C 0.67838 0.71578 0.8561 0.0
C259 C 0.70672 0.69203 0.84518 0.0
C260 C 0.70207 0.639 0.85008 0.0
C261 C 0.67149 0.6114 0.86596 0.0
C262 C 0.75707 0.73039 0.00512 0.0
C263 C 0.34628 0.28272 0.90731 0.0
H264 H 0.04935 0.11113 0.11968 0.0
H265 H 0.17962 0.24737 0.08634 0.0
H266 H 0.17515 0.3248 0.10713 0.0
H267 H 0.96169 0.17971 0.12827 0.0
H268 H 0.94751 0.15786 0.15256 0.0
H269 H 0.95854 0.1128 0.13438 0.0
H270 H 0.04303 0.12146 0.15672 0.0
H271 H 0.03254 0.16684 0.17491 0.0
H272 H 0.10428 0.19433 0.16571 0.0
H273 H 0.15958 0.38761 0.13216 0.0
H274 H 0.13213 0.4318 0.15938 0.0
H275 H 0.01349 0.25505 0.17695 0.0
C276 C 0.07638 0.15714 0.11657 0.0
C277 C 0.11472 0.17316 0.10133 0.0
C278 C 0.14981 0.23399 0.09789 0.0
C279 C 0.14762 0.27831 0.10963 0.0
C280 C 0.11009 0.26107 0.12471 0.0
C281 C 0.07488 0.20197 0.12817 0.0
C282 C 0.03967 0.19564 0.14568 0.0
C283 C 0.97289 0.15936 0.13987 0.0
C284 C 0.05588 0.16794 0.1617 0.0
C285 C 0.06103 0.2605 0.15163 0.0
C286 C 0.10152 0.29743 0.1393 0.0
C287 C 0.12798 0.35917 0.14193 0.0
C288 C 0.1125 0.38386 0.15755 0.0
C289 C 0.07111 0.34693 0.17042 0.0
C290 C 0.04504 0.28439 0.16732 0.0
H291 H 0.92121 0.94003 0.45403 0.0
H292 H 0.03802 0.12552 0.44383 0.0
H293 H 0.00104 0.157 0.47159 0.0
H294 H 0.79968 0.95281 0.46509 0.0
H295 H 0.77547 0.902 0.48363 0.0
H296 H 0.8156 0.89402 0.46429 0.0
H297 H 0.89328 0.90097 0.48953 0.0
H298 H 0.85338 0.90918 0.50897 0.0
H299 H 0.93046 0.96443 0.50754 0.0
H300 H 0.9467 0.16849 0.49855 0.0
H301 H 0.87453 0.15886 0.5219 0.0
H302 H 0.79319 0.96623 0.51527 0.0
C303 C 0.93962 0.98728 0.45783 0.0
C304 C 0.98262 0.0303 0.44679 0.0
C305 C 0.00497 0.0917 0.45204 0.0
C306 C 0.98455 0.11011 0.46788 0.0
C307 C 0.94179 0.06665 0.47835 0.0
C308 C 0.91941 0.0065 0.47356 0.0
C309 C 0.87046 0.96888 0.48632 0.0
C310 C 0.81185 0.92698 0.4741 0.0
C311 C 0.88797 0.9338 0.49883 0.0
C312 C 0.86786 0.01726 0.49864 0.0
C313 C 0.91002 0.07334 0.49399 0.0
C314 C 0.9141 0.12489 0.50257 0.0
C315 C 0.87311 0.11896 0.51596 0.0
C316 C 0.8284 0.06183 0.52059 0.0
C317 C 0.82681 0.01053 0.51207 0.0
H318 H 0.00193 0.84474 0.78972 0.0
H319 H 0.91737 0.90558 0.75099 0.0
H320 H 0.82536 0.85198 0.76775 0.0
H321 H 0.87201 0.69705 0.79323 0.0
H322 H 0.89027 0.69707 0.81847 0.0
H323 H 0.94824 0.73759 0.80269 0.0
H324 H 0.98787 0.8342 0.82594 0.0
H325 H 0.92994 0.79408 0.84173 0.0
H326 H 0.93878 0.85993 0.83222 0.0
H327 H 0.7446 0.79726 0.79035 0.0
H328 H 0.68032 0.74156 0.81599 0.0
H329 H 0.81799 0.71612 0.83931 0.0
C330 C 0.96392 0.84631 0.78459 0.0
C331 C 0.96694 0.87939 0.76902 0.0
C332 C 0.91614 0.88038 0.76284 0.0
C333 C 0.86366 0.85013 0.77228 0.0
C334 C 0.86255 0.81873 0.78777 0.0
C335 C 0.91122 0.81621 0.79376 0.0
C336 C 0.89916 0.78063 0.81108 0.0
C337 C 0.90261 0.72476 0.80606 0.0
C338 C 0.94144 0.81955 0.82878 0.0
C339 C 0.8364 0.76423 0.81407 0.0
C340 C 0.81595 0.78657 0.80051 0.0
C341 C 0.75993 0.77904 0.80092 0.0
C342 C 0.7239 0.74769 0.81556 0.0
C343 C 0.74402 0.72411 0.82947 0.0
C344 C 0.80097 0.73257 0.82862 0.0
H345 H 0.13348 0.86547 0.09269 0.0
H346 H 0.14799 0.02339 0.12277 0.0
H347 H 0.11041 0.96959 0.15182 0.0
H348 H 0.99736 0.75946 0.11223 0.0
H349 H 0.01784 0.70449 0.11398 0.0
H350 H 0.04682 0.75567 0.09562 0.0
H351 H 0.15375 0.79001 0.10819 0.0
H352 H 0.12506 0.73871 0.1265 0.0
H353 H 0.1772 0.81687 0.13341 0.0
H354 H 0.07477 0.89972 0.178 0.0
H355 H 0.03998 0.81701 0.19898 0.0
H356 H 0.04408 0.70385 0.1512 0.0
C357 C 0.12904 0.88885 0.10541 0.0
C358 C 0.14401 0.94871 0.10552 0.0
C359 C 0.13684 0.97751 0.12238 0.0
C360 C 0.11555 0.94737 0.13895 0.0
C361 C 0.10099 0.88829 0.13833 0.0
C362 C 0.1071 0.85921 0.12197 0.0
C363 C 0.08745 0.79536 0.12498 0.0
C364 C 0.0342 0.75115 0.11086 0.0
C365 C 0.13894 0.78464 0.12317 0.0
C366 C 0.06994 0.79329 0.14565 0.0
C367 C 0.07831 0.8474 0.15314 0.0
C368 C 0.06747 0.85695 0.17225 0.0
C369 C 0.04784 0.80996 0.18403 0.0
C370 C 0.03872 0.7542 0.17654 0.0
C371 C 0.04955 0.74577 0.15709 0.0
H372 H 0.20612 0.08477 0.43951 0.0
H373 H 0.32568 0.15394 0.39358 0.0
H374 H 0.41033 0.18381 0.41709 0.0
H375 H 0.307 0.19577 0.47975 0.0
H376 H 0.28165 0.14006 0.49671 0.0
H377 H 0.23199 0.13294 0.47701 0.0
H378 H 0.21184 0.02758 0.46585 0.0
H379 H 0.26144 0.03441 0.48541 0.0
H380 H 0.27318 0.01854 0.46075 0.0
H381 H 0.48035 0.19664 0.44482 0.0
H382 H 0.52905 0.18669 0.474 0.0
H383 H 0.36292 0.10699 0.50135 0.0
C384 C 0.25023 0.10761 0.43447 0.0
C385 C 0.2594 0.1175 0.41475 0.0
C386 C 0.31769 0.14617 0.40865 0.0
C387 C 0.36604 0.16354 0.42191 0.0
C388 C 0.35527 0.15191 0.44118 0.0
C389 C 0.29874 0.1246 0.44743 0.0
C390 C 0.29808 0.11141 0.46835 0.0
C391 C 0.27853 0.1472 0.48121 0.0
C392 C 0.25884 0.044 0.47018 0.0
C393 C 0.36278 0.13371 0.47272 0.0
C394 C 0.39532 0.15804 0.45702 0.0
C395 C 0.45551 0.17853 0.45731 0.0
C396 C 0.48282 0.17291 0.47394 0.0
C397 C 0.44968 0.14628 0.48989 0.0
C398 C 0.38924 0.1276 0.48935 0.0
H399 H 0.30292 0.1632 0.76813 0.0
H400 H 0.14912 0.18013 0.76514 0.0
H401 H 0.20778 0.28085 0.7832 0.0
H402 H 0.35469 0.22536 0.81433 0.0
H403 H 0.43226 0.26465 0.8102 0.0
H404 H 0.38098 0.19871 0.79468 0.0
H405 H 0.41573 0.25766 0.76446 0.0
H406 H 0.46777 0.32391 0.7799 0.0
H407 H 0.41451 0.32523 0.76361 0.0
H408 H 0.27831 0.37007 0.80676 0.0
H409 H 0.35572 0.44332 0.83126 0.0
H410 H 0.46698 0.3731 0.8155 0.0
C411 C 0.28211 0.18887 0.77086 0.0
C412 C 0.22175 0.16435 0.76537 0.0
C413 C 0.19559 0.19871 0.76915 0.0
C414 C 0.22854 0.25576 0.77939 0.0
C415 C 0.28779 0.27806 0.78515 0.0
C416 C 0.31464 0.24614 0.78059 0.0
C417 C 0.37769 0.2781 0.78932 0.0
C418 C 0.38688 0.2394 0.80294 0.0
C419 C 0.42151 0.29738 0.77337 0.0
C420 C 0.38122 0.33141 0.80048 0.0
C421 C 0.32919 0.33096 0.79784 0.0
C422 C 0.31993 0.37198 0.80846 0.0
C423 C 0.36453 0.41379 0.82232 0.0
C424 C 0.41808 0.41462 0.8254 0.0
C425 C 0.42671 0.37379 0.81378 0.0
H426 H 0.90958 0.0365 0.70977 0.0
H427 H 0.01659 -0.00153 0.67199 0.0
H428 H 0.95539 0.99203 0.64347 0.0
H429 H 0.77036 0.93822 0.68301 0.0
H430 H 0.74307 0.98782 0.68694 0.0
H431 H 0.79561 0.99022 0.70453 0.0
H432 H 0.86606 0.10316 0.7016 0.0
H433 H 0.81358 0.10117 0.68408 0.0
H434 H 0.88856 0.12841 0.67805 0.0
H435 H 0.88151 0.98716 0.61909 0.0
H436 H 0.80304 0.99016 0.60027 0.0
H437 H 0.74426 0.03211 0.6537 0.0
C438 C 0.92034 0.02708 0.6955 0.0
C439 C 0.9679 0.01792 0.69315 0.0
C440 C 0.98049 0.00577 0.6742 0.0
C441 C 0.94588 0.00184 0.65788 0.0
C442 C 0.899 0.01046 0.66073 0.0
C443 C 0.88642 0.02331 0.67903 0.0
C444 C 0.83374 0.03111 0.67801 0.0
C445 C 0.78268 0.98403 0.68876 0.0
C446 C 0.85158 0.09475 0.6859 0.0
C447 C 0.81864 0.02045 0.65629 0.0
C448 C 0.85667 0.00831 0.64661 0.0
C449 C 0.85141 0.99658 0.6265 0.0
C450 C 0.80643 0.99792 0.61595 0.0
C451 C 0.76739 0.01108 0.62552 0.0
C452 C 0.77364 0.02225 0.64598 0.0
H453 H 0.01116 0.98023 0.02315 0.0
H454 H 0.15906 0.01158 0.98982 0.0
H455 H 0.09499 0.97949 0.95945 0.0
H456 H 0.91005 0.84657 0.99701 0.0
H457 H 0.8479 0.8565 0.99845 0.0
H458 H 0.90778 0.8931 0.01695 0.0
H459 H 0.9203 0.99477 0.01049 0.0
H460 H 0.86076 0.95772 0.99171 0.0
H461 H 0.93223 0.01799 0.98631 0.0
H462 H 0.01388 0.9342 0.93328 0.0
H463 H 0.91984 0.86853 0.91358 0.0
H464 H 0.8232 0.85909 0.96421 0.0
C465 C 0.03016 0.98192 0.00938 0.0
C466 C 0.08993 -0.001 0.00867 0.0
C467 C 0.11325 -0.00117 0.99054 0.0
C468 C 0.07738 0.98122 0.97325 0.0
C469 C 0.01818 0.96339 0.97437 0.0
C470 C 0.99451 0.96306 0.99198 0.0
C471 C 0.92796 0.9336 0.98939 0.0
C472 C 0.89665 0.87921 0.00114 0.0
C473 C 0.90923 0.97873 0.99479 0.0
C474 C 0.91777 0.91512 0.96775 0.0
C475 C 0.97052 0.93442 0.95927 0.0
C476 C 0.97225 0.91931 0.9397 0.0
C477 C 0.91862 0.88168 0.92865 0.0
C478 C 0.86405 0.85859 0.93731 0.0
C479 C 0.86393 0.87717 0.95698 0.0
H480 H 0.0846 0.84843 0.37528 0.0
H481 H 0.92812 0.85492 0.36166 0.0
H482 H 0.87488 0.7484 0.3486 0.0
H483 H 0.07884 0.76703 0.33526 0.0
H484 H 0.10242 0.7221 0.34624 0.0
H485 H 0.12367 0.79411 0.35793 0.0
H486 H 0.07697 0.74632 0.38923 0.0
H487 H 0.05582 0.67384 0.37761 0.0
H488 H 0.00081 0.68601 0.38792 0.0
H489 H 0.84983 0.65286 0.32986 0.0
H490 H 0.85105 0.57402 0.30958 0.0
H491 H 0.01676 0.61994 0.34024 0.0
C492 C 0.03836 0.82645 0.37025 0.0
C493 C 0.00995 0.85901 0.36952 0.0
C494 C 0.94998 0.82995 0.36255 0.0
C495 C 0.91956 0.76962 0.35514 0.0
C496 C 0.94936 0.7389 0.35548 0.0
C497 C 0.00695 0.76591 0.36339 0.0
C498 C 0.03076 0.72492 0.36046 0.0
C499 C 0.08721 0.75377 0.34931 0.0
C500 C 0.04172 0.70668 0.37997 0.0
C501 C 0.97934 0.67249 0.34836 0.0
C502 C 0.93264 0.68115 0.34577 0.0
C503 C 0.88487 0.64408 0.33246 0.0
C504 C 0.88589 0.5986 0.32101 0.0
C505 C 0.93408 0.58956 0.32305 0.0
C506 C 0.97947 0.6253 0.33783 0.0
H507 H 0.28182 0.97187 0.71947 0.0
H508 H 0.12404 0.90084 0.68077 0.0
H509 H 0.17734 0.88916 0.65362 0.0
H510 H 0.37827 0.0613 0.68668 0.0
H511 H 0.43859 0.05247 0.69416 0.0
H512 H 0.38563 0.04541 0.71113 0.0
H513 H 0.36362 0.94008 0.71721 0.0
H514 H 0.41678 0.94689 0.70027 0.0
H515 H 0.34178 0.88418 0.69695 0.0
H516 H 0.2496 0.89211 0.6304 0.0
H517 H 0.33723 0.91753 0.61213 0.0
H518 H 0.44978 0.99404 0.66555 0.0
C519 C 0.25805 0.95214 0.7054 0.0
C520 C 0.19857 0.93598 0.70221 0.0
C521 C 0.16944 0.91269 0.68348 0.0
C522 C 0.19928 0.90574 0.66804 0.0
C523 C 0.25836 0.92314 0.67158 0.0
C524 C 0.28759 0.94635 0.68978 0.0
C525 C 0.35283 0.96854 0.68927 0.0
C526 C 0.39105 0.03591 0.69568 0.0
C527 C 0.36973 0.93277 0.70166 0.0
C528 C 0.35604 0.95521 0.66788 0.0
C529 C 0.30083 0.92779 0.65801 0.0
C530 C 0.29289 0.91292 0.638 0.0
C531 C 0.34278 0.92725 0.62778 0.0
C532 C 0.39987 0.95702 0.63754 0.0
C533 C 0.40643 0.97069 0.65784 0.0
H534 H 0.33752 0.24667 0.05484 0.0
H535 H 0.4066 0.13128 0.0425 0.0
H536 H 0.48768 0.21028 0.02609 0.0
H537 H 0.35226 0.29618 0.01156 0.0
H538 H 0.3743 0.37227 0.01907 0.0
H539 H 0.3315 0.31465 0.03439 0.0
H540 H 0.41138 0.37185 0.0629 0.0
H541 H 0.45423 0.43062 0.04777 0.0
H542 H 0.48714 0.39464 0.05943 0.0
H543 H 0.54476 0.2894 0.00464 0.0
H544 H 0.57832 0.36581 0.98176 0.0
H545 H 0.47616 0.43354 0.0089 0.0
C546 C 0.37113 0.23891 0.04944 0.0
C547 C 0.36564 0.18275 0.04996 0.0
C548 C 0.40992 0.17399 0.04236 0.0
C549 C 0.45629 0.21871 0.03303 0.0
C550 C 0.4583 0.27224 0.0317 0.0
C551 C 0.4176 0.28308 0.04007 0.0
C552 C 0.42479 0.34087 0.03442 0.0
C553 C 0.36732 0.3303 0.02425 0.0
C554 C 0.44565 0.38725 0.05219 0.0
C555 C 0.47295 0.35855 0.0205 0.0
C556 C 0.4925 0.31906 0.01943 0.0
C557 C 0.53146 0.32192 0.00585 0.0
C558 C 0.55045 0.3658 0.9929 0.0
C559 C 0.53052 0.40647 0.99357 0.0
C560 C 0.49235 0.40335 0.00793 0.0
H561 H 0.10755 0.15322 0.32415 0.0
H562 H 0.99281 0.1294 0.37073 0.0
H563 H 0.95584 0.18493 0.35428 0.0
H564 H 0.14739 0.30219 0.31717 0.0
H565 H 0.14795 0.29231 0.29117 0.0
H566 H 0.16399 0.24883 0.30625 0.0
H567 H 0.08022 0.15144 0.28711 0.0
H568 H 0.06389 0.19466 0.27197 0.0
H569 H 0.0064 0.13823 0.28495 0.0
H570 H 0.9323 0.24414 0.33311 0.0
H571 H 0.92635 0.30612 0.30915 0.0
H572 H 0.05628 0.29149 0.27636 0.0
C573 C 0.07448 0.15944 0.33087 0.0
C574 C 0.05305 0.13683 0.34874 0.0
C575 C 0.00999 0.1463 0.35707 0.0
C576 C 0.98856 0.17766 0.34782 0.0
C577 C 0.01065 0.19934 0.33025 0.0
C578 C 0.05274 0.19083 0.32187 0.0
C579 C 0.0702 0.22007 0.30314 0.0
C580 C 0.1363 0.26874 0.30453 0.0
C581 C 0.0542 0.1733 0.28577 0.0
C582 C 0.0317 0.24678 0.3024 0.0
C583 C 0.99738 0.23392 0.3181 0.0
C584 C 0.95871 0.25425 0.3207 0.0
C585 C 0.95538 0.2891 0.30695 0.0
C586 C 0.99067 0.30344 0.29085 0.0
C587 C 0.02903 0.28159 0.28857 0.0
loop_
_geom_bond_atom_site_label_1
_geom_bond_atom_site_label_2
_geom_bond_distance
_geom_bond_site_symmetry_2
_ccdc_geom_bond_type
Zn0 O3 2.031 1_545 S
Zn0 O5 2.049 . S
Zn0 O10 2.067 1_545 S
Zn1 O2 1.962 . S
Zn1 O4 1.986 . S
Zn1 O6 1.996 . S
Zn1 O9 1.943 . S
O2 Zn1 1.962 . S
O2 C7 1.254 1_545 S
O3 Zn0 2.031 1_565 S
O3 C7 1.269 . S
O4 Zn1 1.986 . S
O4 C11 1.262 . S
O5 Zn0 2.049 . S
O5 C13 1.260 . S
O6 Zn1 1.996 . S
O6 C13 1.257 . S
C7 O2 1.254 1_565 S
C7 O3 1.269 . S
C8 O9 1.255 . S
C8 O10 1.266 1_545 S
O9 Zn1 1.943 . S
O9 C8 1.255 . S
O10 Zn0 2.067 1_565 S
O10 C8 1.266 1_565 S
C11 O4 1.262 . S
C11 O12 1.232 . S
O12 C11 1.232 . S
C13 O5 1.260 . S
C13 O6 1.257 . S
Zn14 O17 2.031 . S
Zn14 O19 2.049 . S
Zn14 O24 2.066 1_545 S
Zn15 O16 1.962 . S
Zn15 O18 1.986 1_455 S
Zn15 O20 1.996 . S
Zn15 O23 1.943 1_545 S
O16 Zn15 1.962 . S
O16 C21 1.254 . S
O17 Zn14 2.031 . S
O17 C21 1.269 . S
O18 Zn15 1.986 1_655 S
O18 C25 1.262 . S
O19 Zn14 2.049 . S
O19 C27 1.260 . S
O20 Zn15 1.996 . S
O20 C27 1.257 . S
C21 O16 1.254 . S
C21 O17 1.269 . S
C22 O23 1.249 . S
C22 O24 1.271 . S
O23 Zn15 1.943 1_565 S
O23 C22 1.249 . S
O24 Zn14 2.066 1_565 S
O24 C22 1.271 . S
C25 O18 1.262 . S
C25 O26 1.232 1_545 S
O26 C25 1.232 1_565 S
C27 O19 1.260 . S
C27 O20 1.257 . S
Zn28 O31 2.031 1_565 S
Zn28 O33 2.049 . S
Zn28 O38 2.067 1_565 S
Zn29 O30 1.962 . S
Zn29 O32 1.986 . S
Zn29 O34 1.996 1_545 S
Zn29 O37 1.943 . S
O30 Zn29 1.962 . S
O30 C35 1.254 . S
O31 Zn28 2.031 1_545 S
O31 C35 1.269 . S
O32 Zn29 1.986 . S
O32 C39 1.262 . S
O33 Zn28 2.049 . S
O33 C41 1.260 . S
O34 Zn29 1.996 1_565 S
O34 C41 1.257 . S
C35 O30 1.254 . S
C35 O31 1.269 . S
C36 O37 1.249 . S
C36 O38 1.270 . S
O37 Zn29 1.943 . S
O37 C36 1.249 . S
O38 Zn28 2.067 1_545 S
O38 C36 1.270 . S
C39 O32 1.262 . S
C39 O40 1.232 . S
O40 C39 1.232 . S
C41 O33 1.260 . S
C41 O34 1.257 . S
H42 O68 0.856 . S
H43 O71 0.854 . S
H44 C79 0.930 1_655 S
H45 C80 0.930 1_655 S
H46 C82 0.930 . S
H47 C83 0.930 . S
H48 C85 0.931 . S
H49 C86 0.930 . S
H50 C88 0.930 . S
H51 C89 0.929 . S
H52 C91 0.930 . S
H53 C92 0.931 . S
H54 C94 0.930 . S
H55 C95 0.929 . S
H56 C97 0.922 1_655 S
H57 C98 0.930 . S
H58 C100 0.930 . S
H59 C101 0.932 . S
H60 C103 0.930 1_655 S
H61 C104 0.929 . S
H62 C106 0.931 . S
H63 C107 0.930 . S
H64 C109 0.929 1_655 S
H65 C110 0.931 1_655 S
H66 C112 0.930 . S
H67 C113 0.929 . S
O68 H42 0.856 . S
O68 C114 1.300 . S
O69 C114 1.209 . S
O70 C115 1.199 . S
O71 H43 0.854 . S
O71 C115 1.297 . S
C72 C73 1.404 . S
C72 C77 1.397 . S
C72 C78 1.492 . S
C73 C72 1.404 . S
C73 C74 1.396 . S
C73 C84 1.492 . S
C74 C73 1.396 . S
C74 C75 1.397 . S
C74 C90 1.509 . S
C75 C74 1.397 . S
C75 C76 1.412 . S
C75 C96 1.485 . S
C76 C75 1.412 . S
C76 C77 1.388 . S
C76 C102 1.490 . S
C77 C72 1.397 . S
C77 C76 1.388 . S
C77 C108 1.519 . S
C78 C72 1.492 . S
C78 C79 1.363 . S
C78 C83 1.390 . S
C79 H44 0.930 1_455 S
C79 C78 1.363 . S
C79 C80 1.372 . S
C80 H45 0.930 1_455 S
C80 C79 1.372 . S
C80 C81 1.383 . S
C81 C80 1.383 . S
C81 C82 1.395 . S
C82 H46 0.930 . S
C82 C81 1.395 . S
C82 C83 1.362 . S
C83 H47 0.930 . S
C83 C78 1.390 . S
C83 C82 1.362 . S
C84 C73 1.492 . S
C84 C85 1.377 . S
C84 C89 1.397 . S
C85 H48 0.931 . S
C85 C84 1.377 . S
C85 C86 1.376 . S
C86 H49 0.930 . S
C86 C85 1.376 . S
C86 C87 1.376 . S
C87 C86 1.376 . S
C87 C88 1.378 . S
C87 C114 1.486 . S
C88 H50 0.930 . S
C88 C87 1.378 . S
C88 C89 1.376 . S
C89 H51 0.929 . S
C89 C84 1.397 . S
C89 C88 1.376 . S
C90 C74 1.509 . S
C90 C91 1.391 . S
C90 C95 1.386 . S
C91 H52 0.930 . S
C91 C90 1.391 . S
C91 C92 1.375 . S
C92 H53 0.931 . S
C92 C91 1.375 . S
C92 C93 1.375 . S
C93 C92 1.375 . S
C93 C94 1.361 . S
C94 H54 0.930 . S
C94 C93 1.361 . S
C94 C95 1.399 . S
C95 H55 0.929 . S
C95 C90 1.386 . S
C95 C94 1.399 . S
C96 C75 1.485 . S
C96 C97 1.394 . S
C96 C101 1.360 . S
C97 H56 0.922 1_455 S
C97 C96 1.394 . S
C97 C98 1.372 . S
C98 H57 0.930 . S
C98 C97 1.372 . S
C98 C99 1.397 . S
C99 C98 1.397 . S
C99 C100 1.390 . S
C99 C115 1.476 . S
C100 H58 0.930 . S
C100 C99 1.390 . S
C100 C101 1.366 . S
C101 H59 0.932 . S
C101 C96 1.360 . S
C101 C100 1.366 . S
C102 C76 1.490 . S
C102 C103 1.380 . S
C102 C107 1.386 . S
C103 H60 0.930 1_455 S
C103 C102 1.380 . S
C103 C104 1.381 1_455 S
C104 H61 0.929 . S
C104 C103 1.381 1_655 S
C104 C105 1.371 1_655 S
C105 C104 1.371 1_455 S
C105 C106 1.380 . S
C106 H62 0.931 . S
C106 C105 1.380 . S
C106 C107 1.387 . S
C107 H63 0.930 . S
C107 C102 1.386 . S
C107 C106 1.387 . S
C108 C77 1.519 . S
C108 C109 1.377 . S
C108 C113 1.361 . S
C109 H64 0.929 1_455 S
C109 C108 1.377 . S
C109 C110 1.386 . S
C110 H65 0.931 1_455 S
C110 C109 1.386 . S
C110 C111 1.363 . S
C111 C110 1.363 . S
C111 C112 1.385 . S
C112 H66 0.930 . S
C112 C111 1.385 . S
C112 C113 1.396 . S
C113 H67 0.929 . S
C113 C108 1.361 . S
C113 C112 1.396 . S
C114 O68 1.300 . S
C114 O69 1.209 . S
C114 C87 1.486 . S
C115 O70 1.199 . S
C115 O71 1.297 . S
C115 C99 1.476 . S
H116 O142 0.856 . S
H117 O145 0.854 . S
H118 C153 0.930 . S
H119 C154 0.930 . S
H120 C156 0.930 . S
H121 C157 0.930 . S
H122 C159 0.931 1_565 S
H123 C160 0.930 1_565 S
H124 C162 0.930 . S
H125 C163 0.929 . S
H126 C165 0.930 1_565 S
H127 C166 0.931 1_565 S
H128 C168 0.930 . S
H129 C169 0.929 . S
H130 C171 0.931 1_565 S
H131 C172 0.930 1_565 S
H132 C174 0.930 . S
H133 C175 0.932 . S
H134 C177 0.930 . S
H135 C178 0.929 . S
H136 C180 0.931 . S
H137 C181 0.930 . S
H138 C183 0.929 1_565 S
H139 C184 0.931 1_565 S
H140 C186 0.930 . S
H141 C187 0.929 . S
O142 H116 0.856 . S
O142 C188 1.300 . S
O143 C188 1.209 . S
O144 C189 1.199 . S
O145 H117 0.854 . S
O145 C189 1.297 . S
C146 C147 1.404 . S
C146 C151 1.397 . S
C146 C152 1.492 . S
C147 C146 1.404 . S
C147 C148 1.396 . S
C147 C158 1.492 . S
C148 C147 1.396 . S
C148 C149 1.397 . S
C148 C164 1.509 . S
C149 C148 1.397 . S
C149 C150 1.412 . S
C149 C170 1.485 . S
C150 C149 1.412 . S
C150 C151 1.388 . S
C150 C176 1.490 . S
C151 C146 1.397 . S
C151 C150 1.388 . S
C151 C182 1.519 . S
C152 C146 1.492 . S
C152 C153 1.363 1_545 S
C152 C157 1.390 . S
C153 H118 0.930 . S
C153 C152 1.363 1_565 S
C153 C154 1.372 . S
C154 H119 0.930 . S
C154 C153 1.372 . S
C154 C155 1.383 1_565 S
C155 C154 1.383 1_545 S
C155 C156 1.395 . S
C156 H120 0.930 . S
C156 C155 1.395 . S
C156 C157 1.362 . S
C157 H121 0.930 . S
C157 C152 1.390 . S
C157 C156 1.362 . S
C158 C147 1.492 . S
C158 C159 1.377 . S
C158 C163 1.397 . S
C159 H122 0.931 1_545 S
C159 C158 1.377 . S
C159 C160 1.376 . S
C160 H123 0.930 1_545 S
C160 C159 1.376 . S
C160 C161 1.376 . S
C161 C160 1.376 . S
C161 C162 1.378 . S
C161 C188 1.486 . S
C162 H124 0.930 . S
C162 C161 1.378 . S
C162 C163 1.376 . S
C163 H125 0.929 . S
C163 C158 1.397 . S
C163 C162 1.376 . S
C164 C148 1.509 . S
C164 C165 1.391 . S
C164 C169 1.386 . S
C165 H126 0.930 1_545 S
C165 C164 1.391 . S
C165 C166 1.375 . S
C166 H127 0.931 1_545 S
C166 C165 1.375 . S
C166 C167 1.375 . S
C167 C166 1.375 . S
C167 C168 1.361 . S
C168 H128 0.930 . S
C168 C167 1.361 . S
C168 C169 1.399 . S
C169 H129 0.929 . S
C169 C164 1.386 . S
C169 C168 1.399 . S
C170 C149 1.485 . S
C170 C171 1.394 . S
C170 C175 1.360 . S
C171 H130 0.931 1_545 S
C171 C170 1.394 . S
C171 C172 1.372 . S
C172 H131 0.930 1_545 S
C172 C171 1.372 . S
C172 C173 1.397 . S
C173 C172 1.397 . S
C173 C174 1.390 . S
C173 C189 1.476 . S
C174 H132 0.930 . S
C174 C173 1.390 . S
C174 C175 1.366 . S
C175 H133 0.932 . S
C175 C170 1.360 . S
C175 C174 1.366 . S
C176 C150 1.490 . S
C176 C177 1.380 1_545 S
C176 C181 1.386 . S
C177 H134 0.930 . S
C177 C176 1.380 1_565 S
C177 C178 1.381 . S
C178 H135 0.929 . S
C178 C177 1.381 . S
C178 C179 1.371 1_565 S
C179 C178 1.371 1_545 S
C179 C180 1.380 . S
C180 H136 0.931 . S
C180 C179 1.380 . S
C180 C181 1.387 . S
C181 H137 0.930 . S
C181 C176 1.386 . S
C181 C180 1.387 . S
C182 C151 1.519 . S
C182 C183 1.377 . S
C182 C187 1.361 . S
C183 H138 0.929 1_545 S
C183 C182 1.377 . S
C183 C184 1.386 . S
C184 H139 0.931 1_545 S
C184 C183 1.386 . S
C184 C185 1.363 . S
C185 C184 1.363 . S
C185 C186 1.385 . S
C186 H140 0.930 . S
C186 C185 1.385 . S
C186 C187 1.396 . S
C187 H141 0.929 . S
C187 C182 1.361 . S
C187 C186 1.396 . S
C188 O142 1.300 . S
C188 O143 1.209 . S
C188 C161 1.486 . S
C189 O144 1.199 . S
C189 O145 1.297 . S
C189 C173 1.476 . S
H190 O216 0.856 . S
H191 O219 0.854 . S
H192 C227 0.930 . S
H193 C228 0.930 . S
H194 C230 0.930 . S
H195 C231 0.930 . S
H196 C233 0.931 . S
H197 C234 0.930 . S
H198 C236 0.930 . S
H199 C237 0.929 . S
H200 C239 0.930 . S
H201 C240 0.931 . S
H202 C242 0.930 . S
H203 C243 0.929 . S
H204 C245 0.931 . S
H205 C246 0.930 . S
H206 C248 0.930 . S
H207 C249 0.932 . S
H208 C251 0.930 . S
H209 C252 0.929 . S
H210 C254 0.931 . S
H211 C255 0.930 . S
H212 C257 0.929 . S
H213 C258 0.931 . S
H214 C260 0.930 . S
H215 C261 0.929 . S
O216 H190 0.856 . S
O216 C262 1.300 . S
O217 C262 1.209 . S
O218 C263 1.199 . S
O219 H191 0.854 . S
O219 C263 1.297 . S
C220 C221 1.404 . S
C220 C225 1.397 . S
C220 C226 1.492 . S
C221 C220 1.404 . S
C221 C222 1.396 . S
C221 C232 1.492 . S
C222 C221 1.396 . S
C222 C223 1.397 . S
C222 C238 1.509 . S
C223 C222 1.397 . S
C223 C224 1.412 . S
C223 C244 1.485 . S
C224 C223 1.412 . S
C224 C225 1.388 . S
C224 C250 1.490 . S
C225 C220 1.397 . S
C225 C224 1.388 . S
C225 C256 1.519 . S
C226 C220 1.492 . S
C226 C227 1.363 . S
C226 C231 1.390 . S
C227 H192 0.930 . S
C227 C226 1.363 . S
C227 C228 1.372 . S
C228 H193 0.930 . S
C228 C227 1.372 . S
C228 C229 1.383 . S
C229 C228 1.383 . S
C229 C230 1.395 . S
C230 H194 0.930 . S
C230 C229 1.395 . S
C230 C231 1.362 . S
C231 H195 0.930 . S
C231 C226 1.390 . S
C231 C230 1.362 . S
C232 C221 1.492 . S
C232 C233 1.377 . S
C232 C237 1.397 . S
C233 H196 0.931 . S
C233 C232 1.377 . S
C233 C234 1.376 . S
C234 H197 0.930 . S
C234 C233 1.376 . S
C234 C235 1.376 . S
C235 C234 1.376 . S
C235 C236 1.378 . S
C235 C262 1.486 1_556 S
C236 H198 0.930 . S
C236 C235 1.378 . S
C236 C237 1.376 . S
C237 H199 0.929 . S
C237 C232 1.397 . S
C237 C236 1.376 . S
C238 C222 1.509 . S
C238 C239 1.391 . S
C238 C243 1.386 . S
C239 H200 0.930 . S
C239 C238 1.391 . S
C239 C240 1.375 . S
C240 H201 0.931 . S
C240 C239 1.375 . S
C240 C241 1.375 . S
C241 C240 1.375 . S
C241 C242 1.361 . S
C242 H202 0.930 . S
C242 C241 1.361 . S
C242 C243 1.399 . S
C243 H203 0.929 . S
C243 C238 1.386 . S
C243 C242 1.399 . S
C244 C223 1.485 . S
C244 C245 1.394 . S
C244 C249 1.360 . S
C245 H204 0.931 . S
C245 C244 1.394 . S
C245 C246 1.372 . S
C246 H205 0.930 . S
C246 C245 1.372 . S
C246 C247 1.397 . S
C247 C246 1.397 . S
C247 C248 1.390 . S
C247 C263 1.476 . S
C248 H206 0.930 . S
C248 C247 1.390 . S
C248 C249 1.366 . S
C249 H207 0.932 . S
C249 C244 1.360 . S
C249 C248 1.366 . S
C250 C224 1.490 . S
C250 C251 1.380 . S
C250 C255 1.386 . S
C251 H208 0.930 . S
C251 C250 1.380 . S
C251 C252 1.381 . S
C252 H209 0.929 . S
C252 C251 1.381 . S
C252 C253 1.371 . S
C253 C252 1.371 . S
C253 C254 1.380 . S
C254 H210 0.931 . S
C254 C253 1.380 . S
C254 C255 1.387 . S
C255 H211 0.930 . S
C255 C250 1.386 . S
C255 C254 1.387 . S
C256 C225 1.519 . S
C256 C257 1.377 . S
C256 C261 1.361 . S
C257 H212 0.929 . S
C257 C256 1.377 . S
C257 C258 1.386 . S
C258 H213 0.931 . S
C258 C257 1.386 . S
C258 C259 1.363 . S
C259 C258 1.363 . S
C259 C260 1.385 . S
C260 H214 0.930 . S
C260 C259 1.385 . S
C260 C261 1.396 . S
C261 H215 0.929 . S
C261 C256 1.361 . S
C261 C260 1.396 . S
C262 O216 1.300 . S
C262 O217 1.209 . S
C262 C235 1.486 1_554 S
C263 O218 1.199 . S
C263 O219 1.297 . S
C263 C247 1.476 . S
H264 C276 0.930 . S
H265 C278 0.930 . S
H266 C279 0.930 . S
H267 C283 0.959 . S
H268 C283 0.959 . S
H269 C283 0.961 . S
H270 C284 0.960 . S
H271 C284 0.961 . S
H272 C284 0.959 1_455 S
H273 C287 0.929 . S
H274 C288 0.931 . S
H275 C290 0.930 1_655 S
C276 H264 0.930 . S
C276 C277 1.399 . S
C276 C281 1.399 . S
C277 C276 1.399 . S
C277 C278 1.376 . S
C278 H265 0.930 . S
C278 C277 1.376 . S
C278 C279 1.388 . S
C279 H266 0.930 . S
C279 C278 1.388 . S
C279 C280 1.390 . S
C280 C279 1.390 . S
C280 C281 1.394 . S
C280 C286 1.465 . S
C281 C276 1.399 . S
C281 C280 1.394 . S
C281 C282 1.516 . S
C282 C281 1.516 . S
C282 C283 1.502 1_455 S
C282 C284 1.561 1_455 S
C282 C285 1.526 . S
C283 H267 0.959 . S
C283 H268 0.959 . S
C283 H269 0.961 . S
C283 C282 1.502 1_655 S
C284 H270 0.960 . S
C284 H271 0.961 . S
C284 H272 0.959 1_655 S
C284 C282 1.561 1_655 S
C285 C282 1.526 . S
C285 C286 1.396 . S
C285 C290 1.390 . S
C286 C280 1.465 . S
C286 C285 1.396 . S
C286 C287 1.399 . S
C287 H273 0.929 . S
C287 C286 1.399 . S
C287 C288 1.385 . S
C288 H274 0.931 . S
C288 C287 1.385 . S
C288 C289 1.389 . S
C289 C288 1.389 . S
C289 C290 1.387 . S
C290 H275 0.930 1_455 S
C290 C285 1.390 . S
C290 C289 1.387 . S
H291 C303 0.930 . S
H292 C305 0.930 . S
H293 C306 0.930 . S
H294 C310 0.959 . S
H295 C310 0.959 . S
H296 C310 0.961 . S
H297 C311 0.960 . S
H298 C311 0.961 . S
H299 C311 0.959 . S
H300 C314 0.929 . S
H301 C315 0.931 . S
H302 C317 0.930 . S
C303 H291 0.930 . S
C303 C304 1.399 1_565 S
C303 C308 1.399 . S
C304 C303 1.399 1_545 S
C304 C305 1.376 . S
C305 H292 0.930 . S
C305 C304 1.376 . S
C305 C306 1.388 . S
C306 H293 0.930 . S
C306 C305 1.388 . S
C306 C307 1.390 . S
C307 C306 1.390 . S
C307 C308 1.394 1_545 S
C307 C313 1.465 . S
C308 C303 1.399 . S
C308 C307 1.394 1_565 S
C308 C309 1.516 . S
C309 C308 1.516 . S
C309 C310 1.502 . S
C309 C311 1.561 . S
C309 C312 1.526 . S
C310 H294 0.959 . S
C310 H295 0.959 . S
C310 H296 0.961 . S
C310 C309 1.502 . S
C311 H297 0.960 . S
C311 H298 0.961 . S
C311 H299 0.959 . S
C311 C309 1.561 . S
C312 C309 1.526 . S
C312 C313 1.396 1_565 S
C312 C317 1.390 . S
C313 C307 1.465 . S
C313 C312 1.396 1_545 S
C313 C314 1.399 . S
C314 H300 0.929 . S
C314 C313 1.399 . S
C314 C315 1.385 . S
C315 H301 0.931 . S
C315 C314 1.385 . S
C315 C316 1.389 . S
C316 C315 1.389 . S
C316 C317 1.387 1_545 S
C317 H302 0.930 . S
C317 C312 1.390 . S
C317 C316 1.387 1_565 S
H318 C330 0.930 1_455 S
H319 C332 0.930 . S
H320 C333 0.930 . S
H321 C337 0.967 . S
H322 C337 0.957 1_655 S
H323 C337 0.966 . S
H324 C338 0.960 . S
H325 C338 0.961 . S
H326 C338 0.959 . S
H327 C341 0.929 . S
H328 C342 0.931 . S
H329 C344 0.930 . S
C330 H318 0.930 1_655 S
C330 C331 1.399 . S
C330 C335 1.399 . S
C331 C330 1.399 . S
C331 C332 1.376 . S
C332 H319 0.930 . S
C332 C331 1.376 . S
C332 C333 1.388 . S
C333 H320 0.930 . S
C333 C332 1.388 . S
C333 C334 1.390 . S
C334 C333 1.390 . S
C334 C335 1.394 . S
C334 C340 1.465 . S
C335 C330 1.399 . S
C335 C334 1.394 . S
C335 C336 1.516 . S
C336 C335 1.516 . S
C336 C337 1.491 1_655 S
C336 C338 1.561 . S
C336 C339 1.526 . S
C337 H321 0.967 . S
C337 H322 0.957 1_455 S
C337 H323 0.966 . S
C337 C336 1.491 1_455 S
C338 H324 0.960 . S
C338 H325 0.961 . S
C338 H326 0.959 . S
C338 C336 1.561 . S
C339 C336 1.526 . S
C339 C340 1.396 . S
C339 C344 1.390 . S
C340 C334 1.465 . S
C340 C339 1.396 . S
C340 C341 1.399 . S
C341 H327 0.929 . S
C341 C340 1.399 . S
C341 C342 1.385 . S
C342 H328 0.931 . S
C342 C341 1.385 . S
C342 C343 1.389 . S
C343 C342 1.389 . S
C343 C344 1.387 . S
C344 H329 0.930 . S
C344 C339 1.390 . S
C344 C343 1.387 . S
H345 C357 0.930 . S
H346 C359 0.930 . S
H347 C360 0.930 1_545 S
H348 C364 0.959 . S
H349 C364 0.959 . S
H350 C364 0.961 . S
H351 C365 0.960 . S
H352 C365 0.961 . S
H353 C365 0.959 . S
H354 C368 0.929 . S
H355 C369 0.931 . S
H356 C371 0.930 . S
C357 H345 0.930 . S
C357 C358 1.399 . S
C357 C362 1.399 . S
C358 C357 1.399 . S
C358 C359 1.376 1_565 S
C359 H346 0.930 . S
C359 C358 1.376 1_545 S
C359 C360 1.388 1_545 S
C360 H347 0.930 1_565 S
C360 C359 1.388 1_565 S
C360 C361 1.390 . S
C361 C360 1.390 . S
C361 C362 1.394 . S
C361 C367 1.465 . S
C362 C357 1.399 . S
C362 C361 1.394 . S
C362 C363 1.516 . S
C363 C362 1.516 . S
C363 C364 1.502 . S
C363 C365 1.561 . S
C363 C366 1.526 . S
C364 H348 0.959 . S
C364 H349 0.959 . S
C364 H350 0.961 . S
C364 C363 1.502 . S
C365 H351 0.960 . S
C365 H352 0.961 . S
C365 H353 0.959 . S
C365 C363 1.561 . S
C366 C363 1.526 . S
C366 C367 1.396 . S
C366 C371 1.390 . S
C367 C361 1.465 . S
C367 C366 1.396 . S
C367 C368 1.399 . S
C368 H354 0.929 . S
C368 C367 1.399 . S
C368 C369 1.385 . S
C369 H355 0.931 . S
C369 C368 1.385 . S
C369 C370 1.389 . S
C370 C369 1.389 . S
C370 C371 1.387 . S
C371 H356 0.930 . S
C371 C366 1.390 . S
C371 C370 1.387 . S
H372 C384 0.930 1_565 S
H373 C386 0.930 . S
H374 C387 0.930 . S
H375 C391 0.959 1_545 S
H376 C391 0.959 . S
H377 C391 0.961 . S
H378 C392 0.960 . S
H379 C392 0.961 . S
H380 C392 0.959 . S
H381 C395 0.929 . S
H382 C396 0.931 . S
H383 C398 0.930 . S
C384 H372 0.930 1_545 S
C384 C385 1.399 . S
C384 C389 1.399 . S
C385 C384 1.399 . S
C385 C386 1.376 . S
C386 H373 0.930 . S
C386 C385 1.376 . S
C386 C387 1.388 . S
C387 H374 0.930 . S
C387 C386 1.388 . S
C387 C388 1.390 . S
C388 C387 1.390 . S
C388 C389 1.394 . S
C388 C394 1.465 . S
C389 C384 1.399 . S
C389 C388 1.394 . S
C389 C390 1.533 . S
C390 C389 1.533 . S
C390 C391 1.499 1_545 S
C390 C392 1.544 1_545 S
C390 C393 1.530 . S
C391 H375 0.959 1_565 S
C391 H376 0.959 . S
C391 H377 0.961 . S
C391 C390 1.499 1_565 S
C392 H378 0.960 . S
C392 H379 0.961 . S
C392 H380 0.959 . S
C392 C390 1.544 1_565 S
C393 C390 1.530 . S
C393 C394 1.396 . S
C393 C398 1.390 . S
C394 C388 1.465 . S
C394 C393 1.396 . S
C394 C395 1.399 . S
C395 H381 0.929 . S
C395 C394 1.399 . S
C395 C396 1.385 . S
C396 H382 0.931 . S
C396 C395 1.385 . S
C396 C397 1.389 . S
C397 C396 1.389 . S
C397 C398 1.387 . S
C398 H383 0.930 . S
C398 C393 1.390 . S
C398 C397 1.387 . S
H399 C411 0.930 . S
H400 C413 0.930 . S
H401 C414 0.930 . S
H402 C418 0.959 . S
H403 C418 0.959 . S
H404 C418 0.961 . S
H405 C419 0.960 . S
H406 C419 0.961 . S
H407 C419 0.959 . S
H408 C422 0.929 . S
H409 C423 0.931 . S
H410 C425 0.930 . S
C411 H399 0.930 . S
C411 C412 1.399 . S
C411 C416 1.399 . S
C412 C411 1.399 . S
C412 C413 1.376 . S
C413 H400 0.930 . S
C413 C412 1.376 . S
C413 C414 1.388 . S
C414 H401 0.930 . S
C414 C413 1.388 . S
C414 C415 1.390 . S
C415 C414 1.390 . S
C415 C416 1.394 . S
C415 C421 1.465 . S
C416 C411 1.399 . S
C416 C415 1.394 . S
C416 C417 1.516 . S
C417 C416 1.516 . S
C417 C418 1.502 . S
C417 C419 1.561 . S
C417 C420 1.526 . S
C418 H402 0.959 . S
C418 H403 0.959 . S
C418 H404 0.961 . S
C418 C417 1.502 . S
C419 H405 0.960 . S
C419 H406 0.961 . S
C419 H407 0.959 . S
C419 C417 1.561 . S
C420 C417 1.526 . S
C420 C421 1.396 . S
C420 C425 1.390 . S
C421 C415 1.465 . S
C421 C420 1.396 . S
C421 C422 1.399 . S
C422 H408 0.929 . S
C422 C421 1.399 . S
C422 C423 1.385 . S
C423 H409 0.931 . S
C423 C422 1.385 . S
C423 C424 1.389 . S
C424 C423 1.389 . S
C424 C425 1.387 . S
C425 H410 0.930 . S
C425 C420 1.390 . S
C425 C424 1.387 . S
H426 C438 0.930 . S
H427 C440 0.930 . S
H428 C441 0.930 1_565 S
H429 C445 0.959 . S
H430 C445 0.959 . S
H431 C445 0.961 . S
H432 C446 0.960 . S
H433 C446 0.961 . S
H434 C446 0.959 . S
H435 C449 0.929 1_565 S
H436 C450 0.934 . S
H437 C452 0.930 . S
C438 H426 0.930 . S
C438 C439 1.399 . S
C438 C443 1.399 . S
C439 C438 1.399 . S
C439 C440 1.376 . S
C440 H427 0.930 . S
C440 C439 1.376 . S
C440 C441 1.388 . S
C441 H428 0.930 1_545 S
C441 C440 1.388 . S
C441 C442 1.390 . S
C442 C441 1.390 . S
C442 C443 1.394 . S
C442 C448 1.465 . S
C443 C438 1.399 . S
C443 C442 1.394 . S
C443 C444 1.516 . S
C444 C443 1.516 . S
C444 C445 1.502 . S
C444 C446 1.561 . S
C444 C447 1.526 . S
C445 H429 0.959 . S
C445 H430 0.959 . S
C445 H431 0.961 . S
C445 C444 1.502 . S
C446 H432 0.960 . S
C446 H433 0.961 . S
C446 H434 0.959 . S
C446 C444 1.561 . S
C447 C444 1.526 . S
C447 C448 1.396 . S
C447 C452 1.390 . S
C448 C442 1.465 . S
C448 C447 1.396 . S
C448 C449 1.399 . S
C449 H435 0.929 1_545 S
C449 C448 1.399 . S
C449 C450 1.385 . S
C450 H436 0.934 . S
C450 C449 1.385 . S
C450 C451 1.389 . S
C451 C450 1.389 . S
C451 C452 1.387 . S
C452 H437 0.930 . S
C452 C447 1.390 . S
C452 C451 1.387 . S
H453 C465 0.930 . S
H454 C467 0.932 1_545 S
H455 C468 0.930 1_556 S
H456 C472 0.959 . S
H457 C472 0.959 . S
H458 C472 0.961 . S
H459 C473 0.960 . S
H460 C473 0.961 . S
H461 C473 0.959 . S
H462 C476 0.929 . S
H463 C477 0.931 . S
H464 C479 0.930 . S
C465 H453 0.930 . S
C465 C466 1.399 1_655 S
C465 C470 1.399 . S
C466 C465 1.399 1_455 S
C466 C467 1.375 . S
C467 H454 0.932 1_565 S
C467 C466 1.375 . S
C467 C468 1.388 1_455 S
C468 H455 0.930 1_554 S
C468 C467 1.388 1_655 S
C468 C469 1.390 1_554 S
C469 C468 1.390 1_556 S
C469 C470 1.394 1_556 S
C469 C475 1.465 . S
C470 C465 1.399 . S
C470 C469 1.394 1_554 S
C470 C471 1.516 . S
C471 C470 1.516 . S
C471 C472 1.502 . S
C471 C473 1.561 . S
C471 C474 1.526 1_554 S
C472 H456 0.959 . S
C472 H457 0.959 . S
C472 H458 0.961 . S
C472 C471 1.502 . S
C473 H459 0.960 . S
C473 H460 0.961 . S
C473 H461 0.959 . S
C473 C471 1.561 . S
C474 C471 1.526 1_556 S
C474 C475 1.396 . S
C474 C479 1.390 . S
C475 C469 1.465 . S
C475 C474 1.396 . S
C475 C476 1.399 . S
C476 H462 0.929 . S
C476 C475 1.399 . S
C476 C477 1.385 . S
C477 H463 0.931 . S
C477 C476 1.385 . S
C477 C478 1.389 . S
C478 C477 1.389 . S
C478 C479 1.387 . S
C479 H464 0.930 . S
C479 C474 1.390 . S
C479 C478 1.387 . S
H480 C492 0.930 . S
H481 C494 0.930 . S
H482 C495 0.930 . S
H483 C499 0.959 . S
H484 C499 0.959 . S
H485 C499 0.961 . S
H486 C500 0.960 . S
H487 C500 0.961 . S
H488 C500 0.959 . S
H489 C503 0.929 . S
H490 C504 0.931 . S
H491 C506 0.930 . S
C492 H480 0.930 . S
C492 C493 1.399 . S
C492 C497 1.399 . S
C493 C492 1.399 . S
C493 C494 1.376 1_455 S
C494 H481 0.930 . S
C494 C493 1.376 1_655 S
C494 C495 1.388 . S
C495 H482 0.930 . S
C495 C494 1.388 . S
C495 C496 1.390 . S
C496 C495 1.390 . S
C496 C497 1.394 1_655 S
C496 C502 1.465 . S
C497 C492 1.399 . S
C497 C496 1.394 1_455 S
C497 C498 1.516 . S
C498 C497 1.516 . S
C498 C499 1.502 . S
C498 C500 1.561 . S
C498 C501 1.526 . S
C499 H483 0.959 . S
C499 H484 0.959 . S
C499 H485 0.961 . S
C499 C498 1.502 . S
C500 H486 0.960 . S
C500 H487 0.961 . S
C500 H488 0.959 . S
C500 C498 1.561 . S
C501 C498 1.526 . S
C501 C502 1.396 1_455 S
C501 C506 1.390 . S
C502 C496 1.465 . S
C502 C501 1.396 1_655 S
C502 C503 1.399 . S
C503 H489 0.929 . S
C503 C502 1.399 . S
C503 C504 1.385 . S
C504 H490 0.931 . S
C504 C503 1.385 . S
C504 C505 1.389 1_655 S
C505 C504 1.389 1_455 S
C505 C506 1.387 . S
C506 H491 0.930 . S
C506 C501 1.390 . S
C506 C505 1.387 . S
H507 C519 0.930 . S
H508 C521 0.930 . S
H509 C522 0.930 . S
H510 C526 0.959 . S
H511 C526 0.959 . S
H512 C526 0.961 . S
H513 C527 0.960 . S
H514 C527 0.961 . S
H515 C527 0.959 . S
H516 C530 0.929 . S
H517 C531 0.931 . S
H518 C533 0.930 . S
C519 H507 0.930 . S
C519 C520 1.399 1_565 S
C519 C524 1.399 . S
C520 C519 1.399 1_545 S
C520 C521 1.376 . S
C521 H508 0.930 . S
C521 C520 1.376 . S
C521 C522 1.388 . S
C522 H509 0.930 . S
C522 C521 1.388 . S
C522 C523 1.390 . S
C523 C522 1.390 . S
C523 C524 1.394 1_545 S
C523 C529 1.465 . S
C524 C519 1.399 . S
C524 C523 1.394 1_565 S
C524 C525 1.516 . S
C525 C524 1.516 . S
C525 C526 1.502 . S
C525 C527 1.561 . S
C525 C528 1.530 . S
C526 H510 0.959 . S
C526 H511 0.959 . S
C526 H512 0.961 . S
C526 C525 1.502 . S
C527 H513 0.960 . S
C527 H514 0.961 . S
C527 H515 0.959 . S
C527 C525 1.561 . S
C528 C525 1.530 . S
C528 C529 1.382 1_565 S
C528 C533 1.397 . S
C529 C523 1.465 . S
C529 C528 1.382 1_545 S
C529 C530 1.399 . S
C530 H516 0.929 . S
C530 C529 1.399 . S
C530 C531 1.385 . S
C531 H517 0.931 . S
C531 C530 1.385 . S
C531 C532 1.389 . S
C532 C531 1.389 . S
C532 C533 1.387 1_545 S
C533 H518 0.930 . S
C533 C528 1.397 . S
C533 C532 1.387 1_565 S
H534 C546 0.930 . S
H535 C548 0.930 . S
H536 C549 0.930 . S
H537 C553 0.959 . S
H538 C553 0.959 . S
H539 C553 0.961 . S
H540 C554 0.960 . S
H541 C554 0.961 . S
H542 C554 0.959 . S
H543 C557 0.929 . S
H544 C558 0.931 . S
H545 C560 0.930 1_554 S
C546 H534 0.930 . S
C546 C547 1.399 . S
C546 C551 1.399 . S
C547 C546 1.399 . S
C547 C548 1.376 . S
C548 H535 0.930 . S
C548 C547 1.376 . S
C548 C549 1.388 . S
C549 H536 0.930 . S
C549 C548 1.388 . S
C549 C550 1.390 . S
C550 C549 1.390 . S
C550 C551 1.394 . S
C550 C556 1.465 . S
C551 C546 1.399 . S
C551 C550 1.394 . S
C551 C552 1.516 . S
C552 C551 1.516 . S
C552 C553 1.502 . S
C552 C554 1.561 . S
C552 C555 1.526 . S
C553 H537 0.959 . S
C553 H538 0.959 . S
C553 H539 0.961 . S
C553 C552 1.502 . S
C554 H540 0.960 . S
C554 H541 0.961 . S
C554 H542 0.959 . S
C554 C552 1.561 . S
C555 C552 1.526 . S
C555 C556 1.396 . S
C555 C560 1.390 1_554 S
C556 C550 1.465 . S
C556 C555 1.396 . S
C556 C557 1.399 1_554 S
C557 H543 0.929 . S
C557 C556 1.399 1_556 S
C557 C558 1.385 . S
C558 H544 0.931 . S
C558 C557 1.385 . S
C558 C559 1.389 . S
C559 C558 1.389 . S
C559 C560 1.387 . S
C560 H545 0.930 1_556 S
C560 C555 1.390 1_556 S
C560 C559 1.387 . S
H561 C573 0.930 . S
H562 C575 0.930 . S
H563 C576 0.930 . S
H564 C580 0.959 . S
H565 C580 0.959 . S
H566 C580 0.961 . S
H567 C581 0.954 . S
H568 C581 0.962 . S
H569 C581 0.974 . S
H570 C584 0.929 . S
H571 C585 0.931 . S
H572 C587 0.930 . S
C573 H561 0.930 . S
C573 C574 1.399 . S
C573 C578 1.399 . S
C574 C573 1.399 . S
C574 C575 1.376 . S
C575 H562 0.930 . S
C575 C574 1.376 . S
C575 C576 1.388 . S
C576 H563 0.930 . S
C576 C575 1.388 . S
C576 C577 1.390 . S
C577 C576 1.390 . S
C577 C578 1.394 . S
C577 C583 1.465 . S
C578 C573 1.399 . S
C578 C577 1.394 . S
C578 C579 1.516 . S
C579 C578 1.516 . S
C579 C580 1.502 . S
C579 C581 1.550 1_455 S
C579 C582 1.526 . S
C580 H564 0.959 . S
C580 H565 0.959 . S
C580 H566 0.961 . S
C580 C579 1.502 . S
C581 H567 0.954 . S
C581 H568 0.962 . S
C581 H569 0.974 . S
C581 C579 1.550 1_655 S
C582 C579 1.526 . S
C582 C583 1.396 . S
C582 C587 1.390 . S
C583 C577 1.465 . S
C583 C582 1.396 . S
C583 C584 1.399 . S
C584 H570 0.929 . S
C584 C583 1.399 . S
C584 C585 1.385 . S
C585 H571 0.931 . S
C585 C584 1.385 . S
C585 C586 1.389 . S
C586 C585 1.389 . S
C586 C587 1.387 . S
C587 H572 0.930 . S
C587 C582 1.390 . S
C587 C586 1.387 . S
C289 C81 1.225 . S
C277 C11 1.257 . S
C304 C25 1.261 . S
C316 C155 1.286 . S
C331 C41 1.996 1_655 S
C343 C259 2.053 . S
C358 C7 0.723 . S
C370 C93 0.726 . S
C397 C167 0.791 . S
C385 C21 0.744 . S
C412 C36 1.474 . S
C424 C253 1.353 . S
C451 C185 2.025 . S
C439 C39 1.994 1_655 S
C466 C8 1.319 1_565 S
C478 C229 1.393 . S
C505 C105 1.488 . S
C493 C22 1.582 . S
C532 C179 1.338 . S
C520 C35 1.485 . S
C559 C241 0.821 . S
C547 C13 0.701 . S
C574 C27 2.054 . S
C586 C111 2.120 . S
