# Generated by pormake.
# Topology ssa, (4,4)-cn, num edge types: 1
# Building blocks:
#     Node 0, Type 0, BuildingBlock: KUFVIS_clean_linker_0, # of connection points: 4
#     Node 1, Type 0, BuildingBlock: KUFVIS_clean_linker_0, # of connection points: 4
#     Node 2, Type 0, BuildingBlock: KUFVIS_clean_linker_0, # of connection points: 4
#     Node 3, Type 0, BuildingBlock: KUFVIS_clean_linker_0, # of connection points: 4
#     Node 4, Type 0, BuildingBlock: KUFVIS_clean_linker_0, # of connection points: 4
#     Node 5, Type 0, BuildingBlock: KUFVIS_clean_linker_0, # of connection points: 4
#     Node 6, Type 1, BuildingBlock: MUDLON_clean_sbu_0, # of connection points: 4
#     Node 7, Type 1, BuildingBlock: MUDLON_clean_sbu_0, # of connection points: 4
#     Node 8, Type 1, BuildingBlock: MUDLON_clean_sbu_0, # of connection points: 4
#     Node 9, Type 1, BuildingBlock: MUDLON_clean_sbu_0, # of connection points: 4
#     Node 10, Type 1, BuildingBlock: MUDLON_clean_sbu_0, # of connection points: 4
#     Node 11, Type 1, BuildingBlock: MUDLON_clean_sbu_0, # of connection points: 4
#     Edge 12, Type (0, 1), BuildingBlock: KIFKEQ_clean_linker_1, # of connection points: 2
#     Edge 13, Type (0, 1), BuildingBlock: KIFKEQ_clean_linker_1, # of connection points: 2
#     Edge 14, Type (0, 1), BuildingBlock: KIFKEQ_clean_linker_1, # of connection points: 2
#     Edge 15, Type (0, 1), BuildingBlock: KIFKEQ_clean_linker_1, # of connection points: 2
#     Edge 16, Type (0, 1), BuildingBlock: KIFKEQ_clean_linker_1, # of connection points: 2
#     Edge 17, Type (0, 1), BuildingBlock: KIFKEQ_clean_linker_1, # of connection points: 2
#     Edge 18, Type (0, 1), BuildingBlock: KIFKEQ_clean_linker_1, # of connection points: 2
#     Edge 19, Type (0, 1), BuildingBlock: KIFKEQ_clean_linker_1, # of connection points: 2
#     Edge 20, Type (0, 1), BuildingBlock: KIFKEQ_clean_linker_1, # of connection points: 2
#     Edge 21, Type (0, 1), BuildingBlock: KIFKEQ_clean_linker_1, # of connection points: 2
#     Edge 22, Type (0, 1), BuildingBlock: KIFKEQ_clean_linker_1, # of connection points: 2
#     Edge 23, Type (0, 1), BuildingBlock: KIFKEQ_clean_linker_1, # of connection points: 2
#     Edge 24, Type (0, 1), BuildingBlock: KIFKEQ_clean_linker_1, # of connection points: 2
#     Edge 25, Type (0, 1), BuildingBlock: KIFKEQ_clean_linker_1, # of connection points: 2
#     Edge 26, Type (0, 1), BuildingBlock: KIFKEQ_clean_linker_1, # of connection points: 2
#     Edge 27, Type (0, 1), BuildingBlock: KIFKEQ_clean_linker_1, # of connection points: 2
#     Edge 28, Type (0, 1), BuildingBlock: KIFKEQ_clean_linker_1, # of connection points: 2
#     Edge 29, Type (0, 1), BuildingBlock: KIFKEQ_clean_linker_1, # of connection points: 2
#     Edge 30, Type (0, 1), BuildingBlock: KIFKEQ_clean_linker_1, # of connection points: 2
#     Edge 31, Type (0, 1), BuildingBlock: KIFKEQ_clean_linker_1, # of connection points: 2
#     Edge 32, Type (0, 1), BuildingBlock: KIFKEQ_clean_linker_1, # of connection points: 2
#     Edge 33, Type (0, 1), BuildingBlock: KIFKEQ_clean_linker_1, # of connection points: 2
#     Edge 34, Type (0, 1), BuildingBlock: KIFKEQ_clean_linker_1, # of connection points: 2
#     Edge 35, Type (0, 1), BuildingBlock: KIFKEQ_clean_linker_1, # of connection points: 2
# Relax obj value: 0.001
# Max RMSD: 0.051
# Mean RMSD: 0.029
data_MOF--net-ssa--node1-MUDLON_clean_sbu_0--node2-KUFVIS_clean_linker_0--edge1-KIFKEQ_clean_linker_1
_symmetry_space_group_name_H-M    P1
_symmetry_Int_Tables_number       1
_symmetry_cell_setting            triclinic
loop_
_symmetry_equiv_pos_as_xyz
'x, y, z'
_cell_length_a     45.968489
_cell_length_b     46.284907
_cell_length_c     39.344301
_cell_angle_alpha  89.150083
_cell_angle_beta   90.449076
_cell_angle_gamma 119.88637
loop_
_atom_site_label
_atom_site_type_symbol
_atom_site_fract_x
_atom_site_fract_y
_atom_site_fract_z
_atom_type_partial_charge
H0 H 0.9295 0.42408 0.98241 0.0
H1 H 0.9809 0.50131 1.0558 0.0
H2 H -0.00266 0.41695 1.05193 0.0
H3 H -0.00192 0.42204 0.10866 0.0
H4 H 0.06783 0.50022 0.17252 0.0
H5 H 0.0325 0.52527 0.08166 0.0
C6 C 0.94726 0.43483 1.00314 0.0
C7 C 0.96247 0.41732 1.01585 0.0
C8 C 0.95478 0.46585 1.01614 0.0
C9 C 0.9762 0.47813 1.04469 0.0
C10 C -0.00868 0.46038 1.05886 0.0
C11 C 0.9851 0.43046 1.04302 0.0
C12 C 0.01267 0.47211 0.0905 0.0
C13 C 0.01347 0.44848 0.11321 0.0
C14 C 0.03327 0.45851 0.14268 0.0
C15 C 0.05243 0.49248 0.14978 0.0
C16 C 0.05222 0.51669 0.12818 0.0
C17 C 0.03212 0.50644 0.09859 0.0
H18 H 0.53647 0.05109 0.67807 0.0
H19 H 0.45402 -0.00685 0.6115 0.0
H20 H 0.54673 -0.00988 0.60419 0.0
H21 H 0.51323 0.93885 0.58874 0.0
H22 H 0.44555 0.89458 0.50559 0.0
H23 H 0.44575 0.97481 0.55815 0.0
C24 C 0.52568 0.03329 0.65761 0.0
C25 C 0.54457 0.02061 0.6432 0.0
C26 C 0.49349 0.02407 0.64582 0.0
C27 C 0.4795 0.00105 0.61925 0.0
C28 C 0.49787 0.98752 0.60401 0.0
C29 C 0.53115 -0.00133 0.61574 0.0
C30 C 0.48221 0.96111 0.57703 0.0
C31 C 0.49406 0.93844 0.57233 0.0
C32 C 0.48117 0.9146 0.54657 0.0
C33 C 0.45527 0.91245 0.52604 0.0
C34 C 0.44202 0.93346 0.53046 0.0
C35 C 0.45552 0.95797 0.55584 0.0
H36 H 0.4386 0.53445 0.14547 0.0
H37 H 0.43055 0.4709 0.0637 0.0
H38 H 0.52796 0.55115 0.09541 0.0
H39 H 0.54045 0.55324 1.04095 0.0
H40 H 0.54402 0.48273 0.97503 0.0
H41 H 0.46279 0.44926 1.04618 0.0
C42 C 0.45068 0.52751 0.12619 0.0
C43 C 0.48545 0.54582 0.12256 0.0
C44 C 0.43092 0.50037 0.10562 0.0
C45 C 0.44627 0.49158 0.07999 0.0
C46 C 0.48166 0.51027 0.07509 0.0
C47 C 0.50088 0.53714 0.0972 0.0
C48 C 0.4988 0.50233 1.04715 0.0
C49 C 0.52936 0.52767 1.03281 0.0
C50 C 0.54575 0.52045 1.00715 0.0
C51 C 0.53142 0.48794 0.9952 0.0
C52 C 0.50165 0.46208 1.00909 0.0
C53 C 0.48535 0.46942 1.03498 0.0
H54 H 0.92706 0.49729 0.66186 0.0
H55 H 0.00034 0.57804 0.6014 0.0
H56 H 0.97474 0.47647 0.57995 0.0
H57 H 0.02987 0.50407 0.56005 0.0
H58 H 0.0786 0.57879 0.48198 0.0
H59 H 0.00482 0.58208 0.54439 0.0
C60 C 0.94489 0.5061 0.64104 0.0
C61 C 0.94902 0.48302 0.62208 0.0
C62 C 0.96302 0.54024 0.63358 0.0
C63 C 0.98589 0.55149 0.60641 0.0
C64 C -0.00937 0.52887 0.58644 0.0
C65 C 0.97213 0.49448 0.59494 0.0
C66 C 0.01435 0.54148 0.5566 0.0
C67 C 0.03284 0.52591 0.54651 0.0
C68 C 0.05631 0.53938 0.51959 0.0
C69 C 0.06106 0.5684 0.503 0.0
C70 C 0.04302 0.58398 0.51224 0.0
C71 C 0.01919 0.57011 0.53829 0.0
H72 H 0.47615 0.94455 0.16789 0.0
H73 H 0.45575 0.00675 0.1026 0.0
H74 H 0.54724 0.00235 0.09036 0.0
H75 H 0.56505 0.04925 1.06154 0.0
H76 H 0.53328 0.09593 0.98669 0.0
H77 H 0.4597 0.01935 1.04998 0.0
C78 C 0.48362 0.96237 0.14698 0.0
C79 C 0.51455 0.97317 0.13112 0.0
C80 C 0.4621 0.97384 0.13601 0.0
C81 C 0.47203 -0.00311 0.10898 0.0
C82 C 0.50242 0.00745 0.09115 0.0
C83 C 0.52378 -0.0047 0.10295 0.0
C84 C 0.51123 0.03115 1.06092 0.0
C85 C 0.5448 0.05098 1.0494 0.0
C86 C 0.55279 0.07418 1.02245 0.0
C87 C 0.52732 0.07829 1.00757 0.0
C88 C 0.494 0.05921 1.01811 0.0
C89 C 0.48591 0.03487 1.04366 0.0
H90 H 0.52206 0.44769 0.66956 0.0
H91 H 0.56143 0.52172 0.59062 0.0
H92 H 0.45507 0.44782 0.5944 0.0
H93 H 0.45275 0.45967 0.54318 0.0
H94 H 0.48397 0.54205 0.4744 0.0
H95 H 0.54796 0.55073 0.55749 0.0
C96 C 0.51784 0.45902 0.64711 0.0
C97 C 0.48581 0.44446 0.63289 0.0
C98 C 0.54483 0.48724 0.63245 0.0
C99 C 0.53985 0.50069 0.60205 0.0
C100 C 0.5074 0.48724 0.58719 0.0
C101 C 0.48053 0.45889 0.60352 0.0
C102 C 0.50142 0.5026 0.55526 0.0
C103 C 0.47135 0.48476 0.53619 0.0
C104 C 0.4642 0.49922 0.508 0.0
C105 C 0.48857 0.53104 0.49687 0.0
C106 C 0.51884 0.5492 0.51429 0.0
C107 C 0.525 0.53539 0.54376 0.0
Mg108 Mg 0.20915 0.43205 0.32733 0.0
C109 C 0.13498 0.38449 0.31308 0.0
O110 O 0.1308 0.39441 0.3428 0.0
C111 C 0.24432 0.4059 0.38186 0.0
O112 O 0.21552 0.38157 0.3931 0.0
C113 C 0.18069 0.44871 0.38728 0.0
O114 O 0.18135 0.42188 0.39745 0.0
O115 O 0.19239 0.46082 0.35787 0.0
O116 O 0.16432 0.39111 0.30451 0.0
O117 O 0.23984 0.45435 0.28143 0.0
C118 C 0.24226 0.43227 0.26453 0.0
O119 O 0.22612 0.40133 0.27585 0.0
O120 O 0.24489 0.42496 0.35794 0.0
Mg121 Mg 0.79325 0.21741 0.80587 0.0
C122 C 0.75158 0.14588 0.77869 0.0
O123 O 0.74691 0.13794 0.81115 0.0
C124 C 0.86419 0.25616 0.83505 0.0
O125 O 0.86891 0.27421 0.80742 0.0
C126 C 0.75404 0.18847 0.86902 0.0
O127 O 0.77851 0.18165 0.87146 0.0
O128 O 0.75328 0.20502 0.84312 0.0
O129 O 0.77212 0.17589 0.77003 0.0
O130 O 0.80801 0.26173 0.77373 0.0
C131 C 0.82391 0.26318 0.74673 0.0
O132 O 0.8286 0.23807 0.74 0.0
O133 O 0.83671 0.22875 0.83839 0.0
Mg134 Mg 0.5752 0.78808 0.32524 0.0
C135 C 0.57811 0.84883 0.29254 0.0
O136 O 0.55538 0.84082 0.31631 0.0
C137 C 0.58291 0.74118 0.36678 0.0
O138 O 0.55087 0.72935 0.36058 0.0
C139 C 0.57051 0.81964 0.38562 0.0
O140 O 0.60204 0.8368 0.37599 0.0
O141 O 0.54988 0.79544 0.36749 0.0
O142 O 0.59365 0.83242 0.29097 0.0
O143 O 0.54548 0.74556 0.2934 0.0
C144 C 0.55132 0.74795 0.26166 0.0
O145 O 0.57069 0.77744 0.24789 0.0
O146 O 0.60409 0.76946 0.3539 0.0
Mg147 Mg 0.79583 0.58171 0.83694 0.0
C148 C 0.74944 0.54182 0.7744 0.0
O149 O 0.77274 0.53536 0.76421 0.0
C150 C 0.82227 0.55877 0.89625 0.0
O151 O 0.82037 0.58304 0.91098 0.0
C152 C 0.75406 0.5807 0.89282 0.0
O153 O 0.74929 0.55031 0.89123 0.0
O154 O 0.77536 0.60295 0.87274 0.0
O155 O 0.75331 0.5572 0.80211 0.0
O156 O 0.84079 0.61283 0.80652 0.0
C157 C 0.83924 0.61702 0.77463 0.0
O158 O 0.81029 0.61022 0.76124 0.0
O159 O 0.81182 0.55106 0.86578 0.0
Mg160 Mg 0.20895 0.78394 0.30831 0.0
C161 C 0.17589 0.73588 0.25109 0.0
O162 O 0.17117 0.76083 0.2427 0.0
C163 C 0.25038 0.82109 0.3667 0.0
O164 O 0.22731 0.82984 0.36372 0.0
C165 C 0.1366 0.75092 0.33413 0.0
O166 O 0.1302 0.73539 0.30504 0.0
O167 O 0.16605 0.77502 0.33957 0.0
O168 O 0.19244 0.73822 0.27818 0.0
O169 O 0.23146 0.82661 0.27342 0.0
C170 C 0.24807 0.82332 0.24953 0.0
O171 O 0.24735 0.79474 0.24664 0.0
O172 O 0.24937 0.79939 0.34628 0.0
Mg173 Mg 0.41052 0.20348 0.8221 0.0
C174 C 0.41996 0.16747 0.76561 0.0
O175 O 0.39062 0.16477 0.75916 0.0
C176 C 0.42192 0.25921 0.86352 0.0
O177 O 0.39096 0.24589 0.85225 0.0
C178 C 0.37992 0.13513 0.85639 0.0
O179 O 0.38265 0.12613 0.82564 0.0
O180 O 0.3837 0.16409 0.86042 0.0
O181 O 0.43656 0.18442 0.79121 0.0
O182 O 0.38811 0.2236 0.7859 0.0
C183 C 0.40885 0.24046 0.76234 0.0
O184 O 0.43783 0.24131 0.76164 0.0
O185 O 0.43966 0.24652 0.85442 0.0
H186 H 0.02696 0.45496 0.21149 0.0
H187 H 0.04502 0.4077 0.12695 0.0
H188 H 0.04265 0.42428 0.25092 0.0
H189 H 0.05984 0.37576 0.16662 0.0
H190 H 0.14294 0.38487 0.24407 0.0
H191 H 0.10841 0.39153 0.20123 0.0
H192 H 0.0344 0.37453 0.27771 0.0
H193 H 0.0697 0.36912 0.32094 0.0
C194 C 0.03347 0.43725 0.20142 0.0
C195 C 0.0353 0.43412 0.16617 0.0
C196 C 0.04216 0.41931 0.22406 0.0
C197 C 0.05287 0.39764 0.21206 0.0
C198 C 0.0522 0.39258 0.17676 0.0
C199 C 0.04341 0.41061 0.15402 0.0
C200 C 0.11883 0.3815 0.25167 0.0
C201 C 0.10952 0.37734 0.28616 0.0
C202 C 0.09886 0.38523 0.22694 0.0
C203 C 0.06895 0.3845 0.23608 0.0
C204 C 0.05776 0.37626 0.26992 0.0
C205 C 0.07789 0.37287 0.2947 0.0
H206 H 0.60664 0.05096 0.61243 0.0
H207 H 0.5574 0.01325 0.70891 0.0
H208 H 0.66144 0.07643 0.64107 0.0
H209 H 0.61127 0.03905 0.73758 0.0
H210 H 0.7093 0.07878 0.7864 0.0
H211 H 0.66303 0.04231 0.74943 0.0
H212 H 0.69243 0.12343 0.67726 0.0
H213 H 0.73947 0.15942 0.71363 0.0
C214 C 0.60763 0.04745 0.63961 0.0
C215 C 0.57784 0.03026 0.65849 0.0
C216 C 0.63894 0.06234 0.65612 0.0
C217 C 0.64099 0.06011 0.6918 0.0
C218 C 0.61104 0.04107 0.71014 0.0
C219 C 0.58 0.02637 0.69373 0.0
C220 C 0.70637 0.08861 0.76227 0.0
C221 C 0.72787 0.12218 0.75326 0.0
C222 C 0.67963 0.06775 0.74111 0.0
C223 C 0.67336 0.08 0.71057 0.0
C224 C 0.6964 0.11292 0.70041 0.0
C225 C 0.7234 0.1337 0.72142 0.0
H226 H 0.53322 0.60934 0.10444 0.0
H227 H 0.47972 0.54783 0.191 0.0
H228 H 0.55363 0.65906 0.13925 0.0
H229 H 0.49758 0.59695 0.22495 0.0
H230 H 0.54436 0.68965 0.28601 0.0
H231 H 0.53699 0.64223 0.25363 0.0
H232 H 0.53149 0.69069 0.16081 0.0
H233 H 0.54134 0.73918 0.19335 0.0
C234 C 0.52642 0.60645 0.13108 0.0
C235 C 0.50449 0.57484 0.14491 0.0
C236 C 0.53752 0.63494 0.1509 0.0
C237 C 0.52659 0.63228 0.18479 0.0
C238 C 0.50678 0.60031 0.19914 0.0
C239 C 0.49625 0.57199 0.17956 0.0
C240 C 0.54126 0.68998 0.2587 0.0
C241 C 0.54293 0.71785 0.24217 0.0
C242 C 0.53708 0.66277 0.24004 0.0
C243 C 0.53357 0.66237 0.20444 0.0
C244 C 0.53486 0.69025 0.18803 0.0
C245 C 0.53992 0.71786 0.20668 0.0
H246 H 0.95961 0.54254 0.70254 0.0
H247 H 0.95044 0.58927 0.61055 0.0
H248 H 0.93682 0.57071 0.73528 0.0
H249 H 0.92863 0.61879 0.64358 0.0
H250 H 0.83843 0.61174 0.7054 0.0
H251 H 0.87637 0.60234 0.67081 0.0
H252 H 0.94026 0.61928 0.75813 0.0
H253 H 0.90152 0.62755 0.79311 0.0
C254 C 0.95344 0.55954 0.68943 0.0
C255 C 0.95637 0.56328 0.65389 0.0
C256 C 0.94063 0.57603 0.70828 0.0
C257 C 0.93046 0.5969 0.69216 0.0
C258 C 0.93564 0.6025 0.65683 0.0
C259 C 0.94851 0.5859 0.63791 0.0
C260 C 0.86096 0.61427 0.71714 0.0
C261 C 0.86653 0.61984 0.75226 0.0
C262 C 0.88293 0.60899 0.69715 0.0
C263 C 0.91121 0.6094 0.71169 0.0
C264 C 0.91831 0.61792 0.74619 0.0
C265 C 0.89621 0.62296 0.76624 0.0
H266 H 0.40196 0.95138 0.10378 0.0
H267 H 0.44605 0.96498 0.20373 0.0
H268 H 0.34595 0.92161 0.12894 0.0
H269 H 0.39006 0.93481 0.22884 0.0
H270 H 0.28463 0.88881 0.26801 0.0
H271 H 0.33465 0.9325 0.23893 0.0
H272 H 0.31749 0.86526 0.15644 0.0
H273 H 0.26804 0.82192 0.18544 0.0
C274 C 0.39968 0.94866 0.13118 0.0
C275 C 0.42839 0.96021 0.15177 0.0
C276 C 0.36762 0.93147 0.14556 0.0
C277 C 0.36359 0.92571 0.18084 0.0
C278 C 0.39231 0.93908 0.2016 0.0
C279 C 0.42437 0.95603 0.18721 0.0
C280 C 0.29101 0.88385 0.24315 0.0
C281 C 0.27262 0.852 0.22898 0.0
C282 C 0.31976 0.9087 0.22667 0.0
C283 C 0.33014 0.90223 0.19552 0.0
C284 C 0.31008 0.87118 0.18023 0.0
C285 C 0.28179 0.84628 0.1969 0.0
H286 H 0.4455 0.38508 0.60173 0.0
H287 H 0.46671 0.43244 0.69944 0.0
H288 H 0.41335 0.33048 0.62964 0.0
H289 H 0.43529 0.37818 0.72741 0.0
H290 H 0.37842 0.27757 0.77436 0.0
H291 H 0.38447 0.32476 0.73956 0.0
H292 H 0.43595 0.30135 0.66276 0.0
H293 H 0.42977 0.25469 0.69725 0.0
C294 C 0.4423 0.38388 0.62906 0.0
C295 C 0.45892 0.41295 0.64844 0.0
C296 C 0.42416 0.35261 0.64512 0.0
C297 C 0.42215 0.34982 0.68086 0.0
C298 C 0.43607 0.37923 0.6999 0.0
C299 C 0.45429 0.41039 0.68388 0.0
C300 C 0.38985 0.28187 0.74946 0.0
C301 C 0.40374 0.26259 0.73852 0.0
C302 C 0.39363 0.30906 0.72966 0.0
C303 C 0.41098 0.31711 0.69843 0.0
C304 C 0.42217 0.29587 0.6864 0.0
C305 C 0.41878 0.26913 0.70629 0.0
H306 H 0.44914 0.84907 0.52815 0.0
H307 H 0.5479 0.93328 0.54512 0.0
H308 H 0.47313 0.82273 0.49489 0.0
H309 H 0.57257 0.90527 0.51495 0.0
H310 H 0.59671 0.88193 0.41008 0.0
H311 H 0.57791 0.90007 0.45828 0.0
H312 H 0.50269 0.79762 0.48022 0.0
H313 H 0.52025 0.78008 0.42987 0.0
C314 C 0.47619 0.86146 0.52571 0.0
C315 C 0.49647 0.89393 0.53794 0.0
C316 C 0.49013 0.84609 0.50689 0.0
C317 C 0.52489 0.86238 0.50082 0.0
C318 C 0.54555 0.89263 0.51758 0.0
C319 C 0.53147 0.90848 0.53559 0.0
C320 C 0.5762 0.86332 0.42532 0.0
C321 C 0.55957 0.82972 0.41605 0.0
C322 C 0.56564 0.87362 0.45342 0.0
C323 C 0.53868 0.85042 0.47363 0.0
C324 C 0.52302 0.81643 0.46504 0.0
C325 C 0.53305 0.80626 0.43622 0.0
H326 H 0.56281 0.54097 0.94148 0.0
H327 H 0.60423 0.55431 1.04247 0.0
H328 H 0.61923 0.56788 0.9174 0.0
H329 H 0.66096 0.5813 1.01846 0.0
H330 H 0.73138 0.55384 0.95507 0.0
H331 H 0.68481 0.55182 0.98611 0.0
H332 H 0.67784 0.61703 0.91092 0.0
H333 H 0.72516 0.61931 0.87989 0.0
C334 C 0.58415 0.55091 0.95855 0.0
C335 C 0.57922 0.54554 0.9938 0.0
C336 C 0.61651 0.56639 0.94479 0.0
C337 C 0.64462 0.57642 0.96598 0.0
C338 C 0.63979 0.5736 1.00146 0.0
C339 C 0.60737 0.55844 1.01524 0.0
C340 C 0.72062 0.56863 0.94575 0.0
C341 C 0.73183 0.58668 0.91507 0.0
C342 C 0.69399 0.56761 0.96364 0.0
C343 C 0.67745 0.58415 0.95095 0.0
C344 C 0.69001 0.60395 0.92129 0.0
C345 C 0.71723 0.60547 0.90366 0.0
H346 H -0.00012 0.59664 0.475 0.0
H347 H 0.10274 0.6409 0.50815 0.0
H348 H 0.01546 0.64385 0.4357 0.0
H349 H 0.11852 0.68749 0.46907 0.0
H350 H 0.14548 0.77072 0.40064 0.0
H351 H 0.11606 0.73591 0.44979 0.0
H352 H 0.04715 0.65839 0.38288 0.0
H353 H 0.07588 0.69339 0.33392 0.0
C354 C 0.02558 0.61697 0.47454 0.0
C355 C 0.05021 0.61519 0.4943 0.0
C356 C 0.03458 0.64384 0.45194 0.0
C357 C 0.0683 0.66941 0.449 0.0
C358 C 0.09227 0.66861 0.47083 0.0
C359 C 0.08334 0.64178 0.49311 0.0
C360 C 0.12339 0.74669 0.3964 0.0
C361 C 0.11358 0.73453 0.36328 0.0
C362 C 0.10662 0.72664 0.42462 0.0
C363 C 0.07975 0.694 0.42031 0.0
C364 C 0.06771 0.68335 0.38725 0.0
C365 C 0.08439 0.70343 0.35905 0.0
H366 H 0.49708 0.11899 1.01021 0.0
H367 H 0.43341 0.01451 0.98933 0.0
H368 H 0.46066 0.13219 0.97649 0.0
H369 H 0.39604 0.02757 0.95582 0.0
H370 H 0.38012 0.07613 0.85614 0.0
H371 H 0.40023 0.05379 0.90095 0.0
H372 H 0.40757 0.12947 0.96908 0.0
H373 H 0.38828 0.15247 0.92382 0.0
C374 C 0.47483 0.09874 0.99885 0.0
C375 C 0.46832 0.06576 1.0021 0.0
C376 C 0.45368 0.10626 0.97974 0.0
C377 C 0.42533 0.081 0.96321 0.0
C378 C 0.41782 0.04771 0.96789 0.0
C379 C 0.43903 0.04015 0.98729 0.0
C380 C 0.38521 0.08759 0.8809 0.0
C381 C 0.38316 0.11656 0.88607 0.0
C382 C 0.39665 0.0746 0.90676 0.0
C383 C 0.40623 0.09017 0.93854 0.0
C384 C 0.4012 0.11729 0.94467 0.0
C385 C 0.38982 0.13034 0.91876 0.0
H386 H 0.42449 0.43241 0.49234 0.0
H387 H 0.4275 0.52717 0.48535 0.0
H388 H 0.37042 0.40598 0.46235 0.0
H389 H 0.37462 0.50105 0.45468 0.0
H390 H 0.30693 0.45514 0.36425 0.0
H391 H 0.35894 0.47431 0.39544 0.0
H392 H 0.30775 0.3958 0.46997 0.0
H393 H 0.25482 0.37635 0.43868 0.0
C394 C 0.41365 0.44757 0.48466 0.0
C395 C 0.43076 0.4821 0.49081 0.0
C396 C 0.38274 0.43242 0.46746 0.0
C397 C 0.36861 0.45158 0.45581 0.0
C398 C 0.38525 0.48578 0.46278 0.0
C399 C 0.41571 0.50077 0.48019 0.0
C400 C 0.30654 0.44162 0.38711 0.0
C401 C 0.27645 0.4144 0.39916 0.0
C402 C 0.33645 0.45273 0.40502 0.0
C403 C 0.33729 0.43684 0.43534 0.0
C404 C 0.30774 0.4085 0.44662 0.0
C405 C 0.27749 0.39745 0.42875 0.0
H406 H 0.90203 0.36084 1.01453 0.0
H407 H 0.00349 0.4034 0.97803 0.0
H408 H 0.8836 0.31551 0.97438 0.0
H409 H 0.98533 0.35755 0.9378 0.0
H410 H 0.9244 0.31404 0.83649 0.0
H411 H 0.95306 0.34678 0.88608 0.0
H412 H 0.88274 0.26706 0.95154 0.0
H413 H 0.85348 0.23445 0.90165 0.0
C414 C 0.92061 0.35963 0.99877 0.0
C415 C 0.95414 0.38549 0.99937 0.0
C416 C 0.91011 0.33361 0.97571 0.0
C417 C 0.93288 0.33294 0.95246 0.0
C418 C 0.96703 0.35749 0.95501 0.0
C419 C 0.97757 0.38353 0.97829 0.0
C420 C 0.91549 0.30307 0.86144 0.0
C421 C 0.88625 0.27181 0.86498 0.0
C422 C 0.93212 0.32184 0.89002 0.0
C423 C 0.91998 0.30985 0.92295 0.0
C424 C 0.89244 0.27734 0.92657 0.0
C425 C 0.87579 0.25851 0.89792 0.0
H426 H 0.94517 0.47016 0.94814 0.0
H427 H 0.9303 0.50396 1.04476 0.0
H428 H 0.9123 0.49057 0.92027 0.0
H429 H 0.90052 0.52861 1.01599 0.0
H430 H 0.81824 0.53951 0.9626 0.0
H431 H 0.85183 0.51942 0.99183 0.0
H432 H 0.90575 0.53105 0.89812 0.0
H433 H 0.86973 0.54768 0.86885 0.0
C434 C 0.93515 0.48239 0.96353 0.0
C435 C 0.93964 0.48437 0.99903 0.0
C436 C 0.91667 0.49491 0.94723 0.0
C437 C 0.90311 0.51135 0.96552 0.0
C438 C 0.9095 0.51533 1.00086 0.0
C439 C 0.92726 0.50175 1.01744 0.0
C440 C 0.8369 0.537 0.94832 0.0
C441 C 0.84095 0.5444 0.91338 0.0
C442 C 0.85668 0.52602 0.96516 0.0
C443 C 0.88193 0.52335 0.94771 0.0
C444 C 0.88611 0.53149 0.91265 0.0
C445 C 0.86549 0.54123 0.89564 0.0
H446 H 0.4447 0.94229 0.4621 0.0
H447 H 0.37615 0.90929 0.54672 0.0
H448 H 0.39755 0.91573 0.42263 0.0
H449 H 0.32865 0.8826 0.50725 0.0
H450 H 0.25118 0.85805 0.42033 0.0
H451 H 0.2969 0.89023 0.45975 0.0
H452 H 0.35755 0.8561 0.41021 0.0
H453 H 0.31162 0.82379 0.3705 0.0
C454 C 0.4194 0.93044 0.47212 0.0
C455 C 0.41406 0.92822 0.50745 0.0
C456 C 0.39241 0.91465 0.44958 0.0
C457 C 0.35933 0.89637 0.46178 0.0
C458 C 0.35381 0.89644 0.49698 0.0
C459 C 0.38095 0.91209 0.51962 0.0
C460 C 0.27419 0.8572 0.41787 0.0
C461 C 0.2777 0.8383 0.39213 0.0
C462 C 0.3004 0.87566 0.4406 0.0
C463 C 0.33105 0.87608 0.43802 0.0
C464 C 0.33445 0.85678 0.41259 0.0
C465 C 0.30802 0.83796 0.39003 0.0
H466 H 0.43619 0.41572 0.99448 0.0
H467 H 0.5367 0.4307 0.99286 0.0
H468 H 0.41617 0.36391 0.96354 0.0
H469 H 0.51748 0.38076 0.9597 0.0
H470 H 0.47167 0.27895 0.91176 0.0
H471 H 0.48847 0.3236 0.95297 0.0
H472 H 0.41772 0.34888 0.90796 0.0
H473 H 0.39998 0.30344 0.86849 0.0
C474 C 0.45395 0.4078 0.98786 0.0
C475 C 0.48816 0.4278 0.99551 0.0
C476 C 0.44262 0.37834 0.96955 0.0
C477 C 0.46529 0.36838 0.95811 0.0
C478 C 0.49911 0.38732 0.96787 0.0
C479 C 0.51028 0.41638 0.98659 0.0
C480 C 0.45989 0.29421 0.91077 0.0
C481 C 0.43454 0.28771 0.88694 0.0
C482 C 0.46947 0.31985 0.93437 0.0
C483 C 0.45429 0.33991 0.93422 0.0
C484 C 0.42937 0.33355 0.90979 0.0
C485 C 0.41945 0.30767 0.88674 0.0
H486 H 0.03425 0.47351 0.50541 0.0
H487 H 0.12328 0.57064 0.50523 0.0
H488 H 0.06499 0.45118 0.47485 0.0
H489 H 0.15361 0.54863 0.47434 0.0
H490 H 0.1797 0.50754 0.37952 0.0
H491 H 0.15046 0.52811 0.415 0.0
H492 H 0.11343 0.44032 0.47903 0.0
H493 H 0.14262 0.41988 0.4439 0.0
C494 C 0.06052 0.4899 0.49956 0.0
C495 C 0.07614 0.52392 0.50745 0.0
C496 C 0.0781 0.4772 0.48182 0.0
C497 C 0.1116 0.49832 0.47148 0.0
C498 C 0.12765 0.53187 0.48112 0.0
C499 C 0.11027 0.54441 0.49903 0.0
C500 C 0.16544 0.49271 0.40122 0.0
C501 C 0.16369 0.46212 0.40883 0.0
C502 C 0.14877 0.50453 0.42166 0.0
C503 C 0.12958 0.48585 0.44994 0.0
C504 C 0.12772 0.45521 0.45737 0.0
C505 C 0.14471 0.44363 0.43725 0.0
H506 H 0.59497 0.05149 1.00347 0.0
H507 H 0.58781 0.14085 1.00777 0.0
H508 H 0.64572 0.0812 0.96884 0.0
H509 H 0.6384 0.17055 0.97325 0.0
H510 H 0.69736 0.19434 0.87183 0.0
H511 H 0.6518 0.16864 0.91334 0.0
H512 H 0.70426 0.12604 0.96671 0.0
H513 H 0.74943 0.15128 0.92526 0.0
C514 C 0.60478 0.07771 0.99782 0.0
C515 C 0.58725 0.09373 1.00809 0.0
C516 C 0.63376 0.09474 0.97782 0.0
C517 C 0.6458 0.12814 0.96772 0.0
C518 C 0.62938 0.14466 0.97985 0.0
C519 C 0.60055 0.1277 0.99985 0.0
C520 C 0.69927 0.1797 0.89255 0.0
C521 C 0.72703 0.17483 0.89506 0.0
C522 C 0.67323 0.16508 0.91647 0.0
C523 C 0.67433 0.14518 0.94337 0.0
C524 C 0.70238 0.14083 0.94613 0.0
C525 C 0.72839 0.1555 0.92237 0.0
H526 H 0.52166 0.60773 0.52906 0.0
H527 H 0.56759 0.56567 0.46696 0.0
H528 H 0.54904 0.65928 0.49533 0.0
H529 H 0.59565 0.61739 0.43332 0.0
H530 H 0.57857 0.68267 0.35144 0.0
H531 H 0.5733 0.63994 0.3918 0.0
H532 H 0.59818 0.70934 0.47395 0.0
H533 H 0.6032 0.75213 0.433 0.0
C534 C 0.53886 0.61016 0.50908 0.0
C535 C 0.54295 0.58298 0.50092 0.0
C536 C 0.55456 0.63969 0.48962 0.0
C537 C 0.57446 0.64259 0.46128 0.0
C538 C 0.58025 0.61602 0.45465 0.0
C539 C 0.56455 0.58652 0.47416 0.0
C540 C 0.58452 0.68924 0.37792 0.0
C541 C 0.5921 0.72093 0.38897 0.0
C542 C 0.58134 0.66466 0.40122 0.0
C543 C 0.58505 0.67094 0.43636 0.0
C544 C 0.59485 0.70347 0.44717 0.0
C545 C 0.59833 0.72821 0.42368 0.0
H546 H 0.46586 0.05805 0.61483 0.0
H547 H 0.48214 0.02601 0.71313 0.0
H548 H 0.44772 0.09354 0.64253 0.0
H549 H 0.4638 0.06097 0.74083 0.0
H550 H 0.47335 0.15779 0.77796 0.0
H551 H 0.48782 0.12095 0.74776 0.0
H552 H 0.40503 0.09457 0.67871 0.0
H553 H 0.39094 0.13176 0.70843 0.0
C554 C 0.46462 0.05791 0.64232 0.0
C555 C 0.47551 0.03947 0.66186 0.0
C556 C 0.45447 0.07835 0.65822 0.0
C557 C 0.45503 0.08063 0.69392 0.0
C558 C 0.46396 0.06051 0.71332 0.0
C559 C 0.47408 0.0402 0.69749 0.0
C560 C 0.45847 0.14441 0.75613 0.0
C561 C 0.43093 0.14764 0.74573 0.0
C562 C 0.46653 0.12303 0.73901 0.0
C563 C 0.44729 0.10447 0.71106 0.0
C564 C 0.42043 0.10855 0.70002 0.0
C565 C 0.41231 0.12982 0.71719 0.0
H566 H 0.39595 0.43977 0.13662 0.0
H567 H 0.38588 0.52147 0.09659 0.0
H568 H 0.34546 0.42141 0.17079 0.0
H569 H 0.33512 0.50313 0.1304 0.0
H570 H 0.28784 0.49406 0.2379 0.0
H571 H 0.32751 0.50595 0.19141 0.0
H572 H 0.28577 0.40042 0.17578 0.0
H573 H 0.24672 0.38861 0.22223 0.0
C574 C 0.38185 0.45269 0.13372 0.0
C575 C 0.39456 0.48173 0.1136 0.0
C576 C 0.35308 0.44247 0.15364 0.0
C577 C 0.33651 0.46121 0.15394 0.0
C578 C 0.34758 0.4885 0.13136 0.0
C579 C 0.37624 0.49861 0.11141 0.0
C580 C 0.28687 0.47345 0.22425 0.0
C581 C 0.26426 0.44042 0.23412 0.0
C582 C 0.3095 0.48022 0.19743 0.0
C583 C 0.31002 0.4541 0.17985 0.0
C584 C 0.2865 0.42114 0.18898 0.0
C585 C 0.26398 0.41442 0.21566 0.0
H586 H 0.88158 0.44714 0.63257 0.0
H587 H 0.97071 0.43835 0.63475 0.0
H588 H 0.84978 0.39253 0.65988 0.0
H589 H 0.93882 0.38342 0.66224 0.0
H590 H 0.86393 0.27485 0.69135 0.0
H591 H 0.89257 0.32539 0.65662 0.0
H592 H 0.8493 0.37124 0.71758 0.0
H593 H 0.82037 0.3205 0.7523 0.0
C594 C 0.89424 0.43323 0.63846 0.0
C595 C 0.92873 0.44715 0.63181 0.0
C596 C 0.87607 0.40205 0.65435 0.0
C597 C 0.89185 0.38384 0.66388 0.0
C598 C 0.92586 0.39677 0.65521 0.0
C599 C 0.94413 0.42815 0.63931 0.0
C600 C 0.8603 0.29561 0.69729 0.0
C601 C 0.83979 0.29356 0.7247 0.0
C602 C 0.87693 0.32468 0.67743 0.0
C603 C 0.8733 0.3524 0.68426 0.0
C604 C 0.85234 0.35019 0.71132 0.0
C605 C 0.83585 0.32115 0.73136 0.0
H606 H 0.56663 0.00498 0.17507 0.0
H607 H 0.50922 0.91247 0.1222 0.0
H608 H 0.59125 0.97924 0.21138 0.0
H609 H 0.53374 0.88653 0.1583 0.0
H610 H 0.59122 0.84976 0.22408 0.0
H611 H 0.58444 0.8839 0.17965 0.0
H612 H 0.56375 0.93655 0.25681 0.0
H613 H 0.57016 0.90251 0.30068 0.0
C614 C 0.56036 0.97952 0.17033 0.0
C615 C 0.53648 0.96088 0.14547 0.0
C616 C 0.57412 0.9646 0.19138 0.0
C617 C 0.56433 0.93068 0.188 0.0
C618 C 0.54218 0.91275 0.16145 0.0
C619 C 0.52818 0.9276 0.14065 0.0
C620 C 0.58617 0.86927 0.23149 0.0
C621 C 0.58131 0.87347 0.26593 0.0
C622 C 0.58196 0.88862 0.20604 0.0
C623 C 0.57349 0.91302 0.21457 0.0
C624 C 0.57066 0.91838 0.24919 0.0
C625 C 0.57423 0.89873 0.27442 0.0
H626 H 0.60667 0.50297 0.60652 0.0
H627 H 0.55688 0.50344 0.6988 0.0
H628 H 0.65823 0.51867 0.63902 0.0
H629 H 0.6071 0.51751 0.73125 0.0
H630 H 0.70723 0.56677 0.78072 0.0
H631 H 0.66169 0.55905 0.74365 0.0
H632 H 0.68041 0.49486 0.67981 0.0
H633 H 0.72745 0.50392 0.71651 0.0
C634 C 0.60696 0.50699 0.6336 0.0
C635 C 0.57779 0.50196 0.65015 0.0
C636 C 0.63627 0.51547 0.65233 0.0
C637 C 0.63692 0.5192 0.6879 0.0
C638 C 0.60795 0.51538 0.70396 0.0
C639 C 0.57897 0.50709 0.68535 0.0
C640 C 0.70169 0.55089 0.75887 0.0
C641 C 0.72082 0.53561 0.7519 0.0
C642 C 0.6754 0.5464 0.73753 0.0
C643 C 0.66696 0.52603 0.70878 0.0
C644 C 0.68634 0.51101 0.70148 0.0
C645 C 0.71309 0.51588 0.72273 0.0
H646 H 0.11835 0.54956 0.14572 0.0
H647 H 0.03293 0.5638 0.13443 0.0
H648 H 0.14974 0.6035 0.17312 0.0
H649 H 0.06423 0.61792 0.16224 0.0
H650 H 0.13889 0.72479 0.19315 0.0
H651 H 0.11114 0.67446 0.15941 0.0
H652 H 0.14865 0.62657 0.22763 0.0
H653 H 0.17694 0.67731 0.26127 0.0
C654 C 0.10646 0.56453 0.14867 0.0
C655 C 0.07308 0.55233 0.13803 0.0
C656 C 0.12435 0.59533 0.16472 0.0
C657 C 0.10941 0.61493 0.17057 0.0
C658 C 0.07665 0.60361 0.15811 0.0
C659 C 0.05869 0.57266 0.14199 0.0
C660 C 0.14143 0.70362 0.20097 0.0
C661 C 0.16024 0.70521 0.23006 0.0
C662 C 0.12527 0.6746 0.18163 0.0
C663 C 0.12749 0.64629 0.19068 0.0
C664 C 0.14668 0.648 0.21955 0.0
C665 C 0.16282 0.67707 0.239 0.0
loop_
_geom_bond_atom_site_label_1
_geom_bond_atom_site_label_2
_geom_bond_distance
_geom_bond_site_symmetry_2
_ccdc_geom_bond_type
H0 C6 0.930 . S
H1 C9 0.931 . S
H2 C11 0.931 1_455 S
H3 C13 0.930 . S
H4 C15 0.930 . S
H5 C17 0.931 . S
C6 H0 0.930 . S
C6 C7 1.380 . S
C6 C8 1.394 . S
C7 C6 1.380 . S
C7 C11 1.382 . S
C8 C6 1.394 . S
C8 C9 1.400 . S
C9 H1 0.931 . S
C9 C8 1.400 . S
C9 C10 1.344 1_655 S
C10 C9 1.344 1_455 S
C10 C11 1.425 1_455 S
C10 C12 1.522 1_556 S
C11 H2 0.931 1_655 S
C11 C7 1.382 . S
C11 C10 1.425 1_655 S
C12 C10 1.522 1_554 S
C12 C13 1.384 . S
C12 C17 1.408 . S
C13 H3 0.930 . S
C13 C12 1.384 . S
C13 C14 1.389 . S
C14 C13 1.389 . S
C14 C15 1.405 . S
C15 H4 0.930 . S
C15 C14 1.405 . S
C15 C16 1.364 . S
C16 C15 1.364 . S
C16 C17 1.400 . S
C17 H5 0.931 . S
C17 C12 1.408 . S
C17 C16 1.400 . S
H18 C24 0.930 . S
H19 C27 0.931 . S
H20 C29 0.931 . S
H21 C31 0.930 1_545 S
H22 C33 0.930 . S
H23 C35 0.931 . S
C24 H18 0.930 . S
C24 C25 1.380 . S
C24 C26 1.394 . S
C25 C24 1.380 . S
C25 C29 1.382 . S
C26 C24 1.394 . S
C26 C27 1.400 . S
C27 H19 0.931 . S
C27 C26 1.400 . S
C27 C28 1.375 . S
C28 C27 1.375 . S
C28 C29 1.415 . S
C28 C30 1.501 . S
C29 H20 0.931 . S
C29 C25 1.382 . S
C29 C28 1.415 . S
C30 C28 1.501 . S
C30 C31 1.384 1_545 S
C30 C35 1.408 1_545 S
C31 H21 0.930 1_565 S
C31 C30 1.384 1_565 S
C31 C32 1.389 . S
C32 C31 1.389 . S
C32 C33 1.405 . S
C33 H22 0.930 . S
C33 C32 1.405 . S
C33 C34 1.364 . S
C34 C33 1.364 . S
C34 C35 1.400 . S
C35 H23 0.931 . S
C35 C30 1.408 1_565 S
C35 C34 1.400 . S
H36 C42 0.930 . S
H37 C45 0.931 . S
H38 C47 0.931 . S
H39 C49 0.930 . S
H40 C51 0.930 . S
H41 C53 0.931 . S
C42 H36 0.930 . S
C42 C43 1.380 . S
C42 C44 1.394 . S
C43 C42 1.380 . S
C43 C47 1.382 . S
C44 C42 1.394 . S
C44 C45 1.400 . S
C45 H37 0.931 . S
C45 C44 1.400 . S
C45 C46 1.375 . S
C46 C45 1.375 . S
C46 C47 1.415 . S
C46 C48 1.501 1_554 S
C47 H38 0.931 . S
C47 C43 1.382 . S
C47 C46 1.415 . S
C48 C46 1.501 1_556 S
C48 C49 1.384 . S
C48 C53 1.408 . S
C49 H39 0.930 . S
C49 C48 1.384 . S
C49 C50 1.389 . S
C50 C49 1.389 . S
C50 C51 1.405 . S
C51 H40 0.930 . S
C51 C50 1.405 . S
C51 C52 1.364 . S
C52 C51 1.364 . S
C52 C53 1.400 . S
C53 H41 0.931 . S
C53 C48 1.408 . S
C53 C52 1.400 . S
H54 C60 0.930 . S
H55 C63 0.931 . S
H56 C65 0.931 . S
H57 C67 0.930 . S
H58 C69 0.930 . S
H59 C71 0.931 . S
C60 H54 0.930 . S
C60 C61 1.380 . S
C60 C62 1.394 . S
C61 C60 1.380 . S
C61 C65 1.382 . S
C62 C60 1.394 . S
C62 C63 1.400 . S
C63 H55 0.931 . S
C63 C62 1.400 . S
C63 C64 1.375 . S
C64 C63 1.375 . S
C64 C65 1.415 . S
C64 C66 1.501 1_655 S
C65 H56 0.931 . S
C65 C61 1.382 . S
C65 C64 1.415 . S
C66 C64 1.501 1_455 S
C66 C67 1.384 . S
C66 C71 1.408 . S
C67 H57 0.930 . S
C67 C66 1.384 . S
C67 C68 1.389 . S
C68 C67 1.389 . S
C68 C69 1.405 . S
C69 H58 0.930 . S
C69 C68 1.405 . S
C69 C70 1.364 . S
C70 C69 1.364 . S
C70 C71 1.400 . S
C71 H59 0.931 . S
C71 C66 1.408 . S
C71 C70 1.400 . S
H72 C78 0.930 . S
H73 C81 0.931 . S
H74 C83 0.931 . S
H75 C85 0.930 . S
H76 C87 0.930 . S
H77 C89 0.931 . S
C78 H72 0.930 . S
C78 C79 1.380 . S
C78 C80 1.394 . S
C79 C78 1.380 . S
C79 C83 1.382 . S
C80 C78 1.394 . S
C80 C81 1.400 . S
C81 H73 0.931 . S
C81 C80 1.400 . S
C81 C82 1.375 . S
C82 C81 1.375 . S
C82 C83 1.415 . S
C82 C84 1.501 1_564 S
C83 H74 0.931 . S
C83 C79 1.382 . S
C83 C82 1.415 . S
C84 C82 1.501 1_546 S
C84 C85 1.384 . S
C84 C89 1.408 . S
C85 H75 0.930 . S
C85 C84 1.384 . S
C85 C86 1.389 . S
C86 C85 1.389 . S
C86 C87 1.405 . S
C87 H76 0.930 . S
C87 C86 1.405 . S
C87 C88 1.364 . S
C88 C87 1.364 . S
C88 C89 1.400 . S
C89 H77 0.931 . S
C89 C84 1.408 . S
C89 C88 1.400 . S
H90 C96 0.930 . S
H91 C99 0.931 . S
H92 C101 0.931 . S
H93 C103 0.930 . S
H94 C105 0.930 . S
H95 C107 0.931 . S
C96 H90 0.930 . S
C96 C97 1.380 . S
C96 C98 1.394 . S
C97 C96 1.380 . S
C97 C101 1.382 . S
C98 C96 1.394 . S
C98 C99 1.400 . S
C99 H91 0.931 . S
C99 C98 1.400 . S
C99 C100 1.375 . S
C100 C99 1.375 . S
C100 C101 1.415 . S
C100 C102 1.501 . S
C101 H92 0.931 . S
C101 C97 1.382 . S
C101 C100 1.415 . S
C102 C100 1.501 . S
C102 C103 1.384 . S
C102 C107 1.408 . S
C103 H93 0.930 . S
C103 C102 1.384 . S
C103 C104 1.389 . S
C104 C103 1.389 . S
C104 C105 1.405 . S
C105 H94 0.930 . S
C105 C104 1.405 . S
C105 C106 1.364 . S
C106 C105 1.364 . S
C106 C107 1.400 . S
C107 H95 0.931 . S
C107 C102 1.408 . S
C107 C106 1.400 . S
Mg108 O115 2.141 . S
Mg108 O116 2.048 . S
Mg108 O117 2.048 . S
Mg108 O120 2.141 . S
C109 O110 1.313 . S
C109 O116 1.195 . S
O110 C109 1.313 . S
C111 O112 1.245 . S
C111 O120 1.289 . S
O112 C111 1.245 . S
C113 O114 1.245 . S
C113 O115 1.289 . S
O114 C113 1.245 . S
O115 Mg108 2.141 . S
O115 C113 1.289 . S
O116 Mg108 2.048 . S
O116 C109 1.195 . S
O117 Mg108 2.048 . S
O117 C118 1.195 . S
C118 O117 1.195 . S
C118 O119 1.313 . S
O119 C118 1.313 . S
O120 Mg108 2.141 . S
O120 C111 1.289 . S
Mg121 O128 2.141 . S
Mg121 O129 2.048 . S
Mg121 O130 2.048 . S
Mg121 O133 2.141 . S
C122 O123 1.313 . S
C122 O129 1.195 . S
O123 C122 1.313 . S
C124 O125 1.245 . S
C124 O133 1.289 . S
O125 C124 1.245 . S
C126 O127 1.245 . S
C126 O128 1.289 . S
O127 C126 1.245 . S
O128 Mg121 2.141 . S
O128 C126 1.289 . S
O129 Mg121 2.048 . S
O129 C122 1.195 . S
O130 Mg121 2.048 . S
O130 C131 1.195 . S
C131 O130 1.195 . S
C131 O132 1.313 . S
O132 C131 1.313 . S
O133 Mg121 2.141 . S
O133 C124 1.289 . S
Mg134 O141 2.141 . S
Mg134 O142 2.048 . S
Mg134 O143 2.048 . S
Mg134 O146 2.141 . S
C135 O136 1.313 . S
C135 O142 1.195 . S
O136 C135 1.313 . S
C137 O138 1.245 . S
C137 O146 1.289 . S
O138 C137 1.245 . S
C139 O140 1.245 . S
C139 O141 1.289 . S
O140 C139 1.245 . S
O141 Mg134 2.141 . S
O141 C139 1.289 . S
O142 Mg134 2.048 . S
O142 C135 1.195 . S
O143 Mg134 2.048 . S
O143 C144 1.195 . S
C144 O143 1.195 . S
C144 O145 1.313 . S
O145 C144 1.313 . S
O146 Mg134 2.141 . S
O146 C137 1.289 . S
Mg147 O154 2.141 . S
Mg147 O155 2.048 . S
Mg147 O156 2.048 . S
Mg147 O159 2.141 . S
C148 O149 1.313 . S
C148 O155 1.195 . S
O149 C148 1.313 . S
C150 O151 1.245 . S
C150 O159 1.289 . S
O151 C150 1.245 . S
C152 O153 1.245 . S
C152 O154 1.289 . S
O153 C152 1.245 . S
O154 Mg147 2.141 . S
O154 C152 1.289 . S
O155 Mg147 2.048 . S
O155 C148 1.195 . S
O156 Mg147 2.048 . S
O156 C157 1.195 . S
C157 O156 1.195 . S
C157 O158 1.313 . S
O158 C157 1.313 . S
O159 Mg147 2.141 . S
O159 C150 1.289 . S
Mg160 O167 2.141 . S
Mg160 O168 2.048 . S
Mg160 O169 2.048 . S
Mg160 O172 2.141 . S
C161 O162 1.313 . S
C161 O168 1.195 . S
O162 C161 1.313 . S
C163 O164 1.245 . S
C163 O172 1.289 . S
O164 C163 1.245 . S
C165 O166 1.245 . S
C165 O167 1.289 . S
O166 C165 1.245 . S
O167 Mg160 2.141 . S
O167 C165 1.289 . S
O168 Mg160 2.048 . S
O168 C161 1.195 . S
O169 Mg160 2.048 . S
O169 C170 1.195 . S
C170 O169 1.195 . S
C170 O171 1.313 . S
O171 C170 1.313 . S
O172 Mg160 2.141 . S
O172 C163 1.289 . S
Mg173 O180 2.141 . S
Mg173 O181 2.048 . S
Mg173 O182 2.048 . S
Mg173 O185 2.141 . S
C174 O175 1.313 . S
C174 O181 1.195 . S
O175 C174 1.313 . S
C176 O177 1.245 . S
C176 O185 1.289 . S
O177 C176 1.245 . S
C178 O179 1.245 . S
C178 O180 1.289 . S
O179 C178 1.245 . S
O180 Mg173 2.141 . S
O180 C178 1.289 . S
O181 Mg173 2.048 . S
O181 C174 1.195 . S
O182 Mg173 2.048 . S
O182 C183 1.195 . S
C183 O182 1.195 . S
C183 O184 1.313 . S
O184 C183 1.313 . S
O185 Mg173 2.141 . S
O185 C176 1.289 . S
H186 C194 0.950 . S
H187 C199 0.950 . S
H188 C196 0.950 . S
H189 C198 0.950 . S
H190 C200 0.950 . S
H191 C202 0.950 . S
H192 C204 0.950 . S
H193 C205 0.950 . S
C194 H186 0.950 . S
C194 C195 1.386 . S
C194 C196 1.391 . S
C195 C194 1.386 . S
C195 C199 1.393 . S
C196 H188 0.950 . S
C196 C194 1.391 . S
C196 C197 1.400 . S
C197 C196 1.400 . S
C197 C198 1.398 . S
C197 C203 1.491 . S
C198 H189 0.950 . S
C198 C197 1.398 . S
C198 C199 1.391 . S
C199 H187 0.950 . S
C199 C195 1.393 . S
C199 C198 1.391 . S
C200 H190 0.950 . S
C200 C201 1.386 . S
C200 C202 1.391 . S
C201 C200 1.386 . S
C201 C205 1.393 . S
C202 H191 0.950 . S
C202 C200 1.391 . S
C202 C203 1.400 . S
C203 C197 1.491 . S
C203 C202 1.400 . S
C203 C204 1.398 . S
C204 H192 0.950 . S
C204 C203 1.398 . S
C204 C205 1.391 . S
C205 H193 0.950 . S
C205 C201 1.393 . S
C205 C204 1.391 . S
H206 C214 0.950 . S
H207 C219 0.950 . S
H208 C216 0.950 . S
H209 C218 0.950 . S
H210 C220 0.950 . S
H211 C222 0.950 . S
H212 C224 0.950 . S
H213 C225 0.950 . S
C214 H206 0.950 . S
C214 C215 1.386 . S
C214 C216 1.391 . S
C215 C214 1.386 . S
C215 C219 1.393 . S
C216 H208 0.950 . S
C216 C214 1.391 . S
C216 C217 1.400 . S
C217 C216 1.400 . S
C217 C218 1.398 . S
C217 C223 1.491 . S
C218 H209 0.950 . S
C218 C217 1.398 . S
C218 C219 1.391 . S
C219 H207 0.950 . S
C219 C215 1.393 . S
C219 C218 1.391 . S
C220 H210 0.950 . S
C220 C221 1.386 . S
C220 C222 1.391 . S
C221 C220 1.386 . S
C221 C225 1.393 . S
C222 H211 0.950 . S
C222 C220 1.391 . S
C222 C223 1.400 . S
C223 C217 1.491 . S
C223 C222 1.400 . S
C223 C224 1.398 . S
C224 H212 0.950 . S
C224 C223 1.398 . S
C224 C225 1.391 . S
C225 H213 0.950 . S
C225 C221 1.393 . S
C225 C224 1.391 . S
H226 C234 0.950 . S
H227 C239 0.950 . S
H228 C236 0.950 . S
H229 C238 0.950 . S
H230 C240 0.950 . S
H231 C242 0.950 . S
H232 C244 0.950 . S
H233 C245 0.950 . S
C234 H226 0.950 . S
C234 C235 1.386 . S
C234 C236 1.391 . S
C235 C234 1.386 . S
C235 C239 1.393 . S
C236 H228 0.950 . S
C236 C234 1.391 . S
C236 C237 1.400 . S
C237 C236 1.400 . S
C237 C238 1.398 . S
C237 C243 1.491 . S
C238 H229 0.950 . S
C238 C237 1.398 . S
C238 C239 1.391 . S
C239 H227 0.950 . S
C239 C235 1.393 . S
C239 C238 1.391 . S
C240 H230 0.950 . S
C240 C241 1.386 . S
C240 C242 1.391 . S
C241 C240 1.386 . S
C241 C245 1.393 . S
C242 H231 0.950 . S
C242 C240 1.391 . S
C242 C243 1.400 . S
C243 C237 1.491 . S
C243 C242 1.400 . S
C243 C244 1.398 . S
C244 H232 0.950 . S
C244 C243 1.398 . S
C244 C245 1.391 . S
C245 H233 0.950 . S
C245 C241 1.393 . S
C245 C244 1.391 . S
H246 C254 0.950 . S
H247 C259 0.950 . S
H248 C256 0.950 . S
H249 C258 0.950 . S
H250 C260 0.950 . S
H251 C262 0.950 . S
H252 C264 0.950 . S
H253 C265 0.950 . S
C254 H246 0.950 . S
C254 C255 1.386 . S
C254 C256 1.391 . S
C255 C254 1.386 . S
C255 C259 1.393 . S
C256 H248 0.950 . S
C256 C254 1.391 . S
C256 C257 1.400 . S
C257 C256 1.400 . S
C257 C258 1.398 . S
C257 C263 1.491 . S
C258 H249 0.950 . S
C258 C257 1.398 . S
C258 C259 1.391 . S
C259 H247 0.950 . S
C259 C255 1.393 . S
C259 C258 1.391 . S
C260 H250 0.950 . S
C260 C261 1.386 . S
C260 C262 1.391 . S
C261 C260 1.386 . S
C261 C265 1.393 . S
C262 H251 0.950 . S
C262 C260 1.391 . S
C262 C263 1.400 . S
C263 C257 1.491 . S
C263 C262 1.400 . S
C263 C264 1.398 . S
C264 H252 0.950 . S
C264 C263 1.398 . S
C264 C265 1.391 . S
C265 H253 0.950 . S
C265 C261 1.393 . S
C265 C264 1.391 . S
H266 C274 0.950 . S
H267 C279 0.950 . S
H268 C276 0.950 . S
H269 C278 0.950 . S
H270 C280 0.950 . S
H271 C282 0.950 . S
H272 C284 0.950 . S
H273 C285 0.950 . S
C274 H266 0.950 . S
C274 C275 1.386 . S
C274 C276 1.391 . S
C275 C274 1.386 . S
C275 C279 1.393 . S
C276 H268 0.950 . S
C276 C274 1.391 . S
C276 C277 1.400 . S
C277 C276 1.400 . S
C277 C278 1.398 . S
C277 C283 1.491 . S
C278 H269 0.950 . S
C278 C277 1.398 . S
C278 C279 1.391 . S
C279 H267 0.950 . S
C279 C275 1.393 . S
C279 C278 1.391 . S
C280 H270 0.950 . S
C280 C281 1.386 . S
C280 C282 1.391 . S
C281 C280 1.386 . S
C281 C285 1.393 . S
C282 H271 0.950 . S
C282 C280 1.391 . S
C282 C283 1.400 . S
C283 C277 1.491 . S
C283 C282 1.400 . S
C283 C284 1.398 . S
C284 H272 0.950 . S
C284 C283 1.398 . S
C284 C285 1.391 . S
C285 H273 0.950 . S
C285 C281 1.393 . S
C285 C284 1.391 . S
H286 C294 0.950 . S
H287 C299 0.950 . S
H288 C296 0.950 . S
H289 C298 0.950 . S
H290 C300 0.950 . S
H291 C302 0.950 . S
H292 C304 0.950 . S
H293 C305 0.950 . S
C294 H286 0.950 . S
C294 C295 1.386 . S
C294 C296 1.391 . S
C295 C294 1.386 . S
C295 C299 1.393 . S
C296 H288 0.950 . S
C296 C294 1.391 . S
C296 C297 1.400 . S
C297 C296 1.400 . S
C297 C298 1.398 . S
C297 C303 1.491 . S
C298 H289 0.950 . S
C298 C297 1.398 . S
C298 C299 1.391 . S
C299 H287 0.950 . S
C299 C295 1.393 . S
C299 C298 1.391 . S
C300 H290 0.950 . S
C300 C301 1.386 . S
C300 C302 1.391 . S
C301 C300 1.386 . S
C301 C305 1.393 . S
C302 H291 0.950 . S
C302 C300 1.391 . S
C302 C303 1.400 . S
C303 C297 1.491 . S
C303 C302 1.400 . S
C303 C304 1.398 . S
C304 H292 0.950 . S
C304 C303 1.398 . S
C304 C305 1.391 . S
C305 H293 0.950 . S
C305 C301 1.393 . S
C305 C304 1.391 . S
H306 C314 0.950 . S
H307 C319 0.950 . S
H308 C316 0.950 . S
H309 C318 0.950 . S
H310 C320 0.950 . S
H311 C322 0.950 . S
H312 C324 0.950 . S
H313 C325 0.950 . S
C314 H306 0.950 . S
C314 C315 1.386 . S
C314 C316 1.391 . S
C315 C314 1.386 . S
C315 C319 1.393 . S
C316 H308 0.950 . S
C316 C314 1.391 . S
C316 C317 1.400 . S
C317 C316 1.400 . S
C317 C318 1.398 . S
C317 C323 1.491 . S
C318 H309 0.950 . S
C318 C317 1.398 . S
C318 C319 1.391 . S
C319 H307 0.950 . S
C319 C315 1.393 . S
C319 C318 1.391 . S
C320 H310 0.950 . S
C320 C321 1.386 . S
C320 C322 1.391 . S
C321 C320 1.386 . S
C321 C325 1.393 . S
C322 H311 0.950 . S
C322 C320 1.391 . S
C322 C323 1.400 . S
C323 C317 1.491 . S
C323 C322 1.400 . S
C323 C324 1.398 . S
C324 H312 0.950 . S
C324 C323 1.398 . S
C324 C325 1.391 . S
C325 H313 0.950 . S
C325 C321 1.393 . S
C325 C324 1.391 . S
H326 C334 0.950 . S
H327 C339 0.950 . S
H328 C336 0.950 . S
H329 C338 0.950 . S
H330 C340 0.950 . S
H331 C342 0.950 . S
H332 C344 0.950 . S
H333 C345 0.950 . S
C334 H326 0.950 . S
C334 C335 1.386 . S
C334 C336 1.391 . S
C335 C334 1.386 . S
C335 C339 1.393 . S
C336 H328 0.950 . S
C336 C334 1.391 . S
C336 C337 1.400 . S
C337 C336 1.400 . S
C337 C338 1.398 . S
C337 C343 1.491 . S
C338 H329 0.950 . S
C338 C337 1.398 . S
C338 C339 1.391 . S
C339 H327 0.950 . S
C339 C335 1.393 . S
C339 C338 1.391 . S
C340 H330 0.950 . S
C340 C341 1.386 . S
C340 C342 1.391 . S
C341 C340 1.386 . S
C341 C345 1.393 . S
C342 H331 0.950 . S
C342 C340 1.391 . S
C342 C343 1.400 . S
C343 C337 1.491 . S
C343 C342 1.400 . S
C343 C344 1.398 . S
C344 H332 0.950 . S
C344 C343 1.398 . S
C344 C345 1.391 . S
C345 H333 0.950 . S
C345 C341 1.393 . S
C345 C344 1.391 . S
H346 C354 0.950 . S
H347 C359 0.950 . S
H348 C356 0.950 . S
H349 C358 0.950 . S
H350 C360 0.950 . S
H351 C362 0.950 . S
H352 C364 0.950 . S
H353 C365 0.950 . S
C354 H346 0.950 . S
C354 C355 1.386 . S
C354 C356 1.391 . S
C355 C354 1.386 . S
C355 C359 1.393 . S
C356 H348 0.950 . S
C356 C354 1.391 . S
C356 C357 1.400 . S
C357 C356 1.400 . S
C357 C358 1.398 . S
C357 C363 1.491 . S
C358 H349 0.950 . S
C358 C357 1.398 . S
C358 C359 1.391 . S
C359 H347 0.950 . S
C359 C355 1.393 . S
C359 C358 1.391 . S
C360 H350 0.950 . S
C360 C361 1.386 . S
C360 C362 1.391 . S
C361 C360 1.386 . S
C361 C365 1.393 . S
C362 H351 0.950 . S
C362 C360 1.391 . S
C362 C363 1.400 . S
C363 C357 1.491 . S
C363 C362 1.400 . S
C363 C364 1.398 . S
C364 H352 0.950 . S
C364 C363 1.398 . S
C364 C365 1.391 . S
C365 H353 0.950 . S
C365 C361 1.393 . S
C365 C364 1.391 . S
H366 C374 0.950 . S
H367 C379 0.950 . S
H368 C376 0.950 . S
H369 C378 0.950 . S
H370 C380 0.950 . S
H371 C382 0.950 . S
H372 C384 0.950 . S
H373 C385 0.950 . S
C374 H366 0.950 . S
C374 C375 1.386 . S
C374 C376 1.391 . S
C375 C374 1.386 . S
C375 C379 1.393 . S
C376 H368 0.950 . S
C376 C374 1.391 . S
C376 C377 1.400 . S
C377 C376 1.400 . S
C377 C378 1.398 . S
C377 C383 1.491 . S
C378 H369 0.950 . S
C378 C377 1.398 . S
C378 C379 1.391 . S
C379 H367 0.950 . S
C379 C375 1.393 . S
C379 C378 1.391 . S
C380 H370 0.950 . S
C380 C381 1.386 . S
C380 C382 1.391 . S
C381 C380 1.386 . S
C381 C385 1.393 . S
C382 H371 0.950 . S
C382 C380 1.391 . S
C382 C383 1.400 . S
C383 C377 1.491 . S
C383 C382 1.400 . S
C383 C384 1.398 . S
C384 H372 0.950 . S
C384 C383 1.398 . S
C384 C385 1.391 . S
C385 H373 0.950 . S
C385 C381 1.393 . S
C385 C384 1.391 . S
H386 C394 0.950 . S
H387 C399 0.950 . S
H388 C396 0.950 . S
H389 C398 0.950 . S
H390 C400 0.950 . S
H391 C402 0.950 . S
H392 C404 0.950 . S
H393 C405 0.950 . S
C394 H386 0.950 . S
C394 C395 1.386 . S
C394 C396 1.391 . S
C395 C394 1.386 . S
C395 C399 1.393 . S
C396 H388 0.950 . S
C396 C394 1.391 . S
C396 C397 1.400 . S
C397 C396 1.400 . S
C397 C398 1.398 . S
C397 C403 1.491 . S
C398 H389 0.950 . S
C398 C397 1.398 . S
C398 C399 1.391 . S
C399 H387 0.950 . S
C399 C395 1.393 . S
C399 C398 1.391 . S
C400 H390 0.950 . S
C400 C401 1.386 . S
C400 C402 1.391 . S
C401 C400 1.386 . S
C401 C405 1.393 . S
C402 H391 0.950 . S
C402 C400 1.391 . S
C402 C403 1.400 . S
C403 C397 1.491 . S
C403 C402 1.400 . S
C403 C404 1.398 . S
C404 H392 0.950 . S
C404 C403 1.398 . S
C404 C405 1.391 . S
C405 H393 0.950 . S
C405 C401 1.393 . S
C405 C404 1.391 . S
H406 C414 0.950 . S
H407 C419 0.950 . S
H408 C416 0.950 . S
H409 C418 0.950 . S
H410 C420 0.950 . S
H411 C422 0.950 . S
H412 C424 0.950 . S
H413 C425 0.950 . S
C414 H406 0.950 . S
C414 C415 1.386 . S
C414 C416 1.391 . S
C415 C414 1.386 . S
C415 C419 1.393 . S
C416 H408 0.950 . S
C416 C414 1.391 . S
C416 C417 1.400 . S
C417 C416 1.400 . S
C417 C418 1.398 . S
C417 C423 1.491 . S
C418 H409 0.950 . S
C418 C417 1.398 . S
C418 C419 1.391 . S
C419 H407 0.950 . S
C419 C415 1.393 . S
C419 C418 1.391 . S
C420 H410 0.950 . S
C420 C421 1.386 . S
C420 C422 1.391 . S
C421 C420 1.386 . S
C421 C425 1.393 . S
C422 H411 0.950 . S
C422 C420 1.391 . S
C422 C423 1.400 . S
C423 C417 1.491 . S
C423 C422 1.400 . S
C423 C424 1.398 . S
C424 H412 0.950 . S
C424 C423 1.398 . S
C424 C425 1.391 . S
C425 H413 0.950 . S
C425 C421 1.393 . S
C425 C424 1.391 . S
H426 C434 0.950 . S
H427 C439 0.950 . S
H428 C436 0.950 . S
H429 C438 0.950 . S
H430 C440 0.950 . S
H431 C442 0.950 . S
H432 C444 0.950 . S
H433 C445 0.950 . S
C434 H426 0.950 . S
C434 C435 1.386 . S
C434 C436 1.391 . S
C435 C434 1.386 . S
C435 C439 1.393 . S
C436 H428 0.950 . S
C436 C434 1.391 . S
C436 C437 1.400 . S
C437 C436 1.400 . S
C437 C438 1.398 . S
C437 C443 1.491 . S
C438 H429 0.950 . S
C438 C437 1.398 . S
C438 C439 1.391 . S
C439 H427 0.950 . S
C439 C435 1.393 . S
C439 C438 1.391 . S
C440 H430 0.950 . S
C440 C441 1.386 . S
C440 C442 1.391 . S
C441 C440 1.386 . S
C441 C445 1.393 . S
C442 H431 0.950 . S
C442 C440 1.391 . S
C442 C443 1.400 . S
C443 C437 1.491 . S
C443 C442 1.400 . S
C443 C444 1.398 . S
C444 H432 0.950 . S
C444 C443 1.398 . S
C444 C445 1.391 . S
C445 H433 0.950 . S
C445 C441 1.393 . S
C445 C444 1.391 . S
H446 C454 0.950 . S
H447 C459 0.950 . S
H448 C456 0.950 . S
H449 C458 0.950 . S
H450 C460 0.950 . S
H451 C462 0.950 . S
H452 C464 0.950 . S
H453 C465 0.950 . S
C454 H446 0.950 . S
C454 C455 1.386 . S
C454 C456 1.391 . S
C455 C454 1.386 . S
C455 C459 1.393 . S
C456 H448 0.950 . S
C456 C454 1.391 . S
C456 C457 1.400 . S
C457 C456 1.400 . S
C457 C458 1.398 . S
C457 C463 1.491 . S
C458 H449 0.950 . S
C458 C457 1.398 . S
C458 C459 1.391 . S
C459 H447 0.950 . S
C459 C455 1.393 . S
C459 C458 1.391 . S
C460 H450 0.950 . S
C460 C461 1.386 . S
C460 C462 1.391 . S
C461 C460 1.386 . S
C461 C465 1.393 . S
C462 H451 0.950 . S
C462 C460 1.391 . S
C462 C463 1.400 . S
C463 C457 1.491 . S
C463 C462 1.400 . S
C463 C464 1.398 . S
C464 H452 0.950 . S
C464 C463 1.398 . S
C464 C465 1.391 . S
C465 H453 0.950 . S
C465 C461 1.393 . S
C465 C464 1.391 . S
H466 C474 0.950 . S
H467 C479 0.950 . S
H468 C476 0.950 . S
H469 C478 0.950 . S
H470 C480 0.950 . S
H471 C482 0.950 . S
H472 C484 0.950 . S
H473 C485 0.950 . S
C474 H466 0.950 . S
C474 C475 1.386 . S
C474 C476 1.391 . S
C475 C474 1.386 . S
C475 C479 1.393 . S
C476 H468 0.950 . S
C476 C474 1.391 . S
C476 C477 1.400 . S
C477 C476 1.400 . S
C477 C478 1.398 . S
C477 C483 1.491 . S
C478 H469 0.950 . S
C478 C477 1.398 . S
C478 C479 1.391 . S
C479 H467 0.950 . S
C479 C475 1.393 . S
C479 C478 1.391 . S
C480 H470 0.950 . S
C480 C481 1.386 . S
C480 C482 1.391 . S
C481 C480 1.386 . S
C481 C485 1.393 . S
C482 H471 0.950 . S
C482 C480 1.391 . S
C482 C483 1.400 . S
C483 C477 1.491 . S
C483 C482 1.400 . S
C483 C484 1.398 . S
C484 H472 0.950 . S
C484 C483 1.398 . S
C484 C485 1.391 . S
C485 H473 0.950 . S
C485 C481 1.393 . S
C485 C484 1.391 . S
H486 C494 0.950 . S
H487 C499 0.950 . S
H488 C496 0.950 . S
H489 C498 0.950 . S
H490 C500 0.950 . S
H491 C502 0.950 . S
H492 C504 0.950 . S
H493 C505 0.950 . S
C494 H486 0.950 . S
C494 C495 1.386 . S
C494 C496 1.391 . S
C495 C494 1.386 . S
C495 C499 1.393 . S
C496 H488 0.950 . S
C496 C494 1.391 . S
C496 C497 1.400 . S
C497 C496 1.400 . S
C497 C498 1.398 . S
C497 C503 1.491 . S
C498 H489 0.950 . S
C498 C497 1.398 . S
C498 C499 1.391 . S
C499 H487 0.950 . S
C499 C495 1.393 . S
C499 C498 1.391 . S
C500 H490 0.950 . S
C500 C501 1.386 . S
C500 C502 1.391 . S
C501 C500 1.386 . S
C501 C505 1.393 . S
C502 H491 0.950 . S
C502 C500 1.391 . S
C502 C503 1.400 . S
C503 C497 1.491 . S
C503 C502 1.400 . S
C503 C504 1.398 . S
C504 H492 0.950 . S
C504 C503 1.398 . S
C504 C505 1.391 . S
C505 H493 0.950 . S
C505 C501 1.393 . S
C505 C504 1.391 . S
H506 C514 0.950 . S
H507 C519 0.950 . S
H508 C516 0.950 . S
H509 C518 0.950 . S
H510 C520 0.950 . S
H511 C522 0.950 . S
H512 C524 0.950 . S
H513 C525 0.950 . S
C514 H506 0.950 . S
C514 C515 1.386 . S
C514 C516 1.391 . S
C515 C514 1.386 . S
C515 C519 1.393 . S
C516 H508 0.950 . S
C516 C514 1.391 . S
C516 C517 1.400 . S
C517 C516 1.400 . S
C517 C518 1.398 . S
C517 C523 1.491 . S
C518 H509 0.950 . S
C518 C517 1.398 . S
C518 C519 1.391 . S
C519 H507 0.950 . S
C519 C515 1.393 . S
C519 C518 1.391 . S
C520 H510 0.950 . S
C520 C521 1.386 . S
C520 C522 1.391 . S
C521 C520 1.386 . S
C521 C525 1.393 . S
C522 H511 0.950 . S
C522 C520 1.391 . S
C522 C523 1.400 . S
C523 C517 1.491 . S
C523 C522 1.400 . S
C523 C524 1.398 . S
C524 H512 0.950 . S
C524 C523 1.398 . S
C524 C525 1.391 . S
C525 H513 0.950 . S
C525 C521 1.393 . S
C525 C524 1.391 . S
H526 C534 0.950 . S
H527 C539 0.950 . S
H528 C536 0.950 . S
H529 C538 0.950 . S
H530 C540 0.950 . S
H531 C542 0.950 . S
H532 C544 0.950 . S
H533 C545 0.950 . S
C534 H526 0.950 . S
C534 C535 1.386 . S
C534 C536 1.391 . S
C535 C534 1.386 . S
C535 C539 1.393 . S
C536 H528 0.950 . S
C536 C534 1.391 . S
C536 C537 1.400 . S
C537 C536 1.400 . S
C537 C538 1.398 . S
C537 C543 1.491 . S
C538 H529 0.950 . S
C538 C537 1.398 . S
C538 C539 1.391 . S
C539 H527 0.950 . S
C539 C535 1.393 . S
C539 C538 1.391 . S
C540 H530 0.950 . S
C540 C541 1.386 . S
C540 C542 1.391 . S
C541 C540 1.386 . S
C541 C545 1.393 . S
C542 H531 0.950 . S
C542 C540 1.391 . S
C542 C543 1.400 . S
C543 C537 1.491 . S
C543 C542 1.400 . S
C543 C544 1.398 . S
C544 H532 0.950 . S
C544 C543 1.398 . S
C544 C545 1.391 . S
C545 H533 0.950 . S
C545 C541 1.393 . S
C545 C544 1.391 . S
H546 C554 0.950 . S
H547 C559 0.950 . S
H548 C556 0.950 . S
H549 C558 0.950 . S
H550 C560 0.950 . S
H551 C562 0.950 . S
H552 C564 0.950 . S
H553 C565 0.950 . S
C554 H546 0.950 . S
C554 C555 1.386 . S
C554 C556 1.391 . S
C555 C554 1.386 . S
C555 C559 1.393 . S
C556 H548 0.950 . S
C556 C554 1.391 . S
C556 C557 1.400 . S
C557 C556 1.400 . S
C557 C558 1.398 . S
C557 C563 1.491 . S
C558 H549 0.950 . S
C558 C557 1.398 . S
C558 C559 1.391 . S
C559 H547 0.950 . S
C559 C555 1.393 . S
C559 C558 1.391 . S
C560 H550 0.950 . S
C560 C561 1.386 . S
C560 C562 1.391 . S
C561 C560 1.386 . S
C561 C565 1.393 . S
C562 H551 0.950 . S
C562 C560 1.391 . S
C562 C563 1.400 . S
C563 C557 1.491 . S
C563 C562 1.400 . S
C563 C564 1.398 . S
C564 H552 0.950 . S
C564 C563 1.398 . S
C564 C565 1.391 . S
C565 H553 0.950 . S
C565 C561 1.393 . S
C565 C564 1.391 . S
H566 C574 0.950 . S
H567 C579 0.950 . S
H568 C576 0.950 . S
H569 C578 0.950 . S
H570 C580 0.950 . S
H571 C582 0.950 . S
H572 C584 0.950 . S
H573 C585 0.950 . S
C574 H566 0.950 . S
C574 C575 1.386 . S
C574 C576 1.391 . S
C575 C574 1.386 . S
C575 C579 1.393 . S
C576 H568 0.950 . S
C576 C574 1.391 . S
C576 C577 1.400 . S
C577 C576 1.400 . S
C577 C578 1.398 . S
C577 C583 1.491 . S
C578 H569 0.950 . S
C578 C577 1.398 . S
C578 C579 1.391 . S
C579 H567 0.950 . S
C579 C575 1.393 . S
C579 C578 1.391 . S
C580 H570 0.950 . S
C580 C581 1.386 . S
C580 C582 1.391 . S
C581 C580 1.386 . S
C581 C585 1.393 . S
C582 H571 0.950 . S
C582 C580 1.391 . S
C582 C583 1.400 . S
C583 C577 1.491 . S
C583 C582 1.400 . S
C583 C584 1.398 . S
C584 H572 0.950 . S
C584 C583 1.398 . S
C584 C585 1.391 . S
C585 H573 0.950 . S
C585 C581 1.393 . S
C585 C584 1.391 . S
H586 C594 0.950 . S
H587 C599 0.950 . S
H588 C596 0.950 . S
H589 C598 0.950 . S
H590 C600 0.950 . S
H591 C602 0.950 . S
H592 C604 0.950 . S
H593 C605 0.950 . S
C594 H586 0.950 . S
C594 C595 1.386 . S
C594 C596 1.391 . S
C595 C594 1.386 . S
C595 C599 1.393 . S
C596 H588 0.950 . S
C596 C594 1.391 . S
C596 C597 1.400 . S
C597 C596 1.400 . S
C597 C598 1.398 . S
C597 C603 1.491 . S
C598 H589 0.950 . S
C598 C597 1.398 . S
C598 C599 1.391 . S
C599 H587 0.950 . S
C599 C595 1.393 . S
C599 C598 1.391 . S
C600 H590 0.950 . S
C600 C601 1.386 . S
C600 C602 1.391 . S
C601 C600 1.386 . S
C601 C605 1.393 . S
C602 H591 0.950 . S
C602 C600 1.391 . S
C602 C603 1.400 . S
C603 C597 1.491 . S
C603 C602 1.400 . S
C603 C604 1.398 . S
C604 H592 0.950 . S
C604 C603 1.398 . S
C604 C605 1.391 . S
C605 H593 0.950 . S
C605 C601 1.393 . S
C605 C604 1.391 . S
H606 C614 0.950 . S
H607 C619 0.950 . S
H608 C616 0.950 . S
H609 C618 0.950 . S
H610 C620 0.950 . S
H611 C622 0.950 . S
H612 C624 0.950 . S
H613 C625 0.950 . S
C614 H606 0.950 . S
C614 C615 1.386 . S
C614 C616 1.391 . S
C615 C614 1.386 . S
C615 C619 1.393 . S
C616 H608 0.950 . S
C616 C614 1.391 . S
C616 C617 1.400 . S
C617 C616 1.400 . S
C617 C618 1.398 . S
C617 C623 1.491 . S
C618 H609 0.950 . S
C618 C617 1.398 . S
C618 C619 1.391 . S
C619 H607 0.950 . S
C619 C615 1.393 . S
C619 C618 1.391 . S
C620 H610 0.950 . S
C620 C621 1.386 . S
C620 C622 1.391 . S
C621 C620 1.386 . S
C621 C625 1.393 . S
C622 H611 0.950 . S
C622 C620 1.391 . S
C622 C623 1.400 . S
C623 C617 1.491 . S
C623 C622 1.400 . S
C623 C624 1.398 . S
C624 H612 0.950 . S
C624 C623 1.398 . S
C624 C625 1.391 . S
C625 H613 0.950 . S
C625 C621 1.393 . S
C625 C624 1.391 . S
H626 C634 0.950 . S
H627 C639 0.950 . S
H628 C636 0.950 . S
H629 C638 0.950 . S
H630 C640 0.950 . S
H631 C642 0.950 . S
H632 C644 0.950 . S
H633 C645 0.950 . S
C634 H626 0.950 . S
C634 C635 1.386 . S
C634 C636 1.391 . S
C635 C634 1.386 . S
C635 C639 1.393 . S
C636 H628 0.950 . S
C636 C634 1.391 . S
C636 C637 1.400 . S
C637 C636 1.400 . S
C637 C638 1.398 . S
C637 C643 1.491 . S
C638 H629 0.950 . S
C638 C637 1.398 . S
C638 C639 1.391 . S
C639 H627 0.950 . S
C639 C635 1.393 . S
C639 C638 1.391 . S
C640 H630 0.950 . S
C640 C641 1.386 . S
C640 C642 1.391 . S
C641 C640 1.386 . S
C641 C645 1.393 . S
C642 H631 0.950 . S
C642 C640 1.391 . S
C642 C643 1.400 . S
C643 C637 1.491 . S
C643 C642 1.400 . S
C643 C644 1.398 . S
C644 H632 0.950 . S
C644 C643 1.398 . S
C644 C645 1.391 . S
C645 H633 0.950 . S
C645 C641 1.393 . S
C645 C644 1.391 . S
H646 C654 0.950 . S
H647 C659 0.950 . S
H648 C656 0.950 . S
H649 C658 0.950 . S
H650 C660 0.950 . S
H651 C662 0.950 . S
H652 C664 0.950 . S
H653 C665 0.950 . S
C654 H646 0.950 . S
C654 C655 1.386 . S
C654 C656 1.391 . S
C655 C654 1.386 . S
C655 C659 1.393 . S
C656 H648 0.950 . S
C656 C654 1.391 . S
C656 C657 1.400 . S
C657 C656 1.400 . S
C657 C658 1.398 . S
C657 C663 1.491 . S
C658 H649 0.950 . S
C658 C657 1.398 . S
C658 C659 1.391 . S
C659 H647 0.950 . S
C659 C655 1.393 . S
C659 C658 1.391 . S
C660 H650 0.950 . S
C660 C661 1.386 . S
C660 C662 1.391 . S
C661 C660 1.386 . S
C661 C665 1.393 . S
C662 H651 0.950 . S
C662 C660 1.391 . S
C662 C663 1.400 . S
C663 C657 1.491 . S
C663 C662 1.400 . S
C663 C664 1.398 . S
C664 H652 0.950 . S
C664 C663 1.398 . S
C664 C665 1.391 . S
C665 H653 0.950 . S
C665 C661 1.393 . S
C665 C664 1.391 . S
C195 C14 1.518 . S
C201 C109 1.552 . S
C215 C25 1.503 . S
C221 C122 1.555 . S
C241 C144 1.527 . S
C235 C43 1.494 . S
C261 C157 1.517 . S
C255 C62 1.515 . S
C281 C170 1.524 . S
C275 C80 1.492 . S
C301 C183 1.516 . S
C295 C97 1.504 . S
C315 C32 1.495 . S
C321 C139 1.523 . S
C335 C50 1.507 . S
C341 C152 1.515 . S
C361 C165 1.503 . S
C355 C70 1.502 . S
C381 C178 1.524 . S
C375 C88 1.488 . S
C395 C104 1.511 . S
C401 C111 1.551 . S
C421 C124 1.554 . S
C415 C7 1.498 . S
C441 C150 1.511 . S
C435 C8 1.490 . S
C455 C34 1.487 . S
C461 C163 1.517 . S
C481 C176 1.517 . S
C475 C52 1.489 . S
C495 C68 1.496 . S
C501 C113 1.552 . S
C515 C86 1.500 . S
C521 C126 1.551 . S
C535 C106 1.505 . S
C541 C137 1.501 . S
C555 C26 1.520 . S
C561 C174 1.512 . S
C581 C118 1.556 . S
C575 C44 1.510 . S
C595 C61 1.521 . S
C601 C131 1.559 . S
C615 C79 1.514 . S
C621 C135 1.533 . S
C635 C98 1.516 . S
C641 C148 1.525 . S
C655 C16 1.513 . S
C661 C161 1.514 . S
