# Generated by pormake.
# Topology zzz, (3,6)-cn, num edge types: 1
# Building blocks:
#     Node 0, Type 0, BuildingBlock: MIDCAF_clean_linker_0, # of connection points: 3
#     Node 1, Type 0, BuildingBlock: MIDCAF_clean_linker_0, # of connection points: 3
#     Node 2, Type 0, BuildingBlock: MIDCAF_clean_linker_0, # of connection points: 3
#     Node 3, Type 0, BuildingBlock: MIDCAF_clean_linker_0, # of connection points: 3
#     Node 4, Type 0, BuildingBlock: MIDCAF_clean_linker_0, # of connection points: 3
#     Node 5, Type 0, BuildingBlock: MIDCAF_clean_linker_0, # of connection points: 3
#     Node 6, Type 0, BuildingBlock: MIDCAF_clean_linker_0, # of connection points: 3
#     Node 7, Type 0, BuildingBlock: MIDCAF_clean_linker_0, # of connection points: 3
#     Node 8, Type 1, BuildingBlock: CUKXOW_clean_sbu_0, # of connection points: 6
#     Node 9, Type 1, BuildingBlock: CUKXOW_clean_sbu_0, # of connection points: 6
#     Node 10, Type 1, BuildingBlock: CUKXOW_clean_sbu_0, # of connection points: 6
#     Node 11, Type 1, BuildingBlock: CUKXOW_clean_sbu_0, # of connection points: 6
#     Edge 12, Type (0, 1), BuildingBlock: KIFKEQ_clean_linker_1, # of connection points: 2
#     Edge 13, Type (0, 1), BuildingBlock: KIFKEQ_clean_linker_1, # of connection points: 2
#     Edge 14, Type (0, 1), BuildingBlock: KIFKEQ_clean_linker_1, # of connection points: 2
#     Edge 15, Type (0, 1), BuildingBlock: KIFKEQ_clean_linker_1, # of connection points: 2
#     Edge 16, Type (0, 1), BuildingBlock: KIFKEQ_clean_linker_1, # of connection points: 2
#     Edge 17, Type (0, 1), BuildingBlock: KIFKEQ_clean_linker_1, # of connection points: 2
#     Edge 18, Type (0, 1), BuildingBlock: KIFKEQ_clean_linker_1, # of connection points: 2
#     Edge 19, Type (0, 1), BuildingBlock: KIFKEQ_clean_linker_1, # of connection points: 2
#     Edge 20, Type (0, 1), BuildingBlock: KIFKEQ_clean_linker_1, # of connection points: 2
#     Edge 21, Type (0, 1), BuildingBlock: KIFKEQ_clean_linker_1, # of connection points: 2
#     Edge 22, Type (0, 1), BuildingBlock: KIFKEQ_clean_linker_1, # of connection points: 2
#     Edge 23, Type (0, 1), BuildingBlock: KIFKEQ_clean_linker_1, # of connection points: 2
#     Edge 24, Type (0, 1), BuildingBlock: KIFKEQ_clean_linker_1, # of connection points: 2
#     Edge 25, Type (0, 1), BuildingBlock: KIFKEQ_clean_linker_1, # of connection points: 2
#     Edge 26, Type (0, 1), BuildingBlock: KIFKEQ_clean_linker_1, # of connection points: 2
#     Edge 27, Type (0, 1), BuildingBlock: KIFKEQ_clean_linker_1, # of connection points: 2
#     Edge 28, Type (0, 1), BuildingBlock: KIFKEQ_clean_linker_1, # of connection points: 2
#     Edge 29, Type (0, 1), BuildingBlock: KIFKEQ_clean_linker_1, # of connection points: 2
#     Edge 30, Type (0, 1), BuildingBlock: KIFKEQ_clean_linker_1, # of connection points: 2
#     Edge 31, Type (0, 1), BuildingBlock: KIFKEQ_clean_linker_1, # of connection points: 2
#     Edge 32, Type (0, 1), BuildingBlock: KIFKEQ_clean_linker_1, # of connection points: 2
#     Edge 33, Type (0, 1), BuildingBlock: KIFKEQ_clean_linker_1, # of connection points: 2
#     Edge 34, Type (0, 1), BuildingBlock: KIFKEQ_clean_linker_1, # of connection points: 2
#     Edge 35, Type (0, 1), BuildingBlock: KIFKEQ_clean_linker_1, # of connection points: 2
# Relax obj value: 0.217
# Max RMSD: 0.232
# Mean RMSD: 0.188
data_MOF--net-zzz--node1-CUKXOW_clean_sbu_0--node2-MIDCAF_clean_linker_0--edge1-KIFKEQ_clean_linker_1
_symmetry_space_group_name_H-M    P1
_symmetry_Int_Tables_number       1
_symmetry_cell_setting            triclinic
loop_
_symmetry_equiv_pos_as_xyz
'x, y, z'
_cell_length_a     59.025319
_cell_length_b     57.576167
_cell_length_c     20.747445
_cell_angle_alpha  92.464099
_cell_angle_beta   88.357113
_cell_angle_gamma 95.471386
loop_
_atom_site_label
_atom_site_type_symbol
_atom_site_fract_x
_atom_site_fract_y
_atom_site_fract_z
_atom_type_partial_charge
C0 C 0.80578 0.43454 0.30825 0.0
C1 C 0.80182 0.45456 0.3465 0.0
C2 C 0.78423 0.46789 0.32952 0.0
C3 C 0.77179 0.46201 0.27352 0.0
H4 H 0.71903 0.48161 0.12446 0.0
H5 H 0.68386 0.49349 0.07979 0.0
H6 H 0.67455 0.42776 0.97148 0.0
H7 H 0.70985 0.41631 0.01399 0.0
H8 H 0.77505 0.43987 0.93195 0.0
H9 H 0.80762 0.44043 0.85652 0.0
H10 H 0.84496 0.40568 0.9936 0.0
H11 H 0.81256 0.40512 0.06895 0.0
H12 H 0.79783 0.41386 0.22267 0.0
H13 H 0.81931 0.42399 0.31913 0.0
H14 H 0.78061 0.48329 0.35834 0.0
H15 H 0.75913 0.47319 0.25981 0.0
N16 N 0.74687 0.44523 0.15268 0.0
N17 N 0.75368 0.43378 0.04394 0.0
N18 N 0.78142 0.43065 0.12026 0.0
C19 C 0.73962 0.44204 0.09078 0.0
C20 C 0.77466 0.42813 0.05838 0.0
C21 C 0.76777 0.43906 0.16767 0.0
C22 C 0.71702 0.44807 0.07258 0.0
C23 C 0.70919 0.46963 0.09199 0.0
C24 C 0.68924 0.47645 0.06626 0.0
C25 C 0.6766 0.46148 0.02242 0.0
C26 C 0.68394 0.43951 0.00554 0.0
C27 C 0.70411 0.433 0.02973 0.0
C28 C 0.79142 0.42284 0.00686 0.0
C29 C 0.78991 0.43164 0.94513 0.0
C30 C 0.80857 0.43207 0.90202 0.0
C31 C 0.82888 0.42338 0.91961 0.0
C32 C 0.82951 0.41242 0.97861 0.0
C33 C 0.81099 0.41226 0.02198 0.0
C34 C 0.77695 0.44287 0.23329 0.0
C35 C 0.79355 0.42882 0.25245 0.0
C36 C 0.89918 0.81841 0.28756 0.0
C37 C 0.91007 0.8085 0.33764 0.0
C38 C 0.91634 0.78555 0.32787 0.0
C39 C 0.91325 0.77357 0.26791 0.0
H40 H 0.93127 0.71376 0.14394 0.0
H41 H 0.94146 0.67475 0.10901 0.0
H42 H 0.90757 0.68003 0.92936 0.0
H43 H 0.89775 0.71896 0.96345 0.0
H44 H 0.92747 0.77732 0.91761 0.0
H45 H 0.94172 0.80887 0.84791 0.0
H46 H 0.91206 0.85861 0.97914 0.0
H47 H 0.89729 0.82729 0.04695 0.0
H48 H 0.88841 0.81522 0.19031 0.0
H49 H 0.89433 0.83607 0.29224 0.0
H50 H 0.92439 0.77717 0.36567 0.0
H51 H 0.91939 0.75649 0.26065 0.0
N52 N 0.90773 0.75172 0.1356 0.0
N53 N 0.91034 0.75937 0.0248 0.0
N54 N 0.90491 0.78951 0.10084 0.0
C55 C 0.91004 0.74397 0.07288 0.0
C56 C 0.90779 0.78222 0.03856 0.0
C57 C 0.90477 0.77458 0.14961 0.0
C58 C 0.91383 0.71941 0.05623 0.0
C59 C 0.9257 0.70639 0.09748 0.0
C60 C 0.93163 0.68418 0.07743 0.0
C61 C 0.92529 0.67445 0.01654 0.0
C62 C 0.91251 0.68705 0.97673 0.0
C63 C 0.90701 0.70937 0.99611 0.0
C64 C 0.91165 0.79985 0.98856 0.0
C65 C 0.92341 0.79491 0.93044 0.0
C66 C 0.93176 0.81302 0.89079 0.0
C67 C 0.92844 0.83635 0.90849 0.0
C68 C 0.91491 0.84091 0.96359 0.0
C69 C 0.90657 0.82288 0.00299 0.0
C70 C 0.90385 0.78435 0.21678 0.0
C71 C 0.89601 0.80647 0.22831 0.0
C72 C 0.70781 0.99585 0.37019 0.0
C73 C 0.69245 0.97622 0.38252 0.0
C74 C 0.69461 0.9554 0.34582 0.0
C75 C 0.70956 0.95515 0.29251 0.0
H76 H 0.79604 0.97645 0.18273 0.0
H77 H 0.83506 0.98124 0.13833 0.0
H78 H 0.81062 0.00999 0.96743 0.0
H79 H 0.77203 0.00549 0.01135 0.0
H80 H 0.72023 0.00064 0.98098 0.0
H81 H 0.68858 0.00845 0.91443 0.0
H82 H 0.64091 0.98004 0.0591 0.0
H83 H 0.67228 0.9718 0.1248 0.0
H84 H 0.73283 0.01156 0.30425 0.0
H85 H 0.70656 0.01218 0.39737 0.0
H86 H 0.68337 0.93983 0.35499 0.0
H87 H 0.70907 0.93966 0.26078 0.0
N88 N 0.75189 0.98233 0.18794 0.0
N89 N 0.73974 0.98725 0.08265 0.0
N90 N 0.71293 0.97884 0.16521 0.0
C91 C 0.75695 0.98654 0.12463 0.0
C92 C 0.71768 0.98337 0.10263 0.0
C93 C 0.72976 0.97828 0.2079 0.0
C94 C 0.78086 0.9905 0.10058 0.0
C95 C 0.79906 0.984 0.13598 0.0
C96 C 0.82137 0.9866 0.11044 0.0
C97 C 0.82591 0.99604 0.04946 0.0
C98 C 0.80776 0.00295 0.01488 0.0
C99 C 0.78555 1.00018 0.03999 0.0
C100 C 0.69883 0.98579 0.05856 0.0
C101 C 0.70301 0.99574 0.99815 0.0
C102 C 0.68489 0.00037 0.96021 0.0
C103 C 0.66226 0.99503 0.98176 0.0
C104 C 0.65813 0.98419 0.04083 0.0
C105 C 0.67618 0.97963 0.07875 0.0
C106 C 0.72295 0.97554 0.27585 0.0
C107 C 0.72299 0.99549 0.31711 0.0
C108 C 0.60649 0.67435 0.98067 0.0
C109 C 0.58684 0.67525 0.94407 0.0
C110 C 0.57644 0.6963 0.94537 0.0
C111 C 0.58452 0.71528 0.98519 0.0
H112 H 0.61705 0.79158 0.00698 0.0
H113 H 0.60865 0.82998 0.97762 0.0
H114 H 0.58131 0.84315 0.16972 0.0
H115 H 0.58962 0.804 0.1993 0.0
H116 H 0.58742 0.75206 0.29768 0.0
H117 H 0.58078 0.72874 0.39376 0.0
H118 H 0.63067 0.68326 0.3216 0.0
H119 H 0.63715 0.70639 0.22625 0.0
H120 H 0.62837 0.69138 0.05263 0.0
H121 H 0.61557 0.65887 0.97939 0.0
H122 H 0.56116 0.69782 0.91891 0.0
H123 H 0.57537 0.73075 0.98766 0.0
N124 N 0.60533 0.75397 0.06849 0.0
N125 N 0.6091 0.76288 0.17964 0.0
N126 N 0.61112 0.72443 0.1382 0.0
C127 C 0.60647 0.77 0.11861 0.0
C128 C 0.61183 0.74002 0.18924 0.0
C129 C 0.60768 0.73123 0.07793 0.0
C130 C 0.6038 0.79464 0.10532 0.0
C131 C 0.60947 0.80268 0.0434 0.0
C132 C 0.60486 0.82488 0.0267 0.0
C133 C 0.59434 0.83971 0.07133 0.0
C134 C 0.58933 0.83206 0.13419 0.0
C135 C 0.59421 0.80975 0.15124 0.0
C136 C 0.61267 0.73089 0.25447 0.0
C137 C 0.59757 0.73763 0.30378 0.0
C138 C 0.59364 0.72416 0.35842 0.0
C139 C 0.60502 0.704 0.36491 0.0
C140 C 0.62173 0.69873 0.31842 0.0
C141 C 0.62539 0.71194 0.26361 0.0
C142 C 0.60277 0.71343 0.02587 0.0
C143 C 0.61408 0.69308 0.02209 0.0
C144 C 0.20514 0.56988 0.07763 0.0
C145 C 0.20811 0.54912 0.04158 0.0
C146 C 0.22503 0.5352 0.06013 0.0
C147 C 0.23756 0.54117 0.11596 0.0
H148 H 0.29994 0.53575 0.23702 0.0
H149 H 0.33685 0.52681 0.2768 0.0
H150 H 0.32517 0.56763 0.45201 0.0
H151 H 0.28894 0.57665 0.41289 0.0
H152 H 0.2318 0.5631 0.45748 0.0
H153 H 0.19922 0.56284 0.5328 0.0
H154 H 0.1608 0.5941 0.39114 0.0
H155 H 0.19319 0.59434 0.31576 0.0
H156 H 0.21373 0.59113 0.16188 0.0
H157 H 0.19216 0.58094 0.06555 0.0
H158 H 0.22793 0.51922 0.033 0.0
H159 H 0.24948 0.52946 0.13136 0.0
N160 N 0.26237 0.55914 0.23793 0.0
N161 N 0.25334 0.56871 0.3465 0.0
N162 N 0.22663 0.5717 0.26737 0.0
C163 C 0.26857 0.56174 0.30098 0.0
C164 C 0.23237 0.5737 0.33012 0.0
C165 C 0.24136 0.56448 0.22104 0.0
C166 C 0.29143 0.55686 0.32175 0.0
C167 C 0.30541 0.54294 0.28373 0.0
C168 C 0.32643 0.53771 0.30664 0.0
C169 C 0.33394 0.54662 0.36741 0.0
C170 C 0.32006 0.56076 0.40465 0.0
C171 C 0.29913 0.56577 0.38226 0.0
C172 C 0.2149 0.57835 0.38024 0.0
C173 C 0.21663 0.57053 0.44302 0.0
C174 C 0.19799 0.5703 0.48613 0.0
C175 C 0.17747 0.57824 0.46751 0.0
C176 C 0.17645 0.588 0.40691 0.0
C177 C 0.19496 0.58795 0.36355 0.0
C178 C 0.23314 0.56099 0.15438 0.0
C179 C 0.21744 0.57569 0.13327 0.0
C180 C 0.11779 0.19266 0.10035 0.0
C181 C 0.10614 0.20208 0.05092 0.0
C182 C 0.09943 0.22486 0.06074 0.0
C183 C 0.10272 0.23706 0.12032 0.0
H184 H 0.08243 0.29567 0.24535 0.0
H185 H 0.07048 0.33391 0.28135 0.0
H186 H 0.10558 0.33007 0.4597 0.0
H187 H 0.11714 0.29191 0.42455 0.0
H188 H 0.08522 0.23121 0.46471 0.0
H189 H 0.06911 0.1979 0.52606 0.0
H190 H 0.10695 0.15188 0.40449 0.0
H191 H 0.12318 0.18488 0.34351 0.0
H192 H 0.12934 0.19641 0.1968 0.0
H193 H 0.12303 0.17515 0.09568 0.0
H194 H 0.09083 0.23292 0.0234 0.0
H195 H 0.09616 0.25394 0.12777 0.0
N196 N 0.10803 0.25903 0.25254 0.0
N197 N 0.10551 0.25112 0.36321 0.0
N198 N 0.11221 0.22146 0.28682 0.0
C199 C 0.10538 0.26655 0.31536 0.0
C200 C 0.10895 0.2285 0.34915 0.0
C201 C 0.11186 0.2364 0.23825 0.0
C202 C 0.10061 0.29081 0.33234 0.0
C203 C 0.08789 0.30322 0.29172 0.0
C204 C 0.08096 0.32498 0.31239 0.0
C205 C 0.08712 0.33487 0.37325 0.0
C206 C 0.10076 0.32293 0.41236 0.0
C207 C 0.10725 0.30104 0.39237 0.0
C208 C 0.10503 0.21057 0.39823 0.0
C209 C 0.09081 0.21414 0.45267 0.0
C210 C 0.08157 0.19511 0.48782 0.0
C211 C 0.08649 0.1724 0.46887 0.0
C212 C 0.10268 0.16924 0.41926 0.0
C213 C 0.11194 0.18816 0.3844 0.0
C214 C 0.11281 0.22669 0.17099 0.0
C215 C 0.1212 0.20484 0.15917 0.0
C216 C 0.307 0.978 0.00201 0.0
C217 C 0.309 0.99799 0.96482 0.0
C218 C 0.29514 0.01606 0.98152 0.0
C219 C 0.28166 0.0153 0.03831 0.0
H220 H 0.2105 0.98799 0.19372 0.0
H221 H 0.17364 0.98944 0.24999 0.0
H222 H 0.20548 0.03626 0.39661 0.0
H223 H 0.24219 0.03372 0.34228 0.0
H224 H 0.28963 0.9966 0.38411 0.0
H225 H 0.32208 0.99292 0.45274 0.0
H226 H 0.3679 0.0032 0.28828 0.0
H227 H 0.33582 0.00696 0.22005 0.0
H228 H 0.29429 0.96273 0.08957 0.0
H229 H 0.31746 0.96379 0.99136 0.0
H230 H 0.29597 0.03153 0.95332 0.0
H231 H 0.27296 0.03041 0.05361 0.0
N232 N 0.25549 0.00357 0.17144 0.0
N233 N 0.2697 0.00655 0.27689 0.0
N234 N 0.29393 0.99916 0.18913 0.0
C235 C 0.25201 0.007 0.23636 0.0
C236 C 0.29074 0.00268 0.25341 0.0
C237 C 0.2766 0.99958 0.14804 0.0
C238 C 0.22921 0.0105 0.26413 0.0
C239 C 0.20946 0.99878 0.23758 0.0
C240 C 0.18834 0.99968 0.26984 0.0
C241 C 0.18657 0.01261 0.3287 0.0
C242 C 0.20623 0.02547 0.35268 0.0
C243 C 0.22729 0.0242 0.32124 0.0
C244 C 0.31013 0.00193 0.29658 0.0
C245 C 0.30665 0.99829 0.36283 0.0
C246 C 0.32517 0.99605 0.40199 0.0
C247 C 0.34747 0.99775 0.37571 0.0
C248 C 0.35093 0.00202 0.30995 0.0
C249 C 0.33249 0.004 0.2708 0.0
C250 C 0.28192 0.99647 0.07885 0.0
C251 C 0.29366 0.97732 0.05851 0.0
C252 C 0.41163 0.34186 0.36319 0.0
C253 C 0.42118 0.33726 0.42207 0.0
C254 C 0.42107 0.31394 0.43971 0.0
C255 C 0.41328 0.29562 0.3971 0.0
H256 H 0.39581 0.22242 0.36613 0.0
H257 H 0.40577 0.18507 0.40053 0.0
H258 H 0.43288 0.16962 0.20955 0.0
H259 H 0.42306 0.20751 0.17486 0.0
H260 H 0.42933 0.25775 0.07371 0.0
H261 H 0.43808 0.27951 0.97557 0.0
H262 H 0.38494 0.32391 0.02804 0.0
H263 H 0.37642 0.30238 0.12556 0.0
H264 H 0.39775 0.32789 0.27434 0.0
H265 H 0.41154 0.35958 0.34776 0.0
H266 H 0.4279 0.30983 0.48531 0.0
H267 H 0.4146 0.27787 0.4108 0.0
N268 N 0.40455 0.25896 0.29857 0.0
N269 N 0.40432 0.24815 0.18791 0.0
N270 N 0.40065 0.287 0.22278 0.0
C271 C 0.40528 0.24216 0.25064 0.0
C272 C 0.40151 0.27061 0.17407 0.0
C273 C 0.40233 0.28144 0.28509 0.0
C274 C 0.40883 0.21807 0.26786 0.0
C275 C 0.40367 0.21101 0.33106 0.0
C276 C 0.4092 0.18945 0.35072 0.0
C277 C 0.42015 0.17435 0.30784 0.0
C278 C 0.4246 0.18097 0.24384 0.0
C279 C 0.41885 0.20258 0.22387 0.0
C280 C 0.40231 0.27852 0.10725 0.0
C281 C 0.41898 0.27156 0.06277 0.0
C282 C 0.42409 0.28414 0.00697 0.0
C283 C 0.41235 0.30358 0.99443 0.0
C284 C 0.3942 0.30896 0.03593 0.0
C285 C 0.38936 0.29668 0.09197 0.0
C286 C 0.40553 0.30028 0.33589 0.0
C287 C 0.40385 0.3236 0.3207 0.0
Tb288 Tb 0.99537 0.9847 0.65312 0.0
C289 C 0.04375 0.00643 0.60953 0.0
Tb290 Tb 0.01948 0.02511 0.73829 0.0
O291 O 0.99176 0.00796 0.57395 0.0
O292 O 0.99395 0.02098 0.66832 0.0
O293 O 0.02896 0.98753 0.60643 0.0
C294 C 0.03886 0.06604 0.78432 0.0
O295 O 0.04161 0.0241 0.65203 0.0
C296 C 0.02072 0.9826 0.77949 0.0
C297 C 0.97102 0.00381 0.78127 0.0
O298 O 0.04951 0.04774 0.76956 0.0
O299 O 0.01733 0.06118 0.77398 0.0
O300 O 0.02234 0.0013 0.8172 0.0
O301 O 0.02107 0.98895 0.72236 0.0
O302 O 0.9857 0.02279 0.78325 0.0
O303 O 0.97326 0.98588 0.73969 0.0
C304 C 0.97626 0.94352 0.60819 0.0
O305 O 0.96544 0.96168 0.6231 0.0
O306 O 0.9978 0.94863 0.61774 0.0
C307 C 0.99406 0.02688 0.61068 0.0
Tb308 Tb 0.50135 0.02595 0.64662 0.0
C309 C 0.54617 0.00226 0.62649 0.0
Tb310 Tb 0.51011 0.98587 0.73512 0.0
O311 O 0.52786 0.04937 0.69412 0.0
O312 O 0.51037 0.02254 0.74334 0.0
O313 O 0.52985 0.01133 0.59574 0.0
C314 C 0.52786 0.95841 0.81703 0.0
O315 O 0.54292 0.99456 0.68578 0.0
C316 C 0.48397 0.97407 0.63685 0.0
C317 C 0.46407 0.00897 0.75436 0.0
O318 O 0.52693 0.95481 0.75495 0.0
O319 O 0.51839 0.97732 0.83335 0.0
O320 O 0.48298 0.96284 0.69003 0.0
O321 O 0.50084 0.98921 0.63858 0.0
O322 O 0.47823 0.99531 0.77944 0.0
O323 O 0.4695 0.0219 0.7035 0.0
C324 C 0.48503 0.05295 0.56051 0.0
O325 O 0.47531 0.03307 0.57862 0.0
O326 O 0.50391 0.05764 0.59087 0.0
C327 C 0.52692 0.03794 0.74682 0.0
Tb328 Tb 0.52425 0.52064 0.6359 0.0
C329 C 0.47172 0.51135 0.60908 0.0
Tb330 Tb 0.49426 0.48533 0.7188 0.0
O331 O 0.52427 0.49504 0.55419 0.0
O332 O 0.52027 0.48415 0.64743 0.0
O333 O 0.48986 0.527 0.60963 0.0
C334 C 0.47076 0.44755 0.76648 0.0
O335 O 0.47028 0.49262 0.64497 0.0
C336 C 0.49912 0.52867 0.76578 0.0
C337 C 0.54649 0.49532 0.74727 0.0
O338 O 0.47292 0.45205 0.70573 0.0
O339 O 0.48133 0.46454 0.79997 0.0
O340 O 0.49394 0.51073 0.80091 0.0
O341 O 0.49837 0.52184 0.70762 0.0
O342 O 0.52863 0.47935 0.74621 0.0
O343 O 0.54772 0.51414 0.71186 0.0
C344 C 0.54802 0.55799 0.58633 0.0
O345 O 0.54832 0.55222 0.64606 0.0
O346 O 0.53486 0.54247 0.55476 0.0
C347 C 0.51926 0.47716 0.58953 0.0
Tb348 Tb 0.98312 0.50128 0.65372 0.0
C349 C 0.02111 0.46789 0.62058 0.0
Tb350 Tb 0.02409 0.50332 0.74465 0.0
O351 O 0.00543 0.51645 0.57755 0.0
O352 O 0.01211 0.52442 0.67486 0.0
O353 O 0.99956 0.47172 0.61192 0.0
C354 C 0.06584 0.50902 0.79337 0.0
O355 O 0.03388 0.47919 0.66606 0.0
C356 C 0.98747 0.47732 0.77959 0.0
C357 C 0.98628 0.53692 0.77731 0.0
O358 O 0.0489 0.49527 0.81524 0.0
O359 O 0.05922 0.51962 0.74432 0.0
O360 O 0.00158 0.488 0.82052 0.0
O361 O 0.9952 0.48017 0.72316 0.0
O362 O 0.00784 0.53308 0.78573 0.0
O363 O 0.97338 0.52546 0.73234 0.0
C364 C 0.94149 0.49553 0.60445 0.0
O365 O 0.95825 0.5098 0.58399 0.0
O366 O 0.94819 0.48445 0.65248 0.0
C367 C 0.01967 0.52711 0.61813 0.0
H368 H 0.18089 0.01219 0.45999 0.0
H369 H 0.14265 0.01072 0.28485 0.0
H370 H 0.14572 0.01172 0.52369 0.0
H371 H 0.10721 0.00926 0.34953 0.0
H372 H 0.05134 0.97859 0.50176 0.0
H373 H 0.08513 0.98064 0.43016 0.0
H374 H 0.11475 0.03992 0.54324 0.0
H375 H 0.08117 0.03812 0.6144 0.0
C376 C 0.16505 0.01203 0.43488 0.0
C377 C 0.16476 0.01186 0.36702 0.0
C378 C 0.14487 0.01161 0.47157 0.0
C379 C 0.12379 0.01062 0.44153 0.0
C380 C 0.12327 0.00993 0.37382 0.0
C381 C 0.14357 0.01069 0.33688 0.0
C382 C 0.06502 0.99212 0.51119 0.0
C383 C 0.06364 0.00803 0.56423 0.0
C384 C 0.08427 0.99336 0.46994 0.0
C385 C 0.10256 0.01034 0.48151 0.0
C386 C 0.10097 0.02651 0.53366 0.0
C387 C 0.08168 0.02548 0.5743 0.0
H388 H 0.39761 0.14281 0.3879 0.0
H389 H 0.46144 0.15741 0.2838 0.0
H390 H 0.41334 0.11142 0.44189 0.0
H391 H 0.47695 0.12544 0.33615 0.0
H392 H 0.50508 0.0938 0.51576 0.0
H393 H 0.48884 0.12042 0.44545 0.0
H394 H 0.42758 0.07312 0.43164 0.0
H395 H 0.4438 0.04679 0.50357 0.0
C396 C 0.41489 0.13905 0.37577 0.0
C397 C 0.42835 0.15278 0.33207 0.0
C398 C 0.42385 0.12091 0.40628 0.0
C399 C 0.4465 0.11606 0.39387 0.0
C400 C 0.45956 0.12896 0.34754 0.0
C401 C 0.45058 0.1471 0.31693 0.0
C402 C 0.48822 0.08905 0.49726 0.0
C403 C 0.47566 0.06829 0.51495 0.0
C404 C 0.47897 0.10419 0.45653 0.0
C405 C 0.45692 0.09889 0.43267 0.0
C406 C 0.44453 0.07782 0.44954 0.0
C407 C 0.45384 0.06267 0.4903 0.0
H408 H 0.35126 0.50406 0.368 0.0
H409 H 0.36596 0.57663 0.42703 0.0
H410 H 0.3855 0.49465 0.42158 0.0
H411 H 0.39955 0.56724 0.48197 0.0
H412 H 0.46881 0.54735 0.52919 0.0
H413 H 0.43705 0.55483 0.46369 0.0
H414 H 0.39851 0.49282 0.53247 0.0
H415 H 0.43063 0.48495 0.59726 0.0
C416 C 0.36195 0.51802 0.3917 0.0
C417 C 0.35587 0.54106 0.39358 0.0
C418 C 0.38139 0.51261 0.42305 0.0
C419 C 0.3952 0.53017 0.45644 0.0
C420 C 0.38946 0.5533 0.4563 0.0
C421 C 0.37008 0.55867 0.42525 0.0
C422 C 0.4536 0.53525 0.53052 0.0
C423 C 0.45221 0.51568 0.5692 0.0
C424 C 0.43534 0.5396 0.49294 0.0
C425 C 0.41516 0.52452 0.49308 0.0
C426 C 0.41389 0.50467 0.53076 0.0
C427 C 0.43223 0.50028 0.56839 0.0
H428 H 0.11085 0.37347 0.42725 0.0
H429 H 0.043 0.34504 0.37796 0.0
H430 H 0.09547 0.40736 0.48062 0.0
H431 H 0.02736 0.3783 0.43363 0.0
H432 H 0.00581 0.44829 0.50546 0.0
H433 H 0.02255 0.41841 0.43787 0.0
H434 H 0.07557 0.41612 0.57646 0.0
H435 H 0.05942 0.44662 0.64217 0.0
C436 C 0.09263 0.3746 0.42765 0.0
C437 C 0.0781 0.35669 0.39862 0.0
C438 C 0.08376 0.39389 0.45868 0.0
C439 C 0.0601 0.39551 0.46239 0.0
C440 C 0.04566 0.37789 0.4312 0.0
C441 C 0.05459 0.35877 0.39933 0.0
C442 C 0.02109 0.44143 0.5213 0.0
C443 C 0.03124 0.44979 0.57928 0.0
C444 C 0.03066 0.42421 0.48265 0.0
C445 C 0.05046 0.41475 0.50148 0.0
C446 C 0.06061 0.42326 0.55948 0.0
C447 C 0.05122 0.44066 0.5976 0.0
H448 H 0.85703 0.9636 0.0458 0.0
H449 H 0.84735 0.03284 0.98617 0.0
H450 H 0.8938 0.96546 0.98791 0.0
H451 H 0.88364 0.03446 0.92694 0.0
H452 H 0.95776 0.03813 0.86556 0.0
H453 H 0.92463 0.03636 0.93857 0.0
H454 H 0.90653 0.96478 0.87446 0.0
H455 H 0.93989 0.96635 0.80235 0.0
C456 C 0.8629 0.97933 0.02108 0.0
C457 C 0.84925 0.99802 0.02022 0.0
C458 C 0.88383 0.9803 0.98735 0.0
C459 C 0.89159 1.00004 0.95244 0.0
C460 C 0.87829 0.01906 0.95372 0.0
C461 C 0.85738 0.01805 0.98716 0.0
C462 C 0.94681 0.02196 0.86724 0.0
C463 C 0.95136 0.00247 0.82746 0.0
C464 C 0.92776 0.02098 0.90896 0.0
C465 C 0.91285 0.00049 0.91208 0.0
C466 C 0.91777 0.98078 0.87368 0.0
C467 C 0.93679 0.98177 0.83181 0.0
H468 H 0.61835 0.87152 0.99522 0.0
H469 H 0.55377 0.85827 0.09661 0.0
H470 H 0.60354 0.90325 0.94004 0.0
H471 H 0.53914 0.89039 0.04212 0.0
H472 H 0.52627 0.96021 0.94913 0.0
H473 H 0.54426 0.93499 0.0212 0.0
H474 H 0.57266 0.89907 0.85537 0.0
H475 H 0.55454 0.92386 0.78393 0.0
C476 C 0.60112 0.87564 0.00657 0.0
C477 C 0.5871 0.86209 0.04944 0.0
C478 C 0.59268 0.89381 0.97502 0.0
C479 C 0.5701 0.89901 0.98607 0.0
C480 C 0.55664 0.88678 0.03284 0.0
C481 C 0.56505 0.86843 0.06417 0.0
C482 C 0.53639 0.94691 0.92837 0.0
C483 C 0.5389 0.9438 0.86109 0.0
C484 C 0.54665 0.93253 0.96949 0.0
C485 C 0.55995 0.91519 0.94384 0.0
C486 C 0.56276 0.91249 0.87653 0.0
C487 C 0.55224 0.92654 0.83562 0.0
H488 H 0.63344 0.44026 0.02318 0.0
H489 H 0.67509 0.4991 0.94833 0.0
H490 H 0.60154 0.44987 0.96054 0.0
H491 H 0.64375 0.5081 0.88224 0.0
H492 H 0.57768 0.52806 0.80118 0.0
H493 H 0.60805 0.52163 0.87394 0.0
H494 H 0.58965 0.44712 0.85522 0.0
H495 H 0.5587 0.4538 0.78584 0.0
C496 C 0.63564 0.45535 0.99335 0.0
C497 C 0.65659 0.469 0.99054 0.0
C498 C 0.61749 0.46074 0.95674 0.0
C499 C 0.62004 0.47957 0.9151 0.0
C500 C 0.64093 0.49364 0.91406 0.0
C501 C 0.65895 0.4885 0.9518 0.0
C502 C 0.58026 0.51034 0.81262 0.0
C503 C 0.56583 0.49144 0.78792 0.0
C504 C 0.59771 0.5066 0.85426 0.0
C505 C 0.60135 0.48383 0.87122 0.0
C506 C 0.5871 0.46496 0.84507 0.0
C507 C 0.56943 0.46874 0.80458 0.0
H508 H 0.90005 0.63677 0.96269 0.0
H509 H 0.96863 0.66201 0.01352 0.0
H510 H 0.91388 0.6017 0.91148 0.0
H511 H 0.98277 0.6276 0.95991 0.0
H512 H 0.00149 0.55635 0.89253 0.0
H513 H 0.98569 0.58731 0.95809 0.0
H514 H 0.93358 0.59086 0.81737 0.0
H515 H 0.94876 0.55923 0.75376 0.0
C516 C 0.9181 0.6347 0.96304 0.0
C517 C 0.93329 0.65204 0.99198 0.0
C518 C 0.92609 0.61472 0.93326 0.0
C519 C 0.94953 0.61183 0.93068 0.0
C520 C 0.9646 0.62894 0.96157 0.0
C521 C 0.95653 0.64874 0.99224 0.0
C522 C 0.98659 0.5637 0.87584 0.0
C523 C 0.97644 0.55539 0.81783 0.0
C524 C 0.97757 0.58155 0.9133 0.0
C525 C 0.95835 0.59176 0.89318 0.0
C526 C 0.94811 0.58321 0.83531 0.0
C527 C 0.95693 0.56514 0.79841 0.0
H528 H 0.07818 0.15902 0.59366 0.0
H529 H 0.06185 0.14023 0.39575 0.0
H530 H 0.05453 0.1242 0.62877 0.0
H531 H 0.03754 0.10642 0.4301 0.0
H532 H 0.01859 0.03405 0.49996 0.0
H533 H 0.04095 0.06953 0.46895 0.0
H534 H 0.01647 0.10591 0.64007 0.0
H535 H 0.99457 0.06974 0.67198 0.0
C536 C 0.06941 0.14748 0.55794 0.0
C537 C 0.07212 0.15191 0.49207 0.0
C538 C 0.05574 0.12769 0.57785 0.0
C539 C 0.0443 0.11232 0.53216 0.0
C540 C 0.04657 0.11741 0.46652 0.0
C541 C 0.06044 0.13682 0.44675 0.0
C542 C 0.0177 0.04972 0.53041 0.0
C543 C 0.00492 0.04925 0.58838 0.0
C544 C 0.03054 0.07012 0.51271 0.0
C545 C 0.0305 0.0907 0.55186 0.0
C546 C 0.0172 0.09032 0.60927 0.0
C547 C 0.00456 0.06972 0.6274 0.0
H548 H 0.38835 0.02412 0.3808 0.0
H549 H 0.35103 0.96322 0.4597 0.0
H550 H 0.42146 0.01711 0.44173 0.0
H551 H 0.38426 0.95586 0.51999 0.0
H552 H 0.43957 0.96389 0.67036 0.0
H553 H 0.40648 0.9698 0.60809 0.0
H554 H 0.45078 0.9923 0.44833 0.0
H555 H 0.48395 0.98734 0.51259 0.0
C556 C 0.38729 0.0092 0.41121 0.0
C557 C 0.36712 0.99425 0.41575 0.0
C558 C 0.4063 0.0051 0.44597 0.0
C559 C 0.40562 0.9859 0.48592 0.0
C560 C 0.38533 0.97104 0.49064 0.0
C561 C 0.36626 0.97524 0.45616 0.0
C562 C 0.44218 0.96982 0.6216 0.0
C563 C 0.46422 0.9752 0.59602 0.0
C564 C 0.42321 0.97317 0.58577 0.0
C565 C 0.42588 0.98157 0.52308 0.0
C566 C 0.44806 0.98621 0.49684 0.0
C567 C 0.46705 0.98315 0.53318 0.0
H568 H 0.40901 0.38159 0.44803 0.0
H569 H 0.46191 0.3368 0.48129 0.0
H570 H 0.43293 0.41497 0.49294 0.0
H571 H 0.48554 0.37009 0.5271 0.0
H572 H 0.49425 0.47035 0.48155 0.0
H573 H 0.46912 0.43584 0.45009 0.0
H574 H 0.48886 0.40093 0.61702 0.0
H575 H 0.51425 0.43559 0.64814 0.0
C576 C 0.4256 0.3788 0.46563 0.0
C577 C 0.43363 0.35657 0.46036 0.0
C578 C 0.43928 0.39791 0.49123 0.0
C579 C 0.46122 0.39515 0.5125 0.0
C580 C 0.46867 0.3727 0.51126 0.0
C581 C 0.45505 0.35361 0.48527 0.0
C582 C 0.49344 0.45518 0.51096 0.0
C583 C 0.50612 0.4555 0.56716 0.0
C584 C 0.47883 0.43557 0.49353 0.0
C585 C 0.47682 0.41583 0.53161 0.0
C586 C 0.49011 0.4159 0.58678 0.0
C587 C 0.50461 0.43563 0.60448 0.0
H588 H 0.16207 0.53683 0.5178 0.0
H589 H 0.14462 0.60747 0.50096 0.0
H590 H 0.12398 0.52556 0.56163 0.0
H591 H 0.1064 0.59608 0.54565 0.0
H592 H 0.04599 0.56159 0.68182 0.0
H593 H 0.08573 0.57565 0.65566 0.0
H594 H 0.08539 0.52674 0.49202 0.0
H595 H 0.04574 0.51308 0.51721 0.0
C596 C 0.15034 0.55011 0.5254 0.0
C597 C 0.15625 0.57302 0.50595 0.0
C598 C 0.12853 0.5436 0.54993 0.0
C599 C 0.11239 0.55995 0.55632 0.0
C600 C 0.11868 0.58324 0.54116 0.0
C601 C 0.14044 0.5897 0.51557 0.0
C602 C 0.05447 0.55404 0.64007 0.0
C603 C 0.043 0.53634 0.60134 0.0
C604 C 0.07706 0.56204 0.62525 0.0
C605 C 0.08848 0.55208 0.57229 0.0
C606 C 0.07691 0.53448 0.53348 0.0
C607 C 0.05426 0.52683 0.54751 0.0
H608 H 0.97244 0.83899 0.86198 0.0
H609 H 0.91388 0.87875 0.88183 0.0
H610 H 0.99568 0.87365 0.82698 0.0
H611 H 0.93747 0.91357 0.8488 0.0
H612 H 0.99371 0.9736 0.88553 0.0
H613 H 0.97061 0.93718 0.90769 0.0
H614 H 0.99981 0.90403 0.73839 0.0
H615 H 0.02303 0.94061 0.71641 0.0
C616 C 0.96434 0.85492 0.85734 0.0
C617 C 0.9413 0.85611 0.87545 0.0
C618 C 0.97775 0.87481 0.83774 0.0
C619 C 0.96844 0.89631 0.83649 0.0
C620 C 0.94514 0.89726 0.85076 0.0
C621 C 0.93167 0.87732 0.86961 0.0
C622 C 0.9955 0.9584 0.85382 0.0
C623 C 0.00998 0.95981 0.79905 0.0
C624 C 0.98206 0.9377 0.86591 0.0
C625 C 0.9832 0.91795 0.82412 0.0
C626 C 0.99855 0.91905 0.77114 0.0
C627 C 0.01177 0.93989 0.75858 0.0
H628 H 0.6214 0.96977 0.95866 0.0
H629 H 0.65935 0.03612 0.92291 0.0
H630 H 0.5887 0.9824 0.90503 0.0
H631 H 0.62669 0.04871 0.86916 0.0
H632 H 0.57137 0.04976 0.71471 0.0
H633 H 0.60456 0.03981 0.77136 0.0
H634 H 0.56049 0.01114 0.92403 0.0
H635 H 0.52728 0.0213 0.86706 0.0
C636 C 0.62274 0.98706 0.93943 0.0
C637 C 0.64296 0.00195 0.94502 0.0
C638 C 0.604 0.99432 0.90897 0.0
C639 C 0.60509 0.01663 0.88342 0.0
C640 C 0.62542 0.03135 0.88792 0.0
C641 C 0.64416 0.02409 0.91844 0.0
C642 C 0.56885 0.04184 0.76111 0.0
C643 C 0.54684 0.03594 0.78637 0.0
C644 C 0.58783 0.03605 0.79341 0.0
C645 C 0.5851 0.0244 0.85168 0.0
C646 C 0.56308 0.01965 0.87849 0.0
C647 C 0.54413 0.0255 0.84618 0.0
H648 H 0.58711 0.62969 0.97833 0.0
H649 H 0.56112 0.67161 0.834 0.0
H650 H 0.56665 0.5953 0.93107 0.0
H651 H 0.53831 0.63744 0.79161 0.0
H652 H 0.51207 0.5673 0.6974 0.0
H653 H 0.53538 0.60226 0.73475 0.0
H654 H 0.53059 0.57717 0.92896 0.0
H655 H 0.50956 0.54135 0.88956 0.0
C656 C 0.5772 0.63171 0.93623 0.0
C657 C 0.57583 0.65376 0.91061 0.0
C658 C 0.56486 0.61188 0.90996 0.0
C659 C 0.55016 0.61349 0.85851 0.0
C660 C 0.54938 0.63534 0.83121 0.0
C661 C 0.56226 0.65514 0.8564 0.0
C662 C 0.51644 0.56923 0.7478 0.0
C663 C 0.50983 0.55135 0.79013 0.0
C664 C 0.52949 0.58944 0.7696 0.0
C665 C 0.53545 0.59251 0.8349 0.0
C666 C 0.52727 0.57516 0.8779 0.0
C667 C 0.51485 0.55472 0.85562 0.0
H668 H 0.86193 0.39463 0.88349 0.0
H669 H 0.84472 0.46571 0.87572 0.0
H670 H 0.90049 0.40677 0.84249 0.0
H671 H 0.8831 0.47771 0.83544 0.0
H672 H 0.96082 0.49039 0.88054 0.0
H673 H 0.92114 0.47618 0.90374 0.0
H674 H 0.92209 0.42823 0.73813 0.0
H675 H 0.96184 0.44281 0.71415 0.0
C676 C 0.86624 0.41268 0.87164 0.0
C677 C 0.85037 0.42923 0.88275 0.0
C678 C 0.8882 0.41959 0.84819 0.0
C679 C 0.89466 0.44317 0.83667 0.0
C680 C 0.87847 0.45945 0.84448 0.0
C681 C 0.85648 0.45251 0.86689 0.0
C682 C 0.95258 0.47672 0.84944 0.0
C683 C 0.96419 0.46766 0.79562 0.0
C684 C 0.92991 0.46875 0.86232 0.0
C685 C 0.91866 0.45128 0.82232 0.0
C686 C 0.93048 0.44173 0.76948 0.0
C687 C 0.95308 0.45003 0.75588 0.0
H688 H 0.06649 0.20133 0.98383 0.0
H689 H 0.12901 0.168 0.98751 0.0
H690 H 0.05153 0.17184 0.90546 0.0
H691 H 0.11312 0.13709 0.9153 0.0
H692 H 0.08315 0.08387 0.77277 0.0
H693 H 0.10062 0.12051 0.8202 0.0
H694 H 0.03542 0.13439 0.90709 0.0
H695 H 0.01798 0.09881 0.85511 0.0
C696 C 0.07724 0.18793 0.96747 0.0
C697 C 0.09883 0.18688 0.99361 0.0
C698 C 0.0684 0.17059 0.92331 0.0
C699 C 0.08066 0.1514 0.90522 0.0
C700 C 0.10295 0.15139 0.9276 0.0
C701 C 0.11201 0.16905 0.9703 0.0
C702 C 0.07263 0.09501 0.80149 0.0
C703 C 0.04932 0.08853 0.81087 0.0
C704 C 0.08263 0.11598 0.82915 0.0
C705 C 0.06962 0.1306 0.86843 0.0
C706 C 0.04609 0.1241 0.87633 0.0
C707 C 0.03604 0.10349 0.84715 0.0
H708 H 0.32575 0.96551 0.87949 0.0
H709 H 0.33666 0.03804 0.944 0.0
H710 H 0.36275 0.9689 0.82326 0.0
H711 H 0.37318 0.04146 0.88605 0.0
H712 H 0.43287 0.04019 0.73573 0.0
H713 H 0.39332 0.03829 0.77521 0.0
H714 H 0.40243 0.97505 0.87187 0.0
H715 H 0.44191 0.97692 0.83296 0.0
C716 C 0.33577 0.98228 0.88068 0.0
C717 C 0.32828 0.00139 0.91716 0.0
C718 C 0.35697 0.98418 0.84855 0.0
C719 C 0.37096 0.00533 0.8513 0.0
C720 C 0.36271 0.02495 0.88305 0.0
C721 C 0.34164 0.02299 0.91588 0.0
C722 C 0.42648 0.02595 0.76572 0.0
C723 C 0.44061 0.00881 0.78167 0.0
C724 C 0.40384 0.02487 0.78815 0.0
C725 C 0.39477 0.00641 0.826 0.0
C726 C 0.40889 0.9893 0.84194 0.0
C727 C 0.43159 0.99055 0.82034 0.0
H728 H 0.38818 0.32539 0.90729 0.0
H729 H 0.45629 0.32089 0.97344 0.0
H730 H 0.40209 0.35916 0.84413 0.0
H731 H 0.47002 0.35445 0.91066 0.0
H732 H 0.47276 0.43456 0.88969 0.0
H733 H 0.45898 0.3972 0.93426 0.0
H734 H 0.43235 0.37302 0.74914 0.0
H735 H 0.44668 0.41059 0.70365 0.0
C736 C 0.40617 0.33126 0.90712 0.0
C737 C 0.42113 0.32051 0.94545 0.0
C738 C 0.41411 0.3505 0.87088 0.0
C739 C 0.43705 0.3595 0.87322 0.0
C740 C 0.45221 0.34793 0.90847 0.0
C741 C 0.44437 0.32857 0.94389 0.0
C742 C 0.46389 0.42135 0.85846 0.0
C743 C 0.46074 0.42545 0.79329 0.0
C744 C 0.45616 0.39991 0.88387 0.0
C745 C 0.44484 0.38218 0.84493 0.0
C746 C 0.44108 0.38643 0.78005 0.0
C747 C 0.44921 0.40787 0.75418 0.0
H748 H 0.19018 0.57515 0.95125 0.0
H749 H 0.18821 0.50478 0.01687 0.0
H750 H 0.15738 0.56372 0.88486 0.0
H751 H 0.15619 0.49299 0.94757 0.0
H752 H 0.07996 0.49112 0.90289 0.0
H753 H 0.1169 0.49895 0.95283 0.0
H754 H 0.1406 0.54239 0.79505 0.0
H755 H 0.10322 0.53509 0.74642 0.0
C756 C 0.18305 0.55711 0.95048 0.0
C757 C 0.19165 0.54101 0.99031 0.0
C758 C 0.16432 0.55046 0.9118 0.0
C759 C 0.15381 0.52747 0.91151 0.0
C760 C 0.16349 0.51097 0.94768 0.0
C761 C 0.18214 0.51766 0.98671 0.0
C762 C 0.09314 0.50222 0.87877 0.0
C763 C 0.08872 0.51264 0.82114 0.0
C764 C 0.11442 0.50657 0.90704 0.0
C765 C 0.13186 0.52131 0.87806 0.0
C766 C 0.12753 0.53121 0.81926 0.0
C767 C 0.10615 0.52697 0.79121 0.0
H768 H 0.9491 0.80848 0.40701 0.0
H769 H 0.88704 0.84247 0.40066 0.0
H770 H 0.96377 0.8376 0.48692 0.0
H771 H 0.90264 0.87295 0.47471 0.0
H772 H 0.932 0.92558 0.61919 0.0
H773 H 0.91465 0.88897 0.57118 0.0
H774 H 0.98011 0.8751 0.486 0.0
H775 H 0.9974 0.91066 0.53841 0.0
C776 C 0.93839 0.82194 0.42317 0.0
C777 C 0.91704 0.82333 0.39586 0.0
C778 C 0.94705 0.83904 0.46825 0.0
C779 C 0.93484 0.85828 0.48614 0.0
C780 C 0.91274 0.85859 0.46261 0.0
C781 C 0.90387 0.84119 0.4189 0.0
C782 C 0.9426 0.91443 0.59076 0.0
C783 C 0.96593 0.92094 0.58186 0.0
C784 C 0.93268 0.89349 0.56279 0.0
C785 C 0.9458 0.87892 0.52372 0.0
C786 C 0.96936 0.88538 0.51653 0.0
C787 C 0.97933 0.90598 0.54597 0.0
H788 H 0.64885 0.95949 0.3571 0.0
H789 H 0.68929 0.9992 0.50146 0.0
H790 H 0.61439 0.96639 0.41859 0.0
H791 H 0.65436 0.0066 0.56278 0.0
H792 H 0.58559 0.99178 0.67994 0.0
H793 H 0.62167 0.98542 0.62454 0.0
H794 H 0.59333 0.00112 0.4436 0.0
H795 H 0.55721 0.00729 0.49863 0.0
C796 C 0.65045 0.96935 0.40264 0.0
C797 C 0.67191 0.97861 0.42464 0.0
C798 C 0.63062 0.97363 0.43735 0.0
C799 C 0.63164 0.98727 0.49507 0.0
C800 C 0.65307 0.99599 0.51841 0.0
C801 C 0.67303 0.99183 0.48327 0.0
C802 C 0.58705 0.99391 0.62831 0.0
C803 C 0.56842 0.99978 0.59351 0.0
C804 C 0.60779 0.99042 0.59675 0.0
C805 C 0.61025 0.99254 0.52969 0.0
C806 C 0.59181 0.99899 0.49522 0.0
C807 C 0.57115 0.00266 0.5268 0.0
H808 H 0.5613 0.68811 0.39522 0.0
H809 H 0.63082 0.67936 0.44104 0.0
H810 H 0.54823 0.65392 0.45618 0.0
H811 H 0.61759 0.6449 0.50219 0.0
H812 H 0.57639 0.59252 0.64562 0.0
H813 H 0.59075 0.63034 0.60175 0.0
H814 H 0.55578 0.61114 0.42467 0.0
H815 H 0.54189 0.57355 0.46757 0.0
C816 C 0.57375 0.67933 0.41994 0.0
C817 C 0.59712 0.68642 0.41313 0.0
C818 C 0.56626 0.65959 0.45427 0.0
C819 C 0.58193 0.64663 0.48315 0.0
C820 C 0.60517 0.65461 0.48038 0.0
C821 C 0.61272 0.67425 0.44526 0.0
C822 C 0.57203 0.59638 0.59711 0.0
C823 C 0.55811 0.58013 0.55984 0.0
C824 C 0.58018 0.61797 0.57217 0.0
C825 C 0.57411 0.62372 0.51019 0.0
C826 C 0.56042 0.6073 0.47296 0.0
C827 C 0.55262 0.58571 0.49735 0.0
H828 H 0.82023 0.42792 0.43431 0.0
H829 H 0.81997 0.49912 0.37693 0.0
H830 H 0.85219 0.43957 0.50366 0.0
H831 H 0.85117 0.51106 0.44911 0.0
H832 H 0.92735 0.51465 0.49685 0.0
H833 H 0.89083 0.50648 0.44479 0.0
H834 H 0.8675 0.46023 0.59676 0.0
H835 H 0.90449 0.46793 0.64755 0.0
C836 C 0.8267 0.44617 0.43751 0.0
C837 C 0.81774 0.4625 0.39916 0.0
C838 C 0.84492 0.45292 0.47789 0.0
C839 C 0.85456 0.47623 0.48136 0.0
C840 C 0.84451 0.49287 0.44658 0.0
C841 C 0.82635 0.48608 0.40588 0.0
C842 C 0.91433 0.50288 0.5193 0.0
C843 C 0.91876 0.49178 0.57584 0.0
C844 C 0.89329 0.49833 0.48982 0.0
C845 C 0.87611 0.48267 0.51648 0.0
C846 C 0.8804 0.47212 0.57434 0.0
C847 C 0.90154 0.47658 0.60361 0.0
loop_
_geom_bond_atom_site_label_1
_geom_bond_atom_site_label_2
_geom_bond_distance
_geom_bond_site_symmetry_2
_ccdc_geom_bond_type
C0 C1 1.384 . S
C0 H13 0.947 . S
C0 C35 1.382 . S
C1 C0 1.384 . S
C1 C2 1.378 . S
C2 C1 1.378 . S
C2 C3 1.378 . S
C2 H14 0.952 . S
C3 C2 1.378 . S
C3 H15 0.950 . S
C3 C34 1.383 . S
H4 C23 0.947 . S
H5 C24 0.946 . S
H6 C26 0.953 . S
H7 C27 0.945 . S
H8 C29 0.952 . S
H9 C30 0.949 . S
H10 C32 0.950 . S
H11 C33 0.948 1_554 S
H12 C35 0.951 . S
H13 C0 0.947 . S
H14 C2 0.952 . S
H15 C3 0.950 . S
N16 C19 1.382 . S
N16 C21 1.363 . S
N17 C19 1.371 1_556 S
N17 C20 1.372 1_556 S
N18 C20 1.361 . S
N18 C21 1.377 . S
C19 N16 1.382 . S
C19 N17 1.371 1_554 S
C19 C22 1.480 . S
C20 N17 1.372 1_554 S
C20 N18 1.361 . S
C20 C28 1.457 1_554 S
C21 N16 1.363 . S
C21 N18 1.377 . S
C21 C34 1.479 . S
C22 C19 1.480 . S
C22 C23 1.383 . S
C22 C27 1.385 1_554 S
C23 H4 0.947 . S
C23 C22 1.383 . S
C23 C24 1.388 . S
C24 H5 0.946 . S
C24 C23 1.388 . S
C24 C25 1.380 1_554 S
C25 C24 1.380 1_556 S
C25 C26 1.380 . S
C26 H6 0.953 . S
C26 C25 1.380 . S
C26 C27 1.369 . S
C27 H7 0.945 . S
C27 C22 1.385 1_556 S
C27 C26 1.369 . S
C28 C20 1.457 1_556 S
C28 C29 1.372 . S
C28 C33 1.364 . S
C29 H8 0.952 . S
C29 C28 1.372 . S
C29 C30 1.389 . S
C30 H9 0.949 . S
C30 C29 1.389 . S
C30 C31 1.387 . S
C31 C30 1.387 . S
C31 C32 1.372 . S
C32 H10 0.950 . S
C32 C31 1.372 . S
C32 C33 1.379 . S
C33 H11 0.948 1_556 S
C33 C28 1.364 . S
C33 C32 1.379 . S
C34 C3 1.383 . S
C34 C21 1.479 . S
C34 C35 1.398 . S
C35 C0 1.382 . S
C35 H12 0.951 . S
C35 C34 1.398 . S
C36 C37 1.384 . S
C36 H49 0.947 . S
C36 C71 1.382 . S
C37 C36 1.384 . S
C37 C38 1.378 . S
C38 C37 1.378 . S
C38 C39 1.378 . S
C38 H50 0.952 . S
C39 C38 1.378 . S
C39 H51 0.950 . S
C39 C70 1.383 . S
H40 C59 0.947 . S
H41 C60 0.946 . S
H42 C62 0.953 . S
H43 C63 0.945 . S
H44 C65 0.952 . S
H45 C66 0.949 . S
H46 C68 0.950 . S
H47 C69 0.948 . S
H48 C71 0.951 . S
H49 C36 0.947 . S
H50 C38 0.952 . S
H51 C39 0.950 . S
N52 C55 1.382 . S
N52 C57 1.363 . S
N53 C55 1.371 1_556 S
N53 C56 1.372 . S
N54 C56 1.361 1_554 S
N54 C57 1.377 . S
C55 N52 1.382 . S
C55 N53 1.371 1_554 S
C55 C58 1.480 1_554 S
C56 N53 1.372 . S
C56 N54 1.361 1_556 S
C56 C64 1.457 . S
C57 N52 1.363 . S
C57 N54 1.377 . S
C57 C70 1.479 . S
C58 C55 1.480 1_556 S
C58 C59 1.383 1_556 S
C58 C63 1.385 . S
C59 H40 0.947 . S
C59 C58 1.383 1_554 S
C59 C60 1.388 . S
C60 H41 0.946 . S
C60 C59 1.388 . S
C60 C61 1.384 1_554 S
C61 C60 1.384 1_556 S
C61 C62 1.377 . S
C62 H42 0.953 . S
C62 C61 1.377 . S
C62 C63 1.369 . S
C63 H43 0.945 . S
C63 C58 1.385 . S
C63 C62 1.369 . S
C64 C56 1.457 . S
C64 C65 1.372 . S
C64 C69 1.364 . S
C65 H44 0.952 . S
C65 C64 1.372 . S
C65 C66 1.389 . S
C66 H45 0.949 . S
C66 C65 1.389 . S
C66 C67 1.387 . S
C67 C66 1.387 . S
C67 C68 1.372 . S
C68 H46 0.950 . S
C68 C67 1.372 . S
C68 C69 1.379 . S
C69 H47 0.948 . S
C69 C64 1.364 . S
C69 C68 1.379 . S
C70 C39 1.383 . S
C70 C57 1.479 . S
C70 C71 1.398 . S
C71 C36 1.382 . S
C71 H48 0.951 . S
C71 C70 1.398 . S
C72 C73 1.384 1_565 S
C72 H85 0.947 . S
C72 C107 1.382 1_565 S
C73 C72 1.384 1_545 S
C73 C74 1.378 . S
C74 C73 1.378 . S
C74 C75 1.378 . S
C74 H86 0.952 . S
C75 C74 1.378 . S
C75 H87 0.950 . S
C75 C106 1.383 . S
H76 C95 0.947 . S
H77 C96 0.954 . S
H78 C98 0.953 . S
H79 C99 0.945 1_556 S
H80 C101 0.947 1_565 S
H81 C102 0.956 . S
H82 C104 0.950 . S
H83 C105 0.948 . S
H84 C107 0.951 1_565 S
H85 C72 0.947 . S
H86 C74 0.952 . S
H87 C75 0.950 . S
N88 C91 1.382 . S
N88 C93 1.363 . S
N89 C91 1.371 . S
N89 C92 1.372 . S
N90 C92 1.361 . S
N90 C93 1.377 . S
C91 N88 1.382 . S
C91 N89 1.371 . S
C91 C94 1.480 . S
C92 N89 1.372 . S
C92 N90 1.361 . S
C92 C100 1.469 . S
C93 N88 1.363 . S
C93 N90 1.377 . S
C93 C106 1.479 . S
C94 C91 1.480 . S
C94 C95 1.383 . S
C94 C99 1.385 . S
C95 H76 0.947 . S
C95 C94 1.383 . S
C95 C96 1.383 1_545 S
C96 H77 0.954 . S
C96 C95 1.383 1_565 S
C96 C97 1.381 1_565 S
C97 C96 1.381 1_545 S
C97 C98 1.377 1_554 S
C98 H78 0.953 . S
C98 C97 1.377 1_556 S
C98 C99 1.369 1_556 S
C99 H79 0.945 1_554 S
C99 C94 1.385 . S
C99 C98 1.369 1_554 S
C100 C92 1.469 . S
C100 C101 1.361 1_554 S
C100 C105 1.369 . S
C101 H80 0.947 1_545 S
C101 C100 1.361 1_556 S
C101 C102 1.393 1_545 S
C102 H81 0.956 . S
C102 C101 1.393 1_565 S
C102 C103 1.379 1_565 S
C103 C102 1.379 1_545 S
C103 C104 1.372 . S
C104 H82 0.950 . S
C104 C103 1.372 . S
C104 C105 1.379 1_556 S
C105 H83 0.948 . S
C105 C100 1.369 . S
C105 C104 1.379 1_554 S
C106 C75 1.383 . S
C106 C93 1.479 . S
C106 C107 1.398 . S
C107 C72 1.382 1_545 S
C107 H84 0.951 1_545 S
C107 C106 1.398 . S
C108 C109 1.384 . S
C108 H121 0.947 . S
C108 C143 1.382 . S
C109 C108 1.384 . S
C109 C110 1.378 . S
C110 C109 1.378 . S
C110 C111 1.378 . S
C110 H122 0.952 . S
C111 C110 1.378 . S
C111 H123 0.950 . S
C111 C142 1.383 . S
H112 C131 0.947 . S
H113 C132 0.946 . S
H114 C134 0.953 . S
H115 C135 0.945 . S
H116 C137 0.952 . S
H117 C138 0.949 . S
H118 C140 0.950 . S
H119 C141 0.948 . S
H120 C143 0.951 1_554 S
H121 C108 0.947 . S
H122 C110 0.952 . S
H123 C111 0.950 . S
N124 C127 1.382 . S
N124 C129 1.363 . S
N125 C127 1.371 . S
N125 C128 1.372 . S
N126 C128 1.361 . S
N126 C129 1.377 . S
C127 N124 1.382 . S
C127 N125 1.371 . S
C127 C130 1.480 . S
C128 N125 1.372 . S
C128 N126 1.361 . S
C128 C136 1.457 . S
C129 N124 1.363 . S
C129 N126 1.377 . S
C129 C142 1.479 1_554 S
C130 C127 1.480 . S
C130 C131 1.383 1_554 S
C130 C135 1.385 . S
C131 H112 0.947 . S
C131 C130 1.383 1_556 S
C131 C132 1.388 . S
C132 H113 0.946 . S
C132 C131 1.388 . S
C132 C133 1.384 1_556 S
C133 C132 1.384 1_554 S
C133 C134 1.377 . S
C134 H114 0.953 . S
C134 C133 1.377 . S
C134 C135 1.369 . S
C135 H115 0.945 . S
C135 C130 1.385 . S
C135 C134 1.369 . S
C136 C128 1.457 . S
C136 C137 1.372 . S
C136 C141 1.364 . S
C137 H116 0.952 . S
C137 C136 1.372 . S
C137 C138 1.389 . S
C138 H117 0.949 . S
C138 C137 1.389 . S
C138 C139 1.387 . S
C139 C138 1.387 . S
C139 C140 1.372 . S
C140 H118 0.950 . S
C140 C139 1.372 . S
C140 C141 1.379 . S
C141 H119 0.948 . S
C141 C136 1.364 . S
C141 C140 1.379 . S
C142 C111 1.383 . S
C142 C129 1.479 1_556 S
C142 C143 1.398 . S
C143 C108 1.382 . S
C143 H120 0.951 1_556 S
C143 C142 1.398 . S
C144 C145 1.384 . S
C144 H157 0.947 . S
C144 C179 1.382 . S
C145 C144 1.384 . S
C145 C146 1.378 . S
C146 C145 1.378 . S
C146 C147 1.378 . S
C146 H158 0.952 . S
C147 C146 1.378 . S
C147 H159 0.950 . S
C147 C178 1.383 . S
H148 C167 0.947 . S
H149 C168 0.946 . S
H150 C170 0.953 . S
H151 C171 0.945 . S
H152 C173 0.952 . S
H153 C174 0.949 . S
H154 C176 0.950 . S
H155 C177 0.948 . S
H156 C179 0.951 . S
H157 C144 0.947 . S
H158 C146 0.952 . S
H159 C147 0.950 . S
N160 C163 1.382 . S
N160 C165 1.363 . S
N161 C163 1.371 . S
N161 C164 1.372 . S
N162 C164 1.361 . S
N162 C165 1.377 . S
C163 N160 1.382 . S
C163 N161 1.371 . S
C163 C166 1.480 . S
C164 N161 1.372 . S
C164 N162 1.361 . S
C164 C172 1.457 . S
C165 N160 1.363 . S
C165 N162 1.377 . S
C165 C178 1.479 . S
C166 C163 1.480 . S
C166 C167 1.383 . S
C166 C171 1.385 . S
C167 H148 0.947 . S
C167 C166 1.383 . S
C167 C168 1.388 . S
C168 H149 0.946 . S
C168 C167 1.388 . S
C168 C169 1.384 . S
C169 C168 1.384 . S
C169 C170 1.377 . S
C170 H150 0.953 . S
C170 C169 1.377 . S
C170 C171 1.369 . S
C171 H151 0.945 . S
C171 C166 1.385 . S
C171 C170 1.369 . S
C172 C164 1.457 . S
C172 C173 1.372 . S
C172 C177 1.364 . S
C173 H152 0.952 . S
C173 C172 1.372 . S
C173 C174 1.389 . S
C174 H153 0.949 . S
C174 C173 1.389 . S
C174 C175 1.387 . S
C175 C174 1.387 . S
C175 C176 1.372 . S
C176 H154 0.950 . S
C176 C175 1.372 . S
C176 C177 1.379 . S
C177 H155 0.948 . S
C177 C172 1.364 . S
C177 C176 1.379 . S
C178 C147 1.383 . S
C178 C165 1.479 . S
C178 C179 1.398 . S
C179 C144 1.382 . S
C179 H156 0.951 . S
C179 C178 1.398 . S
C180 C181 1.384 . S
C180 H193 0.947 . S
C180 C215 1.382 . S
C181 C180 1.384 . S
C181 C182 1.378 . S
C182 C181 1.378 . S
C182 C183 1.378 . S
C182 H194 0.952 . S
C183 C182 1.378 . S
C183 H195 0.950 . S
C183 C214 1.383 . S
H184 C203 0.947 . S
H185 C204 0.946 . S
H186 C206 0.953 . S
H187 C207 0.945 . S
H188 C209 0.952 . S
H189 C210 0.949 . S
H190 C212 0.950 . S
H191 C213 0.948 . S
H192 C215 0.951 . S
H193 C180 0.947 . S
H194 C182 0.952 . S
H195 C183 0.950 . S
N196 C199 1.382 . S
N196 C201 1.363 . S
N197 C199 1.371 . S
N197 C200 1.372 . S
N198 C200 1.361 . S
N198 C201 1.377 . S
C199 N196 1.382 . S
C199 N197 1.371 . S
C199 C202 1.480 . S
C200 N197 1.372 . S
C200 N198 1.361 . S
C200 C208 1.457 . S
C201 N196 1.363 . S
C201 N198 1.377 . S
C201 C214 1.479 . S
C202 C199 1.480 . S
C202 C203 1.383 . S
C202 C207 1.385 . S
C203 H184 0.947 . S
C203 C202 1.383 . S
C203 C204 1.388 . S
C204 H185 0.946 . S
C204 C203 1.388 . S
C204 C205 1.384 . S
C205 C204 1.384 . S
C205 C206 1.377 . S
C206 H186 0.953 . S
C206 C205 1.377 . S
C206 C207 1.369 . S
C207 H187 0.945 . S
C207 C202 1.385 . S
C207 C206 1.369 . S
C208 C200 1.457 . S
C208 C209 1.372 . S
C208 C213 1.364 . S
C209 H188 0.952 . S
C209 C208 1.372 . S
C209 C210 1.389 . S
C210 H189 0.949 . S
C210 C209 1.389 . S
C210 C211 1.387 . S
C211 C210 1.387 . S
C211 C212 1.372 . S
C212 H190 0.950 . S
C212 C211 1.372 . S
C212 C213 1.379 . S
C213 H191 0.948 . S
C213 C208 1.364 . S
C213 C212 1.379 . S
C214 C183 1.383 . S
C214 C201 1.479 . S
C214 C215 1.398 . S
C215 C180 1.382 . S
C215 H192 0.951 . S
C215 C214 1.398 . S
C216 C217 1.384 . S
C216 H229 0.947 . S
C216 C251 1.382 . S
C217 C216 1.384 . S
C217 C218 1.378 . S
C218 C217 1.378 . S
C218 C219 1.378 . S
C218 H230 0.952 . S
C219 C218 1.378 . S
C219 H231 0.950 . S
C219 C250 1.383 . S
H220 C239 0.947 . S
H221 C240 0.953 . S
H222 C242 0.953 . S
H223 C243 0.945 . S
H224 C245 0.952 . S
H225 C246 0.949 . S
H226 C248 0.950 . S
H227 C249 0.948 . S
H228 C251 0.951 . S
H229 C216 0.947 . S
H230 C218 0.952 . S
H231 C219 0.950 . S
N232 C235 1.382 . S
N232 C237 1.363 . S
N233 C235 1.371 . S
N233 C236 1.372 . S
N234 C236 1.361 . S
N234 C237 1.377 . S
C235 N232 1.382 . S
C235 N233 1.371 . S
C235 C238 1.480 . S
C236 N233 1.372 . S
C236 N234 1.361 . S
C236 C244 1.457 . S
C237 N232 1.363 . S
C237 N234 1.377 . S
C237 C250 1.479 . S
C238 C235 1.480 . S
C238 C239 1.383 . S
C238 C243 1.385 . S
C239 H220 0.947 . S
C239 C238 1.383 . S
C239 C240 1.388 . S
C240 H221 0.953 . S
C240 C239 1.388 . S
C240 C241 1.384 . S
C241 C240 1.384 . S
C241 C242 1.377 . S
C242 H222 0.953 . S
C242 C241 1.377 . S
C242 C243 1.369 . S
C243 H223 0.945 . S
C243 C238 1.385 . S
C243 C242 1.369 . S
C244 C236 1.457 . S
C244 C245 1.372 . S
C244 C249 1.364 . S
C245 H224 0.952 . S
C245 C244 1.372 . S
C245 C246 1.389 . S
C246 H225 0.949 . S
C246 C245 1.389 . S
C246 C247 1.387 . S
C247 C246 1.387 . S
C247 C248 1.372 . S
C248 H226 0.950 . S
C248 C247 1.372 . S
C248 C249 1.379 . S
C249 H227 0.948 . S
C249 C244 1.364 . S
C249 C248 1.379 . S
C250 C219 1.383 . S
C250 C237 1.479 . S
C250 C251 1.398 . S
C251 C216 1.382 . S
C251 H228 0.951 . S
C251 C250 1.398 . S
C252 C253 1.384 . S
C252 H265 0.947 . S
C252 C287 1.382 . S
C253 C252 1.384 . S
C253 C254 1.378 . S
C254 C253 1.378 . S
C254 C255 1.378 . S
C254 H266 0.952 . S
C255 C254 1.378 . S
C255 H267 0.950 . S
C255 C286 1.383 . S
H256 C275 0.947 . S
H257 C276 0.946 . S
H258 C278 0.953 . S
H259 C279 0.945 . S
H260 C281 0.952 . S
H261 C282 0.949 . S
H262 C284 0.950 . S
H263 C285 0.948 . S
H264 C287 0.951 . S
H265 C252 0.947 . S
H266 C254 0.952 . S
H267 C255 0.950 . S
N268 C271 1.382 . S
N268 C273 1.363 . S
N269 C271 1.371 . S
N269 C272 1.372 . S
N270 C272 1.361 . S
N270 C273 1.377 . S
C271 N268 1.382 . S
C271 N269 1.371 . S
C271 C274 1.480 . S
C272 N269 1.372 . S
C272 N270 1.361 . S
C272 C280 1.457 . S
C273 N268 1.363 . S
C273 N270 1.377 . S
C273 C286 1.479 . S
C274 C271 1.480 . S
C274 C275 1.383 . S
C274 C279 1.385 . S
C275 H256 0.947 . S
C275 C274 1.383 . S
C275 C276 1.388 . S
C276 H257 0.946 . S
C276 C275 1.388 . S
C276 C277 1.384 . S
C277 C276 1.384 . S
C277 C278 1.377 . S
C278 H258 0.953 . S
C278 C277 1.377 . S
C278 C279 1.369 . S
C279 H259 0.945 . S
C279 C274 1.385 . S
C279 C278 1.369 . S
C280 C272 1.457 . S
C280 C281 1.372 . S
C280 C285 1.364 . S
C281 H260 0.952 . S
C281 C280 1.372 . S
C281 C282 1.389 . S
C282 H261 0.949 . S
C282 C281 1.389 . S
C282 C283 1.387 . S
C283 C282 1.387 . S
C283 C284 1.372 . S
C284 H262 0.950 . S
C284 C283 1.372 . S
C284 C285 1.379 . S
C285 H263 0.948 . S
C285 C280 1.364 . S
C285 C284 1.379 . S
C286 C255 1.383 . S
C286 C273 1.479 . S
C286 C287 1.398 . S
C287 C252 1.382 . S
C287 H264 0.951 . S
C287 C286 1.398 . S
Tb288 O291 2.453 1_665 S
Tb288 O292 2.596 1_665 S
Tb288 O293 2.374 1_655 S
Tb288 O301 2.343 . S
Tb288 O303 2.353 1_565 S
Tb288 O305 2.427 . S
Tb288 O306 2.513 . S
C289 O293 1.251 . S
C289 O295 1.263 . S
Tb290 O292 2.343 . S
Tb290 O295 2.353 1_545 S
Tb290 O298 2.427 . S
Tb290 O299 2.513 . S
Tb290 O300 2.453 1_545 S
Tb290 O301 2.596 1_445 S
Tb290 O302 2.374 1_455 S
O291 Tb288 2.453 1_445 S
O291 C307 1.245 . S
O292 Tb288 2.596 1_445 S
O292 Tb290 2.343 . S
O292 C307 1.259 . S
O293 Tb288 2.374 1_455 S
O293 C289 1.251 . S
C294 O298 1.275 . S
C294 O299 1.246 . S
O295 C289 1.263 . S
O295 Tb290 2.353 1_565 S
C296 O300 1.245 1_655 S
C296 O301 1.259 . S
C297 O302 1.250 . S
C297 O303 1.263 . S
O298 Tb290 2.427 . S
O298 C294 1.275 . S
O299 Tb290 2.513 . S
O299 C294 1.246 . S
O300 Tb290 2.453 1_565 S
O300 C296 1.245 1_455 S
O301 Tb288 2.343 . S
O301 Tb290 2.596 1_665 S
O301 C296 1.259 . S
O302 Tb290 2.374 1_655 S
O302 C297 1.250 . S
O303 Tb288 2.353 1_545 S
O303 C297 1.263 . S
C304 O305 1.275 . S
C304 O306 1.246 . S
O305 Tb288 2.427 . S
O305 C304 1.275 . S
O306 Tb288 2.513 . S
O306 C304 1.246 . S
C307 O291 1.245 . S
C307 O292 1.259 . S
Tb308 O311 2.453 . S
Tb308 O312 2.596 1_545 S
Tb308 O313 2.374 . S
Tb308 O321 2.343 . S
Tb308 O323 2.353 . S
Tb308 O325 2.427 . S
Tb308 O326 2.513 . S
C309 O313 1.251 . S
C309 O315 1.263 1_545 S
Tb310 O312 2.343 . S
Tb310 O315 2.353 . S
Tb310 O318 2.427 . S
Tb310 O319 2.513 . S
Tb310 O320 2.453 . S
Tb310 O321 2.596 1_565 S
Tb310 O322 2.374 . S
O311 Tb308 2.453 . S
O311 C327 1.245 . S
O312 Tb308 2.596 1_565 S
O312 Tb310 2.343 . S
O312 C327 1.259 1_565 S
O313 Tb308 2.374 . S
O313 C309 1.251 . S
C314 O318 1.275 . S
C314 O319 1.246 . S
O315 C309 1.263 1_565 S
O315 Tb310 2.353 . S
C316 O320 1.245 . S
C316 O321 1.259 1_565 S
C317 O322 1.250 1_545 S
C317 O323 1.263 . S
O318 Tb310 2.427 . S
O318 C314 1.275 . S
O319 Tb310 2.513 . S
O319 C314 1.246 . S
O320 Tb310 2.453 . S
O320 C316 1.245 . S
O321 Tb308 2.343 . S
O321 Tb310 2.596 1_545 S
O321 C316 1.259 1_545 S
O322 Tb310 2.374 . S
O322 C317 1.250 1_565 S
O323 Tb308 2.353 . S
O323 C317 1.263 . S
C324 O325 1.275 . S
C324 O326 1.246 . S
O325 Tb308 2.427 . S
O325 C324 1.275 . S
O326 Tb308 2.513 . S
O326 C324 1.246 . S
C327 O311 1.245 . S
C327 O312 1.259 1_545 S
Tb328 O331 2.453 . S
Tb328 O332 2.596 . S
Tb328 O333 2.374 . S
Tb328 O341 2.343 . S
Tb328 O343 2.353 . S
Tb328 O345 2.427 . S
Tb328 O346 2.513 . S
C329 O333 1.251 . S
C329 O335 1.263 . S
Tb330 O332 2.343 . S
Tb330 O335 2.353 . S
Tb330 O338 2.427 . S
Tb330 O339 2.513 . S
Tb330 O340 2.453 . S
Tb330 O341 2.596 . S
Tb330 O342 2.374 . S
O331 Tb328 2.453 . S
O331 C347 1.245 . S
O332 Tb328 2.596 . S
O332 Tb330 2.343 . S
O332 C347 1.259 . S
O333 Tb328 2.374 . S
O333 C329 1.251 . S
C334 O338 1.275 . S
C334 O339 1.246 . S
O335 C329 1.263 . S
O335 Tb330 2.353 . S
C336 O340 1.245 . S
C336 O341 1.259 . S
C337 O342 1.250 . S
C337 O343 1.263 . S
O338 Tb330 2.427 . S
O338 C334 1.275 . S
O339 Tb330 2.513 . S
O339 C334 1.246 . S
O340 Tb330 2.453 . S
O340 C336 1.245 . S
O341 Tb328 2.343 . S
O341 Tb330 2.596 . S
O341 C336 1.259 . S
O342 Tb330 2.374 . S
O342 C337 1.250 . S
O343 Tb328 2.353 . S
O343 C337 1.263 . S
C344 O345 1.275 . S
C344 O346 1.246 . S
O345 Tb328 2.427 . S
O345 C344 1.275 . S
O346 Tb328 2.513 . S
O346 C344 1.246 . S
C347 O331 1.245 . S
C347 O332 1.259 . S
Tb348 O351 2.453 1_655 S
Tb348 O352 2.596 1_655 S
Tb348 O353 2.374 1_655 S
Tb348 O361 2.343 . S
Tb348 O363 2.353 . S
Tb348 O365 2.427 . S
Tb348 O366 2.513 . S
C349 O353 1.251 . S
C349 O355 1.263 . S
Tb350 O352 2.343 . S
Tb350 O355 2.353 . S
Tb350 O358 2.427 . S
Tb350 O359 2.513 . S
Tb350 O360 2.453 1_455 S
Tb350 O361 2.596 1_455 S
Tb350 O362 2.374 . S
O351 Tb348 2.453 1_455 S
O351 C367 1.245 . S
O352 Tb348 2.596 1_455 S
O352 Tb350 2.343 . S
O352 C367 1.259 . S
O353 Tb348 2.374 1_455 S
O353 C349 1.251 . S
C354 O358 1.275 . S
C354 O359 1.246 . S
O355 C349 1.263 . S
O355 Tb350 2.353 . S
C356 O360 1.245 . S
C356 O361 1.259 . S
C357 O362 1.250 1_655 S
C357 O363 1.263 . S
O358 Tb350 2.427 . S
O358 C354 1.275 . S
O359 Tb350 2.513 . S
O359 C354 1.246 . S
O360 Tb350 2.453 1_655 S
O360 C356 1.245 . S
O361 Tb348 2.343 . S
O361 Tb350 2.596 1_655 S
O361 C356 1.259 . S
O362 Tb350 2.374 . S
O362 C357 1.250 1_455 S
O363 Tb348 2.353 . S
O363 C357 1.263 . S
C364 O365 1.275 . S
C364 O366 1.246 . S
O365 Tb348 2.427 . S
O365 C364 1.275 . S
O366 Tb348 2.513 . S
O366 C364 1.246 . S
C367 O351 1.245 . S
C367 O352 1.259 . S
H368 C376 0.945 1_565 S
H369 C381 0.950 . S
H370 C378 0.951 . S
H371 C380 0.950 . S
H372 C382 0.950 . S
H373 C384 0.950 . S
H374 C386 0.950 . S
H375 C387 0.950 . S
C376 H368 0.945 1_545 S
C376 C377 1.386 . S
C376 C378 1.391 1_545 S
C377 C376 1.386 . S
C377 C381 1.393 . S
C378 H370 0.951 . S
C378 C376 1.391 1_565 S
C378 C379 1.399 1_565 S
C379 C378 1.399 1_545 S
C379 C380 1.398 . S
C379 C385 1.491 . S
C380 H371 0.950 . S
C380 C379 1.398 . S
C380 C381 1.391 . S
C381 H369 0.950 . S
C381 C377 1.393 . S
C381 C380 1.391 . S
C382 H372 0.950 . S
C382 C383 1.386 1_545 S
C382 C384 1.391 . S
C383 C382 1.386 1_565 S
C383 C387 1.393 . S
C384 H373 0.950 . S
C384 C382 1.391 . S
C384 C385 1.404 . S
C385 C379 1.491 . S
C385 C384 1.404 . S
C385 C386 1.394 1_545 S
C386 H374 0.950 . S
C386 C385 1.394 1_565 S
C386 C387 1.391 . S
C387 H375 0.950 . S
C387 C383 1.393 . S
C387 C386 1.391 . S
H388 C396 0.950 . S
H389 C401 0.950 . S
H390 C398 0.950 . S
H391 C400 0.950 . S
H392 C402 0.950 . S
H393 C404 0.950 . S
H394 C406 0.950 . S
H395 C407 0.950 . S
C396 H388 0.950 . S
C396 C397 1.386 . S
C396 C398 1.391 . S
C397 C396 1.386 . S
C397 C401 1.393 . S
C398 H390 0.950 . S
C398 C396 1.391 . S
C398 C399 1.400 . S
C399 C398 1.400 . S
C399 C400 1.398 . S
C399 C405 1.491 . S
C400 H391 0.950 . S
C400 C399 1.398 . S
C400 C401 1.391 . S
C401 H389 0.950 . S
C401 C397 1.393 . S
C401 C400 1.391 . S
C402 H392 0.950 . S
C402 C403 1.386 . S
C402 C404 1.391 . S
C403 C402 1.386 . S
C403 C407 1.393 . S
C404 H393 0.950 . S
C404 C402 1.391 . S
C404 C405 1.400 . S
C405 C399 1.491 . S
C405 C404 1.400 . S
C405 C406 1.398 . S
C406 H394 0.950 . S
C406 C405 1.398 . S
C406 C407 1.391 . S
C407 H395 0.950 . S
C407 C403 1.393 . S
C407 C406 1.391 . S
H408 C416 0.950 . S
H409 C421 0.950 . S
H410 C418 0.950 . S
H411 C420 0.950 . S
H412 C422 0.950 . S
H413 C424 0.950 . S
H414 C426 0.950 . S
H415 C427 0.950 . S
C416 H408 0.950 . S
C416 C417 1.386 . S
C416 C418 1.391 . S
C417 C416 1.386 . S
C417 C421 1.393 . S
C418 H410 0.950 . S
C418 C416 1.391 . S
C418 C419 1.400 . S
C419 C418 1.400 . S
C419 C420 1.398 . S
C419 C425 1.491 . S
C420 H411 0.950 . S
C420 C419 1.398 . S
C420 C421 1.391 . S
C421 H409 0.950 . S
C421 C417 1.393 . S
C421 C420 1.391 . S
C422 H412 0.950 . S
C422 C423 1.386 . S
C422 C424 1.391 . S
C423 C422 1.386 . S
C423 C427 1.393 . S
C424 H413 0.950 . S
C424 C422 1.391 . S
C424 C425 1.400 . S
C425 C419 1.491 . S
C425 C424 1.400 . S
C425 C426 1.398 . S
C426 H414 0.950 . S
C426 C425 1.398 . S
C426 C427 1.391 . S
C427 H415 0.950 . S
C427 C423 1.393 . S
C427 C426 1.391 . S
H428 C436 0.950 . S
H429 C441 0.950 . S
H430 C438 0.950 . S
H431 C440 0.950 . S
H432 C442 0.950 . S
H433 C444 0.950 . S
H434 C446 0.950 . S
H435 C447 0.950 . S
C436 H428 0.950 . S
C436 C437 1.386 . S
C436 C438 1.391 . S
C437 C436 1.386 . S
C437 C441 1.393 . S
C438 H430 0.950 . S
C438 C436 1.391 . S
C438 C439 1.400 . S
C439 C438 1.400 . S
C439 C440 1.398 . S
C439 C445 1.491 . S
C440 H431 0.950 . S
C440 C439 1.398 . S
C440 C441 1.391 . S
C441 H429 0.950 . S
C441 C437 1.393 . S
C441 C440 1.391 . S
C442 H432 0.950 . S
C442 C443 1.386 . S
C442 C444 1.391 . S
C443 C442 1.386 . S
C443 C447 1.393 . S
C444 H433 0.950 . S
C444 C442 1.391 . S
C444 C445 1.400 . S
C445 C439 1.491 . S
C445 C444 1.400 . S
C445 C446 1.398 . S
C446 H434 0.950 . S
C446 C445 1.398 . S
C446 C447 1.391 . S
C447 H435 0.950 . S
C447 C443 1.393 . S
C447 C446 1.391 . S
H448 C456 0.950 . S
H449 C461 0.950 . S
H450 C458 0.950 . S
H451 C460 0.950 . S
H452 C462 0.950 . S
H453 C464 0.950 . S
H454 C466 0.950 . S
H455 C467 0.950 . S
C456 H448 0.950 . S
C456 C457 1.381 1_566 S
C456 C458 1.391 . S
C457 C456 1.381 1_544 S
C457 C461 1.394 . S
C458 H450 0.950 . S
C458 C456 1.391 . S
C458 C459 1.400 1_565 S
C459 C458 1.400 1_545 S
C459 C460 1.398 . S
C459 C465 1.491 . S
C460 H451 0.950 . S
C460 C459 1.398 . S
C460 C461 1.391 1_556 S
C461 H449 0.950 . S
C461 C457 1.394 . S
C461 C460 1.391 1_554 S
C462 H452 0.950 . S
C462 C463 1.386 . S
C462 C464 1.391 . S
C463 C462 1.386 . S
C463 C467 1.393 1_545 S
C464 H453 0.950 . S
C464 C462 1.391 . S
C464 C465 1.400 . S
C465 C459 1.491 . S
C465 C464 1.400 . S
C465 C466 1.398 1_545 S
C466 H454 0.950 . S
C466 C465 1.398 1_565 S
C466 C467 1.391 . S
C467 H455 0.950 . S
C467 C463 1.393 1_565 S
C467 C466 1.391 . S
H468 C476 0.950 . S
H469 C481 0.950 1_554 S
H470 C478 0.950 . S
H471 C480 0.950 . S
H472 C482 0.950 . S
H473 C484 0.950 . S
H474 C486 0.950 . S
H475 C487 0.950 . S
C476 H468 0.950 . S
C476 C477 1.386 . S
C476 C478 1.391 . S
C477 C476 1.386 . S
C477 C481 1.393 . S
C478 H470 0.950 . S
C478 C476 1.391 . S
C478 C479 1.400 . S
C479 C478 1.400 . S
C479 C480 1.398 . S
C479 C485 1.491 . S
C480 H471 0.950 . S
C480 C479 1.398 . S
C480 C481 1.391 . S
C481 H469 0.950 1_556 S
C481 C477 1.393 . S
C481 C480 1.391 . S
C482 H472 0.950 . S
C482 C483 1.386 . S
C482 C484 1.391 . S
C483 C482 1.386 . S
C483 C487 1.393 . S
C484 H473 0.950 . S
C484 C482 1.391 . S
C484 C485 1.400 . S
C485 C479 1.491 . S
C485 C484 1.400 . S
C485 C486 1.398 . S
C486 H474 0.950 . S
C486 C485 1.398 . S
C486 C487 1.391 . S
C487 H475 0.950 . S
C487 C483 1.393 . S
C487 C486 1.391 . S
H488 C496 0.950 . S
H489 C501 0.950 1_554 S
H490 C498 0.950 . S
H491 C500 0.950 . S
H492 C502 0.950 . S
H493 C504 0.950 . S
H494 C506 0.950 . S
H495 C507 0.950 . S
C496 H488 0.950 . S
C496 C497 1.386 . S
C496 C498 1.391 . S
C497 C496 1.386 . S
C497 C501 1.393 . S
C498 H490 0.950 . S
C498 C496 1.391 . S
C498 C499 1.400 . S
C499 C498 1.400 . S
C499 C500 1.398 . S
C499 C505 1.491 . S
C500 H491 0.950 . S
C500 C499 1.398 . S
C500 C501 1.391 . S
C501 H489 0.950 1_556 S
C501 C497 1.393 . S
C501 C500 1.391 . S
C502 H492 0.950 . S
C502 C503 1.386 . S
C502 C504 1.391 . S
C503 C502 1.386 . S
C503 C507 1.393 . S
C504 H493 0.950 . S
C504 C502 1.391 . S
C504 C505 1.400 . S
C505 C499 1.491 . S
C505 C504 1.400 . S
C505 C506 1.398 . S
C506 H494 0.950 . S
C506 C505 1.398 . S
C506 C507 1.391 . S
C507 H495 0.950 . S
C507 C503 1.393 . S
C507 C506 1.391 . S
H508 C516 0.950 . S
H509 C521 0.950 . S
H510 C518 0.950 . S
H511 C520 0.950 . S
H512 C522 0.950 . S
H513 C524 0.950 . S
H514 C526 0.950 . S
H515 C527 0.950 . S
C516 H508 0.950 . S
C516 C517 1.386 . S
C516 C518 1.391 . S
C517 C516 1.386 . S
C517 C521 1.393 . S
C518 H510 0.950 . S
C518 C516 1.391 . S
C518 C519 1.400 . S
C519 C518 1.400 . S
C519 C520 1.398 . S
C519 C525 1.491 . S
C520 H511 0.950 . S
C520 C519 1.398 . S
C520 C521 1.391 . S
C521 H509 0.950 . S
C521 C517 1.393 . S
C521 C520 1.391 . S
C522 H512 0.950 . S
C522 C523 1.386 . S
C522 C524 1.391 . S
C523 C522 1.386 . S
C523 C527 1.393 . S
C524 H513 0.950 . S
C524 C522 1.391 . S
C524 C525 1.400 . S
C525 C519 1.491 . S
C525 C524 1.400 . S
C525 C526 1.398 . S
C526 H514 0.950 . S
C526 C525 1.398 . S
C526 C527 1.391 . S
C527 H515 0.950 . S
C527 C523 1.393 . S
C527 C526 1.391 . S
H528 C536 0.950 . S
H529 C541 0.950 . S
H530 C538 0.950 . S
H531 C540 0.950 . S
H532 C542 0.950 . S
H533 C544 0.950 . S
H534 C546 0.950 . S
H535 C547 0.950 . S
C536 H528 0.950 . S
C536 C537 1.386 . S
C536 C538 1.391 . S
C537 C536 1.386 . S
C537 C541 1.393 . S
C538 H530 0.950 . S
C538 C536 1.391 . S
C538 C539 1.400 . S
C539 C538 1.400 . S
C539 C540 1.398 . S
C539 C545 1.491 . S
C540 H531 0.950 . S
C540 C539 1.398 . S
C540 C541 1.391 . S
C541 H529 0.950 . S
C541 C537 1.393 . S
C541 C540 1.391 . S
C542 H532 0.950 . S
C542 C543 1.386 . S
C542 C544 1.391 . S
C543 C542 1.386 . S
C543 C547 1.393 . S
C544 H533 0.950 . S
C544 C542 1.391 . S
C544 C545 1.400 . S
C545 C539 1.491 . S
C545 C544 1.400 . S
C545 C546 1.398 . S
C546 H534 0.950 . S
C546 C545 1.398 . S
C546 C547 1.391 . S
C547 H535 0.950 . S
C547 C543 1.393 . S
C547 C546 1.391 . S
H548 C556 0.950 . S
H549 C561 0.950 . S
H550 C558 0.950 . S
H551 C560 0.950 . S
H552 C562 0.950 . S
H553 C564 0.950 . S
H554 C566 0.950 . S
H555 C567 0.950 . S
C556 H548 0.950 . S
C556 C557 1.386 . S
C556 C558 1.391 . S
C557 C556 1.386 . S
C557 C561 1.393 1_545 S
C558 H550 0.950 . S
C558 C556 1.391 . S
C558 C559 1.400 . S
C559 C558 1.400 . S
C559 C560 1.398 1_545 S
C559 C565 1.491 . S
C560 H551 0.950 . S
C560 C559 1.398 1_565 S
C560 C561 1.391 . S
C561 H549 0.950 . S
C561 C557 1.393 1_565 S
C561 C560 1.391 . S
C562 H552 0.950 . S
C562 C563 1.388 . S
C562 C564 1.391 . S
C563 C562 1.388 . S
C563 C567 1.390 1_565 S
C564 H553 0.950 . S
C564 C562 1.391 . S
C564 C565 1.400 1_565 S
C565 C559 1.491 . S
C565 C564 1.400 1_545 S
C565 C566 1.398 . S
C566 H554 0.950 . S
C566 C565 1.398 . S
C566 C567 1.391 . S
C567 H555 0.950 . S
C567 C563 1.390 1_545 S
C567 C566 1.391 . S
H568 C576 0.950 . S
H569 C581 0.950 . S
H570 C578 0.950 . S
H571 C580 0.950 . S
H572 C582 0.950 . S
H573 C584 0.950 . S
H574 C586 0.950 . S
H575 C587 0.950 . S
C576 H568 0.950 . S
C576 C577 1.386 . S
C576 C578 1.391 . S
C577 C576 1.386 . S
C577 C581 1.393 . S
C578 H570 0.950 . S
C578 C576 1.391 . S
C578 C579 1.400 . S
C579 C578 1.400 . S
C579 C580 1.398 . S
C579 C585 1.491 . S
C580 H571 0.950 . S
C580 C579 1.398 . S
C580 C581 1.391 . S
C581 H569 0.950 . S
C581 C577 1.393 . S
C581 C580 1.391 . S
C582 H572 0.950 . S
C582 C583 1.386 . S
C582 C584 1.391 . S
C583 C582 1.386 . S
C583 C587 1.393 . S
C584 H573 0.950 . S
C584 C582 1.391 . S
C584 C585 1.400 . S
C585 C579 1.491 . S
C585 C584 1.400 . S
C585 C586 1.398 . S
C586 H574 0.950 . S
C586 C585 1.398 . S
C586 C587 1.391 . S
C587 H575 0.950 . S
C587 C583 1.393 . S
C587 C586 1.391 . S
H588 C596 0.950 . S
H589 C601 0.950 . S
H590 C598 0.950 . S
H591 C600 0.950 . S
H592 C602 0.950 . S
H593 C604 0.950 . S
H594 C606 0.950 . S
H595 C607 0.950 . S
C596 H588 0.950 . S
C596 C597 1.386 . S
C596 C598 1.391 . S
C597 C596 1.386 . S
C597 C601 1.393 . S
C598 H590 0.950 . S
C598 C596 1.391 . S
C598 C599 1.400 . S
C599 C598 1.400 . S
C599 C600 1.398 . S
C599 C605 1.491 . S
C600 H591 0.950 . S
C600 C599 1.398 . S
C600 C601 1.391 . S
C601 H589 0.950 . S
C601 C597 1.393 . S
C601 C600 1.391 . S
C602 H592 0.950 . S
C602 C603 1.386 . S
C602 C604 1.391 . S
C603 C602 1.386 . S
C603 C607 1.393 . S
C604 H593 0.950 . S
C604 C602 1.391 . S
C604 C605 1.400 . S
C605 C599 1.491 . S
C605 C604 1.400 . S
C605 C606 1.398 . S
C606 H594 0.950 . S
C606 C605 1.398 . S
C606 C607 1.391 . S
C607 H595 0.950 . S
C607 C603 1.393 . S
C607 C606 1.391 . S
H608 C616 0.950 . S
H609 C621 0.950 . S
H610 C618 0.950 . S
H611 C620 0.950 . S
H612 C622 0.950 . S
H613 C624 0.950 . S
H614 C626 0.950 . S
H615 C627 0.950 . S
C616 H608 0.950 . S
C616 C617 1.386 . S
C616 C618 1.391 . S
C617 C616 1.386 . S
C617 C621 1.393 . S
C618 H610 0.950 . S
C618 C616 1.391 . S
C618 C619 1.400 . S
C619 C618 1.400 . S
C619 C620 1.398 . S
C619 C625 1.491 . S
C620 H611 0.950 . S
C620 C619 1.398 . S
C620 C621 1.391 . S
C621 H609 0.950 . S
C621 C617 1.393 . S
C621 C620 1.391 . S
C622 H612 0.950 . S
C622 C623 1.386 . S
C622 C624 1.391 . S
C623 C622 1.386 . S
C623 C627 1.393 . S
C624 H613 0.950 . S
C624 C622 1.391 . S
C624 C625 1.400 . S
C625 C619 1.491 . S
C625 C624 1.400 . S
C625 C626 1.398 . S
C626 H614 0.950 . S
C626 C625 1.398 . S
C626 C627 1.391 . S
C627 H615 0.950 . S
C627 C623 1.393 . S
C627 C626 1.391 . S
H628 C636 0.950 . S
H629 C641 0.950 . S
H630 C638 0.950 . S
H631 C640 0.950 . S
H632 C642 0.950 . S
H633 C644 0.950 . S
H634 C646 0.950 . S
H635 C647 0.950 . S
C636 H628 0.950 . S
C636 C637 1.377 1_565 S
C636 C638 1.391 . S
C637 C636 1.377 1_545 S
C637 C641 1.404 . S
C638 H630 0.950 . S
C638 C636 1.391 . S
C638 C639 1.400 1_565 S
C639 C638 1.400 1_545 S
C639 C640 1.398 . S
C639 C645 1.491 . S
C640 H631 0.950 . S
C640 C639 1.398 . S
C640 C641 1.391 . S
C641 H629 0.950 . S
C641 C637 1.404 . S
C641 C640 1.391 . S
C642 H632 0.950 . S
C642 C643 1.386 . S
C642 C644 1.391 . S
C643 C642 1.386 . S
C643 C647 1.393 1_545 S
C644 H633 0.950 . S
C644 C642 1.391 . S
C644 C645 1.400 . S
C645 C639 1.491 . S
C645 C644 1.400 . S
C645 C646 1.398 1_545 S
C646 H634 0.950 . S
C646 C645 1.398 1_565 S
C646 C647 1.391 . S
C647 H635 0.950 . S
C647 C643 1.393 1_565 S
C647 C646 1.391 . S
H648 C656 0.950 . S
H649 C661 0.950 . S
H650 C658 0.950 . S
H651 C660 0.950 . S
H652 C662 0.950 . S
H653 C664 0.950 . S
H654 C666 0.950 . S
H655 C667 0.950 . S
C656 H648 0.950 . S
C656 C657 1.386 . S
C656 C658 1.391 . S
C657 C656 1.386 . S
C657 C661 1.393 . S
C658 H650 0.950 . S
C658 C656 1.391 . S
C658 C659 1.400 . S
C659 C658 1.400 . S
C659 C660 1.398 . S
C659 C665 1.491 . S
C660 H651 0.950 . S
C660 C659 1.398 . S
C660 C661 1.391 . S
C661 H649 0.950 . S
C661 C657 1.393 . S
C661 C660 1.391 . S
C662 H652 0.950 . S
C662 C663 1.386 . S
C662 C664 1.391 . S
C663 C662 1.386 . S
C663 C667 1.393 . S
C664 H653 0.950 . S
C664 C662 1.391 . S
C664 C665 1.400 . S
C665 C659 1.491 . S
C665 C664 1.400 . S
C665 C666 1.398 . S
C666 H654 0.950 . S
C666 C665 1.398 . S
C666 C667 1.391 . S
C667 H655 0.950 . S
C667 C663 1.393 . S
C667 C666 1.391 . S
H668 C676 0.950 . S
H669 C681 0.950 . S
H670 C678 0.950 . S
H671 C680 0.950 . S
H672 C682 0.950 . S
H673 C684 0.950 . S
H674 C686 0.950 . S
H675 C687 0.950 . S
C676 H668 0.950 . S
C676 C677 1.386 . S
C676 C678 1.391 . S
C677 C676 1.386 . S
C677 C681 1.393 . S
C678 H670 0.950 . S
C678 C676 1.391 . S
C678 C679 1.400 . S
C679 C678 1.400 . S
C679 C680 1.398 . S
C679 C685 1.491 . S
C680 H671 0.950 . S
C680 C679 1.398 . S
C680 C681 1.391 . S
C681 H669 0.950 . S
C681 C677 1.393 . S
C681 C680 1.391 . S
C682 H672 0.950 . S
C682 C683 1.386 . S
C682 C684 1.391 . S
C683 C682 1.386 . S
C683 C687 1.393 . S
C684 H673 0.950 . S
C684 C682 1.391 . S
C684 C685 1.400 . S
C685 C679 1.491 . S
C685 C684 1.400 . S
C685 C686 1.398 . S
C686 H674 0.950 . S
C686 C685 1.398 . S
C686 C687 1.391 . S
C687 H675 0.950 . S
C687 C683 1.393 . S
C687 C686 1.391 . S
H688 C696 0.950 . S
H689 C701 0.950 1_554 S
H690 C698 0.950 . S
H691 C700 0.950 . S
H692 C702 0.950 . S
H693 C704 0.950 . S
H694 C706 0.950 . S
H695 C707 0.950 . S
C696 H688 0.950 . S
C696 C697 1.386 . S
C696 C698 1.391 1_554 S
C697 C696 1.386 . S
C697 C701 1.393 1_554 S
C698 H690 0.950 . S
C698 C696 1.391 1_556 S
C698 C699 1.400 . S
C699 C698 1.400 . S
C699 C700 1.398 . S
C699 C705 1.491 . S
C700 H691 0.950 . S
C700 C699 1.398 . S
C700 C701 1.391 . S
C701 H689 0.950 1_556 S
C701 C697 1.393 1_556 S
C701 C700 1.391 . S
C702 H692 0.950 . S
C702 C703 1.386 . S
C702 C704 1.391 . S
C703 C702 1.386 . S
C703 C707 1.393 . S
C704 H693 0.950 . S
C704 C702 1.391 . S
C704 C705 1.400 . S
C705 C699 1.491 . S
C705 C704 1.400 . S
C705 C706 1.398 . S
C706 H694 0.950 . S
C706 C705 1.398 . S
C706 C707 1.391 . S
C707 H695 0.950 . S
C707 C703 1.393 . S
C707 C706 1.391 . S
H708 C716 0.950 . S
H709 C721 0.950 . S
H710 C718 0.950 . S
H711 C720 0.950 . S
H712 C722 0.950 . S
H713 C724 0.950 . S
H714 C726 0.950 . S
H715 C727 0.950 . S
C716 H708 0.950 . S
C716 C717 1.386 1_565 S
C716 C718 1.391 . S
C717 C716 1.386 1_545 S
C717 C721 1.393 . S
C718 H710 0.950 . S
C718 C716 1.391 . S
C718 C719 1.400 1_565 S
C719 C718 1.400 1_545 S
C719 C720 1.398 . S
C719 C725 1.491 . S
C720 H711 0.950 . S
C720 C719 1.398 . S
C720 C721 1.391 . S
C721 H709 0.950 . S
C721 C717 1.393 . S
C721 C720 1.391 . S
C722 H712 0.950 . S
C722 C723 1.386 . S
C722 C724 1.391 . S
C723 C722 1.386 . S
C723 C727 1.393 1_545 S
C724 H713 0.950 . S
C724 C722 1.391 . S
C724 C725 1.400 . S
C725 C719 1.491 . S
C725 C724 1.400 . S
C725 C726 1.398 1_545 S
C726 H714 0.950 . S
C726 C725 1.398 1_565 S
C726 C727 1.391 . S
C727 H715 0.950 . S
C727 C723 1.393 1_565 S
C727 C726 1.391 . S
H728 C736 0.950 . S
H729 C741 0.950 . S
H730 C738 0.950 . S
H731 C740 0.950 . S
H732 C742 0.950 . S
H733 C744 0.950 . S
H734 C746 0.950 . S
H735 C747 0.950 . S
C736 H728 0.950 . S
C736 C737 1.386 . S
C736 C738 1.391 . S
C737 C736 1.386 . S
C737 C741 1.393 . S
C738 H730 0.950 . S
C738 C736 1.391 . S
C738 C739 1.400 . S
C739 C738 1.400 . S
C739 C740 1.398 . S
C739 C745 1.491 . S
C740 H731 0.950 . S
C740 C739 1.398 . S
C740 C741 1.391 . S
C741 H729 0.950 . S
C741 C737 1.393 . S
C741 C740 1.391 . S
C742 H732 0.950 . S
C742 C743 1.386 . S
C742 C744 1.391 . S
C743 C742 1.386 . S
C743 C747 1.393 . S
C744 H733 0.950 . S
C744 C742 1.391 . S
C744 C745 1.400 . S
C745 C739 1.491 . S
C745 C744 1.400 . S
C745 C746 1.398 . S
C746 H734 0.950 . S
C746 C745 1.398 . S
C746 C747 1.391 . S
C747 H735 0.950 . S
C747 C743 1.393 . S
C747 C746 1.391 . S
H748 C756 0.950 . S
H749 C761 0.950 . S
H750 C758 0.950 . S
H751 C760 0.950 . S
H752 C762 0.950 . S
H753 C764 0.950 . S
H754 C766 0.950 . S
H755 C767 0.950 . S
C756 H748 0.950 . S
C756 C757 1.386 . S
C756 C758 1.391 . S
C757 C756 1.386 . S
C757 C761 1.393 . S
C758 H750 0.950 . S
C758 C756 1.391 . S
C758 C759 1.400 . S
C759 C758 1.400 . S
C759 C760 1.398 . S
C759 C765 1.491 . S
C760 H751 0.950 . S
C760 C759 1.398 . S
C760 C761 1.391 . S
C761 H749 0.950 . S
C761 C757 1.393 . S
C761 C760 1.391 . S
C762 H752 0.950 . S
C762 C763 1.386 . S
C762 C764 1.391 . S
C763 C762 1.386 . S
C763 C767 1.393 . S
C764 H753 0.950 . S
C764 C762 1.391 . S
C764 C765 1.400 . S
C765 C759 1.491 . S
C765 C764 1.400 . S
C765 C766 1.398 . S
C766 H754 0.950 . S
C766 C765 1.398 . S
C766 C767 1.391 . S
C767 H755 0.950 . S
C767 C763 1.393 . S
C767 C766 1.391 . S
H768 C776 0.950 . S
H769 C781 0.950 . S
H770 C778 0.950 . S
H771 C780 0.950 . S
H772 C782 0.950 . S
H773 C784 0.950 . S
H774 C786 0.950 . S
H775 C787 0.950 . S
C776 H768 0.950 . S
C776 C777 1.386 . S
C776 C778 1.391 . S
C777 C776 1.386 . S
C777 C781 1.393 . S
C778 H770 0.950 . S
C778 C776 1.391 . S
C778 C779 1.400 . S
C779 C778 1.400 . S
C779 C780 1.398 . S
C779 C785 1.491 . S
C780 H771 0.950 . S
C780 C779 1.398 . S
C780 C781 1.391 . S
C781 H769 0.950 . S
C781 C777 1.393 . S
C781 C780 1.391 . S
C782 H772 0.950 . S
C782 C783 1.386 . S
C782 C784 1.391 . S
C783 C782 1.386 . S
C783 C787 1.393 . S
C784 H773 0.950 . S
C784 C782 1.391 . S
C784 C785 1.400 . S
C785 C779 1.491 . S
C785 C784 1.400 . S
C785 C786 1.398 . S
C786 H774 0.950 . S
C786 C785 1.398 . S
C786 C787 1.391 . S
C787 H775 0.950 . S
C787 C783 1.393 . S
C787 C786 1.391 . S
H788 C796 0.950 . S
H789 C801 0.950 . S
H790 C798 0.950 . S
H791 C800 0.950 . S
H792 C802 0.950 . S
H793 C804 0.950 . S
H794 C806 0.950 . S
H795 C807 0.950 . S
C796 H788 0.950 . S
C796 C797 1.394 . S
C796 C798 1.391 . S
C797 C796 1.394 . S
C797 C801 1.383 1_565 S
C798 H790 0.950 . S
C798 C796 1.391 . S
C798 C799 1.400 . S
C799 C798 1.400 . S
C799 C800 1.398 1_565 S
C799 C805 1.487 1_565 S
C800 H791 0.950 . S
C800 C799 1.398 1_545 S
C800 C801 1.391 . S
C801 H789 0.950 . S
C801 C797 1.383 1_545 S
C801 C800 1.391 . S
C802 H792 0.950 . S
C802 C803 1.386 . S
C802 C804 1.391 . S
C803 C802 1.386 . S
C803 C807 1.393 1_545 S
C804 H793 0.950 . S
C804 C802 1.391 . S
C804 C805 1.413 . S
C805 C799 1.487 1_545 S
C805 C804 1.413 . S
C805 C806 1.391 1_545 S
C806 H794 0.950 . S
C806 C805 1.391 1_565 S
C806 C807 1.391 . S
C807 H795 0.950 . S
C807 C803 1.393 1_565 S
C807 C806 1.391 . S
H808 C816 0.950 . S
H809 C821 0.950 . S
H810 C818 0.950 . S
H811 C820 0.950 . S
H812 C822 0.950 . S
H813 C824 0.950 . S
H814 C826 0.950 . S
H815 C827 0.950 . S
C816 H808 0.950 . S
C816 C817 1.386 . S
C816 C818 1.391 . S
C817 C816 1.386 . S
C817 C821 1.393 . S
C818 H810 0.950 . S
C818 C816 1.391 . S
C818 C819 1.400 . S
C819 C818 1.400 . S
C819 C820 1.398 . S
C819 C825 1.491 . S
C820 H811 0.950 . S
C820 C819 1.398 . S
C820 C821 1.391 . S
C821 H809 0.950 . S
C821 C817 1.393 . S
C821 C820 1.391 . S
C822 H812 0.950 . S
C822 C823 1.386 . S
C822 C824 1.391 . S
C823 C822 1.386 . S
C823 C827 1.393 . S
C824 H813 0.950 . S
C824 C822 1.391 . S
C824 C825 1.400 . S
C825 C819 1.491 . S
C825 C824 1.400 . S
C825 C826 1.398 . S
C826 H814 0.950 . S
C826 C825 1.398 . S
C826 C827 1.391 . S
C827 H815 0.950 . S
C827 C823 1.393 . S
C827 C826 1.391 . S
H828 C836 0.950 . S
H829 C841 0.950 . S
H830 C838 0.950 . S
H831 C840 0.950 . S
H832 C842 0.950 . S
H833 C844 0.950 . S
H834 C846 0.950 . S
H835 C847 0.950 . S
C836 H828 0.950 . S
C836 C837 1.386 . S
C836 C838 1.391 . S
C837 C836 1.386 . S
C837 C841 1.393 . S
C838 H830 0.950 . S
C838 C836 1.391 . S
C838 C839 1.400 . S
C839 C838 1.400 . S
C839 C840 1.398 . S
C839 C845 1.491 . S
C840 H831 0.950 . S
C840 C839 1.398 . S
C840 C841 1.391 . S
C841 H829 0.950 . S
C841 C837 1.393 . S
C841 C840 1.391 . S
C842 H832 0.950 . S
C842 C843 1.386 . S
C842 C844 1.391 . S
C843 C842 1.386 . S
C843 C847 1.393 . S
C844 H833 0.950 . S
C844 C842 1.391 . S
C844 C845 1.400 . S
C845 C839 1.491 . S
C845 C844 1.400 . S
C845 C846 1.398 . S
C846 H834 0.950 . S
C846 C845 1.398 . S
C846 C847 1.391 . S
C847 H835 0.950 . S
C847 C843 1.393 . S
C847 C846 1.391 . S
C377 C241 1.496 . S
C383 C289 1.532 . S
C403 C324 2.241 . S
C397 C277 2.063 . S
C423 C329 1.417 . S
C417 C169 1.377 . S
C443 C349 1.944 . S
C437 C205 1.862 . S
C463 C297 1.534 . S
C457 C97 1.485 . S
C477 C133 2.136 1_556 S
C483 C314 2.241 . S
C497 C25 1.415 . S
C503 C337 1.424 . S
C517 C61 1.765 . S
C523 C357 1.939 . S
C543 C307 1.483 . S
C537 C211 1.357 . S
C563 C316 0.656 . S
C557 C247 0.689 . S
C583 C347 1.618 . S
C577 C253 1.444 . S
C597 C175 0.887 . S
C603 C367 0.867 . S
C617 C67 1.319 . S
C623 C296 1.476 . S
C643 C327 0.670 . S
C637 C103 0.638 . S
C663 C336 1.622 . S
C657 C109 1.509 . S
C677 C31 0.901 . S
C683 C356 0.871 . S
C697 C181 2.116 . S
C703 C294 2.214 . S
C717 C217 1.755 1_556 S
C723 C317 1.880 . S
C743 C334 2.374 . S
C737 C283 2.088 1_556 S
C763 C354 2.076 . S
C757 C145 1.953 1_556 S
C777 C37 2.043 . S
C783 C304 2.221 . S
C803 C309 1.878 . S
C797 C73 1.749 1_565 S
C823 C344 2.374 . S
C817 C139 2.171 . S
C837 C1 1.964 . S
C843 C364 2.082 . S
