# Generated by pormake.
# Topology hwx, (6,3)-cn, num edge types: 1
# Building blocks:
#     Node 0, Type 0, BuildingBlock: IZENUY_clean_sbu_0, # of connection points: 6
#     Node 1, Type 0, BuildingBlock: IZENUY_clean_sbu_0, # of connection points: 6
#     Node 2, Type 0, BuildingBlock: IZENUY_clean_sbu_0, # of connection points: 6
#     Node 3, Type 0, BuildingBlock: IZENUY_clean_sbu_0, # of connection points: 6
#     Node 4, Type 1, BuildingBlock: CUQRIR_clean_linker_1, # of connection points: 3
#     Node 5, Type 1, BuildingBlock: CUQRIR_clean_linker_1, # of connection points: 3
#     Node 6, Type 1, BuildingBlock: CUQRIR_clean_linker_1, # of connection points: 3
#     Node 7, Type 1, BuildingBlock: CUQRIR_clean_linker_1, # of connection points: 3
#     Node 8, Type 1, BuildingBlock: CUQRIR_clean_linker_1, # of connection points: 3
#     Node 9, Type 1, BuildingBlock: CUQRIR_clean_linker_1, # of connection points: 3
#     Node 10, Type 1, BuildingBlock: CUQRIR_clean_linker_1, # of connection points: 3
#     Node 11, Type 1, BuildingBlock: CUQRIR_clean_linker_1, # of connection points: 3
#     Edge 12, Type (0, 1), BuildingBlock: UVAHIK_clean_linker_0, # of connection points: 2
#     Edge 13, Type (0, 1), BuildingBlock: UVAHIK_clean_linker_0, # of connection points: 2
#     Edge 14, Type (0, 1), BuildingBlock: UVAHIK_clean_linker_0, # of connection points: 2
#     Edge 15, Type (0, 1), BuildingBlock: UVAHIK_clean_linker_0, # of connection points: 2
#     Edge 16, Type (0, 1), BuildingBlock: UVAHIK_clean_linker_0, # of connection points: 2
#     Edge 17, Type (0, 1), BuildingBlock: UVAHIK_clean_linker_0, # of connection points: 2
#     Edge 18, Type (0, 1), BuildingBlock: UVAHIK_clean_linker_0, # of connection points: 2
#     Edge 19, Type (0, 1), BuildingBlock: UVAHIK_clean_linker_0, # of connection points: 2
#     Edge 20, Type (0, 1), BuildingBlock: UVAHIK_clean_linker_0, # of connection points: 2
#     Edge 21, Type (0, 1), BuildingBlock: UVAHIK_clean_linker_0, # of connection points: 2
#     Edge 22, Type (0, 1), BuildingBlock: UVAHIK_clean_linker_0, # of connection points: 2
#     Edge 23, Type (0, 1), BuildingBlock: UVAHIK_clean_linker_0, # of connection points: 2
#     Edge 24, Type (0, 1), BuildingBlock: UVAHIK_clean_linker_0, # of connection points: 2
#     Edge 25, Type (0, 1), BuildingBlock: UVAHIK_clean_linker_0, # of connection points: 2
#     Edge 26, Type (0, 1), BuildingBlock: UVAHIK_clean_linker_0, # of connection points: 2
#     Edge 27, Type (0, 1), BuildingBlock: UVAHIK_clean_linker_0, # of connection points: 2
#     Edge 28, Type (0, 1), BuildingBlock: UVAHIK_clean_linker_0, # of connection points: 2
#     Edge 29, Type (0, 1), BuildingBlock: UVAHIK_clean_linker_0, # of connection points: 2
#     Edge 30, Type (0, 1), BuildingBlock: UVAHIK_clean_linker_0, # of connection points: 2
#     Edge 31, Type (0, 1), BuildingBlock: UVAHIK_clean_linker_0, # of connection points: 2
#     Edge 32, Type (0, 1), BuildingBlock: UVAHIK_clean_linker_0, # of connection points: 2
#     Edge 33, Type (0, 1), BuildingBlock: UVAHIK_clean_linker_0, # of connection points: 2
#     Edge 34, Type (0, 1), BuildingBlock: UVAHIK_clean_linker_0, # of connection points: 2
#     Edge 35, Type (0, 1), BuildingBlock: UVAHIK_clean_linker_0, # of connection points: 2
# Relax obj value: 0.001
# Max RMSD: 0.075
# Mean RMSD: 0.054
data_MOF--net-hwx--node1-IZENUY_clean_sbu_0--node2-CUQRIR_clean_linker_1--edge1-UVAHIK_clean_linker_0
_symmetry_space_group_name_H-M    P1
_symmetry_Int_Tables_number       1
_symmetry_cell_setting            triclinic
loop_
_symmetry_equiv_pos_as_xyz
'x, y, z'
_cell_length_a     63.241505
_cell_length_b     63.185776
_cell_length_c     25.056025
_cell_angle_alpha  90.087847
_cell_angle_beta   90.094835
_cell_angle_gamma 89.99927
loop_
_atom_site_label
_atom_site_type_symbol
_atom_site_fract_x
_atom_site_fract_y
_atom_site_fract_z
_atom_type_partial_charge
Fe0 Fe 0.2261 0.2238 0.06392 0.0
Fe1 Fe 0.22562 0.2234 0.94171 0.0
O2 O 0.21643 0.21312 1.00321 0.0
Fe3 Fe 0.19766 0.19228 1.00425 0.0
O4 O 0.18455 0.20136 0.06574 0.0
O5 O 0.19975 0.23184 0.08418 0.0
O6 O 0.22987 0.25068 0.03809 0.0
C7 C 0.22151 0.26001 0.99872 0.0
C8 C 0.22347 0.17993 0.08609 0.0
O9 O 0.216 0.24972 0.95787 0.0
C10 C 0.22471 0.18116 0.91787 0.0
O11 O 0.25302 0.21632 0.04751 0.0
O12 O 0.25234 0.22948 0.96638 0.0
O13 O 0.21548 0.17514 0.04147 0.0
O14 O 0.22418 0.19901 0.10131 0.0
C15 C 0.18198 0.21636 0.92238 0.0
O16 O 0.23572 0.19778 0.92097 0.0
O17 O 0.20742 0.17957 0.94308 0.0
C18 C 0.26255 0.22232 0.00602 0.0
O19 O 0.20068 0.21921 0.90604 0.0
O20 O 0.17845 0.20781 0.96701 0.0
C21 C 0.18444 0.21918 0.08911 0.0
Fe22 Fe 0.27862 0.72256 0.56273 0.0
Fe23 Fe 0.30797 0.69243 0.50068 0.0
O24 O 0.28819 0.71239 0.50133 0.0
Fe25 Fe 0.27793 0.72222 0.44026 0.0
O26 O 0.28672 0.74886 0.4554 0.0
O27 O 0.27449 0.74952 0.53755 0.0
O28 O 0.30479 0.73107 0.5832 0.0
C29 C 0.32075 0.71919 0.58646 0.0
C30 C 0.24165 0.72049 0.5062 0.0
O31 O 0.32141 0.70177 0.56139 0.0
C32 C 0.2802 0.68013 0.41655 0.0
O33 O 0.28111 0.69752 0.59887 0.0
O34 O 0.29156 0.67435 0.53871 0.0
O35 O 0.25138 0.72764 0.46604 0.0
O36 O 0.25167 0.71474 0.5472 0.0
C37 C 0.32153 0.71708 0.41796 0.0
O38 O 0.29801 0.67941 0.43983 0.0
O39 O 0.26849 0.69621 0.42097 0.0
C40 C 0.28314 0.67859 0.5831 0.0
O41 O 0.32595 0.70903 0.46267 0.0
O42 O 0.30252 0.71876 0.4028 0.0
C43 C 0.28188 0.75897 0.49709 0.0
Fe44 Fe 0.7792 0.78375 0.95164 0.0
Fe45 Fe 0.77872 0.7829 0.07382 0.0
O46 O 0.7883 0.79388 0.01351 0.0
Fe47 Fe 0.80687 0.8149 0.01535 0.0
O48 O 0.79698 0.82778 0.95451 0.0
O49 O 0.76888 0.80935 0.9316 0.0
O50 O 0.75255 0.77737 0.97589 0.0
C51 C 0.74228 0.78434 0.01558 0.0
C52 C 0.82275 0.79135 0.93274 0.0
O53 O 0.75174 0.79025 0.0574 0.0
C54 C 0.82038 0.78772 0.09932 0.0
O55 O 0.78902 0.75744 0.96703 0.0
O56 O 0.77513 0.75607 0.04706 0.0
O57 O 0.82623 0.79976 0.97765 0.0
O58 O 0.80408 0.78828 0.91631 0.0
C59 C 0.78111 0.82671 0.09765 0.0
O60 O 0.80514 0.77498 0.09396 0.0
O61 O 0.8201 0.80565 0.07659 0.0
C62 C 0.78349 0.74694 0.00739 0.0
O63 O 0.7805 0.80756 0.11213 0.0
O64 O 0.7889 0.83172 0.05307 0.0
C65 C 0.77974 0.82608 0.92894 0.0
Fe66 Fe 0.69779 0.31483 0.50011 0.0
Fe67 Fe 0.72588 0.28383 0.56282 0.0
O68 O 0.71648 0.29392 0.50126 0.0
Fe69 Fe 0.72586 0.28302 0.4406 0.0
O70 O 0.72385 0.30771 0.4027 0.0
O71 O 0.71557 0.33179 0.46231 0.0
O72 O 0.70776 0.32769 0.56098 0.0
C73 C 0.72512 0.32611 0.58605 0.0
C74 C 0.68414 0.28773 0.41597 0.0
O75 O 0.73611 0.30949 0.58287 0.0
C76 C 0.72155 0.247 0.50682 0.0
O77 O 0.67866 0.29948 0.53788 0.0
O78 O 0.70106 0.28817 0.59877 0.0
O79 O 0.6994 0.275 0.42101 0.0
O80 O 0.68444 0.30563 0.43895 0.0
C81 C 0.76254 0.28459 0.49784 0.0
O82 O 0.71617 0.25747 0.54742 0.0
O83 O 0.72967 0.25617 0.46694 0.0
C84 C 0.68231 0.29103 0.58261 0.0
O85 O 0.75249 0.27763 0.53784 0.0
O86 O 0.75287 0.29046 0.45636 0.0
C87 C 0.72324 0.32686 0.4175 0.0
C88 C 0.23386 0.49885 0.95762 0.0
N89 N 0.23769 0.51911 0.97261 0.0
N90 N 0.2297 0.48667 1.00084 0.0
C91 C 0.23428 0.49076 0.90106 0.0
C92 C 0.23118 0.50027 0.04255 0.0
N93 N 0.23587 0.51997 0.02533 0.0
C94 C 0.22795 0.49442 0.10009 0.0
H95 H 0.21779 0.4886 0.88694 0.0
H96 H 0.24227 0.47513 0.89944 0.0
H97 H 0.24223 0.5018 0.87333 0.0
H98 H 0.24348 0.49047 0.11812 0.0
H99 H 0.21736 0.48049 0.10373 0.0
H100 H 0.22116 0.50793 0.12266 0.0
C101 C 0.00441 0.75401 0.55651 0.0
N102 N 0.98409 0.75701 0.54099 0.0
N103 N 0.0164 0.74767 0.51474 0.0
C104 C 0.01226 0.75557 0.61312 0.0
C105 C 0.00266 0.74674 0.47331 0.0
N106 N 0.98298 0.75225 0.48937 0.0
C107 C 0.00874 0.74194 0.41656 0.0
H108 H 0.01702 0.77215 0.62144 0.0
H109 H 0.0262 0.7452 0.61949 0.0
H110 H 0.99967 0.75107 0.64173 0.0
H111 H 0.00656 0.72477 0.4091 0.0
H112 H 0.02555 0.746 0.4091 0.0
H113 H 0.99859 0.75077 0.38812 0.0
C114 C 0.77511 0.50669 0.04486 0.0
N115 N 0.77072 0.48666 0.02903 0.0
N116 N 0.77542 0.51994 1.00236 0.0
C117 C 0.77803 0.51351 0.102 0.0
C118 C 0.77097 0.50725 0.96017 0.0
N119 N 0.76793 0.48704 0.97649 0.0
C120 C 0.76973 0.5148 0.90327 0.0
H121 H 0.76228 0.51476 0.12121 0.0
H122 H 0.78613 0.52904 0.1047 0.0
H123 H 0.78739 0.50173 0.1246 0.0
H124 H 0.786 0.51741 0.88818 0.0
H125 H 0.76122 0.53014 0.90137 0.0
H126 H 0.76188 0.50327 0.87654 0.0
C127 C 0.00197 0.25908 0.45923 0.0
N128 N 0.02168 0.25455 0.47695 0.0
N129 N 0.98811 0.25959 0.50042 0.0
C130 C 0.99603 0.26142 0.40137 0.0
C131 C 1.00017 0.25515 0.54379 0.0
N132 N 0.02054 0.25182 0.52942 0.0
C133 C 0.99243 0.25607 0.60054 0.0
H134 H 0.9974 0.27832 0.39 0.0
H135 H 0.97952 0.25619 0.39426 0.0
H136 H 0.0068 0.2521 0.37547 0.0
H137 H 0.98741 0.24002 0.61312 0.0
H138 H 0.97872 0.26692 0.60428 0.0
H139 H 0.00517 0.2615 0.62782 0.0
C140 C 0.7339 0.00734 0.55594 0.0
N141 N 0.7368 0.98707 0.53976 0.0
N142 N 0.72948 0.01994 0.51367 0.0
C143 C 0.73523 0.01502 0.61276 0.0
C144 C 0.72966 0.00659 0.47128 0.0
N145 N 0.73395 0.98657 0.48724 0.0
C146 C 0.72673 0.01329 0.41411 0.0
H147 H 0.71901 0.018 0.62774 0.0
H148 H 0.74403 0.03021 0.61451 0.0
H149 H 0.74284 0.00343 0.63968 0.0
H150 H 0.74246 0.01432 0.39473 0.0
H151 H 0.71879 0.0289 0.41132 0.0
H152 H 0.7172 1.00155 0.39172 0.0
C153 C 0.50019 0.25188 0.95886 0.0
N154 N 0.52056 0.25524 0.97349 0.0
N155 N 0.48812 0.24741 1.00207 0.0
C156 C 0.49249 0.25094 0.90202 0.0
C157 C 0.50194 0.24795 0.04344 0.0
N158 N 0.52166 0.2525 0.02598 0.0
C159 C 0.49597 0.24561 0.10123 0.0
H160 H 0.48744 0.26699 0.88939 0.0
H161 H 0.47881 0.24006 0.8981 0.0
H162 H 0.50526 0.24555 0.87489 0.0
H163 H 0.49736 0.22871 0.11264 0.0
H164 H 0.47944 0.2508 0.10813 0.0
H165 H 0.5067 0.25495 0.12726 0.0
C166 C 0.27072 0.99935 0.45992 0.0
N167 N 0.26668 0.01947 0.47571 0.0
N168 N 0.26997 0.98602 0.50207 0.0
C169 C 0.27349 0.99239 0.40289 0.0
C170 C 0.26517 0.99864 0.54397 0.0
N171 N 0.26303 0.01899 0.52796 0.0
C172 C 0.26367 0.99115 0.6008 0.0
H173 H 0.26368 0.00217 0.37568 0.0
H174 H 0.26918 0.9755 0.39763 0.0
H175 H 0.29032 0.99439 0.39151 0.0
H176 H 0.27314 0.97656 0.60687 0.0
H177 H 0.24692 0.98751 0.61007 0.0
H178 H 0.26924 0.00357 0.62884 0.0
C179 C 0.50327 0.76011 0.04618 0.0
N180 N 0.48325 0.75616 0.02975 0.0
N181 N 0.51653 0.76129 1.00386 0.0
C182 C 0.51018 0.76087 0.10368 0.0
C183 C 0.50383 0.75772 0.96113 0.0
N184 N 0.48363 0.7544 0.97691 0.0
C185 C 0.51083 0.75917 0.90387 0.0
H186 H 0.50908 0.77742 0.11826 0.0
H187 H 0.52677 0.75544 0.1081 0.0
H188 H 0.49984 0.75085 0.12893 0.0
H189 H 0.51538 0.74317 0.88965 0.0
H190 H 0.52467 0.76983 0.8998 0.0
H191 H 0.49781 0.76507 0.87814 0.0
C192 C 0.16412 0.24462 0.14663 0.0
C193 C 0.16772 0.22382 0.12877 0.0
C194 C 0.1489 0.24872 0.18583 0.0
C195 C 0.12183 0.2244 0.29855 0.0
H196 H 0.07834 0.26663 0.27557 0.0
C197 C 0.04949 0.23209 0.43818 0.0
C198 C 0.04023 0.25205 0.44455 0.0
C199 C 0.0661 0.22925 0.40202 0.0
C200 C 0.09059 0.25507 0.28335 0.0
H201 H 0.15819 0.19104 0.13816 0.0
H202 H 0.13196 0.19822 0.20722 0.0
H203 H 0.10526 0.2609 0.20766 0.0
H204 H 0.04119 0.28482 0.42082 0.0
H205 H 0.07089 0.28034 0.35947 0.0
H206 H 0.10765 0.21883 0.37462 0.0
C207 C 0.14084 0.21131 0.19064 0.0
C208 C 0.10594 0.25173 0.24413 0.0
C209 C 0.15574 0.20725 0.15082 0.0
C210 C 0.04821 0.26931 0.416 0.0
C211 C 0.06503 0.26661 0.38056 0.0
C212 C 0.1067 0.22798 0.33821 0.0
C213 C 0.13731 0.23206 0.20862 0.0
C214 C 0.12156 0.23622 0.25112 0.0
C215 C 0.07394 0.24644 0.37213 0.0
C216 C 0.09072 0.24324 0.33099 0.0
H217 H 0.17307 0.25772 0.13036 0.0
H218 H 0.14649 0.26486 0.19913 0.0
H219 H 0.13388 0.2125 0.30514 0.0
H220 H 0.0433 0.2186 0.45971 0.0
H221 H 0.07225 0.21343 0.39627 0.0
C222 C 0.26239 0.66487 0.6602 0.0
C223 C 0.27761 0.66137 0.62039 0.0
C224 C 0.25818 0.64938 0.69839 0.0
C225 C 0.26686 0.59234 0.73021 0.0
H226 H 0.25348 0.61118 0.8737 0.0
C227 C 0.26285 0.53553 0.91035 0.0
C228 C 0.24378 0.53639 0.93874 0.0
C229 C 0.26777 0.55119 0.87306 0.0
C230 C 0.25714 0.60574 0.83375 0.0
H231 H 0.30018 0.63882 0.58886 0.0
H232 H 0.29345 0.61201 0.65667 0.0
H233 H 0.26042 0.63725 0.80429 0.0
H234 H 0.2153 0.55438 0.95265 0.0
H235 H 0.2242 0.58241 0.88871 0.0
H236 H 0.26414 0.56077 0.76066 0.0
C237 C 0.2843 0.62649 0.65774 0.0
C238 C 0.26097 0.62064 0.79376 0.0
C239 C 0.28824 0.64188 0.61887 0.0
C240 C 0.23016 0.55363 0.93142 0.0
C241 C 0.23523 0.56952 0.89481 0.0
C242 C 0.26338 0.57746 0.77048 0.0
C243 C 0.26937 0.63013 0.69842 0.0
C244 C 0.26569 0.61416 0.74125 0.0
C245 C 0.25386 0.56819 0.86449 0.0
C246 C 0.25834 0.58402 0.82249 0.0
H247 H 0.25377 0.67967 0.66196 0.0
H248 H 0.24614 0.65259 0.72799 0.0
H249 H 0.27009 0.58668 0.69025 0.0
H250 H 0.27358 0.52236 0.91602 0.0
H251 H 0.28234 0.54994 0.8506 0.0
C252 C 0.84935 0.79951 0.1608 0.0
C253 C 0.83723 0.783 0.13873 0.0
C254 C 0.86434 0.79538 0.20045 0.0
C255 C 0.89902 0.75469 0.25427 0.0
H256 H 0.89775 0.7881 0.38418 0.0
C257 C 0.9566 0.73735 0.42753 0.0
C258 C 0.9647 0.75471 0.45573 0.0
C259 C 0.93991 0.74002 0.39151 0.0
C260 C 0.89858 0.7788 0.34793 0.0
H261 H 0.83176 0.74912 0.14005 0.0
H262 H 0.85847 0.74186 0.20857 0.0
H263 H 0.87154 0.79444 0.31454 0.0
H264 H 0.96195 0.7883 0.46951 0.0
H265 H 0.93325 0.79337 0.40529 0.0
H266 H 0.92648 0.73958 0.28618 0.0
C267 C 0.85611 0.75801 0.1954 0.0
C268 C 0.88346 0.78239 0.30816 0.0
C269 C 0.84081 0.76218 0.15634 0.0
C270 C 0.95569 0.77473 0.44831 0.0
C271 C 0.93921 0.77752 0.41169 0.0
C272 C 0.91436 0.75132 0.29364 0.0
C273 C 0.86783 0.77461 0.21828 0.0
C274 C 0.88358 0.77041 0.2609 0.0
C275 C 0.93121 0.76022 0.38229 0.0
C276 C 0.91441 0.76336 0.34104 0.0
H277 H 0.84693 0.81574 0.14832 0.0
H278 H 0.87331 0.80844 0.21707 0.0
H279 H 0.89957 0.74537 0.21797 0.0
H280 H 0.96338 0.72178 0.43318 0.0
H281 H 0.93393 0.72622 0.37074 0.0
C282 C 0.74951 0.34122 0.656 0.0
C283 C 0.73105 0.34289 0.62487 0.0
C284 C 0.75421 0.35647 0.6949 0.0
C285 C 0.74076 0.41126 0.73695 0.0
H286 H 0.76247 0.39336 0.87454 0.0
C287 C 0.74391 0.46843 0.91496 0.0
C288 C 0.76295 0.46907 0.94354 0.0
C289 C 0.74007 0.4522 0.87833 0.0
C290 C 0.75657 0.39861 0.83617 0.0
H291 H 0.70323 0.36214 0.60996 0.0
H292 H 0.71125 0.38839 0.67783 0.0
H293 H 0.75642 0.36711 0.80439 0.0
H294 H 0.7923 0.45285 0.95967 0.0
H295 H 0.78567 0.42413 0.89549 0.0
H296 H 0.7407 0.44268 0.76877 0.0
C297 C 0.72229 0.37551 0.67183 0.0
C298 C 0.75317 0.38359 0.79589 0.0
C299 C 0.71763 0.36034 0.63297 0.0
C300 C 0.77758 0.45258 0.93753 0.0
C301 C 0.77373 0.43623 0.901 0.0
C302 C 0.74405 0.42621 0.77721 0.0
C303 C 0.74057 0.37373 0.70355 0.0
C304 C 0.74508 0.38972 0.74586 0.0
C305 C 0.75515 0.43616 0.87 0.0
C306 C 0.75185 0.42007 0.82742 0.0
H307 H 0.76023 0.32802 0.65076 0.0
H308 H 0.76857 0.35475 0.71808 0.0
H309 H 0.73494 0.41664 0.69863 0.0
H310 H 0.73233 0.4809 0.91998 0.0
H311 H 0.7254 0.45235 0.85596 0.0
C312 C 0.66366 0.26231 0.3586 0.0
C313 C 0.66734 0.28311 0.37637 0.0
C314 C 0.64843 0.25824 0.31927 0.0
C315 C 0.62155 0.28262 0.20613 0.0
H316 H 0.57798 0.24044 0.22832 0.0
C317 C 0.54942 0.27497 0.0652 0.0
C318 C 0.54018 0.25501 0.05863 0.0
C319 C 0.56597 0.27781 0.10166 0.0
C320 C 0.59026 0.25198 0.22077 0.0
H321 H 0.65792 0.31592 0.36675 0.0
H322 H 0.63168 0.30879 0.29752 0.0
H323 H 0.60481 0.24615 0.29672 0.0
H324 H 0.54113 0.22223 0.08233 0.0
H325 H 0.57073 0.22671 0.14422 0.0
H326 H 0.60749 0.2882 0.1298 0.0
C327 C 0.6405 0.29567 0.31424 0.0
C328 C 0.60555 0.25531 0.26026 0.0
C329 C 0.65541 0.2997 0.35417 0.0
C330 C 0.54813 0.23775 0.0873 0.0
C331 C 0.56489 0.24045 0.12304 0.0
C332 C 0.60648 0.27906 0.1662 0.0
C333 C 0.63691 0.27492 0.29629 0.0
C334 C 0.6212 0.2708 0.25355 0.0
C335 C 0.57377 0.26062 0.13167 0.0
C336 C 0.59048 0.26382 0.17312 0.0
H337 H 0.67258 0.24919 0.37498 0.0
H338 H 0.64597 0.2421 0.306 0.0
H339 H 0.63363 0.2945 0.19974 0.0
H340 H 0.54325 0.28846 0.04359 0.0
H341 H 0.5721 0.29364 0.10755 0.0
C342 C 0.21787 0.14615 0.8741 0.0
C343 C 0.23057 0.16431 0.87925 0.0
C344 C 0.2224 0.13082 0.83561 0.0
C345 C 0.25014 0.12304 0.7075 0.0
H346 H 0.24207 0.06366 0.74053 0.0
C347 C 0.27253 0.05423 0.56324 0.0
C348 C 0.2586 0.03696 0.56154 0.0
C349 C 0.26942 0.07059 0.60016 0.0
C350 C 0.24418 0.08019 0.73046 0.0
H351 H 0.25834 0.1803 0.84841 0.0
H352 H 0.2664 0.15332 0.78148 0.0
H353 H 0.23709 0.09012 0.81004 0.0
H354 H 0.22991 0.0237 0.59403 0.0
H355 H 0.22431 0.05223 0.65857 0.0
H356 H 0.25727 0.11297 0.62773 0.0
C357 C 0.25273 0.15115 0.80687 0.0
C358 C 0.24135 0.09537 0.77036 0.0
C359 C 0.24819 0.16654 0.84551 0.0
C360 C 0.24102 0.03673 0.59551 0.0
C361 C 0.23791 0.05299 0.63242 0.0
C362 C 0.25303 0.1078 0.6675 0.0
C363 C 0.23979 0.13317 0.80125 0.0
C364 C 0.24406 0.11701 0.7593 0.0
C365 C 0.25231 0.0699 0.63601 0.0
C366 C 0.24984 0.08622 0.67841 0.0
H367 H 0.20414 0.14388 0.89925 0.0
H368 H 0.21193 0.11733 0.83199 0.0
H369 H 0.25213 0.13958 0.69745 0.0
H370 H 0.28622 0.05461 0.53738 0.0
H371 H 0.28083 0.08335 0.60201 0.0
C372 C 0.35967 0.71661 0.38905 0.0
C373 C 0.33855 0.72251 0.37973 0.0
C374 C 0.37527 0.72078 0.35084 0.0
C375 C 0.38683 0.75446 0.23388 0.0
H376 H 0.42721 0.71052 0.19801 0.0
C377 C 0.45402 0.73413 0.06348 0.0
C378 C 0.4651 0.75334 0.06349 0.0
C379 C 0.43791 0.73061 0.10066 0.0
C380 C 0.41592 0.72288 0.20727 0.0
H381 H 0.3174 0.7379 0.32348 0.0
H382 H 0.34447 0.74506 0.25732 0.0
H383 H 0.40098 0.70414 0.26763 0.0
H384 H 0.46786 0.78416 0.10014 0.0
H385 H 0.43973 0.77817 0.16532 0.0
H386 H 0.40156 0.77311 0.17317 0.0
C387 C 0.34904 0.73731 0.2941 0.0
C388 C 0.40109 0.71933 0.24764 0.0
C389 C 0.33349 0.73307 0.332 0.0
C390 C 0.45942 0.76925 0.09976 0.0
C391 C 0.44331 0.76581 0.13673 0.0
C392 C 0.40169 0.75804 0.19371 0.0
C393 C 0.37008 0.73108 0.30281 0.0
C394 C 0.38635 0.73507 0.2613 0.0
C395 C 0.43258 0.74633 0.1382 0.0
C396 C 0.4164 0.74228 0.17988 0.0
H397 H 0.3641 0.70847 0.42541 0.0
H398 H 0.3914 0.71599 0.35894 0.0
H399 H 0.37579 0.76697 0.24374 0.0
H400 H 0.45833 0.72165 0.0359 0.0
H401 H 0.42975 0.71554 0.10035 0.0
C402 C 0.78717 0.86036 0.88244 0.0
C403 C 0.77382 0.84284 0.89022 0.0
C404 C 0.7825 0.87553 0.84371 0.0
C405 C 0.75169 0.88361 0.71956 0.0
H406 H 0.76397 0.94272 0.74745 0.0
C407 C 0.72715 0.95262 0.57862 0.0
C408 C 0.74175 0.96913 0.57277 0.0
C409 C 0.73101 0.93628 0.61504 0.0
C410 C 0.76067 0.92624 0.73879 0.0
H411 H 0.74473 0.82787 0.86389 0.0
H412 H 0.73637 0.85462 0.79683 0.0
H413 H 0.76978 0.91663 0.81728 0.0
H414 H 0.77235 0.98101 0.59653 0.0
H415 H 0.77929 0.95248 0.66039 0.0
H416 H 0.74238 0.89342 0.64101 0.0
C417 C 0.75069 0.85638 0.82014 0.0
C418 C 0.76399 0.91127 0.77887 0.0
C419 C 0.75541 0.84112 0.8589 0.0
C420 C 0.76078 0.96854 0.60144 0.0
C421 C 0.76463 0.95231 0.63797 0.0
C422 C 0.74826 0.89865 0.67946 0.0
C423 C 0.76427 0.87371 0.81182 0.0
C424 C 0.75974 0.88972 0.76969 0.0
C425 C 0.74958 0.93624 0.6461 0.0
C426 C 0.75291 0.92012 0.68849 0.0
H427 H 0.80154 0.8622 0.9056 0.0
H428 H 0.7935 0.88846 0.83797 0.0
H429 H 0.74849 0.86713 0.71082 0.0
H430 H 0.71245 0.95285 0.5564 0.0
H431 H 0.7191 0.92415 0.62038 0.0
C432 C 0.85959 0.79823 0.89948 0.0
C433 C 0.84039 0.78717 0.89549 0.0
C434 C 0.87525 0.79566 0.86051 0.0
C435 C 0.88191 0.7768 0.72058 0.0
H436 H 0.94159 0.77823 0.75587 0.0
C437 C 0.94845 0.75009 0.5767 0.0
C438 C 0.96661 0.7628 0.57474 0.0
C439 C 0.93249 0.75438 0.61377 0.0
C440 C 0.92497 0.77802 0.74539 0.0
H441 H 0.82297 0.76391 0.84931 0.0
H442 H 0.85042 0.75884 0.78281 0.0
H443 H 0.91543 0.78223 0.82658 0.0
H444 H 0.98195 0.79054 0.60735 0.0
H445 H 0.95425 0.79787 0.67312 0.0
H446 H 0.89159 0.77198 0.63951 0.0
C447 C 0.8532 0.77011 0.81465 0.0
C448 C 0.90995 0.78035 0.78588 0.0
C449 C 0.8375 0.77288 0.85309 0.0
C450 C 0.96821 0.78034 0.60893 0.0
C451 C 0.95242 0.78449 0.64642 0.0
C452 C 0.89693 0.77422 0.68023 0.0
C453 C 0.87211 0.78178 0.81714 0.0
C454 C 0.88821 0.77967 0.77407 0.0
C455 C 0.93456 0.77134 0.64981 0.0
C456 C 0.9186 0.77476 0.69224 0.0
H457 H 0.86222 0.80944 0.93156 0.0
H458 H 0.88952 0.80506 0.86357 0.0
H459 H 0.86534 0.77668 0.70965 0.0
H460 H 0.94702 0.73637 0.55102 0.0
H461 H 0.91895 0.74391 0.61569 0.0
C462 C 0.72838 0.36513 0.39203 0.0
C463 C 0.72921 0.34352 0.37863 0.0
C464 C 0.73322 0.3806 0.3539 0.0
C465 C 0.73521 0.38872 0.20825 0.0
H466 H 0.77068 0.43689 0.24273 0.0
C467 C 0.74629 0.4604 0.06694 0.0
C468 C 0.76671 0.46886 0.06322 0.0
C469 C 0.74183 0.44456 0.1042 0.0
C470 C 0.76085 0.42345 0.23243 0.0
H471 H 0.73622 0.3213 0.31475 0.0
H472 H 0.74457 0.34816 0.2489 0.0
H473 H 0.76271 0.41071 0.31156 0.0
H474 H 0.79877 0.46687 0.09255 0.0
H475 H 0.7911 0.43917 0.15822 0.0
H476 H 0.73347 0.40134 0.12907 0.0
C477 C 0.73996 0.35318 0.28856 0.0
C478 C 0.7561 0.4086 0.272 0.0
C479 C 0.73528 0.33777 0.32657 0.0
C480 C 0.78284 0.46071 0.09564 0.0
C481 C 0.77841 0.44499 0.13317 0.0
C482 C 0.73983 0.40364 0.16883 0.0
C483 C 0.73882 0.37476 0.30157 0.0
C484 C 0.74334 0.39099 0.26024 0.0
C485 C 0.75777 0.43697 0.13846 0.0
C486 C 0.7528 0.42111 0.18037 0.0
H487 H 0.72379 0.3701 0.43174 0.0
H488 H 0.73212 0.39713 0.36503 0.0
H489 H 0.72515 0.37543 0.19809 0.0
H490 H 0.73368 0.4666 0.04221 0.0
H491 H 0.72576 0.43878 0.10744 0.0
C492 C 0.16751 0.2352 0.84283 0.0
C493 C 0.16432 0.22113 0.88548 0.0
C494 C 0.15159 0.23871 0.80522 0.0
C495 C 0.10579 0.21335 0.74394 0.0
H496 H 0.09213 0.26992 0.69505 0.0
C497 C 0.03601 0.23007 0.601 0.0
C498 C 0.03789 0.24675 0.56448 0.0
C499 C 0.05175 0.22646 0.63907 0.0
C500 C 0.09598 0.25398 0.70751 0.0
H501 H 0.14174 0.19998 0.92268 0.0
H502 H 0.11388 0.20596 0.85625 0.0
H503 H 0.1182 0.26514 0.76573 0.0
H504 H 0.0579 0.27226 0.53736 0.0
H505 H 0.08601 0.26552 0.60236 0.0
H506 H 0.084 0.20207 0.68506 0.0
C507 C 0.12879 0.21425 0.85215 0.0
C508 C 0.11082 0.25127 0.74833 0.0
C509 C 0.14465 0.21095 0.89033 0.0
C510 C 0.05621 0.25923 0.56503 0.0
C511 C 0.0721 0.25553 0.60279 0.0
C512 C 0.09111 0.21602 0.7027 0.0
C513 C 0.13218 0.22805 0.809 0.0
C514 C 0.11586 0.23094 0.767 0.0
C515 C 0.06988 0.23935 0.64104 0.0
C516 C 0.08598 0.23638 0.68395 0.0
H517 H 0.18245 0.24337 0.83811 0.0
H518 H 0.15472 0.24932 0.77224 0.0
H519 H 0.10962 0.19746 0.75699 0.0
H520 H 0.02207 0.22013 0.60079 0.0
H521 H 0.04933 0.21399 0.66801 0.0
C522 C 0.28888 0.64693 0.36619 0.0
C523 C 0.27451 0.66329 0.37775 0.0
C524 C 0.2843 0.63192 0.32682 0.0
C525 C 0.24071 0.60792 0.2499 0.0
H526 H 0.2853 0.59291 0.15071 0.0
C527 C 0.22518 0.55308 0.06933 0.0
C528 C 0.2407 0.53789 0.05844 0.0
C529 C 0.22921 0.56937 0.10582 0.0
C530 C 0.27272 0.59675 0.17836 0.0
H531 H 0.24372 0.67627 0.35783 0.0
H532 H 0.23573 0.64999 0.28917 0.0
H533 H 0.2922 0.61882 0.22077 0.0
H534 H 0.27232 0.5273 0.0764 0.0
H535 H 0.27955 0.55559 0.14088 0.0
H536 H 0.2213 0.58564 0.20806 0.0
C537 C 0.25055 0.64881 0.3107 0.0
C538 C 0.27669 0.61161 0.21854 0.0
C539 C 0.25517 0.66391 0.34994 0.0
C540 C 0.26035 0.53918 0.08395 0.0
C541 C 0.26442 0.55539 0.12059 0.0
C542 C 0.23676 0.59298 0.20985 0.0
C543 C 0.26519 0.63281 0.29821 0.0
C544 C 0.26077 0.61728 0.25497 0.0
C545 C 0.24881 0.57058 0.13243 0.0
C546 C 0.25275 0.58712 0.17372 0.0
H547 H 0.30389 0.64588 0.3869 0.0
H548 H 0.29576 0.61959 0.31878 0.0
H549 H 0.22818 0.61178 0.27768 0.0
H550 H 0.20979 0.55199 0.05052 0.0
H551 H 0.21692 0.5809 0.11348 0.0
C552 C 0.33611 0.7419 0.65947 0.0
C553 C 0.33784 0.72437 0.62502 0.0
C554 C 0.35162 0.74586 0.69815 0.0
C555 C 0.40712 0.73364 0.73343 0.0
H556 H 0.38988 0.74844 0.87721 0.0
C557 C 0.46657 0.73318 0.90669 0.0
C558 C 0.4658 0.75011 0.94281 0.0
C559 C 0.45033 0.73013 0.86966 0.0
C560 C 0.39497 0.74454 0.83714 0.0
H561 H 0.35756 0.69755 0.6037 0.0
H562 H 0.38447 0.70445 0.67098 0.0
H563 H 0.36314 0.74375 0.80769 0.0
H564 H 0.44738 0.77676 0.97027 0.0
H565 H 0.41876 0.77159 0.90522 0.0
H566 H 0.43889 0.73443 0.76257 0.0
C567 C 0.3712 0.71521 0.66794 0.0
C568 C 0.37965 0.74188 0.79727 0.0
C569 C 0.35568 0.7112 0.62947 0.0
C570 C 0.44814 0.76353 0.94281 0.0
C571 C 0.43184 0.76054 0.90563 0.0
C572 C 0.42241 0.73632 0.77317 0.0
C573 C 0.36928 0.73248 0.70306 0.0
C574 C 0.38554 0.73623 0.74503 0.0
C575 C 0.43296 0.74403 0.86789 0.0
C576 C 0.41653 0.74162 0.82565 0.0
H577 H 0.32261 0.75241 0.65715 0.0
H578 H 0.34981 0.75945 0.72414 0.0
H579 H 0.41224 0.72966 0.69342 0.0
H580 H 0.47997 0.72251 0.90669 0.0
H581 H 0.45148 0.71697 0.84209 0.0
C582 C 0.77589 0.86494 0.1236 0.0
C583 C 0.77502 0.84332 0.13666 0.0
C584 C 0.771 0.88037 0.1619 0.0
C585 C 0.76889 0.88834 0.30759 0.0
H586 H 0.73361 0.93666 0.2736 0.0
C587 C 0.75821 0.96013 0.4493 0.0
C588 C 0.73783 0.96868 0.45313 0.0
C589 C 0.76256 0.94422 0.41201 0.0
C590 C 0.74338 0.92317 0.28377 0.0
H591 H 0.76787 0.82104 0.20011 0.0
H592 H 0.75943 0.84783 0.26629 0.0
H593 H 0.7415 0.91048 0.20449 0.0
H594 H 0.70574 0.96681 0.424 0.0
H595 H 0.71322 0.93899 0.35826 0.0
H596 H 0.77069 0.90092 0.3869 0.0
C597 C 0.76411 0.85289 0.22674 0.0
C598 C 0.74808 0.90832 0.24405 0.0
C599 C 0.76884 0.83752 0.18856 0.0
C600 C 0.72163 0.96056 0.42082 0.0
C601 C 0.72596 0.94478 0.38326 0.0
C602 C 0.76433 0.90325 0.34718 0.0
C603 C 0.7653 0.87448 0.21408 0.0
C604 C 0.76079 0.89067 0.25562 0.0
C605 C 0.74656 0.93667 0.37783 0.0
C606 C 0.75143 0.92078 0.3358 0.0
H607 H 0.78056 0.86996 0.08402 0.0
H608 H 0.77214 0.89692 0.15104 0.0
H609 H 0.77891 0.87501 0.31761 0.0
H610 H 0.77087 0.9663 0.47395 0.0
H611 H 0.7786 0.93837 0.40867 0.0
C612 C 0.645 0.2964 0.61459 0.0
C613 C 0.66473 0.28635 0.61971 0.0
C614 C 0.62917 0.29311 0.65273 0.0
C615 C 0.61138 0.25612 0.75659 0.0
H616 H 0.58405 0.30518 0.81892 0.0
C617 C 0.5563 0.24792 0.93853 0.0
C618 C 0.53793 0.26032 0.93867 0.0
C619 C 0.57227 0.25168 0.90112 0.0
C620 C 0.5913 0.29127 0.80154 0.0
H621 H 0.68302 0.26436 0.66761 0.0
H622 H 0.65533 0.25841 0.73339 0.0
H623 H 0.6098 0.30991 0.74754 0.0
H624 H 0.52208 0.28687 0.90195 0.0
H625 H 0.54945 0.29309 0.83531 0.0
H626 H 0.59269 0.23739 0.80952 0.0
C627 C 0.65214 0.26892 0.70023 0.0
C628 C 0.60606 0.29401 0.76062 0.0
C629 C 0.66803 0.27243 0.66267 0.0
C630 C 0.53606 0.27698 0.90206 0.0
C631 C 0.55187 0.28064 0.86432 0.0
C632 C 0.59646 0.25335 0.79707 0.0
C633 C 0.63266 0.27943 0.69611 0.0
C634 C 0.61632 0.27647 0.73789 0.0
C635 C 0.57007 0.26784 0.8628 0.0
C636 C 0.58626 0.27089 0.82028 0.0
H637 H 0.642 0.30725 0.58202 0.0
H638 H 0.61421 0.30127 0.64837 0.0
H639 H 0.6189 0.24229 0.73944 0.0
H640 H 0.558 0.23491 0.96627 0.0
H641 H 0.58622 0.24176 0.90191 0.0
C642 C 0.22682 0.14159 0.11262 0.0
C643 C 0.22972 0.16317 0.12438 0.0
C644 C 0.23164 0.12612 0.15077 0.0
C645 C 0.2375 0.11946 0.29629 0.0
H646 H 0.26614 0.06726 0.2591 0.0
C647 C 0.24462 0.04848 0.4409 0.0
C648 C 0.26386 0.03747 0.4413 0.0
C649 C 0.24098 0.06443 0.40336 0.0
C650 C 0.25827 0.08184 0.27017 0.0
H651 H 0.24067 0.18529 0.18491 0.0
H652 H 0.24909 0.15843 0.25071 0.0
H653 H 0.25899 0.09353 0.18994 0.0
H654 H 0.2947 0.03484 0.40495 0.0
H655 H 0.28848 0.06279 0.33908 0.0
H656 H 0.23694 0.1079 0.37654 0.0
C657 C 0.24276 0.15345 0.2125 0.0
C658 C 0.25396 0.09676 0.23044 0.0
C659 C 0.23803 0.16885 0.17453 0.0
C660 C 0.27968 0.04307 0.40482 0.0
C661 C 0.27606 0.05893 0.36712 0.0
C662 C 0.24171 0.10451 0.33592 0.0
C663 C 0.23938 0.13193 0.2014 0.0
C664 C 0.24362 0.11579 0.24312 0.0
C665 C 0.25654 0.06957 0.36542 0.0
C666 C 0.2522 0.08556 0.32337 0.0
H667 H 0.22048 0.13667 0.07439 0.0
H668 H 0.22879 0.10965 0.14112 0.0
H669 H 0.22928 0.13386 0.30725 0.0
H670 H 0.23213 0.04417 0.46832 0.0
H671 H 0.22572 0.07219 0.40284 0.0
C672 C 0.20824 0.2943 0.96049 0.0
C673 C 0.22025 0.28341 0.99888 0.0
C674 C 0.20724 0.31644 0.96113 0.0
C675 C 0.21807 0.36292 0.04899 0.0
H676 H 0.219 0.39385 0.91546 0.0
C677 C 0.2396 0.4514 0.0343 0.0
C678 C 0.22656 0.46412 1.00233 0.0
C679 C 0.23705 0.42944 0.03465 0.0
C680 C 0.21851 0.3854 0.95303 0.0
H681 H 0.2408 0.28724 0.0677 0.0
H682 H 0.2396 0.32559 0.0678 0.0
H683 H 0.21794 0.35523 0.91416 0.0
H684 H 0.20044 0.46413 0.94653 0.0
H685 H 0.19632 0.42552 0.94577 0.0
H686 H 0.2194 0.39315 0.08767 0.0
C687 C 0.23044 0.31716 0.03806 0.0
C688 C 0.21782 0.36327 0.95235 0.0
C689 C 0.23125 0.29511 0.03776 0.0
C690 C 0.21088 0.45456 0.9708 0.0
C691 C 0.2085 0.43255 0.97054 0.0
C692 C 0.21902 0.385 0.04961 0.0
C693 C 0.21838 0.32816 0.9999 0.0
C694 C 0.21783 0.35173 1.00035 0.0
C695 C 0.22158 0.41979 1.00246 0.0
C696 C 0.21944 0.39644 1.00167 0.0
H697 H 0.19948 0.28573 0.93021 0.0
H698 H 0.19758 0.32434 0.93154 0.0
H699 H 0.21758 0.35463 0.08675 0.0
H700 H 0.252 0.45845 0.05825 0.0
H701 H 0.24751 0.41996 0.05915 0.0
C702 C 0.20666 0.7142 0.55129 0.0
C703 C 0.21822 0.72121 0.50677 0.0
C704 C 0.18459 0.71594 0.55219 0.0
C705 C 0.14142 0.74693 0.49256 0.0
H706 H 0.1051 0.70218 0.54531 0.0
C707 C 0.04709 0.72474 0.49626 0.0
C708 C 0.03884 0.74409 0.51412 0.0
C709 C 0.06894 0.72129 0.49613 0.0
C710 C 0.11505 0.71476 0.53021 0.0
H711 H 0.2155 0.73495 0.42762 0.0
H712 H 0.1772 0.73792 0.42933 0.0
H713 H 0.14344 0.6969 0.54315 0.0
H714 H 0.04655 0.77501 0.54544 0.0
H715 H 0.08481 0.7691 0.54554 0.0
H716 H 0.11316 0.76475 0.47921 0.0
C717 C 0.18519 0.73135 0.46381 0.0
C718 C 0.13699 0.71182 0.52946 0.0
C719 C 0.20717 0.72953 0.46279 0.0
C720 C 0.05268 0.75996 0.53175 0.0
C721 C 0.0745 0.75659 0.5314 0.0
C722 C 0.11956 0.74992 0.49364 0.0
C723 C 0.17366 0.72482 0.50871 0.0
C724 C 0.15039 0.72785 0.51039 0.0
C725 C 0.08289 0.73723 0.51353 0.0
C726 C 0.10612 0.73388 0.51241 0.0
H727 H 0.21467 0.70764 0.58576 0.0
H728 H 0.17612 0.71086 0.58746 0.0
H729 H 0.15134 0.75968 0.47818 0.0
H730 H 0.03658 0.71231 0.48274 0.0
H731 H 0.07494 0.70629 0.48169 0.0
C732 C 0.79635 0.71276 0.96729 0.0
C733 C 0.78456 0.72351 0.00636 0.0
C734 C 0.79704 0.69061 0.96658 0.0
C735 C 0.78573 0.64357 0.05175 0.0
H736 H 0.78456 0.61361 0.91658 0.0
C737 C 0.76438 0.55519 0.0339 0.0
C738 C 0.77773 0.5426 1.00243 0.0
C739 C 0.76655 0.57718 0.03417 0.0
C740 C 0.78509 0.62179 0.95459 0.0
H741 H 0.76409 0.71938 0.075 0.0
H742 H 0.76476 0.68103 0.07279 0.0
H743 H 0.78593 0.65224 0.91738 0.0
H744 H 0.80372 0.54292 0.9465 0.0
H745 H 0.80721 0.58162 0.9456 0.0
H746 H 0.78417 0.61308 0.08878 0.0
C747 C 0.77399 0.68957 0.04353 0.0
C748 C 0.78596 0.64392 0.95513 0.0
C749 C 0.77348 0.71164 0.04458 0.0
C750 C 0.79313 0.55238 0.97061 0.0
C751 C 0.79513 0.57443 0.97023 0.0
C752 C 0.78459 0.6215 0.05116 0.0
C753 C 0.78582 0.67872 0.00466 0.0
C754 C 0.78607 0.65512 1.00376 0.0
C755 C 0.78193 0.58703 1.00228 0.0
C756 C 0.78408 0.6104 1.00261 0.0
H757 H 0.80516 0.72146 0.93746 0.0
H758 H 0.80654 0.68283 0.93647 0.0
H759 H 0.78631 0.65156 0.08998 0.0
H760 H 0.75219 0.54794 0.05804 0.0
H761 H 0.75599 0.58653 0.0587 0.0
C762 C 0.79782 0.29524 0.4607 0.0
C763 C 0.78592 0.28359 0.49777 0.0
C764 C 0.81992 0.29408 0.4608 0.0
C765 C 0.86536 0.27661 0.54538 0.0
H766 H 0.89588 0.27748 0.41127 0.0
C767 C 0.95182 0.24914 0.52457 0.0
C768 C 0.96562 0.26312 0.49859 0.0
C769 C 0.93005 0.25276 0.52414 0.0
C770 C 0.88753 0.27739 0.44899 0.0
H771 H 0.78787 0.26137 0.5635 0.0
H772 H 0.82613 0.25871 0.56242 0.0
H773 H 0.85749 0.28162 0.41121 0.0
H774 H 0.96761 0.29171 0.45147 0.0
H775 H 0.92925 0.29772 0.449 0.0
H776 H 0.89543 0.27155 0.58274 0.0
C777 C 0.81859 0.26932 0.53432 0.0
C778 C 0.86555 0.27986 0.44909 0.0
C779 C 0.79657 0.27072 0.53473 0.0
C780 C 0.95723 0.2806 0.47125 0.0
C781 C 0.93538 0.28405 0.47001 0.0
C782 C 0.88725 0.27381 0.54514 0.0
C783 C 0.83061 0.28103 0.49752 0.0
C784 C 0.85413 0.27934 0.4973 0.0
C785 C 0.92162 0.27025 0.49689 0.0
C786 C 0.89852 0.27404 0.49696 0.0
H787 H 0.79006 0.30542 0.43195 0.0
H788 H 0.82861 0.30359 0.43239 0.0
H789 H 0.85726 0.27665 0.58341 0.0
H790 H 0.95793 0.23536 0.54506 0.0
H791 H 0.91975 0.24175 0.5446 0.0
C792 C 0.73165 0.21168 0.46952 0.0
C793 C 0.72057 0.22358 0.50777 0.0
C794 C 0.73124 0.18961 0.47066 0.0
C795 C 0.71946 0.14412 0.5595 0.0
H796 H 0.72131 0.11289 0.42619 0.0
C797 C 0.71197 0.05258 0.54509 0.0
C798 C 0.72732 0.04262 0.51341 0.0
C799 C 0.71009 0.07465 0.54519 0.0
C800 C 0.72088 0.12142 0.46372 0.0
H801 H 0.70002 0.22155 0.57677 0.0
H802 H 0.69879 0.18293 0.57789 0.0
H803 H 0.71918 0.15137 0.42458 0.0
H804 H 0.7529 0.04765 0.45777 0.0
H805 H 0.74931 0.08626 0.45663 0.0
H806 H 0.7208 0.11392 0.59838 0.0
C807 C 0.70824 0.19069 0.54772 0.0
C808 C 0.71975 0.14349 0.46289 0.0
C809 C 0.70885 0.21284 0.54693 0.0
C810 C 0.74075 0.05504 0.48181 0.0
C811 C 0.73869 0.07704 0.48127 0.0
C812 C 0.72031 0.12199 0.56028 0.0
C813 C 0.7195 0.17878 0.50965 0.0
C814 C 0.71935 0.15518 0.51076 0.0
C815 C 0.72336 0.08708 0.513 0.0
C816 C 0.72133 0.11045 0.51239 0.0
H817 H 0.74099 0.21942 0.43903 0.0
H818 H 0.74049 0.18105 0.44138 0.0
H819 H 0.71947 0.15254 0.59717 0.0
H820 H 0.70132 0.04326 0.56928 0.0
H821 H 0.69803 0.08197 0.5697 0.0
C822 C 0.29646 0.2362 0.96875 0.0
C823 C 0.28593 0.22329 0.00574 0.0
C824 C 0.31848 0.2376 0.96889 0.0
C825 C 0.36569 0.22697 0.05354 0.0
H826 H 0.3952 0.23543 0.91967 0.0
C827 C 0.45729 0.22631 0.03097 0.0
C828 C 0.46564 0.2438 1.00365 0.0
C829 C 0.43544 0.22284 0.0322 0.0
C830 C 0.38713 0.23313 0.95734 0.0
H831 H 0.29028 0.20136 0.0713 0.0
H832 H 0.32882 0.20318 0.0704 0.0
H833 H 0.35702 0.23034 0.91934 0.0
H834 H 0.45786 0.27153 0.95709 0.0
H835 H 0.41969 0.26511 0.95752 0.0
H836 H 0.39613 0.22931 0.0911 0.0
C837 C 0.32005 0.21273 0.04218 0.0
C838 C 0.36523 0.23033 0.95729 0.0
C839 C 0.29794 0.21158 0.04254 0.0
C840 C 0.4518 0.25774 0.97757 0.0
C841 C 0.43002 0.2541 0.97799 0.0
C842 C 0.38768 0.22944 0.05345 0.0
C843 C 0.33062 0.22584 0.00545 0.0
C844 C 0.35414 0.22754 0.00545 0.0
C845 C 0.42164 0.23662 0.00531 0.0
C846 C 0.39854 0.23285 0.00541 0.0
H847 H 0.28767 0.24559 0.94018 0.0
H848 H 0.32593 0.24823 0.94079 0.0
H849 H 0.35774 0.22516 0.09149 0.0
H850 H 0.4677 0.21523 0.05082 0.0
H851 H 0.42936 0.20918 0.05324 0.0
C852 C 0.28287 0.79347 0.54582 0.0
C853 C 0.28283 0.78235 0.49726 0.0
C854 C 0.28285 0.81557 0.54644 0.0
C855 C 0.29159 0.86293 0.46059 0.0
H856 H 0.25876 0.89058 0.57103 0.0
C857 C 0.25503 0.95065 0.51701 0.0
C858 C 0.27206 0.96341 0.50172 0.0
C859 C 0.25689 0.92863 0.51614 0.0
C860 C 0.26781 0.88317 0.53948 0.0
H861 H 0.28302 0.78566 0.41115 0.0
H862 H 0.28222 0.82422 0.41208 0.0
H863 H 0.26073 0.85228 0.56877 0.0
H864 H 0.30434 0.96367 0.47396 0.0
H865 H 0.3081 0.92508 0.47409 0.0
H866 H 0.29778 0.89385 0.42976 0.0
C867 C 0.28279 0.81593 0.44983 0.0
C868 C 0.26926 0.86112 0.53873 0.0
C869 C 0.28313 0.7938 0.44924 0.0
C870 C 0.29105 0.95394 0.48569 0.0
C871 C 0.29306 0.9319 0.48546 0.0
C872 C 0.28992 0.88501 0.46094 0.0
C873 C 0.28247 0.82712 0.49848 0.0
C874 C 0.28119 0.85068 0.49934 0.0
C875 C 0.27598 0.91893 0.50063 0.0
C876 C 0.27799 0.89543 0.50038 0.0
H877 H 0.28293 0.78509 0.58352 0.0
H878 H 0.28315 0.82357 0.58468 0.0
H879 H 0.30114 0.85551 0.43001 0.0
H880 H 0.2402 0.9578 0.5289 0.0
H881 H 0.24324 0.91925 0.52696 0.0
C882 C 0.70851 0.7708 0.97642 0.0
C883 C 0.7189 0.78338 0.0146 0.0
C884 C 0.68649 0.76955 0.97544 0.0
C885 C 0.63884 0.77977 0.05828 0.0
H886 H 0.61012 0.77323 0.92234 0.0
C887 C 0.5476 0.78185 0.03352 0.0
C888 C 0.53901 0.7649 1.00438 0.0
C889 C 0.56946 0.78507 0.03501 0.0
C890 C 0.61796 0.77497 0.96057 0.0
H891 H 0.7143 0.80478 0.08125 0.0
H892 H 0.67575 0.80319 0.07851 0.0
H893 H 0.64837 0.77779 0.92433 0.0
H894 H 0.54635 0.73799 0.9543 0.0
H895 H 0.58462 0.74398 0.95533 0.0
H896 H 0.60817 0.77739 0.09413 0.0
C897 C 0.68464 0.79382 0.05014 0.0
C898 C 0.6399 0.77748 0.96184 0.0
C899 C 0.70675 0.79484 0.05158 0.0
C900 C 0.55262 0.75136 0.97629 0.0
C901 C 0.57444 0.75475 0.97705 0.0
C902 C 0.61684 0.77758 0.0569 0.0
C903 C 0.67422 0.78111 0.0121 0.0
C904 C 0.65069 0.77962 0.01076 0.0
C905 C 0.58307 0.77158 0.00664 0.0
C906 C 0.60625 0.7749 0.00806 0.0
H907 H 0.7174 0.76161 0.94764 0.0
H908 H 0.67913 0.75922 0.94634 0.0
H909 H 0.64657 0.78106 0.09674 0.0
H910 H 0.53735 0.79263 0.05492 0.0
H911 H 0.57572 0.79826 0.05775 0.0
loop_
_geom_bond_atom_site_label_1
_geom_bond_atom_site_label_2
_geom_bond_distance
_geom_bond_site_symmetry_2
_ccdc_geom_bond_type
Fe0 O2 1.920 . S
Fe0 O5 1.997 . S
Fe0 O6 2.002 . S
Fe0 O11 1.976 . S
Fe0 O14 1.996 . S
Fe1 O2 1.917 1_556 S
Fe1 O9 1.997 . S
Fe1 O12 1.996 . S
Fe1 O16 1.976 . S
Fe1 O19 2.002 . S
O2 Fe0 1.920 . S
O2 Fe1 1.917 1_554 S
O2 Fe3 1.918 1_554 S
Fe3 O2 1.918 1_556 S
Fe3 O4 1.998 1_556 S
Fe3 O13 1.971 1_556 S
Fe3 O17 2.001 . S
Fe3 O20 2.001 . S
O4 Fe3 1.998 1_554 S
O4 C21 1.295 . S
O5 Fe0 1.997 . S
O5 C21 1.235 . S
O6 Fe0 2.002 . S
O6 C7 1.295 . S
C7 O6 1.295 . S
C7 O9 1.235 1_554 S
C8 O13 1.287 . S
C8 O14 1.255 . S
O9 Fe1 1.997 . S
O9 C7 1.235 1_556 S
C10 O16 1.287 . S
C10 O17 1.255 . S
O11 Fe0 1.976 . S
O11 C18 1.287 1_554 S
O12 Fe1 1.996 . S
O12 C18 1.255 . S
O13 Fe3 1.971 1_554 S
O13 C8 1.287 . S
O14 Fe0 1.996 . S
O14 C8 1.255 . S
C15 O19 1.295 . S
C15 O20 1.235 . S
O16 Fe1 1.976 . S
O16 C10 1.287 . S
O17 Fe3 2.001 . S
O17 C10 1.255 . S
C18 O11 1.287 1_556 S
C18 O12 1.255 . S
O19 Fe1 2.002 . S
O19 C15 1.295 . S
O20 Fe3 2.001 . S
O20 C15 1.235 . S
C21 O4 1.295 . S
C21 O5 1.235 . S
Fe22 O24 1.918 . S
Fe22 O27 1.997 . S
Fe22 O28 2.002 . S
Fe22 O33 1.976 . S
Fe22 O36 1.996 . S
Fe23 O24 1.918 . S
Fe23 O31 1.997 . S
Fe23 O34 1.996 . S
Fe23 O38 1.976 . S
Fe23 O41 2.002 . S
O24 Fe22 1.918 . S
O24 Fe23 1.918 . S
O24 Fe25 1.918 . S
Fe25 O24 1.918 . S
Fe25 O26 2.002 . S
Fe25 O35 1.976 . S
Fe25 O39 1.996 . S
Fe25 O42 1.997 . S
O26 Fe25 2.002 . S
O26 C43 1.295 . S
O27 Fe22 1.997 . S
O27 C43 1.235 . S
O28 Fe22 2.002 . S
O28 C29 1.295 . S
C29 O28 1.295 . S
C29 O31 1.235 . S
C30 O35 1.287 . S
C30 O36 1.255 . S
O31 Fe23 1.997 . S
O31 C29 1.235 . S
C32 O38 1.287 . S
C32 O39 1.255 . S
O33 Fe22 1.976 . S
O33 C40 1.287 . S
O34 Fe23 1.996 . S
O34 C40 1.255 . S
O35 Fe25 1.976 . S
O35 C30 1.287 . S
O36 Fe22 1.996 . S
O36 C30 1.255 . S
C37 O41 1.295 . S
C37 O42 1.235 . S
O38 Fe23 1.976 . S
O38 C32 1.287 . S
O39 Fe25 1.996 . S
O39 C32 1.255 . S
C40 O33 1.287 . S
C40 O34 1.255 . S
O41 Fe23 2.002 . S
O41 C37 1.295 . S
O42 Fe25 1.997 . S
O42 C37 1.235 . S
C43 O26 1.295 . S
C43 O27 1.235 . S
Fe44 O46 1.909 1_556 S
Fe44 O49 1.997 . S
Fe44 O50 2.002 . S
Fe44 O55 1.976 . S
Fe44 O58 1.996 . S
Fe45 O46 1.928 . S
Fe45 O53 1.997 . S
Fe45 O56 1.996 . S
Fe45 O60 1.976 . S
Fe45 O63 2.002 . S
O46 Fe44 1.909 1_554 S
O46 Fe45 1.928 . S
O46 Fe47 1.918 . S
Fe47 O46 1.918 . S
Fe47 O48 2.002 1_554 S
Fe47 O57 1.976 1_554 S
Fe47 O61 1.996 . S
Fe47 O64 1.997 . S
O48 Fe47 2.002 1_556 S
O48 C65 1.295 . S
O49 Fe44 1.997 . S
O49 C65 1.235 . S
O50 Fe44 2.002 . S
O50 C51 1.314 . S
C51 O50 1.314 . S
C51 O53 1.217 1_556 S
C52 O57 1.287 . S
C52 O58 1.255 . S
O53 Fe45 1.997 . S
O53 C51 1.217 1_554 S
C54 O60 1.287 . S
C54 O61 1.255 . S
O55 Fe44 1.976 . S
O55 C62 1.287 1_556 S
O56 Fe45 1.996 . S
O56 C62 1.255 . S
O57 Fe47 1.976 1_556 S
O57 C52 1.287 . S
O58 Fe44 1.996 . S
O58 C52 1.255 . S
C59 O63 1.295 . S
C59 O64 1.235 . S
O60 Fe45 1.976 . S
O60 C54 1.287 . S
O61 Fe47 1.996 . S
O61 C54 1.255 . S
C62 O55 1.287 1_554 S
C62 O56 1.255 . S
O63 Fe45 2.002 . S
O63 C59 1.295 . S
O64 Fe47 1.997 . S
O64 C59 1.235 . S
C65 O48 1.295 . S
C65 O49 1.235 . S
Fe66 O68 1.918 . S
Fe66 O71 1.997 . S
Fe66 O72 2.002 . S
Fe66 O77 1.976 . S
Fe66 O80 1.996 . S
Fe67 O68 1.918 . S
Fe67 O75 1.997 . S
Fe67 O78 1.996 . S
Fe67 O82 1.976 . S
Fe67 O85 2.002 . S
O68 Fe66 1.918 . S
O68 Fe67 1.918 . S
O68 Fe69 1.918 . S
Fe69 O68 1.918 . S
Fe69 O70 2.002 . S
Fe69 O79 1.976 . S
Fe69 O83 1.996 . S
Fe69 O86 1.997 . S
O70 Fe69 2.002 . S
O70 C87 1.295 . S
O71 Fe66 1.997 . S
O71 C87 1.235 . S
O72 Fe66 2.002 . S
O72 C73 1.295 . S
C73 O72 1.295 . S
C73 O75 1.235 . S
C74 O79 1.287 . S
C74 O80 1.255 . S
O75 Fe67 1.997 . S
O75 C73 1.235 . S
C76 O82 1.287 . S
C76 O83 1.255 . S
O77 Fe66 1.976 . S
O77 C84 1.287 . S
O78 Fe67 1.996 . S
O78 C84 1.255 . S
O79 Fe69 1.976 . S
O79 C74 1.287 . S
O80 Fe66 1.996 . S
O80 C74 1.255 . S
C81 O85 1.295 . S
C81 O86 1.235 . S
O82 Fe67 1.976 . S
O82 C76 1.287 . S
O83 Fe69 1.996 . S
O83 C76 1.255 . S
C84 O77 1.287 . S
C84 O78 1.255 . S
O85 Fe67 2.002 . S
O85 C81 1.295 . S
O86 Fe69 1.997 . S
O86 C81 1.235 . S
C87 O70 1.295 . S
C87 O71 1.235 . S
C88 N89 1.317 . S
C88 N90 1.359 . S
C88 C91 1.485 . S
N89 C88 1.317 . S
N89 N93 1.370 1_556 S
N90 C88 1.359 . S
N90 C92 1.335 1_556 S
C91 C88 1.485 . S
C91 H95 0.960 . S
C91 H96 0.961 . S
C91 H97 0.960 . S
C92 N90 1.335 1_554 S
C92 N93 1.307 . S
C92 C94 1.486 . S
N93 N89 1.370 1_554 S
N93 C92 1.307 . S
C94 C92 1.486 . S
C94 H98 0.960 . S
C94 H99 0.960 . S
C94 H100 0.959 . S
H95 C91 0.960 . S
H96 C91 0.961 . S
H97 C91 0.960 . S
H98 C94 0.960 . S
H99 C94 0.960 . S
H100 C94 0.959 . S
C101 N102 1.317 1_455 S
C101 N103 1.348 . S
C101 C104 1.485 . S
N102 C101 1.317 1_655 S
N102 N106 1.370 . S
N103 C101 1.348 . S
N103 C105 1.346 . S
C104 C101 1.485 . S
C104 H108 0.960 . S
C104 H109 0.961 . S
C104 H110 0.957 1_455 S
C105 N103 1.346 . S
C105 N106 1.307 1_455 S
C105 C107 1.486 . S
N106 N102 1.370 . S
N106 C105 1.307 1_655 S
C107 C105 1.486 . S
C107 H111 0.960 . S
C107 H112 0.960 . S
C107 H113 0.959 . S
H108 C104 0.960 . S
H109 C104 0.961 . S
H110 C104 0.957 1_655 S
H111 C107 0.960 . S
H112 C107 0.960 . S
H113 C107 0.959 . S
C114 N115 1.317 . S
C114 N116 1.348 . S
C114 C117 1.485 . S
N115 C114 1.317 . S
N115 N119 1.370 1_554 S
N116 C114 1.348 . S
N116 C118 1.346 1_554 S
C117 C114 1.485 . S
C117 H121 0.960 . S
C117 H122 0.961 . S
C117 H123 0.960 . S
C118 N116 1.346 1_556 S
C118 N119 1.307 . S
C118 C120 1.486 . S
N119 N115 1.370 1_556 S
N119 C118 1.307 . S
C120 C118 1.486 . S
C120 H124 0.960 . S
C120 H125 0.960 . S
C120 H126 0.959 . S
H121 C117 0.960 . S
H122 C117 0.961 . S
H123 C117 0.960 . S
H124 C120 0.960 . S
H125 C120 0.960 . S
H126 C120 0.959 . S
C127 N128 1.317 1_655 S
C127 N129 1.348 . S
C127 C130 1.485 . S
N128 C127 1.317 1_455 S
N128 N132 1.370 . S
N129 C127 1.348 . S
N129 C131 1.346 . S
C130 C127 1.485 . S
C130 H134 0.960 . S
C130 H135 0.961 . S
C130 H136 0.968 . S
C131 N129 1.346 . S
C131 N132 1.307 1_655 S
C131 C133 1.486 . S
N132 N128 1.370 . S
N132 C131 1.307 1_455 S
C133 C131 1.486 . S
C133 H137 0.960 . S
C133 H138 0.960 . S
C133 H139 0.959 1_655 S
H134 C130 0.960 . S
H135 C130 0.961 . S
H136 C130 0.968 . S
H137 C133 0.960 . S
H138 C133 0.960 . S
H139 C133 0.959 1_455 S
C140 N141 1.317 1_545 S
C140 N142 1.348 . S
C140 C143 1.485 . S
N141 C140 1.317 1_565 S
N141 N145 1.370 . S
N142 C140 1.348 . S
N142 C144 1.346 . S
C143 C140 1.485 . S
C143 H147 0.960 . S
C143 H148 0.961 . S
C143 H149 0.960 . S
C144 N142 1.346 . S
C144 N145 1.307 1_545 S
C144 C146 1.486 . S
N145 N141 1.370 . S
N145 C144 1.307 1_565 S
C146 C144 1.486 . S
C146 H150 0.960 . S
C146 H151 0.960 . S
C146 H152 0.994 . S
H147 C143 0.960 . S
H148 C143 0.961 . S
H149 C143 0.960 . S
H150 C146 0.960 . S
H151 C146 0.960 . S
H152 C146 0.994 . S
C153 N154 1.317 . S
C153 N155 1.359 . S
C153 C156 1.485 . S
N154 C153 1.317 . S
N154 N158 1.370 1_556 S
N155 C153 1.359 . S
N155 C157 1.336 1_556 S
C156 C153 1.485 . S
C156 H160 0.960 . S
C156 H161 0.961 . S
C156 H162 0.960 . S
C157 N155 1.336 1_554 S
C157 N158 1.307 . S
C157 C159 1.486 . S
N158 N154 1.370 1_554 S
N158 C157 1.307 . S
C159 C157 1.486 . S
C159 H163 0.960 . S
C159 H164 0.960 . S
C159 H165 0.959 . S
H160 C156 0.960 . S
H161 C156 0.961 . S
H162 C156 0.960 . S
H163 C159 0.960 . S
H164 C159 0.960 . S
H165 C159 0.959 . S
C166 N167 1.317 1_565 S
C166 N168 1.348 . S
C166 C169 1.485 . S
N167 C166 1.317 1_545 S
N167 N171 1.370 . S
N168 C166 1.348 . S
N168 C170 1.346 . S
C169 C166 1.485 . S
C169 H173 0.960 . S
C169 H174 0.961 . S
C169 H175 0.960 1_565 S
C170 N168 1.346 . S
C170 N171 1.307 1_565 S
C170 C172 1.486 . S
N171 N167 1.370 . S
N171 C170 1.307 1_545 S
C172 C170 1.486 . S
C172 H176 0.960 . S
C172 H177 0.960 . S
C172 H178 0.977 . S
H173 C169 0.960 . S
H174 C169 0.961 . S
H175 C169 0.960 1_545 S
H176 C172 0.960 . S
H177 C172 0.960 . S
H178 C172 0.977 . S
C179 N180 1.317 . S
C179 N181 1.348 . S
C179 C182 1.485 . S
N180 C179 1.317 . S
N180 N184 1.370 1_554 S
N181 C179 1.348 . S
N181 C183 1.346 1_554 S
C182 C179 1.485 . S
C182 H186 0.960 . S
C182 H187 0.961 . S
C182 H188 0.960 . S
C183 N181 1.346 1_556 S
C183 N184 1.307 . S
C183 C185 1.486 . S
N184 N180 1.370 1_556 S
N184 C183 1.307 . S
C185 C183 1.486 . S
C185 H189 0.960 . S
C185 H190 0.960 . S
C185 H191 0.959 . S
H186 C182 0.960 . S
H187 C182 0.961 . S
H188 C182 0.960 . S
H189 C185 0.960 . S
H190 C185 0.960 . S
H191 C185 0.959 . S
C192 C193 1.349 . S
C192 C194 1.327 . S
C192 H217 0.950 . S
C193 C192 1.349 . S
C193 C209 1.349 . S
C194 C192 1.327 . S
C194 C213 1.429 . S
C194 H218 0.950 . S
C195 C212 1.574 . S
C195 C214 1.368 . S
C195 H219 0.949 . S
H196 C200 0.949 . S
C197 C198 1.349 . S
C197 C199 1.327 . S
C197 H220 0.950 . S
C198 C197 1.349 . S
C198 C210 1.349 . S
C199 C197 1.327 . S
C199 C215 1.429 . S
C199 H221 0.950 . S
C200 H196 0.949 . S
C200 C208 1.574 . S
C200 C216 1.368 . S
H201 C209 0.950 . S
H202 C207 0.950 . S
H203 C208 0.949 . S
H204 C210 0.950 . S
H205 C211 0.950 . S
H206 C212 0.949 . S
C207 H202 0.950 . S
C207 C209 1.327 . S
C207 C213 1.429 . S
C208 C200 1.574 . S
C208 H203 0.949 . S
C208 C214 1.368 . S
C209 C193 1.349 . S
C209 H201 0.950 . S
C209 C207 1.327 . S
C210 C198 1.349 . S
C210 H204 0.950 . S
C210 C211 1.327 . S
C211 H205 0.950 . S
C211 C210 1.327 . S
C211 C215 1.429 . S
C212 C195 1.574 . S
C212 H206 0.949 . S
C212 C216 1.368 . S
C213 C194 1.429 . S
C213 C207 1.429 . S
C213 C214 1.523 . S
C214 C195 1.368 . S
C214 C208 1.368 . S
C214 C213 1.523 . S
C215 C199 1.429 . S
C215 C211 1.429 . S
C215 C216 1.523 . S
C216 C200 1.368 . S
C216 C212 1.368 . S
C216 C215 1.523 . S
H217 C192 0.950 . S
H218 C194 0.950 . S
H219 C195 0.949 . S
H220 C197 0.950 . S
H221 C199 0.950 . S
C222 C223 1.349 . S
C222 C224 1.327 . S
C222 H247 0.950 . S
C223 C222 1.349 . S
C223 C239 1.349 . S
C224 C222 1.327 . S
C224 C243 1.429 . S
C224 H248 0.950 . S
C225 C242 1.574 . S
C225 C244 1.368 . S
C225 H249 0.949 . S
H226 C230 0.949 . S
C227 C228 1.349 . S
C227 C229 1.327 . S
C227 H250 0.950 . S
C228 C227 1.349 . S
C228 C240 1.349 . S
C229 C227 1.327 . S
C229 C245 1.429 . S
C229 H251 0.950 . S
C230 H226 0.949 . S
C230 C238 1.574 . S
C230 C246 1.368 . S
H231 C239 0.950 . S
H232 C237 0.950 . S
H233 C238 0.949 . S
H234 C240 0.950 . S
H235 C241 0.950 . S
H236 C242 0.949 . S
C237 H232 0.950 . S
C237 C239 1.327 . S
C237 C243 1.429 . S
C238 C230 1.574 . S
C238 H233 0.949 . S
C238 C244 1.368 . S
C239 C223 1.349 . S
C239 H231 0.950 . S
C239 C237 1.327 . S
C240 C228 1.349 . S
C240 H234 0.950 . S
C240 C241 1.327 . S
C241 H235 0.950 . S
C241 C240 1.327 . S
C241 C245 1.429 . S
C242 C225 1.574 . S
C242 H236 0.949 . S
C242 C246 1.368 . S
C243 C224 1.429 . S
C243 C237 1.429 . S
C243 C244 1.523 . S
C244 C225 1.368 . S
C244 C238 1.368 . S
C244 C243 1.523 . S
C245 C229 1.429 . S
C245 C241 1.429 . S
C245 C246 1.523 . S
C246 C230 1.368 . S
C246 C242 1.368 . S
C246 C245 1.523 . S
H247 C222 0.950 . S
H248 C224 0.950 . S
H249 C225 0.949 . S
H250 C227 0.950 . S
H251 C229 0.950 . S
C252 C253 1.349 . S
C252 C254 1.327 . S
C252 H277 0.950 . S
C253 C252 1.349 . S
C253 C269 1.349 . S
C254 C252 1.327 . S
C254 C273 1.429 . S
C254 H278 0.950 . S
C255 C272 1.574 . S
C255 C274 1.368 . S
C255 H279 0.949 . S
H256 C260 0.949 . S
C257 C258 1.349 . S
C257 C259 1.327 . S
C257 H280 0.950 . S
C258 C257 1.349 . S
C258 C270 1.349 . S
C259 C257 1.327 . S
C259 C275 1.429 . S
C259 H281 0.950 . S
C260 H256 0.949 . S
C260 C268 1.574 . S
C260 C276 1.368 . S
H261 C269 0.950 . S
H262 C267 0.950 . S
H263 C268 0.949 . S
H264 C270 0.950 . S
H265 C271 0.950 . S
H266 C272 0.949 . S
C267 H262 0.950 . S
C267 C269 1.327 . S
C267 C273 1.429 . S
C268 C260 1.574 . S
C268 H263 0.949 . S
C268 C274 1.368 . S
C269 C253 1.349 . S
C269 H261 0.950 . S
C269 C267 1.327 . S
C270 C258 1.349 . S
C270 H264 0.950 . S
C270 C271 1.327 . S
C271 H265 0.950 . S
C271 C270 1.327 . S
C271 C275 1.429 . S
C272 C255 1.574 . S
C272 H266 0.949 . S
C272 C276 1.368 . S
C273 C254 1.429 . S
C273 C267 1.429 . S
C273 C274 1.523 . S
C274 C255 1.368 . S
C274 C268 1.368 . S
C274 C273 1.523 . S
C275 C259 1.429 . S
C275 C271 1.429 . S
C275 C276 1.523 . S
C276 C260 1.368 . S
C276 C272 1.368 . S
C276 C275 1.523 . S
H277 C252 0.950 . S
H278 C254 0.950 . S
H279 C255 0.949 . S
H280 C257 0.950 . S
H281 C259 0.950 . S
C282 C283 1.349 . S
C282 C284 1.327 . S
C282 H307 0.950 . S
C283 C282 1.349 . S
C283 C299 1.349 . S
C284 C282 1.327 . S
C284 C303 1.429 . S
C284 H308 0.950 . S
C285 C302 1.574 . S
C285 C304 1.368 . S
C285 H309 0.949 . S
H286 C290 0.949 . S
C287 C288 1.349 . S
C287 C289 1.327 . S
C287 H310 0.950 . S
C288 C287 1.349 . S
C288 C300 1.349 . S
C289 C287 1.327 . S
C289 C305 1.429 . S
C289 H311 0.950 . S
C290 H286 0.949 . S
C290 C298 1.574 . S
C290 C306 1.368 . S
H291 C299 0.950 . S
H292 C297 0.950 . S
H293 C298 0.949 . S
H294 C300 0.950 . S
H295 C301 0.950 . S
H296 C302 0.949 . S
C297 H292 0.950 . S
C297 C299 1.327 . S
C297 C303 1.429 . S
C298 C290 1.574 . S
C298 H293 0.949 . S
C298 C304 1.368 . S
C299 C283 1.349 . S
C299 H291 0.950 . S
C299 C297 1.327 . S
C300 C288 1.349 . S
C300 H294 0.950 . S
C300 C301 1.327 . S
C301 H295 0.950 . S
C301 C300 1.327 . S
C301 C305 1.429 . S
C302 C285 1.574 . S
C302 H296 0.949 . S
C302 C306 1.368 . S
C303 C284 1.429 . S
C303 C297 1.429 . S
C303 C304 1.523 . S
C304 C285 1.368 . S
C304 C298 1.368 . S
C304 C303 1.523 . S
C305 C289 1.429 . S
C305 C301 1.429 . S
C305 C306 1.523 . S
C306 C290 1.368 . S
C306 C302 1.368 . S
C306 C305 1.523 . S
H307 C282 0.950 . S
H308 C284 0.950 . S
H309 C285 0.949 . S
H310 C287 0.950 . S
H311 C289 0.950 . S
C312 C313 1.349 . S
C312 C314 1.327 . S
C312 H337 0.950 . S
C313 C312 1.349 . S
C313 C329 1.349 . S
C314 C312 1.327 . S
C314 C333 1.429 . S
C314 H338 0.950 . S
C315 C332 1.574 . S
C315 C334 1.368 . S
C315 H339 0.949 . S
H316 C320 0.949 . S
C317 C318 1.349 . S
C317 C319 1.327 . S
C317 H340 0.950 . S
C318 C317 1.349 . S
C318 C330 1.349 . S
C319 C317 1.327 . S
C319 C335 1.429 . S
C319 H341 0.950 . S
C320 H316 0.949 . S
C320 C328 1.574 . S
C320 C336 1.368 . S
H321 C329 0.950 . S
H322 C327 0.950 . S
H323 C328 0.949 . S
H324 C330 0.950 . S
H325 C331 0.950 . S
H326 C332 0.949 . S
C327 H322 0.950 . S
C327 C329 1.327 . S
C327 C333 1.429 . S
C328 C320 1.574 . S
C328 H323 0.949 . S
C328 C334 1.368 . S
C329 C313 1.349 . S
C329 H321 0.950 . S
C329 C327 1.327 . S
C330 C318 1.349 . S
C330 H324 0.950 . S
C330 C331 1.327 . S
C331 H325 0.950 . S
C331 C330 1.327 . S
C331 C335 1.429 . S
C332 C315 1.574 . S
C332 H326 0.949 . S
C332 C336 1.368 . S
C333 C314 1.429 . S
C333 C327 1.429 . S
C333 C334 1.523 . S
C334 C315 1.368 . S
C334 C328 1.368 . S
C334 C333 1.523 . S
C335 C319 1.429 . S
C335 C331 1.429 . S
C335 C336 1.523 . S
C336 C320 1.368 . S
C336 C332 1.368 . S
C336 C335 1.523 . S
H337 C312 0.950 . S
H338 C314 0.950 . S
H339 C315 0.949 . S
H340 C317 0.950 . S
H341 C319 0.950 . S
C342 C343 1.349 . S
C342 C344 1.327 . S
C342 H367 0.950 . S
C343 C342 1.349 . S
C343 C359 1.349 . S
C344 C342 1.327 . S
C344 C363 1.429 . S
C344 H368 0.950 . S
C345 C362 1.574 . S
C345 C364 1.368 . S
C345 H369 0.949 . S
H346 C350 0.949 . S
C347 C348 1.349 . S
C347 C349 1.327 . S
C347 H370 0.950 . S
C348 C347 1.349 . S
C348 C360 1.349 . S
C349 C347 1.327 . S
C349 C365 1.429 . S
C349 H371 0.950 . S
C350 H346 0.949 . S
C350 C358 1.574 . S
C350 C366 1.368 . S
H351 C359 0.950 . S
H352 C357 0.950 . S
H353 C358 0.949 . S
H354 C360 0.950 . S
H355 C361 0.950 . S
H356 C362 0.949 . S
C357 H352 0.950 . S
C357 C359 1.327 . S
C357 C363 1.429 . S
C358 C350 1.574 . S
C358 H353 0.949 . S
C358 C364 1.368 . S
C359 C343 1.349 . S
C359 H351 0.950 . S
C359 C357 1.327 . S
C360 C348 1.349 . S
C360 H354 0.950 . S
C360 C361 1.327 . S
C361 H355 0.950 . S
C361 C360 1.327 . S
C361 C365 1.429 . S
C362 C345 1.574 . S
C362 H356 0.949 . S
C362 C366 1.368 . S
C363 C344 1.429 . S
C363 C357 1.429 . S
C363 C364 1.523 . S
C364 C345 1.368 . S
C364 C358 1.368 . S
C364 C363 1.523 . S
C365 C349 1.429 . S
C365 C361 1.429 . S
C365 C366 1.523 . S
C366 C350 1.368 . S
C366 C362 1.368 . S
C366 C365 1.523 . S
H367 C342 0.950 . S
H368 C344 0.950 . S
H369 C345 0.949 . S
H370 C347 0.950 . S
H371 C349 0.950 . S
C372 C373 1.349 . S
C372 C374 1.327 . S
C372 H397 0.950 . S
C373 C372 1.349 . S
C373 C389 1.349 . S
C374 C372 1.327 . S
C374 C393 1.429 . S
C374 H398 0.950 . S
C375 C392 1.574 . S
C375 C394 1.368 . S
C375 H399 0.949 . S
H376 C380 0.949 . S
C377 C378 1.349 . S
C377 C379 1.327 . S
C377 H400 0.950 . S
C378 C377 1.349 . S
C378 C390 1.349 . S
C379 C377 1.327 . S
C379 C395 1.429 . S
C379 H401 0.950 . S
C380 H376 0.949 . S
C380 C388 1.574 . S
C380 C396 1.368 . S
H381 C389 0.950 . S
H382 C387 0.950 . S
H383 C388 0.949 . S
H384 C390 0.950 . S
H385 C391 0.950 . S
H386 C392 0.949 . S
C387 H382 0.950 . S
C387 C389 1.327 . S
C387 C393 1.429 . S
C388 C380 1.574 . S
C388 H383 0.949 . S
C388 C394 1.368 . S
C389 C373 1.349 . S
C389 H381 0.950 . S
C389 C387 1.327 . S
C390 C378 1.349 . S
C390 H384 0.950 . S
C390 C391 1.327 . S
C391 H385 0.950 . S
C391 C390 1.327 . S
C391 C395 1.429 . S
C392 C375 1.574 . S
C392 H386 0.949 . S
C392 C396 1.368 . S
C393 C374 1.429 . S
C393 C387 1.429 . S
C393 C394 1.523 . S
C394 C375 1.368 . S
C394 C388 1.368 . S
C394 C393 1.523 . S
C395 C379 1.429 . S
C395 C391 1.429 . S
C395 C396 1.523 . S
C396 C380 1.368 . S
C396 C392 1.368 . S
C396 C395 1.523 . S
H397 C372 0.950 . S
H398 C374 0.950 . S
H399 C375 0.949 . S
H400 C377 0.950 . S
H401 C379 0.950 . S
C402 C403 1.349 . S
C402 C404 1.327 . S
C402 H427 0.950 . S
C403 C402 1.349 . S
C403 C419 1.349 . S
C404 C402 1.327 . S
C404 C423 1.429 . S
C404 H428 0.950 . S
C405 C422 1.574 . S
C405 C424 1.368 . S
C405 H429 0.949 . S
H406 C410 0.949 . S
C407 C408 1.349 . S
C407 C409 1.327 . S
C407 H430 0.950 . S
C408 C407 1.349 . S
C408 C420 1.349 . S
C409 C407 1.327 . S
C409 C425 1.429 . S
C409 H431 0.950 . S
C410 H406 0.949 . S
C410 C418 1.574 . S
C410 C426 1.368 . S
H411 C419 0.950 . S
H412 C417 0.950 . S
H413 C418 0.949 . S
H414 C420 0.950 . S
H415 C421 0.950 . S
H416 C422 0.949 . S
C417 H412 0.950 . S
C417 C419 1.327 . S
C417 C423 1.429 . S
C418 C410 1.574 . S
C418 H413 0.949 . S
C418 C424 1.368 . S
C419 C403 1.349 . S
C419 H411 0.950 . S
C419 C417 1.327 . S
C420 C408 1.349 . S
C420 H414 0.950 . S
C420 C421 1.327 . S
C421 H415 0.950 . S
C421 C420 1.327 . S
C421 C425 1.429 . S
C422 C405 1.574 . S
C422 H416 0.949 . S
C422 C426 1.368 . S
C423 C404 1.429 . S
C423 C417 1.429 . S
C423 C424 1.523 . S
C424 C405 1.368 . S
C424 C418 1.368 . S
C424 C423 1.523 . S
C425 C409 1.429 . S
C425 C421 1.429 . S
C425 C426 1.523 . S
C426 C410 1.368 . S
C426 C422 1.368 . S
C426 C425 1.523 . S
H427 C402 0.950 . S
H428 C404 0.950 . S
H429 C405 0.949 . S
H430 C407 0.950 . S
H431 C409 0.950 . S
C432 C433 1.349 . S
C432 C434 1.327 . S
C432 H457 0.950 . S
C433 C432 1.349 . S
C433 C449 1.349 . S
C434 C432 1.327 . S
C434 C453 1.429 . S
C434 H458 0.950 . S
C435 C452 1.574 . S
C435 C454 1.368 . S
C435 H459 0.949 . S
H436 C440 0.949 . S
C437 C438 1.349 . S
C437 C439 1.327 . S
C437 H460 0.950 . S
C438 C437 1.349 . S
C438 C450 1.349 . S
C439 C437 1.327 . S
C439 C455 1.429 . S
C439 H461 0.950 . S
C440 H436 0.949 . S
C440 C448 1.574 . S
C440 C456 1.368 . S
H441 C449 0.950 . S
H442 C447 0.950 . S
H443 C448 0.949 . S
H444 C450 0.950 . S
H445 C451 0.950 . S
H446 C452 0.949 . S
C447 H442 0.950 . S
C447 C449 1.327 . S
C447 C453 1.429 . S
C448 C440 1.574 . S
C448 H443 0.949 . S
C448 C454 1.368 . S
C449 C433 1.349 . S
C449 H441 0.950 . S
C449 C447 1.327 . S
C450 C438 1.349 . S
C450 H444 0.950 . S
C450 C451 1.327 . S
C451 H445 0.950 . S
C451 C450 1.327 . S
C451 C455 1.429 . S
C452 C435 1.574 . S
C452 H446 0.949 . S
C452 C456 1.368 . S
C453 C434 1.429 . S
C453 C447 1.429 . S
C453 C454 1.523 . S
C454 C435 1.368 . S
C454 C448 1.368 . S
C454 C453 1.523 . S
C455 C439 1.429 . S
C455 C451 1.429 . S
C455 C456 1.523 . S
C456 C440 1.368 . S
C456 C452 1.368 . S
C456 C455 1.523 . S
H457 C432 0.950 . S
H458 C434 0.950 . S
H459 C435 0.949 . S
H460 C437 0.950 . S
H461 C439 0.950 . S
C462 C463 1.349 . S
C462 C464 1.327 . S
C462 H487 0.950 . S
C463 C462 1.349 . S
C463 C479 1.349 . S
C464 C462 1.327 . S
C464 C483 1.429 . S
C464 H488 0.950 . S
C465 C482 1.574 . S
C465 C484 1.368 . S
C465 H489 0.949 . S
H466 C470 0.949 . S
C467 C468 1.349 . S
C467 C469 1.327 . S
C467 H490 0.950 . S
C468 C467 1.349 . S
C468 C480 1.349 . S
C469 C467 1.327 . S
C469 C485 1.429 . S
C469 H491 0.950 . S
C470 H466 0.949 . S
C470 C478 1.574 . S
C470 C486 1.368 . S
H471 C479 0.950 . S
H472 C477 0.950 . S
H473 C478 0.949 . S
H474 C480 0.950 . S
H475 C481 0.950 . S
H476 C482 0.949 . S
C477 H472 0.950 . S
C477 C479 1.327 . S
C477 C483 1.429 . S
C478 C470 1.574 . S
C478 H473 0.949 . S
C478 C484 1.368 . S
C479 C463 1.349 . S
C479 H471 0.950 . S
C479 C477 1.327 . S
C480 C468 1.349 . S
C480 H474 0.950 . S
C480 C481 1.327 . S
C481 H475 0.950 . S
C481 C480 1.327 . S
C481 C485 1.429 . S
C482 C465 1.574 . S
C482 H476 0.949 . S
C482 C486 1.368 . S
C483 C464 1.429 . S
C483 C477 1.429 . S
C483 C484 1.523 . S
C484 C465 1.368 . S
C484 C478 1.368 . S
C484 C483 1.523 . S
C485 C469 1.429 . S
C485 C481 1.429 . S
C485 C486 1.523 . S
C486 C470 1.368 . S
C486 C482 1.368 . S
C486 C485 1.523 . S
H487 C462 0.950 . S
H488 C464 0.950 . S
H489 C465 0.949 . S
H490 C467 0.950 . S
H491 C469 0.950 . S
C492 C493 1.349 . S
C492 C494 1.327 . S
C492 H517 0.950 . S
C493 C492 1.349 . S
C493 C509 1.349 . S
C494 C492 1.327 . S
C494 C513 1.429 . S
C494 H518 0.950 . S
C495 C512 1.574 . S
C495 C514 1.368 . S
C495 H519 0.949 . S
H496 C500 0.949 . S
C497 C498 1.349 . S
C497 C499 1.327 . S
C497 H520 0.950 . S
C498 C497 1.349 . S
C498 C510 1.349 . S
C499 C497 1.327 . S
C499 C515 1.429 . S
C499 H521 0.950 . S
C500 H496 0.949 . S
C500 C508 1.574 . S
C500 C516 1.368 . S
H501 C509 0.950 . S
H502 C507 0.950 . S
H503 C508 0.949 . S
H504 C510 0.950 . S
H505 C511 0.950 . S
H506 C512 0.949 . S
C507 H502 0.950 . S
C507 C509 1.327 . S
C507 C513 1.429 . S
C508 C500 1.574 . S
C508 H503 0.949 . S
C508 C514 1.368 . S
C509 C493 1.349 . S
C509 H501 0.950 . S
C509 C507 1.327 . S
C510 C498 1.349 . S
C510 H504 0.950 . S
C510 C511 1.327 . S
C511 H505 0.950 . S
C511 C510 1.327 . S
C511 C515 1.429 . S
C512 C495 1.574 . S
C512 H506 0.949 . S
C512 C516 1.368 . S
C513 C494 1.429 . S
C513 C507 1.429 . S
C513 C514 1.523 . S
C514 C495 1.368 . S
C514 C508 1.368 . S
C514 C513 1.523 . S
C515 C499 1.429 . S
C515 C511 1.429 . S
C515 C516 1.523 . S
C516 C500 1.368 . S
C516 C512 1.368 . S
C516 C515 1.523 . S
H517 C492 0.950 . S
H518 C494 0.950 . S
H519 C495 0.949 . S
H520 C497 0.950 . S
H521 C499 0.950 . S
C522 C523 1.349 . S
C522 C524 1.327 . S
C522 H547 0.950 . S
C523 C522 1.349 . S
C523 C539 1.349 . S
C524 C522 1.327 . S
C524 C543 1.429 . S
C524 H548 0.950 . S
C525 C542 1.574 . S
C525 C544 1.368 . S
C525 H549 0.949 . S
H526 C530 0.949 . S
C527 C528 1.349 . S
C527 C529 1.327 . S
C527 H550 0.950 . S
C528 C527 1.349 . S
C528 C540 1.349 . S
C529 C527 1.327 . S
C529 C545 1.429 . S
C529 H551 0.950 . S
C530 H526 0.949 . S
C530 C538 1.574 . S
C530 C546 1.368 . S
H531 C539 0.950 . S
H532 C537 0.950 . S
H533 C538 0.949 . S
H534 C540 0.950 . S
H535 C541 0.950 . S
H536 C542 0.949 . S
C537 H532 0.950 . S
C537 C539 1.327 . S
C537 C543 1.429 . S
C538 C530 1.574 . S
C538 H533 0.949 . S
C538 C544 1.368 . S
C539 C523 1.349 . S
C539 H531 0.950 . S
C539 C537 1.327 . S
C540 C528 1.349 . S
C540 H534 0.950 . S
C540 C541 1.327 . S
C541 H535 0.950 . S
C541 C540 1.327 . S
C541 C545 1.429 . S
C542 C525 1.574 . S
C542 H536 0.949 . S
C542 C546 1.368 . S
C543 C524 1.429 . S
C543 C537 1.429 . S
C543 C544 1.523 . S
C544 C525 1.368 . S
C544 C538 1.368 . S
C544 C543 1.523 . S
C545 C529 1.429 . S
C545 C541 1.429 . S
C545 C546 1.523 . S
C546 C530 1.368 . S
C546 C542 1.368 . S
C546 C545 1.523 . S
H547 C522 0.950 . S
H548 C524 0.950 . S
H549 C525 0.949 . S
H550 C527 0.950 . S
H551 C529 0.950 . S
C552 C553 1.349 . S
C552 C554 1.327 . S
C552 H577 0.950 . S
C553 C552 1.349 . S
C553 C569 1.349 . S
C554 C552 1.327 . S
C554 C573 1.429 . S
C554 H578 0.950 . S
C555 C572 1.574 . S
C555 C574 1.368 . S
C555 H579 0.949 . S
H556 C560 0.949 . S
C557 C558 1.349 . S
C557 C559 1.327 . S
C557 H580 0.950 . S
C558 C557 1.349 . S
C558 C570 1.349 . S
C559 C557 1.327 . S
C559 C575 1.429 . S
C559 H581 0.950 . S
C560 H556 0.949 . S
C560 C568 1.574 . S
C560 C576 1.368 . S
H561 C569 0.950 . S
H562 C567 0.950 . S
H563 C568 0.949 . S
H564 C570 0.950 . S
H565 C571 0.950 . S
H566 C572 0.949 . S
C567 H562 0.950 . S
C567 C569 1.327 . S
C567 C573 1.429 . S
C568 C560 1.574 . S
C568 H563 0.949 . S
C568 C574 1.368 . S
C569 C553 1.349 . S
C569 H561 0.950 . S
C569 C567 1.327 . S
C570 C558 1.349 . S
C570 H564 0.950 . S
C570 C571 1.327 . S
C571 H565 0.950 . S
C571 C570 1.327 . S
C571 C575 1.429 . S
C572 C555 1.574 . S
C572 H566 0.949 . S
C572 C576 1.368 . S
C573 C554 1.429 . S
C573 C567 1.429 . S
C573 C574 1.523 . S
C574 C555 1.368 . S
C574 C568 1.368 . S
C574 C573 1.523 . S
C575 C559 1.429 . S
C575 C571 1.429 . S
C575 C576 1.523 . S
C576 C560 1.368 . S
C576 C572 1.368 . S
C576 C575 1.523 . S
H577 C552 0.950 . S
H578 C554 0.950 . S
H579 C555 0.949 . S
H580 C557 0.950 . S
H581 C559 0.950 . S
C582 C583 1.349 . S
C582 C584 1.327 . S
C582 H607 0.950 . S
C583 C582 1.349 . S
C583 C599 1.349 . S
C584 C582 1.327 . S
C584 C603 1.429 . S
C584 H608 0.950 . S
C585 C602 1.574 . S
C585 C604 1.368 . S
C585 H609 0.949 . S
H586 C590 0.949 . S
C587 C588 1.349 . S
C587 C589 1.327 . S
C587 H610 0.950 . S
C588 C587 1.349 . S
C588 C600 1.349 . S
C589 C587 1.327 . S
C589 C605 1.429 . S
C589 H611 0.950 . S
C590 H586 0.949 . S
C590 C598 1.574 . S
C590 C606 1.368 . S
H591 C599 0.950 . S
H592 C597 0.950 . S
H593 C598 0.949 . S
H594 C600 0.950 . S
H595 C601 0.950 . S
H596 C602 0.949 . S
C597 H592 0.950 . S
C597 C599 1.327 . S
C597 C603 1.429 . S
C598 C590 1.574 . S
C598 H593 0.949 . S
C598 C604 1.368 . S
C599 C583 1.349 . S
C599 H591 0.950 . S
C599 C597 1.327 . S
C600 C588 1.349 . S
C600 H594 0.950 . S
C600 C601 1.327 . S
C601 H595 0.950 . S
C601 C600 1.327 . S
C601 C605 1.429 . S
C602 C585 1.574 . S
C602 H596 0.949 . S
C602 C606 1.368 . S
C603 C584 1.429 . S
C603 C597 1.429 . S
C603 C604 1.523 . S
C604 C585 1.368 . S
C604 C598 1.368 . S
C604 C603 1.523 . S
C605 C589 1.429 . S
C605 C601 1.429 . S
C605 C606 1.523 . S
C606 C590 1.368 . S
C606 C602 1.368 . S
C606 C605 1.523 . S
H607 C582 0.950 . S
H608 C584 0.950 . S
H609 C585 0.949 . S
H610 C587 0.950 . S
H611 C589 0.950 . S
C612 C613 1.349 . S
C612 C614 1.327 . S
C612 H637 0.950 . S
C613 C612 1.349 . S
C613 C629 1.349 . S
C614 C612 1.327 . S
C614 C633 1.429 . S
C614 H638 0.950 . S
C615 C632 1.574 . S
C615 C634 1.368 . S
C615 H639 0.949 . S
H616 C620 0.949 . S
C617 C618 1.349 . S
C617 C619 1.327 . S
C617 H640 0.950 . S
C618 C617 1.349 . S
C618 C630 1.349 . S
C619 C617 1.327 . S
C619 C635 1.429 . S
C619 H641 0.950 . S
C620 H616 0.949 . S
C620 C628 1.574 . S
C620 C636 1.368 . S
H621 C629 0.950 . S
H622 C627 0.950 . S
H623 C628 0.949 . S
H624 C630 0.950 . S
H625 C631 0.950 . S
H626 C632 0.949 . S
C627 H622 0.950 . S
C627 C629 1.327 . S
C627 C633 1.429 . S
C628 C620 1.574 . S
C628 H623 0.949 . S
C628 C634 1.368 . S
C629 C613 1.349 . S
C629 H621 0.950 . S
C629 C627 1.327 . S
C630 C618 1.349 . S
C630 H624 0.950 . S
C630 C631 1.327 . S
C631 H625 0.950 . S
C631 C630 1.327 . S
C631 C635 1.429 . S
C632 C615 1.574 . S
C632 H626 0.949 . S
C632 C636 1.368 . S
C633 C614 1.429 . S
C633 C627 1.429 . S
C633 C634 1.523 . S
C634 C615 1.368 . S
C634 C628 1.368 . S
C634 C633 1.523 . S
C635 C619 1.429 . S
C635 C631 1.429 . S
C635 C636 1.523 . S
C636 C620 1.368 . S
C636 C632 1.368 . S
C636 C635 1.523 . S
H637 C612 0.950 . S
H638 C614 0.950 . S
H639 C615 0.949 . S
H640 C617 0.950 . S
H641 C619 0.950 . S
C642 C643 1.349 . S
C642 C644 1.327 . S
C642 H667 0.950 . S
C643 C642 1.349 . S
C643 C659 1.349 . S
C644 C642 1.327 . S
C644 C663 1.429 . S
C644 H668 0.950 . S
C645 C662 1.574 . S
C645 C664 1.368 . S
C645 H669 0.949 . S
H646 C650 0.949 . S
C647 C648 1.349 . S
C647 C649 1.327 . S
C647 H670 0.950 . S
C648 C647 1.349 . S
C648 C660 1.349 . S
C649 C647 1.327 . S
C649 C665 1.429 . S
C649 H671 0.950 . S
C650 H646 0.949 . S
C650 C658 1.574 . S
C650 C666 1.368 . S
H651 C659 0.950 . S
H652 C657 0.950 . S
H653 C658 0.949 . S
H654 C660 0.950 . S
H655 C661 0.950 . S
H656 C662 0.949 . S
C657 H652 0.950 . S
C657 C659 1.327 . S
C657 C663 1.429 . S
C658 C650 1.574 . S
C658 H653 0.949 . S
C658 C664 1.368 . S
C659 C643 1.349 . S
C659 H651 0.950 . S
C659 C657 1.327 . S
C660 C648 1.349 . S
C660 H654 0.950 . S
C660 C661 1.327 . S
C661 H655 0.950 . S
C661 C660 1.327 . S
C661 C665 1.429 . S
C662 C645 1.574 . S
C662 H656 0.949 . S
C662 C666 1.368 . S
C663 C644 1.429 . S
C663 C657 1.429 . S
C663 C664 1.523 . S
C664 C645 1.368 . S
C664 C658 1.368 . S
C664 C663 1.523 . S
C665 C649 1.429 . S
C665 C661 1.429 . S
C665 C666 1.523 . S
C666 C650 1.368 . S
C666 C662 1.368 . S
C666 C665 1.523 . S
H667 C642 0.950 . S
H668 C644 0.950 . S
H669 C645 0.949 . S
H670 C647 0.950 . S
H671 C649 0.950 . S
C672 C673 1.338 1_556 S
C672 C674 1.327 . S
C672 H697 0.950 . S
C673 C672 1.338 1_554 S
C673 C689 1.360 . S
C674 C672 1.327 . S
C674 C693 1.420 1_556 S
C674 H698 0.950 . S
C675 C692 1.574 . S
C675 C694 1.377 . S
C675 H699 0.949 . S
H676 C680 0.949 . S
C677 C678 1.352 . S
C677 C679 1.327 . S
C677 H700 0.950 . S
C678 C677 1.352 . S
C678 C690 1.346 1_554 S
C679 C677 1.327 . S
C679 C695 1.433 . S
C679 H701 0.950 . S
C680 H676 0.949 . S
C680 C688 1.574 . S
C680 C696 1.362 1_556 S
H681 C689 0.950 . S
H682 C687 0.950 . S
H683 C688 0.949 . S
H684 C690 0.950 . S
H685 C691 0.950 . S
H686 C692 0.949 . S
C687 H682 0.950 . S
C687 C689 1.327 . S
C687 C693 1.437 . S
C688 C680 1.574 . S
C688 H683 0.949 . S
C688 C694 1.360 1_556 S
C689 C673 1.360 . S
C689 H681 0.950 . S
C689 C687 1.327 . S
C690 C678 1.346 1_556 S
C690 H684 0.950 . S
C690 C691 1.327 . S
C691 H685 0.950 . S
C691 C690 1.327 . S
C691 C695 1.424 1_556 S
C692 C675 1.574 . S
C692 H686 0.949 . S
C692 C696 1.375 . S
C693 C674 1.420 1_554 S
C693 C687 1.437 . S
C693 C694 1.523 . S
C694 C675 1.377 . S
C694 C688 1.360 1_554 S
C694 C693 1.523 . S
C695 C679 1.433 . S
C695 C691 1.424 1_554 S
C695 C696 1.523 . S
C696 C680 1.362 1_554 S
C696 C692 1.375 . S
C696 C695 1.523 . S
H697 C672 0.950 . S
H698 C674 0.950 . S
H699 C675 0.949 . S
H700 C677 0.950 . S
H701 C679 0.950 . S
C702 C703 1.349 . S
C702 C704 1.327 . S
C702 H727 0.950 . S
C703 C702 1.349 . S
C703 C719 1.349 . S
C704 C702 1.327 . S
C704 C723 1.429 . S
C704 H728 0.950 . S
C705 C722 1.574 . S
C705 C724 1.368 . S
C705 H729 0.949 . S
H706 C710 0.949 . S
C707 C708 1.349 . S
C707 C709 1.327 . S
C707 H730 0.950 . S
C708 C707 1.349 . S
C708 C720 1.349 . S
C709 C707 1.327 . S
C709 C725 1.429 . S
C709 H731 0.950 . S
C710 H706 0.949 . S
C710 C718 1.574 . S
C710 C726 1.368 . S
H711 C719 0.950 . S
H712 C717 0.950 . S
H713 C718 0.949 . S
H714 C720 0.950 . S
H715 C721 0.950 . S
H716 C722 0.949 . S
C717 H712 0.950 . S
C717 C719 1.327 . S
C717 C723 1.429 . S
C718 C710 1.574 . S
C718 H713 0.949 . S
C718 C724 1.368 . S
C719 C703 1.349 . S
C719 H711 0.950 . S
C719 C717 1.327 . S
C720 C708 1.349 . S
C720 H714 0.950 . S
C720 C721 1.327 . S
C721 H715 0.950 . S
C721 C720 1.327 . S
C721 C725 1.429 . S
C722 C705 1.574 . S
C722 H716 0.949 . S
C722 C726 1.368 . S
C723 C704 1.429 . S
C723 C717 1.429 . S
C723 C724 1.523 . S
C724 C705 1.368 . S
C724 C718 1.368 . S
C724 C723 1.523 . S
C725 C709 1.429 . S
C725 C721 1.429 . S
C725 C726 1.523 . S
C726 C710 1.368 . S
C726 C722 1.368 . S
C726 C725 1.523 . S
H727 C702 0.950 . S
H728 C704 0.950 . S
H729 C705 0.949 . S
H730 C707 0.950 . S
H731 C709 0.950 . S
C732 C733 1.333 1_556 S
C732 C734 1.327 . S
C732 H757 0.950 . S
C733 C732 1.333 1_554 S
C733 C749 1.365 . S
C734 C732 1.327 . S
C734 C753 1.415 1_556 S
C734 H758 0.950 . S
C735 C752 1.574 . S
C735 C754 1.382 . S
C735 H759 0.949 . S
H736 C740 0.949 . S
C737 C738 1.357 . S
C737 C739 1.327 . S
C737 H760 0.950 . S
C738 C737 1.357 . S
C738 C750 1.341 1_554 S
C739 C737 1.327 . S
C739 C755 1.438 . S
C739 H761 0.950 . S
C740 H736 0.949 . S
C740 C748 1.574 . S
C740 C756 1.356 1_556 S
H741 C749 0.950 . S
H742 C747 0.950 . S
H743 C748 0.949 . S
H744 C750 0.950 . S
H745 C751 0.950 . S
H746 C752 0.949 . S
C747 H742 0.950 . S
C747 C749 1.327 . S
C747 C753 1.442 . S
C748 C740 1.574 . S
C748 H743 0.949 . S
C748 C754 1.354 1_556 S
C749 C733 1.365 . S
C749 H741 0.950 . S
C749 C747 1.327 . S
C750 C738 1.341 1_556 S
C750 H744 0.950 . S
C750 C751 1.327 . S
C751 H745 0.950 . S
C751 C750 1.327 . S
C751 C755 1.419 1_556 S
C752 C735 1.574 . S
C752 H746 0.949 . S
C752 C756 1.380 . S
C753 C734 1.415 1_554 S
C753 C747 1.442 . S
C753 C754 1.523 . S
C754 C735 1.382 . S
C754 C748 1.354 1_554 S
C754 C753 1.523 . S
C755 C739 1.438 . S
C755 C751 1.419 1_554 S
C755 C756 1.523 . S
C756 C740 1.356 1_554 S
C756 C752 1.380 . S
C756 C755 1.523 . S
H757 C732 0.950 . S
H758 C734 0.950 . S
H759 C735 0.949 . S
H760 C737 0.950 . S
H761 C739 0.950 . S
C762 C763 1.349 . S
C762 C764 1.327 . S
C762 H787 0.950 . S
C763 C762 1.349 . S
C763 C779 1.349 . S
C764 C762 1.327 . S
C764 C783 1.429 . S
C764 H788 0.950 . S
C765 C782 1.574 . S
C765 C784 1.368 . S
C765 H789 0.949 . S
H766 C770 0.949 . S
C767 C768 1.349 . S
C767 C769 1.327 . S
C767 H790 0.950 . S
C768 C767 1.349 . S
C768 C780 1.349 . S
C769 C767 1.327 . S
C769 C785 1.429 . S
C769 H791 0.950 . S
C770 H766 0.949 . S
C770 C778 1.574 . S
C770 C786 1.368 . S
H771 C779 0.950 . S
H772 C777 0.950 . S
H773 C778 0.949 . S
H774 C780 0.950 . S
H775 C781 0.950 . S
H776 C782 0.949 . S
C777 H772 0.950 . S
C777 C779 1.327 . S
C777 C783 1.429 . S
C778 C770 1.574 . S
C778 H773 0.949 . S
C778 C784 1.368 . S
C779 C763 1.349 . S
C779 H771 0.950 . S
C779 C777 1.327 . S
C780 C768 1.349 . S
C780 H774 0.950 . S
C780 C781 1.327 . S
C781 H775 0.950 . S
C781 C780 1.327 . S
C781 C785 1.429 . S
C782 C765 1.574 . S
C782 H776 0.949 . S
C782 C786 1.368 . S
C783 C764 1.429 . S
C783 C777 1.429 . S
C783 C784 1.523 . S
C784 C765 1.368 . S
C784 C778 1.368 . S
C784 C783 1.523 . S
C785 C769 1.429 . S
C785 C781 1.429 . S
C785 C786 1.523 . S
C786 C770 1.368 . S
C786 C782 1.368 . S
C786 C785 1.523 . S
H787 C762 0.950 . S
H788 C764 0.950 . S
H789 C765 0.949 . S
H790 C767 0.950 . S
H791 C769 0.950 . S
C792 C793 1.349 . S
C792 C794 1.327 . S
C792 H817 0.950 . S
C793 C792 1.349 . S
C793 C809 1.349 . S
C794 C792 1.327 . S
C794 C813 1.429 . S
C794 H818 0.950 . S
C795 C812 1.574 . S
C795 C814 1.368 . S
C795 H819 0.949 . S
H796 C800 0.949 . S
C797 C798 1.349 . S
C797 C799 1.327 . S
C797 H820 0.950 . S
C798 C797 1.349 . S
C798 C810 1.349 . S
C799 C797 1.327 . S
C799 C815 1.429 . S
C799 H821 0.950 . S
C800 H796 0.949 . S
C800 C808 1.574 . S
C800 C816 1.368 . S
H801 C809 0.950 . S
H802 C807 0.950 . S
H803 C808 0.949 . S
H804 C810 0.950 . S
H805 C811 0.950 . S
H806 C812 0.949 . S
C807 H802 0.950 . S
C807 C809 1.327 . S
C807 C813 1.429 . S
C808 C800 1.574 . S
C808 H803 0.949 . S
C808 C814 1.368 . S
C809 C793 1.349 . S
C809 H801 0.950 . S
C809 C807 1.327 . S
C810 C798 1.349 . S
C810 H804 0.950 . S
C810 C811 1.327 . S
C811 H805 0.950 . S
C811 C810 1.327 . S
C811 C815 1.429 . S
C812 C795 1.574 . S
C812 H806 0.949 . S
C812 C816 1.368 . S
C813 C794 1.429 . S
C813 C807 1.429 . S
C813 C814 1.523 . S
C814 C795 1.368 . S
C814 C808 1.368 . S
C814 C813 1.523 . S
C815 C799 1.429 . S
C815 C811 1.429 . S
C815 C816 1.523 . S
C816 C800 1.368 . S
C816 C812 1.368 . S
C816 C815 1.523 . S
H817 C792 0.950 . S
H818 C794 0.950 . S
H819 C795 0.949 . S
H820 C797 0.950 . S
H821 C799 0.950 . S
C822 C823 1.352 . S
C822 C824 1.327 . S
C822 H847 0.950 . S
C823 C822 1.352 . S
C823 C839 1.346 1_556 S
C824 C822 1.327 . S
C824 C843 1.429 . S
C824 H848 0.950 . S
C825 C842 1.574 . S
C825 C844 1.369 1_554 S
C825 H849 0.949 . S
H826 C830 0.949 . S
C827 C828 1.351 . S
C827 C829 1.327 . S
C827 H850 0.950 . S
C828 C827 1.351 . S
C828 C840 1.347 1_554 S
C829 C827 1.327 . S
C829 C845 1.428 . S
C829 H851 0.950 . S
C830 H826 0.949 . S
C830 C838 1.574 . S
C830 C846 1.370 1_556 S
H831 C839 0.950 . S
H832 C837 0.950 . S
H833 C838 0.949 . S
H834 C840 0.950 . S
H835 C841 0.950 . S
H836 C842 0.949 . S
C837 H832 0.950 . S
C837 C839 1.327 . S
C837 C843 1.428 1_554 S
C838 C830 1.574 . S
C838 H833 0.949 . S
C838 C844 1.368 . S
C839 C823 1.346 1_554 S
C839 H831 0.950 . S
C839 C837 1.327 . S
C840 C828 1.347 1_556 S
C840 H834 0.950 . S
C840 C841 1.327 . S
C841 H835 0.950 . S
C841 C840 1.327 . S
C841 C845 1.429 1_556 S
C842 C825 1.574 . S
C842 H836 0.949 . S
C842 C846 1.367 . S
C843 C824 1.429 . S
C843 C837 1.428 1_556 S
C843 C844 1.523 . S
C844 C825 1.369 1_556 S
C844 C838 1.368 . S
C844 C843 1.523 . S
C845 C829 1.428 . S
C845 C841 1.429 1_554 S
C845 C846 1.523 . S
C846 C830 1.370 1_554 S
C846 C842 1.367 . S
C846 C845 1.523 . S
H847 C822 0.950 . S
H848 C824 0.950 . S
H849 C825 0.949 . S
H850 C827 0.950 . S
H851 C829 0.950 . S
C852 C853 1.349 . S
C852 C854 1.327 . S
C852 H877 0.950 . S
C853 C852 1.349 . S
C853 C869 1.349 . S
C854 C852 1.327 . S
C854 C873 1.429 . S
C854 H878 0.950 . S
C855 C872 1.574 . S
C855 C874 1.368 . S
C855 H879 0.949 . S
H856 C860 0.949 . S
C857 C858 1.349 . S
C857 C859 1.327 . S
C857 H880 0.950 . S
C858 C857 1.349 . S
C858 C870 1.349 . S
C859 C857 1.327 . S
C859 C875 1.429 . S
C859 H881 0.950 . S
C860 H856 0.949 . S
C860 C868 1.574 . S
C860 C876 1.368 . S
H861 C869 0.950 . S
H862 C867 0.950 . S
H863 C868 0.949 . S
H864 C870 0.950 . S
H865 C871 0.950 . S
H866 C872 0.949 . S
C867 H862 0.950 . S
C867 C869 1.327 . S
C867 C873 1.429 . S
C868 C860 1.574 . S
C868 H863 0.949 . S
C868 C874 1.368 . S
C869 C853 1.349 . S
C869 H861 0.950 . S
C869 C867 1.327 . S
C870 C858 1.349 . S
C870 H864 0.950 . S
C870 C871 1.327 . S
C871 H865 0.950 . S
C871 C870 1.327 . S
C871 C875 1.429 . S
C872 C855 1.574 . S
C872 H866 0.949 . S
C872 C876 1.368 . S
C873 C854 1.429 . S
C873 C867 1.429 . S
C873 C874 1.523 . S
C874 C855 1.368 . S
C874 C868 1.368 . S
C874 C873 1.523 . S
C875 C859 1.429 . S
C875 C871 1.429 . S
C875 C876 1.523 . S
C876 C860 1.368 . S
C876 C872 1.368 . S
C876 C875 1.523 . S
H877 C852 0.950 . S
H878 C854 0.950 . S
H879 C855 0.949 . S
H880 C857 0.950 . S
H881 C859 0.950 . S
C882 C883 1.348 . S
C882 C884 1.327 . S
C882 H907 0.950 . S
C883 C882 1.348 . S
C883 C899 1.350 1_556 S
C884 C882 1.327 . S
C884 C903 1.429 1_556 S
C884 H908 0.950 . S
C885 C902 1.574 . S
C885 C904 1.369 . S
C885 H909 0.949 . S
H886 C890 0.949 . S
C887 C888 1.355 . S
C887 C889 1.327 . S
C887 H910 0.950 . S
C888 C887 1.355 . S
C888 C900 1.343 1_554 S
C889 C887 1.327 . S
C889 C905 1.432 . S
C889 H911 0.950 . S
C890 H886 0.949 . S
C890 C898 1.574 . S
C890 C906 1.365 1_556 S
H891 C899 0.950 . S
H892 C897 0.950 . S
H893 C898 0.949 . S
H894 C900 0.950 . S
H895 C901 0.950 . S
H896 C902 0.949 . S
C897 H892 0.950 . S
C897 C899 1.327 . S
C897 C903 1.428 . S
C898 C890 1.574 . S
C898 H893 0.949 . S
C898 C904 1.367 1_556 S
C899 C883 1.350 1_554 S
C899 H891 0.950 . S
C899 C897 1.327 . S
C900 C888 1.343 1_556 S
C900 H894 0.950 . S
C900 C901 1.327 . S
C901 H895 0.950 . S
C901 C900 1.327 . S
C901 C905 1.425 1_556 S
C902 C885 1.574 . S
C902 H896 0.949 . S
C902 C906 1.371 . S
C903 C884 1.429 1_554 S
C903 C897 1.428 . S
C903 C904 1.523 . S
C904 C885 1.369 . S
C904 C898 1.367 1_554 S
C904 C903 1.523 . S
C905 C889 1.432 . S
C905 C901 1.425 1_554 S
C905 C906 1.523 . S
C906 C890 1.365 1_554 S
C906 C902 1.371 . S
C906 C905 1.523 . S
H907 C882 0.950 . S
H908 C884 0.950 . S
H909 C885 0.949 . S
H910 C887 0.950 . S
H911 C889 0.950 . S
C193 C21 1.511 . S
C198 N128 1.518 . S
C223 C40 1.481 . S
C228 N89 1.474 . S
C258 N106 1.454 . S
C253 C54 1.455 . S
C283 C73 1.507 . S
C288 N119 1.514 . S
C318 N158 1.454 . S
C313 C74 1.455 . S
C348 N171 1.479 . S
C343 C10 1.482 . S
C378 N180 1.518 . S
C373 C37 1.511 . S
C408 N141 1.509 . S
C403 C65 1.506 . S
C433 C52 1.455 . S
C438 N102 1.452 . S
C463 C87 1.506 . S
C468 N115 1.515 . S
C493 C15 1.511 . S
C498 N132 1.520 . S
C528 N93 1.478 . S
C523 C32 1.481 . S
C553 C29 1.511 . S
C558 N184 1.520 . S
C588 N145 1.513 . S
C583 C59 1.506 . S
C618 N154 1.452 . S
C613 C84 1.455 . S
C643 C8 1.480 . S
C648 N167 1.479 . S
C678 N90 1.516 1_554 S
C673 C7 1.509 . S
C708 N103 1.477 . S
C703 C30 1.475 . S
C733 C62 1.504 . S
C738 N116 1.504 . S
C763 C81 1.506 . S
C768 N129 1.516 . S
C798 N142 1.501 . S
C793 C76 1.503 . S
C823 C18 1.475 . S
C828 N155 1.476 1_554 S
C853 C43 1.509 . S
C858 N168 1.520 . S
C883 C51 1.506 . S
C888 N181 1.517 . S
