# Generated by pormake.
# Topology rtl, (3,6)-cn, num edge types: 1
# Building blocks:
#     Node 0, Type 0, BuildingBlock: BELTOD_clean_linker_0, # of connection points: 3
#     Node 1, Type 0, BuildingBlock: BELTOD_clean_linker_0, # of connection points: 3
#     Node 2, Type 0, BuildingBlock: BELTOD_clean_linker_0, # of connection points: 3
#     Node 3, Type 0, BuildingBlock: BELTOD_clean_linker_0, # of connection points: 3
#     Node 4, Type 1, BuildingBlock: CIFDUS_clean_sbu_1, # of connection points: 6
#     Node 5, Type 1, BuildingBlock: CIFDUS_clean_sbu_1, # of connection points: 6
#     Edge 6, Type (0, 1), BuildingBlock: FUNLAD_clean_linker_0, # of connection points: 2
#     Edge 7, Type (0, 1), BuildingBlock: FUNLAD_clean_linker_0, # of connection points: 2
#     Edge 8, Type (0, 1), BuildingBlock: FUNLAD_clean_linker_0, # of connection points: 2
#     Edge 9, Type (0, 1), BuildingBlock: FUNLAD_clean_linker_0, # of connection points: 2
#     Edge 10, Type (0, 1), BuildingBlock: FUNLAD_clean_linker_0, # of connection points: 2
#     Edge 11, Type (0, 1), BuildingBlock: FUNLAD_clean_linker_0, # of connection points: 2
#     Edge 12, Type (0, 1), BuildingBlock: FUNLAD_clean_linker_0, # of connection points: 2
#     Edge 13, Type (0, 1), BuildingBlock: FUNLAD_clean_linker_0, # of connection points: 2
#     Edge 14, Type (0, 1), BuildingBlock: FUNLAD_clean_linker_0, # of connection points: 2
#     Edge 15, Type (0, 1), BuildingBlock: FUNLAD_clean_linker_0, # of connection points: 2
#     Edge 16, Type (0, 1), BuildingBlock: FUNLAD_clean_linker_0, # of connection points: 2
#     Edge 17, Type (0, 1), BuildingBlock: FUNLAD_clean_linker_0, # of connection points: 2
# Relax obj value: 0.025
# Max RMSD: 0.063
# Mean RMSD: 0.044
data_MOF--net-rtl--node1-CIFDUS_clean_sbu_1--node2-BELTOD_clean_linker_0--edge1-FUNLAD_clean_linker_0
_symmetry_space_group_name_H-M    P1
_symmetry_Int_Tables_number       1
_symmetry_cell_setting            triclinic
loop_
_symmetry_equiv_pos_as_xyz
'x, y, z'
_cell_length_a     40.064396
_cell_length_b     45.035589
_cell_length_c     31.032102
_cell_angle_alpha  89.183949
_cell_angle_beta   98.001644
_cell_angle_gamma 90.260951
loop_
_atom_site_label
_atom_site_type_symbol
_atom_site_fract_x
_atom_site_fract_y
_atom_site_fract_z
_atom_type_partial_charge
P0 P 0.23106 0.85381 0.07879 0.0
H1 H 0.25256 0.89154 0.15329 0.0
H2 H 0.22367 0.91063 0.2112 0.0
H3 H 0.1318 0.86735 0.15441 0.0
H4 H 0.16123 0.84787 0.09665 0.0
H5 H 0.25147 0.80609 0.02538 0.0
H6 H 0.27824 0.75814 0.04405 0.0
H7 H 0.26713 0.77087 0.17905 0.0
H8 H 0.24069 0.81892 0.16019 0.0
H9 H 0.22863 0.90182 0.01505 0.0
H10 H 0.17938 0.81731 0.02612 0.0
O11 O 0.26687 0.87293 0.07891 0.0
H12 H 0.19878 0.90862 0.94167 0.0
H13 H 0.14929 0.8239 0.95189 0.0
C14 C 0.20885 0.86875 0.1202 0.0
C15 C 0.22611 0.88637 0.15298 0.0
C16 C 0.20952 0.89735 0.18609 0.0
C17 C 0.17534 0.89073 0.1873 0.0
C18 C 0.15819 0.87274 0.15457 0.0
C19 C 0.17486 0.86178 0.12134 0.0
C20 C 0.24333 0.81584 0.09114 0.0
C21 C 0.25382 0.79816 0.05878 0.0
C22 C 0.26916 0.7707 0.06955 0.0
C23 C 0.27481 0.76061 0.1131 0.0
C24 C 0.26333 0.77804 0.14527 0.0
C25 C 0.24788 0.80545 0.1344 0.0
C26 C 0.2069 0.85872 0.0256 0.0
C27 C 0.21144 0.88463 1.00159 0.0
C28 C 0.1944 0.88846 0.95952 0.0
C29 C 0.1721 0.86655 0.94059 0.0
C30 C 0.16637 0.84113 0.9655 0.0
C31 C 0.18366 0.83726 0.00777 0.0
P32 P 0.77245 0.64909 0.59178 0.0
H33 H 0.78107 0.63975 0.5013 0.0
H34 H 0.74137 0.62996 0.43594 0.0
H35 H 0.65831 0.64476 0.50822 0.0
H36 H 0.69838 0.65382 0.57378 0.0
H37 H 0.83608 0.66731 0.64078 0.0
H38 H 0.86531 0.71499 0.65037 0.0
H39 H 0.78242 0.75755 0.56893 0.0
H40 H 0.75311 0.70962 0.55993 0.0
H41 H 0.75373 0.5917 0.62561 0.0
H42 H 0.74783 0.68354 0.66103 0.0
O43 O 0.80258 0.62422 0.58771 0.0
H44 H 0.72983 0.57654 0.69087 0.0
H45 H 0.72339 0.66866 0.72602 0.0
C46 C 0.74269 0.64689 0.54257 0.0
C47 C 0.7543 0.64119 0.50294 0.0
C48 C 0.73149 0.63579 0.46544 0.0
C49 C 0.69651 0.6362 0.46676 0.0
C50 C 0.68503 0.64363 0.50616 0.0
C51 C 0.70793 0.64897 0.54369 0.0
C52 C 0.79281 0.68484 0.59888 0.0
C53 C 0.82423 0.6869 0.62489 0.0
C54 C 0.84095 0.71418 0.63029 0.0
C55 C 0.8264 0.74008 0.61008 0.0
C56 C 0.79429 0.73807 0.58511 0.0
C57 C 0.77761 0.71065 0.57962 0.0
C58 C 0.75312 0.63867 0.63891 0.0
C59 C 0.74719 0.60861 0.64744 0.0
C60 C 0.73334 0.59999 0.68465 0.0
C61 C 0.72495 0.62135 0.71399 0.0
C62 C 0.7302 0.65158 0.70464 0.0
C63 C 0.74403 0.66016 0.66734 0.0
P64 P 0.87133 0.26296 0.01581 0.0
H65 H 0.8841 0.26673 0.92609 0.0
H66 H 0.88989 0.22942 0.87144 0.0
H67 H 0.86351 0.16075 0.95958 0.0
H68 H 0.85854 0.19833 0.01452 0.0
H69 H 0.85817 0.32632 0.02164 0.0
H70 H 0.80721 0.35611 0.00636 0.0
H71 H 0.74878 0.27637 0.97515 0.0
H72 H 0.80042 0.24682 0.98888 0.0
H73 H 0.93234 0.24719 0.07358 0.0
H74 H 0.82519 0.24177 0.07611 0.0
O75 O 0.90362 0.28588 0.01155 0.0
H76 H 0.9427 0.22518 0.14648 0.0
H77 H 0.83525 0.21892 0.14875 0.0
C78 C 0.87168 0.23523 0.97464 0.0
C79 C 0.87938 0.24365 0.93353 0.0
C80 C 0.88236 0.22226 0.90213 0.0
C81 C 0.87741 0.19197 0.91114 0.0
C82 C 0.86809 0.1838 0.95182 0.0
C83 C 0.86516 0.20528 0.98326 0.0
C84 C 0.83311 0.28441 0.00593 0.0
C85 C 0.83443 0.31524 0.0113 0.0
C86 C 0.80513 0.33226 1.00283 0.0
C87 C 0.77373 0.31874 0.9894 0.0
C88 C 0.77252 0.28766 0.98461 0.0
C89 C 0.80198 0.27067 0.99279 0.0
C90 C 0.87804 0.24667 0.06976 0.0
C91 C 0.91101 0.24131 0.08991 0.0
C92 C 0.91689 0.22845 0.13153 0.0
C93 C 0.88983 0.22034 0.15373 0.0
C94 C 0.85671 0.2254 0.13303 0.0
C95 C 0.85088 0.23836 0.09135 0.0
P96 P 0.30994 0.3288 0.49269 0.0
H97 H 0.34549 0.30309 0.57269 0.0
H98 H 0.36313 0.32295 0.64515 0.0
H99 H 0.31297 0.40563 0.60524 0.0
H100 H 0.29476 0.38523 0.53299 0.0
H101 H 0.29312 0.27277 0.44881 0.0
H102 H 0.24404 0.24027 0.44361 0.0
H103 H 0.19384 0.30312 0.51665 0.0
H104 H 0.24384 0.33522 0.52277 0.0
H105 H 0.35357 0.37941 0.48279 0.0
H106 H 0.26346 0.34161 0.4121 0.0
O107 O 0.34215 0.30723 0.4844 0.0
H108 H 0.35697 0.41487 0.42344 0.0
H109 H 0.26629 0.37744 0.35275 0.0
C110 C 0.3195 0.34292 0.54718 0.0
C111 C 0.33812 0.32544 0.57961 0.0
C112 C 0.34837 0.3369 0.621 0.0
C113 C 0.33998 0.3661 0.63092 0.0
C114 C 0.31985 0.38306 0.59883 0.0
C115 C 0.30959 0.3715 0.55737 0.0
C116 C 0.27241 0.30608 0.48703 0.0
C117 C 0.27159 0.27958 0.46378 0.0
C118 C 0.24325 0.26111 0.4604 0.0
C119 C 0.21488 0.26891 0.47986 0.0
C120 C 0.21541 0.29611 0.50191 0.0
C121 C 0.24392 0.31456 0.50535 0.0
C122 C 0.30801 0.35815 0.45226 0.0
C123 C 0.33396 0.37929 0.45497 0.0
C124 C 0.33581 0.39965 0.42095 0.0
C125 C 0.31187 0.3991 0.38319 0.0
C126 C 0.28531 0.37834 0.38115 0.0
C127 C 0.2835 0.35797 0.4153 0.0
O128 O 0.97977 0.05206 0.50077 0.0
Mn129 Mn 0.99642 0.01652 0.54333 0.0
O130 O 0.92943 0.03924 0.4645 0.0
Mn131 Mn 0.93567 0.9991 0.47532 0.0
O132 O 0.01324 0.98083 0.58575 0.0
O133 O 0.04068 0.03797 0.55612 0.0
Mn134 Mn 0.05755 0.03315 0.61115 0.0
O135 O 0.97898 0.03841 0.59465 0.0
O136 O 0.06489 0.99295 0.61869 0.0
O137 O 0.01397 0.99458 0.492 0.0
O138 O 0.96775 0.98121 0.44621 0.0
O139 O 0.08716 0.05779 0.58695 0.0
O140 O 0.02529 0.04911 0.64206 0.0
C141 C 0.92649 0.97846 0.53528 0.0
C142 C 0.95282 0.05817 0.47441 0.0
C143 C 0.04122 0.9742 0.60962 0.0
C144 C 0.06556 0.05561 0.55206 0.0
C145 C 0.99333 0.0495 0.63058 0.0
C146 C 0.99973 0.98185 0.45727 0.0
O147 O 0.95197 0.99529 0.53074 0.0
O148 O 0.90499 0.97612 0.50031 0.0
O149 O 0.52409 0.5358 0.10085 0.0
Mn150 Mn 0.49738 0.52 0.04273 0.0
O151 O 0.53398 0.49577 0.14522 0.0
Mn152 Mn 0.51203 0.46757 0.10791 0.0
O153 O 0.4705 0.50397 0.98475 0.0
O154 O 0.47702 0.56029 0.03058 0.0
Mn155 Mn 0.47963 0.57212 0.97697 0.0
O156 O 0.53838 0.53108 0.00948 0.0
O157 O 0.45517 0.54401 0.94224 0.0
O158 O 0.45584 0.50936 0.07521 0.0
O159 O 0.4661 0.46471 0.10732 0.0
O160 O 0.45819 0.60221 1.00233 0.0
O161 O 0.52511 0.57397 0.97296 0.0
C162 C 0.53488 0.45555 0.05228 0.0
C163 C 0.53649 0.52361 0.1374 0.0
C164 C 0.455 0.51601 0.94968 0.0
C165 C 0.46145 0.58463 0.03596 0.0
C166 C 0.54585 0.55329 0.98587 0.0
C167 C 0.4465 0.48631 0.09549 0.0
O168 O 0.51804 0.47963 0.05533 0.0
O169 O 0.53591 0.43787 0.08565 0.0
C170 C 0.17527 0.23056 0.4421 0.0
C171 C 0.18579 0.24794 0.47894 0.0
C172 C 0.15016 0.20887 0.44288 0.0
C173 C 0.13497 0.20401 0.48065 0.0
C174 C 0.14433 0.22235 0.51661 0.0
C175 C 0.16949 0.2439 0.5159 0.0
C176 C 0.11039 0.17951 0.48492 0.0
C177 C 0.10873 0.15429 0.46163 0.0
C178 C 0.09068 0.12732 0.4747 0.0
C179 C 0.10501 0.09933 0.47008 0.0
C180 C 0.09369 0.0743 0.49112 0.0
C181 C 0.06723 0.07673 0.51603 0.0
H182 H 0.04954 0.15011 0.49896 0.0
C183 C 0.05049 0.10397 0.51678 0.0
C184 C 0.06195 0.12908 0.49603 0.0
H185 H 0.03041 0.10645 0.5365 0.0
H186 H 0.18664 0.23355 0.41265 0.0
H187 H 0.14293 0.19595 0.41395 0.0
H188 H 0.133 0.21929 0.5461 0.0
H189 H 0.17702 0.25659 0.54504 0.0
H190 H 0.09612 0.18082 0.51214 0.0
H191 H 0.1251 0.15161 0.4369 0.0
H192 H 0.12695 0.09725 0.4535 0.0
H193 H 0.1075 0.05367 0.49104 0.0
C194 C 0.29154 0.70822 0.09885 0.0
C195 C 0.29535 0.7335 0.12515 0.0
C196 C 0.31394 0.68438 0.10684 0.0
C197 C 0.34073 0.68527 0.14145 0.0
C198 C 0.34353 0.70996 0.16886 0.0
C199 C 0.32105 0.73373 0.16097 0.0
C200 C 0.36888 0.66344 0.14571 0.0
C201 C 0.36654 0.63641 0.12732 0.0
C202 C 0.39627 0.61921 0.11747 0.0
C203 C 0.39125 0.59007 0.10205 0.0
C204 C 0.41534 0.57641 0.08029 0.0
C205 C 0.44475 0.59176 0.07367 0.0
H206 H 0.43271 0.65553 0.12568 0.0
C207 C 0.45144 0.61945 0.09302 0.0
C208 C 0.42759 0.63305 0.11491 0.0
H209 H 0.47372 0.63189 0.0875 0.0
H210 H 0.27185 0.70726 0.07119 0.0
H211 H 0.3112 0.6662 0.08422 0.0
H212 H 0.36408 0.71147 0.19542 0.0
H213 H 0.32501 0.75298 0.1816 0.0
H214 H 0.39306 0.67105 0.16201 0.0
H215 H 0.34181 0.62769 0.11486 0.0
H216 H 0.36745 0.57882 0.10345 0.0
H217 H 0.40922 0.55537 0.06459 0.0
C218 C 0.82879 0.79562 0.61988 0.0
C219 C 0.84524 0.76877 0.61391 0.0
C220 C 0.84642 0.82263 0.62167 0.0
C221 C 0.881 0.8234 0.61745 0.0
C222 C 0.89741 0.79652 0.61193 0.0
C223 C 0.87986 0.76956 0.61043 0.0
C224 C 0.89988 0.85176 0.61388 0.0
C225 C 0.89078 0.87804 0.62906 0.0
C226 C 0.90491 0.90692 0.61587 0.0
C227 C 0.88353 0.9317 0.61066 0.0
C228 C 0.89259 0.95715 0.58869 0.0
C229 C 0.92359 0.9586 0.57259 0.0
H230 H 0.95511 0.89136 0.60866 0.0
C231 C 0.94664 0.93527 0.58214 0.0
C232 C 0.93745 0.90961 0.60378 0.0
H233 H 0.97035 0.93552 0.56911 0.0
H234 H 0.80218 0.79578 0.62288 0.0
H235 H 0.83249 0.84282 0.62472 0.0
H236 H 0.92386 0.79641 0.60797 0.0
H237 H 0.89326 0.74938 0.60518 0.0
H238 H 0.92103 0.85099 0.59554 0.0
H239 H 0.86958 0.87888 0.64731 0.0
H240 H 0.85851 0.93045 0.6201 0.0
H241 H 0.87419 0.97468 0.58106 0.0
C242 C 0.73805 0.36138 0.0077 0.0
C243 C 0.74243 0.337 0.98121 0.0
C244 C 0.70848 0.37816 1.00092 0.0
C245 C 0.6824 0.371 0.9674 0.0
C246 C 0.68674 0.34672 0.94085 0.0
C247 C 0.71647 0.33004 0.94743 0.0
C248 C 0.64919 0.3863 0.96269 0.0
C249 C 0.64531 0.41431 0.9761 0.0
C250 C 0.61242 0.4275 0.98331 0.0
C251 C 0.61226 0.45685 0.99828 0.0
C252 C 0.58462 0.46777 0.01617 0.0
C253 C 0.5565 0.44963 0.01892 0.0
H254 H 0.58131 0.38774 0.97152 0.0
C255 C 0.55522 0.42139 1.00037 0.0
C256 C 0.58276 0.41041 0.9825 0.0
H257 H 0.534 0.40678 1.00305 0.0
H258 H 0.75705 0.36703 0.03468 0.0
H259 H 0.70568 0.39592 0.02324 0.0
H260 H 0.66693 0.34046 0.91515 0.0
H261 H 0.71906 0.31167 0.92602 0.0
H262 H 0.62743 0.37335 0.94932 0.0
H263 H 0.66772 0.42762 0.9858 0.0
H264 H 0.6346 0.47062 0.99935 0.0
H265 H 0.58669 0.48924 0.03161 0.0
C266 C 0.13573 0.88433 0.24295 0.0
C267 C 0.15786 0.90244 0.22279 0.0
C268 C 0.11962 0.89526 0.27665 0.0
C269 C 0.12497 0.92475 0.29067 0.0
C270 C 0.14745 0.94265 0.27088 0.0
C271 C 0.16362 0.9317 0.23729 0.0
C272 C 0.10789 0.93762 0.32585 0.0
C273 C 0.07862 0.92703 0.33676 0.0
C274 C 0.05974 0.94107 0.36919 0.0
C275 C 0.02505 0.93542 0.36629 0.0
C276 C 0.00585 0.94847 0.39508 0.0
C277 C 0.02089 0.96732 0.42804 0.0
H278 H 0.10196 0.96368 0.4069 0.0
C279 C 0.05585 0.9724 0.43188 0.0
C280 C 0.07511 0.95943 0.40273 0.0
H281 H 0.06828 0.98667 0.45703 0.0
H282 H 0.13134 0.86148 0.23325 0.0
H283 H 0.10349 0.88029 0.29194 0.0
H284 H 0.15224 0.96537 0.28106 0.0
H285 H 0.18033 0.94632 0.22228 0.0
H286 H 0.11869 0.95771 0.34097 0.0
H287 H 0.06636 0.9085 0.31894 0.0
H288 H 0.01255 0.92116 0.34115 0.0
H289 H 0.97908 0.94375 0.39131 0.0
C290 C 0.687 0.58912 0.75327 0.0
C291 C 0.71094 0.61214 0.75421 0.0
C292 C 0.67325 0.58096 0.79082 0.0
C293 C 0.68333 0.59552 0.83043 0.0
C294 C 0.70747 0.61832 0.83135 0.0
C295 C 0.72117 0.62648 0.79383 0.0
C296 C 0.66722 0.58955 0.87026 0.0
C297 C 0.64966 0.56465 0.87712 0.0
C298 C 0.62835 0.56088 0.91277 0.0
C299 C 0.61357 0.53297 0.91883 0.0
C300 C 0.58861 0.52966 0.94603 0.0
C301 C 0.57809 0.55418 0.96797 0.0
H302 H 0.62918 0.60702 0.93349 0.0
C303 C 0.59433 0.5816 0.96428 0.0
C304 C 0.61914 0.58498 0.9371 0.0
H305 H 0.58629 0.60097 0.98039 0.0
H306 H 0.67811 0.57793 0.72316 0.0
H307 H 0.65395 0.56397 0.78806 0.0
H308 H 0.71557 0.63011 0.8612 0.0
H309 H 0.73988 0.64402 0.79592 0.0
H310 H 0.66979 0.60687 0.89439 0.0
H311 H 0.64963 0.54641 0.85463 0.0
H312 H 0.61987 0.514 0.90046 0.0
H313 H 0.5756 0.5086 0.94688 0.0
C314 C 0.92234 0.18563 0.2084 0.0
C315 C 0.89625 0.20643 0.19803 0.0
C316 C 0.92825 0.17231 0.24976 0.0
C317 C 0.90824 0.17954 0.28198 0.0
C318 C 0.88214 0.20025 0.27159 0.0
C319 C 0.87629 0.21364 0.23025 0.0
C320 C 0.91204 0.16419 0.32531 0.0
C321 C 0.94068 0.15068 0.34363 0.0
C322 C 0.94337 0.13116 0.38334 0.0
C323 C 0.97543 0.12115 0.40208 0.0
C324 C 0.97884 0.09896 0.43449 0.0
C325 C 0.95023 0.08634 0.44899 0.0
H326 H 0.88958 0.12615 0.38637 0.0
C327 C 0.91832 0.0976 0.43228 0.0
C328 C 0.91485 0.11967 0.39986 0.0
H329 H 0.89576 0.08813 0.44259 0.0
H330 H 0.93776 0.17902 0.18417 0.0
H331 H 0.94779 0.15567 0.25569 0.0
H332 H 0.86609 0.20605 0.29554 0.0
H333 H 0.85621 0.22978 0.22364 0.0
H334 H 0.89014 0.16412 0.34225 0.0
H335 H 0.96325 0.15316 0.32816 0.0
H336 H 0.9979 0.12937 0.39002 0.0
H337 H 0.00364 0.09009 0.44558 0.0
C338 C 0.33335 0.39772 0.6957 0.0
C339 C 0.35338 0.37912 0.67386 0.0
C340 C 0.34652 0.41074 0.73522 0.0
C341 C 0.38024 0.4057 0.75369 0.0
C342 C 0.39989 0.38649 0.73241 0.0
C343 C 0.38673 0.37347 0.69298 0.0
C344 C 0.39599 0.42013 0.79465 0.0
C345 C 0.38493 0.44591 0.80909 0.0
C346 C 0.40262 0.46255 0.84687 0.0
C347 C 0.39681 0.49317 0.84857 0.0
C348 C 0.41349 0.5102 0.88217 0.0
C349 C 0.43625 0.49705 0.91555 0.0
H350 H 0.42925 0.42539 0.88138 0.0
C351 C 0.44135 0.46617 0.91484 0.0
C352 C 0.42476 0.44907 0.88079 0.0
H353 H 0.45856 0.45529 0.94015 0.0
H354 H 0.30736 0.40206 0.6824 0.0
H355 H 0.33004 0.42451 0.75118 0.0
H356 H 0.42584 0.38202 0.74583 0.0
H357 H 0.40305 0.35952 0.67694 0.0
H358 H 0.4191 0.4104 0.81123 0.0
H359 H 0.36348 0.45687 0.79033 0.0
H360 H 0.37971 0.50417 0.82325 0.0
H361 H 0.40857 0.53384 0.88175 0.0
C362 C 0.67796 0.63389 0.3855 0.0
C363 C 0.6724 0.62668 0.42825 0.0
C364 C 0.65707 0.62238 0.34951 0.0
C365 C 0.62997 0.6034 0.35545 0.0
C366 C 0.62394 0.59695 0.39813 0.0
C367 C 0.64476 0.60842 0.43398 0.0
C368 C 0.60909 0.58785 0.31887 0.0
C369 C 0.60784 0.59495 0.27621 0.0
C370 C 0.58891 0.5767 0.24102 0.0
C371 C 0.57659 0.58991 0.20061 0.0
C372 C 0.55937 0.57293 0.16685 0.0
C373 C 0.55452 0.54223 0.17266 0.0
H374 H 0.59447 0.53462 0.27643 0.0
C375 C 0.56732 0.52907 0.21297 0.0
C376 C 0.58433 0.54597 0.24653 0.0
H377 H 0.56444 0.50546 0.21876 0.0
H378 H 0.69882 0.6481 0.37979 0.0
H379 H 0.66308 0.62765 0.31737 0.0
H380 H 0.60346 0.58228 0.40391 0.0
H381 H 0.63991 0.60192 0.46627 0.0
H382 H 0.59382 0.56941 0.32793 0.0
H383 H 0.62041 0.61482 0.26646 0.0
H384 H 0.58011 0.61347 0.1952 0.0
H385 H 0.55001 0.58384 0.13629 0.0
C386 C 0.8762 0.174 0.83431 0.0
C387 C 0.88444 0.16905 0.87941 0.0
C388 C 0.88662 0.15415 0.80454 0.0
C389 C 0.9054 0.12871 0.81927 0.0
C390 C 0.91233 0.12319 0.86429 0.0
C391 C 0.90198 0.14303 0.89398 0.0
C392 C 0.92121 0.10906 0.78958 0.0
C393 C 0.91352 0.10901 0.74582 0.0
C394 C 0.93367 0.09228 0.71739 0.0
C395 C 0.91865 0.08318 0.67602 0.0
C396 C 0.9377 0.0688 0.64791 0.0
C397 C 0.97234 0.06367 0.6604 0.0
H398 H 0.98117 0.0946 0.7607 0.0
C399 C 0.98727 0.07288 0.7018 0.0
C400 C 0.96828 0.08703 0.72982 0.0
H401 H 0.01388 0.06948 0.71261 0.0
H402 H 0.86236 0.19364 0.82194 0.0
H403 H 0.88103 0.15963 0.77029 0.0
H404 H 0.92687 0.10391 0.87671 0.0
H405 H 0.90918 0.13862 0.92841 0.0
H406 H 0.94084 0.09425 0.80483 0.0
H407 H 0.89204 0.12149 0.73001 0.0
H408 H 0.89214 0.08727 0.66537 0.0
H409 H 0.92538 0.06214 0.61621 0.0
C410 C 0.31112 0.407 0.30265 0.0
C411 C 0.31637 0.41846 0.34499 0.0
C412 C 0.31946 0.42372 0.26729 0.0
C413 C 0.33316 0.45249 0.27334 0.0
C414 C 0.33706 0.46436 0.31538 0.0
C415 C 0.32868 0.44764 0.35073 0.0
C416 C 0.34759 0.46913 0.23824 0.0
C417 C 0.34071 0.46291 0.19549 0.0
C418 C 0.36249 0.47335 0.16315 0.0
C419 C 0.36813 0.45389 0.12999 0.0
C420 C 0.39372 0.45963 0.10469 0.0
C421 C 0.41348 0.4854 0.11117 0.0
H422 H 0.37595 0.51636 0.19148 0.0
C423 C 0.40562 0.50645 0.14111 0.0
C424 C 0.38033 0.50045 0.16708 0.0
H425 H 0.42087 0.52628 0.14709 0.0
H426 H 0.30225 0.38445 0.29704 0.0
H427 H 0.31681 0.41318 0.23593 0.0
H428 H 0.34764 0.48636 0.3212 0.0
H429 H 0.33263 0.45735 0.38277 0.0
H430 H 0.36691 0.48549 0.2488 0.0
H431 H 0.32153 0.44657 0.18458 0.0
H432 H 0.35457 0.43302 0.12593 0.0
H433 H 0.39956 0.44297 0.08203 0.0
C434 C 0.12143 0.86448 0.88213 0.0
C435 C 0.15593 0.87027 0.89463 0.0
C436 C 0.10619 0.87034 0.83928 0.0
C437 C 0.12532 0.88197 0.80803 0.0
C438 C 0.16004 0.88649 0.82043 0.0
C439 C 0.1751 0.88079 0.86299 0.0
C440 C 0.1107 0.89136 0.76296 0.0
C441 C 0.07768 0.89086 0.74617 0.0
C442 C 0.06489 0.90593 0.70388 0.0
C443 C 0.03245 0.9185 0.69804 0.0
C444 C 0.02264 0.93836 0.66339 0.0
C445 C 0.04517 0.94587 0.63412 0.0
H446 H 0.10993 0.90014 0.67297 0.0
C447 C 0.07597 0.93077 0.63708 0.0
C448 C 0.08554 0.91064 0.67117 0.0
H449 H 0.0937 0.93612 0.61473 0.0
H450 H 0.106 0.85634 0.9058 0.0
H451 H 0.07947 0.86622 0.8314 0.0
H452 H 0.17564 0.89516 0.79727 0.0
H453 H 0.20188 0.8849 0.87126 0.0
H454 H 0.12841 0.9015 0.74368 0.0
H455 H 0.05914 0.88234 0.76552 0.0
H456 H 0.01572 0.91487 0.72219 0.0
H457 H 0.99889 0.94998 0.6621 0.0
loop_
_geom_bond_atom_site_label_1
_geom_bond_atom_site_label_2
_geom_bond_distance
_geom_bond_site_symmetry_2
_ccdc_geom_bond_type
P0 O11 1.490 . S
P0 C14 1.812 . S
P0 C20 1.803 . S
P0 C26 1.819 . S
H1 C15 0.941 . S
H2 C16 0.939 . S
H3 C18 0.940 . S
H4 C19 0.940 . S
H5 C21 0.939 . S
H6 C22 0.942 . S
H7 C24 0.940 . S
H8 C25 0.939 . S
H9 C27 0.941 . S
H10 C31 0.939 . S
O11 P0 1.490 . S
H12 C28 0.939 . S
H13 C30 0.940 . S
C14 P0 1.812 . S
C14 C15 1.389 . S
C14 C19 1.391 . S
C15 H1 0.941 . S
C15 C14 1.389 . S
C15 C16 1.397 . S
C16 H2 0.939 . S
C16 C15 1.397 . S
C16 C17 1.378 . S
C17 C16 1.378 . S
C17 C18 1.378 . S
C18 H3 0.940 . S
C18 C17 1.378 . S
C18 C19 1.396 . S
C19 H4 0.940 . S
C19 C14 1.391 . S
C19 C18 1.396 . S
C20 P0 1.803 . S
C20 C21 1.378 . S
C20 C25 1.400 . S
C21 H5 0.939 . S
C21 C20 1.378 . S
C21 C22 1.361 . S
C22 H6 0.942 . S
C22 C21 1.361 . S
C22 C23 1.369 . S
C23 C22 1.369 . S
C23 C24 1.404 . S
C24 H7 0.940 . S
C24 C23 1.404 . S
C24 C25 1.389 . S
C25 H8 0.939 . S
C25 C20 1.400 . S
C25 C24 1.389 . S
C26 P0 1.819 . S
C26 C27 1.391 . S
C26 C31 1.391 . S
C27 H9 0.941 . S
C27 C26 1.391 . S
C27 C28 1.396 1_554 S
C28 H12 0.939 . S
C28 C27 1.396 1_556 S
C28 C29 1.397 . S
C29 C28 1.397 . S
C29 C30 1.385 . S
C30 H13 0.940 . S
C30 C29 1.385 . S
C30 C31 1.388 1_556 S
C31 H10 0.939 . S
C31 C26 1.391 . S
C31 C30 1.388 1_554 S
P32 O43 1.490 . S
P32 C46 1.812 . S
P32 C52 1.803 . S
P32 C58 1.819 . S
H33 C47 0.941 . S
H34 C48 0.939 . S
H35 C50 0.940 . S
H36 C51 0.940 . S
H37 C53 0.939 . S
H38 C54 0.942 . S
H39 C56 0.940 . S
H40 C57 0.939 . S
H41 C59 0.941 . S
H42 C63 0.939 . S
O43 P32 1.490 . S
H44 C60 0.939 . S
H45 C62 0.940 . S
C46 P32 1.812 . S
C46 C47 1.389 . S
C46 C51 1.391 . S
C47 H33 0.941 . S
C47 C46 1.389 . S
C47 C48 1.397 . S
C48 H34 0.939 . S
C48 C47 1.397 . S
C48 C49 1.378 . S
C49 C48 1.378 . S
C49 C50 1.378 . S
C50 H35 0.940 . S
C50 C49 1.378 . S
C50 C51 1.396 . S
C51 H36 0.940 . S
C51 C46 1.391 . S
C51 C50 1.396 . S
C52 P32 1.803 . S
C52 C53 1.378 . S
C52 C57 1.400 . S
C53 H37 0.939 . S
C53 C52 1.378 . S
C53 C54 1.361 . S
C54 H38 0.942 . S
C54 C53 1.361 . S
C54 C55 1.369 . S
C55 C54 1.369 . S
C55 C56 1.404 . S
C56 H39 0.940 . S
C56 C55 1.404 . S
C56 C57 1.389 . S
C57 H40 0.939 . S
C57 C52 1.400 . S
C57 C56 1.389 . S
C58 P32 1.819 . S
C58 C59 1.391 . S
C58 C63 1.391 . S
C59 H41 0.941 . S
C59 C58 1.391 . S
C59 C60 1.396 . S
C60 H44 0.939 . S
C60 C59 1.396 . S
C60 C61 1.397 . S
C61 C60 1.397 . S
C61 C62 1.385 . S
C62 H45 0.940 . S
C62 C61 1.385 . S
C62 C63 1.388 . S
C63 H42 0.939 . S
C63 C58 1.391 . S
C63 C62 1.388 . S
P64 O75 1.490 . S
P64 C78 1.812 1_554 S
P64 C84 1.803 1_554 S
P64 C90 1.819 . S
H65 C79 0.941 . S
H66 C80 0.939 . S
H67 C82 0.940 . S
H68 C83 0.940 . S
H69 C85 0.939 . S
H70 C86 0.942 . S
H71 C88 0.940 . S
H72 C89 0.939 . S
H73 C91 0.941 . S
H74 C95 0.939 . S
O75 P64 1.490 . S
H76 C92 0.939 . S
H77 C94 0.940 . S
C78 P64 1.812 1_556 S
C78 C79 1.389 . S
C78 C83 1.391 . S
C79 H65 0.941 . S
C79 C78 1.389 . S
C79 C80 1.397 . S
C80 H66 0.939 . S
C80 C79 1.397 . S
C80 C81 1.378 . S
C81 C80 1.378 . S
C81 C82 1.378 . S
C82 H67 0.940 . S
C82 C81 1.378 . S
C82 C83 1.396 . S
C83 H68 0.940 . S
C83 C78 1.391 . S
C83 C82 1.396 . S
C84 P64 1.803 1_556 S
C84 C85 1.378 1_556 S
C84 C89 1.400 . S
C85 H69 0.939 . S
C85 C84 1.378 1_554 S
C85 C86 1.361 . S
C86 H70 0.942 . S
C86 C85 1.361 . S
C86 C87 1.369 1_554 S
C87 C86 1.369 1_556 S
C87 C88 1.404 . S
C88 H71 0.940 . S
C88 C87 1.404 . S
C88 C89 1.389 . S
C89 H72 0.939 . S
C89 C84 1.400 . S
C89 C88 1.389 . S
C90 P64 1.819 . S
C90 C91 1.391 . S
C90 C95 1.391 . S
C91 H73 0.941 . S
C91 C90 1.391 . S
C91 C92 1.396 . S
C92 H76 0.939 . S
C92 C91 1.396 . S
C92 C93 1.397 . S
C93 C92 1.397 . S
C93 C94 1.385 . S
C94 H77 0.940 . S
C94 C93 1.385 . S
C94 C95 1.388 . S
C95 H74 0.939 . S
C95 C90 1.391 . S
C95 C94 1.388 . S
P96 O107 1.490 . S
P96 C110 1.812 . S
P96 C116 1.803 . S
P96 C122 1.819 . S
H97 C111 0.941 . S
H98 C112 0.939 . S
H99 C114 0.940 . S
H100 C115 0.940 . S
H101 C117 0.939 . S
H102 C118 0.942 . S
H103 C120 0.940 . S
H104 C121 0.939 . S
H105 C123 0.941 . S
H106 C127 0.939 . S
O107 P96 1.490 . S
H108 C124 0.939 . S
H109 C126 0.940 . S
C110 P96 1.812 . S
C110 C111 1.389 . S
C110 C115 1.391 . S
C111 H97 0.941 . S
C111 C110 1.389 . S
C111 C112 1.397 . S
C112 H98 0.939 . S
C112 C111 1.397 . S
C112 C113 1.378 . S
C113 C112 1.378 . S
C113 C114 1.378 . S
C114 H99 0.940 . S
C114 C113 1.378 . S
C114 C115 1.396 . S
C115 H100 0.940 . S
C115 C110 1.391 . S
C115 C114 1.396 . S
C116 P96 1.803 . S
C116 C117 1.378 . S
C116 C121 1.400 . S
C117 H101 0.939 . S
C117 C116 1.378 . S
C117 C118 1.361 . S
C118 H102 0.942 . S
C118 C117 1.361 . S
C118 C119 1.369 . S
C119 C118 1.369 . S
C119 C120 1.404 . S
C120 H103 0.940 . S
C120 C119 1.404 . S
C120 C121 1.389 . S
C121 H104 0.939 . S
C121 C116 1.400 . S
C121 C120 1.389 . S
C122 P96 1.819 . S
C122 C123 1.391 . S
C122 C127 1.391 . S
C123 H105 0.941 . S
C123 C122 1.391 . S
C123 C124 1.396 . S
C124 H108 0.939 . S
C124 C123 1.396 . S
C124 C125 1.397 . S
C125 C124 1.397 . S
C125 C126 1.385 . S
C126 H109 0.940 . S
C126 C125 1.385 . S
C126 C127 1.388 . S
C127 H106 0.939 . S
C127 C122 1.391 . S
C127 C126 1.388 . S
O128 Mn129 2.163 1_655 S
O128 C142 1.244 . S
Mn129 O128 2.163 1_455 S
Mn129 O132 2.160 1_545 S
Mn129 O133 2.221 . S
Mn129 O135 2.163 1_455 S
Mn129 O137 2.160 1_545 S
Mn129 O147 2.221 1_445 S
O130 Mn131 2.087 1_545 S
O130 C142 1.256 . S
Mn131 O130 2.087 1_565 S
Mn131 O138 2.089 1_655 S
Mn131 O147 2.290 . S
Mn131 O148 2.251 . S
O132 Mn129 2.160 1_565 S
O132 C143 1.239 . S
O133 Mn129 2.221 . S
O133 Mn134 2.290 . S
O133 C144 1.278 . S
Mn134 O133 2.290 . S
Mn134 O136 2.089 . S
Mn134 O139 2.251 . S
Mn134 O140 2.087 1_455 S
O135 Mn129 2.163 1_655 S
O135 C145 1.244 . S
O136 Mn134 2.089 . S
O136 C143 1.256 1_545 S
O137 Mn129 2.160 1_565 S
O137 C146 1.239 . S
O138 Mn131 2.089 1_455 S
O138 C146 1.256 . S
O139 Mn134 2.251 . S
O139 C144 1.241 . S
O140 Mn134 2.087 1_655 S
O140 C145 1.256 . S
C141 O147 1.278 . S
C141 O148 1.241 . S
C142 O128 1.244 . S
C142 O130 1.256 . S
C143 O132 1.239 . S
C143 O136 1.256 1_565 S
C144 O133 1.278 . S
C144 O139 1.241 . S
C145 O135 1.244 . S
C145 O140 1.256 . S
C146 O137 1.239 . S
C146 O138 1.256 . S
O147 Mn129 2.221 1_665 S
O147 Mn131 2.290 . S
O147 C141 1.278 . S
O148 Mn131 2.251 . S
O148 C141 1.241 . S
O149 Mn150 2.163 . S
O149 C163 1.244 . S
Mn150 O149 2.163 . S
Mn150 O153 2.160 1_554 S
Mn150 O154 2.221 . S
Mn150 O156 2.163 1_554 S
Mn150 O158 2.160 . S
Mn150 O168 2.221 . S
O151 Mn152 2.087 . S
O151 C163 1.256 . S
Mn152 O151 2.087 . S
Mn152 O159 2.089 . S
Mn152 O168 2.290 . S
Mn152 O169 2.251 . S
O153 Mn150 2.160 1_556 S
O153 C164 1.239 . S
O154 Mn150 2.221 . S
O154 Mn155 2.290 1_554 S
O154 C165 1.278 . S
Mn155 O154 2.290 1_556 S
Mn155 O157 2.089 . S
Mn155 O160 2.233 1_556 S
Mn155 O161 2.087 . S
O156 Mn150 2.163 1_556 S
O156 C166 1.244 . S
O157 Mn155 2.089 . S
O157 C164 1.256 . S
O158 Mn150 2.160 . S
O158 C167 1.239 . S
O159 Mn152 2.089 . S
O159 C167 1.256 . S
O160 Mn155 2.233 1_554 S
O160 C165 1.260 . S
O161 Mn155 2.087 . S
O161 C166 1.256 . S
C162 O168 1.278 . S
C162 O169 1.241 . S
C163 O149 1.244 . S
C163 O151 1.256 . S
C164 O153 1.239 . S
C164 O157 1.256 . S
C165 O154 1.278 . S
C165 O160 1.260 . S
C166 O156 1.244 . S
C166 O161 1.256 . S
C167 O158 1.239 . S
C167 O159 1.256 . S
O168 Mn150 2.221 . S
O168 Mn152 2.290 . S
O168 C162 1.278 . S
O169 Mn152 2.251 . S
O169 C162 1.241 . S
C170 C171 1.386 . S
C170 C172 1.383 . S
C170 H186 0.951 . S
C171 C170 1.386 . S
C171 C175 1.383 . S
C172 C170 1.383 . S
C172 C173 1.402 . S
C172 H187 0.951 . S
C173 C172 1.402 . S
C173 C174 1.375 . S
C173 C176 1.481 . S
C174 C173 1.375 . S
C174 C175 1.367 . S
C174 H188 0.951 . S
C175 C171 1.383 . S
C175 C174 1.367 . S
C175 H189 0.950 . S
C176 C173 1.481 . S
C176 C177 1.297 . S
C176 H190 0.950 . S
C177 C176 1.297 . S
C177 C178 1.479 . S
C177 H191 0.950 . S
C178 C177 1.479 . S
C178 C179 1.375 . S
C178 C184 1.404 . S
C179 C178 1.375 . S
C179 C180 1.369 . S
C179 H192 0.950 . S
C180 C179 1.369 . S
C180 C181 1.392 . S
C180 H193 0.951 . S
C181 C180 1.392 . S
C181 C183 1.384 . S
H182 C184 0.949 . S
C183 C181 1.384 . S
C183 C184 1.385 . S
C183 H185 0.950 . S
C184 C178 1.404 . S
C184 H182 0.949 . S
C184 C183 1.385 . S
H185 C183 0.950 . S
H186 C170 0.951 . S
H187 C172 0.951 . S
H188 C174 0.951 . S
H189 C175 0.950 . S
H190 C176 0.950 . S
H191 C177 0.950 . S
H192 C179 0.950 . S
H193 C180 0.951 . S
C194 C195 1.386 . S
C194 C196 1.383 . S
C194 H210 0.951 . S
C195 C194 1.386 . S
C195 C199 1.383 . S
C196 C194 1.383 . S
C196 C197 1.402 . S
C196 H211 0.951 . S
C197 C196 1.402 . S
C197 C198 1.375 . S
C197 C200 1.481 . S
C198 C197 1.375 . S
C198 C199 1.367 . S
C198 H212 0.951 . S
C199 C195 1.383 . S
C199 C198 1.367 . S
C199 H213 0.950 . S
C200 C197 1.481 . S
C200 C201 1.297 . S
C200 H214 0.950 . S
C201 C200 1.297 . S
C201 C202 1.479 . S
C201 H215 0.950 . S
C202 C201 1.479 . S
C202 C203 1.375 . S
C202 C208 1.404 . S
C203 C202 1.375 . S
C203 C204 1.369 . S
C203 H216 0.950 1_554 S
C204 C203 1.369 . S
C204 C205 1.392 . S
C204 H217 0.951 1_554 S
C205 C204 1.392 . S
C205 C207 1.384 . S
H206 C208 0.949 . S
C207 C205 1.384 . S
C207 C208 1.385 . S
C207 H209 0.950 . S
C208 C202 1.404 . S
C208 H206 0.949 . S
C208 C207 1.385 . S
H209 C207 0.950 . S
H210 C194 0.951 . S
H211 C196 0.951 . S
H212 C198 0.951 . S
H213 C199 0.950 . S
H214 C200 0.950 . S
H215 C201 0.950 . S
H216 C203 0.950 1_556 S
H217 C204 0.951 1_556 S
C218 C219 1.386 . S
C218 C220 1.383 . S
C218 H234 0.951 . S
C219 C218 1.386 . S
C219 C223 1.383 . S
C220 C218 1.383 . S
C220 C221 1.402 . S
C220 H235 0.951 . S
C221 C220 1.402 . S
C221 C222 1.375 . S
C221 C224 1.481 . S
C222 C221 1.375 . S
C222 C223 1.367 . S
C222 H236 0.951 . S
C223 C219 1.383 . S
C223 C222 1.367 . S
C223 H237 0.950 . S
C224 C221 1.481 . S
C224 C225 1.297 . S
C224 H238 0.950 . S
C225 C224 1.297 . S
C225 C226 1.479 . S
C225 H239 0.950 . S
C226 C225 1.479 . S
C226 C227 1.375 . S
C226 C232 1.404 . S
C227 C226 1.375 . S
C227 C228 1.369 . S
C227 H240 0.950 . S
C228 C227 1.369 . S
C228 C229 1.392 . S
C228 H241 0.951 . S
C229 C228 1.392 . S
C229 C231 1.384 . S
H230 C232 0.949 . S
C231 C229 1.384 . S
C231 C232 1.385 . S
C231 H233 0.950 . S
C232 C226 1.404 . S
C232 H230 0.949 . S
C232 C231 1.385 . S
H233 C231 0.950 . S
H234 C218 0.951 . S
H235 C220 0.951 . S
H236 C222 0.951 . S
H237 C223 0.950 . S
H238 C224 0.950 . S
H239 C225 0.950 . S
H240 C227 0.950 . S
H241 C228 0.951 . S
C242 C243 1.386 1_554 S
C242 C244 1.383 . S
C242 H258 0.951 . S
C243 C242 1.386 1_556 S
C243 C247 1.383 . S
C244 C242 1.383 . S
C244 C245 1.402 1_554 S
C244 H259 0.951 . S
C245 C244 1.402 1_556 S
C245 C246 1.375 . S
C245 C248 1.481 . S
C246 C245 1.375 . S
C246 C247 1.367 . S
C246 H260 0.951 . S
C247 C243 1.383 . S
C247 C246 1.367 . S
C247 H261 0.950 . S
C248 C245 1.481 . S
C248 C249 1.297 1_556 S
C248 H262 0.950 . S
C249 C248 1.297 1_554 S
C249 C250 1.479 . S
C249 H263 0.950 . S
C250 C249 1.479 . S
C250 C251 1.375 . S
C250 C256 1.404 1_554 S
C251 C250 1.375 . S
C251 C252 1.369 . S
C251 H264 0.950 . S
C252 C251 1.369 . S
C252 C253 1.392 . S
C252 H265 0.951 . S
C253 C252 1.392 . S
C253 C255 1.384 1_554 S
H254 C256 0.949 . S
C255 C253 1.384 1_556 S
C255 C256 1.385 . S
C255 H257 0.950 . S
C256 C250 1.404 1_556 S
C256 H254 0.949 . S
C256 C255 1.385 . S
H257 C255 0.950 . S
H258 C242 0.951 . S
H259 C244 0.951 . S
H260 C246 0.951 . S
H261 C247 0.950 . S
H262 C248 0.950 . S
H263 C249 0.950 . S
H264 C251 0.950 . S
H265 C252 0.951 . S
C266 C267 1.386 . S
C266 C268 1.383 . S
C266 H282 0.951 . S
C267 C266 1.386 . S
C267 C271 1.383 . S
C268 C266 1.383 . S
C268 C269 1.402 . S
C268 H283 0.951 . S
C269 C268 1.402 . S
C269 C270 1.375 . S
C269 C272 1.481 . S
C270 C269 1.375 . S
C270 C271 1.367 . S
C270 H284 0.951 . S
C271 C267 1.383 . S
C271 C270 1.367 . S
C271 H285 0.950 . S
C272 C269 1.481 . S
C272 C273 1.297 . S
C272 H286 0.950 . S
C273 C272 1.297 . S
C273 C274 1.479 . S
C273 H287 0.950 . S
C274 C273 1.479 . S
C274 C275 1.375 . S
C274 C280 1.404 . S
C275 C274 1.375 . S
C275 C276 1.369 . S
C275 H288 0.950 . S
C276 C275 1.369 . S
C276 C277 1.392 . S
C276 H289 0.951 . S
C277 C276 1.392 . S
C277 C279 1.384 . S
H278 C280 0.949 . S
C279 C277 1.384 . S
C279 C280 1.385 . S
C279 H281 0.950 1_565 S
C280 C274 1.404 . S
C280 H278 0.949 . S
C280 C279 1.385 . S
H281 C279 0.950 1_545 S
H282 C266 0.951 . S
H283 C268 0.951 . S
H284 C270 0.951 . S
H285 C271 0.950 . S
H286 C272 0.950 . S
H287 C273 0.950 . S
H288 C275 0.950 . S
H289 C276 0.951 . S
C290 C291 1.386 . S
C290 C292 1.383 . S
C290 H306 0.951 . S
C291 C290 1.386 . S
C291 C295 1.383 . S
C292 C290 1.383 . S
C292 C293 1.402 . S
C292 H307 0.951 . S
C293 C292 1.402 . S
C293 C294 1.375 . S
C293 C296 1.481 . S
C294 C293 1.375 . S
C294 C295 1.367 . S
C294 H308 0.951 . S
C295 C291 1.383 . S
C295 C294 1.367 . S
C295 H309 0.950 . S
C296 C293 1.481 . S
C296 C297 1.297 . S
C296 H310 0.950 . S
C297 C296 1.297 . S
C297 C298 1.479 . S
C297 H311 0.950 . S
C298 C297 1.479 . S
C298 C299 1.375 . S
C298 C304 1.404 . S
C299 C298 1.375 . S
C299 C300 1.369 . S
C299 H312 0.950 . S
C300 C299 1.369 . S
C300 C301 1.392 . S
C300 H313 0.951 . S
C301 C300 1.392 . S
C301 C303 1.384 . S
H302 C304 0.949 . S
C303 C301 1.384 . S
C303 C304 1.385 . S
C303 H305 0.950 . S
C304 C298 1.404 . S
C304 H302 0.949 . S
C304 C303 1.385 . S
H305 C303 0.950 . S
H306 C290 0.951 . S
H307 C292 0.951 . S
H308 C294 0.951 . S
H309 C295 0.950 . S
H310 C296 0.950 . S
H311 C297 0.950 . S
H312 C299 0.950 . S
H313 C300 0.951 . S
C314 C315 1.386 . S
C314 C316 1.383 . S
C314 H330 0.951 . S
C315 C314 1.386 . S
C315 C319 1.383 . S
C316 C314 1.383 . S
C316 C317 1.402 . S
C316 H331 0.951 . S
C317 C316 1.402 . S
C317 C318 1.375 . S
C317 C320 1.481 . S
C318 C317 1.375 . S
C318 C319 1.367 . S
C318 H332 0.951 . S
C319 C315 1.383 . S
C319 C318 1.367 . S
C319 H333 0.950 . S
C320 C317 1.481 . S
C320 C321 1.297 . S
C320 H334 0.950 . S
C321 C320 1.297 . S
C321 C322 1.479 . S
C321 H335 0.950 . S
C322 C321 1.479 . S
C322 C323 1.375 . S
C322 C328 1.404 . S
C323 C322 1.375 . S
C323 C324 1.369 . S
C323 H336 0.950 . S
C324 C323 1.369 . S
C324 C325 1.392 . S
C324 H337 0.951 . S
C325 C324 1.392 . S
C325 C327 1.384 . S
H326 C328 0.949 . S
C327 C325 1.384 . S
C327 C328 1.385 . S
C327 H329 0.950 . S
C328 C322 1.404 . S
C328 H326 0.949 . S
C328 C327 1.385 . S
H329 C327 0.950 . S
H330 C314 0.951 . S
H331 C316 0.951 . S
H332 C318 0.951 . S
H333 C319 0.950 . S
H334 C320 0.950 . S
H335 C321 0.950 . S
H336 C323 0.950 . S
H337 C324 0.951 . S
C338 C339 1.386 . S
C338 C340 1.383 . S
C338 H354 0.951 . S
C339 C338 1.386 . S
C339 C343 1.383 . S
C340 C338 1.383 . S
C340 C341 1.402 . S
C340 H355 0.951 . S
C341 C340 1.402 . S
C341 C342 1.375 . S
C341 C344 1.481 . S
C342 C341 1.375 . S
C342 C343 1.367 . S
C342 H356 0.951 . S
C343 C339 1.383 . S
C343 C342 1.367 . S
C343 H357 0.950 . S
C344 C341 1.481 . S
C344 C345 1.297 . S
C344 H358 0.950 . S
C345 C344 1.297 . S
C345 C346 1.479 . S
C345 H359 0.950 . S
C346 C345 1.479 . S
C346 C347 1.375 . S
C346 C352 1.404 . S
C347 C346 1.375 . S
C347 C348 1.369 . S
C347 H360 0.950 . S
C348 C347 1.369 . S
C348 C349 1.392 . S
C348 H361 0.951 . S
C349 C348 1.392 . S
C349 C351 1.384 . S
H350 C352 0.949 . S
C351 C349 1.384 . S
C351 C352 1.385 . S
C351 H353 0.950 . S
C352 C346 1.404 . S
C352 H350 0.949 . S
C352 C351 1.385 . S
H353 C351 0.950 . S
H354 C338 0.951 . S
H355 C340 0.951 . S
H356 C342 0.951 . S
H357 C343 0.950 . S
H358 C344 0.950 . S
H359 C345 0.950 . S
H360 C347 0.950 . S
H361 C348 0.951 . S
C362 C363 1.386 . S
C362 C364 1.383 . S
C362 H378 0.951 . S
C363 C362 1.386 . S
C363 C367 1.383 . S
C364 C362 1.383 . S
C364 C365 1.402 . S
C364 H379 0.951 . S
C365 C364 1.402 . S
C365 C366 1.375 . S
C365 C368 1.481 . S
C366 C365 1.375 . S
C366 C367 1.367 . S
C366 H380 0.951 . S
C367 C363 1.383 . S
C367 C366 1.367 . S
C367 H381 0.950 . S
C368 C365 1.481 . S
C368 C369 1.297 . S
C368 H382 0.950 . S
C369 C368 1.297 . S
C369 C370 1.479 . S
C369 H383 0.950 . S
C370 C369 1.479 . S
C370 C371 1.375 . S
C370 C376 1.404 . S
C371 C370 1.375 . S
C371 C372 1.369 . S
C371 H384 0.950 . S
C372 C371 1.369 . S
C372 C373 1.392 . S
C372 H385 0.951 . S
C373 C372 1.392 . S
C373 C375 1.384 . S
H374 C376 0.949 . S
C375 C373 1.384 . S
C375 C376 1.385 . S
C375 H377 0.950 . S
C376 C370 1.404 . S
C376 H374 0.949 . S
C376 C375 1.385 . S
H377 C375 0.950 . S
H378 C362 0.951 . S
H379 C364 0.951 . S
H380 C366 0.951 . S
H381 C367 0.950 . S
H382 C368 0.950 . S
H383 C369 0.950 . S
H384 C371 0.950 . S
H385 C372 0.951 . S
C386 C387 1.386 . S
C386 C388 1.383 . S
C386 H402 0.951 . S
C387 C386 1.386 . S
C387 C391 1.383 . S
C388 C386 1.383 . S
C388 C389 1.402 . S
C388 H403 0.951 . S
C389 C388 1.402 . S
C389 C390 1.375 . S
C389 C392 1.481 . S
C390 C389 1.375 . S
C390 C391 1.367 . S
C390 H404 0.951 . S
C391 C387 1.383 . S
C391 C390 1.367 . S
C391 H405 0.950 . S
C392 C389 1.481 . S
C392 C393 1.297 . S
C392 H406 0.950 . S
C393 C392 1.297 . S
C393 C394 1.479 . S
C393 H407 0.950 . S
C394 C393 1.479 . S
C394 C395 1.375 . S
C394 C400 1.404 . S
C395 C394 1.375 . S
C395 C396 1.369 . S
C395 H408 0.950 . S
C396 C395 1.369 . S
C396 C397 1.392 . S
C396 H409 0.951 . S
C397 C396 1.392 . S
C397 C399 1.384 . S
H398 C400 0.949 . S
C399 C397 1.384 . S
C399 C400 1.385 . S
C399 H401 0.950 . S
C400 C394 1.404 . S
C400 H398 0.949 . S
C400 C399 1.385 . S
H401 C399 0.950 . S
H402 C386 0.951 . S
H403 C388 0.951 . S
H404 C390 0.951 . S
H405 C391 0.950 . S
H406 C392 0.950 . S
H407 C393 0.950 . S
H408 C395 0.950 . S
H409 C396 0.951 . S
C410 C411 1.386 . S
C410 C412 1.383 . S
C410 H426 0.951 . S
C411 C410 1.386 . S
C411 C415 1.383 . S
C412 C410 1.383 . S
C412 C413 1.402 . S
C412 H427 0.951 . S
C413 C412 1.402 . S
C413 C414 1.375 . S
C413 C416 1.481 . S
C414 C413 1.375 . S
C414 C415 1.367 . S
C414 H428 0.951 . S
C415 C411 1.383 . S
C415 C414 1.367 . S
C415 H429 0.950 . S
C416 C413 1.481 . S
C416 C417 1.297 . S
C416 H430 0.950 . S
C417 C416 1.297 . S
C417 C418 1.479 . S
C417 H431 0.950 . S
C418 C417 1.479 . S
C418 C419 1.375 . S
C418 C424 1.404 . S
C419 C418 1.375 . S
C419 C420 1.369 . S
C419 H432 0.950 . S
C420 C419 1.369 . S
C420 C421 1.392 . S
C420 H433 0.951 . S
C421 C420 1.392 . S
C421 C423 1.384 . S
H422 C424 0.949 . S
C423 C421 1.384 . S
C423 C424 1.385 . S
C423 H425 0.950 . S
C424 C418 1.404 . S
C424 H422 0.949 . S
C424 C423 1.385 . S
H425 C423 0.950 . S
H426 C410 0.951 . S
H427 C412 0.951 . S
H428 C414 0.951 . S
H429 C415 0.950 . S
H430 C416 0.950 . S
H431 C417 0.950 . S
H432 C419 0.950 . S
H433 C420 0.951 . S
C434 C435 1.386 . S
C434 C436 1.383 . S
C434 H450 0.951 . S
C435 C434 1.386 . S
C435 C439 1.383 . S
C436 C434 1.383 . S
C436 C437 1.402 . S
C436 H451 0.951 . S
C437 C436 1.402 . S
C437 C438 1.375 . S
C437 C440 1.481 . S
C438 C437 1.375 . S
C438 C439 1.367 . S
C438 H452 0.951 . S
C439 C435 1.383 . S
C439 C438 1.367 . S
C439 H453 0.950 . S
C440 C437 1.481 . S
C440 C441 1.297 . S
C440 H454 0.950 . S
C441 C440 1.297 . S
C441 C442 1.479 . S
C441 H455 0.950 . S
C442 C441 1.479 . S
C442 C443 1.375 . S
C442 C448 1.404 . S
C443 C442 1.375 . S
C443 C444 1.369 . S
C443 H456 0.950 . S
C444 C443 1.369 . S
C444 C445 1.392 . S
C444 H457 0.951 . S
C445 C444 1.392 . S
C445 C447 1.384 . S
H446 C448 0.949 . S
C447 C445 1.384 . S
C447 C448 1.385 . S
C447 H449 0.961 . S
C448 C442 1.404 . S
C448 H446 0.949 . S
C448 C447 1.385 . S
H449 C447 0.961 . S
H450 C434 0.951 . S
H451 C436 0.951 . S
H452 C438 0.951 . S
H453 C439 0.950 . S
H454 C440 0.950 . S
H455 C441 0.950 . S
H456 C443 0.950 . S
H457 C444 0.951 . S
C181 C144 1.232 . S
C171 C119 1.386 . S
C195 C23 1.477 . S
C205 C165 1.274 . S
C219 C55 1.653 . S
C229 C141 1.517 . S
C243 C87 1.573 . S
C253 C162 1.466 . S
C277 C146 1.548 . S
C267 C17 1.591 . S
C301 C166 1.545 . S
C291 C61 1.558 . S
C315 C93 1.463 . S
C325 C142 1.531 . S
C339 C113 1.470 . S
C349 C164 1.526 . S
C373 C163 1.449 . S
C363 C49 1.548 . S
C397 C145 1.476 . S
C387 C81 1.508 . S
C421 C167 1.588 . S
C411 C125 1.522 . S
C435 C29 1.579 . S
C445 C143 1.444 . S
