# Generated by pormake.
# Topology tsx, (6,3)-cn, num edge types: 1
# Building blocks:
#     Node 0, Type 0, BuildingBlock: VOLQOD_clean_sbu_1, # of connection points: 6
#     Node 1, Type 0, BuildingBlock: VOLQOD_clean_sbu_1, # of connection points: 6
#     Node 2, Type 1, BuildingBlock: PAMTOO_clean_linker_0, # of connection points: 3
#     Node 3, Type 1, BuildingBlock: PAMTOO_clean_linker_0, # of connection points: 3
#     Node 4, Type 1, BuildingBlock: PAMTOO_clean_linker_0, # of connection points: 3
#     Node 5, Type 1, BuildingBlock: PAMTOO_clean_linker_0, # of connection points: 3
#     Edge 6, Type (0, 1), BuildingBlock: MIFKUJ_clean_linker_0, # of connection points: 2
#     Edge 7, Type (0, 1), BuildingBlock: MIFKUJ_clean_linker_0, # of connection points: 2
#     Edge 8, Type (0, 1), BuildingBlock: MIFKUJ_clean_linker_0, # of connection points: 2
#     Edge 9, Type (0, 1), BuildingBlock: MIFKUJ_clean_linker_0, # of connection points: 2
#     Edge 10, Type (0, 1), BuildingBlock: MIFKUJ_clean_linker_0, # of connection points: 2
#     Edge 11, Type (0, 1), BuildingBlock: MIFKUJ_clean_linker_0, # of connection points: 2
#     Edge 12, Type (0, 1), BuildingBlock: MIFKUJ_clean_linker_0, # of connection points: 2
#     Edge 13, Type (0, 1), BuildingBlock: MIFKUJ_clean_linker_0, # of connection points: 2
#     Edge 14, Type (0, 1), BuildingBlock: MIFKUJ_clean_linker_0, # of connection points: 2
#     Edge 15, Type (0, 1), BuildingBlock: MIFKUJ_clean_linker_0, # of connection points: 2
#     Edge 16, Type (0, 1), BuildingBlock: MIFKUJ_clean_linker_0, # of connection points: 2
#     Edge 17, Type (0, 1), BuildingBlock: MIFKUJ_clean_linker_0, # of connection points: 2
# Relax obj value: 0.054
# Max RMSD: 0.115
# Mean RMSD: 0.102
data_MOF--net-tsx--node1-VOLQOD_clean_sbu_1--node2-PAMTOO_clean_linker_0--edge1-MIFKUJ_clean_linker_0
_symmetry_space_group_name_H-M    P1
_symmetry_Int_Tables_number       1
_symmetry_cell_setting            triclinic
loop_
_symmetry_equiv_pos_as_xyz
'x, y, z'
_cell_length_a     27.152289
_cell_length_b     28.042368
_cell_length_c     48.416162
_cell_angle_alpha  82.129664
_cell_angle_beta   89.919368
_cell_angle_gamma 89.978972
loop_
_atom_site_label
_atom_site_type_symbol
_atom_site_fract_x
_atom_site_fract_y
_atom_site_fract_z
_atom_type_partial_charge
O0 O 0.08191 0.99127 0.07295 0.0
Zn1 Zn 0.09775 0.99377 0.0317 0.0
O2 O 0.03691 0.00066 0.00931 0.0
Zn3 Zn 0.02903 0.94487 0.98956 0.0
Zn4 Zn 0.97991 0.00484 0.03353 0.0
Zn5 Zn 0.03972 0.05913 0.98217 0.0
O6 O 0.0255 0.96474 0.94807 0.0
O7 O 0.03614 0.04393 0.94268 0.0
O8 O 0.13564 0.93311 0.02565 0.0
O9 O 0.0866 0.90028 0.99678 0.0
O10 O 0.96726 0.90742 0.00122 0.0
O11 O 0.9325 0.95081 0.03096 0.0
O12 O 0.94215 0.06656 0.02354 0.0
O13 O 0.14192 0.05183 0.02137 0.0
O14 O 0.9831 0.10376 0.98721 0.0
O15 O 0.10175 0.09609 0.98702 0.0
C16 C 0.04177 0.99539 0.08615 0.0
C17 C 0.02951 0.00493 0.93244 0.0
C18 C 0.93219 0.91477 0.0176 0.0
C19 C 0.12596 0.89961 0.01109 0.0
C20 C 0.94758 0.10224 0.00451 0.0
C21 C 0.13858 0.08941 0.00336 0.0
O22 O 0.00075 0.00109 0.07343 0.0
O23 O 0.58688 0.5003 0.56769 0.0
Zn24 Zn 0.60426 0.5046 0.52659 0.0
O25 O 0.54474 0.51304 0.50332 0.0
Zn26 Zn 0.53711 0.4582 0.48277 0.0
Zn27 Zn 0.48695 0.51678 0.527 0.0
Zn28 Zn 0.54955 0.57239 0.47683 0.0
O29 O 0.5344 0.47968 0.44138 0.0
O30 O 0.54612 0.55869 0.43696 0.0
O31 O 0.64159 0.44399 0.52051 0.0
O32 O 0.59417 0.41297 0.49015 0.0
O33 O 0.47506 0.42057 0.49369 0.0
O34 O 0.43912 0.46355 0.52325 0.0
O35 O 0.45044 0.57886 0.51711 0.0
O36 O 0.64945 0.562 0.51751 0.0
O37 O 0.49344 0.61752 0.48201 0.0
O38 O 0.61227 0.60809 0.48271 0.0
C39 C 0.54639 0.50445 0.58054 0.0
C40 C 0.53902 0.52026 0.4262 0.0
C41 C 0.43932 0.4278 0.50966 0.0
C42 C 0.63259 0.4113 0.5053 0.0
C43 C 0.45708 0.61535 0.49878 0.0
C44 C 0.648 0.60003 0.49975 0.0
O45 O 0.50593 0.5114 0.56734 0.0
H46 H 0.1093 0.95519 0.38511 0.0
H47 H 0.98156 0.04547 0.38818 0.0
H48 H 0.056 0.98946 0.46379 0.0
H49 H 0.95306 0.99284 0.47281 0.0
C50 C 0.9417 0.02012 0.45508 0.0
O51 O 0.98279 0.04229 0.44244 0.0
H52 H 0.92092 0.00142 0.43991 0.0
C53 C 0.0835 0.97401 0.39689 0.0
C54 C 0.0877 0.96933 0.42603 0.0
C55 C 0.04562 0.00153 0.38285 0.0
C56 C 0.01091 0.02372 0.3985 0.0
C57 C 0.01482 0.01915 0.42761 0.0
C58 C 0.05313 0.99218 0.4413 0.0
H59 H 0.07468 0.09567 0.63444 0.0
H60 H 0.96448 0.98816 0.62596 0.0
H61 H 0.03861 0.05888 0.55342 0.0
H62 H 0.92991 0.03444 0.54422 0.0
C63 C 0.92721 0.00456 0.56175 0.0
O64 O 0.97381 0.99333 0.57195 0.0
H65 H 0.90342 0.01635 0.5783 0.0
C66 C 0.05297 0.07507 0.62148 0.0
C67 C 0.06081 0.08151 0.59253 0.0
C68 C 0.01807 0.04183 0.63389 0.0
C69 C 0.99127 0.01439 0.6169 0.0
C70 C 0.99841 0.02107 0.58795 0.0
C71 C 0.03274 0.05481 0.57577 0.0
H72 H 0.60494 0.43989 0.88287 0.0
H73 H 0.48197 0.53698 0.88357 0.0
H74 H 0.55884 0.4882 0.95948 0.0
H75 H 0.45962 0.49509 0.96982 0.0
C76 C 0.44655 0.52059 0.95169 0.0
O77 O 0.48658 0.54135 0.93716 0.0
H78 H 0.42444 0.49977 0.9381 0.0
C79 C 0.58038 0.46104 0.89402 0.0
C80 C 0.58629 0.46021 0.92292 0.0
C81 C 0.54308 0.48869 0.8794 0.0
C82 C 0.51142 0.51584 0.89421 0.0
C83 C 0.51722 0.51542 0.92301 0.0
C84 C 0.55468 0.48796 0.93724 0.0
H85 H 0.54725 0.61004 0.12504 0.0
H86 H 0.4423 0.49506 0.12374 0.0
H87 H 0.50939 0.56053 0.04758 0.0
H88 H 0.40675 0.5346 0.0397 0.0
C89 C 0.40215 0.50678 0.05821 0.0
O90 O 0.44751 0.49477 0.06987 0.0
H91 H 0.37801 0.52215 0.0734 0.0
C92 C 0.5254 0.58691 0.11365 0.0
C93 C 0.53125 0.59011 0.08465 0.0
C94 C 0.49375 0.55258 0.12819 0.0
C95 C 0.46728 0.52163 0.11312 0.0
C96 C 0.47276 0.52486 0.08412 0.0
C97 C 0.50508 0.55864 0.06997 0.0
H98 H 0.22118 0.09075 0.03595 0.0
H99 H 0.2739 0.16005 0.04047 0.0
H100 H 0.19234 0.24565 0.97525 0.0
H101 H 0.13951 0.17691 0.97049 0.0
H102 H 0.33327 0.22808 0.00267 0.0
H103 H 0.16538 0.34939 1.00071 0.0
H104 H 0.07545 0.34316 0.0073 0.0
H105 H 0.0944 0.21617 0.06685 0.0
H106 H 0.18455 0.22188 0.06067 0.0
H107 H 0.40067 0.47634 0.00682 0.0
H108 H 0.36276 0.40308 0.99384 0.0
H109 H 0.3138 0.36403 0.07876 0.0
H110 H 0.35192 0.43716 0.09164 0.0
H111 H 0.24017 0.35791 0.03984 0.0
H112 H 0.41058 0.30814 0.05502 0.0
H113 H 0.49998 0.31541 0.04633 0.0
H114 H 0.47717 0.30064 0.96019 0.0
H115 H 0.38752 0.29381 0.96829 0.0
C116 C 0.21503 0.124 0.02216 0.0
C117 C 0.17559 0.12839 0.00314 0.0
C118 C 0.2454 0.16348 0.02469 0.0
C119 C 0.23664 0.20798 0.00838 0.0
C120 C 0.19946 0.21162 0.98813 0.0
C121 C 0.16924 0.17223 0.98551 0.0
C122 C 0.26202 0.25181 0.01488 0.0
C123 C 0.31304 0.25658 0.01072 0.0
C124 C 0.23551 0.28888 0.02538 0.0
C125 C 0.18157 0.2859 0.03006 0.0
C126 C 0.15032 0.32032 0.01532 0.0
C127 C 0.09931 0.31683 0.01897 0.0
C128 C 0.07915 0.27926 0.03748 0.0
C129 C 0.11003 0.24519 0.05247 0.0
C130 C 0.16108 0.24848 0.04887 0.0
C131 C 0.38182 0.45198 0.02258 0.0
C132 C 0.37851 0.46241 0.05007 0.0
C133 C 0.3604 0.41018 0.01524 0.0
C134 C 0.33566 0.3781 0.03539 0.0
C135 C 0.33265 0.38841 0.06291 0.0
C136 C 0.3543 0.43003 0.07025 0.0
C137 C 0.31163 0.33432 0.02783 0.0
C138 C 0.2606 0.3296 0.0317 0.0
C139 C 0.33827 0.29759 0.01696 0.0
C140 C 0.39226 0.30089 0.01222 0.0
C141 C 0.42458 0.30674 0.03419 0.0
C142 C 0.47532 0.31071 0.02937 0.0
C143 C 0.49424 0.3086 0.00271 0.0
C144 C 0.46247 0.30229 0.98083 0.0
C145 C 0.4117 0.2983 0.98553 0.0
H146 H 0.53352 0.31179 0.99901 0.0
H147 H 0.03965 0.27654 0.04022 0.0
H148 H 0.21351 0.88187 0.0395 0.0
H149 H 0.2714 0.81566 0.03628 0.0
H150 H 0.1762 0.76086 0.97667 0.0
H151 H 0.11814 0.82571 0.98014 0.0
H152 H 0.20883 0.68918 0.01285 0.0
H153 H 0.28135 0.82884 0.95731 0.0
H154 H 0.31532 0.91116 0.94945 0.0
H155 H 0.42581 0.87128 0.01172 0.0
H156 H 0.39206 0.78884 0.02019 0.0
H157 H 0.35513 0.55237 0.93368 0.0
H158 H 0.30454 0.61444 0.95071 0.0
H159 H 0.41778 0.63754 0.00992 0.0
H160 H 0.46875 0.5753 0.99267 0.0
H161 H 0.38155 0.72239 0.98262 0.0
H162 H 0.31412 0.57901 0.03361 0.0
H163 H 0.27985 0.49672 0.04013 0.0
H164 H 0.16053 0.54315 0.98495 0.0
H165 H 0.19383 0.62577 0.97811 0.0
C166 C 0.20486 0.85559 0.0258 0.0
C167 C 0.16116 0.85931 0.01003 0.0
C168 C 0.23807 0.81784 0.02391 0.0
C169 C 0.22838 0.78343 0.00604 0.0
C170 C 0.18449 0.78679 0.99067 0.0
C171 C 0.15133 0.82417 0.99262 0.0
C172 C 0.26384 0.74417 0.00266 0.0
C173 C 0.24655 0.69651 0.00615 0.0
C174 C 0.31354 0.75341 0.99473 0.0
C175 C 0.3338 0.80291 0.98964 0.0
C176 C 0.31263 0.83776 0.96949 0.0
C177 C 0.33189 0.8844 0.96489 0.0
C178 C 0.37259 0.89649 0.98014 0.0
C179 C 0.39421 0.8619 0.99997 0.0
C180 C 0.37505 0.81522 0.00467 0.0
C181 C 0.3691 0.57061 0.95037 0.0
C182 C 0.41556 0.55897 0.96204 0.0
C183 C 0.34014 0.60587 0.96019 0.0
C184 C 0.35706 0.63012 0.98188 0.0
C185 C 0.40392 0.61913 0.99326 0.0
C186 C 0.43291 0.58369 0.98345 0.0
C187 C 0.32597 0.66776 0.99196 0.0
C188 C 0.3441 0.71499 0.98981 0.0
C189 C 0.27696 0.6582 0.00102 0.0
C190 C 0.25665 0.60856 0.00523 0.0
C191 C 0.28073 0.57163 0.02274 0.0
C192 C 0.26149 0.52494 0.02651 0.0
C193 C 0.21831 0.51465 0.01284 0.0
C194 C 0.19403 0.55115 0.99551 0.0
C195 C 0.21294 0.59796 0.99176 0.0
H196 H 0.20358 0.47844 0.01575 0.0
H197 H 0.38745 0.93262 0.97655 0.0
H198 H 0.92443 0.82584 1.0004 0.0
H199 H 0.85493 0.76997 0.00754 0.0
H200 H 0.7748 0.87221 0.04935 0.0
H201 H 0.84434 0.92753 0.04298 0.0
H202 H 0.7691 0.78607 0.07802 0.0
H203 H 0.74844 0.85177 0.98109 0.0
H204 H 0.77475 0.87137 0.93207 0.0
H205 H 0.79856 0.72136 0.92721 0.0
H206 H 0.77298 0.70092 0.97632 0.0
H207 H 0.5352 0.68611 0.08721 0.0
H208 H 0.60133 0.74171 0.07016 0.0
H209 H 0.6742 0.62824 0.03396 0.0
H210 H 0.60717 0.57273 0.05042 0.0
H211 H 0.686 0.71576 0.00174 0.0
H212 H 0.70588 0.64972 0.09787 0.0
H213 H 0.67859 0.62907 0.14665 0.0
H214 H 0.65758 0.77893 0.15306 0.0
H215 H 0.68393 0.80044 0.10415 0.0
C216 C 0.89192 0.83647 0.01102 0.0
C217 C 0.88998 0.8811 0.02118 0.0
C218 C 0.85213 0.80459 0.01496 0.0
C219 C 0.80944 0.81711 0.02873 0.0
C220 C 0.80738 0.86175 0.0387 0.0
C221 C 0.84721 0.89337 0.03502 0.0
C222 C 0.76738 0.78328 0.03376 0.0
C223 C 0.75059 0.77124 0.06125 0.0
C224 C 0.7442 0.76262 0.01203 0.0
C225 C 0.75926 0.77488 0.98246 0.0
C226 C 0.75962 0.823 0.96962 0.0
C227 C 0.77434 0.83426 0.94181 0.0
C228 C 0.78844 0.79765 0.92656 0.0
C229 C 0.78769 0.74969 0.93906 0.0
C230 C 0.77304 0.73825 0.96687 0.0
C231 C 0.56489 0.67339 0.07514 0.0
C232 C 0.5666 0.62518 0.07036 0.0
C233 C 0.60262 0.70504 0.06547 0.0
C234 C 0.6432 0.68872 0.05139 0.0
C235 C 0.64331 0.64143 0.04491 0.0
C236 C 0.60511 0.60983 0.05429 0.0
C237 C 0.68723 0.71971 0.04584 0.0
C238 C 0.70459 0.73077 0.01841 0.0
C239 C 0.71121 0.73943 0.06762 0.0
C240 C 0.69653 0.72666 0.09728 0.0
C241 C 0.69521 0.67826 0.10964 0.0
C242 C 0.6799 0.6664 0.13731 0.0
C243 C 0.66628 0.70266 0.15293 0.0
C244 C 0.66811 0.75088 0.14093 0.0
C245 C 0.68326 0.76293 0.11324 0.0
H246 H 0.65438 0.69341 0.17434 0.0
H247 H 0.79985 0.80643 0.90503 0.0
H248 H 0.94842 0.18526 0.9675 0.0
H249 H 0.88688 0.24918 0.96206 0.0
H250 H 0.80309 0.17421 0.03035 0.0
H251 H 0.8643 0.10959 0.03578 0.0
H252 H 0.74445 0.20352 0.9876 0.0
H253 H 0.86406 0.27674 0.03861 0.0
H254 H 0.94546 0.30497 0.05196 0.0
H255 H 0.95619 0.39735 0.97379 0.0
H256 H 0.8751 0.36918 0.95977 0.0
H257 H 0.5775 0.40116 0.97265 0.0
H258 H 0.63891 0.34475 0.99514 0.0
H259 H 0.74225 0.39173 0.92922 0.0
H260 H 0.68177 0.44922 0.90721 0.0
H261 H 0.78733 0.37685 0.97976 0.0
H262 H 0.66983 0.29099 0.92785 0.0
H263 H 0.58548 0.2657 0.9177 0.0
H264 H 0.56919 0.19848 0.00238 0.0
H265 H 0.65332 0.22384 0.01309 0.0
C266 C 0.91712 0.18239 0.98152 0.0
C267 C 0.91134 0.14218 0.00205 0.0
C268 C 0.88206 0.21918 0.97848 0.0
C269 C 0.84061 0.21676 0.996 0.0
C270 C 0.83485 0.17688 0.01666 0.0
C271 C 0.86996 0.14002 0.01974 0.0
C272 C 0.80227 0.2548 0.99164 0.0
C273 C 0.75369 0.24138 0.98646 0.0
C274 C 0.81421 0.30424 0.99006 0.0
C275 C 0.86356 0.32059 0.99807 0.0
C276 C 0.88397 0.3027 0.02413 0.0
C277 C 0.93001 0.31877 0.03185 0.0
C278 C 0.95594 0.35294 0.01374 0.0
C279 C 0.93601 0.37092 0.9878 0.0
C280 C 0.88997 0.35495 0.97997 0.0
C281 C 0.61367 0.40014 0.96329 0.0
C282 C 0.62469 0.42926 0.93801 0.0
C283 C 0.64857 0.36766 0.97604 0.0
C284 C 0.69489 0.36356 0.96361 0.0
C285 C 0.70668 0.39418 0.93911 0.0
C286 C 0.67194 0.42667 0.92641 0.0
C287 C 0.73022 0.32549 0.97488 0.0
C288 C 0.77815 0.33892 0.98135 0.0
C289 C 0.71757 0.27608 0.97799 0.0
C290 C 0.66765 0.25959 0.97131 0.0
C291 C 0.64819 0.27091 0.9443 0.0
C292 C 0.60044 0.25657 0.93846 0.0
C293 C 0.57199 0.23053 0.95939 0.0
C294 C 0.59131 0.2186 0.98619 0.0
C295 C 0.63901 0.23291 0.99215 0.0
H296 H 0.53499 0.21957 0.95485 0.0
H297 H 0.99135 0.36566 0.01987 0.0
H298 H 0.72868 0.59708 0.53388 0.0
H299 H 0.78423 0.66329 0.53995 0.0
H300 H 0.70934 0.75465 0.47429 0.0
H301 H 0.65383 0.6885 0.46777 0.0
H302 H 0.81154 0.77136 0.4744 0.0
H303 H 0.6746 0.75881 0.53894 0.0
H304 H 0.62018 0.71596 0.57493 0.0
H305 H 0.74386 0.68513 0.62966 0.0
H306 H 0.79914 0.72725 0.59381 0.0
H307 H 0.86894 0.99993 0.51596 0.0
H308 H 0.82879 0.92901 0.50166 0.0
H309 H 0.89147 0.84037 0.57289 0.0
H310 H 0.93072 0.91132 0.58744 0.0
H311 H 0.79795 0.82126 0.5686 0.0
H312 H 0.93509 0.8373 0.5057 0.0
H313 H 0.99018 0.8806 0.47025 0.0
H314 H 0.86926 0.90517 0.41305 0.0
H315 H 0.81321 0.86256 0.44831 0.0
C316 C 0.72446 0.63093 0.52035 0.0
C317 C 0.68624 0.63761 0.50061 0.0
C318 C 0.7563 0.66876 0.52387 0.0
C319 C 0.75039 0.71407 0.50786 0.0
C320 C 0.71447 0.71999 0.48688 0.0
C321 C 0.68261 0.68213 0.48331 0.0
C322 C 0.778 0.75633 0.51501 0.0
C323 C 0.8084 0.78259 0.49489 0.0
C324 C 0.77435 0.7705 0.54189 0.0
C325 C 0.74105 0.74575 0.5636 0.0
C326 C 0.69023 0.74261 0.55858 0.0
C327 C 0.65923 0.7185 0.57896 0.0
C328 C 0.67857 0.69772 0.60454 0.0
C329 C 0.72894 0.70118 0.60982 0.0
C330 C 0.76011 0.72519 0.58949 0.0
C331 C 0.87474 0.96514 0.52822 0.0
C332 C 0.90414 0.96079 0.55228 0.0
C333 C 0.85188 0.92465 0.52006 0.0
C334 C 0.8579 0.87916 0.53591 0.0
C335 C 0.88667 0.87499 0.56019 0.0
C336 C 0.90928 0.91544 0.56841 0.0
C337 C 0.83215 0.83625 0.52814 0.0
C338 C 0.80167 0.80996 0.54813 0.0
C339 C 0.83605 0.82213 0.50122 0.0
C340 C 0.86984 0.84699 0.47975 0.0
C341 C 0.92016 0.85213 0.48562 0.0
C342 C 0.95159 0.8765 0.46554 0.0
C343 C 0.93325 0.89558 0.43941 0.0
C344 C 0.88343 0.89028 0.43329 0.0
C345 C 0.85182 0.86597 0.4533 0.0
H346 H 0.95763 0.91455 0.42394 0.0
H347 H 0.65452 0.67903 0.62028 0.0
H348 H 0.62547 0.33764 0.47414 0.0
H349 H 0.68094 0.26984 0.47336 0.0
H350 H 0.77313 0.32274 0.53498 0.0
H351 H 0.71777 0.3918 0.53564 0.0
H352 H 0.82777 0.29319 0.4939 0.0
H353 H 0.70046 0.22583 0.55382 0.0
H354 H 0.61539 0.20772 0.56975 0.0
H355 H 0.59031 0.13211 0.49972 0.0
H356 H 0.67502 0.15037 0.48311 0.0
H357 H 0.96327 0.07331 0.49662 0.0
H358 H 0.91344 0.1368 0.51321 0.0
H359 H 0.80047 0.11513 0.45353 0.0
H360 H 0.84967 0.05106 0.43749 0.0
H361 H 0.76114 0.12694 0.50346 0.0
H362 H 0.88628 0.20737 0.44083 0.0
H363 H 0.97261 0.22371 0.4266 0.0
H364 H 0.00284 0.27253 0.50513 0.0
H365 H 0.91672 0.25608 0.5199 0.0
C366 C 0.65741 0.33505 0.48764 0.0
C367 C 0.66695 0.37019 0.50507 0.0
C368 C 0.68903 0.29599 0.48726 0.0
C369 C 0.73073 0.29071 0.50448 0.0
C370 C 0.74095 0.32597 0.52165 0.0
C371 C 0.70924 0.36534 0.52202 0.0
C372 C 0.76374 0.24866 0.50378 0.0
C373 C 0.81344 0.25674 0.49658 0.0
C374 C 0.74509 0.20105 0.50719 0.0
C375 C 0.69407 0.18975 0.51713 0.0
C376 C 0.67671 0.20563 0.5417 0.0
C377 C 0.62856 0.1953 0.55087 0.0
C378 C 0.59744 0.16885 0.53573 0.0
C379 C 0.61446 0.1526 0.51142 0.0
C380 C 0.66257 0.16288 0.50214 0.0
C381 C 0.92756 0.08202 0.48732 0.0
C382 C 0.9101 0.05745 0.46589 0.0
C383 C 0.89927 0.11829 0.49668 0.0
C384 C 0.85345 0.13105 0.4844 0.0
C385 C 0.83566 0.10581 0.46334 0.0
C386 C 0.8638 0.0694 0.45411 0.0
C387 C 0.82446 0.17176 0.49254 0.0
C388 C 0.77557 0.16334 0.50125 0.0
C389 C 0.84398 0.21891 0.49077 0.0
C390 C 0.89525 0.23014 0.48154 0.0
C391 C 0.9114 0.22148 0.45507 0.0
C392 C 0.96027 0.23076 0.44691 0.0
C393 C 0.99322 0.24904 0.46497 0.0
C394 C 0.97729 0.25834 0.49117 0.0
C395 C 0.92844 0.24913 0.49943 0.0
H396 H 0.03108 0.25607 0.45866 0.0
H397 H 0.56017 0.16089 0.54287 0.0
H398 H 0.34794 0.44235 0.53043 0.0
H399 H 0.28133 0.38394 0.5397 0.0
H400 H 0.37015 0.27679 0.50712 0.0
H401 H 0.43653 0.33565 0.4969 0.0
H402 H 0.27582 0.26825 0.49256 0.0
H403 H 0.36384 0.28256 0.57775 0.0
H404 H 0.39877 0.32714 0.6137 0.0
H405 H 0.25448 0.3775 0.63179 0.0
H406 H 0.21879 0.33369 0.59574 0.0
H407 H 0.15508 0.08728 0.61046 0.0
H408 H 0.21834 0.14507 0.59231 0.0
H409 H 0.1175 0.20955 0.52909 0.0
H410 H 0.05409 0.15099 0.54704 0.0
H411 H 0.21847 0.23854 0.59078 0.0
H412 H 0.18302 0.25928 0.47235 0.0
H413 H 0.15093 0.21111 0.43732 0.0
H414 H 0.19787 0.08118 0.4878 0.0
H415 H 0.23065 0.12859 0.52297 0.0
C416 C 0.3532 0.40648 0.52502 0.0
C417 C 0.39776 0.39342 0.51327 0.0
C418 C 0.31508 0.37312 0.53034 0.0
C419 C 0.32114 0.32573 0.52462 0.0
C420 C 0.36474 0.31314 0.51177 0.0
C421 C 0.4027 0.34675 0.50604 0.0
C422 C 0.28338 0.28864 0.53369 0.0
C423 C 0.2632 0.26176 0.51402 0.0
C424 C 0.26737 0.2797 0.56177 0.0
C425 C 0.28872 0.30521 0.58387 0.0
C426 C 0.33961 0.30332 0.58932 0.0
C427 C 0.35954 0.32844 0.60971 0.0
C428 C 0.32887 0.35528 0.62493 0.0
C429 C 0.27819 0.35677 0.61994 0.0
C430 C 0.25809 0.33177 0.59956 0.0
C431 C 0.14646 0.11373 0.59264 0.0
C432 C 0.09965 0.11495 0.58025 0.0
C433 C 0.18261 0.14667 0.58228 0.0
C434 C 0.17273 0.1816 0.55934 0.0
C435 C 0.12619 0.18249 0.54659 0.0
C436 C 0.09001 0.14914 0.55685 0.0
C437 C 0.21077 0.21808 0.54969 0.0
C438 C 0.23094 0.24501 0.56929 0.0
C439 C 0.22734 0.22628 0.52171 0.0
C440 C 0.2089 0.1975 0.50037 0.0
C441 C 0.18671 0.22045 0.47589 0.0
C442 C 0.16834 0.19328 0.45603 0.0
C443 C 0.17224 0.14311 0.46036 0.0
C444 C 0.19472 0.12003 0.48451 0.0
C445 C 0.21314 0.14703 0.50442 0.0
H446 H 0.15792 0.12214 0.445 0.0
H447 H 0.34433 0.37492 0.6406 0.0
H448 H 0.461 0.70125 0.46428 0.0
H449 H 0.39915 0.7651 0.4589 0.0
H450 H 0.30963 0.68394 0.5224 0.0
H451 H 0.37106 0.6197 0.52784 0.0
H452 H 0.25691 0.71607 0.47606 0.0
H453 H 0.3688 0.78288 0.53647 0.0
H454 H 0.44947 0.80889 0.5523 0.0
H455 H 0.46278 0.91102 0.47804 0.0
H456 H 0.38248 0.88511 0.46154 0.0
H457 H 0.08124 0.90243 0.47263 0.0
H458 H 0.14559 0.84666 0.49229 0.0
H459 H 0.24841 0.91282 0.43062 0.0
H460 H 0.18464 0.96922 0.41129 0.0
H461 H 0.29237 0.88813 0.48157 0.0
H462 H 0.18729 0.81505 0.41876 0.0
H463 H 0.10732 0.7896 0.40162 0.0
H464 H 0.08258 0.69925 0.47942 0.0
H465 H 0.16219 0.72474 0.49717 0.0
C466 C 0.42835 0.69707 0.47726 0.0
C467 C 0.42098 0.65528 0.49646 0.0
C468 C 0.39315 0.73373 0.47426 0.0
C469 C 0.35003 0.72939 0.49043 0.0
C470 C 0.34274 0.688 0.50978 0.0
C471 C 0.37797 0.65138 0.51287 0.0
C472 C 0.31138 0.76691 0.48603 0.0
C473 C 0.26439 0.75354 0.47784 0.0
C474 C 0.32152 0.81591 0.48777 0.0
C475 C 0.36976 0.83176 0.49766 0.0
C476 C 0.38909 0.81062 0.5234 0.0
C477 C 0.43473 0.82539 0.53252 0.0
C478 C 0.46129 0.86151 0.51616 0.0
C479 C 0.44219 0.88301 0.49068 0.0
C480 C 0.39658 0.86834 0.48145 0.0
C481 C 0.11784 0.9057 0.46367 0.0
C482 C 0.1278 0.93965 0.44019 0.0
C483 C 0.15446 0.87373 0.47482 0.0
C484 C 0.20149 0.87524 0.46263 0.0
C485 C 0.2123 0.91098 0.44026 0.0
C486 C 0.17574 0.94284 0.42909 0.0
C487 C 0.23822 0.83722 0.47145 0.0
C488 C 0.2848 0.85051 0.4803 0.0
C489 C 0.22789 0.78812 0.47017 0.0
C490 C 0.18039 0.77221 0.4594 0.0
C491 C 0.16463 0.79001 0.43228 0.0
C492 C 0.1194 0.77555 0.42244 0.0
C493 C 0.08981 0.74294 0.43945 0.0
C494 C 0.1055 0.72458 0.4663 0.0
C495 C 0.15068 0.739 0.47625 0.0
H496 H 0.05479 0.73181 0.43181 0.0
H497 H 0.49662 0.8729 0.52326 0.0
H498 H 0.96277 0.99343 0.1213 0.0
H499 H 0.96311 0.99613 0.17138 0.0
H500 H 0.12193 0.00017 0.17079 0.0
H501 H 0.12203 0.99649 0.12055 0.0
H502 H 0.08903 0.94062 0.21456 0.0
H503 H 0.05349 0.10232 0.17402 0.0
H504 H 0.00942 0.16643 0.14387 0.0
H505 H 0.87502 0.12847 0.18833 0.0
H506 H 0.91816 0.06365 0.21852 0.0
H507 H 0.12176 0.01734 0.34589 0.0
H508 H 0.11941 0.01801 0.29545 0.0
H509 H 0.96183 0.99896 0.29904 0.0
H510 H 0.96393 0.9975 0.34983 0.0
H511 H 0.99347 0.06637 0.25404 0.0
H512 H 0.03097 0.90442 0.2948 0.0
H513 H 0.07697 0.84233 0.32537 0.0
H514 H 0.21017 0.88312 0.28035 0.0
H515 H 0.1651 0.94604 0.24979 0.0
C516 C 0.99788 0.99479 0.13175 0.0
C517 C 0.04242 0.99502 0.11682 0.0
C518 C 0.99796 0.99657 0.16042 0.0
C519 C 0.0425 0.99923 0.17478 0.0
C520 C 0.0871 0.99834 0.16011 0.0
C521 C 0.08708 0.99628 0.13138 0.0
C522 C 0.04239 0.00287 0.2051 0.0
C523 C 0.06868 0.96853 0.22311 0.0
C524 C 0.01499 0.03869 0.21638 0.0
C525 C 0.98897 0.07782 0.19836 0.0
C526 C 0.01446 0.1074 0.17724 0.0
C527 C 0.98966 0.14391 0.16016 0.0
C528 C 0.93942 0.15144 0.16414 0.0
C529 C 0.91392 0.12256 0.18526 0.0
C530 C 0.93854 0.08595 0.20237 0.0
C531 C 0.08655 0.01318 0.33599 0.0
C532 C 0.04309 0.00664 0.35192 0.0
C533 C 0.08529 0.01375 0.30716 0.0
C534 C 0.04057 0.00778 0.2936 0.0
C535 C 0.99675 0.00348 0.30917 0.0
C536 C 0.99798 0.00279 0.33814 0.0
C537 C 0.04014 0.00423 0.26334 0.0
C538 C 0.01375 0.03851 0.24539 0.0
C539 C 0.06768 0.96855 0.25209 0.0
C540 C 0.09473 0.93023 0.27016 0.0
C541 C 0.07013 0.90038 0.29154 0.0
C542 C 0.09604 0.86501 0.30885 0.0
C543 C 0.14648 0.85886 0.30485 0.0
C544 C 0.1711 0.88797 0.28345 0.0
C545 C 0.14539 0.92347 0.26612 0.0
H546 H 0.16648 0.83147 0.31828 0.0
H547 H 0.92029 0.17972 0.15089 0.0
H548 H 0.03029 0.0842 0.89249 0.0
H549 H 0.02233 0.08633 0.8421 0.0
H550 H 0.0112 0.93149 0.85249 0.0
H551 H 0.01957 0.92885 0.90292 0.0
H552 H 0.07363 0.96501 0.81047 0.0
H553 H 0.90967 0.9992 0.83846 0.0
H554 H 0.84568 0.04146 0.86196 0.0
H555 H 0.88387 0.17466 0.8118 0.0
H556 H 0.9486 0.13331 0.78826 0.0
H557 H 0.00764 0.95737 0.66937 0.0
H558 H 0.00247 0.94718 0.72033 0.0
H559 H 0.00924 0.10124 0.71874 0.0
H560 H 0.01256 0.11175 0.66788 0.0
H561 H 0.94442 0.06271 0.75684 0.0
H562 H 0.11183 0.03049 0.73154 0.0
H563 H 0.17716 0.98943 0.70833 0.0
H564 H 0.1335 0.85366 0.75376 0.0
H565 H 0.06743 0.89388 0.77697 0.0
C566 C 0.02619 0.05055 0.88411 0.0
C567 C 0.02546 0.00636 0.90181 0.0
C568 C 0.02138 0.05187 0.85529 0.0
C569 C 0.01555 0.0091 0.8436 0.0
C570 C 0.01548 0.96491 0.86111 0.0
C571 C 0.02019 0.96353 0.88995 0.0
C572 C 0.01033 0.01053 0.81302 0.0
C573 C 0.04486 0.98569 0.79879 0.0
C574 C 0.97336 0.03826 0.79775 0.0
C575 C 0.93428 0.06321 0.81176 0.0
C576 C 0.90468 0.03757 0.83259 0.0
C577 C 0.86823 0.06135 0.84589 0.0
C578 C 0.86079 0.11074 0.83842 0.0
C579 C 0.88971 0.13642 0.81758 0.0
C580 C 0.92625 0.11281 0.80423 0.0
C581 C 0.00713 0.98909 0.67986 0.0
C582 C 0.01102 0.03536 0.66461 0.0
C583 C 0.00464 0.98319 0.70899 0.0
C584 C 0.00631 0.02343 0.72336 0.0
C585 C 0.00817 0.06968 0.70811 0.0
C586 C 0.01051 0.0756 0.67905 0.0
C587 C 0.00804 0.01761 0.75427 0.0
C588 C 0.97289 0.04165 0.76856 0.0
C589 C 0.04457 0.98929 0.7696 0.0
C590 C 0.08436 0.96511 0.75574 0.0
C591 C 0.11592 0.99183 0.73641 0.0
C592 C 0.15312 0.96872 0.72329 0.0
C593 C 0.15938 0.91895 0.7295 0.0
C594 C 0.12854 0.8922 0.74892 0.0
C595 C 0.09123 0.91513 0.76208 0.0
H596 H 0.18821 0.90112 0.71933 0.0
H597 H 0.83256 0.12909 0.84875 0.0
H598 H 0.62482 0.49113 0.61655 0.0
H599 H 0.62321 0.48637 0.6674 0.0
H600 H 0.46583 0.50743 0.6651 0.0
H601 H 0.46688 0.51151 0.6145 0.0
H602 H 0.59697 0.5495 0.70104 0.0
H603 H 0.41365 0.44389 0.72229 0.0
H604 H 0.36536 0.38236 0.70232 0.0
H605 H 0.49674 0.33167 0.66636 0.0
H606 H 0.54587 0.39242 0.68639 0.0
H607 H 0.52358 0.56588 0.83961 0.0
H608 H 0.52136 0.56728 0.78899 0.0
H609 H 0.55116 0.41476 0.79914 0.0
H610 H 0.55109 0.41266 0.84968 0.0
H611 H 0.48703 0.43543 0.75936 0.0
H612 H 0.64305 0.49929 0.78216 0.0
H613 H 0.69935 0.55357 0.80285 0.0
H614 H 0.63657 0.67547 0.75157 0.0
H615 H 0.57939 0.62194 0.73084 0.0
C616 C 0.58983 0.49459 0.62686 0.0
C617 C 0.54596 0.50149 0.61138 0.0
C618 C 0.58901 0.49204 0.65593 0.0
C619 C 0.54435 0.49607 0.6701 0.0
C620 C 0.50063 0.50344 0.65469 0.0
C621 C 0.50137 0.50595 0.62568 0.0
C622 C 0.54336 0.49294 0.70097 0.0
C623 C 0.5729 0.52459 0.71379 0.0
C624 C 0.51261 0.45985 0.71768 0.0
C625 C 0.48334 0.42303 0.70564 0.0
C626 C 0.43224 0.41951 0.7102 0.0
C627 C 0.40473 0.38478 0.69886 0.0
C628 C 0.42798 0.35317 0.68306 0.0
C629 C 0.47877 0.35625 0.67854 0.0
C630 C 0.50644 0.39088 0.68984 0.0
C631 C 0.52879 0.53249 0.83109 0.0
C632 C 0.53808 0.48926 0.84873 0.0
C633 C 0.52804 0.53343 0.80212 0.0
C634 C 0.53704 0.49128 0.7902 0.0
C635 C 0.54444 0.4478 0.8078 0.0
C636 C 0.54488 0.44677 0.83672 0.0
C637 C 0.54012 0.49252 0.75943 0.0
C638 C 0.51093 0.46052 0.74662 0.0
C639 C 0.5722 0.52439 0.7428 0.0
C640 C 0.60662 0.55665 0.75516 0.0
C641 C 0.641 0.5377 0.77545 0.0
C642 C 0.67311 0.56833 0.78716 0.0
C643 C 0.67145 0.61795 0.77858 0.0
C644 C 0.63776 0.63704 0.75822 0.0
C645 C 0.60551 0.60657 0.74647 0.0
H646 H 0.69634 0.6416 0.78767 0.0
H647 H 0.40667 0.3262 0.67439 0.0
H648 H 0.53791 0.60088 0.38712 0.0
H649 H 0.52696 0.60488 0.33675 0.0
H650 H 0.51818 0.45 0.34532 0.0
H651 H 0.52945 0.44552 0.39566 0.0
H652 H 0.57686 0.48676 0.3017 0.0
H653 H 0.41495 0.51653 0.33606 0.0
H654 H 0.35363 0.55769 0.36206 0.0
H655 H 0.38543 0.69177 0.31105 0.0
H656 H 0.44747 0.65152 0.28497 0.0
H657 H 0.491 0.47002 0.16573 0.0
H658 H 0.49402 0.46317 0.2166 0.0
H659 H 0.49487 0.61798 0.21141 0.0
H660 H 0.48981 0.62511 0.16065 0.0
H661 H 0.43869 0.57967 0.25367 0.0
H662 H 0.6016 0.55278 0.22049 0.0
H663 H 0.66479 0.514 0.19448 0.0
H664 H 0.63369 0.37757 0.24321 0.0
H665 H 0.56978 0.41546 0.26927 0.0
C666 C 0.53385 0.56761 0.37832 0.0
C667 C 0.53438 0.52287 0.3955 0.0
C668 C 0.52735 0.57 0.34953 0.0
C669 C 0.52115 0.52775 0.33735 0.0
C670 C 0.52275 0.48304 0.35431 0.0
C671 C 0.52909 0.48059 0.38311 0.0
C672 C 0.51296 0.53015 0.3069 0.0
C673 C 0.54624 0.50647 0.29125 0.0
C674 C 0.47368 0.55687 0.2932 0.0
C675 C 0.43618 0.58108 0.30874 0.0
C676 C 0.40913 0.55486 0.33052 0.0
C677 C 0.3742 0.57801 0.34525 0.0
C678 C 0.36572 0.62734 0.33826 0.0
C679 C 0.39207 0.65358 0.31646 0.0
C680 C 0.42709 0.6306 0.30168 0.0
C681 C 0.49078 0.5026 0.17543 0.0
C682 C 0.49062 0.54813 0.1591 0.0
C683 C 0.49307 0.49864 0.20451 0.0
C684 C 0.49564 0.54008 0.21779 0.0
C685 C 0.49326 0.58551 0.20162 0.0
C686 C 0.49077 0.58951 0.17259 0.0
C687 C 0.50261 0.53626 0.24844 0.0
C688 C 0.46918 0.55974 0.26413 0.0
C689 C 0.542 0.50969 0.26217 0.0
C690 C 0.58055 0.48686 0.24662 0.0
C691 C 0.60797 0.51444 0.22551 0.0
C692 C 0.64396 0.49264 0.21079 0.0
C693 C 0.65315 0.44333 0.21714 0.0
C694 C 0.62646 0.41575 0.23829 0.0
C695 C 0.59038 0.43737 0.25305 0.0
H696 H 0.68104 0.4265 0.20572 0.0
H697 H 0.33867 0.6452 0.34969 0.0
loop_
_geom_bond_atom_site_label_1
_geom_bond_atom_site_label_2
_geom_bond_distance
_geom_bond_site_symmetry_2
_ccdc_geom_bond_type
O0 Zn1 1.953 1_565 S
O0 C16 1.225 1_565 S
Zn1 O0 1.953 1_545 S
Zn1 O2 1.949 . S
Zn1 O8 1.919 1_545 S
Zn1 O13 1.924 . S
O2 Zn1 1.949 . S
O2 Zn3 1.923 1_544 S
O2 Zn4 1.950 1_455 S
O2 Zn5 1.945 1_554 S
Zn3 O2 1.923 1_566 S
Zn3 O6 1.933 . S
Zn3 O9 1.941 . S
Zn3 O10 1.965 1_455 S
Zn4 O2 1.950 1_655 S
Zn4 O11 1.938 1_545 S
Zn4 O12 1.906 . S
Zn4 O22 1.953 . S
Zn5 O2 1.945 1_556 S
Zn5 O7 1.932 . S
Zn5 O14 1.977 1_455 S
Zn5 O15 1.910 . S
O6 Zn3 1.933 . S
O6 C17 1.226 1_565 S
O7 Zn5 1.932 . S
O7 C17 1.307 . S
O8 Zn1 1.919 1_565 S
O8 C19 1.253 . S
O9 Zn3 1.941 . S
O9 C19 1.283 1_556 S
O10 Zn3 1.965 1_655 S
O10 C18 1.303 1_556 S
O11 Zn4 1.938 1_565 S
O11 C18 1.247 . S
O12 Zn4 1.906 . S
O12 C20 1.304 1_554 S
O13 Zn1 1.924 . S
O13 C21 1.311 . S
O14 Zn5 1.977 1_655 S
O14 C20 1.272 . S
O15 Zn5 1.910 . S
O15 C21 1.231 1_556 S
C16 O0 1.225 1_545 S
C16 O22 1.298 1_455 S
C17 O6 1.226 1_545 S
C17 O7 1.307 . S
C18 O10 1.303 1_554 S
C18 O11 1.247 . S
C19 O8 1.253 . S
C19 O9 1.283 1_554 S
C20 O12 1.304 1_556 S
C20 O14 1.272 . S
C21 O13 1.311 . S
C21 O15 1.231 1_554 S
O22 Zn4 1.953 . S
O22 C16 1.298 1_655 S
O23 Zn24 1.953 . S
O23 C39 1.225 . S
Zn24 O23 1.953 . S
Zn24 O25 1.949 . S
Zn24 O31 1.919 . S
Zn24 O36 1.924 . S
O25 Zn24 1.949 . S
O25 Zn26 1.923 . S
O25 Zn27 1.950 . S
O25 Zn28 1.945 . S
Zn26 O25 1.923 . S
Zn26 O29 1.933 . S
Zn26 O32 1.941 . S
Zn26 O33 1.965 . S
Zn27 O25 1.950 . S
Zn27 O34 1.938 . S
Zn27 O35 1.906 . S
Zn27 O45 1.953 . S
Zn28 O25 1.945 . S
Zn28 O30 1.932 . S
Zn28 O37 1.977 . S
Zn28 O38 1.910 . S
O29 Zn26 1.933 . S
O29 C40 1.226 . S
O30 Zn28 1.932 . S
O30 C40 1.307 . S
O31 Zn24 1.919 . S
O31 C42 1.253 . S
O32 Zn26 1.941 . S
O32 C42 1.283 . S
O33 Zn26 1.965 . S
O33 C41 1.303 . S
O34 Zn27 1.938 . S
O34 C41 1.247 . S
O35 Zn27 1.906 . S
O35 C43 1.304 . S
O36 Zn24 1.924 . S
O36 C44 1.311 . S
O37 Zn28 1.977 . S
O37 C43 1.272 . S
O38 Zn28 1.910 . S
O38 C44 1.231 . S
C39 O23 1.225 . S
C39 O45 1.298 . S
C40 O29 1.226 . S
C40 O30 1.307 . S
C41 O33 1.303 . S
C41 O34 1.247 . S
C42 O31 1.253 . S
C42 O32 1.283 . S
C43 O35 1.304 . S
C43 O37 1.272 . S
C44 O36 1.311 . S
C44 O38 1.231 . S
O45 Zn27 1.953 . S
O45 C39 1.298 . S
H46 C53 0.929 . S
H47 C56 0.930 . S
H48 C58 0.929 . S
H49 C50 0.969 . S
C50 H49 0.969 . S
C50 O51 1.550 . S
C50 H52 0.973 . S
O51 C50 1.550 . S
O51 C57 1.412 1_655 S
H52 C50 0.973 . S
C53 H46 0.929 . S
C53 C54 1.400 . S
C53 C55 1.364 . S
C54 C53 1.400 . S
C54 C58 1.377 . S
C55 C53 1.364 . S
C55 C56 1.374 1_465 S
C56 H47 0.930 . S
C56 C55 1.374 1_645 S
C56 C57 1.383 1_655 S
C57 O51 1.412 1_455 S
C57 C56 1.383 1_455 S
C57 C58 1.394 1_545 S
C58 H48 0.929 . S
C58 C54 1.377 . S
C58 C57 1.394 1_565 S
H59 C66 0.929 . S
H60 C69 0.930 1_655 S
H61 C71 0.929 . S
H62 C63 0.969 . S
C63 H62 0.969 . S
C63 O64 1.570 . S
C63 H65 0.973 . S
O64 C63 1.570 . S
O64 C70 1.406 1_665 S
H65 C63 0.973 . S
C66 H59 0.929 . S
C66 C67 1.400 . S
C66 C68 1.364 . S
C67 C66 1.400 . S
C67 C71 1.377 . S
C68 C66 1.364 . S
C68 C69 1.374 1_545 S
C69 H60 0.930 1_455 S
C69 C68 1.374 1_565 S
C69 C70 1.383 1_565 S
C70 O64 1.406 1_445 S
C70 C69 1.383 1_545 S
C70 C71 1.394 . S
C71 H61 0.929 . S
C71 C67 1.377 . S
C71 C70 1.394 . S
H72 C79 0.929 . S
H73 C82 0.930 . S
H74 C84 0.929 . S
H75 C76 0.969 . S
C76 H75 0.969 . S
C76 O77 1.550 . S
C76 H78 0.973 . S
O77 C76 1.550 . S
O77 C83 1.412 . S
H78 C76 0.973 . S
C79 H72 0.929 . S
C79 C80 1.400 . S
C79 C81 1.364 . S
C80 C79 1.400 . S
C80 C84 1.377 . S
C81 C79 1.364 . S
C81 C82 1.374 . S
C82 H73 0.930 . S
C82 C81 1.374 . S
C82 C83 1.383 . S
C83 O77 1.412 . S
C83 C82 1.383 . S
C83 C84 1.394 . S
C84 H74 0.929 . S
C84 C80 1.377 . S
C84 C83 1.394 . S
H85 C92 0.929 . S
H86 C95 0.930 . S
H87 C97 0.929 . S
H88 C89 0.969 . S
C89 H88 0.969 . S
C89 O90 1.550 . S
C89 H91 0.973 . S
O90 C89 1.550 . S
O90 C96 1.412 . S
H91 C89 0.973 . S
C92 H85 0.929 . S
C92 C93 1.400 . S
C92 C94 1.364 . S
C93 C92 1.400 . S
C93 C97 1.377 . S
C94 C92 1.364 . S
C94 C95 1.374 . S
C95 H86 0.930 . S
C95 C94 1.374 . S
C95 C96 1.383 . S
C96 O90 1.412 . S
C96 C95 1.383 . S
C96 C97 1.394 . S
C97 H87 0.929 . S
C97 C93 1.377 . S
C97 C96 1.394 . S
H98 C116 0.951 . S
H99 C118 0.951 . S
H100 C120 0.950 . S
H101 C121 0.950 1_556 S
H102 C123 0.950 . S
H103 C126 0.950 1_556 S
H104 C127 0.950 . S
H105 C129 0.950 . S
H106 C130 0.950 . S
H107 C131 0.951 . S
H108 C133 0.951 . S
H109 C135 0.950 . S
H110 C136 0.950 . S
H111 C138 0.950 . S
H112 C141 0.950 . S
H113 C142 0.950 . S
H114 C144 0.950 . S
H115 C145 0.950 . S
C116 H98 0.951 . S
C116 C117 1.366 . S
C116 C118 1.388 . S
C117 C116 1.366 . S
C117 C121 1.385 . S
C118 H99 0.951 . S
C118 C116 1.388 . S
C118 C119 1.366 . S
C119 C118 1.366 . S
C119 C120 1.414 . S
C119 C122 1.499 . S
C120 H100 0.950 . S
C120 C119 1.414 . S
C120 C121 1.374 . S
C121 H101 0.950 1_554 S
C121 C117 1.385 . S
C121 C120 1.374 . S
C122 C119 1.499 . S
C122 C123 1.373 . S
C122 C124 1.389 . S
C123 H102 0.950 . S
C123 C122 1.373 . S
C123 C139 1.377 . S
C124 C122 1.389 . S
C124 C125 1.524 . S
C124 C138 1.377 . S
C125 C124 1.524 . S
C125 C126 1.397 . S
C125 C130 1.363 . S
C126 H103 0.950 1_554 S
C126 C125 1.397 . S
C126 C127 1.334 1_554 S
C127 H104 0.950 . S
C127 C126 1.334 1_556 S
C127 C128 1.287 1_556 S
C128 C127 1.287 1_554 S
C128 C129 1.524 . S
C128 H147 0.913 . S
C129 H105 0.950 . S
C129 C128 1.524 . S
C129 C130 1.415 . S
C130 H106 0.950 . S
C130 C125 1.363 . S
C130 C129 1.415 . S
C131 H107 0.951 . S
C131 C132 1.366 . S
C131 C133 1.388 . S
C132 C131 1.366 . S
C132 C136 1.385 . S
C133 H108 0.951 . S
C133 C131 1.388 . S
C133 C134 1.366 . S
C134 C133 1.366 . S
C134 C135 1.414 . S
C134 C137 1.499 . S
C135 H109 0.950 . S
C135 C134 1.414 . S
C135 C136 1.374 . S
C136 H110 0.950 . S
C136 C132 1.385 . S
C136 C135 1.374 . S
C137 C134 1.499 . S
C137 C138 1.373 . S
C137 C139 1.389 . S
C138 H111 0.950 . S
C138 C124 1.377 . S
C138 C137 1.373 . S
C139 C123 1.377 . S
C139 C137 1.389 . S
C139 C140 1.524 . S
C140 C139 1.524 . S
C140 C141 1.397 . S
C140 C145 1.363 . S
C141 H112 0.950 . S
C141 C140 1.397 . S
C141 C142 1.334 . S
C142 H113 0.950 . S
C142 C141 1.334 . S
C142 C143 1.287 . S
C143 C142 1.287 . S
C143 C144 1.524 . S
C143 H146 0.999 . S
C144 H114 0.950 . S
C144 C143 1.524 . S
C144 C145 1.415 . S
C145 H115 0.950 . S
C145 C140 1.363 . S
C145 C144 1.415 . S
H146 C143 0.999 . S
H147 C128 0.913 . S
H148 C166 0.951 . S
H149 C168 0.951 . S
H150 C170 0.950 . S
H151 C171 0.950 . S
H152 C173 0.950 . S
H153 C176 0.950 . S
H154 C177 0.950 . S
H155 C179 0.950 . S
H156 C180 0.950 . S
H157 C181 0.951 . S
H158 C183 0.951 . S
H159 C185 0.950 . S
H160 C186 0.950 . S
H161 C188 0.950 . S
H162 C191 0.950 . S
H163 C192 0.950 . S
H164 C194 0.950 . S
H165 C195 0.950 . S
C166 H148 0.951 . S
C166 C167 1.366 1_554 S
C166 C168 1.388 . S
C167 C166 1.366 1_556 S
C167 C171 1.385 . S
C168 H149 0.951 . S
C168 C166 1.388 . S
C168 C169 1.366 1_554 S
C169 C168 1.366 1_556 S
C169 C170 1.414 . S
C169 C172 1.499 . S
C170 H150 0.950 . S
C170 C169 1.414 . S
C170 C171 1.374 . S
C171 H151 0.950 . S
C171 C167 1.385 . S
C171 C170 1.374 . S
C172 C169 1.499 . S
C172 C173 1.373 . S
C172 C174 1.389 . S
C173 H152 0.950 . S
C173 C172 1.373 . S
C173 C189 1.377 . S
C174 C172 1.389 . S
C174 C175 1.524 . S
C174 C188 1.377 . S
C175 C174 1.524 . S
C175 C176 1.397 . S
C175 C180 1.363 . S
C176 H153 0.950 . S
C176 C175 1.397 . S
C176 C177 1.334 . S
C177 H154 0.950 . S
C177 C176 1.334 . S
C177 C178 1.287 . S
C178 C177 1.287 . S
C178 C179 1.524 . S
C178 H197 0.913 . S
C179 H155 0.950 . S
C179 C178 1.524 . S
C179 C180 1.415 . S
C180 H156 0.950 . S
C180 C175 1.363 . S
C180 C179 1.415 . S
C181 H157 0.951 . S
C181 C182 1.366 . S
C181 C183 1.388 . S
C182 C181 1.366 . S
C182 C186 1.385 . S
C183 H158 0.951 . S
C183 C181 1.388 . S
C183 C184 1.366 . S
C184 C183 1.366 . S
C184 C185 1.414 . S
C184 C187 1.499 . S
C185 H159 0.950 . S
C185 C184 1.414 . S
C185 C186 1.374 . S
C186 H160 0.950 . S
C186 C182 1.385 . S
C186 C185 1.374 . S
C187 C184 1.499 . S
C187 C188 1.373 . S
C187 C189 1.389 . S
C188 H161 0.950 . S
C188 C174 1.377 . S
C188 C187 1.373 . S
C189 C173 1.377 . S
C189 C187 1.389 . S
C189 C190 1.524 . S
C190 C189 1.524 . S
C190 C191 1.397 . S
C190 C195 1.363 . S
C191 H162 0.950 . S
C191 C190 1.397 . S
C191 C192 1.334 . S
C192 H163 0.950 . S
C192 C191 1.334 . S
C192 C193 1.287 . S
C193 C192 1.287 . S
C193 C194 1.524 . S
C193 H196 0.999 . S
C194 H164 0.950 . S
C194 C193 1.524 . S
C194 C195 1.415 . S
C195 H165 0.950 . S
C195 C190 1.363 . S
C195 C194 1.415 . S
H196 C193 0.999 . S
H197 C178 0.913 . S
H198 C216 0.951 . S
H199 C218 0.951 . S
H200 C220 0.950 . S
H201 C221 0.950 . S
H202 C223 0.950 . S
H203 C226 0.949 1_556 S
H204 C227 0.950 . S
H205 C229 0.950 . S
H206 C230 0.950 . S
H207 C231 0.951 . S
H208 C233 0.951 . S
H209 C235 0.950 . S
H210 C236 0.950 . S
H211 C238 0.950 . S
H212 C241 0.950 . S
H213 C242 0.950 . S
H214 C244 0.950 . S
H215 C245 0.950 . S
C216 H198 0.951 . S
C216 C217 1.366 . S
C216 C218 1.388 . S
C217 C216 1.366 . S
C217 C221 1.385 . S
C218 H199 0.951 . S
C218 C216 1.388 . S
C218 C219 1.366 . S
C219 C218 1.366 . S
C219 C220 1.414 . S
C219 C222 1.499 . S
C220 H200 0.950 . S
C220 C219 1.414 . S
C220 C221 1.374 . S
C221 H201 0.950 . S
C221 C217 1.385 . S
C221 C220 1.374 . S
C222 C219 1.499 . S
C222 C223 1.373 . S
C222 C224 1.389 . S
C223 H202 0.950 . S
C223 C222 1.373 . S
C223 C239 1.377 . S
C224 C222 1.389 . S
C224 C225 1.524 . S
C224 C238 1.377 . S
C225 C224 1.524 . S
C225 C226 1.399 . S
C225 C230 1.363 . S
C226 H203 0.949 1_554 S
C226 C225 1.399 . S
C226 C227 1.333 1_554 S
C227 H204 0.950 . S
C227 C226 1.333 1_556 S
C227 C228 1.287 . S
C228 C227 1.287 . S
C228 C229 1.524 1_556 S
C228 H247 0.913 . S
C229 H205 0.950 . S
C229 C228 1.524 1_554 S
C229 C230 1.415 . S
C230 H206 0.950 . S
C230 C225 1.363 . S
C230 C229 1.415 . S
C231 H207 0.951 . S
C231 C232 1.366 . S
C231 C233 1.388 . S
C232 C231 1.366 . S
C232 C236 1.385 . S
C233 H208 0.951 . S
C233 C231 1.388 . S
C233 C234 1.366 . S
C234 C233 1.366 . S
C234 C235 1.414 . S
C234 C237 1.499 . S
C235 H209 0.950 . S
C235 C234 1.414 . S
C235 C236 1.374 . S
C236 H210 0.950 . S
C236 C232 1.385 . S
C236 C235 1.374 . S
C237 C234 1.499 . S
C237 C238 1.373 . S
C237 C239 1.389 . S
C238 H211 0.950 . S
C238 C224 1.377 . S
C238 C237 1.373 . S
C239 C223 1.377 . S
C239 C237 1.389 . S
C239 C240 1.524 . S
C240 C239 1.524 . S
C240 C241 1.397 . S
C240 C245 1.363 . S
C241 H212 0.950 . S
C241 C240 1.397 . S
C241 C242 1.334 . S
C242 H213 0.950 . S
C242 C241 1.334 . S
C242 C243 1.287 . S
C243 C242 1.287 . S
C243 C244 1.524 . S
C243 H246 0.999 . S
C244 H214 0.950 . S
C244 C243 1.524 . S
C244 C245 1.415 . S
C245 H215 0.950 . S
C245 C240 1.363 . S
C245 C244 1.415 . S
H246 C243 0.999 . S
H247 C228 0.913 . S
H248 C266 0.951 . S
H249 C268 0.951 . S
H250 C270 0.950 . S
H251 C271 0.950 . S
H252 C273 0.950 . S
H253 C276 0.950 . S
H254 C277 0.950 . S
H255 C279 0.950 . S
H256 C280 0.950 1_556 S
H257 C281 0.951 . S
H258 C283 0.951 . S
H259 C285 0.950 . S
H260 C286 0.950 . S
H261 C288 0.950 . S
H262 C291 0.950 . S
H263 C292 0.950 . S
H264 C294 0.950 . S
H265 C295 0.950 . S
C266 H248 0.951 . S
C266 C267 1.366 . S
C266 C268 1.388 . S
C267 C266 1.366 . S
C267 C271 1.385 . S
C268 H249 0.951 . S
C268 C266 1.388 . S
C268 C269 1.366 . S
C269 C268 1.366 . S
C269 C270 1.414 . S
C269 C272 1.499 . S
C270 H250 0.950 . S
C270 C269 1.414 . S
C270 C271 1.374 . S
C271 H251 0.950 . S
C271 C267 1.385 . S
C271 C270 1.374 . S
C272 C269 1.499 . S
C272 C273 1.373 . S
C272 C274 1.389 . S
C273 H252 0.950 . S
C273 C272 1.373 . S
C273 C289 1.377 . S
C274 C272 1.389 . S
C274 C275 1.524 1_556 S
C274 C288 1.377 . S
C275 C274 1.524 1_554 S
C275 C276 1.397 . S
C275 C280 1.363 . S
C276 H253 0.950 . S
C276 C275 1.397 . S
C276 C277 1.334 . S
C277 H254 0.950 . S
C277 C276 1.334 . S
C277 C278 1.287 . S
C278 C277 1.287 . S
C278 C279 1.524 . S
C278 H297 0.913 . S
C279 H255 0.950 . S
C279 C278 1.524 . S
C279 C280 1.415 . S
C280 H256 0.950 1_554 S
C280 C275 1.363 . S
C280 C279 1.415 . S
C281 H257 0.951 . S
C281 C282 1.366 . S
C281 C283 1.388 . S
C282 C281 1.366 . S
C282 C286 1.385 . S
C283 H258 0.951 . S
C283 C281 1.388 . S
C283 C284 1.366 . S
C284 C283 1.366 . S
C284 C285 1.414 . S
C284 C287 1.499 . S
C285 H259 0.950 . S
C285 C284 1.414 . S
C285 C286 1.374 . S
C286 H260 0.950 . S
C286 C282 1.385 . S
C286 C285 1.374 . S
C287 C284 1.499 . S
C287 C288 1.373 . S
C287 C289 1.389 . S
C288 H261 0.950 . S
C288 C274 1.377 . S
C288 C287 1.373 . S
C289 C273 1.377 . S
C289 C287 1.389 . S
C289 C290 1.524 . S
C290 C289 1.524 . S
C290 C291 1.397 . S
C290 C295 1.363 . S
C291 H262 0.950 . S
C291 C290 1.397 . S
C291 C292 1.334 . S
C292 H263 0.950 . S
C292 C291 1.334 . S
C292 C293 1.287 . S
C293 C292 1.287 . S
C293 C294 1.524 . S
C293 H296 0.999 . S
C294 H264 0.950 . S
C294 C293 1.524 . S
C294 C295 1.415 . S
C295 H265 0.950 . S
C295 C290 1.363 . S
C295 C294 1.415 . S
H296 C293 0.999 . S
H297 C278 0.913 . S
H298 C316 0.951 . S
H299 C318 0.951 . S
H300 C320 0.950 . S
H301 C321 0.950 . S
H302 C323 0.950 . S
H303 C326 0.950 . S
H304 C327 0.950 . S
H305 C329 0.950 . S
H306 C330 0.950 . S
H307 C331 0.951 . S
H308 C333 0.951 . S
H309 C335 0.950 . S
H310 C336 0.950 . S
H311 C338 0.950 . S
H312 C341 0.950 . S
H313 C342 0.950 . S
H314 C344 0.950 . S
H315 C345 0.950 . S
C316 H298 0.951 . S
C316 C317 1.366 . S
C316 C318 1.388 . S
C317 C316 1.366 . S
C317 C321 1.385 . S
C318 H299 0.951 . S
C318 C316 1.388 . S
C318 C319 1.366 . S
C319 C318 1.366 . S
C319 C320 1.414 . S
C319 C322 1.499 . S
C320 H300 0.950 . S
C320 C319 1.414 . S
C320 C321 1.374 . S
C321 H301 0.950 . S
C321 C317 1.385 . S
C321 C320 1.374 . S
C322 C319 1.499 . S
C322 C323 1.373 . S
C322 C324 1.389 . S
C323 H302 0.950 . S
C323 C322 1.373 . S
C323 C339 1.377 . S
C324 C322 1.389 . S
C324 C325 1.524 . S
C324 C338 1.377 . S
C325 C324 1.524 . S
C325 C326 1.397 . S
C325 C330 1.363 . S
C326 H303 0.950 . S
C326 C325 1.397 . S
C326 C327 1.334 . S
C327 H304 0.950 . S
C327 C326 1.334 . S
C327 C328 1.287 . S
C328 C327 1.287 . S
C328 C329 1.524 . S
C328 H347 0.913 . S
C329 H305 0.950 . S
C329 C328 1.524 . S
C329 C330 1.415 . S
C330 H306 0.950 . S
C330 C325 1.363 . S
C330 C329 1.415 . S
C331 H307 0.951 . S
C331 C332 1.366 . S
C331 C333 1.388 . S
C332 C331 1.366 . S
C332 C336 1.385 . S
C333 H308 0.951 . S
C333 C331 1.388 . S
C333 C334 1.366 . S
C334 C333 1.366 . S
C334 C335 1.414 . S
C334 C337 1.499 . S
C335 H309 0.950 . S
C335 C334 1.414 . S
C335 C336 1.374 . S
C336 H310 0.950 . S
C336 C332 1.385 . S
C336 C335 1.374 . S
C337 C334 1.499 . S
C337 C338 1.373 . S
C337 C339 1.389 . S
C338 H311 0.950 . S
C338 C324 1.377 . S
C338 C337 1.373 . S
C339 C323 1.377 . S
C339 C337 1.389 . S
C339 C340 1.524 . S
C340 C339 1.524 . S
C340 C341 1.397 . S
C340 C345 1.363 . S
C341 H312 0.950 . S
C341 C340 1.397 . S
C341 C342 1.334 . S
C342 H313 0.950 . S
C342 C341 1.334 . S
C342 C343 1.287 . S
C343 C342 1.287 . S
C343 C344 1.524 . S
C343 H346 0.999 . S
C344 H314 0.950 . S
C344 C343 1.524 . S
C344 C345 1.415 . S
C345 H315 0.950 . S
C345 C340 1.363 . S
C345 C344 1.415 . S
H346 C343 0.999 . S
H347 C328 0.913 . S
H348 C366 0.951 . S
H349 C368 0.951 . S
H350 C370 0.950 . S
H351 C371 0.950 . S
H352 C373 0.950 . S
H353 C376 0.950 . S
H354 C377 0.950 . S
H355 C379 0.950 . S
H356 C380 0.950 . S
H357 C381 0.951 . S
H358 C383 0.951 . S
H359 C385 0.950 . S
H360 C386 0.950 . S
H361 C388 0.950 . S
H362 C391 0.950 . S
H363 C392 0.950 . S
H364 C394 0.950 . S
H365 C395 0.950 . S
C366 H348 0.951 . S
C366 C367 1.366 . S
C366 C368 1.388 . S
C367 C366 1.366 . S
C367 C371 1.385 . S
C368 H349 0.951 . S
C368 C366 1.388 . S
C368 C369 1.366 . S
C369 C368 1.366 . S
C369 C370 1.414 . S
C369 C372 1.499 . S
C370 H350 0.950 . S
C370 C369 1.414 . S
C370 C371 1.374 . S
C371 H351 0.950 . S
C371 C367 1.385 . S
C371 C370 1.374 . S
C372 C369 1.499 . S
C372 C373 1.373 . S
C372 C374 1.389 . S
C373 H352 0.950 . S
C373 C372 1.373 . S
C373 C389 1.377 . S
C374 C372 1.389 . S
C374 C375 1.524 . S
C374 C388 1.377 . S
C375 C374 1.524 . S
C375 C376 1.397 . S
C375 C380 1.363 . S
C376 H353 0.950 . S
C376 C375 1.397 . S
C376 C377 1.334 . S
C377 H354 0.950 . S
C377 C376 1.334 . S
C377 C378 1.287 . S
C378 C377 1.287 . S
C378 C379 1.524 . S
C378 H397 0.913 . S
C379 H355 0.950 . S
C379 C378 1.524 . S
C379 C380 1.415 . S
C380 H356 0.950 . S
C380 C375 1.363 . S
C380 C379 1.415 . S
C381 H357 0.951 . S
C381 C382 1.366 . S
C381 C383 1.388 . S
C382 C381 1.366 . S
C382 C386 1.385 . S
C383 H358 0.951 . S
C383 C381 1.388 . S
C383 C384 1.366 . S
C384 C383 1.366 . S
C384 C385 1.414 . S
C384 C387 1.499 . S
C385 H359 0.950 . S
C385 C384 1.414 . S
C385 C386 1.374 . S
C386 H360 0.950 . S
C386 C382 1.385 . S
C386 C385 1.374 . S
C387 C384 1.499 . S
C387 C388 1.373 . S
C387 C389 1.389 . S
C388 H361 0.950 . S
C388 C374 1.377 . S
C388 C387 1.373 . S
C389 C373 1.377 . S
C389 C387 1.389 . S
C389 C390 1.524 . S
C390 C389 1.524 . S
C390 C391 1.397 . S
C390 C395 1.363 . S
C391 H362 0.950 . S
C391 C390 1.397 . S
C391 C392 1.334 . S
C392 H363 0.950 . S
C392 C391 1.334 . S
C392 C393 1.287 . S
C393 C392 1.287 . S
C393 C394 1.524 . S
C393 H396 0.999 . S
C394 H364 0.950 . S
C394 C393 1.524 . S
C394 C395 1.415 . S
C395 H365 0.950 . S
C395 C390 1.363 . S
C395 C394 1.415 . S
H396 C393 0.999 . S
H397 C378 0.913 . S
H398 C416 0.951 . S
H399 C418 0.951 . S
H400 C420 0.950 . S
H401 C421 0.950 . S
H402 C423 0.950 . S
H403 C426 0.950 . S
H404 C427 0.950 . S
H405 C429 0.950 . S
H406 C430 0.950 . S
H407 C431 0.951 . S
H408 C433 0.951 . S
H409 C435 0.950 . S
H410 C436 0.950 . S
H411 C438 0.950 . S
H412 C441 0.950 . S
H413 C442 0.950 . S
H414 C444 0.950 . S
H415 C445 0.950 . S
C416 H398 0.951 . S
C416 C417 1.366 . S
C416 C418 1.388 . S
C417 C416 1.366 . S
C417 C421 1.385 . S
C418 H399 0.951 . S
C418 C416 1.388 . S
C418 C419 1.366 . S
C419 C418 1.366 . S
C419 C420 1.414 . S
C419 C422 1.499 . S
C420 H400 0.950 . S
C420 C419 1.414 . S
C420 C421 1.374 . S
C421 H401 0.950 . S
C421 C417 1.385 . S
C421 C420 1.374 . S
C422 C419 1.499 . S
C422 C423 1.373 . S
C422 C424 1.389 . S
C423 H402 0.950 . S
C423 C422 1.373 . S
C423 C439 1.377 . S
C424 C422 1.389 . S
C424 C425 1.524 . S
C424 C438 1.377 . S
C425 C424 1.524 . S
C425 C426 1.397 . S
C425 C430 1.363 . S
C426 H403 0.950 . S
C426 C425 1.397 . S
C426 C427 1.334 . S
C427 H404 0.950 . S
C427 C426 1.334 . S
C427 C428 1.287 . S
C428 C427 1.287 . S
C428 C429 1.524 . S
C428 H447 0.913 . S
C429 H405 0.950 . S
C429 C428 1.524 . S
C429 C430 1.415 . S
C430 H406 0.950 . S
C430 C425 1.363 . S
C430 C429 1.415 . S
C431 H407 0.951 . S
C431 C432 1.366 . S
C431 C433 1.388 . S
C432 C431 1.366 . S
C432 C436 1.385 . S
C433 H408 0.951 . S
C433 C431 1.388 . S
C433 C434 1.366 . S
C434 C433 1.366 . S
C434 C435 1.414 . S
C434 C437 1.499 . S
C435 H409 0.950 . S
C435 C434 1.414 . S
C435 C436 1.374 . S
C436 H410 0.950 . S
C436 C432 1.385 . S
C436 C435 1.374 . S
C437 C434 1.499 . S
C437 C438 1.373 . S
C437 C439 1.389 . S
C438 H411 0.950 . S
C438 C424 1.377 . S
C438 C437 1.373 . S
C439 C423 1.377 . S
C439 C437 1.389 . S
C439 C440 1.524 . S
C440 C439 1.524 . S
C440 C441 1.397 . S
C440 C445 1.363 . S
C441 H412 0.950 . S
C441 C440 1.397 . S
C441 C442 1.334 . S
C442 H413 0.950 . S
C442 C441 1.334 . S
C442 C443 1.287 . S
C443 C442 1.287 . S
C443 C444 1.524 . S
C443 H446 0.999 . S
C444 H414 0.950 . S
C444 C443 1.524 . S
C444 C445 1.415 . S
C445 H415 0.950 . S
C445 C440 1.363 . S
C445 C444 1.415 . S
H446 C443 0.999 . S
H447 C428 0.913 . S
H448 C466 0.951 . S
H449 C468 0.951 . S
H450 C470 0.950 . S
H451 C471 0.950 . S
H452 C473 0.950 . S
H453 C476 0.950 . S
H454 C477 0.950 . S
H455 C479 0.950 . S
H456 C480 0.950 . S
H457 C481 0.951 . S
H458 C483 0.951 . S
H459 C485 0.950 . S
H460 C486 0.950 . S
H461 C488 0.950 . S
H462 C491 0.950 . S
H463 C492 0.950 . S
H464 C494 0.950 . S
H465 C495 0.950 . S
C466 H448 0.951 . S
C466 C467 1.366 . S
C466 C468 1.388 . S
C467 C466 1.366 . S
C467 C471 1.385 . S
C468 H449 0.951 . S
C468 C466 1.388 . S
C468 C469 1.366 . S
C469 C468 1.366 . S
C469 C470 1.414 . S
C469 C472 1.499 . S
C470 H450 0.950 . S
C470 C469 1.414 . S
C470 C471 1.374 . S
C471 H451 0.950 . S
C471 C467 1.385 . S
C471 C470 1.374 . S
C472 C469 1.499 . S
C472 C473 1.373 . S
C472 C474 1.389 . S
C473 H452 0.950 . S
C473 C472 1.373 . S
C473 C489 1.377 . S
C474 C472 1.389 . S
C474 C475 1.524 . S
C474 C488 1.377 . S
C475 C474 1.524 . S
C475 C476 1.397 . S
C475 C480 1.363 . S
C476 H453 0.950 . S
C476 C475 1.397 . S
C476 C477 1.334 . S
C477 H454 0.950 . S
C477 C476 1.334 . S
C477 C478 1.287 . S
C478 C477 1.287 . S
C478 C479 1.524 . S
C478 H497 0.913 . S
C479 H455 0.950 . S
C479 C478 1.524 . S
C479 C480 1.415 . S
C480 H456 0.950 . S
C480 C475 1.363 . S
C480 C479 1.415 . S
C481 H457 0.951 . S
C481 C482 1.366 . S
C481 C483 1.388 . S
C482 C481 1.366 . S
C482 C486 1.385 . S
C483 H458 0.951 . S
C483 C481 1.388 . S
C483 C484 1.366 . S
C484 C483 1.366 . S
C484 C485 1.414 . S
C484 C487 1.499 . S
C485 H459 0.950 . S
C485 C484 1.414 . S
C485 C486 1.374 . S
C486 H460 0.950 . S
C486 C482 1.385 . S
C486 C485 1.374 . S
C487 C484 1.499 . S
C487 C488 1.373 . S
C487 C489 1.389 . S
C488 H461 0.950 . S
C488 C474 1.377 . S
C488 C487 1.373 . S
C489 C473 1.377 . S
C489 C487 1.389 . S
C489 C490 1.524 . S
C490 C489 1.524 . S
C490 C491 1.397 . S
C490 C495 1.363 . S
C491 H462 0.950 . S
C491 C490 1.397 . S
C491 C492 1.334 . S
C492 H463 0.950 . S
C492 C491 1.334 . S
C492 C493 1.287 . S
C493 C492 1.287 . S
C493 C494 1.524 . S
C493 H496 0.999 . S
C494 H464 0.950 . S
C494 C493 1.524 . S
C494 C495 1.415 . S
C495 H465 0.950 . S
C495 C490 1.363 . S
C495 C494 1.415 . S
H496 C493 0.999 . S
H497 C478 0.913 . S
H498 C516 0.953 . S
H499 C518 0.951 . S
H500 C520 0.950 . S
H501 C521 0.950 . S
H502 C523 0.950 . S
H503 C526 0.950 . S
H504 C527 0.950 . S
H505 C529 0.950 1_565 S
H506 C530 0.950 . S
H507 C531 0.951 . S
H508 C533 0.951 . S
H509 C535 0.950 . S
H510 C536 0.950 . S
H511 C538 0.950 . S
H512 C541 0.950 . S
H513 C542 0.950 . S
H514 C544 0.950 1_545 S
H515 C545 0.950 . S
C516 H498 0.953 . S
C516 C517 1.364 1_665 S
C516 C518 1.388 . S
C517 C516 1.364 1_445 S
C517 C521 1.385 . S
C518 H499 0.951 . S
C518 C516 1.388 . S
C518 C519 1.366 1_665 S
C519 C518 1.366 1_445 S
C519 C520 1.414 . S
C519 C522 1.499 . S
C520 H500 0.950 . S
C520 C519 1.414 . S
C520 C521 1.374 . S
C521 H501 0.950 . S
C521 C517 1.385 . S
C521 C520 1.374 . S
C522 C519 1.499 . S
C522 C523 1.373 1_545 S
C522 C524 1.389 1_455 S
C523 H502 0.950 . S
C523 C522 1.373 1_565 S
C523 C539 1.377 . S
C524 C522 1.389 1_655 S
C524 C525 1.524 . S
C524 C538 1.377 . S
C525 C524 1.524 . S
C525 C526 1.397 . S
C525 C530 1.363 1_545 S
C526 H503 0.950 . S
C526 C525 1.397 . S
C526 C527 1.334 . S
C527 H504 0.950 . S
C527 C526 1.334 . S
C527 C528 1.287 . S
C528 C527 1.287 . S
C528 C529 1.524 . S
C528 H547 0.913 . S
C529 H505 0.950 1_545 S
C529 C528 1.524 . S
C529 C530 1.415 1_545 S
C530 H506 0.950 . S
C530 C525 1.363 1_565 S
C530 C529 1.415 1_565 S
C531 H507 0.951 . S
C531 C532 1.366 1_545 S
C531 C533 1.388 . S
C532 C531 1.366 1_565 S
C532 C536 1.385 1_455 S
C533 H508 0.951 . S
C533 C531 1.388 . S
C533 C534 1.366 1_545 S
C534 C533 1.366 1_565 S
C534 C535 1.414 1_455 S
C534 C537 1.499 . S
C535 H509 0.950 . S
C535 C534 1.414 1_655 S
C535 C536 1.374 . S
C536 H510 0.950 . S
C536 C532 1.385 1_655 S
C536 C535 1.374 . S
C537 C534 1.499 . S
C537 C538 1.373 1_465 S
C537 C539 1.389 . S
C538 H511 0.950 . S
C538 C524 1.377 . S
C538 C537 1.373 1_645 S
C539 C523 1.377 . S
C539 C537 1.389 . S
C539 C540 1.524 . S
C540 C539 1.524 . S
C540 C541 1.397 . S
C540 C545 1.363 1_565 S
C541 H512 0.950 . S
C541 C540 1.397 . S
C541 C542 1.334 . S
C542 H513 0.950 . S
C542 C541 1.334 . S
C542 C543 1.287 . S
C543 C542 1.287 . S
C543 C544 1.524 . S
C543 H546 0.999 . S
C544 H514 0.950 1_565 S
C544 C543 1.524 . S
C544 C545 1.415 1_565 S
C545 H515 0.950 . S
C545 C540 1.363 1_545 S
C545 C544 1.415 1_545 S
H546 C543 0.999 . S
H547 C528 0.913 . S
H548 C566 0.951 . S
H549 C568 0.951 . S
H550 C570 0.950 1_655 S
H551 C571 0.950 1_655 S
H552 C573 0.950 . S
H553 C576 0.950 . S
H554 C577 0.950 . S
H555 C579 0.945 1_455 S
H556 C580 0.950 . S
H557 C581 0.951 1_655 S
H558 C583 0.951 1_655 S
H559 C585 0.950 . S
H560 C586 0.950 . S
H561 C588 0.950 . S
H562 C591 0.950 . S
H563 C592 0.950 . S
H564 C594 0.950 . S
H565 C595 0.950 . S
C566 H548 0.951 . S
C566 C567 1.366 . S
C566 C568 1.388 . S
C567 C566 1.366 . S
C567 C571 1.385 1_545 S
C568 H549 0.951 . S
C568 C566 1.388 . S
C568 C569 1.366 . S
C569 C568 1.366 . S
C569 C570 1.414 1_545 S
C569 C572 1.499 . S
C570 H550 0.950 1_455 S
C570 C569 1.414 1_565 S
C570 C571 1.374 . S
C571 H551 0.950 1_455 S
C571 C567 1.385 1_565 S
C571 C570 1.374 . S
C572 C569 1.499 . S
C572 C573 1.373 1_545 S
C572 C574 1.389 . S
C573 H552 0.950 . S
C573 C572 1.373 1_565 S
C573 C589 1.377 . S
C574 C572 1.389 . S
C574 C575 1.531 . S
C574 C588 1.377 . S
C575 C574 1.531 . S
C575 C576 1.382 1_455 S
C575 C580 1.370 . S
C576 H553 0.950 . S
C576 C575 1.382 1_655 S
C576 C577 1.334 . S
C577 H554 0.950 . S
C577 C576 1.334 . S
C577 C578 1.287 . S
C578 C577 1.287 . S
C578 C579 1.534 . S
C578 H597 0.913 . S
C579 H555 0.945 1_655 S
C579 C578 1.534 . S
C579 C580 1.410 1_655 S
C580 H556 0.950 . S
C580 C575 1.370 . S
C580 C579 1.410 1_455 S
C581 H557 0.951 1_455 S
C581 C582 1.366 1_565 S
C581 C583 1.388 . S
C582 C581 1.366 1_545 S
C582 C586 1.385 . S
C583 H558 0.951 1_455 S
C583 C581 1.388 . S
C583 C584 1.366 1_565 S
C584 C583 1.366 1_545 S
C584 C585 1.414 . S
C584 C587 1.499 . S
C585 H559 0.950 . S
C585 C584 1.414 . S
C585 C586 1.374 . S
C586 H560 0.950 . S
C586 C582 1.385 . S
C586 C585 1.374 . S
C587 C584 1.499 . S
C587 C588 1.373 . S
C587 C589 1.389 1_545 S
C588 H561 0.950 . S
C588 C574 1.377 . S
C588 C587 1.373 . S
C589 C573 1.377 . S
C589 C587 1.389 1_565 S
C589 C590 1.524 . S
C590 C589 1.524 . S
C590 C591 1.397 . S
C590 C595 1.363 . S
C591 H562 0.950 . S
C591 C590 1.397 . S
C591 C592 1.334 . S
C592 H563 0.950 . S
C592 C591 1.334 . S
C592 C593 1.287 . S
C593 C592 1.287 . S
C593 C594 1.524 . S
C593 H596 0.999 . S
C594 H564 0.950 . S
C594 C593 1.524 . S
C594 C595 1.415 . S
C595 H565 0.950 . S
C595 C590 1.363 . S
C595 C594 1.415 . S
H596 C593 0.999 . S
H597 C578 0.913 . S
H598 C616 0.951 . S
H599 C618 0.951 . S
H600 C620 0.950 . S
H601 C621 0.950 . S
H602 C623 0.950 . S
H603 C626 0.950 . S
H604 C627 0.950 . S
H605 C629 0.950 . S
H606 C630 0.950 . S
H607 C631 0.951 . S
H608 C633 0.951 . S
H609 C635 0.950 . S
H610 C636 0.950 . S
H611 C638 0.950 . S
H612 C641 0.950 . S
H613 C642 0.950 . S
H614 C644 0.950 . S
H615 C645 0.950 . S
C616 H598 0.951 . S
C616 C617 1.366 . S
C616 C618 1.388 . S
C617 C616 1.366 . S
C617 C621 1.385 . S
C618 H599 0.951 . S
C618 C616 1.388 . S
C618 C619 1.366 . S
C619 C618 1.366 . S
C619 C620 1.414 . S
C619 C622 1.499 . S
C620 H600 0.950 . S
C620 C619 1.414 . S
C620 C621 1.374 . S
C621 H601 0.950 . S
C621 C617 1.385 . S
C621 C620 1.374 . S
C622 C619 1.499 . S
C622 C623 1.373 . S
C622 C624 1.389 . S
C623 H602 0.950 . S
C623 C622 1.373 . S
C623 C639 1.377 . S
C624 C622 1.389 . S
C624 C625 1.524 . S
C624 C638 1.377 . S
C625 C624 1.524 . S
C625 C626 1.397 . S
C625 C630 1.363 . S
C626 H603 0.950 . S
C626 C625 1.397 . S
C626 C627 1.334 . S
C627 H604 0.950 . S
C627 C626 1.334 . S
C627 C628 1.287 . S
C628 C627 1.287 . S
C628 C629 1.524 . S
C628 H647 0.913 . S
C629 H605 0.950 . S
C629 C628 1.524 . S
C629 C630 1.415 . S
C630 H606 0.950 . S
C630 C625 1.363 . S
C630 C629 1.415 . S
C631 H607 0.951 . S
C631 C632 1.366 . S
C631 C633 1.388 . S
C632 C631 1.366 . S
C632 C636 1.385 . S
C633 H608 0.951 . S
C633 C631 1.388 . S
C633 C634 1.366 . S
C634 C633 1.366 . S
C634 C635 1.414 . S
C634 C637 1.499 . S
C635 H609 0.950 . S
C635 C634 1.414 . S
C635 C636 1.374 . S
C636 H610 0.950 . S
C636 C632 1.385 . S
C636 C635 1.374 . S
C637 C634 1.499 . S
C637 C638 1.373 . S
C637 C639 1.389 . S
C638 H611 0.950 . S
C638 C624 1.377 . S
C638 C637 1.373 . S
C639 C623 1.377 . S
C639 C637 1.389 . S
C639 C640 1.524 . S
C640 C639 1.524 . S
C640 C641 1.397 . S
C640 C645 1.363 . S
C641 H612 0.950 . S
C641 C640 1.397 . S
C641 C642 1.334 . S
C642 H613 0.950 . S
C642 C641 1.334 . S
C642 C643 1.287 . S
C643 C642 1.287 . S
C643 C644 1.524 . S
C643 H646 0.999 . S
C644 H614 0.950 . S
C644 C643 1.524 . S
C644 C645 1.415 . S
C645 H615 0.950 . S
C645 C640 1.363 . S
C645 C644 1.415 . S
H646 C643 0.999 . S
H647 C628 0.913 . S
H648 C666 0.951 . S
H649 C668 0.951 . S
H650 C670 0.950 . S
H651 C671 0.950 . S
H652 C673 0.950 . S
H653 C676 0.950 . S
H654 C677 0.950 . S
H655 C679 0.950 . S
H656 C680 0.950 . S
H657 C681 0.951 . S
H658 C683 0.951 . S
H659 C685 0.950 . S
H660 C686 0.950 . S
H661 C688 0.950 . S
H662 C691 0.950 . S
H663 C692 0.950 . S
H664 C694 0.950 . S
H665 C695 0.950 . S
C666 H648 0.951 . S
C666 C667 1.366 . S
C666 C668 1.388 . S
C667 C666 1.366 . S
C667 C671 1.385 . S
C668 H649 0.951 . S
C668 C666 1.388 . S
C668 C669 1.366 . S
C669 C668 1.366 . S
C669 C670 1.414 . S
C669 C672 1.499 . S
C670 H650 0.950 . S
C670 C669 1.414 . S
C670 C671 1.374 . S
C671 H651 0.950 . S
C671 C667 1.385 . S
C671 C670 1.374 . S
C672 C669 1.499 . S
C672 C673 1.373 . S
C672 C674 1.389 . S
C673 H652 0.950 . S
C673 C672 1.373 . S
C673 C689 1.377 . S
C674 C672 1.389 . S
C674 C675 1.524 . S
C674 C688 1.377 . S
C675 C674 1.524 . S
C675 C676 1.397 . S
C675 C680 1.363 . S
C676 H653 0.950 . S
C676 C675 1.397 . S
C676 C677 1.334 . S
C677 H654 0.950 . S
C677 C676 1.334 . S
C677 C678 1.287 . S
C678 C677 1.287 . S
C678 C679 1.524 . S
C678 H697 0.913 . S
C679 H655 0.950 . S
C679 C678 1.524 . S
C679 C680 1.415 . S
C680 H656 0.950 . S
C680 C675 1.363 . S
C680 C679 1.415 . S
C681 H657 0.951 . S
C681 C682 1.366 . S
C681 C683 1.388 . S
C682 C681 1.366 . S
C682 C686 1.385 . S
C683 H658 0.951 . S
C683 C681 1.388 . S
C683 C684 1.366 . S
C684 C683 1.366 . S
C684 C685 1.414 . S
C684 C687 1.499 . S
C685 H659 0.950 . S
C685 C684 1.414 . S
C685 C686 1.374 . S
C686 H660 0.950 . S
C686 C682 1.385 . S
C686 C685 1.374 . S
C687 C684 1.499 . S
C687 C688 1.373 . S
C687 C689 1.389 . S
C688 H661 0.950 . S
C688 C674 1.377 . S
C688 C687 1.373 . S
C689 C673 1.377 . S
C689 C687 1.389 . S
C689 C690 1.524 . S
C690 C689 1.524 . S
C690 C691 1.397 . S
C690 C695 1.363 . S
C691 H662 0.950 . S
C691 C690 1.397 . S
C691 C692 1.334 . S
C692 H663 0.950 . S
C692 C691 1.334 . S
C692 C693 1.287 . S
C693 C692 1.287 . S
C693 C694 1.524 . S
C693 H696 0.999 . S
C694 H664 0.950 . S
C694 C693 1.524 . S
C694 C695 1.415 . S
C695 H665 0.950 . S
C695 C690 1.363 . S
C695 C694 1.415 . S
H696 C693 0.999 . S
H697 C678 0.913 . S
C132 C89 1.298 . S
C117 C21 1.382 . S
C167 C19 1.376 1_556 S
C182 C76 1.302 . S
C217 C18 1.482 . S
C232 C93 1.501 . S
C267 C20 1.515 . S
C282 C80 1.515 . S
C317 C44 1.382 . S
C332 C63 1.297 . S
C367 C42 1.377 . S
C382 C50 1.302 . S
C432 C67 1.500 . S
C417 C41 1.482 . S
C482 C54 1.515 . S
C467 C43 1.515 . S
C517 C16 1.529 . S
C532 C55 1.525 . S
C567 C17 1.490 . S
C582 C68 1.488 . S
C632 C81 1.525 . S
C617 C39 1.529 . S
C667 C40 1.490 . S
C682 C94 1.488 . S
